drugbank_target|P51686 C-C chemokine receptor type 9 (DB15250)
 OpenBabel12092120213D

  0  0  0     0  0            999 V3000
M  V30 BEGIN CTAB
M  V30 COUNTS 5959 6030 0 0 0
M  V30 BEGIN ATOM
M  V30 1 H -0.908 1.98254 -0.117106 0
M  V30 2 N 0 1.576 0 0
M  V30 3 C 0.933 2.03868 1.02534 0
M  V30 4 C 1.911 0.928543 1.3348 0
M  V30 5 O 3.095 1.19667 1.45644 0
M  V30 6 C 0.222 2.43627 2.35294 0
M  V30 7 C -0.732 3.65373 2.2001 0
M  V30 8 S 0.101 5.13292 1.52614 0
M  V30 9 C 1.257 5.56322 2.86805 0
M  V30 10 H 1.49 2.90518 0.631377 0
M  V30 11 H -0.977 1.52953 0.210867 0
M  V30 12 H 0.981 2.67203 3.11629 0
M  V30 13 H -0.358 1.57376 2.7183 0
M  V30 14 H -1.165 3.90944 3.18086 0
M  V30 15 H -1.563 3.418 1.51819 0
M  V30 16 H 0.729 5.58782 3.83104 0
M  V30 17 H 1.672 6.56266 2.65933 0
M  V30 18 H 2.08 4.83886 2.90714 0
M  V30 19 N 1.4781 -0.272755 1.55222 0
M  V30 20 C 2.7061 -1.02255 1.79865 0
M  V30 21 C 3.1211 -1.79924 0.572088 0
M  V30 22 O 2.4781 -1.76638 -0.458842 0
M  V30 23 C 2.5291 -1.98094 3.02392 0
M  V30 24 O 2.2501 -1.23572 4.20311 0
M  V30 25 C 3.7511 -2.84884 3.39641 0
M  V30 26 H 0.9711 -0.302057 0.599168 0
M  V30 27 H 3.5151 -0.303465 2.02236 0
M  V30 28 H 1.6701 -2.65465 2.82147 0
M  V30 29 H 2.0841 -1.88172 4.89583 0
M  V30 30 H 3.5581 -3.47927 4.28545 0
M  V30 31 H 4.0351 -3.54665 2.59055 0
M  V30 32 H 4.6411 -2.23003 3.62146 0
M  V30 33 N 2.9562 -1.48159 -0.537278 0
M  V30 34 C 4.3672 -1.49429 -1.11928 0
M  V30 35 C 4.7182 -0.26 -1.9447 0
M  V30 36 O 3.8432 0.633489 -2.0692 0
M  V30 37 C 4.4382 -2.70758 -2.03656 0
M  V30 38 C 2.9972 -2.74923 -2.57088 0
M  V30 39 C 2.1442 -2.42835 -1.3389 0
M  V30 40 H 5.0952 -1.55381 -0.322886 0
M  V30 41 H 5.1162 -2.48861 -2.87834 0
M  V30 42 H 4.6282 -3.60575 -1.43553 0
M  V30 43 H 2.7292 -1.89296 -3.20933 0
M  V30 44 H 2.8422 -3.76157 -2.9672 0
M  V30 45 H 1.2062 -1.93836 -1.65226 0
M  V30 46 H 1.9892 -3.34884 -0.755504 0
M  V30 47 N 4.4343 0.785586 -1.36625 0
M  V30 48 C 5.6623 1.57448 -1.3423 0
M  V30 49 C 6.0773 1.88649 0.0755653 0
M  V30 50 O 5.4343 1.50414 1.03354 0
M  V30 51 C 5.4853 2.89316 -2.16745 0
M  V30 52 O 5.2063 2.59459 -3.53005 0
M  V30 53 C 6.7073 3.83606 -2.22174 0
M  V30 54 H 3.9273 0.488226 -0.4603 0
M  V30 55 H 6.4713 0.974733 -1.79775 0
M  V30 56 H 4.6263 3.4575 -1.74745 0
M  V30 57 H 5.0403 3.43804 -3.96105 0
M  V30 58 H 6.5143 4.73181 -2.8426 0
M  V30 59 H 6.9913 4.21734 -1.22627 0
M  V30 60 H 7.5973 3.33104 -2.64427 0
M  V30 61 N 5.9124 1.20967 1.01018 0
M  V30 62 C 7.1894 0.93264 1.71934 0
M  V30 63 C 7.5694 -0.55692 2.03621 0
M  V30 64 O 6.9174 -1.52035 1.7058 0
M  V30 65 C 7.1274 1.81233 2.98254 0
M  V30 66 C 8.4754 2.05804 3.71389 0
M  V30 67 O 9.4994 1.78539 3.08225 0
M  V30 68 O 8.3584 2.51888 4.84989 0
M  V30 69 H 5.4524 0.349272 0.749625 0
M  V30 70 H 7.9984 1.31871 1.06808 0
M  V30 71 H 6.7704 2.82067 2.71208 0
M  V30 72 H 6.3934 1.42674 3.7112 0
M  V30 73 N 7.3905 -1.2043 1.01659 0
M  V30 74 C 8.6375 -1.89797 0.705917 0
M  V30 75 C 8.9655 -1.78848 -0.764439 0
M  V30 76 O 8.2205 -1.16694 -1.57102 0
M  V30 77 C 8.5195 -3.40464 1.08714 0
M  V30 78 C 8.1855 -3.71614 2.5537 0
M  V30 79 C 6.8475 -3.79826 2.95441 0
M  V30 80 C 9.1995 -3.85915 3.50313 0
M  V30 81 C 6.5275 -3.99797 4.29394 0
M  V30 82 C 8.8795 -4.07396 4.83954 0
M  V30 83 C 7.5435 -4.13837 5.23732 0
M  V30 84 H 6.8135 -0.694518 0.258313 0
M  V30 85 H 9.4605 -1.42691 1.27717 0
M  V30 86 H 7.7655 -3.89385 0.434309 0
M  V30 87 H 9.4625 -3.92433 0.824461 0
M  V30 88 H 6.0525 -3.65822 2.23321 0
M  V30 89 H 10.2365 -3.78926 3.20513 0
M  V30 90 H 5.4925 -4.03018 4.59768 0
M  V30 91 H 9.6665 -4.17404 5.57447 0
M  V30 92 H 7.2935 -4.29064 6.27541 0
M  V30 93 N 8.8686 -0.792821 -1.36206 0
M  V30 94 C 10.0966 -0.378825 -2.03402 0
M  V30 95 C 10.5116 1.00586 -1.59774 0
M  V30 96 O 9.8686 1.64574 -0.788764 0
M  V30 97 C 9.9196 -0.43683 -3.58851 0
M  V30 98 O 9.6406 -1.76691 -4.00889 0
M  V30 99 C 11.1416 -0.0138943 -4.43298 0
M  V30 100 H 8.3616 -0.155673 -0.652692 0
M  V30 101 H 10.9056 -1.07261 -1.74113 0
M  V30 102 H 9.0606 0.208575 -3.86838 0
M  V30 103 H 9.4746 -1.72011 -4.95492 0
M  V30 104 H 10.9486 -0.105615 -5.51899 0
M  V30 105 H 11.4256 1.03915 -4.2673 0
M  V30 106 H 12.0316 -0.63192 -4.20579 0
M  V30 107 N 10.3467 1.47872 -0.545128 0
M  V30 108 C 11.5717 2.07391 -0.0190611 0
M  V30 109 C 11.9967 1.39688 1.25971 0
M  V30 110 O 11.3547 0.467816 1.7516 0
M  V30 111 C 11.4027 3.60188 0.172335 0
M  V30 112 O 10.5067 3.9339 1.23766 0
M  V30 113 H 9.8477 0.662411 -0.0459059 0
M  V30 114 H 12.3777 1.90066 -0.757365 0
M  V30 115 H 12.3877 4.06129 0.390305 0
M  V30 116 H 11.0627 4.08865 -0.761725 0
M  V30 117 H 9.6397 3.5921 1.00114 0
M  V30 118 N 11.8248 0.280983 1.55075 0
M  V30 119 C 13.2358 -0.215629 1.85451 0
M  V30 120 C 13.5868 -1.54991 1.203 0
M  V30 121 O 12.7118 -2.10699 0.493435 0
M  V30 122 C 13.3068 -0.398026 3.36454 0
M  V30 123 C 11.8658 -0.838866 3.66933 0
M  V30 124 C 11.0128 0.064458 2.77225 0
M  V30 125 H 13.9638 0.502601 1.50531 0
M  V30 126 H 13.9848 -1.23569 3.59876 0
M  V30 127 H 13.4968 0.573241 3.83843 0
M  V30 128 H 11.5978 -1.8214 3.25048 0
M  V30 129 H 11.7108 -0.672123 4.74362 0
M  V30 130 H 10.0748 -0.452863 2.50642 0
M  V30 131 H 10.8578 1.03172 3.2743 0
M  V30 132 N 13.3029 -1.57598 0.00835791 0
M  V30 133 C 14.5519 -1.90107 -0.673968 0
M  V30 134 C 14.8649 -0.884275 -1.7447 0
M  V30 135 O 16.0709 -1.09987 -2.48224 0
M  V30 136 C 14.5269 -3.37497 -1.24995 0
M  V30 137 C 14.1349 -4.47491 -0.2136 0
M  V30 138 C 15.8789 -3.79104 -1.90999 0
M  V30 139 C 13.7859 -5.85963 -0.80005 0
M  V30 140 H 12.7159 -0.709393 -0.255495 0
M  V30 141 H 15.3669 -1.83365 0.0702693 0
M  V30 142 H 13.7489 -3.39102 -2.04513 0
M  V30 143 H 14.9229 -4.57414 0.557596 0
M  V30 144 H 13.2379 -4.14956 0.346474 0
M  V30 145 H 15.8349 -4.79901 -2.35795 0
M  V30 146 H 16.1779 -3.1306 -2.74407 0
M  V30 147 H 16.7109 -3.79833 -1.18203 0
M  V30 148 H 13.4499 -6.555 -0.00456708 0
M  V30 149 H 12.9699 -5.79687 -1.54021 0
M  V30 150 H 14.6489 -6.33884 -1.29615 0
M  V30 151 N 14.781 0.264519 -1.55364 0
M  V30 152 C 16.192 0.834936 -1.6699 0
M  V30 153 C 16.543 1.86718 -0.602552 0
M  V30 154 O 15.668 2.14899 0.254425 0
M  V30 155 C 16.263 1.5212 -3.02729 0
M  V30 156 C 14.822 2.03954 -3.16354 0
M  V30 157 C 13.969 0.884498 -2.62815 0
M  V30 158 H 16.92 0.0406869 -1.58648 0
M  V30 159 H 16.941 2.38853 -2.96191 0
M  V30 160 H 16.453 0.769668 -3.80392 0
M  V30 161 H 14.554 2.82041 -2.43482 0
M  V30 162 H 14.667 2.24902 -4.23032 0
M  V30 163 H 13.031 1.2802 -2.20188 0
M  V30 164 H 13.814 0.14634 -3.42988 0
M  V30 165 N 16.2591 1.48442 0.529413 0
M  V30 166 C 17.2071 1.63452 1.65487 0
M  V30 167 C 18.2011 0.500955 1.61823 0
M  V30 168 O 19.4071 0.679695 1.66674 0
M  V30 169 H 15.7821 0.514905 0.548066 0
M  V30 170 H 17.7531 2.57975 1.49971 0
M  V30 171 C 16.5021 1.69196 3.03756 0
M  V30 172 H 15.8251 2.55784 3.07269 0
M  V30 173 H 17.2651 1.83743 3.82119 0
M  V30 174 C 15.7241 0.430765 3.34135 0
M  V30 175 O 16.2541 -0.4561 3.99102 0
M  V30 176 N 14.4601 0.302293 2.89023 0
M  V30 177 H 14.0071 1.02496 2.36331 0
M  V30 178 H 13.9651 -0.540546 3.09718 0
M  V30 179 N 17.7372 -0.778329 1.37039 0
M  V30 180 C 18.6702 -1.8984 1.26633 0
M  V30 181 C 19.6482 -1.61923 0.148197 0
M  V30 182 O 20.8322 -1.85742 0.321265 0
M  V30 183 C 17.9592 -3.24916 0.956403 0
M  V30 184 C 17.0052 -3.71752 2.09051 0
M  V30 185 S 17.8382 -3.86201 3.70957 0
M  V30 186 C 18.9942 -5.24135 3.42101 0
M  V30 187 H 19.2272 -1.98377 2.21436 0
M  V30 188 H 16.7602 -0.938738 1.22585 0
M  V30 189 H 18.7182 -4.02936 0.784409 0
M  V30 190 H 17.3792 -3.14089 0.0259713 0
M  V30 191 H 16.5722 -4.69661 1.8285 0
M  V30 192 H 16.1742 -3.00815 2.2223 0
M  V30 193 H 18.4662 -6.09086 2.96682 0
M  V30 194 H 19.4092 -5.55346 4.39314 0
M  V30 195 H 19.8172 -4.91761 2.77185 0
M  V30 196 N 19.2153 -1.21501 -1.00376 0
M  V30 197 C 20.1783 -0.976927 -2.07337 0
M  V30 198 C 21.1783 0.0525322 -1.60714 0
M  V30 199 O 22.3683 -0.184869 -1.73216 0
M  V30 200 C 19.5003 -0.473423 -3.37597 0
M  V30 201 H 20.6933 -1.92587 -2.29892 0
M  V30 202 H 18.2463 -1.03217 -1.17371 0
M  V30 203 H 18.9813 0.480379 -3.20722 0
M  V30 204 H 18.7663 -1.216 -3.72768 0
M  V30 205 H 20.2563 -0.32675 -4.1632 0
M  V30 206 N 20.6934 1.19889 -1.02296 0
M  V30 207 C 21.9704 1.85148 -0.630832 0
M  V30 208 C 22.3504 1.91385 0.890782 0
M  V30 209 O 21.6984 1.42642 1.78509 0
M  V30 210 C 21.9084 3.24442 -1.28602 0
M  V30 211 C 23.2564 4.00663 -1.4055 0
M  V30 212 O 24.2804 3.33818 -1.24273 0
M  V30 213 O 23.1394 5.20387 -1.66913 0
M  V30 214 H 20.2334 0.797613 -0.218499 0
M  V30 215 H 22.7794 1.27427 -1.12074 0
M  V30 216 H 21.5514 3.14704 -2.32545 0
M  V30 217 H 21.1744 3.89802 -0.7836 0
M  V30 218 N 22.1715 0.800033 1.35784 0
M  V30 219 C 23.4485 0.30088 1.93272 0
M  V30 220 C 23.8285 -1.20857 1.73081 0
M  V30 221 O 23.1765 -2.00502 1.09596 0
M  V30 222 C 23.3865 0.70511 3.41803 0
M  V30 223 C 24.7345 0.690871 4.18942 0
M  V30 224 O 25.7585 0.646244 3.50289 0
M  V30 225 O 24.6175 0.74332 5.41421 0
M  V30 226 H 21.7115 0.0771605 0.823393 0
M  V30 227 H 24.2575 0.88329 1.449 0
M  V30 228 H 23.0295 1.74571 3.50201 0
M  V30 229 H 22.6525 0.0971541 3.97481 0
M  V30 230 N 23.6496 -1.47581 0.552962 0
M  V30 231 C 24.8796 -2.06575 0.0320091 0
M  V30 232 C 25.2876 -1.4067 -1.26525 0
M  V30 233 O 24.6306 -0.495808 -1.76883 0
M  V30 234 C 24.6926 -3.58705 -0.238913 0
M  V30 235 C 24.3566 -4.46625 0.968272 0
M  V30 236 C 25.3536 -4.85 1.87274 0
M  V30 237 C 23.0386 -4.88201 1.18175 0
M  V30 238 C 25.0326 -5.63745 2.9744 0
M  V30 239 C 22.7196 -5.66712 2.28651 0
M  V30 240 C 23.7176 -6.04394 3.18114 0
M  V30 241 O 23.4056 -6.81324 4.26676 0
M  V30 242 H 23.1376 -0.674763 0.0408689 0
M  V30 243 H 25.6916 -1.90634 0.764719 0
M  V30 244 H 23.9216 -3.72844 -1.02588 0
M  V30 245 H 25.6106 -3.99735 -0.704731 0
M  V30 246 H 26.3766 -4.53482 1.71984 0
M  V30 247 H 22.2556 -4.58339 0.494593 0
M  V30 248 H 25.7996 -5.93077 3.67296 0
M  V30 249 H 21.6966 -5.97642 2.43915 0
M  V30 250 H 22.4646 -6.99712 4.24671 0
M  V30 251 N 25.1277 -0.289203 -1.54924 0
M  V30 252 C 26.3757 0.322879 -1.99504 0
M  V30 253 C 26.6967 1.55313 -1.1791 0
M  V30 254 O 25.9667 1.94001 -0.272097 0
M  V30 255 H 24.5467 0.122291 -0.736922 0
M  V30 256 H 27.2087 -0.397802 -1.90797 0
M  V30 257 H 26.3047 0.603061 -3.06218 0
M  V30 258 N 26.6058 1.57591 -0.0167156 0
M  V30 259 C 27.8308 1.9598 0.67872 0
M  V30 260 C 28.2558 0.892546 1.65575 0
M  V30 261 O 27.6138 -0.147772 1.80697 0
M  V30 262 C 27.6618 3.33468 1.37227 0
M  V30 263 O 26.7658 3.28954 2.48722 0
M  V30 264 H 26.1068 0.639339 0.17928 0
M  V30 265 H 28.6368 2.04463 -0.0748802 0
M  V30 266 H 28.6468 3.69417 1.7319 0
M  V30 267 H 27.3218 4.10694 0.656007 0
M  V30 268 H 25.8988 3.04705 2.14963 0
M  V30 269 N 28.0839 -0.256276 1.55502 0
M  V30 270 C 28.9939 -1.33882 1.92647 0
M  V30 271 C 30.0099 -1.53159 0.825727 0
M  V30 272 O 31.1859 -1.66963 1.12629 0
M  V30 273 C 28.2509 -2.6751 2.20543 0
M  V30 274 C 27.3119 -2.56836 3.43997 0
M  V30 275 C 26.5449 -3.84092 3.70553 0
M  V30 276 O 26.7679 -4.85545 2.99336 0
M  V30 277 O 25.7019 -3.83288 4.64084 0
M  V30 278 H 29.5279 -1.05374 2.84833 0
M  V30 279 H 27.1129 -0.456237 1.42263 0
M  V30 280 H 28.9949 -3.46492 2.39835 0
M  V30 281 H 27.6699 -2.9577 1.31536 0
M  V30 282 H 26.5769 -1.76172 3.30021 0
M  V30 283 H 27.9099 -2.33523 4.33275 0
M  V30 284 N 29.562 -1.4872 -0.521534 0
M  V30 285 C 30.787 -1.61101 -1.30618 0
M  V30 286 C 31.212 -0.274611 -1.86085 0
M  V30 287 O 30.57 0.754937 -1.64834 0
M  V30 288 C 30.618 -2.66709 -2.4269 0
M  V30 289 O 29.722 -2.24456 -3.45967 0
M  V30 290 H 29.063 -0.539921 -0.386499 0
M  V30 291 H 31.593 -1.94767 -0.626645 0
M  V30 292 H 31.603 -2.88245 -2.88754 0
M  V30 293 H 30.278 -3.63727 -2.01682 0
M  V30 294 H 28.855 -2.13168 -3.05964 0
M  V30 295 N 31.0401 0.771051 -1.3745 0
M  V30 296 C 32.2681 1.56015 -1.35893 0
M  V30 297 C 32.6831 1.88718 0.0555523 0
M  V30 298 O 32.0401 1.51502 1.01752 0
M  V30 299 C 32.0911 2.87001 -2.19801 0
M  V30 300 O 31.8121 2.557 -3.55738 0
M  V30 301 C 33.3131 3.81228 -2.26231 0
M  V30 302 H 30.5331 0.483317 -0.465453 0
M  V30 303 H 33.0771 0.955611 -1.80799 0
M  V30 304 H 31.2321 3.43877 -1.78402 0
M  V30 305 H 31.6461 3.39584 -3.99729 0
M  V30 306 H 33.1201 4.70139 -2.89263 0
M  V30 307 H 33.5971 4.20409 -1.27093 0
M  V30 308 H 34.2031 3.30281 -2.67945 0
M  V30 309 N 32.5182 1.22032 0.997298 0
M  V30 310 C 33.7432 1.06921 1.77715 0
M  V30 311 C 34.1682 -0.376226 1.84299 0
M  V30 312 O 33.5262 -1.27165 1.29223 0
M  V30 313 C 33.5742 1.67996 3.19076 0
M  V30 314 O 32.6782 0.930653 4.01762 0
M  V30 315 H 32.0192 0.375814 0.547412 0
M  V30 316 H 34.5492 1.61737 1.25309 0
M  V30 317 H 34.5592 1.72538 3.69723 0
M  V30 318 H 33.2342 2.73182 3.13599 0
M  V30 319 H 31.8112 0.960917 3.60307 0
M  V30 320 N 33.9963 -1.19345 1.0293 0
M  V30 321 C 35.2213 -1.93538 0.745511 0
M  V30 322 C 35.6463 -1.75007 -0.689511 0
M  V30 323 O 35.0043 -1.05265 -1.47611 0
M  V30 324 C 35.0523 -3.43336 1.10239 0
M  V30 325 O 34.1563 -4.11806 0.221289 0
M  V30 326 H 33.4973 -0.604193 0.275404 0
M  V30 327 H 36.0273 -1.5141 1.37609 0
M  V30 328 H 36.0373 -3.94004 1.05947 0
M  V30 329 H 34.7123 -3.56146 2.14786 0
M  V30 330 H 33.2893 -3.715 0.322842 0
M  V30 331 N 35.4744 -0.807222 -1.35358 0
M  V30 332 C 36.4074 -0.163572 -2.27613 0
M  V30 333 C 37.3854 0.670817 -1.48118 0
M  V30 334 O 38.5694 0.63796 -1.77376 0
M  V30 335 C 35.6964 0.773015 -3.29761 0
M  V30 336 C 34.7424 0.0181653 -4.26496 0
M  V30 337 S 35.5754 -1.31831 -5.19019 0
M  V30 338 C 36.7314 -0.38619 -6.24707 0
M  V30 339 H 36.9644 -0.945757 -2.81856 0
M  V30 340 H 34.4974 -0.602315 -1.42167 0
M  V30 341 H 36.4554 1.30788 -3.89108 0
M  V30 342 H 35.1164 1.52859 -2.74396 0
M  V30 343 H 34.3094 0.729534 -4.98692 0
M  V30 344 H 33.9114 -0.446761 -3.71322 0
M  V30 345 H 36.2034 0.428295 -6.76145 0
M  V30 346 H 37.1464 -1.07736 -6.99856 0
M  V30 347 H 37.5544 0.018398 -5.64497 0
M  V30 348 N 36.9525 1.47285 -0.560781 0
M  V30 349 C 37.8625 2.33846 0.187954 0
M  V30 350 C 38.8785 1.48412 0.908293 0
M  V30 351 O 40.0545 1.81332 0.876388 0
M  V30 352 C 37.1195 3.25178 1.2025 0
M  V30 353 C 36.1805 4.26504 0.489208 0
M  V30 354 C 35.4135 5.13472 1.45542 0
M  V30 355 O 35.6365 5.02959 2.6905 0
M  V30 356 O 34.5705 5.93902 0.977963 0
M  V30 357 H 38.3965 2.99177 -0.522177 0
M  V30 358 H 35.9815 1.45903 -0.321364 0
M  V30 359 H 37.8635 3.81584 1.78805 0
M  V30 360 H 36.5385 2.6247 1.89449 0
M  V30 361 H 35.4455 3.73847 -0.137627 0
M  V30 362 H 36.7785 4.91935 -0.161399 0
M  V30 363 N 38.4306 0.297415 1.54768 0
M  V30 364 C 39.7076 -0.365847 1.92148 0
M  V30 365 C 40.0876 -1.71975 1.22424 0
M  V30 366 O 39.4356 -2.25666 0.358739 0
M  V30 367 C 39.6456 -0.484056 3.45627 0
M  V30 368 C 40.9936 -0.756594 4.17805 0
M  V30 369 O 42.0176 -0.568007 3.51642 0
M  V30 370 O 40.8766 -1.11863 5.34929 0
M  V30 371 H 37.9706 -0.203919 0.801465 0
M  V30 372 H 40.5166 0.34521 1.66152 0
M  V30 373 H 39.2886 0.467865 3.88493 0
M  V30 374 H 38.9116 -1.24372 3.77647 0
M  V30 375 N 39.9087 -1.5758 0.0250728 0
M  V30 376 C 41.1387 -1.95646 -0.663783 0
M  V30 377 C 41.5467 -0.899935 -1.66427 0
M  V30 378 O 40.8897 0.127191 -1.83259 0
M  V30 379 C 40.9517 -3.29835 -1.43 0
M  V30 380 C 40.6157 -4.53197 -0.588305 0
M  V30 381 C 41.6127 -5.19726 0.13469 0
M  V30 382 C 39.2977 -4.99529 -0.526897 0
M  V30 383 C 41.2917 -6.30902 0.90781 0
M  V30 384 C 38.9787 -6.10589 0.24993 0
M  V30 385 C 39.9767 -6.76134 0.965994 0
M  V30 386 O 39.6647 -7.85062 1.7301 0
M  V30 387 H 39.3967 -0.649282 -0.188174 0
M  V30 388 H 41.9507 -2.05245 0.0799006 0
M  V30 389 H 40.1807 -3.16716 -2.21873 0
M  V30 390 H 41.8697 -3.52833 -2.00658 0
M  V30 391 H 42.6357 -4.84904 0.0965562 0
M  V30 392 H 38.5147 -4.48319 -1.07381 0
M  V30 393 H 42.0587 -6.81995 1.46724 0
M  V30 394 H 37.9557 -6.44849 0.289795 0
M  V30 395 H 38.7237 -8.01708 1.64944 0
M  V30 396 N 41.3868 0.248026 -1.55636 0
M  V30 397 C 42.6328 0.97767 -1.77678 0
M  V30 398 C 42.9658 1.85016 -0.590135 0
M  V30 399 O 42.2408 1.90095 0.411611 0
M  V30 400 C 42.5238 1.83914 -3.09593 0
M  V30 401 C 42.3768 0.99491 -4.38659 0
M  V30 402 C 43.6958 2.82183 -3.37729 0
M  V30 403 H 40.8148 0.354005 -0.646413 0
M  V30 404 H 43.4568 0.248253 -1.88371 0
M  V30 405 H 41.6068 2.46104 -3.00608 0
M  V30 406 H 43.2788 0.391789 -4.59633 0
M  V30 407 H 41.5218 0.299231 -4.32767 0
M  V30 408 H 42.1928 1.63145 -5.2734 0
M  V30 409 H 44.6688 2.30129 -3.4667 0
M  V30 410 H 43.5448 3.39582 -4.31249 0
M  V30 411 H 43.8058 3.58588 -2.58586 0
M  V30 412 N 42.8649 1.48995 0.513639 0
M  V30 413 C 43.8129 1.65199 1.63744 0
M  V30 414 C 44.8069 0.51809 1.61283 0
M  V30 415 O 46.0129 0.697335 1.65943 0
M  V30 416 H 42.3879 0.52069 0.542574 0
M  V30 417 H 44.3589 2.59552 1.47226 0
M  V30 418 C 43.1079 1.72409 3.01945 0
M  V30 419 H 42.4309 2.59029 3.04539 0
M  V30 420 H 43.8709 1.87785 3.80148 0
M  V30 421 C 42.3299 0.46618 3.33659 0
M  V30 422 O 42.8599 -0.413744 3.99564 0
M  V30 423 N 41.0659 0.332931 2.88687 0
M  V30 424 H 40.6129 1.04996 2.35231 0
M  V30 425 H 40.5709 -0.507665 3.10274 0
M  V30 426 N 44.343 -0.763751 1.37857 0
M  V30 427 C 45.59 -1.52257 1.33506 0
M  V30 428 C 45.918 -1.94343 -0.078022 0
M  V30 429 O 45.173 -1.64958 -1.05297 0
M  V30 430 C 45.472 -2.79499 2.22745 0
M  V30 431 C 45.138 -2.56426 3.70886 0
M  V30 432 C 43.8 -2.49842 4.11257 0
M  V30 433 C 46.152 -2.36008 4.64704 0
M  V30 434 C 43.48 -2.20841 5.43549 0
M  V30 435 C 45.832 -2.0853 5.97242 0
M  V30 436 C 44.496 -2.00396 6.36709 0
M  V30 437 H 43.766 -0.557149 0.488534 0
M  V30 438 H 46.413 -0.879073 1.70131 0
M  V30 439 H 44.718 -3.48447 1.79142 0
M  V30 440 H 46.415 -3.37413 2.16688 0
M  V30 441 H 43.005 -2.62416 3.38874 0
M  V30 442 H 47.189 -2.40079 4.34368 0
M  V30 443 H 42.445 -2.13045 5.73081 0
M  V30 444 H 46.619 -1.91732 6.69486 0
M  V30 445 H 44.246 -1.77688 7.39142 0
M  V30 446 N 45.8211 -1.22559 -0.990812 0
M  V30 447 C 46.7691 -0.994798 -2.10253 0
M  V30 448 C 47.7631 0.0627798 -1.69284 0
M  V30 449 O 48.9691 -0.0898392 -1.79776 0
M  V30 450 H 45.3441 -0.304527 -0.687581 0
M  V30 451 H 47.3151 -1.93812 -2.26891 0
M  V30 452 C 46.0641 -0.591439 -3.42633 0
M  V30 453 H 45.3871 -1.3969 -3.74602 0
M  V30 454 H 46.8271 -0.469385 -4.21394 0
M  V30 455 C 45.2861 0.699232 -3.29564 0
M  V30 456 O 45.8161 1.75112 -3.61523 0
M  V30 457 N 44.0221 0.671182 -2.82743 0
M  V30 458 H 43.5691 -0.185136 -2.56934 0
M  V30 459 H 43.5271 1.53502 -2.7438 0
M  V30 460 N 47.2992 1.18797 -1.03562 0
M  V30 461 C 48.5462 1.8865 -0.736023 0
M  V30 462 C 48.8742 1.80041 0.735889 0
M  V30 463 O 48.1292 1.19179 1.55225 0
M  V30 464 C 48.4282 3.38692 -1.14117 0
M  V30 465 C 48.0942 3.67504 -2.6125 0
M  V30 466 C 46.7562 3.75078 -3.01447 0
M  V30 467 C 49.1082 3.80293 -3.56408 0
M  V30 468 C 46.4362 3.92915 -4.35701 0
M  V30 469 C 48.7882 3.99645 -4.90374 0
M  V30 470 C 47.4522 4.05453 -5.30249 0
M  V30 471 H 46.7222 0.690321 -0.26933 0
M  V30 472 H 49.3692 1.40641 -1.29971 0
M  V30 473 H 47.6742 3.88645 -0.496202 0
M  V30 474 H 49.3712 3.91072 -0.886789 0
M  V30 475 H 45.9612 3.62223 -2.29113 0
M  V30 476 H 50.1452 3.73779 -3.26501 0
M  V30 477 H 45.4012 3.95653 -4.66121 0
M  V30 478 H 49.5752 4.08482 -5.64017 0
M  V30 479 H 47.2022 4.19027 -6.34288 0
M  V30 480 N 48.7773 0.814389 1.34928 0
M  V30 481 C 50.0053 0.411136 2.02774 0
M  V30 482 C 50.4203 -0.980316 1.61354 0
M  V30 483 O 49.7773 -1.63299 0.814847 0
M  V30 484 C 49.8283 0.493865 3.58111 0
M  V30 485 O 49.5493 1.83047 3.98027 0
M  V30 486 C 51.0503 0.0844174 4.4322 0
M  V30 487 H 48.2703 0.166037 0.650133 0
M  V30 488 H 50.8143 1.10018 1.72384 0
M  V30 489 H 48.9693 -0.147006 3.87121 0
M  V30 490 H 49.3833 1.79872 4.92693 0
M  V30 491 H 50.8573 0.193404 5.51661 0
M  V30 492 H 51.3343 -0.97113 4.28329 0
M  V30 493 H 51.9403 0.69875 4.19521 0
M  V30 494 N 50.2554 -1.46986 0.568584 0
M  V30 495 C 51.5324 -1.95592 -0.0174074 0
M  V30 496 C 51.9124 -1.51124 -1.47393 0
M  V30 497 O 51.2604 -0.755329 -2.15655 0
M  V30 498 C 51.4704 -3.48719 0.139913 0
M  V30 499 C 52.8184 -4.246 0.000426376 0
M  V30 500 O 53.8424 -3.56135 0.0680316 0
M  V30 501 O 52.7014 -5.46302 -0.146988 0
M  V30 502 H 49.7954 -0.82498 -0.0577599 0
M  V30 503 H 52.3414 -1.57335 0.635909 0
M  V30 504 H 51.1134 -3.73927 1.15301 0
M  V30 505 H 50.7364 -3.93771 -0.550491 0
M  V30 506 N 51.7335 -0.305618 -1.54608 0
M  V30 507 C 52.9805 0.302298 -2.00231 0
M  V30 508 C 53.3085 1.5354 -1.19398 0
M  V30 509 O 52.5635 1.93973 -0.259423 0
M  V30 510 C 52.8625 0.698983 -3.50498 0
M  V30 511 C 52.5285 -0.432903 -4.48817 0
M  V30 512 C 51.1905 -0.743622 -4.75419 0
M  V30 513 C 53.5425 -1.19409 -5.07337 0
M  V30 514 C 50.8705 -1.81857 -5.57804 0
M  V30 515 C 53.2225 -2.25899 -5.90891 0
M  V30 516 C 51.8865 -2.57572 -6.15803 0
M  V30 517 H 51.1565 0.110619 -0.732697 0
M  V30 518 H 53.8035 -0.425674 -1.86709 0
M  V30 519 H 52.1085 1.50711 -3.61654 0
M  V30 520 H 53.8055 1.1806 -3.83227 0
M  V30 521 H 50.3955 -0.18063 -4.28219 0
M  V30 522 H 54.5795 -0.967295 -4.86782 0
M  V30 523 H 49.8355 -2.06864 -5.75341 0
M  V30 524 H 54.0095 -2.85335 -6.35261 0
M  V30 525 H 51.6365 -3.40998 -6.7943 0
M  V30 526 N 53.2116 1.57565 -0.0334293 0
M  V30 527 C 54.4416 1.95996 0.653398 0
M  V30 528 C 54.8496 0.908749 1.65947 0
M  V30 529 O 54.1926 -0.117471 1.83324 0
M  V30 530 C 54.2546 3.30589 1.41249 0
M  V30 531 C 53.9186 4.53503 0.564263 0
M  V30 532 C 54.9156 5.19647 -0.16225 0
M  V30 533 C 52.6006 4.99801 0.500398 0
M  V30 534 C 54.5946 6.30412 -0.941255 0
M  V30 535 C 52.2816 6.10448 -0.282308 0
M  V30 536 C 53.2796 6.75612 -1.00184 0
M  V30 537 O 52.9676 7.84134 -1.77171 0
M  V30 538 H 52.6996 0.65027 0.184728 0
M  V30 539 H 55.2536 2.05199 -0.0907841 0
M  V30 540 H 53.4836 3.17888 2.20191 0
M  V30 541 H 55.1726 3.53892 1.98784 0
M  V30 542 H 55.9386 4.84846 -0.12227 0
M  V30 543 H 51.8176 4.48883 1.05002 0
M  V30 544 H 55.3616 6.81208 -1.50339 0
M  V30 545 H 51.2586 6.44686 -0.323989 0
M  V30 546 H 52.0266 8.00822 -1.69194 0
M  V30 547 N 54.6897 -0.239769 1.55765 0
M  V30 548 C 55.9297 -0.974076 1.79697 0
M  V30 549 C 56.2937 -1.82249 0.604088 0
M  V30 550 O 57.4947 -2.58913 0.722324 0
M  V30 551 C 55.7657 -1.80595 3.08416 0
M  V30 552 S 57.3247 -2.59838 3.53596 0
M  V30 553 H 54.1427 -0.327524 0.63107 0
M  V30 554 H 56.7447 -0.241277 1.94005 0
M  V30 555 H 55.4487 -1.17249 3.93295 0
M  V30 556 H 54.9797 -2.58137 2.96865 0
M  V30 557 H 56.9947 -3.82987 3.15492 0
M  V30 558 N 56.1678 -1.49265 -0.50573 0
M  V30 559 C 57.0778 -1.68312 -1.63427 0
M  V30 560 C 58.0938 -0.565682 -1.64548 0
M  V30 561 O 59.2698 -0.839801 -1.83055 0
M  V30 562 C 56.3348 -1.74107 -2.99813 0
M  V30 563 C 55.3958 -2.97653 -3.09356 0
M  V30 564 C 54.6288 -3.03163 -4.39236 0
M  V30 565 O 54.8518 -2.16396 -5.27758 0
M  V30 566 O 53.7858 -3.9558 -4.53652 0
M  V30 567 H 57.6118 -2.63907 -1.50289 0
M  V30 568 H 55.1968 -1.32951 -0.681502 0
M  V30 569 H 57.0788 -1.803 -3.80881 0
M  V30 570 H 55.7538 -0.816901 -3.13223 0
M  V30 571 H 54.6608 -2.96981 -2.27493 0
M  V30 572 H 55.9938 -3.89535 -3.00871 0
M  V30 573 N 57.6459 0.756429 -1.3826 0
M  V30 574 C 58.5929 1.87011 -1.35261 0
M  V30 575 C 59.5629 1.64695 -0.215616 0
M  V30 576 O 60.7479 1.864 -0.407399 0
M  V30 577 C 57.8879 3.24275 -1.18068 0
M  V30 578 C 57.0009 3.58442 -2.41129 0
M  V30 579 C 56.1359 4.84994 -2.16689 0
M  V30 580 C 55.1749 5.11939 -3.35537 0
M  V30 581 N 54.3119 6.29685 -3.10549 0
M  V30 582 H 59.1519 1.8891 -2.30472 0
M  V30 583 H 56.6889 0.923373 -1.14509 0
M  V30 584 H 58.6469 4.03479 -1.06116 0
M  V30 585 H 57.2769 3.21711 -0.264973 0
M  V30 586 H 56.3289 2.74103 -2.63764 0
M  V30 587 H 57.6409 3.74283 -3.29717 0
M  V30 588 H 56.7949 5.72135 -2.01857 0
M  V30 589 H 55.5339 4.71286 -1.25462 0
M  V30 590 H 54.5389 4.23268 -3.50891 0
M  V30 591 H 55.7639 5.27546 -4.27635 0
M  V30 592 H 53.7099 6.17306 -2.21967 0
M  V30 593 H 53.6269 6.46014 -3.92686 0
M  V30 594 H 54.8949 7.19722 -2.99367 0
M  V30 595 N 59.124 1.23083 0.984299 0
M  V30 596 C 60.072 1.00593 2.09723 0
M  V30 597 C 61.066 -0.0538014 1.69315 0
M  V30 598 O 62.272 0.0993719 1.79725 0
M  V30 599 H 58.647 0.30817 0.685956 0
M  V30 600 H 60.618 1.95012 2.2586 0
M  V30 601 C 59.367 0.609601 3.42314 0
M  V30 602 H 58.69 1.41675 3.73856 0
M  V30 603 H 60.13 0.491726 4.21139 0
M  V30 604 C 58.589 -0.681745 3.2993 0
M  V30 605 O 59.119 -1.73192 3.62446 0
M  V30 606 N 57.325 -0.656178 2.83095 0
M  V30 607 H 56.872 0.198759 2.56832 0
M  V30 608 H 56.83 -1.52044 2.75191 0
M  V30 609 N 60.6021 -1.18246 1.0419 0
M  V30 610 C 61.5501 -2.23968 0.627792 0
M  V30 611 C 62.5441 -1.65828 -0.346019 0
M  V30 612 O 63.7501 -1.78733 -0.213175 0
M  V30 613 H 60.1251 -0.728939 0.184802 0
M  V30 614 H 62.0961 -2.56202 1.52981 0
M  V30 615 C 60.8451 -3.47699 0.00796591 0
M  V30 616 H 60.1681 -3.92734 0.748347 0
M  V30 617 H 61.6081 -4.23294 -0.24455 0
M  V30 618 C 60.0671 -3.13153 -1.24246 0
M  V30 619 O 60.5971 -3.27003 -2.33307 0
M  V30 620 N 58.8031 -2.67467 -1.13622 0
M  V30 621 H 58.3501 -2.56396 -0.248734 0
M  V30 622 H 58.3081 -2.44724 -1.97377 0
M  V30 623 N 62.0802 -0.821533 -1.34494 0
M  V30 624 C 63.3262 -0.409552 -1.98622 0
M  V30 625 C 63.6592 1.0244 -1.64984 0
M  V30 626 O 62.9342 1.71325 -0.920758 0
M  V30 627 C 63.2172 -0.610458 -3.54888 0
M  V30 628 C 63.0702 -2.09043 -3.98273 0
M  V30 629 C 64.3892 -0.0455379 -4.40076 0
M  V30 630 H 61.5082 -0.15028 -0.721516 0
M  V30 631 H 64.1502 -1.03384 -1.59411 0
M  V30 632 H 62.3002 -0.079044 -3.8842 0
M  V30 633 H 63.9722 -2.68537 -3.75081 0
M  V30 634 H 62.2152 -2.58139 -3.48635 0
M  V30 635 H 62.8862 -2.18182 -5.07051 0
M  V30 636 H 65.3622 -0.499557 -4.1309 0
M  V30 637 H 64.2382 -0.215922 -5.48475 0
M  V30 638 H 64.4992 1.04939 -4.29465 0
M  V30 639 N 63.5583 1.46682 -0.576371 0
M  V30 640 C 64.9743 1.57822 -0.237562 0
M  V30 641 C 65.1743 1.57237 1.26011 0
M  V30 642 O 64.2303 1.48596 2.04146 0
M  V30 643 C 65.5433 2.87499 -0.881168 0
M  V30 644 C 67.0913 3.01119 -0.85417 0
M  V30 645 C 67.5663 4.33524 -1.4772 0
M  V30 646 N 69.0573 4.40207 -1.44125 0
M  V30 647 C 69.7923 5.4126 -1.89276 0
M  V30 648 N 69.2883 6.49021 -2.42371 0
M  V30 649 N 71.0813 5.32422 -1.80231 0
M  V30 650 H 63.2323 1.45306 -1.54919 0
M  V30 651 H 65.4953 0.692733 -0.647167 0
M  V30 652 H 65.2013 2.9372 -1.93447 0
M  V30 653 H 65.0753 3.75224 -0.385592 0
M  V30 654 H 67.4623 2.94485 0.190491 0
M  V30 655 H 67.5433 2.14887 -1.3877 0
M  V30 656 H 67.1873 4.40916 -2.52103 0
M  V30 657 H 67.1173 5.1852 -0.918947 0
M  V30 658 H 69.6083 3.62931 -1.05307 0
M  V30 659 H 69.9213 7.2233 -2.74698 0
M  V30 660 H 68.2663 6.49858 -2.46393 0
M  V30 661 H 71.4573 4.47137 -1.38514 0
M  V30 662 H 71.6303 6.11034 -2.15735 0
M  V30 663 N 65.0364 0.313813 1.54444 0
M  V30 664 C 65.9684 -0.590425 2.21465 0
M  V30 665 C 66.9814 -1.08753 1.21147 0
M  V30 666 O 68.1704 -1.00278 1.4767 0
M  V30 667 C 65.2704 -1.82179 2.85769 0
M  V30 668 C 64.4434 -1.46502 4.12136 0
M  V30 669 C 63.5024 -2.55288 4.60124 0
M  V30 670 O 62.5284 -2.19842 5.25032 0
M  V30 671 N 63.7304 -3.86053 4.33525 0
M  V30 672 H 66.4954 -0.0166033 2.99695 0
M  V30 673 H 64.0564 0.136578 1.61323 0
M  V30 674 H 66.0484 -2.54328 3.14801 0
M  V30 675 H 64.6184 -2.30369 2.11303 0
M  V30 676 H 63.8384 -0.575595 3.89975 0
M  V30 677 H 65.1264 -1.20221 4.94393 0
M  V30 678 H 64.5244 -4.17654 3.81552 0
M  V30 679 H 63.0814 -4.54461 4.67235 0
M  V30 680 N 66.5145 -1.57545 0.0417849 0
M  V30 681 C 67.7615 -1.92317 -0.634082 0
M  V30 682 C 68.0895 -0.919334 -1.71402 0
M  V30 683 O 67.3445 0.0698253 -1.95575 0
M  V30 684 C 67.6435 -3.33794 -1.27735 0
M  V30 685 C 67.3095 -4.49716 -0.326543 0
M  V30 686 C 65.9715 -4.81156 -0.0648814 0
M  V30 687 C 68.3235 -5.20182 0.325623 0
M  V30 688 C 65.6515 -5.80414 0.856539 0
M  V30 689 C 68.0035 -6.20424 1.23518 0
M  V30 690 C 66.6675 -6.50298 1.5056 0
M  V30 691 H 65.9375 -0.703736 -0.232027 0
M  V30 692 H 68.5845 -1.91205 0.106259 0
M  V30 693 H 66.8895 -3.31228 -2.09274 0
M  V30 694 H 68.5865 -3.57975 -1.80707 0
M  V30 695 H 65.1765 -4.25176 -0.540665 0
M  V30 696 H 69.3605 -4.96112 0.136546 0
M  V30 697 H 64.6165 -6.019 1.07363 0
M  V30 698 H 68.7905 -6.74141 1.74664 0
M  V30 699 H 66.4175 -7.27025 2.22123 0
M  V30 700 N 67.9926 0.231505 -1.5589 0
M  V30 701 C 68.9556 1.27028 -1.90779 0
M  V30 702 C 69.9556 1.40308 -0.785507 0
M  V30 703 O 71.1456 1.38744 -1.05336 0
M  V30 704 C 68.2776 2.64566 -2.14983 0
M  V30 705 H 69.4706 0.973017 -2.83677 0
M  V30 706 H 67.0236 0.471486 -1.49019 0
M  V30 707 H 67.7586 2.99406 -1.24604 0
M  V30 708 H 67.5436 2.56305 -2.96732 0
M  V30 709 H 69.0336 3.39543 -2.43105 0
M  V30 710 N 69.4707 1.49531 0.497807 0
M  V30 711 C 70.6957 1.63159 1.28039 0
M  V30 712 C 71.1207 0.30418 1.85624 0
M  V30 713 O 70.4787 -0.728618 1.66015 0
M  V30 714 C 70.5267 2.70537 2.38416 0
M  V30 715 O 69.6307 2.29931 3.42353 0
M  V30 716 H 68.9717 0.546001 0.377861 0
M  V30 717 H 71.5017 1.9574 0.59558 0
M  V30 718 H 71.5117 2.92802 2.84132 0
M  V30 719 H 70.1867 3.6689 1.95869 0
M  V30 720 H 68.7637 2.18009 3.02533 0
M  V30 721 N 70.9488 -0.749086 1.3866 0
M  V30 722 C 71.8988 -1.85368 1.32751 0
M  V30 723 C 72.8828 -1.59511 0.210945 0
M  V30 724 O 74.0748 -1.71255 0.447299 0
M  V30 725 C 71.2038 -3.23131 1.15935 0
M  V30 726 C 70.2898 -3.54864 2.32233 0
M  V30 727 N 70.6808 -3.57625 3.57684 0
M  V30 728 C 68.9788 -3.85154 2.24883 0
M  V30 729 C 69.6798 -3.86753 4.34508 0
M  V30 730 N 68.6558 -4.03812 3.63918 0
M  V30 731 H 72.4578 -1.85787 2.27729 0
M  V30 732 H 69.9718 -0.946658 1.31955 0
M  V30 733 H 71.9688 -4.02185 1.09786 0
M  V30 734 H 70.6288 -3.23961 0.218947 0
M  V30 735 H 71.6398 -3.39276 3.91295 0
M  V30 736 H 68.3168 -3.93672 1.39027 0
M  V30 737 H 69.7068 -3.95474 5.43185 0
M  V30 738 N 72.4269 -1.23603 -0.977757 0
M  V30 739 C 73.6739 -1.06971 -1.71941 0
M  V30 740 C 74.0019 0.393009 -1.90488 0
M  V30 741 O 73.2569 1.30719 -1.4564 0
M  V30 742 C 73.5559 -1.7433 -3.11999 0
M  V30 743 C 73.2219 -3.24252 -3.13323 0
M  V30 744 C 71.8839 -3.65156 -3.13392 0
M  V30 745 C 74.2359 -4.20141 -3.08433 0
M  V30 746 C 71.5639 -5.00403 -3.0629 0
M  V30 747 C 73.9159 -5.55384 -3.02873 0
M  V30 748 C 72.5799 -5.95647 -3.01265 0
M  V30 749 H 71.8499 -0.391433 -0.629175 0
M  V30 750 H 74.4969 -1.53572 -1.14403 0
M  V30 751 H 72.8019 -1.20096 -3.7294 0
M  V30 752 H 74.4989 -1.58936 -3.68158 0
M  V30 753 H 71.0889 -2.91692 -3.14029 0
M  V30 754 H 75.2729 -3.89547 -3.07517 0
M  V30 755 H 70.5289 -5.3081 -3.03399 0
M  V30 756 H 74.7029 -6.29398 -2.98046 0
M  V30 757 H 72.3299 -7.0041 -2.95516 0
M  V30 758 N 73.905 1.17692 -1.04816 0
M  V30 759 C 74.835 2.23777 -0.666791 0
M  V30 760 C 75.816 1.66796 0.33361 0
M  V30 761 O 77.001 1.93039 0.212042 0
M  V30 762 C 74.131 3.47281 -0.0367933 0
M  V30 763 C 73.085 4.17059 -0.961546 0
M  V30 764 C 72.411 5.34342 -0.195626 0
M  V30 765 C 73.711 4.69713 -2.28402 0
M  V30 766 H 75.405 2.55933 -1.55367 0
M  V30 767 H 72.951 1.23019 -0.748484 0
M  V30 768 H 74.904 4.20706 0.241775 0
M  V30 769 H 73.628 3.14381 0.885004 0
M  V30 770 H 72.287 3.45541 -1.22462 0
M  V30 771 H 71.935 4.97692 0.728816 0
M  V30 772 H 71.635 5.81966 -0.811775 0
M  V30 773 H 73.159 6.10553 0.0757473 0
M  V30 774 H 74.573 5.34794 -2.06563 0
M  V30 775 H 72.97 5.279 -2.8538 0
M  V30 776 H 74.04 3.86726 -2.92525 0
M  V30 777 N 75.3831 0.828654 1.34056 0
M  V30 778 C 76.7941 0.477534 1.8049 0
M  V30 779 C 77.1451 -1.00258 1.6865 0
M  V30 780 O 76.2701 -1.78057 1.22982 0
M  V30 781 C 76.8651 0.860018 3.27703 0
M  V30 782 C 75.4241 0.561185 3.72193 0
M  V30 783 C 74.5711 1.07385 2.55663 0
M  V30 784 H 77.5221 1.0183 1.21722 0
M  V30 785 H 77.5431 0.166038 3.80138 0
M  V30 786 H 77.0551 1.93731 3.36288 0
M  V30 787 H 75.1561 -0.506465 3.69142 0
M  V30 788 H 75.2691 1.10926 4.66082 0
M  V30 789 H 73.6331 0.495149 2.49841 0
M  V30 790 H 74.4161 2.15771 2.67016 0
M  V30 791 N 76.8612 -1.46375 0.584142 0
M  V30 792 C 78.2722 -1.86031 0.157959 0
M  V30 793 C 78.6232 -1.48753 -1.27933 0
M  V30 794 O 77.7482 -0.903098 -1.96655 0
M  V30 795 C 78.3432 -3.37642 0.279892 0
M  V30 796 C 76.9022 -3.76289 -0.09143 0
M  V30 797 C 76.0492 -2.7039 0.615178 0
M  V30 798 H 79.0002 -1.37509 0.792274 0
M  V30 799 H 79.0212 -3.77275 -0.494364 0
M  V30 800 H 78.5332 -3.64742 1.32607 0
M  V30 801 H 76.6342 -3.54806 -1.13769 0
M  V30 802 H 76.7472 -4.78246 0.285886 0
M  V30 803 H 75.1112 -2.5464 0.0552833 0
M  V30 804 H 75.8942 -3.0033 1.66303 0
M  V30 805 N 78.3393 -0.321999 -1.54275 0
M  V30 806 C 79.2693 0.537411 -2.27231 0
M  V30 807 C 80.2503 1.12064 -1.27968 0
M  V30 808 O 81.4353 1.14606 -1.56777 0
M  V30 809 C 78.5653 1.69919 -3.02894 0
M  V30 810 C 77.5193 1.24534 -4.09482 0
M  V30 811 C 76.8453 2.49394 -4.72977 0
M  V30 812 C 78.1453 0.361335 -5.21049 0
M  V30 813 H 79.8393 -0.0711406 -2.99315 0
M  V30 814 H 77.3853 -0.0356555 -1.43956 0
M  V30 815 H 79.3383 2.30668 -3.52662 0
M  V30 816 H 78.0623 2.33431 -2.28424 0
M  V30 817 H 76.7213 0.660782 -3.60596 0
M  V30 818 H 76.3693 3.11265 -3.95124 0
M  V30 819 H 76.0693 2.19718 -5.44975 0
M  V30 820 H 77.5933 3.10908 -5.25517 0
M  V30 821 H 79.0073 0.875072 -5.66582 0
M  V30 822 H 77.4043 0.157428 -5.99893 0
M  V30 823 H 78.4743 -0.60822 -4.8107 0
M  V30 824 N 79.8174 1.5752 -0.0501392 0
M  V30 825 C 81.0474 1.96678 0.632573 0
M  V30 826 C 81.4554 0.926298 1.64974 0
M  V30 827 O 80.7984 -0.09802 1.83438 0
M  V30 828 C 80.8604 3.32068 1.37735 0
M  V30 829 C 80.5244 4.54076 0.516131 0
M  V30 830 C 81.5214 5.19445 -0.217357 0
M  V30 831 C 79.2064 5.00304 0.44736 0
M  V30 832 C 81.2004 6.29378 -1.00807 0
M  V30 833 C 78.8874 6.10114 -0.347038 0
M  V30 834 C 79.8854 6.74512 -1.07344 0
M  V30 835 O 79.5734 7.82211 -1.85477 0
M  V30 836 H 79.3054 0.652193 0.177821 0
M  V30 837 H 81.8594 2.05091 -0.112543 0
M  V30 838 H 80.0894 3.20206 2.16807 0
M  V30 839 H 81.7784 3.55981 1.95019 0
M  V30 840 H 82.5444 4.84689 -0.173688 0
M  V30 841 H 78.4234 4.49971 1.00235 0
M  V30 842 H 81.9674 6.79575 -1.57556 0
M  V30 843 H 77.8644 6.44307 -0.392349 0
M  V30 844 H 78.6324 7.98982 -1.77678 0
M  V30 845 N 81.2955 -0.223234 1.56011 0
M  V30 846 C 82.5415 -0.944891 1.8012 0
M  V30 847 C 82.8965 -1.82039 0.622862 0
M  V30 848 O 82.1895 -1.8773 -0.383143 0
M  V30 849 C 82.3835 -1.81948 3.0762 0
M  V30 850 C 82.2125 -1.03014 4.37742 0
M  V30 851 C 80.9825 -0.72574 5.00061 0
M  V30 852 C 83.1805 -0.396256 5.12771 0
M  V30 853 N 81.1625 0.0851816 6.13841 0
M  V30 854 C 82.5335 0.278137 6.19376 0
M  V30 855 C 84.5885 -0.309117 4.9694 0
M  V30 856 C 83.2915 1.03133 7.11868 0
M  V30 857 C 85.3175 0.430607 5.8983 0
M  V30 858 C 84.6795 1.09355 6.9586 0
M  V30 859 H 80.7785 -0.326081 0.710771 0
M  V30 860 H 83.3625 -0.215914 1.93499 0
M  V30 861 H 81.5335 -2.52029 2.95527 0
M  V30 862 H 83.2655 -2.47848 3.19927 0
M  V30 863 H 80.0205 -1.04335 4.61964 0
M  V30 864 H 80.4445 0.479428 6.753 0
M  V30 865 H 85.0865 -0.807313 4.15021 0
M  V30 866 H 82.8045 1.54105 7.9327 0
M  V30 867 H 86.3905 0.499012 5.79656 0
M  V30 868 H 85.2705 1.65679 7.66499 0
M  V30 869 N 82.7736 -1.49793 -0.48987 0
M  V30 870 C 83.7036 -1.70201 -1.59856 0
M  V30 871 C 84.6846 -0.55076 -1.60937 0
M  V30 872 O 85.8696 -0.787841 -1.77501 0
M  V30 873 C 82.9996 -1.77882 -2.98287 0
M  V30 874 C 81.9536 -2.92907 -3.12073 0
M  V30 875 C 81.2796 -2.85712 -4.51965 0
M  V30 876 C 82.5796 -4.3369 -2.91051 0
M  V30 877 H 84.2736 -2.63025 -1.43032 0
M  V30 878 H 81.8196 -1.26574 -0.686664 0
M  V30 879 H 83.7726 -1.90744 -3.75759 0
M  V30 880 H 82.4966 -0.816653 -3.16225 0
M  V30 881 H 81.1556 -2.79665 -2.37029 0
M  V30 882 H 80.8036 -1.8738 -4.66795 0
M  V30 883 H 80.5036 -3.62921 -4.62128 0
M  V30 884 H 82.0276 -3.00598 -5.31482 0
M  V30 885 H 83.4416 -4.47555 -3.58284 0
M  V30 886 H 81.8386 -5.12205 -3.12675 0
M  V30 887 H 82.9086 -4.47362 -1.87071 0
M  V30 888 N 84.2517 0.741722 -1.39055 0
M  V30 889 C 85.4977 1.50336 -1.36113 0
M  V30 890 C 85.8307 1.94148 0.0450796 0
M  V30 891 O 85.1057 1.66301 1.00868 0
M  V30 892 C 85.3887 2.74773 -2.32749 0
M  V30 893 C 85.2417 2.37023 -3.82283 0
M  V30 894 C 86.5607 3.76846 -2.27322 0
M  V30 895 H 83.6797 0.545351 -0.495743 0
M  V30 896 H 86.3217 0.848624 -1.69995 0
M  V30 897 H 84.4717 3.30639 -2.03986 0
M  V30 898 H 86.1437 1.8684 -4.21768 0
M  V30 899 H 84.3867 1.69334 -3.99385 0
M  V30 900 H 85.0577 3.26104 -4.45376 0
M  V30 901 H 87.5337 3.30548 -2.5274 0
M  V30 902 H 86.4097 4.6159 -2.97028 0
M  V30 903 H 86.6707 4.23286 -1.27599 0
M  V30 904 N 85.7298 1.2412 0.971189 0
M  V30 905 C 86.9768 1.07881 1.71371 0
M  V30 906 C 87.3048 -0.382901 1.90694 0
M  V30 907 O 86.5598 -1.29945 1.46331 0
M  V30 908 C 86.8588 1.75983 3.11071 0
M  V30 909 C 86.5248 3.25909 3.11599 0
M  V30 910 C 85.1868 3.66813 3.11451 0
M  V30 911 C 87.5388 4.21771 3.062 0
M  V30 912 C 84.8668 5.02021 3.03631 0
M  V30 913 C 87.2188 5.56982 2.99923 0
M  V30 914 C 85.8828 5.97237 2.98102 0
M  V30 915 H 85.1528 0.394764 0.62709 0
M  V30 916 H 87.7998 1.54176 1.13587 0
M  V30 917 H 86.1048 1.22072 3.72298 0
M  V30 918 H 87.8018 1.60887 3.6731 0
M  V30 919 H 84.3918 2.93353 3.12477 0
M  V30 920 H 88.5758 3.91172 3.05447 0
M  V30 921 H 83.8318 5.32411 3.0058 0
M  V30 922 H 88.0058 6.30969 2.94704 0
M  V30 923 H 85.6328 7.01967 2.91798 0
M  V30 924 N 87.2079 -1.17134 1.05439 0
M  V30 925 C 88.4569 -1.86791 0.761049 0
M  V30 926 C 88.7699 -1.82072 -0.714795 0
M  V30 927 O 89.9759 -2.47223 -1.12218 0
M  V30 928 C 88.4319 -3.35166 1.31117 0
M  V30 929 C 88.0399 -3.48381 2.81664 0
M  V30 930 C 89.7839 -4.10134 1.09499 0
M  V30 931 C 87.6909 -4.90793 3.29964 0
M  V30 932 H 86.6209 -0.699681 0.281002 0
M  V30 933 H 89.2719 -1.3226 1.27199 0
M  V30 934 H 87.6539 -3.8925 0.72803 0
M  V30 935 H 88.8279 -3.04502 3.45855 0
M  V30 936 H 87.1429 -2.86836 3.01851 0
M  V30 937 H 89.7399 -5.152 1.43084 0
M  V30 938 H 90.0829 -4.16287 0.0328772 0
M  V30 939 H 90.6159 -3.62264 1.64346 0
M  V30 940 H 87.3549 -4.89816 4.35616 0
M  V30 941 H 86.8749 -5.35333 2.70516 0
M  V30 942 H 88.5539 -5.59573 3.24787 0
M  V30 943 N 88.686 -0.835752 -1.33615 0
M  V30 944 C 89.932 -0.430596 -1.98176 0
M  V30 945 C 90.265 1.00684 -1.66061 0
M  V30 946 O 89.54 1.70339 -0.938877 0
M  V30 947 C 89.823 -0.648065 -3.5422 0
M  V30 948 C 89.676 -2.13255 -3.96033 0
M  V30 949 C 90.995 -0.0922113 -4.40003 0
M  V30 950 H 88.114 -0.157924 -0.719881 0
M  V30 951 H 90.756 -1.05069 -1.58305 0
M  V30 952 H 88.906 -0.120237 -3.88314 0
M  V30 953 H 90.578 -2.725 -3.72211 0
M  V30 954 H 88.821 -2.61823 -3.45878 0
M  V30 955 H 89.492 -2.23547 -5.04708 0
M  V30 956 H 91.968 -0.543343 -4.12537 0
M  V30 957 H 90.844 -0.274083 -5.48215 0
M  V30 958 H 91.105 1.00378 -4.30554 0
M  V30 959 N 90.1641 1.46063 -0.591896 0
M  V30 960 C 91.4121 2.01938 -0.0808391 0
M  V30 961 C 91.7331 1.46475 1.28725 0
M  V30 962 O 91.0031 0.652944 1.84698 0
M  V30 963 H 89.5831 0.746516 -0.0268938 0
M  V30 964 H 92.2451 1.79055 -0.769752 0
M  V30 965 H 91.3411 3.12094 -0.0187578 0
M  V30 966 N 91.6422 0.330177 1.54103 0
M  V30 967 C 92.6052 -0.520144 2.2322 0
M  V30 968 C 93.6052 -1.03828 1.22786 0
M  V30 969 O 94.7952 -0.929652 1.4732 0
M  V30 970 C 91.9272 -1.72317 2.94142 0
M  V30 971 H 93.1202 0.0841605 2.99782 0
M  V30 972 H 90.6732 0.0813433 1.56088 0
M  V30 973 H 91.4082 -2.36653 2.21734 0
M  V30 974 H 91.1932 -1.35898 3.67796 0
M  V30 975 H 92.6832 -2.3266 3.46784 0
M  V30 976 N 93.1203 -1.57491 0.0584922 0
M  V30 977 C 94.0503 -2.14988 -0.911178 0
M  V30 978 C 95.0313 -1.07343 -1.31952 0
M  V30 979 O 96.2163 -1.35318 -1.39294 0
M  V30 980 C 93.3463 -2.70078 -2.18347 0
M  V30 981 C 92.3003 -3.82771 -1.91495 0
M  V30 982 C 91.6263 -4.24408 -3.25241 0
M  V30 983 C 92.9263 -5.07592 -1.23075 0
M  V30 984 H 94.6203 -2.96263 -0.432246 0
M  V30 985 H 92.1663 -1.42512 -0.206469 0
M  V30 986 H 94.1193 -3.08943 -2.86587 0
M  V30 987 H 92.8433 -1.86005 -2.68458 0
M  V30 988 H 91.5023 -3.44389 -1.25664 0
M  V30 989 H 91.1503 -3.37275 -3.73168 0
M  V30 990 H 90.8503 -5.00366 -3.08071 0
M  V30 991 H 92.3743 -4.65879 -3.94701 0
M  V30 992 H 93.7883 -5.43857 -1.81362 0
M  V30 993 H 92.1853 -5.88741 -1.16207 0
M  V30 994 H 93.2553 -4.84454 -0.207847 0
M  V30 995 N 94.5984 0.214957 -1.56127 0
M  V30 996 C 95.8464 0.936518 -1.79091 0
M  V30 997 C 96.1674 1.84606 -0.628148 0
M  V30 998 O 95.4374 1.92664 0.35462 0
M  V30 999 H 94.0174 0.3488 -0.660566 0
M  V30 1000 H 96.6794 0.22523 -1.93594 0
M  V30 1001 H 95.7754 1.53943 -2.71492 0
M  V30 1002 N 96.0765 1.50051 0.48192 0
M  V30 1003 C 97.0245 1.68635 1.60203 0
M  V30 1004 C 98.0185 0.552184 1.60148 0
M  V30 1005 O 99.2245 0.732377 1.64427 0
M  V30 1006 H 95.5995 0.532081 0.531407 0
M  V30 1007 H 97.5705 2.62616 1.41688 0
M  V30 1008 C 96.3195 1.78775 2.9822 0
M  V30 1009 H 95.6425 2.6543 2.98976 0
M  V30 1010 H 97.0825 1.95806 3.7608 0
M  V30 1011 C 95.5415 0.536849 3.32595 0
M  V30 1012 O 96.0715 -0.328897 4.00351 0
M  V30 1013 N 94.2775 0.394091 2.87915 0
M  V30 1014 H 93.8245 1.09962 2.32951 0
M  V30 1015 H 93.7825 -0.441737 3.11281 0
M  V30 1016 N 97.5546 -0.734337 1.39446 0
M  V30 1017 C 98.7796 -1.52866 1.40167 0
M  V30 1018 C 99.2046 -1.881 -0.00171513 0
M  V30 1019 O 98.5626 -1.51957 -0.988879 0
M  V30 1020 C 98.6106 -2.79235 2.28167 0
M  V30 1021 O 97.7146 -3.75185 1.71201 0
M  V30 1022 H 97.0556 -0.461618 0.477289 0
M  V30 1023 H 99.5856 -0.905949 1.8345 0
M  V30 1024 H 99.5956 -3.27963 2.42702 0
M  V30 1025 H 98.2706 -2.52923 3.30156 0
M  V30 1026 H 96.8476 -3.33958 1.65912 0
M  V30 1027 N 99.0327 -1.24633 -0.964593 0
M  V30 1028 C 99.9627 -1.06611 -2.07741 0
M  V30 1029 C 100.944 0.0218666 -1.70086 0
M  V30 1030 O 102.129 -0.145793 -1.93652 0
M  V30 1031 C 99.2587 -0.673444 -3.40708 0
M  V30 1032 C 98.2127 -1.71054 -3.92332 0
M  V30 1033 C 97.5387 -1.17285 -5.21678 0
M  V30 1034 C 98.8387 -3.10718 -4.19824 0
M  V30 1035 H 100.533 -1.99693 -2.23076 0
M  V30 1036 H 98.0787 -0.96152 -1.07195 0
M  V30 1037 H 100.032 -0.534345 -4.17998 0
M  V30 1038 H 98.7557 0.293073 -3.25282 0
M  V30 1039 H 97.4147 -1.83791 -3.17201 0
M  V30 1040 H 97.0627 -0.196847 -5.02615 0
M  V30 1041 H 96.7627 -1.86592 -5.57187 0
M  V30 1042 H 98.2867 -1.04593 -6.01575 0
M  V30 1043 H 99.7007 -3.01192 -4.87808 0
M  V30 1044 H 98.0977 -3.77406 -4.66567 0
M  V30 1045 H 99.1677 -3.58524 -3.26479 0
M  V30 1046 N 100.511 1.16574 -1.06058 0
M  V30 1047 C 101.757 1.87324 -0.777022 0
M  V30 1048 C 102.09 1.81351 0.694645 0
M  V30 1049 O 101.365 1.22753 1.50871 0
M  V30 1050 C 101.648 3.36991 -1.26922 0
M  V30 1051 C 101.501 3.51667 -2.80447 0
M  V30 1052 C 102.82 4.3131 -0.87521 0
M  V30 1053 H 99.9388 0.680191 -0.28374 0
M  V30 1054 H 102.581 1.37036 -1.3161 0
M  V30 1055 H 100.731 3.79949 -0.81063 0
M  V30 1056 H 102.403 3.17664 -3.34495 0
M  V30 1057 H 100.646 2.93656 -3.19294 0
M  V30 1058 H 101.317 4.56766 -3.0995 0
M  V30 1059 H 103.793 3.9624 -1.27014 0
M  V30 1060 H 102.669 5.34545 -1.2471 0
M  V30 1061 H 102.93 4.41552 0.220071 0
M  V30 1062 N 101.989 0.842826 1.3317 0
M  V30 1063 C 103.238 0.436738 1.96915 0
M  V30 1064 C 103.551 -1.01025 1.67491 0
M  V30 1065 O 104.757 -1.5212 2.24881 0
M  V30 1066 C 103.213 0.730021 3.52418 0
M  V30 1067 C 102.821 2.19195 3.90714 0
M  V30 1068 C 104.565 0.391076 4.22695 0
M  V30 1069 C 102.472 2.42907 5.39212 0
M  V30 1070 H 101.402 0.15958 0.736919 0
M  V30 1071 H 104.053 1.03196 1.51733 0
M  V30 1072 H 102.435 0.0643755 3.95948 0
M  V30 1073 H 103.609 2.8984 3.58231 0
M  V30 1074 H 101.924 2.49425 3.33431 0
M  V30 1075 H 104.521 0.545817 5.31907 0
M  V30 1076 H 104.864 -0.666294 4.10933 0
M  V30 1077 H 105.397 1.01212 3.84709 0
M  V30 1078 H 102.136 3.47224 5.55982 0
M  V30 1079 H 101.656 1.76827 5.73142 0
M  V30 1080 H 103.335 2.2626 6.06148 0
M  V30 1081 N 103.467 -1.45747 0.599634 0
M  V30 1082 C 104.397 -2.33235 -0.111306 0
M  V30 1083 C 105.378 -1.46359 -0.866781 0
M  V30 1084 O 106.563 -1.75146 -0.838904 0
M  V30 1085 C 103.693 -3.28932 -1.11451 0
M  V30 1086 C 102.647 -4.25381 -0.472772 0
M  V30 1087 C 101.973 -5.1071 -1.58365 0
M  V30 1088 C 103.273 -5.18831 0.600948 0
M  V30 1089 H 104.967 -2.92927 0.61919 0
M  V30 1090 H 102.513 -1.40857 0.299215 0
M  V30 1091 H 104.466 -3.89002 -1.62036 0
M  V30 1092 H 103.19 -2.67381 -1.8755 0
M  V30 1093 H 101.849 -3.66598 0.0121472 0
M  V30 1094 H 101.497 -4.45533 -2.33473 0
M  V30 1095 H 101.197 -5.7604 -1.15982 0
M  V30 1096 H 102.721 -5.73647 -2.09194 0
M  V30 1097 H 104.135 -5.73019 0.179491 0
M  V30 1098 H 102.532 -5.92595 0.946076 0
M  V30 1099 H 103.602 -4.6174 1.48068 0
M  V30 1100 N 104.945 -0.338344 -1.53925 0
M  V30 1101 C 106.191 0.260143 -2.01125 0
M  V30 1102 C 106.524 1.50617 -1.22589 0
M  V30 1103 O 105.799 1.91979 -0.312113 0
M  V30 1104 C 106.082 0.579499 -3.55407 0
M  V30 1105 C 105.935 -0.678264 -4.44657 0
M  V30 1106 C 107.254 1.39122 -4.17532 0
M  V30 1107 H 104.373 0.0930772 -0.731099 0
M  V30 1108 H 107.015 -0.457852 -1.84401 0
M  V30 1109 H 105.165 1.19118 -3.69788 0
M  V30 1110 H 106.837 -1.31631 -4.42121 0
M  V30 1111 H 105.08 -1.3042 -4.13731 0
M  V30 1112 H 105.751 -0.410143 -5.50474 0
M  V30 1113 H 108.227 0.874035 -4.06817 0
M  V30 1114 H 107.103 1.58342 -5.25565 0
M  V30 1115 H 107.364 2.39178 -3.71815 0
M  V30 1116 N 106.423 1.57458 -0.0668435 0
M  V30 1117 C 107.653 1.97337 0.611677 0
M  V30 1118 C 108.061 0.943744 1.63982 0
M  V30 1119 O 107.404 -0.0785584 1.83532 0
M  V30 1120 C 107.466 3.33511 1.34205 0
M  V30 1121 C 107.13 4.54598 0.467941 0
M  V30 1122 C 108.127 5.19186 -0.272439 0
M  V30 1123 C 105.812 5.0075 0.39427 0
M  V30 1124 C 107.806 6.28274 -1.07476 0
M  V30 1125 C 105.493 6.09711 -0.411729 0
M  V30 1126 C 106.491 6.73335 -1.14492 0
M  V30 1127 O 106.179 7.80199 -1.93763 0
M  V30 1128 H 105.911 0.654042 0.170893 0
M  V30 1129 H 108.465 2.04961 -0.134289 0
M  V30 1130 H 106.695 3.22487 2.13398 0
M  V30 1131 H 108.384 3.58029 1.91233 0
M  V30 1132 H 109.15 4.84477 -0.225086 0
M  V30 1133 H 105.029 4.51009 0.954569 0
M  V30 1134 H 108.573 6.77866 -1.64755 0
M  V30 1135 H 104.47 6.43854 -0.460664 0
M  V30 1136 H 105.238 7.97053 -1.86142 0
M  V30 1137 N 107.901 -0.206675 1.56239 0
M  V30 1138 C 109.147 -0.925733 1.81113 0
M  V30 1139 C 109.502 -1.81368 0.642135 0
M  V30 1140 O 108.795 -1.88126 -0.363211 0
M  V30 1141 C 108.989 -1.78675 3.09532 0
M  V30 1142 C 108.818 -0.98365 4.3881 0
M  V30 1143 C 107.588 -0.672661 5.00803 0
M  V30 1144 C 109.786 -0.341847 5.13163 0
M  V30 1145 N 107.768 0.150283 6.13716 0
M  V30 1146 C 109.139 0.343815 6.19046 0
M  V30 1147 C 111.194 -0.256392 4.97239 0
M  V30 1148 C 109.897 1.10678 7.10734 0
M  V30 1149 C 111.923 0.493142 5.8934 0
M  V30 1150 C 111.285 1.16729 6.94661 0
M  V30 1151 H 107.384 -0.318524 0.714189 0
M  V30 1152 H 109.968 -0.195378 1.93717 0
M  V30 1153 H 108.139 -2.4888 2.98183 0
M  V30 1154 H 109.871 -2.44441 3.22538 0
M  V30 1155 H 106.626 -0.994294 4.63045 0
M  V30 1156 H 107.05 0.551026 6.74754 0
M  V30 1157 H 111.692 -0.763249 4.15854 0
M  V30 1158 H 109.41 1.6251 7.91591 0
M  V30 1159 H 112.996 0.560465 5.79094 0
M  V30 1160 H 111.876 1.738 7.64698 0
M  V30 1161 N 109.379 -1.50304 -0.473955 0
M  V30 1162 C 110.609 -1.64663 -1.24778 0
M  V30 1163 C 111.017 -0.328174 -1.86332 0
M  V30 1164 O 110.36 0.699536 -1.69859 0
M  V30 1165 C 110.422 -2.6778 -2.39863 0
M  V30 1166 C 110.086 -4.11413 -1.98969 0
M  V30 1167 C 111.083 -4.97372 -1.51385 0
M  V30 1168 C 108.768 -4.57312 -2.07777 0
M  V30 1169 C 110.762 -6.27277 -1.13148 0
M  V30 1170 C 108.449 -5.87223 -1.69152 0
M  V30 1171 C 109.447 -6.72031 -1.21915 0
M  V30 1172 O 109.135 -7.99518 -0.838237 0
M  V30 1173 H 108.867 -0.556602 -0.383627 0
M  V30 1174 H 111.421 -1.9726 -0.572491 0
M  V30 1175 H 109.651 -2.30419 -3.10554 0
M  V30 1176 H 111.34 -2.71388 -3.01833 0
M  V30 1177 H 112.106 -4.63128 -1.44004 0
M  V30 1178 H 107.985 -3.91449 -2.43493 0
M  V30 1179 H 111.529 -6.93425 -0.762077 0
M  V30 1180 H 107.426 -6.20989 -1.76191 0
M  V30 1181 H 108.194 -8.12764 -0.967339 0
M  V30 1182 N 110.857 0.726932 -1.39834 0
M  V30 1183 C 112.097 1.4992 -1.38936 0
M  V30 1184 C 112.461 1.91996 0.0126883 0
M  V30 1185 O 113.662 2.68399 0.146715 0
M  V30 1186 C 111.933 2.70013 -2.34153 0
M  V30 1187 S 113.492 3.59563 -2.51515 0
M  V30 1188 H 110.31 0.51271 -0.492595 0
M  V30 1189 H 112.912 0.85107 -1.76003 0
M  V30 1190 H 111.616 2.37254 -3.34871 0
M  V30 1191 H 111.147 3.39748 -1.98331 0
M  V30 1192 H 113.162 4.63973 -1.75909 0
M  V30 1193 N 112.336 1.25143 0.95797 0
M  V30 1194 C 113.564 1.12424 1.73691 0
M  V30 1195 C 113.979 -0.322304 1.86029 0
M  V30 1196 O 113.336 -1.22186 1.35561 0
M  V30 1197 C 113.387 1.76933 3.15241 0
M  V30 1198 O 113.108 3.15932 3.03511 0
M  V30 1199 C 114.609 1.6995 4.09429 0
M  V30 1200 H 111.829 0.3923 0.544373 0
M  V30 1201 H 114.373 1.6544 1.20207 0
M  V30 1202 H 112.528 1.27895 3.6568 0
M  V30 1203 H 112.942 3.47598 3.9278 0
M  V30 1204 H 114.416 2.19753 5.06372 0
M  V30 1205 H 114.893 0.662619 4.34173 0
M  V30 1206 H 115.499 2.18461 3.64904 0
M  V30 1207 N 113.814 -1.1601 1.06675 0
M  V30 1208 C 115.23 -1.38622 0.790948 0
M  V30 1209 C 115.43 -1.92109 -0.607965 0
M  V30 1210 O 114.486 -2.12239 -1.36787 0
M  V30 1211 C 115.799 -2.36347 1.85905 0
M  V30 1212 C 117.347 -2.50023 1.88301 0
M  V30 1213 C 117.822 -3.51033 2.94176 0
M  V30 1214 N 119.313 -3.58563 2.93235 0
M  V30 1215 C 120.048 -4.36521 3.71803 0
M  V30 1216 N 119.544 -5.17869 4.602 0
M  V30 1217 N 121.337 -4.31541 3.60178 0
M  V30 1218 H 113.488 -0.796294 1.96908 0
M  V30 1219 H 115.751 -0.412597 0.853503 0
M  V30 1220 H 115.457 -2.04147 2.86386 0
M  V30 1221 H 115.331 -3.36042 1.71334 0
M  V30 1222 H 117.718 -2.81524 0.884769 0
M  V30 1223 H 117.799 -1.5035 2.06951 0
M  V30 1224 H 117.443 -3.20268 3.94196 0
M  V30 1225 H 117.373 -4.50445 2.72776 0
M  V30 1226 H 119.864 -3.00496 2.29152 0
M  V30 1227 H 120.177 -5.74578 5.16797 0
M  V30 1228 H 118.522 -5.17199 4.64253 0
M  V30 1229 H 121.713 -3.67051 2.90502 0
M  V30 1230 H 121.886 -4.9205 4.21653 0
M  V30 1231 N 115.292 -0.849877 -1.32721 0
M  V30 1232 C 116.538 -0.451591 -1.97708 0
M  V30 1233 C 116.871 0.989175 -1.6712 0
M  V30 1234 O 116.146 1.69334 -0.956891 0
M  V30 1235 C 116.429 -0.685598 -3.53513 0
M  V30 1236 C 116.282 -2.17444 -3.93749 0
M  V30 1237 C 117.601 -0.138874 -4.39881 0
M  V30 1238 H 114.72 -0.16555 -0.718166 0
M  V30 1239 H 117.362 -1.06742 -1.57182 0
M  V30 1240 H 115.512 -0.161416 -3.88165 0
M  V30 1241 H 117.184 -2.76433 -3.693 0
M  V30 1242 H 115.427 -2.65476 -3.43081 0
M  V30 1243 H 116.098 -2.28888 -5.02309 0
M  V30 1244 H 118.574 -0.587068 -4.11938 0
M  V30 1245 H 117.45 -0.332213 -5.47894 0
M  V30 1246 H 117.711 0.95806 -4.31594 0
M  V30 1247 N 116.77 1.45427 -0.607355 0
M  V30 1248 C 117.717 2.3053 0.111625 0
M  V30 1249 C 118.687 1.4209 0.860216 0
M  V30 1250 O 119.872 1.71019 0.845998 0
M  V30 1251 C 117.012 3.26992 1.10319 0
M  V30 1252 C 116.125 4.30535 0.355493 0
M  V30 1253 C 115.26 5.14105 1.33676 0
M  V30 1254 C 114.299 6.09376 0.576862 0
M  V30 1255 N 113.436 6.85727 1.5074 0
M  V30 1256 H 118.276 2.91477 -0.620093 0
M  V30 1257 H 115.813 1.43631 -0.317594 0
M  V30 1258 H 117.771 3.81385 1.6912 0
M  V30 1259 H 116.401 2.67799 1.80232 0
M  V30 1260 H 115.453 3.78805 -0.348023 0
M  V30 1261 H 116.765 4.98235 -0.237423 0
M  V30 1262 H 115.919 5.72897 1.99684 0
M  V30 1263 H 114.658 4.46423 1.9636 0
M  V30 1264 H 113.663 5.49715 -0.0968519 0
M  V30 1265 H 114.888 6.79085 -0.0449341 0
M  V30 1266 H 112.834 6.20735 2.12189 0
M  V30 1267 H 112.751 7.49778 0.967913 0
M  V30 1268 H 114.019 7.4906 2.15706 0
M  V30 1269 N 118.248 0.346503 1.53744 0
M  V30 1270 C 119.476 -0.25041 2.05379 0
M  V30 1271 C 119.891 -1.43979 1.22129 0
M  V30 1272 O 119.248 -1.80677 0.257321 0
M  V30 1273 C 119.299 -0.662575 3.55376 0
M  V30 1274 O 119.02 0.479515 4.35468 0
M  V30 1275 C 120.521 -1.31989 4.23195 0
M  V30 1276 H 117.741 -0.0478198 0.669294 0
M  V30 1277 H 120.285 0.499346 1.9831 0
M  V30 1278 H 118.44 -1.36227 3.62658 0
M  V30 1279 H 118.854 0.15037 5.24284 0
M  V30 1280 H 120.328 -1.55902 5.29527 0
M  V30 1281 H 120.805 -2.27436 3.75725 0
M  V30 1282 H 121.411 -0.662154 4.20114 0
M  V30 1283 N 119.726 -1.57421 0.075193 0
M  V30 1284 C 120.659 -2.08528 -0.926904 0
M  V30 1285 C 121.637 -0.991171 -1.28898 0
M  V30 1286 O 122.821 -1.26479 -1.39769 0
M  V30 1287 C 119.948 -2.54576 -2.23402 0
M  V30 1288 C 118.994 -3.75454 -2.02327 0
M  V30 1289 S 119.827 -5.19989 -1.27951 0
M  V30 1290 C 120.983 -5.69372 -2.59935 0
M  V30 1291 H 121.216 -2.932 -0.492048 0
M  V30 1292 H 118.749 -1.53785 -0.137651 0
M  V30 1293 H 120.707 -2.81767 -2.98526 0
M  V30 1294 H 119.368 -1.70166 -2.64012 0
M  V30 1295 H 118.561 -4.05675 -2.99071 0
M  V30 1296 H 118.163 -3.48654 -1.35339 0
M  V30 1297 H 120.455 -5.76424 -3.56008 0
M  V30 1298 H 121.398 -6.68207 -2.34319 0
M  V30 1299 H 121.806 -4.97205 -2.67296 0
M  V30 1300 N 121.204 0.198386 -1.56346 0
M  V30 1301 C 122.432 0.935572 -1.84539 0
M  V30 1302 C 122.847 1.76989 -0.657281 0
M  V30 1303 O 122.204 1.78626 0.374043 0
M  V30 1304 C 122.255 1.8344 -3.11499 0
M  V30 1305 O 121.976 1.03377 -4.25728 0
M  V30 1306 C 123.477 2.68355 -3.52846 0
M  V30 1307 H 120.697 0.273126 -0.612897 0
M  V30 1308 H 123.241 0.20663 -2.03453 0
M  V30 1309 H 121.396 2.51701 -2.94492 0
M  V30 1310 H 121.81 1.64599 -4.98003 0
M  V30 1311 H 123.284 3.27085 -4.44657 0
M  V30 1312 H 123.761 3.41901 -2.75681 0
M  V30 1313 H 124.367 2.05471 -3.72373 0
M  V30 1314 N 122.682 1.50554 0.465978 0
M  V30 1315 C 123.959 1.5232 1.22712 0
M  V30 1316 C 124.339 0.270807 2.09356 0
M  V30 1317 O 123.687 -0.745541 2.15995 0
M  V30 1318 C 123.897 2.82175 2.05374 0
M  V30 1319 C 125.245 3.33033 2.6339 0
M  V30 1320 O 126.269 2.83531 2.15612 0
M  V30 1321 O 125.128 4.19336 3.50456 0
M  V30 1322 H 122.222 0.611183 0.557122 0
M  V30 1323 H 124.768 1.62847 0.477381 0
M  V30 1324 H 123.54 3.64797 1.41558 0
M  V30 1325 H 123.163 2.74675 2.87471 0
M  V30 1326 N 124.16 -0.719506 1.40217 0
M  V30 1327 C 125.093 -1.84298 1.34571 0
M  V30 1328 C 126.071 -1.61149 0.216741 0
M  V30 1329 O 127.255 -1.84212 0.399756 0
M  V30 1330 C 124.382 -3.20568 1.09335 0
M  V30 1331 C 123.428 -3.62551 2.24631 0
M  V30 1332 S 124.261 -3.7012 3.87004 0
M  V30 1333 C 125.417 -5.09154 3.64024 0
M  V30 1334 H 125.65 -1.88807 2.2965 0
M  V30 1335 H 123.183 -0.885901 1.26456 0
M  V30 1336 H 125.141 -3.99246 0.954602 0
M  V30 1337 H 123.802 -3.13696 0.159164 0
M  V30 1338 H 122.995 -4.61483 2.02606 0
M  V30 1339 H 122.597 -2.91119 2.34789 0
M  V30 1340 H 124.889 -5.95955 3.22248 0
M  V30 1341 H 125.832 -5.36213 4.62473 0
M  V30 1342 H 126.24 -4.79562 2.97793 0
M  V30 1343 N 125.638 -1.25649 -0.95132 0
M  V30 1344 C 126.885 -1.10594 -1.69633 0
M  V30 1345 C 127.213 0.352515 -1.91279 0
M  V30 1346 O 126.468 1.27601 -1.4838 0
M  V30 1347 C 126.767 -1.80909 -3.08231 0
M  V30 1348 C 126.433 -3.30825 -3.06375 0
M  V30 1349 C 125.095 -3.71722 -3.05576 0
M  V30 1350 C 127.447 -4.26589 -2.99452 0
M  V30 1351 C 124.775 -5.06788 -2.95606 0
M  V30 1352 C 127.127 -5.61683 -2.91024 0
M  V30 1353 C 125.791 -6.01904 -2.88562 0
M  V30 1354 H 125.061 -0.404691 -0.620731 0
M  V30 1355 H 127.708 -1.55964 -1.11119 0
M  V30 1356 H 126.013 -1.27979 -3.70309 0
M  V30 1357 H 127.71 -1.6671 -3.64704 0
M  V30 1358 H 124.3 -2.98287 -3.07771 0
M  V30 1359 H 128.484 -3.95982 -2.99185 0
M  V30 1360 H 123.74 -5.37126 -2.92071 0
M  V30 1361 H 127.914 -6.35578 -2.84629 0
M  V30 1362 H 125.541 -7.06521 -2.80593 0
M  V30 1363 N 127.117 1.15442 -1.07289 0
M  V30 1364 C 128.047 2.22312 -0.714107 0
M  V30 1365 C 129.028 1.67467 0.298155 0
M  V30 1366 O 130.213 1.93445 0.171048 0
M  V30 1367 C 127.343 3.47124 -0.110448 0
M  V30 1368 C 126.297 4.14926 -1.04979 0
M  V30 1369 C 125.623 5.33807 -0.308924 0
M  V30 1370 C 126.923 4.64762 -2.38314 0
M  V30 1371 H 128.617 2.5258 -1.6076 0
M  V30 1372 H 126.163 1.21404 -0.77441 0
M  V30 1373 H 128.116 4.21124 0.152482 0
M  V30 1374 H 126.84 3.16187 0.81812 0
M  V30 1375 H 125.499 3.42866 -1.29764 0
M  V30 1376 H 125.147 4.99126 0.623084 0
M  V30 1377 H 124.847 5.80113 -0.935036 0
M  V30 1378 H 126.371 6.10576 -0.0537771 0
M  V30 1379 H 127.785 5.30292 -2.1786 0
M  V30 1380 H 126.182 5.21728 -2.96514 0
M  V30 1381 H 127.252 3.80434 -3.00663 0
M  V30 1382 N 128.595 0.856903 1.32268 0
M  V30 1383 C 129.525 0.31858 2.31316 0
M  V30 1384 C 130.506 -0.583487 1.59779 0
M  V30 1385 O 131.691 -0.503259 1.87566 0
M  V30 1386 C 128.821 -0.491979 3.43798 0
M  V30 1387 C 127.775 0.315849 4.26833 0
M  V30 1388 C 127.101 -0.619586 5.31098 0
M  V30 1389 C 128.401 1.54282 4.98993 0
M  V30 1390 H 130.095 1.14621 2.76591 0
M  V30 1391 H 127.641 0.552613 1.32974 0
M  V30 1392 H 129.594 -0.879012 4.1213 0
M  V30 1393 H 128.318 -1.35299 2.97257 0
M  V30 1394 H 126.977 0.684664 3.6015 0
M  V30 1395 H 126.625 -1.47751 4.8081 0
M  V30 1396 H 126.325 -0.0830621 5.87541 0
M  V30 1397 H 127.849 -1.00375 6.02293 0
M  V30 1398 H 129.263 1.22796 5.59995 0
M  V30 1399 H 127.66 2.01745 5.65172 0
M  V30 1400 H 128.73 2.30285 4.26728 0
M  V30 1401 N 130.073 -1.45103 0.615059 0
M  V30 1402 C 131.021 -2.32331 -0.111791 0
M  V30 1403 C 132.015 -1.46409 -0.852102 0
M  V30 1404 O 133.221 -1.62849 -0.766821 0
M  V30 1405 H 129.596 -0.749993 -0.0549072 0
M  V30 1406 H 131.567 -2.91407 0.642225 0
M  V30 1407 C 130.316 -3.3015 -1.09071 0
M  V30 1408 H 129.639 -3.96265 -0.530485 0
M  V30 1409 H 131.079 -3.93898 -1.56908 0
M  V30 1410 C 129.538 -2.57875 -2.168 0
M  V30 1411 O 130.068 -2.36567 -3.24652 0
M  V30 1412 N 128.274 -2.17884 -1.92289 0
M  V30 1413 H 127.821 -2.35413 -1.04587 0
M  V30 1414 H 127.779 -1.6985 -2.64572 0
M  V30 1415 N 131.551 -0.354651 -1.53558 0
M  V30 1416 C 132.481 0.489091 -2.2832 0
M  V30 1417 C 133.462 1.09324 -1.30316 0
M  V30 1418 O 134.647 1.11255 -1.59173 0
M  V30 1419 C 131.777 1.63456 -3.0643 0
M  V30 1420 C 130.731 1.1582 -4.12031 0
M  V30 1421 C 130.057 2.39305 -4.7816 0
M  V30 1422 C 131.357 0.250731 -5.21698 0
M  V30 1423 H 133.051 -0.134614 -2.99097 0
M  V30 1424 H 130.597 -0.0661826 -1.43848 0
M  V30 1425 H 132.55 2.23136 -3.57475 0
M  V30 1426 H 131.274 2.28533 -2.33325 0
M  V30 1427 H 129.933 0.584146 -3.61916 0
M  V30 1428 H 129.581 3.02814 -4.01637 0
M  V30 1429 H 129.281 2.08109 -5.49513 0
M  V30 1430 H 130.805 2.99691 -5.31994 0
M  V30 1431 H 132.219 0.754695 -5.68311 0
M  V30 1432 H 130.616 0.0301468 -6.00092 0
M  V30 1433 H 131.686 -0.710125 -4.79672 0
M  V30 1434 N 133.029 1.57378 -0.0835403 0
M  V30 1435 C 133.992 2.12252 0.864959 0
M  V30 1436 C 134.992 1.04916 1.21858 0
M  V30 1437 O 136.182 1.30853 1.14991 0
M  V30 1438 C 133.314 2.63358 2.16461 0
M  V30 1439 H 134.507 2.97371 0.388676 0
M  V30 1440 H 132.06 1.55423 0.165317 0
M  V30 1441 H 132.795 1.81727 2.686 0
M  V30 1442 H 132.58 3.41826 1.92087 0
M  V30 1443 H 134.07 3.05847 2.84337 0
M  V30 1444 N 134.507 -0.190092 1.56449 0
M  V30 1445 C 135.756 -0.907912 1.80111 0
M  V30 1446 C 136.069 -1.84214 0.657619 0
M  V30 1447 O 137.275 -2.60094 0.778663 0
M  V30 1448 C 135.731 -1.66485 3.19078 0
M  V30 1449 C 135.339 -0.7752 4.41242 0
M  V30 1450 C 137.083 -2.37201 3.52045 0
M  V30 1451 C 134.99 -1.53129 5.71231 0
M  V30 1452 H 133.92 -0.34276 0.671589 0
M  V30 1453 H 136.571 -0.161109 1.82791 0
M  V30 1454 H 134.953 -2.45572 3.10661 0
M  V30 1455 H 136.127 -0.0226298 4.60794 0
M  V30 1456 H 134.442 -0.178627 4.16017 0
M  V30 1457 H 137.039 -2.94329 4.46402 0
M  V30 1458 H 137.382 -3.11632 2.76028 0
M  V30 1459 H 137.915 -1.65075 3.61932 0
M  V30 1460 H 134.654 -0.82967 6.50228 0
M  V30 1461 H 134.174 -2.25767 5.55688 0
M  V30 1462 H 135.853 -2.08377 6.12526 0
M  V30 1463 N 135.985 -1.50799 -0.457987 0
M  V30 1464 C 136.948 -1.7005 -1.53674 0
M  V30 1465 C 137.948 -0.570881 -1.50325 0
M  V30 1466 O 139.138 -0.838126 -1.52712 0
M  V30 1467 C 136.27 -1.73788 -2.93276 0
M  V30 1468 H 137.463 -2.66306 -1.37917 0
M  V30 1469 H 135.016 -1.40477 -0.685271 0
M  V30 1470 H 135.751 -0.792717 -3.14462 0
M  V30 1471 H 135.536 -2.55864 -2.97113 0
M  V30 1472 H 137.026 -1.90591 -3.71571 0
M  V30 1473 N 137.463 0.71206 -1.40597 0
M  V30 1474 C 138.74 1.46536 -1.29563 0
M  V30 1475 C 139.12 2.10931 0.0844217 0
M  V30 1476 O 138.468 2.00418 1.0975 0
M  V30 1477 C 138.678 2.49821 -2.43701 0
M  V30 1478 C 140.026 3.15551 -2.841 0
M  V30 1479 O 141.05 2.60142 -2.4332 0
M  V30 1480 O 139.909 4.15867 -3.54566 0
M  V30 1481 H 137.003 0.651801 -0.509004 0
M  V30 1482 H 139.549 0.743935 -1.52524 0
M  V30 1483 H 138.321 2.00778 -3.35863 0
M  V30 1484 H 137.944 3.29495 -2.22528 0
M  V30 1485 N 138.941 1.26152 0.944643 0
M  V30 1486 C 139.871 1.09902 2.06019 0
M  V30 1487 C 140.852 0.00519538 1.70099 0
M  V30 1488 O 142.037 0.176583 1.93396 0
M  V30 1489 C 139.167 0.727562 3.39594 0
M  V30 1490 C 138.121 1.77274 3.89561 0
M  V30 1491 C 137.447 1.25569 5.19747 0
M  V30 1492 C 138.747 3.17357 4.14827 0
M  V30 1493 H 140.441 2.03217 2.19871 0
M  V30 1494 H 137.987 0.978452 1.05652 0
M  V30 1495 H 139.94 0.600777 4.17095 0
M  V30 1496 H 138.664 -0.241287 3.25707 0
M  V30 1497 H 137.323 1.88814 3.14237 0
M  V30 1498 H 136.971 0.276783 5.02238 0
M  V30 1499 H 136.671 1.95433 5.54148 0
M  V30 1500 H 138.195 1.1415 5.99835 0
M  V30 1501 H 139.609 3.08914 4.82954 0
M  V30 1502 H 138.006 3.84781 4.60504 0
M  V30 1503 H 139.076 3.63673 3.20734 0
M  V30 1504 N 140.419 -1.14872 1.07899 0
M  V30 1505 C 141.349 -2.2193 0.725887 0
M  V30 1506 C 142.33 -1.67622 -0.28927 0
M  V30 1507 O 143.515 -1.93533 -0.160787 0
M  V30 1508 C 140.645 -3.47061 0.128856 0
M  V30 1509 C 139.599 -4.14363 1.07178 0
M  V30 1510 C 138.925 -5.33636 0.337229 0
M  V30 1511 C 140.225 -4.63492 2.40775 0
M  V30 1512 H 141.919 -2.51724 1.62097 0
M  V30 1513 H 139.465 -1.20991 0.780838 0
M  V30 1514 H 141.418 -4.21199 -0.130147 0
M  V30 1515 H 140.142 -3.16617 -0.80134 0
M  V30 1516 H 138.801 -3.42173 1.3158 0
M  V30 1517 H 138.449 -4.99449 -0.596606 0
M  V30 1518 H 138.149 -5.79609 0.965788 0
M  V30 1519 H 139.673 -6.10539 0.0861567 0
M  V30 1520 H 141.087 -5.2913 2.20669 0
M  V30 1521 H 139.484 -5.20148 2.99276 0
M  V30 1522 H 140.554 -3.78834 3.02676 0
M  V30 1523 N 141.898 -0.863906 -1.31812 0
M  V30 1524 C 143.145 -0.471836 -1.96926 0
M  V30 1525 C 143.473 0.974578 -1.68322 0
M  V30 1526 O 142.728 1.7003 -0.968933 0
M  V30 1527 C 143.027 -0.668547 -3.51091 0
M  V30 1528 C 142.693 -2.08683 -3.99703 0
M  V30 1529 C 141.355 -2.47471 -4.12688 0
M  V30 1530 C 143.707 -3.01207 -4.25351 0
M  V30 1531 C 141.035 -3.78037 -4.4867 0
M  V30 1532 C 143.387 -4.31282 -4.62794 0
M  V30 1533 C 142.051 -4.69992 -4.73987 0
M  V30 1534 H 141.321 -0.172657 -0.720604 0
M  V30 1535 H 143.968 -1.09573 -1.57054 0
M  V30 1536 H 142.273 0.0385252 -3.91781 0
M  V30 1537 H 143.97 -0.345102 -3.99512 0
M  V30 1538 H 140.56 -1.77566 -3.90087 0
M  V30 1539 H 144.744 -2.72469 -4.14819 0
M  V30 1540 H 140 -4.078 -4.55532 0
M  V30 1541 H 144.174 -5.03031 -4.81594 0
M  V30 1542 H 141.801 -5.71207 -5.01624 0
M  V30 1543 N 143.376 1.44774 -0.622745 0
M  V30 1544 C 144.306 2.33382 0.0741861 0
M  V30 1545 C 145.287 1.47719 0.843387 0
M  V30 1546 O 146.472 1.76458 0.810934 0
M  V30 1547 C 143.602 3.30663 1.06204 0
M  V30 1548 C 142.556 4.26079 0.405037 0
M  V30 1549 C 141.882 5.13165 1.5022 0
M  V30 1550 C 143.182 5.1781 -0.683414 0
M  V30 1551 H 144.876 2.91905 -0.665713 0
M  V30 1552 H 142.422 1.40363 -0.321587 0
M  V30 1553 H 144.375 3.9153 1.55827 0
M  V30 1554 H 143.099 2.70331 1.83272 0
M  V30 1555 H 141.758 3.66532 -0.0704683 0
M  V30 1556 H 141.406 4.49191 2.26355 0
M  V30 1557 H 141.106 5.77812 1.06803 0
M  V30 1558 H 142.63 5.76902 2.00041 0
M  V30 1559 H 144.044 5.72661 -0.270631 0
M  V30 1560 H 142.441 5.91015 -1.04023 0
M  V30 1561 H 143.511 4.59326 -1.55395 0
M  V30 1562 N 144.854 0.36279 1.53368 0
M  V30 1563 C 146.1 -0.228113 2.01513 0
M  V30 1564 C 146.433 -1.48648 1.2497 0
M  V30 1565 O 145.708 -1.91459 0.342616 0
M  V30 1566 C 145.991 -0.522884 3.56284 0
M  V30 1567 C 145.844 0.74892 4.43521 0
M  V30 1568 C 147.163 -1.32461 4.19693 0
M  V30 1569 H 144.282 -0.0814343 0.732487 0
M  V30 1570 H 146.924 0.48713 1.83649 0
M  V30 1571 H 145.074 -1.1322 3.71636 0
M  V30 1572 H 146.746 1.38648 4.39971 0
M  V30 1573 H 144.989 1.36986 4.11603 0
M  V30 1574 H 145.66 0.497667 5.49752 0
M  V30 1575 H 148.136 -0.809203 4.08156 0
M  V30 1576 H 147.012 -1.49961 5.28018 0
M  V30 1577 H 147.273 -2.33232 3.75573 0
M  V30 1578 N 146.332 -1.57332 0.0918853 0
M  V30 1579 C 147.56 -1.98574 -0.581048 0
M  V30 1580 C 147.975 -0.970903 -1.61923 0
M  V30 1581 O 147.332 0.0399054 -1.82456 0
M  V30 1582 C 147.383 -3.39872 -1.23164 0
M  V30 1583 O 147.104 -4.37469 -0.234989 0
M  V30 1584 C 148.605 -3.96099 -1.99049 0
M  V30 1585 H 145.825 -0.65261 -0.156018 0
M  V30 1586 H 148.369 -2.0379 0.170225 0
M  V30 1587 H 146.524 -3.35679 -1.93386 0
M  V30 1588 H 146.938 -5.19751 -0.70418 0
M  V30 1589 H 148.412 -4.97127 -2.39934 0
M  V30 1590 H 148.889 -3.3374 -2.85507 0
M  V30 1591 H 149.495 -4.03755 -1.3365 0
M  V30 1592 N 147.81 0.181792 -1.56548 0
M  V30 1593 C 148.74 1.22765 -1.98623 0
M  V30 1594 C 149.721 1.46747 -0.860189 0
M  V30 1595 O 150.906 1.58259 -1.12551 0
M  V30 1596 C 148.036 2.56894 -2.33715 0
M  V30 1597 C 146.99 2.475 -3.49182 0
M  V30 1598 C 146.316 3.86023 -3.69986 0
M  V30 1599 C 147.616 1.98866 -4.82959 0
M  V30 1600 H 149.31 0.877942 -2.86239 0
M  V30 1601 H 146.856 0.42088 -1.37712 0
M  V30 1602 H 148.809 3.30253 -2.61746 0
M  V30 1603 H 147.533 2.93632 -1.42997 0
M  V30 1604 H 146.192 1.76596 -3.21262 0
M  V30 1605 H 145.84 4.20136 -2.76576 0
M  V30 1606 H 145.54 3.80609 -4.47672 0
M  V30 1607 H 147.064 4.60984 -4.00407 0
M  V30 1608 H 148.478 2.61992 -5.09934 0
M  V30 1609 H 146.875 2.04424 -5.64208 0
M  V30 1610 H 147.945 0.942465 -4.75653 0
M  V30 1611 N 149.288 1.51039 0.449983 0
M  V30 1612 C 150.699 1.557 1.03026 0
M  V30 1613 C 151.05 0.372939 1.92623 0
M  V30 1614 O 150.175 -0.511771 2.10261 0
M  V30 1615 C 150.77 2.82171 1.87523 0
M  V30 1616 C 149.329 2.89444 2.40622 0
M  V30 1617 C 148.476 2.50228 1.19504 0
M  V30 1618 H 151.427 1.56999 0.231745 0
M  V30 1619 H 151.448 2.65219 2.72835 0
M  V30 1620 H 150.96 3.68331 1.22286 0
M  V30 1621 H 149.061 2.07685 3.0935 0
M  V30 1622 H 149.174 3.92816 2.74285 0
M  V30 1623 H 147.538 2.03139 1.53644 0
M  V30 1624 H 148.321 3.38719 0.558972 0
M  V30 1625 N 150.766 -0.704594 1.40972 0
M  V30 1626 C 152.013 -1.46458 1.39844 0
M  V30 1627 C 152.341 -1.94499 0.00447594 0
M  V30 1628 O 151.596 -1.69275 -0.982057 0
M  V30 1629 C 151.895 -2.698 2.34399 0
M  V30 1630 C 151.561 -2.40464 3.81429 0
M  V30 1631 C 150.223 -2.32174 4.21484 0
M  V30 1632 C 152.575 -2.16086 4.74296 0
M  V30 1633 C 149.903 -1.97589 5.52427 0
M  V30 1634 C 152.255 -1.83011 6.05549 0
M  V30 1635 C 150.919 -1.7321 6.44635 0
M  V30 1636 H 150.189 -0.535927 0.511725 0
M  V30 1637 H 152.836 -0.806124 1.73706 0
M  V30 1638 H 151.141 -3.40536 1.93759 0
M  V30 1639 H 152.838 -3.27919 2.30804 0
M  V30 1640 H 149.428 -2.47808 3.49699 0
M  V30 1641 H 153.612 -2.2144 4.4416 0
M  V30 1642 H 148.868 -1.88547 5.81601 0
M  V30 1643 H 153.042 -1.63164 6.77016 0
M  V30 1644 H 150.669 -1.46179 7.46013 0
M  V30 1645 N 152.244 -1.26651 -0.937939 0
M  V30 1646 C 153.49 -1.13562 -1.68746 0
M  V30 1647 C 153.845 0.317241 -1.89767 0
M  V30 1648 O 153.138 1.22939 -1.46957 0
M  V30 1649 C 153.332 -1.84168 -3.06295 0
M  V30 1650 C 153.161 -3.36171 -2.98696 0
M  V30 1651 C 151.931 -4.05468 -3.01535 0
M  V30 1652 C 154.129 -4.32312 -2.78588 0
M  V30 1653 N 152.111 -5.44118 -2.84269 0
M  V30 1654 C 153.482 -5.58159 -2.69924 0
M  V30 1655 C 155.537 -4.22524 -2.63396 0
M  V30 1656 C 154.24 -6.75335 -2.47618 0
M  V30 1657 C 156.266 -5.39411 -2.42466 0
M  V30 1658 C 155.628 -6.64208 -2.34536 0
M  V30 1659 H 151.727 -0.470361 -0.624728 0
M  V30 1660 H 154.311 -1.59982 -1.10968 0
M  V30 1661 H 152.482 -1.40219 -3.62206 0
M  V30 1662 H 154.214 -1.63674 -3.70126 0
M  V30 1663 H 150.969 -3.56854 -3.11372 0
M  V30 1664 H 151.393 -6.1693 -2.78795 0
M  V30 1665 H 156.035 -3.26771 -2.68292 0
M  V30 1666 H 153.753 -7.71182 -2.41463 0
M  V30 1667 H 157.339 -5.33711 -2.31611 0
M  V30 1668 H 156.219 -7.53129 -2.18555 0
M  V30 1669 N 153.722 1.14298 -1.08507 0
M  V30 1670 C 154.685 2.17607 -0.719711 0
M  V30 1671 C 155.685 1.58907 0.245997 0
M  V30 1672 O 156.875 1.74181 0.0254081 0
M  V30 1673 C 154.007 3.40842 -0.0627695 0
M  V30 1674 H 155.2 2.51443 -1.63452 0
M  V30 1675 H 152.753 1.28963 -0.88307 0
M  V30 1676 H 153.488 3.12587 0.863716 0
M  V30 1677 H 153.273 3.84713 -0.757504 0
M  V30 1678 H 154.763 4.17221 0.177786 0
M  V30 1679 N 155.201 0.870884 1.31352 0
M  V30 1680 C 156.45 0.478408 1.95944 0
M  V30 1681 C 156.763 -0.974493 1.69597 0
M  V30 1682 O 157.969 -1.47316 2.28058 0
M  V30 1683 C 156.425 0.804609 3.50791 0
M  V30 1684 C 156.033 2.27433 3.85977 0
M  V30 1685 C 157.777 0.480648 4.2177 0
M  V30 1686 C 155.684 2.5429 5.33939 0
M  V30 1687 H 154.614 0.175175 0.733369 0
M  V30 1688 H 157.265 1.06391 1.4951 0
M  V30 1689 H 155.647 0.148347 3.95722 0
M  V30 1690 H 156.821 2.97373 3.52002 0
M  V30 1691 H 155.136 2.56442 3.28065 0
M  V30 1692 H 157.733 0.658519 5.30629 0
M  V30 1693 H 158.076 -0.578979 4.12254 0
M  V30 1694 H 158.609 1.09349 3.82476 0
M  V30 1695 H 155.348 3.58939 5.48491 0
M  V30 1696 H 154.868 1.88945 5.69263 0
M  V30 1697 H 156.547 2.39066 6.01212 0
M  V30 1698 N 156.679 -1.44442 0.630414 0
M  V30 1699 C 157.642 -2.29107 -0.0652523 0
M  V30 1700 C 158.642 -1.41002 -0.772995 0
M  V30 1701 O 159.832 -1.62881 -0.617692 0
M  V30 1702 C 156.964 -3.22564 -1.10296 0
M  V30 1703 H 158.157 -2.92103 0.679401 0
M  V30 1704 H 155.71 -1.51343 0.390517 0
M  V30 1705 H 156.445 -2.64416 -1.87762 0
M  V30 1706 H 156.23 -3.87491 -0.59941 0
M  V30 1707 H 157.72 -3.86167 -1.5895 0
M  V30 1708 N 158.157 -0.370918 -1.53173 0
M  V30 1709 C 159.12 0.460778 -2.24521 0
M  V30 1710 C 160.12 1.00536 -1.25496 0
M  V30 1711 O 161.31 0.890266 -1.49733 0
M  V30 1712 C 158.442 1.64457 -2.98608 0
M  V30 1713 H 159.635 -0.163613 -2.99453 0
M  V30 1714 H 157.188 -0.122699 -1.55818 0
M  V30 1715 H 157.923 2.30691 -2.2793 0
M  V30 1716 H 157.708 1.26099 -3.7127 0
M  V30 1717 H 159.198 2.23384 -3.5283 0
M  V30 1718 N 159.635 1.57281 -0.100228 0
M  V30 1719 C 160.598 2.13158 0.842398 0
M  V30 1720 C 161.598 1.06202 1.20738 0
M  V30 1721 O 162.788 1.32066 1.13597 0
M  V30 1722 C 159.92 2.65639 2.13655 0
M  V30 1723 H 161.113 2.97766 0.357114 0
M  V30 1724 H 158.666 1.5559 0.148823 0
M  V30 1725 H 159.401 1.84566 2.66657 0
M  V30 1726 H 159.186 3.43844 1.88451 0
M  V30 1727 H 160.676 3.08846 2.81077 0
M  V30 1728 N 161.113 -0.173488 1.56642 0
M  V30 1729 C 162.39 -0.917617 1.7274 0
M  V30 1730 C 162.77 -2.00484 0.661027 0
M  V30 1731 O 162.118 -2.26184 -0.32453 0
M  V30 1732 C 162.328 -1.48433 3.15862 0
M  V30 1733 C 163.676 -1.95809 3.76754 0
M  V30 1734 O 164.7 -1.58231 3.19126 0
M  V30 1735 O 163.559 -2.65024 4.77938 0
M  V30 1736 H 160.653 -0.431772 0.705338 0
M  V30 1737 H 163.199 -0.161487 1.6893 0
M  V30 1738 H 161.971 -0.701715 3.84957 0
M  V30 1739 H 161.594 -2.30471 3.23989 0
M  V30 1740 N 162.591 -1.51276 -0.441967 0
M  V30 1741 C 163.523 -1.68444 -1.55433 0
M  V30 1742 C 164.536 -0.565187 -1.52674 0
M  V30 1743 O 165.725 -0.839356 -1.57534 0
M  V30 1744 C 162.825 -1.67966 -2.94348 0
M  V30 1745 C 161.998 -2.964 -3.21661 0
M  V30 1746 C 161.057 -2.88171 -4.40277 0
M  V30 1747 O 160.083 -3.62119 -4.39157 0
M  V30 1748 N 161.285 -2.03706 -5.43584 0
M  V30 1749 H 164.05 -2.644 -1.41112 0
M  V30 1750 H 161.611 -1.49104 -0.630838 0
M  V30 1751 H 163.603 -1.60035 -3.71713 0
M  V30 1752 H 162.173 -0.796225 -3.0229 0
M  V30 1753 H 161.393 -3.18234 -2.32638 0
M  V30 1754 H 162.681 -3.81427 -3.36736 0
M  V30 1755 H 162.079 -1.42995 -5.47329 0
M  V30 1756 H 160.636 -2.01658 -6.1982 0
M  V30 1757 N 164.069 0.697108 -1.41344 0
M  V30 1758 C 165.315 1.45796 -1.41828 0
M  V30 1759 C 165.67 1.92382 -0.0261743 0
M  V30 1760 O 164.963 1.66522 0.947688 0
M  V30 1761 C 165.157 2.68553 -2.35826 0
M  V30 1762 C 164.986 2.33975 -3.84039 0
M  V30 1763 C 163.756 2.24414 -4.52732 0
M  V30 1764 C 165.954 1.97048 -4.75054 0
M  V30 1765 N 163.936 1.82705 -5.86082 0
M  V30 1766 C 165.307 1.66086 -5.9734 0
M  V30 1767 C 167.362 1.83845 -4.62715 0
M  V30 1768 C 166.065 1.23246 -7.08663 0
M  V30 1769 C 168.091 1.4241 -5.73998 0
M  V30 1770 C 167.453 1.12357 -6.95381 0
M  V30 1771 H 163.552 0.530859 -0.574206 0
M  V30 1772 H 166.136 0.806674 -1.77203 0
M  V30 1773 H 164.307 3.31404 -2.02549 0
M  V30 1774 H 166.039 3.35015 -2.2704 0
M  V30 1775 H 162.794 2.4276 -4.0665 0
M  V30 1776 H 163.218 1.64337 -6.56751 0
M  V30 1777 H 167.86 2.05734 -3.69369 0
M  V30 1778 H 165.578 1.00102 -8.01876 0
M  V30 1779 H 169.164 1.32746 -5.66454 0
M  V30 1780 H 168.044 0.807795 -7.80028 0
M  V30 1781 N 165.547 1.27147 0.931209 0
M  V30 1782 C 166.494 1.09568 2.03134 0
M  V30 1783 C 167.464 -0.00222433 1.661 0
M  V30 1784 O 168.649 0.159439 1.90133 0
M  V30 1785 C 165.789 0.745231 3.36957 0
M  V30 1786 C 164.902 1.92041 3.86968 0
M  V30 1787 C 164.037 1.51216 5.09222 0
M  V30 1788 C 163.076 2.65504 5.5152 0
M  V30 1789 N 162.213 2.25291 6.64972 0
M  V30 1790 H 167.053 2.03708 2.17502 0
M  V30 1791 H 164.59 1.01411 1.06556 0
M  V30 1792 H 166.548 0.522878 4.1391 0
M  V30 1793 H 165.178 -0.159202 3.22407 0
M  V30 1794 H 164.23 2.25541 3.06326 0
M  V30 1795 H 165.542 2.77787 4.1429 0
M  V30 1796 H 164.696 1.25084 5.93666 0
M  V30 1797 H 163.435 0.625749 4.83669 0
M  V30 1798 H 162.44 2.92354 4.65628 0
M  V30 1799 H 163.665 3.54761 5.7907 0
M  V30 1800 H 161.611 1.39098 6.41083 0
M  V30 1801 H 161.528 3.04577 6.91931 0
M  V30 1802 H 162.796 2.02398 7.52765 0
M  V30 1803 N 167.025 -1.13721 1.09112 0
M  V30 1804 C 168.272 -1.84924 0.825192 0
M  V30 1805 C 168.6 -1.83347 -0.649151 0
M  V30 1806 O 167.855 -1.26449 -1.49362 0
M  V30 1807 C 168.154 -3.32861 1.30146 0
M  V30 1808 C 167.82 -3.54621 2.78486 0
M  V30 1809 C 166.482 -3.60268 3.18999 0
M  V30 1810 C 168.834 -3.62855 3.74146 0
M  V30 1811 C 166.162 -3.71679 4.53951 0
M  V30 1812 C 168.514 -3.75793 5.08883 0
M  V30 1813 C 167.178 -3.79692 5.4899 0
M  V30 1814 H 166.448 -0.676684 0.301959 0
M  V30 1815 H 169.095 -1.3428 1.36533 0
M  V30 1816 H 167.4 -3.85835 0.681064 0
M  V30 1817 H 169.097 -3.86395 1.07236 0
M  V30 1818 H 165.687 -3.50879 2.46134 0
M  V30 1819 H 169.871 -3.57775 3.43963 0
M  V30 1820 H 165.127 -3.72963 4.84467 0
M  V30 1821 H 169.301 -3.81107 5.82864 0
M  V30 1822 H 166.928 -3.88287 6.53558 0
M  V30 1823 N 168.503 -0.877838 -1.30888 0
M  V30 1824 C 169.435 -0.296607 -2.27273 0
M  V30 1825 C 170.448 0.544799 -1.53414 0
M  V30 1826 O 171.637 0.365511 -1.74718 0
M  V30 1827 C 168.737 0.597481 -3.33592 0
M  V30 1828 C 167.91 -0.213251 -4.3688 0
M  V30 1829 C 166.969 0.610208 -5.2265 0
M  V30 1830 O 165.995 0.035441 -5.69189 0
M  V30 1831 N 167.197 1.92071 -5.47804 0
M  V30 1832 H 169.962 -1.12492 -2.77787 0
M  V30 1833 H 167.523 -0.740105 -1.43993 0
M  V30 1834 H 169.515 1.15425 -3.87891 0
M  V30 1835 H 168.085 1.32647 -2.83061 0
M  V30 1836 H 167.305 -0.951466 -3.82545 0
M  V30 1837 H 168.593 -0.769262 -5.02951 0
M  V30 1838 H 167.991 2.4107 -5.11763 0
M  V30 1839 H 166.548 2.42508 -6.05007 0
M  V30 1840 N 169.982 1.44106 -0.638065 0
M  V30 1841 C 171.21 2.06336 -0.152615 0
M  V30 1842 C 171.625 1.47731 1.17563 0
M  V30 1843 O 170.982 0.602806 1.72257 0
M  V30 1844 C 171.033 3.61479 -0.0391491 0
M  V30 1845 O 170.754 4.17903 -1.31487 0
M  V30 1846 C 172.255 4.40757 0.474176 0
M  V30 1847 H 169.475 0.665862 -0.0828776 0
M  V30 1848 H 172.019 1.84862 -0.87443 0
M  V30 1849 H 170.174 3.82191 0.633142 0
M  V30 1850 H 170.588 5.11416 -1.16421 0
M  V30 1851 H 172.062 5.49707 0.502562 0
M  V30 1852 H 172.539 4.12697 1.50258 0
M  V30 1853 H 173.145 4.24979 -0.165102 0
M  V30 1854 N 171.46 0.379036 1.52974 0
M  V30 1855 C 172.707 -0.206421 2.01445 0
M  V30 1856 C 173.035 -1.47668 1.26587 0
M  V30 1857 O 172.29 -1.92514 0.351675 0
M  V30 1858 C 172.589 -0.53096 3.53434 0
M  V30 1859 C 172.255 0.646546 4.46241 0
M  V30 1860 C 170.917 0.969604 4.7133 0
M  V30 1861 C 173.269 1.43479 5.01062 0
M  V30 1862 C 170.597 2.08263 5.48492 0
M  V30 1863 C 172.949 2.53834 5.7944 0
M  V30 1864 C 171.613 2.86659 6.02812 0
M  V30 1865 H 170.883 -0.0755349 0.73714 0
M  V30 1866 H 173.53 0.514271 1.84465 0
M  V30 1867 H 171.835 -1.33285 3.68432 0
M  V30 1868 H 173.532 -0.996417 3.88423 0
M  V30 1869 H 170.122 0.384734 4.2687 0
M  V30 1870 H 174.306 1.19844 4.81613 0
M  V30 1871 H 169.562 2.34078 5.64816 0
M  V30 1872 H 173.736 3.15319 6.20924 0
M  V30 1873 H 171.363 3.73026 6.62387 0
M  V30 1874 N 172.938 -1.57226 0.108567 0
M  V30 1875 C 173.871 -2.10447 -0.882464 0
M  V30 1876 C 174.849 -1.01829 -1.26766 0
M  V30 1877 O 176.033 -1.29415 -1.37054 0
M  V30 1878 C 173.16 -2.59258 -2.17952 0
M  V30 1879 C 172.206 -3.79662 -1.94318 0
M  V30 1880 S 173.039 -5.22586 -1.16892 0
M  V30 1881 C 174.195 -5.74758 -2.47799 0
M  V30 1882 H 174.428 -2.94178 -0.429745 0
M  V30 1883 H 171.961 -1.54043 -0.105 0
M  V30 1884 H 173.919 -2.88036 -2.92482 0
M  V30 1885 H 172.58 -1.75728 -2.60343 0
M  V30 1886 H 171.773 -4.11928 -2.90399 0
M  V30 1887 H 171.375 -3.51446 -1.27913 0
M  V30 1888 H 173.667 -5.83846 -3.43701 0
M  V30 1889 H 174.61 -6.73027 -2.20093 0
M  V30 1890 H 175.018 -5.02763 -2.56689 0
M  V30 1891 N 174.416 0.165178 -1.56732 0
M  V30 1892 C 175.656 0.887231 -1.8414 0
M  V30 1893 C 176.02 1.79159 -0.690353 0
M  V30 1894 O 177.221 2.55172 -0.845032 0
M  V30 1895 C 175.492 1.65674 -3.16681 0
M  V30 1896 S 177.051 2.42671 -3.6559 0
M  V30 1897 H 173.869 0.297042 -0.645978 0
M  V30 1898 H 176.471 0.148439 -1.94936 0
M  V30 1899 H 175.175 0.983507 -3.98441 0
M  V30 1900 H 174.706 2.43679 -3.08843 0
M  V30 1901 H 176.721 3.67499 -3.33406 0
M  V30 1902 N 175.894 1.51508 0.433938 0
M  V30 1903 C 176.841 1.73068 1.52696 0
M  V30 1904 C 177.811 0.572441 1.55924 0
M  V30 1905 O 178.996 0.807253 1.72882 0
M  V30 1906 C 176.136 1.86474 2.90381 0
M  V30 1907 C 175.249 3.14037 2.96656 0
M  V30 1908 C 174.384 3.18019 4.25485 0
M  V30 1909 C 173.423 4.39882 4.2564 0
M  V30 1910 N 172.56 4.41394 5.45999 0
M  V30 1911 H 177.4 2.66366 1.33615 0
M  V30 1912 H 174.937 1.32008 0.649018 0
M  V30 1913 H 176.895 1.92229 3.70275 0
M  V30 1914 H 175.525 0.965809 3.08013 0
M  V30 1915 H 174.577 3.17575 2.09404 0
M  V30 1916 H 175.889 4.0394 2.92633 0
M  V30 1917 H 175.043 3.22708 5.13755 0
M  V30 1918 H 173.782 2.2601 4.3217 0
M  V30 1919 H 172.787 4.35366 3.35763 0
M  V30 1920 H 174.012 5.33159 4.20617 0
M  V30 1921 H 171.958 3.52258 5.53399 0
M  V30 1922 H 171.875 5.25111 5.4387 0
M  V30 1923 H 173.143 4.50281 6.36292 0
M  V30 1924 N 177.372 -0.689602 1.41712 0
M  V30 1925 C 178.618 -1.45181 1.41599 0
M  V30 1926 C 178.951 -1.94181 0.0270081 0
M  V30 1927 O 178.226 -1.6993 -0.946265 0
M  V30 1928 C 178.509 -2.65945 2.42787 0
M  V30 1929 C 178.362 -2.22672 3.90816 0
M  V30 1930 C 179.681 -3.68149 2.41151 0
M  V30 1931 H 176.8 -0.526576 0.515642 0
M  V30 1932 H 179.442 -0.784947 1.73028 0
M  V30 1933 H 177.592 -3.2284 2.16116 0
M  V30 1934 H 179.264 -1.71058 4.28412 0
M  V30 1935 H 177.507 -1.54394 4.05395 0
M  V30 1936 H 178.178 -3.0935 4.57172 0
M  V30 1937 H 180.654 -3.2094 2.64834 0
M  V30 1938 H 179.53 -4.50248 3.13955 0
M  V30 1939 H 179.791 -4.18259 1.43221 0
M  V30 1940 N 178.85 -1.27639 -0.924453 0
M  V30 1941 C 180.096 -1.14336 -1.67497 0
M  V30 1942 C 180.429 0.309465 -1.91718 0
M  V30 1943 O 179.704 1.22608 -1.50989 0
M  V30 1944 C 179.987 -1.93096 -3.0395 0
M  V30 1945 C 179.84 -3.46381 -2.8695 0
M  V30 1946 C 181.159 -1.73798 -4.0433 0
M  V30 1947 H 178.278 -0.416728 -0.607871 0
M  V30 1948 H 180.92 -1.56832 -1.07256 0
M  V30 1949 H 179.07 -1.56982 -3.55372 0
M  V30 1950 H 180.742 -3.92343 -2.42621 0
M  V30 1951 H 178.985 -3.72557 -2.22225 0
M  V30 1952 H 179.656 -3.96735 -3.83804 0
M  V30 1953 H 182.132 -2.05293 -3.61931 0
M  V30 1954 H 181.008 -2.31294 -4.97789 0
M  V30 1955 H 181.269 -0.686725 -4.36734 0
M  V30 1956 N 180.328 1.1314 -1.09713 0
M  V30 1957 C 181.276 2.20717 -0.733934 0
M  V30 1958 C 182.27 1.6729 0.266506 0
M  V30 1959 O 183.476 1.79547 0.127656 0
M  V30 1960 H 179.851 0.719292 -0.21937 0
M  V30 1961 H 181.822 2.48611 -1.6503 0
M  V30 1962 C 180.571 3.47265 -0.173849 0
M  V30 1963 H 179.894 3.88716 -0.934873 0
M  V30 1964 H 181.334 4.23979 0.0423126 0
M  V30 1965 C 179.793 3.18724 1.09164 0
M  V30 1966 O 180.323 3.37762 2.17439 0
M  V30 1967 N 178.529 2.72583 1.00732 0
M  V30 1968 H 178.076 2.57291 0.126121 0
M  V30 1969 H 178.034 2.53862 1.85476 0
M  V30 1970 N 181.806 0.884767 1.30421 0
M  V30 1971 C 183.031 0.517288 2.00845 0
M  V30 1972 C 183.456 -0.886779 1.65885 0
M  V30 1973 O 182.814 -1.58768 0.875354 0
M  V30 1974 C 182.862 0.698994 3.5376 0
M  V30 1975 O 181.966 -0.255208 4.1161 0
M  V30 1976 H 181.307 0.203872 0.631927 0
M  V30 1977 H 183.837 1.19225 1.66272 0
M  V30 1978 H 183.847 0.597912 4.03595 0
M  V30 1979 H 182.522 1.72271 3.78544 0
M  V30 1980 H 181.099 -0.10784 3.72744 0
M  V30 1981 N 183.284 -1.43765 0.645699 0
M  V30 1982 C 184.217 -2.2798 -0.100072 0
M  V30 1983 C 185.195 -1.39391 -0.837194 0
M  V30 1984 O 186.379 -1.68833 -0.838306 0
M  V30 1985 C 183.506 -3.18643 -1.14823 0
M  V30 1986 C 182.552 -4.2344 -0.510009 0
M  V30 1987 S 183.385 -5.30761 0.710824 0
M  V30 1988 C 184.541 -6.24992 -0.33699 0
M  V30 1989 H 184.774 -2.90884 0.614322 0
M  V30 1990 H 182.307 -1.48166 0.434304 0
M  V30 1991 H 184.265 -3.71424 -1.74799 0
M  V30 1992 H 182.926 -2.54932 -1.8349 0
M  V30 1993 H 182.119 -4.86948 -1.29991 0
M  V30 1994 H 181.721 -3.73997 0.0154577 0
M  V30 1995 H 184.013 -6.66691 -1.20537 0
M  V30 1996 H 184.956 -7.07612 0.262879 0
M  V30 1997 H 185.364 -5.60517 -0.669425 0
M  V30 1998 N 184.763 -0.387143 -1.52771 0
M  V30 1999 C 185.993 0.195585 -2.05672 0
M  V30 2000 C 186.401 1.41241 -1.25887 0
M  V30 2001 O 185.744 1.81265 -0.298081 0
M  V30 2002 C 185.806 0.632327 -3.53895 0
M  V30 2003 C 185.47 -0.470739 -4.54569 0
M  V30 2004 C 186.467 -1.32746 -5.02667 0
M  V30 2005 C 184.152 -0.637151 -4.98243 0
M  V30 2006 C 186.146 -2.33574 -5.93061 0
M  V30 2007 C 183.833 -1.64877 -5.88438 0
M  V30 2008 C 184.831 -2.49649 -6.35739 0
M  V30 2009 O 184.519 -3.49082 -7.24153 0
M  V30 2010 H 184.251 0.033658 -0.675162 0
M  V30 2011 H 186.805 -0.550221 -1.97893 0
M  V30 2012 H 185.035 1.43008 -3.59285 0
M  V30 2013 H 186.724 1.14048 -3.89548 0
M  V30 2014 H 187.49 -1.21019 -4.69659 0
M  V30 2015 H 183.369 0.0129567 -4.60998 0
M  V30 2016 H 186.913 -2.99777 -6.29904 0
M  V30 2017 H 182.81 -1.76643 -6.2086 0
M  V30 2018 H 183.578 -3.45065 -7.42208 0
M  V30 2019 N 186.241 1.57166 -0.116904 0
M  V30 2020 C 187.188 2.15202 0.83408 0
M  V30 2021 C 188.158 1.07644 1.26499 0
M  V30 2022 O 189.343 1.35541 1.34288 0
M  V30 2023 C 186.483 2.75405 2.07957 0
M  V30 2024 C 185.596 3.97264 1.69721 0
M  V30 2025 C 184.731 4.45561 2.89221 0
M  V30 2026 C 183.77 5.59956 2.47215 0
M  V30 2027 N 182.907 6.03006 3.59622 0
M  V30 2028 H 187.747 2.96141 0.332335 0
M  V30 2029 H 185.284 1.46309 0.152349 0
M  V30 2030 H 187.242 3.08439 2.80929 0
M  V30 2031 H 185.872 1.97159 2.55594 0
M  V30 2032 H 184.924 3.70404 0.866316 0
M  V30 2033 H 186.236 4.80226 1.34849 0
M  V30 2034 H 185.39 4.80493 3.7042 0
M  V30 2035 H 184.129 3.61544 3.27318 0
M  V30 2036 H 183.134 5.2463 1.64448 0
M  V30 2037 H 184.359 6.45738 2.10238 0
M  V30 2038 H 182.305 5.21931 3.97396 0
M  V30 2039 H 182.222 6.80819 3.28667 0
M  V30 2040 H 183.49 6.42576 4.41267 0
M  V30 2041 N 187.719 -0.156864 1.56817 0
M  V30 2042 C 188.652 -1.22316 1.9265 0
M  V30 2043 C 189.63 -1.42059 0.791076 0
M  V30 2044 O 190.814 -1.56831 1.04576 0
M  V30 2045 C 187.941 -2.58375 2.18998 0
M  V30 2046 C 186.987 -2.55284 3.41661 0
M  V30 2047 S 187.82 -2.02946 4.95553 0
M  V30 2048 C 188.976 -3.40753 5.25013 0
M  V30 2049 H 189.209 -0.917403 2.82791 0
M  V30 2050 H 186.742 -0.362059 1.50095 0
M  V30 2051 H 188.7 -3.36677 2.34859 0
M  V30 2052 H 187.361 -2.86145 1.29538 0
M  V30 2053 H 186.554 -3.55418 3.57343 0
M  V30 2054 H 186.156 -1.85086 3.24991 0
M  V30 2055 H 188.448 -4.36819 5.17876 0
M  V30 2056 H 189.391 -3.29933 6.26538 0
M  V30 2057 H 189.799 -3.37433 4.52548 0
M  V30 2058 N 189.197 -1.51736 -0.425897 0
M  V30 2059 C 190.145 -1.74464 -1.53834 0
M  V30 2060 C 191.139 -0.611241 -1.57988 0
M  V30 2061 O 192.345 -0.792899 -1.61596 0
M  V30 2062 H 188.72 -0.551437 -0.511293 0
M  V30 2063 H 190.691 -2.67694 -1.31843 0
M  V30 2064 C 189.44 -1.8972 -2.91379 0
M  V30 2065 H 188.763 -2.76344 -2.88919 0
M  V30 2066 H 190.203 -2.09629 -3.68553 0
M  V30 2067 C 188.662 -0.65992 -3.30374 0
M  V30 2068 O 189.192 0.180083 -4.01296 0
M  V30 2069 N 187.398 -0.500677 -2.86254 0
M  V30 2070 H 186.945 -1.18532 -2.28709 0
M  V30 2071 H 186.903 0.325903 -3.12706 0
M  V30 2072 N 190.675 0.682077 -1.42076 0
M  V30 2073 C 191.922 1.44215 -1.42156 0
M  V30 2074 C 192.25 1.94468 -0.0354186 0
M  V30 2075 O 191.505 1.70816 0.955002 0
M  V30 2076 C 191.804 2.66036 -2.38662 0
M  V30 2077 C 191.47 2.34366 -3.85206 0
M  V30 2078 C 190.132 2.25439 -4.25124 0
M  V30 2079 C 192.484 2.08513 -4.77673 0
M  V30 2080 C 189.812 1.88775 -5.55501 0
M  V30 2081 C 192.164 1.73354 -6.08384 0
M  V30 2082 C 190.828 1.62933 -6.47309 0
M  V30 2083 H 190.098 0.527718 -0.520187 0
M  V30 2084 H 192.745 0.778387 -1.74967 0
M  V30 2085 H 191.05 3.3741 -1.99152 0
M  V30 2086 H 192.747 3.24205 -2.35991 0
M  V30 2087 H 189.337 2.42213 -3.53597 0
M  V30 2088 H 193.521 2.14346 -4.47626 0
M  V30 2089 H 188.777 1.7927 -5.84527 0
M  V30 2090 H 192.951 1.52373 -6.79526 0
M  V30 2091 H 190.578 1.34292 -7.48244 0
M  V30 2092 N 192.153 1.28127 0.917671 0
M  V30 2093 C 193.383 1.17722 1.6978 0
M  V30 2094 C 193.791 -0.267261 1.87303 0
M  V30 2095 O 193.134 -1.19286 1.39702 0
M  V30 2096 C 193.196 1.79958 3.11216 0
M  V30 2097 C 192.86 3.29187 3.16993 0
M  V30 2098 C 193.857 4.25679 2.98485 0
M  V30 2099 C 191.542 3.70075 3.39632 0
M  V30 2100 C 193.536 5.61035 3.02521 0
M  V30 2101 C 191.223 5.05557 3.433 0
M  V30 2102 C 192.221 6.00847 3.24764 0
M  V30 2103 O 191.909 7.33859 3.28187 0
M  V30 2104 H 191.641 0.409788 0.537634 0
M  V30 2105 H 194.195 1.69694 1.15728 0
M  V30 2106 H 192.425 1.22475 3.66793 0
M  V30 2107 H 194.114 1.64125 3.71238 0
M  V30 2108 H 194.88 3.95426 2.80826 0
M  V30 2109 H 190.759 2.96373 3.53106 0
M  V30 2110 H 194.303 6.35388 2.87971 0
M  V30 2111 H 190.2 5.35462 3.60486 0
M  V30 2112 H 190.968 7.42436 3.44575 0
M  V30 2113 N 193.631 -1.12557 1.10312 0
M  V30 2114 C 194.856 -1.88405 0.867085 0
M  V30 2115 C 195.281 -1.79038 -0.576817 0
M  V30 2116 O 194.639 -1.14439 -1.40618 0
M  V30 2117 C 194.687 -3.3563 1.31851 0
M  V30 2118 O 193.791 -4.09565 0.482734 0
M  V30 2119 H 193.132 -0.585455 0.313271 0
M  V30 2120 H 195.662 -1.42352 1.4696 0
M  V30 2121 H 195.672 -3.86469 1.3079 0
M  V30 2122 H 194.347 -3.41765 2.37001 0
M  V30 2123 H 192.924 -3.68695 0.558448 0
M  V30 2124 N 195.109 -0.891671 -1.2995 0
M  V30 2125 C 196.349 -0.520296 -1.97667 0
M  V30 2126 C 196.713 0.914797 -1.68806 0
M  V30 2127 O 197.914 1.39263 -2.29911 0
M  V30 2128 C 196.185 -0.795222 -3.48441 0
M  V30 2129 S 197.744 -0.526953 -4.35624 0
M  V30 2130 H 194.562 -0.19333 -0.684211 0
M  V30 2131 H 197.164 -1.15238 -1.57926 0
M  V30 2132 H 195.868 -1.83805 -3.66938 0
M  V30 2133 H 195.399 -0.15095 -3.9311 0
M  V30 2134 H 197.414 0.631533 -4.92165 0
M  V30 2135 N 196.587 1.43421 -0.653314 0
M  V30 2136 C 197.833 2.02111 -0.166992 0
M  V30 2137 C 198.166 1.51423 1.21592 0
M  V30 2138 O 197.441 0.707389 1.8118 0
M  V30 2139 C 197.724 3.5966 -0.177948 0
M  V30 2140 C 197.577 4.20579 -1.59478 0
M  V30 2141 C 198.896 4.37413 0.4856 0
M  V30 2142 H 196.015 0.734374 -0.0621557 0
M  V30 2143 H 198.657 1.70717 -0.834016 0
M  V30 2144 H 196.807 3.86537 0.390032 0
M  V30 2145 H 198.479 4.04732 -2.21336 0
M  V30 2146 H 196.722 3.77226 -2.14204 0
M  V30 2147 H 197.393 5.29665 -1.5543 0
M  V30 2148 H 199.869 4.161 0.00234528 0
M  V30 2149 H 198.745 5.47075 0.447207 0
M  V30 2150 H 199.006 4.13672 1.55974 0
M  V30 2151 N 198.065 0.39524 1.52563 0
M  V30 2152 C 198.995 -0.428384 2.29537 0
M  V30 2153 C 199.976 -1.05831 1.33169 0
M  V30 2154 O 201.161 -1.06995 1.62067 0
M  V30 2155 C 198.291 -1.55274 3.10656 0
M  V30 2156 C 197.245 -1.04855 4.14957 0
M  V30 2157 C 196.571 -2.26543 4.84337 0
M  V30 2158 C 197.871 -0.112324 5.22179 0
M  V30 2159 H 199.565 0.213867 2.98635 0
M  V30 2160 H 197.111 0.104298 1.43622 0
M  V30 2161 H 199.064 -2.1358 3.63265 0
M  V30 2162 H 197.788 -2.22266 2.39302 0
M  V30 2163 H 196.447 -0.487985 3.63338 0
M  V30 2164 H 196.095 -2.92059 4.09525 0
M  V30 2165 H 195.795 -1.93466 5.54837 0
M  V30 2166 H 197.319 -2.85481 5.39753 0
M  V30 2167 H 198.733 -0.603752 5.70112 0
M  V30 2168 H 197.13 0.128968 5.99961 0
M  V30 2169 H 198.2 0.837052 4.77621 0
M  V30 2170 N 199.544 -1.57102 0.125237 0
M  V30 2171 C 200.474 -2.18659 -0.819174 0
M  V30 2172 C 201.455 -1.12843 -1.27281 0
M  V30 2173 O 202.64 -1.41104 -1.33429 0
M  V30 2174 C 199.77 -2.79096 -2.06695 0
M  V30 2175 C 198.724 -3.90548 -1.75088 0
M  V30 2176 C 198.05 -4.37821 -3.06948 0
M  V30 2177 C 199.35 -5.12356 -1.01435 0
M  V30 2178 H 201.044 -2.9783 -0.306202 0
M  V30 2179 H 198.59 -1.4326 -0.145839 0
M  V30 2180 H 200.543 -3.2082 -2.73226 0
M  V30 2181 H 199.267 -1.97223 -2.60328 0
M  V30 2182 H 197.926 -3.49409 -1.10944 0
M  V30 2183 H 197.574 -3.52799 -3.58527 0
M  V30 2184 H 197.274 -5.12982 -2.86571 0
M  V30 2185 H 198.798 -4.822 -3.74587 0
M  V30 2186 H 200.212 -5.5106 -1.58132 0
M  V30 2187 H 198.609 -5.9314 -0.911319 0
M  V30 2188 H 199.679 -4.849 -0.00218681 0
M  V30 2189 N 201.022 0.148545 -1.56898 0
M  V30 2190 C 202.271 0.85984 -1.82454 0
M  V30 2191 C 202.584 1.82406 -0.706229 0
M  V30 2192 O 203.79 2.57938 -0.847349 0
M  V30 2193 C 202.246 1.57967 -3.2338 0
M  V30 2194 C 201.854 0.65794 -4.43142 0
M  V30 2195 C 203.598 2.27784 -3.58211 0
M  V30 2196 C 201.505 1.3793 -5.75091 0
M  V30 2197 H 200.435 0.324834 -0.68044 0
M  V30 2198 H 203.086 0.112588 -1.83154 0
M  V30 2199 H 201.468 2.37249 -3.17063 0
M  V30 2200 H 202.642 -0.0995497 -4.60692 0
M  V30 2201 H 200.957 0.0682643 -4.16344 0
M  V30 2202 H 203.554 2.8239 -4.54048 0
M  V30 2203 H 203.897 3.04204 -2.84193 0
M  V30 2204 H 204.43 1.55421 -3.66182 0
M  V30 2205 H 201.169 0.656982 -6.52199 0
M  V30 2206 H 200.689 2.10954 -5.61479 0
M  V30 2207 H 202.368 1.92063 -6.17835 0
M  V30 2208 N 202.5 1.5196 0.417844 0
M  V30 2209 C 203.433 1.69387 1.52916 0
M  V30 2210 C 204.411 0.541419 1.53321 0
M  V30 2211 O 205.595 0.767695 1.72159 0
M  V30 2212 C 202.722 1.72525 2.91467 0
M  V30 2213 C 201.768 2.93967 3.09008 0
M  V30 2214 S 202.601 4.54461 2.83242 0
M  V30 2215 C 203.757 4.60372 4.24038 0
M  V30 2216 H 203.99 2.63382 1.37903 0
M  V30 2217 H 201.523 1.41889 0.608845 0
M  V30 2218 H 203.481 1.75018 3.7132 0
M  V30 2219 H 202.142 0.796733 3.03827 0
M  V30 2220 H 201.335 2.92619 4.10353 0
M  V30 2221 H 200.937 2.89316 2.37007 0
M  V30 2222 H 203.229 4.37213 5.17544 0
M  V30 2223 H 204.172 5.62273 4.30412 0
M  V30 2224 H 204.58 3.89492 4.08602 0
M  V30 2225 N 203.978 -0.674533 1.42435 0
M  V30 2226 C 205.218 -1.4466 1.44405 0
M  V30 2227 C 205.582 -1.91911 0.0585784 0
M  V30 2228 O 206.783 -2.68759 -0.0469991 0
M  V30 2229 C 205.054 -2.61136 2.44013 0
M  V30 2230 S 206.613 -3.49981 2.64687 0
M  V30 2231 H 203.431 -0.494074 0.511284 0
M  V30 2232 H 206.033 -0.785162 1.7904 0
M  V30 2233 H 204.737 -2.24662 3.43446 0
M  V30 2234 H 204.268 -3.32153 2.10803 0
M  V30 2235 H 206.283 -4.57124 1.93007 0
M  V30 2236 N 205.456 -1.28612 -0.910864 0
M  V30 2237 C 206.705 -1.15311 -1.65488 0
M  V30 2238 C 207.018 0.296999 -1.93332 0
M  V30 2239 O 208.224 0.551168 -2.65847 0
M  V30 2240 C 206.68 -2.01599 -2.98137 0
M  V30 2241 C 206.288 -3.51367 -2.7793 0
M  V30 2242 C 208.032 -1.96993 -3.76024 0
M  V30 2243 C 205.939 -4.29797 -4.06237 0
M  V30 2244 H 204.869 -0.42796 -0.620779 0
M  V30 2245 H 207.52 -1.53166 -1.01057 0
M  V30 2246 H 205.902 -1.56603 -3.63719 0
M  V30 2247 H 207.076 -4.0434 -2.21011 0
M  V30 2248 H 205.391 -3.57529 -2.13452 0
M  V30 2249 H 207.988 -2.52856 -4.71135 0
M  V30 2250 H 208.331 -0.94733 -4.05378 0
M  V30 2251 H 208.864 -2.39973 -3.17266 0
M  V30 2252 H 205.603 -5.32648 -3.82055 0
M  V30 2253 H 205.123 -3.81596 -4.62757 0
M  V30 2254 H 206.802 -4.39869 -4.74473 0
M  V30 2255 N 206.934 1.1197 -1.10907 0
M  V30 2256 C 208.159 1.87942 -0.877064 0
M  V30 2257 C 208.584 1.79341 0.567314 0
M  V30 2258 O 207.942 1.15184 1.40009 0
M  V30 2259 C 207.99 3.34926 -1.33629 0
M  V30 2260 O 207.094 4.09303 -0.504447 0
M  V30 2261 H 206.435 0.583785 -0.316371 0
M  V30 2262 H 208.965 1.4157 -1.47712 0
M  V30 2263 H 208.975 3.8577 -1.32837 0
M  V30 2264 H 207.65 3.40504 -2.3881 0
M  V30 2265 H 206.227 3.68393 -0.577993 0
M  V30 2266 N 208.412 0.89855 1.29475 0
M  V30 2267 C 209.658 0.524658 1.95896 0
M  V30 2268 C 209.991 -0.926468 1.70676 0
M  V30 2269 O 209.266 -1.65665 1.01908 0
M  V30 2270 C 209.549 0.81633 3.50725 0
M  V30 2271 C 209.402 2.31907 3.85408 0
M  V30 2272 C 210.721 0.302038 4.39062 0
M  V30 2273 H 207.84 0.19209 0.711527 0
M  V30 2274 H 210.482 1.12502 1.53112 0
M  V30 2275 H 208.632 0.305369 3.87298 0
M  V30 2276 H 210.304 2.89949 3.58786 0
M  V30 2277 H 208.547 2.78027 3.32992 0
M  V30 2278 H 209.218 2.47373 4.93468 0
M  V30 2279 H 211.694 0.739551 4.09475 0
M  V30 2280 H 210.57 0.535331 5.46283 0
M  V30 2281 H 210.831 -0.797216 4.34853 0
M  V30 2282 N 209.89 -1.43072 0.660911 0
M  V30 2283 C 211.167 -1.95307 0.107017 0
M  V30 2284 C 211.547 -1.60192 -1.37484 0
M  V30 2285 O 210.895 -0.890949 -2.10415 0
M  V30 2286 C 211.105 -3.47124 0.361402 0
M  V30 2287 C 212.453 -4.23738 0.270455 0
M  V30 2288 O 213.477 -3.54981 0.294382 0
M  V30 2289 O 212.336 -5.46131 0.200737 0
M  V30 2290 H 209.43 -0.826984 -0.00517729 0
M  V30 2291 H 211.976 -1.52972 0.734681 0
M  V30 2292 H 210.748 -3.65837 1.38848 0
M  V30 2293 H 210.371 -3.96475 -0.298953 0
M  V30 2294 N 211.368 -0.403325 -1.52352 0
M  V30 2295 C 212.784 -0.0539281 -1.59509 0
M  V30 2296 C 212.984 1.43307 -1.41652 0
M  V30 2297 O 212.04 2.19924 -1.24056 0
M  V30 2298 C 213.353 -0.543654 -2.95745 0
M  V30 2299 C 214.901 -0.501125 -3.08962 0
M  V30 2300 C 215.376 -0.967267 -4.47669 0
M  V30 2301 N 216.867 -0.923849 -4.53893 0
M  V30 2302 C 217.602 -1.25578 -5.5948 0
M  V30 2303 N 217.098 -1.65889 -6.72646 0
M  V30 2304 N 218.891 -1.17613 -5.49658 0
M  V30 2305 H 211.042 -1.37123 -1.62206 0
M  V30 2306 H 213.305 -0.56294 -0.76276 0
M  V30 2307 H 213.011 -1.58275 -3.14073 0
M  V30 2308 H 212.885 0.0498042 -3.77167 0
M  V30 2309 H 215.272 0.528909 -2.90321 0
M  V30 2310 H 215.353 -1.13056 -2.2946 0
M  V30 2311 H 214.997 -1.9956 -4.67053 0
M  V30 2312 H 214.927 -0.314698 -5.25659 0
M  V30 2313 H 217.418 -0.627403 -3.72655 0
M  V30 2314 H 217.731 -1.89543 -7.49195 0
M  V30 2315 H 216.076 -1.69787 -6.73942 0
M  V30 2316 H 219.267 -0.860115 -4.6013 0
M  V30 2317 H 219.44 -1.43812 -6.3184 0
M  V30 2318 N 212.846 1.57033 -0.133567 0
M  V30 2319 C 214.076 1.99754 0.527429 0
M  V30 2320 C 214.484 1.01245 1.59832 0
M  V30 2321 O 213.827 -0.000645496 1.837 0
M  V30 2322 C 213.889 3.38903 1.19939 0
M  V30 2323 C 213.553 4.56174 0.274709 0
M  V30 2324 C 214.55 5.17563 -0.492398 0
M  V30 2325 C 212.235 5.01972 0.18153 0
M  V30 2326 C 214.229 6.2315 -1.34027 0
M  V30 2327 C 211.916 6.07416 -0.669958 0
M  V30 2328 C 212.914 6.67874 -1.42947 0
M  V30 2329 O 212.602 7.71279 -2.2668 0
M  V30 2330 H 212.334 0.660702 0.142999 0
M  V30 2331 H 214.888 2.04207 -0.221099 0
M  V30 2332 H 213.118 3.31248 1.99528 0
M  V30 2333 H 214.807 3.65818 1.75875 0
M  V30 2334 H 215.573 4.83087 -0.430367 0
M  V30 2335 H 211.452 4.54652 0.762422 0
M  V30 2336 H 214.996 6.70268 -1.93357 0
M  V30 2337 H 210.893 6.41321 -0.73333 0
M  V30 2338 H 211.661 7.88441 -2.1978 0
M  V30 2339 N 214.325 -0.140222 1.56975 0
M  V30 2340 C 215.574 -0.850152 1.82908 0
M  V30 2341 C 215.887 -1.82028 0.715892 0
M  V30 2342 O 217.093 -2.57485 0.861016 0
M  V30 2343 C 215.549 -1.5625 3.24213 0
M  V30 2344 C 215.157 -0.63443 4.43485 0
M  V30 2345 C 216.901 -2.25881 3.59413 0
M  V30 2346 C 214.808 -1.34879 5.75814 0
M  V30 2347 H 213.738 -0.321221 0.682153 0
M  V30 2348 H 216.389 -0.102874 1.83211 0
M  V30 2349 H 214.771 -2.35565 3.18316 0
M  V30 2350 H 215.945 0.12398 4.60633 0
M  V30 2351 H 214.26 -0.0461836 4.16374 0
M  V30 2352 H 216.857 -2.79978 4.5554 0
M  V30 2353 H 217.2 -3.02693 2.85802 0
M  V30 2354 H 217.733 -1.53477 3.67001 0
M  V30 2355 H 214.472 -0.622385 6.52539 0
M  V30 2356 H 213.992 -2.07974 5.6259 0
M  V30 2357 H 215.671 -1.88784 6.18845 0
M  V30 2358 N 215.803 -1.52179 -0.40978 0
M  V30 2359 C 216.766 -1.74853 -1.48186 0
M  V30 2360 C 217.766 -0.618417 -1.48433 0
M  V30 2361 O 218.956 -0.886286 -1.49969 0
M  V30 2362 C 216.088 -1.8303 -2.87598 0
M  V30 2363 H 217.281 -2.70559 -1.29374 0
M  V30 2364 H 214.834 -1.42586 -0.640233 0
M  V30 2365 H 215.569 -0.89236 -3.11781 0
M  V30 2366 H 215.354 -2.65187 -2.88822 0
M  V30 2367 H 216.844 -2.02316 -3.65319 0
M  V30 2368 N 217.281 0.66697 -1.42791 0
M  V30 2369 C 218.53 1.42278 -1.42968 0
M  V30 2370 C 218.843 1.9553 -0.0524489 0
M  V30 2371 O 220.049 2.71414 0.068363 0
M  V30 2372 C 218.505 2.57418 -2.51524 0
M  V30 2373 C 218.113 2.10832 -3.9529 0
M  V30 2374 C 219.857 3.34878 -2.60877 0
M  V30 2375 C 217.764 3.23101 -4.95338 0
M  V30 2376 H 216.694 0.534533 -0.531781 0
M  V30 2377 H 219.345 0.721302 -1.68729 0
M  V30 2378 H 217.727 3.29971 -2.18941 0
M  V30 2379 H 218.901 1.4538 -4.37266 0
M  V30 2380 H 217.216 1.46289 -3.89857 0
M  V30 2381 H 219.813 4.18505 -3.32802 0
M  V30 2382 H 220.156 3.81993 -1.6549 0
M  V30 2383 H 220.689 2.69398 -2.92693 0
M  V30 2384 H 217.428 2.80969 -5.9223 0
M  V30 2385 H 216.948 3.87309 -4.57987 0
M  V30 2386 H 218.627 3.88447 -5.17415 0
M  V30 2387 N 218.759 1.29093 0.90403 0
M  V30 2388 C 219.722 1.1386 1.98919 0
M  V30 2389 C 220.722 0.0753457 1.60623 0
M  V30 2390 O 221.912 0.321931 1.71199 0
M  V30 2391 C 219.044 0.740198 3.32767 0
M  V30 2392 H 220.237 2.10246 2.13861 0
M  V30 2393 H 217.79 1.12218 1.08797 0
M  V30 2394 H 218.525 -0.223997 3.23525 0
M  V30 2395 H 218.31 1.50838 3.61926 0
M  V30 2396 H 219.8 0.656546 4.12407 0
M  V30 2397 N 220.237 -1.11381 1.11499 0
M  V30 2398 C 221.169 -2.17207 0.731704 0
M  V30 2399 C 222.182 -1.61066 -0.236957 0
M  V30 2400 O 223.371 -1.78489 -0.0197591 0
M  V30 2401 C 220.471 -3.38846 0.0607624 0
M  V30 2402 C 219.644 -4.24451 1.0564 0
M  V30 2403 C 218.703 -5.24562 0.4149 0
M  V30 2404 O 217.729 -5.59071 1.069 0
M  V30 2405 N 218.931 -5.74651 -0.821943 0
M  V30 2406 H 221.696 -2.50699 1.64225 0
M  V30 2407 H 219.257 -1.26908 1.00529 0
M  V30 2408 H 221.249 -4.02911 -0.380139 0
M  V30 2409 H 219.819 -3.03411 -0.752376 0
M  V30 2410 H 219.039 -3.56833 1.67524 0
M  V30 2411 H 220.327 -4.78486 1.72998 0
M  V30 2412 H 219.725 -5.48797 -1.37252 0
M  V30 2413 H 218.282 -6.40549 -1.20582 0
M  V30 2414 N 221.715 -0.905404 -1.28997 0
M  V30 2415 C 222.678 -0.392253 -2.25819 0
M  V30 2416 C 223.678 0.476753 -1.5357 0
M  V30 2417 O 224.868 0.280994 -1.71919 0
M  V30 2418 C 222 0.438588 -3.38067 0
M  V30 2419 H 223.193 -1.24743 -2.72725 0
M  V30 2420 H 220.746 -0.684051 -1.40536 0
M  V30 2421 H 221.481 1.31352 -2.96508 0
M  V30 2422 H 221.266 -0.184167 -3.91667 0
M  V30 2423 H 222.756 0.78873 -4.10084 0
M  V30 2424 N 223.193 1.4272 -0.668489 0
M  V30 2425 C 224.126 2.28111 0.0637898 0
M  V30 2426 C 225.104 1.40705 0.814912 0
M  V30 2427 O 226.288 1.70146 0.81134 0
M  V30 2428 C 223.415 3.20429 1.0974 0
M  V30 2429 C 222.461 4.24197 0.442579 0
M  V30 2430 S 223.294 5.29563 -0.795173 0
M  V30 2431 C 224.45 6.25449 0.237516 0
M  V30 2432 H 224.683 2.8987 -0.660521 0
M  V30 2433 H 222.216 1.47456 -0.457821 0
M  V30 2434 H 224.174 3.74158 1.68868 0
M  V30 2435 H 222.835 2.57818 1.79411 0
M  V30 2436 H 222.028 4.88954 1.22227 0
M  V30 2437 H 221.63 3.73925 -0.0749554 0
M  V30 2438 H 223.922 6.68524 1.09915 0
M  V30 2439 H 224.865 7.07104 -0.375421 0
M  V30 2440 H 225.273 5.61511 0.580167 0
M  V30 2441 N 224.671 0.411399 1.52136 0
M  V30 2442 C 226.087 0.0623865 1.59478 0
M  V30 2443 C 226.287 -1.42554 1.4241 0
M  V30 2444 O 225.343 -2.19263 1.2522 0
M  V30 2445 C 226.656 0.559331 2.95452 0
M  V30 2446 C 228.204 0.517503 3.08692 0
M  V30 2447 C 228.679 0.990994 4.4715 0
M  V30 2448 N 230.17 0.947908 4.53397 0
M  V30 2449 C 230.905 1.28544 5.58806 0
M  V30 2450 N 230.401 1.69454 6.71757 0
M  V30 2451 N 232.194 1.20526 5.49026 0
M  V30 2452 H 224.345 1.37982 1.61477 0
M  V30 2453 H 226.608 0.566977 0.759764 0
M  V30 2454 H 226.314 1.59938 3.1323 0
M  V30 2455 H 226.188 -0.0298014 3.77188 0
M  V30 2456 H 228.575 -0.513505 2.90598 0
M  V30 2457 H 228.656 1.14272 2.28857 0
M  V30 2458 H 228.3 2.02034 4.65988 0
M  V30 2459 H 228.23 0.34257 5.25485 0
M  V30 2460 H 230.721 0.647157 3.72317 0
M  V30 2461 H 231.034 1.93513 7.48179 0
M  V30 2462 H 229.379 1.73359 6.73032 0
M  V30 2463 H 232.57 0.884505 4.59667 0
M  V30 2464 H 232.743 1.47161 6.31069 0
M  V30 2465 N 226.149 -1.5696 0.141893 0
M  V30 2466 C 227.112 -2.15316 -0.785587 0
M  V30 2467 C 228.112 -1.09366 -1.1788 0
M  V30 2468 O 229.302 -1.35031 -1.10056 0
M  V30 2469 C 226.434 -2.71211 -2.06537 0
M  V30 2470 H 227.627 -2.98608 -0.278041 0
M  V30 2471 H 225.18 -1.5593 -0.107519 0
M  V30 2472 H 225.915 -1.91571 -2.6167 0
M  V30 2473 H 225.7 -3.4872 -1.79268 0
M  V30 2474 H 227.19 -3.16189 -2.72789 0
M  V30 2475 N 227.627 0.131896 -1.57047 0
M  V30 2476 C 228.577 1.1679 -1.95816 0
M  V30 2477 C 229.561 1.37756 -0.831393 0
M  V30 2478 O 230.753 1.39065 -1.09499 0
M  V30 2479 C 227.882 2.49778 -2.35512 0
M  V30 2480 C 226.968 2.32342 -3.54793 0
M  V30 2481 N 227.359 1.8469 -4.70875 0
M  V30 2482 C 225.657 2.63043 -3.60173 0
M  V30 2483 C 226.358 1.80656 -5.52936 0
M  V30 2484 N 225.334 2.24528 -4.95064 0
M  V30 2485 H 229.136 0.791818 -2.83033 0
M  V30 2486 H 226.65 0.339791 -1.58805 0
M  V30 2487 H 228.647 3.24692 -2.61498 0
M  V30 2488 H 227.307 2.88156 -1.49654 0
M  V30 2489 H 228.318 1.54429 -4.9434 0
M  V30 2490 H 224.995 3.05193 -2.84892 0
M  V30 2491 H 226.385 1.45178 -6.56028 0
M  V30 2492 N 229.106 1.52395 0.401703 0
M  V30 2493 C 230.334 1.70676 1.16949 0
M  V30 2494 C 230.749 0.419503 1.8408 0
M  V30 2495 O 230.106 -0.605061 1.72178 0
M  V30 2496 C 230.157 2.84753 2.22706 0
M  V30 2497 O 229.878 4.08495 1.58314 0
M  V30 2498 C 231.379 3.14608 3.12309 0
M  V30 2499 H 228.599 0.571787 0.351142 0
M  V30 2500 H 231.143 1.98987 0.471652 0
M  V30 2501 H 229.298 2.58941 2.88147 0
M  V30 2502 H 229.712 4.72117 2.28485 0
M  V30 2503 H 231.186 3.97923 3.82572 0
M  V30 2504 H 231.663 2.28464 3.75101 0
M  V30 2505 H 232.269 3.42212 2.52529 0
M  V30 2506 N 230.584 -0.659388 1.43143 0
M  V30 2507 C 231.83 -1.41984 1.45644 0
M  V30 2508 C 232.185 -1.92245 0.0771718 0
M  V30 2509 O 231.478 -1.68976 -0.903205 0
M  V30 2510 C 231.672 -2.62206 2.42864 0
M  V30 2511 C 231.501 -2.23711 3.90107 0
M  V30 2512 C 230.271 -2.12332 4.58523 0
M  V30 2513 C 232.469 -1.84384 4.80112 0
M  V30 2514 N 230.451 -1.67102 5.9072 0
M  V30 2515 C 231.822 -1.5019 6.01534 0
M  V30 2516 C 233.877 -1.71512 4.67427 0
M  V30 2517 C 232.58 -1.04414 7.11681 0
M  V30 2518 C 234.606 -1.27142 5.77572 0
M  V30 2519 C 233.968 -0.938808 6.98116 0
M  V30 2520 H 230.067 -0.515448 0.588079 0
M  V30 2521 H 232.651 -0.759409 1.79279 0
M  V30 2522 H 230.822 -3.25917 2.11265 0
M  V30 2523 H 232.554 -3.28877 2.35843 0
M  V30 2524 H 229.309 -2.31893 4.12944 0
M  V30 2525 H 229.733 -1.46866 6.60878 0
M  V30 2526 H 234.375 -1.95868 3.74694 0
M  V30 2527 H 232.093 -0.788061 8.04248 0
M  V30 2528 H 235.679 -1.17681 5.69774 0
M  V30 2529 H 234.559 -0.6007 7.81896 0
M  V30 2530 N 232.062 -1.29571 -0.897171 0
M  V30 2531 C 233.478 -1.07637 -1.17841 0
M  V30 2532 C 233.678 0.170713 -2.00776 0
M  V30 2533 O 232.734 0.867768 -2.3712 0
M  V30 2534 C 234.047 -2.3332 -1.8969 0
M  V30 2535 C 235.595 -2.38664 -2.02505 0
M  V30 2536 C 236.07 -3.64157 -2.77765 0
M  V30 2537 N 237.561 -3.64894 -2.85318 0
M  V30 2538 C 238.296 -4.58679 -3.44094 0
M  V30 2539 N 237.792 -5.62799 -4.04017 0
M  V30 2540 N 239.585 -4.46245 -3.41793 0
M  V30 2541 H 231.736 -2.09598 -0.343883 0
M  V30 2542 H 233.999 -0.923333 -0.214848 0
M  V30 2543 H 233.705 -3.24262 -1.36187 0
M  V30 2544 H 233.579 -2.41025 -2.9015 0
M  V30 2545 H 235.966 -1.48208 -2.55183 0
M  V30 2546 H 236.047 -2.34943 -1.01171 0
M  V30 2547 H 235.691 -4.54965 -2.25763 0
M  V30 2548 H 235.621 -3.65137 -3.7945 0
M  V30 2549 H 238.112 -2.89613 -2.42761 0
M  V30 2550 H 238.425 -6.3048 -4.46895 0
M  V30 2551 H 236.77 -5.66605 -4.02472 0
M  V30 2552 H 239.961 -3.64094 -2.94199 0
M  V30 2553 H 240.134 -5.19518 -3.87304 0
M  V30 2554 N 233.54 1.10788 -1.12088 0
M  V30 2555 C 234.45 2.20599 -0.798338 0
M  V30 2556 C 235.466 1.72712 0.21135 0
M  V30 2557 O 236.642 2.01348 0.0458477 0
M  V30 2558 C 233.707 3.45771 -0.253674 0
M  V30 2559 C 232.768 4.08411 -1.32283 0
M  V30 2560 C 232.001 5.27608 -0.80406 0
M  V30 2561 O 232.224 5.69241 0.363478 0
M  V30 2562 O 231.158 5.8101 -1.57198 0
M  V30 2563 H 234.984 2.50614 -1.7154 0
M  V30 2564 H 232.569 1.19454 -0.897275 0
M  V30 2565 H 234.451 4.21376 0.0453691 0
M  V30 2566 H 233.126 3.1739 0.636005 0
M  V30 2567 H 232.033 3.34507 -1.67499 0
M  V30 2568 H 233.366 4.40986 -2.18614 0
M  V30 2569 N 235.018 0.912232 1.28515 0
M  V30 2570 C 235.965 0.397954 2.27343 0
M  V30 2571 C 236.935 -0.526766 1.57526 0
M  V30 2572 O 238.12 -0.449292 1.85435 0
M  V30 2573 C 235.26 -0.357263 3.43246 0
M  V30 2574 C 234.373 0.599788 4.27816 0
M  V30 2575 C 233.508 -0.173725 5.30916 0
M  V30 2576 C 232.547 0.777039 6.07148 0
M  V30 2577 N 231.684 0.0371398 7.0209 0
M  V30 2578 H 236.524 1.24577 2.70711 0
M  V30 2579 H 234.061 0.625612 1.33133 0
M  V30 2580 H 236.019 -0.8113 4.09236 0
M  V30 2581 H 234.649 -1.16943 3.00872 0
M  V30 2582 H 233.701 1.17235 3.61884 0
M  V30 2583 H 235.013 1.32704 4.80823 0
M  V30 2584 H 234.167 -0.688394 6.02782 0
M  V30 2585 H 232.906 -0.934041 4.78672 0
M  V30 2586 H 231.911 1.3031 5.34134 0
M  V30 2587 H 233.136 1.53689 6.61481 0
M  V30 2588 H 231.082 -0.705213 6.52198 0
M  V30 2589 H 230.999 0.704249 7.52713 0
M  V30 2590 H 232.267 -0.457383 7.78157 0
M  V30 2591 N 236.496 -1.42363 0.676048 0
M  V30 2592 C 237.912 -1.55811 0.345718 0
M  V30 2593 C 238.112 -1.65544 -1.14879 0
M  V30 2594 O 237.168 -1.62306 -1.93424 0
M  V30 2595 C 238.481 -2.80746 1.07713 0
M  V30 2596 C 240.029 -2.9452 1.05958 0
M  V30 2597 C 240.504 -4.22318 1.77233 0
M  V30 2598 N 241.995 -4.29233 1.74108 0
M  V30 2599 C 242.73 -5.26935 2.26113 0
M  V30 2600 N 242.226 -6.30783 2.86505 0
M  V30 2601 N 244.019 -5.18741 2.1648 0
M  V30 2602 H 236.17 -1.34289 1.6456 0
M  V30 2603 H 238.433 -0.646506 0.69335 0
M  V30 2604 H 238.139 -2.79696 2.13221 0
M  V30 2605 H 238.013 -3.71676 0.64316 0
M  V30 2606 H 240.4 -2.95097 0.0128255 0
M  V30 2607 H 240.481 -2.04817 1.53244 0
M  V30 2608 H 240.125 -4.22502 2.81877 0
M  V30 2609 H 240.055 -5.10958 1.27396 0
M  V30 2610 H 242.546 -3.54814 1.30059 0
M  V30 2611 H 242.859 -7.01691 3.23805 0
M  V30 2612 H 241.204 -6.31341 2.90575 0
M  V30 2613 H 244.395 -4.36533 1.68987 0
M  V30 2614 H 244.568 -5.94721 2.57316 0
M  V30 2615 N 237.974 -0.419461 -1.51915 0
M  V30 2616 C 238.904 0.391813 -2.30189 0
M  V30 2617 C 239.885 1.03699 -1.34836 0
M  V30 2618 O 241.07 1.04403 -1.63748 0
M  V30 2619 C 238.2 1.50312 -3.13087 0
M  V30 2620 C 237.154 0.9824 -4.16573 0
M  V30 2621 C 236.48 2.18809 -4.8788 0
M  V30 2622 C 237.78 0.0292356 -5.22292 0
M  V30 2623 H 239.474 -0.26135 -2.98257 0
M  V30 2624 H 237.02 -0.127134 -1.43438 0
M  V30 2625 H 238.973 2.07773 -3.66617 0
M  V30 2626 H 237.697 2.18431 -2.42807 0
M  V30 2627 H 236.356 0.430119 -3.64068 0
M  V30 2628 H 236.004 2.85507 -4.14119 0
M  V30 2629 H 235.704 1.84615 -5.57845 0
M  V30 2630 H 237.228 2.76858 -5.44226 0
M  V30 2631 H 238.642 0.512976 -5.71 0
M  V30 2632 H 237.039 -0.2244 -5.9968 0
M  V30 2633 H 238.109 -0.912931 -4.76228 0
M  V30 2634 N 239.452 1.56882 -0.150215 0
M  V30 2635 C 240.382 2.19935 0.784284 0
M  V30 2636 C 241.363 1.14854 1.25469 0
M  V30 2637 O 242.548 1.43209 1.31168 0
M  V30 2638 C 239.678 2.82349 2.02229 0
M  V30 2639 C 238.632 3.93285 1.68853 0
M  V30 2640 C 237.958 4.42649 2.99944 0
M  V30 2641 C 239.258 5.13904 0.932714 0
M  V30 2642 H 240.952 2.9828 0.258781 0
M  V30 2643 H 238.498 1.43473 0.123029 0
M  V30 2644 H 240.451 3.25126 2.68088 0
M  V30 2645 H 239.175 2.0134 2.57157 0
M  V30 2646 H 237.834 3.5113 1.05371 0
M  V30 2647 H 237.482 3.58458 3.52869 0
M  V30 2648 H 237.182 5.17476 2.78374 0
M  V30 2649 H 238.706 4.88099 3.66868 0
M  V30 2650 H 240.12 5.53506 1.49345 0
M  V30 2651 H 238.517 5.94515 0.81684 0
M  V30 2652 H 239.587 4.84842 -0.0749568 0
M  V30 2653 N 240.93 -0.123565 1.57115 0
M  V30 2654 C 242.16 -0.845233 1.88519 0
M  V30 2655 C 242.568 -1.74168 0.739064 0
M  V30 2656 O 241.911 -1.81244 -0.299355 0
M  V30 2657 C 241.973 -1.73452 3.14888 0
M  V30 2658 C 241.637 -1.01285 4.45635 0
M  V30 2659 C 242.634 -0.355774 5.18681 0
M  V30 2660 C 240.319 -0.99538 4.92339 0
M  V30 2661 C 242.313 0.309114 6.3665 0
M  V30 2662 C 240 -0.32669 6.10226 0
M  V30 2663 C 240.998 0.324406 6.82229 0
M  V30 2664 O 240.686 0.982437 7.97874 0
M  V30 2665 H 240.418 -0.248534 0.628655 0
M  V30 2666 H 242.972 -0.113907 2.05084 0
M  V30 2667 H 241.202 -2.50737 2.94394 0
M  V30 2668 H 242.891 -2.33021 3.32349 0
M  V30 2669 H 243.657 -0.360918 4.83655 0
M  V30 2670 H 239.536 -1.49159 4.36202 0
M  V30 2671 H 243.08 0.8179 6.92789 0
M  V30 2672 H 238.977 -0.319294 6.4471 0
M  V30 2673 H 239.745 0.886454 8.13686 0
M  V30 2674 N 242.408 -1.52605 -0.393616 0
M  V30 2675 C 243.633 -1.71592 -1.16495 0
M  V30 2676 C 244.058 -0.43133 -1.83088 0
M  V30 2677 O 243.416 0.612523 -1.7064 0
M  V30 2678 C 243.464 -2.86318 -2.19213 0
M  V30 2679 O 242.568 -2.52969 -3.257 0
M  V30 2680 H 241.909 -0.570734 -0.33935 0
M  V30 2681 H 244.439 -1.99377 -0.459324 0
M  V30 2682 H 244.449 -3.1168 -2.63286 0
M  V30 2683 H 243.124 -3.79511 -1.7013 0
M  V30 2684 H 241.701 -2.38332 -2.86797 0
M  V30 2685 N 243.887 0.651787 -1.4349 0
M  V30 2686 C 244.834 1.76462 -1.4876 0
M  V30 2687 C 245.804 1.62641 -0.337189 0
M  V30 2688 O 246.989 1.82864 -0.544544 0
M  V30 2689 C 244.129 3.14623 -1.41796 0
M  V30 2690 C 243.242 3.39568 -2.67053 0
M  V30 2691 C 242.377 4.67585 -2.52068 0
M  V30 2692 C 241.416 4.85639 -3.72587 0
M  V30 2693 N 240.553 6.04915 -3.56402 0
M  V30 2694 H 245.393 1.71293 -2.43849 0
M  V30 2695 H 242.93 0.835889 -1.21043 0
M  V30 2696 H 244.888 3.94496 -1.35753 0
M  V30 2697 H 243.518 3.18859 -0.50288 0
M  V30 2698 H 242.57 2.53783 -2.8337 0
M  V30 2699 H 243.882 3.48795 -3.56572 0
M  V30 2700 H 243.036 5.55586 -2.4374 0
M  V30 2701 H 241.775 4.60681 -1.60075 0
M  V30 2702 H 240.78 3.96073 -3.81321 0
M  V30 2703 H 242.005 4.94372 -4.65589 0
M  V30 2704 H 239.951 5.9914 -2.67146 0
M  V30 2705 H 239.868 6.15106 -4.39524 0
M  V30 2706 H 241.136 6.95533 -3.51929 0
M  V30 2707 N 245.365 1.30045 0.890287 0
M  V30 2708 C 246.298 1.10301 1.99772 0
M  V30 2709 C 247.276 0.0121631 1.62595 0
M  V30 2710 O 248.46 0.16469 1.87779 0
M  V30 2711 C 245.587 0.681125 3.31781 0
M  V30 2712 C 244.633 1.77206 3.87944 0
M  V30 2713 S 245.466 3.37335 4.15891 0
M  V30 2714 C 246.622 2.97036 5.50927 0
M  V30 2715 H 246.855 2.04057 2.16213 0
M  V30 2716 H 244.388 1.14299 1.03804 0
M  V30 2717 H 246.346 0.444439 4.08087 0
M  V30 2718 H 245.007 -0.236981 3.13205 0
M  V30 2719 H 244.2 1.42903 4.83316 0
M  V30 2720 H 243.802 1.96275 3.18358 0
M  V30 2721 H 246.094 2.44666 6.31779 0
M  V30 2722 H 247.037 3.91296 5.90164 0
M  V30 2723 H 247.445 2.35057 5.13233 0
M  V30 2724 N 246.843 -1.10192 1.12674 0
M  V30 2725 C 248.089 -1.82475 0.884915 0
M  V30 2726 C 248.422 -1.85093 -0.58773 0
M  V30 2727 O 247.697 -1.3134 -1.43457 0
M  V30 2728 C 247.98 -3.29018 1.46353 0
M  V30 2729 C 247.833 -3.34718 3.00473 0
M  V30 2730 C 249.152 -4.25473 1.12519 0
M  V30 2731 H 246.271 -0.662492 0.322915 0
M  V30 2732 H 248.913 -1.2913 1.39375 0
M  V30 2733 H 247.063 -3.74576 1.03077 0
M  V30 2734 H 248.735 -2.97622 3.52447 0
M  V30 2735 H 246.978 -2.74541 3.35872 0
M  V30 2736 H 247.649 -4.37918 3.36053 0
M  V30 2737 H 250.125 -3.88161 1.499 0
M  V30 2738 H 249.001 -5.26365 1.55663 0
M  V30 2739 H 249.262 -4.42084 0.0377407 0
M  V30 2740 N 248.321 -0.919034 -1.28029 0
M  V30 2741 C 249.561 -0.562107 -1.96519 0
M  V30 2742 C 249.925 0.878784 -1.70708 0
M  V30 2743 O 251.126 1.34355 -2.32813 0
M  V30 2744 C 249.397 -0.868953 -3.46676 0
M  V30 2745 S 250.956 -0.619237 -4.34409 0
M  V30 2746 H 247.774 -0.2078 -0.679956 0
M  V30 2747 H 250.376 -1.18562 -1.55446 0
M  V30 2748 H 249.08 -1.91547 -3.62957 0
M  V30 2749 H 248.611 -0.234301 -3.92702 0
M  V30 2750 H 250.626 0.526995 -4.93394 0
M  V30 2751 N 249.799 1.42003 -0.683588 0
M  V30 2752 C 251.046 2.01413 -0.209514 0
M  V30 2753 C 251.374 1.54088 1.1869 0
M  V30 2754 O 250.629 0.737591 1.81268 0
M  V30 2755 C 250.928 3.56827 -0.202357 0
M  V30 2756 C 250.594 4.23617 -1.54464 0
M  V30 2757 C 249.256 4.41577 -1.91215 0
M  V30 2758 C 251.608 4.61178 -2.42826 0
M  V30 2759 C 248.936 4.9437 -3.15935 0
M  V30 2760 C 251.288 5.15355 -3.66867 0
M  V30 2761 C 249.952 5.31528 -4.03776 0
M  V30 2762 H 249.222 0.737023 -0.0766668 0
M  V30 2763 H 251.869 1.70067 -0.880312 0
M  V30 2764 H 250.174 3.87892 0.551969 0
M  V30 2765 H 251.871 4.00588 0.181793 0
M  V30 2766 H 248.461 4.10004 -1.24877 0
M  V30 2767 H 252.645 4.46968 -2.15717 0
M  V30 2768 H 247.901 5.05076 -3.44541 0
M  V30 2769 H 252.075 5.43402 -4.35531 0
M  V30 2770 H 249.702 5.72199 -5.00492 0
M  V30 2771 N 251.277 0.427512 1.51691 0
M  V30 2772 C 252.505 -0.141191 2.06418 0
M  V30 2773 C 252.92 -1.37303 1.29589 0
M  V30 2774 O 252.277 -1.79059 0.352732 0
M  V30 2775 C 252.328 -0.473266 3.58389 0
M  V30 2776 O 252.049 0.709673 4.32314 0
M  V30 2777 C 253.55 -1.09371 4.29596 0
M  V30 2778 H 250.77 -0.0122747 0.670888 0
M  V30 2779 H 253.314 0.603764 1.95384 0
M  V30 2780 H 251.469 -1.16812 3.69369 0
M  V30 2781 H 251.883 0.42807 5.2275 0
M  V30 2782 H 253.357 -1.27613 5.37046 0
M  V30 2783 H 253.834 -2.072 3.87253 0
M  V30 2784 H 254.44 -0.43853 4.23033 0
M  V30 2785 N 252.755 -1.56801 0.158532 0
M  V30 2786 C 254.004 -1.95665 -0.489702 0
M  V30 2787 C 254.317 -1.04654 -1.65248 0
M  V30 2788 O 255.523 -1.33146 -2.3661 0
M  V30 2789 C 253.979 -3.47874 -0.922582 0
M  V30 2790 C 253.587 -4.47489 0.213893 0
M  V30 2791 C 255.331 -3.95583 -1.53996 0
M  V30 2792 C 253.238 -5.90921 -0.237903 0
M  V30 2793 H 252.168 -0.730516 -0.186716 0
M  V30 2794 H 254.819 -1.81861 0.244722 0
M  V30 2795 H 253.201 -3.57051 -1.71261 0
M  V30 2796 H 254.375 -4.50017 0.991036 0
M  V30 2797 H 252.69 -4.09764 0.740407 0
M  V30 2798 H 255.287 -5.0019 -1.8898 0
M  V30 2799 H 255.63 -3.37789 -2.43319 0
M  V30 2800 H 256.163 -3.8937 -0.814611 0
M  V30 2801 H 252.902 -6.52559 0.620236 0
M  V30 2802 H 252.422 -5.91729 -0.980676 0
M  V30 2803 H 254.101 -6.43352 -0.686067 0
M  V30 2804 N 254.233 0.115231 -1.57178 0
M  V30 2805 C 255.479 0.818565 -1.86202 0
M  V30 2806 C 255.834 1.77316 -0.746785 0
M  V30 2807 O 255.127 1.89923 0.25291 0
M  V30 2808 C 255.321 1.60324 -3.19423 0
M  V30 2809 C 255.15 0.726138 -4.43799 0
M  V30 2810 C 253.92 0.379535 -5.03873 0
M  V30 2811 C 256.118 0.0420774 -5.14283 0
M  V30 2812 N 254.1 -0.507841 -6.11796 0
M  V30 2813 C 255.471 -0.704152 -6.15988 0
M  V30 2814 C 257.526 -0.0339486 -4.97888 0
M  V30 2815 C 256.229 -1.51927 -7.03072 0
M  V30 2816 C 258.255 -0.835906 -5.85463 0
M  V30 2817 C 257.617 -1.57031 -6.86673 0
M  V30 2818 H 253.716 0.276343 -0.731545 0
M  V30 2819 H 256.3 0.0821032 -1.94527 0
M  V30 2820 H 254.471 2.31072 -3.12186 0
M  V30 2821 H 256.203 2.2522 -3.36241 0
M  V30 2822 H 252.958 0.722634 -4.68054 0
M  V30 2823 H 253.382 -0.94349 -6.70393 0
M  V30 2824 H 258.024 0.519496 -4.19596 0
M  V30 2825 H 255.742 -2.08386 -7.80769 0
M  V30 2826 H 259.328 -0.89714 -5.74841 0
M  V30 2827 H 258.208 -2.18088 -7.53264 0
M  V30 2828 N 255.711 1.52812 0.385517 0
M  V30 2829 C 256.957 1.68275 1.13188 0
M  V30 2830 C 257.29 0.423179 1.89533 0
M  V30 2831 O 256.565 -0.579113 1.85679 0
M  V30 2832 C 256.848 2.92001 2.1073 0
M  V30 2833 C 256.701 4.28067 1.38125 0
M  V30 2834 C 258.02 3.11283 3.11113 0
M  V30 2835 H 255.139 0.612352 0.410115 0
M  V30 2836 H 257.781 1.85415 0.414869 0
M  V30 2837 H 255.931 2.77519 2.71874 0
M  V30 2838 H 257.603 4.54324 0.799187 0
M  V30 2839 H 255.846 4.28388 0.683092 0
M  V30 2840 H 256.517 5.10733 2.09417 0
M  V30 2841 H 258.993 3.2482 2.6006 0
M  V30 2842 H 257.869 3.99325 3.76605 0
M  V30 2843 H 258.13 2.25656 3.80173 0
M  V30 2844 N 257.189 -0.644168 1.43834 0
M  V30 2845 C 258.119 -1.76814 1.52509 0
M  V30 2846 C 259.1 -1.65823 0.379052 0
M  V30 2847 O 260.285 -1.84781 0.597466 0
M  V30 2848 C 257.415 -3.15288 1.4564 0
M  V30 2849 C 256.369 -3.41053 2.58586 0
M  V30 2850 C 255.695 -4.79421 2.36769 0
M  V30 2851 C 256.995 -3.34902 4.00797 0
M  V30 2852 H 258.689 -1.69812 2.46586 0
M  V30 2853 H 256.235 -0.815542 1.1868 0
M  V30 2854 H 258.188 -3.93681 1.50311 0
M  V30 2855 H 256.912 -3.23043 0.480725 0
M  V30 2856 H 255.571 -2.65035 2.53282 0
M  V30 2857 H 255.219 -4.83863 1.37424 0
M  V30 2858 H 254.919 -4.9762 3.12487 0
M  V30 2859 H 256.443 -5.6006 2.43238 0
M  V30 2860 H 257.857 -4.03218 4.07539 0
M  V30 2861 H 256.254 -3.64637 4.76613 0
M  V30 2862 H 257.324 -2.32928 4.25291 0
M  V30 2863 N 258.668 -1.30515 -0.883378 0
M  V30 2864 C 259.631 -1.1701 -1.97082 0
M  V30 2865 C 260.631 -0.10089 -1.60483 0
M  V30 2866 O 261.821 -0.349127 -1.70666 0
M  V30 2867 C 258.953 -0.793045 -3.31547 0
M  V30 2868 H 260.146 -2.13622 -2.10489 0
M  V30 2869 H 257.699 -1.13935 -1.06998 0
M  V30 2870 H 258.434 0.172499 -3.23841 0
M  V30 2871 H 258.219 -1.56576 -3.5948 0
M  V30 2872 H 259.709 -0.722073 -4.1131 0
M  V30 2873 N 260.146 1.09593 -1.13257 0
M  V30 2874 C 261.109 2.14359 -0.811358 0
M  V30 2875 C 262.109 1.59808 0.178377 0
M  V30 2876 O 263.299 1.74132 -0.0484911 0
M  V30 2877 C 260.431 3.40269 -0.207276 0
M  V30 2878 H 261.624 2.44284 -1.73969 0
M  V30 2879 H 259.177 1.25102 -0.936973 0
M  V30 2880 H 259.912 3.15969 0.73036 0
M  V30 2881 H 259.697 3.81154 -0.919992 0
M  V30 2882 H 261.187 4.176 0.000667944 0
M  V30 2883 N 261.624 0.925811 1.2754 0
M  V30 2884 C 262.587 0.428129 2.25166 0
M  V30 2885 C 263.587 -0.452261 1.54309 0
M  V30 2886 O 264.777 -0.253608 1.72344 0
M  V30 2887 C 261.909 -0.384749 3.38722 0
M  V30 2888 H 263.102 1.29066 2.70706 0
M  V30 2889 H 260.655 0.706323 1.3943 0
M  V30 2890 H 261.39 -1.26618 2.98561 0
M  V30 2891 H 261.175 0.246454 3.91325 0
M  V30 2892 H 262.665 -0.723389 4.11287 0
M  V30 2893 N 263.102 -1.41638 0.69111 0
M  V30 2894 C 264.032 -2.3347 0.037248 0
M  V30 2895 C 265.013 -1.51575 -0.771947 0
M  V30 2896 O 266.198 -1.80126 -0.72582 0
M  V30 2897 C 263.328 -3.35354 -0.903064 0
M  V30 2898 C 262.282 -4.27526 -0.201288 0
M  V30 2899 C 261.608 -5.19747 -1.25565 0
M  V30 2900 C 262.908 -5.13959 0.929689 0
M  V30 2901 H 264.602 -2.88397 0.804227 0
M  V30 2902 H 262.148 -1.38669 0.388189 0
M  V30 2903 H 264.101 -3.98519 -1.36969 0
M  V30 2904 H 262.825 -2.78767 -1.70166 0
M  V30 2905 H 261.484 -3.65779 0.245265 0
M  V30 2906 H 261.132 -4.59479 -2.04666 0
M  V30 2907 H 260.832 -5.8225 -0.791128 0
M  V30 2908 H 262.356 -5.85789 -1.72288 0
M  V30 2909 H 263.77 -5.70718 0.543546 0
M  V30 2910 H 262.167 -5.85379 1.32103 0
M  V30 2911 H 263.237 -4.51389 1.77133 0
M  V30 2912 N 264.58 -0.43555 -1.51462 0
M  V30 2913 C 265.82 0.130708 -2.03982 0
M  V30 2914 C 266.184 1.40117 -1.31268 0
M  V30 2915 O 267.385 2.04755 -1.74152 0
M  V30 2916 C 265.656 0.346102 -3.5572 0
M  V30 2917 S 267.215 0.876022 -4.29967 0
M  V30 2918 H 264.033 0.0326881 -0.710248 0
M  V30 2919 H 266.635 -0.594544 -1.8624 0
M  V30 2920 H 265.339 -0.584911 -4.0621 0
M  V30 2921 H 264.87 1.09849 -3.77752 0
M  V30 2922 H 266.885 2.15379 -4.47019 0
M  V30 2923 N 266.058 1.56714 -0.166846 0
M  V30 2924 C 267.307 1.95922 0.479318 0
M  V30 2925 C 267.62 1.05529 1.6469 0
M  V30 2926 O 268.826 1.34399 2.35901 0
M  V30 2927 C 267.282 3.48359 0.90412 0
M  V30 2928 C 266.89 4.47369 -0.237621 0
M  V30 2929 C 268.634 3.96394 1.51896 0
M  V30 2930 C 266.541 5.91039 0.206561 0
M  V30 2931 H 265.471 0.731495 0.18284 0
M  V30 2932 H 268.122 1.81728 -0.254363 0
M  V30 2933 H 266.504 3.57955 1.69365 0
M  V30 2934 H 267.678 4.49485 -1.01489 0
M  V30 2935 H 265.993 4.09366 -0.762128 0
M  V30 2936 H 268.59 5.01186 1.86325 0
M  V30 2937 H 268.933 3.39075 2.41524 0
M  V30 2938 H 269.466 3.89796 0.79395 0
M  V30 2939 H 266.205 6.52221 -0.654834 0
M  V30 2940 H 265.725 5.9224 0.949282 0
M  V30 2941 H 267.404 6.43707 0.651939 0
M  V30 2942 N 267.536 -0.106894 1.57237 0
M  V30 2943 C 268.947 -0.662723 1.74542 0
M  V30 2944 C 269.298 -1.7971 0.787319 0
M  V30 2945 O 268.423 -2.16368 -0.0369636 0
M  V30 2946 C 269.018 -1.20896 3.16496 0
M  V30 2947 C 267.577 -1.71096 3.35266 0
M  V30 2948 C 266.724 -0.615642 2.7038 0
M  V30 2949 H 269.675 0.119106 1.58252 0
M  V30 2950 H 269.696 -2.07847 3.18716 0
M  V30 2951 H 269.208 -0.383122 3.86204 0
M  V30 2952 H 267.309 -2.56119 2.70618 0
M  V30 2953 H 267.422 -1.81208 4.43509 0
M  V30 2954 H 265.786 -1.05222 2.31949 0
M  V30 2955 H 266.569 0.199419 3.4272 0
M  V30 2956 N 269.014 -1.53014 -0.377408 0
M  V30 2957 C 269.924 -1.81557 -1.48574 0
M  V30 2958 C 270.94 -0.703102 -1.59162 0
M  V30 2959 O 272.116 -0.99192 -1.75279 0
M  V30 2960 C 269.181 -1.9889 -2.83978 0
M  V30 2961 C 268.242 -3.22801 -2.83016 0
M  V30 2962 C 267.475 -3.39298 -4.11962 0
M  V30 2963 O 267.698 -2.60345 -5.0752 0
M  V30 2964 O 266.632 -4.32604 -4.18494 0
M  V30 2965 H 270.458 -2.75695 -1.27382 0
M  V30 2966 H 268.043 -1.38248 -0.566373 0
M  V30 2967 H 269.925 -2.11931 -3.6423 0
M  V30 2968 H 268.6 -1.07942 -3.05172 0
M  V30 2969 H 267.507 -3.15193 -2.01505 0
M  V30 2970 H 268.84 -4.13632 -2.66775 0
M  V30 2971 N 270.492 0.636531 -1.44174 0
M  V30 2972 C 271.741 1.39213 -1.45954 0
M  V30 2973 C 272.054 1.95374 -0.0939119 0
M  V30 2974 O 273.26 2.71498 0.0107767 0
M  V30 2975 C 271.716 2.52025 -2.56927 0
M  V30 2976 C 271.324 2.024 -3.99673 0
M  V30 2977 C 273.068 3.29269 -2.67922 0
M  V30 2978 C 270.975 3.12521 -5.0208 0
M  V30 2979 H 269.905 0.523132 -0.542999 0
M  V30 2980 H 272.556 0.685349 -1.70221 0
M  V30 2981 H 270.938 3.25253 -2.25891 0
M  V30 2982 H 272.112 1.36073 -4.40251 0
M  V30 2983 H 270.427 1.37987 -3.92872 0
M  V30 2984 H 273.024 4.11352 -3.41605 0
M  V30 2985 H 273.367 3.78397 -1.73555 0
M  V30 2986 H 273.9 2.63129 -2.98342 0
M  V30 2987 H 270.639 2.68343 -5.98057 0
M  V30 2988 H 270.159 3.77507 -4.66099 0
M  V30 2989 H 271.838 3.77385 -5.25538 0
M  V30 2990 N 271.97 1.30982 0.876444 0
M  V30 2991 C 272.9 1.20668 1.99903 0
M  V30 2992 C 273.881 0.095354 1.69833 0
M  V30 2993 O 275.066 0.27885 1.92188 0
M  V30 2994 C 272.196 0.90655 3.3526 0
M  V30 2995 C 271.15 1.97675 3.79617 0
M  V30 2996 C 270.476 1.52943 5.1236 0
M  V30 2997 C 271.776 3.389 3.97422 0
M  V30 2998 H 273.47 2.14586 2.0879 0
M  V30 2999 H 271.016 1.03308 1.00317 0
M  V30 3000 H 272.969 0.821025 4.13324 0
M  V30 3001 H 271.693 -0.0682969 3.26529 0
M  V30 3002 H 270.352 2.05205 3.03787 0
M  V30 3003 H 270 0.54262 5.00065 0
M  V30 3004 H 269.7 2.24532 5.43009 0
M  V30 3005 H 271.224 1.45786 5.92941 0
M  V30 3006 H 272.638 3.34081 4.659 0
M  V30 3007 H 271.035 4.0865 4.3946 0
M  V30 3008 H 272.105 3.80163 3.01006 0
M  V30 3009 N 273.449 -1.08991 1.13837 0
M  V30 3010 C 274.679 -1.84743 0.924859 0
M  V30 3011 C 275.087 -1.81629 -0.529874 0
M  V30 3012 O 274.43 -1.21397 -1.37872 0
M  V30 3013 C 274.492 -3.33568 1.34061 0
M  V30 3014 C 274.156 -3.60425 2.80968 0
M  V30 3015 C 275.153 -3.55771 3.79108 0
M  V30 3016 C 272.838 -3.88627 3.18236 0
M  V30 3017 C 274.832 -3.78939 5.12527 0
M  V30 3018 C 272.519 -4.11449 4.51833 0
M  V30 3019 C 273.517 -4.06598 5.48787 0
M  V30 3020 O 273.205 -4.28826 6.79973 0
M  V30 3021 H 272.937 -0.590258 0.329502 0
M  V30 3022 H 275.491 -1.38598 1.51591 0
M  V30 3023 H 273.721 -3.80442 0.692853 0
M  V30 3024 H 275.41 -3.90743 1.09886 0
M  V30 3025 H 276.176 -3.34005 3.51661 0
M  V30 3026 H 272.055 -3.91526 2.43369 0
M  V30 3027 H 275.599 -3.75068 5.88192 0
M  V30 3028 H 271.496 -4.32698 4.79002 0
M  V30 3029 H 272.264 -4.46264 6.86142 0
M  V30 3030 N 274.927 -0.932562 -1.27047 0
M  V30 3031 C 276.152 -0.591474 -1.98787 0
M  V30 3032 C 276.577 0.824601 -1.69062 0
M  V30 3033 O 275.935 1.5541 -0.933677 0
M  V30 3034 C 275.983 -0.829808 -3.50922 0
M  V30 3035 O 275.087 0.102266 -4.12273 0
M  V30 3036 H 274.428 -0.227185 -0.623926 0
M  V30 3037 H 276.958 -1.25314 -1.61733 0
M  V30 3038 H 276.968 -0.747292 -4.01098 0
M  V30 3039 H 275.643 -1.86201 -3.7189 0
M  V30 3040 H 274.22 -0.0305761 -3.72887 0
M  V30 3041 N 276.405 1.4127 -0.698611 0
M  V30 3042 C 277.337 2.292 0.00399731 0
M  V30 3043 C 278.35 1.44944 0.741279 0
M  V30 3044 O 279.539 1.68416 0.591477 0
M  V30 3045 C 276.639 3.22875 1.02979 0
M  V30 3046 C 275.812 4.35904 0.36151 0
M  V30 3047 C 274.871 5.10134 1.29033 0
M  V30 3048 O 273.897 5.63809 0.781562 0
M  V30 3049 N 275.099 5.17885 2.6225 0
M  V30 3050 H 277.864 2.9014 -0.750921 0
M  V30 3051 H 275.425 1.52455 -0.544882 0
M  V30 3052 H 277.417 3.69404 1.65296 0
M  V30 3053 H 275.987 2.63221 1.68622 0
M  V30 3054 H 275.207 3.91719 -0.441584 0
M  V30 3055 H 276.495 5.08696 -0.103055 0
M  V30 3056 H 275.893 4.7573 3.061 0
M  V30 3057 H 274.45 5.6798 3.19754 0
M  V30 3058 N 277.883 0.443576 1.51229 0
M  V30 3059 C 279.132 -0.122332 2.01329 0
M  V30 3060 C 279.445 -1.43237 1.33201 0
M  V30 3061 O 280.651 -2.0816 1.74304 0
M  V30 3062 C 279.107 -0.268551 3.58897 0
M  V30 3063 C 278.715 1.03142 4.35965 0
M  V30 3064 C 280.459 -0.787894 4.17124 0
M  V30 3065 C 278.366 0.850504 5.85252 0
M  V30 3066 H 277.296 -0.0494929 0.752374 0
M  V30 3067 H 279.947 0.574289 1.74282 0
M  V30 3068 H 278.329 -1.02832 3.82415 0
M  V30 3069 H 279.503 1.80001 4.24189 0
M  V30 3070 H 277.818 1.47977 3.89219 0
M  V30 3071 H 280.415 -0.939841 5.26375 0
M  V30 3072 H 280.758 -1.77201 3.76703 0
M  V30 3073 H 281.291 -0.0862669 3.97706 0
M  V30 3074 H 278.03 1.80718 6.30096 0
M  V30 3075 H 277.55 0.121825 5.99676 0
M  V30 3076 H 279.229 0.506163 6.45017 0
M  V30 3077 N 279.361 -1.56624 0.175154 0
M  V30 3078 C 280.308 -2.18149 -0.753634 0
M  V30 3079 C 281.278 -1.12265 -1.22417 0
M  V30 3080 O 282.463 -1.40432 -1.29165 0
M  V30 3081 C 279.603 -2.82933 -1.97592 0
M  V30 3082 C 278.716 -4.03289 -1.5486 0
M  V30 3083 C 277.851 -4.55988 -2.72485 0
M  V30 3084 C 276.89 -5.68746 -2.26262 0
M  V30 3085 N 276.027 -6.15938 -3.36994 0
M  V30 3086 H 280.867 -2.9717 -0.222195 0
M  V30 3087 H 278.404 -1.46774 -0.0979422 0
M  V30 3088 H 280.362 -3.18653 -2.69288 0
M  V30 3089 H 278.992 -2.06509 -2.481 0
M  V30 3090 H 278.044 -3.73364 -0.728246 0
M  V30 3091 H 279.356 -4.849 -1.16933 0
M  V30 3092 H 278.51 -4.9391 -3.52332 0
M  V30 3093 H 277.249 -3.73443 -3.13674 0
M  V30 3094 H 276.254 -5.30372 -1.44863 0
M  V30 3095 H 277.479 -6.53095 -1.86127 0
M  V30 3096 H 275.425 -5.36321 -3.77751 0
M  V30 3097 H 275.342 -6.92548 -3.03172 0
M  V30 3098 H 276.61 -6.58511 -4.17114 0
M  V30 3099 N 280.839 0.0985539 -1.57292 0
M  V30 3100 C 281.749 1.13824 -2.05137 0
M  V30 3101 C 282.765 1.44076 -0.975604 0
M  V30 3102 O 283.941 1.54786 -1.28853 0
M  V30 3103 C 281.006 2.43969 -2.46333 0
M  V30 3104 C 280.067 2.2093 -3.68087 0
M  V30 3105 C 279.3 3.44869 -4.0731 0
M  V30 3106 O 279.523 4.52972 -3.46659 0
M  V30 3107 O 278.457 3.34661 -5.00285 0
M  V30 3108 H 282.283 0.761881 -2.93988 0
M  V30 3109 H 279.868 0.310818 -1.46131 0
M  V30 3110 H 281.75 3.20609 -2.73473 0
M  V30 3111 H 280.425 2.81038 -1.60621 0
M  V30 3112 H 279.332 1.42081 -3.46069 0
M  V30 3113 H 280.665 1.88755 -4.54568 0
M  V30 3114 N 282.317 1.53212 0.369288 0
M  V30 3115 C 283.227 1.82342 1.47609 0
M  V30 3116 C 284.243 0.711532 1.58787 0
M  V30 3117 O 285.419 1.0012 1.74751 0
M  V30 3118 C 282.484 2.00393 2.8292 0
M  V30 3119 C 281.545 3.24297 2.81301 0
M  V30 3120 C 280.778 3.41478 4.10157 0
M  V30 3121 O 281.001 2.63033 5.06132 0
M  V30 3122 O 279.935 4.34817 4.16194 0
M  V30 3123 H 283.761 2.76366 1.25918 0
M  V30 3124 H 281.346 1.38547 0.559034 0
M  V30 3125 H 283.228 2.13859 3.63101 0
M  V30 3126 H 281.903 1.09559 3.04596 0
M  V30 3127 H 280.81 3.16257 1.99831 0
M  V30 3128 H 282.143 4.15041 2.64578 0
M  V30 3129 N 283.795 -0.628877 1.44509 0
M  V30 3130 C 285.02 -1.42048 1.5112 0
M  V30 3131 C 285.445 -1.87594 0.137818 0
M  V30 3132 O 284.803 -1.58873 -0.873437 0
M  V30 3133 C 284.851 -2.61541 2.48251 0
M  V30 3134 O 283.955 -3.61453 1.98559 0
M  V30 3135 H 283.296 -0.424942 0.510216 0
M  V30 3136 H 285.826 -0.767374 1.89664 0
M  V30 3137 H 285.836 -3.09057 2.66361 0
M  V30 3138 H 284.511 -2.27736 3.48007 0
M  V30 3139 H 283.088 -3.20731 1.90227 0
M  V30 3140 N 285.273 -1.31445 -0.869486 0
M  V30 3141 C 286.521 -1.20918 -1.61936 0
M  V30 3142 C 286.842 0.232683 -1.93607 0
M  V30 3143 O 286.112 1.15352 -1.58338 0
M  V30 3144 H 284.692 -0.44454 -0.600328 0
M  V30 3145 H 287.354 -1.64776 -1.0409 0
M  V30 3146 H 286.45 -1.78124 -2.56278 0
M  V30 3147 N 286.751 1.08385 -1.14413 0
M  V30 3148 C 288 1.80153 -0.907076 0
M  V30 3149 C 288.313 1.87176 0.567851 0
M  V30 3150 O 289.519 2.55359 0.922172 0
M  V30 3151 C 287.975 3.23687 -1.57336 0
M  V30 3152 C 287.583 3.24897 -3.08457 0
M  V30 3153 C 289.327 4.00136 -1.41744 0
M  V30 3154 C 287.234 4.6302 -3.67921 0
M  V30 3155 H 286.164 0.675139 -0.335714 0
M  V30 3156 H 288.815 1.21733 -1.37307 0
M  V30 3157 H 287.197 3.82234 -1.03505 0
M  V30 3158 H 288.371 2.76055 -3.68958 0
M  V30 3159 H 286.686 2.61943 -3.2369 0
M  V30 3160 H 289.283 5.02201 -1.83572 0
M  V30 3161 H 289.626 4.14709 -0.363576 0
M  V30 3162 H 290.159 3.48058 -1.92614 0
M  V30 3163 H 286.898 4.5365 -4.73161 0
M  V30 3164 H 286.418 5.12143 -3.12201 0
M  V30 3165 H 288.097 5.31994 -3.68227 0
M  V30 3166 N 288.23 0.939286 1.26551 0
M  V30 3167 C 289.193 0.451987 2.24699 0
M  V30 3168 C 290.193 -0.435869 1.5478 0
M  V30 3169 O 291.383 -0.235314 1.72603 0
M  V30 3170 C 288.515 -0.348801 3.39111 0
M  V30 3171 H 289.708 1.3193 2.69322 0
M  V30 3172 H 287.261 0.721072 1.38673 0
M  V30 3173 H 287.996 -1.23444 2.99887 0
M  V30 3174 H 287.781 0.287945 3.91041 0
M  V30 3175 H 289.271 -0.679726 4.12031 0
M  V30 3176 N 289.708 -1.40897 0.706093 0
M  V30 3177 C 290.957 -2.00284 0.238574 0
M  V30 3178 C 291.27 -1.56604 -1.17194 0
M  V30 3179 O 292.476 -2.08624 -1.73748 0
M  V30 3180 C 290.932 -3.57934 0.375623 0
M  V30 3181 C 290.54 -4.10591 1.79217 0
M  V30 3182 C 292.284 -4.24488 -0.0315857 0
M  V30 3183 C 290.191 -5.60712 1.88032 0
M  V30 3184 H 289.121 -0.749144 0.0854398 0
M  V30 3185 H 291.772 -1.61251 0.875813 0
M  V30 3186 H 290.154 -3.94622 -0.330042 0
M  V30 3187 H 291.328 -3.85301 2.52745 0
M  V30 3188 H 289.643 -3.56601 2.15 0
M  V30 3189 H 292.24 -5.34698 0.0136842 0
M  V30 3190 H 292.583 -4.02261 -1.072 0
M  V30 3191 H 293.116 -3.92873 0.624181 0
M  V30 3192 H 289.855 -5.87781 2.90161 0
M  V30 3193 H 289.375 -5.87896 1.18903 0
M  V30 3194 H 291.054 -6.25658 1.64805 0
M  V30 3195 N 291.186 -0.45159 -1.50991 0
M  V30 3196 C 292.426 0.109066 -2.04109 0
M  V30 3197 C 292.79 1.38716 -1.32747 0
M  V30 3198 O 293.991 2.02896 -1.76314 0
M  V30 3199 C 292.262 0.308354 -3.56067 0
M  V30 3200 S 293.821 0.830369 -4.30872 0
M  V30 3201 H 290.639 0.0251531 -0.710555 0
M  V30 3202 H 293.241 -0.614264 -1.85599 0
M  V30 3203 H 291.945 -0.627962 -4.05567 0
M  V30 3204 H 291.476 1.05836 -3.78896 0
M  V30 3205 H 293.491 2.10626 -4.49279 0
M  V30 3206 N 292.664 1.56529 -0.183458 0
M  V30 3207 C 293.892 2.01623 0.464285 0
M  V30 3208 C 294.307 1.06366 1.55986 0
M  V30 3209 O 293.664 0.0665398 1.82379 0
M  V30 3210 C 293.715 3.46475 1.03139 0
M  V30 3211 O 293.436 4.38095 -0.0204675 0
M  V30 3212 C 294.937 4.0703 1.75617 0
M  V30 3213 H 292.157 0.660596 0.117704 0
M  V30 3214 H 294.701 2.02451 -0.288751 0
M  V30 3215 H 292.856 3.46383 1.73486 0
M  V30 3216 H 293.27 5.22973 0.399952 0
M  V30 3217 H 294.744 5.10271 2.10542 0
M  V30 3218 H 295.221 3.49819 2.65563 0
M  V30 3219 H 295.827 4.1086 1.09882 0
M  V30 3220 N 294.142 -0.090211 1.57342 0
M  V30 3221 C 295.075 -1.14035 1.97664 0
M  V30 3222 C 296.053 -1.38576 0.850616 0
M  V30 3223 O 297.237 -1.52255 1.11134 0
M  V30 3224 C 294.364 -2.48854 2.2976 0
M  V30 3225 C 293.41 -2.40564 3.52181 0
M  V30 3226 S 294.243 -1.81745 5.03715 0
M  V30 3227 C 295.399 -3.18178 5.38993 0
M  V30 3228 H 295.632 -0.796636 2.86428 0
M  V30 3229 H 293.165 -0.298072 1.51496 0
M  V30 3230 H 295.123 -3.26413 2.48927 0
M  V30 3231 H 293.784 -2.80393 1.41558 0
M  V30 3232 H 292.977 -3.39942 3.72096 0
M  V30 3233 H 292.579 -1.71135 3.32549 0
M  V30 3234 H 294.871 -4.14461 5.35937 0
M  V30 3235 H 295.814 -3.03062 6.39968 0
M  V30 3236 H 296.222 -3.17935 4.66452 0
M  V30 3237 N 295.62 -1.53406 -0.361157 0
M  V30 3238 C 296.866 -1.70054 -1.10496 0
M  V30 3239 C 297.199 -0.453278 -1.88836 0
M  V30 3240 O 296.474 0.5495 -1.86576 0
M  V30 3241 C 296.757 -2.95317 -2.06058 0
M  V30 3242 C 296.61 -4.3021 -1.31298 0
M  V30 3243 C 297.929 -3.16193 -3.06121 0
M  V30 3244 H 295.048 -0.618799 -0.400321 0
M  V30 3245 H 297.69 -1.86052 -0.385318 0
M  V30 3246 H 295.84 -2.81809 -2.67425 0
M  V30 3247 H 297.512 -4.55538 -0.726807 0
M  V30 3248 H 295.755 -4.29421 -0.614853 0
M  V30 3249 H 296.426 -5.14 -2.01265 0
M  V30 3250 H 298.902 -3.28916 -2.5486 0
M  V30 3251 H 297.778 -4.05266 -3.70204 0
M  V30 3252 H 298.039 -2.31676 -3.76535 0
M  V30 3253 N 297.098 0.621204 -1.44841 0
M  V30 3254 C 298.328 1.40548 -1.51426 0
M  V30 3255 C 298.736 1.88673 -0.141083 0
M  V30 3256 O 298.079 1.62053 0.865128 0
M  V30 3257 C 298.141 2.65325 -2.42576 0
M  V30 3258 C 297.805 2.3893 -3.89566 0
M  V30 3259 C 298.802 2.00138 -4.79834 0
M  V30 3260 C 296.487 2.52263 -4.3436 0
M  V30 3261 C 298.481 1.75021 -6.129 0
M  V30 3262 C 296.168 2.2676 -5.67471 0
M  V30 3263 C 297.166 1.88199 -6.56559 0
M  V30 3264 O 296.854 1.62986 -7.87204 0
M  V30 3265 H 296.586 0.437122 -0.515655 0
M  V30 3266 H 299.14 0.765987 -1.90583 0
M  V30 3267 H 297.37 3.31947 -1.98364 0
M  V30 3268 H 299.059 3.27347 -2.39998 0
M  V30 3269 H 299.825 1.89386 -4.46495 0
M  V30 3270 H 295.704 2.81246 -3.65269 0
M  V30 3271 H 299.248 1.44848 -6.82396 0
M  V30 3272 H 295.145 2.37125 -6.00368 0
M  V30 3273 H 295.913 1.7715 -7.991 0
M  V30 3274 N 298.576 1.31904 0.862503 0
M  V30 3275 C 299.987 1.19803 1.43193 0
M  V30 3276 C 300.338 -0.192567 1.95253 0
M  V30 3277 O 299.463 -1.09081 1.86896 0
M  V30 3278 C 300.058 2.16883 2.60283 0
M  V30 3279 C 298.617 2.08692 3.13248 0
M  V30 3280 C 297.764 2.05691 1.85975 0
M  V30 3281 H 300.715 1.43846 0.670365 0
M  V30 3282 H 300.736 1.76278 3.37204 0
M  V30 3283 H 300.248 3.18083 2.22363 0
M  V30 3284 H 298.349 1.10713 3.55771 0
M  V30 3285 H 298.462 2.9815 3.75025 0
M  V30 3286 H 296.826 1.50814 2.05249 0
M  V30 3287 H 297.609 3.08659 1.50282 0
M  V30 3288 N 300.054 -1.07777 1.14986 0
M  V30 3289 C 301.279 -1.84558 0.946213 0
M  V30 3290 C 301.704 -1.81323 -0.500362 0
M  V30 3291 O 301.062 -1.20301 -1.35637 0
M  V30 3292 C 301.11 -3.29736 1.45968 0
M  V30 3293 O 300.214 -4.07149 0.65601 0
M  V30 3294 H 299.555 -0.571641 0.33782 0
M  V30 3295 H 302.085 -1.35991 1.52865 0
M  V30 3296 H 302.095 -3.80574 1.47063 0
M  V30 3297 H 300.77 -3.31406 2.51283 0
M  V30 3298 H 299.347 -3.65994 0.714322 0
M  V30 3299 N 301.532 -0.945985 -1.26051 0
M  V30 3300 C 302.809 -0.513816 -1.88731 0
M  V30 3301 C 303.189 1.00872 -1.8544 0
M  V30 3302 O 302.537 1.8708 -1.312 0
M  V30 3303 C 302.747 -1.08062 -3.31849 0
M  V30 3304 C 304.095 -1.1522 -4.08668 0
M  V30 3305 O 305.119 -1.03155 -3.40936 0
M  V30 3306 O 303.978 -1.34044 -5.29806 0
M  V30 3307 H 301.072 -0.168193 -0.809716 0
M  V30 3308 H 303.618 -1.03886 -1.34186 0
M  V30 3309 H 302.39 -2.1241 -3.2863 0
M  V30 3310 H 302.013 -0.538307 -3.93939 0
M  V30 3311 N 303.011 1.40521 -0.713556 0
M  V30 3312 C 303.921 2.34522 -0.0606667 0
M  V30 3313 C 304.937 1.57193 0.74607 0
M  V30 3314 O 306.113 1.89591 0.679493 0
M  V30 3315 C 303.178 3.36081 0.851491 0
M  V30 3316 C 302.239 4.29286 0.0349339 0
M  V30 3317 C 301.472 5.25994 0.903649 0
M  V30 3318 O 301.695 5.28616 2.14292 0
M  V30 3319 O 300.629 6.00918 0.343723 0
M  V30 3320 H 304.455 2.91968 -0.835972 0
M  V30 3321 H 302.04 1.41681 -0.47402 0
M  V30 3322 H 303.922 3.98369 1.37404 0
M  V30 3323 H 302.597 2.81052 1.60598 0
M  V30 3324 H 301.504 3.70289 -0.532633 0
M  V30 3325 H 302.837 4.87462 -0.681287 0
M  V30 3326 N 304.489 0.459591 1.5075 0
M  V30 3327 C 305.714 -0.0996819 2.0716 0
M  V30 3328 C 306.139 -1.33761 1.32249 0
M  V30 3329 O 305.497 -1.77551 0.366786 0
M  V30 3330 C 305.545 -0.378226 3.58611 0
M  V30 3331 O 304.649 -1.46081 3.85661 0
M  V30 3332 H 303.99 0.00791392 0.663953 0
M  V30 3333 H 306.52 0.647329 1.9409 0
M  V30 3334 H 306.53 -0.622135 4.03229 0
M  V30 3335 H 305.205 0.526439 4.12555 0
M  V30 3336 H 303.782 -1.20511 3.5289 0
M  V30 3337 N 305.967 -1.56429 0.191757 0
M  V30 3338 C 307.195 -2.01867 -0.453586 0
M  V30 3339 C 307.61 -1.07191 -1.5542 0
M  V30 3340 O 306.967 -0.0762108 -1.82341 0
M  V30 3341 C 307.018 -3.47017 -1.013 0
M  V30 3342 O 306.739 -4.38078 0.0437005 0
M  V30 3343 C 308.24 -4.07956 -1.73456 0
M  V30 3344 H 305.46 -0.661211 -0.114199 0
M  V30 3345 H 308.004 -2.02295 0.299483 0
M  V30 3346 H 306.159 -3.47298 -1.71647 0
M  V30 3347 H 306.573 -5.23178 -0.372212 0
M  V30 3348 H 308.047 -5.1138 -2.07833 0
M  V30 3349 H 308.524 -3.51222 -2.63704 0
M  V30 3350 H 309.13 -4.11437 -1.07702 0
M  V30 3351 N 307.445 0.0818655 -1.57387 0
M  V30 3352 C 308.392 1.09834 -2.0299 0
M  V30 3353 C 309.362 1.39043 -0.908639 0
M  V30 3354 O 310.547 1.50282 -1.17559 0
M  V30 3355 C 307.687 2.40971 -2.47037 0
M  V30 3356 C 306.8 2.18379 -3.7274 0
M  V30 3357 C 305.935 3.43008 -4.0561 0
M  V30 3358 C 304.974 3.15736 -5.24383 0
M  V30 3359 N 304.111 4.32667 -5.52941 0
M  V30 3360 H 308.951 0.702472 -2.89602 0
M  V30 3361 H 306.488 0.33531 -1.43227 0
M  V30 3362 H 308.446 3.1752 -2.70623 0
M  V30 3363 H 307.076 2.78379 -1.63417 0
M  V30 3364 H 306.128 1.32569 -3.56552 0
M  V30 3365 H 307.44 1.94227 -4.59431 0
M  V30 3366 H 306.594 4.27958 -4.30043 0
M  V30 3367 H 305.333 3.70225 -3.17466 0
M  V30 3368 H 304.338 2.2918 -4.99757 0
M  V30 3369 H 305.563 2.8985 -6.14136 0
M  V30 3370 H 303.509 4.59935 -4.67756 0
M  V30 3371 H 303.426 4.11753 -6.34031 0
M  V30 3372 H 304.694 5.18644 -5.81918 0
M  V30 3373 N 308.923 1.53595 0.353017 0
M  V30 3374 C 309.853 1.83902 1.43883 0
M  V30 3375 C 310.834 0.693421 1.55324 0
M  V30 3376 O 312.019 0.944452 1.69687 0
M  V30 3377 C 309.149 2.04016 2.8106 0
M  V30 3378 C 308.103 3.19814 2.84434 0
M  V30 3379 C 307.429 3.25244 4.24406 0
M  V30 3380 C 308.729 4.58133 2.50822 0
M  V30 3381 H 310.423 2.74835 1.1877 0
M  V30 3382 H 307.969 1.32242 0.569917 0
M  V30 3383 H 309.922 2.238 3.57059 0
M  V30 3384 H 308.646 1.09804 3.07588 0
M  V30 3385 H 307.305 2.9987 2.10887 0
M  V30 3386 H 306.953 2.28646 4.48029 0
M  V30 3387 H 306.653 4.03054 4.27576 0
M  V30 3388 H 308.177 3.47228 5.0226 0
M  V30 3389 H 309.591 4.77995 3.16534 0
M  V30 3390 H 307.988 5.38276 2.6529 0
M  V30 3391 H 309.058 4.62387 1.46034 0
M  V30 3392 N 310.401 -0.613514 1.45168 0
M  V30 3393 C 311.348 -1.72456 1.53387 0
M  V30 3394 C 312.318 -1.6169 0.380191 0
M  V30 3395 O 313.503 -1.81356 0.592836 0
M  V30 3396 C 310.643 -3.10753 1.50088 0
M  V30 3397 C 309.756 -3.32368 2.75963 0
M  V30 3398 C 308.891 -4.60737 2.64376 0
M  V30 3399 C 307.93 -4.7559 3.85332 0
M  V30 3400 N 307.067 -5.95253 3.72315 0
M  V30 3401 H 311.907 -1.64768 2.48305 0
M  V30 3402 H 309.444 -0.803503 1.23216 0
M  V30 3403 H 311.402 -3.90758 1.46164 0
M  V30 3404 H 310.032 -3.17413 0.587243 0
M  V30 3405 H 309.084 -2.4618 2.89999 0
M  V30 3406 H 310.396 -3.39218 3.65695 0
M  V30 3407 H 309.55 -5.48928 2.58385 0
M  V30 3408 H 308.289 -4.56275 1.72233 0
M  V30 3409 H 307.294 -3.85824 3.91688 0
M  V30 3410 H 308.519 -4.81854 4.78533 0
M  V30 3411 H 306.465 -5.91847 2.82937 0
M  V30 3412 H 306.382 -6.03236 4.55677 0
M  V30 3413 H 307.65 -6.85958 3.70246 0
M  V30 3414 N 311.879 -1.3236 -0.855495 0
M  V30 3415 C 313.104 -1.2601 -1.64731 0
M  V30 3416 C 313.529 0.169068 -1.87339 0
M  V30 3417 O 312.887 1.12016 -1.42556 0
M  V30 3418 C 312.935 -2.02417 -2.98429 0
M  V30 3419 O 312.039 -1.3714 -3.8893 0
M  V30 3420 H 311.38 -0.434325 -0.502253 0
M  V30 3421 H 313.91 -1.74661 -1.06558 0
M  V30 3422 H 313.92 -2.12559 -3.48257 0
M  V30 3423 H 312.595 -3.06343 -2.81295 0
M  V30 3424 H 311.172 -1.3554 -3.47395 0
M  V30 3425 N 313.357 1.07166 -1.15556 0
M  V30 3426 C 314.32 2.12589 -0.856644 0
M  V30 3427 C 315.32 1.6015 0.14444 0
M  V30 3428 O 316.51 1.7399 -0.0854163 0
M  V30 3429 C 313.642 3.39753 -0.279405 0
M  V30 3430 H 314.835 2.40539 -1.79112 0
M  V30 3431 H 312.388 1.23086 -0.963298 0
M  V30 3432 H 313.123 3.17447 0.663174 0
M  V30 3433 H 312.908 3.79117 -1.00063 0
M  V30 3434 H 314.398 4.17507 -0.0879113 0
M  V30 3435 N 314.835 0.952656 1.25548 0
M  V30 3436 C 316.081 0.607272 1.93494 0
M  V30 3437 C 316.414 -0.853245 1.74452 0
M  V30 3438 O 315.689 -1.61194 1.08843 0
M  V30 3439 C 315.972 0.96435 3.46947 0
M  V30 3440 C 315.825 2.48045 3.75225 0
M  V30 3441 C 317.144 0.487987 4.37386 0
M  V30 3442 H 314.263 0.222096 0.702739 0
M  V30 3443 H 316.905 1.18895 1.48203 0
M  V30 3444 H 315.055 0.469361 3.85654 0
M  V30 3445 H 316.727 3.04905 3.46166 0
M  V30 3446 H 314.97 2.919 3.209 0
M  V30 3447 H 315.641 2.6808 4.82532 0
M  V30 3448 H 318.117 0.912558 4.0597 0
M  V30 3449 H 316.993 0.766547 5.43521 0
M  V30 3450 H 317.254 -0.612063 4.37843 0
M  V30 3451 N 316.313 -1.40141 0.720998 0
M  V30 3452 C 317.243 -2.33339 0.0867621 0
M  V30 3453 C 318.224 -1.53178 -0.739622 0
M  V30 3454 O 319.409 -1.81625 -0.687449 0
M  V30 3455 C 316.539 -3.37194 -0.831728 0
M  V30 3456 C 315.493 -4.27857 -0.110558 0
M  V30 3457 C 314.819 -5.22294 -1.14513 0
M  V30 3458 C 316.119 -5.11872 1.0385 0
M  V30 3459 H 317.813 -2.86626 0.865219 0
M  V30 3460 H 315.359 -1.37814 0.417516 0
M  V30 3461 H 317.312 -4.01335 -1.28485 0
M  V30 3462 H 316.036 -2.82314 -1.64214 0
M  V30 3463 H 314.695 -3.65176 0.322797 0
M  V30 3464 H 314.343 -4.63717 -1.94874 0
M  V30 3465 H 314.043 -5.83797 -0.667446 0
M  V30 3466 H 315.567 -5.89312 -1.59824 0
M  V30 3467 H 316.981 -5.69436 0.664482 0
M  V30 3468 H 315.378 -5.82445 1.4449 0
M  V30 3469 H 316.448 -4.4753 1.86668 0
M  V30 3470 N 317.792 -0.46758 -1.50504 0
M  V30 3471 C 319.02 0.0864133 -2.06719 0
M  V30 3472 C 319.435 1.33819 -1.33184 0
M  V30 3473 O 318.792 1.78061 -0.400083 0
M  V30 3474 C 318.843 0.378079 -3.59517 0
M  V30 3475 O 318.564 -0.824044 -4.3028 0
M  V30 3476 C 320.065 0.979426 -4.32345 0
M  V30 3477 H 317.285 -0.00551697 -0.670977 0
M  V30 3478 H 319.829 -0.655354 -1.93715 0
M  V30 3479 H 317.984 1.06977 -3.72337 0
M  V30 3480 H 318.398 -0.566518 -5.21432 0
M  V30 3481 H 319.872 1.1333 -5.40241 0
M  V30 3482 H 320.349 1.9686 -3.9261 0
M  V30 3483 H 320.955 0.326216 -4.24047 0
M  V30 3484 N 319.27 1.56325 -0.20005 0
M  V30 3485 C 320.2 2.22318 0.713916 0
M  V30 3486 C 321.181 1.18788 1.21752 0
M  V30 3487 O 322.366 1.47309 1.26545 0
M  V30 3488 C 319.496 2.88639 1.93144 0
M  V30 3489 C 318.45 3.98457 1.56255 0
M  V30 3490 C 317.776 4.51967 2.85709 0
M  V30 3491 C 319.076 5.16612 0.768747 0
M  V30 3492 H 320.77 2.98952 0.163755 0
M  V30 3493 H 318.316 1.43792 0.0773219 0
M  V30 3494 H 320.269 3.33491 2.57608 0
M  V30 3495 H 318.993 2.09419 2.50621 0
M  V30 3496 H 317.652 3.54305 0.941471 0
M  V30 3497 H 317.3 3.69503 3.41287 0
M  V30 3498 H 317 5.26071 2.6177 0
M  V30 3499 H 318.524 4.99523 3.51154 0
M  V30 3500 H 319.938 5.57977 1.3166 0
M  V30 3501 H 318.335 5.96812 0.627286 0
M  V30 3502 H 319.405 4.84358 -0.229168 0
M  V30 3503 N 320.748 -0.0735177 1.57428 0
M  V30 3504 C 321.695 -1.08756 2.0357 0
M  V30 3505 C 322.665 -1.38559 0.916 0
M  V30 3506 O 323.85 -1.49656 1.18354 0
M  V30 3507 C 320.99 -2.39657 2.48311 0
M  V30 3508 C 320.103 -2.16399 3.73892 0
M  V30 3509 C 319.238 -3.40852 4.07423 0
M  V30 3510 C 318.277 -3.1295 5.2605 0
M  V30 3511 N 317.414 -4.29729 5.55228 0
M  V30 3512 H 322.254 -0.687104 2.8997 0
M  V30 3513 H 319.791 -0.327709 1.43403 0
M  V30 3514 H 321.749 -3.16081 2.72303 0
M  V30 3515 H 320.379 -2.77508 1.64891 0
M  V30 3516 H 319.431 -1.30676 3.57251 0
M  V30 3517 H 320.743 -1.91788 4.60455 0
M  V30 3518 H 319.897 -4.25671 4.32306 0
M  V30 3519 H 318.636 -3.68537 3.19425 0
M  V30 3520 H 317.641 -2.26526 5.00965 0
M  V30 3521 H 318.866 -2.86589 6.15665 0
M  V30 3522 H 316.812 -4.57448 4.70188 0
M  V30 3523 H 316.729 -4.08385 6.36206 0
M  V30 3524 H 317.997 -5.1555 5.84661 0
M  V30 3525 N 322.226 -1.5378 -0.344866 0
M  V30 3526 C 323.472 -1.71216 -1.08687 0
M  V30 3527 C 323.805 -0.473281 -1.88345 0
M  V30 3528 O 323.08 0.52968 -1.87149 0
M  V30 3529 C 323.363 -2.97486 -2.02914 0
M  V30 3530 C 323.216 -4.31579 -1.26727 0
M  V30 3531 C 324.535 -3.19422 -3.0275 0
M  V30 3532 H 321.654 -0.62301 -0.393735 0
M  V30 3533 H 324.296 -1.8645 -0.365563 0
M  V30 3534 H 322.446 -2.84629 -2.64421 0
M  V30 3535 H 324.118 -4.56284 -0.67845 0
M  V30 3536 H 322.361 -4.30049 -0.569273 0
M  V30 3537 H 323.032 -5.16106 -1.95803 0
M  V30 3538 H 325.508 -3.316 -2.51357 0
M  V30 3539 H 324.384 -4.09169 -3.65885 0
M  V30 3540 H 324.645 -2.35656 -3.74057 0
M  V30 3541 N 323.704 0.605807 -1.45491 0
M  V30 3542 C 324.953 1.36086 -1.48874 0
M  V30 3543 C 325.266 1.95131 -0.135333 0
M  V30 3544 O 326.472 2.7146 -0.0468144 0
M  V30 3545 C 324.928 2.46518 -2.62215 0
M  V30 3546 C 324.536 1.93877 -4.03876 0
M  V30 3547 C 326.28 3.23512 -2.74846 0
M  V30 3548 C 324.187 3.01801 -5.08596 0
M  V30 3549 H 323.117 0.511497 -0.553974 0
M  V30 3550 H 325.768 0.649089 -1.71636 0
M  V30 3551 H 324.15 3.20388 -2.32739 0
M  V30 3552 H 325.324 1.26704 -4.43038 0
M  V30 3553 H 323.639 1.29622 -3.95711 0
M  V30 3554 H 326.236 4.04013 -3.50253 0
M  V30 3555 H 326.579 3.74631 -1.81542 0
M  V30 3556 H 327.112 2.56742 -3.03856 0
M  V30 3557 H 323.851 2.55597 -6.03614 0
M  V30 3558 H 323.371 3.67535 -4.74002 0
M  V30 3559 H 325.05 3.66152 -5.33424 0
M  V30 3560 N 325.182 1.32811 0.848464 0
M  V30 3561 C 326.112 1.24882 1.97299 0
M  V30 3562 C 327.093 0.131357 1.69592 0
M  V30 3563 O 328.278 0.319553 1.91553 0
M  V30 3564 C 325.408 0.97746 3.33261 0
M  V30 3565 C 324.362 2.05682 3.75338 0
M  V30 3566 C 323.688 1.63777 5.09 0
M  V30 3567 C 324.988 3.47254 3.90144 0
M  V30 3568 H 326.682 2.18966 2.04191 0
M  V30 3569 H 324.228 1.05413 0.981029 0
M  V30 3570 H 326.181 0.908513 4.1149 0
M  V30 3571 H 324.905 0.000980011 3.266 0
M  V30 3572 H 323.564 2.11603 2.99366 0
M  V30 3573 H 323.212 0.648569 4.98801 0
M  V30 3574 H 322.912 2.36 5.38124 0
M  V30 3575 H 324.436 1.5833 5.89715 0
M  V30 3576 H 325.85 3.43888 4.58709 0
M  V30 3577 H 324.247 4.1788 4.30693 0
M  V30 3578 H 325.317 3.86462 2.92874 0
M  V30 3579 N 326.66 -1.06551 1.16123 0
M  V30 3580 C 327.908 -1.78947 0.939267 0
M  V30 3581 C 328.229 -1.87532 -0.534476 0
M  V30 3582 O 327.499 -1.38211 -1.38833 0
M  V30 3583 H 326.079 -0.662807 0.344523 0
M  V30 3584 H 328.741 -1.28725 1.46342 0
M  V30 3585 H 327.837 -2.81117 1.35572 0
M  V30 3586 N 328.138 -0.959301 -1.25041 0
M  V30 3587 C 329.385 -0.616611 -1.92884 0
M  V30 3588 C 329.713 0.847036 -1.75087 0
M  V30 3589 O 328.968 1.62374 -1.09239 0
M  V30 3590 C 329.267 -0.927136 -3.45165 0
M  V30 3591 C 328.933 -2.37757 -3.83122 0
M  V30 3592 C 327.595 -2.77402 -3.93194 0
M  V30 3593 C 329.947 -3.31929 -4.01836 0
M  V30 3594 C 327.275 -4.10277 -4.19392 0
M  V30 3595 C 329.627 -4.64423 -4.29528 0
M  V30 3596 C 328.291 -5.03857 -4.37818 0
M  V30 3597 H 327.561 -0.225634 -0.705812 0
M  V30 3598 H 330.208 -1.20921 -1.48493 0
M  V30 3599 H 328.513 -0.252195 -3.90987 0
M  V30 3600 H 330.21 -0.6405 -3.95852 0
M  V30 3601 H 326.8 -2.06013 -3.75841 0
M  V30 3602 H 330.984 -3.02488 -3.93465 0
M  V30 3603 H 326.24 -4.40467 -4.24027 0
M  V30 3604 H 330.414 -5.37369 -4.42953 0
M  V30 3605 H 328.041 -6.06843 -4.57871 0
M  V30 3606 N 329.616 1.39756 -0.72842 0
M  V30 3607 C 330.863 2.00645 -0.273487 0
M  V30 3608 C 331.191 1.57786 1.13727 0
M  V30 3609 O 330.446 0.794886 1.7883 0
M  V30 3610 C 330.745 3.56002 -0.315776 0
M  V30 3611 C 330.411 4.18489 -1.67863 0
M  V30 3612 C 329.073 4.3527 -2.05166 0
M  V30 3613 C 331.425 4.53219 -2.57375 0
M  V30 3614 C 328.753 4.84069 -3.31503 0
M  V30 3615 C 331.105 5.03423 -3.83077 0
M  V30 3616 C 329.769 5.18413 -4.20481 0
M  V30 3617 H 329.039 0.734211 -0.100076 0
M  V30 3618 H 331.686 1.6718 -0.933972 0
M  V30 3619 H 329.991 3.89452 0.428285 0
M  V30 3620 H 331.688 4.00963 0.0542575 0
M  V30 3621 H 328.278 4.05824 -1.37858 0
M  V30 3622 H 332.462 4.39878 -2.29827 0
M  V30 3623 H 327.718 4.93859 -3.60435 0
M  V30 3624 H 331.892 5.2927 -4.52599 0
M  V30 3625 H 329.519 5.55987 -5.18443 0
M  V30 3626 N 331.094 0.475555 1.50254 0
M  V30 3627 C 332.024 -0.30611 2.31485 0
M  V30 3628 C 333.005 -0.986228 1.38591 0
M  V30 3629 O 334.19 -0.982541 1.67511 0
M  V30 3630 C 331.32 -1.38588 3.1845 0
M  V30 3631 C 330.274 -0.827115 4.19932 0
M  V30 3632 C 329.6 -2.00551 4.95665 0
M  V30 3633 C 330.9 0.16463 5.2204 0
M  V30 3634 H 332.594 0.371866 2.97082 0
M  V30 3635 H 330.14 0.180282 1.42867 0
M  V30 3636 H 332.093 -1.94023 3.74076 0
M  V30 3637 H 330.817 -2.09269 2.50747 0
M  V30 3638 H 329.476 -0.294702 3.65414 0
M  V30 3639 H 329.124 -2.6994 4.2443 0
M  V30 3640 H 328.824 -1.63784 5.64313 0
M  V30 3641 H 330.348 -2.56468 5.54127 0
M  V30 3642 H 331.762 -0.300699 5.72511 0
M  V30 3643 H 330.159 0.446813 5.98434 0
M  V30 3644 H 331.229 1.08905 4.72512 0
M  V30 3645 N 332.573 -1.56217 0.208337 0
M  V30 3646 C 333.984 -1.84243 -0.301904 0
M  V30 3647 C 334.335 -1.12939 -1.60434 0
M  V30 3648 O 333.46 -0.39461 -2.12772 0
M  V30 3649 C 334.055 -3.34231 -0.554543 0
M  V30 3650 C 332.614 -3.62621 -1.00912 0
M  V30 3651 C 331.761 -2.77224 -0.064933 0
M  V30 3652 H 334.712 -1.52712 0.431833 0
M  V30 3653 H 334.733 -3.5372 -1.40223 0
M  V30 3654 H 334.245 -3.86099 0.393561 0
M  V30 3655 H 332.346 -3.16197 -1.97104 0
M  V30 3656 H 332.459 -4.7071 -0.892674 0
M  V30 3657 H 330.823 -2.48256 -0.56929 0
M  V30 3658 H 331.606 -3.31887 0.877851 0
M  V30 3659 N 334.051 0.0651679 -1.57465 0
M  V30 3660 C 335.298 0.763063 -1.87573 0
M  V30 3661 C 335.626 1.77242 -0.800961 0
M  V30 3662 O 334.881 1.94651 0.202316 0
M  V30 3663 C 335.18 1.50081 -3.24362 0
M  V30 3664 C 334.846 0.630816 -4.46466 0
M  V30 3665 C 333.508 0.391082 -4.79608 0
M  V30 3666 C 335.86 0.0279465 -5.21193 0
M  V30 3667 C 333.188 -0.460894 -5.84887 0
M  V30 3668 C 335.54 -0.811522 -6.27373 0
M  V30 3669 C 334.204 -1.06106 -6.59013 0
M  V30 3670 H 333.474 0.279224 -0.686378 0
M  V30 3671 H 336.121 0.0236726 -1.91485 0
M  V30 3672 H 334.426 2.31258 -3.16271 0
M  V30 3673 H 336.123 2.04571 -3.44894 0
M  V30 3674 H 332.713 0.8278 -4.2053 0
M  V30 3675 H 336.897 0.200262 -4.95896 0
M  V30 3676 H 332.153 -0.662907 -6.07796 0
M  V30 3677 H 336.327 -1.28537 -6.84435 0
M  V30 3678 H 333.954 -1.723 -7.40417 0
M  V30 3679 N 335.529 1.53961 0.336706 0
M  V30 3680 C 336.775 1.7179 1.07777 0
M  V30 3681 C 337.108 0.483263 1.88091 0
M  V30 3682 O 336.383 -0.519747 1.87427 0
M  V30 3683 C 336.666 2.98558 2.01334 0
M  V30 3684 C 336.519 4.32245 1.24437 0
M  V30 3685 C 337.838 3.21023 3.01052 0
M  V30 3686 H 334.957 0.625089 0.390426 0
M  V30 3687 H 337.599 1.86641 0.35567 0
M  V30 3688 H 335.749 2.86028 2.62908 0
M  V30 3689 H 337.421 4.56637 0.654243 0
M  V30 3690 H 335.664 4.30344 0.546458 0
M  V30 3691 H 336.335 5.17137 1.93063 0
M  V30 3692 H 338.811 3.32929 2.49595 0
M  V30 3693 H 337.687 4.11104 3.6371 0
M  V30 3694 H 337.948 2.37637 3.72802 0
M  V30 3695 N 337.007 -0.598083 1.45811 0
M  V30 3696 C 338.253 -1.35882 1.50545 0
M  V30 3697 C 338.586 -1.93616 0.150445 0
M  V30 3698 O 337.861 -1.75604 -0.83628 0
M  V30 3699 C 338.144 -2.49966 2.59208 0
M  V30 3700 C 337.997 -1.97367 4.04186 0
M  V30 3701 C 339.316 -3.52068 2.64076 0
M  V30 3702 H 336.435 -0.492717 0.548087 0
M  V30 3703 H 339.077 -0.673319 1.77669 0
M  V30 3704 H 337.227 -3.08443 2.3621 0
M  V30 3705 H 338.899 -1.43466 4.38423 0
M  V30 3706 H 337.142 -1.283 4.14393 0
M  V30 3707 H 337.813 -2.79649 4.75921 0
M  V30 3708 H 340.289 -3.03448 2.84708 0
M  V30 3709 H 339.165 -4.2937 3.41954 0
M  V30 3710 H 339.426 -4.08304 1.69531 0
M  V30 3711 N 338.485 -1.33259 -0.841409 0
M  V30 3712 C 339.418 -1.1764 -1.95541 0
M  V30 3713 C 340.396 -0.072501 -1.62438 0
M  V30 3714 O 341.58 -0.23427 -1.87039 0
M  V30 3715 C 338.707 -0.803794 -3.29024 0
M  V30 3716 C 337.753 -1.91482 -3.81099 0
M  V30 3717 S 338.586 -3.52538 -4.03085 0
M  V30 3718 C 339.742 -3.17279 -5.39523 0
M  V30 3719 H 339.975 -2.11941 -2.08491 0
M  V30 3720 H 337.508 -1.18072 -0.9949 0
M  V30 3721 H 339.466 -0.595592 -4.06156 0
M  V30 3722 H 338.127 0.120574 -3.13868 0
M  V30 3723 H 337.32 -1.60742 -4.7768 0
M  V30 3724 H 336.922 -2.07956 -3.10854 0
M  V30 3725 H 339.214 -2.67946 -6.22263 0
M  V30 3726 H 340.157 -4.1293 -5.75234 0
M  V30 3727 H 340.565 -2.53943 -5.04156 0
M  V30 3728 N 339.963 1.05934 -1.16686 0
M  V30 3729 C 340.926 2.11669 -0.879144 0
M  V30 3730 C 341.926 1.60294 0.127445 0
M  V30 3731 O 343.116 1.7389 -0.103865 0
M  V30 3732 C 340.248 3.39438 -0.315425 0
M  V30 3733 H 341.441 2.38626 -1.81653 0
M  V30 3734 H 338.994 1.22058 -0.976299 0
M  V30 3735 H 339.729 3.18132 0.629468 0
M  V30 3736 H 339.514 3.78034 -1.04079 0
M  V30 3737 H 341.004 4.17391 -0.132189 0
M  V30 3738 N 341.441 0.965919 1.2453 0
M  V30 3739 C 342.681 0.634656 1.94297 0
M  V30 3740 C 343.045 -0.814822 1.73852 0
M  V30 3741 O 344.246 -1.25622 2.3764 0
M  V30 3742 C 342.517 0.99702 3.43212 0
M  V30 3743 S 344.076 0.780038 4.31811 0
M  V30 3744 H 340.894 0.232893 0.671775 0
M  V30 3745 H 343.496 1.24249 1.50938 0
M  V30 3746 H 342.2 2.04886 3.55598 0
M  V30 3747 H 341.731 0.379888 3.91562 0
M  V30 3748 H 343.746 -0.343512 4.9501 0
M  V30 3749 N 342.919 -1.39368 0.735821 0
M  V30 3750 C 344.159 -2.02349 0.288813 0
M  V30 3751 C 344.523 -1.57127 -1.10341 0
M  V30 3752 O 345.724 -2.12312 -1.64854 0
M  V30 3753 C 343.995 -3.55288 0.387986 0
M  V30 3754 S 345.554 -4.38795 0.0209408 0
M  V30 3755 H 342.372 -0.701944 0.113115 0
M  V30 3756 H 344.974 -1.70164 0.962518 0
M  V30 3757 H 343.678 -3.85691 1.40252 0
M  V30 3758 H 343.209 -3.92227 -0.303512 0
M  V30 3759 H 345.224 -4.81595 -1.19503 0
M  V30 3760 N 344.397 -0.483516 -1.5 0
M  V30 3761 C 345.627 0.0643896 -2.065 0
M  V30 3762 C 346.035 1.32949 -1.34615 0
M  V30 3763 O 345.378 1.79003 -0.412756 0
M  V30 3764 C 345.44 0.405983 -3.572 0
M  V30 3765 C 345.104 -0.758875 -4.50655 0
M  V30 3766 C 346.101 -1.64445 -4.93208 0
M  V30 3767 C 343.786 -0.952725 -4.93182 0
M  V30 3768 C 345.78 -2.70818 -5.77006 0
M  V30 3769 C 343.467 -2.01966 -5.76761 0
M  V30 3770 C 344.465 -2.89574 -6.18576 0
M  V30 3771 O 344.153 -3.94429 -7.00486 0
M  V30 3772 H 343.885 -0.00934786 -0.675935 0
M  V30 3773 H 346.439 -0.674959 -1.93993 0
M  V30 3774 H 344.669 1.19869 -3.67652 0
M  V30 3775 H 346.358 0.890433 -3.96013 0
M  V30 3776 H 347.124 -1.50643 -4.61012 0
M  V30 3777 H 343.003 -0.280247 -4.60147 0
M  V30 3778 H 346.547 -3.3923 -6.09565 0
M  V30 3779 H 342.444 -2.1577 -6.0837 0
M  V30 3780 H 343.212 -3.91568 -7.1876 0
M  V30 3781 N 345.875 1.56104 -0.216619 0
M  V30 3782 C 347.103 2.02563 0.421413 0
M  V30 3783 C 347.518 1.0965 1.53695 0
M  V30 3784 O 346.875 0.10521 1.82196 0
M  V30 3785 C 346.926 3.48584 0.957665 0
M  V30 3786 O 346.647 4.37953 -0.113389 0
M  V30 3787 C 348.148 4.10664 1.66943 0
M  V30 3788 H 345.368 0.662944 0.103665 0
M  V30 3789 H 347.912 2.01793 -0.331629 0
M  V30 3790 H 346.067 3.49985 1.661 0
M  V30 3791 H 346.481 5.23704 0.288932 0
M  V30 3792 H 347.955 5.14622 1.99671 0
M  V30 3793 H 348.432 3.55373 2.58083 0
M  V30 3794 H 349.038 4.13098 1.01142 0
M  V30 3795 N 347.353 -0.0568162 1.57498 0
M  V30 3796 C 348.602 -0.752001 1.87157 0
M  V30 3797 C 348.915 -1.77978 0.811375 0
M  V30 3798 O 350.121 -2.52559 0.996293 0
M  V30 3799 C 348.577 -1.38844 3.3204 0
M  V30 3800 C 348.185 -0.398456 4.46225 0
M  V30 3801 C 349.929 -2.06512 3.70882 0
M  V30 3802 C 347.836 -1.04166 5.82154 0
M  V30 3803 H 346.766 -0.28461 0.698222 0
M  V30 3804 H 349.417 -0.00561272 1.83499 0
M  V30 3805 H 347.799 -2.1836 3.30356 0
M  V30 3806 H 348.973 0.367977 4.59328 0
M  V30 3807 H 347.288 0.174592 4.16034 0
M  V30 3808 H 349.885 -2.55437 4.6974 0
M  V30 3809 H 350.228 -2.87117 3.01445 0
M  V30 3810 H 350.761 -1.33808 3.7462 0
M  V30 3811 H 347.5 -0.275614 6.5492 0
M  V30 3812 H 347.02 -1.7786 5.72823 0
M  V30 3813 H 348.699 -1.55715 6.27982 0
M  V30 3814 N 348.832 -1.54138 -0.328536 0
M  V30 3815 C 350.081 -1.71318 -1.06456 0
M  V30 3816 C 350.394 -0.491109 -1.89334 0
M  V30 3817 O 351.6 -0.54416 -2.65991 0
M  V30 3818 C 350.056 -3.03 -1.94214 0
M  V30 3819 C 349.664 -4.32595 -1.16471 0
M  V30 3820 C 351.408 -3.29544 -2.67583 0
M  V30 3821 C 349.315 -5.55341 -2.03347 0
M  V30 3822 H 348.245 -0.638429 -0.401155 0
M  V30 3823 H 350.896 -1.80633 -0.323106 0
M  V30 3824 H 349.278 -2.87579 -2.72239 0
M  V30 3825 H 350.452 -4.58766 -0.432525 0
M  V30 3826 H 348.767 -4.12777 -0.548063 0
M  V30 3827 H 351.364 -4.18444 -3.3288 0
M  V30 3828 H 351.707 -2.47206 -3.34955 0
M  V30 3829 H 352.24 -3.45809 -1.96623 0
M  V30 3830 H 348.979 -6.40268 -1.40491 0
M  V30 3831 H 348.499 -5.33397 -2.74313 0
M  V30 3832 H 350.178 -5.91557 -2.62049 0
M  V30 3833 N 350.31 0.590341 -1.46126 0
M  V30 3834 C 351.559 1.34499 -1.50309 0
M  V30 3835 C 351.872 1.94977 -0.156021 0
M  V30 3836 O 353.078 2.71395 -0.0756037 0
M  V30 3837 C 351.534 2.43723 -2.64815 0
M  V30 3838 C 351.142 1.89582 -4.0591 0
M  V30 3839 C 352.886 3.20579 -2.78262 0
M  V30 3840 C 350.793 2.9639 -5.11769 0
M  V30 3841 H 349.723 0.505593 -0.559368 0
M  V30 3842 H 352.374 0.630848 -1.72315 0
M  V30 3843 H 350.756 3.17902 -2.36124 0
M  V30 3844 H 351.93 1.21997 -4.44357 0
M  V30 3845 H 350.245 1.25418 -3.97063 0
M  V30 3846 H 352.842 4.00276 -3.54519 0
M  V30 3847 H 353.185 3.72684 -1.85505 0
M  V30 3848 H 353.718 2.53505 -3.06562 0
M  V30 3849 H 350.457 2.49181 -6.06291 0
M  V30 3850 H 349.977 3.62487 -4.77873 0
M  V30 3851 H 351.656 3.60474 -5.37278 0
M  V30 3852 N 351.788 1.33704 0.83433 0
M  V30 3853 C 352.738 1.20899 1.93306 0
M  V30 3854 C 353.722 0.110783 1.60518 0
M  V30 3855 O 354.914 0.339331 1.73717 0
M  V30 3856 C 352.043 0.955018 3.29749 0
M  V30 3857 C 351.129 2.09587 3.68692 0
M  V30 3858 N 351.52 3.34621 3.79292 0
M  V30 3859 C 349.818 2.00358 3.98463 0
M  V30 3860 C 350.519 4.09472 4.13167 0
M  V30 3861 N 349.495 3.37954 4.25779 0
M  V30 3862 H 353.297 2.15665 1.99664 0
M  V30 3863 H 350.811 1.25777 1.02732 0
M  V30 3864 H 352.808 0.844208 4.08263 0
M  V30 3865 H 351.468 0.0159317 3.24696 0
M  V30 3866 H 352.479 3.69313 3.63082 0
M  V30 3867 H 349.156 1.14137 4.01596 0
M  V30 3868 H 350.546 5.17391 4.28668 0
M  V30 3869 N 353.266 -1.05314 1.17247 0
M  V30 3870 C 354.494 -1.81971 0.984593 0
M  V30 3871 C 354.909 -1.82929 -0.467166 0
M  V30 3872 O 354.266 -1.25564 -1.32438 0
M  V30 3873 C 354.317 -3.28143 1.51672 0
M  V30 3874 O 354.038 -3.27347 2.91163 0
M  V30 3875 C 355.539 -4.21493 1.37326 0
M  V30 3876 H 352.759 -0.573455 0.348411 0
M  V30 3877 H 355.303 -1.32808 1.55506 0
M  V30 3878 H 353.458 -3.74582 0.988302 0
M  V30 3879 H 353.872 -4.18824 3.15732 0
M  V30 3880 H 355.346 -5.22043 1.79375 0
M  V30 3881 H 355.823 -4.38031 0.320169 0
M  V30 3882 H 356.429 -3.80909 1.89178 0
M  V30 3883 N 354.744 -0.972509 -1.24016 0
M  V30 3884 C 355.674 -0.525548 -2.27509 0
M  V30 3885 C 356.655 0.437262 -1.64384 0
M  V30 3886 O 357.84 0.332343 -1.91335 0
M  V30 3887 C 354.97 0.180448 -3.46831 0
M  V30 3888 C 353.924 -0.698859 -4.22256 0
M  V30 3889 C 353.25 0.138903 -5.3452 0
M  V30 3890 C 354.55 -1.98582 -4.83076 0
M  V30 3891 H 356.244 -1.39058 -2.65148 0
M  V30 3892 H 353.79 -0.67009 -1.27459 0
M  V30 3893 H 355.743 0.504387 -4.18371 0
M  V30 3894 H 354.467 1.07987 -3.08231 0
M  V30 3895 H 353.126 -1.00614 -3.52523 0
M  V30 3896 H 352.774 1.03862 -4.9216 0
M  V30 3897 H 352.474 -0.446259 -5.85903 0
M  V30 3898 H 353.998 0.457404 -6.08884 0
M  V30 3899 H 355.412 -1.72715 -5.46665 0
M  V30 3900 H 353.809 -2.5181 -5.44713 0
M  V30 3901 H 354.879 -2.67769 -4.04262 0
M  V30 3902 N 356.222 1.38976 -0.743202 0
M  V30 3903 C 357.471 1.99581 -0.291592 0
M  V30 3904 C 357.784 1.59656 1.13001 0
M  V30 3905 O 358.99 2.13157 1.68156 0
M  V30 3906 C 357.446 3.56813 -0.470391 0
M  V30 3907 C 357.054 4.05695 -1.90041 0
M  V30 3908 C 358.798 4.24423 -0.0809709 0
M  V30 3909 C 356.705 5.5553 -2.02832 0
M  V30 3910 H 355.635 0.746615 -0.105272 0
M  V30 3911 H 358.286 1.58872 -0.918258 0
M  V30 3912 H 356.668 3.95359 0.225299 0
M  V30 3913 H 357.842 3.78464 -2.62872 0
M  V30 3914 H 356.157 3.50775 -2.24379 0
M  V30 3915 H 358.754 5.34474 -0.155445 0
M  V30 3916 H 359.097 4.04962 0.96497 0
M  V30 3917 H 359.63 3.9108 -0.728124 0
M  V30 3918 H 356.369 5.79881 -3.05643 0
M  V30 3919 H 355.889 5.84537 -1.34448 0
M  V30 3920 H 357.568 6.21069 -1.81335 0
M  V30 3921 N 357.7 0.491464 1.49741 0
M  V30 3922 C 358.632 -0.328609 2.26832 0
M  V30 3923 C 359.645 -0.939113 1.32983 0
M  V30 3924 O 360.834 -0.824067 1.58339 0
M  V30 3925 C 357.934 -1.47675 3.05033 0
M  V30 3926 C 357.107 -0.975305 4.26388 0
M  V30 3927 C 356.166 -1.99991 4.86714 0
M  V30 3928 O 355.192 -1.57229 5.47054 0
M  V30 3929 N 356.394 -3.32962 4.75517 0
M  V30 3930 H 359.159 0.332377 2.97851 0
M  V30 3931 H 356.72 0.323441 1.58636 0
M  V30 3932 H 358.712 -2.15954 3.42266 0
M  V30 3933 H 357.282 -2.04206 2.36683 0
M  V30 3934 H 356.502 -0.117723 3.94024 0
M  V30 3935 H 357.79 -0.618531 5.05026 0
M  V30 3936 H 357.188 -3.70399 4.27576 0
M  V30 3937 H 355.745 -3.96982 5.16961 0
M  V30 3938 N 359.178 -1.55987 0.224894 0
M  V30 3939 C 360.141 -2.19178 -0.670348 0
M  V30 3940 C 361.141 -1.15461 -1.11917 0
M  V30 3941 O 362.331 -1.40675 -1.02743 0
M  V30 3942 C 359.463 -2.81777 -1.9187 0
M  V30 3943 H 360.656 -2.99662 -0.119364 0
M  V30 3944 H 358.209 -1.5628 -0.0247128 0
M  V30 3945 H 358.944 -2.05172 -2.51147 0
M  V30 3946 H 358.729 -3.57732 -1.60531 0
M  V30 3947 H 360.219 -3.30205 -2.55645 0
M  V30 3948 N 360.656 0.0484629 -1.57525 0
M  V30 3949 C 361.603 1.05504 -2.05275 0
M  V30 3950 C 362.573 1.37084 -0.937927 0
M  V30 3951 O 363.758 1.47754 -1.2072 0
M  V30 3952 C 360.898 2.35676 -2.52093 0
M  V30 3953 C 360.011 2.10423 -3.77288 0
M  V30 3954 C 359.146 3.34327 -4.12794 0
M  V30 3955 C 358.185 3.04542 -5.30962 0
M  V30 3956 N 357.322 4.20841 -5.61994 0
M  V30 3957 H 362.162 0.640885 -2.91027 0
M  V30 3958 H 359.699 0.304854 -1.43906 0
M  V30 3959 H 361.657 3.11709 -2.77297 0
M  V30 3960 H 360.287 2.7485 -1.69285 0
M  V30 3961 H 359.339 1.24976 -3.59284 0
M  V30 3962 H 360.651 1.84438 -4.63448 0
M  V30 3963 H 359.805 4.1874 -4.39024 0
M  V30 3964 H 358.544 3.63408 -3.25247 0
M  V30 3965 H 357.549 2.18528 -5.04505 0
M  V30 3966 H 358.774 2.76758 -6.20146 0
M  V30 3967 H 356.72 4.4991 -4.77406 0
M  V30 3968 H 356.637 3.98212 -6.42622 0
M  V30 3969 H 357.905 5.06184 -5.92789 0
M  V30 3970 N 362.134 1.5431 0.320358 0
M  V30 3971 C 363.081 1.83918 1.39438 0
M  V30 3972 C 364.051 0.686525 1.51248 0
M  V30 3973 O 365.236 0.933269 1.66417 0
M  V30 3974 C 362.376 2.075 2.75749 0
M  V30 3975 C 361.489 3.35177 2.72544 0
M  V30 3976 C 360.624 3.48704 4.00723 0
M  V30 3977 C 359.663 4.70244 3.91838 0
M  V30 3978 N 358.8 4.80679 5.11754 0
M  V30 3979 H 363.64 2.75544 1.13489 0
M  V30 3980 H 361.177 1.36459 0.549309 0
M  V30 3981 H 363.135 2.19166 3.54996 0
M  V30 3982 H 361.765 1.19163 3 0
M  V30 3983 H 360.817 3.32233 1.85271 0
M  V30 3984 H 362.129 4.24534 2.61863 0
M  V30 3985 H 361.283 3.59928 4.88402 0
M  V30 3986 H 360.022 2.57445 4.14214 0
M  V30 3987 H 359.027 4.59072 3.02544 0
M  V30 3988 H 360.252 5.6289 3.7991 0
M  V30 3989 H 358.198 3.92337 5.25745 0
M  V30 3990 H 358.115 5.64007 5.0342 0
M  V30 3991 H 359.383 4.96239 6.01138 0
M  V30 3992 N 363.613 -0.582584 1.46437 0
M  V30 3993 C 364.838 -1.37168 1.55563 0
M  V30 3994 C 365.263 -1.87061 0.19743 0
M  V30 3995 O 364.621 -1.61572 -0.822451 0
M  V30 3996 C 364.669 -2.53511 2.56446 0
M  V30 3997 O 363.773 -3.54953 2.09958 0
M  V30 3998 H 363.114 -0.408494 0.523477 0
M  V30 3999 H 365.644 -0.706646 1.9201 0
M  V30 4000 H 365.654 -3.00426 2.76058 0
M  V30 4001 H 364.329 -2.16549 3.55076 0
M  V30 4002 H 362.906 -3.14516 2.00334 0
M  V30 4003 N 365.091 -1.34144 -0.827227 0
M  V30 4004 C 366.316 -1.29476 -1.62021 0
M  V30 4005 C 366.741 0.129292 -1.87655 0
M  V30 4006 O 366.099 1.08967 -1.449 0
M  V30 4007 C 366.147 -2.08702 -2.94068 0
M  V30 4008 O 365.251 -1.45359 -3.85933 0
M  V30 4009 H 364.592 -0.444881 -0.492927 0
M  V30 4010 H 367.122 -1.76882 -1.02829 0
M  V30 4011 H 367.132 -2.19898 -3.43669 0
M  V30 4012 H 365.807 -3.12241 -2.74734 0
M  V30 4013 H 364.384 -1.42879 -3.44442 0
M  V30 4014 N 366.569 1.04691 -1.17803 0
M  V30 4015 C 367.516 2.12557 -0.899343 0
M  V30 4016 C 368.486 1.65339 0.158771 0
M  V30 4017 O 369.671 1.90789 0.0204797 0
M  V30 4018 C 366.811 3.42481 -0.424315 0
M  V30 4019 C 365.924 4.03346 -1.54713 0
M  V30 4020 C 365.059 5.21208 -1.02546 0
M  V30 4021 C 364.098 5.74089 -2.12339 0
M  V30 4022 N 363.235 6.83247 -1.61612 0
M  V30 4023 H 368.075 2.35734 -1.823 0
M  V30 4024 H 365.612 1.1564 -0.909159 0
M  V30 4025 H 367.57 4.16996 -0.130421 0
M  V30 4026 H 366.2 3.19471 0.462377 0
M  V30 4027 H 365.252 3.2622 -1.95664 0
M  V30 4028 H 366.564 4.38628 -2.37501 0
M  V30 4029 H 365.718 6.02812 -0.685718 0
M  V30 4030 H 364.457 4.87414 -0.167084 0
M  V30 4031 H 363.462 4.91111 -2.47165 0
M  V30 4032 H 364.687 6.0993 -2.98601 0
M  V30 4033 H 362.633 6.5134 -0.780533 0
M  V30 4034 H 362.55 7.17559 -2.38003 0
M  V30 4035 H 363.818 7.68491 -1.30545 0
M  V30 4036 N 368.047 0.979072 1.23499 0
M  V30 4037 C 368.997 0.489378 2.22686 0
M  V30 4038 C 369.981 -0.434871 1.54912 0
M  V30 4039 O 371.173 -0.263941 1.75021 0
M  V30 4040 C 368.302 -0.208178 3.42668 0
M  V30 4041 C 367.388 0.735563 4.17672 0
M  V30 4042 N 367.779 1.87763 4.69658 0
M  V30 4043 C 366.077 0.548625 4.42613 0
M  V30 4044 C 366.778 2.46886 5.26709 0
M  V30 4045 N 365.754 1.75287 5.14563 0
M  V30 4046 H 369.556 1.36062 2.60508 0
M  V30 4047 H 367.07 0.83958 1.39014 0
M  V30 4048 H 369.067 -0.576295 4.12898 0
M  V30 4049 H 367.727 -1.07572 3.06363 0
M  V30 4050 H 368.738 2.25885 4.66043 0
M  V30 4051 H 365.415 -0.274006 4.166 0
M  V30 4052 H 366.805 3.43326 5.77561 0
M  V30 4053 N 369.525 -1.3858 0.750561 0
M  V30 4054 C 370.472 -2.30483 0.120835 0
M  V30 4055 C 371.442 -1.50022 -0.712923 0
M  V30 4056 O 372.627 -1.78662 -0.669676 0
M  V30 4057 C 369.767 -3.36431 -0.768666 0
M  V30 4058 C 368.88 -4.31927 0.0793922 0
M  V30 4059 C 368.015 -5.24944 -0.81283 0
M  V30 4060 C 367.054 -6.12088 0.0390447 0
M  V30 4061 N 366.191 -6.97412 -0.809969 0
M  V30 4062 H 371.031 -2.83761 0.91015 0
M  V30 4063 H 368.568 -1.39707 0.460463 0
M  V30 4064 H 370.526 -3.96462 -1.29898 0
M  V30 4065 H 369.156 -2.8457 -1.5238 0
M  V30 4066 H 368.208 -3.73382 0.727303 0
M  V30 4067 H 369.52 -4.93319 0.737401 0
M  V30 4068 H 368.674 -5.90078 -1.41042 0
M  V30 4069 H 367.413 -4.63911 -1.50458 0
M  V30 4070 H 366.418 -5.45952 0.649328 0
M  V30 4071 H 367.643 -6.75189 0.727809 0
M  V30 4072 H 365.589 -6.38931 -1.48672 0
M  V30 4073 H 365.506 -7.55712 -0.208789 0
M  V30 4074 H 366.774 -7.66959 -1.39263 0
M  V30 4075 N 371.003 -0.499398 -1.49478 0
M  V30 4076 C 371.966 0.268838 -2.27618 0
M  V30 4077 C 372.966 0.895383 -1.33565 0
M  V30 4078 O 374.156 0.760164 -1.56739 0
M  V30 4079 C 371.288 1.38559 -3.11471 0
M  V30 4080 H 372.481 -0.416812 -2.96989 0
M  V30 4081 H 370.034 -0.254313 -1.54217 0
M  V30 4082 H 370.769 2.10544 -2.46661 0
M  V30 4083 H 370.554 0.941797 -3.80621 0
M  V30 4084 H 372.044 1.92678 -3.70493 0
M  V30 4085 N 372.481 1.55866 -0.233164 0
M  V30 4086 C 373.411 2.23783 0.666599 0
M  V30 4087 C 374.392 1.21343 1.19205 0
M  V30 4088 O 375.577 1.4996 1.23392 0
M  V30 4089 C 372.707 2.92671 1.86978 0
M  V30 4090 C 371.661 4.01682 1.47768 0
M  V30 4091 C 370.987 4.57926 2.76058 0
M  V30 4092 C 372.287 5.18126 0.658993 0
M  V30 4093 H 373.981 2.99232 0.100306 0
M  V30 4094 H 371.527 1.43924 0.046804 0
M  V30 4095 H 373.48 3.3888 2.50476 0
M  V30 4096 H 372.204 2.14688 2.46123 0
M  V30 4097 H 370.863 3.56222 0.866106 0
M  V30 4098 H 370.511 3.76659 3.33372 0
M  V30 4099 H 370.211 5.31505 2.50552 0
M  V30 4100 H 371.735 5.06859 3.40479 0
M  V30 4101 H 373.149 5.60644 1.19795 0
M  V30 4102 H 371.546 5.98009 0.500552 0
M  V30 4103 H 372.616 4.83763 -0.331856 0
M  V30 4104 N 373.959 -0.0401083 1.57549 0
M  V30 4105 C 374.906 -1.04413 2.05831 0
M  V30 4106 C 375.876 -1.36585 0.945184 0
M  V30 4107 O 377.061 -1.47112 1.21502 0
M  V30 4108 C 374.201 -2.34336 2.53339 0
M  V30 4109 C 373.314 -2.08419 3.78398 0
M  V30 4110 C 372.449 -3.32133 4.14561 0
M  V30 4111 C 371.488 -3.01721 5.3257 0
M  V30 4112 N 370.625 -4.17855 5.64218 0
M  V30 4113 H 375.465 -0.625442 2.91363 0
M  V30 4114 H 373.002 -0.297218 1.44066 0
M  V30 4115 H 374.96 -3.10234 2.78946 0
M  V30 4116 H 373.59 -2.73948 1.7074 0
M  V30 4117 H 372.642 -1.23069 3.59942 0
M  V30 4118 H 373.954 -1.81978 4.64419 0
M  V30 4119 H 373.108 -4.16406 4.41238 0
M  V30 4120 H 371.847 -3.61678 3.2717 0
M  V30 4121 H 370.852 -2.15849 5.05657 0
M  V30 4122 H 372.077 -2.73466 6.21605 0
M  V30 4123 H 370.023 -4.47372 4.79786 0
M  V30 4124 H 369.94 -3.94798 6.44725 0
M  V30 4125 H 371.208 -5.03033 5.95465 0
M  V30 4126 N 375.437 -1.54477 -0.31217 0
M  V30 4127 C 376.683 -1.73483 -1.0503 0
M  V30 4128 C 377.016 -0.513125 -1.87298 0
M  V30 4129 O 376.291 0.489864 -1.8823 0
M  V30 4130 C 376.574 -3.01723 -1.96558 0
M  V30 4131 C 376.427 -4.3417 -1.17545 0
M  V30 4132 C 377.746 -3.25772 -2.95907 0
M  V30 4133 H 374.865 -0.631222 -0.380432 0
M  V30 4134 H 377.507 -1.87184 -0.325932 0
M  V30 4135 H 375.657 -2.90174 -2.58324 0
M  V30 4136 H 377.329 -4.5762 -0.581513 0
M  V30 4137 H 375.572 -4.31159 -0.477925 0
M  V30 4138 H 376.243 -5.20143 -1.84811 0
M  V30 4139 H 378.719 -3.36857 -2.44267 0
M  V30 4140 H 377.595 -4.16838 -3.57123 0
M  V30 4141 H 377.856 -2.43537 -3.68974 0
M  V30 4142 N 376.915 0.57481 -1.46744 0
M  V30 4143 C 378.143 1.35856 -1.56047 0
M  V30 4144 C 378.558 1.87691 -0.204365 0
M  V30 4145 O 377.915 1.64049 0.79963 0
M  V30 4146 C 377.966 2.54066 -2.57163 0
M  V30 4147 O 377.687 2.04377 -3.87507 0
M  V30 4148 C 379.188 3.46514 -2.76483 0
M  V30 4149 H 376.408 0.414754 -0.527466 0
M  V30 4150 H 378.952 0.698035 -1.92218 0
M  V30 4151 H 377.107 3.16092 -2.23974 0
M  V30 4152 H 377.521 2.81419 -4.4261 0
M  V30 4153 H 378.995 4.25919 -3.51137 0
M  V30 4154 H 379.472 3.98951 -1.83671 0
M  V30 4155 H 380.078 2.90318 -3.10799 0
M  V30 4156 N 378.394 1.34581 0.820102 0
M  V30 4157 C 379.643 1.26437 1.57151 0
M  V30 4158 C 379.956 -0.163111 1.94919 0
M  V30 4159 O 381.162 -0.366722 2.69012 0
M  V30 4160 C 379.618 2.21658 2.83541 0
M  V30 4161 C 379.226 3.69679 2.53065 0
M  V30 4162 C 380.97 2.22428 3.61561 0
M  V30 4163 C 378.877 4.56761 3.75664 0
M  V30 4164 H 377.807 0.469707 0.589823 0
M  V30 4165 H 380.458 1.59763 0.902656 0
M  V30 4166 H 378.84 1.81287 3.52067 0
M  V30 4167 H 380.014 4.18605 1.92631 0
M  V30 4168 H 378.329 3.71384 1.88316 0
M  V30 4169 H 380.926 2.8471 4.52597 0
M  V30 4170 H 381.269 1.22434 3.97889 0
M  V30 4171 H 381.802 2.61259 2.99981 0
M  V30 4172 H 378.541 5.57702 3.44454 0
M  V30 4173 H 378.061 4.12568 4.35371 0
M  V30 4174 H 379.74 4.71509 4.43044 0
M  V30 4175 N 379.872 -1.04064 1.18357 0
M  V30 4176 C 381.1 -1.80916 1.00384 0
M  V30 4177 C 381.515 -1.83414 -0.447738 0
M  V30 4178 O 380.872 -1.26962 -1.31099 0
M  V30 4179 C 380.923 -3.26516 1.55144 0
M  V30 4180 O 380.644 -3.2424 2.94618 0
M  V30 4181 C 382.145 -4.20013 1.41789 0
M  V30 4182 H 379.365 -0.569728 0.354474 0
M  V30 4183 H 381.909 -1.31151 1.56906 0
M  V30 4184 H 380.064 -3.73512 1.02798 0
M  V30 4185 H 380.478 -4.15452 3.20156 0
M  V30 4186 H 381.952 -5.20111 1.84901 0
M  V30 4187 H 382.429 -4.37667 0.36661 0
M  V30 4188 H 383.035 -3.78881 1.93207 0
M  V30 4189 N 381.35 -0.985608 -1.22978 0
M  V30 4190 C 382.596 -0.65836 -1.91816 0
M  V30 4191 C 382.929 0.806692 -1.76653 0
M  V30 4192 O 382.204 1.58252 -1.13078 0
M  V30 4193 C 382.487 -1.056 -3.44268 0
M  V30 4194 C 382.34 -2.57906 -3.68516 0
M  V30 4195 C 383.659 -0.603781 -4.35939 0
M  V30 4196 H 380.778 -0.24065 -0.696604 0
M  V30 4197 H 383.42 -1.22783 -1.44998 0
M  V30 4198 H 381.57 -0.571445 -3.84274 0
M  V30 4199 H 383.242 -3.13976 -3.3796 0
M  V30 4200 H 381.485 -3.00305 -3.13048 0
M  V30 4201 H 382.156 -2.80779 -4.75255 0
M  V30 4202 H 384.632 -1.01987 -4.03408 0
M  V30 4203 H 383.508 -0.910383 -5.41298 0
M  V30 4204 H 383.769 0.495761 -4.39312 0
M  V30 4205 N 382.828 1.3818 -0.7579 0
M  V30 4206 C 383.758 2.33027 -0.148597 0
M  V30 4207 C 384.739 1.55085 0.69875 0
M  V30 4208 O 385.924 1.83384 0.639053 0
M  V30 4209 C 383.054 3.3928 0.742034 0
M  V30 4210 C 382.008 4.28 -0.00291946 0
M  V30 4211 C 381.334 5.25146 1.00625 0
M  V30 4212 C 382.634 5.08938 -1.17385 0
M  V30 4213 H 384.328 2.84231 -0.940909 0
M  V30 4214 H 381.874 1.36659 -0.453908 0
M  V30 4215 H 383.827 4.046 1.17799 0
M  V30 4216 H 382.551 2.86569 1.56671 0
M  V30 4217 H 381.21 3.64192 -0.419504 0
M  V30 4218 H 380.858 4.68721 1.8251 0
M  V30 4219 H 380.558 5.85361 0.512428 0
M  V30 4220 H 382.082 5.93342 1.44143 0
M  V30 4221 H 383.496 5.67474 -0.815224 0
M  V30 4222 H 381.893 5.7841 -1.59882 0
M  V30 4223 H 382.963 4.42424 -1.98468 0
M  V30 4224 N 384.306 0.507319 1.49211 0
M  V30 4225 C 385.534 -0.0315749 2.06876 0
M  V30 4226 C 385.949 -1.30241 1.36685 0
M  V30 4227 O 385.306 -1.76937 0.447152 0
M  V30 4228 C 385.357 -0.282627 3.60393 0
M  V30 4229 O 385.078 0.937835 4.27944 0
M  V30 4230 C 386.579 -0.864453 4.3479 0
M  V30 4231 H 383.799 0.0233048 0.670595 0
M  V30 4232 H 386.343 0.706484 1.91909 0
M  V30 4233 H 384.498 -0.97068 3.75042 0
M  V30 4234 H 384.912 0.704567 5.19746 0
M  V30 4235 H 386.386 -0.989664 5.43056 0
M  V30 4236 H 386.863 -1.86382 3.97692 0
M  V30 4237 H 387.469 -0.213672 4.24763 0
M  V30 4238 N 385.784 -1.5574 0.241426 0
M  V30 4239 C 387.03 -1.99104 -0.385406 0
M  V30 4240 C 387.363 -1.1293 -1.57988 0
M  V30 4241 O 386.638 -0.191449 -1.93555 0
M  V30 4242 C 386.921 -3.51087 -0.800616 0
M  V30 4243 C 386.774 -4.48028 0.398874 0
M  V30 4244 C 388.093 -4.08015 -1.64959 0
M  V30 4245 H 385.212 -0.723848 -0.138614 0
M  V30 4246 H 387.854 -1.86903 0.341642 0
M  V30 4247 H 386.004 -3.61615 -1.4201 0
M  V30 4248 H 387.676 -4.49487 1.03726 0
M  V30 4249 H 385.919 -4.21077 1.04293 0
M  V30 4250 H 386.59 -5.51962 0.0651056 0
M  V30 4251 H 389.066 -4.00555 -1.12672 0
M  V30 4252 H 387.942 -5.14635 -1.90898 0
M  V30 4253 H 388.203 -3.56131 -2.61961 0
M  V30 4254 N 387.262 0.0317525 -1.57568 0
M  V30 4255 C 388.509 0.723104 -1.89149 0
M  V30 4256 C 388.837 1.75504 -0.838377 0
M  V30 4257 O 388.092 1.95037 0.160982 0
M  V30 4258 C 388.391 1.43167 -3.27472 0
M  V30 4259 C 388.057 0.535972 -4.47703 0
M  V30 4260 C 386.719 0.289262 -4.8033 0
M  V30 4261 C 389.071 -0.0826125 -5.21135 0
M  V30 4262 C 386.399 -0.584853 -5.83778 0
M  V30 4263 C 388.751 -0.944414 -6.25511 0
M  V30 4264 C 387.415 -1.20061 -6.56614 0
M  V30 4265 H 386.685 0.264602 -0.692146 0
M  V30 4266 H 389.332 -0.0169496 -1.91492 0
M  V30 4267 H 387.637 2.24497 -3.21105 0
M  V30 4268 H 389.334 1.97209 -3.49155 0
M  V30 4269 H 385.924 0.738414 -4.22191 0
M  V30 4270 H 390.108 0.0950302 -4.96209 0
M  V30 4271 H 385.364 -0.79168 -6.06253 0
M  V30 4272 H 389.538 -1.43026 -6.81554 0
M  V30 4273 H 387.165 -1.87967 -7.36595 0
M  V30 4274 N 388.74 1.54641 0.303973 0
M  V30 4275 C 389.986 1.74038 1.04109 0
M  V30 4276 C 390.319 0.523051 1.87024 0
M  V30 4277 O 389.594 -0.479874 1.88487 0
M  V30 4278 C 389.877 3.02761 1.94955 0
M  V30 4279 C 389.73 4.34787 1.1524 0
M  V30 4280 C 391.049 3.27336 2.94175 0
M  V30 4281 H 388.168 0.63323 0.377079 0
M  V30 4282 H 390.81 1.87354 0.316001 0
M  V30 4283 H 388.96 2.9154 2.56782 0
M  V30 4284 H 390.632 4.57922 0.557236 0
M  V30 4285 H 388.875 4.31407 0.455053 0
M  V30 4286 H 389.546 5.21116 1.8205 0
M  V30 4287 H 392.022 3.38148 2.42477 0
M  V30 4288 H 390.898 4.18726 3.54908 0
M  V30 4289 H 391.159 2.45491 3.67677 0
M  V30 4290 N 390.218 -0.567019 1.47046 0
M  V30 4291 C 391.148 -1.68482 1.61667 0
M  V30 4292 C 392.129 -1.6358 0.466418 0
M  V30 4293 O 393.314 -1.81354 0.694574 0
M  V30 4294 C 390.444 -3.07124 1.62148 0
M  V30 4295 C 389.398 -3.26867 2.76301 0
M  V30 4296 C 388.724 -4.66196 2.61849 0
M  V30 4297 C 390.024 -3.13186 4.17986 0
M  V30 4298 H 391.718 -1.56502 2.5524 0
M  V30 4299 H 389.264 -0.751486 1.22836 0
M  V30 4300 H 391.217 -3.8516 1.70968 0
M  V30 4301 H 389.941 -3.2004 0.651287 0
M  V30 4302 H 388.6 -2.51237 2.66975 0
M  V30 4303 H 388.248 -4.75898 1.62879 0
M  V30 4304 H 387.948 -4.80356 3.38425 0
M  V30 4305 H 389.472 -5.46379 2.72584 0
M  V30 4306 H 390.886 -3.81049 4.2834 0
M  V30 4307 H 389.283 -3.3886 4.95272 0
M  V30 4308 H 390.353 -2.10057 4.3704 0
M  V30 4309 N 391.696 -1.35014 -0.812953 0
M  V30 4310 C 392.921 -1.31187 -1.60639 0
M  V30 4311 C 393.346 0.109382 -1.87782 0
M  V30 4312 O 392.704 1.07424 -1.46047 0
M  V30 4313 C 392.752 -2.11809 -2.91838 0
M  V30 4314 O 391.856 -1.49444 -3.8437 0
M  V30 4315 H 391.197 -0.450084 -0.488181 0
M  V30 4316 H 393.727 -1.77963 -1.00947 0
M  V30 4317 H 393.737 -2.23531 -3.41318 0
M  V30 4318 H 392.412 -3.15137 -2.71407 0
M  V30 4319 H 390.989 -1.46524 -3.42907 0
M  V30 4320 N 393.175 1.03435 -1.18907 0
M  V30 4321 C 394.107 2.1165 -0.879595 0
M  V30 4322 C 395.12 1.62316 0.125439 0
M  V30 4323 O 396.309 1.78201 -0.103245 0
M  V30 4324 C 393.409 3.37622 -0.294042 0
M  V30 4325 C 392.582 4.16166 -1.34629 0
M  V30 4326 C 391.641 5.20457 -0.775274 0
M  V30 4327 O 390.667 5.50379 -1.4516 0
M  V30 4328 N 391.869 5.78949 0.424126 0
M  V30 4329 H 394.634 2.38791 -1.81105 0
M  V30 4330 H 392.195 1.19681 -1.09032 0
M  V30 4331 H 394.187 4.04572 0.101679 0
M  V30 4332 H 392.757 3.07873 0.541575 0
M  V30 4333 H 391.977 3.44444 -1.91707 0
M  V30 4334 H 393.265 4.65432 -2.05549 0
M  V30 4335 H 392.663 5.56948 0.991209 0
M  V30 4336 H 391.22 6.47334 0.761691 0
M  V30 4337 N 394.653 0.992116 1.22453 0
M  V30 4338 C 395.9 0.667534 1.91181 0
M  V30 4339 C 396.228 -0.800317 1.77271 0
M  V30 4340 O 395.483 -1.59421 1.13505 0
M  V30 4341 C 395.782 1.01832 3.42586 0
M  V30 4342 C 395.448 2.47831 3.76684 0
M  V30 4343 C 394.11 2.87729 3.85701 0
M  V30 4344 C 396.462 3.42466 3.92895 0
M  V30 4345 C 393.79 4.21252 4.08367 0
M  V30 4346 C 396.142 4.75648 4.17064 0
M  V30 4347 C 394.806 5.15288 4.24305 0
M  V30 4348 H 394.076 0.244268 0.699581 0
M  V30 4349 H 396.723 1.24816 1.45235 0
M  V30 4350 H 395.028 0.355769 3.90181 0
M  V30 4351 H 396.725 0.745228 3.94014 0
M  V30 4352 H 393.315 2.15905 3.70247 0
M  V30 4353 H 397.499 3.12814 3.85307 0
M  V30 4354 H 392.755 4.51554 4.122 0
M  V30 4355 H 396.929 5.48924 4.2855 0
M  V30 4356 H 394.556 6.18769 4.41621 0
M  V30 4357 N 396.131 -1.37776 0.765217 0
M  V30 4358 C 397.542 -1.82521 0.392819 0
M  V30 4359 C 397.893 -1.63789 -1.08017 0
M  V30 4360 O 397.018 -1.14542 -1.83601 0
M  V30 4361 C 397.613 -3.31358 0.706214 0
M  V30 4362 C 396.172 -3.74406 0.386952 0
M  V30 4363 C 395.319 -2.60394 0.953422 0
M  V30 4364 H 398.27 -1.2634 0.960412 0
M  V30 4365 H 398.291 -3.80498 -0.0114706 0
M  V30 4366 H 397.803 -3.44959 1.77833 0
M  V30 4367 H 395.904 -3.66377 -0.678112 0
M  V30 4368 H 396.017 -4.70749 0.890636 0
M  V30 4369 H 394.381 -2.51878 0.378064 0
M  V30 4370 H 395.164 -2.76791 2.03081 0
M  V30 4371 N 397.609 -0.515225 -1.4894 0
M  V30 4372 C 398.839 0.0205735 -2.0659 0
M  V30 4373 C 399.247 1.30064 -1.37405 0
M  V30 4374 O 398.59 1.78087 -0.450632 0
M  V30 4375 C 398.652 0.330124 -3.57981 0
M  V30 4376 C 398.316 -0.854295 -4.48944 0
M  V30 4377 C 399.313 -1.7487 -4.89609 0
M  V30 4378 C 396.998 -1.05712 -4.9105 0
M  V30 4379 C 398.992 -2.82996 -5.71132 0
M  V30 4380 C 396.679 -2.14154 -5.72347 0
M  V30 4381 C 397.677 -3.0263 -6.12294 0
M  V30 4382 O 397.365 -4.09198 -6.91962 0
M  V30 4383 H 397.097 -0.0236833 -0.675585 0
M  V30 4384 H 399.651 -0.715956 -1.92518 0
M  V30 4385 H 397.881 1.12044 -3.70112 0
M  V30 4386 H 399.57 0.806233 -3.97812 0
M  V30 4387 H 400.336 -1.60388 -4.57712 0
M  V30 4388 H 396.215 -0.377788 -4.59449 0
M  V30 4389 H 399.759 -3.52083 -6.02232 0
M  V30 4390 H 395.656 -2.28626 -6.03656 0
M  V30 4391 H 396.424 -4.06726 -7.10293 0
M  V30 4392 N 399.087 1.5561 -0.249682 0
M  V30 4393 C 400.035 2.22894 0.664906 0
M  V30 4394 C 401.029 1.21743 1.17792 0
M  V30 4395 O 402.235 1.39748 1.13449 0
M  V30 4396 H 398.61 0.715022 0.232912 0
M  V30 4397 H 400.581 2.98307 0.0742998 0
M  V30 4398 C 399.33 2.94424 1.84959 0
M  V30 4399 H 398.653 3.72031 1.46399 0
M  V30 4400 H 400.093 3.44862 2.4667 0
M  V30 4401 C 398.552 1.98454 2.72245 0
M  V30 4402 O 399.082 1.51939 3.71857 0
M  V30 4403 N 397.288 1.65496 2.38871 0
M  V30 4404 H 396.835 2.03517 1.57919 0
M  V30 4405 H 396.793 1.0155 2.97548 0
M  V30 4406 N 400.565 -0.0233959 1.57583 0
M  V30 4407 C 401.805 -0.71784 1.9138 0
M  V30 4408 C 402.169 -1.72216 0.848853 0
M  V30 4409 O 403.37 -2.46527 1.07134 0
M  V30 4410 C 401.641 -1.36489 3.30311 0
M  V30 4411 S 403.2 -2.0877 3.85954 0
M  V30 4412 H 400.018 -0.237676 0.670098 0
M  V30 4413 H 402.62 0.0276709 1.9548 0
M  V30 4414 H 401.324 -0.620782 4.05678 0
M  V30 4415 H 400.855 -2.14883 3.29528 0
M  V30 4416 H 402.87 -3.35988 3.65139 0
M  V30 4417 N 402.043 -1.548 -0.295768 0
M  V30 4418 C 403.292 -1.73538 -1.02798 0
M  V30 4419 C 403.605 -0.531159 -1.8825 0
M  V30 4420 O 404.811 -0.600458 -2.64777 0
M  V30 4421 C 403.267 -3.07051 -1.87744 0
M  V30 4422 C 402.875 -4.34968 -1.07269 0
M  V30 4423 C 404.619 -3.35146 -2.60533 0
M  V30 4424 C 402.526 -5.5953 -1.91521 0
M  V30 4425 H 401.456 -0.646794 -0.387522 0
M  V30 4426 H 404.107 -1.81278 -0.284718 0
M  V30 4427 H 402.489 -2.93289 -2.66078 0
M  V30 4428 H 403.663 -4.5958 -0.335117 0
M  V30 4429 H 401.978 -4.13847 -0.460384 0
M  V30 4430 H 404.575 -4.2541 -3.23929 0
M  V30 4431 H 404.918 -2.54255 -3.29636 0
M  V30 4432 H 405.451 -3.49902 -1.89244 0
M  V30 4433 H 402.19 -6.43103 -1.26878 0
M  V30 4434 H 401.71 -5.39096 -2.62937 0
M  V30 4435 H 403.389 -5.96982 -2.49442 0
M  V30 4436 N 403.521 0.559213 -1.47345 0
M  V30 4437 C 404.451 1.67622 -1.62558 0
M  V30 4438 C 405.432 1.63331 -0.475087 0
M  V30 4439 O 406.617 1.80983 -0.704182 0
M  V30 4440 C 403.747 3.0626 -1.63774 0
M  V30 4441 C 402.701 3.25397 -2.7803 0
M  V30 4442 C 402.027 4.64801 -2.64318 0
M  V30 4443 C 403.327 3.10965 -4.19641 0
M  V30 4444 H 405.021 1.55146 -2.56067 0
M  V30 4445 H 402.567 0.744961 -1.23233 0
M  V30 4446 H 404.52 3.84247 -1.73008 0
M  V30 4447 H 403.244 3.1969 -0.66825 0
M  V30 4448 H 401.903 2.49817 -2.68304 0
M  V30 4449 H 401.551 4.75028 -1.65401 0
M  V30 4450 H 401.251 4.78555 -3.40968 0
M  V30 4451 H 402.775 5.44926 -2.75478 0
M  V30 4452 H 404.189 3.78772 -4.30354 0
M  V30 4453 H 402.586 3.36229 -4.97062 0
M  V30 4454 H 403.656 2.07736 -4.38148 0
M  V30 4455 N 404.999 1.35443 0.805782 0
M  V30 4456 C 405.929 1.31095 1.93226 0
M  V30 4457 C 406.91 0.185244 1.69088 0
M  V30 4458 O 408.095 0.380332 1.90439 0
M  V30 4459 C 405.225 1.08299 3.29983 0
M  V30 4460 C 404.179 2.17519 3.68605 0
M  V30 4461 C 403.505 1.79887 5.03532 0
M  V30 4462 C 404.805 3.5949 3.78898 0
M  V30 4463 H 406.499 2.25352 1.97122 0
M  V30 4464 H 404.045 1.0848 0.946996 0
M  V30 4465 H 405.998 1.03897 4.08391 0
M  V30 4466 H 404.722 0.104885 3.26432 0
M  V30 4467 H 403.381 2.2102 2.92482 0
M  V30 4468 H 403.029 0.80693 4.96485 0
M  V30 4469 H 402.729 2.53001 5.30344 0
M  V30 4470 H 404.253 1.77011 5.84379 0
M  V30 4471 H 405.667 3.58307 4.47536 0
M  V30 4472 H 404.064 4.31371 4.1718 0
M  V30 4473 H 405.134 3.95584 2.80431 0
M  V30 4474 N 406.477 -1.02803 1.19454 0
M  V30 4475 C 407.723 -1.76478 0.999171 0
M  V30 4476 C 408.056 -1.88456 -0.468828 0
M  V30 4477 O 407.331 -1.40198 -1.34814 0
M  V30 4478 C 407.614 -3.19044 1.66981 0
M  V30 4479 C 407.467 -3.14932 3.21151 0
M  V30 4480 C 408.786 -4.17456 1.39349 0
M  V30 4481 H 405.905 -0.640614 0.364393 0
M  V30 4482 H 408.547 -1.20005 1.47305 0
M  V30 4483 H 406.697 -3.67263 1.2669 0
M  V30 4484 H 408.369 -2.74605 3.70661 0
M  V30 4485 H 406.612 -2.52625 3.52652 0
M  V30 4486 H 407.283 -4.1566 3.63223 0
M  V30 4487 H 409.759 -3.77842 1.74283 0
M  V30 4488 H 408.635 -5.154 1.88823 0
M  V30 4489 H 408.896 -4.40949 0.318813 0
M  V30 4490 N 407.956 -0.998596 -1.21925 0
M  V30 4491 C 408.888 -0.511879 -2.23411 0
M  V30 4492 C 409.901 0.396094 -1.57908 0
M  V30 4493 O 411.09 0.197316 -1.77406 0
M  V30 4494 C 408.19 0.276802 -3.37768 0
M  V30 4495 C 407.363 -0.628687 -4.32858 0
M  V30 4496 C 406.422 0.109272 -5.26087 0
M  V30 4497 O 405.448 -0.507237 -5.66935 0
M  V30 4498 N 406.65 1.38983 -5.63617 0
M  V30 4499 H 409.415 -1.38457 -2.658 0
M  V30 4500 H 406.976 -0.873981 -1.36283 0
M  V30 4501 H 408.968 0.77928 -3.97126 0
M  V30 4502 H 407.538 1.05063 -2.94415 0
M  V30 4503 H 406.758 -1.31175 -3.71735 0
M  V30 4504 H 408.046 -1.24514 -4.93329 0
M  V30 4505 H 407.444 1.91194 -5.32411 0
M  V30 4506 H 406.001 1.83739 -6.25367 0
M  V30 4507 N 409.434 1.37368 -0.772513 0
M  V30 4508 C 410.662 2.03942 -0.348588 0
M  V30 4509 C 411.077 1.58264 1.02947 0
M  V30 4510 O 410.434 0.764246 1.65727 0
M  V30 4511 C 410.485 3.5946 -0.38351 0
M  V30 4512 O 410.206 4.03468 -1.70721 0
M  V30 4513 C 411.707 4.4327 0.0519152 0
M  V30 4514 H 408.927 0.654931 -0.145966 0
M  V30 4515 H 411.471 1.75686 -1.04665 0
M  V30 4516 H 409.626 3.86486 0.265978 0
M  V30 4517 H 410.04 4.97991 -1.64636 0
M  V30 4518 H 411.514 5.51995 -0.0236733 0
M  V30 4519 H 411.991 4.2514 1.10238 0
M  V30 4520 H 412.597 4.21471 -0.569415 0
M  V30 4521 N 410.912 0.523116 1.48665 0
M  V30 4522 C 412.161 -0.01544 2.01694 0
M  V30 4523 C 412.474 -1.35975 1.40606 0
M  V30 4524 O 413.68 -1.98627 1.85093 0
M  V30 4525 C 412.136 -0.0779303 3.59816 0
M  V30 4526 C 411.744 1.26107 4.29885 0
M  V30 4527 C 413.488 -0.565678 4.20714 0
M  V30 4528 C 411.395 1.15954 5.79921 0
M  V30 4529 H 410.325 -0.00954163 0.75394 0
M  V30 4530 H 412.976 0.665865 1.70993 0
M  V30 4531 H 411.358 -0.824165 3.87329 0
M  V30 4532 H 412.532 2.02233 4.14051 0
M  V30 4533 H 410.847 1.68401 3.80828 0
M  V30 4534 H 413.444 -0.6595 5.30617 0
M  V30 4535 H 413.787 -1.56984 3.85567 0
M  V30 4536 H 414.32 0.12467 3.97605 0
M  V30 4537 H 411.059 2.13864 6.19631 0
M  V30 4538 H 410.579 0.439529 5.98187 0
M  V30 4539 H 412.258 0.847361 6.41427 0
M  V30 4540 N 412.39 -1.55475 0.257931 0
M  V30 4541 C 413.667 -1.91155 -0.414629 0
M  V30 4542 C 414.047 -1.18008 -1.75035 0
M  V30 4543 O 413.395 -0.301193 -2.26506 0
M  V30 4544 C 413.605 -3.44283 -0.571859 0
M  V30 4545 C 414.953 -4.15744 -0.862678 0
M  V30 4546 O 415.977 -3.50083 -0.657314 0
M  V30 4547 O 414.836 -5.31909 -1.2544 0
M  V30 4548 H 411.93 -0.796016 -0.22425 0
M  V30 4549 H 414.476 -1.66976 0.302814 0
M  V30 4550 H 413.248 -3.89558 0.368844 0
M  V30 4551 H 412.871 -3.7436 -1.33943 0
M  V30 4552 N 413.868 0.0150385 -1.57593 0
M  V30 4553 C 414.831 0.995996 -2.06428 0
M  V30 4554 C 415.831 1.2818 -0.970903 0
M  V30 4555 O 417.021 1.22949 -1.23406 0
M  V30 4556 C 414.153 2.32506 -2.49307 0
M  V30 4557 H 415.346 0.573873 -2.94358 0
M  V30 4558 H 412.899 0.262186 -1.54085 0
M  V30 4559 H 413.634 2.79438 -1.64575 0
M  V30 4560 H 413.419 2.13087 -3.29145 0
M  V30 4561 H 414.909 3.02906 -2.87468 0
M  V30 4562 N 415.346 1.54954 0.287554 0
M  V30 4563 C 416.576 1.78622 1.03816 0
M  V30 4564 C 416.984 0.552451 1.80955 0
M  V30 4565 O 416.327 -0.487665 1.77109 0
M  V30 4566 C 416.389 2.94975 2.055 0
M  V30 4567 C 416.053 4.32565 1.47433 0
M  V30 4568 C 417.05 5.12096 0.897436 0
M  V30 4569 C 414.735 4.79195 1.50591 0
M  V30 4570 C 416.729 6.36383 0.359851 0
M  V30 4571 C 414.416 6.03441 0.964459 0
M  V30 4572 C 415.414 6.81872 0.392413 0
M  V30 4573 O 415.102 8.03777 -0.140788 0
M  V30 4574 H 414.834 0.599144 0.313053 0
M  V30 4575 H 417.388 2.02761 0.328225 0
M  V30 4576 H 415.618 2.66493 2.80211 0
M  V30 4577 H 417.307 3.06097 2.6657 0
M  V30 4578 H 418.073 4.77209 0.865841 0
M  V30 4579 H 413.952 4.18167 1.94055 0
M  V30 4580 H 417.496 6.97545 -0.0872951 0
M  V30 4581 H 413.393 6.37813 0.993246 0
M  V30 4582 H 414.161 8.18495 -0.0287617 0
M  V30 4583 N 416.824 -0.551391 1.4764 0
M  V30 4584 C 417.787 -1.64007 1.60107 0
M  V30 4585 C 418.787 -1.53601 0.47576 0
M  V30 4586 O 419.977 -1.57655 0.740988 0
M  V30 4587 C 417.109 -3.03569 1.55108 0
M  V30 4588 H 418.302 -1.543 2.57161 0
M  V30 4589 H 415.855 -0.771776 1.35917 0
M  V30 4590 H 416.59 -3.18804 0.594519 0
M  V30 4591 H 416.375 -3.12532 2.36783 0
M  V30 4592 H 417.865 -3.82762 1.66982 0
M  V30 4593 N 418.302 -1.35869 -0.798587 0
M  V30 4594 C 419.235 -1.23801 -1.91699 0
M  V30 4595 C 420.213 -0.124143 -1.62125 0
M  V30 4596 O 421.397 -0.293656 -1.86199 0
M  V30 4597 C 418.524 -0.908063 -3.263 0
M  V30 4598 C 417.57 -2.0351 -3.74815 0
M  V30 4599 S 418.403 -3.65183 -3.91665 0
M  V30 4600 C 419.559 -3.34283 -5.29156 0
M  V30 4601 H 419.792 -2.18466 -2.01643 0
M  V30 4602 H 417.325 -1.21178 -0.956833 0
M  V30 4603 H 419.283 -0.724506 -4.04056 0
M  V30 4604 H 417.944 0.0206584 -3.14093 0
M  V30 4605 H 417.137 -1.75858 -4.72324 0
M  V30 4606 H 416.739 -2.1774 -3.04081 0
M  V30 4607 H 419.031 -2.87607 -6.13424 0
M  V30 4608 H 419.974 -4.31022 -5.61806 0
M  V30 4609 H 420.382 -2.69854 -4.95822 0
M  V30 4610 N 419.78 1.02168 -1.19998 0
M  V30 4611 C 421.027 1.75685 -1.00702 0
M  V30 4612 C 421.355 1.88947 0.461426 0
M  V30 4613 O 420.61 1.40832 1.35885 0
M  V30 4614 C 420.909 3.18081 -1.62969 0
M  V30 4615 C 420.575 3.24809 -3.12746 0
M  V30 4616 C 419.237 3.26352 -3.53621 0
M  V30 4617 C 421.589 3.23379 -4.08749 0
M  V30 4618 C 418.917 3.2413 -4.89036 0
M  V30 4619 C 421.269 3.22698 -5.44104 0
M  V30 4620 C 419.933 3.22542 -5.84399 0
M  V30 4621 H 419.203 0.642877 -0.368496 0
M  V30 4622 H 421.85 1.19865 -1.49348 0
M  V30 4623 H 420.155 3.77027 -1.06573 0
M  V30 4624 H 421.852 3.73648 -1.45561 0
M  V30 4625 H 418.442 3.2434 -2.80181 0
M  V30 4626 H 422.626 3.21361 -3.78207 0
M  V30 4627 H 417.882 3.22338 -5.19527 0
M  V30 4628 H 422.056 3.20543 -6.18244 0
M  V30 4629 H 419.683 3.20575 -6.89301 0
M  V30 4630 N 421.258 1.00505 1.21394 0
M  V30 4631 C 422.507 0.683159 1.89778 0
M  V30 4632 C 422.82 -0.789471 1.7896 0
M  V30 4633 O 424.026 -1.22344 2.42372 0
M  V30 4634 C 422.482 1.17146 3.40301 0
M  V30 4635 C 422.09 2.67017 3.5973 0
M  V30 4636 C 423.834 0.924461 4.14311 0
M  V30 4637 C 421.741 3.09387 5.04017 0
M  V30 4638 H 420.671 0.25183 0.710702 0
M  V30 4639 H 423.322 1.21622 1.37406 0
M  V30 4640 H 421.704 0.566451 3.91928 0
M  V30 4641 H 422.878 3.32968 3.18542 0
M  V30 4642 H 421.193 2.89732 2.99073 0
M  V30 4643 H 423.79 1.21658 5.20676 0
M  V30 4644 H 424.133 -0.139286 4.16067 0
M  V30 4645 H 424.666 1.49226 3.6875 0
M  V30 4646 H 421.405 4.14989 5.07409 0
M  V30 4647 H 420.925 2.48149 5.46061 0
M  V30 4648 H 422.604 3.01371 5.72525 0
M  V30 4649 N 422.737 -1.36956 0.779787 0
M  V30 4650 C 423.962 -2.04283 0.358224 0
M  V30 4651 C 424.387 -1.58422 -1.01411 0
M  V30 4652 O 423.745 -0.748179 -1.65142 0
M  V30 4653 C 423.793 -3.58152 0.419479 0
M  V30 4654 O 422.897 -4.08342 -0.577142 0
M  V30 4655 H 422.238 -0.645967 0.153698 0
M  V30 4656 H 424.768 -1.75108 1.05822 0
M  V30 4657 H 424.778 -4.07041 0.279636 0
M  V30 4658 H 423.453 -3.90886 1.42061 0
M  V30 4659 H 422.03 -3.70751 -0.399755 0
M  V30 4660 N 424.215 -0.530993 -1.48385 0
M  V30 4661 C 425.163 0.244595 -2.3131 0
M  V30 4662 C 426.157 0.93451 -1.41291 0
M  V30 4663 O 427.363 0.85878 -1.58193 0
M  V30 4664 H 423.738 0.0977472 -0.74562 0
M  V30 4665 H 425.709 -0.474369 -2.94605 0
M  V30 4666 C 424.458 1.2779 -3.23365 0
M  V30 4667 H 423.781 0.756439 -3.92579 0
M  V30 4668 H 425.221 1.79198 -3.84271 0
M  V30 4669 C 423.68 2.31205 -2.45042 0
M  V30 4670 O 424.21 3.37661 -2.17596 0
M  V30 4671 N 422.416 2.04446 -2.0652 0
M  V30 4672 H 421.963 1.17891 -2.2904 0
M  V30 4673 H 421.921 2.73861 -1.54427 0
M  V30 4674 N 425.693 1.55336 -0.266172 0
M  V30 4675 C 426.933 2.01303 0.354459 0
M  V30 4676 C 427.297 1.15046 1.53715 0
M  V30 4677 O 428.498 1.50554 2.22681 0
M  V30 4678 C 426.769 3.49748 0.735579 0
M  V30 4679 S 428.328 4.1771 1.34401 0
M  V30 4680 H 425.146 0.702333 0.110674 0
M  V30 4681 H 427.748 1.91653 -0.385916 0
M  V30 4682 H 426.452 4.10181 -0.134196 0
M  V30 4683 H 425.983 3.63364 1.50764 0
M  V30 4684 H 427.998 4.20594 2.63278 0
M  V30 4685 N 427.171 -0.0066808 1.57599 0
M  V30 4686 C 428.134 -0.985035 2.06953 0
M  V30 4687 C 429.134 -1.27663 0.977687 0
M  V30 4688 O 430.324 -1.22293 1.24057 0
M  V30 4689 C 427.456 -2.3118 2.50536 0
M  V30 4690 H 428.649 -0.558255 2.94658 0
M  V30 4691 H 426.202 -0.254011 1.54222 0
M  V30 4692 H 426.937 -2.78561 1.66054 0
M  V30 4693 H 426.722 -2.11338 3.3027 0
M  V30 4694 H 428.212 -3.01377 2.8907 0
M  V30 4695 N 428.649 -1.55105 -0.279332 0
M  V30 4696 C 429.895 -1.75672 -1.01327 0
M  V30 4697 C 430.228 -0.552739 -1.86168 0
M  V30 4698 O 429.503 0.449827 -1.89227 0
M  V30 4699 C 429.786 -3.05825 -1.90114 0
M  V30 4700 C 429.639 -4.36565 -1.08309 0
M  V30 4701 C 430.958 -3.31975 -2.8893 0
M  V30 4702 H 428.077 -0.639149 -0.366957 0
M  V30 4703 H 430.719 -1.87833 -0.286154 0
M  V30 4704 H 428.869 -2.95588 -2.52111 0
M  V30 4705 H 430.541 -4.58751 -0.484314 0
M  V30 4706 H 428.784 -4.32076 -0.386362 0
M  V30 4707 H 429.455 -5.23946 -1.73737 0
M  V30 4708 H 431.931 -3.41963 -2.37067 0
M  V30 4709 H 430.807 -4.2432 -3.48201 0
M  V30 4710 H 431.068 -2.51309 -3.63725 0
M  V30 4711 N 430.127 0.543554 -1.4793 0
M  V30 4712 C 431.352 1.32995 -1.59145 0
M  V30 4713 C 431.777 1.86472 -0.246956 0
M  V30 4714 O 431.135 1.63696 0.779324 0
M  V30 4715 C 431.183 2.46623 -2.63077 0
M  V30 4716 O 430.287 3.49261 -2.19295 0
M  V30 4717 H 429.628 0.394472 -0.534124 0
M  V30 4718 H 432.158 0.655489 -1.93816 0
M  V30 4719 H 432.168 2.93001 -2.83926 0
M  V30 4720 H 430.843 2.07059 -3.60693 0
M  V30 4721 H 429.42 3.09094 -2.08603 0
M  V30 4722 N 431.605 1.3629 0.791371 0
M  V30 4723 C 432.833 1.33562 1.58016 0
M  V30 4724 C 433.248 -0.0835616 1.88615 0
M  V30 4725 O 432.605 -1.0399 1.49974 0
M  V30 4726 C 432.656 2.15517 2.90232 0
M  V30 4727 O 432.377 3.51902 2.60953 0
M  V30 4728 C 433.878 2.20546 3.84544 0
M  V30 4729 H 431.098 0.458226 0.490173 0
M  V30 4730 H 433.642 1.79361 0.982345 0
M  V30 4731 H 431.797 1.73278 3.46487 0
M  V30 4732 H 432.211 3.94644 3.4548 0
M  V30 4733 H 433.685 2.82252 4.74382 0
M  V30 4734 H 434.162 1.20838 4.2225 0
M  V30 4735 H 434.768 2.63013 3.34222 0
M  V30 4736 N 433.083 -1.0153 1.20538 0
M  V30 4737 C 434.031 -2.12215 0.952235 0
M  V30 4738 C 435.025 -1.69123 -0.0968735 0
M  V30 4739 O 436.231 -1.7992 0.0536006 0
M  V30 4740 H 432.606 -0.693576 0.290613 0
M  V30 4741 H 434.577 -2.3075 1.89201 0
M  V30 4742 C 433.326 -3.43755 0.522287 0
M  V30 4743 H 432.649 -3.7734 1.32115 0
M  V30 4744 H 434.089 -4.22254 0.384389 0
M  V30 4745 C 432.548 -3.28088 -0.765489 0
M  V30 4746 O 433.078 -3.57921 -1.8236 0
M  V30 4747 N 431.284 -2.81333 -0.728011 0
M  V30 4748 H 430.831 -2.57255 0.133332 0
M  V30 4749 H 430.789 -2.71232 -1.58999 0
M  V30 4750 N 434.561 -1.01147 -1.20859 0
M  V30 4751 C 435.81 -0.693214 -1.89413 0
M  V30 4752 C 436.123 0.779969 -1.79376 0
M  V30 4753 O 437.329 1.21057 -2.43017 0
M  V30 4754 C 435.785 -1.18949 -3.39675 0
M  V30 4755 C 435.393 -2.68921 -3.58309 0
M  V30 4756 C 437.137 -0.94642 -4.13815 0
M  V30 4757 C 435.044 -3.12056 -5.0237 0
M  V30 4758 H 433.974 -0.255595 -0.709357 0
M  V30 4759 H 436.625 -1.22349 -1.36759 0
M  V30 4760 H 435.007 -0.587228 -3.91622 0
M  V30 4761 H 436.181 -3.34652 -3.16772 0
M  V30 4762 H 434.496 -2.91314 -2.97532 0
M  V30 4763 H 437.093 -1.24417 -5.20023 0
M  V30 4764 H 437.436 0.117219 -4.16135 0
M  V30 4765 H 437.969 -1.5118 -3.67953 0
M  V30 4766 H 434.708 -4.17674 -5.05202 0
M  V30 4767 H 434.228 -2.51041 -5.44737 0
M  V30 4768 H 435.907 -3.04403 -5.70918 0
M  V30 4769 N 436.039 1.36541 -0.78704 0
M  V30 4770 C 437.316 1.9355 -0.282424 0
M  V30 4771 C 437.696 1.71919 1.22503 0
M  V30 4772 O 437.044 1.07677 2.01539 0
M  V30 4773 C 437.254 3.4246 -0.672462 0
M  V30 4774 C 438.602 4.19582 -0.650863 0
M  V30 4775 O 439.626 3.50889 -0.612789 0
M  V30 4776 O 438.485 5.42106 -0.691623 0
M  V30 4777 H 435.579 0.824091 -0.0693 0
M  V30 4778 H 438.125 1.45736 -0.869423 0
M  V30 4779 H 436.897 3.51851 -1.71221 0
M  V30 4780 H 436.52 3.97556 -0.0592211 0
M  V30 4781 N 437.518 0.538854 1.48102 0
M  V30 4782 C 438.767 0.0059532 2.01699 0
M  V30 4783 C 439.08 -1.34476 1.42041 0
M  V30 4784 O 440.286 -1.96653 1.87189 0
M  V30 4785 C 438.742 -0.0397627 3.59878 0
M  V30 4786 C 438.35 1.30659 4.28523 0
M  V30 4787 C 440.094 -0.521024 4.2129 0
M  V30 4788 C 438.001 1.22098 5.78659 0
M  V30 4789 H 436.931 -0.00154456 0.753998 0
M  V30 4790 H 439.582 0.683963 1.70277 0
M  V30 4791 H 437.964 -0.783037 3.88181 0
M  V30 4792 H 439.138 2.06613 4.11883 0
M  V30 4793 H 437.453 1.7243 3.79021 0
M  V30 4794 H 440.05 -0.603184 5.31287 0
M  V30 4795 H 440.393 -1.52885 3.8721 0
M  V30 4796 H 440.926 0.166834 3.9745 0
M  V30 4797 H 437.665 2.20424 6.17328 0
M  V30 4798 H 437.185 0.50295 5.97688 0
M  V30 4799 H 438.864 0.915345 6.40492 0
M  V30 4800 N 438.996 -1.55193 0.274407 0
M  V30 4801 C 440.236 -2.01488 -0.343778 0
M  V30 4802 C 440.6 -1.1586 -1.53103 0
M  V30 4803 O 441.801 -1.51732 -2.2188 0
M  V30 4804 C 440.072 -3.50134 -0.717021 0
M  V30 4805 S 441.631 -4.18417 -1.32184 0
M  V30 4806 H 438.449 -0.70291 -0.106948 0
M  V30 4807 H 441.051 -1.91446 0.396075 0
M  V30 4808 H 439.755 -4.10104 0.155947 0
M  V30 4809 H 439.286 -3.64159 -1.48835 0
M  V30 4810 H 441.301 -4.21984 -2.61044 0
M  V30 4811 N 440.474 -0.00167713 -1.576 0
M  V30 4812 C 441.721 0.68282 -1.90641 0
M  V30 4813 C 442.049 1.73686 -0.875415 0
M  V30 4814 O 441.304 1.95334 0.119575 0
M  V30 4815 C 441.603 1.36189 -3.30435 0
M  V30 4816 C 441.269 0.440887 -4.48739 0
M  V30 4817 C 439.931 0.187312 -4.80835 0
M  V30 4818 C 442.283 -0.193134 -5.20842 0
M  V30 4819 C 439.611 -0.70855 -5.82406 0
M  V30 4820 C 441.963 -1.07688 -6.23367 0
M  V30 4821 C 440.627 -1.33962 -6.53919 0
M  V30 4822 H 439.897 0.249862 -0.697603 0
M  V30 4823 H 442.544 -0.0575642 -1.91413 0
M  V30 4824 H 440.849 2.17636 -3.25794 0
M  V30 4825 H 442.546 1.89759 -3.5326 0
M  V30 4826 H 439.136 0.648694 -4.23663 0
M  V30 4827 H 443.32 -0.0102445 -4.96299 0
M  V30 4828 H 438.576 -0.920097 -6.04437 0
M  V30 4829 H 442.75 -1.57451 -6.78367 0
M  V30 4830 H 440.377 -2.03549 -7.32442 0
M  V30 4831 N 441.952 1.55251 0.271103 0
M  V30 4832 C 442.884 1.84675 1.35749 0
M  V30 4833 C 443.897 0.731366 1.45447 0
M  V30 4834 O 445.086 1.00924 1.4723 0
M  V30 4835 C 442.186 1.99638 2.73857 0
M  V30 4836 C 441.359 3.30312 2.86727 0
M  V30 4837 C 440.418 3.35318 4.05522 0
M  V30 4838 O 439.444 4.08682 3.96191 0
M  V30 4839 N 440.646 2.62857 5.17577 0
M  V30 4840 H 443.411 2.78445 1.10853 0
M  V30 4841 H 440.972 1.55191 0.461218 0
M  V30 4842 H 442.964 2.00355 3.51625 0
M  V30 4843 H 441.534 1.12725 2.91568 0
M  V30 4844 H 440.754 3.42118 1.95829 0
M  V30 4845 H 442.042 4.16488 2.92258 0
M  V30 4846 H 441.44 2.02939 5.28046 0
M  V30 4847 H 439.997 2.69295 5.93568 0
M  V30 4848 N 443.43 -0.535701 1.48216 0
M  V30 4849 C 444.676 -1.29375 1.56173 0
M  V30 4850 C 445.009 -1.92804 0.232429 0
M  V30 4851 O 444.284 -1.78992 -0.761048 0
M  V30 4852 C 444.567 -2.38747 2.69577 0
M  V30 4853 C 444.42 -1.80046 4.12193 0
M  V30 4854 C 445.739 -3.40551 2.78771 0
M  V30 4855 H 442.858 -0.469027 0.568491 0
M  V30 4856 H 445.5 -0.597358 1.80365 0
M  V30 4857 H 443.65 -2.98147 2.4908 0
M  V30 4858 H 445.322 -1.24742 4.44114 0
M  V30 4859 H 443.565 -1.10609 4.19462 0
M  V30 4860 H 444.236 -2.59212 4.87353 0
M  V30 4861 H 446.712 -2.91099 2.97322 0
M  V30 4862 H 445.588 -4.1448 3.59857 0
M  V30 4863 H 445.849 -4.00746 1.86696 0
M  V30 4864 N 444.908 -1.36708 -0.784132 0
M  V30 4865 C 446.136 -1.34398 -1.57305 0
M  V30 4866 C 446.551 0.0735577 -1.88657 0
M  V30 4867 O 445.908 1.03193 -1.50524 0
M  V30 4868 C 445.959 -2.17053 -2.89085 0
M  V30 4869 O 445.68 -3.53281 -2.59083 0
M  V30 4870 C 447.181 -2.22583 -3.83369 0
M  V30 4871 H 444.401 -0.460819 -0.487736 0
M  V30 4872 H 446.945 -1.79879 -0.972819 0
M  V30 4873 H 445.1 -1.75113 -3.45564 0
M  V30 4874 H 445.514 -3.9647 -3.43383 0
M  V30 4875 H 446.988 -2.84763 -4.72878 0
M  V30 4876 H 447.465 -1.23075 -4.21603 0
M  V30 4877 H 448.071 -2.64781 -3.32823 0
M  V30 4878 N 446.386 1.0089 -1.21074 0
M  V30 4879 C 447.318 2.09737 -0.924291 0
M  V30 4880 C 448.331 1.62546 0.0909809 0
M  V30 4881 O 449.52 1.77942 -0.141021 0
M  V30 4882 C 446.62 3.36922 -0.36559 0
M  V30 4883 C 445.793 4.13216 -1.43426 0
M  V30 4884 C 444.852 5.18696 -0.885496 0
M  V30 4885 O 443.878 5.47176 -1.56801 0
M  V30 4886 N 445.08 5.79718 0.301227 0
M  V30 4887 H 447.845 2.34895 -1.8613 0
M  V30 4888 H 445.406 1.17341 -1.11546 0
M  V30 4889 H 447.398 4.04697 0.0158407 0
M  V30 4890 H 445.968 3.08952 0.476149 0
M  V30 4891 H 445.188 3.40301 -1.9897 0
M  V30 4892 H 446.476 4.60967 -2.15376 0
M  V30 4893 H 445.874 5.58926 0.872849 0
M  V30 4894 H 444.431 6.48804 0.624211 0
M  V30 4895 N 447.864 1.01787 1.20321 0
M  V30 4896 C 449.092 0.727194 1.937 0
M  V30 4897 C 449.507 -0.712305 1.74848 0
M  V30 4898 O 448.864 -1.48327 1.06327 0
M  V30 4899 C 448.915 1.05497 3.45764 0
M  V30 4900 O 448.636 2.43794 3.64 0
M  V30 4901 C 450.137 0.785534 4.36285 0
M  V30 4902 H 447.357 0.266939 0.615617 0
M  V30 4903 H 449.901 1.35939 1.52777 0
M  V30 4904 H 448.056 0.468158 3.84561 0
M  V30 4905 H 448.47 2.55656 4.57974 0
M  V30 4906 H 449.944 1.06495 5.4163 0
M  V30 4907 H 450.421 -0.280273 4.38305 0
M  V30 4908 H 451.027 1.35456 4.03152 0
M  V30 4909 N 449.342 -1.36122 0.79427 0
M  V30 4910 C 450.591 -1.98361 0.365464 0
M  V30 4911 C 450.904 -1.6374 -1.06997 0
M  V30 4912 O 452.11 -2.19251 -1.60129 0
M  V30 4913 C 450.566 -3.54821 0.602496 0
M  V30 4914 C 450.174 -3.98362 2.04967 0
M  V30 4915 C 451.918 -4.2383 0.238437 0
M  V30 4916 C 449.825 -5.47619 2.2331 0
M  V30 4917 H 448.755 -0.742193 0.13291 0
M  V30 4918 H 451.406 -1.55354 0.976589 0
M  V30 4919 H 449.788 -3.95922 -0.078409 0
M  V30 4920 H 450.962 -3.68447 2.76737 0
M  V30 4921 H 449.277 -3.42206 2.37243 0
M  V30 4922 H 451.874 -5.33529 0.353705 0
M  V30 4923 H 452.217 -4.08264 -0.814006 0
M  V30 4924 H 452.75 -3.88108 0.872769 0
M  V30 4925 H 449.489 -5.68138 3.26955 0
M  V30 4926 H 449.009 -5.79145 1.5605 0
M  V30 4927 H 450.688 -6.13911 2.0426 0
M  V30 4928 N 450.82 -0.546701 -1.47814 0
M  V30 4929 C 451.783 0.196287 -2.28358 0
M  V30 4930 C 452.783 0.852437 -1.36346 0
M  V30 4931 O 453.973 0.709913 -1.59078 0
M  V30 4932 C 451.105 1.28579 -3.15722 0
M  V30 4933 H 452.298 -0.511086 -2.95513 0
M  V30 4934 H 449.851 -0.303248 -1.5333 0
M  V30 4935 H 450.586 2.0259 -2.53235 0
M  V30 4936 H 450.371 0.820229 -3.83425 0
M  V30 4937 H 451.861 1.80793 -3.76435 0
M  V30 4938 N 452.299 1.55045 -0.282633 0
M  V30 4939 C 453.546 1.9976 0.33199 0
M  V30 4940 C 453.874 1.17105 1.55295 0
M  V30 4941 O 453.129 0.230599 1.94337 0
M  V30 4942 C 453.428 3.49422 0.750938 0
M  V30 4943 C 453.094 4.4941 -0.366228 0
M  V30 4944 C 451.756 4.76471 -0.672964 0
M  V30 4945 C 454.108 5.09054 -1.11864 0
M  V30 4946 C 451.436 5.60442 -1.73556 0
M  V30 4947 C 453.788 5.9418 -2.17102 0
M  V30 4948 C 452.452 6.19558 -2.48402 0
M  V30 4949 H 451.722 0.730974 0.121484 0
M  V30 4950 H 454.369 1.8732 -0.39791 0
M  V30 4951 H 452.674 3.59377 1.56063 0
M  V30 4952 H 454.371 3.81432 1.23736 0
M  V30 4953 H 450.961 4.2844 -0.117041 0
M  V30 4954 H 455.145 4.88165 -0.894925 0
M  V30 4955 H 450.401 5.78349 -1.983 0
M  V30 4956 H 454.575 6.39427 -2.75873 0
M  V30 4957 H 452.202 6.84417 -3.30874 0
M  V30 4958 N 453.777 0.010035 1.57597 0
M  V30 4959 C 455.024 -0.6727 1.91 0
M  V30 4960 C 455.352 -1.73219 0.884614 0
M  V30 4961 O 454.607 -1.95395 -0.109215 0
M  V30 4962 C 454.906 -1.34434 3.31153 0
M  V30 4963 C 454.572 -0.417083 4.48967 0
M  V30 4964 C 453.234 -0.161809 4.80928 0
M  V30 4965 C 455.586 0.220753 5.20732 0
M  V30 4966 C 452.914 0.739426 5.82022 0
M  V30 4967 C 455.266 1.10993 6.22787 0
M  V30 4968 C 453.93 1.37428 6.532 0
M  V30 4969 H 453.2 -0.246158 0.698918 0
M  V30 4970 H 455.847 0.0677145 1.9138 0
M  V30 4971 H 454.152 -2.15905 3.26944 0
M  V30 4972 H 455.849 -1.87883 3.54261 0
M  V30 4973 H 452.439 -0.626217 4.24001 0
M  V30 4974 H 456.623 0.0365643 4.96287 0
M  V30 4975 H 451.879 0.952139 6.03941 0
M  V30 4976 H 456.053 1.61046 6.77523 0
M  V30 4977 H 453.68 2.0743 7.31353 0
M  V30 4978 N 455.255 -1.55392 -0.262866 0
M  V30 4979 C 456.205 -1.85355 -1.32768 0
M  V30 4980 C 457.189 -0.713188 -1.44231 0
M  V30 4981 O 458.381 -0.974765 -1.47741 0
M  V30 4982 C 455.51 -2.13781 -2.68612 0
M  V30 4983 C 454.596 -3.34104 -2.61219 0
M  V30 4984 N 454.987 -4.53766 -2.2345 0
M  V30 4985 C 453.285 -3.36895 -2.92263 0
M  V30 4986 C 453.986 -5.35877 -2.26298 0
M  V30 4987 N 452.962 -4.74536 -2.65172 0
M  V30 4988 H 456.764 -2.75413 -1.02591 0
M  V30 4989 H 454.278 -1.55405 -0.471503 0
M  V30 4990 H 456.275 -2.33407 -3.45437 0
M  V30 4991 H 454.935 -1.25013 -2.99669 0
M  V30 4992 H 455.946 -4.79682 -1.95258 0
M  V30 4993 H 452.623 -2.58351 -3.27965 0
M  V30 4994 H 454.013 -6.41577 -1.99572 0
M  V30 4995 N 456.733 0.527833 -1.48498 0
M  V30 4996 C 457.958 1.313 -1.60546 0
M  V30 4997 C 458.383 1.86199 -0.26672 0
M  V30 4998 O 457.741 1.64513 0.761918 0
M  V30 4999 C 457.789 2.43818 -2.65678 0
M  V30 5000 O 456.893 3.46916 -2.22987 0
M  V30 5001 H 456.234 0.388784 -0.538277 0
M  V30 5002 H 458.764 0.634896 -1.945 0
M  V30 5003 H 458.774 2.89973 -2.87018 0
M  V30 5004 H 457.449 2.03222 -3.62869 0
M  V30 5005 H 456.026 3.06864 -2.11869 0
M  V30 5006 N 458.211 1.37122 0.776871 0
M  V30 5007 C 459.451 1.33441 1.54831 0
M  V30 5008 C 459.815 -0.0818963 1.91825 0
M  V30 5009 O 461.016 -0.24338 2.67696 0
M  V30 5010 C 459.287 2.24267 2.78279 0
M  V30 5011 S 460.846 2.38389 3.68397 0
M  V30 5012 H 457.664 0.473791 0.530135 0
M  V30 5013 H 460.266 1.7282 0.913968 0
M  V30 5014 H 458.97 3.261 2.49173 0
M  V30 5015 H 458.501 1.85953 3.46677 0
M  V30 5016 H 460.516 1.59068 4.70013 0
M  V30 5017 N 459.689 -1.00246 1.21608 0
M  V30 5018 C 460.619 -2.10921 1.00172 0
M  V30 5019 C 461.6 -1.69938 -0.0741587 0
M  V30 5020 O 462.785 -1.94009 0.0861753 0
M  V30 5021 C 459.915 -3.42618 0.568355 0
M  V30 5022 C 458.869 -3.97407 1.58909 0
M  V30 5023 C 458.195 -5.25038 1.01187 0
M  V30 5024 C 459.495 -4.2918 2.97661 0
M  V30 5025 H 461.189 -2.29112 1.92739 0
M  V30 5026 H 458.735 -1.10101 0.928102 0
M  V30 5027 H 460.688 -4.19444 0.405555 0
M  V30 5028 H 459.412 -3.24227 -0.392961 0
M  V30 5029 H 458.071 -3.22703 1.73949 0
M  V30 5030 H 457.719 -5.02982 0.0421965 0
M  V30 5031 H 457.419 -5.62661 1.6937 0
M  V30 5032 H 458.943 -6.04507 0.860448 0
M  V30 5033 H 460.357 -4.96839 2.86049 0
M  V30 5034 H 458.754 -4.77952 3.6288 0
M  V30 5035 H 459.824 -3.3735 3.48315 0
M  V30 5036 N 461.167 -1.02423 -1.1978 0
M  V30 5037 C 462.115 -0.594474 -2.24875 0
M  V30 5038 C 463.109 0.370598 -1.65296 0
M  V30 5039 O 464.315 0.239684 -1.78397 0
M  V30 5040 H 460.69 -0.173961 -0.731602 0
M  V30 5041 H 462.661 -1.4916 -2.58445 0
M  V30 5042 C 461.41 0.0436512 -3.47673 0
M  V30 5043 H 460.733 -0.689963 -3.93801 0
M  V30 5044 H 462.173 0.307362 -4.22884 0
M  V30 5045 C 460.632 1.28881 -3.11274 0
M  V30 5046 O 461.162 2.38135 -3.23503 0
M  V30 5047 N 459.368 1.1758 -2.6575 0
M  V30 5048 H 458.915 0.286769 -2.55999 0
M  V30 5049 H 458.873 2.00988 -2.41767 0
M  V30 5050 N 462.645 1.35699 -0.801477 0
M  V30 5051 C 464.056 1.81415 -0.441073 0
M  V30 5052 C 464.407 1.66595 1.03636 0
M  V30 5053 O 463.532 1.19369 1.80499 0
M  V30 5054 C 464.127 3.29369 -0.793819 0
M  V30 5055 C 462.686 3.73248 -0.486083 0
M  V30 5056 C 461.833 2.57775 -1.02213 0
M  V30 5057 H 464.784 1.23749 -0.993572 0
M  V30 5058 H 464.805 3.80395 -0.0894158 0
M  V30 5059 H 464.317 3.40123 -1.86917 0
M  V30 5060 H 462.418 3.68046 0.580735 0
M  V30 5061 H 462.531 4.68222 -1.01513 0
M  V30 5062 H 460.895 2.50788 -0.444712 0
M  V30 5063 H 461.678 2.71309 -2.10348 0
M  V30 5064 N 464.123 0.554532 1.47522 0
M  V30 5065 C 465.369 0.0295227 2.02779 0
M  V30 5066 C 465.702 -1.31582 1.42828 0
M  V30 5067 O 464.977 -1.85561 0.582872 0
M  V30 5068 C 465.26 -0.0664057 3.60039 0
M  V30 5069 C 465.113 1.30585 4.30427 0
M  V30 5070 C 466.432 -0.781162 4.33112 0
M  V30 5071 H 463.551 0.0122027 0.736899 0
M  V30 5072 H 466.193 0.716305 1.7598 0
M  V30 5073 H 464.343 -0.651307 3.83002 0
M  V30 5074 H 466.015 1.93374 4.18813 0
M  V30 5075 H 464.258 1.88125 3.90886 0
M  V30 5076 H 464.929 1.19147 5.38988 0
M  V30 5077 H 467.405 -0.284565 4.15126 0
M  V30 5078 H 466.281 -0.817237 5.42782 0
M  V30 5079 H 466.542 -1.83672 4.0214 0
M  V30 5080 N 465.601 -1.54893 0.290851 0
M  V30 5081 C 466.531 -2.26103 -0.583084 0
M  V30 5082 C 467.512 -1.25684 -1.14619 0
M  V30 5083 O 468.697 -1.54436 -1.17741 0
M  V30 5084 C 465.827 -2.99409 -1.75987 0
M  V30 5085 C 464.781 -4.0689 -1.32758 0
M  V30 5086 C 464.107 -4.67856 -2.58872 0
M  V30 5087 C 465.407 -5.20215 -0.46624 0
M  V30 5088 H 467.101 -2.99398 0.0108214 0
M  V30 5089 H 464.647 -1.43998 0.00664468 0
M  V30 5090 H 466.6 -3.47943 -2.37727 0
M  V30 5091 H 465.324 -2.23675 -2.37985 0
M  V30 5092 H 463.983 -3.59191 -0.733299 0
M  V30 5093 H 463.631 -3.88772 -3.19163 0
M  V30 5094 H 463.331 -5.40438 -2.30653 0
M  V30 5095 H 464.855 -5.19147 -3.21433 0
M  V30 5096 H 466.269 -5.64704 -0.989047 0
M  V30 5097 H 464.666 -5.99455 -0.27826 0
M  V30 5098 H 465.736 -4.82198 0.511173 0
M  V30 5099 N 467.08 -0.0183926 -1.57589 0
M  V30 5100 C 468.31 0.67207 -1.95363 0
M  V30 5101 C 468.718 1.66807 -0.892872 0
M  V30 5102 O 468.061 1.83204 0.134958 0
M  V30 5103 C 468.123 1.44397 -3.29226 0
M  V30 5104 C 467.787 0.607511 -4.52944 0
M  V30 5105 C 468.784 -0.112657 -5.19778 0
M  V30 5106 C 466.469 0.548068 -4.99301 0
M  V30 5107 C 468.463 -0.881057 -6.31281 0
M  V30 5108 C 466.15 -0.224044 -6.10689 0
M  V30 5109 C 467.148 -0.937323 -6.76538 0
M  V30 5110 O 466.836 -1.6968 -7.85789 0
M  V30 5111 H 466.568 0.190925 -0.648478 0
M  V30 5112 H 469.122 -0.0711994 -2.05277 0
M  V30 5113 H 467.352 2.23214 -3.15773 0
M  V30 5114 H 469.041 2.02152 -3.51979 0
M  V30 5115 H 469.807 -0.0759998 -4.8494 0
M  V30 5116 H 465.686 1.09281 -4.4786 0
M  V30 5117 H 469.23 -1.43832 -6.82611 0
M  V30 5118 H 465.127 -0.262457 -6.44966 0
M  V30 5119 H 465.895 -1.61544 -8.024 0
M  V30 5120 N 468.558 1.5553 0.254621 0
M  V30 5121 C 469.804 1.77262 0.985193 0
M  V30 5122 C 470.137 0.582286 1.85265 0
M  V30 5123 O 469.412 -0.419666 1.89919 0
M  V30 5124 C 469.695 3.0881 1.85225 0
M  V30 5125 C 469.548 4.38233 1.0135 0
M  V30 5126 C 470.867 3.3653 2.83612 0
M  V30 5127 H 467.986 0.644906 0.356742 0
M  V30 5128 H 470.628 1.88264 0.256236 0
M  V30 5129 H 468.778 2.99562 2.47376 0
M  V30 5130 H 470.45 4.59463 0.411269 0
M  V30 5131 H 468.693 4.32636 0.317574 0
M  V30 5132 H 469.364 5.26644 1.65379 0
M  V30 5133 H 471.84 3.45691 2.31596 0
M  V30 5134 H 470.716 4.29805 3.41407 0
M  V30 5135 H 470.977 2.57064 3.59681 0
M  V30 5136 N 470.036 -0.519951 1.48776 0
M  V30 5137 C 471.283 -1.27522 1.57303 0
M  V30 5138 C 471.611 -1.92869 0.251328 0
M  V30 5139 O 470.866 -1.80372 -0.759243 0
M  V30 5140 C 471.165 -2.37864 2.6675 0
M  V30 5141 C 470.831 -1.90103 4.08867 0
M  V30 5142 C 469.493 -1.76795 4.47546 0
M  V30 5143 C 471.845 -1.54133 4.97888 0
M  V30 5144 C 469.173 -1.25868 5.73039 0
M  V30 5145 C 471.525 -1.04665 6.23881 0
M  V30 5146 C 470.189 -0.899823 6.61407 0
M  V30 5147 H 469.459 -0.466636 0.575614 0
M  V30 5148 H 472.106 -0.579109 1.82534 0
M  V30 5149 H 470.411 -3.13186 2.35418 0
M  V30 5150 H 472.108 -2.95969 2.70561 0
M  V30 5151 H 468.698 -2.01414 3.78326 0
M  V30 5152 H 472.882 -1.6327 4.68675 0
M  V30 5153 H 468.138 -1.13196 6.0083 0
M  V30 5154 H 472.312 -0.759074 6.92251 0
M  V30 5155 H 469.939 -0.503011 7.58534 0
M  V30 5156 N 471.514 -1.37532 -0.769588 0
M  V30 5157 C 472.76 -1.33057 -1.53048 0
M  V30 5158 C 473.093 0.0841865 -1.94017 0
M  V30 5159 O 472.368 1.04198 -1.64235 0
M  V30 5160 C 472.651 -2.27166 -2.79406 0
M  V30 5161 C 472.504 -3.77429 -2.44677 0
M  V30 5162 C 473.823 -2.19683 -3.81349 0
M  V30 5163 H 470.942 -0.484655 -0.555228 0
M  V30 5164 H 473.584 -1.68251 -0.882702 0
M  V30 5165 H 471.734 -1.97283 -3.34682 0
M  V30 5166 H 473.406 -4.17918 -1.953 0
M  V30 5167 H 471.649 -3.95892 -1.77346 0
M  V30 5168 H 472.32 -4.38716 -3.35011 0
M  V30 5169 H 474.796 -2.46029 -3.35573 0
M  V30 5170 H 473.672 -2.87668 -4.67481 0
M  V30 5171 H 473.933 -1.19045 -4.25771 0
M  V30 5172 N 472.992 0.995999 -1.22138 0
M  V30 5173 C 474.24 1.73167 -1.042 0
M  V30 5174 C 474.561 1.90329 0.42423 0
M  V30 5175 O 473.831 1.4607 1.30539 0
M  V30 5176 H 472.411 0.641593 -0.38258 0
M  V30 5177 H 475.073 1.19974 -1.53598 0
M  V30 5178 H 474.169 2.72734 -1.51731 0
M  V30 5179 N 474.47 1.03057 1.19235 0
M  V30 5180 C 475.38 0.622922 2.26179 0
M  V30 5181 C 476.396 -0.346113 1.70523 0
M  V30 5182 O 477.572 -0.203572 2.00369 0
M  V30 5183 C 474.637 -0.0182063 3.46695 0
M  V30 5184 C 473.698 0.998546 4.17526 0
M  V30 5185 C 472.931 0.387917 5.32288 0
M  V30 5186 O 473.154 -0.808668 5.64639 0
M  V30 5187 O 472.088 1.1116 5.91546 0
M  V30 5188 H 475.914 1.51363 2.63292 0
M  V30 5189 H 473.499 0.800856 1.26122 0
M  V30 5190 H 475.381 -0.375606 4.19723 0
M  V30 5191 H 474.056 -0.882895 3.11427 0
M  V30 5192 H 472.963 1.40756 3.4661 0
M  V30 5193 H 474.296 1.83366 4.56769 0
M  V30 5194 N 475.948 -1.35272 0.808662 0
M  V30 5195 C 477.364 -1.51806 0.492653 0
M  V30 5196 C 477.564 -1.7574 -0.985778 0
M  V30 5197 O 476.62 -1.80003 -1.77074 0
M  V30 5198 C 477.933 -2.69202 1.33981 0
M  V30 5199 C 479.481 -2.8308 1.33547 0
M  V30 5200 C 479.956 -4.03502 2.16679 0
M  V30 5201 N 481.447 -4.10684 2.14227 0
M  V30 5202 C 482.182 -5.02984 2.75308 0
M  V30 5203 N 481.678 -6.00603 3.45323 0
M  V30 5204 N 483.471 -4.95746 2.64938 0
M  V30 5205 H 475.622 -1.17993 1.76611 0
M  V30 5206 H 477.885 -0.577476 0.751814 0
M  V30 5207 H 477.591 -2.581 2.38909 0
M  V30 5208 H 477.465 -3.63854 0.994491 0
M  V30 5209 H 479.852 -2.93631 0.294036 0
M  V30 5210 H 479.933 -1.89278 1.72068 0
M  V30 5211 H 479.577 -3.93711 3.20864 0
M  V30 5212 H 479.507 -4.96489 1.75517 0
M  V30 5213 H 481.998 -3.40802 1.63285 0
M  V30 5214 H 482.311 -6.67633 3.89212 0
M  V30 5215 H 480.656 -6.0077 3.49428 0
M  V30 5216 H 483.847 -4.18439 2.09825 0
M  V30 5217 H 484.02 -5.67487 3.12829 0
M  V30 5218 N 477.426 -0.562348 -1.47226 0
M  V30 5219 C 478.673 -0.0402165 -2.0246 0
M  V30 5220 C 479.001 1.31169 -1.43614 0
M  V30 5221 O 478.256 1.86805 -0.5833 0
M  V30 5222 C 478.555 0.0969817 -3.57268 0
M  V30 5223 C 478.221 -1.1847 -4.35058 0
M  V30 5224 C 476.883 -1.53588 -4.56031 0
M  V30 5225 C 479.235 -2.03378 -4.79882 0
M  V30 5226 C 476.563 -2.73452 -5.19077 0
M  V30 5227 C 478.915 -3.2245 -5.44251 0
M  V30 5228 C 477.579 -3.57876 -5.63455 0
M  V30 5229 H 476.849 -0.0147163 -0.740854 0
M  V30 5230 H 479.496 -0.734895 -1.76838 0
M  V30 5231 H 477.801 0.87466 -3.81912 0
M  V30 5232 H 479.498 0.516408 -3.97661 0
M  V30 5233 H 476.088 -0.90126 -4.19017 0
M  V30 5234 H 480.272 -1.77553 -4.63453 0
M  V30 5235 H 475.528 -3.01062 -5.32139 0
M  V30 5236 H 479.702 -3.88526 -5.77945 0
M  V30 5237 H 477.329 -4.50849 -6.12078 0
M  V30 5238 N 478.904 1.54736 -0.299062 0
M  V30 5239 C 480.32 1.59507 0.0543849 0
M  V30 5240 C 480.52 1.31606 1.52585 0
M  V30 5241 O 479.576 1.08853 2.27832 0
M  V30 5242 C 480.889 2.98751 -0.34181 0
M  V30 5243 C 482.437 3.1165 -0.290414 0
M  V30 5244 C 482.912 4.53199 -0.661402 0
M  V30 5245 N 484.403 4.59114 -0.613863 0
M  V30 5246 C 485.138 5.66709 -0.873417 0
M  V30 5247 N 484.634 6.82349 -1.19884 0
M  V30 5248 N 486.427 5.56369 -0.800608 0
M  V30 5249 H 478.578 1.71133 -1.25806 0
M  V30 5250 H 480.841 0.799186 -0.509908 0
M  V30 5251 H 480.547 3.24085 -1.36608 0
M  V30 5252 H 480.421 3.75961 0.305508 0
M  V30 5253 H 482.808 2.86066 0.724605 0
M  V30 5254 H 482.889 2.366 -0.972327 0
M  V30 5255 H 482.533 4.79513 -1.67422 0
M  V30 5256 H 482.463 5.26583 0.0425612 0
M  V30 5257 H 484.954 3.76053 -0.3732 0
M  V30 5258 H 485.267 7.60326 -1.38291 0
M  V30 5259 H 483.612 6.83906 -1.23685 0
M  V30 5260 H 486.803 4.64904 -0.546045 0
M  V30 5261 H 486.976 6.40139 -1.00626 0
M  V30 5262 N 480.382 0.0267497 1.57577 0
M  V30 5263 C 481.798 -0.32962 1.56159 0
M  V30 5264 C 481.998 -1.73059 1.03213 0
M  V30 5265 O 481.054 -2.43233 0.677804 0
M  V30 5266 C 482.367 -0.18039 3.00158 0
M  V30 5267 C 483.915 -0.253334 3.11973 0
M  V30 5268 C 484.39 -0.132921 4.57807 0
M  V30 5269 N 485.881 -0.189979 4.6281 0
M  V30 5270 C 486.616 -0.120554 5.73273 0
M  V30 5271 N 486.112 -0.000180315 6.928 0
M  V30 5272 N 487.905 -0.174369 5.61829 0
M  V30 5273 H 480.056 0.942896 1.90324 0
M  V30 5274 H 482.319 0.3639 0.875375 0
M  V30 5275 H 482.025 0.784576 3.42837 0
M  V30 5276 H 481.899 -0.951565 3.65 0
M  V30 5277 H 484.286 -1.20876 2.69208 0
M  V30 5278 H 484.367 0.548177 2.49857 0
M  V30 5279 H 484.011 0.819073 5.01252 0
M  V30 5280 H 483.941 -0.953264 5.179 0
M  V30 5281 H 486.432 -0.283257 3.76837 0
M  V30 5282 H 486.745 0.0461666 7.72786 0
M  V30 5283 H 485.09 0.034569 6.94991 0
M  V30 5284 H 488.281 -0.266794 4.67339 0
M  V30 5285 H 488.454 -0.116802 6.47895 0
M  V30 5286 N 481.861 -1.55662 -0.24637 0
M  V30 5287 C 483.138 -1.68272 -0.997198 0
M  V30 5288 C 483.518 -0.566785 -2.03349 0
M  V30 5289 O 482.866 0.429688 -2.24424 0
M  V30 5290 C 483.076 -3.08594 -1.63006 0
M  V30 5291 C 484.424 -3.6721 -2.13171 0
M  V30 5292 O 485.448 -3.11397 -1.72946 0
M  V30 5293 O 484.307 -4.65054 -2.87031 0
M  V30 5294 H 481.401 -0.684429 -0.464205 0
M  V30 5295 H 483.947 -1.67993 -0.240114 0
M  V30 5296 H 482.719 -3.81264 -0.880527 0
M  V30 5297 H 482.342 -3.12886 -2.45333 0
M  V30 5298 N 483.339 0.512053 -1.4905 0
M  V30 5299 C 484.269 1.62365 -1.67809 0
M  V30 5300 C 485.25 1.61737 -0.526809 0
M  V30 5301 O 486.435 1.78651 -0.761404 0
M  V30 5302 C 483.565 3.00895 -1.73435 0
M  V30 5303 C 482.519 3.16387 -2.88242 0
M  V30 5304 C 481.845 4.56157 -2.78971 0
M  V30 5305 C 483.145 2.97457 -4.29321 0
M  V30 5306 H 484.839 1.46921 -2.60873 0
M  V30 5307 H 482.385 0.705379 -1.2554 0
M  V30 5308 H 484.338 3.78549 -1.85145 0
M  V30 5309 H 483.062 3.17403 -0.769619 0
M  V30 5310 H 481.721 2.41155 -2.76116 0
M  V30 5311 H 481.369 4.69525 -1.8043 0
M  V30 5312 H 481.069 4.67465 -3.5602 0
M  V30 5313 H 482.593 5.35886 -2.92675 0
M  V30 5314 H 484.007 3.64888 -4.42187 0
M  V30 5315 H 482.404 3.20245 -5.07507 0
M  V30 5316 H 483.474 1.93692 -4.44535 0
M  V30 5317 N 484.817 1.37938 0.762283 0
M  V30 5318 C 486.063 1.33866 1.52341 0
M  V30 5319 C 486.396 -0.0738961 1.94059 0
M  V30 5320 O 485.671 -1.03326 1.64785 0
M  V30 5321 C 485.954 2.28644 2.78197 0
M  V30 5322 C 485.807 3.78722 2.42672 0
M  V30 5323 C 487.126 2.21702 3.80179 0
M  V30 5324 H 484.245 0.487593 0.55265 0
M  V30 5325 H 486.887 1.68717 0.873767 0
M  V30 5326 H 485.037 1.99055 3.33631 0
M  V30 5327 H 486.709 4.18948 1.93081 0
M  V30 5328 H 484.952 3.96827 1.75244 0
M  V30 5329 H 485.623 4.40486 3.3268 0
M  V30 5330 H 488.099 2.47805 3.34263 0
M  V30 5331 H 486.975 2.90143 4.65949 0
M  V30 5332 H 487.236 1.21301 4.25133 0
M  V30 5333 N 486.295 -0.989507 1.22664 0
M  V30 5334 C 487.242 -2.08024 0.999733 0
M  V30 5335 C 488.212 -1.65909 -0.0797047 0
M  V30 5336 O 489.397 -1.90669 0.0705715 0
M  V30 5337 C 486.537 -3.40067 0.587234 0
M  V30 5338 C 485.65 -3.95505 1.73781 0
M  V30 5339 C 484.785 -5.15722 1.27297 0
M  V30 5340 C 483.824 -5.63305 2.39488 0
M  V30 5341 N 482.961 -6.74758 1.94026 0
M  V30 5342 H 487.801 -2.26768 1.9334 0
M  V30 5343 H 485.338 -1.11171 0.963297 0
M  V30 5344 H 487.296 -4.15899 0.329227 0
M  V30 5345 H 485.926 -3.21314 -0.309426 0
M  V30 5346 H 484.978 -3.16513 2.11006 0
M  V30 5347 H 486.29 -4.26797 2.58158 0
M  V30 5348 H 485.444 -5.98854 0.972546 0
M  V30 5349 H 484.183 -4.86061 0.399445 0
M  V30 5350 H 483.188 -4.78759 2.70315 0
M  V30 5351 H 484.413 -5.94988 3.27362 0
M  V30 5352 H 482.359 -6.46874 1.09041 0
M  V30 5353 H 482.276 -7.05386 2.71968 0
M  V30 5354 H 483.544 -7.61387 1.67062 0
M  V30 5355 N 487.773 -1.03688 -1.18687 0
M  V30 5356 C 489.001 -0.757918 -1.92518 0
M  V30 5357 C 489.416 0.684398 -1.75959 0
M  V30 5358 O 488.773 1.46617 -1.08673 0
M  V30 5359 C 488.824 -1.10985 -3.44042 0
M  V30 5360 O 488.545 -2.49554 -3.60076 0
M  V30 5361 C 490.046 -0.854844 -4.3498 0
M  V30 5362 H 487.266 -0.276699 -0.611293 0
M  V30 5363 H 489.81 -1.38352 -1.50595 0
M  V30 5364 H 487.965 -0.529279 -3.83767 0
M  V30 5365 H 488.379 -2.6291 -4.53849 0
M  V30 5366 H 489.853 -1.15098 -5.39867 0
M  V30 5367 H 490.33 0.210507 -4.38695 0
M  V30 5368 H 490.936 -1.41853 -4.00946 0
M  V30 5369 N 489.251 1.34841 -0.815825 0
M  V30 5370 C 490.181 2.32187 -0.247298 0
M  V30 5371 C 491.162 1.5791 0.632344 0
M  V30 5372 O 492.347 1.8593 0.560698 0
M  V30 5373 C 489.477 3.42122 0.597466 0
M  V30 5374 C 488.431 4.27602 -0.184446 0
M  V30 5375 C 487.757 5.28942 0.782609 0
M  V30 5376 C 489.057 5.03502 -1.38865 0
M  V30 5377 H 490.751 2.79985 -1.06061 0
M  V30 5378 H 488.297 1.34611 -0.511461 0
M  V30 5379 H 490.25 4.09232 1.00533 0
M  V30 5380 H 488.974 2.92956 1.44376 0
M  V30 5381 H 487.633 3.62085 -0.573592 0
M  V30 5382 H 487.281 4.7604 1.62466 0
M  V30 5383 H 486.981 5.87008 0.263695 0
M  V30 5384 H 488.505 5.98922 1.18848 0
M  V30 5385 H 489.919 5.63506 -1.05518 0
M  V30 5386 H 488.316 5.71108 -1.8427 0
M  V30 5387 H 489.386 4.33608 -2.17054 0
M  V30 5388 N 490.729 0.570148 1.46925 0
M  V30 5389 C 491.676 -0.170257 2.30171 0
M  V30 5390 C 492.646 -0.896099 1.39855 0
M  V30 5391 O 493.831 -0.889248 1.68811 0
M  V30 5392 C 490.971 -1.18605 3.24079 0
M  V30 5393 C 490.084 -0.464947 4.29491 0
M  V30 5394 C 489.219 -1.46716 5.10537 0
M  V30 5395 C 488.258 -0.731758 6.0771 0
M  V30 5396 N 487.395 -1.68142 6.81669 0
M  V30 5397 H 492.235 0.545713 2.92961 0
M  V30 5398 H 489.772 0.280938 1.44392 0
M  V30 5399 H 491.73 -1.78771 3.76957 0
M  V30 5400 H 490.36 -1.86989 2.63125 0
M  V30 5401 H 489.412 0.251506 3.79568 0
M  V30 5402 H 490.724 0.110548 4.98677 0
M  V30 5403 H 489.878 -2.14199 5.6763 0
M  V30 5404 H 488.617 -2.07658 4.41282 0
M  V30 5405 H 487.622 -0.0430787 5.49783 0
M  V30 5406 H 488.847 -0.127904 6.7898 0
M  V30 5407 H 486.793 -2.27918 6.15134 0
M  V30 5408 H 486.71 -1.15841 7.47072 0
M  V30 5409 H 487.978 -2.347 7.43328 0
M  V30 5410 N 492.207 -1.54576 0.307264 0
M  V30 5411 C 493.155 -2.25208 -0.581723 0
M  V30 5412 C 494.149 -1.26031 -1.13192 0
M  V30 5413 O 495.355 -1.43862 -1.08184 0
M  V30 5414 H 491.73 -0.723173 -0.206214 0
M  V30 5415 H 493.701 -2.98378 0.0364663 0
M  V30 5416 C 492.45 -3.01086 -1.73904 0
M  V30 5417 H 491.773 -3.77208 -1.32491 0
M  V30 5418 H 493.213 -3.5378 -2.33701 0
M  V30 5419 C 491.672 -2.08422 -2.64692 0
M  V30 5420 O 492.202 -1.65636 -3.65961 0
M  V30 5421 N 490.408 -1.74247 -2.32564 0
M  V30 5422 H 489.955 -2.09238 -1.50257 0
M  V30 5423 H 489.913 -1.12524 -2.93574 0
M  V30 5424 N 493.685 -0.035106 -1.57561 0
M  V30 5425 C 494.615 0.942993 -2.13612 0
M  V30 5426 C 495.596 1.33531 -1.05373 0
M  V30 5427 O 496.781 1.41287 -1.33235 0
M  V30 5428 C 493.911 2.22332 -2.66807 0
M  V30 5429 C 492.865 1.97156 -3.79886 0
M  V30 5430 C 492.191 3.31506 -4.19533 0
M  V30 5431 C 493.491 1.30596 -5.05709 0
M  V30 5432 H 495.185 0.476179 -2.95589 0
M  V30 5433 H 492.731 0.227602 -1.4219 0
M  V30 5434 H 494.684 2.91142 -3.04654 0
M  V30 5435 H 493.408 2.7119 -1.81999 0
M  V30 5436 H 492.067 1.30763 -3.42486 0
M  V30 5437 H 491.715 3.78134 -3.31698 0
M  V30 5438 H 491.415 3.15465 -4.95738 0
M  V30 5439 H 492.939 4.01574 -4.59968 0
M  V30 5440 H 494.353 1.89416 -5.41105 0
M  V30 5441 H 492.75 1.24934 -5.86951 0
M  V30 5442 H 493.82 0.279742 -4.84092 0
M  V30 5443 N 495.163 1.55791 0.238111 0
M  V30 5444 C 496.411 1.77681 0.963001 0
M  V30 5445 C 496.732 0.600674 1.85518 0
M  V30 5446 O 496.002 -0.383182 1.92116 0
M  V30 5447 H 494.582 0.655315 0.358568 0
M  V30 5448 H 497.244 1.93239 0.253945 0
M  V30 5449 H 496.34 2.69177 1.57956 0
M  V30 5450 N 496.642 -0.504142 1.49319 0
M  V30 5451 C 497.882 -1.26867 1.60263 0
M  V30 5452 C 498.246 -1.89924 0.281578 0
M  V30 5453 O 499.447 -2.67479 0.266176 0
M  V30 5454 C 497.718 -2.30956 2.72753 0
M  V30 5455 S 499.277 -3.1679 3.03628 0
M  V30 5456 H 496.095 -0.431198 0.565322 0
M  V30 5457 H 498.697 -0.571407 1.86963 0
M  V30 5458 H 497.401 -1.83156 3.67263 0
M  V30 5459 H 496.932 -3.05356 2.48035 0
M  V30 5460 H 498.947 -4.31549 2.44908 0
M  V30 5461 N 498.12 -1.38341 -0.754957 0
M  V30 5462 C 499.369 -1.33791 -1.5094 0
M  V30 5463 C 499.682 0.0699267 -1.95475 0
M  V30 5464 O 500.888 0.237956 -2.70455 0
M  V30 5465 C 499.344 -2.34934 -2.72643 0
M  V30 5466 C 498.952 -3.81332 -2.35138 0
M  V30 5467 C 500.696 -2.39425 -3.50536 0
M  V30 5468 C 498.603 -4.74164 -3.53444 0
M  V30 5469 H 497.533 -0.497314 -0.566741 0
M  V30 5470 H 500.184 -1.63888 -0.825403 0
M  V30 5471 H 498.566 -1.97878 -3.43017 0
M  V30 5472 H 499.74 -4.27319 -1.7244 0
M  V30 5473 H 498.055 -3.79946 -1.70382 0
M  V30 5474 H 500.652 -3.0598 -4.38498 0
M  V30 5475 H 500.995 -1.41278 -3.91594 0
M  V30 5476 H 501.528 -2.75274 -2.87174 0
M  V30 5477 H 498.267 -5.73501 -3.17453 0
M  V30 5478 H 497.787 -4.3287 -4.15191 0
M  V30 5479 H 499.466 -4.92111 -4.20043 0
M  V30 5480 N 499.598 0.982988 -1.23187 0
M  V30 5481 C 500.823 1.76455 -1.08988 0
M  V30 5482 C 501.248 1.84726 0.354691 0
M  V30 5483 O 500.606 1.30699 1.25649 0
M  V30 5484 C 500.654 3.17094 -1.71708 0
M  V30 5485 O 499.758 4.00648 -0.977477 0
M  V30 5486 H 499.099 0.542988 -0.382177 0
M  V30 5487 H 501.629 1.23413 -1.63188 0
M  V30 5488 H 501.639 3.67684 -1.76841 0
M  V30 5489 H 500.314 3.10389 -2.76823 0
M  V30 5490 H 498.891 3.59161 -1.0029 0
M  V30 5491 N 501.076 1.04316 1.18135 0
M  V30 5492 C 502.008 0.594444 2.21357 0
M  V30 5493 C 503.021 -0.337215 1.59269 0
M  V30 5494 O 504.21 -0.131337 1.78016 0
M  V30 5495 C 501.31 -0.151251 3.38562 0
M  V30 5496 C 500.483 0.788907 4.30227 0
M  V30 5497 C 499.542 0.0860572 5.2613 0
M  V30 5498 O 498.568 0.717302 5.64662 0
M  V30 5499 N 499.77 -1.17969 5.68387 0
M  V30 5500 H 502.535 1.48227 2.60478 0
M  V30 5501 H 500.096 0.92396 1.32946 0
M  V30 5502 H 502.088 -0.631352 3.99745 0
M  V30 5503 H 500.658 -0.940639 2.98112 0
M  V30 5504 H 499.878 1.44882 3.6661 0
M  V30 5505 H 501.166 1.42738 4.88368 0
M  V30 5506 H 500.564 -1.71302 5.3914 0
M  V30 5507 H 499.121 -1.60402 6.31755 0
M  V30 5508 N 502.554 -1.34406 0.822964 0
M  V30 5509 C 503.517 -2.2783 0.250271 0
M  V30 5510 C 504.517 -1.50288 -0.571854 0
M  V30 5511 O 505.707 -1.69825 -0.387952 0
M  V30 5512 C 502.839 -3.34663 -0.649137 0
M  V30 5513 H 504.032 -2.79992 1.07444 0
M  V30 5514 H 501.585 -1.44539 0.594829 0
M  V30 5515 H 502.32 -2.87714 -1.49637 0
M  V30 5516 H 502.105 -3.92052 -0.0611199 0
M  V30 5517 H 503.595 -4.04349 -1.04363 0
M  V30 5518 N 504.032 -0.577932 -1.46621 0
M  V30 5519 C 504.964 0.195801 -2.28362 0
M  V30 5520 C 505.977 0.859983 -1.38232 0
M  V30 5521 O 507.166 0.730349 -1.62875 0
M  V30 5522 C 504.266 1.29639 -3.13124 0
M  V30 5523 C 503.439 0.725049 -4.31349 0
M  V30 5524 C 502.498 1.71274 -4.97546 0
M  V30 5525 O 501.524 1.25067 -5.5529 0
M  V30 5526 N 502.726 3.04672 -4.94121 0
M  V30 5527 H 505.491 -0.505468 -2.95407 0
M  V30 5528 H 503.052 -0.415381 -1.56481 0
M  V30 5529 H 505.044 1.95631 -3.54275 0
M  V30 5530 H 503.614 1.90059 -2.48186 0
M  V30 5531 H 502.834 -0.112205 -3.9404 0
M  V30 5532 H 504.122 0.323034 -5.07774 0
M  V30 5533 H 503.52 3.4484 -4.48444 0
M  V30 5534 H 502.077 3.66166 -5.39227 0
M  V30 5535 N 505.51 1.54411 -0.315457 0
M  V30 5536 C 506.756 2.01425 0.282775 0
M  V30 5537 C 507.111 1.19978 1.5041 0
M  V30 5538 O 506.404 0.271766 1.89663 0
M  V30 5539 C 506.598 3.50936 0.676652 0
M  V30 5540 C 506.427 4.46856 -0.504954 0
M  V30 5541 C 505.197 4.95275 -1.00152 0
M  V30 5542 C 507.395 4.96141 -1.35456 0
M  V30 5543 N 505.377 5.75081 -2.14838 0
M  V30 5544 C 506.748 5.73791 -2.3487 0
M  V30 5545 C 508.803 4.78299 -1.38327 0
M  V30 5546 C 507.506 6.35498 -3.36949 0
M  V30 5547 C 509.532 5.40836 -2.39271 0
M  V30 5548 C 508.894 6.1833 -3.37413 0
M  V30 5549 H 504.993 0.779078 0.0675398 0
M  V30 5550 H 507.577 1.8946 -0.448656 0
M  V30 5551 H 505.748 3.63162 1.37723 0
M  V30 5552 H 507.48 3.84728 1.25566 0
M  V30 5553 H 504.235 4.70107 -0.574123 0
M  V30 5554 H 504.659 6.19664 -2.72665 0
M  V30 5555 H 509.301 4.17956 -0.638196 0
M  V30 5556 H 507.019 6.94967 -4.12367 0
M  V30 5557 H 510.605 5.28952 -2.42284 0
M  V30 5558 H 509.485 6.65861 -4.14244 0
M  V30 5559 N 506.988 0.0434614 1.5754 0
M  V30 5560 C 508.234 -0.632971 1.92669 0
M  V30 5561 C 508.567 -1.70947 0.921446 0
M  V30 5562 O 507.842 -1.94426 -0.0537202 0
M  V30 5563 C 508.125 -1.23619 3.38216 0
M  V30 5564 C 507.978 -0.168274 4.49485 0
M  V30 5565 C 509.297 -2.15008 3.84005 0
M  V30 5566 H 506.416 -0.228629 0.700641 0
M  V30 5567 H 509.058 0.103651 1.89717 0
M  V30 5568 H 507.208 -1.864 3.40863 0
M  V30 5569 H 508.88 0.463196 4.58969 0
M  V30 5570 H 507.123 0.504581 4.30855 0
M  V30 5571 H 507.794 -0.630218 5.48391 0
M  V30 5572 H 510.27 -1.62198 3.83185 0
M  V30 5573 H 509.146 -2.54161 4.86511 0
M  V30 5574 H 509.407 -3.04707 3.20322 0
M  V30 5575 N 508.466 -1.55915 -0.229846 0
M  V30 5576 C 509.691 -1.8296 -0.976743 0
M  V30 5577 C 510.116 -0.622735 -1.77493 0
M  V30 5578 O 509.474 0.428431 -1.76165 0
M  V30 5579 C 509.522 -3.07916 -1.8767 0
M  V30 5580 O 508.626 -2.86028 -2.97088 0
M  V30 5581 H 507.967 -0.603453 -0.277021 0
M  V30 5582 H 510.497 -2.0312 -0.245669 0
M  V30 5583 H 510.507 -3.37802 -2.2881 0
M  V30 5584 H 509.182 -3.95389 -1.28996 0
M  V30 5585 H 507.759 -2.67355 -2.59954 0
M  V30 5586 N 509.944 0.496216 -1.49584 0
M  V30 5587 C 511.191 1.25003 -1.59312 0
M  V30 5588 C 511.519 1.92445 -0.28198 0
M  V30 5589 O 510.774 1.81557 0.730452 0
M  V30 5590 C 511.073 2.3359 -2.705 0
M  V30 5591 C 510.739 1.83574 -4.11839 0
M  V30 5592 C 509.401 1.69653 -4.50302 0
M  V30 5593 C 511.753 1.46193 -5.00277 0
M  V30 5594 C 509.081 1.16736 -5.74969 0
M  V30 5595 C 511.433 0.947265 -6.25468 0
M  V30 5596 C 510.097 0.794485 -6.62755 0
M  V30 5597 H 509.367 0.45742 -0.582965 0
M  V30 5598 H 512.014 0.549996 -1.83432 0
M  V30 5599 H 510.319 3.09401 -2.40371 0
M  V30 5600 H 512.016 2.91627 -2.75235 0
M  V30 5601 H 508.606 1.9537 -3.81482 0
M  V30 5602 H 512.79 1.55793 -4.71214 0
M  V30 5603 H 508.046 1.03623 -6.02555 0
M  V30 5604 H 512.22 0.648846 -6.93371 0
M  V30 5605 H 509.847 0.382271 -7.59238 0
M  V30 5606 N 511.423 1.38739 0.74761 0
M  V30 5607 C 512.651 1.38521 1.53686 0
M  V30 5608 C 513.066 -0.0235129 1.88785 0
M  V30 5609 O 512.423 -0.991662 1.53207 0
M  V30 5610 C 512.474 2.24641 2.83229 0
M  V30 5611 O 512.195 3.60026 2.49625 0
M  V30 5612 C 513.696 2.32669 3.77333 0
M  V30 5613 H 510.916 0.473589 0.475347 0
M  V30 5614 H 513.46 1.82395 0.924786 0
M  V30 5615 H 511.615 1.84213 3.40799 0
M  V30 5616 H 512.029 4.05435 3.3275 0
M  V30 5617 H 513.503 2.97201 4.65162 0
M  V30 5618 H 513.98 1.3421 4.18192 0
M  V30 5619 H 514.586 2.73512 3.25685 0
M  V30 5620 N 512.901 -0.976442 1.23707 0
M  V30 5621 C 514.317 -1.24341 1.00058 0
M  V30 5622 C 514.517 -1.99315 -0.295932 0
M  V30 5623 O 513.573 -2.3123 -1.01435 0
M  V30 5624 C 514.886 -2.03909 2.21001 0
M  V30 5625 C 516.434 -2.17034 2.25534 0
M  V30 5626 C 516.909 -2.99994 3.46075 0
M  V30 5627 N 518.4 -3.07578 3.46338 0
M  V30 5628 C 519.135 -3.72104 4.36264 0
M  V30 5629 N 518.631 -4.3842 5.36432 0
M  V30 5630 N 520.424 -3.69029 4.23998 0
M  V30 5631 H 512.575 -0.47428 2.07037 0
M  V30 5632 H 514.838 -0.272167 0.908091 0
M  V30 5633 H 514.544 -1.56198 3.15111 0
M  V30 5634 H 514.418 -3.04654 2.22409 0
M  V30 5635 H 516.805 -2.63951 1.31961 0
M  V30 5636 H 516.886 -1.15664 2.28156 0
M  V30 5637 H 516.53 -2.53772 4.39957 0
M  V30 5638 H 516.46 -4.01541 3.40694 0
M  V30 5639 H 518.951 -2.60397 2.73865 0
M  V30 5640 H 519.264 -4.85447 6.013 0
M  V30 5641 H 517.609 -4.37116 5.40328 0
M  V30 5642 H 520.8 -3.16392 3.44984 0
M  V30 5643 H 520.973 -4.19034 4.94282 0
M  V30 5644 N 514.379 -1.04941 -1.1758 0
M  V30 5645 C 515.795 -0.770282 -1.39781 0
M  V30 5646 C 515.995 0.636417 -1.91186 0
M  V30 5647 O 515.051 1.39923 -2.10185 0
M  V30 5648 C 516.364 -1.82376 -2.3908 0
M  V30 5649 C 517.912 -1.84569 -2.52791 0
M  V30 5650 C 518.387 -2.88933 -3.55361 0
M  V30 5651 N 519.878 -2.8788 -3.62877 0
M  V30 5652 C 520.613 -3.65282 -4.41992 0
M  V30 5653 N 520.109 -4.52461 -5.24643 0
M  V30 5654 N 521.902 -3.53732 -4.36841 0
M  V30 5655 H 514.053 -1.95705 -0.825438 0
M  V30 5656 H 516.316 -0.847284 -0.425222 0
M  V30 5657 H 516.022 -2.83323 -2.08376 0
M  V30 5658 H 515.896 -1.66327 -3.38549 0
M  V30 5659 H 518.283 -0.842879 -2.82807 0
M  V30 5660 H 518.364 -2.04696 -1.53406 0
M  V30 5661 H 518.008 -3.89398 -3.26085 0
M  V30 5662 H 517.938 -2.66059 -4.54445 0
M  V30 5663 H 520.429 -2.24666 -3.03864 0
M  V30 5664 H 520.742 -5.08211 -5.82187 0
M  V30 5665 H 519.087 -4.56524 -5.24033 0
M  V30 5666 H 522.278 -2.85021 -3.71323 0
M  V30 5667 H 522.451 -4.14302 -4.98255 0
M  V30 5668 N 515.857 1.33968 -0.830081 0
M  V30 5669 C 516.767 2.33164 -0.259207 0
M  V30 5670 C 517.783 1.62951 0.610164 0
M  V30 5671 O 518.959 1.94668 0.516369 0
M  V30 5672 C 516.024 3.42088 0.563598 0
M  V30 5673 C 515.085 4.28037 -0.329014 0
M  V30 5674 C 514.318 5.3176 0.454616 0
M  V30 5675 O 514.541 5.44876 1.6872 0
M  V30 5676 O 513.475 6.01669 -0.166794 0
M  V30 5677 H 517.301 2.83832 -1.08041 0
M  V30 5678 H 514.886 1.37154 -0.59239 0
M  V30 5679 H 516.768 4.08581 1.03147 0
M  V30 5680 H 515.443 2.93651 1.36201 0
M  V30 5681 H 514.35 3.64443 -0.844538 0
M  V30 5682 H 515.683 4.79934 -1.09196 0
M  V30 5683 N 517.335 0.585699 1.46312 0
M  V30 5684 C 518.583 0.072278 2.01971 0
M  V30 5685 C 518.904 -1.29345 1.45928 0
M  V30 5686 O 518.174 -1.84973 0.645109 0
M  V30 5687 H 516.754 0.023729 0.746623 0
M  V30 5688 H 519.416 0.762155 1.7938 0
M  V30 5689 H 518.512 0.00552767 3.121 0
M  V30 5690 N 518.813 -1.54241 0.323641 0
M  V30 5691 C 520.038 -2.05452 -0.283605 0
M  V30 5692 C 520.463 -1.19823 -1.44997 0
M  V30 5693 O 519.821 -0.207358 -1.8011 0
M  V30 5694 C 519.869 -3.53823 -0.695795 0
M  V30 5695 O 518.973 -3.71134 -1.79815 0
M  V30 5696 H 518.314 -0.662024 -0.0511917 0
M  V30 5697 H 520.844 -1.99079 0.472073 0
M  V30 5698 H 520.854 -3.96094 -0.978434 0
M  V30 5699 H 519.529 -4.15602 0.157287 0
M  V30 5700 H 518.106 -3.40768 -1.51431 0
M  V30 5701 N 520.291 -0.0518155 -1.57515 0
M  V30 5702 C 521.221 0.920283 -2.146 0
M  V30 5703 C 522.202 1.32406 -1.06783 0
M  V30 5704 O 523.387 1.39866 -1.34726 0
M  V30 5705 C 520.517 2.1949 -2.6915 0
M  V30 5706 C 519.471 1.93116 -3.81956 0
M  V30 5707 C 518.797 3.27037 -4.23026 0
M  V30 5708 C 520.097 1.25225 -5.07066 0
M  V30 5709 H 521.791 0.444801 -2.96077 0
M  V30 5710 H 519.337 0.212508 -1.42423 0
M  V30 5711 H 521.29 2.87894 -3.07725 0
M  V30 5712 H 520.014 2.69244 -1.84865 0
M  V30 5713 H 518.673 1.27123 -3.43854 0
M  V30 5714 H 518.321 3.74595 -3.3569 0
M  V30 5715 H 518.021 3.10189 -4.99056 0
M  V30 5716 H 519.545 3.96673 -4.64202 0
M  V30 5717 H 520.959 1.83666 -5.43083 0
M  V30 5718 H 519.356 1.18702 -5.88243 0
M  V30 5719 H 520.426 0.228382 -4.84362 0
M  V30 5720 N 521.769 1.56035 0.221574 0
M  V30 5721 C 522.716 1.92413 1.27459 0
M  V30 5722 C 523.686 0.781323 1.46576 0
M  V30 5723 O 524.871 1.03721 1.60145 0
M  V30 5724 C 522.011 2.24617 2.61995 0
M  V30 5725 C 521.124 3.51831 2.50677 0
M  V30 5726 C 520.259 3.73482 3.77736 0
M  V30 5727 C 519.298 4.94211 3.6114 0
M  V30 5728 N 518.435 5.12252 4.80148 0
M  V30 5729 H 523.275 2.82203 0.957355 0
M  V30 5730 H 520.812 1.39676 0.461415 0
M  V30 5731 H 522.77 2.41298 3.40339 0
M  V30 5732 H 521.4 1.38 2.91815 0
M  V30 5733 H 520.452 3.43343 1.63767 0
M  V30 5734 H 521.764 4.40328 2.34334 0
M  V30 5735 H 520.918 3.9026 4.64523 0
M  V30 5736 H 519.657 2.83266 3.97003 0
M  V30 5737 H 518.662 4.77384 2.72736 0
M  V30 5738 H 519.887 5.85912 3.43343 0
M  V30 5739 H 517.833 4.24978 4.99729 0
M  V30 5740 H 517.75 5.94881 4.66532 0
M  V30 5741 H 519.018 5.33465 5.68362 0
M  V30 5742 N 523.247 -0.488276 1.49845 0
M  V30 5743 C 524.177 -1.59675 1.70371 0
M  V30 5744 C 525.158 -1.60878 0.552473 0
M  V30 5745 O 526.343 -1.77417 0.78973 0
M  V30 5746 C 523.473 -2.98098 1.782 0
M  V30 5747 C 522.427 -3.11761 2.93239 0
M  V30 5748 C 521.753 -4.51661 2.86193 0
M  V30 5749 C 523.053 -2.90589 4.33999 0
M  V30 5750 H 524.747 -1.42752 2.63177 0
M  V30 5751 H 522.293 -0.685317 1.26647 0
M  V30 5752 H 524.246 -3.75555 1.91144 0
M  V30 5753 H 522.97 -3.16138 0.820018 0
M  V30 5754 H 521.629 -2.36732 2.79917 0
M  V30 5755 H 521.277 -4.66595 1.87877 0
M  V30 5756 H 520.977 -4.61742 3.63412 0
M  V30 5757 H 522.501 -5.31162 3.01163 0
M  V30 5758 H 523.915 -3.57807 4.47936 0
M  V30 5759 H 522.312 -3.1213 5.12538 0
M  V30 5760 H 523.382 -1.86595 4.4756 0
M  V30 5761 N 524.725 -1.39134 -0.740242 0
M  V30 5762 C 525.95 -1.39518 -1.53459 0
M  V30 5763 C 526.375 0.00968883 -1.88098 0
M  V30 5764 O 525.733 0.995312 -1.51536 0
M  V30 5765 C 525.781 -2.26981 -2.802 0
M  V30 5766 O 524.885 -1.69609 -3.75908 0
M  V30 5767 H 524.226 -0.475328 -0.463637 0
M  V30 5768 H 526.756 -1.83064 -0.913717 0
M  V30 5769 H 526.766 -2.41309 -3.28989 0
M  V30 5770 H 525.441 -3.29081 -2.5432 0
M  V30 5771 H 524.018 -1.64495 -3.34658 0
M  V30 5772 N 526.204 0.969867 -1.24223 0
M  V30 5773 C 527.429 1.75289 -1.10853 0
M  V30 5774 C 527.854 1.85091 0.335079 0
M  V30 5775 O 527.212 1.32024 1.24255 0
M  V30 5776 C 527.26 3.15255 -1.75062 0
M  V30 5777 O 526.364 3.99589 -1.01992 0
M  V30 5778 H 525.705 0.538904 -0.387915 0
M  V30 5779 H 528.235 1.21675 -1.64488 0
M  V30 5780 H 528.245 3.65787 -1.80731 0
M  V30 5781 H 526.92 3.07436 -2.801 0
M  V30 5782 H 525.497 3.58077 -1.04094 0
M  V30 5783 N 527.682 1.05563 1.17022 0
M  V30 5784 C 528.615 0.604197 2.20056 0
M  V30 5785 C 529.593 -0.369169 1.58354 0
M  V30 5786 O 530.777 -0.279898 1.8641 0
M  V30 5787 C 527.904 -0.115265 3.38504 0
M  V30 5788 C 526.95 0.813698 4.18666 0
M  V30 5789 S 527.783 2.30492 4.83357 0
M  V30 5790 C 528.939 1.59674 6.0519 0
M  V30 5791 H 529.172 1.47713 2.58008 0
M  V30 5792 H 526.705 0.867932 1.27696 0
M  V30 5793 H 528.663 -0.524162 4.0714 0
M  V30 5794 H 527.324 -0.964284 2.98932 0
M  V30 5795 H 526.517 0.256736 5.03346 0
M  V30 5796 H 526.119 1.16213 3.55486 0
M  V30 5797 H 528.411 0.898164 6.7152 0
M  V30 5798 H 529.354 2.42115 6.65422 0
M  V30 5799 H 529.762 1.08252 5.54023 0
M  V30 5800 N 529.16 -1.33526 0.837174 0
M  V30 5801 C 530.09 -2.31764 0.284206 0
M  V30 5802 C 531.071 -1.58896 -0.607142 0
M  V30 5803 O 532.256 -1.86798 -0.531047 0
M  V30 5804 C 529.386 -3.43029 -0.542962 0
M  V30 5805 C 528.34 -4.27255 0.252451 0
M  V30 5806 C 527.666 -5.3012 -0.69836 0
M  V30 5807 C 528.966 -5.01229 1.46858 0
M  V30 5808 H 530.66 -2.78262 1.10502 0
M  V30 5809 H 528.206 -1.3378 0.532812 0
M  V30 5810 H 530.159 -4.1078 -0.940096 0
M  V30 5811 H 528.883 -2.95216 -1.39697 0
M  V30 5812 H 527.542 -3.61127 0.631124 0
M  V30 5813 H 527.19 -4.78564 -1.54872 0
M  V30 5814 H 526.89 -5.87353 -0.170274 0
M  V30 5815 H 528.414 -6.00737 -1.09305 0
M  V30 5816 H 529.828 -5.61756 1.14469 0
M  V30 5817 H 528.225 -5.68104 1.93333 0
M  V30 5818 H 529.295 -4.301 2.23924 0
M  V30 5819 N 530.638 -0.59345 -1.46 0
M  V30 5820 C 531.568 0.121192 -2.33185 0
M  V30 5821 C 532.549 0.872977 -1.4599 0
M  V30 5822 O 533.734 0.846321 -1.74789 0
M  V30 5823 C 530.864 1.12844 -3.28456 0
M  V30 5824 C 529.818 0.4908 -4.25177 0
M  V30 5825 C 529.144 1.60529 -5.10034 0
M  V30 5826 C 530.444 -0.578949 -5.19081 0
M  V30 5827 H 532.138 -0.606767 -2.93187 0
M  V30 5828 H 529.684 -0.293242 -1.40983 0
M  V30 5829 H 531.637 1.63684 -3.88311 0
M  V30 5830 H 530.361 1.88681 -2.66584 0
M  V30 5831 H 529.02 0.00339328 -3.666 0
M  V30 5832 H 528.668 2.35359 -4.44539 0
M  V30 5833 H 528.368 1.18422 -5.75543 0
M  V30 5834 H 529.892 2.11623 -5.72755 0
M  V30 5835 H 531.306 -0.155199 -5.7309 0
M  V30 5836 H 529.703 -0.920947 -5.92991 0
M  V30 5837 H 530.773 -1.46109 -4.62364 0
M  V30 5838 N 532.116 1.54067 -0.331816 0
M  V30 5839 C 533.026 2.28322 0.539104 0
M  V30 5840 C 534.042 1.32985 1.1221 0
M  V30 5841 O 535.218 1.6601 1.1403 0
M  V30 5842 C 532.283 3.03277 1.68 0
M  V30 5843 C 531.344 4.14216 1.12798 0
M  V30 5844 C 530.577 4.85588 2.2145 0
M  V30 5845 O 530.8 4.56536 3.41952 0
M  V30 5846 O 529.734 5.72309 1.86404 0
M  V30 5847 H 533.56 3.03632 -0.0641692 0
M  V30 5848 H 531.145 1.49083 -0.0972365 0
M  V30 5849 H 533.027 3.50189 2.34405 0
M  V30 5850 H 531.702 2.30834 2.2693 0
M  V30 5851 H 530.609 3.71635 0.428782 0
M  V30 5852 H 531.942 4.88727 0.583698 0
M  V30 5853 N 533.594 0.0601682 1.57485 0
M  V30 5854 C 534.822 -0.620937 1.97363 0
M  V30 5855 C 535.237 -1.63846 0.938082 0
M  V30 5856 O 534.594 -1.82339 -0.0766578 0
M  V30 5857 C 534.645 -1.29987 3.37321 0
M  V30 5858 O 534.366 -0.323081 4.36907 0
M  V30 5859 C 535.867 -2.06989 3.92008 0
M  V30 5860 H 533.087 -0.169135 0.649334 0
M  V30 5861 H 535.631 0.129132 2.04092 0
M  V30 5862 H 533.786 -2.0011 3.31715 0
M  V30 5863 H 534.2 -0.808754 5.18227 0
M  V30 5864 H 535.674 -2.49901 4.92192 0
M  V30 5865 H 536.151 -2.92173 3.2792 0
M  V30 5866 H 536.757 -1.41757 4.0098 0
M  V30 5867 N 535.072 -1.5615 -0.213296 0
M  V30 5868 C 536.3 -1.83638 -0.953139 0
M  V30 5869 C 536.715 -0.640362 -1.77609 0
M  V30 5870 O 536.072 0.391071 -1.78261 0
M  V30 5871 C 536.123 -3.09735 -1.86405 0
M  V30 5872 O 535.844 -4.24723 -1.07435 0
M  V30 5873 C 537.345 -3.5027 -2.71709 0
M  V30 5874 H 534.565 -0.610263 -0.278962 0
M  V30 5875 H 537.109 -2.03247 -0.226035 0
M  V30 5876 H 535.264 -2.92077 -2.545 0
M  V30 5877 H 535.678 -4.9641 -1.69343 0
M  V30 5878 H 537.152 -4.41515 -3.31313 0
M  V30 5879 H 537.629 -2.72406 -3.44516 0
M  V30 5880 H 538.235 -3.70396 -2.09015 0
M  V30 5881 N 536.55 0.480323 -1.50102 0
M  V30 5882 C 537.775 1.26126 -1.64642 0
M  V30 5883 C 538.2 1.85257 -0.325823 0
M  V30 5884 O 537.558 1.66854 0.709194 0
M  V30 5885 C 537.606 2.35243 -2.73301 0
M  V30 5886 O 536.71 3.39646 -2.33911 0
M  V30 5887 H 536.051 0.371463 -0.550374 0
M  V30 5888 H 538.581 0.572696 -1.96421 0
M  V30 5889 H 538.591 2.80695 -2.96098 0
M  V30 5890 H 537.266 1.91574 -3.6915 0
M  V30 5891 H 535.843 2.99969 -2.21525 0
M  V30 5892 N 538.028 1.39524 0.732853 0
M  V30 5893 C 539.276 1.36594 1.48951 0
M  V30 5894 C 539.597 -0.0367507 1.94965 0
M  V30 5895 O 538.867 -0.988391 1.69138 0
M  V30 5896 H 537.447 0.502673 0.552566 0
M  V30 5897 H 540.109 1.74411 0.869869 0
M  V30 5898 H 539.205 2.03 2.3706 0
M  V30 5899 N 539.506 -0.963266 1.24736 0
M  V30 5900 C 540.469 -2.04013 1.04457 0
M  V30 5901 C 541.469 -1.608 0.000335555 0
M  V30 5902 O 542.659 -1.72515 0.241719 0
M  V30 5903 C 539.791 -3.35858 0.584162 0
M  V30 5904 H 540.984 -2.23436 2.00041 0
M  V30 5905 H 538.537 -1.13914 1.07021 0
M  V30 5906 H 539.272 -3.22128 -0.374673 0
M  V30 5907 H 539.057 -3.68568 1.3379 0
M  V30 5908 H 540.547 -4.1502 0.463451 0
M  V30 5909 N 540.985 -1.06182 -1.16461 0
M  V30 5910 C 541.915 -0.692861 -2.22984 0
M  V30 5911 C 542.896 0.314122 -1.67174 0
M  V30 5912 O 544.081 0.189499 -1.93273 0
M  V30 5913 C 541.211 -0.07732 -3.47214 0
M  V30 5914 C 540.165 -1.01015 -4.15909 0
M  V30 5915 C 539.491 -0.257973 -5.34077 0
M  V30 5916 C 540.791 -2.33868 -4.67015 0
M  V30 5917 H 542.485 -1.58343 -2.54102 0
M  V30 5918 H 540.031 -0.76279 -1.22137 0
M  V30 5919 H 541.984 0.19266 -4.20959 0
M  V30 5920 H 540.708 0.848254 -3.15392 0
M  V30 5921 H 539.367 -1.26486 -3.44088 0
M  V30 5922 H 539.015 0.670684 -4.98509 0
M  V30 5923 H 538.715 -0.879638 -5.80979 0
M  V30 5924 H 540.239 0.00448788 -6.106 0
M  V30 5925 H 541.653 -2.1279 -5.32347 0
M  V30 5926 H 540.05 -2.91522 -5.24533 0
M  V30 5927 H 541.12 -2.97019 -3.83286 0
M  V30 5928 N 542.463 1.3308 -0.844243 0
M  V30 5929 C 543.688 2.02341 -0.455282 0
M  V30 5930 C 544.113 1.6308 0.93737 0
M  V30 5931 O 543.471 0.826118 1.61385 0
M  V30 5932 C 543.519 3.55743 -0.58988 0
M  V30 5933 O 542.623 4.1063 0.38166 0
M  V30 5934 H 541.964 0.637898 -0.184343 0
M  V30 5935 H 544.494 1.6986 -1.14056 0
M  V30 5936 H 544.504 4.05243 -0.473522 0
M  V30 5937 H 543.179 3.83662 -1.60549 0
M  V30 5938 H 541.756 3.72236 0.22241 0
M  V30 5939 N 543.941 0.601185 1.45683 0
M  V30 5940 C 544.871 -0.108824 2.33246 0
M  V30 5941 C 545.852 -0.865223 1.46451 0
M  V30 5942 O 547.037 -0.83704 1.75235 0
M  V30 5943 C 544.167 -1.11101 3.2905 0
M  V30 5944 C 543.121 -0.468244 4.25431 0
M  V30 5945 C 542.447 -1.57822 5.10878 0
M  V30 5946 C 543.747 0.606469 5.18767 0
M  V30 5947 H 545.441 0.622306 2.92861 0
M  V30 5948 H 542.987 0.300714 1.40825 0
M  V30 5949 H 544.94 -1.61622 3.89174 0
M  V30 5950 H 543.664 -1.87265 2.67581 0
M  V30 5951 H 542.323 0.0160484 3.66596 0
M  V30 5952 H 541.971 -2.32998 4.45781 0
M  V30 5953 H 541.671 -1.15369 5.76163 0
M  V30 5954 H 543.195 -2.08583 5.73869 0
M  V30 5955 H 544.609 0.185589 5.73 0
M  V30 5956 H 543.006 0.952381 5.92494 0
M  V30 5957 H 544.076 1.48559 4.61582 0
M  V30 5958 O 545.458 -1.54135 0.48216 0
M  V30 5959 H 546.149 -1.93658 -0.0403371 0
M  V30 END ATOM
M  V30 BEGIN BOND
M  V30 END BOND
M  V30 END CTAB
M  END
$$$$
