drugbank_target|P51687 Sulfite oxidase, mitochondrial (DB03983)
 OpenBabel12092120263D

  0  0  0     0  0            999 V3000
M  V30 BEGIN CTAB
M  V30 COUNTS 8397 8514 0 0 0
M  V30 BEGIN ATOM
M  V30 1 H -0.908 1.98254 -0.117106 0
M  V30 2 N 0 1.576 0 0
M  V30 3 C 0.933 2.03868 1.02534 0
M  V30 4 C 1.911 0.928543 1.3348 0
M  V30 5 O 3.095 1.19667 1.45644 0
M  V30 6 C 0.222 2.43627 2.35294 0
M  V30 7 C -0.732 3.65373 2.2001 0
M  V30 8 S 0.101 5.13292 1.52614 0
M  V30 9 C 1.257 5.56322 2.86805 0
M  V30 10 H 1.49 2.90518 0.631377 0
M  V30 11 H -0.977 1.52953 0.210867 0
M  V30 12 H 0.981 2.67203 3.11629 0
M  V30 13 H -0.358 1.57376 2.7183 0
M  V30 14 H -1.165 3.90944 3.18086 0
M  V30 15 H -1.563 3.418 1.51819 0
M  V30 16 H 0.729 5.58782 3.83104 0
M  V30 17 H 1.672 6.56266 2.65933 0
M  V30 18 H 2.08 4.83886 2.90714 0
M  V30 19 N 1.4781 -0.272755 1.55222 0
M  V30 20 C 2.4081 -1.34136 1.91127 0
M  V30 21 C 3.3891 -1.51513 0.773168 0
M  V30 22 O 4.5741 -1.64552 1.03132 0
M  V30 23 C 1.7041 -2.70083 2.1834 0
M  V30 24 C 0.6581 -2.67437 3.34158 0
M  V30 25 C -0.0159 -4.06938 3.46851 0
M  V30 26 C 1.2841 -2.26686 4.70543 0
M  V30 27 H 2.9781 -1.04333 2.80633 0
M  V30 28 H 0.5241 -0.500454 1.35024 0
M  V30 29 H 2.4771 -3.44952 2.42046 0
M  V30 30 H 1.2011 -3.01469 1.25634 0
M  V30 31 H -0.1399 -1.95026 3.1042 0
M  V30 32 H -0.4919 -4.35547 2.51611 0
M  V30 33 H -0.7919 -4.06062 4.2472 0
M  V30 34 H 0.7321 -4.83545 3.72849 0
M  V30 35 H 2.1461 -2.91277 4.93792 0
M  V30 36 H 0.5431 -2.36971 5.5133 0
M  V30 37 H 1.6131 -1.21818 4.69349 0
M  V30 38 N 2.9562 -1.48159 -0.537278 0
M  V30 39 C 3.8862 -1.65029 -1.6519 0
M  V30 40 C 4.8672 -0.499281 -1.62607 0
M  V30 41 O 6.0522 -0.730972 -1.79918 0
M  V30 42 C 3.1822 -1.68303 -3.03795 0
M  V30 43 C 2.1362 -2.8283 -3.21234 0
M  V30 44 C 1.4622 -2.71189 -4.60826 0
M  V30 45 C 2.7622 -4.24211 -3.04701 0
M  V30 46 H 4.4562 -2.58341 -1.51328 0
M  V30 47 H 2.0022 -1.24325 -0.726585 0
M  V30 48 H 3.9552 -1.78693 -3.81637 0
M  V30 49 H 2.6792 -0.715635 -3.18663 0
M  V30 50 H 1.3382 -2.71983 -2.45807 0
M  V30 51 H 0.9862 -1.72435 -4.7252 0
M  V30 52 H 0.6862 -3.48035 -4.7344 0
M  V30 53 H 2.2102 -2.83537 -5.40777 0
M  V30 54 H 3.6242 -4.3593 -3.72341 0
M  V30 55 H 2.0212 -5.01998 -3.28813 0
M  V30 56 H 3.0912 -4.41184 -2.01209 0
M  V30 57 N 4.4343 0.785586 -1.36625 0
M  V30 58 C 5.3643 1.91259 -1.33949 0
M  V30 59 C 6.3453 1.68795 -0.210325 0
M  V30 60 O 7.5303 1.89854 -0.408561 0
M  V30 61 C 4.6603 3.28339 -1.13186 0
M  V30 62 C 3.6143 3.65335 -2.22967 0
M  V30 63 C 2.9403 5.00806 -1.87342 0
M  V30 64 C 4.2403 3.7352 -3.65075 0
M  V30 65 H 5.9343 1.93755 -2.28253 0
M  V30 66 H 3.4803 0.930788 -1.09874 0
M  V30 67 H 5.4333 4.06804 -1.09948 0
M  V30 68 H 4.1573 3.2624 -0.153332 0
M  V30 69 H 2.8163 2.89169 -2.25337 0
M  V30 70 H 2.4643 4.95233 -0.880545 0
M  V30 71 H 2.1643 5.26529 -2.60846 0
M  V30 72 H 3.6883 5.81687 -1.85667 0
M  V30 73 H 5.1023 4.42168 -3.64911 0
M  V30 74 H 3.4993 4.10731 -4.37516 0
M  V30 75 H 4.5693 2.74527 -3.99703 0
M  V30 76 N 5.9124 1.20967 1.01018 0
M  V30 77 C 6.8624 0.93182 2.08089 0
M  V30 78 C 7.8464 -0.110898 1.60517 0
M  V30 79 O 9.0384 0.0973392 1.76732 0
M  V30 80 C 6.1674 0.492719 3.39746 0
M  V30 81 C 5.2534 1.56922 3.94 0
M  V30 82 N 5.6444 2.79312 4.21686 0
M  V30 83 C 3.9424 1.43688 4.2222 0
M  V30 84 C 4.6434 3.48797 4.65527 0
M  V30 85 N 3.6194 2.76224 4.68189 0
M  V30 86 H 7.4214 1.86175 2.27412 0
M  V30 87 H 4.9354 1.10463 1.19045 0
M  V30 88 H 6.9324 0.275044 4.15992 0
M  V30 89 H 5.5924 -0.430509 3.21833 0
M  V30 90 H 6.6034 3.15903 4.10397 0
M  V30 91 H 3.2804 0.578548 4.13472 0
M  V30 92 H 4.6704 4.53561 4.95714 0
M  V30 93 N 7.3905 -1.2043 1.01659 0
M  V30 94 C 8.8065 -1.41852 0.731442 0
M  V30 95 C 9.0065 -1.89358 -0.688898 0
M  V30 96 O 8.0625 -2.06247 -1.45666 0
M  V30 97 C 9.3755 -2.44019 1.75714 0
M  V30 98 C 10.9235 -2.57785 1.77527 0
M  V30 99 C 11.3985 -3.63194 2.79023 0
M  V30 100 N 12.8895 -3.70678 2.77763 0
M  V30 101 C 13.6245 -4.51897 3.52954 0
M  V30 102 N 13.1205 -5.36921 4.37821 0
M  V30 103 N 14.9135 -4.4643 3.41551 0
M  V30 104 H 7.0645 -0.879093 1.93354 0
M  V30 105 H 9.3275 -0.448425 0.835236 0
M  V30 106 H 9.0335 -2.1611 2.77469 0
M  V30 107 H 8.9075 -3.43007 1.56927 0
M  V30 108 H 11.2945 -2.85023 0.764569 0
M  V30 109 H 11.3755 -1.58992 2.00387 0
M  V30 110 H 11.0195 -3.36699 3.80258 0
M  V30 111 H 10.9495 -4.61609 2.53425 0
M  V30 112 H 13.4405 -3.09944 2.16201 0
M  V30 113 H 13.7535 -5.95981 4.91962 0
M  V30 114 H 12.0985 -5.36424 4.41899 0
M  V30 115 H 15.2895 -3.79042 2.74672 0
M  V30 116 H 15.4625 -5.09491 4.00404 0
M  V30 117 N 8.8686 -0.792821 -1.36206 0
M  V30 118 C 9.8316 -0.199459 -2.2833 0
M  V30 119 C 10.8316 0.605189 -1.48977 0
M  V30 120 O 12.0216 0.425685 -1.68919 0
M  V30 121 C 9.1536 0.723523 -3.33134 0
M  V30 122 H 10.3466 -1.01181 -2.82316 0
M  V30 123 H 7.8996 -0.562485 -1.45828 0
M  V30 124 H 8.6346 1.56008 -2.84309 0
M  V30 125 H 8.4196 0.148436 -3.91819 0
M  V30 126 H 9.9096 1.13344 -4.01924 0
M  V30 127 N 10.3467 1.47872 -0.545128 0
M  V30 128 C 11.5927 2.02793 -0.0166104 0
M  V30 129 C 11.9257 1.41987 1.32489 0
M  V30 130 O 11.2007 0.571045 1.85928 0
M  V30 131 C 11.4837 3.59989 0.0893294 0
M  V30 132 C 11.3367 4.3125 -1.27841 0
M  V30 133 C 12.6557 4.32606 0.808724 0
M  V30 134 H 9.7747 0.736962 -0.00751035 0
M  V30 135 H 12.4167 1.76433 -0.705085 0
M  V30 136 H 10.5667 3.82579 0.675681 0
M  V30 137 H 12.2387 4.20035 -1.90704 0
M  V30 138 H 10.4817 3.92076 -1.85632 0
M  V30 139 H 11.1527 5.39736 -1.15713 0
M  V30 140 H 13.6287 4.14936 0.310992 0
M  V30 141 H 12.5047 5.42251 0.851782 0
M  V30 142 H 12.7657 4.00963 1.86229 0
M  V30 143 N 11.8248 0.280983 1.55075 0
M  V30 144 C 13.0708 -0.33461 2.00021 0
M  V30 145 C 13.4038 -1.55063 1.16915 0
M  V30 146 O 12.6788 -1.93006 0.240646 0
M  V30 147 C 12.9618 -0.711007 3.53011 0
M  V30 148 C 12.8148 0.512766 4.46868 0
M  V30 149 C 14.1338 -1.54522 4.12081 0
M  V30 150 H 11.2528 -0.120147 0.727141 0
M  V30 151 H 13.8948 0.389097 1.85973 0
M  V30 152 H 12.0448 -1.32761 3.65112 0
M  V30 153 H 13.7168 1.15131 4.46702 0
M  V30 154 H 11.9598 1.14975 4.18286 0
M  V30 155 H 12.6308 0.205556 5.51617 0
M  V30 156 H 15.1068 -1.02442 4.03293 0
M  V30 157 H 13.9828 -1.77739 5.19327 0
M  V30 158 H 14.2438 -2.52813 3.62682 0
M  V30 159 N 13.3029 -1.57598 0.00835791 0
M  V30 160 C 14.2329 -2.1198 -0.979113 0
M  V30 161 C 15.2139 -1.03091 -1.35301 0
M  V30 162 O 16.3989 -1.30818 -1.43528 0
M  V30 163 C 13.5289 -2.62995 -2.26828 0
M  V30 164 C 12.4829 -3.76485 -2.03576 0
M  V30 165 C 11.8089 -4.13846 -3.38579 0
M  V30 166 C 13.1089 -5.0342 -1.39161 0
M  V30 167 H 14.8029 -2.94738 -0.526281 0
M  V30 168 H 12.3489 -1.41783 -0.251704 0
M  V30 169 H 14.3019 -2.99669 -2.96271 0
M  V30 170 H 13.0259 -1.7737 -2.7424 0
M  V30 171 H 11.6849 -3.40217 -1.36557 0
M  V30 172 H 11.3329 -3.25232 -3.83709 0
M  V30 173 H 11.0329 -4.90312 -3.23834 0
M  V30 174 H 12.5569 -4.53086 -4.09323 0
M  V30 175 H 13.9709 -5.37812 -1.98573 0
M  V30 176 H 12.3679 -5.84746 -1.34878 0
M  V30 177 H 13.4379 -4.83548 -0.361868 0
M  V30 178 N 14.781 0.264519 -1.55364 0
M  V30 179 C 16.197 0.61215 -1.47394 0
M  V30 180 C 16.397 1.89134 -0.695018 0
M  V30 181 O 15.453 2.51563 -0.217275 0
M  V30 182 C 16.766 0.731235 -2.91674 0
M  V30 183 C 18.314 0.82473 -3.01939 0
M  V30 184 C 18.789 0.975522 -4.4749 0
M  V30 185 N 20.28 1.04083 -4.51354 0
M  V30 186 C 21.015 1.17646 -5.61201 0
M  V30 187 N 20.511 1.27874 -6.80896 0
M  V30 188 N 22.304 1.20823 -5.48961 0
M  V30 189 H 14.455 -0.575456 -2.04456 0
M  V30 190 H 16.718 -0.196099 -0.927496 0
M  V30 191 H 16.424 -0.138392 -3.51428 0
M  V30 192 H 16.298 1.60883 -3.41169 0
M  V30 193 H 18.685 1.68482 -2.42276 0
M  V30 194 H 18.766 -0.0776479 -2.55682 0
M  V30 195 H 18.41 0.120058 -5.07758 0
M  V30 196 H 18.34 1.89268 -4.91412 0
M  V30 197 H 20.831 0.973846 -3.65136 0
M  V30 198 H 21.144 1.38081 -7.60364 0
M  V30 199 H 19.489 1.24863 -6.83692 0
M  V30 200 H 22.68 1.12469 -4.54388 0
M  V30 201 H 22.853 1.31049 -6.3461 0
M  V30 202 N 16.2591 1.48442 0.529413 0
M  V30 203 C 17.1891 1.65902 1.64313 0
M  V30 204 C 18.1701 0.507897 1.6234 0
M  V30 205 O 19.3551 0.740503 1.79528 0
M  V30 206 C 16.4851 1.69911 3.02898 0
M  V30 207 C 15.4391 2.8453 3.19729 0
M  V30 208 C 14.7651 2.73629 4.59381 0
M  V30 209 C 16.0651 4.25821 3.02447 0
M  V30 210 H 17.7591 2.5914 1.49955 0
M  V30 211 H 15.3051 1.24709 0.719982 0
M  V30 212 H 17.2581 1.80715 3.80684 0
M  V30 213 H 15.9821 0.732524 3.18279 0
M  V30 214 H 14.6411 2.73283 2.44361 0
M  V30 215 H 14.2891 1.74938 4.71599 0
M  V30 216 H 13.9891 3.50541 4.71588 0
M  V30 217 H 15.5131 2.86401 5.39265 0
M  V30 218 H 16.9271 4.37898 3.70024 0
M  V30 219 H 15.3241 5.03735 3.26146 0
M  V30 220 H 16.3941 4.42244 1.98867 0
M  V30 221 N 17.7372 -0.778329 1.37039 0
M  V30 222 C 18.6692 -1.90034 1.2814 0
M  V30 223 C 19.6822 -1.61585 0.198558 0
M  V30 224 O 20.8712 -1.72625 0.454175 0
M  V30 225 C 17.9712 -3.25108 0.956968 0
M  V30 226 C 17.1442 -3.81253 2.14394 0
M  V30 227 C 16.2032 -4.94789 1.79082 0
M  V30 228 O 15.2292 -5.10721 2.51301 0
M  V30 229 N 16.4312 -5.75878 0.731043 0
M  V30 230 H 19.1962 -1.98186 2.24816 0
M  V30 231 H 16.7572 -0.957129 1.30578 0
M  V30 232 H 18.7492 -3.9857 0.701701 0
M  V30 233 H 17.3192 -3.125 0.0789812 0
M  V30 234 H 16.5392 -2.99647 2.56135 0
M  V30 235 H 17.8272 -4.15495 2.93668 0
M  V30 236 H 17.2252 -5.65547 0.131618 0
M  V30 237 H 15.7822 -6.49596 0.535622 0
M  V30 238 N 19.2153 -1.21501 -1.00376 0
M  V30 239 C 20.1473 -0.933174 -2.09343 0
M  V30 240 C 21.1603 0.0840896 -1.62583 0
M  V30 241 O 22.3493 -0.148563 -1.77881 0
M  V30 242 C 19.4493 -0.379869 -3.36764 0
M  V30 243 C 18.6223 -1.45176 -4.12605 0
M  V30 244 C 17.6813 -0.907476 -5.18316 0
M  V30 245 O 16.7073 -1.5912 -5.46507 0
M  V30 246 N 17.9093 0.276649 -5.7984 0
M  V30 247 H 20.6743 -1.87124 -2.34104 0
M  V30 248 H 18.2353 -1.12043 -1.16867 0
M  V30 249 H 20.2273 -0.00131488 -4.047 0
M  V30 250 H 18.7973 0.463048 -3.09151 0
M  V30 251 H 18.0173 -2.00411 -3.39454 0
M  V30 252 H 19.3053 -2.17328 -4.6005 0
M  V30 253 H 18.7033 0.849147 -5.59291 0
M  V30 254 H 17.2603 0.596702 -6.49063 0
M  V30 255 N 20.6934 1.19889 -1.02296 0
M  V30 256 C 21.6564 2.21116 -0.603351 0
M  V30 257 C 22.6564 1.5738 0.329884 0
M  V30 258 O 23.8464 1.73802 0.117702 0
M  V30 259 C 20.9784 3.40696 0.117992 0
M  V30 260 H 22.1714 2.59754 -1.49893 0
M  V30 261 H 19.7244 1.33463 -0.813468 0
M  V30 262 H 20.4594 3.07569 1.0282 0
M  V30 263 H 20.2444 3.88188 -0.552511 0
M  V30 264 H 21.7344 4.15692 0.398696 0
M  V30 265 N 22.1715 0.800033 1.35784 0
M  V30 266 C 23.4115 0.382891 2.00782 0
M  V30 267 C 23.7755 -1.02891 1.62103 0
M  V30 268 O 24.9765 -1.54771 2.19771 0
M  V30 269 C 23.2475 0.553299 3.53091 0
M  V30 270 S 24.8065 0.225608 4.3822 0
M  V30 271 H 21.6245 0.145737 0.695904 0
M  V30 272 H 24.2265 1.04085 1.65489 0
M  V30 273 H 22.9305 1.58091 3.78729 0
M  V30 274 H 22.4615 -0.120214 3.93216 0
M  V30 275 H 24.4765 -0.969074 4.86645 0
M  V30 276 N 23.6496 -1.47581 0.552962 0
M  V30 277 C 25.0656 -1.5818 0.212424 0
M  V30 278 C 25.2656 -1.55213 -1.28496 0
M  V30 279 O 24.3216 -1.45329 -2.06484 0
M  V30 280 C 25.6346 -2.88865 0.835318 0
M  V30 281 C 27.1826 -3.0244 0.806156 0
M  V30 282 C 27.6576 -4.35819 1.40804 0
M  V30 283 N 29.1486 -4.42444 1.37103 0
M  V30 284 C 29.8836 -5.44202 1.80641 0
M  V30 285 N 29.3796 -6.52795 2.32015 0
M  V30 286 N 31.1726 -5.35222 1.71738 0
M  V30 287 H 23.3236 -1.47753 1.52587 0
M  V30 288 H 25.5866 -0.702941 0.636064 0
M  V30 289 H 25.2926 -2.9676 1.88749 0
M  V30 290 H 25.1666 -3.7579 0.325848 0
M  V30 291 H 27.5536 -2.94144 -0.237317 0
M  V30 292 H 27.6346 -2.17068 1.35334 0
M  V30 293 H 27.2786 -4.44871 2.45056 0
M  V30 294 H 27.2086 -5.19916 0.836338 0
M  V30 295 H 29.6996 -3.6456 0.995202 0
M  V30 296 H 30.0126 -7.26609 2.63171 0
M  V30 297 H 28.3576 -6.53696 2.36023 0
M  V30 298 H 31.5486 -4.49284 1.31382 0
M  V30 299 H 31.7216 -6.14389 2.05987 0
M  V30 300 N 25.1277 -0.289203 -1.54924 0
M  V30 301 C 26.0577 0.58549 -2.2604 0
M  V30 302 C 27.0387 1.14753 -1.25562 0
M  V30 303 O 28.2237 1.17906 -1.54311 0
M  V30 304 C 25.3537 1.76305 -2.99222 0
M  V30 305 C 24.3077 1.33191 -4.06748 0
M  V30 306 C 23.6337 2.5937 -4.6758 0
M  V30 307 C 24.9337 0.471775 -5.20165 0
M  V30 308 H 26.6277 -0.00763532 -2.99399 0
M  V30 309 H 24.1737 -0.00511229 -1.43999 0
M  V30 310 H 26.1267 2.38097 -3.47689 0
M  V30 311 H 24.8507 2.38223 -2.23422 0
M  V30 312 H 23.5097 0.737121 -3.59113 0
M  V30 313 H 23.1577 3.19576 -3.88433 0
M  V30 314 H 22.8577 2.31228 -5.40192 0
M  V30 315 H 24.3817 3.21985 -5.18804 0
M  V30 316 H 25.7957 0.995056 -5.64599 0
M  V30 317 H 24.1927 0.284639 -5.99425 0
M  V30 318 H 25.2627 -0.506041 -4.82252 0
M  V30 319 N 26.6058 1.57591 -0.0167156 0
M  V30 320 C 27.5528 2.09462 0.969251 0
M  V30 321 C 28.5228 0.99381 1.33089 0
M  V30 322 O 29.7078 1.26726 1.42636 0
M  V30 323 C 26.8478 2.61622 2.25051 0
M  V30 324 C 25.9608 3.85666 1.94642 0
M  V30 325 C 25.0958 4.26266 3.16972 0
M  V30 326 C 24.1348 5.43101 2.82326 0
M  V30 327 N 23.2718 5.78915 3.97243 0
M  V30 328 H 28.1118 2.93428 0.519997 0
M  V30 329 H 25.6488 1.45044 0.245087 0
M  V30 330 H 27.6068 2.89949 2.99976 0
M  V30 331 H 26.2368 1.80505 2.67615 0
M  V30 332 H 25.2888 3.64145 1.10013 0
M  V30 333 H 26.6008 4.70678 1.65117 0
M  V30 334 H 25.7548 4.55963 4.00228 0
M  V30 335 H 24.4938 3.39996 3.49648 0
M  V30 336 H 23.4988 5.1311 1.97479 0
M  V30 337 H 24.7238 6.3106 2.50879 0
M  V30 338 H 22.6698 4.95602 4.29785 0
M  V30 339 H 22.5868 6.58539 3.71299 0
M  V30 340 H 23.8548 6.13212 4.81239 0
M  V30 341 N 28.0839 -0.256276 1.55502 0
M  V30 342 C 29.3089 -1.00766 1.81276 0
M  V30 343 C 29.7339 -1.78524 0.59252 0
M  V30 344 O 29.0919 -1.75413 -0.45827 0
M  V30 345 C 29.1399 -1.92869 3.04687 0
M  V30 346 O 28.2439 -3.019 2.80945 0
M  V30 347 H 27.5849 -0.287224 0.598664 0
M  V30 348 H 30.1149 -0.280109 2.02674 0
M  V30 349 H 30.1249 -2.34511 3.33869 0
M  V30 350 H 28.7999 -1.35689 3.93143 0
M  V30 351 H 27.3769 -2.64454 2.62904 0
M  V30 352 N 29.562 -1.4872 -0.521534 0
M  V30 353 C 30.811 -1.56419 -1.27341 0
M  V30 354 C 31.124 -0.246805 -1.94037 0
M  V30 355 O 32.33 -0.202122 -2.70747 0
M  V30 356 C 30.786 -2.75896 -2.31105 0
M  V30 357 C 30.394 -4.14311 -1.70441 0
M  V30 358 C 32.138 -2.92913 -3.07249 0
M  V30 359 C 30.045 -5.25038 -2.72194 0
M  V30 360 H 28.975 -0.582344 -0.478949 0
M  V30 361 H 31.626 -1.75071 -0.549779 0
M  V30 362 H 30.008 -2.50697 -3.06541 0
M  V30 363 H 31.182 -4.49564 -1.01136 0
M  V30 364 H 29.497 -4.02482 -1.06759 0
M  V30 365 H 32.094 -3.72805 -3.83302 0
M  V30 366 H 32.437 -2.02689 -3.63625 0
M  V30 367 H 32.97 -3.18054 -2.38928 0
M  V30 368 H 29.709 -6.17255 -2.20627 0
M  V30 369 H 29.229 -4.94263 -3.39801 0
M  V30 370 H 30.908 -5.53508 -3.35019 0
M  V30 371 N 31.0401 0.771051 -1.3745 0
M  V30 372 C 32.4511 1.34737 -1.29239 0
M  V30 373 C 32.8021 1.96109 0.0596908 0
M  V30 374 O 31.9271 1.93865 0.961534 0
M  V30 375 C 32.5221 2.44973 -2.34037 0
M  V30 376 C 31.0811 2.98372 -2.29458 0
M  V30 377 C 30.2281 1.71595 -2.17831 0
M  V30 378 H 33.1791 0.571256 -1.48062 0
M  V30 379 H 33.2001 3.24471 -1.98744 0
M  V30 380 H 32.7121 2.00276 -3.32432 0
M  V30 381 H 30.8131 3.47443 -1.34589 0
M  V30 382 H 30.9261 3.53939 -3.229 0
M  V30 383 H 29.2901 1.94547 -1.64388 0
M  V30 384 H 30.0731 1.29001 -3.18141 0
M  V30 385 N 32.5182 1.22032 0.997298 0
M  V30 386 C 33.7432 1.06921 1.77715 0
M  V30 387 C 34.1682 -0.376226 1.84299 0
M  V30 388 O 33.5262 -1.27165 1.29223 0
M  V30 389 C 33.5742 1.67996 3.19076 0
M  V30 390 O 32.6782 0.930653 4.01762 0
M  V30 391 H 32.0192 0.375814 0.547412 0
M  V30 392 H 34.5492 1.61737 1.25309 0
M  V30 393 H 34.5592 1.72538 3.69723 0
M  V30 394 H 33.2342 2.73182 3.13599 0
M  V30 395 H 31.8112 0.960917 3.60307 0
M  V30 396 N 33.9963 -1.19345 1.0293 0
M  V30 397 C 35.4123 -1.41069 0.746446 0
M  V30 398 C 35.6123 -1.90078 -0.668776 0
M  V30 399 O 34.6683 -2.0778 -1.4347 0
M  V30 400 C 35.9813 -2.42141 1.78292 0
M  V30 401 C 37.5293 -2.55887 1.80252 0
M  V30 402 C 38.0043 -3.60214 2.8286 0
M  V30 403 N 39.4953 -3.67711 2.81679 0
M  V30 404 C 40.2303 -4.48128 3.57727 0
M  V30 405 N 39.7263 -5.32248 4.43491 0
M  V30 406 N 41.5193 -4.42782 3.46267 0
M  V30 407 H 33.6703 -0.858536 1.94275 0
M  V30 408 H 35.9333 -0.439541 0.839945 0
M  V30 409 H 35.6393 -2.13155 2.79746 0
M  V30 410 H 35.5133 -3.41323 1.60557 0
M  V30 411 H 37.9003 -2.84196 0.794757 0
M  V30 412 H 37.9813 -1.56858 2.02062 0
M  V30 413 H 37.6253 -3.32647 3.83807 0
M  V30 414 H 37.5553 -4.58895 2.58307 0
M  V30 415 H 40.0463 -3.07634 2.19476 0
M  V30 416 H 40.3593 -5.90729 4.98256 0
M  V30 417 H 38.7043 -5.31707 4.47564 0
M  V30 418 H 41.8953 -3.76107 2.78677 0
M  V30 419 H 42.0683 -5.05215 4.05785 0
M  V30 420 N 35.4744 -0.807222 -1.35358 0
M  V30 421 C 36.7234 -0.384376 -1.98004 0
M  V30 422 C 37.0364 1.0543 -1.64754 0
M  V30 423 O 38.2424 1.58029 -2.20769 0
M  V30 424 C 36.6984 -0.636326 -3.5423 0
M  V30 425 C 36.3064 -2.08759 -3.96388 0
M  V30 426 C 38.0504 -0.278869 -4.23583 0
M  V30 427 C 35.9574 -2.28525 -5.45463 0
M  V30 428 H 34.8874 -0.139986 -0.740891 0
M  V30 429 H 37.5384 -0.991369 -1.54415 0
M  V30 430 H 35.9204 0.0406256 -3.95979 0
M  V30 431 H 37.0944 -2.8024 -3.6579 0
M  V30 432 H 35.4094 -2.40497 -3.39926 0
M  V30 433 H 38.0064 -0.404599 -5.33167 0
M  V30 434 H 38.3494 0.775012 -4.09022 0
M  V30 435 H 38.8824 -0.909764 -3.87257 0
M  V30 436 H 35.6214 -3.32361 -5.64992 0
M  V30 437 H 35.1414 -1.61569 -5.77629 0
M  V30 438 H 36.8204 -2.10109 -6.11934 0
M  V30 439 N 36.9525 1.47285 -0.560781 0
M  V30 440 C 38.1925 2.0436 -0.0404627 0
M  V30 441 C 38.5565 1.42534 1.28639 0
M  V30 442 O 39.7575 1.90677 1.89462 0
M  V30 443 C 38.0285 3.57369 0.0471856 0
M  V30 444 S 39.5875 4.3579 0.513109 0
M  V30 445 H 36.4055 0.710492 -0.0268674 0
M  V30 446 H 39.0075 1.80611 -0.748323 0
M  V30 447 H 37.7115 3.9989 -0.922817 0
M  V30 448 H 37.2425 3.8562 0.778491 0
M  V30 449 H 39.2575 4.63476 1.77212 0
M  V30 450 N 38.4306 0.297415 1.54768 0
M  V30 451 C 39.6796 -0.313669 1.99246 0
M  V30 452 C 39.9926 -1.55281 1.18942 0
M  V30 453 O 41.1986 -2.23825 1.5367 0
M  V30 454 C 39.6546 -0.609407 3.54703 0
M  V30 455 C 39.2626 0.611192 4.43811 0
M  V30 456 C 41.0066 -1.18188 4.07715 0
M  V30 457 C 38.9136 0.288805 5.90694 0
M  V30 458 H 37.8436 -0.120979 0.744231 0
M  V30 459 H 40.4946 0.40556 1.78962 0
M  V30 460 H 38.8766 -1.38813 3.70873 0
M  V30 461 H 40.0506 1.3875 4.39414 0
M  V30 462 H 38.3656 1.10205 4.01552 0
M  V30 463 H 40.9626 -1.43727 5.15021 0
M  V30 464 H 41.3056 -2.12299 3.58099 0
M  V30 465 H 41.8386 -0.464944 3.95074 0
M  V30 466 H 38.5776 1.19838 6.44453 0
M  V30 467 H 38.0976 -0.450305 5.98107 0
M  V30 468 H 39.7766 -0.110933 6.46905 0
M  V30 469 N 39.9087 -1.5758 0.0250728 0
M  V30 470 C 40.8407 -2.06869 -0.986796 0
M  V30 471 C 41.8537 -0.991332 -1.29137 0
M  V30 472 O 43.0427 -1.26761 -1.25674 0
M  V30 473 C 40.1427 -2.47486 -2.31525 0
M  V30 474 C 39.3157 -3.78253 -2.19643 0
M  V30 475 C 38.3747 -4.05464 -3.35388 0
M  V30 476 O 37.4007 -4.75774 -3.12454 0
M  V30 477 N 38.6027 -3.55321 -4.59051 0
M  V30 478 H 41.3677 -2.94302 -0.566276 0
M  V30 479 H 38.9287 -1.6109 -0.161776 0
M  V30 480 H 40.9207 -2.62785 -3.07776 0
M  V30 481 H 39.4907 -1.65441 -2.65232 0
M  V30 482 H 38.7107 -3.7279 -1.28144 0
M  V30 483 H 39.9987 -4.63936 -2.08903 0
M  V30 484 H 39.3967 -2.98431 -4.80578 0
M  V30 485 H 37.9537 -3.75905 -5.32483 0
M  V30 486 N 41.3868 0.248026 -1.55636 0
M  V30 487 C 42.3498 1.29044 -1.89421 0
M  V30 488 C 43.3498 1.41134 -0.770581 0
M  V30 489 O 44.5398 1.39854 -1.03858 0
M  V30 490 C 41.6718 2.66831 -2.12165 0
M  V30 491 H 42.8648 1.00305 -2.82629 0
M  V30 492 H 40.4178 0.487265 -1.48511 0
M  V30 493 H 41.1528 3.00711 -1.21422 0
M  V30 494 H 40.9378 2.59438 -2.93997 0
M  V30 495 H 42.4278 3.42103 -2.3949 0
M  V30 496 N 42.8649 1.48995 0.513639 0
M  V30 497 C 44.1049 1.59452 1.27885 0
M  V30 498 C 44.4689 0.269479 1.90099 0
M  V30 499 O 45.6699 0.249139 2.67643 0
M  V30 500 C 43.9409 2.71277 2.32688 0
M  V30 501 S 45.4999 3.01604 3.18717 0
M  V30 502 H 42.3179 0.562565 0.434789 0
M  V30 503 H 44.9199 1.86595 0.583301 0
M  V30 504 H 43.6239 3.66089 1.8549 0
M  V30 505 H 43.1549 2.46086 3.06929 0
M  V30 506 H 45.1699 2.42155 4.331 0
M  V30 507 N 44.343 -0.763751 1.37857 0
M  V30 508 C 45.568 -1.55805 1.36893 0
M  V30 509 C 45.993 -1.88054 -0.0416135 0
M  V30 510 O 45.351 -1.49825 -1.02089 0
M  V30 511 C 45.399 -2.84012 2.22192 0
M  V30 512 O 44.503 -3.78732 1.63204 0
M  V30 513 H 43.844 -0.471638 0.46739 0
M  V30 514 H 46.374 -0.944657 1.81487 0
M  V30 515 H 46.384 -3.33037 2.35691 0
M  V30 516 H 45.059 -2.59869 3.24716 0
M  V30 517 H 43.636 -3.37402 1.58791 0
M  V30 518 N 45.8211 -1.22559 -0.990812 0
M  V30 519 C 47.0491 -1.07779 -1.76611 0
M  V30 520 C 47.4641 0.371513 -1.85109 0
M  V30 521 O 46.8211 1.25737 -1.32274 0
M  V30 522 C 46.8721 -1.68512 -3.19822 0
M  V30 523 O 46.5931 -3.07774 -3.1178 0
M  V30 524 C 48.0941 -1.59035 -4.13791 0
M  V30 525 H 45.3141 -0.377729 -0.554583 0
M  V30 526 H 47.8581 -1.62195 -1.24551 0
M  V30 527 H 46.0131 -1.18154 -3.68942 0
M  V30 528 H 46.4271 -3.37062 -4.01858 0
M  V30 529 H 47.9011 -2.0625 -5.1202 0
M  V30 530 H 48.3781 -0.547273 -4.35777 0
M  V30 531 H 48.9841 -2.08709 -3.70568 0
M  V30 532 N 47.2992 1.18797 -1.03562 0
M  V30 533 C 48.2472 2.24297 -0.615905 0
M  V30 534 C 49.2412 1.65643 0.354808 0
M  V30 535 O 50.4472 1.78618 0.22265 0
M  V30 536 H 46.8222 0.729909 -0.180934 0
M  V30 537 H 48.7932 2.5701 -1.5162 0
M  V30 538 C 47.5422 3.47698 0.0104735 0
M  V30 539 H 46.8652 3.93125 -0.727509 0
M  V30 540 H 48.3052 4.23159 0.266995 0
M  V30 541 C 46.7642 3.12489 1.25905 0
M  V30 542 O 47.2942 3.25761 2.35038 0
M  V30 543 N 45.5002 2.6686 1.15039 0
M  V30 544 H 45.0472 2.56261 0.262328 0
M  V30 545 H 45.0052 2.43674 1.98672 0
M  V30 546 N 48.7773 0.814389 1.34928 0
M  V30 547 C 50.0543 0.321363 1.92942 0
M  V30 548 C 50.4343 -1.19014 1.74353 0
M  V30 549 O 49.7823 -1.99328 1.11716 0
M  V30 550 C 49.9923 0.741323 3.41036 0
M  V30 551 C 51.3403 0.735266 4.18185 0
M  V30 552 O 52.3643 0.68336 3.49584 0
M  V30 553 O 51.2233 0.800703 5.40602 0
M  V30 554 H 48.3173 0.0858893 0.822528 0
M  V30 555 H 50.8633 0.898609 1.43955 0
M  V30 556 H 49.6353 1.78276 3.4833 0
M  V30 557 H 49.2583 0.139307 3.97356 0
M  V30 558 N 50.2554 -1.46986 0.568584 0
M  V30 559 C 51.4804 -2.07335 0.0520528 0
M  V30 560 C 51.9054 -1.41675 -1.23733 0
M  V30 561 O 51.2634 -0.495623 -1.74394 0
M  V30 562 C 51.3114 -3.60417 -0.11501 0
M  V30 563 O 50.4154 -3.95309 -1.17492 0
M  V30 564 H 49.7564 -0.661597 0.0564385 0
M  V30 565 H 52.2864 -1.88837 0.787507 0
M  V30 566 H 52.2964 -4.06698 -0.325644 0
M  V30 567 H 50.9714 -4.07601 0.826675 0
M  V30 568 H 49.5484 -3.60757 -0.943869 0
M  V30 569 N 51.7335 -0.305618 -1.54608 0
M  V30 570 C 52.9805 0.302298 -2.00231 0
M  V30 571 C 53.3085 1.5354 -1.19398 0
M  V30 572 O 52.5635 1.93973 -0.259423 0
M  V30 573 C 52.8625 0.698983 -3.50498 0
M  V30 574 C 52.5285 -0.432903 -4.48817 0
M  V30 575 C 51.1905 -0.743622 -4.75419 0
M  V30 576 C 53.5425 -1.19409 -5.07337 0
M  V30 577 C 50.8705 -1.81857 -5.57804 0
M  V30 578 C 53.2225 -2.25899 -5.90891 0
M  V30 579 C 51.8865 -2.57572 -6.15803 0
M  V30 580 H 51.1565 0.110619 -0.732697 0
M  V30 581 H 53.8035 -0.425674 -1.86709 0
M  V30 582 H 52.1085 1.50711 -3.61654 0
M  V30 583 H 53.8055 1.1806 -3.83227 0
M  V30 584 H 50.3955 -0.18063 -4.28219 0
M  V30 585 H 54.5795 -0.967295 -4.86782 0
M  V30 586 H 49.8355 -2.06864 -5.75341 0
M  V30 587 H 54.0095 -2.85335 -6.35261 0
M  V30 588 H 51.6365 -3.40998 -6.7943 0
M  V30 589 N 53.2116 1.57565 -0.0334293 0
M  V30 590 C 54.1436 2.0739 0.975811 0
M  V30 591 C 55.1566 0.998166 1.2861 0
M  V30 592 O 56.3456 1.27426 1.25 0
M  V30 593 C 53.4456 2.4871 2.30209 0
M  V30 594 C 52.6186 3.79413 2.17634 0
M  V30 595 C 51.6776 4.07237 3.33233 0
M  V30 596 O 50.7036 4.77425 3.09927 0
M  V30 597 N 51.9056 3.5775 4.5716 0
M  V30 598 H 54.6706 2.94598 0.55066 0
M  V30 599 H 52.2316 1.61173 0.15323 0
M  V30 600 H 54.2236 2.64413 3.06378 0
M  V30 601 H 52.7936 1.66845 2.64351 0
M  V30 602 H 52.0136 3.73465 1.26165 0
M  V30 603 H 53.3016 4.65038 2.0644 0
M  V30 604 H 52.6996 3.00976 4.78989 0
M  V30 605 H 51.2566 3.78724 5.30482 0
M  V30 606 N 54.6897 -0.239769 1.55765 0
M  V30 607 C 56.1007 -0.808263 1.68297 0
M  V30 608 C 56.4517 -1.85736 0.632181 0
M  V30 609 O 55.5767 -2.15277 -0.220204 0
M  V30 610 C 56.1717 -1.47284 3.05111 0
M  V30 611 C 54.7307 -1.98895 3.19559 0
M  V30 612 C 53.8777 -0.842575 2.64189 0
M  V30 613 H 56.8287 -0.0154422 1.58692 0
M  V30 614 H 56.8497 -2.34111 2.99954 0
M  V30 615 H 56.3617 -0.709053 3.81568 0
M  V30 616 H 54.4627 -2.78132 2.47938 0
M  V30 617 H 54.5757 -2.18143 4.26556 0
M  V30 618 H 52.9397 -1.24501 2.22197 0
M  V30 619 H 53.7227 -0.0917552 3.43177 0
M  V30 620 N 56.1678 -1.49265 -0.50573 0
M  V30 621 C 57.0998 -1.617 -1.62437 0
M  V30 622 C 58.1128 -0.499924 -1.54934 0
M  V30 623 O 59.3018 -0.771785 -1.60953 0
M  V30 624 C 56.4018 -1.5533 -3.01207 0
M  V30 625 C 55.5748 -2.8249 -3.33943 0
M  V30 626 C 54.6338 -2.69238 -4.52103 0
M  V30 627 O 53.6598 -3.43167 -4.5412 0
M  V30 628 N 54.8618 -1.80468 -5.51735 0
M  V30 629 H 57.6268 -2.58177 -1.52199 0
M  V30 630 H 55.1878 -1.46294 -0.693511 0
M  V30 631 H 57.1798 -1.44125 -3.78167 0
M  V30 632 H 55.7498 -0.667297 -3.05395 0
M  V30 633 H 54.9698 -3.08081 -2.45926 0
M  V30 634 H 56.2578 -3.66802 -3.5261 0
M  V30 635 H 55.6558 -1.19653 -5.52901 0
M  V30 636 H 54.2128 -1.75188 -6.27816 0
M  V30 637 N 57.6459 0.756429 -1.3826 0
M  V30 638 C 59.0619 1.0591 -1.19395 0
M  V30 639 C 59.2619 2.01459 -0.0406567 0
M  V30 640 O 58.3179 2.44909 0.614467 0
M  V30 641 C 59.6309 1.64191 -2.51916 0
M  V30 642 C 61.1789 1.76376 -2.58574 0
M  V30 643 C 61.6539 2.38069 -3.91264 0
M  V30 644 N 63.1449 2.45503 -3.92788 0
M  V30 645 C 63.8799 2.94126 -4.92217 0
M  V30 646 N 63.3759 3.42805 -6.02043 0
M  V30 647 N 65.1689 2.9314 -4.7961 0
M  V30 648 H 57.3199 0.122313 -2.12048 0
M  V30 649 H 59.5829 0.116892 -0.940766 0
M  V30 650 H 59.2889 1.01451 -3.3675 0
M  V30 651 H 59.1629 2.6329 -2.70108 0
M  V30 652 H 61.5499 2.38244 -1.74137 0
M  V30 653 H 61.6309 0.759894 -2.44252 0
M  V30 654 H 61.2749 1.76835 -4.76121 0
M  V30 655 H 61.2049 3.39091 -4.02895 0
M  V30 656 H 63.6959 2.1107 -3.13461 0
M  V30 657 H 64.0089 3.78354 -6.73846 0
M  V30 658 H 62.3539 3.4087 -6.05667 0
M  V30 659 H 65.5449 2.54419 -3.92923 0
M  V30 660 H 65.7179 3.30721 -5.5725 0
M  V30 661 N 59.124 1.23083 0.984299 0
M  V30 662 C 60.535 1.05609 1.5396 0
M  V30 663 C 60.886 -0.377793 1.92528 0
M  V30 664 O 60.011 -1.26398 1.75649 0
M  V30 665 C 60.606 1.91087 2.7977 0
M  V30 666 C 59.165 1.77885 3.31713 0
M  V30 667 C 58.312 1.87028 2.04733 0
M  V30 668 H 61.263 1.36802 0.804419 0
M  V30 669 H 61.284 1.43336 3.5247 0
M  V30 670 H 60.796 2.9544 2.51668 0
M  V30 671 H 58.897 0.762995 3.64704 0
M  V30 672 H 59.01 2.61047 4.01735 0
M  V30 673 H 57.374 1.30565 2.18689 0
M  V30 674 H 58.157 2.92929 1.79017 0
M  V30 675 N 60.6021 -1.18246 1.0419 0
M  V30 676 C 61.8271 -1.92736 0.765996 0
M  V30 677 C 62.2521 -1.75728 -0.67091 0
M  V30 678 O 61.6101 -1.06825 -1.46486 0
M  V30 679 C 61.6581 -3.42148 1.13875 0
M  V30 680 O 60.7621 -4.11548 0.264954 0
M  V30 681 H 60.1031 -0.601238 0.281797 0
M  V30 682 H 62.6331 -1.49942 1.39207 0
M  V30 683 H 62.6431 -3.92858 1.1012 0
M  V30 684 H 61.3181 -3.53848 2.18551 0
M  V30 685 H 59.8951 -3.71137 0.362226 0
M  V30 686 N 62.0802 -0.821533 -1.34494 0
M  V30 687 C 63.0102 -0.257138 -2.3208 0
M  V30 688 C 63.9912 0.625645 -1.58176 0
M  V30 689 O 65.1762 0.552811 -1.86166 0
M  V30 690 C 62.3062 0.582958 -3.42372 0
M  V30 691 C 61.2602 -0.202571 -4.2752 0
M  V30 692 C 60.5862 0.760179 -5.29269 0
M  V30 693 C 61.8862 -1.40998 -5.02908 0
M  V30 694 H 63.5802 -1.07247 -2.79532 0
M  V30 695 H 61.1262 -0.517163 -1.34393 0
M  V30 696 H 63.0792 0.987972 -4.09655 0
M  V30 697 H 61.8032 1.43133 -2.93565 0
M  V30 698 H 60.4622 -0.588936 -3.61838 0
M  V30 699 H 60.1102 1.60447 -4.76724 0
M  V30 700 H 59.8102 0.238809 -5.87115 0
M  V30 701 H 61.3342 1.16308 -5.9942 0
M  V30 702 H 62.7482 -1.07905 -5.63054 0
M  V30 703 H 61.1452 -1.86689 -5.70322 0
M  V30 704 H 62.2152 -2.1889 -4.32684 0
M  V30 705 N 63.5583 1.46682 -0.576371 0
M  V30 706 C 64.7863 2.06798 -0.0649635 0
M  V30 707 C 65.2013 1.42612 1.23723 0
M  V30 708 O 64.5583 0.529203 1.74659 0
M  V30 709 C 64.6093 3.6132 0.114202 0
M  V30 710 O 64.3303 4.23104 -1.13644 0
M  V30 711 C 65.8313 4.38349 0.66069 0
M  V30 712 H 63.0513 0.668778 -0.0545616 0
M  V30 713 H 65.5953 1.88404 -0.795237 0
M  V30 714 H 63.7503 3.79162 0.794673 0
M  V30 715 H 64.1643 5.15894 -0.946253 0
M  V30 716 H 65.6383 5.47081 0.73526 0
M  V30 717 H 66.1153 4.05953 1.67627 0
M  V30 718 H 66.7213 4.25297 0.0152951 0
M  V30 719 N 65.0364 0.313813 1.54444 0
M  V30 720 C 66.2834 -0.291675 2.00388 0
M  V30 721 C 66.6114 -1.52904 1.2021 0
M  V30 722 O 65.8664 -1.93833 0.269707 0
M  V30 723 C 66.1654 -0.680386 3.50864 0
M  V30 724 C 65.8314 0.456699 4.48581 0
M  V30 725 C 64.4934 0.768824 4.75018 0
M  V30 726 C 66.8454 1.22098 5.06697 0
M  V30 727 C 64.1734 1.84812 5.56831 0
M  V30 728 C 66.5254 2.29029 5.89685 0
M  V30 729 C 65.1894 2.60834 6.14428 0
M  V30 730 H 64.4594 -0.106732 0.733273 0
M  V30 731 H 67.1064 0.43557 1.86481 0
M  V30 732 H 65.4114 -1.48791 3.62448 0
M  V30 733 H 67.1084 -1.16026 3.83847 0
M  V30 734 H 63.6984 0.203337 4.28117 0
M  V30 735 H 67.8824 0.993096 4.86263 0
M  V30 736 H 63.1384 2.09912 5.74236 0
M  V30 737 H 67.3124 2.887 6.33739 0
M  V30 738 H 64.9394 3.44596 6.77612 0
M  V30 739 N 66.5145 -1.57545 0.0417849 0
M  V30 740 C 67.7395 -1.97035 -0.647455 0
M  V30 741 C 68.1645 -0.918775 -1.64135 0
M  V30 742 O 67.5225 0.119006 -1.80909 0
M  V30 743 C 67.5705 -3.35609 -1.31905 0
M  V30 744 O 66.6745 -3.3287 -2.43457 0
M  V30 745 H 66.0155 -0.64211 -0.169086 0
M  V30 746 H 68.5455 -2.04318 0.107399 0
M  V30 747 H 68.5555 -3.72126 -1.67291 0
M  V30 748 H 67.2305 -4.11685 -0.590586 0
M  V30 749 H 65.8075 -3.08087 -2.10088 0
M  V30 750 N 67.9926 0.231505 -1.5589 0
M  V30 751 C 69.2406 0.955461 -1.78088 0
M  V30 752 C 69.5616 1.85262 -0.608533 0
M  V30 753 O 68.8316 1.92277 0.375035 0
M  V30 754 H 67.4116 0.355787 -0.656829 0
M  V30 755 H 70.0736 0.245751 -1.93344 0
M  V30 756 H 69.1696 1.56814 -2.69844 0
M  V30 757 N 69.4707 1.49531 0.497807 0
M  V30 758 C 70.7477 1.49682 1.25915 0
M  V30 759 C 71.1277 0.226339 2.09883 0
M  V30 760 O 70.4757 -0.791189 2.14365 0
M  V30 761 C 70.6857 2.77755 2.11313 0
M  V30 762 C 72.0337 3.27371 2.70395 0
M  V30 763 O 73.0577 2.78894 2.21578 0
M  V30 764 O 71.9167 4.11808 3.59272 0
M  V30 765 H 69.0107 0.599228 0.56996 0
M  V30 766 H 71.5567 1.61798 0.511816 0
M  V30 767 H 70.3287 3.61713 1.49264 0
M  V30 768 H 69.9517 2.68515 2.93233 0
M  V30 769 N 70.9488 -0.749086 1.3866 0
M  V30 770 C 71.8968 -1.88428 1.36373 0
M  V30 771 C 72.8908 -1.67561 0.248929 0
M  V30 772 O 74.0968 -1.75074 0.41821 0
M  V30 773 H 70.4718 -0.620023 0.42553 0
M  V30 774 H 72.4428 -1.87473 2.32156 0
M  V30 775 C 71.1918 -3.25961 1.21014 0
M  V30 776 H 70.5148 -3.42607 2.06059 0
M  V30 777 H 71.9548 -4.05625 1.23469 0
M  V30 778 C 70.4138 -3.36799 -0.0825941 0
M  V30 779 O 70.9438 -3.87517 -1.05797 0
M  V30 780 N 69.1498 -2.90258 -0.140939 0
M  V30 781 H 68.6968 -2.49174 0.653477 0
M  V30 782 H 68.6548 -2.97889 -1.00545 0
M  V30 783 N 72.4269 -1.23603 -0.977757 0
M  V30 784 C 73.6519 -1.09735 -1.75991 0
M  V30 785 C 74.0769 0.346858 -1.84874 0
M  V30 786 O 73.4349 1.25093 -1.3123 0
M  V30 787 C 73.4829 -1.73051 -3.16363 0
M  V30 788 O 72.5869 -0.994452 -4.0023 0
M  V30 789 H 71.9279 -0.384476 -0.541364 0
M  V30 790 H 74.4579 -1.6371 -1.2272 0
M  V30 791 H 74.4679 -1.78398 -3.66931 0
M  V30 792 H 73.1429 -2.78137 -3.09213 0
M  V30 793 H 71.7199 -1.01812 -3.58732 0
M  V30 794 N 73.905 1.17692 -1.04816 0
M  V30 795 C 75.13 1.92327 -0.776207 0
M  V30 796 C 75.555 1.76082 0.661581 0
M  V30 797 O 74.913 1.076 1.45917 0
M  V30 798 C 74.961 3.41539 -1.15687 0
M  V30 799 O 74.065 4.11402 -0.286775 0
M  V30 800 H 73.406 0.599735 -0.284981 0
M  V30 801 H 75.936 1.49201 -1.4 0
M  V30 802 H 75.946 3.92269 -1.12202 0
M  V30 803 H 74.621 3.52684 -2.20425 0
M  V30 804 H 73.198 3.70939 -0.381903 0
M  V30 805 N 75.3831 0.828654 1.34056 0
M  V30 806 C 76.6111 0.43262 2.02326 0
M  V30 807 C 77.0261 -0.963147 1.62385 0
M  V30 808 O 76.3831 -1.62425 0.832121 0
M  V30 809 C 76.4341 0.53182 3.57567 0
M  V30 810 O 76.1551 1.87258 3.96063 0
M  V30 811 C 77.6561 0.131422 4.43105 0
M  V30 812 H 74.8761 0.172923 0.648335 0
M  V30 813 H 77.4201 1.1184 1.71208 0
M  V30 814 H 75.5751 -0.105938 3.87255 0
M  V30 815 H 75.9891 1.85087 4.90758 0
M  V30 816 H 77.4631 0.251904 5.51425 0
M  V30 817 H 77.9401 -0.925645 4.29335 0
M  V30 818 H 78.5461 0.743207 4.18756 0
M  V30 819 N 76.8612 -1.46375 0.584142 0
M  V30 820 C 77.7932 -2.28443 -0.186119 0
M  V30 821 C 78.8062 -1.38596 -0.854115 0
M  V30 822 O 79.9952 -1.63183 -0.723438 0
M  V30 823 C 77.0952 -3.13671 -1.28311 0
M  V30 824 C 76.2682 -4.31652 -0.706758 0
M  V30 825 C 75.3272 -4.98267 -1.69163 0
M  V30 826 O 74.3532 -5.55815 -1.22712 0
M  V30 827 N 75.5552 -4.95408 -3.02575 0
M  V30 828 H 78.3202 -2.9519 0.517986 0
M  V30 829 H 75.8812 -1.56303 0.42201 0
M  V30 830 H 77.8732 -3.55101 -1.94128 0
M  V30 831 H 76.4432 -2.48989 -1.89005 0
M  V30 832 H 75.6632 -3.93989 0.128908 0
M  V30 833 H 76.9512 -5.07906 -0.301506 0
M  V30 834 H 76.3492 -4.49902 -3.42936 0
M  V30 835 H 74.9062 -5.40774 -3.63877 0
M  V30 836 N 78.3393 -0.321999 -1.54275 0
M  V30 837 C 79.5873 0.280489 -2.00144 0
M  V30 838 C 79.9083 1.52777 -1.21178 0
M  V30 839 O 79.1783 1.9338 -0.313187 0
M  V30 840 H 77.7583 0.106632 -0.73935 0
M  V30 841 H 80.4203 -0.438184 -1.8991 0
M  V30 842 H 79.5163 0.537972 -3.07428 0
M  V30 843 N 79.8174 1.5752 -0.0501392 0
M  V30 844 C 81.0634 1.93755 0.618901 0
M  V30 845 C 81.4184 0.928514 1.68512 0
M  V30 846 O 80.7114 -0.0524613 1.91528 0
M  V30 847 C 80.9054 3.34467 1.25963 0
M  V30 848 C 80.7344 4.48965 0.257 0
M  V30 849 C 79.5044 5.05075 -0.150656 0
M  V30 850 C 81.7024 5.11891 -0.497166 0
M  V30 851 N 79.6844 6.03104 -1.14626 0
M  V30 852 C 81.0554 6.05216 -1.34588 0
M  V30 853 C 83.1104 4.9479 -0.55559 0
M  V30 854 C 81.8134 6.83277 -2.24778 0
M  V30 855 C 83.8394 5.73477 -1.44492 0
M  V30 856 C 83.2014 6.66433 -2.28136 0
M  V30 857 H 79.3004 0.756479 0.198149 0
M  V30 858 H 81.8844 1.94316 -0.122229 0
M  V30 859 H 80.0554 3.34685 1.97079 0
M  V30 860 H 81.7874 3.57994 1.88739 0
M  V30 861 H 78.5424 4.7305 0.228094 0
M  V30 862 H 78.9664 6.56813 -1.64092 0
M  V30 863 H 83.6084 4.2273 0.0768625 0
M  V30 864 H 81.3264 7.54629 -2.89069 0
M  V30 865 H 84.9124 5.62273 -1.49468 0
M  V30 866 H 83.7924 7.26258 -2.95835 0
M  V30 867 N 81.2955 -0.223234 1.56011 0
M  V30 868 C 82.7115 -0.572856 1.48965 0
M  V30 869 C 82.9115 -1.87225 0.74492 0
M  V30 870 O 81.9675 -2.50899 0.283896 0
M  V30 871 C 83.2805 -0.653646 2.9351 0
M  V30 872 C 84.8285 -0.744386 3.0402 0
M  V30 873 C 85.3035 -0.856535 4.49919 0
M  V30 874 N 86.7945 -0.9208 4.53955 0
M  V30 875 C 87.5295 -1.02726 5.64123 0
M  V30 876 N 87.0255 -1.09777 6.84047 0
M  V30 877 N 88.8185 -1.06226 5.51971 0
M  V30 878 H 80.9695 0.629462 2.02858 0
M  V30 879 H 83.2325 0.220621 0.921971 0
M  V30 880 H 82.9385 0.231518 3.50937 0
M  V30 881 H 82.8125 -1.51781 3.45315 0
M  V30 882 H 85.1995 -1.61999 2.46658 0
M  V30 883 H 85.2805 0.14541 2.55386 0
M  V30 884 H 84.9245 0.0146069 5.07898 0
M  V30 885 H 84.8545 -1.76172 4.96257 0
M  V30 886 H 87.3455 -0.876694 3.6759 0
M  V30 887 H 87.6585 -1.17872 7.63758 0
M  V30 888 H 86.0035 -1.06693 6.86762 0
M  V30 889 H 89.1945 -1.00382 4.5721 0
M  V30 890 H 89.3675 -1.14177 6.37862 0
M  V30 891 N 82.7736 -1.49793 -0.48987 0
M  V30 892 C 84.0196 -1.60078 -1.24511 0
M  V30 893 C 84.3526 -0.291608 -1.91998 0
M  V30 894 O 83.6276 0.705647 -1.81248 0
M  V30 895 C 83.9106 -2.76791 -2.30345 0
M  V30 896 C 83.7636 -4.17535 -1.67286 0
M  V30 897 C 85.0826 -2.89111 -3.31817 0
M  V30 898 H 82.2016 -0.582645 -0.451324 0
M  V30 899 H 84.8436 -1.82117 -0.541612 0
M  V30 900 H 82.9936 -2.5813 -2.90346 0
M  V30 901 H 84.6656 -4.4774 -1.11026 0
M  V30 902 H 82.9086 -4.22665 -0.976577 0
M  V30 903 H 83.5796 -4.95094 -2.44103 0
M  V30 904 H 86.0556 -3.06133 -2.81819 0
M  V30 905 H 84.9316 -3.72433 -4.03219 0
M  V30 906 H 85.1926 -1.9893 -3.94815 0
M  V30 907 N 84.2517 0.741722 -1.39055 0
M  V30 908 C 85.1847 1.86416 -1.31622 0
M  V30 909 C 86.1627 1.61473 -0.191076 0
M  V30 910 O 87.3467 1.84825 -0.370399 0
M  V30 911 C 84.4737 3.22266 -1.04221 0
M  V30 912 C 83.5197 3.66079 -2.18834 0
M  V30 913 S 84.3527 3.7623 -3.81066 0
M  V30 914 C 85.5087 5.14881 -3.55877 0
M  V30 915 H 85.7417 1.92437 -2.26617 0
M  V30 916 H 83.2747 0.905907 -1.25031 0
M  V30 917 H 85.2327 4.00714 -0.890964 0
M  V30 918 H 83.8937 3.1391 -0.109237 0
M  V30 919 H 83.0867 4.64648 -1.95238 0
M  V30 920 H 82.6887 2.94817 -2.30128 0
M  V30 921 H 84.9807 6.01006 -3.12726 0
M  V30 922 H 85.9237 5.43503 -4.53884 0
M  V30 923 H 86.3317 4.84239 -2.90126 0
M  V30 924 N 85.7298 1.2412 0.971189 0
M  V30 925 C 86.9778 1.07668 1.71032 0
M  V30 926 C 87.2988 -0.385797 1.91146 0
M  V30 927 O 86.5688 -1.27569 1.4867 0
M  V30 928 H 85.1488 0.395429 0.633755 0
M  V30 929 H 87.8108 1.55984 1.16855 0
M  V30 930 H 86.9068 1.57195 2.69622 0
M  V30 931 N 87.2079 -1.17134 1.05439 0
M  V30 932 C 88.4359 -1.91372 0.786414 0
M  V30 933 C 88.8509 -1.76955 -0.658202 0
M  V30 934 O 88.2079 -1.10838 -1.44987 0
M  V30 935 C 88.2589 -3.42356 1.1608 0
M  V30 936 O 87.9799 -3.56332 2.54871 0
M  V30 937 C 89.4809 -4.33663 0.919322 0
M  V30 938 H 86.7009 -0.607118 0.285743 0
M  V30 939 H 89.2449 -1.48525 1.40572 0
M  V30 940 H 87.3999 -3.82939 0.586191 0
M  V30 941 H 87.8139 -4.49896 2.69618 0
M  V30 942 H 89.2879 -5.38099 1.231 0
M  V30 943 H 89.7649 -4.38959 -0.145359 0
M  V30 944 H 90.3709 -3.98796 1.47789 0
M  V30 945 N 88.686 -0.835752 -1.33615 0
M  V30 946 C 89.616 -0.281739 -2.31794 0
M  V30 947 C 90.597 0.608833 -1.58831 0
M  V30 948 O 91.782 0.533035 -1.86741 0
M  V30 949 C 88.912 0.546612 -3.42971 0
M  V30 950 C 87.866 -0.247904 -4.27281 0
M  V30 951 C 87.192 0.704001 -5.30045 0
M  V30 952 C 88.492 -1.46324 -5.01385 0
M  V30 953 H 90.186 -1.10206 -2.78379 0
M  V30 954 H 87.732 -0.531388 -1.33837 0
M  V30 955 H 89.685 0.944467 -4.1068 0
M  V30 956 H 88.409 1.40011 -2.95067 0
M  V30 957 H 87.068 -0.627281 -3.61194 0
M  V30 958 H 86.716 1.55381 -4.78399 0
M  V30 959 H 86.416 0.176524 -5.87335 0
M  V30 960 H 87.94 1.09944 -6.0062 0
M  V30 961 H 89.354 -1.13871 -5.61877 0
M  V30 962 H 87.751 -1.92728 -5.6831 0
M  V30 963 H 88.821 -2.23467 -4.30338 0
M  V30 964 N 90.1641 1.46063 -0.591896 0
M  V30 965 C 91.0941 2.33172 0.123673 0
M  V30 966 C 92.0751 1.45897 0.87453 0
M  V30 967 O 93.2601 1.74698 0.848181 0
M  V30 968 C 90.3901 3.28336 1.13194 0
M  V30 969 C 89.3441 4.25124 0.495324 0
M  V30 970 C 88.6701 5.09863 1.61071 0
M  V30 971 C 89.9701 5.19143 -0.573425 0
M  V30 972 H 91.6641 2.93252 -0.603646 0
M  V30 973 H 89.2101 1.41014 -0.291741 0
M  V30 974 H 91.1631 3.88137 1.64097 0
M  V30 975 H 89.8871 2.66383 1.88965 0
M  V30 976 H 88.5461 3.66599 0.00729452 0
M  V30 977 H 88.1941 4.44288 2.35832 0
M  V30 978 H 87.8941 5.75417 1.19035 0
M  V30 979 H 89.4181 5.72529 2.12233 0
M  V30 980 H 90.8321 5.73106 -0.1491 0
M  V30 981 H 89.2291 5.93089 -0.914636 0
M  V30 982 H 90.2991 4.62519 -1.45617 0
M  V30 983 N 91.6422 0.330177 1.54103 0
M  V30 984 C 92.8902 -0.269871 2.0029 0
M  V30 985 C 93.2112 -1.52133 1.21986 0
M  V30 986 O 92.4812 -1.93212 0.323438 0
M  V30 987 H 91.0612 -0.10271 0.739905 0
M  V30 988 H 93.7232 0.448249 1.89675 0
M  V30 989 H 92.8192 -0.52166 3.07709 0
M  V30 990 N 93.1203 -1.57491 0.0584922 0
M  V30 991 C 94.0503 -2.14988 -0.911178 0
M  V30 992 C 95.0313 -1.07343 -1.31952 0
M  V30 993 O 96.2163 -1.35318 -1.39294 0
M  V30 994 C 93.3463 -2.70078 -2.18347 0
M  V30 995 C 92.3003 -3.82771 -1.91495 0
M  V30 996 C 91.6263 -4.24408 -3.25241 0
M  V30 997 C 92.9263 -5.07592 -1.23075 0
M  V30 998 H 94.6203 -2.96263 -0.432246 0
M  V30 999 H 92.1663 -1.42512 -0.206469 0
M  V30 1000 H 94.1193 -3.08943 -2.86587 0
M  V30 1001 H 92.8433 -1.86005 -2.68458 0
M  V30 1002 H 91.5023 -3.44389 -1.25664 0
M  V30 1003 H 91.1503 -3.37275 -3.73168 0
M  V30 1004 H 90.8503 -5.00366 -3.08071 0
M  V30 1005 H 92.3743 -4.65879 -3.94701 0
M  V30 1006 H 93.7883 -5.43857 -1.81362 0
M  V30 1007 H 92.1853 -5.88741 -1.16207 0
M  V30 1008 H 93.2553 -4.84454 -0.207847 0
M  V30 1009 N 94.5984 0.214957 -1.56127 0
M  V30 1010 C 95.8464 0.936518 -1.79091 0
M  V30 1011 C 96.1674 1.84606 -0.628148 0
M  V30 1012 O 95.4374 1.92664 0.35462 0
M  V30 1013 H 94.0174 0.3488 -0.660566 0
M  V30 1014 H 96.6794 0.22523 -1.93594 0
M  V30 1015 H 95.7754 1.53943 -2.71492 0
M  V30 1016 N 96.0765 1.50051 0.48192 0
M  V30 1017 C 97.0395 1.67584 1.5636 0
M  V30 1018 C 98.0395 0.546894 1.51214 0
M  V30 1019 O 99.2295 0.813725 1.54026 0
M  V30 1020 C 96.3615 1.691 2.96003 0
M  V30 1021 H 97.5545 2.64078 1.42136 0
M  V30 1022 H 95.1075 1.39369 0.707533 0
M  V30 1023 H 95.8425 0.742589 3.15684 0
M  V30 1024 H 95.6275 2.51105 3.01146 0
M  V30 1025 H 97.1175 1.84656 3.74556 0
M  V30 1026 N 97.5546 -0.734337 1.39446 0
M  V30 1027 C 98.8006 -1.49613 1.36908 0
M  V30 1028 C 99.1336 -1.94169 -0.0347829 0
M  V30 1029 O 98.4086 -1.66833 -0.999847 0
M  V30 1030 C 98.6916 -2.73534 2.34203 0
M  V30 1031 C 98.5446 -2.34993 3.83534 0
M  V30 1032 C 99.8636 -3.75635 2.29317 0
M  V30 1033 H 96.9826 -0.542714 0.498629 0
M  V30 1034 H 99.6246 -0.839597 1.70443 0
M  V30 1035 H 97.7746 -3.29553 2.05736 0
M  V30 1036 H 99.4466 -1.84601 4.22753 0
M  V30 1037 H 97.6896 -1.67213 4.00278 0
M  V30 1038 H 98.3606 -3.23738 4.47099 0
M  V30 1039 H 100.837 -3.29203 2.54489 0
M  V30 1040 H 99.7126 -4.60008 2.99472 0
M  V30 1041 H 99.9736 -4.22603 1.29842 0
M  V30 1042 N 99.0327 -1.24633 -0.964593 0
M  V30 1043 C 99.9627 -1.06611 -2.07741 0
M  V30 1044 C 100.944 0.0218666 -1.70086 0
M  V30 1045 O 102.129 -0.145793 -1.93652 0
M  V30 1046 C 99.2587 -0.673444 -3.40708 0
M  V30 1047 C 98.2127 -1.71054 -3.92332 0
M  V30 1048 C 97.5387 -1.17285 -5.21678 0
M  V30 1049 C 98.8387 -3.10718 -4.19824 0
M  V30 1050 H 100.533 -1.99693 -2.23076 0
M  V30 1051 H 98.0787 -0.96152 -1.07195 0
M  V30 1052 H 100.032 -0.534345 -4.17998 0
M  V30 1053 H 98.7557 0.293073 -3.25282 0
M  V30 1054 H 97.4147 -1.83791 -3.17201 0
M  V30 1055 H 97.0627 -0.196847 -5.02615 0
M  V30 1056 H 96.7627 -1.86592 -5.57187 0
M  V30 1057 H 98.2867 -1.04593 -6.01575 0
M  V30 1058 H 99.7007 -3.01192 -4.87808 0
M  V30 1059 H 98.0977 -3.77406 -4.66567 0
M  V30 1060 H 99.1677 -3.58524 -3.26479 0
M  V30 1061 N 100.511 1.16574 -1.06058 0
M  V30 1062 C 101.474 2.19085 -0.673392 0
M  V30 1063 C 102.474 1.5835 0.279648 0
M  V30 1064 O 103.664 1.74088 0.0623488 0
M  V30 1065 C 100.796 3.40899 0.00954234 0
M  V30 1066 H 101.989 2.54853 -1.58081 0
M  V30 1067 H 99.5418 1.30808 -0.855516 0
M  V30 1068 H 100.277 3.10684 0.929826 0
M  V30 1069 H 100.062 3.86233 -0.67573 0
M  V30 1070 H 101.552 4.1675 0.266245 0
M  V30 1071 N 101.989 0.842826 1.3317 0
M  V30 1072 C 103.219 0.453397 2.01564 0
M  V30 1073 C 103.627 -0.951147 1.63554 0
M  V30 1074 O 102.97 -1.63021 0.846746 0
M  V30 1075 C 103.032 0.499013 3.5602 0
M  V30 1076 C 102.696 1.86037 4.1742 0
M  V30 1077 C 103.693 2.82416 4.36506 0
M  V30 1078 C 101.378 2.15428 4.53757 0
M  V30 1079 C 103.372 4.06346 4.91082 0
M  V30 1080 C 101.059 3.39615 5.0804 0
M  V30 1081 C 102.057 4.3489 5.26649 0
M  V30 1082 O 101.745 5.5688 5.79776 0
M  V30 1083 H 101.477 0.177871 0.652179 0
M  V30 1084 H 104.031 1.13808 1.70988 0
M  V30 1085 H 102.261 -0.242467 3.85939 0
M  V30 1086 H 103.95 0.126852 4.05702 0
M  V30 1087 H 104.716 2.6101 4.08777 0
M  V30 1088 H 100.595 1.42061 4.38565 0
M  V30 1089 H 104.139 4.80722 5.05522 0
M  V30 1090 H 100.036 3.60876 5.352 0
M  V30 1091 H 100.804 5.58674 5.98185 0
M  V30 1092 N 103.467 -1.45747 0.599634 0
M  V30 1093 C 104.399 -2.28628 -0.161879 0
M  V30 1094 C 105.412 -1.39494 -0.839367 0
M  V30 1095 O 106.601 -1.63941 -0.706089 0
M  V30 1096 C 103.701 -3.15014 -1.24976 0
M  V30 1097 C 102.874 -4.32378 -0.660935 0
M  V30 1098 C 101.933 -5.00033 -1.63869 0
M  V30 1099 O 100.959 -5.57085 -1.1681 0
M  V30 1100 N 102.161 -4.98589 -2.97303 0
M  V30 1101 H 104.926 -2.94624 0.549265 0
M  V30 1102 H 102.487 -1.55847 0.438565 0
M  V30 1103 H 104.479 -3.5714 -1.9035 0
M  V30 1104 H 103.049 -2.5098 -1.86354 0
M  V30 1105 H 102.269 -3.9383 0.170688 0
M  V30 1106 H 103.557 -5.08197 -0.247619 0
M  V30 1107 H 102.955 -4.53514 -3.38145 0
M  V30 1108 H 101.512 -5.44603 -3.58121 0
M  V30 1109 N 104.945 -0.338344 -1.53925 0
M  V30 1110 C 106.222 0.314774 -1.93051 0
M  V30 1111 C 106.602 1.68669 -1.26941 0
M  V30 1112 O 105.95 2.24636 -0.418445 0
M  V30 1113 C 106.16 0.392249 -3.46789 0
M  V30 1114 C 107.508 0.645554 -4.19664 0
M  V30 1115 O 108.532 0.474575 -3.53024 0
M  V30 1116 O 107.391 0.976408 -5.37707 0
M  V30 1117 H 104.485 0.182598 -0.80659 0
M  V30 1118 H 107.031 -0.389141 -1.65178 0
M  V30 1119 H 105.803 -0.570702 -3.87116 0
M  V30 1120 H 105.426 1.14316 -3.80812 0
M  V30 1121 N 106.423 1.57458 -0.0668435 0
M  V30 1122 C 107.373 2.0896 0.912119 0
M  V30 1123 C 108.357 0.998186 1.26195 0
M  V30 1124 O 109.549 1.26133 1.24175 0
M  V30 1125 C 106.678 2.6508 2.18145 0
M  V30 1126 C 105.764 3.81218 1.85832 0
M  V30 1127 N 106.155 4.90378 1.23948 0
M  V30 1128 C 104.453 3.9042 2.15612 0
M  V30 1129 C 105.154 5.71279 1.09616 0
M  V30 1130 N 104.13 5.19389 1.60423 0
M  V30 1131 H 107.932 2.90749 0.42924 0
M  V30 1132 H 105.446 1.6182 0.137184 0
M  V30 1133 H 107.443 3.0029 2.89192 0
M  V30 1134 H 106.103 1.84736 2.67025 0
M  V30 1135 H 107.114 5.09847 0.909731 0
M  V30 1136 H 103.791 3.21043 2.66903 0
M  V30 1137 H 105.181 6.69085 0.614425 0
M  V30 1138 N 107.901 -0.206675 1.56239 0
M  V30 1139 C 109.317 -0.557025 1.49564 0
M  V30 1140 C 109.517 -1.86424 0.764735 0
M  V30 1141 O 108.573 -2.50584 0.310491 0
M  V30 1142 C 109.886 -0.622478 2.94186 0
M  V30 1143 C 111.434 -0.712099 3.04792 0
M  V30 1144 C 111.909 -0.808767 4.50803 0
M  V30 1145 N 113.4 -0.8726 4.54907 0
M  V30 1146 C 114.135 -0.967365 5.65181 0
M  V30 1147 N 113.631 -1.02515 6.85173 0
M  V30 1148 N 115.424 -1.00366 5.53067 0
M  V30 1149 H 107.575 0.650943 2.02179 0
M  V30 1150 H 109.838 0.230387 0.919579 0
M  V30 1151 H 109.544 0.268727 3.50672 0
M  V30 1152 H 109.418 -1.4811 3.46905 0
M  V30 1153 H 111.805 -1.59374 2.48363 0
M  V30 1154 H 111.886 0.172489 2.55218 0
M  V30 1155 H 111.53 0.0684754 5.07854 0
M  V30 1156 H 111.46 -1.70899 4.98098 0
M  V30 1157 H 113.951 -0.837657 3.68499 0
M  V30 1158 H 114.264 -1.09765 7.64965 0
M  V30 1159 H 112.609 -0.994026 6.87855 0
M  V30 1160 H 115.8 -0.95527 4.58249 0
M  V30 1161 H 115.973 -1.07405 6.39037 0
M  V30 1162 N 109.379 -1.50304 -0.473955 0
M  V30 1163 C 110.619 -1.62786 -1.23612 0
M  V30 1164 C 110.983 -0.319786 -1.89318 0
M  V30 1165 O 112.184 -0.320012 -2.66888 0
M  V30 1166 C 110.455 -2.77351 -2.25414 0
M  V30 1167 S 112.014 -3.09948 -3.10608 0
M  V30 1168 H 108.832 -0.573895 -0.419721 0
M  V30 1169 H 111.434 -1.88076 -0.533623 0
M  V30 1170 H 110.138 -3.70879 -1.75719 0
M  V30 1171 H 109.669 -2.54137 -3.00296 0
M  V30 1172 H 111.684 -2.53553 -4.26527 0
M  V30 1173 N 110.857 0.726932 -1.39834 0
M  V30 1174 C 112.273 1.03354 -1.21615 0
M  V30 1175 C 112.473 2.01327 -0.08338 0
M  V30 1176 O 111.529 2.46158 0.56238 0
M  V30 1177 C 112.842 1.58811 -2.55342 0
M  V30 1178 C 114.39 1.70851 -2.62257 0
M  V30 1179 C 114.865 2.29716 -3.96225 0
M  V30 1180 N 116.356 2.37116 -3.97907 0
M  V30 1181 C 117.091 2.83619 -4.98345 0
M  V30 1182 N 116.587 3.29958 -6.09179 0
M  V30 1183 N 118.38 2.82901 -4.8572 0
M  V30 1184 H 110.531 0.0773069 -2.12259 0
M  V30 1185 H 112.794 0.0969102 -0.943034 0
M  V30 1186 H 112.5 0.942855 -3.38826 0
M  V30 1187 H 112.374 2.57502 -2.75632 0
M  V30 1188 H 114.761 2.34497 -1.79152 0
M  V30 1189 H 114.842 0.707913 -2.45809 0
M  V30 1190 H 114.486 1.66696 -4.79765 0
M  V30 1191 H 114.416 3.30469 -4.09997 0
M  V30 1192 H 116.907 2.04374 -3.17868 0
M  V30 1193 H 117.22 3.63976 -6.8172 0
M  V30 1194 H 115.565 3.27946 -6.12761 0
M  V30 1195 H 118.756 2.46027 -3.98231 0
M  V30 1196 H 118.929 3.18827 -5.6414 0
M  V30 1197 N 112.336 1.25143 0.95797 0
M  V30 1198 C 113.299 1.05321 2.03569 0
M  V30 1199 C 114.299 0.007152 1.60798 0
M  V30 1200 O 115.489 0.24903 1.72411 0
M  V30 1201 C 112.621 0.598394 3.35607 0
M  V30 1202 H 113.814 2.00986 2.22586 0
M  V30 1203 H 111.367 1.07502 1.13459 0
M  V30 1204 H 112.102 -0.361014 3.22284 0
M  V30 1205 H 111.887 1.35351 3.67998 0
M  V30 1206 H 113.377 0.48104 4.1482 0
M  V30 1207 N 113.814 -1.1601 1.06675 0
M  V30 1208 C 114.777 -2.18724 0.685001 0
M  V30 1209 C 115.777 -1.58496 -0.271246 0
M  V30 1210 O 116.967 -1.74119 -0.0531156 0
M  V30 1211 C 114.099 -3.40899 0.00853648 0
M  V30 1212 H 115.292 -2.54011 1.59431 0
M  V30 1213 H 112.845 -1.30352 0.862441 0
M  V30 1214 H 113.58 -3.11173 -0.913337 0
M  V30 1215 H 113.365 -3.8587 0.696204 0
M  V30 1216 H 114.855 -4.16886 -0.24414 0
M  V30 1217 N 115.292 -0.849877 -1.32721 0
M  V30 1218 C 116.224 -0.248332 -2.27851 0
M  V30 1219 C 117.237 0.577218 -1.52224 0
M  V30 1220 O 118.426 0.402489 -1.73903 0
M  V30 1221 C 115.526 0.668107 -3.32249 0
M  V30 1222 C 114.699 -0.120534 -4.37234 0
M  V30 1223 C 113.758 0.720932 -5.21238 0
M  V30 1224 O 112.784 0.156166 -5.68986 0
M  V30 1225 N 113.986 2.03647 -5.43607 0
M  V30 1226 H 116.751 -1.06575 -2.80111 0
M  V30 1227 H 114.312 -0.709395 -1.45531 0
M  V30 1228 H 116.304 1.23627 -3.85355 0
M  V30 1229 H 114.874 1.38621 -2.80184 0
M  V30 1230 H 114.094 -0.870108 -3.84477 0
M  V30 1231 H 115.382 -0.662406 -5.0447 0
M  V30 1232 H 114.78 2.51871 -5.06535 0
M  V30 1233 H 113.337 2.55287 -5.99727 0
M  V30 1234 N 116.77 1.45427 -0.607355 0
M  V30 1235 C 117.68 2.34325 0.113463 0
M  V30 1236 C 118.696 1.51226 0.860617 0
M  V30 1237 O 119.872 1.84029 0.818255 0
M  V30 1238 C 116.937 3.28839 1.09844 0
M  V30 1239 C 115.998 4.27844 0.353271 0
M  V30 1240 C 115.231 5.17842 1.29133 0
M  V30 1241 O 115.454 5.11264 2.52913 0
M  V30 1242 O 114.388 5.96713 0.788523 0
M  V30 1243 H 118.214 2.97364 -0.617094 0
M  V30 1244 H 115.799 1.44807 -0.367619 0
M  V30 1245 H 117.681 3.8708 1.66575 0
M  V30 1246 H 116.356 2.68365 1.81003 0
M  V30 1247 H 115.263 3.7322 -0.256494 0
M  V30 1248 H 116.596 4.91173 -0.317822 0
M  V30 1249 N 118.248 0.346503 1.53744 0
M  V30 1250 C 119.473 -0.253074 2.0585 0
M  V30 1251 C 119.898 -1.43202 1.21962 0
M  V30 1252 O 119.256 -1.79783 0.234073 0
M  V30 1253 C 119.304 -0.643193 3.54817 0
M  V30 1254 O 118.408 -1.74286 3.73762 0
M  V30 1255 H 117.749 -0.0413583 0.662711 0
M  V30 1256 H 120.279 0.501574 1.98357 0
M  V30 1257 H 120.289 -0.919526 3.97503 0
M  V30 1258 H 118.964 0.218966 4.15323 0
M  V30 1259 H 117.541 -1.46356 3.42979 0
M  V30 1260 N 119.726 -1.57421 0.075193 0
M  V30 1261 C 120.954 -1.97946 -0.602076 0
M  V30 1262 C 121.369 -0.953674 -1.62943 0
M  V30 1263 O 120.726 0.0592551 -1.82404 0
M  V30 1264 C 120.777 -3.38546 -1.26762 0
M  V30 1265 O 120.498 -4.37195 -0.281376 0
M  V30 1266 C 121.999 -3.93966 -2.03239 0
M  V30 1267 H 119.219 -0.650918 -0.162931 0
M  V30 1268 H 121.763 -2.03959 0.148601 0
M  V30 1269 H 119.918 -3.33609 -1.96936 0
M  V30 1270 H 120.332 -5.18975 -0.759267 0
M  V30 1271 H 121.806 -4.94555 -2.45193 0
M  V30 1272 H 122.283 -3.30693 -2.8903 0
M  V30 1273 H 122.889 -4.02315 -1.37924 0
M  V30 1274 N 121.204 0.198386 -1.56346 0
M  V30 1275 C 122.154 1.2499 -1.90687 0
M  V30 1276 C 123.138 1.41158 -0.772217 0
M  V30 1277 O 124.33 1.43584 -1.03502 0
M  V30 1278 C 121.459 2.59542 -2.24706 0
M  V30 1279 C 120.545 2.47181 -3.44619 0
M  V30 1280 N 120.936 2.04495 -4.62618 0
M  V30 1281 C 119.234 2.78082 -3.48692 0
M  V30 1282 C 119.935 2.03945 -5.44776 0
M  V30 1283 N 118.911 2.45323 -4.85095 0
M  V30 1284 H 122.713 0.911149 -2.7942 0
M  V30 1285 H 120.227 0.40684 -1.57221 0
M  V30 1286 H 122.224 3.3549 -2.47491 0
M  V30 1287 H 120.884 2.94244 -1.37298 0
M  V30 1288 H 121.895 1.75256 -4.87345 0
M  V30 1289 H 118.572 3.17002 -2.71691 0
M  V30 1290 H 119.962 1.72872 -6.4928 0
M  V30 1291 N 122.682 1.50554 0.465978 0
M  V30 1292 C 123.931 1.61038 1.21448 0
M  V30 1293 C 124.244 0.31865 1.92987 0
M  V30 1294 O 125.45 0.302469 2.6981 0
M  V30 1295 C 123.906 2.84283 2.20706 0
M  V30 1296 C 123.514 4.20352 1.54946 0
M  V30 1297 C 125.258 3.04115 2.96166 0
M  V30 1298 C 123.165 5.34778 2.5252 0
M  V30 1299 H 122.095 0.599718 0.457005 0
M  V30 1300 H 124.746 1.7699 0.484424 0
M  V30 1301 H 123.128 2.61901 2.97025 0
M  V30 1302 H 124.302 4.53008 0.843811 0
M  V30 1303 H 122.617 4.06167 0.917475 0
M  V30 1304 H 125.214 3.86774 3.69202 0
M  V30 1305 H 125.557 2.16045 3.55852 0
M  V30 1306 H 126.09 3.26702 2.26959 0
M  V30 1307 H 122.829 6.25018 1.97566 0
M  V30 1308 H 122.349 5.06534 3.21222 0
M  V30 1309 H 124.028 5.65561 3.14245 0
M  V30 1310 N 124.16 -0.719506 1.40217 0
M  V30 1311 C 125.39 -1.50646 1.41384 0
M  V30 1312 C 125.798 -1.89197 0.0107743 0
M  V30 1313 O 125.141 -1.55709 -0.974708 0
M  V30 1314 C 125.203 -2.81405 2.23722 0
M  V30 1315 C 124.867 -2.65199 3.72181 0
M  V30 1316 C 125.864 -2.32717 4.64907 0
M  V30 1317 C 123.549 -2.81586 4.1595 0
M  V30 1318 C 125.543 -2.16827 5.99387 0
M  V30 1319 C 123.23 -2.65313 5.50502 0
M  V30 1320 C 124.228 -2.32981 6.42035 0
M  V30 1321 O 123.916 -2.16827 7.74107 0
M  V30 1322 H 123.648 -0.471606 0.484318 0
M  V30 1323 H 126.202 -0.895456 1.84853 0
M  V30 1324 H 124.432 -3.44823 1.75026 0
M  V30 1325 H 126.121 -3.43102 2.16878 0
M  V30 1326 H 126.887 -2.19694 4.32388 0
M  V30 1327 H 122.766 -3.0574 3.45027 0
M  V30 1328 H 126.31 -1.91513 6.70797 0
M  V30 1329 H 122.207 -2.7792 5.82607 0
M  V30 1330 H 122.975 -2.31778 7.84998 0
M  V30 1331 N 125.638 -1.25649 -0.95132 0
M  V30 1332 C 126.866 -1.13343 -1.73092 0
M  V30 1333 C 127.281 0.312434 -1.86197 0
M  V30 1334 O 126.638 1.21465 -1.36207 0
M  V30 1335 C 126.689 -1.78602 -3.14299 0
M  V30 1336 O 126.41 -3.17537 -3.01831 0
M  V30 1337 C 127.911 -1.72119 -4.08522 0
M  V30 1338 H 125.131 -0.395181 -0.542285 0
M  V30 1339 H 127.675 -1.66076 -1.19328 0
M  V30 1340 H 125.83 -1.29832 -3.64996 0
M  V30 1341 H 126.244 -3.49676 -3.90931 0
M  V30 1342 H 127.718 -2.22435 -5.052 0
M  V30 1343 H 128.195 -0.685635 -4.33815 0
M  V30 1344 H 128.801 -2.20393 -3.63741 0
M  V30 1345 N 127.117 1.15442 -1.07289 0
M  V30 1346 C 128.064 2.20161 -0.692653 0
M  V30 1347 C 129.034 1.63073 0.31564 0
M  V30 1348 O 130.219 1.89725 0.202235 0
M  V30 1349 C 127.359 3.44967 -0.0959509 0
M  V30 1350 C 126.472 4.16256 -1.15564 0
M  V30 1351 C 125.607 5.28609 -0.524011 0
M  V30 1352 C 124.646 5.91715 -1.56653 0
M  V30 1353 N 123.783 6.9554 -0.957531 0
M  V30 1354 H 128.623 2.52037 -1.59002 0
M  V30 1355 H 126.16 1.2378 -0.794798 0
M  V30 1356 H 128.118 4.16341 0.267628 0
M  V30 1357 H 126.748 3.1361 0.764772 0
M  V30 1358 H 125.8 3.43385 -1.6368 0
M  V30 1359 H 127.112 4.59268 -1.94613 0
M  V30 1360 H 126.266 6.06604 -0.108032 0
M  V30 1361 H 125.005 4.86787 0.29825 0
M  V30 1362 H 124.01 5.12433 -1.9923 0
M  V30 1363 H 125.235 6.35614 -2.39107 0
M  V30 1364 H 123.181 6.55814 -0.156162 0
M  V30 1365 H 123.098 7.36977 -1.68526 0
M  V30 1366 H 124.366 7.77435 -0.567032 0
M  V30 1367 N 128.595 0.856903 1.32268 0
M  V30 1368 C 129.505 0.306131 2.32594 0
M  V30 1369 C 130.521 -0.577209 1.64147 0
M  V30 1370 O 131.697 -0.477043 1.95669 0
M  V30 1371 C 128.762 -0.494561 3.43154 0
M  V30 1372 C 127.823 0.415186 4.27288 0
M  V30 1373 C 127.056 -0.347387 5.32568 0
M  V30 1374 O 127.279 -1.57708 5.48165 0
M  V30 1375 O 126.213 0.287982 6.01211 0
M  V30 1376 H 130.039 1.13737 2.81598 0
M  V30 1377 H 127.624 0.619902 1.35932 0
M  V30 1378 H 129.506 -0.948944 4.10576 0
M  V30 1379 H 128.181 -1.30257 2.96336 0
M  V30 1380 H 127.088 0.917793 3.62667 0
M  V30 1381 H 128.421 1.18844 4.77637 0
M  V30 1382 N 130.073 -1.45103 0.615059 0
M  V30 1383 C 130.983 -2.34382 -0.101034 0
M  V30 1384 C 131.999 -1.51681 -0.852585 0
M  V30 1385 O 133.175 -1.8446 -0.808484 0
M  V30 1386 C 130.24 -3.29417 -1.08099 0
M  V30 1387 C 129.301 -4.28025 -0.330577 0
M  V30 1388 C 128.534 -5.1852 -1.26385 0
M  V30 1389 O 128.757 -5.12598 -2.50198 0
M  V30 1390 O 127.691 -5.97122 -0.756866 0
M  V30 1391 H 131.517 -2.97033 0.632855 0
M  V30 1392 H 129.102 -1.4461 0.375293 0
M  V30 1393 H 130.984 -3.87958 -1.6452 0
M  V30 1394 H 129.659 -2.69321 -1.79577 0
M  V30 1395 H 128.566 -3.73078 0.276283 0
M  V30 1396 H 129.899 -4.90997 0.343866 0
M  V30 1397 N 131.551 -0.354651 -1.53558 0
M  V30 1398 C 132.797 0.238797 -2.01389 0
M  V30 1399 C 133.13 1.49309 -1.2418 0
M  V30 1400 O 132.405 1.91638 -0.332457 0
M  V30 1401 C 132.688 0.541771 -3.56001 0
M  V30 1402 C 132.541 -0.725388 -4.43912 0
M  V30 1403 C 133.86 1.34685 -4.18984 0
M  V30 1404 H 130.979 0.0853177 -0.732045 0
M  V30 1405 H 133.621 -0.477384 -1.83905 0
M  V30 1406 H 131.771 1.15189 -3.71031 0
M  V30 1407 H 133.443 -1.36313 -4.407 0
M  V30 1408 H 131.686 -1.34801 -4.12324 0
M  V30 1409 H 132.357 -0.468505 -5.50008 0
M  V30 1410 H 134.833 0.830837 -4.07721 0
M  V30 1411 H 133.709 1.52759 -5.27215 0
M  V30 1412 H 133.97 2.35221 -3.74331 0
M  V30 1413 N 133.029 1.57378 -0.0835403 0
M  V30 1414 C 134.254 1.98682 0.594987 0
M  V30 1415 C 134.679 0.961969 1.61641 0
M  V30 1416 O 134.037 -0.0709989 1.81161 0
M  V30 1417 C 134.085 3.38988 1.2296 0
M  V30 1418 O 133.189 3.39208 2.34546 0
M  V30 1419 H 132.53 0.646368 0.152002 0
M  V30 1420 H 135.06 2.03961 -0.161533 0
M  V30 1421 H 135.07 3.76431 1.57366 0
M  V30 1422 H 133.745 4.13107 0.481228 0
M  V30 1423 H 132.322 3.13548 2.01846 0
M  V30 1424 N 134.507 -0.190092 1.56449 0
M  V30 1425 C 135.732 -0.929864 1.85387 0
M  V30 1426 C 136.157 -1.7585 0.667704 0
M  V30 1427 O 135.515 -1.77198 -0.383459 0
M  V30 1428 C 135.563 -1.79773 3.12593 0
M  V30 1429 O 134.667 -2.89713 2.93496 0
M  V30 1430 H 134.008 -0.261574 0.610307 0
M  V30 1431 H 136.538 -0.193896 2.03679 0
M  V30 1432 H 136.548 -2.20139 3.43515 0
M  V30 1433 H 135.223 -1.18892 3.98544 0
M  V30 1434 H 133.8 -2.53065 2.73884 0
M  V30 1435 N 135.985 -1.50799 -0.457987 0
M  V30 1436 C 136.935 -1.67003 -1.55222 0
M  V30 1437 C 137.919 -0.52434 -1.52117 0
M  V30 1438 O 139.111 -0.779345 -1.58919 0
M  V30 1439 C 136.24 -1.77956 -2.93576 0
M  V30 1440 C 135.326 -2.98243 -3.01516 0
M  V30 1441 N 135.717 -4.21732 -2.79241 0
M  V30 1442 C 134.015 -2.97072 -3.32662 0
M  V30 1443 C 134.716 -5.02817 -2.92489 0
M  V30 1444 N 133.692 -4.37038 -3.23262 0
M  V30 1445 H 137.494 -2.60163 -1.36721 0
M  V30 1446 H 135.008 -1.48163 -0.664952 0
M  V30 1447 H 137.005 -1.87671 -3.72271 0
M  V30 1448 H 135.665 -0.859634 -3.13114 0
M  V30 1449 H 136.676 -4.51016 -2.54567 0
M  V30 1450 H 133.353 -2.14631 -3.58106 0
M  V30 1451 H 134.743 -6.11054 -2.79396 0
M  V30 1452 N 137.463 0.71206 -1.40597 0
M  V30 1453 C 138.691 1.50111 -1.42388 0
M  V30 1454 C 139.106 1.88784 -0.0245395 0
M  V30 1455 O 138.463 1.55681 0.952351 0
M  V30 1456 C 138.514 2.7742 -2.31776 0
M  V30 1457 O 138.235 2.40382 -3.66262 0
M  V30 1458 C 139.736 3.7129 -2.42196 0
M  V30 1459 H 136.956 0.46314 -0.485533 0
M  V30 1460 H 139.5 0.878068 -1.8469 0
M  V30 1461 H 137.655 3.36001 -1.92827 0
M  V30 1462 H 138.069 3.22324 -4.13772 0
M  V30 1463 H 139.543 4.57448 -3.08943 0
M  V30 1464 H 140.02 4.14641 -1.44809 0
M  V30 1465 H 140.626 3.18619 -2.81712 0
M  V30 1466 N 138.941 1.26152 0.944643 0
M  V30 1467 C 140.166 1.14363 1.7302 0
M  V30 1468 C 140.591 -0.29772 1.85729 0
M  V30 1469 O 139.949 -1.2157 1.34501 0
M  V30 1470 C 139.997 1.81378 3.11664 0
M  V30 1471 O 139.101 1.10022 3.97453 0
M  V30 1472 H 138.442 0.398694 0.53098 0
M  V30 1473 H 140.972 1.66906 1.18337 0
M  V30 1474 H 140.982 1.88064 3.62072 0
M  V30 1475 H 139.657 2.86237 3.0173 0
M  V30 1476 H 138.234 1.11287 3.55907 0
M  V30 1477 N 140.419 -1.14872 1.07899 0
M  V30 1478 C 141.83 -1.67367 0.827363 0
M  V30 1479 C 142.181 -1.85236 -0.646693 0
M  V30 1480 O 141.306 -1.55974 -1.50004 0
M  V30 1481 C 141.901 -3.04016 1.49532 0
M  V30 1482 C 140.46 -3.53566 1.29106 0
M  V30 1483 C 139.607 -2.29161 1.56143 0
M  V30 1484 H 142.558 -0.990083 1.24028 0
M  V30 1485 H 142.579 -3.69219 0.919643 0
M  V30 1486 H 142.091 -2.90978 2.56814 0
M  V30 1487 H 140.192 -3.71835 0.238713 0
M  V30 1488 H 140.305 -4.34661 2.01511 0
M  V30 1489 H 138.669 -2.34978 0.982717 0
M  V30 1490 H 139.452 -2.18705 2.64619 0
M  V30 1491 N 141.898 -0.863906 -1.31812 0
M  V30 1492 C 142.808 -0.318461 -2.32428 0
M  V30 1493 C 143.824 0.568496 -1.64451 0
M  V30 1494 O 145 0.46666 -1.95919 0
M  V30 1495 C 142.065 0.476355 -3.43412 0
M  V30 1496 C 141.126 -0.43784 -4.27061 0
M  V30 1497 C 140.359 0.319138 -5.32745 0
M  V30 1498 O 140.582 1.54799 -5.48993 0
M  V30 1499 O 139.516 -0.319861 -6.01049 0
M  V30 1500 H 143.342 -1.15229 -2.80991 0
M  V30 1501 H 140.927 -0.627103 -1.35602 0
M  V30 1502 H 142.809 0.927156 -4.11074 0
M  V30 1503 H 141.484 1.28683 -2.97022 0
M  V30 1504 H 140.391 -0.937013 -3.62175 0
M  V30 1505 H 141.724 -1.21375 -4.77 0
M  V30 1506 N 143.376 1.44774 -0.622745 0
M  V30 1507 C 144.604 2.06487 -0.130722 0
M  V30 1508 C 145.019 1.46476 1.19123 0
M  V30 1509 O 144.376 0.584502 1.72887 0
M  V30 1510 C 144.427 3.615 -0.000807207 0
M  V30 1511 O 144.148 4.19274 -1.27048 0
M  V30 1512 C 145.649 4.40229 0.520898 0
M  V30 1513 H 142.869 0.666704 -0.0758106 0
M  V30 1514 H 145.413 1.85779 -0.854774 0
M  V30 1515 H 143.568 3.81498 0.673643 0
M  V30 1516 H 143.982 5.12622 -1.1099 0
M  V30 1517 H 145.456 5.49144 0.560838 0
M  V30 1518 H 145.933 4.1108 1.54627 0
M  V30 1519 H 146.539 4.25131 -0.120018 0
M  V30 1520 N 144.854 0.36279 1.53368 0
M  V30 1521 C 146.102 -0.227326 2.00817 0
M  V30 1522 C 146.423 -1.49511 1.25186 0
M  V30 1523 O 145.693 -1.92482 0.364348 0
M  V30 1524 H 144.273 -0.0869923 0.741917 0
M  V30 1525 H 146.935 0.488381 1.88682 0
M  V30 1526 H 146.031 -0.456273 3.08747 0
M  V30 1527 N 146.332 -1.57332 0.0918853 0
M  V30 1528 C 147.581 -1.93412 -0.572249 0
M  V30 1529 C 147.894 -0.975515 -1.69538 0
M  V30 1530 O 149.1 -1.22991 -2.42045 0
M  V30 1531 C 147.556 -3.43648 -1.0693 0
M  V30 1532 C 147.164 -4.47994 0.0239049 0
M  V30 1533 C 148.908 -3.88695 -1.70635 0
M  V30 1534 C 146.815 -5.89381 -0.488319 0
M  V30 1535 H 145.745 -0.721939 -0.217532 0
M  V30 1536 H 148.396 -1.82735 0.167369 0
M  V30 1537 H 146.778 -3.49466 -1.8625 0
M  V30 1538 H 147.952 -4.53815 0.799277 0
M  V30 1539 H 146.267 -4.12536 0.565946 0
M  V30 1540 H 148.864 -4.91725 -2.10025 0
M  V30 1541 H 149.207 -3.27166 -2.57426 0
M  V30 1542 H 149.74 -3.85564 -0.979023 0
M  V30 1543 H 146.479 -6.54602 0.342906 0
M  V30 1544 H 145.999 -5.87037 -1.23077 0
M  V30 1545 H 147.678 -6.39863 -0.958317 0
M  V30 1546 N 147.81 0.181792 -1.56548 0
M  V30 1547 C 149.056 0.896803 -1.82562 0
M  V30 1548 C 149.411 1.80324 -0.670908 0
M  V30 1549 O 148.704 1.8868 0.333235 0
M  V30 1550 C 148.898 1.73728 -3.12335 0
M  V30 1551 C 148.727 0.913714 -4.4032 0
M  V30 1552 C 147.497 0.592903 -5.01809 0
M  V30 1553 C 149.695 0.260164 -5.13642 0
M  V30 1554 N 147.677 -0.247901 -6.13399 0
M  V30 1555 C 149.048 -0.442256 -6.18421 0
M  V30 1556 C 151.103 0.177253 -4.97584 0
M  V30 1557 C 149.806 -1.21971 -7.08883 0
M  V30 1558 C 151.832 -0.586839 -5.88481 0
M  V30 1559 C 151.194 -1.27766 -6.92716 0
M  V30 1560 H 147.293 0.307122 -0.719166 0
M  V30 1561 H 149.877 0.164535 -1.94004 0
M  V30 1562 H 148.048 2.44105 -3.02105 0
M  V30 1563 H 149.78 2.39279 -3.26386 0
M  V30 1564 H 146.535 0.920502 -4.64568 0
M  V30 1565 H 146.959 -0.658304 -6.73792 0
M  V30 1566 H 151.601 0.696993 -4.17015 0
M  V30 1567 H 149.319 -1.75083 -7.88905 0
M  V30 1568 H 152.905 -0.652522 -5.78129 0
M  V30 1569 H 151.785 -1.85943 -7.61836 0
M  V30 1570 N 149.288 1.51039 0.449983 0
M  V30 1571 C 150.534 1.63322 1.20223 0
M  V30 1572 C 150.867 0.34241 1.91158 0
M  V30 1573 O 150.142 -0.657344 1.83055 0
M  V30 1574 C 150.425 2.82801 2.22925 0
M  V30 1575 C 150.278 4.21823 1.56157 0
M  V30 1576 C 151.597 2.97807 3.24035 0
M  V30 1577 H 148.716 0.594407 0.435718 0
M  V30 1578 H 151.358 1.83489 0.493136 0
M  V30 1579 H 149.508 2.65738 2.834 0
M  V30 1580 H 151.18 4.50526 0.991162 0
M  V30 1581 H 149.423 4.25105 0.864172 0
M  V30 1582 H 150.094 5.01391 2.30891 0
M  V30 1583 H 152.57 3.13497 2.73603 0
M  V30 1584 H 151.446 3.82992 3.93202 0
M  V30 1585 H 151.707 2.09328 3.89402 0
M  V30 1586 N 150.766 -0.704594 1.40972 0
M  V30 1587 C 151.994 -1.49354 1.43182 0
M  V30 1588 C 152.409 -1.88768 0.0345508 0
M  V30 1589 O 151.766 -1.56184 -0.944081 0
M  V30 1590 C 151.817 -2.76187 2.33244 0
M  V30 1591 O 151.538 -2.38436 3.67532 0
M  V30 1592 C 153.039 -3.7 2.44162 0
M  V30 1593 H 150.259 -0.460559 0.487982 0
M  V30 1594 H 152.803 -0.868261 1.85153 0
M  V30 1595 H 150.958 -3.34974 1.94606 0
M  V30 1596 H 151.372 -3.20126 4.15475 0
M  V30 1597 H 152.846 -4.55803 3.11364 0
M  V30 1598 H 153.323 -4.13867 1.47006 0
M  V30 1599 H 153.929 -3.17121 2.83398 0
M  V30 1600 N 152.244 -1.26651 -0.937939 0
M  V30 1601 C 153.174 -1.10993 -2.05433 0
M  V30 1602 C 154.155 -0.0142161 -1.70094 0
M  V30 1603 O 155.34 -0.186837 -1.93299 0
M  V30 1604 C 152.47 -0.745561 -3.39203 0
M  V30 1605 C 151.424 -1.79337 -3.88616 0
M  V30 1606 C 150.75 -1.28324 -5.19073 0
M  V30 1607 C 152.05 -3.19553 -4.13138 0
M  V30 1608 H 153.744 -2.0438 -2.1879 0
M  V30 1609 H 151.29 -0.984041 -1.05131 0
M  V30 1610 H 153.243 -0.622888 -4.16771 0
M  V30 1611 H 151.967 0.22401 -3.25831 0
M  V30 1612 H 150.626 -1.90477 -3.13231 0
M  V30 1613 H 150.274 -0.303414 -5.02084 0
M  V30 1614 H 149.974 -1.98369 -5.53103 0
M  V30 1615 H 151.498 -1.1733 -5.99221 0
M  V30 1616 H 152.912 -3.11471 -4.81309 0
M  V30 1617 H 151.309 -3.87218 -4.58457 0
M  V30 1618 H 152.379 -3.65368 -3.18801 0
M  V30 1619 N 153.722 1.14298 -1.08507 0
M  V30 1620 C 154.97 1.84993 -0.813763 0
M  V30 1621 C 155.291 1.83405 0.662393 0
M  V30 1622 O 154.561 1.28319 1.48024 0
M  V30 1623 H 153.141 0.684966 -0.298045 0
M  V30 1624 H 155.803 1.385 -1.37126 0
M  V30 1625 H 154.899 2.89788 -1.15884 0
M  V30 1626 N 155.201 0.870884 1.31352 0
M  V30 1627 C 156.426 0.495957 2.01383 0
M  V30 1628 C 156.851 -0.904324 1.64935 0
M  V30 1629 O 156.209 -1.59687 0.858466 0
M  V30 1630 C 156.257 0.661433 3.54482 0
M  V30 1631 O 155.361 -0.298851 4.11316 0
M  V30 1632 H 154.702 0.197158 0.634054 0
M  V30 1633 H 157.232 1.17455 1.67527 0
M  V30 1634 H 157.242 0.555072 4.04207 0
M  V30 1635 H 155.917 1.68246 3.8035 0
M  V30 1636 H 154.494 -0.147368 3.72609 0
M  V30 1637 N 156.679 -1.44442 0.630414 0
M  V30 1638 C 157.589 -2.34476 -0.0761693 0
M  V30 1639 C 158.605 -1.52576 -0.836449 0
M  V30 1640 O 159.781 -1.85307 -0.788874 0
M  V30 1641 C 156.846 -3.30545 -1.04599 0
M  V30 1642 C 155.907 -4.28352 -0.28516 0
M  V30 1643 C 155.14 -5.19831 -1.20878 0
M  V30 1644 O 155.363 -5.15223 -2.44747 0
M  V30 1645 O 154.297 -5.97892 -0.693491 0
M  V30 1646 H 158.123 -2.96345 0.664324 0
M  V30 1647 H 155.708 -1.44203 0.39061 0
M  V30 1648 H 157.59 -3.89681 -1.60396 0
M  V30 1649 H 156.265 -2.7121 -1.76711 0
M  V30 1650 H 155.172 -3.72764 0.315837 0
M  V30 1651 H 156.505 -4.90605 0.395924 0
M  V30 1652 N 158.157 -0.370918 -1.53173 0
M  V30 1653 C 159.403 0.217423 -2.01631 0
M  V30 1654 C 159.736 1.47983 -1.25756 0
M  V30 1655 O 159.011 1.91274 -0.352764 0
M  V30 1656 C 159.294 0.503982 -3.56556 0
M  V30 1657 C 159.147 -0.77243 -4.43118 0
M  V30 1658 C 160.466 1.30234 -4.20389 0
M  V30 1659 H 157.585 0.0775486 -0.732909 0
M  V30 1660 H 160.227 -0.496863 -1.83388 0
M  V30 1661 H 158.377 1.11248 -3.72231 0
M  V30 1662 H 160.049 -1.4098 -4.39229 0
M  V30 1663 H 158.292 -1.39167 -4.10871 0
M  V30 1664 H 158.963 -0.526815 -5.4948 0
M  V30 1665 H 161.439 0.787546 -4.08579 0
M  V30 1666 H 160.315 1.47158 -5.28806 0
M  V30 1667 H 160.576 2.31237 -3.76805 0
M  V30 1668 N 159.635 1.57281 -0.100228 0
M  V30 1669 C 160.882 1.94537 0.562268 0
M  V30 1670 C 161.21 0.982315 1.67871 0
M  V30 1671 O 160.465 0.00280936 1.957 0
M  V30 1672 C 160.764 3.38305 1.15259 0
M  V30 1673 C 160.43 4.50618 0.159409 0
M  V30 1674 C 159.092 4.81066 -0.113741 0
M  V30 1675 C 161.444 5.18615 -0.518461 0
M  V30 1676 C 158.772 5.76835 -1.07137 0
M  V30 1677 C 161.124 6.15412 -1.46459 0
M  V30 1678 C 159.788 6.44262 -1.74592 0
M  V30 1679 H 159.058 0.711863 0.205748 0
M  V30 1680 H 161.705 1.90679 -0.17715 0
M  V30 1681 H 160.01 3.38766 1.96836 0
M  V30 1682 H 161.707 3.64435 1.67297 0
M  V30 1683 H 158.297 4.2689 0.382491 0
M  V30 1684 H 162.481 4.95264 -0.320581 0
M  V30 1685 H 157.737 5.975 -1.29628 0
M  V30 1686 H 161.911 6.67194 -1.99564 0
M  V30 1687 H 159.538 7.1828 -2.48953 0
M  V30 1688 N 161.113 -0.173488 1.56642 0
M  V30 1689 C 162.39 -0.917617 1.7274 0
M  V30 1690 C 162.77 -2.00484 0.661027 0
M  V30 1691 O 162.118 -2.26184 -0.32453 0
M  V30 1692 C 162.328 -1.48433 3.15862 0
M  V30 1693 C 163.676 -1.95809 3.76754 0
M  V30 1694 O 164.7 -1.58231 3.19126 0
M  V30 1695 O 163.559 -2.65024 4.77938 0
M  V30 1696 H 160.653 -0.431772 0.705338 0
M  V30 1697 H 163.199 -0.161487 1.6893 0
M  V30 1698 H 161.971 -0.701715 3.84957 0
M  V30 1699 H 161.594 -2.30471 3.23989 0
M  V30 1700 N 162.591 -1.51276 -0.441967 0
M  V30 1701 C 163.837 -1.63958 -1.19355 0
M  V30 1702 C 164.17 -0.352543 -1.90973 0
M  V30 1703 O 163.445 0.647627 -1.83401 0
M  V30 1704 C 163.728 -2.83979 -2.21422 0
M  V30 1705 C 163.581 -4.22646 -1.53918 0
M  V30 1706 C 164.9 -2.99521 -3.22451 0
M  V30 1707 H 162.019 -0.596709 -0.432559 0
M  V30 1708 H 164.661 -1.83748 -0.483398 0
M  V30 1709 H 162.811 -2.67237 -2.81987 0
M  V30 1710 H 164.483 -4.51045 -0.967256 0
M  V30 1711 H 162.726 -4.25558 -0.841615 0
M  V30 1712 H 163.397 -5.02609 -2.28229 0
M  V30 1713 H 165.873 -3.14944 -2.71937 0
M  V30 1714 H 164.749 -3.85072 -3.91166 0
M  V30 1715 H 165.01 -2.11391 -3.88287 0
M  V30 1716 N 164.069 0.697108 -1.41344 0
M  V30 1717 C 165.297 1.48593 -1.43972 0
M  V30 1718 C 165.712 1.88747 -0.0445612 0
M  V30 1719 O 165.069 1.56682 0.935785 0
M  V30 1720 C 165.12 2.74946 -2.34706 0
M  V30 1721 O 164.841 2.36484 -3.68791 0
M  V30 1722 C 166.342 3.687 -2.46121 0
M  V30 1723 H 163.562 0.457964 -0.490418 0
M  V30 1724 H 166.106 0.858429 -1.8561 0
M  V30 1725 H 164.261 3.33937 -1.9638 0
M  V30 1726 H 164.675 3.17918 -4.17167 0
M  V30 1727 H 166.149 4.54145 -3.13777 0
M  V30 1728 H 166.626 4.13081 -1.49199 0
M  V30 1729 H 167.232 3.15613 -2.85076 0
M  V30 1730 N 165.547 1.27147 0.931209 0
M  V30 1731 C 166.457 1.11372 2.06478 0
M  V30 1732 C 167.473 0.044645 1.73943 0
M  V30 1733 O 168.649 0.250417 1.99837 0
M  V30 1734 C 165.714 0.758838 3.38294 0
M  V30 1735 C 164.775 1.90841 3.84549 0
M  V30 1736 C 164.008 1.57036 5.10074 0
M  V30 1737 O 164.231 0.476645 5.68405 0
M  V30 1738 O 163.165 2.40839 5.51616 0
M  V30 1739 H 166.991 2.06493 2.22698 0
M  V30 1740 H 164.576 1.06301 1.04978 0
M  V30 1741 H 166.458 0.574098 4.17471 0
M  V30 1742 H 165.133 -0.162879 3.2329 0
M  V30 1743 H 164.04 2.14819 3.06274 0
M  V30 1744 H 165.373 2.81021 4.04089 0
M  V30 1745 N 167.025 -1.13721 1.09112 0
M  V30 1746 C 168.272 -1.84924 0.825192 0
M  V30 1747 C 168.6 -1.83347 -0.649151 0
M  V30 1748 O 167.855 -1.26449 -1.49362 0
M  V30 1749 C 168.154 -3.32861 1.30146 0
M  V30 1750 C 167.82 -3.54621 2.78486 0
M  V30 1751 C 166.482 -3.60268 3.18999 0
M  V30 1752 C 168.834 -3.62855 3.74146 0
M  V30 1753 C 166.162 -3.71679 4.53951 0
M  V30 1754 C 168.514 -3.75793 5.08883 0
M  V30 1755 C 167.178 -3.79692 5.4899 0
M  V30 1756 H 166.448 -0.676684 0.301959 0
M  V30 1757 H 169.095 -1.3428 1.36533 0
M  V30 1758 H 167.4 -3.85835 0.681064 0
M  V30 1759 H 169.097 -3.86395 1.07236 0
M  V30 1760 H 165.687 -3.50879 2.46134 0
M  V30 1761 H 169.871 -3.57775 3.43963 0
M  V30 1762 H 165.127 -3.72963 4.84467 0
M  V30 1763 H 169.301 -3.81107 5.82864 0
M  V30 1764 H 166.928 -3.88287 6.53558 0
M  V30 1765 N 168.503 -0.877838 -1.30888 0
M  V30 1766 C 169.749 -0.493426 -1.96706 0
M  V30 1767 C 170.082 0.953504 -1.6918 0
M  V30 1768 O 169.357 1.67266 -0.992594 0
M  V30 1769 C 169.64 -0.760429 -3.51979 0
M  V30 1770 C 169.493 -2.25747 -3.89048 0
M  V30 1771 C 170.812 -0.232148 -4.39487 0
M  V30 1772 H 167.931 -0.180746 -0.714493 0
M  V30 1773 H 170.573 -1.10052 -1.54882 0
M  V30 1774 H 168.723 -0.243715 -3.87735 0
M  V30 1775 H 170.395 -2.84204 -3.63354 0
M  V30 1776 H 168.638 -2.72694 -3.37373 0
M  V30 1777 H 169.309 -2.39491 -4.97341 0
M  V30 1778 H 171.785 -0.674314 -4.106 0
M  V30 1779 H 170.661 -0.448355 -5.47066 0
M  V30 1780 H 170.922 0.866297 -4.33529 0
M  V30 1781 N 169.982 1.44106 -0.638065 0
M  V30 1782 C 171.259 1.95453 -0.0759321 0
M  V30 1783 C 171.639 1.57984 1.40015 0
M  V30 1784 O 170.987 0.857361 2.11806 0
M  V30 1785 C 171.197 3.47655 -0.306132 0
M  V30 1786 C 172.545 4.24114 -0.203008 0
M  V30 1787 O 173.569 3.55405 -0.237871 0
M  V30 1788 O 172.428 5.46381 -0.113827 0
M  V30 1789 H 169.522 0.826797 0.0183332 0
M  V30 1790 H 172.068 1.54122 -0.710251 0
M  V30 1791 H 170.84 3.68 -1.3301 0
M  V30 1792 H 170.463 3.95949 0.361991 0
M  V30 1793 N 171.46 0.379036 1.52974 0
M  V30 1794 C 172.39 -0.452706 2.29069 0
M  V30 1795 C 173.371 -1.07237 1.32039 0
M  V30 1796 O 174.556 -1.08708 1.60923 0
M  V30 1797 C 171.686 -1.5856 3.08992 0
M  V30 1798 C 170.64 -1.0925 4.13822 0
M  V30 1799 C 169.966 -2.31668 4.81907 0
M  V30 1800 C 171.266 -0.167702 5.22031 0
M  V30 1801 H 172.96 0.182181 2.98845 0
M  V30 1802 H 170.506 0.0890592 1.43724 0
M  V30 1803 H 172.459 -2.1742 3.6098 0
M  V30 1804 H 171.183 -2.24792 2.36931 0
M  V30 1805 H 169.842 -0.526494 3.628 0
M  V30 1806 H 169.49 -2.96386 4.06404 0
M  V30 1807 H 169.19 -1.9934 5.52754 0
M  V30 1808 H 170.714 -2.91189 5.36695 0
M  V30 1809 H 172.128 -0.664186 5.6944 0
M  V30 1810 H 170.525 0.0653265 6.00064 0
M  V30 1811 H 171.595 0.786347 4.78482 0
M  V30 1812 N 172.938 -1.57226 0.108567 0
M  V30 1813 C 173.888 -2.11305 -0.856396 0
M  V30 1814 C 174.872 -1.03129 -1.23504 0
M  V30 1815 O 176.064 -1.29381 -1.20787 0
M  V30 1816 C 173.193 -2.70771 -2.11041 0
M  V30 1817 C 172.279 -3.86011 -1.7566 0
M  V30 1818 N 172.67 -4.93492 -1.10902 0
M  V30 1819 C 170.968 -3.95999 -2.05185 0
M  V30 1820 C 171.669 -5.73984 -0.944308 0
M  V30 1821 N 170.645 -5.2346 -1.46596 0
M  V30 1822 H 174.447 -2.91784 -0.352002 0
M  V30 1823 H 171.961 -1.62126 -0.0942324 0
M  V30 1824 H 173.958 -3.07851 -2.81128 0
M  V30 1825 H 172.618 -1.91751 -2.62034 0
M  V30 1826 H 173.629 -5.1208 -0.774235 0
M  V30 1827 H 170.306 -3.28007 -2.58298 0
M  V30 1828 H 171.696 -6.70479 -0.436813 0
M  V30 1829 N 174.416 0.165178 -1.56732 0
M  V30 1830 C 175.827 0.727046 -1.71962 0
M  V30 1831 C 176.178 1.82508 -0.720078 0
M  V30 1832 O 175.303 2.16082 0.117242 0
M  V30 1833 C 175.898 1.32559 -3.11791 0
M  V30 1834 C 174.457 1.83422 -3.28684 0
M  V30 1835 C 173.604 0.715567 -2.67908 0
M  V30 1836 H 176.555 -0.0602896 -1.58585 0
M  V30 1837 H 176.576 2.19533 -3.10782 0
M  V30 1838 H 176.088 0.526195 -3.84516 0
M  V30 1839 H 174.189 2.65986 -2.60926 0
M  V30 1840 H 174.302 1.97543 -4.36478 0
M  V30 1841 H 172.666 1.13758 -2.27884 0
M  V30 1842 H 173.449 -0.0720836 -3.43224 0
M  V30 1843 N 175.894 1.51508 0.433938 0
M  V30 1844 C 177.142 1.6402 1.18075 0
M  V30 1845 C 177.463 0.360328 1.91642 0
M  V30 1846 O 176.733 -0.623945 1.85698 0
M  V30 1847 H 175.313 0.6045 0.43885 0
M  V30 1848 H 177.975 1.88452 0.497178 0
M  V30 1849 H 177.071 2.46949 1.90847 0
M  V30 1850 N 177.372 -0.689602 1.41712 0
M  V30 1851 C 178.62 -1.4468 1.4111 0
M  V30 1852 C 178.941 -1.94986 0.0232196 0
M  V30 1853 O 178.211 -1.72097 -0.935913 0
M  V30 1854 H 176.791 -0.536847 0.519427 0
M  V30 1855 H 179.453 -0.815825 1.77004 0
M  V30 1856 H 178.549 -2.30706 2.10193 0
M  V30 1857 N 178.85 -1.27639 -0.924453 0
M  V30 1858 C 180.261 -1.12834 -1.48746 0
M  V30 1859 C 180.612 0.285505 -1.94112 0
M  V30 1860 O 179.737 1.17874 -1.81479 0
M  V30 1861 C 180.332 -2.04217 -2.70334 0
M  V30 1862 C 178.891 -1.93509 -3.22848 0
M  V30 1863 C 178.038 -1.96583 -1.95577 0
M  V30 1864 H 180.989 -1.40484 -0.738233 0
M  V30 1865 H 181.01 -1.59989 -3.4523 0
M  V30 1866 H 180.522 -3.07111 -2.37285 0
M  V30 1867 H 178.623 -0.936131 -3.60649 0
M  V30 1868 H 178.736 -2.79917 -3.88823 0
M  V30 1869 H 177.1 -1.4085 -2.12211 0
M  V30 1870 H 177.883 -3.01137 -1.64837 0
M  V30 1871 N 180.328 1.1314 -1.09713 0
M  V30 1872 C 181.553 1.88862 -0.857081 0
M  V30 1873 C 181.978 1.78729 0.586304 0
M  V30 1874 O 181.336 1.13692 1.41222 0
M  V30 1875 C 181.384 3.36325 -1.30069 0
M  V30 1876 O 180.488 4.09815 -0.461007 0
M  V30 1877 H 179.829 0.587108 -0.310162 0
M  V30 1878 H 182.359 1.43129 -1.46203 0
M  V30 1879 H 182.369 3.87157 -1.28738 0
M  V30 1880 H 181.044 3.43017 -2.35185 0
M  V30 1881 H 179.621 3.68986 -0.538888 0
M  V30 1882 N 181.806 0.884767 1.30421 0
M  V30 1883 C 182.753 0.349642 2.28136 0
M  V30 1884 C 183.723 -0.560061 1.56373 0
M  V30 1885 O 184.908 -0.488524 1.8444 0
M  V30 1886 C 182.048 -0.42999 3.42411 0
M  V30 1887 C 181.161 0.508907 4.28992 0
M  V30 1888 C 180.296 -0.286301 5.30428 0
M  V30 1889 C 179.335 0.648079 6.08659 0
M  V30 1890 N 178.472 -0.111792 7.02011 0
M  V30 1891 H 183.312 1.18807 2.73293 0
M  V30 1892 H 180.849 0.597231 1.3443 0
M  V30 1893 H 182.807 -0.897923 4.07423 0
M  V30 1894 H 181.437 -1.23299 2.98324 0
M  V30 1895 H 180.489 1.09533 3.64289 0
M  V30 1896 H 181.801 1.22475 4.8353 0
M  V30 1897 H 180.955 -0.816098 6.01186 0
M  V30 1898 H 179.694 -1.03536 4.76583 0
M  V30 1899 H 178.699 1.18951 5.36778 0
M  V30 1900 H 179.924 1.39623 6.64592 0
M  V30 1901 H 177.87 -0.843395 6.50556 0
M  V30 1902 H 177.787 0.544429 7.54037 0
M  V30 1903 H 179.055 -0.622339 7.77012 0
M  V30 1904 N 183.284 -1.43765 0.645699 0
M  V30 1905 C 184.214 -2.33471 -0.0370477 0
M  V30 1906 C 185.195 -1.49042 -0.819779 0
M  V30 1907 O 186.38 -1.77726 -0.782758 0
M  V30 1908 C 183.51 -3.32311 -1.0093 0
M  V30 1909 C 182.464 -4.2667 -0.337201 0
M  V30 1910 C 181.79 -5.1549 -1.42037 0
M  V30 1911 C 183.09 -5.16657 0.765706 0
M  V30 1912 H 184.784 -2.90809 0.712069 0
M  V30 1913 H 182.33 -1.39834 0.343876 0
M  V30 1914 H 184.283 -3.9396 -1.49578 0
M  V30 1915 H 183.007 -2.73213 -1.78948 0
M  V30 1916 H 181.666 -3.66374 0.128771 0
M  V30 1917 H 181.314 -4.52735 -2.1918 0
M  V30 1918 H 181.014 -5.79438 -0.975966 0
M  V30 1919 H 182.538 -5.80012 -1.90838 0
M  V30 1920 H 183.952 -5.72158 0.361702 0
M  V30 1921 H 182.349 -5.89286 1.13413 0
M  V30 1922 H 183.419 -4.56796 1.62683 0
M  V30 1923 N 184.763 -0.387143 -1.52771 0
M  V30 1924 C 185.696 0.493123 -2.22808 0
M  V30 1925 C 186.674 1.0658 -1.22798 0
M  V30 1926 O 187.858 1.11785 -1.51777 0
M  V30 1927 C 184.985 1.68238 -2.93962 0
M  V30 1928 C 184.031 1.23515 -4.08223 0
M  V30 1929 S 184.864 0.21848 -5.35054 0
M  V30 1930 C 186.02 1.41357 -6.09729 0
M  V30 1931 H 186.253 -0.101625 -2.97126 0
M  V30 1932 H 183.786 -0.171323 -1.53447 0
M  V30 1933 H 185.744 2.36443 -3.35567 0
M  V30 1934 H 184.405 2.24842 -2.19328 0
M  V30 1935 H 183.598 2.12304 -4.57103 0
M  V30 1936 H 183.2 0.632044 -3.68621 0
M  V30 1937 H 185.492 2.34101 -6.3577 0
M  V30 1938 H 186.435 0.965736 -7.01484 0
M  V30 1939 H 186.843 1.6294 -5.40473 0
M  V30 1940 N 186.241 1.57166 -0.116904 0
M  V30 1941 C 187.171 2.18222 0.830759 0
M  V30 1942 C 188.152 1.12167 1.27877 0
M  V30 1943 O 189.337 1.40394 1.34176 0
M  V30 1944 C 186.467 2.77996 2.08172 0
M  V30 1945 C 185.421 3.89614 1.77157 0
M  V30 1946 C 184.747 4.36187 3.09265 0
M  V30 1947 C 186.047 5.1181 1.04151 0
M  V30 1948 H 187.741 2.97664 0.321992 0
M  V30 1949 H 185.287 1.4318 0.153434 0
M  V30 1950 H 187.24 3.19366 2.74924 0
M  V30 1951 H 185.964 1.9584 2.6137 0
M  V30 1952 H 184.623 3.48816 1.12796 0
M  V30 1953 H 184.271 3.50893 3.60393 0
M  V30 1954 H 183.971 5.11455 2.89288 0
M  V30 1955 H 185.495 4.80207 3.77139 0
M  V30 1956 H 186.909 5.50214 1.61052 0
M  V30 1957 H 185.306 5.92648 0.942762 0
M  V30 1958 H 186.376 4.84892 0.0279022 0
M  V30 1959 N 187.719 -0.156864 1.56817 0
M  V30 1960 C 188.682 -1.17781 1.96622 0
M  V30 1961 C 189.682 -1.36401 0.851555 0
M  V30 1962 O 190.872 -1.33561 1.11836 0
M  V30 1963 C 188.004 -2.54008 2.27361 0
M  V30 1964 H 189.197 -0.836564 2.87996 0
M  V30 1965 H 186.75 -0.39985 1.51099 0
M  V30 1966 H 187.485 -2.9312 1.38748 0
M  V30 1967 H 187.27 -2.41856 3.08623 0
M  V30 1968 H 188.76 -3.27558 2.59029 0
M  V30 1969 N 189.197 -1.51736 -0.425897 0
M  V30 1970 C 190.16 -1.73271 -1.50032 0
M  V30 1971 C 191.16 -0.602639 -1.4908 0
M  V30 1972 O 192.35 -0.87033 -1.509 0
M  V30 1973 C 189.482 -1.79969 -2.89523 0
M  V30 1974 H 190.675 -2.69172 -1.32237 0
M  V30 1975 H 188.228 -1.41899 -0.65532 0
M  V30 1976 H 188.963 -0.859241 -3.1271 0
M  V30 1977 H 188.748 -2.62109 -2.91619 0
M  V30 1978 H 190.238 -1.9843 -3.67444 0
M  V30 1979 N 190.675 0.682077 -1.42076 0
M  V30 1980 C 191.923 1.4393 -1.41876 0
M  V30 1981 C 192.244 1.94971 -0.0335599 0
M  V30 1982 O 191.514 1.72591 0.926773 0
M  V30 1983 H 190.094 0.534085 -0.522267 0
M  V30 1984 H 192.756 0.806427 -1.77434 0
M  V30 1985 H 191.852 2.29588 -2.11414 0
M  V30 1986 N 192.153 1.28127 0.917671 0
M  V30 1987 C 193.401 1.14825 1.66312 0
M  V30 1988 C 193.722 -0.304379 1.9261 0
M  V30 1989 O 192.992 -1.21149 1.53947 0
M  V30 1990 H 191.572 0.421953 0.616413 0
M  V30 1991 H 194.234 1.608 1.10134 0
M  V30 1992 H 193.33 1.68489 2.62712 0
M  V30 1993 N 193.631 -1.12557 1.10312 0
M  V30 1994 C 195.042 -1.65574 0.862678 0
M  V30 1995 C 195.393 -1.86566 -0.607256 0
M  V30 1996 O 194.518 -1.59121 -1.46662 0
M  V30 1997 C 195.113 -3.00776 1.55947 0
M  V30 1998 C 193.672 -3.50748 1.36576 0
M  V30 1999 C 192.819 -2.25797 1.60968 0
M  V30 2000 H 195.77 -0.963552 1.26101 0
M  V30 2001 H 195.791 -3.67185 0.997753 0
M  V30 2002 H 195.303 -2.85465 2.62928 0
M  V30 2003 H 193.404 -3.71245 0.317531 0
M  V30 2004 H 193.517 -4.30289 2.10686 0
M  V30 2005 H 191.881 -2.32841 1.03234 0
M  V30 2006 H 192.664 -2.13043 2.69198 0
M  V30 2007 N 195.109 -0.891671 -1.2995 0
M  V30 2008 C 196.039 -0.379797 -2.30391 0
M  V30 2009 C 197.02 0.540919 -1.6127 0
M  V30 2010 O 198.205 0.453352 -1.88834 0
M  V30 2011 C 195.335 0.400654 -3.44981 0
M  V30 2012 C 194.289 -0.428905 -4.25846 0
M  V30 2013 C 193.615 0.478557 -5.32554 0
M  V30 2014 C 194.915 -1.67458 -4.94727 0
M  V30 2015 H 196.609 -1.21914 -2.73454 0
M  V30 2016 H 194.155 -0.587675 -1.31462 0
M  V30 2017 H 196.108 0.769434 -4.14316 0
M  V30 2018 H 194.832 1.27371 -3.0074 0
M  V30 2019 H 193.491 -0.779911 -3.58208 0
M  V30 2020 H 193.139 1.34951 -4.84559 0
M  V30 2021 H 192.839 -0.0727433 -5.87555 0
M  V30 2022 H 194.363 0.843705 -6.04743 0
M  V30 2023 H 195.777 -1.376 -5.56542 0
M  V30 2024 H 194.174 -2.16659 -5.59624 0
M  V30 2025 H 195.244 -2.41518 -4.20473 0
M  V30 2026 N 196.587 1.43421 -0.653314 0
M  V30 2027 C 197.497 2.34568 0.0388565 0
M  V30 2028 C 198.513 1.53888 0.81207 0
M  V30 2029 O 199.689 1.86539 0.759294 0
M  V30 2030 C 196.754 3.32167 0.993269 0
M  V30 2031 C 195.815 4.28751 0.216977 0
M  V30 2032 C 195.048 5.21688 1.12593 0
M  V30 2033 O 195.271 5.19052 2.36519 0
M  V30 2034 O 194.205 5.98919 0.598284 0
M  V30 2035 H 198.031 2.95251 -0.711386 0
M  V30 2036 H 195.616 1.43564 -0.413502 0
M  V30 2037 H 197.498 3.92183 1.54176 0
M  V30 2038 H 196.173 2.73987 1.72374 0
M  V30 2039 H 195.08 3.72215 -0.375101 0
M  V30 2040 H 196.413 4.89913 -0.473924 0
M  V30 2041 N 198.065 0.39524 1.52563 0
M  V30 2042 C 199.476 -0.0774719 1.86539 0
M  V30 2043 C 199.827 -1.45641 1.31466 0
M  V30 2044 O 198.952 -2.06459 0.648367 0
M  V30 2045 C 199.547 -0.147356 3.38479 0
M  V30 2046 C 198.106 -0.564373 3.72145 0
M  V30 2047 C 197.253 0.269919 2.75983 0
M  V30 2048 H 200.204 0.612876 1.46388 0
M  V30 2049 H 200.225 -0.965343 3.68051 0
M  V30 2050 H 199.737 0.856387 3.78534 0
M  V30 2051 H 197.838 -1.57527 3.37663 0
M  V30 2052 H 197.951 -0.318402 4.78041 0
M  V30 2053 H 196.315 -0.265696 2.5331 0
M  V30 2054 H 197.098 1.27175 3.18875 0
M  V30 2055 N 199.544 -1.57102 0.125237 0
M  V30 2056 C 200.791 -1.95407 -0.531248 0
M  V30 2057 C 201.119 -1.0089 -1.66287 0
M  V30 2058 O 200.374 -0.0339431 -1.95671 0
M  V30 2059 C 200.673 -3.40096 -1.09862 0
M  V30 2060 C 200.339 -4.50815 -0.0876989 0
M  V30 2061 C 199.001 -4.80824 0.19026 0
M  V30 2062 C 201.353 -5.17724 0.600902 0
M  V30 2063 C 198.681 -5.75058 1.163 0
M  V30 2064 C 201.033 -6.13005 1.56231 0
M  V30 2065 C 199.697 -6.41403 1.8482 0
M  V30 2066 H 198.967 -0.715046 -0.194397 0
M  V30 2067 H 201.614 -1.90373 0.207463 0
M  V30 2068 H 199.919 -3.41855 -1.91422 0
M  V30 2069 H 201.616 -3.6705 -1.61478 0
M  V30 2070 H 198.206 -4.27444 -0.314528 0
M  V30 2071 H 202.39 -4.94691 0.399333 0
M  V30 2072 H 197.646 -5.95362 1.39117 0
M  V30 2073 H 201.82 -6.63934 2.10153 0
M  V30 2074 H 199.447 -7.14229 2.60349 0
M  V30 2075 N 201.022 0.148545 -1.56898 0
M  V30 2076 C 202.268 0.857877 -1.84424 0
M  V30 2077 C 202.623 1.7886 -0.709006 0
M  V30 2078 O 201.916 1.89344 0.293139 0
M  V30 2079 C 202.11 1.67064 -3.1595 0
M  V30 2080 C 201.939 0.82011 -4.42159 0
M  V30 2081 C 200.709 0.486328 -5.02954 0
M  V30 2082 C 202.907 0.151155 -5.14078 0
M  V30 2083 N 200.889 -0.377956 -6.12735 0
M  V30 2084 C 202.26 -0.573333 -6.17343 0
M  V30 2085 C 204.315 0.0716685 -4.97848 0
M  V30 2086 C 203.018 -1.3698 -7.06137 0
M  V30 2087 C 205.044 -0.711532 -5.87104 0
M  V30 2088 C 204.406 -1.42431 -6.8985 0
M  V30 2089 H 200.505 0.291798 -0.725519 0
M  V30 2090 H 203.089 0.123347 -1.94309 0
M  V30 2091 H 201.26 2.37642 -3.07215 0
M  V30 2092 H 202.992 2.32302 -3.31388 0
M  V30 2093 H 199.747 0.821753 -4.66416 0
M  V30 2094 H 200.171 -0.801077 -6.72244 0
M  V30 2095 H 204.813 0.608381 -4.184 0
M  V30 2096 H 202.531 -1.91778 -7.85014 0
M  V30 2097 H 206.117 -0.775005 -5.76615 0
M  V30 2098 H 204.997 -2.02061 -7.57721 0
M  V30 2099 N 202.5 1.5196 0.417844 0
M  V30 2100 C 203.463 1.74065 1.49111 0
M  V30 2101 C 204.463 0.610537 1.48758 0
M  V30 2102 O 205.653 0.87832 1.50437 0
M  V30 2103 C 202.785 1.81502 2.88565 0
M  V30 2104 H 203.978 2.69869 1.30807 0
M  V30 2105 H 201.531 1.42244 0.647785 0
M  V30 2106 H 202.266 0.875813 3.1225 0
M  V30 2107 H 202.051 2.63651 2.90225 0
M  V30 2108 H 203.541 2.00376 3.66387 0
M  V30 2109 N 203.978 -0.674533 1.42435 0
M  V30 2110 C 204.908 -1.80009 1.48724 0
M  V30 2111 C 205.889 -1.6659 0.343793 0
M  V30 2112 O 207.074 -1.86007 0.558137 0
M  V30 2113 C 204.204 -3.18306 1.38919 0
M  V30 2114 C 203.158 -3.46461 2.51294 0
M  V30 2115 C 202.484 -4.84335 2.26547 0
M  V30 2116 C 203.784 -3.43328 3.93603 0
M  V30 2117 H 205.478 -1.75004 2.42928 0
M  V30 2118 H 203.024 -0.840533 1.16923 0
M  V30 2119 H 204.977 -3.9678 1.41927 0
M  V30 2120 H 203.701 -3.2399 0.412094 0
M  V30 2121 H 202.36 -2.70348 2.47604 0
M  V30 2122 H 202.008 -4.86669 1.2713 0
M  V30 2123 H 201.708 -5.04136 3.01861 0
M  V30 2124 H 203.232 -5.65094 2.31304 0
M  V30 2125 H 204.646 -4.11772 3.98894 0
M  V30 2126 H 203.043 -3.74664 4.68771 0
M  V30 2127 H 204.113 -2.41897 4.20255 0
M  V30 2128 N 205.456 -1.28612 -0.910864 0
M  V30 2129 C 206.686 -1.1862 -1.69153 0
M  V30 2130 C 207.094 0.257324 -1.87442 0
M  V30 2131 O 206.437 1.18543 -1.40332 0
M  V30 2132 C 206.499 -1.81606 -3.10257 0
M  V30 2133 C 206.163 -3.30864 -3.15243 0
M  V30 2134 C 207.16 -4.27256 -2.96223 0
M  V30 2135 C 204.845 -3.71871 -3.37664 0
M  V30 2136 C 206.839 -5.62631 -2.99541 0
M  V30 2137 C 204.526 -5.07371 -3.40614 0
M  V30 2138 C 205.524 -6.02561 -3.21573 0
M  V30 2139 O 205.212 -7.35589 -3.2429 0
M  V30 2140 H 204.944 -0.412633 -0.535453 0
M  V30 2141 H 207.498 -1.70306 -1.14827 0
M  V30 2142 H 205.728 -1.24418 -3.66138 0
M  V30 2143 H 207.417 -1.66092 -3.70362 0
M  V30 2144 H 208.183 -3.9691 -2.78725 0
M  V30 2145 H 204.062 -2.98241 -3.5153 0
M  V30 2146 H 207.606 -6.36907 -2.84597 0
M  V30 2147 H 203.503 -5.37366 -3.57642 0
M  V30 2148 H 204.271 -7.44252 -3.40633 0
M  V30 2149 N 206.934 1.1197 -1.10907 0
M  V30 2150 C 207.897 2.16031 -0.765707 0
M  V30 2151 C 208.897 1.59393 0.212235 0
M  V30 2152 O 210.087 1.74196 -0.0115441 0
M  V30 2153 C 207.219 3.40632 -0.135053 0
M  V30 2154 H 208.412 2.47919 -1.68748 0
M  V30 2155 H 205.965 1.27061 -0.910226 0
M  V30 2156 H 206.7 3.14348 0.797218 0
M  V30 2157 H 206.485 3.8302 -0.838937 0
M  V30 2158 H 207.975 4.17505 0.0892469 0
M  V30 2159 N 208.412 0.89855 1.29475 0
M  V30 2160 C 209.658 0.524658 1.95896 0
M  V30 2161 C 209.991 -0.926468 1.70676 0
M  V30 2162 O 209.266 -1.65665 1.01908 0
M  V30 2163 C 209.549 0.81633 3.50725 0
M  V30 2164 C 209.402 2.31907 3.85408 0
M  V30 2165 C 210.721 0.302038 4.39062 0
M  V30 2166 H 207.84 0.19209 0.711527 0
M  V30 2167 H 210.482 1.12502 1.53112 0
M  V30 2168 H 208.632 0.305369 3.87298 0
M  V30 2169 H 210.304 2.89949 3.58786 0
M  V30 2170 H 208.547 2.78027 3.32992 0
M  V30 2171 H 209.218 2.47373 4.93468 0
M  V30 2172 H 211.694 0.739551 4.09475 0
M  V30 2173 H 210.57 0.535331 5.46283 0
M  V30 2174 H 210.831 -0.797216 4.34853 0
M  V30 2175 N 209.89 -1.43072 0.660911 0
M  V30 2176 C 210.84 -2.27948 -0.04847 0
M  V30 2177 C 211.824 -1.40325 -0.787246 0
M  V30 2178 O 213.016 -1.63893 -0.668446 0
M  V30 2179 C 210.145 -3.28143 -1.00881 0
M  V30 2180 C 209.231 -4.23252 -0.268108 0
M  V30 2181 N 209.622 -5.00656 0.719528 0
M  V30 2182 C 207.92 -4.43092 -0.508493 0
M  V30 2183 C 208.621 -5.70019 1.15988 0
M  V30 2184 N 207.597 -5.41364 0.492584 0
M  V30 2185 H 211.399 -2.85213 0.709279 0
M  V30 2186 H 208.913 -1.54869 0.488822 0
M  V30 2187 H 210.91 -3.87736 -1.53188 0
M  V30 2188 H 209.57 -2.7244 -1.76654 0
M  V30 2189 H 210.581 -5.06115 1.09855 0
M  V30 2190 H 207.258 -3.98449 -1.24679 0
M  V30 2191 H 208.648 -6.4214 1.97751 0
M  V30 2192 N 211.368 -0.403325 -1.52352 0
M  V30 2193 C 212.316 0.439752 -2.28405 0
M  V30 2194 C 213.31 1.05089 -1.32863 0
M  V30 2195 O 214.516 0.989759 -1.50345 0
M  V30 2196 H 210.891 0.160587 -0.734653 0
M  V30 2197 H 212.862 -0.222983 -2.97566 0
M  V30 2198 C 211.611 1.54736 -3.11371 0
M  V30 2199 H 210.934 1.08643 -3.84755 0
M  V30 2200 H 212.374 2.1112 -3.67701 0
M  V30 2201 C 210.833 2.51141 -2.24566 0
M  V30 2202 O 211.363 3.54887 -1.88196 0
M  V30 2203 N 209.569 2.21213 -1.8845 0
M  V30 2204 H 209.116 1.36878 -2.18225 0
M  V30 2205 H 209.074 2.85963 -1.30662 0
M  V30 2206 N 212.846 1.57033 -0.133567 0
M  V30 2207 C 213.778 2.13176 0.841944 0
M  V30 2208 C 214.791 1.07794 1.22001 0
M  V30 2209 O 215.98 1.35117 1.16643 0
M  V30 2210 C 213.08 2.62847 2.13926 0
M  V30 2211 C 212.253 3.92486 1.93064 0
M  V30 2212 C 211.312 4.27605 3.0666 0
M  V30 2213 O 210.338 4.96168 2.78937 0
M  V30 2214 N 211.54 3.861 4.33483 0
M  V30 2215 H 214.305 2.97503 0.362192 0
M  V30 2216 H 211.866 1.61821 0.05042 0
M  V30 2217 H 213.858 2.83363 2.88942 0
M  V30 2218 H 212.428 1.83319 2.53205 0
M  V30 2219 H 211.648 3.80732 1.02159 0
M  V30 2220 H 212.936 4.77225 1.76447 0
M  V30 2221 H 212.334 3.30828 4.58878 0
M  V30 2222 H 210.891 4.11694 5.05323 0
M  V30 2223 N 214.325 -0.140222 1.56975 0
M  V30 2224 C 215.55 -0.870414 1.88251 0
M  V30 2225 C 215.975 -1.73637 0.723312 0
M  V30 2226 O 215.333 -1.78329 -0.32689 0
M  V30 2227 C 215.381 -1.69737 3.18154 0
M  V30 2228 O 214.485 -2.80229 3.02565 0
M  V30 2229 H 213.826 -0.242025 0.61832 0
M  V30 2230 H 216.356 -0.128999 2.04193 0
M  V30 2231 H 216.366 -2.09099 3.50345 0
M  V30 2232 H 215.041 -1.06152 4.02125 0
M  V30 2233 H 213.618 -2.44224 2.81796 0
M  V30 2234 N 215.803 -1.52179 -0.40978 0
M  V30 2235 C 216.753 -1.71857 -1.49831 0
M  V30 2236 C 217.737 -0.572469 -1.50372 0
M  V30 2237 O 218.929 -0.829509 -1.56359 0
M  V30 2238 C 216.058 -1.87206 -2.87765 0
M  V30 2239 C 215.144 -3.07685 -2.91875 0
M  V30 2240 N 215.535 -4.30403 -2.65683 0
M  V30 2241 C 213.833 -3.07505 -3.23043 0
M  V30 2242 C 214.534 -5.11868 -2.76344 0
M  V30 2243 N 213.51 -4.47101 -3.09195 0
M  V30 2244 H 217.312 -2.64381 -1.28375 0
M  V30 2245 H 214.826 -1.50203 -0.617479 0
M  V30 2246 H 216.823 -1.99419 -3.66111 0
M  V30 2247 H 215.483 -0.958814 -3.10221 0
M  V30 2248 H 216.494 -4.58887 -2.4009 0
M  V30 2249 H 213.171 -2.25915 -3.51096 0
M  V30 2250 H 214.561 -6.19634 -2.59814 0
M  V30 2251 N 217.281 0.66697 -1.42791 0
M  V30 2252 C 218.527 1.4291 -1.43891 0
M  V30 2253 C 218.86 1.94114 -0.0578972 0
M  V30 2254 O 218.135 1.71414 0.91911 0
M  V30 2255 C 218.418 2.62049 -2.46987 0
M  V30 2256 C 218.271 2.16426 -3.94309 0
M  V30 2257 C 219.59 3.64266 -2.46978 0
M  V30 2258 H 216.709 0.518306 -0.523954 0
M  V30 2259 H 219.351 0.757321 -1.74255 0
M  V30 2260 H 217.501 3.19361 -2.21225 0
M  V30 2261 H 219.173 1.64221 -4.31079 0
M  V30 2262 H 217.416 1.47925 -4.078 0
M  V30 2263 H 218.087 3.02038 -4.62036 0
M  V30 2264 H 220.563 3.16686 -2.69906 0
M  V30 2265 H 219.439 4.45196 -3.21079 0
M  V30 2266 H 219.7 4.15927 -1.49857 0
M  V30 2267 N 218.759 1.29093 0.90403 0
M  V30 2268 C 220.175 1.07011 1.1841 0
M  V30 2269 C 220.375 -0.181358 2.00682 0
M  V30 2270 O 219.431 -0.880331 2.36657 0
M  V30 2271 C 220.744 2.32311 1.90924 0
M  V30 2272 C 222.292 2.37587 2.03768 0
M  V30 2273 C 222.767 3.62679 2.79693 0
M  V30 2274 N 224.258 3.63376 2.87249 0
M  V30 2275 C 224.993 4.56848 3.46522 0
M  V30 2276 N 224.489 5.60648 4.06996 0
M  V30 2277 N 226.282 4.44426 3.44154 0
M  V30 2278 H 218.433 2.09412 0.354993 0
M  V30 2279 H 220.696 0.922181 0.219742 0
M  V30 2280 H 220.402 3.23536 1.37905 0
M  V30 2281 H 220.276 2.39483 2.91424 0
M  V30 2282 H 222.663 1.46853 2.55965 0
M  V30 2283 H 222.744 2.34403 1.02415 0
M  V30 2284 H 222.388 4.53762 2.28173 0
M  V30 2285 H 222.318 3.63119 3.81381 0
M  V30 2286 H 224.809 2.88321 2.44293 0
M  V30 2287 H 225.122 6.28101 4.50232 0
M  V30 2288 H 223.467 5.64463 4.05471 0
M  V30 2289 H 226.658 3.62529 2.96126 0
M  V30 2290 H 226.831 5.17457 3.90054 0
M  V30 2291 N 220.237 -1.11381 1.11499 0
M  V30 2292 C 221.147 -2.21019 0.786628 0
M  V30 2293 C 222.163 -1.72597 -0.220507 0
M  V30 2294 O 223.339 -2.01321 -0.0565251 0
M  V30 2295 C 220.404 -3.459 0.235333 0
M  V30 2296 C 219.465 -4.09107 1.30115 0
M  V30 2297 C 218.698 -5.28027 0.776068 0
M  V30 2298 O 218.921 -5.6904 -0.393661 0
M  V30 2299 O 217.855 -5.81835 1.54114 0
M  V30 2300 H 221.681 -2.51521 1.70209 0
M  V30 2301 H 219.266 -1.19928 0.890928 0
M  V30 2302 H 221.148 -4.21346 -0.067715 0
M  V30 2303 H 219.823 -3.17049 -0.652828 0
M  V30 2304 H 218.73 -3.35391 1.65722 0
M  V30 2305 H 220.063 -4.42139 2.16273 0
M  V30 2306 N 221.715 -0.905404 -1.28997 0
M  V30 2307 C 222.645 -0.404212 -2.29975 0
M  V30 2308 C 223.626 0.523784 -1.61835 0
M  V30 2309 O 224.811 0.433298 -1.89304 0
M  V30 2310 C 221.941 0.364042 -3.45387 0
M  V30 2311 C 220.895 -0.474048 -4.25367 0
M  V30 2312 C 220.221 0.422045 -5.33032 0
M  V30 2313 C 221.521 -1.72696 -4.92923 0
M  V30 2314 H 223.215 -1.24807 -2.72146 0
M  V30 2315 H 220.761 -0.601585 -1.30832 0
M  V30 2316 H 222.714 0.725447 -4.15109 0
M  V30 2317 H 221.438 1.24174 -3.02074 0
M  V30 2318 H 220.097 -0.81786 -3.57361 0
M  V30 2319 H 219.745 1.29804 -4.85963 0
M  V30 2320 H 219.445 -0.135057 -5.87445 0
M  V30 2321 H 220.969 0.779517 -6.05604 0
M  V30 2322 H 222.383 -1.43495 -5.55051 0
M  V30 2323 H 220.78 -2.22582 -5.57295 0
M  V30 2324 H 221.85 -2.45964 -4.17887 0
M  V30 2325 N 223.193 1.4272 -0.668489 0
M  V30 2326 C 224.123 2.335 -0.000100175 0
M  V30 2327 C 225.104 1.50328 0.795964 0
M  V30 2328 O 226.289 1.78949 0.754385 0
M  V30 2329 C 223.419 3.33874 0.956302 0
M  V30 2330 C 222.373 4.27152 0.269278 0
M  V30 2331 C 221.699 5.17684 1.33818 0
M  V30 2332 C 222.999 5.15373 -0.847805 0
M  V30 2333 H 224.693 2.89639 -0.758244 0
M  V30 2334 H 222.239 1.39269 -0.366079 0
M  V30 2335 H 224.192 3.9629 1.43292 0
M  V30 2336 H 222.916 2.76025 1.74579 0
M  V30 2337 H 221.575 3.66123 -0.187042 0
M  V30 2338 H 221.223 4.56165 2.1195 0
M  V30 2339 H 220.923 5.80918 0.883659 0
M  V30 2340 H 222.447 5.82974 1.81586 0
M  V30 2341 H 223.861 5.7151 -0.452681 0
M  V30 2342 H 222.258 5.87407 -1.22773 0
M  V30 2343 H 223.328 4.5415 -1.69929 0
M  V30 2344 N 224.671 0.411399 1.52136 0
M  V30 2345 C 225.634 -0.401089 2.25663 0
M  V30 2346 C 226.634 -0.971732 1.28117 0
M  V30 2347 O 227.824 -0.850254 1.52041 0
M  V30 2348 C 224.956 -1.56483 3.02863 0
M  V30 2349 H 226.149 0.24295 2.98914 0
M  V30 2350 H 223.702 0.163968 1.55438 0
M  V30 2351 H 224.437 -2.24567 2.33967 0
M  V30 2352 H 224.222 -1.16211 3.74483 0
M  V30 2353 H 225.712 -2.13951 3.58629 0
M  V30 2354 N 226.149 -1.5696 0.141893 0
M  V30 2355 C 227.081 -2.13619 -0.830627 0
M  V30 2356 C 228.094 -1.08439 -1.21428 0
M  V30 2357 O 229.283 -1.35734 -1.15925 0
M  V30 2358 C 226.383 -2.63978 -2.12529 0
M  V30 2359 C 225.556 -3.93504 -1.9098 0
M  V30 2360 C 224.615 -4.29225 -3.04388 0
M  V30 2361 O 223.641 -4.97641 -2.76302 0
M  V30 2362 N 224.843 -3.88393 -4.31429 0
M  V30 2363 H 227.608 -2.97691 -0.34641 0
M  V30 2364 H 225.169 -1.61846 -0.0418375 0
M  V30 2365 H 227.161 -2.84891 -2.87436 0
M  V30 2366 H 225.731 -1.84659 -2.52229 0
M  V30 2367 H 224.951 -3.81269 -1.00139 0
M  V30 2368 H 226.239 -4.78154 -1.73914 0
M  V30 2369 H 225.637 -3.33257 -4.57117 0
M  V30 2370 H 224.194 -4.14368 -5.03133 0
M  V30 2371 N 227.627 0.131896 -1.57047 0
M  V30 2372 C 228.857 0.855219 -1.88068 0
M  V30 2373 C 229.265 1.74557 -0.729817 0
M  V30 2374 O 228.608 1.81083 0.308962 0
M  V30 2375 C 228.67 1.75119 -3.13964 0
M  V30 2376 C 228.334 1.03646 -4.45091 0
M  V30 2377 C 229.331 0.383276 -5.18485 0
M  V30 2378 C 227.016 1.02148 -4.91804 0
M  V30 2379 C 229.01 -0.275347 -6.36805 0
M  V30 2380 C 226.697 0.359047 -6.10044 0
M  V30 2381 C 227.695 -0.288222 -6.82392 0
M  V30 2382 O 227.383 -0.94011 -7.98384 0
M  V30 2383 H 227.115 0.251864 -0.627328 0
M  V30 2384 H 229.669 0.124782 -2.05021 0
M  V30 2385 H 227.899 2.52295 -2.9306 0
M  V30 2386 H 229.588 2.3478 -3.31109 0
M  V30 2387 H 230.354 0.386562 -4.83457 0
M  V30 2388 H 226.233 1.5147 -4.35405 0
M  V30 2389 H 229.777 -0.781148 -6.93213 0
M  V30 2390 H 225.674 0.35348 -6.44531 0
M  V30 2391 H 226.442 -0.84329 -8.14144 0
M  V30 2392 N 229.106 1.52395 0.401703 0
M  V30 2393 C 230.053 1.76268 1.48991 0
M  V30 2394 C 231.023 0.605386 1.54675 0
M  V30 2395 O 232.208 0.843742 1.7113 0
M  V30 2396 C 229.348 1.92592 2.86361 0
M  V30 2397 C 228.461 3.20259 2.89928 0
M  V30 2398 C 227.596 3.26972 4.18644 0
M  V30 2399 C 226.635 4.48812 4.16214 0
M  V30 2400 N 225.772 4.52877 5.36514 0
M  V30 2401 H 230.612 2.6914 1.27935 0
M  V30 2402 H 228.149 1.33355 0.620871 0
M  V30 2403 H 230.107 2.0004 3.66115 0
M  V30 2404 H 228.737 1.03093 3.05895 0
M  V30 2405 H 227.789 3.21945 2.02621 0
M  V30 2406 H 229.101 4.10056 2.83999 0
M  V30 2407 H 228.255 3.33533 5.06794 0
M  V30 2408 H 226.994 2.35126 4.27278 0
M  V30 2409 H 225.999 4.4239 3.26453 0
M  V30 2410 H 227.224 5.41961 4.09213 0
M  V30 2411 H 225.17 3.63917 5.45802 0
M  V30 2412 H 225.087 5.36529 5.32609 0
M  V30 2413 H 226.355 4.63676 6.26597 0
M  V30 2414 N 230.584 -0.659388 1.43143 0
M  V30 2415 C 231.833 -1.41518 1.43721 0
M  V30 2416 C 232.146 -1.95499 0.0628176 0
M  V30 2417 O 233.352 -2.71446 -0.0539683 0
M  V30 2418 C 231.808 -2.5608 2.52885 0
M  V30 2419 C 231.416 -2.08733 3.96402 0
M  V30 2420 C 233.16 -3.3349 2.62649 0
M  V30 2421 C 231.067 -3.20469 4.97045 0
M  V30 2422 H 229.997 -0.531705 0.534608 0
M  V30 2423 H 232.648 -0.712343 1.69109 0
M  V30 2424 H 231.03 -3.28805 2.20688 0
M  V30 2425 H 232.204 -1.43059 4.3803 0
M  V30 2426 H 230.519 -1.44219 3.90627 0
M  V30 2427 H 233.116 -4.16734 3.35017 0
M  V30 2428 H 233.459 -3.8111 1.67513 0
M  V30 2429 H 233.992 -2.67842 2.94118 0
M  V30 2430 H 230.731 -2.77824 5.93712 0
M  V30 2431 H 230.251 -3.84874 4.60034 0
M  V30 2432 H 231.93 -3.85698 5.19467 0
M  V30 2433 N 232.062 -1.29571 -0.897171 0
M  V30 2434 C 233.31 -1.17456 -1.64464 0
M  V30 2435 C 233.631 0.273698 -1.9307 0
M  V30 2436 O 232.901 1.18684 -1.55855 0
M  V30 2437 H 231.481 -0.431706 -0.609622 0
M  V30 2438 H 234.143 -1.62531 -1.07562 0
M  V30 2439 H 233.239 -1.72648 -2.59998 0
M  V30 2440 N 233.54 1.10788 -1.12088 0
M  V30 2441 C 234.45 2.20599 -0.798338 0
M  V30 2442 C 235.466 1.72712 0.21135 0
M  V30 2443 O 236.642 2.01348 0.0458477 0
M  V30 2444 C 233.707 3.45771 -0.253674 0
M  V30 2445 C 232.768 4.08411 -1.32283 0
M  V30 2446 C 232.001 5.27608 -0.80406 0
M  V30 2447 O 232.224 5.69241 0.363478 0
M  V30 2448 O 231.158 5.8101 -1.57198 0
M  V30 2449 H 234.984 2.50614 -1.7154 0
M  V30 2450 H 232.569 1.19454 -0.897275 0
M  V30 2451 H 234.451 4.21376 0.0453691 0
M  V30 2452 H 233.126 3.1739 0.636005 0
M  V30 2453 H 232.033 3.34507 -1.67499 0
M  V30 2454 H 233.366 4.40986 -2.18614 0
M  V30 2455 N 235.018 0.912232 1.28515 0
M  V30 2456 C 235.948 0.416403 2.29757 0
M  V30 2457 C 236.929 -0.515194 1.6211 0
M  V30 2458 O 238.114 -0.423253 1.89532 0
M  V30 2459 C 235.244 -0.34572 3.45575 0
M  V30 2460 C 234.198 0.496599 4.25109 0
M  V30 2461 C 233.524 -0.393771 5.33248 0
M  V30 2462 C 234.824 1.75307 4.92001 0
M  V30 2463 H 236.518 1.26249 2.7148 0
M  V30 2464 H 234.064 0.608515 1.30511 0
M  V30 2465 H 236.017 -0.703422 4.15488 0
M  V30 2466 H 234.741 -1.2257 3.02728 0
M  V30 2467 H 233.4 0.8368 3.56922 0
M  V30 2468 H 233.048 -1.27225 4.86644 0
M  V30 2469 H 232.748 0.166209 5.87365 0
M  V30 2470 H 234.272 -0.747389 6.06009 0
M  V30 2471 H 235.686 1.46437 5.54283 0
M  V30 2472 H 234.083 2.25534 5.56106 0
M  V30 2473 H 235.153 2.48176 4.16577 0
M  V30 2474 N 236.496 -1.42363 0.676048 0
M  V30 2475 C 237.444 -2.32596 -0.0131507 0
M  V30 2476 C 238.438 -1.49891 -0.789238 0
M  V30 2477 O 239.644 -1.65955 -0.697061 0
M  V30 2478 H 236.019 -0.751647 -0.0230481 0
M  V30 2479 H 237.99 -2.88421 0.765243 0
M  V30 2480 C 236.739 -3.34479 -0.949702 0
M  V30 2481 H 236.062 -3.98158 -0.361938 0
M  V30 2482 H 237.502 -4.00199 -1.4006 0
M  V30 2483 C 235.961 -2.66838 -2.05667 0
M  V30 2484 O 236.491 -2.50124 -3.14326 0
M  V30 2485 N 234.697 -2.25843 -1.82875 0
M  V30 2486 H 234.244 -2.39637 -0.945085 0
M  V30 2487 H 234.202 -1.80918 -2.5713 0
M  V30 2488 N 237.974 -0.419461 -1.51915 0
M  V30 2489 C 239.385 0.0477853 -1.86639 0
M  V30 2490 C 239.736 1.43531 -1.33766 0
M  V30 2491 O 238.861 2.05401 -0.68113 0
M  V30 2492 C 239.456 0.0934885 -3.38671 0
M  V30 2493 C 238.015 0.505097 -3.72996 0
M  V30 2494 C 237.162 -0.313792 -2.75519 0
M  V30 2495 H 240.113 -0.636088 -1.45395 0
M  V30 2496 H 240.134 0.906667 -3.6954 0
M  V30 2497 H 239.646 -0.916501 -3.77123 0
M  V30 2498 H 237.747 1.52135 -3.40126 0
M  V30 2499 H 237.86 0.242309 -4.78487 0
M  V30 2500 H 236.224 0.225363 -2.53701 0
M  V30 2501 H 237.007 -1.32232 -3.16812 0
M  V30 2502 N 239.452 1.56882 -0.150215 0
M  V30 2503 C 240.362 2.20494 0.801222 0
M  V30 2504 C 241.378 1.19019 1.26927 0
M  V30 2505 O 242.554 1.51607 1.32579 0
M  V30 2506 C 239.619 2.81659 2.02161 0
M  V30 2507 C 238.68 3.9827 1.60249 0
M  V30 2508 C 237.913 4.56508 2.7647 0
M  V30 2509 O 238.136 4.13627 3.92771 0
M  V30 2510 O 237.07 5.46719 2.51757 0
M  V30 2511 H 240.896 3.02315 0.289717 0
M  V30 2512 H 238.481 1.49202 0.0769684 0
M  V30 2513 H 240.363 3.20522 2.73576 0
M  V30 2514 H 239.038 2.02849 2.52258 0
M  V30 2515 H 237.945 3.64117 0.858477 0
M  V30 2516 H 239.278 4.78609 1.14864 0
M  V30 2517 N 240.93 -0.123565 1.57115 0
M  V30 2518 C 242.207 -0.862196 1.75572 0
M  V30 2519 C 242.587 -1.98279 0.724475 0
M  V30 2520 O 241.935 -2.27102 -0.252407 0
M  V30 2521 C 242.145 -1.38309 3.20424 0
M  V30 2522 C 243.493 -1.83724 3.82793 0
M  V30 2523 O 244.517 -1.47999 3.23998 0
M  V30 2524 O 243.376 -2.49685 4.86127 0
M  V30 2525 H 240.47 -0.409113 0.718718 0
M  V30 2526 H 243.016 -0.107661 1.69358 0
M  V30 2527 H 241.788 -0.578889 3.86994 0
M  V30 2528 H 241.411 -2.20046 3.31158 0
M  V30 2529 N 242.408 -1.52605 -0.393616 0
M  V30 2530 C 243.355 -1.77055 -1.48054 0
M  V30 2531 C 244.325 -0.61358 -1.54352 0
M  V30 2532 O 245.51 -0.852806 -1.70681 0
M  V30 2533 C 242.65 -1.94108 -2.85335 0
M  V30 2534 C 241.763 -3.21792 -2.88226 0
M  V30 2535 C 240.898 -3.29188 -4.16904 0
M  V30 2536 C 239.937 -4.51013 -4.13828 0
M  V30 2537 N 239.074 -4.55716 -5.34105 0
M  V30 2538 H 243.914 -2.69815 -1.26506 0
M  V30 2539 H 241.451 -1.33683 -0.61379 0
M  V30 2540 H 243.409 -2.01979 -3.65049 0
M  V30 2541 H 242.039 -1.04713 -3.05344 0
M  V30 2542 H 241.091 -3.23015 -2.00911 0
M  V30 2543 H 242.403 -4.11557 -2.8182 0
M  V30 2544 H 241.557 -3.36216 -5.05018 0
M  V30 2545 H 240.296 -2.37389 -4.26026 0
M  V30 2546 H 239.301 -4.44115 -3.24102 0
M  V30 2547 H 240.526 -5.44123 -4.06333 0
M  V30 2548 H 238.472 -3.66807 -5.43865 0
M  V30 2549 H 238.389 -5.39346 -5.29756 0
M  V30 2550 H 239.657 -4.66993 -6.2413 0
M  V30 2551 N 243.887 0.651787 -1.4349 0
M  V30 2552 C 245.133 1.41376 -1.45398 0
M  V30 2553 C 245.466 1.94041 -0.0784823 0
M  V30 2554 O 244.741 1.72379 0.900878 0
M  V30 2555 C 245.024 2.59414 -2.49752 0
M  V30 2556 C 244.877 2.12232 -3.96582 0
M  V30 2557 C 246.196 3.61626 -2.50827 0
M  V30 2558 H 243.315 0.512719 -0.529422 0
M  V30 2559 H 245.957 0.738796 -1.75048 0
M  V30 2560 H 244.107 3.16997 -2.246 0
M  V30 2561 H 245.779 1.59639 -4.32797 0
M  V30 2562 H 244.022 1.43592 -4.09346 0
M  V30 2563 H 244.693 2.9712 -4.65214 0
M  V30 2564 H 247.169 3.13805 -2.7325 0
M  V30 2565 H 246.045 4.41766 -3.25783 0
M  V30 2566 H 246.306 4.14314 -1.5426 0
M  V30 2567 N 245.365 1.30045 0.890287 0
M  V30 2568 C 246.328 1.15963 1.977 0
M  V30 2569 C 247.328 0.0923777 1.60534 0
M  V30 2570 O 248.518 0.340071 1.70848 0
M  V30 2571 C 245.65 0.775451 3.31963 0
M  V30 2572 H 246.843 2.12502 2.11619 0
M  V30 2573 H 244.396 1.13366 1.07601 0
M  V30 2574 H 245.131 -0.189671 3.23745 0
M  V30 2575 H 244.916 1.54668 3.60306 0
M  V30 2576 H 246.406 0.700251 4.11687 0
M  V30 2577 N 246.843 -1.10192 1.12674 0
M  V30 2578 C 248.254 -1.63707 0.897604 0
M  V30 2579 C 248.605 -1.87812 -0.567546 0
M  V30 2580 O 247.73 -1.62196 -1.43253 0
M  V30 2581 C 248.325 -2.974 1.62292 0
M  V30 2582 C 246.884 -3.47772 1.43986 0
M  V30 2583 C 246.031 -2.22332 1.65722 0
M  V30 2584 H 248.982 -0.936587 1.28116 0
M  V30 2585 H 249.003 -3.64986 1.07541 0
M  V30 2586 H 248.515 -2.79824 2.68924 0
M  V30 2587 H 246.616 -3.70487 0.396206 0
M  V30 2588 H 246.729 -4.25723 2.19765 0
M  V30 2589 H 245.093 -2.30599 1.08149 0
M  V30 2590 H 245.876 -2.07285 2.73657 0
M  V30 2591 N 248.321 -0.919034 -1.28029 0
M  V30 2592 C 249.549 -0.570971 -1.98866 0
M  V30 2593 C 249.964 0.848996 -1.68634 0
M  V30 2594 O 249.321 1.56307 -0.942036 0
M  V30 2595 C 249.372 -0.776876 -3.53054 0
M  V30 2596 O 249.093 -2.14097 -3.82222 0
M  V30 2597 C 250.594 -0.436356 -4.41147 0
M  V30 2598 H 247.814 -0.217175 -0.634883 0
M  V30 2599 H 250.358 -1.23368 -1.63097 0
M  V30 2600 H 248.513 -0.161085 -3.87065 0
M  V30 2601 H 248.927 -2.18455 -4.76841 0
M  V30 2602 H 250.401 -0.63117 -5.4838 0
M  V30 2603 H 250.878 0.627686 -4.34692 0
M  V30 2604 H 251.484 -1.02991 -4.12641 0
M  V30 2605 N 249.799 1.42003 -0.683588 0
M  V30 2606 C 251.045 2.01712 -0.209825 0
M  V30 2607 C 251.378 1.53968 1.18353 0
M  V30 2608 O 250.653 0.745661 1.79639 0
M  V30 2609 C 250.936 3.59202 -0.254197 0
M  V30 2610 C 250.789 4.17102 -1.68363 0
M  V30 2611 C 252.108 4.38344 0.392709 0
M  V30 2612 H 249.227 0.732891 -0.0777189 0
M  V30 2613 H 251.869 1.68909 -0.87004 0
M  V30 2614 H 250.019 3.87278 0.307954 0
M  V30 2615 H 251.691 3.99946 -2.29871 0
M  V30 2616 H 249.934 3.72597 -2.22157 0
M  V30 2617 H 250.605 5.26249 -1.6663 0
M  V30 2618 H 253.081 4.16011 -0.0859162 0
M  V30 2619 H 251.957 5.47901 0.331063 0
M  V30 2620 H 252.218 4.16887 1.47164 0
M  V30 2621 N 251.277 0.427512 1.51691 0
M  V30 2622 C 252.187 -0.39527 2.31246 0
M  V30 2623 C 253.203 -1.03674 1.39742 0
M  V30 2624 O 254.379 -1.03425 1.72816 0
M  V30 2625 C 251.444 -1.48706 3.13189 0
M  V30 2626 C 250.505 -0.866743 4.20459 0
M  V30 2627 C 249.738 -1.90651 4.98486 0
M  V30 2628 O 249.961 -3.12733 4.77026 0
M  V30 2629 O 248.895 -1.5025 5.82845 0
M  V30 2630 H 252.721 0.253918 3.02637 0
M  V30 2631 H 250.306 0.190274 1.48183 0
M  V30 2632 H 252.188 -2.12047 3.64162 0
M  V30 2633 H 250.863 -2.12051 2.44573 0
M  V30 2634 H 249.77 -0.195544 3.73589 0
M  V30 2635 H 251.103 -0.276934 4.9142 0
M  V30 2636 N 252.755 -1.56801 0.158532 0
M  V30 2637 C 253.983 -2.00859 -0.496303 0
M  V30 2638 C 254.398 -1.03871 -1.57659 0
M  V30 2639 O 253.755 -0.0375165 -1.82461 0
M  V30 2640 C 253.806 -3.4479 -1.08638 0
M  V30 2641 O 253.527 -4.38072 -0.0492322 0
M  V30 2642 C 255.028 -4.04185 -1.8207 0
M  V30 2643 H 252.248 -0.65864 -0.128199 0
M  V30 2644 H 254.792 -2.02885 0.256506 0
M  V30 2645 H 252.947 -3.43579 -1.78975 0
M  V30 2646 H 253.361 -5.2227 -0.483102 0
M  V30 2647 H 254.835 -5.06857 -2.18633 0
M  V30 2648 H 255.312 -3.45549 -2.71095 0
M  V30 2649 H 255.918 -4.0906 -1.16405 0
M  V30 2650 N 254.233 0.115231 -1.57178 0
M  V30 2651 C 255.458 0.840354 -1.89612 0
M  V30 2652 C 255.883 1.72464 -0.750845 0
M  V30 2653 O 255.241 1.78826 0.298478 0
M  V30 2654 C 255.289 1.64654 -3.20814 0
M  V30 2655 O 254.393 2.7538 -3.06985 0
M  V30 2656 H 253.734 0.232158 -0.622092 0
M  V30 2657 H 256.264 0.0964977 -2.04372 0
M  V30 2658 H 256.274 2.03499 -3.53627 0
M  V30 2659 H 254.949 0.997416 -4.03763 0
M  V30 2660 H 253.526 2.3971 -2.85646 0
M  V30 2661 N 255.711 1.52812 0.385517 0
M  V30 2662 C 256.988 1.5861 1.14465 0
M  V30 2663 C 257.368 0.381402 2.07626 0
M  V30 2664 O 256.716 -0.629999 2.19643 0
M  V30 2665 C 256.926 2.92664 1.90128 0
M  V30 2666 C 258.274 3.46526 2.45367 0
M  V30 2667 O 259.298 2.94562 2.0028 0
M  V30 2668 O 258.157 4.37323 3.27736 0
M  V30 2669 H 255.251 0.639855 0.523941 0
M  V30 2670 H 257.797 1.65149 0.390389 0
M  V30 2671 H 256.569 3.71788 1.22022 0
M  V30 2672 H 256.192 2.89527 2.72507 0
M  V30 2673 N 257.189 -0.644168 1.43834 0
M  V30 2674 C 258.6 -1.22554 1.40845 0
M  V30 2675 C 258.951 -1.9585 0.117115 0
M  V30 2676 O 258.076 -2.01734 -0.783086 0
M  V30 2677 C 258.671 -2.22907 2.55143 0
M  V30 2678 C 257.23 -2.76501 2.5539 0
M  V30 2679 C 256.377 -1.51287 2.32396 0
M  V30 2680 H 259.328 -0.43563 1.52604 0
M  V30 2681 H 259.349 -3.05259 2.2715 0
M  V30 2682 H 258.861 -1.69533 3.49114 0
M  V30 2683 H 256.962 -3.33914 1.65324 0
M  V30 2684 H 257.075 -3.23429 3.53455 0
M  V30 2685 H 255.439 -1.78957 1.81236 0
M  V30 2686 H 256.222 -0.998336 3.28463 0
M  V30 2687 N 258.668 -1.30515 -0.883378 0
M  V30 2688 C 259.898 -1.22182 -1.66599 0
M  V30 2689 C 260.306 0.217507 -1.87946 0
M  V30 2690 O 259.649 1.1554 -1.42815 0
M  V30 2691 C 259.711 -1.88146 -3.06335 0
M  V30 2692 C 259.375 -3.37476 -3.08154 0
M  V30 2693 C 260.372 -4.33443 -2.87094 0
M  V30 2694 C 258.057 -3.7895 -3.29701 0
M  V30 2695 C 260.051 -5.68858 -2.8754 0
M  V30 2696 C 257.738 -5.14482 -3.29776 0
M  V30 2697 C 258.736 -6.09246 -3.0872 0
M  V30 2698 O 258.424 -7.42302 -3.08615 0
M  V30 2699 H 258.156 -0.423898 -0.52658 0
M  V30 2700 H 260.71 -1.72703 -1.11188 0
M  V30 2701 H 258.94 -1.32157 -3.63416 0
M  V30 2702 H 260.629 -1.7391 -3.66756 0
M  V30 2703 H 261.395 -4.02733 -2.70243 0
M  V30 2704 H 257.274 -3.05631 -3.45124 0
M  V30 2705 H 260.818 -6.428 -2.71024 0
M  V30 2706 H 256.715 -5.44832 -3.46163 0
M  V30 2707 H 257.483 -7.5131 -3.24769 0
M  V30 2708 N 260.146 1.09593 -1.13257 0
M  V30 2709 C 261.109 2.14359 -0.811358 0
M  V30 2710 C 262.109 1.59808 0.178377 0
M  V30 2711 O 263.299 1.74132 -0.0484911 0
M  V30 2712 C 260.431 3.40269 -0.207276 0
M  V30 2713 H 261.624 2.44284 -1.73969 0
M  V30 2714 H 259.177 1.25102 -0.936973 0
M  V30 2715 H 259.912 3.15969 0.73036 0
M  V30 2716 H 259.697 3.81154 -0.919992 0
M  V30 2717 H 261.187 4.176 0.000667944 0
M  V30 2718 N 261.624 0.925811 1.2754 0
M  V30 2719 C 262.901 0.483726 1.89524 0
M  V30 2720 C 263.281 -1.03809 1.83812 0
M  V30 2721 O 262.629 -1.89143 1.28207 0
M  V30 2722 C 262.839 1.02769 3.33526 0
M  V30 2723 C 264.187 1.08703 4.10449 0
M  V30 2724 O 265.211 0.977175 3.42534 0
M  V30 2725 O 264.07 1.25599 5.31871 0
M  V30 2726 H 261.164 0.15529 0.812289 0
M  V30 2727 H 263.71 1.01738 1.35822 0
M  V30 2728 H 262.482 2.07155 3.31967 0
M  V30 2729 H 262.105 0.475567 3.94746 0
M  V30 2730 N 263.102 -1.41638 0.69111 0
M  V30 2731 C 264.379 -1.95036 0.148421 0
M  V30 2732 C 264.759 -1.63072 -1.34055 0
M  V30 2733 O 264.107 -0.93538 -2.08478 0
M  V30 2734 C 264.317 -3.46279 0.434951 0
M  V30 2735 C 265.665 -4.23069 0.360275 0
M  V30 2736 O 266.689 -3.54277 0.369613 0
M  V30 2737 O 265.548 -5.45583 0.316534 0
M  V30 2738 H 262.642 -0.826908 0.0123654 0
M  V30 2739 H 265.188 -1.5138 0.766963 0
M  V30 2740 H 263.96 -3.6281 1.46576 0
M  V30 2741 H 263.583 -3.97019 -0.214787 0
M  V30 2742 N 264.58 -0.43555 -1.51462 0
M  V30 2743 C 265.991 0.0279871 -1.86679 0
M  V30 2744 C 266.342 1.42104 -1.35281 0
M  V30 2745 O 265.467 2.04667 -0.702878 0
M  V30 2746 C 266.062 0.0575626 -3.38751 0
M  V30 2747 C 264.621 0.465507 -3.7351 0
M  V30 2748 C 263.768 -0.342996 -2.75171 0
M  V30 2749 H 266.719 -0.651473 -1.44712 0
M  V30 2750 H 266.74 0.867421 -3.70481 0
M  V30 2751 H 266.252 -0.956448 -3.7613 0
M  V30 2752 H 264.353 1.48519 -3.41721 0
M  V30 2753 H 264.466 0.191546 -4.78717 0
M  V30 2754 H 262.83 0.198442 -2.53926 0
M  V30 2755 H 263.613 -1.35585 -3.15391 0
M  V30 2756 N 266.058 1.56714 -0.166846 0
M  V30 2757 C 267.304 1.97039 0.479962 0
M  V30 2758 C 267.637 1.05264 1.63197 0
M  V30 2759 O 266.912 0.0988833 1.94248 0
M  V30 2760 C 267.195 3.46867 0.967212 0
M  V30 2761 C 267.048 4.49421 -0.18466 0
M  V30 2762 C 268.367 3.9968 1.84238 0
M  V30 2763 H 265.486 0.71641 0.172992 0
M  V30 2764 H 268.128 1.8832 -0.252079 0
M  V30 2765 H 266.278 3.54428 1.59101 0
M  V30 2766 H 267.95 4.53924 -0.821621 0
M  V30 2767 H 266.193 4.25573 -0.840837 0
M  V30 2768 H 266.864 5.51644 0.198317 0
M  V30 2769 H 269.34 3.94723 1.31655 0
M  V30 2770 H 268.216 5.04941 2.15234 0
M  V30 2771 H 268.477 3.43226 2.78654 0
M  V30 2772 N 267.536 -0.106894 1.57237 0
M  V30 2773 C 268.952 -0.46078 1.52804 0
M  V30 2774 C 269.152 -1.81184 0.881746 0
M  V30 2775 O 268.208 -2.48102 0.469224 0
M  V30 2776 C 269.521 -0.434127 2.9755 0
M  V30 2777 C 271.069 -0.516821 3.08704 0
M  V30 2778 C 271.544 -0.520436 4.55033 0
M  V30 2779 N 273.035 -0.58153 4.59535 0
M  V30 2780 C 273.77 -0.605973 5.70189 0
M  V30 2781 N 273.266 -0.587331 6.90306 0
M  V30 2782 N 275.059 -0.649895 5.5833 0
M  V30 2783 H 267.21 0.778203 1.9763 0
M  V30 2784 H 269.473 0.288403 0.903066 0
M  V30 2785 H 269.179 0.491197 3.48253 0
M  V30 2786 H 269.053 -1.25748 3.55622 0
M  V30 2787 H 271.44 -1.43256 2.57995 0
M  V30 2788 H 271.521 0.334449 2.53604 0
M  V30 2789 H 271.165 0.391313 5.0639 0
M  V30 2790 H 271.095 -1.38876 5.07958 0
M  V30 2791 H 273.586 -0.60161 3.73081 0
M  V30 2792 H 273.899 -0.60894 7.70397 0
M  V30 2793 H 272.244 -0.554564 6.92784 0
M  V30 2794 H 275.435 -0.661907 4.63397 0
M  V30 2795 H 275.608 -0.665476 6.44574 0
M  V30 2796 N 269.014 -1.53014 -0.377408 0
M  V30 2797 C 269.964 -1.74996 -1.46152 0
M  V30 2798 C 270.948 -0.604236 -1.49123 0
M  V30 2799 O 272.14 -0.862489 -1.54564 0
M  V30 2800 C 269.269 -1.93267 -2.8373 0
M  V30 2801 C 268.355 -3.13807 -2.85283 0
M  V30 2802 N 268.746 -4.35941 -2.56493 0
M  V30 2803 C 267.044 -3.14288 -3.16448 0
M  V30 2804 C 267.745 -5.17615 -2.65424 0
M  V30 2805 N 266.721 -4.53559 -2.99641 0
M  V30 2806 H 270.523 -2.67044 -1.22738 0
M  V30 2807 H 268.037 -1.51479 -0.585479 0
M  V30 2808 H 270.034 -2.0714 -3.61799 0
M  V30 2809 H 268.694 -1.0244 -3.08117 0
M  V30 2810 H 269.705 -4.63876 -2.30302 0
M  V30 2811 H 266.382 -2.33312 -3.46225 0
M  V30 2812 H 267.772 -6.25006 -2.46612 0
M  V30 2813 N 270.492 0.636531 -1.44174 0
M  V30 2814 C 271.903 1.21806 -1.41493 0
M  V30 2815 C 272.254 1.95785 -0.1275 0
M  V30 2816 O 271.379 2.02147 0.772376 0
M  V30 2817 C 271.974 2.21551 -2.56321 0
M  V30 2818 C 270.533 2.75143 -2.56853 0
M  V30 2819 C 269.68 1.50052 -2.33195 0
M  V30 2820 H 272.631 0.427531 -1.52833 0
M  V30 2821 H 272.652 3.0405 -2.28765 0
M  V30 2822 H 272.164 1.67679 -3.50008 0
M  V30 2823 H 270.265 3.33033 -1.67093 0
M  V30 2824 H 270.378 3.2155 -3.55165 0
M  V30 2825 H 268.742 1.77993 -1.82183 0
M  V30 2826 H 269.525 0.980903 -3.28988 0
M  V30 2827 N 271.97 1.30982 0.876444 0
M  V30 2828 C 272.933 1.18054 1.96459 0
M  V30 2829 C 273.933 0.109399 1.60427 0
M  V30 2830 O 275.123 0.358173 1.70478 0
M  V30 2831 C 272.255 0.810616 3.31122 0
M  V30 2832 H 273.448 2.14735 2.09354 0
M  V30 2833 H 271.001 1.145 1.06392 0
M  V30 2834 H 271.736 -0.155322 3.23928 0
M  V30 2835 H 271.521 1.58481 3.58645 0
M  V30 2836 H 273.011 0.743876 4.10921 0
M  V30 2837 N 273.449 -1.08991 1.13837 0
M  V30 2838 C 274.379 -2.17771 0.842507 0
M  V30 2839 C 275.36 -1.6892 -0.20001 0
M  V30 2840 O 276.545 -1.94113 -0.0579731 0
M  V30 2841 C 273.675 -3.4589 0.312644 0
M  V30 2842 C 272.629 -4.08099 1.28992 0
M  V30 2843 C 271.955 -5.31098 0.619623 0
M  V30 2844 C 273.255 -4.50077 2.65005 0
M  V30 2845 H 274.949 -2.42777 1.75213 0
M  V30 2846 H 272.495 -1.16682 0.843875 0
M  V30 2847 H 274.448 -4.21297 0.0933043 0
M  V30 2848 H 273.172 -3.20419 -0.632382 0
M  V30 2849 H 271.831 -3.34717 1.49533 0
M  V30 2850 H 271.479 -5.0191 -0.33102 0
M  V30 2851 H 271.179 -5.73674 1.27167 0
M  V30 2852 H 272.703 -6.09224 0.409669 0
M  V30 2853 H 274.117 -5.16688 2.48407 0
M  V30 2854 H 272.514 -5.03553 3.26427 0
M  V30 2855 H 273.584 -3.62257 3.22332 0
M  V30 2856 N 274.927 -0.932562 -1.27047 0
M  V30 2857 C 275.874 -0.434072 -2.26681 0
M  V30 2858 C 276.844 0.501639 -1.58344 0
M  V30 2859 O 278.029 0.419734 -1.86126 0
M  V30 2860 C 275.169 0.30261 -3.43771 0
M  V30 2861 C 274.282 -0.667774 -4.26808 0
M  V30 2862 C 273.417 0.0892393 -5.31125 0
M  V30 2863 C 272.456 -0.873532 -6.05835 0
M  V30 2864 N 271.593 -0.148832 -7.01942 0
M  V30 2865 H 276.433 -1.28868 -2.68695 0
M  V30 2866 H 273.97 -0.646713 -1.32121 0
M  V30 2867 H 275.928 0.746092 -4.10474 0
M  V30 2868 H 274.558 1.12142 -3.02695 0
M  V30 2869 H 273.61 -1.22978 -3.59973 0
M  V30 2870 H 274.922 -1.40337 -4.78651 0
M  V30 2871 H 274.076 0.592409 -6.03801 0
M  V30 2872 H 272.815 0.85777 -4.80097 0
M  V30 2873 H 271.82 -1.38791 -5.31994 0
M  V30 2874 H 273.045 -1.64193 -6.58952 0
M  V30 2875 H 270.991 0.601365 -6.53238 0
M  V30 2876 H 270.908 -0.82391 -7.51497 0
M  V30 2877 H 272.176 0.333527 -7.78786 0
M  V30 2878 N 276.405 1.4127 -0.698611 0
M  V30 2879 C 277.651 2.01478 -0.231207 0
M  V30 2880 C 277.984 1.55215 1.16713 0
M  V30 2881 O 277.259 0.764672 1.78838 0
M  V30 2882 C 277.542 3.58912 -0.292281 0
M  V30 2883 C 277.395 4.15293 -1.72778 0
M  V30 2884 C 278.714 4.38736 0.346194 0
M  V30 2885 H 275.833 0.732025 -0.0854878 0
M  V30 2886 H 278.475 1.67977 -0.887906 0
M  V30 2887 H 276.625 3.87582 0.26686 0
M  V30 2888 H 278.297 3.97486 -2.341 0
M  V30 2889 H 276.54 3.7022 -2.26096 0
M  V30 2890 H 277.211 5.24452 -1.72202 0
M  V30 2891 H 279.687 4.15897 -0.130035 0
M  V30 2892 H 278.563 5.48221 0.272932 0
M  V30 2893 H 278.824 4.18425 1.42734 0
M  V30 2894 N 277.883 0.443576 1.51229 0
M  V30 2895 C 278.831 -0.37904 2.29491 0
M  V30 2896 C 279.825 -1.0153 1.35603 0
M  V30 2897 O 281.031 -0.94955 1.52917 0
M  V30 2898 H 277.406 -0.141053 0.738653 0
M  V30 2899 H 279.377 0.301799 2.9687 0
M  V30 2900 C 278.126 -1.46426 3.15364 0
M  V30 2901 H 277.449 -0.984037 3.87501 0
M  V30 2902 H 278.889 -2.01297 3.7317 0
M  V30 2903 C 277.348 -2.45099 2.31146 0
M  V30 2904 O 277.878 -3.49773 1.9754 0
M  V30 2905 N 276.084 -2.16139 1.94249 0
M  V30 2906 H 275.631 -1.31044 2.21777 0
M  V30 2907 H 275.589 -2.82398 1.38198 0
M  V30 2908 N 279.361 -1.56624 0.175154 0
M  V30 2909 C 280.586 -2.01813 -0.478137 0
M  V30 2910 C 281.011 -1.05457 -1.55757 0
M  V30 2911 O 280.369 -0.0347439 -1.81267 0
M  V30 2912 C 280.417 -3.45581 -1.02987 0
M  V30 2913 O 279.521 -3.52305 -2.14371 0
M  V30 2914 H 278.862 -0.65413 -0.114059 0
M  V30 2915 H 281.392 -2.02673 0.280173 0
M  V30 2916 H 281.402 -3.84965 -1.35151 0
M  V30 2917 H 280.077 -4.1521 -0.239556 0
M  V30 2918 H 278.654 -3.24783 -1.83222 0
M  V30 2919 N 280.839 0.0985539 -1.57292 0
M  V30 2920 C 281.771 1.14595 -1.98496 0
M  V30 2921 C 282.784 1.36512 -0.887031 0
M  V30 2922 O 283.973 1.35225 -1.16518 0
M  V30 2923 C 281.073 2.50216 -2.28572 0
M  V30 2924 C 280.246 2.48624 -3.59868 0
M  V30 2925 C 279.305 3.66146 -3.7792 0
M  V30 2926 O 278.331 3.48795 -4.49812 0
M  V30 2927 N 279.533 4.85496 -3.18235 0
M  V30 2928 H 282.298 0.795277 -2.88956 0
M  V30 2929 H 279.859 0.287579 -1.59325 0
M  V30 2930 H 281.851 3.27432 -2.37845 0
M  V30 2931 H 280.421 2.77387 -1.44136 0
M  V30 2932 H 279.641 1.56978 -3.61596 0
M  V30 2933 H 280.929 2.44635 -4.46129 0
M  V30 2934 H 280.327 5.02497 -2.59833 0
M  V30 2935 H 278.884 5.60317 -3.32999 0
M  V30 2936 N 282.317 1.53212 0.369288 0
M  V30 2937 C 283.733 1.42902 0.710712 0
M  V30 2938 C 283.933 0.565135 1.93413 0
M  V30 2939 O 282.989 0.0461484 2.52458 0
M  V30 2940 C 284.302 2.86042 0.927382 0
M  V30 2941 C 285.85 2.9565 1.02762 0
M  V30 2942 C 286.325 4.39843 1.27679 0
M  V30 2943 N 287.816 4.43256 1.34457 0
M  V30 2944 C 288.551 5.51929 1.55439 0
M  V30 2945 N 288.047 6.70655 1.73762 0
M  V30 2946 N 289.84 5.39502 1.57779 0
M  V30 2947 H 281.991 2.07888 -0.435457 0
M  V30 2948 H 284.254 0.938661 -0.132739 0
M  V30 2949 H 283.96 3.51557 0.100287 0
M  V30 2950 H 283.834 3.29472 1.83653 0
M  V30 2951 H 286.221 2.30291 1.84527 0
M  V30 2952 H 286.302 2.5562 0.0959504 0
M  V30 2953 H 285.946 5.05774 0.464175 0
M  V30 2954 H 285.876 4.77443 2.22162 0
M  V30 2955 H 288.367 3.5769 1.21926 0
M  V30 2956 H 288.68 7.49248 1.89335 0
M  V30 2957 H 287.025 6.73648 1.70948 0
M  V30 2958 H 290.216 4.45713 1.43029 0
M  V30 2959 H 290.389 6.2426 1.7379 0
M  V30 2960 N 283.795 -0.628877 1.44509 0
M  V30 2961 C 285.206 -1.21054 1.42137 0
M  V30 2962 C 285.557 -1.95715 0.137881 0
M  V30 2963 O 284.682 -2.02554 -0.761645 0
M  V30 2964 C 285.277 -2.20189 2.57493 0
M  V30 2965 C 283.836 -2.73777 2.58308 0
M  V30 2966 C 282.983 -1.48813 2.33987 0
M  V30 2967 H 285.934 -0.41942 1.53057 0
M  V30 2968 H 285.955 -3.02833 2.30375 0
M  V30 2969 H 285.467 -1.6582 3.50892 0
M  V30 2970 H 283.568 -3.32142 1.68856 0
M  V30 2971 H 283.681 -3.19662 3.56865 0
M  V30 2972 H 282.045 -1.77024 1.83124 0
M  V30 2973 H 282.828 -0.963442 3.29504 0
M  V30 2974 N 285.273 -1.31445 -0.869486 0
M  V30 2975 C 286.52 -1.21158 -1.62256 0
M  V30 2976 C 286.848 0.230155 -1.93133 0
M  V30 2977 O 286.103 1.17906 -1.56194 0
M  V30 2978 C 286.402 -2.00145 -2.96102 0
M  V30 2979 C 286.068 -3.4964 -2.84715 0
M  V30 2980 C 284.73 -3.90403 -2.81317 0
M  V30 2981 C 287.082 -4.44769 -2.71716 0
M  V30 2982 C 284.41 -5.24561 -2.62778 0
M  V30 2983 C 286.762 -5.79054 -2.54714 0
M  V30 2984 C 285.426 -6.19037 -2.49699 0
M  V30 2985 H 284.696 -0.443348 -0.593737 0
M  V30 2986 H 287.343 -1.62715 -1.00976 0
M  V30 2987 H 285.648 -1.5127 -3.6142 0
M  V30 2988 H 287.345 -1.89566 -3.53363 0
M  V30 2989 H 283.935 -3.17256 -2.88178 0
M  V30 2990 H 288.119 -4.14208 -2.73397 0
M  V30 2991 H 283.375 -5.54613 -2.57321 0
M  V30 2992 H 287.549 -6.52393 -2.43632 0
M  V30 2993 H 285.176 -7.22935 -2.35093 0
M  V30 2994 N 286.751 1.08385 -1.14413 0
M  V30 2995 C 287.699 2.17406 -0.826888 0
M  V30 2996 C 288.693 1.6827 0.195312 0
M  V30 2997 O 289.899 1.79927 0.0513892 0
M  V30 2998 H 286.274 0.70934 -0.249681 0
M  V30 2999 H 288.245 2.41388 -1.75426 0
M  V30 3000 C 286.994 3.46215 -0.320979 0
M  V30 3001 H 286.317 3.84401 -1.0989 0
M  V30 3002 H 287.757 4.23777 -0.137549 0
M  V30 3003 C 286.216 3.23067 0.955472 0
M  V30 3004 O 286.746 3.4668 2.02918 0
M  V30 3005 N 284.952 2.7661 0.890798 0
M  V30 3006 H 284.499 2.57594 0.0168815 0
M  V30 3007 H 284.457 2.61501 1.74542 0
M  V30 3008 N 288.23 0.939286 1.26551 0
M  V30 3009 C 289.193 0.451987 2.24699 0
M  V30 3010 C 290.193 -0.435869 1.5478 0
M  V30 3011 O 291.383 -0.235314 1.72603 0
M  V30 3012 C 288.515 -0.348801 3.39111 0
M  V30 3013 H 289.708 1.3193 2.69322 0
M  V30 3014 H 287.261 0.721072 1.38673 0
M  V30 3015 H 287.996 -1.23444 2.99887 0
M  V30 3016 H 287.781 0.287945 3.91041 0
M  V30 3017 H 289.271 -0.679726 4.12031 0
M  V30 3018 N 289.708 -1.40897 0.706093 0
M  V30 3019 C 290.618 -2.3455 0.0482286 0
M  V30 3020 C 291.634 -1.56796 -0.754396 0
M  V30 3021 O 292.81 -1.89228 -0.689538 0
M  V30 3022 C 289.875 -3.35625 -0.869303 0
M  V30 3023 C 288.936 -4.29261 -0.0576994 0
M  V30 3024 C 288.169 -5.25508 -0.931531 0
M  V30 3025 O 288.392 -5.27472 -2.17092 0
M  V30 3026 O 287.326 -6.00727 -0.375587 0
M  V30 3027 H 291.152 -2.92407 0.820476 0
M  V30 3028 H 288.737 -1.4193 0.4665 0
M  V30 3029 H 290.619 -3.97635 -1.39514 0
M  V30 3030 H 289.294 -2.80196 -1.62086 0
M  V30 3031 H 288.201 -3.70566 0.512988 0
M  V30 3032 H 289.534 -4.87817 0.655426 0
M  V30 3033 N 291.186 -0.45159 -1.50991 0
M  V30 3034 C 292.597 0.00818571 -1.86698 0
M  V30 3035 C 292.948 1.40661 -1.3678 0
M  V30 3036 O 292.073 2.0391 -0.724546 0
M  V30 3037 C 292.668 0.0216303 -3.38793 0
M  V30 3038 C 291.227 0.425865 -3.73983 0
M  V30 3039 C 290.374 -0.372163 -2.74791 0
M  V30 3040 H 293.325 -0.666785 -1.44013 0
M  V30 3041 H 293.346 0.828078 -3.7138 0
M  V30 3042 H 292.858 -0.996288 -3.75094 0
M  V30 3043 H 290.959 1.44886 -3.43277 0
M  V30 3044 H 291.072 0.140761 -4.78893 0
M  V30 3045 H 289.436 0.171498 -2.54122 0
M  V30 3046 H 290.219 -1.38922 -3.13935 0
M  V30 3047 N 292.664 1.56529 -0.183458 0
M  V30 3048 C 294.075 1.83739 0.331177 0
M  V30 3049 C 294.426 1.10373 1.62211 0
M  V30 3050 O 293.551 0.36071 2.13373 0
M  V30 3051 C 294.146 3.33306 0.607646 0
M  V30 3052 C 292.705 3.60969 1.06668 0
M  V30 3053 C 291.852 2.77086 0.109029 0
M  V30 3054 H 294.803 1.53379 -0.407484 0
M  V30 3055 H 294.824 3.51444 1.45832 0
M  V30 3056 H 294.336 3.86677 -0.332086 0
M  V30 3057 H 292.437 3.13021 2.0211 0
M  V30 3058 H 292.55 4.69231 0.967447 0
M  V30 3059 H 290.914 2.47319 0.608714 0
M  V30 3060 H 291.697 3.33241 -0.82494 0
M  V30 3061 N 294.142 -0.090211 1.57342 0
M  V30 3062 C 295.553 -0.644173 1.75235 0
M  V30 3063 C 295.904 -1.78865 0.806335 0
M  V30 3064 O 295.029 -2.16395 -0.0140128 0
M  V30 3065 C 295.624 -1.17532 3.1776 0
M  V30 3066 C 294.183 -1.67531 3.37061 0
M  V30 3067 C 293.33 -0.58693 2.71017 0
M  V30 3068 H 296.281 0.135884 1.58117 0
M  V30 3069 H 296.302 -2.04455 3.20902 0
M  V30 3070 H 295.814 -0.342138 3.86589 0
M  V30 3071 H 293.915 -2.53234 2.73319 0
M  V30 3072 H 294.028 -1.76493 4.45406 0
M  V30 3073 H 292.392 -1.02756 2.33052 0
M  V30 3074 H 293.175 0.235758 3.4249 0
M  V30 3075 N 295.62 -1.53406 -0.361157 0
M  V30 3076 C 296.53 -1.83122 -1.4664 0
M  V30 3077 C 297.546 -0.719943 -1.58407 0
M  V30 3078 O 298.722 -1.01046 -1.74218 0
M  V30 3079 C 295.787 -2.01891 -2.81853 0
M  V30 3080 C 294.848 -3.25784 -2.79577 0
M  V30 3081 C 294.081 -3.43648 -4.0834 0
M  V30 3082 O 294.304 -2.65714 -5.0473 0
M  V30 3083 O 293.238 -4.37018 -4.13883 0
M  V30 3084 H 297.064 -2.7703 -1.24451 0
M  V30 3085 H 294.649 -1.38841 -0.551678 0
M  V30 3086 H 296.531 -2.15782 -3.61962 0
M  V30 3087 H 295.206 -1.11173 -3.0401 0
M  V30 3088 H 294.113 -3.17312 -1.98151 0
M  V30 3089 H 295.446 -4.16439 -2.62373 0
M  V30 3090 N 297.098 0.621204 -1.44841 0
M  V30 3091 C 298.028 1.74366 -1.55303 0
M  V30 3092 C 299.009 1.65199 -0.405385 0
M  V30 3093 O 300.194 1.83807 -0.626787 0
M  V30 3094 C 297.324 3.12931 -1.50637 0
M  V30 3095 C 296.278 3.36896 -2.63979 0
M  V30 3096 C 295.604 4.75594 -2.44366 0
M  V30 3097 C 296.904 3.28483 -4.06074 0
M  V30 3098 H 298.598 1.65867 -2.49256 0
M  V30 3099 H 296.144 0.796558 -1.19962 0
M  V30 3100 H 298.097 3.9124 -1.56555 0
M  V30 3101 H 296.821 3.22237 -0.532057 0
M  V30 3102 H 295.48 2.60972 -2.57467 0
M  V30 3103 H 295.128 4.81616 -1.45105 0
M  V30 3104 H 294.828 4.92586 -3.20364 0
M  V30 3105 H 296.352 5.5612 -2.52117 0
M  V30 3106 H 297.766 3.96684 -4.13902 0
M  V30 3107 H 296.163 3.57008 -4.82354 0
M  V30 3108 H 297.233 2.26133 -4.28943 0
M  V30 3109 N 298.576 1.31904 0.862503 0
M  V30 3110 C 299.506 1.22782 1.98612 0
M  V30 3111 C 300.487 0.113362 1.69722 0
M  V30 3112 O 301.672 0.299218 1.91881 0
M  V30 3113 C 298.802 0.942058 3.34279 0
M  V30 3114 C 297.756 2.0169 3.77499 0
M  V30 3115 C 297.082 1.58369 5.10709 0
M  V30 3116 C 298.382 3.43096 3.93805 0
M  V30 3117 H 300.076 2.16788 2.06502 0
M  V30 3118 H 297.622 1.04366 0.992154 0
M  V30 3119 H 299.575 0.864818 4.1243 0
M  V30 3120 H 298.299 -0.0336603 3.26583 0
M  V30 3121 H 296.958 2.08416 3.01593 0
M  V30 3122 H 296.606 0.595628 4.99461 0
M  V30 3123 H 296.306 2.30279 5.40597 0
M  V30 3124 H 297.83 1.52067 5.91361 0
M  V30 3125 H 299.244 3.39003 4.62331 0
M  V30 3126 H 297.641 4.13288 4.35101 0
M  V30 3127 H 298.711 3.83334 2.96957 0
M  V30 3128 N 300.054 -1.07777 1.14986 0
M  V30 3129 C 301.282 -1.84018 0.945773 0
M  V30 3130 C 301.697 -1.81897 -0.505863 0
M  V30 3131 O 301.054 -1.22726 -1.35072 0
M  V30 3132 C 301.105 -3.31287 1.44677 0
M  V30 3133 O 300.826 -3.33449 2.84154 0
M  V30 3134 C 302.327 -4.24311 1.28355 0
M  V30 3135 H 299.547 -0.580716 0.336169 0
M  V30 3136 H 302.091 -1.36077 1.52654 0
M  V30 3137 H 300.246 -3.76594 0.908625 0
M  V30 3138 H 300.66 -4.25427 3.06777 0
M  V30 3139 H 302.134 -5.2573 1.68261 0
M  V30 3140 H 302.611 -4.38612 0.227184 0
M  V30 3141 H 303.217 -3.84836 1.81056 0
M  V30 3142 N 301.532 -0.945985 -1.26051 0
M  V30 3143 C 302.442 -0.465633 -2.29933 0
M  V30 3144 C 303.458 0.462761 -1.67733 0
M  V30 3145 O 304.634 0.341118 -1.9849 0
M  V30 3146 C 301.699 0.256994 -3.45746 0
M  V30 3147 C 300.76 -0.708549 -4.23412 0
M  V30 3148 C 299.993 -0.0203135 -5.33696 0
M  V30 3149 O 300.216 1.19571 -5.57726 0
M  V30 3150 O 299.15 -0.701459 -5.97799 0
M  V30 3151 H 302.976 -1.32866 -2.73094 0
M  V30 3152 H 300.561 -0.712071 -1.31339 0
M  V30 3153 H 302.443 0.663852 -4.16138 0
M  V30 3154 H 301.118 1.09533 -3.04605 0
M  V30 3155 H 300.025 -1.16545 -3.55483 0
M  V30 3156 H 301.358 -1.51465 -4.68315 0
M  V30 3157 N 303.011 1.40521 -0.713556 0
M  V30 3158 C 303.959 2.32549 -0.0485227 0
M  V30 3159 C 304.953 1.51931 0.74922 0
M  V30 3160 O 306.159 1.67745 0.652816 0
M  V30 3161 H 302.534 0.751994 0.00311138 0
M  V30 3162 H 304.505 2.86291 -0.841443 0
M  V30 3163 C 303.254 3.36879 0.860687 0
M  V30 3164 H 302.577 3.98978 0.256246 0
M  V30 3165 H 304.017 4.03772 1.294 0
M  V30 3166 C 302.476 2.72197 1.9852 0
M  V30 3167 O 303.006 2.5837 3.07584 0
M  V30 3168 N 301.212 2.30612 1.76823 0
M  V30 3169 H 300.759 2.42059 0.881217 0
M  V30 3170 H 300.717 1.87672 2.52243 0
M  V30 3171 N 304.489 0.459591 1.5075 0
M  V30 3172 C 305.719 -0.0972338 2.06371 0
M  V30 3173 C 306.127 -1.35074 1.32483 0
M  V30 3174 O 305.47 -1.79637 0.384226 0
M  V30 3175 C 305.532 -0.462759 3.56509 0
M  V30 3176 C 305.196 0.687084 4.51805 0
M  V30 3177 C 306.193 1.56578 4.95761 0
M  V30 3178 C 303.878 0.874144 4.94635 0
M  V30 3179 C 305.872 2.61604 5.81242 0
M  V30 3180 C 303.559 1.92765 5.79901 0
M  V30 3181 C 304.557 2.79697 6.23104 0
M  V30 3182 O 304.245 3.83235 7.06673 0
M  V30 3183 H 303.977 -0.00140687 0.675999 0
M  V30 3184 H 306.531 0.644011 1.95043 0
M  V30 3185 H 304.761 -1.25703 3.65699 0
M  V30 3186 H 306.45 -0.953323 3.94546 0
M  V30 3187 H 307.216 1.4329 4.6335 0
M  V30 3188 H 303.095 0.207006 4.60535 0
M  V30 3189 H 306.639 3.29489 6.14884 0
M  V30 3190 H 302.536 2.06064 6.11725 0
M  V30 3191 H 303.304 3.80084 7.24899 0
M  V30 3192 N 305.967 -1.56429 0.191757 0
M  V30 3193 C 307.216 -1.9666 -0.448088 0
M  V30 3194 C 307.529 -1.08136 -1.62991 0
M  V30 3195 O 308.735 -1.38135 -2.33733 0
M  V30 3196 C 307.191 -3.49753 -0.848585 0
M  V30 3197 C 306.799 -4.46935 0.308764 0
M  V30 3198 C 308.543 -3.9876 -1.4557 0
M  V30 3199 C 306.45 -5.91293 -0.112506 0
M  V30 3200 H 305.38 -0.734312 -0.171179 0
M  V30 3201 H 308.031 -1.81301 0.283242 0
M  V30 3202 H 306.413 -3.60604 -1.63649 0
M  V30 3203 H 307.587 -4.47813 1.08627 0
M  V30 3204 H 305.902 -4.08102 0.827158 0
M  V30 3205 H 308.499 -5.04086 -1.78328 0
M  V30 3206 H 308.842 -3.42875 -2.36099 0
M  V30 3207 H 309.375 -3.9101 -0.731836 0
M  V30 3208 H 306.114 -6.51097 0.758514 0
M  V30 3209 H 305.634 -5.93676 -0.854941 0
M  V30 3210 H 307.313 -6.44663 -0.549448 0
M  V30 3211 N 307.445 0.0818655 -1.57387 0
M  V30 3212 C 308.673 0.796108 -1.9097 0
M  V30 3213 C 309.088 1.71626 -0.786757 0
M  V30 3214 O 308.445 1.80908 0.240513 0
M  V30 3215 C 308.496 1.59829 -3.24248 0
M  V30 3216 O 308.217 0.715131 -4.32224 0
M  V30 3217 C 309.718 2.41442 -3.7178 0
M  V30 3218 H 306.938 0.22691 -0.631469 0
M  V30 3219 H 309.482 0.0551439 -2.04426 0
M  V30 3220 H 307.637 2.29163 -3.12351 0
M  V30 3221 H 308.051 1.27205 -5.08841 0
M  V30 3222 H 309.525 2.932 -4.67694 0
M  V30 3223 H 310.002 3.2051 -3.00283 0
M  V30 3224 H 310.608 1.77283 -3.86589 0
M  V30 3225 N 308.923 1.53595 0.353017 0
M  V30 3226 C 310.334 1.61937 0.929153 0
M  V30 3227 C 310.685 0.494686 1.89861 0
M  V30 3228 O 309.81 -0.377017 2.1309 0
M  V30 3229 C 310.405 2.93526 1.69199 0
M  V30 3230 C 308.964 3.04161 2.21727 0
M  V30 3231 C 308.111 2.57322 1.03348 0
M  V30 3232 H 311.062 1.58155 0.131431 0
M  V30 3233 H 311.083 2.82034 2.55416 0
M  V30 3234 H 310.595 3.75362 0.986144 0
M  V30 3235 H 308.696 2.26938 2.95516 0
M  V30 3236 H 308.809 4.09465 2.48748 0
M  V30 3237 H 307.173 2.12499 1.40414 0
M  V30 3238 H 307.956 3.41588 0.342428 0
M  V30 3239 N 310.401 -0.613514 1.45168 0
M  V30 3240 C 311.349 -1.74572 1.53712 0
M  V30 3241 C 312.343 -1.64426 0.407505 0
M  V30 3242 O 313.549 -1.70291 0.583176 0
M  V30 3243 H 309.924 -0.576641 0.48269 0
M  V30 3244 H 311.895 -1.64492 2.48968 0
M  V30 3245 C 310.644 -3.12943 1.51532 0
M  V30 3246 H 309.967 -3.21407 2.37776 0
M  V30 3247 H 311.407 -3.9201 1.61569 0
M  V30 3248 C 309.866 -3.36053 0.238798 0
M  V30 3249 O 310.396 -3.95837 -0.6838 0
M  V30 3250 N 308.602 -2.9028 0.136359 0
M  V30 3251 H 308.149 -2.41811 0.887999 0
M  V30 3252 H 308.107 -3.06116 -0.716944 0
M  V30 3253 N 311.879 -1.3236 -0.855495 0
M  V30 3254 C 313.29 -1.2056 -1.42556 0
M  V30 3255 C 313.641 0.182209 -1.95352 0
M  V30 3256 O 312.766 1.08088 -1.87472 0
M  V30 3257 C 313.361 -2.1826 -2.59129 0
M  V30 3258 C 311.92 -2.10351 -3.12137 0
M  V30 3259 C 311.067 -2.06674 -1.84882 0
M  V30 3260 H 314.018 -1.442 -0.662727 0
M  V30 3261 H 314.039 -1.78064 -3.36264 0
M  V30 3262 H 313.551 -3.19257 -2.20673 0
M  V30 3263 H 311.652 -1.12599 -3.55179 0
M  V30 3264 H 311.765 -3.00135 -3.73438 0
M  V30 3265 H 310.129 -1.51901 -2.04446 0
M  V30 3266 H 310.912 -3.09451 -1.48643 0
M  V30 3267 N 313.357 1.07166 -1.15556 0
M  V30 3268 C 314.606 1.79181 -0.926132 0
M  V30 3269 C 314.919 1.87768 0.547967 0
M  V30 3270 O 316.125 2.56323 0.895036 0
M  V30 3271 C 314.581 3.22 -1.60761 0
M  V30 3272 C 314.189 3.21607 -3.11886 0
M  V30 3273 C 315.933 3.9861 -1.4598 0
M  V30 3274 C 313.84 4.59092 -3.72812 0
M  V30 3275 H 312.77 0.67154 -0.342856 0
M  V30 3276 H 315.421 1.2027 -1.3859 0
M  V30 3277 H 313.803 3.81115 -1.07553 0
M  V30 3278 H 314.977 2.72127 -3.71865 0
M  V30 3279 H 313.292 2.58495 -3.2645 0
M  V30 3280 H 315.889 5.00225 -1.88888 0
M  V30 3281 H 316.232 4.143 -0.407541 0
M  V30 3282 H 316.765 3.45996 -1.96295 0
M  V30 3283 H 313.504 4.48606 -4.77946 0
M  V30 3284 H 313.024 5.08803 -3.17616 0
M  V30 3285 H 314.703 5.28059 -3.73848 0
M  V30 3286 N 314.835 0.952656 1.25548 0
M  V30 3287 C 316.082 0.606373 1.93208 0
M  V30 3288 C 316.41 -0.85631 1.74636 0
M  V30 3289 O 315.665 -1.62951 1.08376 0
M  V30 3290 C 315.964 0.908818 3.45652 0
M  V30 3291 C 315.63 2.35722 3.84378 0
M  V30 3292 C 314.292 2.75312 3.9466 0
M  V30 3293 C 316.644 3.29793 4.03591 0
M  V30 3294 C 313.972 4.08047 4.21562 0
M  V30 3295 C 316.324 4.62138 4.31985 0
M  V30 3296 C 314.988 5.01528 4.40484 0
M  V30 3297 H 314.258 0.221888 0.706998 0
M  V30 3298 H 316.905 1.20132 1.49133 0
M  V30 3299 H 315.21 0.231456 3.91116 0
M  V30 3300 H 316.907 0.619498 3.96186 0
M  V30 3301 H 313.497 2.04017 3.76928 0
M  V30 3302 H 317.681 3.00397 3.95064 0
M  V30 3303 H 312.937 4.38212 4.26357 0
M  V30 3304 H 317.111 5.35012 4.45797 0
M  V30 3305 H 314.738 6.04406 4.61083 0
M  V30 3306 N 316.313 -1.40141 0.720998 0
M  V30 3307 C 317.56 -2.00787 0.262842 0
M  V30 3308 C 317.888 -1.5718 -1.14563 0
M  V30 3309 O 317.143 -0.785391 -1.79249 0
M  V30 3310 C 317.442 -3.56165 0.296892 0
M  V30 3311 C 317.108 -4.19373 1.65641 0
M  V30 3312 C 315.77 -4.36352 2.02855 0
M  V30 3313 C 318.122 -4.54578 2.54968 0
M  V30 3314 C 315.45 -4.8582 3.28931 0
M  V30 3315 C 317.802 -5.05447 3.80402 0
M  V30 3316 C 316.466 -5.20635 4.17726 0
M  V30 3317 H 315.736 -0.734731 0.0961807 0
M  V30 3318 H 318.383 -1.67673 0.925093 0
M  V30 3319 H 316.688 -3.8922 -0.448932 0
M  V30 3320 H 318.385 -4.00929 -0.0755208 0
M  V30 3321 H 314.975 -4.06549 1.35704 0
M  V30 3322 H 319.159 -4.41091 2.27491 0
M  V30 3323 H 314.415 -4.95764 3.57811 0
M  V30 3324 H 318.589 -5.31663 4.49786 0
M  V30 3325 H 316.216 -5.58728 5.15487 0
M  V30 3326 N 317.792 -0.46758 -1.50504 0
M  V30 3327 C 319.02 0.0864133 -2.06719 0
M  V30 3328 C 319.435 1.33819 -1.33184 0
M  V30 3329 O 318.792 1.78061 -0.400083 0
M  V30 3330 C 318.843 0.378079 -3.59517 0
M  V30 3331 O 318.564 -0.824044 -4.3028 0
M  V30 3332 C 320.065 0.979426 -4.32345 0
M  V30 3333 H 317.285 -0.00551697 -0.670977 0
M  V30 3334 H 319.829 -0.655354 -1.93715 0
M  V30 3335 H 317.984 1.06977 -3.72337 0
M  V30 3336 H 318.398 -0.566518 -5.21432 0
M  V30 3337 H 319.872 1.1333 -5.40241 0
M  V30 3338 H 320.349 1.9686 -3.9261 0
M  V30 3339 H 320.955 0.326216 -4.24047 0
M  V30 3340 N 319.27 1.56325 -0.20005 0
M  V30 3341 C 320.686 1.58839 0.155716 0
M  V30 3342 C 320.886 1.21636 1.60645 0
M  V30 3343 O 319.942 0.941437 2.34293 0
M  V30 3344 C 321.255 3.0032 -0.151124 0
M  V30 3345 C 322.803 3.12866 -0.0916284 0
M  V30 3346 C 323.278 4.56488 -0.371845 0
M  V30 3347 N 324.769 4.62089 -0.320641 0
M  V30 3348 C 325.504 5.71116 -0.511243 0
M  V30 3349 N 325 6.88592 -0.762461 0
M  V30 3350 N 326.793 5.60335 -0.445157 0
M  V30 3351 H 318.944 1.78788 -1.14668 0
M  V30 3352 H 321.207 0.829996 -0.458051 0
M  V30 3353 H 320.913 3.32117 -1.15721 0
M  V30 3354 H 320.787 3.73257 0.543986 0
M  V30 3355 H 323.174 2.80878 0.905065 0
M  V30 3356 H 323.255 2.42304 -0.81989 0
M  V30 3357 H 322.899 4.89189 -1.36588 0
M  V30 3358 H 322.829 5.25246 0.377362 0
M  V30 3359 H 325.32 3.77665 -0.13329 0
M  V30 3360 H 325.633 7.67581 -0.896576 0
M  V30 3361 H 323.978 6.90387 -0.799412 0
M  V30 3362 H 327.169 4.67436 -0.249278 0
M  V30 3363 H 327.342 6.45243 -0.597116 0
M  V30 3364 N 320.748 -0.0735177 1.57428 0
M  V30 3365 C 321.696 -1.10628 2.04607 0
M  V30 3366 C 322.69 -1.40181 0.951088 0
M  V30 3367 O 323.896 -1.39608 1.1362 0
M  V30 3368 H 320.271 -0.374088 0.652351 0
M  V30 3369 H 322.242 -0.682218 2.90497 0
M  V30 3370 C 320.991 -2.41212 2.50423 0
M  V30 3371 H 320.314 -2.19322 3.34272 0
M  V30 3372 H 321.754 -3.11927 2.87189 0
M  V30 3373 C 320.213 -3.0705 1.38644 0
M  V30 3374 O 320.743 -3.95056 0.727582 0
M  V30 3375 N 318.949 -2.67645 1.132 0
M  V30 3376 H 318.496 -1.96169 1.66959 0
M  V30 3377 H 318.454 -3.1202 0.386147 0
M  V30 3378 N 322.226 -1.5378 -0.344866 0
M  V30 3379 C 323.176 -1.78057 -1.42407 0
M  V30 3380 C 324.16 -0.635732 -1.47808 0
M  V30 3381 O 325.352 -0.89508 -1.527 0
M  V30 3382 C 322.481 -1.99242 -2.79566 0
M  V30 3383 C 321.567 -3.19787 -2.78562 0
M  V30 3384 N 321.958 -4.41284 -2.47189 0
M  V30 3385 C 320.256 -3.2093 -3.0971 0
M  V30 3386 C 320.957 -5.23128 -2.54385 0
M  V30 3387 N 319.933 -4.59813 -2.89953 0
M  V30 3388 H 323.735 -2.69588 -1.17046 0
M  V30 3389 H 321.249 -1.52687 -0.553217 0
M  V30 3390 H 323.246 -2.14768 -3.57324 0
M  V30 3391 H 321.906 -1.08953 -3.05875 0
M  V30 3392 H 322.917 -4.68657 -2.20411 0
M  V30 3393 H 319.594 -2.40603 -3.41199 0
M  V30 3394 H 320.984 -6.30096 -2.333 0
M  V30 3395 N 323.704 0.605807 -1.45491 0
M  V30 3396 C 324.634 1.72709 -1.57143 0
M  V30 3397 C 325.615 1.6476 -0.422884 0
M  V30 3398 O 326.8 1.83132 -0.646247 0
M  V30 3399 C 323.93 3.11316 -1.53948 0
M  V30 3400 C 322.884 3.34077 -2.67537 0
M  V30 3401 C 322.21 4.72975 -2.49397 0
M  V30 3402 C 323.51 3.24158 -4.09535 0
M  V30 3403 H 325.204 1.63214 -2.51001 0
M  V30 3404 H 322.75 0.78379 -1.208 0
M  V30 3405 H 324.703 3.89557 -1.60696 0
M  V30 3406 H 323.427 3.21655 -0.566205 0
M  V30 3407 H 322.086 2.58227 -2.6022 0
M  V30 3408 H 321.734 4.8005 -1.50205 0
M  V30 3409 H 321.434 4.8916 -3.25571 0
M  V30 3410 H 322.958 5.53414 -2.58002 0
M  V30 3411 H 324.372 3.92271 -4.18086 0
M  V30 3412 H 322.769 3.51872 -4.86113 0
M  V30 3413 H 323.839 2.2157 -4.31317 0
M  V30 3414 N 325.182 1.32811 0.848464 0
M  V30 3415 C 326.593 1.21315 1.41914 0
M  V30 3416 C 326.944 -0.171847 1.95446 0
M  V30 3417 O 326.069 -1.07093 1.88043 0
M  V30 3418 C 326.664 2.19631 2.57968 0
M  V30 3419 C 325.223 2.12003 3.11017 0
M  V30 3420 C 324.37 2.07651 1.83783 0
M  V30 3421 H 327.321 1.44549 0.655071 0
M  V30 3422 H 327.342 1.79845 3.35315 0
M  V30 3423 H 326.854 3.20423 2.18976 0
M  V30 3424 H 324.955 1.14481 3.54577 0
M  V30 3425 H 325.068 3.02111 3.71841 0
M  V30 3426 H 323.432 1.52983 2.03638 0
M  V30 3427 H 324.215 3.10235 1.47 0
M  V30 3428 N 326.66 -1.06551 1.16123 0
M  V30 3429 C 327.906 -1.79567 0.94252 0
M  V30 3430 C 328.239 -1.86869 -0.528547 0
M  V30 3431 O 327.514 -1.35838 -1.39206 0
M  V30 3432 C 327.797 -3.24195 1.56747 0
M  V30 3433 C 327.65 -3.24989 3.10969 0
M  V30 3434 C 328.969 -4.21678 1.25998 0
M  V30 3435 H 326.088 -0.651883 0.343828 0
M  V30 3436 H 328.73 -1.2463 1.43413 0
M  V30 3437 H 326.88 -3.71107 1.14942 0
M  V30 3438 H 328.552 -2.86258 3.61737 0
M  V30 3439 H 326.795 -2.63716 3.44436 0
M  V30 3440 H 327.466 -4.27005 3.49815 0
M  V30 3441 H 329.942 -3.83196 1.62174 0
M  V30 3442 H 328.818 -5.21146 1.7233 0
M  V30 3443 H 329.079 -4.4174 0.178367 0
M  V30 3444 N 328.138 -0.959301 -1.25041 0
M  V30 3445 C 329.549 -0.65667 -1.74771 0
M  V30 3446 C 329.9 0.827852 -1.77879 0
M  V30 3447 O 329.025 1.64783 -1.40269 0
M  V30 3448 C 329.62 -1.1853 -3.1739 0
M  V30 3449 C 328.179 -0.932734 -3.6466 0
M  V30 3450 C 327.326 -1.32558 -2.43564 0
M  V30 3451 H 330.277 -1.13558 -1.10862 0
M  V30 3452 H 330.298 -0.547582 -3.76539 0
M  V30 3453 H 329.81 -2.26576 -3.15095 0
M  V30 3454 H 327.911 0.13257 -3.72364 0
M  V30 3455 H 328.024 -1.57248 -4.52559 0
M  V30 3456 H 326.388 -0.743956 -2.43593 0
M  V30 3457 H 327.171 -2.41537 -2.43957 0
M  V30 3458 N 329.616 1.39756 -0.72842 0
M  V30 3459 C 330.564 2.32485 -0.0731849 0
M  V30 3460 C 331.558 1.52717 0.733063 0
M  V30 3461 O 332.764 1.68428 0.634988 0
M  V30 3462 H 329.139 0.751984 -0.00486469 0
M  V30 3463 H 331.11 2.85382 -0.871761 0
M  V30 3464 C 329.859 3.37773 0.824908 0
M  V30 3465 H 329.182 3.99227 0.213915 0
M  V30 3466 H 330.622 4.05121 1.25111 0
M  V30 3467 C 329.081 2.74287 1.95622 0
M  V30 3468 O 329.611 2.61618 3.04826 0
M  V30 3469 N 327.817 2.32475 1.74367 0
M  V30 3470 H 327.364 2.4298 0.855494 0
M  V30 3471 H 327.322 1.90337 2.50238 0
M  V30 3472 N 331.094 0.475555 1.50254 0
M  V30 3473 C 332.024 -0.30611 2.31485 0
M  V30 3474 C 333.005 -0.986228 1.38591 0
M  V30 3475 O 334.19 -0.982541 1.67511 0
M  V30 3476 C 331.32 -1.38588 3.1845 0
M  V30 3477 C 330.274 -0.827115 4.19932 0
M  V30 3478 C 329.6 -2.00551 4.95665 0
M  V30 3479 C 330.9 0.16463 5.2204 0
M  V30 3480 H 332.594 0.371866 2.97082 0
M  V30 3481 H 330.14 0.180282 1.42867 0
M  V30 3482 H 332.093 -1.94023 3.74076 0
M  V30 3483 H 330.817 -2.09269 2.50747 0
M  V30 3484 H 329.476 -0.294702 3.65414 0
M  V30 3485 H 329.124 -2.6994 4.2443 0
M  V30 3486 H 328.824 -1.63784 5.64313 0
M  V30 3487 H 330.348 -2.56468 5.54127 0
M  V30 3488 H 331.762 -0.300699 5.72511 0
M  V30 3489 H 330.159 0.446813 5.98434 0
M  V30 3490 H 331.229 1.08905 4.72512 0
M  V30 3491 N 332.573 -1.56217 0.208337 0
M  V30 3492 C 333.85 -1.89739 -0.475234 0
M  V30 3493 C 334.23 -1.1238 -1.78701 0
M  V30 3494 O 333.578 -0.228979 -2.2735 0
M  V30 3495 C 333.788 -3.42289 -0.681101 0
M  V30 3496 C 335.136 -4.12789 -0.994507 0
M  V30 3497 O 336.16 -3.47814 -0.768357 0
M  V30 3498 O 335.019 -5.27649 -1.42299 0
M  V30 3499 H 332.113 -0.788478 -0.249461 0
M  V30 3500 H 334.659 -1.67855 0.249538 0
M  V30 3501 H 333.431 -3.90534 0.244722 0
M  V30 3502 H 333.054 -3.69909 -1.45785 0
M  V30 3503 N 334.051 0.0651679 -1.57465 0
M  V30 3504 C 335.462 0.616213 -1.76238 0
M  V30 3505 C 335.813 1.7756 -0.834689 0
M  V30 3506 O 334.938 2.1639 -0.0204156 0
M  V30 3507 C 335.533 1.12462 -3.1959 0
M  V30 3508 C 334.092 1.62147 -3.39684 0
M  V30 3509 C 333.239 0.543739 -2.71917 0
M  V30 3510 H 336.19 -0.161022 -1.57881 0
M  V30 3511 H 336.211 1.99324 -3.24114 0
M  V30 3512 H 335.723 0.280592 -3.87084 0
M  V30 3513 H 333.824 2.48854 -2.77313 0
M  V30 3514 H 333.937 1.69385 -4.48158 0
M  V30 3515 H 332.301 0.990352 -2.34657 0
M  V30 3516 H 333.084 -0.290216 -3.42071 0
M  V30 3517 N 335.529 1.53961 0.336706 0
M  V30 3518 C 336.806 1.62171 1.09361 0
M  V30 3519 C 337.186 0.447263 2.06307 0
M  V30 3520 O 336.534 -0.559802 2.21537 0
M  V30 3521 C 336.744 2.98565 1.80721 0
M  V30 3522 C 338.092 3.54157 2.34218 0
M  V30 3523 O 339.116 3.00784 1.90807 0
M  V30 3524 O 337.975 4.47528 3.13657 0
M  V30 3525 H 335.069 0.6562 0.503319 0
M  V30 3526 H 337.615 1.66307 0.33765 0
M  V30 3527 H 336.387 3.75482 1.10132 0
M  V30 3528 H 336.01 2.9805 2.63158 0
M  V30 3529 N 337.007 -0.598083 1.45811 0
M  V30 3530 C 338.235 -1.38322 1.53866 0
M  V30 3531 C 338.65 -1.87992 0.174479 0
M  V30 3532 O 338.007 -1.62756 -0.825627 0
M  V30 3533 C 338.058 -2.58125 2.53089 0
M  V30 3534 O 337.779 -2.10516 3.84206 0
M  V30 3535 C 339.28 -3.50869 2.70935 0
M  V30 3536 H 336.5 -0.423093 0.520801 0
M  V30 3537 H 339.044 -0.728527 1.91083 0
M  V30 3538 H 337.199 -3.19615 2.18917 0
M  V30 3539 H 337.613 -2.88425 4.38077 0
M  V30 3540 H 339.087 -4.31451 3.44317 0
M  V30 3541 H 339.564 -4.01822 1.77301 0
M  V30 3542 H 340.17 -2.95225 3.06141 0
M  V30 3543 N 338.485 -1.33259 -0.841409 0
M  V30 3544 C 339.715 -1.2742 -1.62628 0
M  V30 3545 C 340.123 0.157604 -1.88542 0
M  V30 3546 O 339.466 1.10938 -1.46419 0
M  V30 3547 C 339.528 -1.97797 -3.00194 0
M  V30 3548 C 339.192 -3.47109 -2.97261 0
M  V30 3549 C 340.189 -4.42358 -2.73159 0
M  V30 3550 C 337.874 -3.89247 -3.17478 0
M  V30 3551 C 339.868 -5.77718 -2.69296 0
M  V30 3552 C 337.555 -5.24713 -3.13241 0
M  V30 3553 C 338.553 -6.1876 -2.89181 0
M  V30 3554 O 338.241 -7.51745 -2.84843 0
M  V30 3555 H 337.973 -0.440436 -0.512827 0
M  V30 3556 H 340.527 -1.76153 -1.05638 0
M  V30 3557 H 338.757 -1.43652 -3.59028 0
M  V30 3558 H 340.446 -1.8549 -3.61038 0
M  V30 3559 H 341.212 -4.11127 -2.57294 0
M  V30 3560 H 337.091 -3.16456 -3.35226 0
M  V30 3561 H 340.635 -6.51097 -2.50436 0
M  V30 3562 H 336.532 -5.55569 -3.28654 0
M  V30 3563 H 337.3 -7.61262 -3.00702 0
M  V30 3564 N 339.963 1.05934 -1.16686 0
M  V30 3565 C 341.379 1.30938 -0.912542 0
M  V30 3566 C 341.579 1.96803 0.432533 0
M  V30 3567 O 340.635 2.23693 1.17123 0
M  V30 3568 C 341.948 2.18649 -2.06429 0
M  V30 3569 C 343.496 2.32055 -2.10047 0
M  V30 3570 C 343.971 3.23122 -3.24586 0
M  V30 3571 N 345.462 3.30706 -3.24327 0
M  V30 3572 C 346.197 4.01273 -4.09594 0
M  V30 3573 N 345.693 4.74332 -5.04956 0
M  V30 3574 N 347.486 3.97361 -3.97569 0
M  V30 3575 H 339.637 0.615777 -2.03278 0
M  V30 3576 H 341.9 0.334077 -0.887185 0
M  V30 3577 H 341.606 1.77534 -3.03603 0
M  V30 3578 H 341.48 3.19252 -2.00894 0
M  V30 3579 H 343.867 2.72415 -1.13464 0
M  V30 3580 H 343.948 1.31107 -2.19647 0
M  V30 3581 H 343.592 2.83477 -4.2143 0
M  V30 3582 H 343.522 4.24057 -3.12223 0
M  V30 3583 H 346.013 2.78644 -2.55276 0
M  V30 3584 H 346.326 5.25716 -5.6643 0
M  V30 3585 H 344.671 4.733 -5.08933 0
M  V30 3586 H 347.862 3.39405 -3.22369 0
M  V30 3587 H 348.035 4.52089 -4.64241 0
M  V30 3588 N 341.441 0.965919 1.2453 0
M  V30 3589 C 342.371 0.513476 2.27784 0
M  V30 3590 C 343.352 -0.445974 1.6415 0
M  V30 3591 O 344.537 -0.342485 1.91156 0
M  V30 3592 C 341.667 -0.198839 3.4673 0
M  V30 3593 C 340.621 0.676456 4.2262 0
M  V30 3594 C 339.947 -0.167248 5.34438 0
M  V30 3595 C 341.247 1.96017 4.84123 0
M  V30 3596 H 342.941 1.3765 2.65881 0
M  V30 3597 H 340.487 0.663321 1.27813 0
M  V30 3598 H 342.44 -0.526567 4.18097 0
M  V30 3599 H 341.164 -1.0962 3.07654 0
M  V30 3600 H 339.823 0.98743 3.53052 0
M  V30 3601 H 339.471 -1.0647 4.91603 0
M  V30 3602 H 339.171 0.415181 5.86131 0
M  V30 3603 H 340.695 -0.489688 6.08633 0
M  V30 3604 H 342.109 1.69814 5.47573 0
M  V30 3605 H 340.506 2.48918 5.4604 0
M  V30 3606 H 341.576 2.65622 4.05676 0
M  V30 3607 N 342.919 -1.39368 0.735821 0
M  V30 3608 C 343.869 -2.27885 0.0724287 0
M  V30 3609 C 344.853 -1.44301 -0.711756 0
M  V30 3610 O 346.045 -1.67206 -0.58063 0
M  V30 3611 C 343.174 -3.33029 -0.833454 0
M  V30 3612 C 342.26 -4.24078 -0.0433749 0
M  V30 3613 N 342.651 -4.96138 0.983903 0
M  V30 3614 C 340.949 -4.45164 -0.272905 0
M  V30 3615 C 341.65 -5.63069 1.4604 0
M  V30 3616 N 340.626 -5.37991 0.778857 0
M  V30 3617 H 344.428 -2.81052 0.859467 0
M  V30 3618 H 341.942 -1.5206 0.570227 0
M  V30 3619 H 343.939 -3.95311 -1.32419 0
M  V30 3620 H 342.599 -2.81421 -1.61964 0
M  V30 3621 H 343.61 -4.9958 1.36528 0
M  V30 3622 H 340.287 -4.04497 -1.03383 0
M  V30 3623 H 341.677 -6.30755 2.31511 0
M  V30 3624 N 344.397 -0.483516 -1.5 0
M  V30 3625 C 345.643 0.0672592 -2.02688 0
M  V30 3626 C 345.976 1.38247 -1.36387 0
M  V30 3627 O 345.251 1.88131 -0.493675 0
M  V30 3628 C 345.534 0.238109 -3.59312 0
M  V30 3629 C 345.387 -1.099 -4.36168 0
M  V30 3630 C 346.706 0.986916 -4.28892 0
M  V30 3631 H 343.825 0.0229696 -0.736642 0
M  V30 3632 H 346.467 -0.631527 -1.79197 0
M  V30 3633 H 344.617 0.8333 -3.79458 0
M  V30 3634 H 346.289 -1.73172 -4.27562 0
M  V30 3635 H 344.532 -1.69261 -3.99416 0
M  V30 3636 H 345.203 -0.932954 -5.44059 0
M  V30 3637 H 347.679 0.482302 -4.13295 0
M  V30 3638 H 346.555 1.07527 -5.38265 0
M  V30 3639 H 346.816 2.0265 -3.92919 0
M  V30 3640 N 345.875 1.56104 -0.216619 0
M  V30 3641 C 347.121 1.98466 0.417033 0
M  V30 3642 C 347.454 1.10403 1.59765 0
M  V30 3643 O 346.729 0.160632 1.93836 0
M  V30 3644 C 347.012 3.49769 0.85637 0
M  V30 3645 C 346.865 4.48606 -0.327546 0
M  V30 3646 C 348.184 4.05339 1.7143 0
M  V30 3647 H 345.303 0.721551 0.150112 0
M  V30 3648 H 347.945 1.87423 -0.311864 0
M  V30 3649 H 346.095 3.5931 1.47745 0
M  V30 3650 H 347.767 4.5108 -0.965618 0
M  V30 3651 H 346.01 4.22682 -0.975805 0
M  V30 3652 H 346.681 5.51995 0.0227149 0
M  V30 3653 H 349.157 3.98712 1.19031 0
M  V30 3654 H 348.033 5.11533 1.99061 0
M  V30 3655 H 348.294 3.51918 2.67593 0
M  V30 3656 N 347.353 -0.0568162 1.57498 0
M  V30 3657 C 348.601 -0.751617 1.87604 0
M  V30 3658 C 348.922 -1.77351 0.81066 0
M  V30 3659 O 348.192 -1.95254 -0.159018 0
M  V30 3660 H 346.772 -0.280583 0.692302 0
M  V30 3661 H 349.434 -0.0293483 1.94878 0
M  V30 3662 H 348.53 -1.25852 2.856 0
M  V30 3663 N 348.832 -1.54138 -0.328536 0
M  V30 3664 C 349.795 -1.82462 -1.38709 0
M  V30 3665 C 350.795 -0.696229 -1.44946 0
M  V30 3666 O 351.985 -0.964535 -1.4506 0
M  V30 3667 C 349.117 -1.98018 -2.77492 0
M  V30 3668 H 350.31 -2.77037 -1.14851 0
M  V30 3669 H 347.863 -1.45779 -0.563751 0
M  V30 3670 H 348.598 -1.05637 -3.06613 0
M  V30 3671 H 348.383 -2.80124 -2.74359 0
M  V30 3672 H 349.873 -2.21396 -3.54081 0
M  V30 3673 N 350.31 0.590341 -1.46126 0
M  V30 3674 C 351.721 1.17243 -1.45296 0
M  V30 3675 C 352.072 1.95281 -0.189723 0
M  V30 3676 O 351.197 2.04502 0.707674 0
M  V30 3677 C 351.792 2.13284 -2.6324 0
M  V30 3678 C 350.351 2.66832 -2.65476 0
M  V30 3679 C 349.498 1.42557 -2.3785 0
M  V30 3680 H 352.449 0.378692 -1.54116 0
M  V30 3681 H 352.47 2.96619 -2.38323 0
M  V30 3682 H 351.982 1.56459 -3.55165 0
M  V30 3683 H 350.083 3.27548 -1.77603 0
M  V30 3684 H 350.196 3.10088 -3.65215 0
M  V30 3685 H 348.56 1.72107 -1.87753 0
M  V30 3686 H 349.343 0.875741 -3.31942 0
M  V30 3687 N 351.788 1.33704 0.83433 0
M  V30 3688 C 353.036 1.25169 1.58673 0
M  V30 3689 C 353.357 -0.18127 1.94156 0
M  V30 3690 O 352.627 -1.11113 1.6134 0
M  V30 3691 H 351.207 0.4603 0.58833 0
M  V30 3692 H 353.869 1.67478 0.996847 0
M  V30 3693 H 352.965 1.84856 2.51465 0
M  V30 3694 N 353.266 -1.05314 1.17247 0
M  V30 3695 C 354.514 -1.77941 0.958194 0
M  V30 3696 C 354.835 -1.88089 -0.514556 0
M  V30 3697 O 354.105 -1.39676 -1.37359 0
M  V30 3698 H 352.685 -0.659116 0.351533 0
M  V30 3699 H 355.347 -1.27166 1.47699 0
M  V30 3700 H 354.443 -2.79663 1.38546 0
M  V30 3701 N 354.744 -0.972509 -1.24016 0
M  V30 3702 C 355.676 -0.464375 -2.24446 0
M  V30 3703 C 356.689 0.4295 -1.57032 0
M  V30 3704 O 357.878 0.234902 -1.76948 0
M  V30 3705 C 354.978 0.348385 -3.37105 0
M  V30 3706 C 354.151 -0.53673 -4.34094 0
M  V30 3707 C 353.21 0.220838 -5.25736 0
M  V30 3708 O 352.236 -0.386867 -5.67884 0
M  V30 3709 N 353.438 1.50907 -5.60542 0
M  V30 3710 H 356.203 -1.32788 -2.68677 0
M  V30 3711 H 353.764 -0.844877 -1.38107 0
M  V30 3712 H 355.756 0.863341 -3.95384 0
M  V30 3713 H 354.326 1.11285 -2.92121 0
M  V30 3714 H 353.546 -1.23261 -3.74433 0
M  V30 3715 H 354.834 -1.14022 -4.95859 0
M  V30 3716 H 354.232 2.02444 -5.28236 0
M  V30 3717 H 352.789 1.96962 -6.21329 0
M  V30 3718 N 356.222 1.38976 -0.743202 0
M  V30 3719 C 357.447 2.05161 -0.303936 0
M  V30 3720 C 357.872 1.55677 1.05576 0
M  V30 3721 O 357.23 0.704131 1.67068 0
M  V30 3722 C 357.278 3.59138 -0.324373 0
M  V30 3723 O 356.382 4.06668 0.685204 0
M  V30 3724 H 355.723 0.649815 -0.136518 0
M  V30 3725 H 358.253 1.77852 -1.01142 0
M  V30 3726 H 358.263 4.07639 -0.171618 0
M  V30 3727 H 356.938 3.94515 -1.31647 0
M  V30 3728 H 355.515 3.69561 0.497913 0
M  V30 3729 N 357.7 0.491464 1.49741 0
M  V30 3730 C 358.63 -0.28154 2.31796 0
M  V30 3731 C 359.611 -0.971473 1.3963 0
M  V30 3732 O 360.796 -0.964719 1.68543 0
M  V30 3733 C 357.926 -1.35203 3.19902 0
M  V30 3734 C 356.88 -0.782529 4.20786 0
M  V30 3735 C 356.206 -1.95283 4.97764 0
M  V30 3736 C 357.506 0.21999 5.21837 0
M  V30 3737 H 359.2 0.403355 2.96671 0
M  V30 3738 H 356.746 0.195425 1.42668 0
M  V30 3739 H 358.699 -1.90045 3.76113 0
M  V30 3740 H 357.423 -2.06598 2.52953 0
M  V30 3741 H 356.082 -0.255928 3.65706 0
M  V30 3742 H 355.73 -2.65423 4.2727 0
M  V30 3743 H 355.43 -1.57789 5.66018 0
M  V30 3744 H 356.954 -2.50577 5.56816 0
M  V30 3745 H 358.368 -0.23996 5.72798 0
M  V30 3746 H 356.765 0.51026 5.97927 0
M  V30 3747 H 357.835 1.13911 4.7133 0
M  V30 3748 N 359.178 -1.55987 0.224894 0
M  V30 3749 C 360.403 -2.03232 -0.41369 0
M  V30 3750 C 360.828 -1.10359 -1.52323 0
M  V30 3751 O 360.186 -0.092395 -1.81064 0
M  V30 3752 C 360.234 -3.48682 -0.919405 0
M  V30 3753 O 359.338 -3.58947 -2.03054 0
M  V30 3754 H 358.679 -0.657428 -0.0931903 0
M  V30 3755 H 361.209 -2.01679 0.34451 0
M  V30 3756 H 361.219 -3.8907 -1.22835 0
M  V30 3757 H 359.894 -4.15761 -0.107339 0
M  V30 3758 H 358.471 -3.30448 -1.72796 0
M  V30 3759 N 360.656 0.0484629 -1.57525 0
M  V30 3760 C 361.586 1.0549 -2.08313 0
M  V30 3761 C 362.567 1.38929 -0.981463 0
M  V30 3762 O 363.752 1.48151 -1.25558 0
M  V30 3763 C 360.882 2.36162 -2.54646 0
M  V30 3764 C 359.836 2.17016 -3.68901 0
M  V30 3765 C 359.162 3.53278 -4.01371 0
M  V30 3766 C 360.462 1.57219 -4.98076 0
M  V30 3767 H 362.156 0.632195 -2.92649 0
M  V30 3768 H 359.702 0.302654 -1.40784 0
M  V30 3769 H 361.655 3.06882 -2.88793 0
M  V30 3770 H 360.379 2.80456 -1.67368 0
M  V30 3771 H 359.038 1.48733 -3.35073 0
M  V30 3772 H 358.686 3.95185 -3.11188 0
M  V30 3773 H 358.386 3.41299 -4.78318 0
M  V30 3774 H 359.91 4.25391 -4.38035 0
M  V30 3775 H 361.324 2.17832 -5.30304 0
M  V30 3776 H 359.721 1.55871 -5.79503 0
M  V30 3777 H 360.791 0.535956 -4.81929 0
M  V30 3778 N 362.134 1.5431 0.320358 0
M  V30 3779 C 363.359 1.76954 1.08175 0
M  V30 3780 C 363.784 0.518193 1.80821 0
M  V30 3781 O 363.142 -0.530411 1.73368 0
M  V30 3782 C 363.19 2.96451 2.05303 0
M  V30 3783 O 362.294 2.68221 3.13259 0
M  V30 3784 H 361.635 0.586275 0.311733 0
M  V30 3785 H 364.165 2.01342 0.363676 0
M  V30 3786 H 364.175 3.23887 2.48116 0
M  V30 3787 H 362.85 3.87196 1.51829 0
M  V30 3788 H 361.427 2.51744 2.75099 0
M  V30 3789 N 363.613 -0.582584 1.46437 0
M  V30 3790 C 364.543 -1.70187 1.59871 0
M  V30 3791 C 365.524 -1.64066 0.449042 0
M  V30 3792 O 366.709 -1.82081 0.6753 0
M  V30 3793 C 363.839 -3.08827 1.58881 0
M  V30 3794 C 362.793 -3.29779 2.72819 0
M  V30 3795 C 362.119 -4.68947 2.5689 0
M  V30 3796 C 363.419 -3.17601 4.1464 0
M  V30 3797 H 365.113 -1.592 2.53566 0
M  V30 3798 H 362.659 -0.764472 1.22032 0
M  V30 3799 H 364.612 -3.86951 1.66873 0
M  V30 3800 H 363.336 -3.20713 0.617306 0
M  V30 3801 H 361.995 -2.54054 2.64296 0
M  V30 3802 H 361.643 -4.77599 1.57823 0
M  V30 3803 H 361.343 -4.83919 3.33312 0
M  V30 3804 H 362.867 -5.4924 2.66773 0
M  V30 3805 H 364.281 -3.8557 4.24274 0
M  V30 3806 H 362.678 -3.44094 4.9165 0
M  V30 3807 H 363.748 -2.14681 4.34788 0
M  V30 3808 N 365.091 -1.34144 -0.827227 0
M  V30 3809 C 366.368 -1.16844 -1.56865 0
M  V30 3810 C 366.748 0.260654 -2.09485 0
M  V30 3811 O 366.096 1.26138 -1.9053 0
M  V30 3812 C 366.306 -2.21939 -2.6934 0
M  V30 3813 C 367.654 -2.56695 -3.3822 0
M  V30 3814 O 368.678 -2.20695 -2.79593 0
M  V30 3815 O 367.537 -3.18518 -4.44082 0
M  V30 3816 H 364.631 -0.452669 -0.692112 0
M  V30 3817 H 367.177 -1.45763 -0.868973 0
M  V30 3818 H 365.949 -3.17882 -2.28182 0
M  V30 3819 H 365.572 -1.94172 -3.46962 0
M  V30 3820 N 366.569 1.04691 -1.17803 0
M  V30 3821 C 367.846 1.7472 -0.879328 0
M  V30 3822 C 368.226 2.01812 0.619271 0
M  V30 3823 O 367.574 1.65824 1.57209 0
M  V30 3824 C 367.784 3.03686 -1.71976 0
M  V30 3825 C 369.132 3.77542 -1.94286 0
M  V30 3826 O 370.156 3.13569 -1.68976 0
M  V30 3827 O 369.015 4.92506 -2.36855 0
M  V30 3828 H 366.109 0.760011 -0.326056 0
M  V30 3829 H 368.655 1.10813 -1.28525 0
M  V30 3830 H 367.427 2.79754 -2.73594 0
M  V30 3831 H 367.05 3.75332 -1.31194 0
M  V30 3832 N 368.047 0.979072 1.23499 0
M  V30 3833 C 368.977 0.537606 2.27227 0
M  V30 3834 C 369.958 -0.428539 1.64613 0
M  V30 3835 O 371.143 -0.322191 1.91509 0
M  V30 3836 C 368.273 -0.162052 3.46922 0
M  V30 3837 C 367.227 0.721242 4.21879 0
M  V30 3838 C 366.553 -0.110555 5.34586 0
M  V30 3839 C 367.853 2.01141 4.82016 0
M  V30 3840 H 369.547 1.40462 2.64406 0
M  V30 3841 H 367.093 0.67684 1.27102 0
M  V30 3842 H 369.046 -0.482192 4.18632 0
M  V30 3843 H 367.77 -1.06351 3.08799 0
M  V30 3844 H 366.429 1.02482 3.51984 0
M  V30 3845 H 366.077 -1.0125 4.92704 0
M  V30 3846 H 365.777 0.477325 5.85658 0
M  V30 3847 H 367.301 -0.425107 6.09118 0
M  V30 3848 H 368.715 1.75612 5.45741 0
M  V30 3849 H 367.112 2.54695 5.43369 0
M  V30 3850 H 368.182 2.69909 4.02836 0
M  V30 3851 N 369.525 -1.3858 0.750561 0
M  V30 3852 C 370.475 -2.27795 0.0965949 0
M  V30 3853 C 371.459 -1.45048 -0.696411 0
M  V30 3854 O 372.651 -1.67812 -0.562863 0
M  V30 3855 C 369.78 -3.33894 -0.798085 0
M  V30 3856 C 368.866 -4.241 0.0016067 0
M  V30 3857 N 369.257 -4.95067 1.03647 0
M  V30 3858 C 367.555 -4.45429 -0.225674 0
M  V30 3859 C 368.256 -5.61489 1.52004 0
M  V30 3860 N 367.232 -5.37135 0.835874 0
M  V30 3861 H 371.034 -2.80125 0.889228 0
M  V30 3862 H 368.548 -1.51446 0.586323 0
M  V30 3863 H 370.545 -3.96693 -1.28219 0
M  V30 3864 H 369.205 -2.83123 -1.5897 0
M  V30 3865 H 370.216 -4.98104 1.41819 0
M  V30 3866 H 366.893 -4.05571 -0.990872 0
M  V30 3867 H 368.283 -6.28264 2.38188 0
M  V30 3868 N 371.003 -0.499398 -1.49478 0
M  V30 3869 C 371.951 0.293604 -2.3074 0
M  V30 3870 C 372.945 0.96427 -1.39277 0
M  V30 3871 O 374.151 0.892141 -1.56336 0
M  V30 3872 H 370.526 0.113541 -0.743379 0
M  V30 3873 H 372.497 -0.411772 -2.95545 0
M  V30 3874 C 371.246 1.3462 -3.20582 0
M  V30 3875 H 370.569 0.83954 -3.90886 0
M  V30 3876 H 372.009 1.87308 -3.80384 0
M  V30 3877 C 370.468 2.36351 -2.40083 0
M  V30 3878 O 370.998 3.422 -2.10385 0
M  V30 3879 N 369.204 2.0878 -2.02137 0
M  V30 3880 H 368.751 1.22723 -2.26488 0
M  V30 3881 H 368.709 2.77075 -1.48583 0
M  V30 3882 N 372.481 1.55866 -0.233164 0
M  V30 3883 C 373.728 1.98603 0.395374 0
M  V30 3884 C 374.056 1.12105 1.58942 0
M  V30 3885 O 373.311 0.168656 1.94972 0
M  V30 3886 C 373.61 3.46856 0.861724 0
M  V30 3887 C 373.276 4.50348 -0.223066 0
M  V30 3888 C 371.938 4.78371 -0.521038 0
M  V30 3889 C 374.29 5.12355 -0.956124 0
M  V30 3890 C 371.618 5.6568 -1.55638 0
M  V30 3891 C 373.97 6.00786 -1.98089 0
M  V30 3892 C 372.634 6.27148 -2.28565 0
M  V30 3893 H 371.904 0.726739 0.144677 0
M  V30 3894 H 374.551 1.88491 -0.338114 0
M  V30 3895 H 372.856 3.5423 1.67418 0
M  V30 3896 H 374.553 3.77302 1.35809 0
M  V30 3897 H 371.143 4.28596 0.0193234 0
M  V30 3898 H 375.327 4.90765 -0.739166 0
M  V30 3899 H 370.583 5.84365 -1.798 0
M  V30 3900 H 374.757 6.4788 -2.55391 0
M  V30 3901 H 372.384 6.94597 -3.08932 0
M  V30 3902 N 373.959 -0.0401083 1.57549 0
M  V30 3903 C 375.37 -0.588097 1.77196 0
M  V30 3904 C 375.721 -1.76209 0.862832 0
M  V30 3905 O 374.846 -2.16331 0.0548389 0
M  V30 3906 C 375.441 -1.07363 3.21339 0
M  V30 3907 C 374 -1.56723 3.42221 0
M  V30 3908 C 373.147 -0.50041 2.72747 0
M  V30 3909 H 376.098 0.186119 1.57605 0
M  V30 3910 H 376.119 -1.94143 3.27244 0
M  V30 3911 H 375.631 -0.218975 3.87482 0
M  V30 3912 H 373.732 -2.4441 2.81237 0
M  V30 3913 H 373.845 -1.62234 4.50796 0
M  V30 3914 H 372.209 -0.952894 2.36203 0
M  V30 3915 H 372.992 0.344599 3.41566 0
M  V30 3916 N 375.437 -1.54477 -0.31217 0
M  V30 3917 C 376.853 -1.45442 -0.657185 0
M  V30 3918 C 377.053 -0.63653 -1.91182 0
M  V30 3919 O 376.109 -0.139815 -2.52113 0
M  V30 3920 C 377.422 -2.89287 -0.82058 0
M  V30 3921 C 378.97 -2.9926 -0.917188 0
M  V30 3922 C 379.445 -4.44279 -1.11267 0
M  V30 3923 N 380.936 -4.4794 -1.17914 0
M  V30 3924 C 381.671 -5.57318 -1.34848 0
M  V30 3925 N 381.167 -6.76642 -1.48752 0
M  V30 3926 N 382.96 -5.44986 -1.37647 0
M  V30 3927 H 375.111 -2.06129 0.512313 0
M  V30 3928 H 377.374 -0.933088 0.167485 0
M  V30 3929 H 377.08 -3.51687 0.0302604 0
M  V30 3930 H 376.954 -3.36061 -1.71298 0
M  V30 3931 H 379.341 -2.36981 -1.75852 0
M  V30 3932 H 379.422 -2.558 -0.00101257 0
M  V30 3933 H 379.066 -5.07149 -0.27614 0
M  V30 3934 H 378.996 -4.85359 -2.04289 0
M  V30 3935 H 381.487 -3.61969 -1.08567 0
M  V30 3936 H 381.8 -7.55758 -1.61397 0
M  V30 3937 H 380.145 -6.79529 -1.45828 0
M  V30 3938 H 383.336 -4.50715 -1.26388 0
M  V30 3939 H 383.509 -6.3028 -1.50501 0
M  V30 3940 N 376.915 0.57481 -1.46744 0
M  V30 3941 C 378.145 1.35659 -1.55821 0
M  V30 3942 C 378.553 1.88129 -0.201036 0
M  V30 3943 O 377.896 1.64723 0.813134 0
M  V30 3944 C 377.958 2.57473 -2.50894 0
M  V30 3945 C 377.622 2.26415 -3.9697 0
M  V30 3946 C 378.619 1.84771 -4.85958 0
M  V30 3947 C 376.304 2.38316 -4.42166 0
M  V30 3948 C 378.298 1.55434 -6.18158 0
M  V30 3949 C 375.985 2.08591 -5.74398 0
M  V30 3950 C 376.983 1.67216 -6.62214 0
M  V30 3951 O 376.671 1.37859 -7.91991 0
M  V30 3952 H 376.403 0.420496 -0.529301 0
M  V30 3953 H 378.957 0.704967 -1.92923 0
M  V30 3954 H 377.187 3.25468 -2.08824 0
M  V30 3955 H 378.876 3.19546 -2.50291 0
M  V30 3956 H 379.642 1.75085 -4.52295 0
M  V30 3957 H 375.521 2.69483 -3.74032 0
M  V30 3958 H 379.065 1.23065 -6.86659 0
M  V30 3959 H 374.962 2.17905 -6.07608 0
M  V30 3960 H 375.73 1.51638 -8.04331 0
M  V30 3961 N 378.394 1.34581 0.820102 0
M  V30 3962 C 379.304 1.28471 1.96297 0
M  V30 3963 C 380.32 0.191902 1.72939 0
M  V30 3964 O 381.496 0.418879 1.96996 0
M  V30 3965 C 378.561 1.04281 3.30645 0
M  V30 3966 C 377.622 2.22745 3.66992 0
M  V30 3967 C 376.855 1.997 4.9493 0
M  V30 3968 O 377.078 0.956656 5.6232 0
M  V30 3969 O 376.012 2.86723 5.2922 0
M  V30 3970 H 379.838 2.24624 2.04396 0
M  V30 3971 H 377.423 1.14816 0.955913 0
M  V30 3972 H 379.305 0.925841 4.11104 0
M  V30 3973 H 377.98 0.111697 3.23507 0
M  V30 3974 H 376.887 2.40003 2.86966 0
M  V30 3975 H 378.22 3.14257 3.78819 0
M  V30 3976 N 379.872 -1.04064 1.18357 0
M  V30 3977 C 381.121 -1.76662 0.973313 0
M  V30 3978 C 381.434 -1.89154 -0.497991 0
M  V30 3979 O 382.64 -2.58606 -0.826762 0
M  V30 3980 C 381.096 -3.17624 1.69242 0
M  V30 3981 C 380.704 -3.13225 3.20303 0
M  V30 3982 C 382.448 -3.946 1.56497 0
M  V30 3983 C 380.355 -4.49046 3.84853 0
M  V30 3984 H 379.285 -0.662214 0.36054 0
M  V30 3985 H 381.936 -1.16553 1.41731 0
M  V30 3986 H 380.318 -3.78129 1.1762 0
M  V30 3987 H 381.492 -2.62172 3.78949 0
M  V30 3988 H 379.807 -2.49749 3.33189 0
M  V30 3989 H 382.404 -4.95042 2.02084 0
M  V30 3990 H 382.747 -4.13074 0.517243 0
M  V30 3991 H 383.28 -3.4067 2.05399 0
M  V30 3992 H 380.019 -4.35777 4.89672 0
M  V30 3993 H 379.539 -5.00203 3.30994 0
M  V30 3994 H 381.218 -5.17961 3.87718 0
M  V30 3995 N 381.35 -0.985608 -1.22978 0
M  V30 3996 C 382.578 -0.675582 -1.95559 0
M  V30 3997 C 382.993 0.758413 -1.72897 0
M  V30 3998 O 382.35 1.51094 -1.02357 0
M  V30 3999 C 382.401 -0.96293 -3.48439 0
M  V30 4000 O 382.122 -2.34057 -3.70336 0
M  V30 4001 C 383.623 -0.669585 -4.38214 0
M  V30 4002 H 380.843 -0.250523 -0.622478 0
M  V30 4003 H 383.387 -1.3184 -1.56328 0
M  V30 4004 H 381.542 -0.366033 -3.85667 0
M  V30 4005 H 381.956 -2.43424 -4.64591 0
M  V30 4006 H 383.43 -0.920967 -5.44263 0
M  V30 4007 H 383.907 0.396383 -4.37408 0
M  V30 4008 H 384.513 -1.2472 -4.06602 0
M  V30 4009 N 382.828 1.3818 -0.7579 0
M  V30 4010 C 384.074 2.00316 -0.316453 0
M  V30 4011 C 384.407 1.60026 1.10025 0
M  V30 4012 O 383.682 0.839835 1.75434 0
M  V30 4013 C 383.965 3.57349 -0.444245 0
M  V30 4014 C 383.818 4.07591 -1.90236 0
M  V30 4015 C 385.137 4.3981 0.1598 0
M  V30 4016 H 382.256 0.727741 -0.116459 0
M  V30 4017 H 384.898 1.6406 -0.958352 0
M  V30 4018 H 383.048 3.88365 0.102233 0
M  V30 4019 H 384.72 3.87199 -2.50748 0
M  V30 4020 H 382.963 3.60297 -2.41595 0
M  V30 4021 H 383.634 5.16677 -1.94291 0
M  V30 4022 H 386.11 4.14971 -0.306314 0
M  V30 4023 H 384.986 5.48885 0.0401675 0
M  V30 4024 H 385.247 4.24102 1.24859 0
M  V30 4025 N 384.306 0.507319 1.49211 0
M  V30 4026 C 385.534 -0.0315749 2.06876 0
M  V30 4027 C 385.949 -1.30241 1.36685 0
M  V30 4028 O 385.306 -1.76937 0.447152 0
M  V30 4029 C 385.357 -0.282627 3.60393 0
M  V30 4030 O 385.078 0.937835 4.27944 0
M  V30 4031 C 386.579 -0.864453 4.3479 0
M  V30 4032 H 383.799 0.0233048 0.670595 0
M  V30 4033 H 386.343 0.706484 1.91909 0
M  V30 4034 H 384.498 -0.97068 3.75042 0
M  V30 4035 H 384.912 0.704567 5.19746 0
M  V30 4036 H 386.386 -0.989664 5.43056 0
M  V30 4037 H 386.863 -1.86382 3.97692 0
M  V30 4038 H 387.469 -0.213672 4.24763 0
M  V30 4039 N 385.784 -1.5574 0.241426 0
M  V30 4040 C 386.714 -2.24133 -0.654722 0
M  V30 4041 C 387.695 -1.21974 -1.1856 0
M  V30 4042 O 388.88 -1.50612 -1.22595 0
M  V30 4043 C 386.01 -2.93659 -1.85423 0
M  V30 4044 C 384.964 -4.0246 -1.45636 0
M  V30 4045 C 384.29 -4.59383 -2.73626 0
M  V30 4046 C 385.59 -5.18468 -0.631506 0
M  V30 4047 H 387.284 -2.99281 -0.0844353 0
M  V30 4048 H 384.83 -1.43947 -0.0391707 0
M  V30 4049 H 386.783 -3.40203 -2.48676 0
M  V30 4050 H 385.507 -2.15991 -2.44981 0
M  V30 4051 H 384.166 -3.56676 -0.847202 0
M  V30 4052 H 383.814 -3.78422 -3.3137 0
M  V30 4053 H 383.514 -5.32826 -2.4773 0
M  V30 4054 H 385.038 -5.08658 -3.37786 0
M  V30 4055 H 386.452 -5.61272 -1.1682 0
M  V30 4056 H 384.849 -5.98266 -0.468831 0
M  V30 4057 H 385.919 -4.8358 0.357506 0
M  V30 4058 N 387.262 0.0317525 -1.57568 0
M  V30 4059 C 388.194 1.06073 -2.03178 0
M  V30 4060 C 389.207 1.32627 -0.944132 0
M  V30 4061 O 390.396 1.30162 -1.22148 0
M  V30 4062 C 387.496 2.40297 -2.38978 0
M  V30 4063 C 386.669 2.33137 -3.70089 0
M  V30 4064 C 385.728 3.49787 -3.9311 0
M  V30 4065 O 384.754 3.29403 -4.64201 0
M  V30 4066 N 385.956 4.71562 -3.38541 0
M  V30 4067 H 388.721 0.672006 -2.92069 0
M  V30 4068 H 386.282 0.219745 -1.60402 0
M  V30 4069 H 388.274 3.1705 -2.51518 0
M  V30 4070 H 386.844 2.71024 -1.55771 0
M  V30 4071 H 386.064 1.415 -3.67928 0
M  V30 4072 H 387.352 2.25493 -4.56104 0
M  V30 4073 H 386.75 4.91024 -2.80912 0
M  V30 4074 H 385.307 5.45689 -3.56464 0
M  V30 4075 N 388.74 1.54641 0.303973 0
M  V30 4076 C 389.98 1.75516 1.04755 0
M  V30 4077 C 390.344 0.528211 1.84591 0
M  V30 4078 O 391.545 0.614645 2.61678 0
M  V30 4079 C 389.816 3.00685 1.93193 0
M  V30 4080 S 391.375 3.42549 2.74237 0
M  V30 4081 H 388.193 0.616987 0.353339 0
M  V30 4082 H 390.795 1.92842 0.321292 0
M  V30 4083 H 389.499 3.8811 1.33411 0
M  V30 4084 H 389.03 2.85937 2.70191 0
M  V30 4085 H 391.045 2.99386 3.95705 0
M  V30 4086 N 390.218 -0.567019 1.47046 0
M  V30 4087 C 391.181 -1.65696 1.58359 0
M  V30 4088 C 392.181 -1.54097 0.459441 0
M  V30 4089 O 393.371 -1.58432 0.724225 0
M  V30 4090 C 390.503 -3.05197 1.51879 0
M  V30 4091 H 391.696 -1.57019 2.5551 0
M  V30 4092 H 389.249 -0.786148 1.3509 0
M  V30 4093 H 389.984 -3.19417 0.560673 0
M  V30 4094 H 389.769 -3.15025 2.33455 0
M  V30 4095 H 391.259 -3.84511 1.62913 0
M  V30 4096 N 391.696 -1.35014 -0.812953 0
M  V30 4097 C 392.944 -1.27678 -1.56661 0
M  V30 4098 C 393.265 0.150359 -1.94419 0
M  V30 4099 O 392.535 1.08532 -1.63088 0
M  V30 4100 H 391.115 -0.469602 -0.580933 0
M  V30 4101 H 393.777 -1.69043 -0.970076 0
M  V30 4102 H 392.873 -1.88833 -2.48492 0
M  V30 4103 N 393.175 1.03435 -1.18907 0
M  V30 4104 C 394.123 2.13703 -0.918353 0
M  V30 4105 C 395.117 1.68947 0.123767 0
M  V30 4106 O 396.323 1.79983 -0.0249701 0
M  V30 4107 H 392.698 0.698112 -0.279542 0
M  V30 4108 H 394.669 2.33731 -1.85506 0
M  V30 4109 C 393.418 3.44542 -0.467532 0
M  V30 4110 H 392.741 3.79394 -1.26095 0
M  V30 4111 H 394.181 4.22812 -0.317164 0
M  V30 4112 C 392.64 3.26829 0.817588 0
M  V30 4113 O 393.17 3.54975 1.88031 0
M  V30 4114 N 391.376 2.80139 0.772677 0
M  V30 4115 H 390.923 2.57434 -0.0923883 0
M  V30 4116 H 390.881 2.68668 1.63294 0
M  V30 4117 N 394.653 0.992116 1.22453 0
M  V30 4118 C 396.069 0.702713 1.43297 0
M  V30 4119 C 396.269 -0.726909 1.87932 0
M  V30 4120 O 395.325 -1.49792 2.0327 0
M  V30 4121 C 396.638 1.70762 2.47509 0
M  V30 4122 C 398.186 1.72298 2.61309 0
M  V30 4123 C 398.661 2.71649 3.68742 0
M  V30 4124 N 400.152 2.70239 3.76199 0
M  V30 4125 C 400.887 3.43778 4.58917 0
M  V30 4126 N 400.383 4.26914 5.45633 0
M  V30 4127 N 402.176 3.32487 4.5322 0
M  V30 4128 H 394.327 1.91543 0.917871 0
M  V30 4129 H 396.59 0.826031 0.465162 0
M  V30 4130 H 396.296 2.73059 2.21657 0
M  V30 4131 H 396.17 1.49985 3.46099 0
M  V30 4132 H 398.557 0.706989 2.86506 0
M  V30 4133 H 398.638 1.97143 1.62997 0
M  V30 4134 H 398.282 3.73397 3.44292 0
M  V30 4135 H 398.212 2.44074 4.66622 0
M  V30 4136 H 400.703 2.09912 3.14237 0
M  V30 4137 H 401.016 4.79855 6.05771 0
M  V30 4138 H 399.361 4.31002 5.45218 0
M  V30 4139 H 402.552 2.6698 3.84499 0
M  V30 4140 H 402.725 3.90058 5.17454 0
M  V30 4141 N 396.131 -1.37776 0.765217 0
M  V30 4142 C 397.547 -1.53297 0.444108 0
M  V30 4143 C 397.747 -1.72515 -1.04119 0
M  V30 4144 O 396.803 -1.74278 -1.82711 0
M  V30 4145 C 398.116 -2.73328 1.25349 0
M  V30 4146 C 399.664 -2.87185 1.24473 0
M  V30 4147 C 400.139 -4.10191 2.03733 0
M  V30 4148 N 401.63 -4.17291 2.01053 0
M  V30 4149 C 402.365 -5.11488 2.59166 0
M  V30 4150 N 401.861 -6.11285 3.26041 0
M  V30 4151 N 403.654 -5.03924 2.49032 0
M  V30 4152 H 395.805 -1.23552 1.72768 0
M  V30 4153 H 398.068 -0.601103 0.733062 0
M  V30 4154 H 397.774 -2.6557 2.30577 0
M  V30 4155 H 397.648 -3.66834 0.87823 0
M  V30 4156 H 400.035 -2.94418 0.20047 0
M  V30 4157 H 400.116 -1.94657 1.65959 0
M  V30 4158 H 399.76 -4.0372 3.08176 0
M  V30 4159 H 399.69 -5.01821 1.59633 0
M  V30 4160 H 402.181 -3.45825 1.5236 0
M  V30 4161 H 402.494 -6.79678 3.67774 0
M  V30 4162 H 400.839 -6.11583 3.30138 0
M  V30 4163 H 404.03 -4.24902 1.96407 0
M  V30 4164 H 404.203 -5.77152 2.94617 0
M  V30 4165 N 397.609 -0.515225 -1.4894 0
M  V30 4166 C 398.834 0.022727 -2.07388 0
M  V30 4167 C 399.259 1.2876 -1.37122 0
M  V30 4168 O 398.617 1.76067 -0.432431 0
M  V30 4169 C 398.665 0.244869 -3.59768 0
M  V30 4170 O 397.769 1.31667 -3.90817 0
M  V30 4171 H 397.11 -0.0325506 -0.663202 0
M  V30 4172 H 399.64 -0.718918 -1.91553 0
M  V30 4173 H 399.65 0.47205 -4.0526 0
M  V30 4174 H 398.325 -0.679194 -4.10317 0
M  V30 4175 H 396.902 1.07331 -3.5712 0
M  V30 4176 N 399.087 1.5561 -0.249682 0
M  V30 4177 C 399.997 2.25143 0.659375 0
M  V30 4178 C 401.013 1.2685 1.19101 0
M  V30 4179 O 402.189 1.59732 1.22669 0
M  V30 4180 C 399.254 2.93945 1.8384 0
M  V30 4181 C 398.315 4.07655 1.34596 0
M  V30 4182 C 397.548 4.73167 2.46878 0
M  V30 4183 O 397.771 4.37768 3.65671 0
M  V30 4184 O 396.705 5.61623 2.16478 0
M  V30 4185 H 400.531 3.03545 0.0968698 0
M  V30 4186 H 398.116 1.49389 -0.018074 0
M  V30 4187 H 399.998 3.37271 2.52638 0
M  V30 4188 H 398.673 2.18481 2.38847 0
M  V30 4189 H 397.58 3.68839 0.625174 0
M  V30 4190 H 398.913 4.84946 0.841941 0
M  V30 4191 N 400.565 -0.0233959 1.57583 0
M  V30 4192 C 401.498 -1.05549 2.02323 0
M  V30 4193 C 402.476 -1.34843 0.908626 0
M  V30 4194 O 403.66 -1.47404 1.17491 0
M  V30 4195 C 400.787 -2.38885 2.40108 0
M  V30 4196 C 399.833 -2.2541 3.62067 0
M  V30 4197 S 400.666 -1.60217 5.1097 0
M  V30 4198 C 401.822 -2.95032 5.52003 0
M  V30 4199 H 402.055 -0.674435 2.89549 0
M  V30 4200 H 399.588 -0.23355 1.52623 0
M  V30 4201 H 401.546 -3.15562 2.62547 0
M  V30 4202 H 400.207 -2.74137 1.53323 0
M  V30 4203 H 399.4 -3.23854 3.86179 0
M  V30 4204 H 399.002 -1.56876 3.39508 0
M  V30 4205 H 401.294 -3.91357 5.53033 0
M  V30 4206 H 402.237 -2.75646 6.52246 0
M  V30 4207 H 402.645 -2.97865 4.79517 0
M  V30 4208 N 402.043 -1.548 -0.295768 0
M  V30 4209 C 403.271 -1.78327 -1.04914 0
M  V30 4210 C 403.686 -0.545316 -1.80753 0
M  V30 4211 O 403.043 0.485013 -1.75937 0
M  V30 4212 C 403.094 -2.99418 -2.02561 0
M  V30 4213 O 402.815 -4.18431 -1.29798 0
M  V30 4214 C 404.316 -3.35375 -2.89895 0
M  V30 4215 H 401.536 -0.594618 -0.310918 0
M  V30 4216 H 404.08 -2.01763 -0.333454 0
M  V30 4217 H 402.235 -2.78175 -2.69624 0
M  V30 4218 H 402.649 -4.86736 -1.95419 0
M  V30 4219 H 404.123 -4.23332 -3.54251 0
M  V30 4220 H 404.6 -2.53761 -3.58472 0
M  V30 4221 H 405.206 -3.58796 -2.28355 0
M  V30 4222 N 403.521 0.559213 -1.47345 0
M  V30 4223 C 404.453 1.68161 -1.55738 0
M  V30 4224 C 405.466 1.56636 -0.443744 0
M  V30 4225 O 406.655 1.6363 -0.713258 0
M  V30 4226 C 403.755 3.06611 -1.4437 0
M  V30 4227 C 402.928 3.4391 -2.70268 0
M  V30 4228 C 401.987 4.61515 -2.52765 0
M  V30 4229 O 401.013 4.66197 -3.26572 0
M  V30 4230 N 402.215 5.57883 -1.6046 0
M  V30 4231 H 404.98 1.61408 -2.52522 0
M  V30 4232 H 402.541 0.7458 -1.43699 0
M  V30 4233 H 404.533 3.83117 -1.30398 0
M  V30 4234 H 403.103 3.07602 -0.556766 0
M  V30 4235 H 402.323 2.56873 -2.99015 0
M  V30 4236 H 403.611 3.65605 -3.53851 0
M  V30 4237 H 403.009 5.56855 -0.996422 0
M  V30 4238 H 401.566 6.33723 -1.52441 0
M  V30 4239 N 404.999 1.35443 0.805782 0
M  V30 4240 C 406.245 1.28952 1.56522 0
M  V30 4241 C 406.578 -0.135597 1.93726 0
M  V30 4242 O 405.853 -1.08516 1.61414 0
M  V30 4243 C 406.136 2.19678 2.85331 0
M  V30 4244 C 405.989 3.7081 2.54598 0
M  V30 4245 C 407.308 2.09495 3.8704 0
M  V30 4246 H 404.427 0.469764 0.567883 0
M  V30 4247 H 407.069 1.65851 0.927001 0
M  V30 4248 H 405.219 1.8834 3.39795 0
M  V30 4249 H 406.891 4.12593 2.06312 0
M  V30 4250 H 405.134 3.91051 1.8778 0
M  V30 4251 H 405.805 4.29679 3.46525 0
M  V30 4252 H 408.281 2.37045 3.41978 0
M  V30 4253 H 407.157 2.75173 4.74943 0
M  V30 4254 H 407.418 1.07714 4.28777 0
M  V30 4255 N 406.477 -1.02803 1.19454 0
M  V30 4256 C 407.424 -2.11099 0.933046 0
M  V30 4257 C 408.394 -1.65571 -0.132447 0
M  V30 4258 O 409.579 -1.90797 0.00987576 0
M  V30 4259 C 406.719 -3.41763 0.478747 0
M  V30 4260 C 405.832 -4.00833 1.6111 0
M  V30 4261 C 404.967 -5.19511 1.10825 0
M  V30 4262 C 404.006 -5.70639 2.21445 0
M  V30 4263 N 403.143 -6.80589 1.72461 0
M  V30 4264 H 407.983 -2.32804 1.86028 0
M  V30 4265 H 405.52 -1.14179 0.927441 0
M  V30 4266 H 407.478 -4.16736 0.196745 0
M  V30 4267 H 406.108 -3.20166 -0.411493 0
M  V30 4268 H 405.16 -3.23066 2.00829 0
M  V30 4269 H 406.472 -4.34794 2.4445 0
M  V30 4270 H 405.626 -6.01645 0.781533 0
M  V30 4271 H 404.365 -4.87086 0.244606 0
M  V30 4272 H 403.37 -4.87116 2.54947 0
M  V30 4273 H 404.595 -6.05102 3.08267 0
M  V30 4274 H 402.541 -6.50016 0.884056 0
M  V30 4275 H 402.458 -7.13681 2.49389 0
M  V30 4276 H 403.726 -7.66317 1.42755 0
M  V30 4277 N 407.956 -0.998596 -1.21925 0
M  V30 4278 C 408.866 -0.562736 -2.27751 0
M  V30 4279 C 409.882 0.391203 -1.69545 0
M  V30 4280 O 411.058 0.256625 -1.99758 0
M  V30 4281 C 408.123 0.11012 -3.46525 0
M  V30 4282 C 407.184 -0.887495 -4.20026 0
M  V30 4283 C 406.417 -0.246654 -5.3313 0
M  V30 4284 O 406.64 0.958088 -5.62296 0
M  V30 4285 O 405.574 -0.954374 -5.94286 0
M  V30 4286 H 409.4 -1.44329 -2.67213 0
M  V30 4287 H 406.985 -0.767135 -1.28201 0
M  V30 4288 H 408.867 0.486756 -4.18579 0
M  V30 4289 H 407.542 0.965154 -3.08976 0
M  V30 4290 H 406.449 -1.31517 -3.5022 0
M  V30 4291 H 407.782 -1.71191 -4.6147 0
M  V30 4292 N 409.434 1.37368 -0.772513 0
M  V30 4293 C 410.68 1.99969 -0.337681 0
M  V30 4294 C 411.013 1.61184 1.08321 0
M  V30 4295 O 410.288 0.858395 1.74533 0
M  V30 4296 C 410.571 3.56858 -0.482121 0
M  V30 4297 C 410.424 4.0555 -1.94549 0
M  V30 4298 C 411.743 4.39955 0.113143 0
M  V30 4299 H 408.862 0.726464 -0.124171 0
M  V30 4300 H 411.504 1.63034 -0.975699 0
M  V30 4301 H 409.654 3.88452 0.0610361 0
M  V30 4302 H 411.326 3.84518 -2.54841 0
M  V30 4303 H 409.569 3.57715 -2.45403 0
M  V30 4304 H 410.24 5.14587 -1.9976 0
M  V30 4305 H 412.716 4.14623 -0.35031 0
M  V30 4306 H 411.592 5.48897 -0.0180514 0
M  V30 4307 H 411.853 4.25403 1.20354 0
M  V30 4308 N 410.912 0.523116 1.48665 0
M  V30 4309 C 411.859 -0.243398 2.29513 0
M  V30 4310 C 412.829 -0.940139 1.36933 0
M  V30 4311 O 414.014 -0.942503 1.65896 0
M  V30 4312 C 411.154 -1.28855 3.20141 0
M  V30 4313 C 410.267 -0.60135 4.27794 0
M  V30 4314 C 409.402 -1.62884 5.05611 0
M  V30 4315 C 408.441 -0.924726 6.05075 0
M  V30 4316 N 407.578 -1.89744 6.75975 0
M  V30 4317 H 412.418 0.452234 2.94549 0
M  V30 4318 H 409.955 0.234858 1.45213 0
M  V30 4319 H 411.913 -1.90674 3.71079 0
M  V30 4320 H 410.543 -1.95266 2.57043 0
M  V30 4321 H 409.595 0.130623 3.80176 0
M  V30 4322 H 410.907 -0.0481585 4.98777 0
M  V30 4323 H 410.061 -2.32149 5.60528 0
M  V30 4324 H 408.8 -2.21592 4.34452 0
M  V30 4325 H 407.805 -0.217966 5.49368 0
M  V30 4326 H 409.03 -0.343851 6.78229 0
M  V30 4327 H 406.976 -2.47373 6.07571 0
M  V30 4328 H 406.893 -1.3955 7.43009 0
M  V30 4329 H 408.161 -2.58229 7.35485 0
M  V30 4330 N 412.39 -1.55475 0.257931 0
M  V30 4331 C 413.638 -1.98813 -0.363009 0
M  V30 4332 C 413.959 -1.14757 -1.57657 0
M  V30 4333 O 413.229 -0.232956 -1.9451 0
M  V30 4334 H 411.809 -0.734308 -0.137113 0
M  V30 4335 H 414.471 -1.9156 0.359281 0
M  V30 4336 H 413.567 -3.04941 -0.664634 0
M  V30 4337 N 413.868 0.0150385 -1.57593 0
M  V30 4338 C 414.798 1.01047 -2.10503 0
M  V30 4339 C 415.779 1.36816 -1.01071 0
M  V30 4340 O 416.964 1.45455 -1.28672 0
M  V30 4341 C 414.094 2.30708 -2.59598 0
M  V30 4342 C 413.048 2.09142 -3.73421 0
M  V30 4343 C 412.374 3.44685 -4.08774 0
M  V30 4344 C 413.674 1.46619 -5.01298 0
M  V30 4345 H 415.368 0.569978 -2.93925 0
M  V30 4346 H 412.914 0.272724 -1.41394 0
M  V30 4347 H 414.867 3.00687 -2.95238 0
M  V30 4348 H 413.591 2.76843 -1.73279 0
M  V30 4349 H 412.25 1.41592 -3.38153 0
M  V30 4350 H 411.898 3.88495 -3.195 0
M  V30 4351 H 411.598 3.31077 -4.8545 0
M  V30 4352 H 413.122 4.16004 -4.4696 0
M  V30 4353 H 414.536 2.06535 -5.34805 0
M  V30 4354 H 412.933 1.43544 -5.82679 0
M  V30 4355 H 414.003 0.433611 -4.82957 0
M  V30 4356 N 415.346 1.54954 0.287554 0
M  V30 4357 C 416.256 1.8991 1.37736 0
M  V30 4358 C 417.272 0.794701 1.54792 0
M  V30 4359 O 418.448 1.09243 1.69198 0
M  V30 4360 C 415.513 2.15108 2.71899 0
M  V30 4361 C 414.574 3.38752 2.63715 0
M  V30 4362 C 413.807 3.62739 3.91479 0
M  V30 4363 O 414.03 2.89492 4.91478 0
M  V30 4364 O 412.964 4.56267 3.92561 0
M  V30 4365 H 416.79 2.82652 1.11092 0
M  V30 4366 H 414.375 1.41315 0.484807 0
M  V30 4367 H 416.257 2.32806 3.51254 0
M  V30 4368 H 414.932 1.25551 2.9836 0
M  V30 4369 H 413.839 3.26405 1.82786 0
M  V30 4370 H 415.172 4.28483 2.42205 0
M  V30 4371 N 416.824 -0.551391 1.4764 0
M  V30 4372 C 418.07 -1.30789 1.55774 0
M  V30 4373 C 418.425 -1.91143 0.219562 0
M  V30 4374 O 417.718 -1.7521 -0.775375 0
M  V30 4375 C 417.912 -2.43469 2.61644 0
M  V30 4376 C 417.741 -1.94157 4.05627 0
M  V30 4377 C 416.511 -1.77734 4.7301 0
M  V30 4378 C 418.709 -1.48262 4.92466 0
M  V30 4379 N 416.691 -1.22823 6.01488 0
M  V30 4380 C 418.062 -1.05156 6.11017 0
M  V30 4381 C 420.117 -1.36367 4.78862 0
M  V30 4382 C 418.82 -0.513357 7.17466 0
M  V30 4383 C 420.846 -0.839484 5.85411 0
M  V30 4384 C 420.208 -0.418377 7.03156 0
M  V30 4385 H 416.307 -0.470406 0.624694 0
M  V30 4386 H 418.891 -0.624331 1.84419 0
M  V30 4387 H 417.062 -3.09348 2.34859 0
M  V30 4388 H 418.794 -3.10477 2.59589 0
M  V30 4389 H 415.549 -2.00623 4.29007 0
M  V30 4390 H 415.973 -0.974393 6.69951 0
M  V30 4391 H 420.615 -1.67535 3.88191 0
M  V30 4392 H 418.333 -0.189318 8.07878 0
M  V30 4393 H 421.919 -0.750921 5.76934 0
M  V30 4394 H 420.799 -0.0190538 7.84198 0
M  V30 4395 N 418.302 -1.35869 -0.798587 0
M  V30 4396 C 419.718 -1.16082 -1.09532 0
M  V30 4397 C 419.918 0.0213124 -2.01489 0
M  V30 4398 O 418.974 0.689488 -2.42904 0
M  V30 4399 C 420.287 -2.46748 -1.7186 0
M  V30 4400 C 421.835 -2.53028 -1.84244 0
M  V30 4401 C 422.31 -3.83758 -2.49988 0
M  V30 4402 N 423.801 -3.85053 -2.57465 0
M  V30 4403 C 424.536 -4.8294 -3.09122 0
M  V30 4404 N 424.032 -5.91217 -3.61157 0
M  V30 4405 N 425.825 -4.70369 -3.0775 0
M  V30 4406 H 417.976 -2.11571 -0.187461 0
M  V30 4407 H 420.239 -0.936726 -0.145765 0
M  V30 4408 H 419.945 -3.33471 -1.11759 0
M  V30 4409 H 419.819 -2.61883 -2.71472 0
M  V30 4410 H 422.206 -1.66729 -2.43486 0
M  V30 4411 H 422.287 -2.418 -0.834643 0
M  V30 4412 H 421.931 -4.70459 -1.91393 0
M  V30 4413 H 421.861 -3.92278 -3.5132 0
M  V30 4414 H 424.352 -3.06822 -2.20609 0
M  V30 4415 H 424.665 -6.61892 -3.98896 0
M  V30 4416 H 423.01 -5.94899 -3.59333 0
M  V30 4417 H 426.201 -3.84914 -2.66381 0
M  V30 4418 H 426.374 -5.46816 -3.47701 0
M  V30 4419 N 419.78 1.02168 -1.19998 0
M  V30 4420 C 421.008 1.79296 -1.03249 0
M  V30 4421 C 421.423 1.84103 0.418502 0
M  V30 4422 O 420.78 1.29031 1.29063 0
M  V30 4423 C 420.831 3.24007 -1.60319 0
M  V30 4424 O 420.552 3.19512 -2.99739 0
M  V30 4425 C 422.053 4.17704 -1.48453 0
M  V30 4426 H 419.273 0.564016 -0.363493 0
M  V30 4427 H 421.817 1.28639 -1.58973 0
M  V30 4428 H 419.972 3.7183 -1.08727 0
M  V30 4429 H 420.386 4.10306 -3.26725 0
M  V30 4430 H 421.86 5.17104 -1.93153 0
M  V30 4431 H 422.337 4.37029 -0.436193 0
M  V30 4432 H 422.943 3.7576 -1.99211 0
M  V30 4433 N 421.258 1.00505 1.21394 0
M  V30 4434 C 422.506 0.686415 1.90086 0
M  V30 4435 C 422.827 -0.785264 1.7849 0
M  V30 4436 O 422.097 -1.56387 1.17983 0
M  V30 4437 H 420.677 0.2509 0.703604 0
M  V30 4438 H 423.339 1.27417 1.47482 0
M  V30 4439 H 422.435 0.959621 2.96981 0
M  V30 4440 N 422.737 -1.36956 0.779787 0
M  V30 4441 C 423.7 -2.2851 0.177662 0
M  V30 4442 C 424.7 -1.48393 -0.619377 0
M  V30 4443 O 425.89 -1.68505 -0.441785 0
M  V30 4444 C 423.022 -3.32428 -0.755279 0
M  V30 4445 H 424.215 -2.83269 0.984823 0
M  V30 4446 H 421.768 -1.46358 0.548544 0
M  V30 4447 H 422.503 -2.82808 -1.58714 0
M  V30 4448 H 422.288 -3.91659 -0.185817 0
M  V30 4449 H 423.778 -4.00824 -1.17174 0
M  V30 4450 N 424.215 -0.530993 -1.48385 0
M  V30 4451 C 425.464 0.00474348 -2.01699 0
M  V30 4452 C 425.777 1.35227 -1.41325 0
M  V30 4453 O 426.983 1.97643 -1.86144 0
M  V30 4454 C 425.439 0.0588473 -3.59852 0
M  V30 4455 C 425.047 -1.28385 -4.2921 0
M  V30 4456 C 426.791 0.543358 -4.21008 0
M  V30 4457 C 424.698 -1.19028 -5.79298 0
M  V30 4458 H 423.628 0.00554317 -0.75398 0
M  V30 4459 H 426.279 -0.674924 -1.70637 0
M  V30 4460 H 424.661 0.803612 -3.8776 0
M  V30 4461 H 425.835 -2.04426 -4.12973 0
M  V30 4462 H 424.15 -1.70418 -3.7993 0
M  V30 4463 H 426.747 0.631351 -5.3096 0
M  V30 4464 H 427.09 1.54937 -3.86394 0
M  V30 4465 H 427.623 -0.145754 -3.97533 0
M  V30 4466 H 424.362 -2.17147 -6.18488 0
M  V30 4467 H 423.882 -0.471246 -5.97946 0
M  V30 4468 H 425.561 -0.881365 -6.40969 0
M  V30 4469 N 425.693 1.55336 -0.266172 0
M  V30 4470 C 426.918 2.04258 0.359661 0
M  V30 4471 C 427.343 1.14359 1.49344 0
M  V30 4472 O 426.701 0.140369 1.80756 0
M  V30 4473 C 426.749 3.50997 0.826635 0
M  V30 4474 O 425.853 3.64204 1.93466 0
M  V30 4475 H 425.194 0.659668 0.075727 0
M  V30 4476 H 427.724 2.00694 -0.39786 0
M  V30 4477 H 427.734 3.9219 1.12477 0
M  V30 4478 H 426.409 4.159 -0.00293032 0
M  V30 4479 H 424.986 3.34913 1.63974 0
M  V30 4480 N 427.171 -0.0066808 1.57599 0
M  V30 4481 C 428.399 -0.704087 1.94551 0
M  V30 4482 C 428.814 -1.67677 0.867746 0
M  V30 4483 O 428.171 -1.8185 -0.153925 0
M  V30 4484 C 428.222 -1.44177 3.31505 0
M  V30 4485 O 427.943 -0.508097 4.35144 0
M  V30 4486 C 429.444 -2.23429 3.82876 0
M  V30 4487 H 426.664 -0.196523 0.641576 0
M  V30 4488 H 429.208 0.042453 2.04456 0
M  V30 4489 H 427.363 -2.13999 3.22929 0
M  V30 4490 H 427.777 -1.02782 5.14331 0
M  V30 4491 H 429.251 -2.70552 4.8115 0
M  V30 4492 H 429.728 -3.05818 3.15233 0
M  V30 4493 H 430.334 -1.58636 3.94607 0
M  V30 4494 N 428.649 -1.55105 -0.279332 0
M  V30 4495 C 429.612 -1.86783 -1.32834 0
M  V30 4496 C 430.612 -0.74199 -1.42657 0
M  V30 4497 O 431.802 -1.0102 -1.41918 0
M  V30 4498 C 428.934 -2.06746 -2.71052 0
M  V30 4499 H 430.127 -2.8055 -1.05979 0
M  V30 4500 H 427.68 -1.47499 -0.517087 0
M  V30 4501 H 428.415 -1.15339 -3.03097 0
M  V30 4502 H 428.2 -2.88711 -2.65309 0
M  V30 4503 H 429.69 -2.32549 -3.46858 0
M  V30 4504 N 430.127 0.543554 -1.4793 0
M  V30 4505 C 431.543 0.870806 -1.3375 0
M  V30 4506 C 431.743 1.9864 -0.338261 0
M  V30 4507 O 430.799 2.51305 0.245371 0
M  V30 4508 C 432.112 1.25114 -2.73435 0
M  V30 4509 C 433.66 1.3618 -2.81823 0
M  V30 4510 C 434.135 1.77563 -4.22179 0
M  V30 4511 N 435.626 1.8469 -4.24787 0
M  V30 4512 C 436.361 2.18067 -5.30315 0
M  V30 4513 N 435.857 2.49963 -6.46135 0
M  V30 4514 N 437.65 2.18958 -5.17701 0
M  V30 4515 H 429.801 -0.19275 -2.11524 0
M  V30 4516 H 432.064 -0.0235777 -0.947707 0
M  V30 4517 H 431.77 0.50514 -3.48053 0
M  V30 4518 H 431.644 2.20431 -3.06088 0
M  V30 4519 H 434.031 2.09859 -2.07468 0
M  V30 4520 H 434.112 0.390169 -2.52807 0
M  V30 4521 H 433.756 1.04449 -4.97044 0
M  V30 4522 H 433.686 2.75753 -4.48629 0
M  V30 4523 H 436.177 1.62372 -3.41239 0
M  V30 4524 H 436.49 2.74497 -7.22406 0
M  V30 4525 H 434.835 2.47513 -6.49432 0
M  V30 4526 H 438.026 1.93488 -4.2624 0
M  V30 4527 H 438.199 2.44639 -6.00047 0
M  V30 4528 N 431.605 1.3629 0.791371 0
M  V30 4529 C 432.851 1.31613 1.5508 0
M  V30 4530 C 433.206 -0.104372 1.92117 0
M  V30 4531 O 432.499 -1.05845 1.5971 0
M  V30 4532 C 432.693 2.17068 2.8393 0
M  V30 4533 C 432.522 3.67285 2.59484 0
M  V30 4534 C 431.292 4.36469 2.54604 0
M  V30 4535 C 433.49 4.60595 2.28816 0
M  V30 4536 N 431.472 5.7234 2.22036 0
M  V30 4537 C 432.843 5.847 2.06218 0
M  V30 4538 C 434.898 4.4918 2.14806 0
M  V30 4539 C 433.601 6.98671 1.71028 0
M  V30 4540 C 435.627 5.63017 1.81014 0
M  V30 4541 C 434.989 6.86159 1.59263 0
M  V30 4542 H 431.088 0.536878 0.568582 0
M  V30 4543 H 433.672 1.71323 0.925007 0
M  V30 4544 H 431.843 1.79605 3.44378 0
M  V30 4545 H 433.575 2.03795 3.49642 0
M  V30 4546 H 430.33 3.89249 2.69782 0
M  V30 4547 H 430.754 6.44093 2.08503 0
M  V30 4548 H 435.396 3.54564 2.30313 0
M  V30 4549 H 433.114 7.9324 1.54259 0
M  V30 4550 H 436.7 5.56146 1.70861 0
M  V30 4551 H 435.58 7.72753 1.335 0
M  V30 4552 N 433.083 -1.0153 1.20538 0
M  V30 4553 C 434.046 -2.0826 0.957098 0
M  V30 4554 C 435.046 -1.60657 -0.0678655 0
M  V30 4555 O 436.236 -1.73385 0.168332 0
M  V30 4556 C 433.368 -3.38033 0.441188 0
M  V30 4557 H 434.561 -2.31719 1.90384 0
M  V30 4558 H 432.114 -1.1835 1.02093 0
M  V30 4559 H 432.849 -3.20249 -0.510961 0
M  V30 4560 H 432.634 -3.73911 1.18038 0
M  V30 4561 H 434.124 -4.16613 0.287009 0
M  V30 4562 N 434.561 -1.01147 -1.20859 0
M  V30 4563 C 435.809 -0.696486 -1.89719 0
M  V30 4564 C 436.13 0.775788 -1.78904 0
M  V30 4565 O 435.4 1.55759 -1.18811 0
M  V30 4566 H 433.98 -0.254628 -0.702263 0
M  V30 4567 H 436.642 -1.28197 -1.46804 0
M  V30 4568 H 435.738 -0.975357 -2.96468 0
M  V30 4569 N 436.039 1.36541 -0.78704 0
M  V30 4570 C 437.002 2.28413 -0.189778 0
M  V30 4571 C 438.002 1.48719 0.611499 0
M  V30 4572 O 439.192 1.68737 0.432842 0
M  V30 4573 C 436.324 3.32824 0.737638 0
M  V30 4574 H 437.517 2.82743 -0.999831 0
M  V30 4575 H 435.07 1.46065 -0.556298 0
M  V30 4576 H 435.805 2.83646 1.57212 0
M  V30 4577 H 435.59 3.91752 0.165044 0
M  V30 4578 H 437.08 4.0144 1.15047 0
M  V30 4579 N 437.518 0.538854 1.48102 0
M  V30 4580 C 438.934 0.19732 1.58376 0
M  V30 4581 C 439.134 -1.29971 1.5398 0
M  V30 4582 O 438.19 -2.07861 1.43352 0
M  V30 4583 C 439.503 0.807716 2.89649 0
M  V30 4584 C 441.051 0.77726 3.03196 0
M  V30 4585 C 441.526 1.36639 4.37143 0
M  V30 4586 N 443.017 1.32875 4.43732 0
M  V30 4587 C 443.752 1.7544 5.45901 0
M  V30 4588 N 443.248 2.25776 6.54979 0
M  V30 4589 N 445.041 1.66623 5.36836 0
M  V30 4590 H 437.192 1.5117 1.49202 0
M  V30 4591 H 439.455 0.629327 0.708979 0
M  V30 4592 H 439.161 1.85909 2.98548 0
M  V30 4593 H 439.035 0.289975 3.76084 0
M  V30 4594 H 441.422 -0.265374 2.93904 0
M  V30 4595 H 441.503 1.33256 2.18349 0
M  V30 4596 H 441.147 2.408 4.47189 0
M  V30 4597 H 441.077 0.786689 5.20691 0
M  V30 4598 H 443.568 0.96037 3.65493 0
M  V30 4599 H 443.881 2.56226 7.29087 0
M  V30 4600 H 442.226 2.29775 6.55918 0
M  V30 4601 H 445.417 1.27089 4.50517 0
M  V30 4602 H 445.59 2.00115 6.16326 0
M  V30 4603 N 438.996 -1.55193 0.274407 0
M  V30 4604 C 439.926 -2.25471 -0.607032 0
M  V30 4605 C 440.907 -1.24461 -1.15946 0
M  V30 4606 O 442.092 -1.53179 -1.19373 0
M  V30 4607 C 439.222 -2.97526 -1.79153 0
M  V30 4608 C 438.176 -4.05459 -1.37067 0
M  V30 4609 C 437.502 -4.65084 -2.6382 0
M  V30 4610 C 438.802 -5.19691 -0.521389 0
M  V30 4611 H 440.496 -2.99393 -0.0209343 0
M  V30 4612 H 438.042 -1.43997 -0.00862866 0
M  V30 4613 H 439.995 -3.45402 -2.41404 0
M  V30 4614 H 438.719 -2.21138 -2.40344 0
M  V30 4615 H 437.378 -3.58393 -0.771355 0
M  V30 4616 H 437.026 -3.85365 -3.23268 0
M  V30 4617 H 436.726 -5.37961 -2.36372 0
M  V30 4618 H 438.25 -5.15708 -3.26921 0
M  V30 4619 H 439.664 -5.63623 -1.04889 0
M  V30 4620 H 438.061 -5.99126 -0.341825 0
M  V30 4621 H 439.131 -4.82713 0.46 0
M  V30 4622 N 440.474 -0.00167713 -1.576 0
M  V30 4623 C 441.714 0.687302 -1.92498 0
M  V30 4624 C 442.078 1.70844 -0.876144 0
M  V30 4625 O 443.279 2.44792 -1.11043 0
M  V30 4626 C 441.55 1.31217 -3.32441 0
M  V30 4627 S 443.109 2.02604 -3.89226 0
M  V30 4628 H 439.927 0.226985 -0.673794 0
M  V30 4629 H 442.529 -0.0587666 -1.95412 0
M  V30 4630 H 441.233 0.556164 -4.06614 0
M  V30 4631 H 440.764 2.09613 -3.32905 0
M  V30 4632 H 442.779 3.30137 -3.70438 0
M  V30 4633 N 441.952 1.55251 0.271103 0
M  V30 4634 C 443.229 1.66664 1.02384 0
M  V30 4635 C 443.609 0.534363 2.04225 0
M  V30 4636 O 442.957 -0.465337 2.23712 0
M  V30 4637 C 443.167 3.05961 1.67895 0
M  V30 4638 C 444.515 3.63772 2.18986 0
M  V30 4639 O 445.539 3.08606 1.77878 0
M  V30 4640 O 444.398 4.60429 2.94393 0
M  V30 4641 H 441.492 0.676957 0.475035 0
M  V30 4642 H 444.038 1.67589 0.26681 0
M  V30 4643 H 442.81 3.79815 0.941071 0
M  V30 4644 H 442.433 3.08943 2.5028 0
M  V30 4645 N 443.43 -0.535701 1.48216 0
M  V30 4646 C 444.676 -1.29375 1.56173 0
M  V30 4647 C 445.009 -1.92804 0.232429 0
M  V30 4648 O 444.284 -1.78992 -0.761048 0
M  V30 4649 C 444.567 -2.38747 2.69577 0
M  V30 4650 C 444.42 -1.80046 4.12193 0
M  V30 4651 C 445.739 -3.40551 2.78771 0
M  V30 4652 H 442.858 -0.469027 0.568491 0
M  V30 4653 H 445.5 -0.597358 1.80365 0
M  V30 4654 H 443.65 -2.98147 2.4908 0
M  V30 4655 H 445.322 -1.24742 4.44114 0
M  V30 4656 H 443.565 -1.10609 4.19462 0
M  V30 4657 H 444.236 -2.59212 4.87353 0
M  V30 4658 H 446.712 -2.91099 2.97322 0
M  V30 4659 H 445.588 -4.1448 3.59857 0
M  V30 4660 H 445.849 -4.00746 1.86696 0
M  V30 4661 N 444.908 -1.36708 -0.784132 0
M  V30 4662 C 445.838 -1.34153 -1.91116 0
M  V30 4663 C 446.819 -0.212121 -1.68772 0
M  V30 4664 O 448.004 -0.410581 -1.8981 0
M  V30 4665 C 445.134 -1.13535 -3.28218 0
M  V30 4666 C 444.088 -2.23356 -3.65097 0
M  V30 4667 C 443.414 -1.87875 -5.00607 0
M  V30 4668 C 444.714 -3.65473 -3.73131 0
M  V30 4669 H 446.408 -2.28459 -1.93512 0
M  V30 4670 H 443.954 -1.09973 -0.929618 0
M  V30 4671 H 445.907 -1.10381 -4.06687 0
M  V30 4672 H 444.631 -0.156804 -3.26223 0
M  V30 4673 H 443.29 -2.25645 -2.88929 0
M  V30 4674 H 442.938 -0.885814 -4.95139 0
M  V30 4675 H 442.638 -2.61406 -5.26252 0
M  V30 4676 H 444.162 -1.86286 -5.81489 0
M  V30 4677 H 445.576 -3.65382 -4.41779 0
M  V30 4678 H 443.973 -4.37953 -4.10265 0
M  V30 4679 H 445.043 -3.99995 -2.74102 0
M  V30 4680 N 446.386 1.0089 -1.21074 0
M  V30 4681 C 447.349 2.0775 -0.968129 0
M  V30 4682 C 448.349 1.6069 0.0593445 0
M  V30 4683 O 449.539 1.73293 -0.177525 0
M  V30 4684 C 446.671 3.37794 -0.459108 0
M  V30 4685 H 447.864 2.30707 -1.9161 0
M  V30 4686 H 445.417 1.17807 -1.02719 0
M  V30 4687 H 446.152 3.20516 0.49397 0
M  V30 4688 H 445.937 3.7328 -1.20019 0
M  V30 4689 H 447.427 4.16454 -0.309099 0
M  V30 4690 N 447.864 1.01787 1.20321 0
M  V30 4691 C 448.796 0.547357 2.22568 0
M  V30 4692 C 449.809 -0.370922 1.58518 0
M  V30 4693 O 450.998 -0.169067 1.77698 0
M  V30 4694 C 448.098 -0.223031 3.38165 0
M  V30 4695 C 447.271 0.697472 4.31803 0
M  V30 4696 C 446.33 -0.025562 5.26194 0
M  V30 4697 O 445.356 0.597367 5.66057 0
M  V30 4698 N 446.558 -1.29999 5.65757 0
M  V30 4699 H 449.323 1.42668 2.63564 0
M  V30 4700 H 446.884 0.895552 1.34876 0
M  V30 4701 H 448.876 -0.716002 3.98316 0
M  V30 4702 H 447.446 -1.00366 2.9605 0
M  V30 4703 H 446.666 1.37073 3.69601 0
M  V30 4704 H 447.954 1.32347 4.91286 0
M  V30 4705 H 447.352 -1.827 5.35385 0
M  V30 4706 H 445.909 -1.73766 6.28211 0
M  V30 4707 N 449.342 -1.36122 0.79427 0
M  V30 4708 C 450.305 -2.28309 0.201889 0
M  V30 4709 C 451.305 -1.49041 -0.603603 0
M  V30 4710 O 452.495 -1.68964 -0.423888 0
M  V30 4711 C 449.627 -3.3321 -0.719978 0
M  V30 4712 H 450.82 -2.82208 1.01481 0
M  V30 4713 H 448.373 -1.45768 0.564037 0
M  V30 4714 H 449.108 -2.84475 -1.55706 0
M  V30 4715 H 448.893 -3.91835 -0.144266 0
M  V30 4716 H 450.383 -4.02044 -1.12916 0
M  V30 4717 N 450.82 -0.546701 -1.47814 0
M  V30 4718 C 452.068 -0.0187037 -2.02091 0
M  V30 4719 C 452.389 1.33168 -1.42447 0
M  V30 4720 O 451.659 1.86619 -0.595839 0
M  V30 4721 H 450.239 -0.00392531 -0.74699 0
M  V30 4722 H 452.901 -0.714327 -1.81338 0
M  V30 4723 H 451.997 0.0772219 -3.12004 0
M  V30 4724 N 452.299 1.55045 -0.282633 0
M  V30 4725 C 453.249 2.19514 0.616249 0
M  V30 4726 C 454.233 1.16216 1.11277 0
M  V30 4727 O 455.425 1.42004 1.05659 0
M  V30 4728 C 452.554 2.92548 1.7964 0
M  V30 4729 C 451.64 4.03142 1.31671 0
M  V30 4730 N 452.031 5.0276 0.553695 0
M  V30 4731 C 450.329 4.1635 1.59903 0
M  V30 4732 C 451.03 5.80923 0.30054 0
M  V30 4733 N 450.006 5.3651 0.875116 0
M  V30 4734 H 453.808 2.93889 0.0255363 0
M  V30 4735 H 451.322 1.62169 -0.0865362 0
M  V30 4736 H 453.319 3.37188 2.45173 0
M  V30 4737 H 451.979 2.19685 2.39099 0
M  V30 4738 H 452.99 5.17512 0.20032 0
M  V30 4739 H 449.667 3.54682 2.20243 0
M  V30 4740 H 451.057 6.7118 -0.311053 0
M  V30 4741 N 453.777 0.010035 1.57597 0
M  V30 4742 C 454.709 -1.00649 2.05918 0
M  V30 4743 C 455.722 -1.30077 0.978964 0
M  V30 4744 O 456.911 -1.26878 1.25556 0
M  V30 4745 C 454.011 -2.33876 2.45265 0
M  V30 4746 C 453.184 -2.23242 3.7614 0
M  V30 4747 C 452.243 -3.39242 4.02245 0
M  V30 4748 O 451.269 -3.1698 4.72771 0
M  V30 4749 N 452.471 -4.6242 3.50924 0
M  V30 4750 H 455.236 -0.594333 2.93748 0
M  V30 4751 H 452.797 -0.17714 1.60928 0
M  V30 4752 H 454.789 -3.1027 2.59836 0
M  V30 4753 H 453.359 -2.66799 1.62902 0
M  V30 4754 H 452.579 -1.31696 3.71551 0
M  V30 4755 H 453.867 -2.13321 4.61922 0
M  V30 4756 H 453.265 -4.83404 2.93832 0
M  V30 4757 H 451.822 -5.36046 3.70807 0
M  V30 4758 N 455.255 -1.55392 -0.262866 0
M  V30 4759 C 456.185 -1.91978 -1.32917 0
M  V30 4760 C 457.166 -0.7828 -1.51017 0
M  V30 4761 O 458.351 -1.04178 -1.63892 0
M  V30 4762 C 455.481 -2.20055 -2.68687 0
M  V30 4763 C 454.435 -3.35854 -2.65304 0
M  V30 4764 C 453.761 -3.49435 -4.04721 0
M  V30 4765 C 455.061 -4.71977 -2.23685 0
M  V30 4766 H 456.755 -2.81292 -1.02544 0
M  V30 4767 H 454.301 -1.3534 -0.491846 0
M  V30 4768 H 456.254 -2.44237 -3.43404 0
M  V30 4769 H 454.978 -1.27551 -3.00663 0
M  V30 4770 H 453.637 -3.11655 -1.93045 0
M  V30 4771 H 453.285 -2.54379 -4.33936 0
M  V30 4772 H 452.985 -4.27297 -4.0335 0
M  V30 4773 H 454.509 -3.7592 -4.81161 0
M  V30 4774 H 455.923 -4.95637 -2.88127 0
M  V30 4775 H 454.32 -5.52828 -2.33456 0
M  V30 4776 H 455.39 -4.70115 -1.18827 0
M  V30 4777 N 456.733 0.527833 -1.48498 0
M  V30 4778 C 457.973 1.29401 -1.58224 0
M  V30 4779 C 458.337 1.90348 -0.251327 0
M  V30 4780 O 459.538 2.67868 -0.223588 0
M  V30 4781 C 457.809 2.35266 -2.69044 0
M  V30 4782 S 459.368 3.2158 -2.98549 0
M  V30 4783 H 456.186 0.440138 -0.558391 0
M  V30 4784 H 458.788 0.601079 -1.8603 0
M  V30 4785 H 457.492 1.88975 -3.64303 0
M  V30 4786 H 457.023 3.09263 -2.43146 0
M  V30 4787 H 459.038 4.35391 -2.38011 0
M  V30 4788 N 458.211 1.37122 0.776871 0
M  V30 4789 C 459.121 1.34651 1.9211 0
M  V30 4790 C 460.137 0.246824 1.7224 0
M  V30 4791 O 461.313 0.48134 1.95563 0
M  V30 4792 C 458.378 1.14748 3.2716 0
M  V30 4793 C 457.439 2.34308 3.5972 0
M  V30 4794 C 456.672 2.15345 4.88326 0
M  V30 4795 O 456.895 1.13507 5.58992 0
M  V30 4796 O 455.829 3.03414 5.1983 0
M  V30 4797 H 459.655 2.31013 1.97146 0
M  V30 4798 H 457.24 1.17799 0.918901 0
M  V30 4799 H 459.122 1.05616 4.0795 0
M  V30 4800 H 457.797 0.214562 3.22988 0
M  V30 4801 H 456.704 2.49011 2.79185 0
M  V30 4802 H 458.037 3.26149 3.68629 0
M  V30 4803 N 459.689 -1.00246 1.21608 0
M  V30 4804 C 460.917 -1.77631 1.06089 0
M  V30 4805 C 461.332 -1.84746 -0.38916 0
M  V30 4806 O 460.689 -1.31068 -1.26994 0
M  V30 4807 C 460.74 -3.21415 1.65453 0
M  V30 4808 O 460.461 -3.14703 3.04785 0
M  V30 4809 C 461.962 -4.15289 1.55079 0
M  V30 4810 H 459.182 -0.558162 0.37242 0
M  V30 4811 H 461.726 -1.26093 1.60999 0
M  V30 4812 H 459.881 -3.70053 1.14629 0
M  V30 4813 H 460.295 -4.05056 3.33212 0
M  V30 4814 H 461.769 -5.13965 2.01355 0
M  V30 4815 H 462.246 -4.36279 0.505665 0
M  V30 4816 H 462.852 -3.72543 2.05163 0
M  V30 4817 N 461.167 -1.02423 -1.1978 0
M  V30 4818 C 462.077 -0.610919 -2.26506 0
M  V30 4819 C 463.093 0.355152 -1.70337 0
M  V30 4820 O 464.269 0.214195 -2.00258 0
M  V30 4821 C 461.334 0.0365921 -3.46681 0
M  V30 4822 C 460.395 -0.976389 -4.18049 0
M  V30 4823 C 459.628 -0.359683 -5.32487 0
M  V30 4824 O 459.851 0.838601 -5.64202 0
M  V30 4825 O 458.785 -1.08022 -5.92127 0
M  V30 4826 H 462.611 -1.49965 -2.64091 0
M  V30 4827 H 460.196 -0.794156 -1.26545 0
M  V30 4828 H 462.078 0.39786 -4.19518 0
M  V30 4829 H 460.753 0.899398 -3.10954 0
M  V30 4830 H 459.66 -1.38916 -3.47352 0
M  V30 4831 H 460.993 -1.80941 -4.57735 0
M  V30 4832 N 462.645 1.35699 -0.801477 0
M  V30 4833 C 463.608 2.28199 -0.213994 0
M  V30 4834 C 464.608 1.49359 0.595691 0
M  V30 4835 O 465.798 1.69186 0.414921 0
M  V30 4836 C 462.93 3.33587 0.702297 0
M  V30 4837 H 464.123 2.81666 -1.02976 0
M  V30 4838 H 461.676 1.45467 -0.571759 0
M  V30 4839 H 462.411 2.85297 1.54195 0
M  V30 4840 H 462.196 3.91906 0.123484 0
M  V30 4841 H 463.686 4.02638 1.10783 0
M  V30 4842 N 464.123 0.554532 1.47522 0
M  V30 4843 C 465.073 -0.215008 2.26984 0
M  V30 4844 C 466.057 -0.88774 1.34194 0
M  V30 4845 O 467.249 -0.786489 1.58567 0
M  V30 4846 C 464.378 -1.24604 3.19889 0
M  V30 4847 C 463.464 -0.576857 4.20159 0
M  V30 4848 N 463.855 0.351541 5.04577 0
M  V30 4849 C 462.153 -0.831104 4.38188 0
M  V30 4850 C 462.854 0.739995 5.76974 0
M  V30 4851 N 461.83 0.0954407 5.43516 0
M  V30 4852 H 465.632 0.498843 2.89636 0
M  V30 4853 H 463.146 0.374279 1.58028 0
M  V30 4854 H 465.143 -1.81128 3.75498 0
M  V30 4855 H 463.803 -1.96101 2.58794 0
M  V30 4856 H 464.814 0.725556 5.12792 0
M  V30 4857 H 461.491 -1.53479 3.88266 0
M  V30 4858 H 462.881 1.50271 6.5488 0
M  V30 4859 N 465.601 -1.54893 0.290851 0
M  V30 4860 C 466.847 -2.0023 -0.321867 0
M  V30 4861 C 467.18 -1.179 -1.54316 0
M  V30 4862 O 466.455 -0.25293 -1.92848 0
M  V30 4863 C 466.738 -3.53456 -0.688515 0
M  V30 4864 C 466.591 -4.46532 0.541209 0
M  V30 4865 C 467.91 -4.13057 -1.51895 0
M  V30 4866 H 465.029 -0.727891 -0.115515 0
M  V30 4867 H 467.671 -1.85722 0.400931 0
M  V30 4868 H 465.821 -3.6595 -1.30433 0
M  V30 4869 H 467.493 -4.4596 1.17973 0
M  V30 4870 H 465.736 -4.17545 1.17636 0
M  V30 4871 H 466.407 -5.51475 0.240675 0
M  V30 4872 H 468.883 -4.03937 -0.99872 0
M  V30 4873 H 467.759 -5.20448 -1.74429 0
M  V30 4874 H 468.02 -3.64284 -2.50498 0
M  V30 4875 N 467.08 -0.0183926 -1.57589 0
M  V30 4876 C 468.32 0.666846 -1.93216 0
M  V30 4877 C 468.684 1.69905 -0.894215 0
M  V30 4878 O 469.885 2.436 -1.13633 0
M  V30 4879 C 468.156 1.27684 -3.33814 0
M  V30 4880 S 469.715 1.98464 -3.91353 0
M  V30 4881 H 466.533 0.219826 -0.676164 0
M  V30 4882 H 469.135 -0.0794893 -1.95338 0
M  V30 4883 H 467.839 0.513006 -4.07181 0
M  V30 4884 H 467.37 2.06071 -3.3511 0
M  V30 4885 H 469.385 3.26189 -3.73918 0
M  V30 4886 N 468.558 1.5553 0.254621 0
M  V30 4887 C 469.805 1.77 0.983736 0
M  V30 4888 C 470.133 0.58133 1.85609 0
M  V30 4889 O 469.388 -0.435621 1.9079 0
M  V30 4890 C 469.687 3.03891 1.88109 0
M  V30 4891 C 469.353 4.35597 1.16472 0
M  V30 4892 C 468.015 4.7139 0.966714 0
M  V30 4893 C 470.367 5.1705 0.656387 0
M  V30 4894 C 467.695 5.86176 0.247942 0
M  V30 4895 C 470.047 6.32581 -0.0488807 0
M  V30 4896 C 468.711 6.67 -0.258438 0
M  V30 4897 H 467.981 0.647688 0.359974 0
M  V30 4898 H 470.628 1.89802 0.254463 0
M  V30 4899 H 468.933 2.86068 2.67717 0
M  V30 4900 H 470.63 3.17701 2.44677 0
M  V30 4901 H 467.22 4.07475 1.32899 0
M  V30 4902 H 471.404 4.8986 0.796933 0
M  V30 4903 H 466.66 6.11354 0.075035 0
M  V30 4904 H 470.834 6.94942 -0.450444 0
M  V30 4905 H 468.461 7.55793 -0.817358 0
M  V30 4906 N 470.036 -0.519951 1.48776 0
M  V30 4907 C 470.946 -1.65025 1.66745 0
M  V30 4908 C 471.962 -1.6508 0.549954 0
M  V30 4909 O 473.138 -1.83848 0.822295 0
M  V30 4910 C 470.203 -3.0146 1.71238 0
M  V30 4911 C 469.264 -3.12182 2.94688 0
M  V30 4912 C 468.497 -4.42109 2.98958 0
M  V30 4913 O 468.72 -5.29799 2.1135 0
M  V30 4914 O 467.654 -4.57406 3.91233 0
M  V30 4915 H 471.48 -1.52801 2.62461 0
M  V30 4916 H 469.065 -0.694157 1.32294 0
M  V30 4917 H 470.947 -3.82584 1.76657 0
M  V30 4918 H 469.622 -3.13988 0.786975 0
M  V30 4919 H 468.529 -2.30316 2.94797 0
M  V30 4920 H 469.862 -3.04574 3.86646 0
M  V30 4921 N 471.514 -1.37532 -0.769588 0
M  V30 4922 C 472.762 -1.32597 -1.5252 0
M  V30 4923 C 473.083 0.0884294 -1.94799 0
M  V30 4924 O 472.353 1.03289 -1.66458 0
M  V30 4925 H 470.933 -0.487846 -0.565699 0
M  V30 4926 H 473.595 -1.72044 -0.915806 0
M  V30 4927 H 472.691 -1.96643 -2.42359 0
M  V30 4928 N 472.992 0.995999 -1.22138 0
M  V30 4929 C 473.922 2.10387 -1.01289 0
M  V30 4930 C 474.903 1.69975 0.0651454 0
M  V30 4931 O 476.088 1.9396 -0.0964628 0
M  V30 4932 C 473.218 3.42312 -0.586517 0
M  V30 4933 C 472.172 3.96558 -1.61014 0
M  V30 4934 C 471.498 5.24494 -1.0397 0
M  V30 4935 C 472.798 4.27595 -2.99933 0
M  V30 4936 H 474.492 2.28086 -1.93951 0
M  V30 4937 H 472.038 1.09607 -0.933928 0
M  V30 4938 H 473.991 4.19223 -0.427793 0
M  V30 4939 H 472.715 3.24431 0.375761 0
M  V30 4940 H 471.374 3.21776 -1.75658 0
M  V30 4941 H 471.022 5.02953 -0.0688703 0
M  V30 4942 H 470.722 5.61755 -1.72352 0
M  V30 4943 H 472.246 6.04042 -0.892494 0
M  V30 4944 H 473.66 4.95315 -2.8868 0
M  V30 4945 H 472.057 4.76021 -3.6541 0
M  V30 4946 H 473.127 3.35498 -3.50099 0
M  V30 4947 N 474.47 1.03057 1.19235 0
M  V30 4948 C 475.747 0.642608 1.84743 0
M  V30 4949 C 476.127 -0.878577 1.91948 0
M  V30 4950 O 475.475 -1.77597 1.43776 0
M  V30 4951 C 475.685 1.30665 3.23616 0
M  V30 4952 C 477.033 1.43098 3.9976 0
M  V30 4953 O 478.057 1.26396 3.3302 0
M  V30 4954 O 476.916 1.70223 5.19313 0
M  V30 4955 H 474.01 0.223573 0.796206 0
M  V30 4956 H 476.556 1.12883 1.26711 0
M  V30 4957 H 475.328 2.34544 3.13217 0
M  V30 4958 H 474.951 0.808405 3.89295 0
M  V30 4959 N 475.948 -1.35272 0.808662 0
M  V30 4960 C 477.173 -2.03477 0.401475 0
M  V30 4961 C 477.598 -1.60537 -0.980279 0
M  V30 4962 O 476.956 -0.78304 -1.63518 0
M  V30 4963 C 477.004 -3.57181 0.495354 0
M  V30 4964 O 476.108 -4.09474 -0.490397 0
M  V30 4965 H 475.449 -0.642561 0.167366 0
M  V30 4966 H 477.979 -1.72824 1.09512 0
M  V30 4967 H 477.989 -4.06356 0.365912 0
M  V30 4968 H 476.664 -3.87784 1.5032 0
M  V30 4969 H 475.241 -3.71516 -0.321023 0
M  V30 4970 N 477.426 -0.562348 -1.47226 0
M  V30 4971 C 478.703 0.0256985 -1.95583 0
M  V30 4972 C 479.083 1.48032 -1.50498 0
M  V30 4973 O 478.431 2.15973 -0.746181 0
M  V30 4974 C 478.641 -0.125129 -3.48776 0
M  V30 4975 C 479.989 0.0175728 -4.24596 0
M  V30 4976 O 481.013 -0.0529341 -3.56161 0
M  V30 4977 O 479.872 0.170145 -5.46235 0
M  V30 4978 H 476.966 0.0612565 -0.824728 0
M  V30 4979 H 479.512 -0.629233 -1.57603 0
M  V30 4980 H 478.284 -1.13715 -3.74412 0
M  V30 4981 H 477.907 0.567178 -3.93534 0
M  V30 4982 N 478.904 1.54736 -0.299062 0
M  V30 4983 C 480.315 1.8569 0.193971 0
M  V30 4984 C 480.666 1.22101 1.53577 0
M  V30 4985 O 479.791 0.51799 2.10109 0
M  V30 4986 C 480.386 3.36895 0.358733 0
M  V30 4987 C 478.945 3.67887 0.795986 0
M  V30 4988 C 478.092 2.77131 -0.096807 0
M  V30 4989 H 481.043 1.49934 -0.520134 0
M  V30 4990 H 481.064 3.61294 1.19361 0
M  V30 4991 H 480.576 3.83148 -0.617998 0
M  V30 4992 H 478.677 3.27151 1.78334 0
M  V30 4993 H 478.79 4.75114 0.616718 0
M  V30 4994 H 477.154 2.51153 0.423581 0
M  V30 4995 H 477.937 3.26204 -1.06986 0
M  V30 4996 N 480.382 0.0267497 1.57577 0
M  V30 4997 C 481.61 -0.662661 1.96001 0
M  V30 4998 C 482.025 -1.65799 0.903117 0
M  V30 4999 O 481.382 -1.82135 -0.115317 0
M  V30 5000 C 481.433 -1.37112 3.34488 0
M  V30 5001 O 481.154 -0.415683 4.36123 0
M  V30 5002 C 482.655 -2.15257 3.8753 0
M  V30 5003 H 479.875 -0.18287 0.6456 0
M  V30 5004 H 482.419 0.0858116 2.0432 0
M  V30 5005 H 480.574 -2.07101 3.27395 0
M  V30 5006 H 480.988 -0.918496 5.16395 0
M  V30 5007 H 482.462 -2.60285 4.86781 0
M  V30 5008 H 482.939 -2.99063 3.21649 0
M  V30 5009 H 483.545 -1.50231 3.97883 0
M  V30 5010 N 481.861 -1.55662 -0.24637 0
M  V30 5011 C 483.109 -1.77168 -0.972411 0
M  V30 5012 C 483.43 -0.590827 -1.85834 0
M  V30 5013 O 482.7 0.393365 -1.9191 0
M  V30 5014 H 481.28 -0.653405 -0.362038 0
M  V30 5015 H 483.942 -1.93101 -0.264189 0
M  V30 5016 H 483.038 -2.68335 -1.59382 0
M  V30 5017 N 483.339 0.512053 -1.4905 0
M  V30 5018 C 484.567 1.29116 -1.61669 0
M  V30 5019 C 484.982 1.86655 -0.283787 0
M  V30 5020 O 484.339 1.67293 0.729331 0
M  V30 5021 C 484.39 2.4293 -2.67707 0
M  V30 5022 O 484.111 1.87758 -3.95826 0
M  V30 5023 C 485.612 3.34476 -2.90931 0
M  V30 5024 H 482.832 0.392009 -0.544583 0
M  V30 5025 H 485.376 0.615881 -1.95006 0
M  V30 5026 H 483.531 3.06308 -2.37179 0
M  V30 5027 H 483.945 2.62393 -4.54148 0
M  V30 5028 H 485.419 4.10642 -3.68886 0
M  V30 5029 H 485.896 3.90801 -2.00427 0
M  V30 5030 H 486.502 2.76874 -3.22832 0
M  V30 5031 N 484.817 1.37938 0.762283 0
M  V30 5032 C 485.78 1.34279 1.85747 0
M  V30 5033 C 486.78 0.244969 1.58923 0
M  V30 5034 O 487.97 0.501365 1.66829 0
M  V30 5035 C 485.102 1.08833 3.23061 0
M  V30 5036 H 486.295 2.31705 1.90401 0
M  V30 5037 H 483.848 1.23105 0.963057 0
M  V30 5038 H 484.583 0.119767 3.24079 0
M  V30 5039 H 484.368 1.88306 3.43923 0
M  V30 5040 H 485.858 1.08946 4.03138 0
M  V30 5041 N 486.295 -0.989507 1.22664 0
M  V30 5042 C 487.525 -1.7624 1.0781 0
M  V30 5043 C 487.933 -1.85466 -0.374036 0
M  V30 5044 O 487.276 -1.32645 -1.27087 0
M  V30 5045 C 487.338 -3.21007 1.61849 0
M  V30 5046 C 487.002 -3.35316 3.10503 0
M  V30 5047 C 487.999 -3.22362 4.07896 0
M  V30 5048 C 485.684 -3.60258 3.50028 0
M  V30 5049 C 487.678 -3.34139 5.42798 0
M  V30 5050 C 485.365 -3.71676 4.85078 0
M  V30 5051 C 486.363 -3.58625 5.81272 0
M  V30 5052 O 486.051 -3.69655 7.1387 0
M  V30 5053 H 485.783 -0.560209 0.378341 0
M  V30 5054 H 488.337 -1.25252 1.62792 0
M  V30 5055 H 486.567 -3.73202 1.01279 0
M  V30 5056 H 488.256 -3.80024 1.42606 0
M  V30 5057 H 489.022 -3.03 3.78703 0
M  V30 5058 H 484.901 -3.69492 2.75675 0
M  V30 5059 H 488.445 -3.23869 6.17863 0
M  V30 5060 H 484.342 -3.90545 5.1395 0
M  V30 5061 H 485.11 -3.86507 7.21495 0
M  V30 5062 N 487.773 -1.03688 -1.18687 0
M  V30 5063 C 489.021 -0.736572 -1.88199 0
M  V30 5064 C 489.342 0.737665 -1.80509 0
M  V30 5065 O 488.612 1.53204 -1.22088 0
M  V30 5066 H 487.192 -0.269466 -0.696704 0
M  V30 5067 H 489.854 -1.31282 -1.44052 0
M  V30 5068 H 488.95 -1.03802 -2.94332 0
M  V30 5069 N 489.251 1.34841 -0.815825 0
M  V30 5070 C 490.214 2.27959 -0.238185 0
M  V30 5071 C 491.214 1.49983 0.579816 0
M  V30 5072 O 492.404 1.69617 0.396953 0
M  V30 5073 C 489.536 3.34314 0.666876 0
M  V30 5074 H 490.729 2.80558 -1.05958 0
M  V30 5075 H 488.282 1.44852 -0.587156 0
M  V30 5076 H 489.017 2.86916 1.5116 0
M  V30 5077 H 488.802 3.92014 0.0819106 0
M  V30 5078 H 490.292 4.0379 1.06506 0
M  V30 5079 N 490.729 0.570148 1.46925 0
M  V30 5080 C 491.954 0.0542592 2.07329 0
M  V30 5081 C 492.379 -1.23582 1.41806 0
M  V30 5082 O 491.737 -1.74341 0.497479 0
M  V30 5083 C 491.785 -0.111175 3.60429 0
M  V30 5084 O 490.889 -1.17071 3.95434 0
M  V30 5085 H 490.23 0.0571425 0.661537 0
M  V30 5086 H 492.76 0.789516 1.88753 0
M  V30 5087 H 492.77 -0.321315 4.06733 0
M  V30 5088 H 491.445 0.831012 4.07513 0
M  V30 5089 H 490.022 -0.940029 3.60857 0
M  V30 5090 N 492.207 -1.54576 0.307264 0
M  V30 5091 C 493.456 -1.99442 -0.300976 0
M  V30 5092 C 493.769 -1.19928 -1.5452 0
M  V30 5093 O 494.975 -1.55092 -2.22842 0
M  V30 5094 C 493.431 -3.55084 -0.586809 0
M  V30 5095 C 493.039 -4.43413 0.639438 0
M  V30 5096 C 494.783 -4.0846 -1.1559 0
M  V30 5097 C 492.69 -5.90499 0.326411 0
M  V30 5098 H 491.62 -0.744986 -0.116238 0
M  V30 5099 H 494.271 -1.787 0.416947 0
M  V30 5100 H 492.653 -3.71749 -1.36449 0
M  V30 5101 H 493.827 -4.38522 1.41545 0
M  V30 5102 H 492.142 -4.00842 1.1276 0
M  V30 5103 H 494.739 -5.15926 -1.40445 0
M  V30 5104 H 495.082 -3.59443 -2.10015 0
M  V30 5105 H 495.615 -3.95362 -0.439778 0
M  V30 5106 H 492.354 -6.43676 1.23939 0
M  V30 5107 H 491.874 -5.98382 -0.412212 0
M  V30 5108 H 493.553 -6.46962 -0.0697393 0
M  V30 5109 N 493.685 -0.035106 -1.57561 0
M  V30 5110 C 495.096 0.502885 -1.798 0
M  V30 5111 C 495.447 1.71892 -0.945921 0
M  V30 5112 O 494.572 2.15822 -0.157991 0
M  V30 5113 C 495.167 0.919097 -3.26095 0
M  V30 5114 C 493.726 1.40216 -3.49308 0
M  V30 5115 C 492.873 0.369709 -2.74824 0
M  V30 5116 H 495.824 -0.261102 -1.56537 0
M  V30 5117 H 495.845 1.78308 -3.36135 0
M  V30 5118 H 495.357 0.0338526 -3.88085 0
M  V30 5119 H 493.458 2.30714 -2.92578 0
M  V30 5120 H 493.571 1.40541 -4.58023 0
M  V30 5121 H 491.935 0.839113 -2.40481 0
M  V30 5122 H 492.718 -0.507173 -3.39533 0
M  V30 5123 N 495.163 1.55791 0.238111 0
M  V30 5124 C 496.093 1.94068 1.29846 0
M  V30 5125 C 497.074 0.806726 1.49753 0
M  V30 5126 O 498.259 1.06772 1.62214 0
M  V30 5127 C 495.389 2.24302 2.65153 0
M  V30 5128 C 494.343 3.40032 2.59927 0
M  V30 5129 C 493.669 3.55829 3.99111 0
M  V30 5130 C 494.969 4.75476 2.16148 0
M  V30 5131 H 496.663 2.82887 0.980563 0
M  V30 5132 H 494.209 1.36105 0.470253 0
M  V30 5133 H 496.162 2.4967 3.39475 0
M  V30 5134 H 494.886 1.32318 2.98596 0
M  V30 5135 H 493.545 3.14687 1.88063 0
M  V30 5136 H 493.193 2.6125 4.29834 0
M  V30 5137 H 492.893 4.3366 3.96501 0
M  V30 5138 H 494.417 3.83528 4.7512 0
M  V30 5139 H 495.831 5.00158 2.80205 0
M  V30 5140 H 494.228 5.56472 2.24631 0
M  V30 5141 H 495.298 4.71946 1.11333 0
M  V30 5142 N 496.642 -0.504142 1.49319 0
M  V30 5143 C 497.605 -1.5883 1.65244 0
M  V30 5144 C 498.605 -1.52009 0.524386 0
M  V30 5145 O 499.795 -1.55218 0.79077 0
M  V30 5146 C 496.927 -2.98481 1.64687 0
M  V30 5147 H 498.12 -1.4604 2.61939 0
M  V30 5148 H 495.673 -0.728144 1.38303 0
M  V30 5149 H 496.408 -3.16751 0.695644 0
M  V30 5150 H 496.193 -3.0484 2.46607 0
M  V30 5151 H 497.683 -3.77256 1.79075 0
M  V30 5152 N 498.12 -1.38341 -0.754957 0
M  V30 5153 C 499.536 -1.19508 -1.05783 0
M  V30 5154 C 499.736 -0.0428005 -2.01455 0
M  V30 5155 O 498.792 0.611861 -2.44975 0
M  V30 5156 C 500.105 -2.52091 -1.63923 0
M  V30 5157 C 501.653 -2.58762 -1.76101 0
M  V30 5158 C 502.128 -3.91517 -2.37652 0
M  V30 5159 N 503.619 -3.93049 -2.45085 0
M  V30 5160 C 504.354 -4.9253 -2.93602 0
M  V30 5161 N 503.85 -6.02408 -3.42165 0
M  V30 5162 N 505.643 -4.79921 -2.92629 0
M  V30 5163 H 497.794 -2.1206 -0.120056 0
M  V30 5164 H 500.057 -0.94089 -0.11589 0
M  V30 5165 H 499.763 -3.36858 -1.01093 0
M  V30 5166 H 499.637 -2.70388 -2.63003 0
M  V30 5167 H 502.024 -1.74391 -2.38058 0
M  V30 5168 H 502.105 -2.44333 -0.757294 0
M  V30 5169 H 501.749 -4.76309 -1.76329 0
M  V30 5170 H 501.679 -4.03256 -3.38662 0
M  V30 5171 H 504.17 -3.13685 -2.10736 0
M  V30 5172 H 504.483 -6.74248 -3.77637 0
M  V30 5173 H 502.828 -6.0603 -3.40225 0
M  V30 5174 H 506.019 -3.93194 -2.54001 0
M  V30 5175 H 506.192 -5.57601 -3.30128 0
M  V30 5176 N 499.598 0.982988 -1.23187 0
M  V30 5177 C 500.561 2.05649 -1.01198 0
M  V30 5178 C 501.561 1.6078 0.0252464 0
M  V30 5179 O 502.751 1.72878 -0.214243 0
M  V30 5180 C 499.883 3.36744 -0.530656 0
M  V30 5181 H 501.076 2.2659 -1.96461 0
M  V30 5182 H 498.629 1.15602 -1.05195 0
M  V30 5183 H 499.364 3.21492 0.425873 0
M  V30 5184 H 499.149 3.7065 -1.2791 0
M  V30 5185 H 500.639 4.15705 -0.397366 0
M  V30 5186 N 501.076 1.04316 1.18135 0
M  V30 5187 C 502.009 0.580823 2.20685 0
M  V30 5188 C 502.987 -0.385943 1.57953 0
M  V30 5189 O 504.171 -0.299654 1.86103 0
M  V30 5190 C 501.298 -0.151162 3.38363 0
M  V30 5191 C 500.344 0.769247 4.19505 0
M  V30 5192 S 501.177 2.25352 4.85774 0
M  V30 5193 C 502.333 1.53246 6.0685 0
M  V30 5194 H 502.566 1.44968 2.5956 0
M  V30 5195 H 500.099 0.85434 1.28609 0
M  V30 5196 H 502.057 -0.567315 4.06561 0
M  V30 5197 H 500.718 -0.995936 2.97892 0
M  V30 5198 H 499.911 0.203335 5.0359 0
M  V30 5199 H 499.513 1.12436 3.56699 0
M  V30 5200 H 501.805 0.82689 6.72435 0
M  V30 5201 H 502.748 2.35044 6.67952 0
M  V30 5202 H 503.156 1.0237 5.5514 0
M  V30 5203 N 502.554 -1.34406 0.822964 0
M  V30 5204 C 503.831 -1.92733 0.333641 0
M  V30 5205 C 504.211 -1.75107 -1.17901 0
M  V30 5206 O 503.559 -1.12983 -1.98613 0
M  V30 5207 C 503.769 -3.40557 0.763023 0
M  V30 5208 C 505.117 -4.17709 0.761879 0
M  V30 5209 O 506.141 -3.49141 0.705606 0
M  V30 5210 O 505 -5.40082 0.835109 0
M  V30 5211 H 502.094 -0.821964 0.0911249 0
M  V30 5212 H 504.64 -1.4338 0.907757 0
M  V30 5213 H 503.412 -3.47187 1.8049 0
M  V30 5214 H 503.035 -3.97259 0.164605 0
M  V30 5215 N 504.032 -0.577932 -1.46621 0
M  V30 5216 C 505.443 -0.150071 -1.86096 0
M  V30 5217 C 505.794 1.28563 -1.48209 0
M  V30 5218 O 504.919 1.97036 -0.894754 0
M  V30 5219 C 505.514 -0.265576 -3.37758 0
M  V30 5220 C 504.073 0.10738 -3.76247 0
M  V30 5221 C 503.22 -0.603711 -2.70649 0
M  V30 5222 H 506.171 -0.786438 -1.37844 0
M  V30 5223 H 506.192 0.510352 -3.77062 0
M  V30 5224 H 505.704 -1.3106 -3.65301 0
M  V30 5225 H 503.805 1.15272 -3.54321 0
M  V30 5226 H 503.918 -0.26561 -4.78363 0
M  V30 5227 H 502.282 -0.0444884 -2.54661 0
M  V30 5228 H 503.065 -1.65029 -3.01032 0
M  V30 5229 N 505.51 1.54411 -0.315457 0
M  V30 5230 C 506.42 2.27737 0.56329 0
M  V30 5231 C 507.436 1.31787 1.13614 0
M  V30 5232 O 508.612 1.64791 1.15784 0
M  V30 5233 C 505.677 3.01478 1.71207 0
M  V30 5234 C 504.738 4.12997 1.17185 0
M  V30 5235 C 503.971 4.83212 2.26588 0
M  V30 5236 O 504.194 4.52884 3.46775 0
M  V30 5237 O 503.128 5.70299 1.92463 0
M  V30 5238 H 506.954 3.03683 -0.0319614 0
M  V30 5239 H 504.539 1.49178 -0.0814188 0
M  V30 5240 H 506.421 3.47683 2.38106 0
M  V30 5241 H 505.096 2.28414 2.29366 0
M  V30 5242 H 504.003 3.71159 0.468174 0
M  V30 5243 H 505.336 4.8808 0.635501 0
M  V30 5244 N 506.988 0.0434614 1.5754 0
M  V30 5245 C 507.951 -0.918696 2.09982 0
M  V30 5246 C 508.951 -1.24488 1.01781 0
M  V30 5247 O 510.141 -1.18284 1.27885 0
M  V30 5248 C 507.273 -2.23093 2.57764 0
M  V30 5249 H 508.466 -0.464229 2.96285 0
M  V30 5250 H 506.019 -0.204818 1.54952 0
M  V30 5251 H 506.754 -2.73137 1.74832 0
M  V30 5252 H 506.539 -2.00724 3.36827 0
M  V30 5253 H 508.029 -2.92028 2.98512 0
M  V30 5254 N 508.466 -1.55915 -0.229846 0
M  V30 5255 C 509.376 -1.94891 -1.30593 0
M  V30 5256 C 510.392 -0.851604 -1.51736 0
M  V30 5257 O 511.568 -1.15447 -1.65027 0
M  V30 5258 C 508.633 -2.25052 -2.63728 0
M  V30 5259 C 507.694 -3.48306 -2.5096 0
M  V30 5260 C 506.927 -3.77019 -3.77747 0
M  V30 5261 O 507.15 -3.07534 -4.80395 0
M  V30 5262 O 506.084 -4.70523 -3.75356 0
M  V30 5263 H 509.91 -2.86581 -1.00525 0
M  V30 5264 H 507.495 -1.43017 -0.432025 0
M  V30 5265 H 509.377 -2.45682 -3.42372 0
M  V30 5266 H 508.052 -1.36538 -2.93495 0
M  V30 5267 H 506.959 -3.32964 -1.70546 0
M  V30 5268 H 508.292 -4.37177 -2.26136 0
M  V30 5269 N 509.944 0.496216 -1.49584 0
M  V30 5270 C 511.19 1.25189 -1.59548 0
M  V30 5271 C 511.523 1.9212 -0.283466 0
M  V30 5272 O 510.798 1.80947 0.713324 0
M  V30 5273 C 511.081 2.31516 -2.75812 0
M  V30 5274 C 510.934 1.69054 -4.16822 0
M  V30 5275 C 512.253 3.3304 -2.87702 0
M  V30 5276 H 509.372 0.45379 -0.580727 0
M  V30 5277 H 512.014 0.549327 -1.81886 0
M  V30 5278 H 510.164 2.91438 -2.56897 0
M  V30 5279 H 511.836 1.12923 -4.47265 0
M  V30 5280 H 510.079 0.994485 -4.22247 0
M  V30 5281 H 510.75 2.462 -4.94054 0
M  V30 5282 H 513.226 2.83114 -3.04936 0
M  V30 5283 H 512.102 4.04794 -3.7072 0
M  V30 5284 H 512.363 3.95655 -1.97255 0
M  V30 5285 N 511.423 1.38739 0.74761 0
M  V30 5286 C 512.353 1.39173 1.87492 0
M  V30 5287 C 513.334 0.256794 1.6815 0
M  V30 5288 O 514.519 0.460762 1.88655 0
M  V30 5289 C 511.649 1.22197 3.25093 0
M  V30 5290 C 510.603 2.32957 3.59047 0
M  V30 5291 C 509.929 2.01082 4.95449 0
M  V30 5292 C 511.229 3.75237 3.6331 0
M  V30 5293 H 512.923 2.3351 1.87386 0
M  V30 5294 H 510.469 1.12399 0.900134 0
M  V30 5295 H 512.422 1.21124 4.03617 0
M  V30 5296 H 511.146 0.243241 3.25693 0
M  V30 5297 H 509.805 2.33226 2.82845 0
M  V30 5298 H 509.453 1.01678 4.92616 0
M  V30 5299 H 509.153 2.75267 5.19136 0
M  V30 5300 H 510.677 2.01638 5.76346 0
M  V30 5301 H 512.091 3.76966 4.31937 0
M  V30 5302 H 510.488 4.48677 3.98509 0
M  V30 5303 H 511.558 4.07122 2.634 0
M  V30 5304 N 512.901 -0.976442 1.23707 0
M  V30 5305 C 513.831 -2.08749 1.04624 0
M  V30 5306 C 514.812 -1.70057 -0.0380956 0
M  V30 5307 O 515.997 -1.93782 0.127308 0
M  V30 5308 C 513.127 -3.41335 0.640902 0
M  V30 5309 C 512.081 -3.93947 1.67302 0
M  V30 5310 C 511.407 -5.22774 1.12301 0
M  V30 5311 C 512.707 -4.22769 3.06697 0
M  V30 5312 H 514.401 -2.24972 1.97555 0
M  V30 5313 H 511.947 -1.08108 0.951247 0
M  V30 5314 H 513.9 -4.18489 0.494434 0
M  V30 5315 H 512.624 -3.24988 -0.324099 0
M  V30 5316 H 511.283 -3.18941 1.80755 0
M  V30 5317 H 510.931 -5.0278 0.148877 0
M  V30 5318 H 510.631 -5.58942 1.81267 0
M  V30 5319 H 512.155 -6.02546 0.988479 0
M  V30 5320 H 513.569 -4.90659 2.96524 0
M  V30 5321 H 511.966 -4.70147 3.72937 0
M  V30 5322 H 513.036 -3.29885 3.55392 0
M  V30 5323 N 514.379 -1.04941 -1.1758 0
M  V30 5324 C 515.342 -0.652456 -2.19717 0
M  V30 5325 C 516.342 0.294745 -1.58076 0
M  V30 5326 O 517.532 0.0789579 -1.74021 0
M  V30 5327 C 514.664 0.0420712 -3.40874 0
M  V30 5328 H 515.857 -1.55642 -2.5635 0
M  V30 5329 H 513.41 -0.842995 -1.31618 0
M  V30 5330 H 514.145 0.95943 -3.09783 0
M  V30 5331 H 513.93 -0.638844 -3.86861 0
M  V30 5332 H 515.42 0.306 -4.16477 0
M  V30 5333 N 515.857 1.33968 -0.830081 0
M  V30 5334 C 517.087 2.01987 -0.434142 0
M  V30 5335 C 517.495 1.62639 0.96671 0
M  V30 5336 O 516.838 0.831151 1.63822 0
M  V30 5337 C 516.9 3.5648 -0.465018 0
M  V30 5338 C 516.564 4.19176 -1.82045 0
M  V30 5339 C 517.561 4.39181 -2.78237 0
M  V30 5340 C 515.246 4.55792 -2.11089 0
M  V30 5341 C 517.24 4.94937 -4.01642 0
M  V30 5342 C 514.927 5.11258 -3.34752 0
M  V30 5343 C 515.925 5.30775 -4.29845 0
M  V30 5344 O 515.613 5.85064 -5.51322 0
M  V30 5345 H 515.345 0.653847 -0.171639 0
M  V30 5346 H 517.899 1.72066 -1.12171 0
M  V30 5347 H 516.129 3.8569 0.279284 0
M  V30 5348 H 517.818 4.05804 -0.0881334 0
M  V30 5349 H 518.584 4.11249 -2.57097 0
M  V30 5350 H 514.463 4.39901 -1.3787 0
M  V30 5351 H 518.007 5.10086 -4.75876 0
M  V30 5352 H 513.904 5.38619 -3.55753 0
M  V30 5353 H 514.672 6.03489 -5.5294 0
M  V30 5354 N 517.335 0.585699 1.46312 0
M  V30 5355 C 518.245 -0.148236 2.34131 0
M  V30 5356 C 519.261 -0.882972 1.49932 0
M  V30 5357 O 520.437 -0.845484 1.82794 0
M  V30 5358 C 517.502 -1.14714 3.27172 0
M  V30 5359 C 516.563 -0.416746 4.27272 0
M  V30 5360 C 515.796 -1.36806 5.15868 0
M  V30 5361 O 516.019 -2.60475 5.07454 0
M  V30 5362 O 514.953 -0.877018 5.95476 0
M  V30 5363 H 518.779 0.572882 2.98248 0
M  V30 5364 H 516.364 0.346082 1.45336 0
M  V30 5365 H 518.246 -1.72303 3.84564 0
M  V30 5366 H 516.921 -1.84967 2.65648 0
M  V30 5367 H 515.828 0.201061 3.73559 0
M  V30 5368 H 517.161 0.244872 4.9159 0
M  V30 5369 N 518.813 -1.54241 0.323641 0
M  V30 5370 C 519.746 -2.20579 -0.584833 0
M  V30 5371 C 520.724 -1.18286 -1.11567 0
M  V30 5372 O 521.908 -1.47025 -1.17966 0
M  V30 5373 C 519.035 -2.86754 -1.80249 0
M  V30 5374 C 518.081 -4.02767 -1.4029 0
M  V30 5375 S 518.914 -5.33693 -0.439539 0
M  V30 5376 C 520.07 -6.03362 -1.66448 0
M  V30 5377 H 520.303 -2.97292 -0.0213238 0
M  V30 5378 H 517.836 -1.54024 0.107726 0
M  V30 5379 H 519.794 -3.25503 -2.50116 0
M  V30 5380 H 518.455 -2.09844 -2.33719 0
M  V30 5381 H 517.648 -4.47933 -2.31024 0
M  V30 5382 H 517.25 -3.65692 -0.783928 0
M  V30 5383 H 519.542 -6.25546 -2.6019 0
M  V30 5384 H 520.485 -6.9689 -1.25498 0
M  V30 5385 H 520.893 -5.33273 -1.85149 0
M  V30 5386 N 520.291 -0.0518155 -1.57515 0
M  V30 5387 C 521.239 0.940195 -2.12751 0
M  V30 5388 C 522.233 1.3218 -1.05948 0
M  V30 5389 O 523.439 1.30138 -1.24355 0
M  V30 5390 H 519.814 0.321066 -0.680015 0
M  V30 5391 H 521.785 0.449217 -2.94999 0
M  V30 5392 C 520.534 2.2055 -2.68799 0
M  V30 5393 H 519.857 1.92066 -3.50643 0
M  V30 5394 H 521.297 2.88119 -3.11068 0
M  V30 5395 C 519.756 2.95061 -1.62605 0
M  V30 5396 O 520.286 3.88025 -1.03921 0
M  V30 5397 N 518.492 2.57804 -1.34111 0
M  V30 5398 H 518.039 1.82281 -1.8202 0
M  V30 5399 H 517.997 3.07964 -0.632872 0
M  V30 5400 N 521.769 1.56035 0.221574 0
M  V30 5401 C 523.017 1.78693 0.944102 0
M  V30 5402 C 523.338 0.620317 1.8487 0
M  V30 5403 O 522.608 -0.362784 1.92512 0
M  V30 5404 H 521.188 0.659082 0.351597 0
M  V30 5405 H 523.85 1.93497 0.233435 0
M  V30 5406 H 522.946 2.70837 1.55093 0
M  V30 5407 N 523.247 -0.488276 1.49845 0
M  V30 5408 C 524.179 -1.60539 1.63584 0
M  V30 5409 C 525.192 -1.5434 0.517972 0
M  V30 5410 O 526.381 -1.60041 0.790516 0
M  V30 5411 C 523.481 -2.99374 1.58835 0
M  V30 5412 C 522.654 -3.30624 2.86368 0
M  V30 5413 C 521.713 -4.4893 2.74496 0
M  V30 5414 O 520.739 -4.50085 3.48443 0
M  V30 5415 N 521.941 -5.49591 1.86894 0
M  V30 5416 H 524.706 -1.49176 2.59936 0
M  V30 5417 H 522.267 -0.67639 1.47094 0
M  V30 5418 H 524.259 -3.76459 1.48529 0
M  V30 5419 H 522.829 -3.04595 0.702892 0
M  V30 5420 H 522.049 -2.42314 3.1093 0
M  V30 5421 H 523.337 -3.48305 3.70892 0
M  V30 5422 H 522.735 -5.51467 1.26097 0
M  V30 5423 H 521.292 -6.25728 1.82503 0
M  V30 5424 N 524.725 -1.39134 -0.740242 0
M  V30 5425 C 526.136 -1.32208 -1.31825 0
M  V30 5426 C 526.487 0.0159919 -1.96193 0
M  V30 5427 O 525.612 0.918111 -1.95958 0
M  V30 5428 C 526.207 -2.39436 -2.39699 0
M  V30 5429 C 524.766 -2.36048 -2.93187 0
M  V30 5430 C 523.913 -2.21599 -1.66701 0
M  V30 5431 H 526.864 -1.49298 -0.538133 0
M  V30 5432 H 526.885 -2.05922 -3.19963 0
M  V30 5433 H 526.397 -3.36811 -1.92821 0
M  V30 5434 H 524.498 -1.42295 -3.44359 0
M  V30 5435 H 524.611 -3.30704 -3.46658 0
M  V30 5436 H 522.975 -1.68681 -1.90837 0
M  V30 5437 H 523.758 -3.20936 -1.21882 0
M  V30 5438 N 526.204 0.969867 -1.24223 0
M  V30 5439 C 527.134 2.08191 -1.05729 0
M  V30 5440 C 528.115 1.70075 0.0290765 0
M  V30 5441 O 529.3 1.93712 -0.137583 0
M  V30 5442 C 526.43 3.40991 -0.658995 0
M  V30 5443 C 525.384 3.93054 -1.69389 0
M  V30 5444 C 524.71 5.22171 -1.15072 0
M  V30 5445 C 526.01 4.21137 -3.08935 0
M  V30 5446 H 527.704 2.23921 -1.98746 0
M  V30 5447 H 525.25 1.07602 -0.956967 0
M  V30 5448 H 527.203 4.18221 -0.51662 0
M  V30 5449 H 525.927 3.25155 0.30686 0
M  V30 5450 H 524.586 3.17977 -1.82444 0
M  V30 5451 H 524.234 5.02694 -0.175539 0
M  V30 5452 H 523.934 5.57973 -1.84229 0
M  V30 5453 H 525.458 6.02013 -1.02042 0
M  V30 5454 H 526.872 4.8908 -2.99121 0
M  V30 5455 H 525.269 4.68163 -3.75425 0
M  V30 5456 H 526.339 3.27996 -3.57137 0
M  V30 5457 N 527.682 1.05563 1.17022 0
M  V30 5458 C 529.093 0.793475 1.69 0
M  V30 5459 C 529.444 -0.683882 1.83895 0
M  V30 5460 O 528.569 -1.53116 1.5292 0
M  V30 5461 C 529.164 1.43376 3.06967 0
M  V30 5462 C 527.723 1.21956 3.56095 0
M  V30 5463 C 526.87 1.51494 2.3226 0
M  V30 5464 H 529.821 1.22008 1.01487 0
M  V30 5465 H 529.842 0.845068 3.70997 0
M  V30 5466 H 529.354 2.50899 2.96093 0
M  V30 5467 H 527.455 0.163749 3.7224 0
M  V30 5468 H 527.568 1.92713 4.38633 0
M  V30 5469 H 525.932 0.935175 2.3691 0
M  V30 5470 H 526.715 2.60159 2.23992 0
M  V30 5471 N 529.16 -1.33526 0.837174 0
M  V30 5472 C 530.576 -1.50727 0.524743 0
M  V30 5473 C 530.776 -1.77792 -0.948279 0
M  V30 5474 O 529.832 -1.83719 -1.73216 0
M  V30 5475 C 531.145 -2.66299 1.39661 0
M  V30 5476 C 532.693 -2.80183 1.39521 0
M  V30 5477 C 533.168 -3.98815 2.25189 0
M  V30 5478 N 534.659 -4.06047 2.2289 0
M  V30 5479 C 535.394 -4.97032 2.85915 0
M  V30 5480 N 534.89 -5.93143 3.57985 0
M  V30 5481 N 536.683 -4.90015 2.75394 0
M  V30 5482 H 528.834 -1.1422 1.79074 0
M  V30 5483 H 531.097 -0.561399 0.763894 0
M  V30 5484 H 530.803 -2.52974 2.4433 0
M  V30 5485 H 530.677 -3.61663 1.07145 0
M  V30 5486 H 533.064 -2.92942 0.356253 0
M  V30 5487 H 533.145 -1.85586 1.76044 0
M  V30 5488 H 532.789 -3.86817 3.29143 0
M  V30 5489 H 532.719 -4.92654 1.86009 0
M  V30 5490 H 535.21 -3.37262 1.70478 0
M  V30 5491 H 535.523 -6.59227 4.03286 0
M  V30 5492 H 533.868 -5.93223 3.62093 0
M  V30 5493 H 537.059 -4.13894 2.18654 0
M  V30 5494 H 537.232 -5.60724 3.24796 0
M  V30 5495 N 530.638 -0.59345 -1.46 0
M  V30 5496 C 531.915 -0.0157933 -1.95594 0
M  V30 5497 C 532.295 1.44807 -1.53604 0
M  V30 5498 O 531.643 2.14342 -0.791824 0
M  V30 5499 C 531.853 -0.199081 -3.48432 0
M  V30 5500 C 533.201 -0.0724943 -4.24538 0
M  V30 5501 O 534.225 -0.128469 -3.55968 0
M  V30 5502 O 533.084 0.0542426 -5.46473 0
M  V30 5503 H 530.178 0.043749 -0.825842 0
M  V30 5504 H 532.724 -0.662522 -1.56233 0
M  V30 5505 H 531.496 -1.21631 -3.71916 0
M  V30 5506 H 531.119 0.483576 -3.94648 0
M  V30 5507 N 532.116 1.54067 -0.331816 0
M  V30 5508 C 533.066 2.21363 0.546101 0
M  V30 5509 C 534.05 1.19698 1.07523 0
M  V30 5510 O 535.242 1.45293 1.01088 0
M  V30 5511 C 532.371 2.98115 1.70242 0
M  V30 5512 C 531.457 4.07127 1.18779 0
M  V30 5513 N 531.848 5.04267 0.393465 0
M  V30 5514 C 530.146 4.21226 1.46576 0
M  V30 5515 C 530.847 5.81585 0.115572 0
M  V30 5516 N 529.823 5.39022 0.703987 0
M  V30 5517 H 533.625 2.93821 -0.0679751 0
M  V30 5518 H 531.139 1.61812 -0.138085 0
M  V30 5519 H 533.136 3.44818 2.34321 0
M  V30 5520 H 531.796 2.27181 2.31989 0
M  V30 5521 H 532.807 5.17888 0.0355757 0
M  V30 5522 H 529.484 3.61509 2.08848 0
M  V30 5523 H 530.874 6.6985 -0.524426 0
M  V30 5524 N 533.594 0.0601682 1.57485 0
M  V30 5525 C 534.842 -0.610386 1.92662 0
M  V30 5526 C 535.163 -1.70849 0.939981 0
M  V30 5527 O 534.433 -1.95895 -0.0137455 0
M  V30 5528 H 533.013 -0.228457 0.711208 0
M  V30 5529 H 535.675 0.115288 1.94559 0
M  V30 5530 H 534.771 -1.0432 2.94149 0
M  V30 5531 N 535.072 -1.5615 -0.213296 0
M  V30 5532 C 536.319 -1.79546 -0.936462 0
M  V30 5533 C 536.647 -0.630337 -1.84003 0
M  V30 5534 O 535.902 0.384883 -1.91878 0
M  V30 5535 C 536.201 -3.08772 -1.79985 0
M  V30 5536 C 535.867 -4.38532 -1.04882 0
M  V30 5537 C 534.529 -4.73787 -0.841393 0
M  V30 5538 C 536.881 -5.18609 -0.51907 0
M  V30 5539 C 534.209 -5.86627 -0.0924403 0
M  V30 5540 C 536.561 -6.32229 0.216581 0
M  V30 5541 C 535.225 -6.6608 0.435191 0
M  V30 5542 H 534.495 -0.657004 -0.342676 0
M  V30 5543 H 537.142 -1.9041 -0.204051 0
M  V30 5544 H 535.447 -2.93065 -2.60038 0
M  V30 5545 H 537.144 -3.24077 -2.36168 0
M  V30 5546 H 533.734 -4.10855 -1.22048 0
M  V30 5547 H 537.918 -4.91801 -0.666775 0
M  V30 5548 H 533.174 -6.11338 0.087081 0
M  V30 5549 H 537.348 -6.93503 0.634538 0
M  V30 5550 H 534.975 -7.5336 1.01746 0
M  V30 5551 N 536.55 0.480323 -1.50102 0
M  V30 5552 C 537.961 1.06142 -1.53593 0
M  V30 5553 C 538.312 1.93335 -0.334055 0
M  V30 5554 O 537.437 2.09188 0.55403 0
M  V30 5555 C 538.032 1.9317 -2.78336 0
M  V30 5556 C 536.591 2.46405 -2.84538 0
M  V30 5557 C 535.738 1.24521 -2.4777 0
M  V30 5558 H 538.689 0.26333 -1.565 0
M  V30 5559 H 538.71 2.78123 -2.59669 0
M  V30 5560 H 538.222 1.29683 -3.65792 0
M  V30 5561 H 536.323 3.13472 -2.01411 0
M  V30 5562 H 536.436 2.82143 -3.87211 0
M  V30 5563 H 534.8 1.57706 -2.00003 0
M  V30 5564 H 535.583 0.627102 -3.37524 0
M  V30 5565 N 538.028 1.39524 0.732853 0
M  V30 5566 C 539.274 1.37068 1.49467 0
M  V30 5567 C 539.607 -0.0327166 1.94172 0
M  V30 5568 O 538.882 -0.998071 1.66939 0
M  V30 5569 C 539.165 2.34494 2.73285 0
M  V30 5570 C 539.018 3.83784 2.34585 0
M  V30 5571 C 540.337 2.29717 3.75391 0
M  V30 5572 H 537.456 0.499206 0.542183 0
M  V30 5573 H 540.098 1.70532 0.837783 0
M  V30 5574 H 538.248 2.06087 3.29333 0
M  V30 5575 H 539.92 4.22949 1.84151 0
M  V30 5576 H 538.163 4.00455 1.66787 0
M  V30 5577 H 538.834 4.47444 3.23262 0
M  V30 5578 H 541.31 2.54839 3.28932 0
M  V30 5579 H 540.186 2.99962 4.59689 0
M  V30 5580 H 540.447 1.30291 4.22465 0
M  V30 5581 N 539.506 -0.963266 1.24736 0
M  V30 5582 C 540.922 -1.23273 1.01371 0
M  V30 5583 C 541.122 -1.99618 -0.274776 0
M  V30 5584 O 540.178 -2.32293 -0.989769 0
M  V30 5585 C 541.491 -2.01554 2.23152 0
M  V30 5586 C 543.039 -2.14629 2.27823 0
M  V30 5587 C 543.514 -2.96307 3.49237 0
M  V30 5588 N 545.005 -3.03887 3.49581 0
M  V30 5589 C 545.74 -3.67456 4.40186 0
M  V30 5590 N 545.236 -4.32706 5.41052 0
M  V30 5591 N 547.029 -3.64511 4.27888 0
M  V30 5592 H 539.18 -0.452294 2.07528 0
M  V30 5593 H 541.443 -0.262521 0.910926 0
M  V30 5594 H 541.149 -1.52847 3.1675 0
M  V30 5595 H 541.023 -3.02278 2.25628 0
M  V30 5596 H 543.41 -2.62537 1.34753 0
M  V30 5597 H 543.491 -1.13238 2.2937 0
M  V30 5598 H 543.135 -2.49091 4.42624 0
M  V30 5599 H 543.065 -3.97905 3.44933 0
M  V30 5600 H 545.556 -2.57477 2.76611 0
M  V30 5601 H 545.869 -4.79042 6.06415 0
M  V30 5602 H 544.214 -4.31361 5.44934 0
M  V30 5603 H 547.405 -3.12715 3.4832 0
M  V30 5604 H 547.578 -4.13768 4.98698 0
M  V30 5605 N 540.985 -1.06182 -1.16461 0
M  V30 5606 C 542.231 -0.779015 -1.87241 0
M  V30 5607 C 542.564 0.692715 -1.81425 0
M  V30 5608 O 541.839 1.5074 -1.22913 0
M  V30 5609 C 542.122 -1.2728 -3.36856 0
M  V30 5610 C 541.975 -2.80821 -3.51368 0
M  V30 5611 C 543.294 -0.879799 -4.31216 0
M  V30 5612 H 540.413 -0.284464 -0.679889 0
M  V30 5613 H 543.055 -1.31755 -1.36896 0
M  V30 5614 H 541.205 -0.814673 -3.79862 0
M  V30 5615 H 542.877 -3.34833 -3.17308 0
M  V30 5616 H 541.12 -3.19606 -2.93316 0
M  V30 5617 H 541.791 -3.10435 -4.56436 0
M  V30 5618 H 544.267 -1.27436 -3.96105 0
M  V30 5619 H 543.143 -1.25278 -5.34412 0
M  V30 5620 H 543.404 0.215372 -4.41575 0
M  V30 5621 N 542.463 1.3308 -0.844243 0
M  V30 5622 C 543.709 1.97898 -0.443206 0
M  V30 5623 C 544.042 1.66699 0.99625 0
M  V30 5624 O 543.317 0.949704 1.69738 0
M  V30 5625 C 543.6 3.53801 -0.670606 0
M  V30 5626 C 543.453 3.94667 -2.15772 0
M  V30 5627 C 544.772 4.39936 -0.120226 0
M  V30 5628 H 541.891 0.718861 -0.162504 0
M  V30 5629 H 544.533 1.57633 -1.06075 0
M  V30 5630 H 542.683 3.88229 -0.14496 0
M  V30 5631 H 544.355 3.70469 -2.74865 0
M  V30 5632 H 542.598 3.44203 -2.6402 0
M  V30 5633 H 543.269 5.03275 -2.26757 0
M  V30 5634 H 545.745 4.12183 -0.5696 0
M  V30 5635 H 544.621 5.4803 -0.308984 0
M  V30 5636 H 544.882 4.31184 0.976347 0
M  V30 5637 N 543.941 0.601185 1.45683 0
M  V30 5638 C 545.187 0.0940202 2.02582 0
M  V30 5639 C 545.52 -1.26972 1.46941 0
M  V30 5640 O 544.795 -1.83613 0.641612 0
M  V30 5641 C 545.078 0.0481715 3.60068 0
M  V30 5642 C 544.931 1.44212 4.26055 0
M  V30 5643 C 546.25 -0.642975 4.35378 0
M  V30 5644 H 543.369 0.0356404 0.736138 0
M  V30 5645 H 546.011 0.771929 1.73612 0
M  V30 5646 H 544.161 -0.529128 3.8488 0
M  V30 5647 H 545.833 2.06601 4.12449 0
M  V30 5648 H 544.076 2.00465 3.84703 0
M  V30 5649 H 544.747 1.36234 5.34925 0
M  V30 5650 H 547.223 -0.152351 4.15821 0
M  V30 5651 H 546.099 -0.644141 5.45107 0
M  V30 5652 H 546.36 -1.70785 4.0778 0
M  V30 5653 N 545.419 -1.53889 0.339982 0
M  V30 5654 C 546.83 -1.86139 -0.144671 0
M  V30 5655 C 547.181 -1.2613 -1.50285 0
M  V30 5656 O 546.306 -0.573515 -2.08662 0
M  V30 5657 C 546.901 -3.37728 -0.269285 0
M  V30 5658 C 545.46 -3.69868 -0.698168 0
M  V30 5659 C 544.607 -2.76777 0.170249 0
M  V30 5660 H 547.558 -1.48503 0.559704 0
M  V30 5661 H 547.579 -3.64331 -1.0974 0
M  V30 5662 H 547.091 -3.81375 0.719366 0
M  V30 5663 H 545.192 -3.31764 -1.69597 0
M  V30 5664 H 545.305 -4.76582 -0.490533 0
M  V30 5665 H 543.669 -2.52188 -0.356844 0
M  V30 5666 H 544.452 -3.23253 1.15597 0
M  V30 5667 N 546.897 -0.0685191 -1.57451 0
M  V30 5668 C 548.145 0.60016 -1.92983 0
M  V30 5669 C 548.466 1.70348 -0.949028 0
M  V30 5670 O 547.736 1.959 0.00335647 0
M  V30 5671 H 546.316 0.224682 -0.712409 0
M  V30 5672 H 548.978 -0.125605 -1.94495 0
M  V30 5673 H 548.074 1.02759 -2.94698 0
M  V30 5674 N 548.375 1.56261 0.205012 0
M  V30 5675 C 549.621 1.80306 0.9283 0
M  V30 5676 C 549.954 0.640932 1.83319 0
M  V30 5677 O 549.229 -0.359032 1.91158 0
M  V30 5678 C 549.512 3.14547 1.75306 0
M  V30 5679 C 549.365 4.41236 0.873562 0
M  V30 5680 C 550.684 3.45382 2.72762 0
M  V30 5681 H 547.803 0.655929 0.336044 0
M  V30 5682 H 550.445 1.88984 0.196211 0
M  V30 5683 H 548.595 3.0728 2.37721 0
M  V30 5684 H 550.267 4.60539 0.264887 0
M  V30 5685 H 548.51 4.33427 0.179773 0
M  V30 5686 H 549.181 5.31639 1.48541 0
M  V30 5687 H 551.657 3.52884 2.20481 0
M  V30 5688 H 550.533 4.40449 3.2756 0
M  V30 5689 H 550.794 2.68377 3.51321 0
M  V30 5690 N 549.853 -0.472356 1.50355 0
M  V30 5691 C 551.099 -1.22634 1.6152 0
M  V30 5692 C 551.432 -1.91645 0.313995 0
M  V30 5693 O 550.707 -1.82059 -0.684446 0
M  V30 5694 C 550.99 -2.27099 2.7946 0
M  V30 5695 C 550.843 -1.62402 4.19459 0
M  V30 5696 C 552.162 -3.28421 2.92964 0
M  V30 5697 H 549.281 -0.444494 0.587873 0
M  V30 5698 H 551.923 -0.520321 1.82737 0
M  V30 5699 H 550.073 -2.87314 2.61501 0
M  V30 5700 H 551.745 -1.05793 4.49005 0
M  V30 5701 H 549.988 -0.927184 4.23776 0
M  V30 5702 H 550.659 -2.38309 4.97909 0
M  V30 5703 H 553.135 -2.78227 3.09401 0
M  V30 5704 H 552.011 -3.98845 3.77113 0
M  V30 5705 H 552.272 -3.92467 2.03525 0
M  V30 5706 N 551.331 -1.39911 -0.725443 0
M  V30 5707 C 552.579 -1.37382 -1.48224 0
M  V30 5708 C 552.9 0.0264107 -1.94982 0
M  V30 5709 O 552.17 0.979408 -1.6966 0
M  V30 5710 H 550.75 -0.505596 -0.549892 0
M  V30 5711 H 553.412 -1.7487 -0.860608 0
M  V30 5712 H 552.508 -2.04254 -2.3598 0
M  V30 5713 N 552.809 0.956637 -1.25245 0
M  V30 5714 C 553.772 2.03457 -1.05537 0
M  V30 5715 C 554.772 1.60798 -0.00886317 0
M  V30 5716 O 555.962 1.72384 -0.250865 0
M  V30 5717 C 553.094 3.35543 -0.601965 0
M  V30 5718 H 554.287 2.22372 -2.01223 0
M  V30 5719 H 551.84 1.13344 -1.07623 0
M  V30 5720 H 552.575 3.22323 0.357584 0
M  V30 5721 H 552.36 3.67854 -1.35743 0
M  V30 5722 H 553.85 4.14769 -0.485454 0
M  V30 5723 N 554.287 1.06798 1.15896 0
M  V30 5724 C 555.703 0.792423 1.38538 0
M  V30 5725 C 555.903 -0.60592 1.92174 0
M  V30 5726 O 554.959 -1.36561 2.12385 0
M  V30 5727 C 556.272 1.86157 2.36149 0
M  V30 5728 C 557.82 1.88567 2.49823 0
M  V30 5729 C 558.295 2.9455 3.5072 0
M  V30 5730 N 559.786 2.93616 3.58251 0
M  V30 5731 C 560.521 3.72267 4.36125 0
M  V30 5732 N 560.017 4.60751 5.17379 0
M  V30 5733 N 561.81 3.60637 4.31158 0
M  V30 5734 H 553.961 1.96993 0.794198 0
M  V30 5735 H 556.224 0.853942 0.411688 0
M  V30 5736 H 555.93 2.86603 2.03843 0
M  V30 5737 H 555.804 1.71692 3.3586 0
M  V30 5738 H 558.191 0.887765 2.8143 0
M  V30 5739 H 558.272 2.0711 1.5013 0
M  V30 5740 H 557.916 3.94537 3.19849 0
M  V30 5741 H 557.846 2.73255 4.50155 0
M  V30 5742 H 560.337 2.29472 3.00252 0
M  V30 5743 H 560.65 5.17408 5.74028 0
M  V30 5744 H 558.995 4.64803 5.16704 0
M  V30 5745 H 562.186 2.90892 3.66742 0
M  V30 5746 H 562.359 4.22176 4.91601 0
M  V30 5747 N 555.766 -1.3263 0.851289 0
M  V30 5748 C 556.716 -2.26451 0.265302 0
M  V30 5749 C 557.7 -1.49814 -0.586899 0
M  V30 5750 O 558.892 -1.71525 -0.436834 0
M  V30 5751 C 556.021 -3.38895 -0.548212 0
M  V30 5752 C 555.107 -4.2292 0.316189 0
M  V30 5753 N 555.498 -4.86014 1.40084 0
M  V30 5754 C 553.796 -4.45876 0.105356 0
M  V30 5755 C 554.497 -5.48667 1.93235 0
M  V30 5756 N 553.473 -5.29455 1.232 0
M  V30 5757 H 557.275 -2.72757 1.09457 0
M  V30 5758 H 554.789 -1.4668 0.697047 0
M  V30 5759 H 556.786 -4.05111 -0.984402 0
M  V30 5760 H 555.446 -2.94135 -1.37531 0
M  V30 5761 H 556.457 -4.86212 1.78377 0
M  V30 5762 H 553.134 -4.11804 -0.687299 0
M  V30 5763 H 554.524 -6.08865 2.84135 0
M  V30 5764 N 557.244 -0.608902 -1.45362 0
M  V30 5765 C 558.49 -0.104762 -2.02529 0
M  V30 5766 C 558.823 1.26191 -1.47613 0
M  V30 5767 O 558.098 1.8327 -0.65134 0
M  V30 5768 C 558.381 -0.0672661 -3.60037 0
M  V30 5769 C 558.234 -1.4647 -4.25284 0
M  V30 5770 C 559.553 0.619877 -4.35713 0
M  V30 5771 H 556.672 -0.0395438 -0.735938 0
M  V30 5772 H 559.314 -0.781126 -1.73201 0
M  V30 5773 H 557.464 0.50871 -3.85155 0
M  V30 5774 H 559.136 -2.08785 -4.11347 0
M  V30 5775 H 557.379 -2.02502 -3.83634 0
M  V30 5776 H 558.05 -1.39069 -5.34195 0
M  V30 5777 H 560.526 0.130297 -4.15896 0
M  V30 5778 H 559.402 0.615224 -5.45441 0
M  V30 5779 H 559.663 1.68621 -4.0868 0
M  V30 5780 N 558.722 1.53707 -0.348139 0
M  V30 5781 C 559.669 2.25173 0.506518 0
M  V30 5782 C 560.639 1.25174 1.09182 0
M  V30 5783 O 561.824 1.53917 1.12757 0
M  V30 5784 C 558.964 3.03141 1.64923 0
M  V30 5785 C 558.077 4.18002 1.0908 0
M  V30 5786 C 557.212 4.83447 2.20119 0
M  V30 5787 C 556.251 5.90369 1.61651 0
M  V30 5788 N 555.388 6.49575 2.66451 0
M  V30 5789 H 560.228 2.97799 -0.109452 0
M  V30 5790 H 557.765 1.46953 -0.0657866 0
M  V30 5791 H 559.723 3.46607 2.32205 0
M  V30 5792 H 558.353 2.32803 2.23612 0
M  V30 5793 H 557.405 3.79145 0.308783 0
M  V30 5794 H 558.717 4.94892 0.623178 0
M  V30 5795 H 557.871 5.30008 2.95257 0
M  V30 5796 H 556.61 4.05991 2.70227 0
M  V30 5797 H 555.615 5.43186 0.850209 0
M  V30 5798 H 556.84 6.69735 1.1239 0
M  V30 5799 H 554.786 5.74981 3.15805 0
M  V30 5800 H 554.703 7.21952 2.24325 0
M  V30 5801 H 555.971 7.00789 3.41344 0
M  V30 5802 N 560.2 0.0768682 1.57412 0
M  V30 5803 C 561.446 -0.585926 1.94778 0
M  V30 5804 C 561.801 -1.66912 0.956982 0
M  V30 5805 O 561.094 -1.9159 -0.0199454 0
M  V30 5806 C 561.288 -1.20268 3.36557 0
M  V30 5807 C 561.117 -0.18076 4.49337 0
M  V30 5808 C 559.887 0.236362 5.04747 0
M  V30 5809 C 562.085 0.583978 5.10974 0
M  V30 5810 N 560.067 1.24846 6.01071 0
M  V30 5811 C 561.438 1.44841 6.02844 0
M  V30 5812 C 563.493 0.639492 4.93776 0
M  V30 5813 C 562.196 2.36343 6.79363 0
M  V30 5814 C 564.222 1.54204 5.70942 0
M  V30 5815 C 563.584 2.39414 6.62465 0
M  V30 5816 H 559.683 -0.185281 0.759734 0
M  V30 5817 H 562.267 0.155193 1.9408 0
M  V30 5818 H 560.438 -1.9137 3.37982 0
M  V30 5819 H 562.17 -1.82636 3.61146 0
M  V30 5820 H 558.925 -0.14777 4.73369 0
M  V30 5821 H 559.349 1.75217 6.53933 0
M  V30 5822 H 563.991 -0.00510074 4.228 0
M  V30 5823 H 561.709 3.01836 7.49614 0
M  V30 5824 H 565.295 1.5899 5.59655 0
M  V30 5825 H 564.175 3.0812 7.21132 0
M  V30 5826 N 561.678 -1.56367 -0.196722 0
M  V30 5827 C 562.608 -1.97442 -1.24655 0
M  V30 5828 C 563.589 -0.846147 -1.47561 0
M  V30 5829 O 564.774 -1.11035 -1.59326 0
M  V30 5830 C 561.904 -2.31253 -2.59112 0
M  V30 5831 C 560.858 -3.46804 -2.50821 0
M  V30 5832 C 560.184 -3.66286 -3.89536 0
M  V30 5833 C 561.484 -4.8104 -2.03465 0
M  V30 5834 H 563.178 -2.85388 -0.905216 0
M  V30 5835 H 560.724 -1.37304 -0.434002 0
M  V30 5836 H 562.677 -2.58583 -3.32736 0
M  V30 5837 H 561.401 -1.40188 -2.94983 0
M  V30 5838 H 560.06 -3.19563 -1.79653 0
M  V30 5839 H 559.708 -2.72555 -4.22756 0
M  V30 5840 H 559.408 -4.4402 -3.84864 0
M  V30 5841 H 560.932 -3.9599 -4.64784 0
M  V30 5842 H 562.346 -5.07411 -2.66846 0
M  V30 5843 H 560.743 -5.62232 -2.09798 0
M  V30 5844 H 561.813 -4.74732 -0.98781 0
M  V30 5845 N 563.156 0.464375 -1.50603 0
M  V30 5846 C 564.404 1.21356 -1.61608 0
M  V30 5847 C 564.725 1.92329 -0.321643 0
M  V30 5848 O 563.995 1.84403 0.661232 0
M  V30 5849 H 562.575 0.45094 -0.595535 0
M  V30 5850 H 565.237 0.535046 -1.87412 0
M  V30 5851 H 564.333 1.95783 -2.43054 0
M  V30 5852 N 564.634 1.40294 0.718013 0
M  V30 5853 C 566.05 1.2227 1.02577 0
M  V30 5854 C 566.25 0.0961976 2.0127 0
M  V30 5855 O 565.306 -0.546695 2.46511 0
M  V30 5856 C 566.619 2.56348 1.57182 0
M  V30 5857 C 568.167 2.6334 1.69178 0
M  V30 5858 C 568.642 3.9768 2.27188 0
M  V30 5859 N 570.133 3.99409 2.34578 0
M  V30 5860 C 570.868 5.00141 2.8044 0
M  V30 5861 N 570.364 6.11268 3.26073 0
M  V30 5862 N 572.157 4.87511 2.79802 0
M  V30 5863 H 564.308 2.12304 0.0637899 0
M  V30 5864 H 566.571 0.943632 0.0909036 0
M  V30 5865 H 566.277 3.3942 0.921262 0
M  V30 5866 H 566.151 2.77266 2.55741 0
M  V30 5867 H 568.538 1.80641 2.33351 0
M  V30 5868 H 568.619 2.46255 0.692247 0
M  V30 5869 H 568.263 4.80817 1.63638 0
M  V30 5870 H 568.193 4.12093 3.27852 0
M  V30 5871 H 570.684 3.19162 2.02346 0
M  V30 5872 H 570.997 6.84023 3.59628 0
M  V30 5873 H 569.342 6.14837 3.24038 0
M  V30 5874 H 572.533 3.9979 2.43487 0
M  V30 5875 H 572.706 5.66158 3.15228 0
M  V30 5876 N 566.112 -0.949982 1.2575 0
M  V30 5877 C 567.358 -1.69766 1.10938 0
M  V30 5878 C 567.691 -1.91056 -0.348028 0
M  V30 5879 O 566.966 -1.48488 -1.25625 0
M  V30 5880 C 567.249 -3.07779 1.86933 0
M  V30 5881 C 567.102 -2.9387 3.4053 0
M  V30 5882 C 568.421 -4.07749 1.65616 0
M  V30 5883 H 565.54 -0.616144 0.404396 0
M  V30 5884 H 568.182 -1.10394 1.54639 0
M  V30 5885 H 566.332 -3.58462 1.4979 0
M  V30 5886 H 568.004 -2.50476 3.87375 0
M  V30 5887 H 566.247 -2.29686 3.68004 0
M  V30 5888 H 566.918 -3.91719 3.88922 0
M  V30 5889 H 569.394 -3.65994 1.97959 0
M  V30 5890 H 568.27 -5.02348 2.21218 0
M  V30 5891 H 568.531 -4.38029 0.598595 0
M  V30 5892 N 567.59 -1.07411 -1.15328 0
M  V30 5893 C 568.815 -0.818856 -1.90551 0
M  V30 5894 C 569.24 0.622194 -1.77512 0
M  V30 5895 O 568.598 1.43484 -1.10824 0
M  V30 5896 C 568.646 -1.23267 -3.38877 0
M  V30 5897 O 567.75 -0.378345 -4.10661 0
M  V30 5898 H 567.091 -0.29827 -0.593238 0
M  V30 5899 H 569.621 -1.43289 -1.46046 0
M  V30 5900 H 569.631 -1.20912 -3.89672 0
M  V30 5901 H 568.306 -2.28226 -3.47686 0
M  V30 5902 H 566.883 -0.464437 -3.69996 0
M  V30 5903 N 569.068 1.32177 -0.85831 0
M  V30 5904 C 570.314 1.97417 -0.46417 0
M  V30 5905 C 570.647 1.67746 0.978514 0
M  V30 5906 O 569.922 0.967654 1.68721 0
M  V30 5907 C 570.205 3.53069 -0.708094 0
M  V30 5908 C 570.058 3.92357 -2.19946 0
M  V30 5909 C 571.377 4.39783 -0.166881 0
M  V30 5910 H 568.496 0.717097 -0.17012 0
M  V30 5911 H 571.138 1.56499 -1.07741 0
M  V30 5912 H 569.288 3.88054 -0.186128 0
M  V30 5913 H 570.96 3.67533 -2.78779 0
M  V30 5914 H 569.203 3.41384 -2.67656 0
M  V30 5915 H 569.874 5.00841 -2.32082 0
M  V30 5916 H 572.35 4.11556 -0.613285 0
M  V30 5917 H 571.226 5.47671 -0.367093 0
M  V30 5918 H 571.487 4.32196 0.930559 0
M  V30 5919 N 570.547 0.616602 1.45037 0
M  V30 5920 C 571.479 -0.135186 2.28801 0
M  V30 5921 C 572.492 -0.82303 1.40464 0
M  V30 5922 O 573.681 -0.686909 1.64754 0
M  V30 5923 C 570.781 -1.21292 3.16451 0
M  V30 5924 C 569.954 -0.61043 4.3312 0
M  V30 5925 C 569.013 -1.58022 5.01912 0
M  V30 5926 O 568.039 -1.10301 5.58411 0
M  V30 5927 N 569.241 -2.91464 5.02025 0
M  V30 5928 H 572.006 0.583612 2.93963 0
M  V30 5929 H 569.567 0.456723 1.55324 0
M  V30 5930 H 571.559 -1.86169 3.59337 0
M  V30 5931 H 570.129 -1.83412 2.53138 0
M  V30 5932 H 569.349 0.216638 3.93604 0
M  V30 5933 H 570.637 -0.188293 5.08451 0
M  V30 5934 H 570.035 -3.32829 4.57429 0
M  V30 5935 H 568.592 -3.51741 5.48745 0
M  V30 5936 N 572.025 -1.5352 0.356285 0
M  V30 5937 C 573.436 -1.86282 -0.12492 0
M  V30 5938 C 573.787 -1.27717 -1.48939 0
M  V30 5939 O 572.912 -0.595614 -2.08042 0
M  V30 5940 C 573.507 -3.37995 -0.23345 0
M  V30 5941 C 572.066 -3.70588 -0.658899 0
M  V30 5942 C 571.213 -2.76581 0.199596 0
M  V30 5943 H 574.164 -1.47901 0.575423 0
M  V30 5944 H 574.185 -3.65475 -1.0587 0
M  V30 5945 H 573.697 -3.8059 0.759776 0
M  V30 5946 H 571.798 -3.33544 -1.66069 0
M  V30 5947 H 571.911 -4.77076 -0.439957 0
M  V30 5948 H 570.275 -2.52552 -0.330076 0
M  V30 5949 H 571.058 -3.22008 1.19019 0
M  V30 5950 N 573.503 -0.0852151 -1.57369 0
M  V30 5951 C 574.413 0.891712 -2.16992 0
M  V30 5952 C 575.429 1.3174 -1.13669 0
M  V30 5953 O 576.605 1.38735 -1.45995 0
M  V30 5954 C 573.67 2.13635 -2.73059 0
M  V30 5955 C 572.731 1.7658 -3.91303 0
M  V30 5956 C 571.964 2.95111 -4.44686 0
M  V30 5957 O 572.187 4.09539 -3.97032 0
M  V30 5958 O 571.121 2.74149 -5.35841 0
M  V30 5959 H 574.947 0.414477 -3.00858 0
M  V30 5960 H 572.532 0.138598 -1.48756 0
M  V30 5961 H 574.414 2.86595 -3.08935 0
M  V30 5962 H 573.089 2.6043 -1.92244 0
M  V30 5963 H 571.996 1.00831 -3.60255 0
M  V30 5964 H 573.329 1.34557 -4.7345 0
M  V30 5965 N 574.981 1.5647 0.188427 0
M  V30 5966 C 575.891 1.98285 1.2538 0
M  V30 5967 C 576.907 0.891535 1.49424 0
M  V30 5968 O 578.083 1.19782 1.61908 0
M  V30 5969 C 575.148 2.31965 2.57669 0
M  V30 5970 C 574.209 3.54838 2.41638 0
M  V30 5971 C 573.442 3.86901 3.67618 0
M  V30 5972 O 573.665 3.20163 4.72072 0
M  V30 5973 O 572.599 4.80309 3.62749 0
M  V30 5974 H 576.425 2.89145 0.928912 0
M  V30 5975 H 574.01 1.44112 0.393955 0
M  V30 5976 H 575.892 2.54673 3.35737 0
M  V30 5977 H 574.567 1.44271 2.89771 0
M  V30 5978 H 573.474 3.37369 1.61658 0
M  V30 5979 H 574.807 4.43019 2.14465 0
M  V30 5980 N 576.459 -0.456382 1.50847 0
M  V30 5981 C 577.684 -1.2349 1.66628 0
M  V30 5982 C 578.109 -1.84715 0.355254 0
M  V30 5983 O 577.467 -1.67961 -0.682559 0
M  V30 5984 C 577.515 -2.30865 2.77009 0
M  V30 5985 O 576.619 -3.35882 2.39285 0
M  V30 5986 H 575.96 -0.36266 0.556214 0
M  V30 5987 H 578.49 -0.541374 1.97308 0
M  V30 5988 H 578.5 -2.75949 3.00526 0
M  V30 5989 H 577.175 -1.85677 3.72152 0
M  V30 5990 H 575.752 -2.96406 2.26269 0
M  V30 5991 N 577.937 -1.40673 -0.710563 0
M  V30 5992 C 579.167 -1.4234 -1.49742 0
M  V30 5993 C 579.575 -0.022821 -1.89186 0
M  V30 5994 O 578.918 0.964773 -1.56326 0
M  V30 5995 C 578.98 -2.25509 -2.79975 0
M  V30 5996 C 578.644 -3.73862 -2.62824 0
M  V30 5997 C 579.641 -4.66379 -2.29752 0
M  V30 5998 C 577.326 -4.17735 -2.78932 0
M  V30 5999 C 579.32 -6.00756 -2.13006 0
M  V30 6000 C 577.007 -5.5218 -2.61802 0
M  V30 6001 C 578.005 -6.43505 -2.28888 0
M  V30 6002 O 577.693 -7.75472 -2.11894 0
M  V30 6003 H 577.425 -0.487311 -0.468513 0
M  V30 6004 H 579.979 -1.8542 -0.883668 0
M  V30 6005 H 578.209 -1.77218 -3.43701 0
M  V30 6006 H 579.898 -2.19058 -3.41714 0
M  V30 6007 H 580.664 -4.33778 -2.16936 0
M  V30 6008 H 576.543 -3.46967 -3.03537 0
M  V30 6009 H 580.087 -6.72003 -1.87237 0
M  V30 6010 H 575.984 -5.84365 -2.74204 0
M  V30 6011 H 576.752 -7.86458 -2.26775 0
M  V30 6012 N 579.415 0.9433 -1.26252 0
M  V30 6013 C 580.64 1.72898 -1.14547 0
M  V30 6014 C 581.065 1.85761 0.295743 0
M  V30 6015 O 580.423 1.3463 1.21427 0
M  V30 6016 C 580.471 3.11471 -1.8171 0
M  V30 6017 O 579.575 3.97336 -1.10445 0
M  V30 6018 H 578.916 0.530555 -0.399259 0
M  V30 6019 H 581.446 1.18159 -1.67032 0
M  V30 6020 H 581.456 3.61872 -1.88449 0
M  V30 6021 H 580.131 3.01425 -2.86558 0
M  V30 6022 H 578.708 3.55788 -1.11666 0
M  V30 6023 N 580.893 1.08022 1.14757 0
M  V30 6024 C 581.843 0.676345 2.17737 0
M  V30 6025 C 582.827 -0.302018 1.5804 0
M  V30 6026 O 584.019 -0.11466 1.76628 0
M  V30 6027 C 581.148 0.082984 3.432 0
M  V30 6028 C 580.234 1.0869 4.09936 0
M  V30 6029 N 580.625 2.26891 4.52055 0
M  V30 6030 C 578.923 0.921768 4.36371 0
M  V30 6031 C 579.624 2.90636 5.0389 0
M  V30 6032 N 578.6 2.18266 4.97856 0
M  V30 6033 H 582.402 1.5765 2.4804 0
M  V30 6034 H 579.916 0.954374 1.31398 0
M  V30 6035 H 581.913 -0.224289 4.16296 0
M  V30 6036 H 580.573 -0.812206 3.14378 0
M  V30 6037 H 581.584 2.6457 4.45223 0
M  V30 6038 H 578.261 0.0800499 4.17423 0
M  V30 6039 H 579.651 3.9104 5.46386 0
M  V30 6040 N 582.371 -1.3172 0.865308 0
M  V30 6041 C 583.617 -1.97559 0.483944 0
M  V30 6042 C 583.972 -1.67181 -0.95227 0
M  V30 6043 O 583.265 -0.955392 -1.66081 0
M  V30 6044 C 583.459 -3.5102 0.672283 0
M  V30 6045 C 583.288 -3.96312 2.12525 0
M  V30 6046 C 582.058 -4.22877 2.76591 0
M  V30 6047 C 584.256 -4.10596 3.09702 0
M  V30 6048 N 582.238 -4.5449 4.12689 0
M  V30 6049 C 583.609 -4.45867 4.30816 0
M  V30 6050 C 585.664 -3.92961 3.05755 0
M  V30 6051 C 584.367 -4.65344 5.48495 0
M  V30 6052 C 586.393 -4.13628 4.22688 0
M  V30 6053 C 585.755 -4.49227 5.42563 0
M  V30 6054 H 581.854 -0.74862 0.226035 0
M  V30 6055 H 584.438 -1.59336 1.11893 0
M  V30 6056 H 582.609 -3.88342 0.0669224 0
M  V30 6057 H 584.341 -4.03865 0.259765 0
M  V30 6058 H 581.096 -4.15343 2.27567 0
M  V30 6059 H 581.52 -4.74464 4.82921 0
M  V30 6060 H 586.162 -3.64531 2.14188 0
M  V30 6061 H 583.88 -4.92624 6.40584 0
M  V30 6062 H 587.466 -4.01474 4.21082 0
M  V30 6063 H 586.346 -4.64895 6.31539 0
M  V30 6064 N 583.85 -0.624285 -1.44708 0
M  V30 6065 C 584.782 0.12305 -2.28869 0
M  V30 6066 C 585.795 0.81557 -1.40898 0
M  V30 6067 O 586.984 0.678162 -1.65116 0
M  V30 6068 C 584.084 1.19612 -3.1709 0
M  V30 6069 C 583.257 0.587452 -4.33437 0
M  V30 6070 C 582.316 1.55358 -5.02743 0
M  V30 6071 O 581.341 1.07338 -5.58988 0
M  V30 6072 N 582.543 2.88798 -5.03563 0
M  V30 6073 H 585.308 -0.599193 -2.93649 0
M  V30 6074 H 582.87 -0.464954 -1.5508 0
M  V30 6075 H 584.861 1.84261 -3.60319 0
M  V30 6076 H 583.432 1.82067 -2.54107 0
M  V30 6077 H 582.652 -0.237509 -3.93484 0
M  V30 6078 H 583.94 0.161326 -5.08544 0
M  V30 6079 H 583.338 3.30399 -4.59188 0
M  V30 6080 H 581.894 3.48826 -5.50603 0
M  V30 6081 N 585.328 1.53329 -0.364422 0
M  V30 6082 C 586.744 1.59594 -0.0133165 0
M  V30 6083 C 586.944 1.37959 1.46865 0
M  V30 6084 O 586 1.18418 2.2301 0
M  V30 6085 C 587.313 2.97032 -0.468213 0
M  V30 6086 C 588.861 3.10138 -0.422334 0
M  V30 6087 C 589.336 4.49986 -0.853024 0
M  V30 6088 N 590.827 4.56098 -0.808037 0
M  V30 6089 C 591.562 5.62495 -1.11299 0
M  V30 6090 N 591.058 6.7665 -1.48717 0
M  V30 6091 N 592.851 5.52473 -1.03586 0
M  V30 6092 H 585.002 1.65644 -1.32951 0
M  V30 6093 H 587.265 0.77684 -0.543345 0
M  V30 6094 H 586.971 3.18 -1.5023 0
M  V30 6095 H 586.845 3.76918 0.145775 0
M  V30 6096 H 589.232 2.88881 0.602622 0
M  V30 6097 H 589.313 2.32263 -1.0718 0
M  V30 6098 H 588.957 4.7198 -1.87609 0
M  V30 6099 H 588.887 5.26289 -0.180819 0
M  V30 6100 H 591.378 3.74131 -0.532361 0
M  V30 6101 H 591.691 7.53776 -1.70415 0
M  V30 6102 H 590.036 6.78044 -1.52581 0
M  V30 6103 H 593.227 4.6217 -0.742736 0
M  V30 6104 H 593.4 6.35295 -1.27686 0
M  V30 6105 N 586.806 0.0935595 1.57322 0
M  V30 6106 C 588.222 -0.263091 1.57417 0
M  V30 6107 C 588.422 -1.68526 1.1046 0
M  V30 6108 O 587.478 -2.40139 0.780357 0
M  V30 6109 C 588.791 -0.0529201 3.00653 0
M  V30 6110 C 590.339 -0.120788 3.12767 0
M  V30 6111 C 590.814 0.0613707 4.57959 0
M  V30 6112 N 592.305 0.00648534 4.632 0
M  V30 6113 C 593.04 0.122699 5.73269 0
M  V30 6114 N 592.536 0.29366 6.92177 0
M  V30 6115 N 594.329 0.0640787 5.62063 0
M  V30 6116 H 586.48 1.02277 1.86154 0
M  V30 6117 H 588.743 0.4007 0.859153 0
M  V30 6118 H 588.449 0.929279 3.39201 0
M  V30 6119 H 588.323 -0.795899 3.68708 0
M  V30 6120 H 590.71 -1.09349 2.74093 0
M  V30 6121 H 590.791 0.653656 2.47307 0
M  V30 6122 H 590.435 1.03093 4.97327 0
M  V30 6123 H 590.365 -0.732748 5.21477 0
M  V30 6124 H 592.856 -0.123173 3.77699 0
M  V30 6125 H 593.169 0.37389 7.71895 0
M  V30 6126 H 591.514 0.329307 6.94219 0
M  V30 6127 H 594.705 -0.0683396 4.6805 0
M  V30 6128 H 594.878 0.158097 6.47807 0
M  V30 6129 N 588.284 -1.56567 -0.180126 0
M  V30 6130 C 589.561 -1.7235 -0.924931 0
M  V30 6131 C 589.941 -0.652523 -2.00762 0
M  V30 6132 O 589.289 0.334115 -2.26044 0
M  V30 6133 C 589.499 -3.1523 -1.49771 0
M  V30 6134 C 590.847 -3.75921 -1.97405 0
M  V30 6135 O 591.871 -3.18452 -1.59583 0
M  V30 6136 O 590.73 -4.7681 -2.67048 0
M  V30 6137 H 587.824 -0.703502 -0.434758 0
M  V30 6138 H 590.37 -1.6886 -0.168647 0
M  V30 6139 H 589.142 -3.84656 -0.718027 0
M  V30 6140 H 588.765 -3.23009 -2.31842 0
M  V30 6141 N 589.762 0.448376 -1.51087 0
M  V30 6142 C 590.992 1.21965 -1.66757 0
M  V30 6143 C 591.4 1.85748 -0.359753 0
M  V30 6144 O 590.743 1.71022 0.670604 0
M  V30 6145 C 590.805 2.35284 -2.71812 0
M  V30 6146 C 590.469 1.91957 -4.1473 0
M  V30 6147 C 591.466 1.42921 -4.9987 0
M  V30 6148 C 589.151 1.99985 -4.60772 0
M  V30 6149 C 591.145 1.02485 -6.29107 0
M  V30 6150 C 588.832 1.5916 -5.90009 0
M  V30 6151 C 589.83 1.10491 -6.74004 0
M  V30 6152 O 589.518 0.702413 -8.00825 0
M  V30 6153 H 589.25 0.374125 -0.563034 0
M  V30 6154 H 591.804 0.538927 -1.98204 0
M  V30 6155 H 590.034 3.06599 -2.35657 0
M  V30 6156 H 591.723 2.97184 -2.76472 0
M  V30 6157 H 592.489 1.36123 -4.65506 0
M  V30 6158 H 588.368 2.36814 -3.95525 0
M  V30 6159 H 591.912 0.644271 -6.94619 0
M  V30 6160 H 587.809 1.65626 -6.2389 0
M  V30 6161 H 588.577 0.829248 -8.14288 0
M  V30 6162 N 591.24 1.41047 0.703093 0
M  V30 6163 C 592.187 1.42302 1.81711 0
M  V30 6164 C 593.157 0.278336 1.63751 0
M  V30 6165 O 594.342 0.478266 1.84709 0
M  V30 6166 C 591.482 1.30362 3.19531 0
M  V30 6167 C 590.595 2.54638 3.48975 0
M  V30 6168 C 589.73 2.35047 4.76368 0
M  V30 6169 C 588.769 3.54837 4.98756 0
M  V30 6170 N 587.906 3.34363 6.1737 0
M  V30 6171 H 592.746 2.37516 1.79973 0
M  V30 6172 H 590.283 1.1795 0.878983 0
M  V30 6173 H 592.241 1.21443 3.99134 0
M  V30 6174 H 590.871 0.387602 3.20464 0
M  V30 6175 H 589.923 2.74037 2.63833 0
M  V30 6176 H 591.235 3.43766 3.61423 0
M  V30 6177 H 590.389 2.23552 5.64012 0
M  V30 6178 H 589.128 1.43363 4.66153 0
M  V30 6179 H 588.133 3.66795 4.09563 0
M  V30 6180 H 589.358 4.47464 5.10835 0
M  V30 6181 H 587.304 2.45373 6.08382 0
M  V30 6182 H 587.221 4.17063 6.30551 0
M  V30 6183 H 588.489 3.26626 7.07768 0
M  V30 6184 N 592.718 -0.936591 1.26751 0
M  V30 6185 C 593.966 -1.67998 1.12343 0
M  V30 6186 C 594.287 -1.92137 -0.332938 0
M  V30 6187 O 593.557 -1.52132 -1.23421 0
M  V30 6188 H 592.137 -0.622609 0.412756 0
M  V30 6189 H 594.799 -1.12509 1.59147 0
M  V30 6190 H 593.895 -2.65185 1.64571 0
M  V30 6191 N 594.196 -1.08629 -1.14182 0
M  V30 6192 C 595.443 -0.817345 -1.85272 0
M  V30 6193 C 595.771 0.656917 -1.83071 0
M  V30 6194 O 595.026 1.49897 -1.25815 0
M  V30 6195 C 595.325 -1.28734 -3.3341 0
M  V30 6196 C 594.991 -2.76981 -3.55798 0
M  V30 6197 C 593.653 -3.17469 -3.61617 0
M  V30 6198 C 596.005 -3.72605 -3.64438 0
M  V30 6199 C 593.333 -4.52371 -3.736 0
M  V30 6200 C 595.685 -5.07286 -3.77947 0
M  V30 6201 C 594.349 -5.47376 -3.82016 0
M  V30 6202 H 593.619 -0.299088 -0.677958 0
M  V30 6203 H 596.266 -1.35962 -1.34857 0
M  V30 6204 H 594.571 -0.664702 -3.8612 0
M  V30 6205 H 596.268 -1.05598 -3.86846 0
M  V30 6206 H 592.858 -2.44644 -3.51919 0
M  V30 6207 H 597.042 -3.42443 -3.5923 0
M  V30 6208 H 592.298 -4.82882 -3.75013 0
M  V30 6209 H 596.472 -5.81243 -3.83575 0
M  V30 6210 H 594.099 -6.51906 -3.91054 0
M  V30 6211 N 595.674 1.31259 -0.872281 0
M  V30 6212 C 596.899 2.0133 -0.498099 0
M  V30 6213 C 597.324 1.65031 0.902568 0
M  V30 6214 O 596.682 0.860164 1.59596 0
M  V30 6215 C 596.73 3.54411 -0.665205 0
M  V30 6216 O 595.834 4.11347 0.294473 0
M  V30 6217 H 595.175 0.633844 -0.197832 0
M  V30 6218 H 597.705 1.67402 -1.17633 0
M  V30 6219 H 597.715 4.04147 -0.559373 0
M  V30 6220 H 596.39 3.80171 -1.68651 0
M  V30 6221 H 594.967 3.72624 0.143403 0
M  V30 6222 N 597.152 0.631951 1.44375 0
M  V30 6223 C 598.563 0.219036 1.85411 0
M  V30 6224 C 598.914 -1.22974 1.52879 0
M  V30 6225 O 598.039 -1.93579 0.967266 0
M  V30 6226 C 598.634 0.39075 3.36539 0
M  V30 6227 C 597.193 0.0323351 3.76386 0
M  V30 6228 C 596.34 0.703744 2.68221 0
M  V30 6229 H 599.291 0.837056 1.3483 0
M  V30 6230 H 599.312 -0.370056 3.78696 0
M  V30 6231 H 598.824 1.44527 3.60185 0
M  V30 6232 H 596.925 -1.02042 3.58355 0
M  V30 6233 H 597.038 0.442969 4.77048 0
M  V30 6234 H 595.402 0.138974 2.54321 0
M  V30 6235 H 596.185 1.76088 2.947 0
M  V30 6236 N 598.631 -1.53133 0.372548 0
M  V30 6237 C 599.856 -2.0625 -0.218098 0
M  V30 6238 C 600.281 -1.24375 -1.41111 0
M  V30 6239 O 599.639 -0.264554 -1.79359 0
M  V30 6240 C 599.687 -3.55858 -0.582876 0
M  V30 6241 O 598.791 -3.76667 -1.67917 0
M  V30 6242 H 598.132 -0.663317 -0.030104 0
M  V30 6243 H 600.662 -1.97477 0.535169 0
M  V30 6244 H 600.672 -3.99007 -0.851925 0
M  V30 6245 H 599.347 -4.14892 0.289428 0
M  V30 6246 H 597.924 -3.45413 -1.40513 0
M  V30 6247 N 600.109 -0.101901 -1.5727 0
M  V30 6248 C 601.355 0.561027 -1.94885 0
M  V30 6249 C 601.688 1.6741 -0.984258 0
M  V30 6250 O 600.963 1.94491 -0.0184767 0
M  V30 6251 C 601.246 1.10982 -3.42571 0
M  V30 6252 C 601.099 0.00133418 -4.498 0
M  V30 6253 C 602.418 2.00608 -3.9172 0
M  V30 6254 H 599.537 0.202467 -0.708644 0
M  V30 6255 H 602.179 -0.173992 -1.89202 0
M  V30 6256 H 600.329 1.73621 -3.47546 0
M  V30 6257 H 602.001 -0.63322 -4.56933 0
M  V30 6258 H 600.244 -0.664143 -4.28686 0
M  V30 6259 H 600.915 0.426253 -5.50352 0
M  V30 6260 H 603.391 1.47864 -3.88941 0
M  V30 6261 H 602.267 2.3593 -4.95609 0
M  V30 6262 H 602.528 2.92608 -3.3141 0
M  V30 6263 N 601.587 1.56661 0.17182 0
M  V30 6264 C 602.864 1.72838 0.915778 0
M  V30 6265 C 603.244 0.66316 2.00413 0
M  V30 6266 O 602.592 -0.322123 2.26218 0
M  V30 6267 C 602.802 3.16019 1.48097 0
M  V30 6268 C 604.15 3.76962 1.95408 0
M  V30 6269 O 605.174 3.19294 1.57892 0
M  V30 6270 O 604.033 4.78219 2.64516 0
M  V30 6271 H 601.127 0.705797 0.431021 0
M  V30 6272 H 603.673 1.68947 0.159689 0
M  V30 6273 H 602.445 3.85031 0.697618 0
M  V30 6274 H 602.068 3.24234 2.30126 0
M  V30 6275 N 603.065 -0.440357 1.51323 0
M  V30 6276 C 604.311 -1.18874 1.65047 0
M  V30 6277 C 604.666 -1.88988 0.360742 0
M  V30 6278 O 603.959 -1.80479 -0.643272 0
M  V30 6279 C 604.153 -2.2339 2.78984 0
M  V30 6280 C 603.982 -1.63534 4.18911 0
M  V30 6281 C 602.752 -1.42158 4.84891 0
M  V30 6282 C 604.95 -1.11324 5.02107 0
M  V30 6283 N 602.932 -0.778679 6.08942 0
M  V30 6284 C 604.303 -0.595421 6.17134 0
M  V30 6285 C 606.358 -1.00471 4.87658 0
M  V30 6286 C 605.061 0.0202557 7.19297 0
M  V30 6287 C 607.087 -0.402928 5.90026 0
M  V30 6288 C 606.449 0.10436 7.04323 0
M  V30 6289 H 602.548 -0.422771 0.657866 0
M  V30 6290 H 605.132 -0.485814 1.88542 0
M  V30 6291 H 603.303 -2.91074 2.57158 0
M  V30 6292 H 605.035 -2.90366 2.81904 0
M  V30 6293 H 601.79 -1.68247 4.42707 0
M  V30 6294 H 602.214 -0.474755 6.75333 0
M  V30 6295 H 606.856 -1.38278 3.99548 0
M  V30 6296 H 604.574 0.410468 8.07057 0
M  V30 6297 H 608.16 -0.320897 5.80914 0
M  V30 6298 H 607.04 0.562697 7.82179 0
M  V30 6299 N 604.543 -1.41418 -0.695603 0
M  V30 6300 C 605.453 -1.45622 -1.83933 0
M  V30 6301 C 606.469 -0.346825 -1.70508 0
M  V30 6302 O 607.645 -0.59454 -1.92424 0
M  V30 6303 C 604.71 -1.33627 -3.19914 0
M  V30 6304 C 603.771 -2.54882 -3.45447 0
M  V30 6305 C 603.004 -2.43449 -4.7494 0
M  V30 6306 O 603.227 -1.45905 -5.51424 0
M  V30 6307 O 602.161 -3.33206 -5.01256 0
M  V30 6308 H 605.987 -2.42114 -1.83342 0
M  V30 6309 H 603.572 -1.22956 -0.848658 0
M  V30 6310 H 605.454 -1.29221 -4.01098 0
M  V30 6311 H 604.129 -0.402508 -3.21188 0
M  V30 6312 H 603.036 -2.64865 -2.64192 0
M  V30 6313 H 604.369 -3.47087 -3.48987 0
M  V30 6314 N 606.021 0.929856 -1.27246 0
M  V30 6315 C 607.249 1.71144 -1.16265 0
M  V30 6316 C 607.664 1.867 0.280786 0
M  V30 6317 O 607.021 1.38249 1.19136 0
M  V30 6318 C 607.072 3.11222 -1.83911 0
M  V30 6319 O 606.793 2.96398 -3.22614 0
M  V30 6320 C 608.294 4.05541 -1.79028 0
M  V30 6321 H 605.514 0.535499 -0.404328 0
M  V30 6322 H 608.058 1.16492 -1.68077 0
M  V30 6323 H 606.213 3.6274 -1.36009 0
M  V30 6324 H 606.627 3.8494 -3.56261 0
M  V30 6325 H 608.101 5.01351 -2.30978 0
M  V30 6326 H 608.578 4.32589 -0.759168 0
M  V30 6327 H 609.184 3.59947 -2.26535 0
M  V30 6328 N 607.499 1.09233 1.13605 0
M  V30 6329 C 608.745 0.828385 1.8511 0
M  V30 6330 C 609.078 -0.64437 1.83198 0
M  V30 6331 O 608.353 -1.47428 1.26867 0
M  V30 6332 C 608.636 1.36167 3.33363 0
M  V30 6333 C 608.489 2.90038 3.438 0
M  V30 6334 C 609.808 0.993819 4.28732 0
M  V30 6335 H 606.927 0.30239 0.672108 0
M  V30 6336 H 609.569 1.35339 1.33355 0
M  V30 6337 H 607.719 0.9151 3.77569 0
M  V30 6338 H 609.391 3.43128 3.08319 0
M  V30 6339 H 607.634 3.27271 2.84739 0
M  V30 6340 H 608.305 3.22428 4.48045 0
M  V30 6341 H 610.781 1.37893 3.92587 0
M  V30 6342 H 609.657 1.39403 5.30903 0
M  V30 6343 H 609.918 -0.0982206 4.41991 0
M  V30 6344 N 608.977 -1.30795 0.87923 0
M  V30 6345 C 610.254 -1.91145 0.415086 0
M  V30 6346 C 610.634 -1.7995 -1.10368 0
M  V30 6347 O 609.982 -1.21305 -1.93642 0
M  V30 6348 C 610.192 -3.37014 0.906778 0
M  V30 6349 C 611.54 -4.14101 0.938358 0
M  V30 6350 O 612.564 -3.45834 0.853053 0
M  V30 6351 O 611.423 -5.36054 1.06342 0
M  V30 6352 H 608.517 -0.81736 0.125905 0
M  V30 6353 H 611.063 -1.39401 0.967753 0
M  V30 6354 H 609.835 -3.3922 1.95053 0
M  V30 6355 H 609.458 -3.96204 0.332948 0
M  V30 6356 N 610.455 -0.639598 -1.44038 0
M  V30 6357 C 611.702 -0.14748 -2.01962 0
M  V30 6358 C 612.03 1.23372 -1.50365 0
M  V30 6359 O 611.285 1.8345 -0.681501 0
M  V30 6360 C 611.584 -0.0925348 -3.5728 0
M  V30 6361 C 611.25 -1.41365 -4.28167 0
M  V30 6362 C 609.912 -1.77545 -4.47248 0
M  V30 6363 C 612.264 -2.2853 -4.68427 0
M  V30 6364 C 609.592 -3.00583 -5.03852 0
M  V30 6365 C 611.944 -3.50846 -5.26393 0
M  V30 6366 C 610.608 -3.8724 -5.43692 0
M  V30 6367 H 609.878 -0.0539666 -0.739032 0
M  V30 6368 H 612.525 -0.827599 -1.72694 0
M  V30 6369 H 610.83 0.670987 -3.86012 0
M  V30 6370 H 612.527 0.304891 -3.99839 0
M  V30 6371 H 609.117 -1.1221 -4.13651 0
M  V30 6372 H 613.301 -2.0187 -4.5339 0
M  V30 6373 H 608.557 -3.28846 -5.15432 0
M  V30 6374 H 612.731 -4.18616 -5.56537 0
M  V30 6375 H 610.358 -4.8266 -5.87319 0
M  V30 6376 N 611.933 1.52934 -0.380664 0
M  V30 6377 C 613.21 1.93845 0.261417 0
M  V30 6378 C 613.59 1.31544 1.65104 0
M  V30 6379 O 612.938 0.480234 2.23397 0
M  V30 6380 C 613.148 3.47739 0.296466 0
M  V30 6381 C 614.496 4.21284 0.529578 0
M  V30 6382 O 615.52 3.54199 0.377041 0
M  V30 6383 O 614.379 5.40195 0.827753 0
M  V30 6384 H 611.473 0.811318 0.160285 0
M  V30 6385 H 614.019 1.64042 -0.434544 0
M  V30 6386 H 612.791 3.85395 -0.67724 0
M  V30 6387 H 612.414 3.8382 1.0377 0
M  V30 6388 N 613.412 0.11024 1.57214 0
M  V30 6389 C 614.637 -0.561179 1.99664 0
M  V30 6390 C 615.062 -1.59985 0.989266 0
M  V30 6391 O 614.42 -1.81255 -0.0402399 0
M  V30 6392 C 614.468 -1.17189 3.41027 0
M  V30 6393 O 613.572 -2.28755 3.4314 0
M  V30 6394 H 612.913 -0.14101 0.648855 0
M  V30 6395 H 615.443 0.196128 2.03658 0
M  V30 6396 H 615.453 -1.50954 3.79047 0
M  V30 6397 H 614.128 -0.411041 4.13864 0
M  V30 6398 H 612.705 -1.96495 3.16929 0
M  V30 6399 N 614.89 -1.56749 -0.16351 0
M  V30 6400 C 615.853 -1.96121 -1.18613 0
M  V30 6401 C 616.853 -0.845765 -1.36761 0
M  V30 6402 O 618.043 -1.11268 -1.34033 0
M  V30 6403 C 615.175 -2.26282 -2.54969 0
M  V30 6404 H 616.368 -2.87639 -0.848764 0
M  V30 6405 H 613.921 -1.50928 -0.406251 0
M  V30 6406 H 614.656 -1.37504 -2.93706 0
M  V30 6407 H 614.441 -3.07595 -2.43162 0
M  V30 6408 H 615.931 -2.57638 -3.28653 0
M  V30 6409 N 616.368 0.432326 -1.51554 0
M  V30 6410 C 617.779 1.01202 -1.56892 0
M  V30 6411 C 618.13 1.92175 -0.395394 0
M  V30 6412 O 617.255 2.10844 0.487198 0
M  V30 6413 C 617.85 1.84217 -2.8434 0
M  V30 6414 C 616.409 2.37228 -2.92233 0
M  V30 6415 C 615.556 1.16576 -2.51606 0
M  V30 6416 H 618.507 0.213407 -1.57259 0
M  V30 6417 H 618.528 2.69721 -2.68385 0
M  V30 6418 H 618.04 1.17979 -3.69733 0
M  V30 6419 H 616.141 3.06905 -2.11282 0
M  V30 6420 H 616.254 2.69682 -3.95991 0
M  V30 6421 H 614.618 1.51263 -2.04919 0
M  V30 6422 H 615.401 0.519404 -3.39348 0
M  V30 6423 N 617.846 1.41785 0.688094 0
M  V30 6424 C 619.071 1.45117 1.48175 0
M  V30 6425 C 619.496 0.060129 1.88004 0
M  V30 6426 O 618.854 -0.938385 1.55126 0
M  V30 6427 C 618.902 2.37224 2.71583 0
M  V30 6428 O 618.006 1.83443 3.69354 0
M  V30 6429 H 617.347 0.492208 0.445676 0
M  V30 6430 H 619.877 1.86329 0.845145 0
M  V30 6431 H 619.887 2.53353 3.19806 0
M  V30 6432 H 618.562 3.38293 2.41931 0
M  V30 6433 H 617.139 1.76802 3.28322 0
M  V30 6434 N 619.324 -0.923095 1.27737 0
M  V30 6435 C 620.573 -1.66581 1.13727 0
M  V30 6436 C 620.886 -1.9304 -0.315433 0
M  V30 6437 O 622.092 -2.65309 -0.57651 0
M  V30 6438 C 620.548 -3.00047 1.98745 0
M  V30 6439 C 620.156 -2.8127 3.48699 0
M  V30 6440 C 621.9 -3.77887 1.93395 0
M  V30 6441 C 619.807 -4.1032 4.25901 0
M  V30 6442 H 618.737 -0.624834 0.422017 0
M  V30 6443 H 621.388 -1.02514 1.52194 0
M  V30 6444 H 619.77 -3.65197 1.53125 0
M  V30 6445 H 620.944 -2.24859 4.02213 0
M  V30 6446 H 619.259 -2.16854 3.55476 0
M  V30 6447 H 621.856 -4.73526 2.48348 0
M  V30 6448 H 622.199 -4.06264 0.908605 0
M  V30 6449 H 622.732 -3.19541 2.36935 0
M  V30 6450 H 619.471 -3.8712 5.28978 0
M  V30 6451 H 618.991 -4.66377 3.77163 0
M  V30 6452 H 620.67 -4.78648 4.35321 0
M  V30 6453 N 620.802 -1.09834 -1.13024 0
M  V30 6454 C 621.734 -0.699379 -2.18269 0
M  V30 6455 C 622.747 0.260841 -1.60697 0
M  V30 6456 O 623.936 0.0462538 -1.7844 0
M  V30 6457 C 621.036 -0.0104537 -3.38898 0
M  V30 6458 C 620.209 -0.993275 -4.25973 0
M  V30 6459 C 619.268 -0.336982 -5.2512 0
M  V30 6460 O 618.294 -0.985892 -5.60597 0
M  V30 6461 N 619.496 0.90716 -5.73368 0
M  V30 6462 H 622.261 -1.60486 -2.5311 0
M  V30 6463 H 619.822 -0.986337 -1.28386 0
M  V30 6464 H 621.814 0.43991 -4.02302 0
M  V30 6465 H 620.384 0.797335 -3.0226 0
M  V30 6466 H 619.604 -1.62208 -3.5928 0
M  V30 6467 H 620.892 -1.65876 -4.81002 0
M  V30 6468 H 620.29 1.45384 -5.46699 0
M  V30 6469 H 618.847 1.30077 -6.38689 0
M  V30 6470 N 622.28 1.30327 -0.886154 0
M  V30 6471 C 623.19 2.31854 -0.357866 0
M  V30 6472 C 624.206 1.65392 0.540502 0
M  V30 6473 O 625.382 1.96683 0.433339 0
M  V30 6474 C 622.447 3.44171 0.417999 0
M  V30 6475 C 621.508 4.26257 -0.510263 0
M  V30 6476 C 620.741 5.3321 0.228669 0
M  V30 6477 O 620.964 5.51542 1.45458 0
M  V30 6478 O 619.898 6.0042 -0.421832 0
M  V30 6479 H 623.724 2.78995 -1.19982 0
M  V30 6480 H 621.309 1.34518 -0.650028 0
M  V30 6481 H 623.191 4.12588 0.857251 0
M  V30 6482 H 621.866 2.99164 1.23623 0
M  V30 6483 H 620.773 3.60533 -0.99835 0
M  V30 6484 H 622.106 4.74871 -1.29454 0
M  V30 6485 N 623.758 0.647228 1.43697 0
M  V30 6486 C 624.688 -0.0345631 2.33474 0
M  V30 6487 C 625.669 -0.818193 1.4913 0
M  V30 6488 O 626.854 -0.780867 1.77809 0
M  V30 6489 C 623.984 -1.00576 3.32418 0
M  V30 6490 C 622.938 -0.33266 4.26705 0
M  V30 6491 C 622.264 -1.41489 5.1564 0
M  V30 6492 C 623.564 0.771204 5.16575 0
M  V30 6493 H 625.258 0.715163 2.90733 0
M  V30 6494 H 622.804 0.345364 1.39797 0
M  V30 6495 H 624.757 -1.49159 3.94119 0
M  V30 6496 H 623.481 -1.78657 2.73403 0
M  V30 6497 H 622.14 0.13267 3.6636 0
M  V30 6498 H 621.788 -2.18698 4.52968 0
M  V30 6499 H 621.488 -0.969799 5.79542 0
M  V30 6500 H 623.012 -1.9022 5.80214 0
M  V30 6501 H 624.426 0.36779 5.72119 0
M  V30 6502 H 622.823 1.1404 5.89165 0
M  V30 6503 H 623.893 1.63169 4.56622 0
M  V30 6504 N 625.236 -1.5273 0.388769 0
M  V30 6505 C 626.647 -1.86505 -0.0853788 0
M  V30 6506 C 626.998 -1.30847 -1.46197 0
M  V30 6507 O 626.123 -0.639609 -2.06732 0
M  V30 6508 C 626.718 -3.38414 -0.161703 0
M  V30 6509 C 625.277 -3.71902 -0.580144 0
M  V30 6510 C 624.424 -2.76095 0.258218 0
M  V30 6511 H 627.375 -1.46647 0.606665 0
M  V30 6512 H 627.396 -3.67638 -0.980936 0
M  V30 6513 H 626.908 -3.78893 0.840333 0
M  V30 6514 H 625.009 -3.36992 -1.58957 0
M  V30 6515 H 625.122 -4.77902 -0.338663 0
M  V30 6516 H 623.486 -2.53195 -0.276432 0
M  V30 6517 H 624.269 -3.19411 1.25822 0
M  V30 6518 N 626.714 -0.118576 -1.57153 0
M  V30 6519 C 627.96 0.540326 -1.95469 0
M  V30 6520 C 628.293 1.66356 -1.00196 0
M  V30 6521 O 627.568 1.94461 -0.039104 0
M  V30 6522 C 627.851 1.07342 -3.43729 0
M  V30 6523 C 627.704 -0.0463732 -4.49776 0
M  V30 6524 C 629.023 1.96442 -3.93826 0
M  V30 6525 H 626.142 0.19494 -0.710751 0
M  V30 6526 H 628.784 -0.19405 -1.89006 0
M  V30 6527 H 626.934 1.69925 -3.49368 0
M  V30 6528 H 628.606 -0.681648 -4.56236 0
M  V30 6529 H 626.849 -0.709574 -4.27957 0
M  V30 6530 H 627.52 0.367856 -5.50773 0
M  V30 6531 H 629.996 1.43731 -3.90488 0
M  V30 6532 H 628.872 2.3066 -4.98084 0
M  V30 6533 H 629.133 2.89077 -3.34495 0
M  V30 6534 N 628.193 1.56834 0.155195 0
M  V30 6535 C 629.125 1.94235 1.21677 0
M  V30 6536 C 630.138 0.83724 1.39621 0
M  V30 6537 O 631.327 1.11567 1.39338 0
M  V30 6538 C 628.427 2.19402 2.58294 0
M  V30 6539 C 627.6 3.50671 2.61436 0
M  V30 6540 C 626.659 3.64475 3.79532 0
M  V30 6541 O 625.685 4.36945 3.64784 0
M  V30 6542 N 626.887 3.00526 4.96653 0
M  V30 6543 H 629.652 2.85901 0.898932 0
M  V30 6544 H 627.213 1.58185 0.34483 0
M  V30 6545 H 629.205 2.25886 3.35794 0
M  V30 6546 H 627.775 1.34042 2.82403 0
M  V30 6547 H 626.995 3.55702 1.69912 0
M  V30 6548 H 628.283 4.3702 2.60559 0
M  V30 6549 H 627.681 2.41549 5.11538 0
M  V30 6550 H 626.238 3.12583 5.71958 0
M  V30 6551 N 629.671 -0.424282 1.51781 0
M  V30 6552 C 630.896 -1.19928 1.6921 0
M  V30 6553 C 631.321 -1.8392 0.394355 0
M  V30 6554 O 630.679 -1.69371 -0.646778 0
M  V30 6555 C 630.727 -2.24937 2.81843 0
M  V30 6556 O 629.831 -3.3073 2.46356 0
M  V30 6557 H 629.172 -0.35078 0.563781 0
M  V30 6558 H 631.702 -0.499401 1.98412 0
M  V30 6559 H 631.712 -2.69512 3.06312 0
M  V30 6560 H 630.387 -1.77742 3.76006 0
M  V30 6561 H 628.964 -2.9154 2.32505 0
M  V30 6562 N 631.149 -1.42148 -0.680565 0
M  V30 6563 C 632.112 -1.4488 -1.77602 0
M  V30 6564 C 633.112 -0.337209 -1.57224 0
M  V30 6565 O 634.302 -0.597778 -1.63622 0
M  V30 6566 C 631.434 -1.27483 -3.16166 0
M  V30 6567 H 632.627 -2.42412 -1.76568 0
M  V30 6568 H 630.18 -1.28511 -0.889645 0
M  V30 6569 H 630.915 -0.30851 -3.22829 0
M  V30 6570 H 630.7 -2.08037 -3.3236 0
M  V30 6571 H 632.19 -1.32265 -3.96101 0
M  V30 6572 N 632.627 0.916307 -1.28225 0
M  V30 6573 C 633.876 1.65975 -1.14608 0
M  V30 6574 C 634.189 1.93204 0.305191 0
M  V30 6575 O 635.395 2.65611 0.562432 0
M  V30 6576 C 633.851 2.98989 -2.00333 0
M  V30 6577 C 633.459 2.79417 -3.50186 0
M  V30 6578 C 635.203 3.76856 -1.95397 0
M  V30 6579 C 633.11 4.08056 -4.28071 0
M  V30 6580 H 632.04 0.622587 -0.425324 0
M  V30 6581 H 634.691 1.01705 -1.52736 0
M  V30 6582 H 633.073 3.6438 -1.5506 0
M  V30 6583 H 634.247 2.22723 -4.034 0
M  V30 6584 H 632.562 2.14966 -3.56621 0
M  V30 6585 H 635.159 4.72203 -2.50856 0
M  V30 6586 H 635.502 4.05776 -0.930137 0
M  V30 6587 H 636.035 3.1828 -2.38626 0
M  V30 6588 H 632.774 3.8431 -5.31024 0
M  V30 6589 H 632.294 4.64371 -3.79631 0
M  V30 6590 H 633.973 4.76333 -4.37854 0
M  V30 6591 N 634.105 1.10431 1.1244 0
M  V30 6592 C 635.333 0.868872 1.87772 0
M  V30 6593 C 635.748 -0.580645 1.7965 0
M  V30 6594 O 635.105 -1.40031 1.17036 0
M  V30 6595 C 635.156 1.30855 3.36986 0
M  V30 6596 O 634.877 2.70123 3.44914 0
M  V30 6597 C 636.378 1.107 4.29256 0
M  V30 6598 H 633.598 0.311868 0.59412 0
M  V30 6599 H 636.142 1.46897 1.42273 0
M  V30 6600 H 634.297 0.752126 3.80029 0
M  V30 6601 H 634.711 2.88923 4.37748 0
M  V30 6602 H 636.185 1.46378 5.32238 0
M  V30 6603 H 636.662 0.0456228 4.39176 0
M  V30 6604 H 637.268 1.64988 3.91994 0
M  V30 6605 N 635.583 -1.29855 0.893053 0
M  V30 6606 C 636.493 -2.31661 0.370157 0
M  V30 6607 C 637.509 -1.65677 -0.531723 0
M  V30 6608 O 638.685 -1.9691 -0.422902 0
M  V30 6609 C 635.75 -3.44388 -0.399741 0
M  V30 6610 C 634.811 -4.2598 0.532861 0
M  V30 6611 C 634.044 -5.33324 -0.200388 0
M  V30 6612 O 634.267 -5.52305 -1.42531 0
M  V30 6613 O 633.201 -6.00188 0.453668 0
M  V30 6614 H 637.027 -2.78354 1.2146 0
M  V30 6615 H 634.612 -1.34171 0.657153 0
M  V30 6616 H 636.494 -4.13037 -0.835358 0
M  V30 6617 H 635.169 -2.99815 -1.22035 0
M  V30 6618 H 634.076 -3.59998 1.01746 0
M  V30 6619 H 635.409 -4.74178 1.3197 0
M  V30 6620 N 637.061 -0.65484 -1.43351 0
M  V30 6621 C 638.472 -0.248506 -1.85039 0
M  V30 6622 C 638.823 1.20526 -1.54816 0
M  V30 6623 O 637.948 1.92016 -0.99794 0
M  V30 6624 C 638.543 -0.444241 -3.35875 0
M  V30 6625 C 637.102 -0.0922108 -3.76287 0
M  V30 6626 C 636.249 -0.746327 -2.67068 0
M  V30 6627 H 639.2 -0.8584 -1.33481 0
M  V30 6628 H 639.221 0.309762 -3.79237 0
M  V30 6629 H 638.733 -1.50239 -3.5784 0
M  V30 6630 H 636.834 0.96328 -3.59933 0
M  V30 6631 H 636.947 -0.518807 -4.76283 0
M  V30 6632 H 635.311 -0.179416 -2.54067 0
M  V30 6633 H 636.094 -1.80754 -2.91861 0
M  V30 6634 N 638.539 1.52521 -0.396863 0
M  V30 6635 C 639.955 1.5953 -0.0471659 0
M  V30 6636 C 640.155 1.41044 1.43906 0
M  V30 6637 O 639.211 1.23122 2.20448 0
M  V30 6638 C 640.524 2.95972 -0.531113 0
M  V30 6639 C 642.072 3.09172 -0.488024 0
M  V30 6640 C 642.547 4.48075 -0.948281 0
M  V30 6641 N 644.038 4.54281 -0.9046 0
M  V30 6642 C 644.773 5.60007 -1.23205 0
M  V30 6643 N 644.269 6.73343 -1.63036 0
M  V30 6644 N 646.062 5.50151 -1.15282 0
M  V30 6645 H 638.213 1.62786 -1.36435 0
M  V30 6646 H 640.476 0.76514 -0.559701 0
M  V30 6647 H 640.182 3.14741 -1.56942 0
M  V30 6648 H 640.056 3.77143 0.0657922 0
M  V30 6649 H 642.443 2.90095 0.541211 0
M  V30 6650 H 642.524 2.29937 -1.12083 0
M  V30 6651 H 642.168 4.67894 -1.97578 0
M  V30 6652 H 642.098 5.25788 -0.292412 0
M  V30 6653 H 644.589 3.72918 -0.6116 0
M  V30 6654 H 644.902 7.49992 -1.86365 0
M  V30 6655 H 643.247 6.74655 -1.66929 0
M  V30 6656 H 646.438 4.6049 -0.840602 0
M  V30 6657 H 646.611 6.32444 -1.41133 0
M  V30 6658 N 640.017 0.126909 1.57088 0
M  V30 6659 C 641.294 -0.573152 1.87014 0
M  V30 6660 C 641.674 -1.84297 1.02945 0
M  V30 6661 O 641.022 -2.28232 0.110573 0
M  V30 6662 C 641.232 -0.857984 3.38289 0
M  V30 6663 C 642.58 -1.20759 4.07066 0
M  V30 6664 O 643.604 -0.947992 3.43353 0
M  V30 6665 O 642.463 -1.69516 5.19545 0
M  V30 6666 H 639.557 -0.290082 0.774456 0
M  V30 6667 H 642.103 0.162008 1.68925 0
M  V30 6668 H 640.875 0.0415286 3.91278 0
M  V30 6669 H 640.498 -1.64803 3.61837 0
M  V30 6670 N 641.495 -1.56914 -0.146875 0
M  V30 6671 C 642.743 -1.82994 -0.85777 0
M  V30 6672 C 643.064 -0.707814 -1.817 0
M  V30 6673 O 642.334 0.270521 -1.94023 0
M  V30 6674 H 640.914 -0.675106 -0.319751 0
M  V30 6675 H 643.576 -1.9439 -0.140849 0
M  V30 6676 H 642.672 -2.77928 -1.41994 0
M  V30 6677 N 642.974 0.416227 -1.52004 0
M  V30 6678 C 643.884 1.53147 -1.77717 0
M  V30 6679 C 644.9 1.609 -0.662368 0
M  V30 6680 O 646.076 1.77747 -0.946991 0
M  V30 6681 C 643.141 2.88948 -1.91598 0
M  V30 6682 C 642.202 2.9114 -3.15493 0
M  V30 6683 C 641.435 4.20464 -3.28703 0
M  V30 6684 O 641.658 5.13981 -2.47345 0
M  V30 6685 O 640.592 4.29368 -4.21813 0
M  V30 6686 H 644.418 1.34357 -2.72363 0
M  V30 6687 H 642.003 0.601373 -1.36762 0
M  V30 6688 H 643.885 3.69505 -2.02593 0
M  V30 6689 H 642.56 3.07821 -1.00141 0
M  V30 6690 H 641.467 2.09461 -3.09962 0
M  V30 6691 H 642.8 2.77216 -4.06709 0
M  V30 6692 N 644.452 1.42507 0.673017 0
M  V30 6693 C 645.68 1.46473 1.46128 0
M  V30 6694 C 646.095 0.0765912 1.88645 0
M  V30 6695 O 645.452 -0.909057 1.58248 0
M  V30 6696 C 645.503 2.39339 2.70923 0
M  V30 6697 O 645.224 3.72752 2.3019 0
M  V30 6698 C 646.725 2.52343 3.64469 0
M  V30 6699 H 643.945 0.49812 0.449575 0
M  V30 6700 H 646.489 1.87041 0.826802 0
M  V30 6701 H 644.644 2.02019 3.30556 0
M  V30 6702 H 645.058 4.22503 3.10791 0
M  V30 6703 H 646.532 3.2144 4.48754 0
M  V30 6704 H 647.009 1.56189 4.1049 0
M  V30 6705 H 647.615 2.90392 3.10729 0
M  V30 6706 N 645.93 -0.909495 1.28709 0
M  V30 6707 C 647.176 -1.66151 1.16283 0
M  V30 6708 C 647.509 -1.92067 -0.287069 0
M  V30 6709 O 646.784 -1.52409 -1.20837 0
M  V30 6710 C 647.067 -3.01676 1.9663 0
M  V30 6711 C 646.92 -2.82888 3.49707 0
M  V30 6712 C 648.239 -4.02274 1.78504 0
M  V30 6713 H 645.358 -0.602966 0.423793 0
M  V30 6714 H 648 -1.05418 1.58073 0
M  V30 6715 H 646.15 -3.53515 1.61119 0
M  V30 6716 H 647.822 -2.38026 3.95147 0
M  V30 6717 H 646.065 -2.17862 3.75125 0
M  V30 6718 H 646.736 -3.79147 4.01187 0
M  V30 6719 H 649.212 -3.59511 2.09503 0
M  V30 6720 H 648.088 -4.95056 2.37088 0
M  V30 6721 H 648.349 -4.35903 0.737647 0
M  V30 6722 N 647.408 -1.11026 -1.11852 0
M  V30 6723 C 648.318 -0.777252 -2.2135 0
M  V30 6724 C 649.334 0.227821 -1.72502 0
M  V30 6725 O 650.51 0.0650587 -2.01295 0
M  V30 6726 C 647.575 -0.220668 -3.45997 0
M  V30 6727 C 646.636 -1.2838 -4.09655 0
M  V30 6728 C 645.869 -0.753678 -5.28352 0
M  V30 6729 O 646.092 0.417779 -5.68868 0
M  V30 6730 O 645.026 -1.51647 -5.82483 0
M  V30 6731 H 648.852 -1.69141 -2.5224 0
M  V30 6732 H 646.437 -0.885836 -1.20305 0
M  V30 6733 H 648.319 0.0855756 -4.21313 0
M  V30 6734 H 646.994 0.666262 -3.16769 0
M  V30 6735 H 645.901 -1.64299 -3.3609 0
M  V30 6736 H 647.234 -2.14396 -4.43052 0
M  V30 6737 N 648.886 1.2938 -0.899927 0
M  V30 6738 C 650.111 2.00228 -0.540692 0
M  V30 6739 C 650.536 1.66909 0.867359 0
M  V30 6740 O 649.894 0.893824 1.57735 0
M  V30 6741 C 649.942 3.52921 -0.740232 0
M  V30 6742 O 649.046 4.11879 0.207154 0
M  V30 6743 H 648.387 0.629505 -0.211233 0
M  V30 6744 H 650.917 1.6487 -1.21158 0
M  V30 6745 H 650.927 4.0287 -0.644973 0
M  V30 6746 H 649.602 3.76508 -1.76677 0
M  V30 6747 H 648.179 3.72845 0.0643315 0
M  V30 6748 N 650.364 0.662433 1.43002 0
M  V30 6749 C 651.612 0.179237 2.01304 0
M  V30 6750 C 651.933 -1.21428 1.52579 0
M  V30 6751 O 651.203 -1.81294 0.742252 0
M  V30 6752 H 649.783 0.0632725 0.744316 0
M  V30 6753 H 652.445 0.856169 1.75088 0
M  V30 6754 H 651.541 0.170957 3.11631 0
M  V30 6755 N 651.842 -1.52309 0.404946 0
M  V30 6756 C 652.752 -2.30634 -0.429555 0
M  V30 6757 C 653.768 -1.38187 -1.05737 0
M  V30 6758 O 654.944 -1.71261 -1.05979 0
M  V30 6759 C 652.009 -3.10947 -1.53339 0
M  V30 6760 C 651.07 -4.19126 -0.929065 0
M  V30 6761 C 650.303 -4.95601 -1.9803 0
M  V30 6762 O 650.526 -4.72331 -3.1978 0
M  V30 6763 O 649.46 -5.80551 -1.58886 0
M  V30 6764 H 653.286 -3.0298 0.208963 0
M  V30 6765 H 650.871 -1.4845 0.168255 0
M  V30 6766 H 652.753 -3.60974 -2.1743 0
M  V30 6767 H 651.428 -2.41399 -2.15658 0
M  V30 6768 H 650.335 -3.73257 -0.250982 0
M  V30 6769 H 651.668 -4.90955 -0.349855 0
M  V30 6770 N 653.32 -0.135238 -1.57019 0
M  V30 6771 C 654.566 0.519563 -1.96032 0
M  V30 6772 C 654.899 1.65284 -1.01955 0
M  V30 6773 O 654.174 1.94408 -0.059727 0
M  V30 6774 C 654.457 1.0369 -3.44848 0
M  V30 6775 C 654.31 -0.0940754 -4.49702 0
M  V30 6776 C 655.629 1.92254 -3.95887 0
M  V30 6777 H 652.748 0.18739 -0.712779 0
M  V30 6778 H 655.39 -0.214086 -1.8879 0
M  V30 6779 H 653.54 1.66209 -3.5115 0
M  V30 6780 H 655.212 -0.73 -4.55487 0
M  V30 6781 H 653.455 -0.754924 -4.27181 0
M  V30 6782 H 654.126 0.309419 -5.51132 0
M  V30 6783 H 656.602 1.39581 -3.9199 0
M  V30 6784 H 655.478 2.25364 -5.00502 0
M  V30 6785 H 655.739 2.85513 -3.37543 0
M  V30 6786 N 654.798 1.5699 0.138552 0
M  V30 6787 C 656.026 1.87976 0.864437 0
M  V30 6788 C 656.441 0.724372 1.74351 0
M  V30 6789 O 655.798 -0.305575 1.79924 0
M  V30 6790 C 655.849 3.18276 1.71414 0
M  V30 6791 O 655.57 4.29365 0.870487 0
M  V30 6792 C 657.071 3.62834 2.54688 0
M  V30 6793 H 654.291 0.622878 0.249528 0
M  V30 6794 H 656.835 2.04094 0.128805 0
M  V30 6795 H 654.99 3.03886 2.40274 0
M  V30 6796 H 655.404 5.03924 1.45466 0
M  V30 6797 H 656.878 4.5682 3.0987 0
M  V30 6798 H 657.355 2.88533 3.31127 0
M  V30 6799 H 657.961 3.79946 1.91105 0
M  V30 6800 N 656.276 -0.40816 1.52223 0
M  V30 6801 C 657.525 -1.15212 1.65557 0
M  V30 6802 C 657.838 -1.9163 0.392096 0
M  V30 6803 O 659.044 -2.68458 0.405256 0
M  V30 6804 C 657.5 -2.09691 2.92502 0
M  V30 6805 C 657.108 -1.38785 4.25961 0
M  V30 6806 C 658.852 -2.8434 3.152 0
M  V30 6807 C 656.759 -2.31919 5.44029 0
M  V30 6808 H 655.689 -0.433776 0.616729 0
M  V30 6809 H 658.34 -0.4165 1.78711 0
M  V30 6810 H 656.722 -2.8681 2.7305 0
M  V30 6811 H 657.896 -0.670248 4.55899 0
M  V30 6812 H 656.211 -0.761741 4.09373 0
M  V30 6813 H 658.808 -3.54166 4.00587 0
M  V30 6814 H 659.151 -3.47344 2.29473 0
M  V30 6815 H 659.684 -2.14321 3.35129 0
M  V30 6816 H 656.423 -1.7356 6.32105 0
M  V30 6817 H 655.943 -3.0165 5.18428 0
M  V30 6818 H 657.622 -2.92424 5.77146 0
M  V30 6819 N 657.755 -1.42862 -0.66545 0
M  V30 6820 C 658.702 -1.4707 -1.77874 0
M  V30 6821 C 659.672 -0.321654 -1.62956 0
M  V30 6822 O 660.857 -0.52707 -1.83376 0
M  V30 6823 C 657.997 -1.38788 -3.15962 0
M  V30 6824 C 657.11 -2.63801 -3.42101 0
M  V30 6825 C 656.245 -2.47594 -4.69969 0
M  V30 6826 C 655.284 -3.67936 -4.89172 0
M  V30 6827 N 654.421 -3.50614 -6.08288 0
M  V30 6828 H 659.261 -2.42204 -1.73613 0
M  V30 6829 H 656.798 -1.20239 -0.847401 0
M  V30 6830 H 658.756 -1.31982 -3.95773 0
M  V30 6831 H 657.386 -0.472431 -3.19324 0
M  V30 6832 H 656.438 -2.80935 -2.56475 0
M  V30 6833 H 657.75 -3.53228 -3.52181 0
M  V30 6834 H 656.904 -2.38427 -5.57886 0
M  V30 6835 H 655.643 -1.55672 -4.62188 0
M  V30 6836 H 654.648 -3.77525 -3.99694 0
M  V30 6837 H 655.873 -4.60851 -4.98792 0
M  V30 6838 H 653.819 -2.61417 -6.01662 0
M  V30 6839 H 653.736 -4.33634 -6.19272 0
M  V30 6840 H 655.004 -3.45276 -6.98859 0
M  V30 6841 N 659.233 0.902656 -1.29189 0
M  V30 6842 C 660.481 1.6496 -1.16758 0
M  V30 6843 C 660.802 1.92952 0.28188 0
M  V30 6844 O 660.072 1.55351 1.19344 0
M  V30 6845 H 658.652 0.611447 -0.429118 0
M  V30 6846 H 661.314 1.0825 -1.62074 0
M  V30 6847 H 660.41 2.60728 -1.71544 0
M  V30 6848 N 660.711 1.11618 1.11262 0
M  V30 6849 C 661.941 0.88745 1.86569 0
M  V30 6850 C 662.349 -0.56636 1.80524 0
M  V30 6851 O 661.692 -1.40289 1.18594 0
M  V30 6852 C 661.754 1.27313 3.36202 0
M  V30 6853 C 661.418 2.73649 3.66013 0
M  V30 6854 C 662.415 3.71863 3.63337 0
M  V30 6855 C 660.1 3.10342 3.9496 0
M  V30 6856 C 662.094 5.04788 3.89188 0
M  V30 6857 C 659.781 4.43451 4.20469 0
M  V30 6858 C 660.779 5.40484 4.17572 0
M  V30 6859 O 660.467 6.71195 4.42439 0
M  V30 6860 H 660.199 0.317543 0.596777 0
M  V30 6861 H 662.753 1.48768 1.41624 0
M  V30 6862 H 660.983 0.616062 3.81761 0
M  V30 6863 H 662.672 1.01991 3.92877 0
M  V30 6864 H 663.438 3.44861 3.41022 0
M  V30 6865 H 659.317 2.35431 3.9635 0
M  V30 6866 H 662.861 5.80516 3.86842 0
M  V30 6867 H 658.758 4.70187 4.42261 0
M  V30 6868 H 659.526 6.77012 4.59997 0
M  V30 6869 N 662.189 -1.289 0.906776 0
M  V30 6870 C 663.152 -2.25777 0.394656 0
M  V30 6871 C 664.152 -1.53621 -0.475119 0
M  V30 6872 O 665.342 -1.71949 -0.279165 0
M  V30 6873 C 662.474 -3.38113 -0.43499 0
M  V30 6874 H 663.667 -2.72592 1.25033 0
M  V30 6875 H 661.22 -1.40463 0.685547 0
M  V30 6876 H 661.955 -2.96648 -1.31036 0
M  V30 6877 H 661.74 -3.91647 0.188334 0
M  V30 6878 H 663.23 -4.10168 -0.784365 0
M  V30 6879 N 663.667 -0.670007 -1.42649 0
M  V30 6880 C 664.913 -0.19923 -2.02422 0
M  V30 6881 C 665.268 1.17947 -1.52007 0
M  V30 6882 O 664.561 1.77939 -0.710512 0
M  V30 6883 C 664.755 -0.168298 -3.57004 0
M  V30 6884 C 664.584 -1.54246 -4.22419 0
M  V30 6885 C 663.354 -2.13904 -4.57792 0
M  V30 6886 C 665.552 -2.4842 -4.50324 0
M  V30 6887 N 663.534 -3.44151 -5.08364 0
M  V30 6888 C 664.905 -3.63317 -5.02395 0
M  V30 6889 C 666.96 -2.47011 -4.32308 0
M  V30 6890 C 665.663 -4.77051 -5.38345 0
M  V30 6891 C 667.689 -3.59838 -4.6933 0
M  V30 6892 C 667.051 -4.73462 -5.21549 0
M  V30 6893 H 663.15 -0.117717 -0.773089 0
M  V30 6894 H 665.734 -0.881955 -1.73579 0
M  V30 6895 H 663.905 0.483824 -3.85375 0
M  V30 6896 H 665.637 0.314914 -4.03473 0
M  V30 6897 H 662.392 -1.66441 -4.4339 0
M  V30 6898 H 662.816 -4.10846 -5.38084 0
M  V30 6899 H 667.458 -1.60394 -3.91195 0
M  V30 6900 H 665.176 -5.64347 -5.78393 0
M  V30 6901 H 668.762 -3.59969 -4.57071 0
M  V30 6902 H 667.642 -5.59321 -5.49663 0
M  V30 6903 N 665.145 1.52092 -0.413018 0
M  V30 6904 C 666.37 2.06756 0.163338 0
M  V30 6905 C 666.795 1.28073 1.37764 0
M  V30 6906 O 666.153 0.312015 1.78595 0
M  V30 6907 C 666.201 3.57278 0.488322 0
M  V30 6908 O 665.305 3.80986 1.57871 0
M  V30 6909 H 664.646 0.663882 0.0125068 0
M  V30 6910 H 667.176 1.95988 -0.587339 0
M  V30 6911 H 667.186 4.01125 0.745836 0
M  V30 6912 H 665.861 4.13978 -0.399327 0
M  V30 6913 H 664.438 3.49017 1.31306 0
M  V30 6914 N 666.623 0.143563 1.56945 0
M  V30 6915 C 667.871 -0.507402 1.95627 0
M  V30 6916 C 668.192 -1.65626 1.02922 0
M  V30 6917 O 667.462 -1.95693 0.0901136 0
M  V30 6918 H 666.042 -0.190436 0.722318 0
M  V30 6919 H 668.704 0.218257 1.93674 0
M  V30 6920 H 667.8 -0.885816 2.99265 0
M  V30 6921 N 668.101 -1.57061 -0.130224 0
M  V30 6922 C 669.349 -1.83893 -0.838313 0
M  V30 6923 C 669.67 -0.727046 -1.80939 0
M  V30 6924 O 668.94 0.249927 -1.94299 0
M  V30 6925 H 667.52 -0.67846 -0.312573 0
M  V30 6926 H 670.182 -1.94529 -0.120224 0
M  V30 6927 H 669.278 -2.79419 -1.39038 0
M  V30 6928 N 669.579 0.400081 -1.52437 0
M  V30 6929 C 670.827 1.14392 -1.6661 0
M  V30 6930 C 671.148 1.90792 -0.402927 0
M  V30 6931 O 670.418 1.87042 0.582425 0
M  V30 6932 H 668.998 0.425275 -0.614125 0
M  V30 6933 H 671.66 0.455076 -1.89513 0
M  V30 6934 H 670.756 1.85298 -2.51139 0
M  V30 6935 N 671.057 1.43213 0.657864 0
M  V30 6936 C 672.473 1.26511 0.972992 0
M  V30 6937 C 672.673 0.181477 2.00681 0
M  V30 6938 O 671.729 -0.441649 2.48608 0
M  V30 6939 C 673.042 2.62784 1.46168 0
M  V30 6940 C 674.59 2.70278 1.57857 0
M  V30 6941 C 675.065 4.06958 2.10117 0
M  V30 6942 N 676.556 4.08999 2.17426 0
M  V30 6943 C 677.291 5.11585 2.58975 0
M  V30 6944 N 676.787 6.24548 2.99853 0
M  V30 6945 N 678.58 4.9894 2.58873 0
M  V30 6946 H 670.731 2.12384 -0.0263129 0
M  V30 6947 H 672.994 0.946638 0.0507992 0
M  V30 6948 H 672.7 3.43022 0.776474 0
M  V30 6949 H 672.574 2.87863 2.43751 0
M  V30 6950 H 674.961 1.90376 2.25479 0
M  V30 6951 H 675.042 2.4897 0.587179 0
M  V30 6952 H 674.686 4.87325 1.43098 0
M  V30 6953 H 674.616 4.25628 3.10078 0
M  V30 6954 H 677.107 3.27457 1.88627 0
M  V30 6955 H 677.42 6.98661 3.30292 0
M  V30 6956 H 675.765 6.28027 2.97669 0
M  V30 6957 H 678.956 4.09757 2.26311 0
M  V30 6958 H 679.129 5.79019 2.90932 0
M  V30 6959 N 672.536 -0.895792 1.29666 0
M  V30 6960 C 673.499 -1.98189 1.15124 0
M  V30 6961 C 674.499 -1.60572 0.0855717 0
M  V30 6962 O 675.689 -1.70991 0.332826 0
M  V30 6963 C 672.821 -3.32289 0.761372 0
M  V30 6964 H 674.014 -2.12518 2.11603 0
M  V30 6965 H 671.567 -1.0808 1.12908 0
M  V30 6966 H 672.302 -3.23662 -0.203393 0
M  V30 6967 H 672.087 -3.60958 1.53139 0
M  V30 6968 H 673.577 -4.1198 0.682792 0
M  V30 6969 N 674.014 -1.12206 -1.10668 0
M  V30 6970 C 675.26 -0.877172 -1.82848 0
M  V30 6971 C 675.593 0.595571 -1.84842 0
M  V30 6972 O 674.868 1.44013 -1.30731 0
M  V30 6973 C 675.151 -1.44957 -3.29635 0
M  V30 6974 C 675.004 -2.99051 -3.35989 0
M  V30 6975 C 676.323 -1.10714 -4.25946 0
M  V30 6976 H 673.442 -0.320103 -0.663854 0
M  V30 6977 H 676.084 -1.38827 -1.2972 0
M  V30 6978 H 674.234 -1.01488 -3.7501 0
M  V30 6979 H 675.906 -3.51182 -2.99113 0
M  V30 6980 H 674.149 -3.34705 -2.75962 0
M  V30 6981 H 674.82 -3.34194 -4.39339 0
M  V30 6982 H 677.296 -1.48254 -3.88793 0
M  V30 6983 H 676.172 -1.5343 -5.2702 0
M  V30 6984 H 676.433 -0.019 -4.42096 0
M  V30 6985 N 675.492 1.28418 -0.913599 0
M  V30 6986 C 676.741 1.94265 -0.542572 0
M  V30 6987 C 677.054 1.72709 0.918207 0
M  V30 6988 O 678.26 2.32778 1.39738 0
M  V30 6989 C 676.716 3.47956 -0.919507 0
M  V30 6990 C 676.324 3.78291 -2.4 0
M  V30 6991 C 678.068 4.19962 -0.619057 0
M  V30 6992 C 675.975 5.2529 -2.71707 0
M  V30 6993 H 674.905 0.727213 -0.199192 0
M  V30 6994 H 677.556 1.45931 -1.11249 0
M  V30 6995 H 675.938 3.9502 -0.278372 0
M  V30 6996 H 677.112 3.42035 -3.08786 0
M  V30 6997 H 675.427 3.19456 -2.67089 0
M  V30 6998 H 678.024 5.28178 -0.832623 0
M  V30 6999 H 678.367 4.13935 0.443126 0
M  V30 7000 H 678.9 3.78674 -1.21865 0
M  V30 7001 H 675.639 5.36394 -3.76778 0
M  V30 7002 H 675.159 5.62743 -2.07559 0
M  V30 7003 H 676.838 5.93027 -2.58703 0
M  V30 7004 N 676.97 0.677563 1.42291 0
M  V30 7005 C 678.386 0.347376 1.55774 0
M  V30 7006 C 678.586 -1.14703 1.65667 0
M  V30 7007 O 677.642 -1.93252 1.62512 0
M  V30 7008 C 678.955 1.08011 2.80631 0
M  V30 7009 C 680.503 1.06271 2.94407 0
M  V30 7010 C 680.978 1.77683 4.22129 0
M  V30 7011 N 682.469 1.74564 4.29047 0
M  V30 7012 C 683.204 2.26673 5.26694 0
M  V30 7013 N 682.7 2.87176 6.30477 0
M  V30 7014 N 684.493 2.17032 5.18511 0
M  V30 7015 H 676.644 1.64703 1.34114 0
M  V30 7016 H 678.907 0.694038 0.645768 0
M  V30 7017 H 678.613 2.13518 2.79469 0
M  V30 7018 H 678.487 0.647115 3.71608 0
M  V30 7019 H 680.874 0.0159658 2.95096 0
M  V30 7020 H 680.955 1.53461 2.04654 0
M  V30 7021 H 680.599 2.82327 4.22201 0
M  V30 7022 H 680.529 1.2794 5.10822 0
M  V30 7023 H 683.02 1.30436 3.54676 0
M  V30 7024 H 683.333 3.24551 7.01346 0
M  V30 7025 H 681.678 2.91247 6.31031 0
M  V30 7026 H 684.869 1.69451 4.36353 0
M  V30 7027 H 685.042 2.57948 5.94446 0
M  V30 7028 N 678.448 -1.51871 0.421078 0
M  V30 7029 C 679.694 -2.02237 -0.151014 0
M  V30 7030 C 680.027 -1.30554 -1.43768 0
M  V30 7031 O 679.302 -0.41546 -1.90011 0
M  V30 7032 C 679.585 -3.5802 -0.386482 0
M  V30 7033 C 679.438 -4.40339 0.9177 0
M  V30 7034 C 680.757 -4.24444 -1.16342 0
M  V30 7035 H 677.876 -0.735062 -0.0534102 0
M  V30 7036 H 680.518 -1.81656 0.556888 0
M  V30 7037 H 678.668 -3.75688 -0.989494 0
M  V30 7038 H 680.34 -4.34357 1.55344 0
M  V30 7039 H 678.583 -4.06073 1.526 0
M  V30 7040 H 679.254 -5.47451 0.707187 0
M  V30 7041 H 681.73 -4.10948 -0.652788 0
M  V30 7042 H 680.606 -5.33358 -1.29693 0
M  V30 7043 H 680.867 -3.84204 -2.18724 0
M  V30 7044 N 679.926 -0.151884 -1.56866 0
M  V30 7045 C 681.203 0.543328 -1.87902 0
M  V30 7046 C 681.583 1.82636 -1.05864 0
M  V30 7047 O 680.931 2.28028 -0.146868 0
M  V30 7048 C 681.141 0.804056 -3.39611 0
M  V30 7049 C 682.489 1.14267 -4.08935 0
M  V30 7050 O 683.513 0.893248 -3.44818 0
M  V30 7051 O 682.372 1.61229 -5.22176 0
M  V30 7052 H 679.466 0.277724 -0.778973 0
M  V30 7053 H 682.012 -0.188862 -1.68646 0
M  V30 7054 H 680.784 -0.103772 -3.91162 0
M  V30 7055 H 680.407 1.59025 -3.64413 0
M  V30 7056 N 681.404 1.57128 0.121893 0
M  V30 7057 C 682.65 1.84974 0.831418 0
M  V30 7058 C 682.983 0.737204 1.79663 0
M  V30 7059 O 682.258 -0.257199 1.92792 0
M  V30 7060 C 682.541 3.23397 1.58386 0
M  V30 7061 C 682.394 4.45246 0.638445 0
M  V30 7062 C 683.713 3.59355 2.54071 0
M  V30 7063 H 680.832 0.67282 0.300803 0
M  V30 7064 H 683.474 1.89759 0.0957587 0
M  V30 7065 H 681.624 3.19449 2.21098 0
M  V30 7066 H 683.296 4.61295 0.0203925 0
M  V30 7067 H 681.539 4.33771 -0.05023 0
M  V30 7068 H 682.21 5.38765 1.20151 0
M  V30 7069 H 684.686 3.64075 2.01465 0
M  V30 7070 H 683.562 4.57193 3.03752 0
M  V30 7071 H 683.823 2.86622 3.36601 0
M  V30 7072 N 682.882 -0.391992 1.52647 0
M  V30 7073 C 684.107 -1.16312 1.71716 0
M  V30 7074 C 684.532 -1.83042 0.433279 0
M  V30 7075 O 683.89 -1.70705 -0.610707 0
M  V30 7076 C 683.938 -2.18908 2.86551 0
M  V30 7077 O 683.042 -3.2543 2.53316 0
M  V30 7078 H 682.383 -0.338743 0.571095 0
M  V30 7079 H 684.913 -0.457202 1.99426 0
M  V30 7080 H 684.923 -2.62954 3.1196 0
M  V30 7081 H 683.598 -1.69726 3.79692 0
M  V30 7082 H 682.175 -2.86543 2.38637 0
M  V30 7083 N 684.36 -1.4356 -0.65026 0
M  V30 7084 C 685.29 -1.51758 -1.77459 0
M  V30 7085 C 686.271 -0.372019 -1.65982 0
M  V30 7086 O 687.456 -0.589627 -1.85033 0
M  V30 7087 C 684.586 -1.44302 -3.15902 0
M  V30 7088 C 683.54 -2.57138 -3.42146 0
M  V30 7089 C 682.866 -2.34735 -4.8042 0
M  V30 7090 C 684.166 -3.99373 -3.36598 0
M  V30 7091 H 685.86 -2.45863 -1.70855 0
M  V30 7092 H 683.406 -1.18333 -0.820566 0
M  V30 7093 H 685.359 -1.48641 -3.94314 0
M  V30 7094 H 684.083 -0.467026 -3.23244 0
M  V30 7095 H 682.742 -2.52157 -2.66106 0
M  V30 7096 H 682.39 -1.35372 -4.84441 0
M  V30 7097 H 682.09 -3.10375 -4.9894 0
M  V30 7098 H 683.614 -2.40862 -5.61086 0
M  V30 7099 H 685.028 -4.05826 -4.04942 0
M  V30 7100 H 683.425 -4.75063 -3.66654 0
M  V30 7101 H 684.495 -4.243 -2.34729 0
M  V30 7102 N 685.838 0.888903 -1.30139 0
M  V30 7103 C 687.115 1.62145 -1.094 0
M  V30 7104 C 687.495 2.08041 0.358091 0
M  V30 7105 O 686.843 1.84438 1.34888 0
M  V30 7106 C 687.053 2.794 -2.09133 0
M  V30 7107 C 688.401 3.49826 -2.40638 0
M  V30 7108 O 689.425 2.89583 -2.07412 0
M  V30 7109 O 688.284 4.58457 -2.97455 0
M  V30 7110 H 685.378 0.712475 -0.41989 0
M  V30 7111 H 687.924 0.936023 -1.41551 0
M  V30 7112 H 686.696 2.42762 -3.06891 0
M  V30 7113 H 686.319 3.55643 -1.77776 0
M  V30 7114 N 687.317 1.12792 1.10072 0
M  V30 7115 C 688.565 0.883796 1.81751 0
M  V30 7116 C 688.886 -0.591891 1.858 0
M  V30 7117 O 688.156 -1.43017 1.33876 0
M  V30 7118 H 686.736 0.323978 0.673088 0
M  V30 7119 H 689.398 1.42314 1.33164 0
M  V30 7120 H 688.494 1.26863 2.85153 0
M  V30 7121 N 688.795 -1.27931 0.920396 0
M  V30 7122 C 690.043 -1.94304 0.555906 0
M  V30 7123 C 690.364 -1.72753 -0.904519 0
M  V30 7124 O 689.634 -1.07104 -1.64029 0
M  V30 7125 H 688.214 -0.719001 0.202599 0
M  V30 7126 H 690.876 -1.55785 1.1712 0
M  V30 7127 H 689.972 -3.02806 0.755981 0
M  V30 7128 N 690.273 -0.685099 -1.4193 0
M  V30 7129 C 691.203 -0.0273506 -2.33484 0
M  V30 7130 C 692.184 0.778366 -1.51246 0
M  V30 7131 O 693.369 0.733449 -1.79817 0
M  V30 7132 C 690.499 0.917272 -3.34968 0
M  V30 7133 C 689.453 0.21941 -4.27437 0
M  V30 7134 C 688.779 1.27768 -5.1921 0
M  V30 7135 C 690.079 -0.907894 -5.14349 0
M  V30 7136 H 691.773 -0.791994 -2.88735 0
M  V30 7137 H 689.319 -0.382308 -1.38832 0
M  V30 7138 H 691.272 1.38657 -3.97935 0
M  V30 7139 H 689.996 1.71346 -2.78043 0
M  V30 7140 H 688.655 -0.229757 -3.65879 0
M  V30 7141 H 688.303 2.06612 -4.58607 0
M  V30 7142 H 688.003 0.815803 -5.81909 0
M  V30 7143 H 689.527 1.7477 -5.85054 0
M  V30 7144 H 690.941 -0.519348 -5.70943 0
M  V30 7145 H 689.338 -1.2962 -5.85934 0
M  V30 7146 H 690.408 -1.75218 -4.52136 0
M  V30 7147 N 691.751 1.51645 -0.429126 0
M  V30 7148 C 692.979 2.06433 0.138994 0
M  V30 7149 C 693.394 1.29735 1.37165 0
M  V30 7150 O 692.751 0.354638 1.79021 0
M  V30 7151 C 692.802 3.58439 0.469452 0
M  V30 7152 O 692.523 4.32238 -0.714273 0
M  V30 7153 C 694.024 4.29712 1.08914 0
M  V30 7154 H 691.244 0.6709 0.0115608 0
M  V30 7155 H 693.788 1.9532 -0.605843 0
M  V30 7156 H 691.943 3.69494 1.16419 0
M  V30 7157 H 692.357 5.22704 -0.433633 0
M  V30 7158 H 693.831 5.37182 1.27042 0
M  V30 7159 H 694.308 3.87473 2.06788 0
M  V30 7160 H 694.914 4.2308 0.434028 0
M  V30 7161 N 693.229 0.160201 1.56784 0
M  V30 7162 C 694.475 -0.481855 1.9761 0
M  V30 7163 C 694.83 -1.61605 1.04411 0
M  V30 7164 O 694.123 -1.91426 0.0816402 0
M  V30 7165 C 694.317 -1.02259 3.42459 0
M  V30 7166 C 694.146 0.0576781 4.49663 0
M  V30 7167 C 692.916 0.503585 5.02784 0
M  V30 7168 C 695.114 0.854013 5.0716 0
M  V30 7169 N 693.096 1.56532 5.93608 0
M  V30 7170 C 694.467 1.76593 5.94319 0
M  V30 7171 C 696.522 0.900333 4.89692 0
M  V30 7172 C 695.225 2.72023 6.6588 0
M  V30 7173 C 697.251 1.84252 5.61965 0
M  V30 7174 C 696.613 2.74194 6.48843 0
M  V30 7175 H 692.712 -0.144748 0.768487 0
M  V30 7176 H 695.296 0.257853 1.92985 0
M  V30 7177 H 693.467 -1.73186 3.47651 0
M  V30 7178 H 695.199 -1.63235 3.70319 0
M  V30 7179 H 691.954 0.103361 4.73487 0
M  V30 7180 H 692.378 2.09634 6.43726 0
M  V30 7181 H 697.02 0.219023 4.22232 0
M  V30 7182 H 694.738 3.41147 7.3256 0
M  V30 7183 H 698.324 1.88433 5.5044 0
M  V30 7184 H 697.204 3.45912 7.03786 0
M  V30 7185 N 694.707 -1.5719 -0.113559 0
M  V30 7186 C 695.639 -1.97393 -1.16484 0
M  V30 7187 C 696.652 -0.873964 -1.37352 0
M  V30 7188 O 697.841 -1.15222 -1.36331 0
M  V30 7189 C 694.941 -2.26174 -2.52386 0
M  V30 7190 C 694.114 -3.57479 -2.52046 0
M  V30 7191 C 693.173 -3.74409 -3.69735 0
M  V30 7192 O 692.199 -4.46463 -3.53071 0
M  V30 7193 N 693.401 -3.13588 -4.88511 0
M  V30 7194 H 696.166 -2.88184 -0.822814 0
M  V30 7195 H 693.727 -1.59044 -0.302769 0
M  V30 7196 H 695.719 -2.3471 -3.29687 0
M  V30 7197 H 694.289 -1.41483 -2.7875 0
M  V30 7198 H 693.509 -3.60081 -1.60421 0
M  V30 7199 H 694.797 -4.43775 -2.48881 0
M  V30 7200 H 694.195 -2.55026 -5.04953 0
M  V30 7201 H 692.752 -3.27637 -5.63469 0
M  V30 7202 N 696.185 0.383891 -1.52853 0
M  V30 7203 C 697.431 1.13009 -1.68395 0
M  V30 7204 C 697.764 1.89488 -0.425195 0
M  V30 7205 O 697.039 1.8574 0.577136 0
M  V30 7206 C 697.322 2.10419 -2.92226 0
M  V30 7207 C 697.175 1.3767 -4.28214 0
M  V30 7208 C 698.494 3.10781 -3.11614 0
M  V30 7209 H 695.613 0.409463 -0.612788 0
M  V30 7210 H 698.255 0.412895 -1.85459 0
M  V30 7211 H 696.405 2.71579 -2.77808 0
M  V30 7212 H 698.077 0.794352 -4.54409 0
M  V30 7213 H 696.32 0.678533 -4.2846 0
M  V30 7214 H 696.991 2.08874 -5.10956 0
M  V30 7215 H 699.467 2.59715 -3.25096 0
M  V30 7216 H 698.343 3.76179 -3.99725 0
M  V30 7217 H 698.604 3.79933 -2.2606 0
M  V30 7218 N 697.663 1.43903 0.642637 0
M  V30 7219 C 698.626 1.49538 1.73698 0
M  V30 7220 C 699.626 0.378776 1.56275 0
M  V30 7221 O 700.816 0.64095 1.6198 0
M  V30 7222 C 697.948 1.35821 3.12675 0
M  V30 7223 H 699.141 2.47008 1.70079 0
M  V30 7224 H 696.694 1.30824 0.85526 0
M  V30 7225 H 697.429 0.393994 3.21898 0
M  V30 7226 H 697.214 2.16776 3.26727 0
M  V30 7227 H 698.704 1.4272 3.92455 0
M  V30 7228 N 699.141 -0.881989 1.30609 0
M  V30 7229 C 700.088 -1.98803 1.17244 0
M  V30 7230 C 701.058 -1.65987 0.0611905 0
M  V30 7231 O 702.243 -1.89385 0.231911 0
M  V30 7232 C 699.383 -3.33867 0.87333 0
M  V30 7233 C 698.496 -3.79354 2.06675 0
M  V30 7234 C 697.631 -5.03078 1.70547 0
M  V30 7235 C 696.67 -5.40981 2.86366 0
M  V30 7236 N 695.807 -6.55886 2.50514 0
M  V30 7237 H 700.647 -2.09566 2.11863 0
M  V30 7238 H 698.184 -1.02607 1.05405 0
M  V30 7239 H 700.142 -4.11612 0.680519 0
M  V30 7240 H 698.772 -3.2278 -0.0359983 0
M  V30 7241 H 697.824 -2.97492 2.37071 0
M  V30 7242 H 699.136 -4.03382 2.93401 0
M  V30 7243 H 698.29 -5.88457 1.47658 0
M  V30 7244 H 697.029 -4.80927 0.809947 0
M  V30 7245 H 696.034 -4.54127 3.09917 0
M  V30 7246 H 697.259 -5.65104 3.76609 0
M  V30 7247 H 695.205 -6.35306 1.63471 0
M  V30 7248 H 695.122 -6.79799 3.30771 0
M  V30 7249 H 696.39 -7.44489 2.30989 0
M  V30 7250 N 700.619 -1.13374 -1.09472 0
M  V30 7251 C 701.549 -0.833268 -2.18126 0
M  V30 7252 C 702.53 0.207169 -1.68834 0
M  V30 7253 O 703.715 0.0662012 -1.94087 0
M  V30 7254 C 700.845 -0.297979 -3.46019 0
M  V30 7255 C 699.799 -1.27261 -4.08642 0
M  V30 7256 C 699.125 -0.597104 -5.31356 0
M  V30 7257 C 700.425 -2.63095 -4.51197 0
M  V30 7258 H 702.119 -1.74182 -2.43518 0
M  V30 7259 H 699.665 -0.838921 -1.17039 0
M  V30 7260 H 701.618 -0.0754444 -4.21332 0
M  V30 7261 H 700.342 0.645959 -3.20148 0
M  V30 7262 H 699.001 -1.48113 -3.35348 0
M  V30 7263 H 698.649 0.352293 -5.01765 0
M  V30 7264 H 698.349 -1.24734 -5.74208 0
M  V30 7265 H 699.873 -0.38384 -6.09392 0
M  V30 7266 H 701.287 -2.46214 -5.17737 0
M  V30 7267 H 699.684 -3.2429 -5.04932 0
M  V30 7268 H 700.754 -3.20793 -3.6362 0
M  V30 7269 N 702.098 1.27442 -0.927168 0
M  V30 7270 C 703.375 1.89473 -0.485742 0
M  V30 7271 C 703.755 1.83922 1.03614 0
M  V30 7272 O 703.103 1.28409 1.89007 0
M  V30 7273 C 703.313 3.33417 -1.03123 0
M  V30 7274 C 704.661 4.10333 -1.0914 0
M  V30 7275 O 705.685 3.4243 -0.98082 0
M  V30 7276 O 704.544 5.31737 -1.26165 0
M  V30 7277 H 701.638 0.812124 -0.156154 0
M  V30 7278 H 704.184 1.35713 -1.01882 0
M  V30 7279 H 702.956 3.31747 -2.07508 0
M  V30 7280 H 702.579 3.94695 -0.479767 0
M  V30 7281 N 703.576 0.692616 1.41565 0
M  V30 7282 C 704.824 0.221896 2.00878 0
M  V30 7283 C 705.145 -1.18164 1.5512 0
M  V30 7284 O 704.415 -1.79679 0.78054 0
M  V30 7285 H 702.995 0.0790463 0.742806 0
M  V30 7286 H 705.657 0.893115 1.73232 0
M  V30 7287 H 704.753 0.23702 3.11199 0
M  V30 7288 N 705.054 -1.51416 0.437162 0
M  V30 7289 C 705.964 -2.31493 -0.380537 0
M  V30 7290 C 706.98 -1.40399 -1.02782 0
M  V30 7291 O 708.156 -1.73471 -1.02323 0
M  V30 7292 C 705.221 -3.1413 -1.46709 0
M  V30 7293 C 704.282 -4.21003 -0.839953 0
M  V30 7294 C 703.515 -4.9969 -1.87473 0
M  V30 7295 O 703.738 -4.79008 -3.09689 0
M  V30 7296 O 702.672 -5.8379 -1.46536 0
M  V30 7297 H 706.498 -3.02469 0.273183 0
M  V30 7298 H 704.083 -1.48059 0.199706 0
M  V30 7299 H 705.965 -3.65505 -2.09724 0
M  V30 7300 H 704.64 -2.45919 -2.10489 0
M  V30 7301 H 703.547 -3.73706 -0.171752 0
M  V30 7302 H 704.88 -4.91587 -0.245638 0
M  V30 7303 N 706.532 -0.168513 -1.56696 0
M  V30 7304 C 707.442 0.775435 -2.21414 0
M  V30 7305 C 708.458 1.25529 -1.20492 0
M  V30 7306 O 709.634 1.30801 -1.53144 0
M  V30 7307 C 706.699 1.9886 -2.83999 0
M  V30 7308 C 705.76 1.5559 -4.00113 0
M  V30 7309 C 704.993 2.71124 -4.59704 0
M  V30 7310 O 705.216 3.87917 -4.18182 0
M  V30 7311 O 704.15 2.4536 -5.4962 0
M  V30 7312 H 707.976 0.254416 -3.02632 0
M  V30 7313 H 705.561 0.0595507 -1.49281 0
M  V30 7314 H 707.443 2.69816 -3.23693 0
M  V30 7315 H 706.118 2.49874 -2.05779 0
M  V30 7316 H 705.025 0.815924 -3.65094 0
M  V30 7317 H 706.358 1.09271 -4.79917 0
M  V30 7318 N 708.01 1.57248 0.105221 0
M  V30 7319 C 708.942 1.98008 1.15436 0
M  V30 7320 C 709.955 0.881236 1.36887 0
M  V30 7321 O 711.144 1.15943 1.35718 0
M  V30 7322 C 708.244 2.27509 2.51183 0
M  V30 7323 C 707.417 3.58811 2.50147 0
M  V30 7324 C 706.476 3.76365 3.67745 0
M  V30 7325 O 705.502 4.48329 3.50699 0
M  V30 7326 N 706.704 3.16174 4.86841 0
M  V30 7327 H 709.469 2.88616 0.807519 0
M  V30 7328 H 707.03 1.59202 0.29433 0
M  V30 7329 H 709.022 2.36455 3.28438 0
M  V30 7330 H 707.592 1.42959 2.77995 0
M  V30 7331 H 706.812 3.60927 1.5851 0
M  V30 7332 H 708.1 4.45088 2.46524 0
M  V30 7333 H 707.498 2.57701 5.03594 0
M  V30 7334 H 706.055 3.30621 5.61723 0
M  V30 7335 N 709.488 -0.375779 1.53054 0
M  V30 7336 C 710.904 -0.716764 1.426 0
M  V30 7337 C 711.104 -1.93651 0.556931 0
M  V30 7338 O 710.16 -2.52475 0.0354461 0
M  V30 7339 C 711.473 -0.939499 2.85646 0
M  V30 7340 C 713.021 -1.04015 2.95212 0
M  V30 7341 C 713.496 -1.29543 4.39298 0
M  V30 7342 N 714.987 -1.36335 4.42682 0
M  V30 7343 C 715.722 -1.57778 5.51266 0
M  V30 7344 N 715.218 -1.76604 6.69913 0
M  V30 7345 N 717.011 -1.60065 5.38828 0
M  V30 7346 H 709.162 0.42664 2.08071 0
M  V30 7347 H 711.425 0.128758 0.939215 0
M  V30 7348 H 711.131 -0.115189 3.51511 0
M  V30 7349 H 711.005 -1.85048 3.2869 0
M  V30 7350 H 713.392 -1.85501 2.29507 0
M  V30 7351 H 713.473 -0.106785 2.55577 0
M  V30 7352 H 713.117 -0.485611 5.05573 0
M  V30 7353 H 713.047 -2.24184 4.76497 0
M  V30 7354 H 715.538 -1.23441 3.5717 0
M  V30 7355 H 715.851 -1.9251 7.48438 0
M  V30 7356 H 714.196 -1.73802 6.72917 0
M  V30 7357 H 717.387 -1.44917 4.45103 0
M  V30 7358 H 717.56 -1.76435 6.23518 0
M  V30 7359 N 710.966 -1.44241 -0.634997 0
M  V30 7360 C 712.377 -1.41622 -1.21655 0
M  V30 7361 C 712.728 -0.129584 -1.95772 0
M  V30 7362 O 711.853 0.770225 -2.02229 0
M  V30 7363 C 712.448 -2.56557 -2.21278 0
M  V30 7364 C 711.007 -2.57145 -2.7487 0
M  V30 7365 C 710.154 -2.33354 -1.49804 0
M  V30 7366 H 713.105 -1.52878 -0.425905 0
M  V30 7367 H 713.126 -2.29089 -3.03807 0
M  V30 7368 H 712.638 -3.50186 -1.67306 0
M  V30 7369 H 710.739 -1.67447 -3.32855 0
M  V30 7370 H 710.852 -3.55507 -3.21172 0
M  V30 7371 H 709.216 -1.82372 -1.77799 0
M  V30 7372 H 709.999 -3.29092 -0.977402 0
M  V30 7373 N 712.444 0.87505 -1.31075 0
M  V30 7374 C 713.86 1.15997 -1.09622 0
M  V30 7375 C 714.06 2.01036 0.136611 0
M  V30 7376 O 713.116 2.38559 0.827397 0
M  V30 7377 C 714.429 1.85702 -2.36506 0
M  V30 7378 C 715.977 1.98425 -2.42067 0
M  V30 7379 C 716.452 2.71544 -3.68819 0
M  V30 7380 N 717.943 2.79084 -3.69684 0
M  V30 7381 C 718.678 3.36259 -4.64454 0
M  V30 7382 N 718.174 3.94406 -5.69575 0
M  V30 7383 N 719.967 3.34169 -4.51982 0
M  V30 7384 H 712.118 0.308258 -2.10151 0
M  V30 7385 H 714.381 0.199145 -0.926847 0
M  V30 7386 H 714.087 1.30663 -3.26527 0
M  V30 7387 H 713.961 2.86017 -2.45915 0
M  V30 7388 H 716.348 2.5263 -1.52518 0
M  V30 7389 H 716.429 0.971682 -2.36626 0
M  V30 7390 H 716.073 2.18008 -4.58732 0
M  V30 7391 H 716.003 3.73198 -3.71525 0
M  V30 7392 H 718.494 2.3781 -2.93691 0
M  V30 7393 H 718.807 4.36129 -6.37974 0
M  V30 7394 H 717.152 3.92797 -5.73355 0
M  V30 7395 H 720.343 2.87977 -3.69035 0
M  V30 7396 H 720.516 3.78431 -5.26017 0
M  V30 7397 N 713.922 1.13953 1.08869 0
M  V30 7398 C 714.869 0.82213 2.15661 0
M  V30 7399 C 715.839 -0.218274 1.6466 0
M  V30 7400 O 717.024 -0.0892475 1.90591 0
M  V30 7401 C 714.164 0.300572 3.43789 0
M  V30 7402 C 713.277 1.40071 4.08661 0
M  V30 7403 C 712.412 0.836897 5.24566 0
M  V30 7404 C 711.451 1.91504 5.81371 0
M  V30 7405 N 710.588 1.36875 6.88629 0
M  V30 7406 H 715.428 1.73683 2.42153 0
M  V30 7407 H 712.965 0.866879 1.18843 0
M  V30 7408 H 714.923 -0.0199943 4.17195 0
M  V30 7409 H 713.553 -0.577248 3.17597 0
M  V30 7410 H 712.605 1.83776 3.33062 0
M  V30 7411 H 713.917 2.21534 4.46905 0
M  V30 7412 H 713.071 0.467953 6.04893 0
M  V30 7413 H 711.81 -0.00874207 4.87699 0
M  V30 7414 H 710.815 2.29299 4.99702 0
M  V30 7415 H 712.04 2.76419 6.20298 0
M  V30 7416 H 709.986 0.545211 6.5373 0
M  V30 7417 H 709.903 2.1198 7.25672 0
M  V30 7418 H 711.171 1.02756 7.72698 0
M  V30 7419 N 715.4 -1.26948 0.933913 0
M  V30 7420 C 716.363 -2.24889 0.442457 0
M  V30 7421 C 717.363 -1.54594 -0.442426 0
M  V30 7422 O 718.553 -1.72502 -0.242629 0
M  V30 7423 C 715.685 -3.3896 -0.363173 0
M  V30 7424 H 716.878 -2.69879 1.30787 0
M  V30 7425 H 714.431 -1.38978 0.715187 0
M  V30 7426 H 715.166 -2.99361 -1.24714 0
M  V30 7427 H 714.951 -3.9116 0.271366 0
M  V30 7428 H 716.441 -4.11739 -0.697186 0
M  V30 7429 N 716.879 -0.700114 -1.41195 0
M  V30 7430 C 718.125 -0.242122 -2.01954 0
M  V30 7431 C 718.48 1.14697 -1.54475 0
M  V30 7432 O 717.773 1.76392 -0.748095 0
M  V30 7433 C 717.967 -0.243986 -3.56566 0
M  V30 7434 C 717.796 -1.63172 -4.19053 0
M  V30 7435 C 716.566 -2.23566 -4.53152 0
M  V30 7436 C 718.764 -2.57916 -4.44954 0
M  V30 7437 N 716.746 -3.54856 -5.00949 0
M  V30 7438 C 718.117 -3.73892 -4.94576 0
M  V30 7439 C 720.172 -2.56125 -4.26971 0
M  V30 7440 C 718.875 -4.88363 -5.28104 0
M  V30 7441 C 720.901 -3.69712 -4.61592 0
M  V30 7442 C 720.263 -4.84418 -5.11389 0
M  V30 7443 H 716.362 -0.134088 -0.770418 0
M  V30 7444 H 718.946 -0.918576 -1.71669 0
M  V30 7445 H 717.117 0.401971 -3.86314 0
M  V30 7446 H 718.849 0.229261 -4.0405 0
M  V30 7447 H 715.604 -1.75809 -4.39759 0
M  V30 7448 H 716.028 -4.22167 -5.29249 0
M  V30 7449 H 720.67 -1.68656 -3.87705 0
M  V30 7450 H 718.388 -5.76488 -5.66292 0
M  V30 7451 H 721.974 -3.69583 -4.49332 0
M  V30 7452 H 720.854 -5.70855 -5.37675 0
M  V30 7453 N 718.357 1.51182 -0.445186 0
M  V30 7454 C 719.32 2.26501 0.350722 0
M  V30 7455 C 720.32 1.3025 0.942952 0
M  V30 7456 O 721.51 1.53897 0.816175 0
M  V30 7457 C 718.642 3.06274 1.49697 0
M  V30 7458 H 719.835 2.98299 -0.309474 0
M  V30 7459 H 717.388 1.55034 -0.198551 0
M  V30 7460 H 718.123 2.38911 2.19299 0
M  V30 7461 H 717.908 3.76979 1.0784 0
M  V30 7462 H 719.398 3.63306 2.05909 0
M  V30 7463 N 719.835 0.176821 1.56605 0
M  V30 7464 C 721.081 -0.460868 1.9811 0
M  V30 7465 C 721.436 -1.60488 1.06119 0
M  V30 7466 O 720.729 -1.91329 0.101939 0
M  V30 7467 C 720.923 -0.986208 3.43524 0
M  V30 7468 C 720.752 0.105368 4.49577 0
M  V30 7469 C 719.522 0.556883 5.02222 0
M  V30 7470 C 721.72 0.907756 5.06226 0
M  V30 7471 N 719.702 1.62819 5.91915 0
M  V30 7472 C 721.073 1.82887 5.92412 0
M  V30 7473 C 723.128 0.952221 4.8871 0
M  V30 7474 C 721.831 2.7907 6.62957 0
M  V30 7475 C 723.857 1.90202 5.5998 0
M  V30 7476 C 723.219 2.8106 6.45898 0
M  V30 7477 H 719.318 -0.136589 0.769979 0
M  V30 7478 H 721.902 0.278307 1.92701 0
M  V30 7479 H 720.073 -1.69489 3.49468 0
M  V30 7480 H 721.805 -1.59298 3.7203 0
M  V30 7481 H 718.56 0.153575 4.73351 0
M  V30 7482 H 718.984 2.1645 6.41466 0
M  V30 7483 H 723.626 0.263794 4.21976 0
M  V30 7484 H 721.344 3.48898 7.28901 0
M  V30 7485 H 724.93 1.9426 5.48411 0
M  V30 7486 H 723.81 3.53357 7.00077 0
M  V30 7487 N 721.313 -1.57302 -0.09688 0
M  V30 7488 C 722.729 -1.53094 -0.451041 0
M  V30 7489 C 722.929 -0.893265 -1.80618 0
M  V30 7490 O 721.985 -0.485013 -2.47798 0
M  V30 7491 C 723.298 -2.9782 -0.415172 0
M  V30 7492 C 724.846 -3.09026 -0.497155 0
M  V30 7493 C 725.321 -4.55356 -0.491452 0
M  V30 7494 N 726.812 -4.59896 -0.552258 0
M  V30 7495 C 727.547 -5.70563 -0.569654 0
M  V30 7496 N 727.043 -6.90666 -0.543365 0
M  V30 7497 N 728.836 -5.58733 -0.614331 0
M  V30 7498 H 720.987 -1.97131 0.790771 0
M  V30 7499 H 723.25 -0.901211 0.294147 0
M  V30 7500 H 722.956 -3.47933 0.513362 0
M  V30 7501 H 722.83 -3.56416 -1.23481 0
M  V30 7502 H 725.217 -2.58902 -1.41611 0
M  V30 7503 H 725.298 -2.53386 0.35059 0
M  V30 7504 H 724.942 -5.06131 0.423549 0
M  V30 7505 H 724.872 -5.08832 -1.35639 0
M  V30 7506 H 727.363 -3.73456 -0.577842 0
M  V30 7507 H 727.676 -7.70769 -0.559873 0
M  V30 7508 H 726.021 -6.93123 -0.510441 0
M  V30 7509 H 729.212 -4.63809 -0.632387 0
M  V30 7510 H 729.385 -6.44984 -0.62442 0
M  V30 7511 N 722.791 0.367657 -1.53252 0
M  V30 7512 C 723.721 1.45632 -1.8252 0
M  V30 7513 C 724.702 1.55979 -0.678568 0
M  V30 7514 O 725.887 1.70581 -0.928217 0
M  V30 7515 C 723.017 2.82994 -2.01325 0
M  V30 7516 C 721.971 2.87473 -3.17086 0
M  V30 7517 C 721.297 4.2749 -3.21179 0
M  V30 7518 C 722.597 2.55182 -4.55719 0
M  V30 7519 H 724.291 1.21387 -2.73689 0
M  V30 7520 H 721.837 0.58251 -1.31692 0
M  V30 7521 H 723.79 3.59179 -2.20383 0
M  V30 7522 H 722.514 3.08622 -1.06864 0
M  V30 7523 H 721.173 2.13739 -2.97844 0
M  V30 7524 H 720.821 4.5019 -2.24361 0
M  V30 7525 H 720.521 4.31403 -3.98955 0
M  V30 7526 H 722.045 5.0555 -3.42419 0
M  V30 7527 H 723.459 3.21081 -4.74953 0
M  V30 7528 H 721.856 2.70414 -5.3572 0
M  V30 7529 H 722.926 1.5044 -4.60973 0
M  V30 7530 N 724.269 1.44576 0.627338 0
M  V30 7531 C 725.515 1.4877 1.38705 0
M  V30 7532 C 725.87 0.119976 1.92026 0
M  V30 7533 O 725.163 -0.865341 1.70946 0
M  V30 7534 C 725.357 2.48644 2.56731 0
M  V30 7535 C 725.186 3.94994 2.14965 0
M  V30 7536 C 723.956 4.63139 2.02065 0
M  V30 7537 C 726.154 4.841 1.73643 0
M  V30 7538 N 724.136 5.94296 1.53902 0
M  V30 7539 C 725.507 6.0473 1.36753 0
M  V30 7540 C 727.562 4.71131 1.61058 0
M  V30 7541 C 726.265 7.13831 0.885353 0
M  V30 7542 C 728.291 5.8026 1.14244 0
M  V30 7543 C 727.653 7.00034 0.783067 0
M  V30 7544 H 723.752 0.599415 0.50222 0
M  V30 7545 H 726.336 1.80926 0.719285 0
M  V30 7546 H 724.507 2.18472 3.2113 0
M  V30 7547 H 726.239 2.4311 3.23542 0
M  V30 7548 H 722.994 4.18007 2.22637 0
M  V30 7549 H 723.418 6.63985 1.32108 0
M  V30 7550 H 728.06 3.78964 1.87473 0
M  V30 7551 H 725.778 8.05804 0.608716 0
M  V30 7552 H 729.364 5.72254 1.0496 0
M  V30 7553 H 728.244 7.8304 0.426381 0
M  V30 7554 N 725.747 -0.868086 1.31537 0
M  V30 7555 C 726.679 -1.98165 1.15166 0
M  V30 7556 C 727.692 -1.6255 0.0902335 0
M  V30 7557 O 728.881 -1.75272 0.33791 0
M  V30 7558 C 725.981 -3.30772 0.737776 0
M  V30 7559 C 725.154 -3.94716 1.88462 0
M  V30 7560 C 724.213 -5.05641 1.45648 0
M  V30 7561 O 723.239 -5.2636 2.16642 0
M  V30 7562 N 724.441 -5.79474 0.34493 0
M  V30 7563 H 727.206 -2.12754 2.11083 0
M  V30 7564 H 724.767 -1.04217 1.23897 0
M  V30 7565 H 726.759 -4.02366 0.434032 0
M  V30 7566 H 725.329 -3.1233 -0.129834 0
M  V30 7567 H 724.549 -3.16079 2.35558 0
M  V30 7568 H 725.837 -4.34175 2.65273 0
M  V30 7569 H 725.235 -5.65164 -0.246259 0
M  V30 7570 H 723.792 -6.51722 0.100728 0
M  V30 7571 N 727.225 -1.14528 -1.08264 0
M  V30 7572 C 728.155 -0.856356 -2.1723 0
M  V30 7573 C 729.136 0.189251 -1.69044 0
M  V30 7574 O 730.321 0.0456119 -1.94146 0
M  V30 7575 C 727.451 -0.334662 -3.45684 0
M  V30 7576 C 726.405 -1.31588 -4.0727 0
M  V30 7577 C 725.731 -0.653428 -5.30692 0
M  V30 7578 C 727.031 -2.67866 -4.48381 0
M  V30 7579 H 728.725 -1.76755 -2.41657 0
M  V30 7580 H 726.271 -0.851287 -1.16143 0
M  V30 7581 H 728.224 -0.120128 -4.21229 0
M  V30 7582 H 726.948 0.611967 -3.20815 0
M  V30 7583 H 725.607 -1.51661 -3.33758 0
M  V30 7584 H 725.255 0.299054 -5.0211 0
M  V30 7585 H 724.955 -1.30817 -5.72853 0
M  V30 7586 H 726.479 -0.448453 -6.08951 0
M  V30 7587 H 727.893 -2.51692 -5.15096 0
M  V30 7588 H 726.29 -3.29627 -5.01464 0
M  V30 7589 H 727.36 -3.24632 -3.60198 0
M  V30 7590 N 728.703 1.26451 -0.940633 0
M  V30 7591 C 729.65 2.264 -0.448497 0
M  V30 7592 C 730.62 1.5866 0.491546 0
M  V30 7593 O 731.805 1.86389 0.407874 0
M  V30 7594 C 728.945 3.43956 0.280715 0
M  V30 7595 C 728.058 4.26374 -0.694937 0
M  V30 7596 C 727.193 5.31171 0.0554186 0
M  V30 7597 C 726.232 6.05266 -0.912091 0
M  V30 7598 N 725.369 7.01833 -0.193524 0
M  V30 7599 H 730.209 2.67869 -1.30576 0
M  V30 7600 H 727.746 1.31707 -0.655112 0
M  V30 7601 H 729.704 4.10941 0.71994 0
M  V30 7602 H 728.334 3.03403 1.10212 0
M  V30 7603 H 727.386 3.59183 -1.25267 0
M  V30 7604 H 728.698 4.77748 -1.43382 0
M  V30 7605 H 727.852 6.04166 0.553951 0
M  V30 7606 H 726.591 4.80634 0.827183 0
M  V30 7607 H 725.596 5.31099 -1.42175 0
M  V30 7608 H 726.821 6.57893 -1.68385 0
M  V30 7609 H 724.767 6.53607 0.559758 0
M  V30 7610 H 724.684 7.50957 -0.871744 0
M  V30 7611 H 725.952 7.78983 0.283932 0
M  V30 7612 N 730.181 0.707592 1.40822 0
M  V30 7613 C 731.144 0.0587224 2.29125 0
M  V30 7614 C 732.144 -0.695624 1.44975 0
M  V30 7615 O 733.334 -0.528718 1.65983 0
M  V30 7616 C 730.466 -0.926939 3.28056 0
M  V30 7617 H 731.659 0.836349 2.88002 0
M  V30 7618 H 729.212 0.471778 1.4901 0
M  V30 7619 H 729.947 -1.7319 2.74182 0
M  V30 7620 H 729.732 -0.389015 3.90165 0
M  V30 7621 H 731.222 -1.37837 3.94196 0
M  V30 7622 N 731.66 -1.50943 0.453197 0
M  V30 7623 C 733.071 -1.86699 -0.00619892 0
M  V30 7624 C 733.422 -1.3693 -1.40515 0
M  V30 7625 O 732.547 -0.726715 -2.03833 0
M  V30 7626 C 733.142 -3.38795 -0.018025 0
M  V30 7627 C 731.701 -3.74028 -0.421885 0
M  V30 7628 C 730.848 -2.74752 0.375087 0
M  V30 7629 H 733.799 -1.43942 0.668317 0
M  V30 7630 H 733.82 -3.71468 -0.824125 0
M  V30 7631 H 733.332 -3.74988 1.00028 0
M  V30 7632 H 731.433 -3.43431 -1.44521 0
M  V30 7633 H 731.546 -4.78908 -0.135664 0
M  V30 7634 H 729.91 -2.5414 -0.168794 0
M  V30 7635 H 730.693 -3.13787 1.39256 0
M  V30 7636 N 733.138 -0.185124 -1.56509 0
M  V30 7637 C 734.384 0.456934 -1.97585 0
M  V30 7638 C 734.717 1.61957 -1.07161 0
M  V30 7639 O 733.992 1.9412 -0.121546 0
M  V30 7640 C 734.275 0.926666 -3.47973 0
M  V30 7641 C 734.128 -0.237097 -4.49175 0
M  V30 7642 C 735.447 1.79561 -4.01803 0
M  V30 7643 H 732.566 0.164619 -0.71838 0
M  V30 7644 H 735.208 -0.274039 -1.88013 0
M  V30 7645 H 733.358 1.54954 -3.56261 0
M  V30 7646 H 735.03 -0.87454 -4.52934 0
M  V30 7647 H 733.273 -0.890446 -4.24563 0
M  V30 7648 H 733.944 0.133924 -5.51838 0
M  V30 7649 H 736.42 1.27039 -3.96232 0
M  V30 7650 H 735.296 2.09327 -5.07418 0
M  V30 7651 H 735.557 2.74629 -3.46455 0
M  V30 7652 N 734.616 1.57351 0.0885366 0
M  V30 7653 C 736.027 1.75303 0.642308 0
M  V30 7654 C 736.378 0.808238 1.78779 0
M  V30 7655 O 735.503 -0.01171 2.16397 0
M  V30 7656 C 736.098 3.17885 1.17194 0
M  V30 7657 C 734.657 3.37239 1.67172 0
M  V30 7658 C 733.804 2.7108 0.584045 0
M  V30 7659 H 736.755 1.58103 -0.137567 0
M  V30 7660 H 736.776 3.2112 2.04114 0
M  V30 7661 H 736.288 3.86625 0.338024 0
M  V30 7662 H 734.389 2.73588 2.52943 0
M  V30 7663 H 734.502 4.45594 1.76019 0
M  V30 7664 H 732.866 2.33161 1.02508 0
M  V30 7665 H 733.649 3.42464 -0.239403 0
M  V30 7666 N 736.094 -0.359525 1.53444 0
M  V30 7667 C 737.057 -1.42357 1.7963 0
M  V30 7668 C 738.057 -1.46319 0.666884 0
M  V30 7669 O 739.247 -1.46974 0.935113 0
M  V30 7670 C 736.379 -2.81425 1.92387 0
M  V30 7671 H 737.572 -1.20409 2.74666 0
M  V30 7672 H 735.125 -0.593007 1.44614 0
M  V30 7673 H 735.86 -3.08679 0.994384 0
M  V30 7674 H 735.645 -2.79947 2.74539 0
M  V30 7675 H 737.135 -3.5847 2.14218 0
M  V30 7676 N 737.572 -1.44907 -0.619662 0
M  V30 7677 C 738.82 -1.47999 -1.37625 0
M  V30 7678 C 739.141 -0.118295 -1.94641 0
M  V30 7679 O 738.411 0.85086 -1.76457 0
M  V30 7680 H 736.991 -0.544993 -0.510873 0
M  V30 7681 H 739.653 -1.80772 -0.728522 0
M  V30 7682 H 738.749 -2.21196 -2.20179 0
M  V30 7683 N 739.05 0.861098 -1.31996 0
M  V30 7684 C 739.982 1.97551 -1.16216 0
M  V30 7685 C 740.995 1.625 -0.0988527 0
M  V30 7686 O 742.184 1.75091 -0.3472 0
M  V30 7687 C 739.284 3.30376 -0.755307 0
M  V30 7688 C 738.457 3.93711 -1.90552 0
M  V30 7689 C 737.516 5.04862 -1.48328 0
M  V30 7690 O 736.542 5.25204 -2.19431 0
M  V30 7691 N 737.744 5.79283 -0.375656 0
M  V30 7692 H 740.509 2.11632 -2.12208 0
M  V30 7693 H 738.07 1.03559 -1.24448 0
M  V30 7694 H 740.062 4.0213 -0.455364 0
M  V30 7695 H 738.632 3.12395 0.113269 0
M  V30 7696 H 737.852 3.14825 -2.37231 0
M  V30 7697 H 739.14 4.32762 -2.67571 0
M  V30 7698 H 738.538 5.65286 0.216284 0
M  V30 7699 H 737.095 6.5166 -0.135289 0
M  V30 7700 N 740.528 1.15101 1.07655 0
M  V30 7701 C 741.475 0.844958 2.14777 0
M  V30 7702 C 742.445 -0.200798 1.64882 0
M  V30 7703 O 743.63 -0.0690278 1.90675 0
M  V30 7704 C 740.77 0.337018 3.4345 0
M  V30 7705 C 739.883 1.44398 4.07153 0
M  V30 7706 C 739.018 0.892487 5.23649 0
M  V30 7707 C 738.057 1.9766 5.79307 0
M  V30 7708 N 737.194 1.44171 6.87138 0
M  V30 7709 H 742.034 1.76242 2.40297 0
M  V30 7710 H 739.571 0.879435 1.17917 0
M  V30 7711 H 741.529 0.024256 4.17193 0
M  V30 7712 H 740.159 -0.543531 3.18191 0
M  V30 7713 H 739.211 1.87299 3.31094 0
M  V30 7714 H 740.523 2.26262 4.4453 0
M  V30 7715 H 739.677 0.532083 6.04362 0
M  V30 7716 H 738.416 0.0429854 4.87681 0
M  V30 7717 H 737.421 2.34586 4.97242 0
M  V30 7718 H 738.646 2.82982 6.17331 0
M  V30 7719 H 736.592 0.614518 6.53115 0
M  V30 7720 H 736.509 2.19665 7.23383 0
M  V30 7721 H 737.777 1.10945 7.71564 0
M  V30 7722 N 742.006 -1.2595 0.947325 0
M  V30 7723 C 742.916 -2.29883 0.468079 0
M  V30 7724 C 743.932 -1.67783 -0.460975 0
M  V30 7725 O 745.108 -1.98526 -0.339006 0
M  V30 7726 C 742.173 -3.45773 -0.253315 0
M  V30 7727 C 741.234 -4.23337 0.713054 0
M  V30 7728 C 740.467 -5.33694 0.025993 0
M  V30 7729 O 740.69 -5.57853 -1.18978 0
M  V30 7730 O 739.624 -5.97724 0.70782 0
M  V30 7731 H 743.45 -2.72952 1.33156 0
M  V30 7732 H 741.035 -1.31263 0.713468 0
M  V30 7733 H 742.917 -4.16209 -0.659423 0
M  V30 7734 H 741.592 -3.04721 -1.09209 0
M  V30 7735 H 740.499 -3.55359 1.16923 0
M  V30 7736 H 741.832 -4.68154 1.51963 0
M  V30 7737 N 743.484 -0.715051 -1.40445 0
M  V30 7738 C 744.414 -0.0768699 -2.33373 0
M  V30 7739 C 745.395 0.746109 -1.52863 0
M  V30 7740 O 746.58 0.695142 -1.81332 0
M  V30 7741 C 743.71 0.846014 -3.36838 0
M  V30 7742 C 742.664 0.128694 -4.27806 0
M  V30 7743 C 741.99 1.16726 -5.21804 0
M  V30 7744 C 743.29 -1.01679 -5.12307 0
M  V30 7745 H 744.984 -0.853061 -2.8699 0
M  V30 7746 H 742.53 -0.41167 -1.3799 0
M  V30 7747 H 744.483 1.30185 -4.00786 0
M  V30 7748 H 743.207 1.6541 -2.81615 0
M  V30 7749 H 741.866 -0.307314 -3.6531 0
M  V30 7750 H 741.514 1.96838 -4.62887 0
M  V30 7751 H 741.214 0.692188 -5.83509 0
M  V30 7752 H 742.738 1.62321 -5.88629 0
M  V30 7753 H 744.152 -0.640337 -5.69713 0
M  V30 7754 H 742.549 -1.4202 -5.83053 0
M  V30 7755 H 743.619 -1.84769 -4.48317 0
M  V30 7756 N 744.962 1.50701 -0.461195 0
M  V30 7757 C 745.91 2.29918 0.352231 0
M  V30 7758 C 746.904 1.36778 0.999403 0
M  V30 7759 O 748.11 1.54015 0.931639 0
M  V30 7760 H 744.485 0.740249 0.132423 0
M  V30 7761 H 746.456 2.96497 -0.336424 0
M  V30 7762 C 745.205 3.17052 1.42736 0
M  V30 7763 H 744.528 3.88623 0.938747 0
M  V30 7764 H 745.968 3.75493 1.96928 0
M  V30 7765 C 744.427 2.3399 2.42384 0
M  V30 7766 O 744.957 2.01608 3.47444 0
M  V30 7767 N 743.163 1.96758 2.13857 0
M  V30 7768 H 742.71 2.23292 1.28447 0
M  V30 7769 H 742.668 1.41484 2.80766 0
M  V30 7770 N 746.441 0.193421 1.56409 0
M  V30 7771 C 747.69 -0.445995 1.96707 0
M  V30 7772 C 748.003 -1.62876 1.08309 0
M  V30 7773 O 749.209 -2.33586 1.38383 0
M  V30 7774 C 747.665 -0.844863 3.49843 0
M  V30 7775 C 747.273 0.31352 4.46902 0
M  V30 7776 C 749.017 -1.45146 3.98915 0
M  V30 7777 C 746.924 -0.106214 5.91305 0
M  V30 7778 H 745.854 -0.170398 0.734493 0
M  V30 7779 H 748.505 0.285172 1.81271 0
M  V30 7780 H 746.887 -1.63265 3.60778 0
M  V30 7781 H 748.061 1.09103 4.47698 0
M  V30 7782 H 746.376 0.8315 4.08014 0
M  V30 7783 H 748.973 -1.77792 5.04276 0
M  V30 7784 H 749.316 -2.35734 3.43126 0
M  V30 7785 H 749.849 -0.727675 3.91088 0
M  V30 7786 H 746.588 0.765442 6.51016 0
M  V30 7787 H 746.108 -0.848623 5.93766 0
M  V30 7788 H 747.787 -0.542588 6.44721 0
M  V30 7789 N 747.919 -1.57396 -0.0801906 0
M  V30 7790 C 749.165 -1.87113 -0.782083 0
M  V30 7791 C 749.498 -0.78458 -1.77646 0
M  V30 7792 O 748.773 0.205993 -1.93406 0
M  V30 7793 C 749.056 -3.27483 -1.49756 0
M  V30 7794 C 748.909 -4.46782 -0.520171 0
M  V30 7795 C 750.228 -3.65965 -2.44454 0
M  V30 7796 H 747.347 -0.680559 -0.282858 0
M  V30 7797 H 749.989 -1.89946 -0.0454139 0
M  V30 7798 H 748.139 -3.25199 -2.12551 0
M  V30 7799 H 749.811 -4.61187 0.101919 0
M  V30 7800 H 748.054 -4.33485 0.165219 0
M  V30 7801 H 748.725 -5.41761 -1.05824 0
M  V30 7802 H 751.201 -3.69289 -1.91742 0
M  V30 7803 H 750.077 -4.65086 -2.91524 0
M  V30 7804 H 750.338 -2.95446 -3.28883 0
M  V30 7805 N 749.397 0.351382 -1.53633 0
M  V30 7806 C 750.637 1.10102 -1.72212 0
M  V30 7807 C 751.001 1.86128 -0.471198 0
M  V30 7808 O 752.202 2.63445 -0.533887 0
M  V30 7809 C 750.473 2.02348 -2.94602 0
M  V30 7810 S 752.032 2.84641 -3.33954 0
M  V30 7811 H 748.85 0.372145 -0.60583 0
M  V30 7812 H 751.452 0.38044 -1.91763 0
M  V30 7813 H 750.156 1.45283 -3.83824 0
M  V30 7814 H 749.687 2.78856 -2.77493 0
M  V30 7815 H 751.702 4.04724 -2.87076 0
M  V30 7816 N 750.875 1.45233 0.611969 0
M  V30 7817 C 751.822 1.5357 1.72293 0
M  V30 7818 C 752.792 0.381912 1.6165 0
M  V30 7819 O 753.977 0.594765 1.81293 0
M  V30 7820 C 751.117 1.50419 3.10593 0
M  V30 7821 C 750.23 2.76316 3.32074 0
M  V30 7822 C 749.365 2.64866 4.60456 0
M  V30 7823 C 748.404 3.85838 4.7518 0
M  V30 7824 N 747.541 3.72949 5.94856 0
M  V30 7825 H 752.381 2.4848 1.64504 0
M  V30 7826 H 749.918 1.23302 0.802191 0
M  V30 7827 H 751.876 1.4658 3.90602 0
M  V30 7828 H 750.506 0.590621 3.17351 0
M  V30 7829 H 749.558 2.90261 2.45872 0
M  V30 7830 H 750.87 3.66055 3.38829 0
M  V30 7831 H 750.024 2.58969 5.48653 0
M  V30 7832 H 748.763 1.72719 4.56092 0
M  V30 7833 H 747.768 3.92099 3.85407 0
M  V30 7834 H 748.993 4.79045 4.81344 0
M  V30 7835 H 746.939 2.83567 5.91545 0
M  V30 7836 H 746.856 4.56319 6.02751 0
M  V30 7837 H 748.124 3.70976 6.85563 0
M  V30 7838 N 752.353 -0.854086 1.3245 0
M  V30 7839 C 753.316 -1.94427 1.21371 0
M  V30 7840 C 754.316 -1.60219 0.136613 0
M  V30 7841 O 755.506 -1.69846 0.387057 0
M  V30 7842 C 752.638 -3.29698 0.866701 0
M  V30 7843 H 753.831 -2.05679 2.18257 0
M  V30 7844 H 751.384 -1.04434 1.1629 0
M  V30 7845 H 752.119 -3.24145 -0.100319 0
M  V30 7846 H 751.904 -3.55903 1.64545 0
M  V30 7847 H 753.394 -4.09599 0.813515 0
M  V30 7848 N 753.831 -1.1567 -1.07043 0
M  V30 7849 C 755.077 -0.9349 -1.79965 0
M  V30 7850 C 755.41 0.536464 -1.86643 0
M  V30 7851 O 754.685 1.39781 -1.35247 0
M  V30 7852 C 754.968 -1.55371 -3.24857 0
M  V30 7853 C 754.821 -3.09589 -3.26305 0
M  V30 7854 C 756.14 -1.24209 -4.22209 0
M  V30 7855 H 753.259 -0.341061 -0.653335 0
M  V30 7856 H 755.901 -1.42883 -1.25237 0
M  V30 7857 H 754.051 -1.13368 -3.71591 0
M  V30 7858 H 755.723 -3.60521 -2.87789 0
M  V30 7859 H 753.966 -3.43315 -2.65174 0
M  V30 7860 H 754.637 -3.48002 -4.28484 0
M  V30 7861 H 757.113 -1.60548 -3.8388 0
M  V30 7862 H 755.989 -1.70119 -5.21872 0
M  V30 7863 H 756.25 -0.15964 -4.41812 0
M  V30 7864 N 755.309 1.25446 -0.953992 0
M  V30 7865 C 756.586 1.884 -0.525823 0
M  V30 7866 C 756.966 1.86079 0.996891 0
M  V30 7867 O 756.314 1.32389 1.8624 0
M  V30 7868 C 756.524 3.31154 -1.10172 0
M  V30 7869 C 757.872 4.07926 -1.17819 0
M  V30 7870 O 758.896 3.40273 -1.05323 0
M  V30 7871 O 757.755 5.28942 -1.37415 0
M  V30 7872 H 754.849 0.808629 -0.173345 0
M  V30 7873 H 757.395 1.33522 -1.04738 0
M  V30 7874 H 756.167 3.27271 -2.14499 0
M  V30 7875 H 755.79 3.93588 -0.56338 0
M  V30 7876 N 756.787 0.722489 1.40064 0
M  V30 7877 C 758.064 0.191829 1.94657 0
M  V30 7878 C 758.444 -1.30389 1.66018 0
M  V30 7879 O 757.792 -2.06342 0.981588 0
M  V30 7880 C 758.002 0.511978 3.45224 0
M  V30 7881 C 759.35 0.454426 4.22161 0
M  V30 7882 O 760.374 0.448438 3.53366 0
M  V30 7883 O 759.233 0.437986 5.44742 0
M  V30 7884 H 756.327 0.0307821 0.826427 0
M  V30 7885 H 758.873 0.800493 1.49634 0
M  V30 7886 H 757.645 1.54622 3.59455 0
M  V30 7887 H 757.268 -0.126296 3.97399 0
M  V30 7888 N 758.265 -1.50454 0.469181 0
M  V30 7889 C 759.513 -2.01916 -0.0862982 0
M  V30 7890 C 759.834 -1.35337 -1.40388 0
M  V30 7891 O 759.104 -0.498096 -1.89462 0
M  V30 7892 H 757.684 -0.746185 -0.0348825 0
M  V30 7893 H 760.346 -1.84804 0.619167 0
M  V30 7894 H 759.442 -3.11182 -0.239189 0
M  V30 7895 N 759.743 -0.201713 -1.56304 0
M  V30 7896 C 760.973 0.440084 -2.01858 0
M  V30 7897 C 761.381 1.55279 -1.08098 0
M  V30 7898 O 760.724 1.83529 -0.0792216 0
M  V30 7899 C 760.786 1.05091 -3.43797 0
M  V30 7900 C 760.45 0.0761208 -4.56937 0
M  V30 7901 C 761.447 -0.716951 -5.14933 0
M  V30 7902 C 759.132 -0.0368815 -5.02286 0
M  V30 7903 C 761.126 -1.60993 -6.16733 0
M  V30 7904 C 758.813 -0.933409 -6.03929 0
M  V30 7905 C 759.811 -1.71849 -6.61027 0
M  V30 7906 O 759.499 -2.59998 -7.60695 0
M  V30 7907 H 759.231 0.114139 -0.666294 0
M  V30 7908 H 761.785 -0.309672 -2.03052 0
M  V30 7909 H 760.015 1.84938 -3.3961 0
M  V30 7910 H 761.704 1.59804 -3.73118 0
M  V30 7911 H 762.47 -0.63999 -4.80759 0
M  V30 7912 H 758.349 0.564034 -4.57537 0
M  V30 7913 H 761.893 -2.22315 -6.61227 0
M  V30 7914 H 757.79 -1.01146 -6.37526 0
M  V30 7915 H 758.558 -2.53851 -7.7814 0
M  V30 7916 N 761.222 1.57436 0.0718424 0
M  V30 7917 C 762.17 2.04725 1.10411 0
M  V30 7918 C 763.164 0.952579 1.4008 0
M  V30 7919 O 764.37 1.13769 1.39487 0
M  V30 7920 H 760.745 0.652749 0.373393 0
M  V30 7921 H 762.716 2.90569 0.679126 0
M  V30 7922 C 761.465 2.5068 2.40946 0
M  V30 7923 H 760.788 3.34505 2.18967 0
M  V30 7924 H 762.228 2.87521 3.11621 0
M  V30 7925 C 760.687 1.38971 3.06902 0
M  V30 7926 O 761.217 0.731786 3.94978 0
M  V30 7927 N 759.423 1.13485 2.67525 0
M  V30 7928 H 758.97 1.67168 1.95991 0
M  V30 7929 H 758.928 0.389467 3.11978 0
M  V30 7930 N 762.7 -0.34323 1.53817 0
M  V30 7931 C 763.946 -1.08504 1.71332 0
M  V30 7932 C 764.279 -1.88294 0.475285 0
M  V30 7933 O 763.554 -1.87205 -0.527688 0
M  V30 7934 C 763.837 -2.02597 2.97702 0
M  V30 7935 C 763.69 -1.26268 4.31713 0
M  V30 7936 C 765.009 -3.0241 3.19744 0
M  V30 7937 H 762.128 -0.393072 0.623429 0
M  V30 7938 H 764.77 -0.363579 1.86489 0
M  V30 7939 H 762.92 -2.64118 2.8491 0
M  V30 7940 H 764.592 -0.673594 4.56356 0
M  V30 7941 H 762.835 -0.564696 4.30109 0
M  V30 7942 H 763.506 -1.95253 5.16314 0
M  V30 7943 H 765.982 -2.51004 3.31868 0
M  V30 7944 H 764.858 -3.65449 4.09558 0
M  V30 7945 H 765.119 -3.73806 2.36054 0
M  V30 7946 N 764.178 -1.45556 -0.604258 0
M  V30 7947 C 765.11 -1.50494 -1.72871 0
M  V30 7948 C 766.123 -0.395368 -1.57926 0
M  V30 7949 O 767.312 -0.662603 -1.65746 0
M  V30 7950 C 764.412 -1.34874 -3.10906 0
M  V30 7951 C 763.585 -2.59564 -3.52058 0
M  V30 7952 C 762.644 -2.38453 -4.6907 0
M  V30 7953 O 761.67 -3.12082 -4.76018 0
M  V30 7954 N 762.872 -1.43229 -5.62553 0
M  V30 7955 H 765.637 -2.4744 -1.69097 0
M  V30 7956 H 763.198 -1.41338 -0.789636 0
M  V30 7957 H 765.19 -1.18556 -3.86945 0
M  V30 7958 H 763.76 -0.461913 -3.09168 0
M  V30 7959 H 762.98 -2.90974 -2.65946 0
M  V30 7960 H 764.268 -3.42441 -3.76313 0
M  V30 7961 H 763.666 -0.824714 -5.59656 0
M  V30 7962 H 762.223 -1.32882 -6.38111 0
M  V30 7963 N 765.656 0.84705 -1.32902 0
M  V30 7964 C 767.067 1.41785 -1.21466 0
M  V30 7965 C 767.418 1.95464 0.169767 0
M  V30 7966 O 766.543 1.88157 1.06892 0
M  V30 7967 C 767.138 2.57734 -2.19906 0
M  V30 7968 C 765.697 3.10791 -2.12334 0
M  V30 7969 C 764.844 1.83562 -2.07847 0
M  V30 7970 H 767.795 0.653532 -1.44619 0
M  V30 7971 H 767.816 3.35123 -1.80202 0
M  V30 7972 H 767.328 2.18635 -3.20656 0
M  V30 7973 H 765.429 3.54455 -1.14858 0
M  V30 7974 H 765.542 3.71519 -3.02506 0
M  V30 7975 H 763.906 2.03475 -1.53199 0
M  V30 7976 H 764.689 1.4667 -3.10392 0
M  V30 7977 N 767.134 1.16236 1.06428 0
M  V30 7978 C 768.411 0.853294 1.76006 0
M  V30 7979 C 768.791 -0.649162 2.00871 0
M  V30 7980 O 768.139 -1.59653 1.63472 0
M  V30 7981 C 768.349 1.67448 3.06206 0
M  V30 7982 C 769.697 1.8866 3.80385 0
M  V30 7983 O 770.721 1.64303 3.16043 0
M  V30 7984 O 769.58 2.29518 4.95968 0
M  V30 7985 H 766.674 0.314737 0.764767 0
M  V30 7986 H 769.22 1.26865 1.12709 0
M  V30 7987 H 767.992 2.69411 2.83784 0
M  V30 7988 H 767.615 1.25608 3.77238 0
M  V30 7989 N 768.612 -1.24939 0.960631 0
M  V30 7990 C 769.84 -1.96881 0.636045 0
M  V30 7991 C 770.255 -1.71334 -0.793093 0
M  V30 7992 O 769.612 -0.992917 -1.53125 0
M  V30 7993 C 769.663 -3.50309 0.892533 0
M  V30 7994 O 769.384 -3.74977 2.26548 0
M  V30 7995 C 770.885 -4.39474 0.581159 0
M  V30 7996 H 768.105 -0.627399 0.237931 0
M  V30 7997 H 770.649 -1.58952 1.28664 0
M  V30 7998 H 768.804 -3.86326 0.288257 0
M  V30 7999 H 769.218 -4.69401 2.34014 0
M  V30 8000 H 770.692 -5.46008 0.811125 0
M  V30 8001 H 771.169 -4.3652 -0.48443 0
M  V30 8002 H 771.775 -4.09032 1.16502 0
M  V30 8003 N 770.09 -0.729906 -1.39679 0
M  V30 8004 C 771.336 -0.27603 -2.00913 0
M  V30 8005 C 771.669 1.13227 -1.57776 0
M  V30 8006 O 770.944 1.7709 -0.804319 0
M  V30 8007 C 771.227 -0.372157 -3.58172 0
M  V30 8008 C 771.08 -1.81986 -4.11341 0
M  V30 8009 C 772.399 0.248378 -4.39399 0
M  V30 8010 H 769.518 -0.101773 -0.729939 0
M  V30 8011 H 772.16 -0.925104 -1.65957 0
M  V30 8012 H 770.31 0.180459 -3.88081 0
M  V30 8013 H 771.982 -2.42896 -3.92172 0
M  V30 8014 H 770.225 -2.34287 -3.65092 0
M  V30 8015 H 770.896 -1.83842 -5.20486 0
M  V30 8016 H 773.372 -0.222645 -4.15504 0
M  V30 8017 H 772.248 0.150746 -5.48693 0
M  V30 8018 H 772.509 1.33378 -4.21501 0
M  V30 8019 N 771.568 1.50203 -0.477153 0
M  V30 8020 C 772.531 2.27194 0.302599 0
M  V30 8021 C 773.531 1.32221 0.915112 0
M  V30 8022 O 774.721 1.55593 0.783348 0
M  V30 8023 C 771.853 3.0938 1.43167 0
M  V30 8024 H 773.046 2.97575 -0.372678 0
M  V30 8025 H 770.599 1.54578 -0.231392 0
M  V30 8026 H 771.334 2.43509 2.14182 0
M  V30 8027 H 771.119 3.79181 0.998197 0
M  V30 8028 H 772.609 3.67592 1.98157 0
M  V30 8029 N 773.046 0.209999 1.56195 0
M  V30 8030 C 774.457 -0.299943 1.84275 0
M  V30 8031 C 774.808 -1.60314 1.1311 0
M  V30 8032 O 773.933 -2.1273 0.396874 0
M  V30 8033 C 774.528 -0.550986 3.3429 0
M  V30 8034 C 773.087 -1.00526 3.62728 0
M  V30 8035 C 772.234 -0.0619828 2.77231 0
M  V30 8036 H 775.185 0.433458 1.52666 0
M  V30 8037 H 775.206 -1.39846 3.53869 0
M  V30 8038 H 774.718 0.397669 3.86057 0
M  V30 8039 H 772.819 -1.96768 3.16407 0
M  V30 8040 H 772.932 -0.887664 4.70805 0
M  V30 8041 H 771.296 -0.566648 2.48317 0
M  V30 8042 H 772.079 0.881383 3.31793 0
M  V30 8043 N 774.524 -1.57472 -0.0634922 0
M  V30 8044 C 775.773 -1.86837 -0.759928 0
M  V30 8045 C 776.086 -0.803823 -1.7832 0
M  V30 8046 O 777.292 -0.985578 -2.52979 0
M  V30 8047 C 775.748 -3.31448 -1.4025 0
M  V30 8048 C 775.356 -4.46052 -0.417368 0
M  V30 8049 C 777.1 -3.70003 -2.08082 0
M  V30 8050 C 775.007 -5.81707 -1.06633 0
M  V30 8051 H 773.937 -0.697009 -0.287567 0
M  V30 8052 H 776.588 -1.83495 -0.0133914 0
M  V30 8053 H 774.97 -3.29427 -2.19759 0
M  V30 8054 H 776.144 -4.5948 0.348503 0
M  V30 8055 H 774.459 -4.16104 0.156955 0
M  V30 8056 H 777.056 -4.68653 -2.57426 0
M  V30 8057 H 777.399 -3.00226 -2.88393 0
M  V30 8058 H 777.932 -3.7405 -1.35394 0
M  V30 8059 H 774.671 -6.54798 -0.303374 0
M  V30 8060 H 774.191 -5.72064 -1.80286 0
M  V30 8061 H 775.87 -6.27317 -1.58376 0
M  V30 8062 N 776.003 0.335068 -1.53997 0
M  V30 8063 C 777.249 1.07222 -1.72844 0
M  V30 8064 C 777.604 1.86054 -0.490075 0
M  V30 8065 O 776.897 1.84481 0.517416 0
M  V30 8066 C 777.091 2.0364 -2.9371 0
M  V30 8067 C 776.92 1.34287 -4.29182 0
M  V30 8068 C 775.69 1.08417 -4.93532 0
M  V30 8069 C 777.888 0.764703 -5.08583 0
M  V30 8070 N 775.87 0.357342 -6.12859 0
M  V30 8071 C 777.241 0.168876 -6.1977 0
M  V30 8072 C 779.296 0.666383 -4.9342 0
M  V30 8073 C 777.999 -0.515716 -7.17449 0
M  V30 8074 C 780.025 -0.0044859 -5.914 0
M  V30 8075 C 779.387 -0.589305 -7.01931 0
M  V30 8076 H 775.486 0.376448 -0.685427 0
M  V30 8077 H 778.07 0.354778 -1.9144 0
M  V30 8078 H 776.241 2.72668 -2.76599 0
M  V30 8079 H 777.973 2.70256 -3.01237 0
M  V30 8080 H 774.728 1.37351 -4.53246 0
M  V30 8081 H 775.152 0.00840481 -6.76999 0
M  V30 8082 H 779.794 1.10426 -4.08125 0
M  V30 8083 H 777.512 -0.965457 -8.02312 0
M  V30 8084 H 781.098 -0.0800446 -5.81745 0
M  V30 8085 H 779.978 -1.10019 -7.76444 0
M  V30 8086 N 777.481 1.45874 0.596531 0
M  V30 8087 C 778.429 1.55739 1.72766 0
M  V30 8088 C 779.423 0.426666 1.63939 0
M  V30 8089 O 780.629 0.60301 1.69599 0
M  V30 8090 H 777.004 0.489386 0.570968 0
M  V30 8091 H 778.975 2.50871 1.61575 0
M  V30 8092 C 777.724 1.55174 3.11153 0
M  V30 8093 H 777.047 2.41511 3.1861 0
M  V30 8094 H 778.487 1.66133 3.90097 0
M  V30 8095 C 776.946 0.278001 3.35751 0
M  V30 8096 O 777.476 -0.637557 3.96608 0
M  V30 8097 N 775.682 0.170227 2.90101 0
M  V30 8098 H 775.229 0.916159 2.40758 0
M  V30 8099 H 775.187 -0.68117 3.06932 0
M  V30 8100 N 778.959 -0.83999 1.33349 0
M  V30 8101 C 779.889 -1.965 1.26135 0
M  V30 8102 C 780.87 -1.69505 0.142152 0
M  V30 8103 O 782.055 -1.91346 0.331743 0
M  V30 8104 C 779.185 -3.32632 0.99866 0
M  V30 8105 C 778.139 -3.74021 2.08068 0
M  V30 8106 C 777.465 -5.07947 1.67014 0
M  V30 8107 C 778.765 -3.87925 3.49731 0
M  V30 8108 H 780.459 -2.02793 2.20262 0
M  V30 8109 H 778.005 -0.974297 1.06035 0
M  V30 8110 H 779.958 -4.10903 0.934696 0
M  V30 8111 H 778.682 -3.26593 0.0217759 0
M  V30 8112 H 777.341 -2.98012 2.13505 0
M  V30 8113 H 776.989 -4.98378 0.680316 0
M  V30 8114 H 776.689 -5.36611 2.39422 0
M  V30 8115 H 778.213 -5.88695 1.62082 0
M  V30 8116 H 779.627 -4.5651 3.46802 0
M  V30 8117 H 778.024 -4.28023 4.20614 0
M  V30 8118 H 779.094 -2.90407 3.88319 0
M  V30 8119 N 780.437 -1.16799 -1.0581 0
M  V30 8120 C 781.853 -0.913935 -1.30841 0
M  V30 8121 C 782.053 0.430439 -1.96849 0
M  V30 8122 O 781.109 1.16885 -2.23817 0
M  V30 8123 C 782.422 -2.06662 -2.18429 0
M  V30 8124 C 783.97 -2.10294 -2.31831 0
M  V30 8125 C 784.445 -3.2493 -3.22776 0
M  V30 8126 N 785.936 -3.24678 -3.30361 0
M  V30 8127 C 786.671 -4.10021 -4.00837 0
M  V30 8128 N 786.167 -5.05461 -4.73795 0
M  V30 8129 N 787.96 -3.97991 -3.96937 0
M  V30 8130 H 780.111 -2.03343 -0.613613 0
M  V30 8131 H 782.374 -0.88754 -0.333133 0
M  V30 8132 H 782.08 -3.03791 -1.77211 0
M  V30 8133 H 781.954 -2.01233 -3.19038 0
M  V30 8134 H 784.341 -1.13754 -2.72294 0
M  V30 8135 H 784.422 -2.19786 -1.30873 0
M  V30 8136 H 784.066 -4.21731 -2.83028 0
M  V30 8137 H 783.996 -3.12674 -4.23725 0
M  V30 8138 H 786.487 -2.55573 -2.78372 0
M  V30 8139 H 786.8 -5.66989 -5.25113 0
M  V30 8140 H 785.145 -5.09436 -4.72758 0
M  V30 8141 H 788.336 -3.2273 -3.39062 0
M  V30 8142 H 788.509 -4.64722 -4.51594 0
M  V30 8143 N 781.915 1.24427 -0.967243 0
M  V30 8144 C 783.163 1.92107 -0.627638 0
M  V30 8145 C 783.484 1.75991 0.83978 0
M  V30 8146 O 782.754 1.13118 1.59941 0
M  V30 8147 H 781.334 0.710986 -0.229145 0
M  V30 8148 H 783.996 1.51331 -1.22821 0
M  V30 8149 H 783.092 2.99791 -0.867844 0
M  V30 8150 N 783.393 0.737304 1.3929 0
M  V30 8151 C 784.639 0.286681 2.00763 0
M  V30 8152 C 784.972 -1.12388 1.58375 0
M  V30 8153 O 784.247 -1.76661 0.813699 0
M  V30 8154 C 784.53 0.391147 3.57969 0
M  V30 8155 C 784.383 1.84165 4.1037 0
M  V30 8156 C 785.702 -0.225072 4.39524 0
M  V30 8157 H 782.821 0.105642 0.729389 0
M  V30 8158 H 785.463 0.933892 1.65464 0
M  V30 8159 H 783.613 -0.159875 3.88171 0
M  V30 8160 H 785.285 2.44972 3.90879 0
M  V30 8161 H 783.528 2.3622 3.63844 0
M  V30 8162 H 784.199 1.866 5.19504 0
M  V30 8163 H 786.675 0.244677 4.1538 0
M  V30 8164 H 785.551 -0.121646 5.48765 0
M  V30 8165 H 785.812 -1.31141 4.22202 0
M  V30 8166 N 784.871 -1.49948 0.485112 0
M  V30 8167 C 785.801 -2.31675 -0.291364 0
M  V30 8168 C 786.782 -1.39216 -0.977383 0
M  V30 8169 O 787.967 -1.68133 -0.971855 0
M  V30 8170 C 785.097 -3.19326 -1.36558 0
M  V30 8171 C 784.051 -4.2045 -0.800359 0
M  V30 8172 C 783.377 -4.96931 -1.97391 0
M  V30 8173 C 784.677 -5.21925 0.197867 0
M  V30 8174 H 786.371 -2.96839 0.390775 0
M  V30 8175 H 783.917 -1.42749 0.189375 0
M  V30 8176 H 785.87 -3.75304 -1.91638 0
M  V30 8177 H 784.594 -2.52074 -2.07668 0
M  V30 8178 H 783.253 -3.65594 -0.271428 0
M  V30 8179 H 782.901 -4.26141 -2.67232 0
M  V30 8180 H 782.601 -5.65344 -1.60187 0
M  V30 8181 H 784.125 -5.55749 -2.52935 0
M  V30 8182 H 785.539 -5.72691 -0.264239 0
M  V30 8183 H 783.936 -5.98138 0.484908 0
M  V30 8184 H 785.006 -4.71809 1.11912 0
M  V30 8185 N 786.349 -0.21828 -1.56081 0
M  V30 8186 C 787.574 0.422302 -2.03055 0
M  V30 8187 C 787.999 1.5279 -1.09713 0
M  V30 8188 O 787.357 1.81102 -0.0847187 0
M  V30 8189 C 787.405 0.934177 -3.48289 0
M  V30 8190 O 786.509 2.04574 -3.58083 0
M  V30 8191 H 785.85 0.0959764 -0.657027 0
M  V30 8192 H 788.38 -0.335958 -2.01823 0
M  V30 8193 H 788.39 1.24484 -3.88546 0
M  V30 8194 H 787.065 0.124963 -4.15712 0
M  V30 8195 H 785.642 1.74196 -3.29712 0
M  V30 8196 N 787.827 1.57504 0.0551401 0
M  V30 8197 C 788.775 2.05884 1.08233 0
M  V30 8198 C 789.769 0.967383 1.39061 0
M  V30 8199 O 790.975 1.15242 1.38273 0
M  V30 8200 H 787.35 0.656673 0.366449 0
M  V30 8201 H 789.321 2.91273 0.648269 0
M  V30 8202 C 788.07 2.53221 2.38273 0
M  V30 8203 H 787.393 3.36809 2.15406 0
M  V30 8204 H 788.833 2.9081 3.08554 0
M  V30 8205 C 787.292 1.42218 3.05411 0
M  V30 8206 O 787.822 0.773638 3.9418 0
M  V30 8207 N 786.028 1.16316 2.66306 0
M  V30 8208 H 785.575 1.69237 1.94207 0
M  V30 8209 H 785.533 0.422534 3.11548 0
M  V30 8210 N 789.305 -0.326896 1.54172 0
M  V30 8211 C 790.268 -1.38515 1.8261 0
M  V30 8212 C 791.268 -1.44872 0.697771 0
M  V30 8213 O 792.458 -1.44957 0.966078 0
M  V30 8214 C 789.59 -2.77281 1.98313 0
M  V30 8215 H 790.783 -1.14556 2.77159 0
M  V30 8216 H 788.336 -0.562199 1.45839 0
M  V30 8217 H 789.071 -3.065 1.05964 0
M  V30 8218 H 788.856 -2.74061 2.80416 0
M  V30 8219 H 790.346 -3.53845 2.21773 0
M  V30 8220 N 790.784 -1.46188 -0.588786 0
M  V30 8221 C 792.03 -1.52396 -1.34711 0
M  V30 8222 C 792.385 -0.170846 -1.9164 0
M  V30 8223 O 791.678 0.819714 -1.7318 0
M  V30 8224 C 791.872 -2.55364 -2.50048 0
M  V30 8225 C 791.701 -4.00554 -2.04417 0
M  V30 8226 C 790.471 -4.68334 -1.89715 0
M  V30 8227 C 792.669 -4.88533 -1.60747 0
M  V30 8228 N 790.651 -5.98167 -1.38091 0
M  V30 8229 C 792.022 -6.08143 -1.20672 0
M  V30 8230 C 794.077 -4.75236 -1.4851 0
M  V30 8231 C 792.78 -7.15927 -0.695782 0
M  V30 8232 C 794.806 -5.83085 -0.988196 0
M  V30 8233 C 794.168 -7.01864 -0.59719 0
M  V30 8234 H 790.267 -0.61252 -0.486151 0
M  V30 8235 H 792.851 -1.8277 -0.671063 0
M  V30 8236 H 791.022 -2.2691 -3.15225 0
M  V30 8237 H 792.754 -2.51603 -3.16983 0
M  V30 8238 H 789.509 -4.23763 -2.11476 0
M  V30 8239 H 789.933 -6.67254 -1.14458 0
M  V30 8240 H 794.575 -3.83801 -1.7736 0
M  V30 8241 H 792.293 -8.07135 -0.394857 0
M  V30 8242 H 795.879 -5.74836 -0.897504 0
M  V30 8243 H 794.759 -7.83895 -0.218621 0
M  V30 8244 N 792.262 0.832906 -1.33792 0
M  V30 8245 C 793.212 1.93178 -1.21105 0
M  V30 8246 C 794.196 1.60506 -0.112491 0
M  V30 8247 O 795.388 1.73681 -0.341179 0
M  V30 8248 C 792.517 3.29647 -0.958526 0
M  V30 8249 C 791.603 3.68469 -2.0998 0
M  V30 8250 N 791.994 3.78936 -3.35024 0
M  V30 8251 C 790.292 3.98249 -2.00782 0
M  V30 8252 C 790.993 4.12731 -4.09912 0
M  V30 8253 N 789.969 4.25419 -3.38407 0
M  V30 8254 H 793.771 1.99434 -2.15878 0
M  V30 8255 H 791.285 1.02598 -1.25886 0
M  V30 8256 H 793.282 4.08173 -0.848552 0
M  V30 8257 H 791.942 3.24694 -0.019387 0
M  V30 8258 H 792.953 3.62688 -3.69699 0
M  V30 8259 H 789.63 4.01474 -1.14564 0
M  V30 8260 H 791.02 4.28117 -5.17847 0
M  V30 8261 N 793.74 1.17359 1.05189 0
M  V30 8262 C 795.156 0.920861 1.30355 0
M  V30 8263 C 795.356 -0.419993 1.97074 0
M  V30 8264 O 794.412 -1.15696 2.24434 0
M  V30 8265 C 795.725 2.07818 2.1733 0
M  V30 8266 C 797.273 2.1152 2.30712 0
M  V30 8267 C 797.748 3.26637 3.21048 0
M  V30 8268 N 799.239 3.26426 3.28634 0
M  V30 8269 C 799.974 4.12141 3.98657 0
M  V30 8270 N 799.47 5.07966 4.71107 0
M  V30 8271 N 801.263 4.00091 3.94821 0
M  V30 8272 H 793.414 2.03666 0.602821 0
M  V30 8273 H 795.677 0.889294 0.328421 0
M  V30 8274 H 795.383 3.04727 1.75597 0
M  V30 8275 H 795.257 2.02922 3.17966 0
M  V30 8276 H 797.644 1.15196 2.71687 0
M  V30 8277 H 797.725 2.20477 1.29706 0
M  V30 8278 H 797.369 4.23227 2.80788 0
M  V30 8279 H 797.299 3.14917 4.2206 0
M  V30 8280 H 799.79 2.57045 2.77013 0
M  V30 8281 H 800.103 5.69766 5.22099 0
M  V30 8282 H 798.448 5.11936 4.7005 0
M  V30 8283 H 801.639 3.24523 3.37346 0
M  V30 8284 H 801.812 4.6711 4.49123 0
M  V30 8285 N 795.218 -1.23913 0.973828 0
M  V30 8286 C 796.464 -1.92436 0.640026 0
M  V30 8287 C 796.797 -1.75875 -0.823512 0
M  V30 8288 O 796.072 -1.11563 -1.59323 0
M  V30 8289 C 796.355 -3.4526 1.0231 0
M  V30 8290 C 796.208 -3.70961 2.54378 0
M  V30 8291 C 797.527 -4.36495 0.562155 0
M  V30 8292 H 794.646 -0.698868 0.233992 0
M  V30 8293 H 797.288 -1.46163 1.21393 0
M  V30 8294 H 795.438 -3.84802 0.534751 0
M  V30 8295 H 797.11 -3.40941 3.10737 0
M  V30 8296 H 795.353 -3.15899 2.97305 0
M  V30 8297 H 796.024 -4.77912 2.76232 0
M  V30 8298 H 798.5 -4.04363 0.981333 0
M  V30 8299 H 797.376 -5.42142 0.858689 0
M  V30 8300 H 797.637 -4.38818 -0.537659 0
M  V30 8301 N 796.696 -0.74468 -1.38897 0
M  V30 8302 C 797.646 -0.0869375 -2.27834 0
M  V30 8303 C 798.63 0.702553 -1.44751 0
M  V30 8304 O 799.822 0.569972 -1.67572 0
M  V30 8305 C 796.951 0.812232 -3.33553 0
M  V30 8306 C 796.037 0.0163713 -4.24097 0
M  V30 8307 N 796.428 -1.01547 -4.95502 0
M  V30 8308 C 794.726 0.244554 -4.45329 0
M  V30 8309 C 795.427 -1.49622 -5.62128 0
M  V30 8310 N 794.403 -0.813097 -5.37485 0
M  V30 8311 H 798.205 -0.877345 -2.80499 0
M  V30 8312 H 795.719 -0.579898 -1.51694 0
M  V30 8313 H 797.716 1.299 -3.96146 0
M  V30 8314 H 796.376 1.60169 -2.82446 0
M  V30 8315 H 797.387 -1.39707 -4.98701 0
M  V30 8316 H 794.064 1.00806 -4.05147 0
M  V30 8317 H 795.454 -2.35523 -6.29268 0
M  V30 8318 N 798.174 1.49689 -0.493057 0
M  V30 8319 C 799.42 2.02727 0.0543518 0
M  V30 8320 C 799.753 1.37264 1.37376 0
M  V30 8321 O 799.028 0.505644 1.87812 0
M  V30 8322 C 799.311 3.59456 0.215226 0
M  V30 8323 C 799.164 4.35459 -1.12675 0
M  V30 8324 C 800.483 4.29511 0.959586 0
M  V30 8325 H 797.602 0.736773 0.0182786 0
M  V30 8326 H 800.244 1.78792 -0.642924 0
M  V30 8327 H 798.394 3.79981 0.809122 0
M  V30 8328 H 800.066 4.2645 -1.75891 0
M  V30 8329 H 798.309 3.9833 -1.71801 0
M  V30 8330 H 798.98 5.43454 -0.967578 0
M  V30 8331 H 801.456 4.13594 0.455977 0
M  V30 8332 H 800.332 5.38939 1.04098 0
M  V30 8333 H 800.593 3.94202 2.00144 0
M  V30 8334 N 799.652 0.226554 1.55963 0
M  V30 8335 C 800.882 -0.407915 2.02533 0
M  V30 8336 C 801.29 -1.53539 1.10554 0
M  V30 8337 O 800.633 -1.8338 0.108409 0
M  V30 8338 C 800.695 -0.996081 3.45425 0
M  V30 8339 C 800.359 -0.00341651 4.57 0
M  V30 8340 C 801.356 0.798782 5.13727 0
M  V30 8341 C 799.041 0.116786 5.02164 0
M  V30 8342 C 801.035 1.70784 6.14094 0
M  V30 8343 C 798.722 1.02937 6.02368 0
M  V30 8344 C 799.72 1.82344 6.5821 0
M  V30 8345 O 799.408 2.72067 7.56462 0
M  V30 8346 H 799.14 -0.103524 0.668026 0
M  V30 8347 H 801.694 0.341937 2.02534 0
M  V30 8348 H 799.924 -1.79512 3.42509 0
M  V30 8349 H 801.613 -1.53848 3.75614 0
M  V30 8350 H 802.379 0.716393 4.7968 0
M  V30 8351 H 798.258 -0.491172 4.58376 0
M  V30 8352 H 801.802 2.32807 6.57607 0
M  V30 8353 H 797.699 1.11276 6.35836 0
M  V30 8354 H 798.467 2.66199 7.74003 0
M  V30 8355 N 801.13 -1.57531 -0.0467866 0
M  V30 8356 C 802.376 -1.8873 -0.742218 0
M  V30 8357 C 802.709 -0.822084 -1.75941 0
M  V30 8358 O 801.984 0.164922 -1.938 0
M  V30 8359 C 802.267 -3.30586 -1.42776 0
M  V30 8360 C 802.12 -4.47785 -0.425285 0
M  V30 8361 C 803.439 -3.71068 -2.36636 0
M  V30 8362 H 800.558 -0.686406 -0.268359 0
M  V30 8363 H 803.2 -1.89999 -0.00511341 0
M  V30 8364 H 801.35 -3.29634 -2.05605 0
M  V30 8365 H 803.022 -4.60867 0.199721 0
M  V30 8366 H 801.265 -4.33037 0.25713 0
M  V30 8367 H 801.936 -5.43884 -0.943086 0
M  V30 8368 H 804.412 -3.73273 -1.83866 0
M  V30 8369 H 803.288 -4.71165 -2.81593 0
M  V30 8370 H 803.549 -3.02355 -3.22542 0
M  V30 8371 N 802.608 0.318715 -1.54344 0
M  V30 8372 C 803.833 1.07987 -1.77069 0
M  V30 8373 C 804.258 1.80766 -0.520117 0
M  V30 8374 O 803.616 1.73424 0.528566 0
M  V30 8375 C 803.664 2.04987 -2.96669 0
M  V30 8376 O 802.768 3.12974 -2.68554 0
M  V30 8377 H 802.109 0.311109 -0.586606 0
M  V30 8378 H 804.639 0.361533 -2.0138 0
M  V30 8379 H 804.649 2.47771 -3.2415 0
M  V30 8380 H 803.324 1.51417 -3.87357 0
M  V30 8381 H 801.901 2.74831 -2.52037 0
M  V30 8382 N 804.086 1.46499 0.581025 0
M  V30 8383 C 805.497 1.4604 1.16315 0
M  V30 8384 C 805.848 0.202154 1.95156 0
M  V30 8385 O 804.973 -0.694638 2.04948 0
M  V30 8386 C 805.568 2.64593 2.11604 0
M  V30 8387 C 804.127 2.6717 2.65136 0
M  V30 8388 C 803.274 2.38753 1.4104 0
M  V30 8389 H 806.225 1.54354 0.368871 0
M  V30 8390 H 806.246 2.40207 2.95095 0
M  V30 8391 H 805.758 3.56154 1.54194 0
M  V30 8392 H 803.859 1.79685 3.26411 0
M  V30 8393 H 803.972 3.67182 3.07757 0
M  V30 8394 H 802.336 1.88845 1.70908 0
M  V30 8395 H 803.119 3.32493 0.854588 0
M  V30 8396 O 805.603 -0.725332 1.44295 0
M  V30 8397 H 806.294 -1.37566 1.36365 0
M  V30 END ATOM
M  V30 BEGIN BOND
M  V30 END BOND
M  V30 END CTAB
M  END
$$$$
