drugbank_target|P51679 C-C chemokine receptor type 4 (DB12498; DB15570)
 OpenBabel12092121203D

  0  0  0     0  0            999 V3000
M  V30 BEGIN CTAB
M  V30 COUNTS 5875 5956 0 0 0
M  V30 BEGIN ATOM
M  V30 1 H -0.908 1.98254 -0.117106 0
M  V30 2 N 0 1.576 0 0
M  V30 3 C 0.933 2.03868 1.02534 0
M  V30 4 C 1.911 0.928543 1.3348 0
M  V30 5 O 3.095 1.19667 1.45644 0
M  V30 6 C 0.222 2.43627 2.35294 0
M  V30 7 C -0.732 3.65373 2.2001 0
M  V30 8 S 0.101 5.13292 1.52614 0
M  V30 9 C 1.257 5.56322 2.86805 0
M  V30 10 H 1.49 2.90518 0.631377 0
M  V30 11 H -0.977 1.52953 0.210867 0
M  V30 12 H 0.981 2.67203 3.11629 0
M  V30 13 H -0.358 1.57376 2.7183 0
M  V30 14 H -1.165 3.90944 3.18086 0
M  V30 15 H -1.563 3.418 1.51819 0
M  V30 16 H 0.729 5.58782 3.83104 0
M  V30 17 H 1.672 6.56266 2.65933 0
M  V30 18 H 2.08 4.83886 2.90714 0
M  V30 19 N 1.4781 -0.272755 1.55222 0
M  V30 20 C 2.4261 -1.35705 1.88909 0
M  V30 21 C 3.4201 -1.5112 0.765456 0
M  V30 22 O 4.6261 -1.52901 0.949802 0
M  V30 23 H 1.0011 -0.453868 0.59959 0
M  V30 24 H 2.9721 -1.04544 2.79487 0
M  V30 25 C 1.7211 -2.71049 2.17779 0
M  V30 26 H 1.0441 -2.59979 3.03728 0
M  V30 27 H 2.4841 -3.45858 2.45272 0
M  V30 28 C 0.9431 -3.22165 0.985473 0
M  V30 29 O 1.4731 -4.01096 0.220233 0
M  V30 30 N -0.3209 -2.7985 0.783108 0
M  V30 31 H -0.7739 -2.15775 1.40708 0
M  V30 32 H -0.8159 -3.14397 -0.0130392 0
M  V30 33 N 2.9562 -1.48159 -0.537278 0
M  V30 34 C 4.3672 -1.49429 -1.11928 0
M  V30 35 C 4.7182 -0.26 -1.9447 0
M  V30 36 O 3.8432 0.633489 -2.0692 0
M  V30 37 C 4.4382 -2.70758 -2.03656 0
M  V30 38 C 2.9972 -2.74923 -2.57088 0
M  V30 39 C 2.1442 -2.42835 -1.3389 0
M  V30 40 H 5.0952 -1.55381 -0.322886 0
M  V30 41 H 5.1162 -2.48861 -2.87834 0
M  V30 42 H 4.6282 -3.60575 -1.43553 0
M  V30 43 H 2.7292 -1.89296 -3.20933 0
M  V30 44 H 2.8422 -3.76157 -2.9672 0
M  V30 45 H 1.2062 -1.93836 -1.65226 0
M  V30 46 H 1.9892 -3.34884 -0.755504 0
M  V30 47 N 4.4343 0.785586 -1.36625 0
M  V30 48 C 5.6623 1.57448 -1.3423 0
M  V30 49 C 6.0773 1.88649 0.0755653 0
M  V30 50 O 5.4343 1.50414 1.03354 0
M  V30 51 C 5.4853 2.89316 -2.16745 0
M  V30 52 O 5.2063 2.59459 -3.53005 0
M  V30 53 C 6.7073 3.83606 -2.22174 0
M  V30 54 H 3.9273 0.488226 -0.4603 0
M  V30 55 H 6.4713 0.974733 -1.79775 0
M  V30 56 H 4.6263 3.4575 -1.74745 0
M  V30 57 H 5.0403 3.43804 -3.96105 0
M  V30 58 H 6.5143 4.73181 -2.8426 0
M  V30 59 H 6.9913 4.21734 -1.22627 0
M  V30 60 H 7.5973 3.33104 -2.64427 0
M  V30 61 N 5.9124 1.20967 1.01018 0
M  V30 62 C 7.1894 0.93264 1.71934 0
M  V30 63 C 7.5694 -0.55692 2.03621 0
M  V30 64 O 6.9174 -1.52035 1.7058 0
M  V30 65 C 7.1274 1.81233 2.98254 0
M  V30 66 C 8.4754 2.05804 3.71389 0
M  V30 67 O 9.4994 1.78539 3.08225 0
M  V30 68 O 8.3584 2.51888 4.84989 0
M  V30 69 H 5.4524 0.349272 0.749625 0
M  V30 70 H 7.9984 1.31871 1.06808 0
M  V30 71 H 6.7704 2.82067 2.71208 0
M  V30 72 H 6.3934 1.42674 3.7112 0
M  V30 73 N 7.3905 -1.2043 1.01659 0
M  V30 74 C 8.6395 -1.89118 0.701237 0
M  V30 75 C 8.9525 -1.79705 -0.772358 0
M  V30 76 O 10.1585 -2.43528 -1.20026 0
M  V30 77 C 8.6145 -3.39168 1.20388 0
M  V30 78 C 8.2225 -3.57166 2.70438 0
M  V30 79 C 9.9665 -4.1341 0.963953 0
M  V30 80 C 7.8735 -5.01042 3.14183 0
M  V30 81 H 6.8035 -0.708267 0.2586 0
M  V30 82 H 9.4545 -1.36239 1.22927 0
M  V30 83 H 7.8365 -3.91369 0.603824 0
M  V30 84 H 9.0105 -3.15351 3.35992 0
M  V30 85 H 7.3255 -2.96294 2.92572 0
M  V30 86 H 9.9225 -5.19491 1.26621 0
M  V30 87 H 10.2655 -4.16181 -0.099578 0
M  V30 88 H 10.7985 -3.67309 1.52738 0
M  V30 89 H 7.5375 -5.03426 4.19812 0
M  V30 90 H 7.0575 -5.43668 2.53348 0
M  V30 91 H 8.7365 -5.69623 3.0682 0
M  V30 92 N 8.8686 -0.792821 -1.36206 0
M  V30 93 C 9.8316 -0.199459 -2.2833 0
M  V30 94 C 10.8316 0.605189 -1.48977 0
M  V30 95 O 12.0216 0.425685 -1.68919 0
M  V30 96 C 9.1536 0.723523 -3.33134 0
M  V30 97 H 10.3466 -1.01181 -2.82316 0
M  V30 98 H 7.8996 -0.562485 -1.45828 0
M  V30 99 H 8.6346 1.56008 -2.84309 0
M  V30 100 H 8.4196 0.148436 -3.91819 0
M  V30 101 H 9.9096 1.13344 -4.01924 0
M  V30 102 N 10.3467 1.47872 -0.545128 0
M  V30 103 C 11.6237 1.9554 0.0485222 0
M  V30 104 C 12.0037 1.4876 1.49779 0
M  V30 105 O 11.3517 0.720925 2.16829 0
M  V30 106 C 11.5617 3.48898 -0.084417 0
M  V30 107 C 12.9097 4.24547 0.0671239 0
M  V30 108 O 13.9337 3.56198 -0.0113649 0
M  V30 109 O 12.7927 5.45999 0.233882 0
M  V30 110 H 9.8867 0.823957 0.0708773 0
M  V30 111 H 12.4327 1.58327 -0.610798 0
M  V30 112 H 11.2047 3.75714 -1.09337 0
M  V30 113 H 10.8277 3.92845 0.613066 0
M  V30 114 N 11.8248 0.280983 1.55075 0
M  V30 115 C 13.0528 -0.337293 2.04132 0
M  V30 116 C 13.4678 -1.4903 1.15912 0
M  V30 117 O 12.8248 -1.81606 0.180459 0
M  V30 118 C 12.8758 -0.812706 3.52246 0
M  V30 119 O 12.5968 0.294387 4.3711 0
M  V30 120 C 14.0978 -1.4982 4.17216 0
M  V30 121 H 11.3178 -0.0761638 0.666663 0
M  V30 122 H 13.8618 0.414787 2.00249 0
M  V30 123 H 12.0168 -1.51486 3.56554 0
M  V30 124 H 12.4308 -0.0721325 5.2445 0
M  V30 125 H 13.9048 -1.7822 5.22438 0
M  V30 126 H 14.3818 -2.43168 3.65741 0
M  V30 127 H 14.9878 -0.839742 4.16927 0
M  V30 128 N 13.3029 -1.57598 0.00835791 0
M  V30 129 C 14.5309 -1.95214 -0.68549 0
M  V30 130 C 14.9459 -0.883706 -1.66841 0
M  V30 131 O 14.3029 0.136565 -1.81988 0
M  V30 132 C 14.3539 -3.32865 -1.41007 0
M  V30 133 O 14.0749 -4.35609 -0.466552 0
M  V30 134 C 15.5759 -3.84991 -2.19765 0
M  V30 135 H 12.7959 -0.643422 -0.190392 0
M  V30 136 H 15.3399 -2.04406 0.0619607 0
M  V30 137 H 13.4949 -3.24956 -2.10908 0
M  V30 138 H 13.9089 -5.15288 -0.978699 0
M  V30 139 H 15.3829 -4.8371 -2.65948 0
M  V30 140 H 15.8599 -3.18137 -3.02796 0
M  V30 141 H 16.4659 -3.96103 -1.54864 0
M  V30 142 N 14.781 0.264519 -1.55364 0
M  V30 143 C 15.711 1.33121 -1.91836 0
M  V30 144 C 16.692 1.51101 -0.781192 0
M  V30 145 O 17.877 1.64003 -1.04003 0
M  V30 146 C 15.007 2.68921 -2.19769 0
M  V30 147 C 13.961 2.65661 -3.35571 0
M  V30 148 C 13.287 4.05093 -3.49004 0
M  V30 149 C 14.587 2.24187 -4.71739 0
M  V30 150 H 16.281 1.02844 -2.81182 0
M  V30 151 H 13.827 0.493286 -1.35287 0
M  V30 152 H 15.78 3.43663 -2.43872 0
M  V30 153 H 14.504 3.00799 -1.27231 0
M  V30 154 H 13.163 1.93377 -3.1145 0
M  V30 155 H 12.811 4.34206 -2.53917 0
M  V30 156 H 12.511 4.03804 -4.26868 0
M  V30 157 H 14.035 4.81561 -3.75408 0
M  V30 158 H 15.449 2.88654 -4.9533 0
M  V30 159 H 13.846 2.34044 -5.52579 0
M  V30 160 H 14.916 1.19327 -4.69988 0
M  V30 161 N 16.2591 1.48442 0.529413 0
M  V30 162 C 17.5361 1.46978 1.29062 0
M  V30 163 C 17.9161 0.181769 2.10316 0
M  V30 164 O 17.2641 -0.836481 2.12639 0
M  V30 165 C 17.4741 2.7321 2.17157 0
M  V30 166 C 18.8221 3.21562 2.77278 0
M  V30 167 O 19.8461 2.74131 2.27444 0
M  V30 168 O 18.7051 4.04094 3.67927 0
M  V30 169 H 15.7991 0.587003 0.582543 0
M  V30 170 H 18.3451 1.60676 0.546021 0
M  V30 171 H 17.1171 3.58465 1.56903 0
M  V30 172 H 16.7401 2.62235 2.98862 0
M  V30 173 N 17.7372 -0.778329 1.37039 0
M  V30 174 C 18.6472 -1.92253 1.34446 0
M  V30 175 C 19.6632 -1.72267 0.244991 0
M  V30 176 O 20.8392 -1.95615 0.479258 0
M  V30 177 C 17.9042 -3.27282 1.144 0
M  V30 178 C 16.9652 -3.59969 2.33925 0
M  V30 179 C 16.1982 -4.88555 2.14825 0
M  V30 180 O 16.4212 -5.59113 1.12912 0
M  V30 181 O 15.3552 -5.20153 3.02861 0
M  V30 182 H 19.1812 -1.97392 2.30803 0
M  V30 183 H 16.7662 -0.920154 1.17701 0
M  V30 184 H 18.6482 -4.08062 1.05182 0
M  V30 185 H 17.3232 -3.23011 0.211124 0
M  V30 186 H 16.2302 -2.7945 2.48714 0
M  V30 187 H 17.5632 -3.68976 3.25757 0
M  V30 188 N 19.2153 -1.21501 -1.00376 0
M  V30 189 C 20.4403 -1.05977 -1.78279 0
M  V30 190 C 20.8653 0.385994 -1.84097 0
M  V30 191 O 20.2233 1.27849 -1.28547 0
M  V30 192 C 20.2713 -1.66302 -3.19963 0
M  V30 193 O 19.3753 -0.909333 -4.0225 0
M  V30 194 H 18.7163 -0.372906 -0.549397 0
M  V30 195 H 21.2463 -1.6107 -1.26165 0
M  V30 196 H 21.2563 -1.70574 -3.70632 0
M  V30 197 H 19.9313 -2.71515 -3.15043 0
M  V30 198 H 18.5083 -0.941795 -3.60811 0
M  V30 199 N 20.6934 1.19889 -1.02296 0
M  V30 200 C 21.9424 1.88743 -0.711257 0
M  V30 201 C 22.2554 1.80112 0.762817 0
M  V30 202 O 23.4614 2.44161 1.18733 0
M  V30 203 C 21.9174 3.38525 -1.22185 0
M  V30 204 C 21.5254 3.55727 -2.72328 0
M  V30 205 C 23.2694 4.12893 -0.985864 0
M  V30 206 C 21.1764 4.99369 -3.16835 0
M  V30 207 H 20.1064 0.706885 -0.262353 0
M  V30 208 H 22.7574 1.35586 -1.23648 0
M  V30 209 H 21.1394 3.91044 -0.624571 0
M  V30 210 H 22.3134 3.13564 -3.3766 0
M  V30 211 H 20.6284 2.94739 -2.9414 0
M  V30 212 H 23.2254 5.18813 -1.29374 0
M  V30 213 H 23.5684 4.16228 0.0775055 0
M  V30 214 H 24.1014 3.66494 -1.54684 0
M  V30 215 H 20.8404 5.01193 -4.22476 0
M  V30 216 H 20.3604 5.42317 -2.56228 0
M  V30 217 H 22.0394 5.67988 -3.09837 0
M  V30 218 N 22.1715 0.800033 1.35784 0
M  V30 219 C 23.4015 0.389041 2.02904 0
M  V30 220 C 23.8095 -1.0027 1.60445 0
M  V30 221 O 23.1525 -1.65633 0.794453 0
M  V30 222 C 23.2145 0.385495 3.57427 0
M  V30 223 C 22.8785 1.72662 4.23127 0
M  V30 224 C 23.8755 2.68385 4.4527 0
M  V30 225 C 21.5605 2.00883 4.60381 0
M  V30 226 C 23.5545 3.90517 5.03761 0
M  V30 227 C 21.2415 3.2328 5.18588 0
M  V30 228 C 22.2395 4.17915 5.40218 0
M  V30 229 O 21.9275 5.38153 5.97199 0
M  V30 230 H 21.6595 0.157032 0.657508 0
M  V30 231 H 24.2135 1.08311 1.74522 0
M  V30 232 H 22.4435 -0.365128 3.84972 0
M  V30 233 H 24.1325 -0.00228296 4.059 0
M  V30 234 H 24.8985 2.47872 4.16874 0
M  V30 235 H 20.7775 1.28037 4.42863 0
M  V30 236 H 24.3215 4.64395 5.2056 0
M  V30 237 H 20.2185 3.43667 5.4641 0
M  V30 238 H 20.9865 5.3936 6.15656 0
M  V30 239 N 23.6496 -1.47581 0.552962 0
M  V30 240 C 24.8746 -2.07378 0.0300593 0
M  V30 241 C 25.2996 -1.40355 -1.25229 0
M  V30 242 O 24.6576 -0.477099 -1.7491 0
M  V30 243 C 24.7056 -3.60274 -0.153231 0
M  V30 244 O 23.8096 -3.94041 -1.21678 0
M  V30 245 H 23.1506 -0.662158 0.0494182 0
M  V30 246 H 25.6806 -1.89662 0.767434 0
M  V30 247 H 25.6906 -4.0633 -0.368761 0
M  V30 248 H 24.3656 -4.08455 0.783397 0
M  V30 249 H 22.9426 -3.59735 -0.982079 0
M  V30 250 N 25.1277 -0.289203 -1.54924 0
M  V30 251 C 26.0757 0.607966 -2.24514 0
M  V30 252 C 27.0697 1.14655 -1.24702 0
M  V30 253 O 28.2757 1.09856 -1.4259 0
M  V30 254 H 24.6507 0.21464 -0.720718 0
M  V30 255 H 26.6217 -0.00164182 -2.984 0
M  V30 256 C 25.3707 1.77406 -2.99036 0
M  V30 257 H 24.6937 1.36884 -3.75637 0
M  V30 258 H 26.1337 2.37814 -3.51028 0
M  V30 259 C 24.5927 2.67107 -2.05318 0
M  V30 260 O 25.1227 3.6787 -1.61353 0
M  V30 261 N 23.3287 2.34582 -1.71521 0
M  V30 262 H 22.8757 1.52688 -2.07471 0
M  V30 263 H 22.8337 2.94867 -1.0909 0
M  V30 264 N 26.6058 1.57591 -0.0167156 0
M  V30 265 C 27.8358 1.95292 0.674149 0
M  V30 266 C 28.2438 0.891097 1.66901 0
M  V30 267 O 27.5868 -0.136908 1.83189 0
M  V30 268 C 27.6488 3.29072 1.44747 0
M  V30 269 C 27.3128 4.52879 0.612331 0
M  V30 270 C 28.3098 5.1979 -0.107126 0
M  V30 271 C 25.9948 4.99242 0.553381 0
M  V30 272 C 27.9888 6.31375 -0.874339 0
M  V30 273 C 25.6758 6.10713 -0.217546 0
M  V30 274 C 26.6738 6.76637 -0.930123 0
M  V30 275 O 26.3618 7.85969 -1.68844 0
M  V30 276 H 26.0938 0.648275 0.191615 0
M  V30 277 H 28.6478 2.05284 -0.0690148 0
M  V30 278 H 26.8778 3.15535 2.2355 0
M  V30 279 H 28.5668 3.51764 2.02526 0
M  V30 280 H 29.3328 4.84948 -0.0708392 0
M  V30 281 H 25.2118 4.47744 1.09757 0
M  V30 282 H 28.7558 6.82764 -1.43106 0
M  V30 283 H 24.6528 6.44994 -0.255593 0
M  V30 284 H 25.4208 8.02571 -1.6069 0
M  V30 285 N 28.0839 -0.256276 1.55502 0
M  V30 286 C 29.3139 -1.00196 1.80677 0
M  V30 287 C 29.7219 -1.79805 0.588797 0
M  V30 288 O 29.0649 -1.78055 -0.451883 0
M  V30 289 C 29.1269 -1.99515 2.99055 0
M  V30 290 C 28.7909 -1.38688 4.35448 0
M  V30 291 C 29.7879 -0.794079 5.138 0
M  V30 292 C 27.4729 -1.40906 4.82132 0
M  V30 293 C 29.4669 -0.231562 6.36979 0
M  V30 294 C 27.1539 -0.842684 6.05262 0
M  V30 295 C 28.1519 -0.254953 6.82524 0
M  V30 296 O 27.8399 0.3027 8.0333 0
M  V30 297 H 27.5719 -0.300919 0.60533 0
M  V30 298 H 30.1259 -0.287307 2.03381 0
M  V30 299 H 28.3559 -2.74785 2.72084 0
M  V30 300 H 30.0449 -2.60349 3.11405 0
M  V30 301 H 30.8109 -0.769519 4.78856 0
M  V30 302 H 26.6899 -1.85591 4.21992 0
M  V30 303 H 30.2339 0.227816 6.97228 0
M  V30 304 H 26.1309 -0.86454 6.39684 0
M  V30 305 H 26.8989 0.193662 8.18271 0
M  V30 306 N 29.562 -1.4872 -0.521534 0
M  V30 307 C 30.492 -1.66771 -1.63431 0
M  V30 308 C 31.473 -0.516499 -1.62069 0
M  V30 309 O 32.658 -0.750013 -1.79132 0
M  V30 310 C 29.788 -1.71515 -3.01993 0
M  V30 311 C 28.742 -2.86222 -3.18216 0
M  V30 312 C 28.068 -2.76061 -4.57924 0
M  V30 313 C 29.368 -4.27419 -3.00184 0
M  V30 314 H 31.062 -2.59932 -1.48579 0
M  V30 315 H 28.608 -1.25089 -0.713358 0
M  V30 316 H 30.561 -1.82731 -3.7972 0
M  V30 317 H 29.285 -0.749393 -3.17886 0
M  V30 318 H 27.944 -2.74575 -2.42908 0
M  V30 319 H 27.592 -1.77437 -4.70665 0
M  V30 320 H 27.292 -3.53037 -4.69722 0
M  V30 321 H 28.816 -2.89256 -5.37739 0
M  V30 322 H 30.23 -4.39855 -3.67697 0
M  V30 323 H 28.627 -5.05458 -3.2347 0
M  V30 324 H 29.697 -4.43293 -1.96518 0
M  V30 325 N 31.0401 0.771051 -1.3745 0
M  V30 326 C 32.2701 1.55789 -1.35696 0
M  V30 327 C 32.6781 1.89107 0.0594523 0
M  V30 328 O 32.0211 1.51984 1.03183 0
M  V30 329 C 32.0831 2.89515 -2.13123 0
M  V30 330 C 31.7471 2.78829 -3.62082 0
M  V30 331 C 32.7441 2.49812 -4.5595 0
M  V30 332 C 30.4291 2.9683 -4.05213 0
M  V30 333 C 32.4231 2.38923 -5.90927 0
M  V30 334 C 30.1101 2.85562 -5.40276 0
M  V30 335 C 31.1081 2.56649 -6.32946 0
M  V30 336 O 30.7961 2.45408 -7.65526 0
M  V30 337 H 30.5281 0.489257 -0.466481 0
M  V30 338 H 33.0821 0.963446 -1.81403 0
M  V30 339 H 31.3121 3.51081 -1.62107 0
M  V30 340 H 33.0011 3.50915 -2.03994 0
M  V30 341 H 33.7671 2.3559 -4.23937 0
M  V30 342 H 29.6461 3.18335 -3.33442 0
M  V30 343 H 33.1901 2.16277 -6.63227 0
M  V30 344 H 29.0871 2.99351 -5.71891 0
M  V30 345 H 29.8551 2.60753 -7.75855 0
M  V30 346 N 32.5182 1.22032 0.997298 0
M  V30 347 C 33.4282 1.00271 2.12092 0
M  V30 348 C 34.4442 -0.047621 1.73935 0
M  V30 349 O 35.6202 0.144136 2.00884 0
M  V30 350 C 32.6852 0.578449 3.4184 0
M  V30 351 C 31.7462 1.70189 3.94125 0
M  V30 352 C 30.9792 1.29778 5.17681 0
M  V30 353 O 31.2022 0.174676 5.70132 0
M  V30 354 O 30.1362 2.11261 5.63607 0
M  V30 355 H 33.9622 1.94398 2.3333 0
M  V30 356 H 31.5472 1.00587 1.10465 0
M  V30 357 H 33.4292 0.351998 4.19927 0
M  V30 358 H 32.1042 -0.334019 3.21972 0
M  V30 359 H 31.0112 1.98282 3.1723 0
M  V30 360 H 32.3442 2.59206 4.18417 0
M  V30 361 N 33.9963 -1.19345 1.0293 0
M  V30 362 C 35.2213 -1.93538 0.745511 0
M  V30 363 C 35.6463 -1.75007 -0.689511 0
M  V30 364 O 35.0043 -1.05265 -1.47611 0
M  V30 365 C 35.0523 -3.43336 1.10239 0
M  V30 366 O 34.1563 -4.11806 0.221289 0
M  V30 367 H 33.4973 -0.604193 0.275404 0
M  V30 368 H 36.0273 -1.5141 1.37609 0
M  V30 369 H 36.0373 -3.94004 1.05947 0
M  V30 370 H 34.7123 -3.56146 2.14786 0
M  V30 371 H 33.2893 -3.715 0.322842 0
M  V30 372 N 35.4744 -0.807222 -1.35358 0
M  V30 373 C 36.7234 -0.384376 -1.98004 0
M  V30 374 C 37.0364 1.0543 -1.64754 0
M  V30 375 O 38.2424 1.58029 -2.20769 0
M  V30 376 C 36.6984 -0.636326 -3.5423 0
M  V30 377 C 36.3064 -2.08759 -3.96388 0
M  V30 378 C 38.0504 -0.278869 -4.23583 0
M  V30 379 C 35.9574 -2.28525 -5.45463 0
M  V30 380 H 34.8874 -0.139986 -0.740891 0
M  V30 381 H 37.5384 -0.991369 -1.54415 0
M  V30 382 H 35.9204 0.0406256 -3.95979 0
M  V30 383 H 37.0944 -2.8024 -3.6579 0
M  V30 384 H 35.4094 -2.40497 -3.39926 0
M  V30 385 H 38.0064 -0.404599 -5.33167 0
M  V30 386 H 38.3494 0.775012 -4.09022 0
M  V30 387 H 38.8824 -0.909764 -3.87257 0
M  V30 388 H 35.6214 -3.32361 -5.64992 0
M  V30 389 H 35.1414 -1.61569 -5.77629 0
M  V30 390 H 36.8204 -2.10109 -6.11934 0
M  V30 391 N 36.9525 1.47285 -0.560781 0
M  V30 392 C 38.3635 1.86258 -0.128343 0
M  V30 393 C 38.7145 1.46699 1.30284 0
M  V30 394 O 37.8395 0.871698 1.98067 0
M  V30 395 C 38.4345 3.38044 -0.22614 0
M  V30 396 C 36.9935 3.76096 0.151283 0
M  V30 397 C 36.1405 2.71335 -0.572084 0
M  V30 398 H 39.0915 1.38752 -0.770297 0
M  V30 399 H 39.1125 3.76441 0.554322 0
M  V30 400 H 38.6245 3.66806 -1.26788 0
M  V30 401 H 36.7255 3.52951 1.19399 0
M  V30 402 H 36.8385 4.78641 -0.209765 0
M  V30 403 H 35.2025 2.54696 -0.0147653 0
M  V30 404 H 35.9855 3.02938 -1.61504 0
M  V30 405 N 38.4306 0.297415 1.54768 0
M  V30 406 C 39.3776 -0.580276 2.23386 0
M  V30 407 C 40.3476 -1.13238 1.21517 0
M  V30 408 O 41.5326 -1.17757 1.50126 0
M  V30 409 C 38.6726 -1.74801 2.97555 0
M  V30 410 C 37.7856 -1.22764 4.1419 0
M  V30 411 C 36.9206 -2.35895 4.75949 0
M  V30 412 C 35.9596 -1.80974 5.84735 0
M  V30 413 N 35.0966 -2.87664 6.40464 0
M  V30 414 H 39.9366 0.0114833 2.97998 0
M  V30 415 H 37.4736 0.0174361 1.4709 0
M  V30 416 H 39.4316 -2.43475 3.38786 0
M  V30 417 H 38.0616 -2.31145 2.25326 0
M  V30 418 H 37.1136 -0.433271 3.77924 0
M  V30 419 H 38.4256 -0.785551 4.92575 0
M  V30 420 H 37.5796 -3.12523 5.20014 0
M  V30 421 H 36.3186 -2.83429 3.96887 0
M  V30 422 H 35.3236 -1.02834 5.40097 0
M  V30 423 H 36.5486 -1.34348 6.65678 0
M  V30 424 H 34.4946 -3.34538 5.64287 0
M  V30 425 H 34.4116 -2.4794 7.14186 0
M  V30 426 H 35.6796 -3.642 6.89187 0
M  V30 427 N 39.9087 -1.5758 0.0250728 0
M  V30 428 C 41.3197 -1.79476 -0.514323 0
M  V30 429 C 41.6707 -0.934956 -1.72491 0
M  V30 430 O 40.7957 -0.144245 -2.15919 0
M  V30 431 C 41.3907 -3.25503 -0.939842 0
M  V30 432 C 39.9497 -3.48408 -1.42438 0
M  V30 433 C 39.0967 -2.74583 -0.387201 0
M  V30 434 H 42.0477 -1.567 0.25113 0
M  V30 435 H 42.0687 -3.34992 -1.80445 0
M  V30 436 H 41.5807 -3.88056 -0.0585628 0
M  V30 437 H 39.6817 -2.91103 -2.32572 0
M  V30 438 H 39.7947 -4.57119 -1.43455 0
M  V30 439 H 38.1587 -2.39942 -0.854409 0
M  V30 440 H 38.9417 -3.39849 0.485543 0
M  V30 441 N 41.3868 0.248026 -1.55636 0
M  V30 442 C 42.6268 0.983592 -1.79178 0
M  V30 443 C 42.9908 1.82567 -0.594414 0
M  V30 444 O 44.1918 2.59292 -0.708583 0
M  V30 445 C 42.4628 1.82228 -3.07454 0
M  V30 446 S 44.0218 2.61709 -3.52213 0
M  V30 447 H 40.8398 0.330866 -0.629324 0
M  V30 448 H 43.4418 0.251562 -1.93875 0
M  V30 449 H 42.1458 1.19333 -3.92668 0
M  V30 450 H 41.6768 2.59708 -2.95492 0
M  V30 451 H 43.6918 3.84655 -3.13457 0
M  V30 452 N 42.8649 1.48995 0.513639 0
M  V30 453 C 44.0929 1.61531 1.29288 0
M  V30 454 C 44.5079 0.281801 1.86685 0
M  V30 455 O 43.8649 -0.731111 1.67215 0
M  V30 456 C 43.9159 2.67449 2.43215 0
M  V30 457 O 43.6369 3.95626 1.88179 0
M  V30 458 C 45.1379 2.90575 3.34785 0
M  V30 459 H 42.3579 0.544165 0.392588 0
M  V30 460 H 44.9019 1.9494 0.617956 0
M  V30 461 H 43.0569 2.36853 3.0656 0
M  V30 462 H 43.4709 4.53868 2.62876 0
M  V30 463 H 44.9449 3.68449 4.11035 0
M  V30 464 H 45.4219 2.00011 3.91015 0
M  V30 465 H 46.0279 3.22538 2.77218 0
M  V30 466 N 44.343 -0.763751 1.37857 0
M  V30 467 C 45.29 -1.87726 1.34267 0
M  V30 468 C 46.26 -1.64807 0.206879 0
M  V30 469 O 47.445 -1.86613 0.397508 0
M  V30 470 C 44.585 -3.24896 1.16346 0
M  V30 471 C 43.698 -3.59716 2.39225 0
M  V30 472 C 42.833 -4.86137 2.14114 0
M  V30 473 C 41.872 -5.13711 3.32817 0
M  V30 474 N 41.009 -6.31323 3.07206 0
M  V30 475 H 45.849 -1.90129 2.29466 0
M  V30 476 H 43.386 -0.929433 1.14017 0
M  V30 477 H 45.344 -4.04036 1.03975 0
M  V30 478 H 43.974 -3.21847 0.247909 0
M  V30 479 H 43.026 -2.75498 2.62307 0
M  V30 480 H 44.338 -3.76027 3.27728 0
M  V30 481 H 43.492 -5.73198 1.9882 0
M  V30 482 H 42.231 -4.71945 1.22961 0
M  V30 483 H 41.236 -4.25123 3.48641 0
M  V30 484 H 42.461 -5.29807 4.24832 0
M  V30 485 H 40.407 -6.18474 2.1869 0
M  V30 486 H 40.324 -6.48087 3.89254 0
M  V30 487 H 41.592 -7.213 2.95546 0
M  V30 488 N 45.8211 -1.22559 -0.990812 0
M  V30 489 C 46.7311 -1.01394 -2.11557 0
M  V30 490 C 47.7471 0.0383962 -1.73958 0
M  V30 491 O 48.9231 -0.154787 -2.00804 0
M  V30 492 C 45.9881 -0.596569 -3.41529 0
M  V30 493 C 45.0491 -1.72276 -3.93217 0
M  V30 494 C 44.2821 -1.32521 -5.16985 0
M  V30 495 O 44.5051 -0.204909 -5.70032 0
M  V30 496 O 43.4391 -2.14247 -5.62478 0
M  V30 497 H 47.2651 -1.95633 -2.32296 0
M  V30 498 H 44.8501 -1.01172 -1.0993 0
M  V30 499 H 46.7321 -0.374263 -4.19735 0
M  V30 500 H 45.4071 0.316939 -3.22145 0
M  V30 501 H 44.3141 -1.99961 -3.16174 0
M  V30 502 H 45.6471 -2.61421 -4.17037 0
M  V30 503 N 47.2992 1.18797 -1.03562 0
M  V30 504 C 48.5472 1.88278 -0.734569 0
M  V30 505 C 48.8682 1.8043 0.739586 0
M  V30 506 O 48.1382 1.21925 1.53333 0
M  V30 507 H 46.7182 0.696991 -0.268725 0
M  V30 508 H 49.3802 1.44192 -1.31129 0
M  V30 509 H 48.4762 2.94443 -1.03489 0
M  V30 510 N 48.7773 0.814389 1.34928 0
M  V30 511 C 50.0263 0.394871 1.97797 0
M  V30 512 C 50.3393 -1.04555 1.65311 0
M  V30 513 O 51.5453 -1.56856 2.21604 0
M  V30 514 C 50.0013 0.655103 3.53888 0
M  V30 515 C 49.6093 2.10858 3.95276 0
M  V30 516 C 51.3533 0.301329 4.23429 0
M  V30 517 C 49.2603 2.31415 5.44244 0
M  V30 518 H 48.1903 0.143913 0.740139 0
M  V30 519 H 50.8413 0.999544 1.53888 0
M  V30 520 H 49.2233 -0.0196253 3.95995 0
M  V30 521 H 50.3973 2.82176 3.64298 0
M  V30 522 H 48.7123 2.42297 3.38646 0
M  V30 523 H 51.3093 0.432869 5.32945 0
M  V30 524 H 51.6523 -0.75331 4.09428 0
M  V30 525 H 52.1853 0.930288 3.86769 0
M  V30 526 H 48.9243 3.35353 5.63222 0
M  V30 527 H 48.4443 1.6463 5.76764 0
M  V30 528 H 50.1233 2.13352 6.10811 0
M  V30 529 N 50.2554 -1.46986 0.568584 0
M  V30 530 C 51.2024 -2.30153 -0.172707 0
M  V30 531 C 52.1724 -1.39759 -0.897586 0
M  V30 532 O 53.3574 -1.68716 -0.891044 0
M  V30 533 C 50.4974 -3.23952 -1.1895 0
M  V30 534 C 49.6104 -4.29441 -0.469517 0
M  V30 535 C 48.7454 -5.1038 -1.47259 0
M  V30 536 C 47.7844 -6.07632 -0.738225 0
M  V30 537 N 46.9214 -6.8149 -1.68868 0
M  V30 538 H 51.7614 -2.93019 0.542596 0
M  V30 539 H 49.2984 -1.44422 0.279401 0
M  V30 540 H 51.2564 -3.76767 -1.79173 0
M  V30 541 H 49.8864 -2.62926 -1.87269 0
M  V30 542 H 48.9384 -3.79594 0.247467 0
M  V30 543 H 50.2504 -4.98689 0.105241 0
M  V30 544 H 49.4044 -5.67402 -2.14803 0
M  V30 545 H 48.1434 -4.4106 -2.08128 0
M  V30 546 H 47.1484 -5.49778 -0.0489293 0
M  V30 547 H 48.3734 -6.78966 -0.135129 0
M  V30 548 H 46.3194 -6.14891 -2.28573 0
M  V30 549 H 46.2364 -7.46948 -1.16636 0
M  V30 550 H 47.5044 -7.43078 -2.3549 0
M  V30 551 N 51.7335 -0.305618 -1.54608 0
M  V30 552 C 52.6965 0.555591 -2.22364 0
M  V30 553 C 53.6965 1.05768 -1.21119 0
M  V30 554 O 54.8865 0.952972 -1.45822 0
M  V30 555 C 52.0185 1.76974 -2.91364 0
M  V30 556 H 53.2115 -0.0364572 -2.99878 0
M  V30 557 H 50.7645 -0.0565007 -1.56198 0
M  V30 558 H 51.4995 2.40151 -2.17941 0
M  V30 559 H 51.2845 1.41732 -3.65588 0
M  V30 560 H 52.7745 2.38148 -3.43038 0
M  V30 561 N 53.2116 1.57565 -0.0334293 0
M  V30 562 C 54.4586 1.91978 0.644272 0
M  V30 563 C 54.7866 0.910231 1.71887 0
M  V30 564 O 54.0416 -0.0801961 1.95536 0
M  V30 565 C 54.3406 3.33112 1.29504 0
M  V30 566 C 54.0066 4.49537 0.350388 0
M  V30 567 C 52.6686 4.81115 0.0903974 0
M  V30 568 C 55.0206 5.20347 -0.298032 0
M  V30 569 C 52.3486 5.8086 -0.825746 0
M  V30 570 C 54.7006 6.2107 -1.20226 0
M  V30 571 C 53.3646 6.51088 -1.4711 0
M  V30 572 H 52.6346 0.702496 0.235756 0
M  V30 573 H 55.2816 1.91259 -0.0961176 0
M  V30 574 H 53.5866 3.30113 2.11028 0
M  V30 575 H 55.2836 3.57011 1.82603 0
M  V30 576 H 51.8736 4.24883 0.563205 0
M  V30 577 H 56.0576 4.96178 -0.110234 0
M  V30 578 H 51.3136 6.02461 -1.04169 0
M  V30 579 H 55.4876 6.75057 -1.71086 0
M  V30 580 H 53.1146 7.28193 -2.18264 0
M  V30 581 N 54.6897 -0.239769 1.55765 0
M  V30 582 C 55.9377 -0.964892 1.77579 0
M  V30 583 C 56.2587 -1.85582 0.598699 0
M  V30 584 O 55.5287 -1.92075 -0.385226 0
M  V30 585 H 54.1087 -0.359265 0.654933 0
M  V30 586 H 56.7707 -0.256001 1.93211 0
M  V30 587 H 55.8667 -1.58243 2.69009 0
M  V30 588 N 56.1678 -1.49265 -0.50573 0
M  V30 589 C 57.0778 -1.68312 -1.63427 0
M  V30 590 C 58.0938 -0.565682 -1.64548 0
M  V30 591 O 59.2698 -0.839801 -1.83055 0
M  V30 592 C 56.3348 -1.74107 -2.99813 0
M  V30 593 C 55.3958 -2.97653 -3.09356 0
M  V30 594 C 54.6288 -3.03163 -4.39236 0
M  V30 595 O 54.8518 -2.16396 -5.27758 0
M  V30 596 O 53.7858 -3.9558 -4.53652 0
M  V30 597 H 57.6118 -2.63907 -1.50289 0
M  V30 598 H 55.1968 -1.32951 -0.681502 0
M  V30 599 H 57.0788 -1.803 -3.80881 0
M  V30 600 H 55.7538 -0.816901 -3.13223 0
M  V30 601 H 54.6608 -2.96981 -2.27493 0
M  V30 602 H 55.9938 -3.89535 -3.00871 0
M  V30 603 N 57.6459 0.756429 -1.3826 0
M  V30 604 C 58.5759 1.88374 -1.37976 0
M  V30 605 C 59.5569 1.68311 -0.246082 0
M  V30 606 O 60.7419 1.88944 -0.44874 0
M  V30 607 C 57.8719 3.25864 -1.20125 0
M  V30 608 C 56.8259 3.60523 -2.30666 0
M  V30 609 C 56.1519 4.9672 -1.97923 0
M  V30 610 C 57.4519 3.65692 -3.72916 0
M  V30 611 H 59.1459 1.88869 -2.32312 0
M  V30 612 H 56.6919 0.907272 -1.11824 0
M  V30 613 H 58.6449 4.0438 -1.18552 0
M  V30 614 H 57.3689 3.25841 -0.222498 0
M  V30 615 H 56.0279 2.84324 -2.3142 0
M  V30 616 H 55.6759 4.93253 -0.985393 0
M  V30 617 H 55.3759 5.20878 -2.71955 0
M  V30 618 H 56.8999 5.77618 -1.97964 0
M  V30 619 H 58.3139 4.34328 -3.74208 0
M  V30 620 H 56.7109 4.01358 -4.4613 0
M  V30 621 H 57.7809 2.65987 -4.05436 0
M  V30 622 N 59.124 1.23083 0.984299 0
M  V30 623 C 60.371 1.06057 1.72505 0
M  V30 624 C 60.699 -0.403105 1.90277 0
M  V30 625 O 59.954 -1.3149 1.44944 0
M  V30 626 C 60.253 1.72673 3.1292 0
M  V30 627 C 59.919 3.22586 3.15038 0
M  V30 628 C 58.581 3.63489 3.15324 0
M  V30 629 C 60.933 4.185 3.10657 0
M  V30 630 C 58.261 4.98772 3.08939 0
M  V30 631 C 60.613 5.53769 3.05814 0
M  V30 632 C 59.277 5.94041 3.04419 0
M  V30 633 H 58.547 0.388091 0.631242 0
M  V30 634 H 61.194 1.52963 1.15215 0
M  V30 635 H 59.499 1.18116 3.73572 0
M  V30 636 H 61.196 1.56982 3.68996 0
M  V30 637 H 57.786 2.90022 3.15571 0
M  V30 638 H 61.97 3.87911 3.09579 0
M  V30 639 H 57.226 5.29193 3.0621 0
M  V30 640 H 61.4 6.27808 3.0138 0
M  V30 641 H 59.027 6.98833 2.99227 0
M  V30 642 N 60.6021 -1.18246 1.0419 0
M  V30 643 C 61.5321 -2.24127 0.654914 0
M  V30 644 C 62.5131 -1.66617 -0.342451 0
M  V30 645 O 63.6981 -1.92924 -0.222277 0
M  V30 646 C 60.8281 -3.47295 0.0183757 0
M  V30 647 C 59.7821 -4.17563 0.939414 0
M  V30 648 C 59.1081 -5.34438 0.167286 0
M  V30 649 C 60.4081 -4.70917 2.25908 0
M  V30 650 H 62.1021 -2.56753 1.54007 0
M  V30 651 H 59.6481 -1.23414 0.74195 0
M  V30 652 H 61.6011 -4.20572 -0.264082 0
M  V30 653 H 60.3251 -3.13907 -0.901664 0
M  V30 654 H 58.9841 -3.46186 1.20628 0
M  V30 655 H 58.6321 -4.97298 -0.7552 0
M  V30 656 H 58.3321 -5.82388 0.780901 0
M  V30 657 H 59.8561 -6.10504 -0.108125 0
M  V30 658 H 61.2701 -5.35882 2.03724 0
M  V30 659 H 59.6671 -5.29406 2.82577 0
M  V30 660 H 60.7371 -3.88272 2.9047 0
M  V30 661 N 62.0802 -0.821533 -1.34494 0
M  V30 662 C 63.4912 -0.467956 -1.8074 0
M  V30 663 C 63.8422 1.01151 -1.68116 0
M  V30 664 O 62.9672 1.78707 -1.22036 0
M  V30 665 C 63.5622 -0.842627 -3.28154 0
M  V30 666 C 62.1212 -0.541439 -3.72485 0
M  V30 667 C 61.2682 -1.06028 -2.56229 0
M  V30 668 H 64.2192 -1.01183 -1.22261 0
M  V30 669 H 64.2402 -0.145876 -3.8022 0
M  V30 670 H 63.7522 -1.91945 -3.37311 0
M  V30 671 H 61.8532 0.526034 -3.68868 0
M  V30 672 H 61.9662 -1.08453 -4.66663 0
M  V30 673 H 60.3302 -0.481892 -2.501 0
M  V30 674 H 61.1132 -2.14352 -2.68157 0
M  V30 675 N 63.5583 1.46682 -0.576371 0
M  V30 676 C 64.9693 1.86112 -0.148091 0
M  V30 677 C 65.3203 1.48073 1.2872 0
M  V30 678 O 64.4453 0.892656 1.97131 0
M  V30 679 C 65.0403 3.37786 -0.261982 0
M  V30 680 C 63.5993 3.76235 0.111384 0
M  V30 681 C 62.7463 2.70713 -0.60083 0
M  V30 682 H 65.6973 1.37927 -0.78497 0
M  V30 683 H 65.7183 3.77007 0.514364 0
M  V30 684 H 65.2303 3.6544 -1.30671 0
M  V30 685 H 63.3313 3.54198 1.15649 0
M  V30 686 H 63.4443 4.78391 -0.26052 0
M  V30 687 H 61.8083 2.54666 -0.0417783 0
M  V30 688 H 62.5913 3.01208 -1.64708 0
M  V30 689 N 65.0364 0.313813 1.54444 0
M  V30 690 C 65.9664 -0.549454 2.26943 0
M  V30 691 C 66.9474 -1.12741 1.27372 0
M  V30 692 O 68.1324 -1.15436 1.56167 0
M  V30 693 C 65.2624 -1.71523 3.01989 0
M  V30 694 C 64.2164 -1.26703 4.08816 0
M  V30 695 C 63.5424 -2.51898 4.71647 0
M  V30 696 C 64.8424 -0.388962 5.2085 0
M  V30 697 H 66.5364 0.0552661 2.99349 0
M  V30 698 H 64.0824 0.0280207 1.43973 0
M  V30 699 H 66.0354 -2.32535 3.51433 0
M  V30 700 H 64.7594 -2.34639 2.27183 0
M  V30 701 H 63.4184 -0.679896 3.6024 0
M  V30 702 H 63.0664 -3.13356 3.93468 0
M  V30 703 H 62.7664 -2.22605 5.43802 0
M  V30 704 H 64.2904 -3.1369 5.23861 0
M  V30 705 H 65.7044 -0.905107 5.6611 0
M  V30 706 H 64.1014 -0.18924 5.99802 0
M  V30 707 H 65.1714 0.582699 4.81386 0
M  V30 708 N 66.5145 -1.57545 0.0417849 0
M  V30 709 C 67.7445 -1.96339 -0.642995 0
M  V30 710 C 68.1525 -0.917536 -1.65463 0
M  V30 711 O 67.4955 0.107747 -1.83384 0
M  V30 712 C 67.5575 -3.31333 -1.39494 0
M  V30 713 C 67.2215 -4.53796 -0.540204 0
M  V30 714 C 68.2185 -5.19553 0.189806 0
M  V30 715 C 65.9035 -5.0006 -0.473886 0
M  V30 716 C 67.8975 -6.29904 0.974674 0
M  V30 717 C 65.5845 -6.10289 0.314677 0
M  V30 718 C 66.5825 -6.75072 1.03765 0
M  V30 719 O 66.2705 -7.83183 1.81327 0
M  V30 720 H 66.0025 -0.651241 -0.181277 0
M  V30 721 H 68.5565 -2.05148 0.101665 0
M  V30 722 H 66.7865 -3.19052 -2.18502 0
M  V30 723 H 68.4755 -3.54942 -1.96904 0
M  V30 724 H 69.2415 -4.84774 0.147981 0
M  V30 725 H 65.1205 -4.49433 -1.0262 0
M  V30 726 H 68.6645 -6.80401 1.5395 0
M  V30 727 H 64.5615 -6.44506 0.358174 0
M  V30 728 H 65.3295 -7.99913 1.73438 0
M  V30 729 N 67.9926 0.231505 -1.5589 0
M  V30 730 C 69.2176 0.978689 -1.82856 0
M  V30 731 C 69.6426 1.77559 -0.620846 0
M  V30 732 O 69.0006 1.76119 0.430305 0
M  V30 733 C 69.0486 1.87997 -3.07716 0
M  V30 734 O 68.1526 2.97393 -2.85712 0
M  V30 735 H 67.4936 0.277663 -0.603158 0
M  V30 736 H 70.0236 0.24783 -2.03093 0
M  V30 737 H 70.0336 2.2917 -3.37558 0
M  V30 738 H 68.7086 1.29417 -3.95252 0
M  V30 739 H 67.2856 2.60238 -2.67078 0
M  V30 740 N 69.4707 1.49531 0.497807 0
M  V30 741 C 70.4007 1.6935 1.60757 0
M  V30 742 C 71.3817 0.542218 1.61227 0
M  V30 743 O 72.5667 0.778417 1.77917 0
M  V30 744 C 69.6967 1.76298 2.99226 0
M  V30 745 C 68.6507 2.91248 3.13622 0
M  V30 746 C 67.9767 2.83312 4.53474 0
M  V30 747 C 69.2767 4.3214 2.93346 0
M  V30 748 H 70.9707 2.62263 1.44425 0
M  V30 749 H 68.5167 1.26208 0.693367 0
M  V30 750 H 70.4697 1.88749 3.76765 0
M  V30 751 H 69.1937 0.799871 3.16654 0
M  V30 752 H 67.8527 2.78404 2.38509 0
M  V30 753 H 67.5007 1.84902 4.67782 0
M  V30 754 H 67.2007 3.60465 4.64046 0
M  V30 755 H 68.7247 2.97775 5.33069 0
M  V30 756 H 70.1387 4.45649 3.60652 0
M  V30 757 H 68.5357 5.1054 3.15387 0
M  V30 758 H 69.6057 4.46363 1.89441 0
M  V30 759 N 70.9488 -0.749086 1.3866 0
M  V30 760 C 72.1948 -1.51056 1.35314 0
M  V30 761 C 72.5278 -1.94121 -0.0553751 0
M  V30 762 O 71.8028 -1.65763 -1.01749 0
M  V30 763 C 72.0858 -2.76003 2.31288 0
M  V30 764 C 71.9388 -2.39047 3.8102 0
M  V30 765 C 73.2578 -3.78046 2.2532 0
M  V30 766 H 70.3768 -0.547972 0.492844 0
M  V30 767 H 73.0188 -0.857628 1.69543 0
M  V30 768 H 71.1688 -3.31716 2.02229 0
M  V30 769 H 72.8408 -1.89074 4.20771 0
M  V30 770 H 71.0838 -1.71449 3.98482 0
M  V30 771 H 71.7548 -3.28462 4.4364 0
M  V30 772 H 74.2308 -3.31884 2.50983 0
M  V30 773 H 73.1068 -4.63159 2.94576 0
M  V30 774 H 73.3678 -4.23957 1.25352 0
M  V30 775 N 72.4269 -1.23603 -0.977757 0
M  V30 776 C 73.6739 -1.06971 -1.71941 0
M  V30 777 C 74.0019 0.393009 -1.90488 0
M  V30 778 O 73.2569 1.30719 -1.4564 0
M  V30 779 C 73.5559 -1.7433 -3.11999 0
M  V30 780 C 73.2219 -3.24252 -3.13323 0
M  V30 781 C 71.8839 -3.65156 -3.13392 0
M  V30 782 C 74.2359 -4.20141 -3.08433 0
M  V30 783 C 71.5639 -5.00403 -3.0629 0
M  V30 784 C 73.9159 -5.55384 -3.02873 0
M  V30 785 C 72.5799 -5.95647 -3.01265 0
M  V30 786 H 71.8499 -0.391433 -0.629175 0
M  V30 787 H 74.4969 -1.53572 -1.14403 0
M  V30 788 H 72.8019 -1.20096 -3.7294 0
M  V30 789 H 74.4989 -1.58936 -3.68158 0
M  V30 790 H 71.0889 -2.91692 -3.14029 0
M  V30 791 H 75.2729 -3.89547 -3.07517 0
M  V30 792 H 70.5289 -5.3081 -3.03399 0
M  V30 793 H 74.7029 -6.29398 -2.98046 0
M  V30 794 H 72.3299 -7.0041 -2.95516 0
M  V30 795 N 73.905 1.17692 -1.04816 0
M  V30 796 C 75.151 1.88137 -0.75711 0
M  V30 797 C 75.484 1.80604 0.713841 0
M  V30 798 O 74.759 1.21146 1.52164 0
M  V30 799 C 75.042 3.38318 -1.2334 0
M  V30 800 C 74.895 3.54622 -2.76701 0
M  V30 801 C 76.214 4.32214 -0.829415 0
M  V30 802 H 73.333 0.683163 -0.27651 0
M  V30 803 H 75.975 1.38424 -1.30149 0
M  V30 804 H 74.125 3.80787 -0.770286 0
M  V30 805 H 75.797 3.21194 -3.31107 0
M  V30 806 H 74.04 2.97026 -3.16161 0
M  V30 807 H 74.711 4.60028 -3.05088 0
M  V30 808 H 77.187 3.97565 -1.22805 0
M  V30 809 H 76.063 5.35838 -1.19033 0
M  V30 810 H 76.324 4.41294 0.266891 0
M  V30 811 N 75.3831 0.828654 1.34056 0
M  V30 812 C 76.6301 0.419458 1.98108 0
M  V30 813 C 76.9581 -1.01886 1.65679 0
M  V30 814 O 76.2131 -1.72539 0.923512 0
M  V30 815 C 76.5121 0.575226 3.52741 0
M  V30 816 C 76.1781 1.98012 4.05095 0
M  V30 817 C 74.8401 2.36442 4.19104 0
M  V30 818 C 77.1921 2.89824 4.33188 0
M  V30 819 C 74.5201 3.66009 4.58535 0
M  V30 820 C 76.8721 4.1886 4.74066 0
M  V30 821 C 75.5361 4.5726 4.86281 0
M  V30 822 H 74.8061 0.153491 0.724929 0
M  V30 823 H 77.4531 1.05371 1.59904 0
M  V30 824 H 75.7581 -0.142385 3.91541 0
M  V30 825 H 77.4551 0.239057 4.00287 0
M  V30 826 H 74.0451 1.67162 3.94658 0
M  V30 827 H 78.2291 2.61375 4.21897 0
M  V30 828 H 73.4851 3.95579 4.66184 0
M  V30 829 H 77.6591 4.90086 4.94761 0
M  V30 830 H 75.2861 5.57707 5.16592 0
M  V30 831 N 76.8612 -1.46375 0.584142 0
M  V30 832 C 78.1092 -2.01978 0.0701287 0
M  V30 833 C 78.4302 -1.4579 -1.295 0
M  V30 834 O 77.7002 -0.64314 -1.85042 0
M  V30 835 H 76.2802 -0.746648 0.0229345 0
M  V30 836 H 78.9422 -1.79461 0.760245 0
M  V30 837 H 78.0382 -3.121 0.0022064 0
M  V30 838 N 78.3393 -0.321999 -1.54275 0
M  V30 839 C 79.2693 0.537411 -2.27231 0
M  V30 840 C 80.2503 1.12064 -1.27968 0
M  V30 841 O 81.4353 1.14606 -1.56777 0
M  V30 842 C 78.5653 1.69919 -3.02894 0
M  V30 843 C 77.5193 1.24534 -4.09482 0
M  V30 844 C 76.8453 2.49394 -4.72977 0
M  V30 845 C 78.1453 0.361335 -5.21049 0
M  V30 846 H 79.8393 -0.0711406 -2.99315 0
M  V30 847 H 77.3853 -0.0356555 -1.43956 0
M  V30 848 H 79.3383 2.30668 -3.52662 0
M  V30 849 H 78.0623 2.33431 -2.28424 0
M  V30 850 H 76.7213 0.660782 -3.60596 0
M  V30 851 H 76.3693 3.11265 -3.95124 0
M  V30 852 H 76.0693 2.19718 -5.44975 0
M  V30 853 H 77.5933 3.10908 -5.25517 0
M  V30 854 H 79.0073 0.875072 -5.66582 0
M  V30 855 H 77.4043 0.157428 -5.99893 0
M  V30 856 H 78.4743 -0.60822 -4.8107 0
M  V30 857 N 79.8174 1.5752 -0.0501392 0
M  V30 858 C 80.7474 2.14502 0.922566 0
M  V30 859 C 81.7284 1.06642 1.3252 0
M  V30 860 O 82.9134 1.34577 1.4001 0
M  V30 861 C 80.0434 2.68916 2.19776 0
M  V30 862 C 78.9974 3.8175 1.93523 0
M  V30 863 C 78.3234 4.22677 3.27487 0
M  V30 864 C 79.6234 5.06932 1.25765 0
M  V30 865 H 81.3174 2.9603 0.447952 0
M  V30 866 H 78.8634 1.42401 0.214024 0
M  V30 867 H 80.8164 3.07419 2.88222 0
M  V30 868 H 79.5404 1.84578 2.69441 0
M  V30 869 H 78.1994 3.43718 1.27489 0
M  V30 870 H 77.8474 3.35291 3.74952 0
M  V30 871 H 77.5474 4.98725 3.1072 0
M  V30 872 H 79.0714 4.63779 3.97166 0
M  V30 873 H 80.4854 5.42888 1.84244 0
M  V30 874 H 78.8824 5.88116 1.19328 0
M  V30 875 H 79.9524 4.84337 0.233536 0
M  V30 876 N 81.2955 -0.223234 1.56011 0
M  V30 877 C 82.5435 -0.946003 1.78592 0
M  V30 878 C 82.8645 -1.84936 0.618349 0
M  V30 879 O 82.1345 -1.92473 -0.364833 0
M  V30 880 H 80.7145 -0.352298 0.658707 0
M  V30 881 H 83.3765 -0.235494 1.93472 0
M  V30 882 H 82.4725 -1.55381 2.70672 0
M  V30 883 N 82.7736 -1.49793 -0.48987 0
M  V30 884 C 83.7216 -1.67783 -1.61095 0
M  V30 885 C 84.7156 -0.543683 -1.60438 0
M  V30 886 O 85.9216 -0.723647 -1.64813 0
M  V30 887 H 82.2966 -0.529255 -0.534222 0
M  V30 888 H 84.2676 -2.61861 -1.43078 0
M  V30 889 C 83.0166 -1.77191 -2.99164 0
M  V30 890 H 82.3396 -2.63841 -3.0038 0
M  V30 891 H 83.7796 -1.93809 -3.77113 0
M  V30 892 C 82.2386 -0.519203 -3.32875 0
M  V30 893 O 82.7686 0.350124 -4.00171 0
M  V30 894 N 80.9746 -0.378816 -2.8812 0
M  V30 895 H 80.5216 -1.08725 -2.33531 0
M  V30 896 H 80.4796 0.458239 -3.11043 0
M  V30 897 N 84.2517 0.741722 -1.39055 0
M  V30 898 C 85.4767 1.53607 -1.39354 0
M  V30 899 C 85.9017 1.88096 0.0116905 0
M  V30 900 O 85.2597 1.5143 0.996924 0
M  V30 901 C 85.3077 2.80441 -2.26682 0
M  V30 902 O 84.4117 3.76088 -1.69208 0
M  V30 903 H 83.7527 0.464142 -0.474835 0
M  V30 904 H 86.2827 0.915665 -1.82967 0
M  V30 905 H 86.2927 3.29246 -2.40959 0
M  V30 906 H 84.9677 2.5467 -3.2881 0
M  V30 907 H 83.5447 3.34833 -1.64138 0
M  V30 908 N 85.7298 1.2412 0.971189 0
M  V30 909 C 86.9758 1.08041 1.71625 0
M  V30 910 C 87.3088 -0.380407 1.90438 0
M  V30 911 O 86.5838 -1.28127 1.46334 0
M  V30 912 C 86.8668 1.81682 3.10908 0
M  V30 913 C 86.7198 3.35493 2.99608 0
M  V30 914 C 88.0388 1.58671 4.10501 0
M  V30 915 H 85.1578 0.39388 0.622919 0
M  V30 916 H 87.7998 1.52743 1.13003 0
M  V30 917 H 85.9498 1.43684 3.60953 0
M  V30 918 H 87.6218 3.83068 2.57015 0
M  V30 919 H 85.8648 3.64052 2.35899 0
M  V30 920 H 86.5358 3.82217 3.98264 0
M  V30 921 H 89.0118 1.91719 3.69301 0
M  V30 922 H 87.8878 2.1266 5.06031 0
M  V30 923 H 88.1488 0.524161 4.38982 0
M  V30 924 N 87.2079 -1.17134 1.05439 0
M  V30 925 C 88.4539 -1.87733 0.767077 0
M  V30 926 C 88.7869 -1.8098 -0.704253 0
M  V30 927 O 88.0619 -1.21951 -1.5152 0
M  V30 928 C 88.3449 -3.37659 1.25133 0
M  V30 929 C 88.1979 -3.53149 2.78578 0
M  V30 930 C 89.5169 -4.31768 0.852324 0
M  V30 931 H 86.6359 -0.681687 0.280129 0
M  V30 932 H 89.2779 -1.37732 1.30881 0
M  V30 933 H 87.4279 -3.80373 0.790469 0
M  V30 934 H 89.0999 -3.19434 3.32806 0
M  V30 935 H 87.3429 -2.95345 3.17732 0
M  V30 936 H 88.0139 -4.58403 3.07523 0
M  V30 937 H 90.4899 -3.96909 1.24911 0
M  V30 938 H 89.3659 -5.35199 1.21873 0
M  V30 939 H 89.6269 -4.41429 -0.243485 0
M  V30 940 N 88.686 -0.835752 -1.33615 0
M  V30 941 C 89.932 -0.430596 -1.98176 0
M  V30 942 C 90.265 1.00684 -1.66061 0
M  V30 943 O 89.54 1.70339 -0.938877 0
M  V30 944 C 89.823 -0.648065 -3.5422 0
M  V30 945 C 89.676 -2.13255 -3.96033 0
M  V30 946 C 90.995 -0.0922113 -4.40003 0
M  V30 947 H 88.114 -0.157924 -0.719881 0
M  V30 948 H 90.756 -1.05069 -1.58305 0
M  V30 949 H 88.906 -0.120237 -3.88314 0
M  V30 950 H 90.578 -2.725 -3.72211 0
M  V30 951 H 88.821 -2.61823 -3.45878 0
M  V30 952 H 89.492 -2.23547 -5.04708 0
M  V30 953 H 91.968 -0.543343 -4.12537 0
M  V30 954 H 90.844 -0.274083 -5.48215 0
M  V30 955 H 91.105 1.00378 -4.30554 0
M  V30 956 N 90.1641 1.46063 -0.591896 0
M  V30 957 C 91.0941 2.33172 0.123673 0
M  V30 958 C 92.0751 1.45897 0.87453 0
M  V30 959 O 93.2601 1.74698 0.848181 0
M  V30 960 C 90.3901 3.28336 1.13194 0
M  V30 961 C 89.3441 4.25124 0.495324 0
M  V30 962 C 88.6701 5.09863 1.61071 0
M  V30 963 C 89.9701 5.19143 -0.573425 0
M  V30 964 H 91.6641 2.93252 -0.603646 0
M  V30 965 H 89.2101 1.41014 -0.291741 0
M  V30 966 H 91.1631 3.88137 1.64097 0
M  V30 967 H 89.8871 2.66383 1.88965 0
M  V30 968 H 88.5461 3.66599 0.00729452 0
M  V30 969 H 88.1941 4.44288 2.35832 0
M  V30 970 H 87.8941 5.75417 1.19035 0
M  V30 971 H 89.4181 5.72529 2.12233 0
M  V30 972 H 90.8321 5.73106 -0.1491 0
M  V30 973 H 89.2291 5.93089 -0.914636 0
M  V30 974 H 90.2991 4.62519 -1.45617 0
M  V30 975 N 91.6422 0.330177 1.54103 0
M  V30 976 C 92.8882 -0.270806 2.00984 0
M  V30 977 C 93.2212 -1.51265 1.21789 0
M  V30 978 O 92.4962 -1.92142 0.301927 0
M  V30 979 C 92.7792 -0.598339 3.55094 0
M  V30 980 C 92.6322 0.654674 4.4501 0
M  V30 981 C 93.9512 -1.41334 4.16789 0
M  V30 982 H 91.0702 -0.0969531 0.730595 0
M  V30 983 H 93.7122 0.448066 1.84641 0
M  V30 984 H 91.8622 -1.21078 3.69151 0
M  V30 985 H 93.5342 1.29285 4.42813 0
M  V30 986 H 91.7772 1.28224 4.14416 0
M  V30 987 H 92.4482 0.380944 5.50684 0
M  V30 988 H 94.9242 -0.895597 4.06347 0
M  V30 989 H 93.8002 -1.61127 5.24718 0
M  V30 990 H 94.0612 -2.41146 3.70541 0
M  V30 991 N 93.1203 -1.57491 0.0584922 0
M  V30 992 C 94.0503 -2.14988 -0.911178 0
M  V30 993 C 95.0313 -1.07343 -1.31952 0
M  V30 994 O 96.2163 -1.35318 -1.39294 0
M  V30 995 C 93.3463 -2.70078 -2.18347 0
M  V30 996 C 92.3003 -3.82771 -1.91495 0
M  V30 997 C 91.6263 -4.24408 -3.25241 0
M  V30 998 C 92.9263 -5.07592 -1.23075 0
M  V30 999 H 94.6203 -2.96263 -0.432246 0
M  V30 1000 H 92.1663 -1.42512 -0.206469 0
M  V30 1001 H 94.1193 -3.08943 -2.86587 0
M  V30 1002 H 92.8433 -1.86005 -2.68458 0
M  V30 1003 H 91.5023 -3.44389 -1.25664 0
M  V30 1004 H 91.1503 -3.37275 -3.73168 0
M  V30 1005 H 90.8503 -5.00366 -3.08071 0
M  V30 1006 H 92.3743 -4.65879 -3.94701 0
M  V30 1007 H 93.7883 -5.43857 -1.81362 0
M  V30 1008 H 92.1853 -5.88741 -1.16207 0
M  V30 1009 H 93.2553 -4.84454 -0.207847 0
M  V30 1010 N 94.5984 0.214957 -1.56127 0
M  V30 1011 C 95.8454 0.938372 -1.79446 0
M  V30 1012 C 96.1734 1.8407 -0.628378 0
M  V30 1013 O 95.4284 1.91837 0.386925 0
M  V30 1014 C 95.7274 1.80314 -3.0858 0
M  V30 1015 C 95.3934 1.05349 -4.3842 0
M  V30 1016 C 94.0554 0.846435 -4.73697 0
M  V30 1017 C 96.4074 0.524588 -5.18553 0
M  V30 1018 C 93.7354 0.098683 -5.86617 0
M  V30 1019 C 96.0874 -0.209853 -6.32252 0
M  V30 1020 C 94.7514 -0.428102 -6.66126 0
M  V30 1021 H 94.0214 0.343375 -0.656639 0
M  V30 1022 H 96.6684 0.206077 -1.90388 0
M  V30 1023 H 94.9734 2.6035 -2.92789 0
M  V30 1024 H 96.6704 2.36513 -3.23825 0
M  V30 1025 H 93.2604 1.22486 -4.10725 0
M  V30 1026 H 97.4444 0.672008 -4.91729 0
M  V30 1027 H 92.7004 -0.0805753 -6.11347 0
M  V30 1028 H 96.8744 -0.627157 -6.9357 0
M  V30 1029 H 94.5014 -1.00944 -7.53468 0
M  V30 1030 N 96.0765 1.50051 0.48192 0
M  V30 1031 C 97.0235 1.68122 1.58125 0
M  V30 1032 C 97.9935 0.522545 1.57666 0
M  V30 1033 O 99.1785 0.751844 1.75362 0
M  V30 1034 C 96.3185 1.77142 2.96167 0
M  V30 1035 C 95.4315 3.0444 3.06497 0
M  V30 1036 C 94.5665 3.04321 4.35387 0
M  V30 1037 C 93.6055 4.26118 4.3942 0
M  V30 1038 N 92.7425 4.238 5.59766 0
M  V30 1039 H 97.5825 2.6198 1.42022 0
M  V30 1040 H 95.1195 1.29877 0.690687 0
M  V30 1041 H 97.0775 1.80352 3.76203 0
M  V30 1042 H 95.7075 0.867329 3.1093 0
M  V30 1043 H 94.7595 3.10752 2.19402 0
M  V30 1044 H 96.0715 3.94426 3.05336 0
M  V30 1045 H 95.2255 3.062 5.23762 0
M  V30 1046 H 93.9645 2.12147 4.39141 0
M  V30 1047 H 92.9695 4.24463 3.49444 0
M  V30 1048 H 94.1945 5.19507 4.37366 0
M  V30 1049 H 92.1405 3.34474 5.64326 0
M  V30 1050 H 92.0575 5.07542 5.60301 0
M  V30 1051 H 93.3255 4.2981 6.50295 0
M  V30 1052 N 97.5546 -0.734337 1.39446 0
M  V30 1053 C 98.7846 -1.52137 1.39778 0
M  V30 1054 C 99.1926 -1.89198 -0.00929312 0
M  V30 1055 O 98.5356 -1.54666 -0.991168 0
M  V30 1056 C 98.5976 -2.83762 2.20724 0
M  V30 1057 C 98.2616 -2.69131 3.69347 0
M  V30 1058 C 99.2586 -2.37635 4.62413 0
M  V30 1059 C 96.9436 -2.85982 4.1294 0
M  V30 1060 C 98.9376 -2.23172 5.97054 0
M  V30 1061 C 96.6246 -2.71137 5.47657 0
M  V30 1062 C 97.6226 -2.39777 6.39528 0
M  V30 1063 O 97.3106 -2.25026 7.71763 0
M  V30 1064 H 97.0426 -0.476717 0.479288 0
M  V30 1065 H 99.5966 -0.915012 1.83893 0
M  V30 1066 H 97.8266 -3.4666 1.71359 0
M  V30 1067 H 99.5156 -3.45383 2.13226 0
M  V30 1068 H 100.282 -2.24267 4.30034 0
M  V30 1069 H 96.1606 -3.09383 3.41765 0
M  V30 1070 H 99.7046 -1.98617 6.68728 0
M  V30 1071 H 95.6016 -2.84083 5.79626 0
M  V30 1072 H 96.3696 -2.40091 7.82495 0
M  V30 1073 N 99.0327 -1.24633 -0.964593 0
M  V30 1074 C 99.9797 -1.04144 -2.05968 0
M  V30 1075 C 100.95 0.046262 -1.66036 0
M  V30 1076 O 102.135 -0.108972 -1.90489 0
M  V30 1077 C 99.2747 -0.65563 -3.38815 0
M  V30 1078 C 98.3877 -1.81714 -3.91923 0
M  V30 1079 C 97.5227 -1.37662 -5.13052 0
M  V30 1080 C 96.5617 -2.50788 -5.58365 0
M  V30 1081 N 95.6987 -2.07582 -6.70712 0
M  V30 1082 H 100.539 -1.9787 -2.22827 0
M  V30 1083 H 98.0757 -0.9855 -1.09208 0
M  V30 1084 H 100.034 -0.412954 -4.15151 0
M  V30 1085 H 98.6637 0.244627 -3.21872 0
M  V30 1086 H 97.7157 -2.1734 -3.12198 0
M  V30 1087 H 99.0277 -2.66705 -4.21509 0
M  V30 1088 H 98.1817 -1.093 -5.96773 0
M  V30 1089 H 96.9207 -0.497293 -4.85158 0
M  V30 1090 H 95.9257 -2.79906 -4.73215 0
M  V30 1091 H 97.1507 -3.39283 -5.88272 0
M  V30 1092 H 95.0967 -1.22051 -6.44546 0
M  V30 1093 H 95.0137 -2.86125 -6.99763 0
M  V30 1094 H 96.2817 -1.82369 -7.57867 0
M  V30 1095 N 100.511 1.16574 -1.06058 0
M  V30 1096 C 101.927 1.3904 -0.783585 0
M  V30 1097 C 102.127 1.91784 0.618145 0
M  V30 1098 O 101.183 2.11511 1.37911 0
M  V30 1099 C 102.496 2.37329 -1.84649 0
M  V30 1100 C 104.044 2.51018 -1.86973 0
M  V30 1101 C 104.519 3.52588 -2.92311 0
M  V30 1102 N 106.01 3.60113 -2.91329 0
M  V30 1103 C 106.745 4.38486 -3.69482 0
M  V30 1104 N 106.241 5.20302 -4.57447 0
M  V30 1105 N 108.034 4.33446 -3.57885 0
M  V30 1106 H 100.185 0.806725 -1.96483 0
M  V30 1107 H 102.448 0.417117 -0.851303 0
M  V30 1108 H 102.154 2.05663 -2.85299 0
M  V30 1109 H 102.028 3.36946 -1.6955 0
M  V30 1110 H 104.415 2.81989 -0.869827 0
M  V30 1111 H 104.496 1.51445 -2.0615 0
M  V30 1112 H 104.14 3.22354 -3.92492 0
M  V30 1113 H 104.07 4.51886 -2.70383 0
M  V30 1114 H 106.561 3.01707 -2.27555 0
M  V30 1115 H 106.874 5.77311 -5.13743 0
M  V30 1116 H 105.219 5.19653 -4.61503 0
M  V30 1117 H 108.41 3.68586 -2.88551 0
M  V30 1118 H 108.583 4.94279 -4.19037 0
M  V30 1119 N 101.989 0.842826 1.3317 0
M  V30 1120 C 102.919 0.294028 2.31641 0
M  V30 1121 C 103.9 -0.600401 1.59151 0
M  V30 1122 O 105.085 -0.523124 1.87022 0
M  V30 1123 C 102.215 -0.528416 3.43257 0
M  V30 1124 C 101.169 0.27056 4.27144 0
M  V30 1125 C 100.495 -0.675881 5.30411 0
M  V30 1126 C 101.795 1.48981 5.00602 0
M  V30 1127 H 103.489 1.11681 2.77791 0
M  V30 1128 H 101.035 0.538478 1.33553 0
M  V30 1129 H 102.988 -0.922674 4.11175 0
M  V30 1130 H 101.712 -1.38445 2.95805 0
M  V30 1131 H 100.371 0.646427 3.60856 0
M  V30 1132 H 100.019 -1.52842 4.79216 0
M  V30 1133 H 99.7189 -0.145374 5.8742 0
M  V30 1134 H 101.243 -1.06757 6.01195 0
M  V30 1135 H 102.657 1.16849 5.61266 0
M  V30 1136 H 101.054 1.95739 5.6728 0
M  V30 1137 H 102.124 2.25746 4.29147 0
M  V30 1138 N 103.467 -1.45747 0.599634 0
M  V30 1139 C 104.883 -1.57424 0.26264 0
M  V30 1140 C 105.083 -1.59222 -1.23493 0
M  V30 1141 O 104.139 -1.51825 -2.01756 0
M  V30 1142 C 105.452 -2.86061 0.926795 0
M  V30 1143 C 107 -2.99722 0.901967 0
M  V30 1144 C 107.475 -4.31119 1.54598 0
M  V30 1145 N 108.966 -4.37858 1.5111 0
M  V30 1146 C 109.701 -5.3818 1.97863 0
M  V30 1147 N 109.197 -6.45083 2.52666 0
M  V30 1148 N 110.99 -5.29487 1.88679 0
M  V30 1149 H 103.141 -1.42823 1.57211 0
M  V30 1150 H 105.404 -0.68235 0.658105 0
M  V30 1151 H 105.11 -2.90605 1.98095 0
M  V30 1152 H 104.984 -3.74563 0.445238 0
M  V30 1153 H 107.371 -2.9475 -0.143617 0
M  V30 1154 H 107.452 -2.12652 1.42171 0
M  V30 1155 H 107.096 -4.36849 2.59085 0
M  V30 1156 H 107.026 -5.16992 1.00132 0
M  V30 1157 H 109.517 -3.61209 1.11068 0
M  V30 1158 H 109.83 -7.17869 2.86155 0
M  V30 1159 H 108.175 -6.45856 2.56701 0
M  V30 1160 H 111.366 -4.44877 1.4561 0
M  V30 1161 H 111.539 -6.07524 2.25429 0
M  V30 1162 N 104.945 -0.338344 -1.53925 0
M  V30 1163 C 106.17 0.263987 -2.05713 0
M  V30 1164 C 106.595 1.43847 -1.21201 0
M  V30 1165 O 105.953 1.79904 -0.224535 0
M  V30 1166 C 106.001 0.662 -3.54471 0
M  V30 1167 O 105.105 1.76265 -3.72833 0
M  V30 1168 H 104.446 0.0448722 -0.662482 0
M  V30 1169 H 106.976 -0.491048 -1.9862 0
M  V30 1170 H 106.986 0.940594 -3.9701 0
M  V30 1171 H 105.661 -0.196937 -4.15433 0
M  V30 1172 H 104.238 1.48173 -3.42198 0
M  V30 1173 N 106.423 1.57458 -0.0668435 0
M  V30 1174 C 107.356 2.08033 0.93795 0
M  V30 1175 C 108.334 0.984321 1.29421 0
M  V30 1176 O 109.518 1.25736 1.40437 0
M  V30 1177 C 106.645 2.53388 2.24749 0
M  V30 1178 C 105.691 3.74376 2.04315 0
M  V30 1179 S 106.524 5.19303 1.30706 0
M  V30 1180 C 107.68 5.67986 2.62951 0
M  V30 1181 H 107.913 2.92935 0.50759 0
M  V30 1182 H 105.446 1.5371 0.145804 0
M  V30 1183 H 107.404 2.8018 3.00016 0
M  V30 1184 H 106.065 1.68763 2.64911 0
M  V30 1185 H 105.258 4.04083 3.01218 0
M  V30 1186 H 104.86 3.47931 1.37186 0
M  V30 1187 H 107.152 5.74528 3.5906 0
M  V30 1188 H 108.095 6.66955 2.3786 0
M  V30 1189 H 108.503 4.95781 2.69929 0
M  V30 1190 N 107.901 -0.206675 1.56239 0
M  V30 1191 C 109.129 -0.945345 1.8404 0
M  V30 1192 C 109.544 -1.77336 0.647885 0
M  V30 1193 O 108.901 -1.78425 -0.383511 0
M  V30 1194 C 108.952 -1.8509 3.10522 0
M  V30 1195 O 108.673 -1.05634 4.25174 0
M  V30 1196 C 110.174 -2.70222 3.51418 0
M  V30 1197 H 107.394 -0.276372 0.61144 0
M  V30 1198 H 109.938 -0.217417 2.03341 0
M  V30 1199 H 108.093 -2.53259 2.93153 0
M  V30 1200 H 108.507 -1.67238 4.97124 0
M  V30 1201 H 109.981 -3.29438 4.42916 0
M  V30 1202 H 110.458 -3.43358 2.73864 0
M  V30 1203 H 111.064 -2.07443 3.71278 0
M  V30 1204 N 109.379 -1.50304 -0.473955 0
M  V30 1205 C 110.656 -1.51667 -1.23518 0
M  V30 1206 C 111.036 -0.259701 -2.09496 0
M  V30 1207 O 110.384 0.756986 -2.15597 0
M  V30 1208 C 110.594 -2.81082 -2.06868 0
M  V30 1209 C 111.942 -3.31631 -2.65153 0
M  V30 1210 O 112.966 -2.82384 -2.17113 0
M  V30 1211 O 111.825 -4.17471 -3.52675 0
M  V30 1212 H 108.919 -0.60822 -0.560355 0
M  V30 1213 H 111.465 -1.62592 -0.486011 0
M  V30 1214 H 110.237 -3.64041 -1.4349 0
M  V30 1215 H 109.86 -2.73146 -2.88924 0
M  V30 1216 N 110.857 0.726932 -1.39834 0
M  V30 1217 C 112.103 1.48884 -1.377 0
M  V30 1218 C 112.436 1.94185 0.0244852 0
M  V30 1219 O 111.711 1.67361 0.990986 0
M  V30 1220 C 111.994 2.72288 -2.3565 0
M  V30 1221 C 111.847 2.32956 -3.84775 0
M  V30 1222 C 113.166 3.74414 -2.31306 0
M  V30 1223 H 110.285 0.540062 -0.5015 0
M  V30 1224 H 112.927 0.830547 -1.70886 0
M  V30 1225 H 111.077 3.28457 -2.07481 0
M  V30 1226 H 112.749 1.82356 -4.23726 0
M  V30 1227 H 110.992 1.65088 -4.01159 0
M  V30 1228 H 111.663 3.21362 -4.4881 0
M  V30 1229 H 114.139 3.27849 -2.56231 0
M  V30 1230 H 113.015 4.58414 -3.01907 0
M  V30 1231 H 113.276 4.21909 -1.32081 0
M  V30 1232 N 112.336 1.25143 0.95797 0
M  V30 1233 C 113.566 1.12261 1.73439 0
M  V30 1234 C 113.974 -0.326715 1.86358 0
M  V30 1235 O 113.317 -1.2367 1.35836 0
M  V30 1236 C 113.379 1.69966 3.16784 0
M  V30 1237 C 113.043 3.18936 3.27305 0
M  V30 1238 C 114.04 4.15968 3.11877 0
M  V30 1239 C 111.725 3.59083 3.51234 0
M  V30 1240 C 113.719 5.51126 3.20217 0
M  V30 1241 C 111.406 4.9438 3.5921 0
M  V30 1242 C 112.404 5.90211 3.43716 0
M  V30 1243 O 112.092 7.23046 3.51368 0
M  V30 1244 H 111.824 0.392476 0.550399 0
M  V30 1245 H 114.378 1.65927 1.21068 0
M  V30 1246 H 112.608 1.10744 3.70503 0
M  V30 1247 H 114.297 1.52232 3.76272 0
M  V30 1248 H 115.063 3.86292 2.93264 0
M  V30 1249 H 110.942 2.84989 3.62356 0
M  V30 1250 H 114.486 6.25905 3.0804 0
M  V30 1251 H 110.383 5.23723 3.77339 0
M  V30 1252 H 111.151 7.31097 3.6802 0
M  V30 1253 N 113.814 -1.1601 1.06675 0
M  V30 1254 C 114.744 -2.22688 0.702307 0
M  V30 1255 C 115.725 -1.67306 -0.307032 0
M  V30 1256 O 116.91 -1.93352 -0.181305 0
M  V30 1257 C 114.04 -3.47178 0.092038 0
M  V30 1258 C 112.994 -4.15477 1.02777 0
M  V30 1259 C 112.32 -5.33963 0.28061 0
M  V30 1260 C 113.62 -4.66019 2.35846 0
M  V30 1261 H 115.314 -2.53429 1.59419 0
M  V30 1262 H 112.86 -1.21813 0.767961 0
M  V30 1263 H 114.813 -4.21037 -0.174814 0
M  V30 1264 H 113.537 -3.15749 -0.834877 0
M  V30 1265 H 112.196 -3.43549 1.27944 0
M  V30 1266 H 111.844 -4.98788 -0.649545 0
M  V30 1267 H 111.544 -5.806 0.904258 0
M  V30 1268 H 113.068 -6.10596 0.021396 0
M  V30 1269 H 114.482 -5.3144 2.15045 0
M  V30 1270 H 112.879 -5.23293 2.93743 0
M  V30 1271 H 113.949 -3.82023 2.98641 0
M  V30 1272 N 115.292 -0.849877 -1.32721 0
M  V30 1273 C 116.222 -0.306308 -2.31482 0
M  V30 1274 C 117.203 0.591952 -1.59468 0
M  V30 1275 O 118.388 0.513199 -1.87296 0
M  V30 1276 C 115.518 0.510204 -3.43532 0
M  V30 1277 C 114.472 -0.293209 -4.26994 0
M  V30 1278 C 113.798 0.647743 -5.30762 0
M  V30 1279 C 115.098 -1.51634 -4.99804 0
M  V30 1280 H 116.792 -1.13153 -2.77195 0
M  V30 1281 H 114.338 -0.545553 -1.33266 0
M  V30 1282 H 116.291 0.900856 -4.11658 0
M  V30 1283 H 115.015 1.36874 -2.96535 0
M  V30 1284 H 113.674 -0.665555 -3.60508 0
M  V30 1285 H 113.322 1.50299 -4.8002 0
M  V30 1286 H 113.022 0.11422 -5.87489 0
M  V30 1287 H 114.546 1.03567 -6.01753 0
M  V30 1288 H 115.96 -1.19824 -5.60638 0
M  V30 1289 H 114.357 -1.98745 -5.66234 0
M  V30 1290 H 115.427 -2.28018 -4.27943 0
M  V30 1291 N 116.77 1.45427 -0.607355 0
M  V30 1292 C 117.718 2.32269 0.12411 0
M  V30 1293 C 118.712 1.45955 0.859854 0
M  V30 1294 O 119.918 1.6244 0.775447 0
M  V30 1295 H 116.293 0.749691 0.0588839 0
M  V30 1296 H 118.264 2.91743 -0.626762 0
M  V30 1297 C 117.013 3.29567 1.1082 0
M  V30 1298 H 116.336 3.95978 0.551492 0
M  V30 1299 H 117.776 3.93061 1.58995 0
M  V30 1300 C 116.235 2.56722 2.18164 0
M  V30 1301 O 116.765 2.34842 3.25902 0
M  V30 1302 N 114.971 2.16861 1.93442 0
M  V30 1303 H 114.518 2.34855 1.05834 0
M  V30 1304 H 114.476 1.68444 2.65469 0
M  V30 1305 N 118.248 0.346503 1.53744 0
M  V30 1306 C 119.178 -0.501193 2.28058 0
M  V30 1307 C 120.159 -1.10014 1.29734 0
M  V30 1308 O 121.344 -1.12097 1.58581 0
M  V30 1309 C 118.474 -1.65078 3.05559 0
M  V30 1310 C 117.428 -1.18003 4.11411 0
M  V30 1311 C 116.754 -2.41837 4.76884 0
M  V30 1312 C 118.054 -0.278394 5.21558 0
M  V30 1313 H 119.748 0.11875 2.99164 0
M  V30 1314 H 117.294 0.0585531 1.43881 0
M  V30 1315 H 119.247 -2.25028 3.56287 0
M  V30 1316 H 117.971 -2.29767 2.32109 0
M  V30 1317 H 116.63 -0.603331 3.61601 0
M  V30 1318 H 116.278 -3.0494 4.00026 0
M  V30 1319 H 115.978 -2.1102 5.48402 0
M  V30 1320 H 117.502 -3.02508 5.30397 0
M  V30 1321 H 118.916 -0.784823 5.67903 0
M  V30 1322 H 117.313 -0.0619707 6.00068 0
M  V30 1323 H 118.383 0.684677 4.80042 0
M  V30 1324 N 119.726 -1.57421 0.075193 0
M  V30 1325 C 120.689 -2.11791 -0.876203 0
M  V30 1326 C 121.689 -1.04268 -1.22412 0
M  V30 1327 O 122.879 -1.30242 -1.15684 0
M  V30 1328 C 120.011 -2.62207 -2.17854 0
M  V30 1329 H 121.204 -2.9716 -0.40444 0
M  V30 1330 H 118.757 -1.55333 -0.173557 0
M  V30 1331 H 119.492 -1.803 -2.6956 0
M  V30 1332 H 119.277 -3.40802 -1.93897 0
M  V30 1333 H 120.767 -3.04335 -2.85955 0
M  V30 1334 N 121.204 0.198386 -1.56346 0
M  V30 1335 C 122.453 0.917451 -1.79627 0
M  V30 1336 C 122.766 1.8456 -0.64784 0
M  V30 1337 O 123.972 2.60504 -0.764859 0
M  V30 1338 C 122.428 1.68175 -3.18191 0
M  V30 1339 C 122.036 0.798589 -4.40825 0
M  V30 1340 C 123.78 2.39065 -3.50782 0
M  V30 1341 C 121.687 1.56157 -5.70411 0
M  V30 1342 H 120.617 0.346317 -0.669762 0
M  V30 1343 H 123.268 0.170801 -1.82703 0
M  V30 1344 H 121.65 2.47216 -3.09354 0
M  V30 1345 H 122.824 0.0470665 -4.60776 0
M  V30 1346 H 121.139 0.200686 -4.15916 0
M  V30 1347 H 123.736 2.96692 -4.44835 0
M  V30 1348 H 124.079 3.13091 -2.74371 0
M  V30 1349 H 124.612 1.66993 -3.61052 0
M  V30 1350 H 121.351 0.864142 -6.49779 0
M  V30 1351 H 120.871 2.2871 -5.54483 0
M  V30 1352 H 122.55 2.11622 -6.11412 0
M  V30 1353 N 122.682 1.50554 0.465978 0
M  V30 1354 C 123.907 1.65838 1.24549 0
M  V30 1355 C 124.332 0.343486 1.84937 0
M  V30 1356 O 123.69 -0.69324 1.67523 0
M  V30 1357 C 123.738 2.75533 2.32624 0
M  V30 1358 O 122.842 2.37142 3.37398 0
M  V30 1359 H 122.183 0.553893 0.366194 0
M  V30 1360 H 124.713 1.96959 0.553927 0
M  V30 1361 H 124.723 2.98763 2.77857 0
M  V30 1362 H 123.398 3.70962 1.88043 0
M  V30 1363 H 121.975 2.24377 2.97841 0
M  V30 1364 N 124.16 -0.719506 1.40217 0
M  V30 1365 C 125.437 -1.47221 1.28784 0
M  V30 1366 C 125.817 -2.10883 -0.0956067 0
M  V30 1367 O 125.165 -1.99833 -1.10811 0
M  V30 1368 C 125.375 -2.5111 2.42373 0
M  V30 1369 C 126.723 -3.17053 2.82423 0
M  V30 1370 O 127.747 -2.61429 2.41937 0
M  V30 1371 O 126.606 -4.17742 3.52355 0
M  V30 1372 H 123.7 -0.654491 0.50554 0
M  V30 1373 H 126.246 -0.752014 1.52128 0
M  V30 1374 H 125.018 -2.02556 3.34793 0
M  V30 1375 H 124.641 -3.3067 2.20778 0
M  V30 1376 N 125.638 -1.25649 -0.95132 0
M  V30 1377 C 126.568 -1.08808 -2.06599 0
M  V30 1378 C 127.549 0.00382547 -1.701 0
M  V30 1379 O 128.734 -0.166325 -1.93486 0
M  V30 1380 C 125.864 -0.709542 -3.39975 0
M  V30 1381 C 124.818 -1.75206 -3.90496 0
M  V30 1382 C 124.144 -1.22811 -5.20405 0
M  V30 1383 C 125.444 -3.15153 -4.16504 0
M  V30 1384 H 127.138 -2.02048 -2.20946 0
M  V30 1385 H 124.684 -0.972835 -1.06169 0
M  V30 1386 H 126.637 -0.578649 -4.17408 0
M  V30 1387 H 125.361 0.258556 -3.25575 0
M  V30 1388 H 124.02 -1.87145 -3.15234 0
M  V30 1389 H 123.668 -0.250145 -5.02378 0
M  V30 1390 H 123.368 -1.92492 -5.55176 0
M  V30 1391 H 124.892 -1.10968 -6.00432 0
M  V30 1392 H 126.306 -3.06349 -4.84586 0
M  V30 1393 H 124.703 -3.82333 -4.62538 0
M  V30 1394 H 125.773 -3.61966 -3.22658 0
M  V30 1395 N 127.117 1.15442 -1.07289 0
M  V30 1396 C 128.047 2.22312 -0.714107 0
M  V30 1397 C 129.028 1.67467 0.298155 0
M  V30 1398 O 130.213 1.93445 0.171048 0
M  V30 1399 C 127.343 3.47124 -0.110448 0
M  V30 1400 C 126.297 4.14926 -1.04979 0
M  V30 1401 C 125.623 5.33807 -0.308924 0
M  V30 1402 C 126.923 4.64762 -2.38314 0
M  V30 1403 H 128.617 2.5258 -1.6076 0
M  V30 1404 H 126.163 1.21404 -0.77441 0
M  V30 1405 H 128.116 4.21124 0.152482 0
M  V30 1406 H 126.84 3.16187 0.81812 0
M  V30 1407 H 125.499 3.42866 -1.29764 0
M  V30 1408 H 125.147 4.99126 0.623084 0
M  V30 1409 H 124.847 5.80113 -0.935036 0
M  V30 1410 H 126.371 6.10576 -0.0537771 0
M  V30 1411 H 127.785 5.30292 -2.1786 0
M  V30 1412 H 126.182 5.21728 -2.96514 0
M  V30 1413 H 127.252 3.80434 -3.00663 0
M  V30 1414 N 128.595 0.856903 1.32268 0
M  V30 1415 C 129.842 0.461386 1.97174 0
M  V30 1416 C 130.17 -0.983491 1.67803 0
M  V30 1417 O 129.425 -1.70541 0.959903 0
M  V30 1418 C 129.724 0.649919 3.51441 0
M  V30 1419 C 129.39 2.0656 4.00804 0
M  V30 1420 C 128.052 2.45279 4.13995 0
M  V30 1421 C 130.404 2.98947 4.26943 0
M  V30 1422 C 127.732 3.75653 4.50668 0
M  V30 1423 C 130.084 4.28822 4.65075 0
M  V30 1424 C 128.748 4.67472 4.76472 0
M  V30 1425 H 128.018 0.168833 0.72151 0
M  V30 1426 H 130.665 1.08739 1.57633 0
M  V30 1427 H 128.97 -0.0593018 3.91755 0
M  V30 1428 H 130.667 0.32391 3.9969 0
M  V30 1429 H 127.257 1.75495 3.91024 0
M  V30 1430 H 131.441 2.70265 4.16258 0
M  V30 1431 H 126.697 4.05379 4.57688 0
M  V30 1432 H 130.871 5.0047 4.84255 0
M  V30 1433 H 128.498 5.68539 5.04646 0
M  V30 1434 N 130.073 -1.45103 0.615059 0
M  V30 1435 C 131.319 -2.02483 0.113347 0
M  V30 1436 C 131.652 -1.48146 -1.25564 0
M  V30 1437 O 130.927 -0.659104 -1.82992 0
M  V30 1438 C 131.21 -3.60005 0.0825278 0
M  V30 1439 C 131.063 -4.2466 1.48271 0
M  V30 1440 C 132.382 -4.35972 -0.601401 0
M  V30 1441 H 129.501 -0.735764 0.0426632 0
M  V30 1442 H 132.143 -1.72868 0.788461 0
M  V30 1443 H 130.293 -3.85367 -0.492378 0
M  V30 1444 H 131.965 -4.10458 2.10527 0
M  V30 1445 H 130.208 -3.82772 2.04127 0
M  V30 1446 H 130.879 -5.336 1.41332 0
M  V30 1447 H 133.355 -4.15947 -0.112666 0
M  V30 1448 H 132.231 -5.45697 -0.592097 0
M  V30 1449 H 132.492 -4.09391 -1.66887 0
M  V30 1450 N 131.551 -0.354651 -1.53558 0
M  V30 1451 C 132.798 0.238443 -2.01091 0
M  V30 1452 C 133.126 1.49663 -1.24222 0
M  V30 1453 O 132.381 1.93049 -0.321003 0
M  V30 1454 C 132.68 0.587121 -3.52545 0
M  V30 1455 C 132.346 -0.575472 -4.47213 0
M  V30 1456 C 131.008 -0.894497 -4.72813 0
M  V30 1457 C 133.36 -1.35489 -5.03281 0
M  V30 1458 C 130.688 -1.99511 -5.51736 0
M  V30 1459 C 133.04 -2.44583 -5.83405 0
M  V30 1460 C 131.704 -2.77033 -6.07296 0
M  V30 1461 H 130.974 0.0872526 -0.735845 0
M  V30 1462 H 133.621 -0.484859 -1.8526 0
M  V30 1463 H 131.926 1.39129 -3.66265 0
M  V30 1464 H 133.623 1.05809 -3.86789 0
M  V30 1465 H 130.213 -0.316774 -4.27428 0
M  V30 1466 H 134.397 -1.12167 -4.83459 0
M  V30 1467 H 129.653 -2.25063 -5.68469 0
M  V30 1468 H 133.827 -3.05401 -6.25862 0
M  V30 1469 H 131.454 -3.6244 -6.68237 0
M  V30 1470 N 133.029 1.57378 -0.0835403 0
M  V30 1471 C 134.254 1.98682 0.594987 0
M  V30 1472 C 134.679 0.961969 1.61641 0
M  V30 1473 O 134.037 -0.0709989 1.81161 0
M  V30 1474 C 134.085 3.38988 1.2296 0
M  V30 1475 O 133.189 3.39208 2.34546 0
M  V30 1476 H 132.53 0.646368 0.152002 0
M  V30 1477 H 135.06 2.03961 -0.161533 0
M  V30 1478 H 135.07 3.76431 1.57366 0
M  V30 1479 H 133.745 4.13107 0.481228 0
M  V30 1480 H 132.322 3.13548 2.01846 0
M  V30 1481 N 134.507 -0.190092 1.56449 0
M  V30 1482 C 135.437 -1.23816 1.97969 0
M  V30 1483 C 136.418 -1.47201 0.852395 0
M  V30 1484 O 137.603 -1.58854 1.1171 0
M  V30 1485 C 134.733 -2.5813 2.3235 0
M  V30 1486 C 133.687 -2.49348 3.47864 0
M  V30 1487 C 133.013 -3.8798 3.67934 0
M  V30 1488 C 134.313 -2.01424 4.81898 0
M  V30 1489 H 136.007 -0.89311 2.85769 0
M  V30 1490 H 133.553 -0.428177 1.37487 0
M  V30 1491 H 135.506 -3.31637 2.59991 0
M  V30 1492 H 134.23 -2.94386 1.41438 0
M  V30 1493 H 132.889 -1.78297 3.20321 0
M  V30 1494 H 132.537 -4.21597 2.74344 0
M  V30 1495 H 132.237 -3.82978 4.45648 0
M  V30 1496 H 133.761 -4.63101 3.97957 0
M  V30 1497 H 135.175 -2.64693 5.08538 0
M  V30 1498 H 133.572 -2.07413 5.63116 0
M  V30 1499 H 134.642 -0.967677 4.75146 0
M  V30 1500 N 135.985 -1.50799 -0.457987 0
M  V30 1501 C 137.396 -1.55152 -1.0385 0
M  V30 1502 C 137.747 -0.362719 -1.92818 0
M  V30 1503 O 136.872 0.522915 -2.09987 0
M  V30 1504 C 137.467 -2.81173 -1.89017 0
M  V30 1505 C 136.026 -2.88164 -2.42154 0
M  V30 1506 C 135.173 -2.49591 -1.20829 0
M  V30 1507 H 138.124 -1.56874 -0.240068 0
M  V30 1508 H 138.145 -2.63769 -2.74238 0
M  V30 1509 H 137.657 -3.67677 -1.24238 0
M  V30 1510 H 135.758 -2.06042 -3.10447 0
M  V30 1511 H 135.871 -3.91356 -2.76364 0
M  V30 1512 H 134.235 -2.02322 -1.54719 0
M  V30 1513 H 135.018 -3.38418 -0.576927 0
M  V30 1514 N 137.463 0.71206 -1.40597 0
M  V30 1515 C 138.71 1.47197 -1.39065 0
M  V30 1516 C 139.038 1.94499 0.00583891 0
M  V30 1517 O 138.293 1.68752 0.99102 0
M  V30 1518 C 138.592 2.71039 -2.32965 0
M  V30 1519 C 138.258 2.42484 -3.80148 0
M  V30 1520 C 136.92 2.34406 -4.20247 0
M  V30 1521 C 139.272 2.18598 -4.73143 0
M  V30 1522 C 136.6 2.00516 -5.51371 0
M  V30 1523 C 138.952 1.8622 -6.0457 0
M  V30 1524 C 137.616 1.76626 -6.43708 0
M  V30 1525 H 136.886 0.538634 -0.508876 0
M  V30 1526 H 139.533 0.815325 -1.73276 0
M  V30 1527 H 137.838 3.41558 -1.91951 0
M  V30 1528 H 139.535 3.29138 -2.29061 0
M  V30 1529 H 136.125 2.49659 -3.4838 0
M  V30 1530 H 140.309 2.23793 -4.42979 0
M  V30 1531 H 135.565 1.91628 -5.80593 0
M  V30 1532 H 139.739 1.66752 -6.76141 0
M  V30 1533 H 137.366 1.50133 -7.45228 0
M  V30 1534 N 138.941 1.26152 0.944643 0
M  V30 1535 C 140.187 1.12665 1.69346 0
M  V30 1536 C 140.542 -0.3273 1.89596 0
M  V30 1537 O 139.835 -1.23717 1.46303 0
M  V30 1538 C 140.029 1.82541 3.07268 0
M  V30 1539 C 139.858 3.34582 3.00475 0
M  V30 1540 C 138.628 4.03863 3.03681 0
M  V30 1541 C 140.826 4.30828 2.80877 0
M  V30 1542 N 138.808 5.42603 2.87151 0
M  V30 1543 C 140.179 5.5672 2.7288 0
M  V30 1544 C 142.234 4.21122 2.65633 0
M  V30 1545 C 140.937 6.74013 2.51196 0
M  V30 1546 C 142.963 5.38118 2.45323 0
M  V30 1547 C 142.325 6.62955 2.38055 0
M  V30 1548 H 138.424 0.467041 0.627214 0
M  V30 1549 H 141.008 1.59391 1.11815 0
M  V30 1550 H 139.179 1.38296 3.62945 0
M  V30 1551 H 140.911 1.61708 3.70989 0
M  V30 1552 H 137.666 3.55198 3.1326 0
M  V30 1553 H 138.09 6.15443 2.82063 0
M  V30 1554 H 142.732 3.25344 2.70021 0
M  V30 1555 H 140.45 7.6989 2.4555 0
M  V30 1556 H 144.036 5.32475 2.34439 0
M  V30 1557 H 142.916 7.51959 2.22546 0
M  V30 1558 N 140.419 -1.14872 1.07899 0
M  V30 1559 C 141.667 -1.85422 0.803941 0
M  V30 1560 C 141.988 -1.83051 -0.67211 0
M  V30 1561 O 141.258 -1.27532 -1.48703 0
M  V30 1562 H 139.838 -0.686537 0.294408 0
M  V30 1563 H 142.5 -1.39226 1.3639 0
M  V30 1564 H 141.596 -2.90399 1.14346 0
M  V30 1565 N 141.898 -0.863906 -1.31812 0
M  V30 1566 C 143.128 -0.485406 -2.00817 0
M  V30 1567 C 143.536 0.925007 -1.65046 0
M  V30 1568 O 142.879 1.61653 -0.872574 0
M  V30 1569 C 142.941 -0.555589 -3.55181 0
M  V30 1570 C 142.605 -1.92654 -4.14407 0
M  V30 1571 C 143.602 -2.89324 -4.31958 0
M  V30 1572 C 141.287 -2.2262 -4.50273 0
M  V30 1573 C 143.281 -4.14108 -4.84555 0
M  V30 1574 C 140.968 -3.47654 -5.02573 0
M  V30 1575 C 141.966 -4.43214 -5.19664 0
M  V30 1576 O 141.654 -5.66033 -5.70843 0
M  V30 1577 H 141.386 -0.188224 -0.649267 0
M  V30 1578 H 143.94 -1.16514 -1.69156 0
M  V30 1579 H 142.17 0.181037 -3.86276 0
M  V30 1580 H 143.859 -0.19138 -4.05449 0
M  V30 1581 H 144.625 -2.6748 -4.04573 0
M  V30 1582 H 140.504 -1.4902 -4.3625 0
M  V30 1583 H 144.048 -4.88703 -4.9781 0
M  V30 1584 H 139.945 -3.69345 -5.29391 0
M  V30 1585 H 140.713 -5.6812 -5.89222 0
M  V30 1586 N 143.376 1.44774 -0.622745 0
M  V30 1587 C 144.606 2.06187 -0.130532 0
M  V30 1588 C 145.014 1.46547 1.19669 0
M  V30 1589 O 144.357 0.579636 1.74316 0
M  V30 1590 C 144.419 3.59437 0.0674983 0
M  V30 1591 C 144.083 4.41496 -1.18026 0
M  V30 1592 C 145.08 4.75512 -2.102 0
M  V30 1593 C 142.765 4.82007 -1.41333 0
M  V30 1594 C 144.759 5.48912 -3.23998 0
M  V30 1595 C 142.446 5.55157 -2.55429 0
M  V30 1596 C 143.444 5.88528 -3.46589 0
M  V30 1597 O 143.132 6.60191 -4.58697 0
M  V30 1598 H 142.864 0.672045 -0.0730162 0
M  V30 1599 H 145.418 1.86768 -0.854802 0
M  V30 1600 H 143.648 3.77314 0.846825 0
M  V30 1601 H 145.337 4.02642 0.513209 0
M  V30 1602 H 146.103 4.4476 -1.93425 0
M  V30 1603 H 141.982 4.55457 -0.712709 0
M  V30 1604 H 145.526 5.74877 -3.95174 0
M  V30 1605 H 141.423 5.85324 -2.72151 0
M  V30 1606 H 142.191 6.78654 -4.57571 0
M  V30 1607 N 144.854 0.36279 1.53368 0
M  V30 1608 C 145.817 -0.472679 2.24273 0
M  V30 1609 C 146.817 -1.012 1.24961 0
M  V30 1610 O 148.007 -0.898194 1.49259 0
M  V30 1611 C 145.139 -1.66039 2.97731 0
M  V30 1612 H 146.332 0.14773 2.99536 0
M  V30 1613 H 143.885 0.114434 1.55881 0
M  V30 1614 H 144.62 -2.31896 2.26704 0
M  V30 1615 H 144.405 -1.28066 3.70596 0
M  V30 1616 H 145.895 -2.25252 3.51641 0
M  V30 1617 N 146.332 -1.57332 0.0918853 0
M  V30 1618 C 147.295 -2.12708 -0.85369 0
M  V30 1619 C 148.295 -1.05561 -1.213 0
M  V30 1620 O 149.485 -1.31461 -1.14296 0
M  V30 1621 C 146.617 -2.64503 -2.15061 0
M  V30 1622 H 147.81 -2.97573 -0.3729 0
M  V30 1623 H 145.363 -1.55509 -0.157072 0
M  V30 1624 H 146.098 -1.83149 -2.67632 0
M  V30 1625 H 145.883 -3.4284 -1.90272 0
M  V30 1626 H 147.373 -3.07351 -2.82711 0
M  V30 1627 N 147.81 0.181792 -1.56548 0
M  V30 1628 C 149.087 0.926765 -1.72251 0
M  V30 1629 C 149.467 2.00831 -0.650386 0
M  V30 1630 O 148.815 2.26008 0.336521 0
M  V30 1631 C 149.025 1.50106 -3.1507 0
M  V30 1632 C 150.373 1.97805 -3.75711 0
M  V30 1633 O 151.397 1.59922 -3.18282 0
M  V30 1634 O 150.256 2.67555 -4.76525 0
M  V30 1635 H 147.35 0.435506 -0.703039 0
M  V30 1636 H 149.896 0.170443 -1.68842 0
M  V30 1637 H 148.668 0.72212 -3.84579 0
M  V30 1638 H 148.291 2.32186 -3.22763 0
M  V30 1639 N 149.288 1.51039 0.449983 0
M  V30 1640 C 150.22 1.67617 1.56324 0
M  V30 1641 C 151.233 0.557083 1.52972 0
M  V30 1642 O 152.422 0.830989 1.57977 0
M  V30 1643 C 149.522 1.66402 2.95235 0
M  V30 1644 C 148.695 2.9469 3.23229 0
M  V30 1645 C 147.754 2.85832 4.41799 0
M  V30 1646 O 146.78 3.59785 4.41071 0
M  V30 1647 N 147.982 2.00821 5.44657 0
M  V30 1648 H 150.747 2.63648 1.42512 0
M  V30 1649 H 148.308 1.48767 0.638737 0
M  V30 1650 H 150.3 1.58062 3.72557 0
M  V30 1651 H 148.87 0.780182 3.02708 0
M  V30 1652 H 148.09 3.16996 2.34323 0
M  V30 1653 H 149.378 3.79636 3.38754 0
M  V30 1654 H 148.776 1.40091 5.48079 0
M  V30 1655 H 147.333 1.98368 6.20881 0
M  V30 1656 N 150.766 -0.704594 1.40972 0
M  V30 1657 C 152.012 -1.46546 1.41053 0
M  V30 1658 C 152.367 -1.92393 0.0159714 0
M  V30 1659 O 151.66 -1.66017 -0.956506 0
M  V30 1660 C 151.854 -2.698 2.34399 0
M  V30 1661 C 151.683 -2.36008 3.82793 0
M  V30 1662 C 150.453 -2.26812 4.51536 0
M  V30 1663 C 152.651 -1.99565 4.74003 0
M  V30 1664 N 150.633 -1.8581 5.85105 0
M  V30 1665 C 152.004 -1.69251 5.96451 0
M  V30 1666 C 154.059 -1.86296 4.61734 0
M  V30 1667 C 152.762 -1.27003 7.07999 0
M  V30 1668 C 154.788 -1.45452 5.73234 0
M  V30 1669 C 154.15 -1.16043 6.94776 0
M  V30 1670 H 150.249 -0.533896 0.571383 0
M  V30 1671 H 152.833 -0.816061 1.76773 0
M  V30 1672 H 151.004 -3.32473 2.00789 0
M  V30 1673 H 152.736 -3.36214 2.25261 0
M  V30 1674 H 149.491 -2.44913 4.05357 0
M  V30 1675 H 149.915 -1.67817 6.55871 0
M  V30 1676 H 154.557 -2.0769 3.68273 0
M  V30 1677 H 152.275 -1.04353 8.01334 0
M  V30 1678 H 155.861 -1.35748 5.65742 0
M  V30 1679 H 154.741 -0.84915 7.79589 0
M  V30 1680 N 152.244 -1.26651 -0.937939 0
M  V30 1681 C 153.49 -1.12553 -1.687 0
M  V30 1682 C 153.823 0.329782 -1.91379 0
M  V30 1683 O 153.098 1.24202 -1.4968 0
M  V30 1684 C 153.381 -1.89862 -3.05981 0
M  V30 1685 C 153.234 -3.43318 -2.90607 0
M  V30 1686 C 154.553 -1.69499 -4.0615 0
M  V30 1687 H 151.672 -0.410257 -0.612257 0
M  V30 1688 H 154.314 -1.55685 -1.08913 0
M  V30 1689 H 152.464 -1.53204 -3.57017 0
M  V30 1690 H 154.136 -3.89747 -2.46769 0
M  V30 1691 H 152.379 -3.70179 -2.26164 0
M  V30 1692 H 153.05 -3.92642 -3.8799 0
M  V30 1693 H 155.526 -2.01442 -3.64088 0
M  V30 1694 H 154.402 -2.26002 -5.00214 0
M  V30 1695 H 154.663 -0.640365 -4.37438 0
M  V30 1696 N 153.722 1.14298 -1.08507 0
M  V30 1697 C 154.969 1.85359 -0.815373 0
M  V30 1698 C 155.297 1.83001 0.658865 0
M  V30 1699 O 154.552 1.25655 1.50031 0
M  V30 1700 C 154.851 3.33547 -1.28379 0
M  V30 1701 C 154.517 3.56093 -2.76602 0
M  V30 1702 C 153.179 3.61955 -3.17084 0
M  V30 1703 C 155.531 3.64834 -3.72217 0
M  V30 1704 C 152.859 3.74082 -4.51973 0
M  V30 1705 C 155.211 3.78487 -5.06883 0
M  V30 1706 C 153.875 3.82598 -5.46969 0
M  V30 1707 H 153.145 0.678276 -0.298366 0
M  V30 1708 H 155.792 1.35002 -1.35819 0
M  V30 1709 H 154.097 3.86191 -0.660593 0
M  V30 1710 H 155.794 3.86959 -1.05186 0
M  V30 1711 H 152.384 3.52179 -2.4427 0
M  V30 1712 H 156.568 3.59595 -3.42061 0
M  V30 1713 H 151.824 3.75527 -4.82483 0
M  V30 1714 H 155.998 3.84193 -5.80834 0
M  V30 1715 H 153.625 3.91747 -6.51489 0
M  V30 1716 N 155.201 0.870884 1.31352 0
M  V30 1717 C 156.449 0.48132 1.96285 0
M  V30 1718 C 156.77 -0.969813 1.69173 0
M  V30 1719 O 156.04 -1.67998 1.00764 0
M  V30 1720 H 154.62 0.175002 0.726212 0
M  V30 1721 H 157.282 1.11087 1.60143 0
M  V30 1722 H 156.378 0.639825 3.05471 0
M  V30 1723 N 156.679 -1.44442 0.630414 0
M  V30 1724 C 157.609 -2.33418 -0.0618083 0
M  V30 1725 C 158.59 -1.48165 -0.835541 0
M  V30 1726 O 159.775 -1.76886 -0.801564 0
M  V30 1727 C 156.905 -3.31222 -1.04449 0
M  V30 1728 C 155.859 -4.26288 -0.382436 0
M  V30 1729 C 155.185 -5.13954 -1.47497 0
M  V30 1730 C 156.485 -5.1744 0.710865 0
M  V30 1731 H 158.179 -2.91548 0.681184 0
M  V30 1732 H 155.725 -1.40191 0.329026 0
M  V30 1733 H 157.678 -3.92351 -1.53748 0
M  V30 1734 H 156.402 -2.71299 -1.81836 0
M  V30 1735 H 155.061 -3.6649 0.0899054 0
M  V30 1736 H 154.709 -4.50385 -2.2397 0
M  V30 1737 H 154.409 -5.7837 -1.03737 0
M  V30 1738 H 155.933 -5.77955 -1.96979 0
M  V30 1739 H 157.347 -5.72509 0.300996 0
M  V30 1740 H 155.744 -5.90455 1.07156 0
M  V30 1741 H 156.814 -4.58496 1.57829 0
M  V30 1742 N 158.157 -0.370918 -1.53173 0
M  V30 1743 C 159.405 0.216673 -2.00935 0
M  V30 1744 C 159.726 1.48845 -1.25977 0
M  V30 1745 O 158.996 1.92286 -0.374551 0
M  V30 1746 H 157.576 0.0830565 -0.742368 0
M  V30 1747 H 160.238 -0.49838 -1.8842 0
M  V30 1748 H 159.334 0.439893 -3.08984 0
M  V30 1749 N 159.635 1.57281 -0.100228 0
M  V30 1750 C 160.565 2.17328 0.853857 0
M  V30 1751 C 161.546 1.10804 1.2906 0
M  V30 1752 O 162.731 1.38963 1.35657 0
M  V30 1753 C 159.861 2.75772 2.11109 0
M  V30 1754 C 158.815 3.87713 1.81279 0
M  V30 1755 C 158.141 4.32882 3.13874 0
M  V30 1756 C 159.441 5.10677 1.09574 0
M  V30 1757 H 161.135 2.97305 0.353545 0
M  V30 1758 H 158.681 1.43009 0.168612 0
M  V30 1759 H 160.634 3.16433 2.78296 0
M  V30 1760 H 159.358 1.93057 2.63432 0
M  V30 1761 H 158.017 3.476 1.16489 0
M  V30 1762 H 157.665 3.47051 3.64095 0
M  V30 1763 H 157.365 5.08358 2.94696 0
M  V30 1764 H 158.889 4.7618 3.82211 0
M  V30 1765 H 160.303 5.48474 1.66879 0
M  V30 1766 H 158.7 5.91615 1.00557 0
M  V30 1767 H 159.77 4.84835 0.0793299 0
M  V30 1768 N 161.113 -0.173488 1.56642 0
M  V30 1769 C 162.353 -0.896984 1.83667 0
M  V30 1770 C 162.717 -1.79523 0.680842 0
M  V30 1771 O 163.918 -2.55616 0.831488 0
M  V30 1772 C 162.189 -1.67351 3.15798 0
M  V30 1773 S 163.748 -2.44607 3.64298 0
M  V30 1774 H 160.566 -0.300464 0.644393 0
M  V30 1775 H 163.168 -0.158775 1.94854 0
M  V30 1776 H 161.872 -1.00462 3.97914 0
M  V30 1777 H 161.403 -2.45313 3.07546 0
M  V30 1778 H 163.418 -3.69261 3.31452 0
M  V30 1779 N 162.591 -1.51276 -0.441967 0
M  V30 1780 C 163.538 -1.72256 -1.53612 0
M  V30 1781 C 164.508 -0.564164 -1.56225 0
M  V30 1782 O 165.693 -0.798074 -1.73307 0
M  V30 1783 C 162.833 -1.84932 -2.91366 0
M  V30 1784 C 161.946 -3.12459 -2.98317 0
M  V30 1785 C 161.081 -3.15758 -4.27166 0
M  V30 1786 C 160.12 -4.37619 -4.27967 0
M  V30 1787 N 159.257 -4.38493 -5.48333 0
M  V30 1788 H 164.097 -2.65654 -1.35026 0
M  V30 1789 H 161.634 -1.31662 -0.656009 0
M  V30 1790 H 163.592 -1.90263 -3.7129 0
M  V30 1791 H 162.222 -0.949461 -3.08521 0
M  V30 1792 H 161.274 -3.1646 -2.11086 0
M  V30 1793 H 162.586 -4.02382 -2.94771 0
M  V30 1794 H 161.74 -3.19979 -5.15459 0
M  V30 1795 H 160.479 -2.23715 -4.33362 0
M  V30 1796 H 159.484 -4.33579 -3.38067 0
M  V30 1797 H 160.709 -5.30921 -4.23438 0
M  V30 1798 H 158.655 -3.49318 -5.55259 0
M  V30 1799 H 158.572 -5.22219 -5.46647 0
M  V30 1800 H 159.84 -4.469 -6.38671 0
M  V30 1801 N 164.069 0.697108 -1.41344 0
M  V30 1802 C 165.002 1.82134 -1.37486 0
M  V30 1803 C 165.98 1.60784 -0.242351 0
M  V30 1804 O 167.164 1.83553 -0.429012 0
M  V30 1805 C 164.291 3.18788 -1.14421 0
M  V30 1806 C 163.337 3.58932 -2.3037 0
M  V30 1807 S 164.17 3.63916 -3.92843 0
M  V30 1808 C 165.326 5.03298 -3.72078 0
M  V30 1809 H 165.559 1.85129 -2.32625 0
M  V30 1810 H 163.092 0.865671 -1.2785 0
M  V30 1811 H 165.05 3.97677 -1.018 0
M  V30 1812 H 163.711 3.13404 -0.20905 0
M  V30 1813 H 162.904 4.58202 -2.09922 0
M  V30 1814 H 162.506 2.87347 -2.39391 0
M  V30 1815 H 164.798 5.90753 -3.31688 0
M  V30 1816 H 165.741 5.28788 -4.70945 0
M  V30 1817 H 166.149 4.74764 -3.05384 0
M  V30 1818 N 165.547 1.27147 0.931209 0
M  V30 1819 C 166.796 1.12664 1.67302 0
M  V30 1820 C 167.109 -0.327718 1.92835 0
M  V30 1821 O 168.315 -0.593392 2.64936 0
M  V30 1822 C 166.771 1.9683 3.01307 0
M  V30 1823 C 166.379 3.46901 2.83485 0
M  V30 1824 C 168.123 1.90985 3.79111 0
M  V30 1825 C 166.03 4.23279 4.13024 0
M  V30 1826 H 164.96 0.41803 0.627509 0
M  V30 1827 H 167.611 1.51539 1.03481 0
M  V30 1828 H 165.993 1.50797 3.66164 0
M  V30 1829 H 167.167 4.00773 2.27415 0
M  V30 1830 H 165.482 3.54088 2.19113 0
M  V30 1831 H 168.079 2.45328 4.75098 0
M  V30 1832 H 168.422 0.882718 4.06834 0
M  V30 1833 H 168.955 2.34895 3.21044 0
M  V30 1834 H 165.694 5.26503 3.90481 0
M  V30 1835 H 165.214 3.74186 4.6877 0
M  V30 1836 H 166.893 4.32265 4.81411 0
M  V30 1837 N 167.025 -1.13721 1.09112 0
M  V30 1838 C 168.25 -1.89314 0.847053 0
M  V30 1839 C 168.675 -1.78416 -0.595774 0
M  V30 1840 O 168.033 -1.12942 -1.41823 0
M  V30 1841 C 168.081 -3.3701 1.28284 0
M  V30 1842 O 167.185 -4.10054 0.439267 0
M  V30 1843 H 166.526 -0.588745 0.307044 0
M  V30 1844 H 169.056 -1.43902 1.45442 0
M  V30 1845 H 169.066 -3.87834 1.26683 0
M  V30 1846 H 167.741 -3.4426 2.33363 0
M  V30 1847 H 166.318 -3.69266 0.519312 0
M  V30 1848 N 168.503 -0.877838 -1.30888 0
M  V30 1849 C 169.749 -0.502773 -1.97088 0
M  V30 1850 C 170.104 0.936274 -1.68082 0
M  V30 1851 O 169.397 1.65162 -0.971196 0
M  V30 1852 C 169.591 -0.705748 -3.50363 0
M  V30 1853 C 169.42 -2.16297 -3.94266 0
M  V30 1854 C 168.19 -2.80614 -4.20219 0
M  V30 1855 C 170.388 -3.13606 -4.07622 0
M  V30 1856 N 168.37 -4.17007 -4.50532 0
M  V30 1857 C 169.741 -4.35051 -4.41736 0
M  V30 1858 C 171.796 -3.09491 -3.90026 0
M  V30 1859 C 170.499 -5.52911 -4.60089 0
M  V30 1860 C 172.525 -4.26616 -4.09576 0
M  V30 1861 C 171.887 -5.46825 -4.44029 0
M  V30 1862 H 167.986 -0.233168 -0.746429 0
M  V30 1863 H 170.57 -1.13408 -1.58261 0
M  V30 1864 H 168.741 -0.103976 -3.88261 0
M  V30 1865 H 170.473 -0.298291 -4.03599 0
M  V30 1866 H 167.228 -2.3152 -4.13153 0
M  V30 1867 H 167.652 -4.87426 -4.69834 0
M  V30 1868 H 172.294 -2.17657 -3.62471 0
M  V30 1869 H 170.012 -6.45255 -4.86489 0
M  V30 1870 H 173.598 -4.24894 -3.97438 0
M  V30 1871 H 172.478 -6.35947 -4.58848 0
M  V30 1872 N 169.982 1.44106 -0.638065 0
M  V30 1873 C 170.915 2.27924 0.112161 0
M  V30 1874 C 171.893 1.38945 0.844574 0
M  V30 1875 O 173.077 1.68386 0.847248 0
M  V30 1876 C 170.204 3.18029 1.16512 0
M  V30 1877 C 169.25 4.23163 0.532458 0
M  V30 1878 S 170.083 5.31131 -0.682666 0
M  V30 1879 C 171.239 6.24805 0.37013 0
M  V30 1880 H 171.472 2.91205 -0.598887 0
M  V30 1881 H 169.005 1.48394 -0.426441 0
M  V30 1882 H 170.963 3.70492 1.76766 0
M  V30 1883 H 169.624 2.53955 1.8484 0
M  V30 1884 H 168.817 4.86252 1.32571 0
M  V30 1885 H 168.419 3.74 0.00437644 0
M  V30 1886 H 170.711 6.66042 1.24071 0
M  V30 1887 H 171.654 7.07741 -0.225349 0
M  V30 1888 H 172.062 5.60154 0.699141 0
M  V30 1889 N 171.46 0.379036 1.52974 0
M  V30 1890 C 172.69 -0.20649 2.05566 0
M  V30 1891 C 173.098 -1.41906 1.25137 0
M  V30 1892 O 172.441 -1.81421 0.288464 0
M  V30 1893 C 172.503 -0.651086 3.53555 0
M  V30 1894 C 172.167 0.446626 4.54812 0
M  V30 1895 C 173.164 1.30079 5.03364 0
M  V30 1896 C 170.849 0.610719 4.98573 0
M  V30 1897 C 172.843 2.30426 5.94292 0
M  V30 1898 C 170.53 1.61754 5.89304 0
M  V30 1899 C 171.528 2.46274 6.37054 0
M  V30 1900 O 171.216 3.45237 7.25994 0
M  V30 1901 H 170.948 -0.0372381 0.674974 0
M  V30 1902 H 173.502 0.539718 1.98182 0
M  V30 1903 H 171.732 -1.44911 3.58522 0
M  V30 1904 H 173.421 -1.16112 3.88938 0
M  V30 1905 H 174.187 1.18527 4.70294 0
M  V30 1906 H 170.066 -0.0374044 4.60985 0
M  V30 1907 H 173.61 2.96432 6.31485 0
M  V30 1908 H 169.507 1.73348 6.21788 0
M  V30 1909 H 170.275 3.41124 7.44027 0
M  V30 1910 N 172.938 -1.57226 0.108567 0
M  V30 1911 C 173.868 -2.17778 -0.84232 0
M  V30 1912 C 174.849 -1.11487 -1.2847 0
M  V30 1913 O 176.034 -1.39681 -1.34918 0
M  V30 1914 C 173.164 -2.76888 -2.09644 0
M  V30 1915 C 172.118 -3.88669 -1.79221 0
M  V30 1916 C 171.444 -4.34541 -3.11574 0
M  V30 1917 C 172.744 -5.11251 -1.06864 0
M  V30 1918 H 174.438 -2.97489 -0.337774 0
M  V30 1919 H 171.984 -1.43097 -0.161025 0
M  V30 1920 H 173.937 -3.17904 -2.76614 0
M  V30 1921 H 172.661 -1.94451 -2.62405 0
M  V30 1922 H 171.32 -3.48213 -1.14644 0
M  V30 1923 H 170.968 -3.48977 -3.62249 0
M  V30 1924 H 170.668 -5.09914 -2.91996 0
M  V30 1925 H 172.192 -4.782 -3.7968 0
M  V30 1926 H 173.606 -5.49352 -1.63968 0
M  V30 1927 H 172.003 -5.9214 -0.974178 0
M  V30 1928 H 173.073 -4.8487 -0.0536168 0
M  V30 1929 N 174.416 0.165178 -1.56732 0
M  V30 1930 C 175.662 0.882112 -1.82611 0
M  V30 1931 C 175.995 1.81628 -0.687378 0
M  V30 1932 O 175.27 1.92009 0.310267 0
M  V30 1933 C 175.553 1.67245 -3.18906 0
M  V30 1934 C 175.406 0.760987 -4.43316 0
M  V30 1935 C 176.725 2.63884 -3.52212 0
M  V30 1936 H 173.844 0.319242 -0.664269 0
M  V30 1937 H 176.486 0.148052 -1.89422 0
M  V30 1938 H 174.636 2.29824 -3.1323 0
M  V30 1939 H 176.308 0.147596 -4.61064 0
M  V30 1940 H 174.551 0.0694102 -4.33744 0
M  V30 1941 H 175.222 1.34962 -5.35247 0
M  V30 1942 H 177.698 2.11429 -3.58381 0
M  V30 1943 H 176.574 3.16245 -4.48643 0
M  V30 1944 H 176.835 3.44377 -2.77231 0
M  V30 1945 N 175.894 1.51508 0.433938 0
M  V30 1946 C 177.142 1.6402 1.18075 0
M  V30 1947 C 177.463 0.360328 1.91642 0
M  V30 1948 O 176.733 -0.623945 1.85698 0
M  V30 1949 H 175.313 0.6045 0.43885 0
M  V30 1950 H 177.975 1.88452 0.497178 0
M  V30 1951 H 177.071 2.46949 1.90847 0
M  V30 1952 N 177.372 -0.689602 1.41712 0
M  V30 1953 C 178.619 -1.44966 1.4139 0
M  V30 1954 C 178.947 -1.94484 0.025105 0
M  V30 1955 O 178.202 -1.70307 -0.964048 0
M  V30 1956 C 178.501 -2.67298 2.37247 0
M  V30 1957 C 178.167 -2.36405 3.83958 0
M  V30 1958 C 176.829 -2.27691 4.23923 0
M  V30 1959 C 179.181 -2.11043 4.76561 0
M  V30 1960 C 176.509 -1.91719 5.54492 0
M  V30 1961 C 178.861 -1.76578 6.07456 0
M  V30 1962 C 177.525 -1.66363 6.46436 0
M  V30 1963 H 176.795 -0.53047 0.517381 0
M  V30 1964 H 179.442 -0.787655 1.74552 0
M  V30 1965 H 177.747 -3.38461 1.9736 0
M  V30 1966 H 179.444 -3.25452 2.34269 0
M  V30 1967 H 176.034 -2.44085 3.52308 0
M  V30 1968 H 180.218 -2.16717 4.46483 0
M  V30 1969 H 175.474 -1.82367 5.83568 0
M  V30 1970 H 179.648 -1.55974 6.78708 0
M  V30 1971 H 177.275 -1.38258 7.47522 0
M  V30 1972 N 178.85 -1.27639 -0.924453 0
M  V30 1973 C 180.08 -1.16819 -1.70402 0
M  V30 1974 C 180.488 0.277191 -1.87158 0
M  V30 1975 O 179.831 1.20025 -1.39067 0
M  V30 1976 C 179.893 -1.78305 -3.12166 0
M  V30 1977 C 179.557 -3.27502 -3.18734 0
M  V30 1978 C 180.554 -4.2409 -3.00738 0
M  V30 1979 C 178.239 -3.68269 -3.4159 0
M  V30 1980 C 180.233 -5.59422 -3.05492 0
M  V30 1981 C 177.92 -5.0373 -3.45977 0
M  V30 1982 C 178.918 -5.99116 -3.27946 0
M  V30 1983 O 178.606 -7.32108 -3.32074 0
M  V30 1984 H 178.338 -0.406931 -0.539799 0
M  V30 1985 H 180.892 -1.69078 -1.16626 0
M  V30 1986 H 179.122 -1.20528 -3.67437 0
M  V30 1987 H 180.811 -1.62154 -3.72103 0
M  V30 1988 H 181.577 -3.93931 -2.82919 0
M  V30 1989 H 177.456 -2.94496 -3.54673 0
M  V30 1990 H 181 -6.33852 -2.91337 0
M  V30 1991 H 176.897 -5.33543 -3.63321 0
M  V30 1992 H 177.665 -7.40598 -3.48507 0
M  V30 1993 N 180.328 1.1314 -1.09713 0
M  V30 1994 C 181.553 1.88862 -0.857081 0
M  V30 1995 C 181.978 1.78729 0.586304 0
M  V30 1996 O 181.336 1.13692 1.41222 0
M  V30 1997 C 181.384 3.36325 -1.30069 0
M  V30 1998 O 180.488 4.09815 -0.461007 0
M  V30 1999 H 179.829 0.587108 -0.310162 0
M  V30 2000 H 182.359 1.43129 -1.46203 0
M  V30 2001 H 182.369 3.87157 -1.28738 0
M  V30 2002 H 181.044 3.43017 -2.35185 0
M  V30 2003 H 179.621 3.68986 -0.538888 0
M  V30 2004 N 181.806 0.884767 1.30421 0
M  V30 2005 C 183.054 0.502112 1.95763 0
M  V30 2006 C 183.375 -0.951815 1.70192 0
M  V30 2007 O 182.645 -1.6692 1.0254 0
M  V30 2008 H 181.225 0.182694 0.724315 0
M  V30 2009 H 183.887 1.1278 1.58955 0
M  V30 2010 H 182.983 0.672188 3.04775 0
M  V30 2011 N 183.284 -1.43765 0.645699 0
M  V30 2012 C 184.533 -2.01116 0.153412 0
M  V30 2013 C 184.846 -1.51493 -1.23731 0
M  V30 2014 O 186.052 -2.01067 -1.8244 0
M  V30 2015 C 184.508 -3.59206 0.223473 0
M  V30 2016 C 184.116 -4.17823 1.61642 0
M  V30 2017 C 185.86 -4.23972 -0.211597 0
M  V30 2018 C 183.767 -5.68183 1.64081 0
M  V30 2019 H 182.697 -0.752093 0.0535891 0
M  V30 2020 H 185.348 -1.6482 0.806633 0
M  V30 2021 H 183.73 -3.92867 -0.497118 0
M  V30 2022 H 184.904 -3.95674 2.36176 0
M  V30 2023 H 183.219 -3.65399 1.99681 0
M  V30 2024 H 185.816 -5.34275 -0.213112 0
M  V30 2025 H 186.159 -3.97352 -1.24165 0
M  V30 2026 H 186.692 -3.95166 0.456988 0
M  V30 2027 H 183.431 -5.99559 2.64971 0
M  V30 2028 H 182.951 -5.9241 0.938611 0
M  V30 2029 H 184.63 -6.32085 1.3812 0
M  V30 2030 N 184.763 -0.387143 -1.52771 0
M  V30 2031 C 186.01 0.195735 -2.01552 0
M  V30 2032 C 186.338 1.46995 -1.27369 0
M  V30 2033 O 185.593 1.92325 -0.361879 0
M  V30 2034 C 185.892 0.512209 -3.53711 0
M  V30 2035 C 185.558 -0.670202 -4.45891 0
M  V30 2036 C 184.22 -0.994586 -4.70809 0
M  V30 2037 C 186.572 -1.46134 -5.00294 0
M  V30 2038 C 183.9 -2.11169 -5.4738 0
M  V30 2039 C 186.252 -2.56903 -5.78086 0
M  V30 2040 C 184.916 -2.89852 -6.01284 0
M  V30 2041 H 184.186 0.0716246 -0.73753 0
M  V30 2042 H 186.833 -0.524046 -1.8419 0
M  V30 2043 H 185.138 1.31329 -3.69134 0
M  V30 2044 H 186.835 0.975804 -3.88946 0
M  V30 2045 H 183.425 -0.407366 -4.2666 0
M  V30 2046 H 187.609 -1.22397 -4.80971 0
M  V30 2047 H 182.865 -2.3707 -5.63567 0
M  V30 2048 H 187.039 -3.18608 -6.19243 0
M  V30 2049 H 184.666 -3.76533 -6.60399 0
M  V30 2050 N 186.241 1.57166 -0.116904 0
M  V30 2051 C 187.488 1.95123 0.541603 0
M  V30 2052 C 187.816 1.00006 1.6682 0
M  V30 2053 O 187.071 0.0235658 1.95686 0
M  V30 2054 C 187.37 3.39508 1.11664 0
M  V30 2055 C 187.036 4.50762 0.111606 0
M  V30 2056 C 185.698 4.80918 -0.164758 0
M  V30 2057 C 188.05 5.18036 -0.573438 0
M  V30 2058 C 185.378 5.75666 -1.13249 0
M  V30 2059 C 187.73 6.13824 -1.52978 0
M  V30 2060 C 186.394 6.42374 -1.81415 0
M  V30 2061 H 185.664 0.714005 0.198187 0
M  V30 2062 H 188.311 1.9048 -0.197365 0
M  V30 2063 H 186.616 3.40835 1.93232 0
M  V30 2064 H 188.313 3.66189 1.63422 0
M  V30 2065 H 184.903 4.27272 0.337192 0
M  V30 2066 H 189.087 4.94896 -0.373092 0
M  V30 2067 H 184.343 5.96092 -1.35958 0
M  V30 2068 H 188.517 6.65039 -2.06629 0
M  V30 2069 H 186.144 7.15599 -2.56557 0
M  V30 2070 N 187.719 -0.156864 1.56817 0
M  V30 2071 C 188.965 -0.872416 1.83076 0
M  V30 2072 C 189.298 -1.81261 0.697001 0
M  V30 2073 O 188.573 -1.92171 -0.30008 0
M  V30 2074 C 188.856 -1.65551 3.19789 0
M  V30 2075 C 188.709 -0.737467 4.43713 0
M  V30 2076 C 190.028 -2.62012 3.53606 0
M  V30 2077 H 187.147 -0.315715 0.665953 0
M  V30 2078 H 189.789 -0.138004 1.89498 0
M  V30 2079 H 187.939 -2.28159 3.14445 0
M  V30 2080 H 189.611 -0.123143 4.61136 0
M  V30 2081 H 187.854 -0.0464067 4.33775 0
M  V30 2082 H 188.525 -1.32122 5.35955 0
M  V30 2083 H 191.001 -2.09525 3.59497 0
M  V30 2084 H 189.877 -3.13861 4.50314 0
M  V30 2085 H 190.138 -3.42902 2.79053 0
M  V30 2086 N 189.197 -1.51736 -0.425897 0
M  V30 2087 C 190.13 -1.68574 -1.53812 0
M  V30 2088 C 191.108 -0.53328 -1.53606 0
M  V30 2089 O 192.292 -0.758555 -1.72564 0
M  V30 2090 C 189.419 -1.70977 -2.92377 0
M  V30 2091 C 188.465 -2.92324 -3.10563 0
M  V30 2092 S 189.298 -4.52952 -2.85648 0
M  V30 2093 C 190.454 -4.58117 -4.26474 0
M  V30 2094 H 190.687 -2.62647 -1.39298 0
M  V30 2095 H 188.22 -1.41564 -0.616361 0
M  V30 2096 H 190.178 -1.73047 -3.72243 0
M  V30 2097 H 188.839 -0.78061 -3.04245 0
M  V30 2098 H 188.032 -2.90439 -4.11899 0
M  V30 2099 H 187.634 -2.88055 -2.38538 0
M  V30 2100 H 189.926 -4.34462 -5.19855 0
M  V30 2101 H 190.869 -5.59983 -4.33388 0
M  V30 2102 H 191.277 -3.8732 -4.10662 0
M  V30 2103 N 190.675 0.682077 -1.42076 0
M  V30 2104 C 191.605 1.80796 -1.47767 0
M  V30 2105 C 192.586 1.6677 -0.334954 0
M  V30 2106 O 193.771 1.863 -0.548264 0
M  V30 2107 C 190.901 3.19038 -1.37229 0
M  V30 2108 C 189.855 3.47789 -2.49453 0
M  V30 2109 C 189.181 4.8553 -2.23975 0
M  V30 2110 C 190.481 3.45411 -3.91776 0
M  V30 2111 H 192.175 1.7629 -2.41997 0
M  V30 2112 H 189.721 0.846721 -1.16476 0
M  V30 2113 H 191.674 3.97528 -1.39821 0
M  V30 2114 H 190.398 3.24204 -0.394907 0
M  V30 2115 H 189.057 2.71657 -2.46166 0
M  V30 2116 H 188.705 4.87337 -1.24547 0
M  V30 2117 H 188.405 5.0573 -2.99184 0
M  V30 2118 H 189.929 5.66312 -2.28304 0
M  V30 2119 H 191.343 4.13882 -3.96705 0
M  V30 2120 H 189.74 3.77145 -4.66778 0
M  V30 2121 H 190.81 2.44122 -4.18966 0
M  V30 2122 N 192.153 1.28127 0.917671 0
M  V30 2123 C 193.086 1.06039 2.02067 0
M  V30 2124 C 194.064 -0.0223285 1.62585 0
M  V30 2125 O 195.248 0.124823 1.88086 0
M  V30 2126 C 192.375 0.610596 3.33151 0
M  V30 2127 C 191.421 1.68937 3.91615 0
M  V30 2128 S 192.254 3.28437 4.22953 0
M  V30 2129 C 193.41 2.85283 5.57103 0
M  V30 2130 H 193.643 1.99425 2.20493 0
M  V30 2131 H 191.176 1.12071 1.06205 0
M  V30 2132 H 193.134 0.357778 4.08938 0
M  V30 2133 H 191.795 -0.303364 3.12632 0
M  V30 2134 H 190.988 1.32619 4.86239 0
M  V30 2135 H 190.59 1.89478 3.2245 0
M  V30 2136 H 192.882 2.3121 6.36827 0
M  V30 2137 H 193.825 3.7869 5.98331 0
M  V30 2138 H 194.233 2.24118 5.18104 0
M  V30 2139 N 193.631 -1.12557 1.10312 0
M  V30 2140 C 194.856 -1.88405 0.867085 0
M  V30 2141 C 195.281 -1.79038 -0.576817 0
M  V30 2142 O 194.639 -1.14439 -1.40618 0
M  V30 2143 C 194.687 -3.3563 1.31851 0
M  V30 2144 O 193.791 -4.09565 0.482734 0
M  V30 2145 H 193.132 -0.585455 0.313271 0
M  V30 2146 H 195.662 -1.42352 1.4696 0
M  V30 2147 H 195.672 -3.86469 1.3079 0
M  V30 2148 H 194.347 -3.41765 2.37001 0
M  V30 2149 H 192.924 -3.68695 0.558448 0
M  V30 2150 N 195.109 -0.891671 -1.2995 0
M  V30 2151 C 196.358 -0.509521 -1.95158 0
M  V30 2152 C 196.671 0.947388 -1.71125 0
M  V30 2153 O 197.877 1.43669 -2.30372 0
M  V30 2154 C 196.333 -0.860315 -3.49466 0
M  V30 2155 C 195.941 -2.33545 -3.8231 0
M  V30 2156 C 197.685 -0.547687 -4.20952 0
M  V30 2157 C 195.592 -2.62752 -5.29826 0
M  V30 2158 H 194.522 -0.18682 -0.730489 0
M  V30 2159 H 197.173 -1.08756 -1.47798 0
M  V30 2160 H 195.555 -0.211285 -3.95436 0
M  V30 2161 H 196.729 -3.02936 -3.47227 0
M  V30 2162 H 195.044 -2.61629 -3.23944 0
M  V30 2163 H 197.641 -0.742854 -5.29515 0
M  V30 2164 H 197.984 0.51332 -4.13123 0
M  V30 2165 H 198.517 -1.1542 -3.80688 0
M  V30 2166 H 195.256 -3.6762 -5.42712 0
M  V30 2167 H 194.776 -1.97977 -5.66185 0
M  V30 2168 H 196.455 -2.48601 -5.97333 0
M  V30 2169 N 196.587 1.43421 -0.653314 0
M  V30 2170 C 197.864 1.95361 -0.0966581 0
M  V30 2171 C 198.244 1.59461 1.38331 0
M  V30 2172 O 197.592 0.879777 2.10884 0
M  V30 2173 C 197.802 3.47311 -0.342988 0
M  V30 2174 C 199.15 4.23875 -0.24798 0
M  V30 2175 O 200.174 3.55133 -0.275553 0
M  V30 2176 O 199.033 5.4623 -0.171771 0
M  V30 2177 H 196.127 0.826945 0.00956291 0
M  V30 2178 H 198.673 1.5336 -0.726558 0
M  V30 2179 H 197.445 3.66569 -1.36906 0
M  V30 2180 H 197.068 3.9631 0.319975 0
M  V30 2181 N 198.065 0.39524 1.52563 0
M  V30 2182 C 199.481 0.0454682 1.59535 0
M  V30 2183 C 199.681 -1.44056 1.4089 0
M  V30 2184 O 198.737 -2.20579 1.22888 0
M  V30 2185 C 200.05 0.527963 2.96029 0
M  V30 2186 C 201.598 0.484733 3.09224 0
M  V30 2187 C 202.073 0.943512 4.48176 0
M  V30 2188 N 203.564 0.899765 4.54377 0
M  V30 2189 C 204.299 1.22609 5.60138 0
M  V30 2190 N 203.795 1.62319 6.73516 0
M  V30 2191 N 205.588 1.14696 5.50274 0
M  V30 2192 H 197.739 1.36261 1.62931 0
M  V30 2193 H 200.002 0.558887 0.765735 0
M  V30 2194 H 199.708 1.56607 3.14908 0
M  V30 2195 H 199.582 -0.0698056 3.77135 0
M  V30 2196 H 201.969 -0.544298 2.90037 0
M  V30 2197 H 202.05 1.11838 2.30056 0
M  V30 2198 H 201.694 1.9708 4.68104 0
M  V30 2199 H 201.624 0.286817 5.25818 0
M  V30 2200 H 204.115 0.607632 3.72983 0
M  V30 2201 H 204.428 1.85567 7.5019 0
M  V30 2202 H 202.773 1.66211 6.74833 0
M  V30 2203 H 205.964 0.835701 4.6058 0
M  V30 2204 H 206.137 1.40459 6.32594 0
M  V30 2205 N 199.544 -1.57102 0.125237 0
M  V30 2206 C 200.774 -1.99472 -0.538015 0
M  V30 2207 C 201.182 -1.00395 -1.60366 0
M  V30 2208 O 200.525 0.0103875 -1.83697 0
M  V30 2209 C 200.587 -3.38262 -1.21734 0
M  V30 2210 C 200.251 -4.56021 -0.298897 0
M  V30 2211 C 201.248 -5.17817 0.464943 0
M  V30 2212 C 198.933 -5.01869 -0.208149 0
M  V30 2213 C 200.927 -6.23852 1.3072 0
M  V30 2214 C 198.614 -6.07763 0.637736 0
M  V30 2215 C 199.612 -6.68622 1.39403 0
M  V30 2216 O 199.3 -7.7247 2.22586 0
M  V30 2217 H 199.032 -0.659934 -0.146501 0
M  V30 2218 H 201.586 -2.04321 0.210267 0
M  V30 2219 H 199.816 -3.30185 -2.01282 0
M  V30 2220 H 201.505 -3.6488 -1.77813 0
M  V30 2221 H 202.271 -4.83308 0.404741 0
M  V30 2222 H 198.15 -4.54241 -0.786522 0
M  V30 2223 H 201.694 -6.71284 1.898 0
M  V30 2224 H 197.591 -6.41701 0.699309 0
M  V30 2225 H 198.359 -7.89595 2.15596 0
M  V30 2226 N 201.022 0.148545 -1.56898 0
M  V30 2227 C 201.952 1.18524 -2.01182 0
M  V30 2228 C 202.933 1.4489 -0.891123 0
M  V30 2229 O 204.118 1.55836 -1.15882 0
M  V30 2230 C 201.248 2.51879 -2.39112 0
M  V30 2231 C 200.202 2.40038 -3.54353 0
M  V30 2232 C 199.528 3.78089 -3.78091 0
M  V30 2233 C 200.828 1.88577 -4.87069 0
M  V30 2234 H 202.522 0.817029 -2.88036 0
M  V30 2235 H 200.068 0.391575 -1.38574 0
M  V30 2236 H 202.021 3.24627 -2.68692 0
M  V30 2237 H 200.745 2.90532 -1.49193 0
M  V30 2238 H 199.404 1.69742 -3.24936 0
M  V30 2239 H 199.052 4.14175 -2.85426 0
M  V30 2240 H 198.752 3.71028 -4.55645 0
M  V30 2241 H 200.276 4.52387 -4.10095 0
M  V30 2242 H 201.69 2.51117 -5.15377 0
M  V30 2243 H 200.087 1.9241 -5.68417 0
M  V30 2244 H 201.157 0.84136 -4.77545 0
M  V30 2245 N 202.5 1.5196 0.417844 0
M  V30 2246 C 203.463 1.74065 1.49111 0
M  V30 2247 C 204.463 0.610537 1.48758 0
M  V30 2248 O 205.653 0.87832 1.50437 0
M  V30 2249 C 202.785 1.81502 2.88565 0
M  V30 2250 H 203.978 2.69869 1.30807 0
M  V30 2251 H 201.531 1.42244 0.647785 0
M  V30 2252 H 202.266 0.875813 3.1225 0
M  V30 2253 H 202.051 2.63651 2.90225 0
M  V30 2254 H 203.541 2.00376 3.66387 0
M  V30 2255 N 203.978 -0.674533 1.42435 0
M  V30 2256 C 205.227 -1.43034 1.42212 0
M  V30 2257 C 205.54 -1.95555 0.0420788 0
M  V30 2258 O 206.746 -2.71374 -0.0827558 0
M  V30 2259 C 205.202 -2.58748 2.50155 0
M  V30 2260 C 204.81 -2.12925 3.94166 0
M  V30 2261 C 206.554 -3.36257 2.59098 0
M  V30 2262 C 204.461 -3.25723 4.93618 0
M  V30 2263 H 203.391 -0.537345 0.528939 0
M  V30 2264 H 206.042 -0.73024 1.68344 0
M  V30 2265 H 204.424 -3.31128 2.17188 0
M  V30 2266 H 205.598 -1.47697 4.36488 0
M  V30 2267 H 203.913 -1.48354 3.89076 0
M  V30 2268 H 206.51 -4.20264 3.30578 0
M  V30 2269 H 206.853 -3.82866 1.63461 0
M  V30 2270 H 207.386 -2.70947 2.9126 0
M  V30 2271 H 204.125 -2.84105 5.90732 0
M  V30 2272 H 203.645 -3.89732 4.55926 0
M  V30 2273 H 205.324 -3.91186 5.15347 0
M  V30 2274 N 205.456 -1.28612 -0.910864 0
M  V30 2275 C 206.702 -1.16106 -1.66274 0
M  V30 2276 C 207.035 0.289113 -1.92036 0
M  V30 2277 O 206.31 1.21 -1.52281 0
M  V30 2278 C 206.593 -1.96309 -3.01885 0
M  V30 2279 C 206.446 -3.49405 -2.8326 0
M  V30 2280 C 207.765 -1.78076 -4.02463 0
M  V30 2281 H 204.884 -0.423152 -0.603417 0
M  V30 2282 H 207.526 -1.57961 -1.05586 0
M  V30 2283 H 205.676 -1.60742 -3.53687 0
M  V30 2284 H 207.348 -3.94894 -2.38446 0
M  V30 2285 H 205.591 -3.74893 -2.18261 0
M  V30 2286 H 206.262 -4.00784 -3.79574 0
M  V30 2287 H 208.738 -2.0912 -3.59733 0
M  V30 2288 H 207.614 -2.36561 -4.95308 0
M  V30 2289 H 207.875 -0.733008 -4.35981 0
M  V30 2290 N 206.934 1.1197 -1.10907 0
M  V30 2291 C 207.884 2.15946 -0.731538 0
M  V30 2292 C 208.868 1.58758 0.261699 0
M  V30 2293 O 210.06 1.76863 0.0696722 0
M  V30 2294 C 207.189 3.42877 -0.170299 0
M  V30 2295 C 206.275 4.07037 -1.19087 0
M  V30 2296 N 206.666 4.46135 -2.38322 0
M  V30 2297 C 204.964 4.33884 -1.03252 0
M  V30 2298 C 205.665 4.96331 -3.03366 0
M  V30 2299 N 204.641 4.9214 -2.30865 0
M  V30 2300 H 208.443 2.43947 -1.63912 0
M  V30 2301 H 205.957 1.28927 -0.987505 0
M  V30 2302 H 207.954 4.16732 0.118271 0
M  V30 2303 H 206.614 3.16343 0.731935 0
M  V30 2304 H 207.625 4.38345 -2.75815 0
M  V30 2305 H 204.302 4.17084 -0.186256 0
M  V30 2306 H 205.692 5.36257 -4.04818 0
M  V30 2307 N 208.412 0.89855 1.29475 0
M  V30 2308 C 209.375 0.380272 2.26023 0
M  V30 2309 C 210.375 -0.484891 1.53315 0
M  V30 2310 O 211.565 -0.290108 1.71767 0
M  V30 2311 C 208.697 -0.45651 3.3783 0
M  V30 2312 H 209.89 1.23295 2.73383 0
M  V30 2313 H 207.443 0.676589 1.40897 0
M  V30 2314 H 208.178 -1.32922 2.95808 0
M  V30 2315 H 207.963 0.163393 3.91759 0
M  V30 2316 H 209.453 -0.810466 4.0966 0
M  V30 2317 N 209.89 -1.43072 0.660911 0
M  V30 2318 C 211.136 -2.0202 0.177708 0
M  V30 2319 C 211.469 -1.52066 -1.20787 0
M  V30 2320 O 210.744 -0.716987 -1.80802 0
M  V30 2321 C 211.027 -3.59561 0.197019 0
M  V30 2322 C 210.88 -4.19727 1.61706 0
M  V30 2323 C 212.199 -4.37664 -0.462396 0
M  V30 2324 H 209.318 -0.734034 0.0660494 0
M  V30 2325 H 211.96 -1.70272 0.843058 0
M  V30 2326 H 210.11 -3.86739 -0.369527 0
M  V30 2327 H 211.782 -4.03553 2.23479 0
M  V30 2328 H 210.025 -3.76084 2.16201 0
M  V30 2329 H 210.696 -5.28834 1.58237 0
M  V30 2330 H 213.172 -4.16095 0.0197215 0
M  V30 2331 H 212.048 -5.47305 -0.418188 0
M  V30 2332 H 212.309 -4.14493 -1.53778 0
M  V30 2333 N 211.368 -0.403325 -1.52352 0
M  V30 2334 C 212.615 0.174347 -2.01748 0
M  V30 2335 C 212.943 1.45636 -1.2892 0
M  V30 2336 O 212.198 1.9193 -0.382258 0
M  V30 2337 C 212.497 0.474665 -3.54234 0
M  V30 2338 C 212.163 -0.717458 -4.45155 0
M  V30 2339 C 210.825 -1.04447 -4.69728 0
M  V30 2340 C 213.177 -1.51432 -4.98716 0
M  V30 2341 C 210.505 -2.16963 -5.45109 0
M  V30 2342 C 212.857 -2.6302 -5.75329 0
M  V30 2343 C 211.521 -2.96213 -5.98175 0
M  V30 2344 H 210.791 0.0637981 -0.738248 0
M  V30 2345 H 213.438 -0.543553 -1.83624 0
M  V30 2346 H 211.743 1.27406 -3.70506 0
M  V30 2347 H 213.44 0.934496 -3.89959 0
M  V30 2348 H 210.03 -0.452596 -4.26204 0
M  V30 2349 H 214.214 -1.27491 -4.79645 0
M  V30 2350 H 209.47 -2.43034 -5.61021 0
M  V30 2351 H 213.644 -3.25158 -6.15829 0
M  V30 2352 H 211.271 -3.83516 -6.56368 0
M  V30 2353 N 212.846 1.57033 -0.133567 0
M  V30 2354 C 214.071 2.00475 0.531477 0
M  V30 2355 C 214.496 1.01291 1.58499 0
M  V30 2356 O 213.854 -0.0133279 1.81295 0
M  V30 2357 C 213.902 3.42729 1.12113 0
M  V30 2358 O 213.006 3.46498 2.23636 0
M  V30 2359 H 212.347 0.650876 0.131362 0
M  V30 2360 H 214.877 2.03344 -0.22634 0
M  V30 2361 H 214.887 3.81246 1.4531 0
M  V30 2362 H 213.562 4.14428 0.349557 0
M  V30 2363 H 212.139 3.19811 1.91769 0
M  V30 2364 N 214.325 -0.140222 1.56975 0
M  V30 2365 C 215.255 -1.17456 2.01808 0
M  V30 2366 C 216.236 -1.44415 0.898794 0
M  V30 2367 O 217.421 -1.5522 1.16707 0
M  V30 2368 C 214.551 -2.50607 2.40444 0
M  V30 2369 C 213.505 -2.38155 3.55621 0
M  V30 2370 C 212.831 -3.76078 3.80091 0
M  V30 2371 C 214.131 -1.85991 4.88062 0
M  V30 2372 H 215.825 -0.801743 2.88466 0
M  V30 2373 H 213.371 -0.38422 1.38779 0
M  V30 2374 H 215.324 -3.23197 2.7041 0
M  V30 2375 H 214.048 -2.89737 1.50732 0
M  V30 2376 H 212.707 -1.68016 3.25832 0
M  V30 2377 H 212.355 -4.12656 2.87618 0
M  V30 2378 H 212.055 -3.68606 4.57606 0
M  V30 2379 H 213.579 -4.50206 4.12488 0
M  V30 2380 H 214.993 -2.4838 5.16701 0
M  V30 2381 H 213.39 -1.89393 5.6943 0
M  V30 2382 H 214.46 -0.816023 4.77984 0
M  V30 2383 N 215.803 -1.52179 -0.40978 0
M  V30 2384 C 217.219 -1.40968 -0.74835 0
M  V30 2385 C 217.419 -0.513657 -1.94843 0
M  V30 2386 O 216.475 0.0208026 -2.52491 0
M  V30 2387 C 217.788 -2.83483 -1.0029 0
M  V30 2388 C 219.336 -2.92821 -1.10565 0
M  V30 2389 C 219.811 -4.36303 -1.39296 0
M  V30 2390 N 221.302 -4.39535 -1.46162 0
M  V30 2391 C 222.037 -5.47614 -1.70018 0
M  V30 2392 N 221.533 -6.65812 -1.91483 0
M  V30 2393 N 223.326 -5.35129 -1.72027 0
M  V30 2394 H 215.477 -2.0897 0.380186 0
M  V30 2395 H 217.74 -0.94185 0.107805 0
M  V30 2396 H 217.446 -3.51168 -0.193461 0
M  V30 2397 H 217.32 -3.24487 -1.92323 0
M  V30 2398 H 219.707 -2.25318 -1.90568 0
M  V30 2399 H 219.788 -2.55276 -0.16369 0
M  V30 2400 H 219.432 -5.04366 -0.598109 0
M  V30 2401 H 219.362 -4.71385 -2.34743 0
M  V30 2402 H 221.853 -3.54332 -1.31367 0
M  V30 2403 H 222.166 -7.43964 -2.09134 0
M  V30 2404 H 220.511 -6.68879 -1.88749 0
M  V30 2405 H 223.702 -4.41764 -1.54796 0
M  V30 2406 H 223.875 -6.19433 -1.9028 0
M  V30 2407 N 217.281 0.66697 -1.42791 0
M  V30 2408 C 218.244 1.76211 -1.46568 0
M  V30 2409 C 219.244 1.56896 -0.352196 0
M  V30 2410 O 220.434 1.63044 -0.613364 0
M  V30 2411 C 217.566 3.14935 -1.30494 0
M  V30 2412 H 218.759 1.74247 -2.44086 0
M  V30 2413 H 216.312 0.877342 -1.29354 0
M  V30 2414 H 217.047 3.2252 -0.339301 0
M  V30 2415 H 216.832 3.30359 -2.11199 0
M  V30 2416 H 218.322 3.94821 -1.36038 0
M  V30 2417 N 218.759 1.29093 0.90403 0
M  V30 2418 C 220.175 1.07011 1.1841 0
M  V30 2419 C 220.375 -0.181358 2.00682 0
M  V30 2420 O 219.431 -0.880331 2.36657 0
M  V30 2421 C 220.744 2.32311 1.90924 0
M  V30 2422 C 222.292 2.37587 2.03768 0
M  V30 2423 C 222.767 3.62679 2.79693 0
M  V30 2424 N 224.258 3.63376 2.87249 0
M  V30 2425 C 224.993 4.56848 3.46522 0
M  V30 2426 N 224.489 5.60648 4.06996 0
M  V30 2427 N 226.282 4.44426 3.44154 0
M  V30 2428 H 218.433 2.09412 0.354993 0
M  V30 2429 H 220.696 0.922181 0.219742 0
M  V30 2430 H 220.402 3.23536 1.37905 0
M  V30 2431 H 220.276 2.39483 2.91424 0
M  V30 2432 H 222.663 1.46853 2.55965 0
M  V30 2433 H 222.744 2.34403 1.02415 0
M  V30 2434 H 222.388 4.53762 2.28173 0
M  V30 2435 H 222.318 3.63119 3.81381 0
M  V30 2436 H 224.809 2.88321 2.44293 0
M  V30 2437 H 225.122 6.28101 4.50232 0
M  V30 2438 H 223.467 5.64463 4.05471 0
M  V30 2439 H 226.658 3.62529 2.96126 0
M  V30 2440 H 226.831 5.17457 3.90054 0
M  V30 2441 N 220.237 -1.11381 1.11499 0
M  V30 2442 C 221.465 -1.86934 0.88675 0
M  V30 2443 C 221.88 -1.80195 -0.563476 0
M  V30 2444 O 221.237 -1.18367 -1.38908 0
M  V30 2445 C 221.288 -3.35722 1.34064 0
M  V30 2446 O 221.009 -3.4232 2.73401 0
M  V30 2447 C 222.51 -4.2818 1.14791 0
M  V30 2448 H 219.73 -0.591117 0.317523 0
M  V30 2449 H 222.274 -1.40865 1.48248 0
M  V30 2450 H 220.429 -3.79294 0.788355 0
M  V30 2451 H 220.843 -4.34971 2.93087 0
M  V30 2452 H 222.317 -5.30817 1.5145 0
M  V30 2453 H 222.794 -4.39113 0.0875279 0
M  V30 2454 H 223.4 -3.90402 1.68721 0
M  V30 2455 N 221.715 -0.905404 -1.28997 0
M  V30 2456 C 222.645 -0.404212 -2.29975 0
M  V30 2457 C 223.626 0.523784 -1.61835 0
M  V30 2458 O 224.811 0.433298 -1.89304 0
M  V30 2459 C 221.941 0.364042 -3.45387 0
M  V30 2460 C 220.895 -0.474048 -4.25367 0
M  V30 2461 C 220.221 0.422045 -5.33032 0
M  V30 2462 C 221.521 -1.72696 -4.92923 0
M  V30 2463 H 223.215 -1.24807 -2.72146 0
M  V30 2464 H 220.761 -0.601585 -1.30832 0
M  V30 2465 H 222.714 0.725447 -4.15109 0
M  V30 2466 H 221.438 1.24174 -3.02074 0
M  V30 2467 H 220.097 -0.81786 -3.57361 0
M  V30 2468 H 219.745 1.29804 -4.85963 0
M  V30 2469 H 219.445 -0.135057 -5.87445 0
M  V30 2470 H 220.969 0.779517 -6.05604 0
M  V30 2471 H 222.383 -1.43495 -5.55051 0
M  V30 2472 H 220.78 -2.22582 -5.57295 0
M  V30 2473 H 221.85 -2.45964 -4.17887 0
M  V30 2474 N 223.193 1.4272 -0.668489 0
M  V30 2475 C 224.421 2.05966 -0.196348 0
M  V30 2476 C 224.836 1.50191 1.14403 0
M  V30 2477 O 224.193 0.639208 1.7094 0
M  V30 2478 C 224.244 3.61314 -0.115815 0
M  V30 2479 O 223.965 4.1502 -1.40322 0
M  V30 2480 C 225.466 4.41663 0.380579 0
M  V30 2481 H 222.686 0.663954 -0.0969829 0
M  V30 2482 H 225.23 1.82966 -0.913446 0
M  V30 2483 H 223.385 3.83448 0.551931 0
M  V30 2484 H 223.799 5.08832 -1.27243 0
M  V30 2485 H 225.273 5.5065 0.385848 0
M  V30 2486 H 225.75 4.15792 1.41471 0
M  V30 2487 H 226.356 4.24534 -0.255209 0
M  V30 2488 N 224.671 0.411399 1.52136 0
M  V30 2489 C 225.901 -0.16284 2.05957 0
M  V30 2490 C 226.309 -1.3922 1.28119 0
M  V30 2491 O 225.652 -1.80768 0.326881 0
M  V30 2492 C 225.714 -0.575946 3.54856 0
M  V30 2493 C 225.378 0.542998 4.53763 0
M  V30 2494 C 226.375 1.40726 5.00492 0
M  V30 2495 C 224.06 0.716337 4.97166 0
M  V30 2496 C 226.054 2.4298 5.8927 0
M  V30 2497 C 223.741 1.74218 5.8574 0
M  V30 2498 C 224.739 2.59731 6.31687 0
M  V30 2499 O 224.427 3.60558 7.18507 0
M  V30 2500 H 224.159 -0.0229125 0.675612 0
M  V30 2501 H 226.713 0.581634 1.96993 0
M  V30 2502 H 224.943 -1.37274 3.61515 0
M  V30 2503 H 226.632 -1.07836 3.91313 0
M  V30 2504 H 227.398 1.28476 4.67674 0
M  V30 2505 H 223.277 0.0603857 4.6096 0
M  V30 2506 H 226.821 3.0976 6.25055 0
M  V30 2507 H 222.718 1.86498 6.17971 0
M  V30 2508 H 223.486 3.56829 7.36624 0
M  V30 2509 N 226.149 -1.5696 0.141893 0
M  V30 2510 C 227.397 -1.95573 -0.509484 0
M  V30 2511 C 227.718 -1.02746 -1.65736 0
M  V30 2512 O 226.988 -0.0880311 -1.95702 0
M  V30 2513 H 225.568 -0.722115 -0.191205 0
M  V30 2514 H 228.23 -1.93697 0.216196 0
M  V30 2515 H 227.326 -2.99171 -0.889 0
M  V30 2516 N 227.627 0.131896 -1.57047 0
M  V30 2517 C 228.873 0.843179 -1.84441 0
M  V30 2518 C 229.206 1.80129 -0.725749 0
M  V30 2519 O 228.481 1.92624 0.269469 0
M  V30 2520 C 228.764 1.60442 -3.22382 0
M  V30 2521 C 228.617 0.666782 -4.4483 0
M  V30 2522 C 229.936 2.56354 -3.5773 0
M  V30 2523 H 227.055 0.305081 -0.670891 0
M  V30 2524 H 229.697 0.107839 -1.89694 0
M  V30 2525 H 227.847 2.23128 -3.18035 0
M  V30 2526 H 229.519 0.0497646 -4.61273 0
M  V30 2527 H 227.762 -0.022609 -4.33794 0
M  V30 2528 H 228.433 1.23579 -5.37989 0
M  V30 2529 H 230.909 2.0378 -3.62785 0
M  V30 2530 H 229.785 3.06657 -4.5525 0
M  V30 2531 H 230.046 3.38419 -2.84473 0
M  V30 2532 N 229.106 1.52395 0.401703 0
M  V30 2533 C 230.355 1.66044 1.14509 0
M  V30 2534 C 230.668 0.400216 1.91462 0
M  V30 2535 O 231.874 0.416632 2.68284 0
M  V30 2536 C 230.33 2.93388 2.0845 0
M  V30 2537 C 229.938 4.26545 1.36978 0
M  V30 2538 C 231.682 3.16402 2.83001 0
M  V30 2539 C 229.589 5.45007 2.29611 0
M  V30 2540 H 228.519 0.618562 0.431158 0
M  V30 2541 H 231.17 1.78886 0.40892 0
M  V30 2542 H 229.552 2.74263 2.8565 0
M  V30 2543 H 230.726 4.56179 0.650916 0
M  V30 2544 H 229.041 4.09692 0.74438 0
M  V30 2545 H 231.638 4.02085 3.52465 0
M  V30 2546 H 231.981 2.30943 3.46368 0
M  V30 2547 H 232.514 3.36034 2.12898 0
M  V30 2548 H 229.253 6.32835 1.70879 0
M  V30 2549 H 228.773 5.19702 2.9945 0
M  V30 2550 H 230.452 5.7838 2.89974 0
M  V30 2551 N 230.584 -0.659388 1.43143 0
M  V30 2552 C 231.812 -1.44723 1.47861 0
M  V30 2553 C 232.227 -1.88563 0.0945886 0
M  V30 2554 O 231.584 -1.59108 -0.893915 0
M  V30 2555 C 231.635 -2.68627 2.41913 0
M  V30 2556 O 231.356 -2.26623 3.74932 0
M  V30 2557 C 232.857 -3.62045 2.55809 0
M  V30 2558 H 230.077 -0.444801 0.502387 0
M  V30 2559 H 232.621 -0.808916 1.87821 0
M  V30 2560 H 230.776 -3.28613 2.05164 0
M  V30 2561 H 231.19 -3.06745 4.2545 0
M  V30 2562 H 232.664 -4.45666 3.25708 0
M  V30 2563 H 233.141 -4.08981 1.60099 0
M  V30 2564 H 233.747 -3.07944 2.93344 0
M  V30 2565 N 232.062 -1.29571 -0.897171 0
M  V30 2566 C 233.287 -1.20705 -1.68656 0
M  V30 2567 C 233.712 0.228582 -1.86706 0
M  V30 2568 O 233.07 1.16494 -1.3892 0
M  V30 2569 C 233.118 -1.9282 -3.04717 0
M  V30 2570 O 232.222 -1.24697 -3.93096 0
M  V30 2571 H 231.563 -0.418126 -0.515816 0
M  V30 2572 H 234.093 -1.71183 -1.12061 0
M  V30 2573 H 234.103 -2.01372 -3.54843 0
M  V30 2574 H 232.778 -2.97239 -2.90899 0
M  V30 2575 H 231.355 -1.2442 -3.51531 0
M  V30 2576 N 233.54 1.10788 -1.12088 0
M  V30 2577 C 234.47 2.19083 -0.807755 0
M  V30 2578 C 235.451 1.6858 0.226859 0
M  V30 2579 O 236.636 1.93997 0.0888475 0
M  V30 2580 C 233.766 3.46344 -0.257576 0
M  V30 2581 C 232.72 4.101 -1.22483 0
M  V30 2582 C 232.046 5.32016 -0.535052 0
M  V30 2583 C 233.346 4.54236 -2.57811 0
M  V30 2584 H 235.04 2.45534 -1.71328 0
M  V30 2585 H 232.586 1.1801 -0.825205 0
M  V30 2586 H 234.539 4.21392 -0.0262679 0
M  V30 2587 H 233.263 3.19373 0.683278 0
M  V30 2588 H 231.922 3.37054 -1.44189 0
M  V30 2589 H 231.57 5.01319 0.410827 0
M  V30 2590 H 231.27 5.75625 -1.18024 0
M  V30 2591 H 232.794 6.09799 -0.312695 0
M  V30 2592 H 234.208 5.20575 -2.40155 0
M  V30 2593 H 232.605 5.08682 -3.18375 0
M  V30 2594 H 233.675 3.6734 -3.16528 0
M  V30 2595 N 235.018 0.912232 1.28515 0
M  V30 2596 C 235.981 0.404223 2.25607 0
M  V30 2597 C 236.981 -0.468602 1.53821 0
M  V30 2598 O 238.171 -0.271873 1.72065 0
M  V30 2599 C 235.303 -0.420653 3.38295 0
M  V30 2600 H 236.496 1.26188 2.7206 0
M  V30 2601 H 234.049 0.691495 1.40171 0
M  V30 2602 H 234.784 -1.29777 2.97201 0
M  V30 2603 H 234.569 0.204935 3.91564 0
M  V30 2604 H 236.059 -0.766971 4.10496 0
M  V30 2605 N 236.496 -1.42363 0.676048 0
M  V30 2606 C 237.724 -2.05859 0.207268 0
M  V30 2607 C 238.139 -1.50796 -1.13605 0
M  V30 2608 O 237.496 -0.648265 -1.70598 0
M  V30 2609 C 237.547 -3.61248 0.134975 0
M  V30 2610 O 237.268 -4.1427 1.42521 0
M  V30 2611 C 238.769 -4.41859 -0.357151 0
M  V30 2612 H 235.989 -0.663431 0.100503 0
M  V30 2613 H 238.533 -1.82479 0.923136 0
M  V30 2614 H 236.688 -3.83735 -0.531588 0
M  V30 2615 H 237.102 -5.0815 1.29939 0
M  V30 2616 H 238.576 -5.50847 -0.356641 0
M  V30 2617 H 239.053 -4.16536 -1.39264 0
M  V30 2618 H 239.659 -4.24392 0.27772 0
M  V30 2619 N 237.974 -0.419461 -1.51915 0
M  V30 2620 C 239.22 0.145505 -2.02879 0
M  V30 2621 C 239.575 1.41926 -1.29903 0
M  V30 2622 O 238.868 1.87383 -0.399782 0
M  V30 2623 C 239.062 0.437067 -3.54717 0
M  V30 2624 C 238.891 -0.806877 -4.42402 0
M  V30 2625 C 237.661 -1.33514 -4.87342 0
M  V30 2626 C 239.859 -1.68796 -4.85811 0
M  V30 2627 N 237.841 -2.53349 -5.59185 0
M  V30 2628 C 239.212 -2.73247 -5.56539 0
M  V30 2629 C 241.267 -1.70449 -4.67816 0
M  V30 2630 C 239.97 -3.79276 -6.11181 0
M  V30 2631 C 241.996 -2.75403 -5.23361 0
M  V30 2632 C 241.358 -3.78575 -5.9402 0
M  V30 2633 H 237.457 0.0145424 -0.781865 0
M  V30 2634 H 240.041 -0.576126 -1.85981 0
M  V30 2635 H 238.212 1.12774 -3.71667 0
M  V30 2636 H 239.944 0.99182 -3.92358 0
M  V30 2637 H 236.699 -0.891657 -4.65131 0
M  V30 2638 H 237.123 -3.14066 -5.99743 0
M  V30 2639 H 241.765 -0.920209 -4.12664 0
M  V30 2640 H 239.483 -4.58554 -6.65397 0
M  V30 2641 H 243.069 -2.77603 -5.113 0
M  V30 2642 H 241.949 -4.58453 -6.36231 0
M  V30 2643 N 239.452 1.56882 -0.150215 0
M  V30 2644 C 240.677 2.01027 0.510184 0
M  V30 2645 C 241.102 1.02966 1.57415 0
M  V30 2646 O 240.46 0.00590158 1.81299 0
M  V30 2647 C 240.508 3.43899 1.08472 0
M  V30 2648 O 239.612 3.4885 2.19948 0
M  V30 2649 H 238.953 0.652233 0.124451 0
M  V30 2650 H 241.483 2.03093 -0.247894 0
M  V30 2651 H 241.493 3.82766 1.41259 0
M  V30 2652 H 240.168 4.14776 0.305582 0
M  V30 2653 H 238.745 3.21827 1.88366 0
M  V30 2654 N 240.93 -0.123565 1.57115 0
M  V30 2655 C 242.176 -0.833386 1.84885 0
M  V30 2656 C 242.509 -1.79742 0.735292 0
M  V30 2657 O 241.784 -1.92764 -0.25925 0
M  V30 2658 C 242.067 -1.5873 3.23228 0
M  V30 2659 C 241.92 -0.643183 4.45178 0
M  V30 2660 C 243.239 -2.54453 3.59085 0
M  V30 2661 H 240.358 -0.301518 0.6725 0
M  V30 2662 H 243 -0.097778 1.89748 0
M  V30 2663 H 241.15 -2.21438 3.19214 0
M  V30 2664 H 242.822 -0.0253015 4.61293 0
M  V30 2665 H 241.065 0.0456139 4.33776 0
M  V30 2666 H 241.736 -1.20724 5.38637 0
M  V30 2667 H 244.212 -2.01853 3.63861 0
M  V30 2668 H 243.088 -3.04238 4.5687 0
M  V30 2669 H 243.349 -3.36906 2.86264 0
M  V30 2670 N 242.408 -1.52605 -0.393616 0
M  V30 2671 C 243.371 -1.76415 -1.46323 0
M  V30 2672 C 244.371 -0.634126 -1.47768 0
M  V30 2673 O 245.561 -0.902142 -1.4902 0
M  V30 2674 C 242.693 -1.8607 -2.85641 0
M  V30 2675 H 243.886 -2.71916 -1.26498 0
M  V30 2676 H 241.439 -1.43257 -0.625073 0
M  V30 2677 H 242.174 -0.925378 -3.10817 0
M  V30 2678 H 241.959 -2.68235 -2.85993 0
M  V30 2679 H 243.449 -2.06179 -3.63153 0
M  V30 2680 N 243.887 0.651787 -1.4349 0
M  V30 2681 C 245.133 1.41376 -1.45398 0
M  V30 2682 C 245.466 1.94041 -0.0784823 0
M  V30 2683 O 244.741 1.72379 0.900878 0
M  V30 2684 C 245.024 2.59414 -2.49752 0
M  V30 2685 C 244.877 2.12232 -3.96582 0
M  V30 2686 C 246.196 3.61626 -2.50827 0
M  V30 2687 H 243.315 0.512719 -0.529422 0
M  V30 2688 H 245.957 0.738796 -1.75048 0
M  V30 2689 H 244.107 3.16997 -2.246 0
M  V30 2690 H 245.779 1.59639 -4.32797 0
M  V30 2691 H 244.022 1.43592 -4.09346 0
M  V30 2692 H 244.693 2.9712 -4.65214 0
M  V30 2693 H 247.169 3.13805 -2.7325 0
M  V30 2694 H 246.045 4.41766 -3.25783 0
M  V30 2695 H 246.306 4.14314 -1.5426 0
M  V30 2696 N 245.365 1.30045 0.890287 0
M  V30 2697 C 246.612 1.18561 1.64163 0
M  V30 2698 C 246.94 -0.260852 1.92743 0
M  V30 2699 O 246.195 -1.20376 1.54299 0
M  V30 2700 C 246.494 1.95409 2.99249 0
M  V30 2701 C 246.16 3.45066 2.90242 0
M  V30 2702 C 244.822 3.85878 2.87492 0
M  V30 2703 C 247.174 4.4039 2.78758 0
M  V30 2704 C 244.502 5.20314 2.7109 0
M  V30 2705 C 246.854 5.74928 2.63894 0
M  V30 2706 C 245.518 6.14986 2.59516 0
M  V30 2707 H 244.788 0.433846 0.600715 0
M  V30 2708 H 247.435 1.61088 1.03552 0
M  V30 2709 H 245.74 1.45501 3.63781 0
M  V30 2710 H 247.437 1.8392 3.56334 0
M  V30 2711 H 244.027 3.12631 2.93189 0
M  V30 2712 H 248.211 4.09806 2.79952 0
M  V30 2713 H 243.467 5.50449 2.66112 0
M  V30 2714 H 247.641 6.48434 2.53981 0
M  V30 2715 H 245.268 7.19104 2.46565 0
M  V30 2716 N 246.843 -1.10192 1.12674 0
M  V30 2717 C 247.806 -2.14786 0.799979 0
M  V30 2718 C 248.806 -1.59711 -0.18685 0
M  V30 2719 O 249.996 -1.74156 0.0392558 0
M  V30 2720 C 247.128 -3.40374 0.189228 0
M  V30 2721 H 248.321 -2.45203 1.72671 0
M  V30 2722 H 245.874 -1.25597 0.930326 0
M  V30 2723 H 246.609 -3.15577 -0.747107 0
M  V30 2724 H 246.394 -3.81637 0.899766 0
M  V30 2725 H 247.884 -4.17594 -0.0228143 0
M  V30 2726 N 248.321 -0.919034 -1.28029 0
M  V30 2727 C 249.546 -0.570357 -1.99403 0
M  V30 2728 C 249.971 0.842486 -1.68178 0
M  V30 2729 O 249.329 1.56391 -0.917141 0
M  V30 2730 C 249.377 -0.792541 -3.51783 0
M  V30 2731 O 248.481 0.145988 -4.12142 0
M  V30 2732 H 247.822 -0.220555 -0.6263 0
M  V30 2733 H 250.352 -1.23592 -1.63053 0
M  V30 2734 H 250.362 -0.704708 -4.01868 0
M  V30 2735 H 249.037 -1.82247 -3.73844 0
M  V30 2736 H 247.614 0.00897528 -3.72899 0
M  V30 2737 N 249.799 1.42003 -0.683588 0
M  V30 2738 C 250.729 2.33487 -0.024866 0
M  V30 2739 C 251.71 1.51163 0.779975 0
M  V30 2740 O 252.895 1.79739 0.735362 0
M  V30 2741 C 250.025 3.3487 0.920836 0
M  V30 2742 C 248.979 4.27414 0.223958 0
M  V30 2743 C 248.305 5.19074 1.2832 0
M  V30 2744 C 249.605 5.14445 -0.90242 0
M  V30 2745 H 251.299 2.88819 -0.788921 0
M  V30 2746 H 248.845 1.38873 -0.38083 0
M  V30 2747 H 250.798 3.97787 1.39081 0
M  V30 2748 H 249.522 2.77861 1.71642 0
M  V30 2749 H 248.181 3.65904 -0.225864 0
M  V30 2750 H 247.829 4.58387 2.071 0
M  V30 2751 H 247.529 5.81822 0.821995 0
M  V30 2752 H 249.053 5.84867 1.75392 0
M  V30 2753 H 250.467 5.70998 -0.513272 0
M  V30 2754 H 248.864 5.86072 -1.28997 0
M  V30 2755 H 249.934 4.52322 -1.74737 0
M  V30 2756 N 251.277 0.427512 1.51691 0
M  V30 2757 C 252.688 -0.0378867 1.86662 0
M  V30 2758 C 253.039 -1.42819 1.34525 0
M  V30 2759 O 252.164 -2.05037 0.692014 0
M  V30 2760 C 252.759 -0.0755266 3.38716 0
M  V30 2761 C 251.318 -0.485309 3.73258 0
M  V30 2762 C 250.465 0.328399 2.75349 0
M  V30 2763 H 253.416 0.64379 1.45055 0
M  V30 2764 H 253.437 -0.887056 3.70016 0
M  V30 2765 H 252.949 0.936487 3.76632 0
M  V30 2766 H 251.05 -1.50329 3.40928 0
M  V30 2767 H 251.163 -0.21693 4.78609 0
M  V30 2768 H 249.527 -0.211905 2.53817 0
M  V30 2769 H 250.31 1.3391 3.16106 0
M  V30 2770 N 252.755 -1.56801 0.158532 0
M  V30 2771 C 254.003 -1.96102 -0.488712 0
M  V30 2772 C 254.324 -1.04498 -1.64636 0
M  V30 2773 O 253.594 -0.108783 -1.95598 0
M  V30 2774 H 252.174 -0.724102 -0.183535 0
M  V30 2775 H 254.836 -1.93457 0.236728 0
M  V30 2776 H 253.932 -3.00097 -0.857219 0
M  V30 2777 N 254.233 0.115231 -1.57178 0
M  V30 2778 C 255.48 0.822351 -1.8505 0
M  V30 2779 C 255.808 1.79701 -0.744168 0
M  V30 2780 O 255.063 1.93909 0.26414 0
M  V30 2781 C 255.362 1.60324 -3.19423 0
M  V30 2782 C 255.028 0.772536 -4.44233 0
M  V30 2783 C 253.69 0.543468 -4.78121 0
M  V30 2784 C 256.042 0.193746 -5.2084 0
M  V30 2785 C 253.37 -0.274583 -5.86057 0
M  V30 2786 C 255.722 -0.611517 -6.29637 0
M  V30 2787 C 254.386 -0.850867 -6.62055 0
M  V30 2788 H 253.656 0.30092 -0.677147 0
M  V30 2789 H 256.303 0.0845802 -1.91313 0
M  V30 2790 H 254.608 2.41203 -3.08753 0
M  V30 2791 H 256.305 2.1544 -3.38211 0
M  V30 2792 H 252.895 0.96117 -4.17683 0
M  V30 2793 H 257.079 0.357926 -4.95008 0
M  V30 2794 H 252.335 -0.469206 -6.09597 0
M  V30 2795 H 256.509 -1.06697 -6.88178 0
M  V30 2796 H 254.136 -1.48657 -7.45523 0
M  V30 2797 N 255.711 1.52812 0.385517 0
M  V30 2798 C 256.641 1.80808 1.47752 0
M  V30 2799 C 257.622 0.660318 1.5676 0
M  V30 2800 O 258.807 0.908246 1.71652 0
M  V30 2801 C 255.937 1.98008 2.85324 0
M  V30 2802 C 254.891 3.13709 2.91154 0
M  V30 2803 C 254.217 3.16169 4.31209 0
M  V30 2804 C 255.517 4.52709 2.60483 0
M  V30 2805 H 257.211 2.72253 1.24573 0
M  V30 2806 H 254.757 1.31003 0.597839 0
M  V30 2807 H 256.71 2.16176 3.61726 0
M  V30 2808 H 255.434 1.03255 3.09848 0
M  V30 2809 H 254.093 2.95329 2.17201 0
M  V30 2810 H 253.741 2.19092 4.52778 0
M  V30 2811 H 253.441 3.93894 4.36029 0
M  V30 2812 H 254.965 3.36496 5.09512 0
M  V30 2813 H 256.379 4.71173 3.26602 0
M  V30 2814 H 254.776 5.32528 2.76648 0
M  V30 2815 H 255.846 4.59186 1.55809 0
M  V30 2816 N 257.189 -0.644168 1.43834 0
M  V30 2817 C 258.436 -1.40395 1.4593 0
M  V30 2818 C 258.764 -1.94305 0.0869658 0
M  V30 2819 O 258.019 -1.73288 -0.909378 0
M  V30 2820 C 258.318 -2.59615 2.45631 0
M  V30 2821 C 257.984 -2.2407 3.91284 0
M  V30 2822 C 256.646 -2.14089 4.30952 0
M  V30 2823 C 258.998 -1.95775 4.83034 0
M  V30 2824 C 256.326 -1.73981 5.6031 0
M  V30 2825 C 258.678 -1.57163 6.12766 0
M  V30 2826 C 257.342 -1.45713 6.51402 0
M  V30 2827 H 256.612 -0.513741 0.533995 0
M  V30 2828 H 259.259 -0.731724 1.76969 0
M  V30 2829 H 257.564 -3.32011 2.08028 0
M  V30 2830 H 259.261 -3.17834 2.44504 0
M  V30 2831 H 255.851 -2.32753 3.59895 0
M  V30 2832 H 260.035 -2.02403 4.53152 0
M  V30 2833 H 255.291 -1.63709 5.89075 0
M  V30 2834 H 259.465 -1.34303 6.83327 0
M  V30 2835 H 257.092 -1.14406 7.51542 0
M  V30 2836 N 258.668 -1.30515 -0.883378 0
M  V30 2837 C 259.893 -1.22487 -1.67367 0
M  V30 2838 C 260.318 0.208767 -1.86938 0
M  V30 2839 O 259.676 1.15015 -1.40148 0
M  V30 2840 C 259.724 -1.96041 -3.02655 0
M  V30 2841 O 258.828 -1.28859 -3.91751 0
M  V30 2842 H 258.169 -0.423573 -0.511353 0
M  V30 2843 H 260.699 -1.72362 -1.10239 0
M  V30 2844 H 260.709 -2.05124 -3.52687 0
M  V30 2845 H 259.384 -3.00307 -2.8773 0
M  V30 2846 H 257.961 -1.28141 -3.50192 0
M  V30 2847 N 260.146 1.09593 -1.13257 0
M  V30 2848 C 261.374 1.855 -0.916378 0
M  V30 2849 C 261.789 1.81069 0.534738 0
M  V30 2850 O 261.146 1.20562 1.37007 0
M  V30 2851 C 261.197 3.33546 -1.39388 0
M  V30 2852 O 260.918 3.37927 -2.78813 0
M  V30 2853 C 262.419 4.26299 -1.21588 0
M  V30 2854 H 259.639 0.585991 -0.326887 0
M  V30 2855 H 262.183 1.38488 -1.5047 0
M  V30 2856 H 260.338 3.77992 -0.848597 0
M  V30 2857 H 260.752 4.30254 -2.9997 0
M  V30 2858 H 262.226 5.28341 -1.59876 0
M  V30 2859 H 262.703 4.38918 -0.157376 0
M  V30 2860 H 263.309 3.87668 -1.7491 0
M  V30 2861 N 261.624 0.925811 1.2754 0
M  V30 2862 C 262.864 0.572521 1.96218 0
M  V30 2863 C 263.228 -0.869719 1.71172 0
M  V30 2864 O 264.429 -1.33119 2.33523 0
M  V30 2865 C 262.7 0.887325 3.4621 0
M  V30 2866 S 264.259 0.642266 4.34074 0
M  V30 2867 H 261.077 0.211403 0.678845 0
M  V30 2868 H 263.679 1.19384 1.54815 0
M  V30 2869 H 262.383 1.93469 3.61936 0
M  V30 2870 H 261.914 0.255123 3.92572 0
M  V30 2871 H 263.929 -0.500822 4.93666 0
M  V30 2872 N 263.102 -1.41638 0.69111 0
M  V30 2873 C 264.332 -2.0533 0.228758 0
M  V30 2874 C 264.74 -1.52089 -1.12541 0
M  V30 2875 O 264.083 -0.662145 -1.71351 0
M  V30 2876 C 264.145 -3.59349 0.10407 0
M  V30 2877 C 263.809 -4.35362 1.38956 0
M  V30 2878 C 264.806 -4.64942 2.32648 0
M  V30 2879 C 262.491 -4.74714 1.64169 0
M  V30 2880 C 264.485 -5.32828 3.49818 0
M  V30 2881 C 262.172 -5.42338 2.81625 0
M  V30 2882 C 263.17 -5.71322 3.74273 0
M  V30 2883 O 262.858 -6.37554 4.89673 0
M  V30 2884 H 262.59 -0.667796 0.104997 0
M  V30 2885 H 265.144 -1.82477 0.942938 0
M  V30 2886 H 263.374 -3.80924 -0.665839 0
M  V30 2887 H 265.063 -4.04633 -0.320519 0
M  V30 2888 H 265.829 -4.35025 2.14425 0
M  V30 2889 H 261.708 -4.51538 0.929202 0
M  V30 2890 H 265.252 -5.55368 4.22152 0
M  V30 2891 H 261.149 -5.71673 2.99768 0
M  V30 2892 H 261.917 -6.56049 4.8943 0
M  V30 2893 N 264.58 -0.43555 -1.51462 0
M  V30 2894 C 265.808 0.130242 -2.0649 0
M  V30 2895 C 266.223 1.36614 -1.30315 0
M  V30 2896 O 265.58 1.78869 -0.362223 0
M  V30 2897 C 265.631 0.454253 -3.58635 0
M  V30 2898 O 265.352 -0.73259 -4.31931 0
M  V30 2899 C 266.853 1.07091 -4.3017 0
M  V30 2900 H 264.073 0.00871669 -0.670943 0
M  V30 2901 H 266.617 -0.614117 -1.95061 0
M  V30 2902 H 264.772 1.14851 -3.69984 0
M  V30 2903 H 265.186 -0.455787 -5.22516 0
M  V30 2904 H 266.66 1.24764 -5.37716 0
M  V30 2905 H 267.137 2.05144 -3.88346 0
M  V30 2906 H 267.743 0.416089 -4.2326 0
M  V30 2907 N 266.058 1.56714 -0.166846 0
M  V30 2908 C 266.968 2.21331 0.777791 0
M  V30 2909 C 267.984 1.20358 1.25658 0
M  V30 2910 O 269.16 1.53005 1.30964 0
M  V30 2911 C 266.225 2.83787 1.99163 0
M  V30 2912 C 265.286 3.99947 1.56016 0
M  V30 2913 C 264.519 4.59415 2.71613 0
M  V30 2914 O 264.742 4.17769 3.88362 0
M  V30 2915 O 263.676 5.49359 2.45945 0
M  V30 2916 H 267.502 3.02605 0.257636 0
M  V30 2917 H 265.087 1.49275 0.0611393 0
M  V30 2918 H 266.969 3.23405 2.70161 0
M  V30 2919 H 265.644 2.05513 2.50092 0
M  V30 2920 H 264.551 3.65007 0.819809 0
M  V30 2921 H 265.884 4.79801 1.09782 0
M  V30 2922 N 267.536 -0.106894 1.57237 0
M  V30 2923 C 268.952 -0.46078 1.52804 0
M  V30 2924 C 269.152 -1.81184 0.881746 0
M  V30 2925 O 268.208 -2.48102 0.469224 0
M  V30 2926 C 269.521 -0.434127 2.9755 0
M  V30 2927 C 271.069 -0.516821 3.08704 0
M  V30 2928 C 271.544 -0.520436 4.55033 0
M  V30 2929 N 273.035 -0.58153 4.59535 0
M  V30 2930 C 273.77 -0.605973 5.70189 0
M  V30 2931 N 273.266 -0.587331 6.90306 0
M  V30 2932 N 275.059 -0.649895 5.5833 0
M  V30 2933 H 267.21 0.778203 1.9763 0
M  V30 2934 H 269.473 0.288403 0.903066 0
M  V30 2935 H 269.179 0.491197 3.48253 0
M  V30 2936 H 269.053 -1.25748 3.55622 0
M  V30 2937 H 271.44 -1.43256 2.57995 0
M  V30 2938 H 271.521 0.334449 2.53604 0
M  V30 2939 H 271.165 0.391313 5.0639 0
M  V30 2940 H 271.095 -1.38876 5.07958 0
M  V30 2941 H 273.586 -0.60161 3.73081 0
M  V30 2942 H 273.899 -0.60894 7.70397 0
M  V30 2943 H 272.244 -0.554564 6.92784 0
M  V30 2944 H 275.435 -0.661907 4.63397 0
M  V30 2945 H 275.608 -0.665476 6.44574 0
M  V30 2946 N 269.014 -1.53014 -0.377408 0
M  V30 2947 C 269.962 -1.7927 -1.48206 0
M  V30 2948 C 270.956 -0.661195 -1.55963 0
M  V30 2949 O 272.162 -0.843908 -1.58991 0
M  V30 2950 H 268.537 -0.567425 -0.493491 0
M  V30 2951 H 270.508 -2.71753 -1.2326 0
M  V30 2952 C 269.257 -1.98894 -2.85196 0
M  V30 2953 H 268.58 -2.85395 -2.79981 0
M  V30 2954 H 270.02 -2.21249 -3.61698 0
M  V30 2955 C 268.479 -0.764691 -3.28107 0
M  V30 2956 O 269.009 0.0523226 -4.01666 0
M  V30 2957 N 267.215 -0.591493 -2.84517 0
M  V30 2958 H 266.762 -1.25749 -2.24822 0
M  V30 2959 H 266.72 0.226253 -3.13585 0
M  V30 2960 N 270.492 0.636531 -1.44174 0
M  V30 2961 C 271.442 1.74233 -1.47061 0
M  V30 2962 C 272.426 1.57331 -0.337034 0
M  V30 2963 O 273.618 1.67159 -0.581973 0
M  V30 2964 C 270.747 3.12897 -1.41246 0
M  V30 2965 C 269.833 3.35288 -2.59698 0
M  V30 2966 N 270.224 3.2807 -3.84972 0
M  V30 2967 C 268.522 3.66065 -2.54778 0
M  V30 2968 C 269.223 3.51001 -4.63867 0
M  V30 2969 N 268.199 3.73616 -3.94857 0
M  V30 2970 H 272.001 1.67103 -2.41773 0
M  V30 2971 H 269.515 0.838806 -1.3906 0
M  V30 2972 H 271.512 3.92189 -1.41398 0
M  V30 2973 H 270.172 3.21197 -0.47569 0
M  V30 2974 H 271.183 3.07109 -4.17019 0
M  V30 2975 H 267.86 3.81379 -1.6987 0
M  V30 2976 H 269.25 3.51059 -5.72894 0
M  V30 2977 N 271.97 1.30982 0.876444 0
M  V30 2978 C 273.198 1.23242 1.6619 0
M  V30 2979 C 273.613 -0.203345 1.87702 0
M  V30 2980 O 272.97 -1.13317 1.43057 0
M  V30 2981 C 273.021 1.96623 3.03351 0
M  V30 2982 O 272.742 3.34594 2.82804 0
M  V30 2983 C 274.243 1.95644 3.97792 0
M  V30 2984 H 271.463 0.426126 0.518322 0
M  V30 2985 H 274.007 1.7275 1.09442 0
M  V30 2986 H 272.162 1.50892 3.56806 0
M  V30 2987 H 272.576 3.71873 3.69879 0
M  V30 2988 H 274.05 2.51511 4.91372 0
M  V30 2989 H 274.527 0.937395 4.2908 0
M  V30 2990 H 275.133 2.41225 3.50272 0
M  V30 2991 N 273.449 -1.08991 1.13837 0
M  V30 2992 C 274.679 -1.84743 0.924859 0
M  V30 2993 C 275.087 -1.81629 -0.529874 0
M  V30 2994 O 274.43 -1.21397 -1.37872 0
M  V30 2995 C 274.492 -3.33568 1.34061 0
M  V30 2996 C 274.156 -3.60425 2.80968 0
M  V30 2997 C 275.153 -3.55771 3.79108 0
M  V30 2998 C 272.838 -3.88627 3.18236 0
M  V30 2999 C 274.832 -3.78939 5.12527 0
M  V30 3000 C 272.519 -4.11449 4.51833 0
M  V30 3001 C 273.517 -4.06598 5.48787 0
M  V30 3002 O 273.205 -4.28826 6.79973 0
M  V30 3003 H 272.937 -0.590258 0.329502 0
M  V30 3004 H 275.491 -1.38598 1.51591 0
M  V30 3005 H 273.721 -3.80442 0.692853 0
M  V30 3006 H 275.41 -3.90743 1.09886 0
M  V30 3007 H 276.176 -3.34005 3.51661 0
M  V30 3008 H 272.055 -3.91526 2.43369 0
M  V30 3009 H 275.599 -3.75068 5.88192 0
M  V30 3010 H 271.496 -4.32698 4.79002 0
M  V30 3011 H 272.264 -4.46264 6.86142 0
M  V30 3012 N 274.927 -0.932562 -1.27047 0
M  V30 3013 C 276.167 -0.582919 -1.95912 0
M  V30 3014 C 276.531 0.860629 -1.71631 0
M  V30 3015 O 277.732 1.31878 -2.34225 0
M  V30 3016 C 276.003 -0.905673 -3.45734 0
M  V30 3017 S 277.562 -0.665277 -4.33727 0
M  V30 3018 H 274.38 -0.215 -0.677714 0
M  V30 3019 H 276.982 -1.20204 -1.54179 0
M  V30 3020 H 275.686 -1.95386 -3.60905 0
M  V30 3021 H 275.217 -0.275939 -3.92431 0
M  V30 3022 H 277.232 0.474635 -4.93925 0
M  V30 3023 N 276.405 1.4127 -0.698611 0
M  V30 3024 C 277.352 2.30773 -0.0352094 0
M  V30 3025 C 278.322 1.47273 0.768111 0
M  V30 3026 O 279.507 1.76053 0.735524 0
M  V30 3027 C 276.647 3.33346 0.893 0
M  V30 3028 C 275.76 4.31924 0.0809695 0
M  V30 3029 C 274.895 5.21566 1.0071 0
M  V30 3030 C 273.934 6.11811 0.188155 0
M  V30 3031 N 273.071 6.93926 1.06825 0
M  V30 3032 H 277.911 2.86943 -0.804207 0
M  V30 3033 H 275.448 1.4132 -0.408294 0
M  V30 3034 H 277.406 3.91368 1.44523 0
M  V30 3035 H 276.036 2.78719 1.62836 0
M  V30 3036 H 275.088 3.75825 -0.588224 0
M  V30 3037 H 276.4 4.95716 -0.553801 0
M  V30 3038 H 275.554 5.84437 1.62845 0
M  V30 3039 H 274.293 4.58008 1.67572 0
M  V30 3040 H 273.298 5.47986 -0.446254 0
M  V30 3041 H 274.523 6.77425 -0.476716 0
M  V30 3042 H 272.469 6.32973 1.72283 0
M  V30 3043 H 272.386 7.54416 0.489123 0
M  V30 3044 H 273.654 7.61262 1.67632 0
M  V30 3045 N 277.883 0.443576 1.51229 0
M  V30 3046 C 279.111 -0.11929 2.06556 0
M  V30 3047 C 279.526 -1.35921 1.31038 0
M  V30 3048 O 278.883 -1.78675 0.371704 0
M  V30 3049 C 278.934 -0.435228 3.5887 0
M  V30 3050 O 278.655 0.755486 4.31537 0
M  V30 3051 C 280.156 -1.04808 4.30732 0
M  V30 3052 H 277.376 -0.0051584 0.67098 0
M  V30 3053 H 279.92 0.624453 1.94733 0
M  V30 3054 H 278.075 -1.12887 3.70588 0
M  V30 3055 H 278.489 0.483491 5.22267 0
M  V30 3056 H 279.963 -1.2191 5.3837 0
M  V30 3057 H 280.44 -2.03081 3.89429 0
M  V30 3058 H 281.046 -0.393637 4.23474 0
M  V30 3059 N 279.361 -1.56624 0.175154 0
M  V30 3060 C 280.308 -2.18149 -0.753634 0
M  V30 3061 C 281.278 -1.12265 -1.22417 0
M  V30 3062 O 282.463 -1.40432 -1.29165 0
M  V30 3063 C 279.603 -2.82933 -1.97592 0
M  V30 3064 C 278.716 -4.03289 -1.5486 0
M  V30 3065 C 277.851 -4.55988 -2.72485 0
M  V30 3066 C 276.89 -5.68746 -2.26262 0
M  V30 3067 N 276.027 -6.15938 -3.36994 0
M  V30 3068 H 280.867 -2.9717 -0.222195 0
M  V30 3069 H 278.404 -1.46774 -0.0979422 0
M  V30 3070 H 280.362 -3.18653 -2.69288 0
M  V30 3071 H 278.992 -2.06509 -2.481 0
M  V30 3072 H 278.044 -3.73364 -0.728246 0
M  V30 3073 H 279.356 -4.849 -1.16933 0
M  V30 3074 H 278.51 -4.9391 -3.52332 0
M  V30 3075 H 277.249 -3.73443 -3.13674 0
M  V30 3076 H 276.254 -5.30372 -1.44863 0
M  V30 3077 H 277.479 -6.53095 -1.86127 0
M  V30 3078 H 275.425 -5.36321 -3.77751 0
M  V30 3079 H 275.342 -6.92548 -3.03172 0
M  V30 3080 H 276.61 -6.58511 -4.17114 0
M  V30 3081 N 280.839 0.0985539 -1.57292 0
M  V30 3082 C 282.069 0.815135 -1.8984 0
M  V30 3083 C 282.477 1.7297 -0.766679 0
M  V30 3084 O 281.82 1.81698 0.270483 0
M  V30 3085 C 281.882 1.6842 -3.17608 0
M  V30 3086 C 281.546 0.94182 -4.4719 0
M  V30 3087 C 282.543 0.273212 -5.19182 0
M  V30 3088 C 280.228 0.916927 -4.9386 0
M  V30 3089 C 282.222 -0.410361 -6.36078 0
M  V30 3090 C 279.909 0.229567 -6.10669 0
M  V30 3091 C 280.907 -0.432902 -6.81627 0
M  V30 3092 O 280.595 -1.10925 -7.9621 0
M  V30 3093 H 280.327 0.238501 -0.632529 0
M  V30 3094 H 282.881 0.0812659 -2.05239 0
M  V30 3095 H 281.111 2.46022 -2.98345 0
M  V30 3096 H 282.8 2.27704 -3.36015 0
M  V30 3097 H 283.566 0.283927 -4.84168 0
M  V30 3098 H 279.445 1.42201 -4.3852 0
M  V30 3099 H 282.989 -0.928013 -6.914 0
M  V30 3100 H 278.886 0.216686 -6.45136 0
M  V30 3101 H 279.654 -1.01579 -8.12172 0
M  V30 3102 N 282.317 1.53212 0.369288 0
M  V30 3103 C 283.542 1.73423 1.1375 0
M  V30 3104 C 283.967 0.460404 1.82378 0
M  V30 3105 O 283.325 -0.585298 1.71592 0
M  V30 3106 C 283.373 2.89769 2.1463 0
M  V30 3107 O 282.477 2.58119 3.21634 0
M  V30 3108 H 281.818 0.576061 0.330227 0
M  V30 3109 H 284.348 2.00083 0.427547 0
M  V30 3110 H 284.358 3.15829 2.58294 0
M  V30 3111 H 283.033 3.8217 1.64071 0
M  V30 3112 H 281.61 2.42864 2.82969 0
M  V30 3113 N 283.795 -0.628877 1.44509 0
M  V30 3114 C 284.725 -1.75187 1.54376 0
M  V30 3115 C 285.706 -1.65411 0.396618 0
M  V30 3116 O 286.891 -1.84137 0.617031 0
M  V30 3117 C 284.021 -3.13725 1.48976 0
M  V30 3118 C 282.975 -3.38291 2.62189 0
M  V30 3119 C 282.301 -4.76883 2.41841 0
M  V30 3120 C 283.601 -3.30632 4.04326 0
M  V30 3121 H 285.295 -1.67187 2.48373 0
M  V30 3122 H 282.841 -0.802909 1.19538 0
M  V30 3123 H 284.794 -3.92064 1.54478 0
M  V30 3124 H 283.518 -3.22515 0.514961 0
M  V30 3125 H 282.177 -2.62334 2.56079 0
M  V30 3126 H 281.825 -4.82378 1.42548 0
M  V30 3127 H 281.525 -4.94278 3.17747 0
M  V30 3128 H 283.049 -5.57449 2.49165 0
M  V30 3129 H 284.463 -3.98873 4.11793 0
M  V30 3130 H 282.86 -3.59561 4.80454 0
M  V30 3131 H 283.93 -2.28404 4.27738 0
M  V30 3132 N 285.273 -1.31445 -0.869486 0
M  V30 3133 C 286.221 -1.19067 -1.99814 0
M  V30 3134 C 287.215 -0.0988569 -1.69111 0
M  V30 3135 O 288.421 -0.260781 -1.78101 0
M  V30 3136 H 284.796 -0.368677 -0.655425 0
M  V30 3137 H 286.767 -2.14555 -2.07385 0
M  V30 3138 C 285.516 -0.915323 -3.35436 0
M  V30 3139 H 284.839 -1.74759 -3.59582 0
M  V30 3140 H 286.279 -0.868895 -4.15001 0
M  V30 3141 C 284.738 0.381928 -3.34728 0
M  V30 3142 O 285.268 1.39857 -3.76567 0
M  V30 3143 N 283.474 0.398633 -2.87853 0
M  V30 3144 H 283.021 -0.429186 -2.54 0
M  V30 3145 H 282.979 1.26651 -2.87762 0
M  V30 3146 N 286.751 1.08385 -1.14413 0
M  V30 3147 C 287.976 1.85057 -0.936413 0
M  V30 3148 C 288.401 1.81055 0.509971 0
M  V30 3149 O 287.759 1.1958 1.36273 0
M  V30 3150 C 287.807 3.30505 -1.44217 0
M  V30 3151 O 286.911 4.07491 -0.634409 0
M  V30 3152 H 286.252 0.573425 -0.334784 0
M  V30 3153 H 288.782 1.36799 -1.52142 0
M  V30 3154 H 288.792 3.81348 -1.45043 0
M  V30 3155 H 287.467 3.32734 -2.49522 0
M  V30 3156 H 286.044 3.66368 -0.694902 0
M  V30 3157 N 288.23 0.939286 1.26551 0
M  V30 3158 C 289.458 0.602536 1.97932 0
M  V30 3159 C 289.873 -0.82206 1.69964 0
M  V30 3160 O 289.23 -1.54789 0.966784 0
M  V30 3161 C 289.281 0.832946 3.51773 0
M  V30 3162 O 289.002 2.20151 3.78768 0
M  V30 3163 C 290.503 0.506483 4.40397 0
M  V30 3164 H 287.723 0.227248 0.631347 0
M  V30 3165 H 290.267 1.25948 1.61113 0
M  V30 3166 H 288.422 0.222644 3.8676 0
M  V30 3167 H 288.836 2.26013 4.73306 0
M  V30 3168 H 290.31 0.718333 5.47306 0
M  V30 3169 H 290.787 -0.558451 4.35635 0
M  V30 3170 H 291.393 1.09543 4.10951 0
M  V30 3171 N 289.708 -1.40897 0.706093 0
M  V30 3172 C 290.936 -2.05373 0.250887 0
M  V30 3173 C 291.351 -1.53172 -1.10381 0
M  V30 3174 O 290.708 -0.684305 -1.69185 0
M  V30 3175 C 290.759 -3.6088 0.211571 0
M  V30 3176 O 290.48 -4.11153 1.51276 0
M  V30 3177 C 291.981 -4.42517 -0.263346 0
M  V30 3178 H 289.201 -0.66115 0.114552 0
M  V30 3179 H 291.745 -1.80479 0.961635 0
M  V30 3180 H 289.9 -3.84777 -0.450073 0
M  V30 3181 H 290.314 -5.05279 1.40689 0
M  V30 3182 H 291.788 -5.51479 -0.239718 0
M  V30 3183 H 292.265 -4.19396 -1.30397 0
M  V30 3184 H 292.871 -4.23708 0.367677 0
M  V30 3185 N 291.186 -0.45159 -1.50991 0
M  V30 3186 C 292.432 0.102439 -2.03142 0
M  V30 3187 C 292.787 1.39138 -1.32884 0
M  V30 3188 O 292.08 1.86493 -0.439438 0
M  V30 3189 C 292.274 0.361728 -3.55565 0
M  V30 3190 C 292.103 -0.900535 -4.40591 0
M  V30 3191 C 290.873 -1.43821 -4.844 0
M  V30 3192 C 293.071 -1.79063 -4.82121 0
M  V30 3193 N 291.053 -2.65153 -5.53685 0
M  V30 3194 C 292.424 -2.84991 -5.50618 0
M  V30 3195 C 294.479 -1.80334 -4.64095 0
M  V30 3196 C 293.182 -3.92155 -6.02998 0
M  V30 3197 C 295.208 -2.86442 -5.17402 0
M  V30 3198 C 294.57 -3.9109 -5.85857 0
M  V30 3199 H 290.669 -0.00204537 -0.781997 0
M  V30 3200 H 293.253 -0.615446 -1.84717 0
M  V30 3201 H 291.424 1.04865 -3.73976 0
M  V30 3202 H 293.156 0.908372 -3.94374 0
M  V30 3203 H 289.911 -0.990117 -4.63135 0
M  V30 3204 H 290.335 -3.26717 -5.92946 0
M  V30 3205 H 294.977 -1.00753 -4.1062 0
M  V30 3206 H 292.695 -4.72565 -6.55521 0
M  V30 3207 H 296.281 -2.88386 -5.05297 0
M  V30 3208 H 295.161 -4.71845 -6.26364 0
M  V30 3209 N 292.664 1.56529 -0.183458 0
M  V30 3210 C 293.611 2.18546 0.742055 0
M  V30 3211 C 294.581 1.12912 1.2182 0
M  V30 3212 O 295.766 1.41115 1.28418 0
M  V30 3213 C 292.906 2.83977 1.96089 0
M  V30 3214 C 292.019 4.04105 1.52719 0
M  V30 3215 C 291.154 4.57427 2.70063 0
M  V30 3216 C 290.193 5.69938 2.23243 0
M  V30 3217 N 289.33 6.17717 3.33722 0
M  V30 3218 H 294.17 2.97284 0.206432 0
M  V30 3219 H 291.707 1.46823 0.0901571 0
M  V30 3220 H 293.665 3.20077 2.67594 0
M  V30 3221 H 292.295 2.07822 2.47002 0
M  V30 3222 H 291.347 3.73745 0.708436 0
M  V30 3223 H 292.659 4.85513 1.1436 0
M  V30 3224 H 291.813 4.95772 3.49708 0
M  V30 3225 H 290.552 3.75101 3.11689 0
M  V30 3226 H 289.557 5.31133 1.42048 0
M  V30 3227 H 290.782 6.54073 1.82661 0
M  V30 3228 H 288.728 5.38317 3.74902 0
M  V30 3229 H 288.645 6.94146 2.99495 0
M  V30 3230 H 289.913 6.60713 4.13616 0
M  V30 3231 N 294.142 -0.090211 1.57342 0
M  V30 3232 C 295.388 -0.793982 1.86611 0
M  V30 3233 C 295.721 -1.78142 0.773252 0
M  V30 3234 O 294.996 -1.93271 -0.218304 0
M  V30 3235 C 295.279 -1.51839 3.26523 0
M  V30 3236 C 295.132 -0.548609 4.46442 0
M  V30 3237 C 296.451 -2.46779 3.64401 0
M  V30 3238 H 293.57 -0.287186 0.678744 0
M  V30 3239 H 296.212 -0.0575076 1.89913 0
M  V30 3240 H 294.362 -2.14617 3.23839 0
M  V30 3241 H 296.034 0.0725513 4.61243 0
M  V30 3242 H 294.277 0.137614 4.33582 0
M  V30 3243 H 294.948 -1.09271 5.41076 0
M  V30 3244 H 297.424 -1.94089 3.68061 0
M  V30 3245 H 296.3 -2.94479 4.63221 0
M  V30 3246 H 296.561 -3.30758 2.93346 0
M  V30 3247 N 295.62 -1.53406 -0.361157 0
M  V30 3248 C 296.55 -1.83136 -1.44857 0
M  V30 3249 C 297.531 -0.685174 -1.5569 0
M  V30 3250 O 298.716 -0.93544 -1.70186 0
M  V30 3251 C 295.846 -2.02522 -2.82138 0
M  V30 3252 C 294.8 -3.18302 -2.86126 0
M  V30 3253 C 294.126 -3.22989 -4.26125 0
M  V30 3254 C 295.426 -4.56796 -2.53248 0
M  V30 3255 H 297.12 -2.74201 -1.20226 0
M  V30 3256 H 294.666 -1.31938 -0.576922 0
M  V30 3257 H 296.619 -2.21904 -3.58241 0
M  V30 3258 H 295.343 -1.08172 -3.08166 0
M  V30 3259 H 294.002 -2.98747 -2.12475 0
M  V30 3260 H 293.65 -2.26267 -4.49235 0
M  V30 3261 H 293.35 -4.00781 -4.29708 0
M  V30 3262 H 294.874 -3.44559 -5.04094 0
M  V30 3263 H 296.288 -4.7631 -3.19064 0
M  V30 3264 H 294.685 -5.36862 -2.68141 0
M  V30 3265 H 295.755 -4.61606 -1.48484 0
M  V30 3266 N 297.098 0.621204 -1.44841 0
M  V30 3267 C 298.323 1.41244 -1.51871 0
M  V30 3268 C 298.748 1.87519 -0.147764 0
M  V30 3269 O 298.106 1.59334 0.865 0
M  V30 3270 C 298.154 2.60221 -2.49634 0
M  V30 3271 O 297.258 3.60395 -2.00473 0
M  V30 3272 H 296.599 0.42223 -0.512463 0
M  V30 3273 H 299.129 0.757305 -1.90069 0
M  V30 3274 H 299.139 3.0764 -2.67996 0
M  V30 3275 H 297.814 2.25887 -3.4921 0
M  V30 3276 H 296.391 3.19717 -1.91925 0
M  V30 3277 N 298.576 1.31904 0.862503 0
M  V30 3278 C 299.801 1.25135 1.65397 0
M  V30 3279 C 300.226 -0.179 1.87246 0
M  V30 3280 O 299.584 -1.1277 1.4196 0
M  V30 3281 C 299.632 2.00832 2.99498 0
M  V30 3282 O 298.736 1.35075 3.89652 0
M  V30 3283 H 298.077 0.431655 0.504549 0
M  V30 3284 H 300.607 1.74094 1.07483 0
M  V30 3285 H 300.617 2.10709 3.49379 0
M  V30 3286 H 299.292 3.04847 2.82916 0
M  V30 3287 H 297.869 1.33696 3.48109 0
M  V30 3288 N 300.054 -1.07777 1.14986 0
M  V30 3289 C 300.984 -2.16865 0.865557 0
M  V30 3290 C 301.965 -1.69123 -0.182083 0
M  V30 3291 O 303.15 -1.94164 -0.0373815 0
M  V30 3292 C 300.28 -3.45539 0.349313 0
M  V30 3293 C 299.234 -4.06708 1.33313 0
M  V30 3294 C 298.56 -5.30411 0.675918 0
M  V30 3295 C 299.86 -4.47241 2.69764 0
M  V30 3296 H 301.554 -2.40905 1.77778 0
M  V30 3297 H 299.1 -1.15781 0.856203 0
M  V30 3298 H 301.053 -4.21174 0.137983 0
M  V30 3299 H 299.777 -3.21072 -0.598362 0
M  V30 3300 H 298.436 -3.33112 1.53075 0
M  V30 3301 H 298.084 -5.02232 -0.277767 0
M  V30 3302 H 297.784 -5.72293 1.33244 0
M  V30 3303 H 299.308 -6.08755 0.474262 0
M  V30 3304 H 300.722 -5.14025 2.53873 0
M  V30 3305 H 299.119 -5.00062 3.3175 0
M  V30 3306 H 300.189 -3.58818 3.26156 0
M  V30 3307 N 301.532 -0.945985 -1.26051 0
M  V30 3308 C 302.442 -0.465633 -2.29933 0
M  V30 3309 C 303.458 0.462761 -1.67733 0
M  V30 3310 O 304.634 0.341118 -1.9849 0
M  V30 3311 C 301.699 0.256994 -3.45746 0
M  V30 3312 C 300.76 -0.708549 -4.23412 0
M  V30 3313 C 299.993 -0.0203135 -5.33696 0
M  V30 3314 O 300.216 1.19571 -5.57726 0
M  V30 3315 O 299.15 -0.701459 -5.97799 0
M  V30 3316 H 302.976 -1.32866 -2.73094 0
M  V30 3317 H 300.561 -0.712071 -1.31339 0
M  V30 3318 H 302.443 0.663852 -4.16138 0
M  V30 3319 H 301.118 1.09533 -3.04605 0
M  V30 3320 H 300.025 -1.16545 -3.55483 0
M  V30 3321 H 301.358 -1.51465 -4.68315 0
M  V30 3322 N 303.011 1.40521 -0.713556 0
M  V30 3323 C 304.26 2.00155 -0.249192 0
M  V30 3324 C 304.573 1.57224 1.16362 0
M  V30 3325 O 305.779 2.09542 1.72639 0
M  V30 3326 C 304.235 3.5773 -0.3946 0
M  V30 3327 C 303.843 4.09635 -1.81392 0
M  V30 3328 C 305.587 4.24499 0.00907364 0
M  V30 3329 C 303.494 5.59707 -1.91003 0
M  V30 3330 H 302.424 0.74868 -0.0894114 0
M  V30 3331 H 305.075 1.60784 -0.884352 0
M  V30 3332 H 303.457 3.94792 0.30911 0
M  V30 3333 H 304.631 3.83955 -2.54785 0
M  V30 3334 H 302.946 3.55456 -2.16888 0
M  V30 3335 H 305.543 5.34683 -0.0420404 0
M  V30 3336 H 305.886 4.02824 1.05065 0
M  V30 3337 H 306.419 3.92536 -0.645007 0
M  V30 3338 H 303.158 5.86234 -2.93275 0
M  V30 3339 H 302.678 5.87258 -1.22019 0
M  V30 3340 H 304.357 6.24776 -1.6812 0
M  V30 3341 N 304.489 0.459591 1.5075 0
M  V30 3342 C 305.437 -0.354678 2.2988 0
M  V30 3343 C 306.431 -1.00086 1.36672 0
M  V30 3344 O 307.637 -0.933277 1.53915 0
M  V30 3345 H 304.012 -0.13321 0.740107 0
M  V30 3346 H 305.983 0.333269 2.96533 0
M  V30 3347 C 304.732 -1.43073 3.169 0
M  V30 3348 H 304.055 -0.942882 3.88523 0
M  V30 3349 H 305.495 -1.97328 3.75284 0
M  V30 3350 C 303.954 -2.42633 2.33732 0
M  V30 3351 O 304.484 -3.47658 2.01238 0
M  V30 3352 N 302.69 -2.14066 1.9653 0
M  V30 3353 H 302.237 -1.28685 2.23155 0
M  V30 3354 H 302.195 -2.80917 1.41185 0
M  V30 3355 N 305.967 -1.56429 0.191757 0
M  V30 3356 C 307.216 -1.9666 -0.448088 0
M  V30 3357 C 307.529 -1.08136 -1.62991 0
M  V30 3358 O 308.735 -1.38135 -2.33733 0
M  V30 3359 C 307.191 -3.49753 -0.848585 0
M  V30 3360 C 306.799 -4.46935 0.308764 0
M  V30 3361 C 308.543 -3.9876 -1.4557 0
M  V30 3362 C 306.45 -5.91293 -0.112506 0
M  V30 3363 H 305.38 -0.734312 -0.171179 0
M  V30 3364 H 308.031 -1.81301 0.283242 0
M  V30 3365 H 306.413 -3.60604 -1.63649 0
M  V30 3366 H 307.587 -4.47813 1.08627 0
M  V30 3367 H 305.902 -4.08102 0.827158 0
M  V30 3368 H 308.499 -5.04086 -1.78328 0
M  V30 3369 H 308.842 -3.42875 -2.36099 0
M  V30 3370 H 309.375 -3.9101 -0.731836 0
M  V30 3371 H 306.114 -6.51097 0.758514 0
M  V30 3372 H 305.634 -5.93676 -0.854941 0
M  V30 3373 H 307.313 -6.44663 -0.549448 0
M  V30 3374 N 307.445 0.0818655 -1.57387 0
M  V30 3375 C 308.375 1.09885 -2.06028 0
M  V30 3376 C 309.356 1.4098 -0.951774 0
M  V30 3377 O 310.541 1.50781 -1.22387 0
M  V30 3378 C 307.671 2.4151 -2.4958 0
M  V30 3379 C 306.625 2.24792 -3.64215 0
M  V30 3380 C 305.951 3.61712 -3.93787 0
M  V30 3381 C 307.251 1.67749 -4.94629 0
M  V30 3382 H 308.945 0.694128 -2.91243 0
M  V30 3383 H 306.491 0.332448 -1.4011 0
M  V30 3384 H 308.444 3.12939 -2.82219 0
M  V30 3385 H 307.168 2.83943 -1.61381 0
M  V30 3386 H 305.827 1.55807 -3.31843 0
M  V30 3387 H 305.475 4.01697 -3.02735 0
M  V30 3388 H 305.175 3.51368 -4.70971 0
M  V30 3389 H 306.699 4.34587 -4.28913 0
M  V30 3390 H 308.113 2.29032 -5.25564 0
M  V30 3391 H 306.51 1.68128 -5.76067 0
M  V30 3392 H 307.58 0.638059 -4.80684 0
M  V30 3393 N 308.923 1.53595 0.353017 0
M  V30 3394 C 310.171 1.70049 1.09215 0
M  V30 3395 C 310.492 0.461406 1.89463 0
M  V30 3396 O 309.762 -0.524633 1.88744 0
M  V30 3397 H 308.342 0.626912 0.40619 0
M  V30 3398 H 311.004 1.90822 0.396585 0
M  V30 3399 H 310.1 2.56718 1.77488 0
M  V30 3400 N 310.401 -0.613514 1.45168 0
M  V30 3401 C 311.331 -1.7354 1.56225 0
M  V30 3402 C 312.312 -1.64981 0.41414 0
M  V30 3403 O 313.497 -1.83472 0.636526 0
M  V30 3404 C 310.627 -3.12128 1.52295 0
M  V30 3405 C 309.581 -3.35491 2.65762 0
M  V30 3406 C 308.907 -4.74291 2.46885 0
M  V30 3407 C 310.207 -3.26325 4.0781 0
M  V30 3408 H 311.901 -1.64543 2.50132 0
M  V30 3409 H 309.447 -0.790185 1.20383 0
M  V30 3410 H 311.4 -3.90404 1.58628 0
M  V30 3411 H 310.124 -3.2195 0.549139 0
M  V30 3412 H 308.783 -2.59603 2.58847 0
M  V30 3413 H 308.431 -4.80839 1.47657 0
M  V30 3414 H 308.131 -4.9088 3.22972 0
M  V30 3415 H 309.655 -5.54775 2.55063 0
M  V30 3416 H 311.069 -3.94483 4.16 0
M  V30 3417 H 309.466 -3.54445 4.8424 0
M  V30 3418 H 310.536 -2.23855 4.30136 0
M  V30 3419 N 311.879 -1.3236 -0.855495 0
M  V30 3420 C 313.125 -1.23054 -1.612 0
M  V30 3421 C 313.458 0.207404 -1.93089 0
M  V30 3422 O 312.733 1.14432 -1.57275 0
M  V30 3423 C 313.016 -2.08937 -2.93287 0
M  V30 3424 C 312.869 -3.61105 -2.68185 0
M  V30 3425 C 314.188 -1.94986 -3.94549 0
M  V30 3426 H 311.307 -0.448364 -0.584926 0
M  V30 3427 H 313.949 -1.62297 -0.987917 0
M  V30 3428 H 312.099 -1.75599 -3.46551 0
M  V30 3429 H 313.771 -4.04652 -2.21483 0
M  V30 3430 H 312.014 -3.83813 -2.02164 0
M  V30 3431 H 312.685 -4.16522 -3.62234 0
M  V30 3432 H 315.161 -2.24189 -3.5054 0
M  V30 3433 H 314.037 -2.57356 -4.84829 0
M  V30 3434 H 314.298 -0.917263 -4.3248 0
M  V30 3435 N 313.357 1.07166 -1.15556 0
M  V30 3436 C 314.606 1.79181 -0.926132 0
M  V30 3437 C 314.919 1.87768 0.547967 0
M  V30 3438 O 316.125 2.56323 0.895036 0
M  V30 3439 C 314.581 3.22 -1.60761 0
M  V30 3440 C 314.189 3.21607 -3.11886 0
M  V30 3441 C 315.933 3.9861 -1.4598 0
M  V30 3442 C 313.84 4.59092 -3.72812 0
M  V30 3443 H 312.77 0.67154 -0.342856 0
M  V30 3444 H 315.421 1.2027 -1.3859 0
M  V30 3445 H 313.803 3.81115 -1.07553 0
M  V30 3446 H 314.977 2.72127 -3.71865 0
M  V30 3447 H 313.292 2.58495 -3.2645 0
M  V30 3448 H 315.889 5.00225 -1.88888 0
M  V30 3449 H 316.232 4.143 -0.407541 0
M  V30 3450 H 316.765 3.45996 -1.96295 0
M  V30 3451 H 313.504 4.48606 -4.77946 0
M  V30 3452 H 313.024 5.08803 -3.17616 0
M  V30 3453 H 314.703 5.28059 -3.73848 0
M  V30 3454 N 314.835 0.952656 1.25548 0
M  V30 3455 C 316.246 0.647392 1.75116 0
M  V30 3456 C 316.597 -0.837274 1.77438 0
M  V30 3457 O 315.722 -1.65525 1.39393 0
M  V30 3458 C 316.317 1.16845 3.18014 0
M  V30 3459 C 314.876 0.913382 3.6515 0
M  V30 3460 C 314.023 1.31265 2.44264 0
M  V30 3461 H 316.974 1.12968 1.11462 0
M  V30 3462 H 316.995 0.527606 3.76824 0
M  V30 3463 H 316.507 2.24902 3.16292 0
M  V30 3464 H 314.608 -0.152316 3.72289 0
M  V30 3465 H 314.721 1.54845 4.53387 0
M  V30 3466 H 313.085 0.731028 2.43984 0
M  V30 3467 H 313.868 2.40239 2.45234 0
M  V30 3468 N 316.313 -1.40141 0.720998 0
M  V30 3469 C 317.243 -2.33339 0.0867621 0
M  V30 3470 C 318.224 -1.53178 -0.739622 0
M  V30 3471 O 319.409 -1.81625 -0.687449 0
M  V30 3472 C 316.539 -3.37194 -0.831728 0
M  V30 3473 C 315.493 -4.27857 -0.110558 0
M  V30 3474 C 314.819 -5.22294 -1.14513 0
M  V30 3475 C 316.119 -5.11872 1.0385 0
M  V30 3476 H 317.813 -2.86626 0.865219 0
M  V30 3477 H 315.359 -1.37814 0.417516 0
M  V30 3478 H 317.312 -4.01335 -1.28485 0
M  V30 3479 H 316.036 -2.82314 -1.64214 0
M  V30 3480 H 314.695 -3.65176 0.322797 0
M  V30 3481 H 314.343 -4.63717 -1.94874 0
M  V30 3482 H 314.043 -5.83797 -0.667446 0
M  V30 3483 H 315.567 -5.89312 -1.59824 0
M  V30 3484 H 316.981 -5.69436 0.664482 0
M  V30 3485 H 315.378 -5.82445 1.4449 0
M  V30 3486 H 316.448 -4.4753 1.86668 0
M  V30 3487 N 317.792 -0.46758 -1.50504 0
M  V30 3488 C 319.04 0.0884469 -2.01906 0
M  V30 3489 C 319.361 1.40532 -1.35188 0
M  V30 3490 O 318.631 1.89515 -0.496079 0
M  V30 3491 H 317.211 0.0356765 -0.746148 0
M  V30 3492 H 319.873 -0.6172 -1.84869 0
M  V30 3493 H 318.969 0.2425 -3.11156 0
M  V30 3494 N 319.27 1.56325 -0.20005 0
M  V30 3495 C 320.519 1.96895 0.437652 0
M  V30 3496 C 320.832 1.08999 1.62415 0
M  V30 3497 O 322.038 1.39372 2.32997 0
M  V30 3498 C 320.494 3.50198 0.830025 0
M  V30 3499 C 320.102 4.46765 -0.332461 0
M  V30 3500 C 321.846 3.99526 1.43453 0
M  V30 3501 C 319.753 5.91344 0.0811468 0
M  V30 3502 H 318.683 0.735209 0.167282 0
M  V30 3503 H 321.334 1.81148 -0.292853 0
M  V30 3504 H 319.716 3.61467 1.61734 0
M  V30 3505 H 320.89 4.47231 -1.11 0
M  V30 3506 H 319.205 4.07657 -0.848789 0
M  V30 3507 H 321.802 5.05025 1.75652 0
M  V30 3508 H 322.145 3.44122 2.34277 0
M  V30 3509 H 322.678 3.91393 0.71109 0
M  V30 3510 H 319.417 6.50685 -0.793033 0
M  V30 3511 H 318.937 5.94121 0.823445 0
M  V30 3512 H 320.616 6.44945 0.515252 0
M  V30 3513 N 320.748 -0.0735177 1.57428 0
M  V30 3514 C 321.681 -1.11932 1.98863 0
M  V30 3515 C 322.659 -1.37666 0.865266 0
M  V30 3516 O 323.843 -1.51068 1.12742 0
M  V30 3517 C 320.97 -2.46403 2.32386 0
M  V30 3518 C 320.016 -2.36815 3.54713 0
M  V30 3519 S 320.849 -1.76392 5.05614 0
M  V30 3520 C 322.005 -3.12444 5.42337 0
M  V30 3521 H 322.238 -0.766212 2.87257 0
M  V30 3522 H 319.771 -0.281987 1.51803 0
M  V30 3523 H 321.729 -3.23755 2.52375 0
M  V30 3524 H 320.39 -2.78876 1.44524 0
M  V30 3525 H 319.583 -3.35977 3.7568 0
M  V30 3526 H 319.185 -1.67598 3.34345 0
M  V30 3527 H 321.477 -4.08753 5.40303 0
M  V30 3528 H 322.42 -2.96258 6.43146 0
M  V30 3529 H 322.828 -3.1297 4.69798 0
M  V30 3530 N 322.226 -1.5378 -0.344866 0
M  V30 3531 C 323.156 -1.84662 -1.42906 0
M  V30 3532 C 324.137 -0.701648 -1.54955 0
M  V30 3533 O 325.322 -0.953438 -1.69184 0
M  V30 3534 C 322.452 -2.05503 -2.79974 0
M  V30 3535 C 321.406 -3.21318 -2.82734 0
M  V30 3536 C 320.732 -3.2749 -4.22675 0
M  V30 3537 C 322.032 -4.59456 -2.48389 0
M  V30 3538 H 323.726 -2.75461 -1.17311 0
M  V30 3539 H 321.272 -1.32542 -0.562896 0
M  V30 3540 H 323.225 -2.25691 -3.55867 0
M  V30 3541 H 321.949 -1.11434 -3.07002 0
M  V30 3542 H 320.608 -3.00984 -2.09294 0
M  V30 3543 H 320.256 -2.31019 -4.4681 0
M  V30 3544 H 319.956 -4.05316 -4.25433 0
M  V30 3545 H 321.48 -3.49887 -5.00412 0
M  V30 3546 H 322.894 -4.79667 -3.13995 0
M  V30 3547 H 321.291 -5.39675 -2.62432 0
M  V30 3548 H 322.361 -4.63155 -1.4358 0
M  V30 3549 N 323.704 0.605807 -1.45491 0
M  V30 3550 C 324.951 1.36476 -1.49601 0
M  V30 3551 C 325.279 1.94007 -0.138452 0
M  V30 3552 O 324.534 1.75638 0.863114 0
M  V30 3553 C 324.833 2.53012 -2.52428 0
M  V30 3554 C 324.499 2.13617 -3.97087 0
M  V30 3555 C 323.161 2.02587 -4.36477 0
M  V30 3556 C 325.513 1.82899 -4.88055 0
M  V30 3557 C 322.841 1.59064 -5.64726 0
M  V30 3558 C 325.193 1.40861 -6.16718 0
M  V30 3559 C 323.857 1.28391 -6.55036 0
M  V30 3560 H 323.127 0.499402 -0.547429 0
M  V30 3561 H 325.774 0.684546 -1.78847 0
M  V30 3562 H 324.079 3.26379 -2.16758 0
M  V30 3563 H 325.776 3.1124 -2.52845 0
M  V30 3564 H 322.366 2.23129 -3.65939 0
M  V30 3565 H 326.55 1.90317 -4.58359 0
M  V30 3566 H 321.806 1.48034 -5.93208 0
M  V30 3567 H 325.98 1.16138 -6.86648 0
M  V30 3568 H 323.607 0.944403 -7.54311 0
M  V30 3569 N 325.182 1.32811 0.848464 0
M  V30 3570 C 326.422 1.25046 1.61687 0
M  V30 3571 C 326.786 -0.183464 1.91121 0
M  V30 3572 O 327.987 -0.384937 2.66029 0
M  V30 3573 C 326.258 2.09201 2.89775 0
M  V30 3574 S 327.817 2.18526 3.80515 0
M  V30 3575 H 324.635 0.445023 0.554505 0
M  V30 3576 H 327.237 1.67733 1.00429 0
M  V30 3577 H 325.941 3.12433 2.66108 0
M  V30 3578 H 325.472 1.67315 3.56047 0
M  V30 3579 H 327.487 1.3393 4.77784 0
M  V30 3580 N 326.66 -1.06551 1.16123 0
M  V30 3581 C 327.89 -1.8274 0.963838 0
M  V30 3582 C 328.298 -1.82712 -0.491228 0
M  V30 3583 O 327.641 -1.24294 -1.35265 0
M  V30 3584 C 327.703 -3.3065 1.41106 0
M  V30 3585 C 327.367 -3.54384 2.88549 0
M  V30 3586 C 328.364 -3.4765 3.86569 0
M  V30 3587 C 326.049 -3.81789 3.26408 0
M  V30 3588 C 328.043 -3.67982 5.2045 0
M  V30 3589 C 325.73 -4.01772 4.60459 0
M  V30 3590 C 326.728 -3.94866 5.57288 0
M  V30 3591 O 326.416 -4.14306 6.88916 0
M  V30 3592 H 326.148 -0.583136 0.341948 0
M  V30 3593 H 328.702 -1.35351 1.54497 0
M  V30 3594 H 326.932 -3.78887 0.773394 0
M  V30 3595 H 328.621 -3.88324 1.1815 0
M  V30 3596 H 329.387 -3.2647 3.58667 0
M  V30 3597 H 325.266 -3.86276 2.51619 0
M  V30 3598 H 328.81 -3.62507 5.96015 0
M  V30 3599 H 324.707 -4.2244 4.88072 0
M  V30 3600 H 325.475 -4.31609 6.95454 0
M  V30 3601 N 328.138 -0.959301 -1.25041 0
M  V30 3602 C 329.363 -0.633507 -1.97488 0
M  V30 3603 C 329.788 0.788555 -1.70773 0
M  V30 3604 O 329.146 1.53394 -0.966431 0
M  V30 3605 C 329.194 -0.904057 -3.49083 0
M  V30 3606 O 328.298 0.0147939 -4.12397 0
M  V30 3607 H 327.639 -0.240368 -0.618966 0
M  V30 3608 H 330.169 -1.28717 -1.59038 0
M  V30 3609 H 330.179 -0.832203 -3.99423 0
M  V30 3610 H 328.854 -1.94048 -3.67856 0
M  V30 3611 H 327.431 -0.109664 -3.72739 0
M  V30 3612 N 329.616 1.39756 -0.72842 0
M  V30 3613 C 330.549 2.28176 -0.0330172 0
M  V30 3614 C 331.527 1.44035 0.754501 0
M  V30 3615 O 332.711 1.73434 0.738445 0
M  V30 3616 C 329.838 3.24795 0.960504 0
M  V30 3617 C 328.884 4.25693 0.262264 0
M  V30 3618 S 329.717 5.25714 -1.01906 0
M  V30 3619 C 330.873 6.25894 -0.0279717 0
M  V30 3620 H 331.106 2.86807 -0.78287 0
M  V30 3621 H 328.639 1.45382 -0.519951 0
M  V30 3622 H 330.597 3.80983 1.52846 0
M  V30 3623 H 329.258 2.65196 1.68315 0
M  V30 3624 H 328.451 4.93699 1.01379 0
M  V30 3625 H 328.053 3.7327 -0.233482 0
M  V30 3626 H 330.345 6.72585 0.814621 0
M  V30 3627 H 331.288 7.04876 -0.67499 0
M  V30 3628 H 331.696 5.63466 0.341489 0
M  V30 3629 N 331.094 0.475555 1.50254 0
M  V30 3630 C 332.343 -0.0795996 2.01543 0
M  V30 3631 C 332.656 -1.4038 1.36209 0
M  V30 3632 O 333.862 -2.04415 1.7868 0
M  V30 3633 C 332.318 -0.192363 3.59386 0
M  V30 3634 C 331.926 1.12367 4.33679 0
M  V30 3635 C 333.67 -0.699238 4.18701 0
M  V30 3636 C 331.577 0.974453 5.83317 0
M  V30 3637 H 330.507 -0.0335228 0.753254 0
M  V30 3638 H 333.158 0.611128 1.73025 0
M  V30 3639 H 331.54 -0.946974 3.84511 0
M  V30 3640 H 332.714 1.88958 4.20276 0
M  V30 3641 H 331.029 1.562 3.85993 0
M  V30 3642 H 333.626 -0.827978 5.28251 0
M  V30 3643 H 333.969 -1.69171 3.80377 0
M  V30 3644 H 334.502 -0.00188807 3.978 0
M  V30 3645 H 331.241 1.94042 6.26121 0
M  V30 3646 H 330.761 0.248998 5.99283 0
M  V30 3647 H 332.44 0.642867 6.43798 0
M  V30 3648 N 332.573 -1.56217 0.208337 0
M  V30 3649 C 333.822 -1.97124 -0.427204 0
M  V30 3650 C 334.135 -1.09859 -1.61835 0
M  V30 3651 O 335.341 -1.40606 -2.32255 0
M  V30 3652 C 333.797 -3.50633 -0.811442 0
M  V30 3653 C 333.405 -4.46582 0.35615 0
M  V30 3654 C 335.149 -4.00282 -1.41332 0
M  V30 3655 C 333.056 -5.91379 -0.0497852 0
M  V30 3656 H 331.986 -0.736086 -0.163381 0
M  V30 3657 H 334.637 -1.8099 0.302456 0
M  V30 3658 H 333.019 -3.62319 -1.59815 0
M  V30 3659 H 334.193 -4.46636 1.1337 0
M  V30 3660 H 332.508 -4.07202 0.870396 0
M  V30 3661 H 335.105 -5.0595 -1.72972 0
M  V30 3662 H 335.448 -3.45359 -2.32449 0
M  V30 3663 H 335.981 -3.91764 -0.690323 0
M  V30 3664 H 332.72 -6.50255 0.827529 0
M  V30 3665 H 332.24 -5.94549 -0.791926 0
M  V30 3666 H 333.919 -6.45209 -0.481042 0
M  V30 3667 N 334.051 0.0651679 -1.57465 0
M  V30 3668 C 335.467 0.420105 -1.53972 0
M  V30 3669 C 335.667 1.78782 -0.929474 0
M  V30 3670 O 334.723 2.46771 -0.534839 0
M  V30 3671 C 336.036 0.355084 -2.98596 0
M  V30 3672 C 337.584 0.434792 -3.09965 0
M  V30 3673 C 338.059 0.399609 -4.56253 0
M  V30 3674 N 339.55 0.459488 -4.60915 0
M  V30 3675 C 340.285 0.454584 -5.71595 0
M  V30 3676 N 339.781 0.404102 -6.9162 0
M  V30 3677 N 341.574 0.501635 -5.59857 0
M  V30 3678 H 333.725 -0.830328 -1.95498 0
M  V30 3679 H 335.988 -0.312244 -0.895102 0
M  V30 3680 H 335.694 -0.583357 -3.46828 0
M  V30 3681 H 335.568 1.16275 -3.58831 0
M  V30 3682 H 337.955 1.36366 -2.61703 0
M  V30 3683 H 338.036 -0.40157 -2.52628 0
M  V30 3684 H 337.68 -0.525436 -5.05175 0
M  V30 3685 H 337.61 1.25359 -5.11461 0
M  V30 3686 H 340.101 0.502482 -3.74544 0
M  V30 3687 H 340.414 0.404468 -7.71741 0
M  V30 3688 H 338.759 0.37069 -6.94011 0
M  V30 3689 H 341.95 0.538812 -4.64989 0
M  V30 3690 H 342.123 0.494345 -6.46112 0
M  V30 3691 N 335.529 1.53961 0.336706 0
M  V30 3692 C 336.757 1.75483 1.09605 0
M  V30 3693 C 337.172 0.4972 1.82136 0
M  V30 3694 O 336.529 -0.53149 1.74589 0
M  V30 3695 C 336.58 2.93943 2.10428 0
M  V30 3696 O 336.301 4.14842 1.40846 0
M  V30 3697 C 337.802 3.27571 2.98684 0
M  V30 3698 H 335.022 0.586166 0.326574 0
M  V30 3699 H 337.566 2.00808 0.38683 0
M  V30 3700 H 335.721 2.70929 2.76905 0
M  V30 3701 H 336.135 4.81383 2.08255 0
M  V30 3702 H 337.609 4.13791 3.6535 0
M  V30 3703 H 338.086 2.44168 3.65074 0
M  V30 3704 H 338.692 3.52615 2.37787 0
M  V30 3705 N 337.007 -0.598083 1.45811 0
M  V30 3706 C 337.937 -1.71873 1.58057 0
M  V30 3707 C 338.918 -1.64533 0.431615 0
M  V30 3708 O 340.103 -1.82787 0.65595 0
M  V30 3709 C 337.233 -3.10495 1.55597 0
M  V30 3710 C 336.187 -3.32654 2.69305 0
M  V30 3711 C 335.513 -4.71646 2.51902 0
M  V30 3712 C 336.813 -3.21981 4.11248 0
M  V30 3713 H 338.507 -1.61881 2.51863 0
M  V30 3714 H 336.053 -0.777372 1.21214 0
M  V30 3715 H 338.006 -3.88699 1.6276 0
M  V30 3716 H 336.73 -3.2135 0.583255 0
M  V30 3717 H 335.389 -2.56843 2.61586 0
M  V30 3718 H 335.037 -4.79246 1.52748 0
M  V30 3719 H 334.737 -4.87426 3.2816 0
M  V30 3720 H 336.261 -5.52038 2.60933 0
M  V30 3721 H 337.675 -3.90049 4.20161 0
M  V30 3722 H 336.072 -3.49289 4.87972 0
M  V30 3723 H 337.142 -2.1928 4.32486 0
M  V30 3724 N 338.485 -1.33259 -0.841409 0
M  V30 3725 C 339.417 -1.19136 -1.95804 0
M  V30 3726 C 340.43 -0.122965 -1.62335 0
M  V30 3727 O 341.619 -0.373154 -1.74556 0
M  V30 3728 C 338.719 -0.804268 -3.29218 0
M  V30 3729 C 337.892 -1.96376 -3.90839 0
M  V30 3730 C 336.951 -1.55806 -5.02604 0
M  V30 3731 O 335.977 -2.27203 -5.21888 0
M  V30 3732 N 337.179 -0.461609 -5.78662 0
M  V30 3733 H 339.944 -2.15326 -2.08458 0
M  V30 3734 H 337.505 -1.25971 -1.017 0
M  V30 3735 H 339.497 -0.51501 -4.0141 0
M  V30 3736 H 338.067 0.0668809 -3.12528 0
M  V30 3737 H 337.287 -2.41879 -3.11269 0
M  V30 3738 H 338.575 -2.73966 -4.28742 0
M  V30 3739 H 337.973 0.132343 -5.65545 0
M  V30 3740 H 336.53 -0.232013 -6.51387 0
M  V30 3741 N 339.963 1.05934 -1.16686 0
M  V30 3742 C 340.913 2.11764 -0.844978 0
M  V30 3743 C 341.897 1.59922 0.177178 0
M  V30 3744 O 343.089 1.76983 -0.0241768 0
M  V30 3745 C 340.218 3.41493 -0.351812 0
M  V30 3746 C 339.304 4.00152 -1.40496 0
M  V30 3747 N 339.695 4.32874 -2.61636 0
M  V30 3748 C 337.993 4.278 -1.26106 0
M  V30 3749 C 338.694 4.79552 -3.29249 0
M  V30 3750 N 337.67 4.79211 -2.56628 0
M  V30 3751 H 341.472 2.34916 -1.76612 0
M  V30 3752 H 338.986 1.23511 -1.05446 0
M  V30 3753 H 340.983 4.16773 -0.102796 0
M  V30 3754 H 339.643 3.19778 0.56322 0
M  V30 3755 H 340.654 4.23109 -2.98663 0
M  V30 3756 H 337.331 4.15511 -0.407081 0
M  V30 3757 H 338.721 5.14045 -4.32675 0
M  V30 3758 N 341.441 0.965919 1.2453 0
M  V30 3759 C 342.681 0.634656 1.94297 0
M  V30 3760 C 343.045 -0.814822 1.73852 0
M  V30 3761 O 344.246 -1.25622 2.3764 0
M  V30 3762 C 342.517 0.99702 3.43212 0
M  V30 3763 S 344.076 0.780038 4.31811 0
M  V30 3764 H 340.894 0.232893 0.671775 0
M  V30 3765 H 343.496 1.24249 1.50938 0
M  V30 3766 H 342.2 2.04886 3.55598 0
M  V30 3767 H 341.731 0.379888 3.91562 0
M  V30 3768 H 343.746 -0.343512 4.9501 0
M  V30 3769 N 342.919 -1.39368 0.735821 0
M  V30 3770 C 343.866 -2.30599 0.0963825 0
M  V30 3771 C 344.836 -1.49257 -0.728794 0
M  V30 3772 O 346.021 -1.77941 -0.688588 0
M  V30 3773 C 343.161 -3.35596 -0.804305 0
M  V30 3774 C 342.274 -4.31987 0.0335761 0
M  V30 3775 C 341.409 -5.24053 -0.868461 0
M  V30 3776 C 340.448 -6.12095 -0.0258776 0
M  V30 3777 N 339.585 -6.96514 -0.883893 0
M  V30 3778 H 344.425 -2.8471 0.880002 0
M  V30 3779 H 341.962 -1.40188 0.445619 0
M  V30 3780 H 343.92 -3.95062 -1.34096 0
M  V30 3781 H 342.55 -2.82938 -1.55389 0
M  V30 3782 H 341.602 -3.74133 0.68766 0
M  V30 3783 H 342.914 -4.94074 0.685036 0
M  V30 3784 H 342.068 -5.88549 -1.47293 0
M  V30 3785 H 340.807 -4.62289 -1.5537 0
M  V30 3786 H 339.812 -5.4661 0.591386 0
M  V30 3787 H 341.037 -6.75923 0.656156 0
M  V30 3788 H 338.983 -6.37318 -1.55441 0
M  V30 3789 H 338.9 -7.55448 -0.288931 0
M  V30 3790 H 340.168 -7.65439 -1.4739 0
M  V30 3791 N 344.397 -0.483516 -1.5 0
M  V30 3792 C 345.345 0.318061 -2.30415 0
M  V30 3793 C 346.339 0.978988 -1.38247 0
M  V30 3794 O 347.545 0.908673 -1.55381 0
M  V30 3795 H 343.92 0.121419 -0.742133 0
M  V30 3796 H 345.891 -0.380403 -2.95965 0
M  V30 3797 C 344.64 1.38013 -3.19136 0
M  V30 3798 H 343.963 0.880952 -3.89973 0
M  V30 3799 H 345.403 1.91332 -3.78375 0
M  V30 3800 C 343.862 2.38884 -2.37563 0
M  V30 3801 O 344.392 3.44412 -2.06744 0
M  V30 3802 N 342.598 2.10912 -1.99911 0
M  V30 3803 H 342.145 1.25118 -2.25174 0
M  V30 3804 H 342.103 2.78635 -1.45636 0
M  V30 3805 N 345.875 1.56104 -0.216619 0
M  V30 3806 C 346.785 2.23694 0.706982 0
M  V30 3807 C 347.801 1.24295 1.21765 0
M  V30 3808 O 348.977 1.57094 1.2603 0
M  V30 3809 C 346.042 2.8998 1.90033 0
M  V30 3810 C 345.103 4.04708 1.43213 0
M  V30 3811 C 344.336 4.67824 2.56859 0
M  V30 3812 O 344.559 4.29913 3.74874 0
M  V30 3813 O 343.493 5.56905 2.28343 0
M  V30 3814 H 347.319 3.03272 0.161235 0
M  V30 3815 H 344.904 1.49394 0.0136177 0
M  V30 3816 H 346.786 3.31837 2.59735 0
M  V30 3817 H 345.461 2.13365 2.43428 0
M  V30 3818 H 344.368 3.6743 0.70327 0
M  V30 3819 H 345.701 4.83051 0.944615 0
M  V30 3820 N 347.353 -0.0568162 1.57498 0
M  V30 3821 C 348.3 -1.06591 2.04712 0
M  V30 3822 C 349.27 -1.3758 0.930644 0
M  V30 3823 O 350.455 -1.48392 1.19935 0
M  V30 3824 C 347.595 -2.3701 2.50839 0
M  V30 3825 C 346.708 -2.12421 3.76167 0
M  V30 3826 C 345.843 -3.36511 4.11015 0
M  V30 3827 C 344.882 -3.07353 5.2934 0
M  V30 3828 N 344.019 -4.23816 5.59754 0
M  V30 3829 H 348.859 -0.65631 2.90683 0
M  V30 3830 H 346.396 -0.312481 1.43743 0
M  V30 3831 H 348.354 -3.13175 2.7564 0
M  V30 3832 H 346.984 -2.75744 1.67825 0
M  V30 3833 H 346.036 -1.2688 3.58616 0
M  V30 3834 H 347.348 -1.86894 4.62463 0
M  V30 3835 H 346.502 -4.21062 4.36797 0
M  V30 3836 H 345.241 -3.65128 3.23315 0
M  V30 3837 H 344.246 -2.212 5.03339 0
M  V30 3838 H 345.471 -2.80043 6.1867 0
M  V30 3839 H 343.417 -4.52436 4.75014 0
M  V30 3840 H 343.334 -4.01614 6.40501 0
M  V30 3841 H 344.602 -5.0932 5.90096 0
M  V30 3842 N 348.832 -1.54138 -0.328536 0
M  V30 3843 C 349.779 -1.83176 -1.40411 0
M  V30 3844 C 350.749 -0.678494 -1.5161 0
M  V30 3845 O 351.934 -0.92443 -1.6691 0
M  V30 3846 C 349.074 -2.06035 -2.76846 0
M  V30 3847 C 348.187 -3.33727 -2.74318 0
M  V30 3848 C 347.322 -3.46574 -4.02567 0
M  V30 3849 C 346.361 -4.68159 -3.94327 0
M  V30 3850 N 345.498 -4.77959 -5.14296 0
M  V30 3851 H 350.338 -2.74938 -1.14948 0
M  V30 3852 H 347.875 -1.36166 -0.556538 0
M  V30 3853 H 349.833 -2.1728 -3.56153 0
M  V30 3854 H 348.463 -1.1757 -3.00628 0
M  V30 3855 H 347.515 -3.31246 -1.8703 0
M  V30 3856 H 348.827 -4.23139 -2.64111 0
M  V30 3857 H 347.981 -3.57333 -4.90304 0
M  V30 3858 H 346.72 -2.55245 -4.15574 0
M  V30 3859 H 345.725 -4.57461 -3.04974 0
M  V30 3860 H 346.95 -5.60868 -3.82889 0
M  V30 3861 H 344.896 -3.89544 -5.27818 0
M  V30 3862 H 344.813 -5.6133 -5.06404 0
M  V30 3863 H 346.081 -4.93044 -6.03761 0
M  V30 3864 N 350.31 0.590341 -1.46126 0
M  V30 3865 C 351.258 1.72105 -1.5647 0
M  V30 3866 C 352.252 1.63756 -0.433612 0
M  V30 3867 O 353.458 1.69342 -0.610194 0
M  V30 3868 H 349.833 0.568889 -0.491802 0
M  V30 3869 H 351.804 1.6051 -2.51553 0
M  V30 3870 C 350.553 3.10493 -1.56491 0
M  V30 3871 H 349.876 3.17583 -2.4286 0
M  V30 3872 H 351.316 3.8939 -1.67785 0
M  V30 3873 C 349.775 3.3563 -0.292231 0
M  V30 3874 O 350.305 3.96875 0.620739 0
M  V30 3875 N 348.511 2.90026 -0.182523 0
M  V30 3876 H 348.058 2.40367 -0.926356 0
M  V30 3877 H 348.016 3.07218 0.668152 0
M  V30 3878 N 351.788 1.33704 0.83433 0
M  V30 3879 C 352.735 1.24335 1.94447 0
M  V30 3880 C 353.705 0.120991 1.65659 0
M  V30 3881 O 354.89 0.300035 1.88426 0
M  V30 3882 C 352.03 0.993124 3.30501 0
M  V30 3883 C 351.143 2.20217 3.71657 0
M  V30 3884 C 350.278 1.88572 4.96602 0
M  V30 3885 C 349.317 3.05683 5.30306 0
M  V30 3886 N 348.454 2.73997 6.46429 0
M  V30 3887 H 353.294 2.1928 2.01792 0
M  V30 3888 H 350.831 1.09035 0.987404 0
M  V30 3889 H 352.789 0.828467 4.08892 0
M  V30 3890 H 351.419 0.0803902 3.227 0
M  V30 3891 H 350.471 2.47642 2.88752 0
M  V30 3892 H 351.783 3.07752 3.92543 0
M  V30 3893 H 350.937 1.68776 5.82752 0
M  V30 3894 H 349.676 0.982799 4.77695 0
M  V30 3895 H 348.681 3.26088 4.42659 0
M  V30 3896 H 349.906 3.96737 5.51159 0
M  V30 3897 H 347.852 1.86268 6.28999 0
M  V30 3898 H 347.769 3.55064 6.67432 0
M  V30 3899 H 349.037 2.57679 7.35678 0
M  V30 3900 N 353.266 -1.05314 1.17247 0
M  V30 3901 C 354.229 -2.112 0.890357 0
M  V30 3902 C 355.229 -1.60359 -0.118943 0
M  V30 3903 O 356.419 -1.73833 0.113086 0
M  V30 3904 C 353.551 -3.39266 0.333422 0
M  V30 3905 H 354.744 -2.37659 1.82916 0
M  V30 3906 H 352.297 -1.21538 0.982758 0
M  V30 3907 H 353.032 -3.18462 -0.612587 0
M  V30 3908 H 352.817 -3.77477 1.06082 0
M  V30 3909 H 354.307 -4.17315 0.154322 0
M  V30 3910 N 354.744 -0.972509 -1.24016 0
M  V30 3911 C 355.99 -0.637978 -1.92504 0
M  V30 3912 C 356.323 0.825383 -1.75787 0
M  V30 3913 O 355.598 1.59442 -1.11393 0
M  V30 3914 C 355.881 -1.01942 -3.45369 0
M  V30 3915 C 355.734 -2.53983 -3.71231 0
M  V30 3916 C 357.053 -0.55751 -4.36555 0
M  V30 3917 H 354.172 -0.233248 -0.699117 0
M  V30 3918 H 356.814 -1.21238 -1.46292 0
M  V30 3919 H 354.964 -0.530656 -3.84859 0
M  V30 3920 H 356.636 -3.10374 -3.41271 0
M  V30 3921 H 354.879 -2.96968 -3.16216 0
M  V30 3922 H 355.55 -2.75723 -4.78206 0
M  V30 3923 H 358.026 -0.977029 -4.04467 0
M  V30 3924 H 356.902 -0.85292 -5.42233 0
M  V30 3925 H 357.163 0.542328 -4.38761 0
M  V30 3926 N 356.222 1.38976 -0.743202 0
M  V30 3927 C 357.169 2.30544 -0.10861 0
M  V30 3928 C 358.139 1.49642 0.720869 0
M  V30 3929 O 359.324 1.78304 0.679142 0
M  V30 3930 C 356.464 3.36018 0.786496 0
M  V30 3931 C 355.577 4.31963 -0.0564849 0
M  V30 3932 C 354.712 5.24506 0.840657 0
M  V30 3933 C 353.751 6.121 -0.00658363 0
M  V30 3934 N 352.888 6.96973 0.846943 0
M  V30 3935 H 357.728 2.8424 -0.895088 0
M  V30 3936 H 355.265 1.3995 -0.453048 0
M  V30 3937 H 357.223 3.95768 1.31999 0
M  V30 3938 H 355.853 2.83758 1.53887 0
M  V30 3939 H 354.905 3.73763 -0.707492 0
M  V30 3940 H 356.217 4.93703 -0.711229 0
M  V30 3941 H 355.371 5.89322 1.4417 0
M  V30 3942 H 354.11 4.63107 1.52916 0
M  V30 3943 H 353.115 5.46289 -0.620366 0
M  V30 3944 H 354.34 6.75565 -0.691992 0
M  V30 3945 H 352.286 6.38133 1.52059 0
M  V30 3946 H 352.203 7.5559 0.248864 0
M  V30 3947 H 353.471 7.6621 1.43328 0
M  V30 3948 N 357.7 0.491464 1.49741 0
M  V30 3949 C 358.633 -0.338464 2.25676 0
M  V30 3950 C 359.611 -0.978676 1.29849 0
M  V30 3951 O 360.795 -1.01064 1.59117 0
M  V30 3952 C 357.922 -1.47588 3.04853 0
M  V30 3953 C 356.968 -0.951 4.15762 0
M  V30 3954 S 357.801 0.150626 5.35288 0
M  V30 3955 C 358.957 -0.990178 6.18018 0
M  V30 3956 H 359.19 0.306068 2.9572 0
M  V30 3957 H 356.723 0.276622 1.51902 0
M  V30 3958 H 358.681 -2.12764 3.51058 0
M  V30 3959 H 357.342 -2.09199 2.34296 0
M  V30 3960 H 356.535 -1.80311 4.70642 0
M  V30 3961 H 356.137 -0.376607 3.72099 0
M  V30 3962 H 358.429 -1.89748 6.50386 0
M  V30 3963 H 359.372 -0.480205 7.0647 0
M  V30 3964 H 359.78 -1.25321 5.50413 0
M  V30 3965 N 359.178 -1.55987 0.224894 0
M  V30 3966 C 360.427 -1.97566 -0.406273 0
M  V30 3967 C 360.74 -1.11569 -1.6066 0
M  V30 3968 O 361.946 -1.43062 -2.3075 0
M  V30 3969 C 360.402 -3.51474 -0.774207 0
M  V30 3970 C 360.01 -4.46179 0.403496 0
M  V30 3971 C 361.754 -4.01758 -1.37079 0
M  V30 3972 C 359.661 -5.91399 0.0129412 0
M  V30 3973 H 358.591 -0.737777 -0.155565 0
M  V30 3974 H 361.242 -1.80659 0.321635 0
M  V30 3975 H 359.624 -3.63994 -1.55963 0
M  V30 3976 H 360.798 -4.45409 1.18101 0
M  V30 3977 H 359.113 -4.06255 0.913536 0
M  V30 3978 H 361.71 -5.07756 -1.67596 0
M  V30 3979 H 362.053 -3.47805 -2.28773 0
M  V30 3980 H 362.586 -3.92475 -0.648733 0
M  V30 3981 H 359.325 -6.49341 0.896451 0
M  V30 3982 H 358.845 -5.95356 -0.728821 0
M  V30 3983 H 360.524 -6.45683 -0.412582 0
M  V30 3984 N 360.656 0.0484629 -1.57525 0
M  V30 3985 C 361.903 0.743125 -1.88372 0
M  V30 3986 C 362.231 1.76383 -0.819715 0
M  V30 3987 O 361.486 1.94855 0.181659 0
M  V30 3988 C 361.785 1.46632 -3.25935 0
M  V30 3989 C 361.451 0.583427 -4.4711 0
M  V30 3990 C 360.113 0.340191 -4.79996 0
M  V30 3991 C 362.465 -0.0273345 -5.21193 0
M  V30 3992 C 359.793 -0.522903 -5.84365 0
M  V30 3993 C 362.145 -0.878017 -6.26477 0
M  V30 3994 C 360.809 -1.1309 -6.5785 0
M  V30 3995 H 360.079 0.271929 -0.689301 0
M  V30 3996 H 362.726 0.00336166 -1.915 0
M  V30 3997 H 361.031 2.2789 -3.18706 0
M  V30 3998 H 362.728 2.00902 -3.47044 0
M  V30 3999 H 359.318 0.783151 -4.21384 0
M  V30 4000 H 363.502 0.147654 -4.9608 0
M  V30 4001 H 358.758 -0.727335 -6.07058 0
M  V30 4002 H 362.932 -1.35789 -6.83033 0
M  V30 4003 H 360.559 -1.80144 -7.38547 0
M  V30 4004 N 362.134 1.5431 0.320358 0
M  V30 4005 C 363.097 1.83195 1.3774 0
M  V30 4006 C 364.097 0.703906 1.44575 0
M  V30 4007 O 365.287 0.972214 1.44546 0
M  V30 4008 C 362.419 1.99487 2.76438 0
M  V30 4009 H 363.612 2.77642 1.1338 0
M  V30 4010 H 361.165 1.46076 0.556012 0
M  V30 4011 H 361.9 1.07262 3.06048 0
M  V30 4012 H 361.685 2.81575 2.7287 0
M  V30 4013 H 363.175 2.23271 3.52902 0
M  V30 4014 N 363.613 -0.582584 1.46437 0
M  V30 4015 C 364.859 -1.34278 1.51978 0
M  V30 4016 C 365.192 -1.93446 0.170973 0
M  V30 4017 O 364.467 -1.76481 -0.817608 0
M  V30 4018 C 364.75 -2.47203 2.61845 0
M  V30 4019 C 364.603 -1.93069 4.06257 0
M  V30 4020 C 365.922 -3.49247 2.67795 0
M  V30 4021 H 363.041 -0.486876 0.553282 0
M  V30 4022 H 365.683 -0.654437 1.78374 0
M  V30 4023 H 363.833 -3.0592 2.39469 0
M  V30 4024 H 365.505 -1.38808 4.3992 0
M  V30 4025 H 363.748 -1.23898 4.1573 0
M  V30 4026 H 364.419 -2.74586 4.7886 0
M  V30 4027 H 366.895 -3.00411 2.8791 0
M  V30 4028 H 365.771 -4.25719 3.46489 0
M  V30 4029 H 366.032 -4.06482 1.73852 0
M  V30 4030 N 365.091 -1.34144 -0.827227 0
M  V30 4031 C 366.337 -1.26446 -1.58554 0
M  V30 4032 C 366.67 0.1664 -1.93486 0
M  V30 4033 O 365.945 1.1107 -1.59667 0
M  V30 4034 C 366.228 -2.15111 -2.8879 0
M  V30 4035 C 366.081 -3.66712 -2.60465 0
M  V30 4036 C 367.4 -2.03311 -3.90324 0
M  V30 4037 H 364.519 -0.46067 -0.575284 0
M  V30 4038 H 367.161 -1.64356 -0.953269 0
M  V30 4039 H 365.311 -1.8291 -3.42748 0
M  V30 4040 H 366.983 -4.09259 -2.1285 0
M  V30 4041 H 365.226 -3.88014 -1.93978 0
M  V30 4042 H 365.897 -4.24112 -3.53317 0
M  V30 4043 H 368.373 -2.31574 -3.45706 0
M  V30 4044 H 367.249 -2.67582 -4.79261 0
M  V30 4045 H 367.51 -1.00879 -4.30437 0
M  V30 4046 N 366.569 1.04691 -1.17803 0
M  V30 4047 C 367.815 1.78045 -0.970969 0
M  V30 4048 C 368.148 1.87686 0.498751 0
M  V30 4049 O 367.423 1.38035 1.37027 0
M  V30 4050 C 367.706 3.2166 -1.61884 0
M  V30 4051 C 367.559 3.20001 -3.161 0
M  V30 4052 C 368.878 4.1962 -1.3269 0
M  V30 4053 H 365.997 0.64633 -0.354155 0
M  V30 4054 H 368.639 1.22333 -1.45378 0
M  V30 4055 H 366.789 3.69232 -1.20831 0
M  V30 4056 H 368.461 2.80467 -3.66246 0
M  V30 4057 H 366.704 2.58203 -3.48588 0
M  V30 4058 H 367.375 4.21386 -3.56564 0
M  V30 4059 H 369.851 3.80567 -1.68249 0
M  V30 4060 H 368.727 5.18339 -1.80599 0
M  V30 4061 H 368.988 4.414 -0.248622 0
M  V30 4062 N 368.047 0.979072 1.23499 0
M  V30 4063 C 368.977 0.537606 2.27227 0
M  V30 4064 C 369.958 -0.428539 1.64613 0
M  V30 4065 O 371.143 -0.322191 1.91509 0
M  V30 4066 C 368.273 -0.162052 3.46922 0
M  V30 4067 C 367.227 0.721242 4.21879 0
M  V30 4068 C 366.553 -0.110555 5.34586 0
M  V30 4069 C 367.853 2.01141 4.82016 0
M  V30 4070 H 369.547 1.40462 2.64406 0
M  V30 4071 H 367.093 0.67684 1.27102 0
M  V30 4072 H 369.046 -0.482192 4.18632 0
M  V30 4073 H 367.77 -1.06351 3.08799 0
M  V30 4074 H 366.429 1.02482 3.51984 0
M  V30 4075 H 366.077 -1.0125 4.92704 0
M  V30 4076 H 365.777 0.477325 5.85658 0
M  V30 4077 H 367.301 -0.425107 6.09118 0
M  V30 4078 H 368.715 1.75612 5.45741 0
M  V30 4079 H 367.112 2.54695 5.43369 0
M  V30 4080 H 368.182 2.69909 4.02836 0
M  V30 4081 N 369.525 -1.3858 0.750561 0
M  V30 4082 C 370.772 -2.00184 0.305373 0
M  V30 4083 C 371.1 -1.59575 -1.11203 0
M  V30 4084 O 370.355 -0.823236 -1.77542 0
M  V30 4085 C 370.654 -3.55455 0.372373 0
M  V30 4086 C 370.32 -4.15765 1.745 0
M  V30 4087 C 368.982 -4.31951 2.12065 0
M  V30 4088 C 371.334 -4.49067 2.64553 0
M  V30 4089 C 368.662 -4.78734 3.39162 0
M  V30 4090 C 371.014 -4.97265 3.91038 0
M  V30 4091 C 369.678 -5.11658 4.28676 0
M  V30 4092 H 368.948 -0.732526 0.111744 0
M  V30 4093 H 371.595 -1.65673 0.960451 0
M  V30 4094 H 369.9 -3.90084 -0.366272 0
M  V30 4095 H 371.597 -4.00999 0.00953918 0
M  V30 4096 H 368.187 -4.03579 1.44297 0
M  V30 4097 H 372.371 -4.36166 2.36796 0
M  V30 4098 H 367.627 -4.88062 3.68246 0
M  V30 4099 H 371.801 -5.22003 4.60962 0
M  V30 4100 H 369.428 -5.47668 5.27222 0
M  V30 4101 N 371.003 -0.499398 -1.49478 0
M  V30 4102 C 371.933 0.269244 -2.31943 0
M  V30 4103 C 372.914 0.964054 -1.40143 0
M  V30 4104 O 374.099 0.955767 -1.69052 0
M  V30 4105 C 371.229 1.33504 -3.20615 0
M  V30 4106 C 370.183 0.760202 -4.21195 0
M  V30 4107 C 369.509 1.9264 -4.98792 0
M  V30 4108 C 370.809 -0.247661 -5.21712 0
M  V30 4109 H 372.503 -0.419082 -2.96452 0
M  V30 4110 H 370.049 -0.202988 -1.42562 0
M  V30 4111 H 372.002 1.88048 -3.77115 0
M  V30 4112 H 370.726 2.05253 -2.54045 0
M  V30 4113 H 369.385 0.23653 -3.65836 0
M  V30 4114 H 369.033 2.63154 -4.28671 0
M  V30 4115 H 368.733 1.54785 -5.66847 0
M  V30 4116 H 370.257 2.4762 -5.58137 0
M  V30 4117 H 371.671 0.209579 -5.72917 0
M  V30 4118 H 370.068 -0.541962 -5.97648 0
M  V30 4119 H 371.138 -1.16409 -4.7072 0
M  V30 4120 N 372.481 1.55866 -0.233164 0
M  V30 4121 C 373.729 1.9821 0.394593 0
M  V30 4122 C 374.05 1.12234 1.59463 0
M  V30 4123 O 373.32 0.201981 1.94856 0
M  V30 4124 H 371.9 0.732034 0.148778 0
M  V30 4125 H 374.562 1.92107 -0.32876 0
M  V30 4126 H 373.658 3.03845 0.713063 0
M  V30 4127 N 373.959 -0.0401083 1.57549 0
M  V30 4128 C 375.206 -0.733125 1.88763 0
M  V30 4129 C 375.534 -1.75946 0.829058 0
M  V30 4130 O 374.789 -1.94949 -0.171323 0
M  V30 4131 C 375.088 -1.44902 3.26708 0
M  V30 4132 C 374.754 -0.559707 4.47413 0
M  V30 4133 C 373.416 -0.314731 4.8017 0
M  V30 4134 C 375.768 0.0549743 5.21171 0
M  V30 4135 C 373.096 0.553886 5.8408 0
M  V30 4136 C 375.448 0.911229 6.26003 0
M  V30 4137 C 374.112 1.16577 6.57241 0
M  V30 4138 H 373.382 -0.268269 0.690733 0
M  V30 4139 H 376.029 0.00679408 1.91499 0
M  V30 4140 H 374.334 -2.26197 3.1991 0
M  V30 4141 H 376.031 -1.99058 3.48105 0
M  V30 4142 H 372.621 -0.760793 4.21794 0
M  V30 4143 H 376.805 -0.121344 4.96152 0
M  V30 4144 H 372.061 0.759518 6.06664 0
M  V30 4145 H 376.235 1.3941 6.82303 0
M  V30 4146 H 373.862 1.84058 7.37582 0
M  V30 4147 N 375.437 -1.54477 -0.31217 0
M  V30 4148 C 376.683 -1.74417 -1.04644 0
M  V30 4149 C 377.038 -0.517641 -1.85306 0
M  V30 4150 O 376.331 0.489973 -1.85229 0
M  V30 4151 C 376.525 -2.967 -1.99258 0
M  V30 4152 C 376.354 -4.31128 -1.27901 0
M  V30 4153 C 375.124 -4.95087 -1.01079 0
M  V30 4154 C 377.322 -5.09662 -0.689119 0
M  V30 4155 N 375.304 -6.13322 -0.266323 0
M  V30 4156 C 376.675 -6.19952 -0.0768523 0
M  V30 4157 C 378.73 -4.94355 -0.593061 0
M  V30 4158 C 377.433 -7.16604 0.622165 0
M  V30 4159 C 379.459 -5.91328 0.0922792 0
M  V30 4160 C 378.821 -7.00978 0.693443 0
M  V30 4161 H 374.92 -0.69094 -0.366231 0
M  V30 4162 H 377.504 -1.91946 -0.326319 0
M  V30 4163 H 375.675 -2.80616 -2.68532 0
M  V30 4164 H 377.407 -3.05216 -2.65755 0
M  V30 4165 H 374.162 -4.55235 -1.30607 0
M  V30 4166 H 374.586 -6.76937 0.0920973 0
M  V30 4167 H 379.228 -4.09719 -1.04355 0
M  V30 4168 H 376.946 -8.0079 1.08445 0
M  V30 4169 H 380.532 -5.81562 0.166396 0
M  V30 4170 H 379.412 -7.74725 1.21533 0
M  V30 4171 N 376.915 0.57481 -1.46744 0
M  V30 4172 C 378.143 1.35856 -1.56047 0
M  V30 4173 C 378.558 1.87691 -0.204365 0
M  V30 4174 O 377.915 1.64049 0.79963 0
M  V30 4175 C 377.966 2.54066 -2.57163 0
M  V30 4176 O 377.687 2.04377 -3.87507 0
M  V30 4177 C 379.188 3.46514 -2.76483 0
M  V30 4178 H 376.408 0.414754 -0.527466 0
M  V30 4179 H 378.952 0.698035 -1.92218 0
M  V30 4180 H 377.107 3.16092 -2.23974 0
M  V30 4181 H 377.521 2.81419 -4.4261 0
M  V30 4182 H 378.995 4.25919 -3.51137 0
M  V30 4183 H 379.472 3.98951 -1.83671 0
M  V30 4184 H 380.078 2.90318 -3.10799 0
M  V30 4185 N 378.394 1.34581 0.820102 0
M  V30 4186 C 379.805 1.24298 1.39309 0
M  V30 4187 C 380.156 -0.130351 1.95767 0
M  V30 4188 O 379.281 -1.0308 1.90272 0
M  V30 4189 C 379.876 2.25054 2.53251 0
M  V30 4190 C 378.435 2.18552 3.0645 0
M  V30 4191 C 377.582 2.11503 1.79337 0
M  V30 4192 H 380.533 1.45906 0.624262 0
M  V30 4193 H 380.554 1.86917 3.31425 0
M  V30 4194 H 380.066 3.24996 2.1213 0
M  V30 4195 H 378.167 1.21976 3.52069 0
M  V30 4196 H 378.28 3.0993 3.65349 0
M  V30 4197 H 376.644 1.57268 2.00347 0
M  V30 4198 H 377.427 3.13284 1.40386 0
M  V30 4199 N 379.872 -1.04064 1.18357 0
M  V30 4200 C 381.102 -1.80654 1.00238 0
M  V30 4201 C 381.51 -1.83713 -0.452362 0
M  V30 4202 O 380.853 -1.27135 -1.32599 0
M  V30 4203 C 380.915 -3.27582 1.48088 0
M  V30 4204 C 380.579 -3.48184 2.96002 0
M  V30 4205 C 381.576 -3.39372 3.93856 0
M  V30 4206 C 379.261 -3.7478 3.34433 0
M  V30 4207 C 381.255 -3.5686 5.28138 0
M  V30 4208 C 378.942 -3.91915 4.68877 0
M  V30 4209 C 379.94 -3.82956 5.65539 0
M  V30 4210 O 379.628 -3.996 6.97549 0
M  V30 4211 H 379.36 -0.575751 0.354241 0
M  V30 4212 H 381.914 -1.32044 1.57333 0
M  V30 4213 H 380.144 -3.77161 0.853588 0
M  V30 4214 H 381.833 -3.8573 1.2636 0
M  V30 4215 H 382.599 -3.18789 3.65511 0
M  V30 4216 H 378.478 -3.80852 2.59756 0
M  V30 4217 H 382.022 -3.49783 6.03571 0
M  V30 4218 H 377.919 -4.11992 4.96923 0
M  V30 4219 H 378.687 -4.1676 7.04452 0
M  V30 4220 N 381.35 -0.985608 -1.22978 0
M  V30 4221 C 382.298 -0.522631 -2.26652 0
M  V30 4222 C 383.292 0.422998 -1.64034 0
M  V30 4223 O 384.498 0.296319 -1.77544 0
M  V30 4224 H 380.873 -0.150597 -0.736766 0
M  V30 4225 H 382.844 -1.40863 -2.63059 0
M  V30 4226 C 381.593 0.154238 -3.47358 0
M  V30 4227 H 380.916 -0.564329 -3.95797 0
M  V30 4228 H 382.356 0.441744 -4.21693 0
M  V30 4229 C 380.815 1.38719 -3.07016 0
M  V30 4230 O 381.345 2.48307 -3.15764 0
M  V30 4231 N 379.551 1.25975 -2.61875 0
M  V30 4232 H 379.098 0.368068 -2.54957 0
M  V30 4233 H 379.056 2.08578 -2.3525 0
M  V30 4234 N 382.828 1.3818 -0.7579 0
M  V30 4235 C 384.077 1.99261 -0.312744 0
M  V30 4236 C 384.39 1.60846 1.11301 0
M  V30 4237 O 385.596 2.14929 1.65885 0
M  V30 4238 C 384.052 3.56294 -0.50821 0
M  V30 4239 C 383.66 4.03657 -1.94333 0
M  V30 4240 C 385.404 4.24313 -0.125982 0
M  V30 4241 C 383.311 5.53347 -2.08712 0
M  V30 4242 H 382.241 0.745456 -0.113185 0
M  V30 4243 H 384.892 1.57889 -0.935056 0
M  V30 4244 H 383.274 3.95575 0.183353 0
M  V30 4245 H 384.448 3.75655 -2.66871 0
M  V30 4246 H 382.763 3.48376 -2.28086 0
M  V30 4247 H 385.36 5.34279 -0.212125 0
M  V30 4248 H 385.703 4.05962 0.921964 0
M  V30 4249 H 386.236 3.90285 -0.769563 0
M  V30 4250 H 382.975 5.76607 -3.11777 0
M  V30 4251 H 382.495 5.83078 -1.4064 0
M  V30 4252 H 384.174 6.19111 -1.87912 0
M  V30 4253 N 384.306 0.507319 1.49211 0
M  V30 4254 C 385.552 -0.0350047 2.0277 0
M  V30 4255 C 385.885 -1.3606 1.38569 0
M  V30 4256 O 385.16 -1.87321 0.523542 0
M  V30 4257 C 385.443 -0.180916 3.59645 0
M  V30 4258 C 385.296 1.16825 4.34364 0
M  V30 4259 C 386.615 -0.918558 4.30407 0
M  V30 4260 H 383.734 -0.0112473 0.736914 0
M  V30 4261 H 386.376 0.659956 1.7817 0
M  V30 4262 H 384.526 -0.772826 3.80736 0
M  V30 4263 H 386.198 1.79952 4.24753 0
M  V30 4264 H 384.441 1.75594 3.96673 0
M  V30 4265 H 385.112 1.01939 5.42506 0
M  V30 4266 H 387.588 -0.41649 4.1401 0
M  V30 4267 H 386.464 -0.989505 5.39907 0
M  V30 4268 H 386.725 -1.96373 3.96093 0
M  V30 4269 N 385.784 -1.5574 0.241426 0
M  V30 4270 C 386.714 -2.24133 -0.654722 0
M  V30 4271 C 387.695 -1.21974 -1.1856 0
M  V30 4272 O 388.88 -1.50612 -1.22595 0
M  V30 4273 C 386.01 -2.93659 -1.85423 0
M  V30 4274 C 384.964 -4.0246 -1.45636 0
M  V30 4275 C 384.29 -4.59383 -2.73626 0
M  V30 4276 C 385.59 -5.18468 -0.631506 0
M  V30 4277 H 387.284 -2.99281 -0.0844353 0
M  V30 4278 H 384.83 -1.43947 -0.0391707 0
M  V30 4279 H 386.783 -3.40203 -2.48676 0
M  V30 4280 H 385.507 -2.15991 -2.44981 0
M  V30 4281 H 384.166 -3.56676 -0.847202 0
M  V30 4282 H 383.814 -3.78422 -3.3137 0
M  V30 4283 H 383.514 -5.32826 -2.4773 0
M  V30 4284 H 385.038 -5.08658 -3.37786 0
M  V30 4285 H 386.452 -5.61272 -1.1682 0
M  V30 4286 H 384.849 -5.98266 -0.468831 0
M  V30 4287 H 385.919 -4.8358 0.357506 0
M  V30 4288 N 387.262 0.0317525 -1.57568 0
M  V30 4289 C 388.509 0.723104 -1.89149 0
M  V30 4290 C 388.837 1.75504 -0.838377 0
M  V30 4291 O 388.092 1.95037 0.160982 0
M  V30 4292 C 388.391 1.43167 -3.27472 0
M  V30 4293 C 388.057 0.535972 -4.47703 0
M  V30 4294 C 386.719 0.289262 -4.8033 0
M  V30 4295 C 389.071 -0.0826125 -5.21135 0
M  V30 4296 C 386.399 -0.584853 -5.83778 0
M  V30 4297 C 388.751 -0.944414 -6.25511 0
M  V30 4298 C 387.415 -1.20061 -6.56614 0
M  V30 4299 H 386.685 0.264602 -0.692146 0
M  V30 4300 H 389.332 -0.0169496 -1.91492 0
M  V30 4301 H 387.637 2.24497 -3.21105 0
M  V30 4302 H 389.334 1.97209 -3.49155 0
M  V30 4303 H 385.924 0.738414 -4.22191 0
M  V30 4304 H 390.108 0.0950302 -4.96209 0
M  V30 4305 H 385.364 -0.79168 -6.06253 0
M  V30 4306 H 389.538 -1.43026 -6.81554 0
M  V30 4307 H 387.165 -1.87967 -7.36595 0
M  V30 4308 N 388.74 1.54641 0.303973 0
M  V30 4309 C 389.67 1.88386 1.3796 0
M  V30 4310 C 390.651 0.742485 1.5304 0
M  V30 4311 O 391.836 0.997959 1.66597 0
M  V30 4312 C 388.966 2.12854 2.74427 0
M  V30 4313 C 387.92 3.28702 2.74115 0
M  V30 4314 C 387.246 3.38582 4.13844 0
M  V30 4315 C 388.546 4.65881 2.3612 0
M  V30 4316 H 390.24 2.78474 1.09966 0
M  V30 4317 H 387.786 1.33988 0.527556 0
M  V30 4318 H 389.739 2.35047 3.49758 0
M  V30 4319 H 388.463 1.19535 3.03939 0
M  V30 4320 H 387.122 3.06428 2.0124 0
M  V30 4321 H 386.77 2.42784 4.40528 0
M  V30 4322 H 386.47 4.16453 4.14537 0
M  V30 4323 H 387.994 3.63031 4.90959 0
M  V30 4324 H 389.408 4.87823 3.01167 0
M  V30 4325 H 387.805 5.46444 2.48031 0
M  V30 4326 H 388.875 4.66799 1.3125 0
M  V30 4327 N 390.218 -0.567019 1.47046 0
M  V30 4328 C 391.128 -1.70247 1.6141 0
M  V30 4329 C 392.144 -1.66746 0.497157 0
M  V30 4330 O 393.32 -1.86371 0.763389 0
M  V30 4331 C 390.385 -3.06756 1.61561 0
M  V30 4332 C 389.446 -3.21399 2.84607 0
M  V30 4333 C 388.679 -4.51396 2.84741 0
M  V30 4334 O 388.902 -5.36255 1.94388 0
M  V30 4335 O 387.836 -4.69621 3.76483 0
M  V30 4336 H 391.662 -1.61073 2.57467 0
M  V30 4337 H 389.247 -0.735894 1.30019 0
M  V30 4338 H 391.129 -3.8801 1.64396 0
M  V30 4339 H 389.804 -3.16333 0.686684 0
M  V30 4340 H 388.711 -2.39579 2.8732 0
M  V30 4341 H 390.044 -3.16721 3.76761 0
M  V30 4342 N 391.696 -1.35014 -0.812953 0
M  V30 4343 C 392.924 -1.31031 -1.6012 0
M  V30 4344 C 393.339 0.113558 -1.88458 0
M  V30 4345 O 392.696 1.06363 -1.48301 0
M  V30 4346 C 392.747 -2.10872 -2.93624 0
M  V30 4347 O 392.468 -3.47706 -2.66518 0
M  V30 4348 C 393.969 -2.14401 -3.88004 0
M  V30 4349 H 391.189 -0.45037 -0.497401 0
M  V30 4350 H 393.733 -1.77775 -1.01076 0
M  V30 4351 H 391.888 -1.67744 -3.492 0
M  V30 4352 H 392.302 -3.89097 -3.51715 0
M  V30 4353 H 393.776 -2.74669 -4.78812 0
M  V30 4354 H 394.253 -1.14105 -4.24119 0
M  V30 4355 H 394.859 -2.57662 -3.38364 0
M  V30 4356 N 393.175 1.03435 -1.18907 0
M  V30 4357 C 394.105 2.13503 -0.945448 0
M  V30 4358 C 395.086 1.69682 0.119189 0
M  V30 4359 O 396.271 1.94169 -0.034707 0
M  V30 4360 C 393.401 3.44004 -0.477316 0
M  V30 4361 C 392.355 4.0148 -1.48316 0
M  V30 4362 C 391.681 5.27537 -0.872311 0
M  V30 4363 C 392.981 4.36921 -2.86177 0
M  V30 4364 H 394.675 2.34141 -1.86597 0
M  V30 4365 H 392.221 1.12523 -0.898584 0
M  V30 4366 H 394.174 4.20372 -0.294204 0
M  V30 4367 H 392.898 3.23072 0.478786 0
M  V30 4368 H 391.557 3.27201 -1.65332 0
M  V30 4369 H 391.205 5.02917 0.0911752 0
M  V30 4370 H 390.905 5.66954 -1.54393 0
M  V30 4371 H 392.429 6.06576 -0.699871 0
M  V30 4372 H 393.843 5.04248 -2.72776 0
M  V30 4373 H 392.24 4.87405 -3.50081 0
M  V30 4374 H 393.31 3.46466 -3.39248 0
M  V30 4375 N 394.653 0.992116 1.22453 0
M  V30 4376 C 395.899 0.668523 1.91464 0
M  V30 4377 C 396.232 -0.797313 1.77078 0
M  V30 4378 O 395.507 -1.5765 1.13916 0
M  V30 4379 C 395.79 1.07424 3.43703 0
M  V30 4380 C 395.643 2.59857 3.67143 0
M  V30 4381 C 396.962 0.626891 4.35612 0
M  V30 4382 H 394.081 0.244341 0.695318 0
M  V30 4383 H 396.723 1.2355 1.44345 0
M  V30 4384 H 394.873 0.591816 3.83966 0
M  V30 4385 H 396.545 3.15764 3.3629 0
M  V30 4386 H 394.788 3.01961 3.11451 0
M  V30 4387 H 395.459 2.83296 4.73759 0
M  V30 4388 H 397.935 1.04125 4.02861 0
M  V30 4389 H 396.811 0.939076 5.40807 0
M  V30 4390 H 397.072 -0.472457 4.39568 0
M  V30 4391 N 396.131 -1.37776 0.765217 0
M  V30 4392 C 397.041 -2.34135 0.147666 0
M  V30 4393 C 398.057 -1.59854 -0.687215 0
M  V30 4394 O 399.233 -1.91983 -0.608659 0
M  V30 4395 C 396.298 -3.3901 -0.72617 0
M  V30 4396 C 395.359 -4.2912 0.124417 0
M  V30 4397 C 394.592 -5.28986 -0.707807 0
M  V30 4398 O 394.815 -5.36205 -1.94525 0
M  V30 4399 O 393.749 -6.01779 -0.12046 0
M  V30 4400 H 397.575 -2.88664 0.943758 0
M  V30 4401 H 395.16 -1.39824 0.526277 0
M  V30 4402 H 397.042 -4.03195 -1.22524 0
M  V30 4403 H 395.717 -2.86819 -1.50056 0
M  V30 4404 H 394.624 -3.68057 0.669696 0
M  V30 4405 H 395.957 -4.84598 0.861736 0
M  V30 4406 N 397.609 -0.515225 -1.4894 0
M  V30 4407 C 398.539 0.244628 -2.32215 0
M  V30 4408 C 399.52 0.949136 -1.41157 0
M  V30 4409 O 400.705 0.937783 -1.70057 0
M  V30 4410 C 397.835 1.30096 -3.22013 0
M  V30 4411 C 396.789 0.715486 -4.21977 0
M  V30 4412 C 396.115 1.87339 -5.00808 0
M  V30 4413 C 397.415 -0.302982 -5.2142 0
M  V30 4414 H 399.109 -0.450501 -2.95991 0
M  V30 4415 H 396.655 -0.218098 -1.42339 0
M  V30 4416 H 398.608 1.84037 -3.79089 0
M  V30 4417 H 397.332 2.02547 -2.56207 0
M  V30 4418 H 395.991 0.197715 -3.66066 0
M  V30 4419 H 395.639 2.58592 -4.31438 0
M  V30 4420 H 395.339 1.48764 -5.68457 0
M  V30 4421 H 396.863 2.41686 -5.60732 0
M  V30 4422 H 398.277 0.148802 -5.73107 0
M  V30 4423 H 396.674 -0.60532 -5.97039 0
M  V30 4424 H 397.744 -1.21395 -4.69459 0
M  V30 4425 N 399.087 1.5561 -0.249682 0
M  V30 4426 C 399.997 2.25143 0.659375 0
M  V30 4427 C 401.013 1.2685 1.19101 0
M  V30 4428 O 402.189 1.59732 1.22669 0
M  V30 4429 C 399.254 2.93945 1.8384 0
M  V30 4430 C 398.315 4.07655 1.34596 0
M  V30 4431 C 397.548 4.73167 2.46878 0
M  V30 4432 O 397.771 4.37768 3.65671 0
M  V30 4433 O 396.705 5.61623 2.16478 0
M  V30 4434 H 400.531 3.03545 0.0968698 0
M  V30 4435 H 398.116 1.49389 -0.018074 0
M  V30 4436 H 399.998 3.37271 2.52638 0
M  V30 4437 H 398.673 2.18481 2.38847 0
M  V30 4438 H 397.58 3.68839 0.625174 0
M  V30 4439 H 398.913 4.84946 0.841941 0
M  V30 4440 N 400.565 -0.0233959 1.57583 0
M  V30 4441 C 401.811 -0.714119 1.89811 0
M  V30 4442 C 402.144 -1.74702 0.848113 0
M  V30 4443 O 401.419 -1.94023 -0.136135 0
M  V30 4444 C 401.702 -1.37853 3.32669 0
M  V30 4445 C 401.555 -0.358764 4.48367 0
M  V30 4446 C 402.874 -2.31101 3.7454 0
M  V30 4447 H 399.993 -0.25814 0.690314 0
M  V30 4448 H 402.635 0.0230927 1.89986 0
M  V30 4449 H 400.785 -2.00689 3.3265 0
M  V30 4450 H 402.457 0.268115 4.6052 0
M  V30 4451 H 400.7 0.321387 4.32608 0
M  V30 4452 H 401.371 -0.862242 5.45224 0
M  V30 4453 H 403.847 -1.78304 3.75961 0
M  V30 4454 H 402.723 -2.74567 4.75294 0
M  V30 4455 H 402.984 -3.18018 3.0711 0
M  V30 4456 N 402.043 -1.548 -0.295768 0
M  V30 4457 C 402.973 -1.89115 -1.36959 0
M  V30 4458 C 403.954 -0.75059 -1.52644 0
M  V30 4459 O 405.139 -1.00678 -1.66065 0
M  V30 4460 C 402.269 -2.14307 -2.73295 0
M  V30 4461 C 401.223 -3.30151 -2.72368 0
M  V30 4462 C 400.549 -3.40772 -4.12042 0
M  V30 4463 C 401.849 -4.67126 -2.33646 0
M  V30 4464 H 403.543 -2.79053 -1.08488 0
M  V30 4465 H 401.089 -1.34266 -0.520443 0
M  V30 4466 H 403.042 -2.36898 -3.48507 0
M  V30 4467 H 401.766 -1.21145 -3.03301 0
M  V30 4468 H 400.425 -3.0749 -1.99613 0
M  V30 4469 H 400.073 -2.45117 -4.39234 0
M  V30 4470 H 399.773 -4.18645 -4.12322 0
M  V30 4471 H 401.297 -3.6563 -4.89027 0
M  V30 4472 H 402.711 -4.89414 -2.98575 0
M  V30 4473 H 401.108 -5.47751 -2.45129 0
M  V30 4474 H 402.178 -4.67489 -1.28772 0
M  V30 4475 N 403.521 0.559213 -1.47345 0
M  V30 4476 C 404.453 1.68161 -1.55738 0
M  V30 4477 C 405.466 1.56636 -0.443744 0
M  V30 4478 O 406.655 1.6363 -0.713258 0
M  V30 4479 C 403.755 3.06611 -1.4437 0
M  V30 4480 C 402.928 3.4391 -2.70268 0
M  V30 4481 C 401.987 4.61515 -2.52765 0
M  V30 4482 O 401.013 4.66197 -3.26572 0
M  V30 4483 N 402.215 5.57883 -1.6046 0
M  V30 4484 H 404.98 1.61408 -2.52522 0
M  V30 4485 H 402.541 0.7458 -1.43699 0
M  V30 4486 H 404.533 3.83117 -1.30398 0
M  V30 4487 H 403.103 3.07602 -0.556766 0
M  V30 4488 H 402.323 2.56873 -2.99015 0
M  V30 4489 H 403.611 3.65605 -3.53851 0
M  V30 4490 H 403.009 5.56855 -0.996422 0
M  V30 4491 H 401.566 6.33723 -1.52441 0
M  V30 4492 N 404.999 1.35443 0.805782 0
M  V30 4493 C 406.276 1.19325 1.54987 0
M  V30 4494 C 406.656 -0.227294 2.09873 0
M  V30 4495 O 406.004 -1.2309 1.92512 0
M  V30 4496 C 406.214 2.26196 2.65775 0
M  V30 4497 C 407.562 2.62043 3.34094 0
M  V30 4498 O 408.586 2.25115 2.76046 0
M  V30 4499 O 407.445 3.25542 4.38958 0
M  V30 4500 H 404.539 0.463623 0.684823 0
M  V30 4501 H 407.085 1.47127 0.845674 0
M  V30 4502 H 405.857 3.21471 2.23096 0
M  V30 4503 H 405.48 1.99667 3.43829 0
M  V30 4504 N 406.477 -1.02803 1.19454 0
M  V30 4505 C 407.717 -1.77769 1.00883 0
M  V30 4506 C 408.081 -1.86596 -0.45233 0
M  V30 4507 O 409.282 -2.57895 -0.757877 0
M  V30 4508 C 407.553 -3.16486 1.66046 0
M  V30 4509 S 409.112 -4.07632 1.62424 0
M  V30 4510 H 405.93 -0.611949 0.361993 0
M  V30 4511 H 408.532 -1.23175 1.51816 0
M  V30 4512 H 407.236 -3.0768 2.7159 0
M  V30 4513 H 406.767 -3.76156 1.15196 0
M  V30 4514 H 408.782 -4.91937 0.64903 0
M  V30 4515 N 407.956 -0.998596 -1.21925 0
M  V30 4516 C 409.184 -0.696286 -1.94832 0
M  V30 4517 C 409.599 0.740032 -1.73692 0
M  V30 4518 O 408.956 1.5 -1.03953 0
M  V30 4519 C 409.007 -0.999833 -3.47398 0
M  V30 4520 O 408.728 -2.37972 -3.67833 0
M  V30 4521 C 410.229 -0.716025 -4.37479 0
M  V30 4522 H 407.449 -0.257111 -0.619786 0
M  V30 4523 H 409.993 -1.33491 -1.54921 0
M  V30 4524 H 408.148 -0.406918 -3.85257 0
M  V30 4525 H 408.562 -2.48338 -4.61983 0
M  V30 4526 H 410.036 -0.978642 -5.43256 0
M  V30 4527 H 410.513 0.349968 -4.37803 0
M  V30 4528 H 411.119 -1.29025 -4.05256 0
M  V30 4529 N 409.434 1.37368 -0.772513 0
M  V30 4530 C 410.681 1.99673 -0.337182 0
M  V30 4531 C 411.009 1.61324 1.0865 0
M  V30 4532 O 410.264 0.851377 1.7621 0
M  V30 4533 C 410.563 3.54817 -0.428876 0
M  V30 4534 C 410.229 4.12936 -1.81092 0
M  V30 4535 C 408.891 4.28523 -2.1891 0
M  V30 4536 C 411.243 4.44801 -2.71664 0
M  V30 4537 C 408.571 4.73277 -3.46735 0
M  V30 4538 C 410.923 4.90981 -3.98899 0
M  V30 4539 C 409.587 5.04773 -4.36761 0
M  V30 4540 H 408.857 0.730656 -0.123384 0
M  V30 4541 H 411.504 1.64124 -0.986686 0
M  V30 4542 H 409.809 3.90618 0.304167 0
M  V30 4543 H 411.506 4.00933 -0.0733334 0
M  V30 4544 H 408.096 4.01233 -1.50699 0
M  V30 4545 H 412.28 4.32344 -2.43706 0
M  V30 4546 H 407.536 4.82142 -3.75964 0
M  V30 4547 H 411.71 5.14603 -4.69208 0
M  V30 4548 H 409.337 5.39211 -5.35868 0
M  V30 4549 N 410.912 0.523116 1.48665 0
M  V30 4550 C 411.822 -0.247406 2.33292 0
M  V30 4551 C 412.838 -0.945769 1.46052 0
M  V30 4552 O 414.014 -0.922253 1.79043 0
M  V30 4553 C 411.079 -1.28487 3.22012 0
M  V30 4554 C 410.14 -0.597592 4.2512 0
M  V30 4555 C 409.373 -1.58563 5.09601 0
M  V30 4556 O 409.596 -2.81763 4.95949 0
M  V30 4557 O 408.53 -1.12879 5.91221 0
M  V30 4558 H 412.356 0.445869 3.00409 0
M  V30 4559 H 409.941 0.284128 1.46673 0
M  V30 4560 H 411.823 -1.88459 3.7691 0
M  V30 4561 H 410.498 -1.96068 2.57564 0
M  V30 4562 H 409.405 0.0424407 3.74076 0
M  V30 4563 H 410.738 0.0361517 4.92187 0
M  V30 4564 N 412.39 -1.55475 0.257931 0
M  V30 4565 C 413.806 -1.59307 -0.0966563 0
M  V30 4566 C 414.006 -1.27514 -1.5602 0
M  V30 4567 O 413.062 -1.02774 -2.30637 0
M  V30 4568 C 414.375 -2.99552 0.262481 0
M  V30 4569 C 415.923 -3.1231 0.207683 0
M  V30 4570 C 416.398 -4.54793 0.541012 0
M  V30 4571 N 417.889 -4.6058 0.491921 0
M  V30 4572 C 418.624 -5.68825 0.722857 0
M  V30 4573 N 418.12 -6.85287 1.0175 0
M  V30 4574 N 419.913 -5.58296 0.652815 0
M  V30 4575 H 412.064 -1.74409 1.21224 0
M  V30 4576 H 414.327 -0.812424 0.48854 0
M  V30 4577 H 414.033 -3.27593 1.27967 0
M  V30 4578 H 413.907 -3.75019 -0.40508 0
M  V30 4579 H 416.294 -2.84044 -0.800195 0
M  V30 4580 H 416.375 -2.39095 0.909255 0
M  V30 4581 H 416.019 -4.83783 1.5465 0
M  V30 4582 H 415.949 -5.26285 -0.18216 0
M  V30 4583 H 418.44 -3.7691 0.273366 0
M  V30 4584 H 418.753 -7.63725 1.18084 0
M  V30 4585 H 417.098 -6.86945 1.05509 0
M  V30 4586 H 420.289 -4.66189 0.422592 0
M  V30 4587 H 420.462 -6.42582 0.836182 0
M  V30 4588 N 413.868 0.0150385 -1.57593 0
M  V30 4589 C 415.098 0.713359 -1.93894 0
M  V30 4590 C 415.506 1.68663 -0.857289 0
M  V30 4591 O 414.849 1.82876 0.173788 0
M  V30 4592 C 414.911 1.51348 -3.26089 0
M  V30 4593 C 414.575 0.703451 -4.51554 0
M  V30 4594 C 415.572 -0.00237924 -5.199 0
M  V30 4595 C 413.257 0.653854 -4.98026 0
M  V30 4596 C 415.251 -0.746955 -6.33008 0
M  V30 4597 C 412.938 -0.0944578 -6.11027 0
M  V30 4598 C 413.936 -0.793609 -6.78374 0
M  V30 4599 O 413.624 -1.52974 -7.89211 0
M  V30 4600 H 413.356 0.204637 -0.644282 0
M  V30 4601 H 415.91 -0.0276411 -2.05381 0
M  V30 4602 H 414.14 2.29862 -3.10967 0
M  V30 4603 H 415.829 2.09572 -3.47612 0
M  V30 4604 H 416.595 0.0268803 -4.84993 0
M  V30 4605 H 412.474 1.18756 -4.45441 0
M  V30 4606 H 416.018 -1.2932 -6.85509 0
M  V30 4607 H 411.915 -0.125591 -6.45378 0
M  V30 4608 H 412.683 -1.44488 -8.05646 0
M  V30 4609 N 415.346 1.54954 0.287554 0
M  V30 4610 C 416.276 1.89839 1.35954 0
M  V30 4611 C 417.257 0.758675 1.52244 0
M  V30 4612 O 418.442 1.01557 1.65529 0
M  V30 4613 C 415.572 2.15753 2.72154 0
M  V30 4614 C 414.526 3.3159 2.70614 0
M  V30 4615 C 413.852 3.42952 4.10229 0
M  V30 4616 C 415.152 4.68359 2.31165 0
M  V30 4617 H 416.846 2.79625 1.07007 0
M  V30 4618 H 414.392 1.3454 0.513316 0
M  V30 4619 H 416.345 2.38743 3.47246 0
M  V30 4620 H 415.069 1.22752 3.02654 0
M  V30 4621 H 413.728 3.08545 1.97979 0
M  V30 4622 H 413.376 2.47443 4.37928 0
M  V30 4623 H 413.076 4.20826 4.10097 0
M  V30 4624 H 414.6 3.68218 4.87081 0
M  V30 4625 H 416.014 4.9099 2.95976 0
M  V30 4626 H 414.411 5.49044 2.42221 0
M  V30 4627 H 415.481 4.68165 1.26291 0
M  V30 4628 N 416.824 -0.551391 1.4764 0
M  V30 4629 C 418.101 -1.31229 1.45046 0
M  V30 4630 C 418.481 -2.10563 0.150527 0
M  V30 4631 O 417.829 -2.11374 -0.867956 0
M  V30 4632 C 418.039 -2.21189 2.69956 0
M  V30 4633 C 419.387 -2.82021 3.1741 0
M  V30 4634 O 420.411 -2.31488 2.70724 0
M  V30 4635 O 419.27 -3.73885 3.98588 0
M  V30 4636 H 416.364 -0.591193 0.578291 0
M  V30 4637 H 418.91 -0.569813 1.59847 0
M  V30 4638 H 417.682 -1.62207 3.56096 0
M  V30 4639 H 417.305 -3.02722 2.57769 0
M  V30 4640 N 418.302 -1.35869 -0.798587 0
M  V30 4641 C 419.532 -1.32529 -1.58491 0
M  V30 4642 C 419.94 0.0975405 -1.88948 0
M  V30 4643 O 419.283 1.06224 -1.49874 0
M  V30 4644 C 419.345 -2.07247 -2.9375 0
M  V30 4645 C 419.009 -3.56391 -2.86068 0
M  V30 4646 C 420.006 -4.50824 -2.58947 0
M  V30 4647 C 417.691 -3.9915 -3.04933 0
M  V30 4648 C 419.685 -5.85993 -2.5078 0
M  V30 4649 C 417.372 -5.34413 -2.96389 0
M  V30 4650 C 418.37 -6.27646 -2.69349 0
M  V30 4651 O 418.058 -7.60426 -2.60782 0
M  V30 4652 H 417.79 -0.456529 -0.498556 0
M  V30 4653 H 420.344 -1.79425 -0.999799 0
M  V30 4654 H 418.574 -1.55001 -3.54276 0
M  V30 4655 H 420.263 -1.96883 -3.54954 0
M  V30 4656 H 421.029 -4.19104 -2.44084 0
M  V30 4657 H 416.908 -3.26961 -3.24989 0
M  V30 4658 H 420.452 -6.58735 -2.29595 0
M  V30 4659 H 416.349 -5.65743 -3.10813 0
M  V30 4660 H 417.117 -7.70444 -2.76331 0
M  V30 4661 N 419.78 1.02168 -1.19998 0
M  V30 4662 C 420.743 2.08765 -0.94604 0
M  V30 4663 C 421.743 1.60618 0.0763846 0
M  V30 4664 O 422.933 1.73472 -0.159135 0
M  V30 4665 C 420.065 3.38262 -0.423255 0
M  V30 4666 H 421.258 2.32726 -1.89153 0
M  V30 4667 H 418.811 1.1889 -1.01464 0
M  V30 4668 H 419.546 3.19974 0.527938 0
M  V30 4669 H 419.331 3.74532 -1.16053 0
M  V30 4670 H 420.821 4.16759 -0.264911 0
M  V30 4671 N 421.258 1.00505 1.21394 0
M  V30 4672 C 422.507 0.683159 1.89778 0
M  V30 4673 C 422.82 -0.789471 1.7896 0
M  V30 4674 O 424.026 -1.22344 2.42372 0
M  V30 4675 C 422.482 1.17146 3.40301 0
M  V30 4676 C 422.09 2.67017 3.5973 0
M  V30 4677 C 423.834 0.924461 4.14311 0
M  V30 4678 C 421.741 3.09387 5.04017 0
M  V30 4679 H 420.671 0.25183 0.710702 0
M  V30 4680 H 423.322 1.21622 1.37406 0
M  V30 4681 H 421.704 0.566451 3.91928 0
M  V30 4682 H 422.878 3.32968 3.18542 0
M  V30 4683 H 421.193 2.89732 2.99073 0
M  V30 4684 H 423.79 1.21658 5.20676 0
M  V30 4685 H 424.133 -0.139286 4.16067 0
M  V30 4686 H 424.666 1.49226 3.6875 0
M  V30 4687 H 421.405 4.14989 5.07409 0
M  V30 4688 H 420.925 2.48149 5.46061 0
M  V30 4689 H 422.604 3.01371 5.72525 0
M  V30 4690 N 422.737 -1.36956 0.779787 0
M  V30 4691 C 423.669 -2.28833 0.129639 0
M  V30 4692 C 424.682 -1.4902 -0.655511 0
M  V30 4693 O 425.871 -1.71578 -0.492279 0
M  V30 4694 C 422.971 -3.2833 -0.839792 0
M  V30 4695 C 422.144 -4.3727 -0.10675 0
M  V30 4696 C 421.203 -5.16789 -0.990717 0
M  V30 4697 O 420.229 -5.67406 -0.451516 0
M  V30 4698 N 421.431 -5.32294 -2.3161 0
M  V30 4699 H 424.196 -2.85268 0.918803 0
M  V30 4700 H 421.757 -1.49019 0.632841 0
M  V30 4701 H 423.749 -3.78413 -1.43477 0
M  V30 4702 H 422.319 -2.72605 -1.52988 0
M  V30 4703 H 421.539 -3.88478 0.669216 0
M  V30 4704 H 422.827 -5.07229 0.399464 0
M  V30 4705 H 422.225 -4.92768 -2.77843 0
M  V30 4706 H 420.782 -5.85656 -2.86095 0
M  V30 4707 N 424.215 -0.530993 -1.48385 0
M  V30 4708 C 425.178 0.220497 -2.28137 0
M  V30 4709 C 426.178 0.866851 -1.35434 0
M  V30 4710 O 427.368 0.726746 -1.58316 0
M  V30 4711 C 424.5 1.31921 -3.1434 0
M  V30 4712 H 425.693 -0.479714 -2.96038 0
M  V30 4713 H 423.246 -0.286968 -1.53643 0
M  V30 4714 H 423.981 2.05264 -2.51072 0
M  V30 4715 H 423.766 0.86085 -3.82533 0
M  V30 4716 H 425.256 1.84776 -3.74497 0
M  V30 4717 N 425.693 1.55336 -0.266172 0
M  V30 4718 C 426.921 2.03801 0.356756 0
M  V30 4719 C 427.336 1.14485 1.50129 0
M  V30 4720 O 426.693 0.163121 1.8177 0
M  V30 4721 C 426.744 3.51455 0.846281 0
M  V30 4722 O 426.465 4.37371 -0.252663 0
M  V30 4723 C 427.966 4.15767 1.53794 0
M  V30 4724 H 425.186 0.665906 0.0825218 0
M  V30 4725 H 427.73 2.00636 -0.39566 0
M  V30 4726 H 425.885 3.55092 1.54881 0
M  V30 4727 H 426.299 5.24358 0.122173 0
M  V30 4728 H 427.773 5.20714 1.83198 0
M  V30 4729 H 428.25 3.63404 2.46646 0
M  V30 4730 H 428.856 4.16107 0.879488 0
M  V30 4731 N 427.171 -0.0066808 1.57599 0
M  V30 4732 C 428.081 -1.01671 2.11424 0
M  V30 4733 C 429.097 -1.38143 1.05795 0
M  V30 4734 O 430.273 -1.47011 1.37658 0
M  V30 4735 C 427.338 -2.29192 2.60139 0
M  V30 4736 C 426.399 -1.99094 3.80342 0
M  V30 4737 C 425.632 -3.20535 4.26724 0
M  V30 4738 O 425.855 -4.3199 3.72479 0
M  V30 4739 O 424.789 -3.04924 5.18946 0
M  V30 4740 H 428.615 -0.589181 2.9793 0
M  V30 4741 H 426.2 -0.225091 1.47695 0
M  V30 4742 H 428.082 -3.0412 2.917 0
M  V30 4743 H 426.757 -2.71195 1.76733 0
M  V30 4744 H 425.664 -1.21663 3.53764 0
M  V30 4745 H 426.997 -1.61931 4.648 0
M  V30 4746 N 428.649 -1.55105 -0.279332 0
M  V30 4747 C 429.877 -1.7943 -1.03017 0
M  V30 4748 C 430.292 -0.564456 -1.80165 0
M  V30 4749 O 429.649 0.466326 -1.76442 0
M  V30 4750 C 429.7 -3.0155 -1.99374 0
M  V30 4751 O 429.421 -4.19784 -1.25352 0
M  V30 4752 C 430.922 -3.3843 -2.86321 0
M  V30 4753 H 428.142 -0.597882 -0.304594 0
M  V30 4754 H 430.686 -2.02105 -0.312035 0
M  V30 4755 H 428.841 -2.81019 -2.66659 0
M  V30 4756 H 429.255 -4.88781 -1.90246 0
M  V30 4757 H 430.729 -4.27066 -3.49741 0
M  V30 4758 H 431.206 -2.57549 -3.5576 0
M  V30 4759 H 431.812 -3.61197 -2.24536 0
M  V30 4760 N 430.127 0.543554 -1.4793 0
M  V30 4761 C 431.057 1.65888 -1.64327 0
M  V30 4762 C 432.038 1.62818 -0.492383 0
M  V30 4763 O 433.223 1.80226 -0.723338 0
M  V30 4764 C 430.353 3.04506 -1.67013 0
M  V30 4765 C 429.307 3.2243 -2.81466 0
M  V30 4766 C 428.633 4.61972 -2.69233 0
M  V30 4767 C 429.933 3.06496 -4.22915 0
M  V30 4768 H 431.627 1.52421 -2.57698 0
M  V30 4769 H 429.173 0.731849 -1.24016 0
M  V30 4770 H 431.126 3.82391 -1.77074 0
M  V30 4771 H 429.85 3.18964 -0.70212 0
M  V30 4772 H 428.509 2.46957 -2.70938 0
M  V30 4773 H 428.157 4.73247 -1.7043 0
M  V30 4774 H 427.857 4.74911 -3.46025 0
M  V30 4775 H 429.381 5.41974 -2.81242 0
M  V30 4776 H 430.795 3.74186 -4.34348 0
M  V30 4777 H 429.192 3.30938 -5.006 0
M  V30 4778 H 430.262 2.03077 -4.40327 0
M  V30 4779 N 431.605 1.3629 0.791371 0
M  V30 4780 C 432.568 1.30309 1.88553 0
M  V30 4781 C 433.568 0.211204 1.59407 0
M  V30 4782 O 434.758 0.465865 1.67855 0
M  V30 4783 C 431.89 1.01956 3.25297 0
M  V30 4784 H 433.083 2.27614 1.95273 0
M  V30 4785 H 430.636 1.21035 0.988953 0
M  V30 4786 H 431.371 0.050998 3.2426 0
M  V30 4787 H 431.156 1.80968 3.4784 0
M  V30 4788 H 432.646 1.0037 4.05359 0
M  V30 4789 N 433.083 -1.0153 1.20538 0
M  V30 4790 C 434.33 -1.75149 1.01633 0
M  V30 4791 C 434.658 -1.89189 -0.451399 0
M  V30 4792 O 433.913 -1.41551 -1.35136 0
M  V30 4793 C 434.212 -3.17213 1.64654 0
M  V30 4794 C 433.878 -3.23146 3.14464 0
M  V30 4795 C 432.54 -3.24472 3.55347 0
M  V30 4796 C 434.892 -3.21207 4.10458 0
M  V30 4797 C 432.22 -3.21532 4.90748 0
M  V30 4798 C 434.572 -3.19808 5.45807 0
M  V30 4799 C 433.236 -3.19439 5.86102 0
M  V30 4800 H 432.506 -0.640914 0.3719 0
M  V30 4801 H 435.153 -1.19071 1.49981 0
M  V30 4802 H 433.458 -3.76457 1.08571 0
M  V30 4803 H 435.155 -3.72871 1.4754 0
M  V30 4804 H 431.745 -3.2285 2.81897 0
M  V30 4805 H 435.929 -3.19351 3.79906 0
M  V30 4806 H 431.185 -3.19578 5.21229 0
M  V30 4807 H 435.359 -3.1726 6.19935 0
M  V30 4808 H 432.986 -3.16915 6.90991 0
M  V30 4809 N 434.561 -1.01147 -1.20859 0
M  V30 4810 C 435.807 -0.698899 -1.90377 0
M  V30 4811 C 436.14 0.76904 -1.78324 0
M  V30 4812 O 435.415 1.55817 -1.16409 0
M  V30 4813 C 435.698 -1.12878 -3.41951 0
M  V30 4814 C 435.551 -2.65665 -3.62963 0
M  V30 4815 C 436.87 -0.696114 -4.3456 0
M  V30 4816 H 433.989 -0.255372 -0.691342 0
M  V30 4817 H 436.631 -1.25831 -1.42361 0
M  V30 4818 H 434.781 -0.652827 -3.82976 0
M  V30 4819 H 436.453 -3.21074 -3.31224 0
M  V30 4820 H 434.696 -3.06878 -3.06608 0
M  V30 4821 H 435.367 -2.90797 -4.69192 0
M  V30 4822 H 437.843 -1.10521 -4.01154 0
M  V30 4823 H 436.719 -1.025 -5.39245 0
M  V30 4824 H 436.98 0.402465 -4.40264 0
M  V30 4825 N 436.039 1.36541 -0.78704 0
M  V30 4826 C 436.989 2.27459 -0.156957 0
M  V30 4827 C 437.973 1.46843 0.657709 0
M  V30 4828 O 439.165 1.69245 0.518173 0
M  V30 4829 C 436.294 3.35893 0.709278 0
M  V30 4830 C 435.38 4.23947 -0.114049 0
M  V30 4831 N 435.771 4.92145 -1.16736 0
M  V30 4832 C 434.069 4.4587 0.107497 0
M  V30 4833 C 434.77 5.57261 -1.66837 0
M  V30 4834 N 433.746 5.3473 -0.977992 0
M  V30 4835 H 437.548 2.77669 -0.963185 0
M  V30 4836 H 435.062 1.49839 -0.62627 0
M  V30 4837 H 437.059 3.99953 1.17656 0
M  V30 4838 H 435.719 2.87238 1.51408 0
M  V30 4839 H 436.73 4.94169 -1.54976 0
M  V30 4840 H 433.407 4.08056 0.882994 0
M  V30 4841 H 434.797 6.21728 -2.54762 0
M  V30 4842 N 437.518 0.538854 1.48102 0
M  V30 4843 C 438.758 0.0101209 2.04397 0
M  V30 4844 C 439.122 -1.30741 1.40609 0
M  V30 4845 O 440.323 -1.92272 1.87843 0
M  V30 4846 C 438.594 -0.100232 3.57259 0
M  V30 4847 S 440.153 -0.577746 4.3498 0
M  V30 4848 H 436.971 0.0163171 0.710813 0
M  V30 4849 H 439.573 0.721429 1.81702 0
M  V30 4850 H 438.277 0.863351 4.01216 0
M  V30 4851 H 437.808 -0.835651 3.84422 0
M  V30 4852 H 439.823 -1.84073 4.60794 0
M  V30 4853 N 438.996 -1.55193 0.274407 0
M  V30 4854 C 440.236 -2.01488 -0.343778 0
M  V30 4855 C 440.6 -1.1586 -1.53103 0
M  V30 4856 O 441.801 -1.51732 -2.2188 0
M  V30 4857 C 440.072 -3.50134 -0.717021 0
M  V30 4858 S 441.631 -4.18417 -1.32184 0
M  V30 4859 H 438.449 -0.70291 -0.106948 0
M  V30 4860 H 441.051 -1.91446 0.396075 0
M  V30 4861 H 439.755 -4.10104 0.155947 0
M  V30 4862 H 439.286 -3.64159 -1.48835 0
M  V30 4863 H 441.301 -4.21984 -2.61044 0
M  V30 4864 N 440.474 -0.00167713 -1.576 0
M  V30 4865 C 441.404 0.988091 -2.11563 0
M  V30 4866 C 442.385 1.35736 -1.02517 0
M  V30 4867 O 443.57 1.44082 -1.30208 0
M  V30 4868 C 440.7 2.27941 -2.62031 0
M  V30 4869 C 439.654 2.0517 -3.75619 0
M  V30 4870 C 438.98 3.4033 -4.12407 0
M  V30 4871 C 440.28 1.41294 -5.02825 0
M  V30 4872 H 441.974 0.538771 -2.94513 0
M  V30 4873 H 439.52 0.257712 -1.41675 0
M  V30 4874 H 441.473 2.97539 -2.9841 0
M  V30 4875 H 440.197 2.74989 -1.76205 0
M  V30 4876 H 438.856 1.37998 -3.39635 0
M  V30 4877 H 438.504 3.85085 -3.23603 0
M  V30 4878 H 438.204 3.25909 -4.88935 0
M  V30 4879 H 439.728 4.1124 -4.51347 0
M  V30 4880 H 441.142 2.00851 -5.36965 0
M  V30 4881 H 439.539 1.37356 -5.84169 0
M  V30 4882 H 440.609 0.382362 -4.8339 0
M  V30 4883 N 441.952 1.55251 0.271103 0
M  V30 4884 C 442.9 1.89054 1.35504 0
M  V30 4885 C 443.894 0.767064 1.51038 0
M  V30 4886 O 445.1 0.951429 1.528 0
M  V30 4887 H 441.475 0.600072 0.45323 0
M  V30 4888 H 443.446 2.79598 1.04247 0
M  V30 4889 C 442.195 2.18068 2.70817 0
M  V30 4890 H 441.518 3.04005 2.59656 0
M  V30 4891 H 442.958 2.4564 3.45597 0
M  V30 4892 C 441.417 0.988901 3.2206 0
M  V30 4893 O 441.947 0.224501 4.01072 0
M  V30 4894 N 440.153 0.786085 2.79766 0
M  V30 4895 H 439.7 1.40937 2.15626 0
M  V30 4896 H 439.658 -0.00969349 3.14399 0
M  V30 4897 N 443.43 -0.535701 1.48216 0
M  V30 4898 C 444.841 -1.11769 1.49548 0
M  V30 4899 C 445.192 -1.94442 0.26207 0
M  V30 4900 O 444.317 -2.06987 -0.631287 0
M  V30 4901 C 444.912 -2.03367 2.70975 0
M  V30 4902 C 443.471 -2.56795 2.75196 0
M  V30 4903 C 442.618 -1.33631 2.42977 0
M  V30 4904 H 445.569 -0.321232 1.55415 0
M  V30 4905 H 445.59 -2.87569 2.49167 0
M  V30 4906 H 445.102 -1.43169 3.60727 0
M  V30 4907 H 443.203 -3.20731 1.89638 0
M  V30 4908 H 443.316 -2.9632 3.76472 0
M  V30 4909 H 441.68 -1.6502 1.94012 0
M  V30 4910 H 442.463 -0.75194 3.34964 0
M  V30 4911 N 444.908 -1.36708 -0.784132 0
M  V30 4912 C 446.157 -1.30559 -1.53744 0
M  V30 4913 C 446.47 0.111374 -1.95283 0
M  V30 4914 O 447.676 0.29527 -2.6989 0
M  V30 4915 C 446.132 -2.29098 -2.77565 0
M  V30 4916 C 445.74 -3.76258 -2.43174 0
M  V30 4917 C 447.484 -2.31936 -3.55536 0
M  V30 4918 C 445.391 -4.6656 -3.63422 0
M  V30 4919 H 444.321 -0.48518 -0.577162 0
M  V30 4920 H 446.972 -1.62101 -0.859981 0
M  V30 4921 H 445.354 -1.90557 -3.47137 0
M  V30 4922 H 446.528 -4.23565 -1.81465 0
M  V30 4923 H 444.843 -3.76246 -1.78403 0
M  V30 4924 H 447.44 -2.9661 -4.44889 0
M  V30 4925 H 447.783 -1.3294 -3.94503 0
M  V30 4926 H 448.316 -2.6912 -2.92949 0
M  V30 4927 H 445.055 -5.66638 -3.29547 0
M  V30 4928 H 444.575 -4.23966 -4.24279 0
M  V30 4929 H 446.254 -4.8309 -4.30387 0
M  V30 4930 N 446.386 1.0089 -1.21074 0
M  V30 4931 C 447.635 1.74019 -1.01981 0
M  V30 4932 C 447.948 1.90408 0.447665 0
M  V30 4933 O 449.154 2.60707 0.757906 0
M  V30 4934 C 447.61 3.13026 -1.77603 0
M  V30 4935 C 447.218 3.04623 -3.28495 0
M  V30 4936 C 448.962 3.90312 -1.66904 0
M  V30 4937 C 446.869 4.38685 -3.96623 0
M  V30 4938 H 445.799 0.652422 -0.377971 0
M  V30 4939 H 448.45 1.12755 -1.44771 0
M  V30 4940 H 446.832 3.74878 -1.27604 0
M  V30 4941 H 448.006 2.52032 -3.85767 0
M  V30 4942 H 446.321 2.40827 -3.39693 0
M  V30 4943 H 448.918 4.8951 -2.15138 0
M  V30 4944 H 449.261 4.11558 -0.62658 0
M  V30 4945 H 449.794 3.35104 -2.14359 0
M  V30 4946 H 446.533 4.22641 -5.01054 0
M  V30 4947 H 446.053 4.91252 -3.4414 0
M  V30 4948 H 447.732 5.075 -4.01314 0
M  V30 4949 N 447.864 1.01787 1.20321 0
M  V30 4950 C 449.094 0.72614 1.93419 0
M  V30 4951 C 449.502 -0.717317 1.75075 0
M  V30 4952 O 448.845 -1.49836 1.06278 0
M  V30 4953 C 448.907 0.983621 3.45782 0
M  V30 4954 C 448.571 2.41645 3.87888 0
M  V30 4955 C 449.568 3.39732 3.93545 0
M  V30 4956 C 447.253 2.75752 4.19841 0
M  V30 4957 C 449.247 4.69988 4.30569 0
M  V30 4958 C 446.934 4.06221 4.56539 0
M  V30 4959 C 447.932 5.0315 4.61876 0
M  V30 4960 O 447.62 6.31284 4.97731 0
M  V30 4961 H 447.352 0.265824 0.621541 0
M  V30 4962 H 449.906 1.3623 1.53722 0
M  V30 4963 H 448.136 0.290301 3.85609 0
M  V30 4964 H 449.825 0.683279 4.00108 0
M  V30 4965 H 450.591 3.14718 3.69022 0
M  V30 4966 H 446.47 2.00993 4.14877 0
M  V30 4967 H 450.014 5.45642 4.3465 0
M  V30 4968 H 445.911 4.31013 4.80518 0
M  V30 4969 H 446.679 6.35591 5.15719 0
M  V30 4970 N 449.342 -1.36122 0.79427 0
M  V30 4971 C 450.589 -1.99111 0.368905 0
M  V30 4972 C 450.917 -1.63032 -1.0607 0
M  V30 4973 O 450.172 -0.879303 -1.74833 0
M  V30 4974 C 450.471 -3.5409 0.48527 0
M  V30 4975 C 450.137 -4.10003 1.87638 0
M  V30 4976 C 448.799 -4.24986 2.257 0
M  V30 4977 C 451.151 -4.40423 2.78706 0
M  V30 4978 C 448.479 -4.67701 3.54221 0
M  V30 4979 C 450.831 -4.84573 4.0666 0
M  V30 4980 C 449.495 -4.97761 4.44737 0
M  V30 4981 H 448.765 -0.7286 0.134992 0
M  V30 4982 H 451.412 -1.62534 1.01267 0
M  V30 4983 H 449.717 -3.91052 -0.241984 0
M  V30 4984 H 451.414 -4.00766 0.137109 0
M  V30 4985 H 448.004 -3.98784 1.57064 0
M  V30 4986 H 452.188 -4.28412 2.50553 0
M  V30 4987 H 447.444 -4.761 3.83587 0
M  V30 4988 H 451.618 -5.07074 4.77336 0
M  V30 4989 H 449.245 -5.30618 5.44379 0
M  V30 4990 N 450.82 -0.546701 -1.47814 0
M  V30 4991 C 452.067 -0.0187407 -2.02491 0
M  V30 4992 C 452.395 1.32685 -1.42215 0
M  V30 4993 O 451.65 1.87413 -0.563454 0
M  V30 4994 C 451.949 0.134869 -3.57145 0
M  V30 4995 C 451.615 -1.13849 -4.3629 0
M  V30 4996 C 450.277 -1.48743 -4.57634 0
M  V30 4997 C 452.629 -1.98277 -4.82012 0
M  V30 4998 C 449.957 -2.67932 -5.21948 0
M  V30 4999 C 452.309 -3.16659 -5.4764 0
M  V30 5000 C 450.973 -3.51879 -5.67219 0
M  V30 5001 H 450.243 -0.0068577 -0.740968 0
M  V30 5002 H 452.89 -0.716097 -1.77607 0
M  V30 5003 H 451.195 0.915118 -3.80963 0
M  V30 5004 H 452.892 0.558556 -3.97091 0
M  V30 5005 H 449.482 -0.856767 -4.19949 0
M  V30 5006 H 453.666 -1.72628 -4.6531 0
M  V30 5007 H 448.922 -2.95401 -5.35302 0
M  V30 5008 H 453.096 -3.82374 -5.82033 0
M  V30 5009 H 450.723 -4.44331 -6.16825 0
M  V30 5010 N 452.299 1.55045 -0.282633 0
M  V30 5011 C 453.229 2.2579 0.595066 0
M  V30 5012 C 454.21 1.25074 1.15284 0
M  V30 5013 O 455.395 1.5381 1.18559 0
M  V30 5014 C 452.525 2.98472 1.77572 0
M  V30 5015 C 451.479 4.0618 1.34914 0
M  V30 5016 C 450.805 4.66477 2.6135 0
M  V30 5017 C 452.105 5.1996 0.493821 0
M  V30 5018 H 453.799 2.994 0.00505653 0
M  V30 5019 H 451.345 1.44 0.000992001 0
M  V30 5020 H 453.298 3.46677 2.39568 0
M  V30 5021 H 452.022 2.2241 2.39168 0
M  V30 5022 H 450.681 3.58797 0.752338 0
M  V30 5023 H 450.329 3.87074 3.2122 0
M  V30 5024 H 450.029 5.39207 2.33516 0
M  V30 5025 H 451.553 5.17435 3.24181 0
M  V30 5026 H 452.967 5.64172 1.01898 0
M  V30 5027 H 451.364 5.99299 0.310047 0
M  V30 5028 H 452.434 4.82462 -0.485593 0
M  V30 5029 N 453.777 0.010035 1.57597 0
M  V30 5030 C 455.025 -0.671371 1.90623 0
M  V30 5031 C 455.346 -1.73753 0.885151 0
M  V30 5032 O 454.616 -1.95752 -0.0760611 0
M  V30 5033 H 453.196 -0.250968 0.703579 0
M  V30 5034 H 455.858 0.0533325 1.94827 0
M  V30 5035 H 454.954 -1.13626 2.90681 0
M  V30 5036 N 455.255 -1.55392 -0.262866 0
M  V30 5037 C 456.165 -1.92077 -1.34698 0
M  V30 5038 C 457.181 -0.819227 -1.53508 0
M  V30 5039 O 458.357 -1.11921 -1.67439 0
M  V30 5040 C 455.422 -2.19407 -2.68443 0
M  V30 5041 C 454.483 -3.42905 -2.58292 0
M  V30 5042 C 453.716 -3.68921 -3.85659 0
M  V30 5043 O 453.939 -2.97275 -4.8681 0
M  V30 5044 O 452.873 -4.62455 -3.85252 0
M  V30 5045 H 456.699 -2.84384 -1.06581 0
M  V30 5046 H 454.284 -1.42069 -0.462264 0
M  V30 5047 H 456.166 -2.38365 -3.47506 0
M  V30 5048 H 454.841 -1.30282 -2.96325 0
M  V30 5049 H 453.748 -3.29272 -1.7757 0
M  V30 5050 H 455.081 -4.32282 -2.35358 0
M  V30 5051 N 456.733 0.527833 -1.48498 0
M  V30 5052 C 457.68 1.6322 -1.6318 0
M  V30 5053 C 458.65 1.59199 -0.473815 0
M  V30 5054 O 459.835 1.77591 -0.697563 0
M  V30 5055 C 456.975 3.01474 -1.67951 0
M  V30 5056 C 456.088 3.15713 -2.94871 0
M  V30 5057 C 455.223 4.44539 -2.90789 0
M  V30 5058 C 454.262 4.52315 -4.12404 0
M  V30 5059 N 453.399 5.72533 -4.06387 0
M  V30 5060 H 458.239 1.50011 -2.57489 0
M  V30 5061 H 455.776 0.730298 -1.27691 0
M  V30 5062 H 457.734 3.81572 -1.68698 0
M  V30 5063 H 456.364 3.1345 -0.771306 0
M  V30 5064 H 455.416 2.28854 -3.03859 0
M  V30 5065 H 456.728 3.1732 -3.8485 0
M  V30 5066 H 455.882 5.3293 -2.89949 0
M  V30 5067 H 454.621 4.45457 -1.98542 0
M  V30 5068 H 453.626 3.62331 -4.13517 0
M  V30 5069 H 454.851 4.53134 -5.05812 0
M  V30 5070 H 452.797 5.74344 -3.16962 0
M  V30 5071 H 452.714 5.75643 -4.90073 0
M  V30 5072 H 453.982 6.63204 -4.0961 0
M  V30 5073 N 458.211 1.37122 0.776871 0
M  V30 5074 C 459.458 1.32047 1.53524 0
M  V30 5075 C 459.786 -0.0965631 1.9426 0
M  V30 5076 O 459.041 -1.06866 1.63945 0
M  V30 5077 C 459.34 2.20068 2.81611 0
M  V30 5078 C 459.006 3.68423 2.59953 0
M  V30 5079 C 457.668 4.08854 2.53755 0
M  V30 5080 C 460.02 4.62431 2.40431 0
M  V30 5081 C 457.348 5.41417 2.26018 0
M  V30 5082 C 459.7 5.95225 2.14219 0
M  V30 5083 C 458.364 6.34767 2.06462 0
M  V30 5084 H 457.634 0.483196 0.561785 0
M  V30 5085 H 460.281 1.69284 0.895268 0
M  V30 5086 H 458.586 1.75809 3.50141 0
M  V30 5087 H 460.283 2.13458 3.39465 0
M  V30 5088 H 456.873 3.36354 2.65638 0
M  V30 5089 H 461.057 4.32057 2.44213 0
M  V30 5090 H 456.313 5.71022 2.18504 0
M  V30 5091 H 460.487 6.67626 1.98112 0
M  V30 5092 H 458.114 7.37413 1.84733 0
M  V30 5093 N 459.689 -1.00246 1.21608 0
M  V30 5094 C 461.105 -1.26435 0.973975 0
M  V30 5095 C 461.305 -1.98642 -0.338143 0
M  V30 5096 O 460.361 -2.29026 -1.06317 0
M  V30 5097 C 461.674 -2.08551 2.16626 0
M  V30 5098 C 463.222 -2.21769 2.20879 0
M  V30 5099 C 463.697 -3.07267 3.39633 0
M  V30 5100 N 465.188 -3.14855 3.39736 0
M  V30 5101 C 465.923 -3.81274 4.28273 0
M  V30 5102 N 465.419 -4.497 5.27012 0
M  V30 5103 N 467.212 -3.7794 4.16074 0
M  V30 5104 H 459.363 -0.518089 2.05984 0
M  V30 5105 H 461.626 -0.291368 0.902113 0
M  V30 5106 H 461.332 -1.62847 3.11727 0
M  V30 5107 H 461.206 -3.09303 2.15897 0
M  V30 5108 H 463.593 -2.66691 1.26332 0
M  V30 5109 H 463.674 -1.20478 2.25652 0
M  V30 5110 H 463.318 -2.63047 4.34475 0
M  V30 5111 H 463.248 -4.08678 3.321 0
M  V30 5112 H 465.739 -2.66147 2.6828 0
M  V30 5113 H 466.052 -4.98092 5.90867 0
M  V30 5114 H 464.397 -4.48479 5.30935 0
M  V30 5115 H 467.588 -3.23638 3.38195 0
M  V30 5116 H 467.761 -4.29424 4.85282 0
M  V30 5117 N 461.167 -1.02423 -1.1978 0
M  V30 5118 C 462.114 -0.601023 -2.22837 0
M  V30 5119 C 463.084 0.382801 -1.61629 0
M  V30 5120 O 464.269 0.280514 -1.88727 0
M  V30 5121 C 461.409 0.0467755 -3.45068 0
M  V30 5122 C 460.522 -0.98253 -4.20678 0
M  V30 5123 C 459.657 -0.304982 -5.30324 0
M  V30 5124 C 458.696 -1.32052 -5.97686 0
M  V30 5125 N 457.833 -0.669105 -6.98904 0
M  V30 5126 H 462.673 -1.48444 -2.58396 0
M  V30 5127 H 460.21 -0.742936 -1.2696 0
M  V30 5128 H 462.168 0.439556 -4.14878 0
M  V30 5129 H 460.798 0.893796 -3.10179 0
M  V30 5130 H 459.85 -1.49341 -3.49859 0
M  V30 5131 H 461.162 -1.75455 -4.66923 0
M  V30 5132 H 460.316 0.142893 -6.06532 0
M  V30 5133 H 459.055 0.499283 -4.85138 0
M  V30 5134 H 458.06 -1.7787 -5.20233 0
M  V30 5135 H 459.285 -2.1262 -6.44957 0
M  V30 5136 H 457.231 0.115152 -6.55899 0
M  V30 5137 H 457.148 -1.37908 -7.43315 0
M  V30 5138 H 458.416 -0.245076 -7.79115 0
M  V30 5139 N 462.645 1.35699 -0.801477 0
M  V30 5140 C 463.875 2.02862 -0.3912 0
M  V30 5141 C 464.283 1.60552 1.00099 0
M  V30 5142 O 463.626 0.796215 1.65548 0
M  V30 5143 C 463.688 3.57386 -0.389299 0
M  V30 5144 C 463.352 4.22943 -1.73113 0
M  V30 5145 C 464.349 4.44984 -2.68859 0
M  V30 5146 C 462.034 4.60167 -2.01373 0
M  V30 5147 C 464.028 5.03345 -3.91053 0
M  V30 5148 C 461.715 5.18243 -3.23832 0
M  V30 5149 C 462.713 5.39773 -4.1849 0
M  V30 5150 O 462.401 5.96626 -5.38788 0
M  V30 5151 H 462.133 0.657341 -0.157732 0
M  V30 5152 H 464.687 1.74407 -1.08496 0
M  V30 5153 H 462.917 3.85011 0.361031 0
M  V30 5154 H 464.606 4.059 -0.0020365 0
M  V30 5155 H 465.372 4.1661 -2.48316 0
M  V30 5156 H 461.251 4.42726 -1.28508 0
M  V30 5157 H 464.795 5.20065 -4.64949 0
M  V30 5158 H 460.692 5.46044 -3.44248 0
M  V30 5159 H 461.46 6.15082 -5.40015 0
M  V30 5160 N 464.123 0.554532 1.47522 0
M  V30 5161 C 465.372 0.0273458 2.01681 0
M  V30 5162 C 465.685 -1.32962 1.43459 0
M  V30 5163 O 466.891 -1.94657 1.89265 0
M  V30 5164 C 465.347 -0.00159057 3.599 0
M  V30 5165 C 464.955 1.35197 4.27113 0
M  V30 5166 C 466.699 -0.476311 4.21819 0
M  V30 5167 C 464.606 1.28229 5.77331 0
M  V30 5168 H 463.536 0.00645269 0.753972 0
M  V30 5169 H 466.187 0.701985 1.69542 0
M  V30 5170 H 464.569 -0.741821 3.8899 0
M  V30 5171 H 465.743 2.1097 4.09668 0
M  V30 5172 H 464.058 1.76441 3.77171 0
M  V30 5173 H 466.655 -0.5468 5.31897 0
M  V30 5174 H 466.998 -1.4877 3.8881 0
M  V30 5175 H 467.531 0.20898 3.97251 0
M  V30 5176 H 464.27 2.26959 6.14955 0
M  V30 5177 H 463.79 0.566314 5.97121 0
M  V30 5178 H 465.469 0.983226 6.39485 0
M  V30 5179 N 465.601 -1.54893 0.290851 0
M  V30 5180 C 466.531 -2.26103 -0.583084 0
M  V30 5181 C 467.512 -1.25684 -1.14619 0
M  V30 5182 O 468.697 -1.54436 -1.17741 0
M  V30 5183 C 465.827 -2.99409 -1.75987 0
M  V30 5184 C 464.781 -4.0689 -1.32758 0
M  V30 5185 C 464.107 -4.67856 -2.58872 0
M  V30 5186 C 465.407 -5.20215 -0.46624 0
M  V30 5187 H 467.101 -2.99398 0.0108214 0
M  V30 5188 H 464.647 -1.43998 0.00664468 0
M  V30 5189 H 466.6 -3.47943 -2.37727 0
M  V30 5190 H 465.324 -2.23675 -2.37985 0
M  V30 5191 H 463.983 -3.59191 -0.733299 0
M  V30 5192 H 463.631 -3.88772 -3.19163 0
M  V30 5193 H 463.331 -5.40438 -2.30653 0
M  V30 5194 H 464.855 -5.19147 -3.21433 0
M  V30 5195 H 466.269 -5.64704 -0.989047 0
M  V30 5196 H 464.666 -5.99455 -0.27826 0
M  V30 5197 H 465.736 -4.82198 0.511173 0
M  V30 5198 N 467.08 -0.0183926 -1.57589 0
M  V30 5199 C 468.012 0.995557 -2.06449 0
M  V30 5200 C 469.025 1.29556 -0.985849 0
M  V30 5201 O 470.214 1.2621 -1.26227 0
M  V30 5202 C 467.314 2.32572 -2.46502 0
M  V30 5203 C 466.487 2.21245 -3.77319 0
M  V30 5204 C 465.546 3.37104 -4.04039 0
M  V30 5205 O 464.572 3.14468 -4.74445 0
M  V30 5206 N 465.774 4.60553 -3.53372 0
M  V30 5207 H 468.539 0.578746 -2.94059 0
M  V30 5208 H 466.1 0.168603 -1.6102 0
M  V30 5209 H 468.092 3.08887 -2.61478 0
M  V30 5210 H 466.662 2.65931 -1.64315 0
M  V30 5211 H 465.882 1.29723 -3.72244 0
M  V30 5212 H 467.17 2.10868 -4.63047 0
M  V30 5213 H 466.568 4.81839 -2.96391 0
M  V30 5214 H 465.125 5.34072 -3.73644 0
M  V30 5215 N 468.558 1.5553 0.254621 0
M  V30 5216 C 469.488 1.9268 1.31897 0
M  V30 5217 C 470.469 0.790797 1.506 0
M  V30 5218 O 471.654 1.05045 1.63337 0
M  V30 5219 C 468.784 2.21477 2.67517 0
M  V30 5220 C 467.738 3.37256 2.63519 0
M  V30 5221 C 467.064 3.51576 4.02862 0
M  V30 5222 C 468.364 4.73157 2.21179 0
M  V30 5223 H 470.058 2.81832 1.01051 0
M  V30 5224 H 467.604 1.35599 0.484662 0
M  V30 5225 H 469.557 2.46055 3.42104 0
M  V30 5226 H 468.281 1.29144 2.99982 0
M  V30 5227 H 466.94 3.12675 1.9139 0
M  V30 5228 H 466.588 2.56676 4.32581 0
M  V30 5229 H 466.288 4.2943 4.01078 0
M  V30 5230 H 467.812 3.78467 4.79161 0
M  V30 5231 H 469.226 4.97158 2.85494 0
M  V30 5232 H 467.623 5.54058 2.30521 0
M  V30 5233 H 468.693 4.70739 1.16332 0
M  V30 5234 N 470.036 -0.519951 1.48776 0
M  V30 5235 C 471.283 -1.27522 1.57303 0
M  V30 5236 C 471.611 -1.92869 0.251328 0
M  V30 5237 O 470.866 -1.80372 -0.759243 0
M  V30 5238 C 471.165 -2.37864 2.6675 0
M  V30 5239 C 470.831 -1.90103 4.08867 0
M  V30 5240 C 469.493 -1.76795 4.47546 0
M  V30 5241 C 471.845 -1.54133 4.97888 0
M  V30 5242 C 469.173 -1.25868 5.73039 0
M  V30 5243 C 471.525 -1.04665 6.23881 0
M  V30 5244 C 470.189 -0.899823 6.61407 0
M  V30 5245 H 469.459 -0.466636 0.575614 0
M  V30 5246 H 472.106 -0.579109 1.82534 0
M  V30 5247 H 470.411 -3.13186 2.35418 0
M  V30 5248 H 472.108 -2.95969 2.70561 0
M  V30 5249 H 468.698 -2.01414 3.78326 0
M  V30 5250 H 472.882 -1.6327 4.68675 0
M  V30 5251 H 468.138 -1.13196 6.0083 0
M  V30 5252 H 472.312 -0.759074 6.92251 0
M  V30 5253 H 469.939 -0.503011 7.58534 0
M  V30 5254 N 471.514 -1.37532 -0.769588 0
M  V30 5255 C 472.461 -1.3347 -1.88293 0
M  V30 5256 C 473.431 -0.199891 -1.64893 0
M  V30 5257 O 474.616 -0.389594 -1.8678 0
M  V30 5258 C 471.756 -1.14968 -3.25387 0
M  V30 5259 C 470.869 -2.37698 -3.60727 0
M  V30 5260 C 470.004 -2.12051 -4.8704 0
M  V30 5261 C 469.043 -3.30636 -5.15117 0
M  V30 5262 N 468.18 -3.04527 -6.3262 0
M  V30 5263 H 473.02 -2.28658 -1.911 0
M  V30 5264 H 470.557 -1.13622 -0.934257 0
M  V30 5265 H 472.515 -1.02261 -4.04473 0
M  V30 5266 H 471.145 -0.234263 -3.21949 0
M  V30 5267 H 470.197 -2.61137 -2.76608 0
M  V30 5268 H 471.509 -3.26131 -3.77413 0
M  V30 5269 H 470.663 -1.96388 -5.74035 0
M  V30 5270 H 469.402 -1.20959 -4.72462 0
M  V30 5271 H 468.407 -3.46836 -4.26597 0
M  V30 5272 H 469.632 -4.22582 -5.31603 0
M  V30 5273 H 467.578 -2.16067 -6.19396 0
M  V30 5274 H 467.495 -3.86503 -6.49732 0
M  V30 5275 H 468.763 -2.92485 -7.22546 0
M  V30 5276 N 472.992 0.995999 -1.22138 0
M  V30 5277 C 474.22 1.77066 -1.07029 0
M  V30 5278 C 474.635 1.8495 0.379357 0
M  V30 5279 O 473.992 1.3174 1.26297 0
M  V30 5280 C 474.043 3.20533 -1.67155 0
M  V30 5281 O 473.764 3.13082 -3.06449 0
M  V30 5282 C 475.265 4.14461 -1.5728 0
M  V30 5283 H 472.485 0.556179 -0.375374 0
M  V30 5284 H 475.029 1.25238 -1.61666 0
M  V30 5285 H 473.184 3.6944 -1.16589 0
M  V30 5286 H 473.598 4.03283 -3.35355 0
M  V30 5287 H 475.072 5.1289 -2.04078 0
M  V30 5288 H 475.549 4.36005 -0.528795 0
M  V30 5289 H 476.155 3.71449 -2.07136 0
M  V30 5290 N 474.47 1.03057 1.19235 0
M  V30 5291 C 475.71 0.736757 1.9066 0
M  V30 5292 C 476.074 -0.721521 1.77927 0
M  V30 5293 O 477.275 -1.12849 2.43964 0
M  V30 5294 C 475.546 1.17755 3.37444 0
M  V30 5295 S 477.105 1.00783 4.27069 0
M  V30 5296 H 473.923 0.268174 0.658486 0
M  V30 5297 H 476.525 1.32076 1.4414 0
M  V30 5298 H 475.229 2.23448 3.44237 0
M  V30 5299 H 474.76 0.586912 3.88997 0
M  V30 5300 H 476.775 -0.0806356 4.96134 0
M  V30 5301 N 475.948 -1.35272 0.808662 0
M  V30 5302 C 477.364 -1.51806 0.492653 0
M  V30 5303 C 477.564 -1.7574 -0.985778 0
M  V30 5304 O 476.62 -1.80003 -1.77074 0
M  V30 5305 C 477.933 -2.69202 1.33981 0
M  V30 5306 C 479.481 -2.8308 1.33547 0
M  V30 5307 C 479.956 -4.03502 2.16679 0
M  V30 5308 N 481.447 -4.10684 2.14227 0
M  V30 5309 C 482.182 -5.02984 2.75308 0
M  V30 5310 N 481.678 -6.00603 3.45323 0
M  V30 5311 N 483.471 -4.95746 2.64938 0
M  V30 5312 H 475.622 -1.17993 1.76611 0
M  V30 5313 H 477.885 -0.577476 0.751814 0
M  V30 5314 H 477.591 -2.581 2.38909 0
M  V30 5315 H 477.465 -3.63854 0.994491 0
M  V30 5316 H 479.852 -2.93631 0.294036 0
M  V30 5317 H 479.933 -1.89278 1.72068 0
M  V30 5318 H 479.577 -3.93711 3.20864 0
M  V30 5319 H 479.507 -4.96489 1.75517 0
M  V30 5320 H 481.998 -3.40802 1.63285 0
M  V30 5321 H 482.311 -6.67633 3.89212 0
M  V30 5322 H 480.656 -6.0077 3.49428 0
M  V30 5323 H 483.847 -4.18439 2.09825 0
M  V30 5324 H 484.02 -5.67487 3.12829 0
M  V30 5325 N 477.426 -0.562348 -1.47226 0
M  V30 5326 C 478.674 -0.0401371 -2.0206 0
M  V30 5327 C 478.995 1.3165 -1.43852 0
M  V30 5328 O 478.265 1.85976 -0.615599 0
M  V30 5329 H 476.845 -0.0118479 -0.746906 0
M  V30 5330 H 479.507 -0.73352 -1.8057 0
M  V30 5331 H 478.603 0.0441254 -3.12069 0
M  V30 5332 N 478.904 1.54736 -0.299062 0
M  V30 5333 C 479.834 2.26409 0.571085 0
M  V30 5334 C 480.815 1.2629 1.13951 0
M  V30 5335 O 482 1.55059 1.16921 0
M  V30 5336 C 479.13 3.00338 1.74396 0
M  V30 5337 C 478.084 4.07588 1.30599 0
M  V30 5338 C 477.41 4.69222 2.56387 0
M  V30 5339 C 478.71 5.20455 0.438645 0
M  V30 5340 H 480.404 2.99388 -0.0266991 0
M  V30 5341 H 477.95 1.43993 -0.0142812 0
M  V30 5342 H 479.903 3.49198 2.35878 0
M  V30 5343 H 478.627 2.24934 2.36796 0
M  V30 5344 H 477.286 3.59575 0.71424 0
M  V30 5345 H 476.934 3.9046 3.17097 0
M  V30 5346 H 476.634 5.41653 2.27784 0
M  V30 5347 H 478.158 5.20844 3.18675 0
M  V30 5348 H 479.572 5.65221 0.959085 0
M  V30 5349 H 477.969 5.99594 0.246466 0
M  V30 5350 H 479.039 4.8192 -0.536738 0
M  V30 5351 N 480.382 0.0267497 1.57577 0
M  V30 5352 C 481.629 -0.652404 1.91703 0
M  V30 5353 C 481.957 -1.72271 0.902936 0
M  V30 5354 O 481.212 -1.955 -0.0884843 0
M  V30 5355 C 481.511 -1.30914 3.3256 0
M  V30 5356 C 481.177 -0.369441 4.49384 0
M  V30 5357 C 479.839 -0.110791 4.81072 0
M  V30 5358 C 482.191 0.275971 5.20469 0
M  V30 5359 C 479.519 0.801116 5.81205 0
M  V30 5360 C 481.871 1.17592 6.21575 0
M  V30 5361 C 480.535 1.44348 6.51705 0
M  V30 5362 H 479.805 -0.238732 0.70149 0
M  V30 5363 H 482.452 0.0880091 1.91298 0
M  V30 5364 H 480.757 -2.12425 3.29216 0
M  V30 5365 H 482.454 -1.84115 3.56234 0
M  V30 5366 H 479.044 -0.581211 4.24641 0
M  V30 5367 H 483.228 0.0892 4.9622 0
M  V30 5368 H 478.484 1.01614 6.02897 0
M  V30 5369 H 482.658 1.68223 6.75777 0
M  V30 5370 H 480.285 2.15176 7.29111 0
M  V30 5371 N 481.861 -1.55662 -0.24637 0
M  V30 5372 C 483.107 -1.77782 -0.975779 0
M  V30 5373 C 483.44 -0.592103 -1.84953 0
M  V30 5374 O 482.715 0.409588 -1.90138 0
M  V30 5375 C 482.998 -3.09788 -1.83584 0
M  V30 5376 C 482.851 -4.38764 -0.990241 0
M  V30 5377 C 484.17 -3.38029 -2.81823 0
M  V30 5378 H 481.289 -0.646789 -0.353317 0
M  V30 5379 H 483.931 -1.88398 -0.246248 0
M  V30 5380 H 482.081 -3.00869 -2.45784 0
M  V30 5381 H 483.753 -4.59675 -0.386897 0
M  V30 5382 H 481.996 -4.32798 -0.294626 0
M  V30 5383 H 482.667 -5.27514 -1.62584 0
M  V30 5384 H 485.143 -3.46915 -2.2976 0
M  V30 5385 H 484.019 -4.3161 -3.39122 0
M  V30 5386 H 484.28 -2.58968 -3.58313 0
M  V30 5387 N 483.339 0.512053 -1.4905 0
M  V30 5388 C 484.269 1.62365 -1.67809 0
M  V30 5389 C 485.25 1.61737 -0.526809 0
M  V30 5390 O 486.435 1.78651 -0.761404 0
M  V30 5391 C 483.565 3.00895 -1.73435 0
M  V30 5392 C 482.519 3.16387 -2.88242 0
M  V30 5393 C 481.845 4.56157 -2.78971 0
M  V30 5394 C 483.145 2.97457 -4.29321 0
M  V30 5395 H 484.839 1.46921 -2.60873 0
M  V30 5396 H 482.385 0.705379 -1.2554 0
M  V30 5397 H 484.338 3.78549 -1.85145 0
M  V30 5398 H 483.062 3.17403 -0.769619 0
M  V30 5399 H 481.721 2.41155 -2.76116 0
M  V30 5400 H 481.369 4.69525 -1.8043 0
M  V30 5401 H 481.069 4.67465 -3.5602 0
M  V30 5402 H 482.593 5.35886 -2.92675 0
M  V30 5403 H 484.007 3.64888 -4.42187 0
M  V30 5404 H 482.404 3.20245 -5.07507 0
M  V30 5405 H 483.474 1.93692 -4.44535 0
M  V30 5406 N 484.817 1.37938 0.762283 0
M  V30 5407 C 486.057 1.35076 1.53407 0
M  V30 5408 C 486.421 -0.061546 1.91901 0
M  V30 5409 O 487.622 -0.214973 2.67939 0
M  V30 5410 C 485.893 2.27206 2.75884 0
M  V30 5411 S 487.452 2.42283 3.65848 0
M  V30 5412 H 484.27 0.479387 0.52508 0
M  V30 5413 H 486.872 1.7378 0.895586 0
M  V30 5414 H 485.576 3.28724 2.457 0
M  V30 5415 H 485.107 1.8962 3.44685 0
M  V30 5416 H 487.122 1.64044 4.68299 0
M  V30 5417 N 486.295 -0.989507 1.22664 0
M  V30 5418 C 487.227 -2.0824 0.957542 0
M  V30 5419 C 488.24 -1.6267 -0.0651098 0
M  V30 5420 O 489.429 -1.77695 0.169312 0
M  V30 5421 C 486.529 -3.36298 0.419145 0
M  V30 5422 C 485.702 -4.10882 1.49982 0
M  V30 5423 C 484.761 -5.17221 0.967904 0
M  V30 5424 O 483.787 -5.44613 1.65487 0
M  V30 5425 N 484.989 -5.80124 -0.20896 0
M  V30 5426 H 487.754 -2.31904 1.89843 0
M  V30 5427 H 485.315 -1.15552 1.13399 0
M  V30 5428 H 487.307 -4.04671 0.0485451 0
M  V30 5429 H 485.877 -3.09671 -0.426937 0
M  V30 5430 H 485.097 -3.37092 2.04359 0
M  V30 5431 H 486.385 -4.57482 2.22682 0
M  V30 5432 H 485.783 -5.60244 -0.783818 0
M  V30 5433 H 484.34 -6.49715 -0.520913 0
M  V30 5434 N 487.773 -1.03688 -1.18687 0
M  V30 5435 C 489.003 -0.756819 -1.92239 0
M  V30 5436 C 489.411 0.689374 -1.76194 0
M  V30 5437 O 488.754 1.48126 -1.08648 0
M  V30 5438 C 488.816 -1.03851 -3.44173 0
M  V30 5439 C 488.48 -2.47785 -3.83994 0
M  V30 5440 C 489.477 -3.4595 -3.88091 0
M  V30 5441 C 487.162 -2.82397 -4.154 0
M  V30 5442 C 489.156 -4.76779 -4.23038 0
M  V30 5443 C 486.843 -4.13433 -4.50018 0
M  V30 5444 C 487.841 -5.10434 -4.53813 0
M  V30 5445 O 487.529 -6.39122 -4.87625 0
M  V30 5446 H 487.261 -0.275678 -0.617234 0
M  V30 5447 H 489.815 -1.38658 -1.51536 0
M  V30 5448 H 488.045 -0.351612 -3.85098 0
M  V30 5449 H 489.734 -0.746846 -3.9897 0
M  V30 5450 H 490.5 -3.20549 -3.63969 0
M  V30 5451 H 486.379 -2.07568 -4.11627 0
M  V30 5452 H 489.923 -5.52488 -4.25914 0
M  V30 5453 H 485.82 -4.38604 -4.736 0
M  V30 5454 H 486.588 -6.43715 -5.05542 0
M  V30 5455 N 489.251 1.34841 -0.815825 0
M  V30 5456 C 490.491 2.00321 -0.406297 0
M  V30 5457 C 490.855 1.63293 1.00992 0
M  V30 5458 O 492.056 2.21563 1.52195 0
M  V30 5459 C 490.327 3.52421 -0.594469 0
M  V30 5460 S 491.886 4.37926 -0.276735 0
M  V30 5461 H 488.704 0.694155 -0.153848 0
M  V30 5462 H 491.306 1.64263 -1.06009 0
M  V30 5463 H 490.01 3.76858 -1.625 0
M  V30 5464 H 489.541 3.9333 0.0743157 0
M  V30 5465 H 491.556 4.87743 0.912215 0
M  V30 5466 N 490.729 0.570148 1.46925 0
M  V30 5467 C 491.977 0.0508523 2.02036 0
M  V30 5468 C 492.298 -1.30885 1.44548 0
M  V30 5469 O 491.568 -1.85647 0.625453 0
M  V30 5470 H 490.148 0.0158088 0.746833 0
M  V30 5471 H 492.81 0.743086 1.80178 0
M  V30 5472 H 491.906 -0.027575 3.12088 0
M  V30 5473 N 492.207 -1.54576 0.307264 0
M  V30 5474 C 493.137 -2.26708 -0.55907 0
M  V30 5475 C 494.118 -1.26893 -1.1328 0
M  V30 5476 O 495.303 -1.55677 -1.16097 0
M  V30 5477 C 492.433 -3.01259 -1.72801 0
M  V30 5478 C 491.387 -4.08275 -1.28435 0
M  V30 5479 C 490.713 -4.70575 -2.53895 0
M  V30 5480 C 492.013 -5.2068 -0.411038 0
M  V30 5481 H 493.707 -2.9937 0.042576 0
M  V30 5482 H 491.253 -1.43983 0.0219173 0
M  V30 5483 H 493.206 -3.50444 -2.34023 0
M  V30 5484 H 491.93 -2.26187 -2.356 0
M  V30 5485 H 490.589 -3.59949 -0.695161 0
M  V30 5486 H 490.237 -3.92136 -3.15021 0
M  V30 5487 H 489.937 -5.42854 -2.24908 0
M  V30 5488 H 491.461 -5.22527 -3.15908 0
M  V30 5489 H 492.875 -5.65721 -0.929097 0
M  V30 5490 H 491.272 -5.99716 -0.214664 0
M  V30 5491 H 492.342 -4.81629 0.562287 0
M  V30 5492 N 493.685 -0.035106 -1.57561 0
M  V30 5493 C 494.615 0.942993 -2.13612 0
M  V30 5494 C 495.596 1.33531 -1.05373 0
M  V30 5495 O 496.781 1.41287 -1.33235 0
M  V30 5496 C 493.911 2.22332 -2.66807 0
M  V30 5497 C 492.865 1.97156 -3.79886 0
M  V30 5498 C 492.191 3.31506 -4.19533 0
M  V30 5499 C 493.491 1.30596 -5.05709 0
M  V30 5500 H 495.185 0.476179 -2.95589 0
M  V30 5501 H 492.731 0.227602 -1.4219 0
M  V30 5502 H 494.684 2.91142 -3.04654 0
M  V30 5503 H 493.408 2.7119 -1.81999 0
M  V30 5504 H 492.067 1.30763 -3.42486 0
M  V30 5505 H 491.715 3.78134 -3.31698 0
M  V30 5506 H 491.415 3.15465 -4.95738 0
M  V30 5507 H 492.939 4.01574 -4.59968 0
M  V30 5508 H 494.353 1.89416 -5.41105 0
M  V30 5509 H 492.75 1.24934 -5.86951 0
M  V30 5510 H 493.82 0.279742 -4.84092 0
M  V30 5511 N 495.163 1.55791 0.238111 0
M  V30 5512 C 496.095 1.87513 1.31802 0
M  V30 5513 C 497.108 0.762053 1.43863 0
M  V30 5514 O 498.297 1.04024 1.45056 0
M  V30 5515 C 495.397 2.05402 2.69561 0
M  V30 5516 C 494.57 3.3632 2.79656 0
M  V30 5517 C 493.629 3.43844 3.98319 0
M  V30 5518 O 492.655 4.16994 3.87433 0
M  V30 5519 N 493.857 2.73777 5.11885 0
M  V30 5520 H 496.622 2.80734 1.04922 0
M  V30 5521 H 494.183 1.56135 0.428196 0
M  V30 5522 H 496.175 2.07769 3.47296 0
M  V30 5523 H 494.745 1.18884 2.89111 0
M  V30 5524 H 493.965 3.46195 1.88528 0
M  V30 5525 H 495.253 4.22594 2.83358 0
M  V30 5526 H 494.651 2.14094 5.23622 0
M  V30 5527 H 493.208 2.81825 5.87723 0
M  V30 5528 N 496.642 -0.504142 1.49319 0
M  V30 5529 C 497.891 -1.25507 1.57895 0
M  V30 5530 C 498.204 -1.93735 0.269433 0
M  V30 5531 O 499.41 -2.70492 0.233706 0
M  V30 5532 C 497.866 -2.27869 2.78574 0
M  V30 5533 C 497.474 -1.65594 4.16272 0
M  V30 5534 C 499.218 -3.0381 2.96479 0
M  V30 5535 C 497.125 -2.66048 5.28178 0
M  V30 5536 H 496.055 -0.47212 0.587894 0
M  V30 5537 H 498.706 -0.52931 1.757 0
M  V30 5538 H 497.088 -3.03594 2.54257 0
M  V30 5539 H 498.262 -0.958826 4.50714 0
M  V30 5540 H 496.577 -1.02055 4.037 0
M  V30 5541 H 499.174 -3.78925 3.77253 0
M  V30 5542 H 499.517 -3.61235 2.06918 0
M  V30 5543 H 500.05 -2.352 3.20821 0
M  V30 5544 H 496.789 -2.13408 6.19788 0
M  V30 5545 H 496.309 -3.34009 4.98195 0
M  V30 5546 H 497.988 -3.28536 5.57381 0
M  V30 5547 N 498.12 -1.38341 -0.754957 0
M  V30 5548 C 499.35 -1.37504 -1.54195 0
M  V30 5549 C 499.758 0.0373787 -1.89163 0
M  V30 5550 O 499.101 1.01402 -1.53178 0
M  V30 5551 C 499.163 -2.16488 -2.87008 0
M  V30 5552 C 498.827 -3.65311 -2.74585 0
M  V30 5553 C 499.824 -4.58834 -2.44474 0
M  V30 5554 C 497.509 -4.08649 -2.9208 0
M  V30 5555 C 499.503 -5.93675 -2.32011 0
M  V30 5556 C 497.19 -5.43571 -2.79237 0
M  V30 5557 C 498.188 -6.35898 -2.49245 0
M  V30 5558 O 497.876 -7.68338 -2.36458 0
M  V30 5559 H 497.608 -0.472159 -0.483779 0
M  V30 5560 H 500.162 -1.82515 -0.94221 0
M  V30 5561 H 498.392 -1.66194 -3.49166 0
M  V30 5562 H 500.081 -2.08076 -3.4851 0
M  V30 5563 H 500.847 -4.26657 -2.30627 0
M  V30 5564 H 496.726 -3.37134 -3.14422 0
M  V30 5565 H 500.27 -6.65706 -2.08522 0
M  V30 5566 H 496.167 -5.75345 -2.92657 0
M  V30 5567 H 496.935 -7.78845 -2.5168 0
M  V30 5568 N 499.598 0.982988 -1.23187 0
M  V30 5569 C 500.823 1.76455 -1.08988 0
M  V30 5570 C 501.248 1.84726 0.354691 0
M  V30 5571 O 500.606 1.30699 1.25649 0
M  V30 5572 C 500.654 3.17094 -1.71708 0
M  V30 5573 O 499.758 4.00648 -0.977477 0
M  V30 5574 H 499.099 0.542988 -0.382177 0
M  V30 5575 H 501.629 1.23413 -1.63188 0
M  V30 5576 H 501.639 3.67684 -1.76841 0
M  V30 5577 H 500.314 3.10389 -2.76823 0
M  V30 5578 H 498.891 3.59161 -1.0029 0
M  V30 5579 N 501.076 1.04316 1.18135 0
M  V30 5580 C 502.039 0.640794 2.2006 0
M  V30 5581 C 503.039 -0.303124 1.57917 0
M  V30 5582 O 504.229 -0.0881855 1.73977 0
M  V30 5583 C 501.361 -0.060148 3.40847 0
M  V30 5584 H 502.554 1.54281 2.57172 0
M  V30 5585 H 500.107 0.836004 1.32063 0
M  V30 5586 H 500.842 -0.975845 3.0927 0
M  V30 5587 H 500.627 0.618319 3.87194 0
M  V30 5588 H 502.117 -0.328082 4.16309 0
M  V30 5589 N 502.554 -1.34406 0.822964 0
M  V30 5590 C 503.831 -1.92733 0.333641 0
M  V30 5591 C 504.211 -1.75107 -1.17901 0
M  V30 5592 O 503.559 -1.12983 -1.98613 0
M  V30 5593 C 503.769 -3.40557 0.763023 0
M  V30 5594 C 505.117 -4.17709 0.761879 0
M  V30 5595 O 506.141 -3.49141 0.705606 0
M  V30 5596 O 505 -5.40082 0.835109 0
M  V30 5597 H 502.094 -0.821964 0.0911249 0
M  V30 5598 H 504.64 -1.4338 0.907757 0
M  V30 5599 H 503.412 -3.47187 1.8049 0
M  V30 5600 H 503.035 -3.97259 0.164605 0
M  V30 5601 N 504.032 -0.577932 -1.46621 0
M  V30 5602 C 505.26 -0.0671642 -2.06791 0
M  V30 5603 C 505.675 1.23571 -1.42743 0
M  V30 5604 O 505.032 1.74602 -0.531062 0
M  V30 5605 C 505.083 0.110357 -3.61332 0
M  V30 5606 O 504.804 -1.14095 -4.22982 0
M  V30 5607 C 506.305 0.656025 -4.38419 0
M  V30 5608 H 503.525 -0.0552732 -0.66872 0
M  V30 5609 H 506.069 -0.797242 -1.8832 0
M  V30 5610 H 504.224 0.790637 -3.79246 0
M  V30 5611 H 504.638 -0.951742 -5.15793 0
M  V30 5612 H 506.112 0.729438 -5.47159 0
M  V30 5613 H 506.589 1.67195 -4.06131 0
M  V30 5614 H 507.195 0.0107692 -4.25299 0
M  V30 5615 N 505.51 1.54411 -0.315457 0
M  V30 5616 C 506.921 1.85885 0.174265 0
M  V30 5617 C 507.272 1.23723 1.52273 0
M  V30 5618 O 506.397 0.540246 2.09548 0
M  V30 5619 C 506.992 3.37257 0.322981 0
M  V30 5620 C 505.551 3.68711 0.756922 0
M  V30 5621 C 504.698 2.77013 -0.126195 0
M  V30 5622 H 507.649 1.49374 -0.536007 0
M  V30 5623 H 507.67 3.62539 1.15522 0
M  V30 5624 H 507.182 3.82471 -0.658602 0
M  V30 5625 H 505.283 3.29024 1.74854 0
M  V30 5626 H 505.396 4.75741 0.566291 0
M  V30 5627 H 503.76 2.51588 0.39692 0
M  V30 5628 H 504.543 3.25051 -1.1044 0
M  V30 5629 N 506.988 0.0434614 1.5754 0
M  V30 5630 C 508.213 -0.645358 1.97104 0
M  V30 5631 C 508.638 -1.64037 0.920521 0
M  V30 5632 O 507.996 -1.80922 -0.11708 0
M  V30 5633 C 508.044 -1.31547 3.35749 0
M  V30 5634 O 507.148 -2.43103 3.33129 0
M  V30 5635 H 506.489 -0.168403 0.64229 0
M  V30 5636 H 509.019 0.109573 2.04306 0
M  V30 5637 H 509.029 -1.66895 3.72304 0
M  V30 5638 H 507.704 -0.586205 4.11748 0
M  V30 5639 H 506.281 -2.0976 3.0831 0
M  V30 5640 N 508.466 -1.55915 -0.229846 0
M  V30 5641 C 509.691 -1.8296 -0.976743 0
M  V30 5642 C 510.116 -0.622735 -1.77493 0
M  V30 5643 O 509.474 0.428431 -1.76165 0
M  V30 5644 C 509.522 -3.07916 -1.8767 0
M  V30 5645 O 508.626 -2.86028 -2.97088 0
M  V30 5646 H 507.967 -0.603453 -0.277021 0
M  V30 5647 H 510.497 -2.0312 -0.245669 0
M  V30 5648 H 510.507 -3.37802 -2.2881 0
M  V30 5649 H 509.182 -3.95389 -1.28996 0
M  V30 5650 H 507.759 -2.67355 -2.59954 0
M  V30 5651 N 509.944 0.496216 -1.49584 0
M  V30 5652 C 511.169 1.27865 -1.63295 0
M  V30 5653 C 511.594 1.85592 -0.306156 0
M  V30 5654 O 510.952 1.66092 0.726851 0
M  V30 5655 C 511 2.38128 -2.7079 0
M  V30 5656 O 510.104 3.42108 -2.30296 0
M  V30 5657 H 509.445 0.377279 -0.546403 0
M  V30 5658 H 511.975 0.593497 -1.95803 0
M  V30 5659 H 511.985 2.8382 -2.93104 0
M  V30 5660 H 510.66 1.95479 -3.67098 0
M  V30 5661 H 509.237 3.02301 -2.18331 0
M  V30 5662 N 511.423 1.38739 0.74761 0
M  V30 5663 C 512.653 1.3832 1.53464 0
M  V30 5664 C 513.061 -0.0273464 1.8918 0
M  V30 5665 O 512.404 -1.00588 1.53713 0
M  V30 5666 C 512.466 2.18007 2.85855 0
M  V30 5667 C 512.13 3.66762 2.72644 0
M  V30 5668 C 513.127 4.60124 2.42037 0
M  V30 5669 C 510.812 4.10193 2.89909 0
M  V30 5670 C 512.806 5.94897 2.28859 0
M  V30 5671 C 510.493 5.45045 2.7635 0
M  V30 5672 C 511.491 6.37211 2.45869 0
M  V30 5673 O 511.179 7.69581 2.3238 0
M  V30 5674 H 510.911 0.474718 0.481268 0
M  V30 5675 H 513.465 1.83012 0.932518 0
M  V30 5676 H 511.695 1.68043 3.48279 0
M  V30 5677 H 513.384 2.09921 3.47402 0
M  V30 5678 H 514.15 4.27874 2.28361 0
M  V30 5679 H 510.029 3.38797 3.1263 0
M  V30 5680 H 513.573 6.66802 2.04989 0
M  V30 5681 H 509.47 5.76889 2.89601 0
M  V30 5682 H 510.238 7.80169 2.47546 0
M  V30 5683 N 512.901 -0.976442 1.23707 0
M  V30 5684 C 514.129 -1.75341 1.09833 0
M  V30 5685 C 514.544 -1.8553 -0.349885 0
M  V30 5686 O 513.901 -1.33732 -1.24185 0
M  V30 5687 C 513.952 -3.17833 1.72233 0
M  V30 5688 O 513.673 -3.08167 3.11391 0
M  V30 5689 C 515.174 -4.11906 1.63853 0
M  V30 5690 H 512.394 -0.550137 0.384175 0
M  V30 5691 H 514.938 -1.2265 1.63638 0
M  V30 5692 H 513.093 -3.67538 1.22452 0
M  V30 5693 H 513.507 -3.97897 3.41729 0
M  V30 5694 H 514.981 -5.09579 2.12211 0
M  V30 5695 H 515.458 -4.35109 0.598092 0
M  V30 5696 H 516.064 -3.68107 2.13019 0
M  V30 5697 N 514.379 -1.04941 -1.1758 0
M  V30 5698 C 515.311 -0.606174 -2.21039 0
M  V30 5699 C 516.324 0.328763 -1.59446 0
M  V30 5700 O 517.513 0.121895 -1.78083 0
M  V30 5701 C 514.613 0.133294 -3.38638 0
M  V30 5702 C 513.786 -0.811711 -4.29802 0
M  V30 5703 C 512.845 -0.113958 -5.26077 0
M  V30 5704 O 511.871 -0.747237 -5.64274 0
M  V30 5705 N 513.073 1.14953 -5.69004 0
M  V30 5706 H 515.838 -1.49606 -2.59689 0
M  V30 5707 H 513.399 -0.930997 -1.32454 0
M  V30 5708 H 515.391 0.610144 -4.00074 0
M  V30 5709 H 513.961 0.924816 -2.98607 0
M  V30 5710 H 513.181 -1.46824 -3.65837 0
M  V30 5711 H 514.469 -1.45326 -4.87604 0
M  V30 5712 H 513.867 1.68441 -5.40041 0
M  V30 5713 H 512.424 1.57049 -6.32597 0
M  V30 5714 N 515.857 1.33968 -0.830081 0
M  V30 5715 C 517.082 2.02813 -0.433796 0
M  V30 5716 C 517.507 1.62076 0.954614 0
M  V30 5717 O 516.865 0.808955 1.62252 0
M  V30 5718 C 516.913 3.56348 -0.552115 0
M  V30 5719 O 516.017 4.10202 0.425191 0
M  V30 5720 H 515.358 0.639817 -0.177567 0
M  V30 5721 H 517.888 1.7106 -1.12248 0
M  V30 5722 H 517.898 4.05722 -0.430513 0
M  V30 5723 H 516.573 3.85344 -1.56471 0
M  V30 5724 H 515.15 3.71979 0.261878 0
M  V30 5725 N 517.335 0.585699 1.46312 0
M  V30 5726 C 518.563 0.0781299 2.06752 0
M  V30 5727 C 518.978 -1.22812 1.43396 0
M  V30 5728 O 518.335 -1.74318 0.540314 0
M  V30 5729 C 518.386 -0.0911927 3.61385 0
M  V30 5730 O 518.107 1.16336 4.22371 0
M  V30 5731 C 519.608 -0.632765 4.38761 0
M  V30 5732 H 516.828 0.0588188 0.668417 0
M  V30 5733 H 519.372 0.807218 1.87894 0
M  V30 5734 H 517.527 -0.770514 3.7966 0
M  V30 5735 H 517.941 0.979082 5.15281 0
M  V30 5736 H 519.415 -0.70041 5.47538 0
M  V30 5737 H 519.892 -1.65039 4.07012 0
M  V30 5738 H 520.498 0.0117856 4.25298 0
M  V30 5739 N 518.813 -1.54241 0.323641 0
M  V30 5740 C 519.746 -2.20579 -0.584833 0
M  V30 5741 C 520.724 -1.18286 -1.11567 0
M  V30 5742 O 521.908 -1.47025 -1.17966 0
M  V30 5743 C 519.035 -2.86754 -1.80249 0
M  V30 5744 C 518.081 -4.02767 -1.4029 0
M  V30 5745 S 518.914 -5.33693 -0.439539 0
M  V30 5746 C 520.07 -6.03362 -1.66448 0
M  V30 5747 H 520.303 -2.97292 -0.0213238 0
M  V30 5748 H 517.836 -1.54024 0.107726 0
M  V30 5749 H 519.794 -3.25503 -2.50116 0
M  V30 5750 H 518.455 -2.09844 -2.33719 0
M  V30 5751 H 517.648 -4.47933 -2.31024 0
M  V30 5752 H 517.25 -3.65692 -0.783928 0
M  V30 5753 H 519.542 -6.25546 -2.6019 0
M  V30 5754 H 520.485 -6.9689 -1.25498 0
M  V30 5755 H 520.893 -5.33273 -1.85149 0
M  V30 5756 N 520.291 -0.0518155 -1.57515 0
M  V30 5757 C 521.568 0.661727 -1.84067 0
M  V30 5758 C 521.948 1.88999 -0.940351 0
M  V30 5759 O 521.296 2.285 -0.00155404 0
M  V30 5760 C 521.506 1.01841 -3.3381 0
M  V30 5761 C 522.854 1.40043 -4.00841 0
M  V30 5762 O 523.878 1.11073 -3.38439 0
M  V30 5763 O 522.737 1.94111 -5.10865 0
M  V30 5764 H 519.831 0.326702 -0.759733 0
M  V30 5765 H 522.377 -0.0812277 -1.69505 0
M  V30 5766 H 521.149 0.145202 -3.91031 0
M  V30 5767 H 520.772 1.81879 -3.53562 0
M  V30 5768 N 521.769 1.56035 0.221574 0
M  V30 5769 C 522.719 1.8881 1.27807 0
M  V30 5770 C 523.703 0.751177 1.42289 0
M  V30 5771 O 524.895 1.01359 1.45104 0
M  V30 5772 C 522.024 2.20828 2.6285 0
M  V30 5773 C 521.11 3.40912 2.52269 0
M  V30 5774 N 521.501 4.59531 2.1134 0
M  V30 5775 C 519.799 3.44526 2.83228 0
M  V30 5776 C 520.5 5.41689 2.1201 0
M  V30 5777 N 519.476 4.814 2.52497 0
M  V30 5778 H 523.278 2.78036 0.952529 0
M  V30 5779 H 520.792 1.566 0.430134 0
M  V30 5780 H 522.789 2.42483 3.39127 0
M  V30 5781 H 521.449 1.32914 2.9625 0
M  V30 5782 H 522.46 4.8469 1.82472 0
M  V30 5783 H 519.137 2.66956 3.21 0
M  V30 5784 H 520.527 6.46643 1.82491 0
M  V30 5785 N 523.247 -0.488276 1.49845 0
M  V30 5786 C 524.524 -1.24959 1.50481 0
M  V30 5787 C 524.904 -2.09735 0.239698 0
M  V30 5788 O 524.252 -2.14865 -0.777524 0
M  V30 5789 C 524.462 -2.0954 2.79095 0
M  V30 5790 C 525.81 -2.68305 3.29086 0
M  V30 5791 O 526.834 -2.19797 2.80299 0
M  V30 5792 O 525.693 -3.56643 4.14087 0
M  V30 5793 H 522.787 -0.566133 0.602845 0
M  V30 5794 H 525.333 -0.501504 1.6212 0
M  V30 5795 H 524.105 -1.46958 3.62656 0
M  V30 5796 H 523.728 -2.91517 2.70377 0
M  V30 5797 N 524.725 -1.39134 -0.740242 0
M  V30 5798 C 525.655 -1.40165 -1.86751 0
M  V30 5799 C 526.636 -0.265708 -1.68012 0
M  V30 5800 O 527.821 -0.47076 -1.88408 0
M  V30 5801 C 524.951 -1.2392 -3.2444 0
M  V30 5802 C 523.905 -2.34858 -3.57807 0
M  V30 5803 C 523.231 -2.03707 -4.94376 0
M  V30 5804 C 524.531 -3.77159 -3.61315 0
M  V30 5805 H 526.225 -2.345 -1.86145 0
M  V30 5806 H 523.771 -1.12875 -0.89416 0
M  V30 5807 H 525.724 -1.23263 -4.02969 0
M  V30 5808 H 524.448 -0.26051 -3.25559 0
M  V30 5809 H 523.107 -2.34723 -2.81604 0
M  V30 5810 H 522.755 -1.04289 -4.9207 0
M  V30 5811 H 522.455 -2.78016 -5.17669 0
M  V30 5812 H 523.979 -2.04691 -5.75268 0
M  V30 5813 H 525.393 -3.79252 -4.29931 0
M  V30 5814 H 523.79 -4.50784 -3.96124 0
M  V30 5815 H 524.86 -4.08513 -2.61238 0
M  V30 5816 N 526.204 0.969867 -1.24223 0
M  V30 5817 C 527.154 2.04913 -0.999732 0
M  V30 5818 C 528.138 1.60795 0.0580636 0
M  V30 5819 O 529.33 1.76317 -0.155392 0
M  V30 5820 C 526.459 3.37942 -0.604154 0
M  V30 5821 C 525.545 3.88628 -1.69791 0
M  V30 5822 N 525.936 4.12274 -2.93025 0
M  V30 5823 C 524.234 4.17268 -1.57492 0
M  V30 5824 C 524.935 4.53808 -3.63914 0
M  V30 5825 N 523.911 4.58855 -2.91468 0
M  V30 5826 H 527.713 2.21168 -1.93551 0
M  V30 5827 H 525.227 1.15349 -1.14317 0
M  V30 5828 H 527.224 4.14863 -0.411665 0
M  V30 5829 H 525.884 3.23075 0.324465 0
M  V30 5830 H 526.895 3.99789 -3.29225 0
M  V30 5831 H 523.572 4.11346 -0.714175 0
M  V30 5832 H 524.962 4.80534 -4.69614 0
M  V30 5833 N 527.682 1.05563 1.17022 0
M  V30 5834 C 528.959 0.68165 1.83338 0
M  V30 5835 C 529.339 -0.837665 1.93769 0
M  V30 5836 O 528.687 -1.74507 1.47511 0
M  V30 5837 C 528.897 1.375 3.20772 0
M  V30 5838 C 530.245 1.51545 3.96635 0
M  V30 5839 O 531.269 1.33431 3.30264 0
M  V30 5840 O 530.128 1.812 5.15586 0
M  V30 5841 H 527.222 0.240412 0.791285 0
M  V30 5842 H 529.768 1.15545 1.24288 0
M  V30 5843 H 528.54 2.41135 3.08171 0
M  V30 5844 H 528.163 0.890798 3.87493 0
M  V30 5845 N 529.16 -1.33526 0.837174 0
M  V30 5846 C 530.123 -2.27551 0.274421 0
M  V30 5847 C 531.123 -1.50886 -0.555881 0
M  V30 5848 O 532.313 -1.70227 -0.369918 0
M  V30 5849 C 529.445 -3.35332 -0.613605 0
M  V30 5850 H 530.638 -2.78837 1.10408 0
M  V30 5851 H 528.191 -1.439 0.610126 0
M  V30 5852 H 528.926 -2.89285 -1.46577 0
M  V30 5853 H 528.711 -3.92095 -0.0195341 0
M  V30 5854 H 530.201 -4.05433 -1.00068 0
M  V30 5855 N 530.638 -0.59345 -1.46 0
M  V30 5856 C 531.568 0.121192 -2.33185 0
M  V30 5857 C 532.549 0.872977 -1.4599 0
M  V30 5858 O 533.734 0.846321 -1.74789 0
M  V30 5859 C 530.864 1.12844 -3.28456 0
M  V30 5860 C 529.818 0.4908 -4.25177 0
M  V30 5861 C 529.144 1.60529 -5.10034 0
M  V30 5862 C 530.444 -0.578949 -5.19081 0
M  V30 5863 H 532.138 -0.606767 -2.93187 0
M  V30 5864 H 529.684 -0.293242 -1.40983 0
M  V30 5865 H 531.637 1.63684 -3.88311 0
M  V30 5866 H 530.361 1.88681 -2.66584 0
M  V30 5867 H 529.02 0.00339328 -3.666 0
M  V30 5868 H 528.668 2.35359 -4.44539 0
M  V30 5869 H 528.368 1.18422 -5.75543 0
M  V30 5870 H 529.892 2.11623 -5.72755 0
M  V30 5871 H 531.306 -0.155199 -5.7309 0
M  V30 5872 H 529.703 -0.920947 -5.92991 0
M  V30 5873 H 530.773 -1.46109 -4.62364 0
M  V30 5874 O 532.155 1.54388 -0.473979 0
M  V30 5875 H 532.846 1.93634 0.0506067 0
M  V30 END ATOM
M  V30 BEGIN BOND
M  V30 END BOND
M  V30 END CTAB
M  END
$$$$
