drugbank_target|P51693 Amyloid-like protein 1 (DB01593; DB09130; DB14487; DB14533; DB14548)
 OpenBabel12092121083D

  0  0  0     0  0            999 V3000
M  V30 BEGIN CTAB
M  V30 COUNTS 10029 10144 0 0 0
M  V30 BEGIN ATOM
M  V30 1 H -0.908 1.98254 -0.117106 0
M  V30 2 N 0 1.576 0 0
M  V30 3 C 0.933 2.03868 1.02534 0
M  V30 4 C 1.911 0.928543 1.3348 0
M  V30 5 O 3.095 1.19667 1.45644 0
M  V30 6 C 0.222 2.43627 2.35294 0
M  V30 7 C -0.732 3.65373 2.2001 0
M  V30 8 S 0.101 5.13292 1.52614 0
M  V30 9 C 1.257 5.56322 2.86805 0
M  V30 10 H 1.49 2.90518 0.631377 0
M  V30 11 H -0.977 1.52953 0.210867 0
M  V30 12 H 0.981 2.67203 3.11629 0
M  V30 13 H -0.358 1.57376 2.7183 0
M  V30 14 H -1.165 3.90944 3.18086 0
M  V30 15 H -1.563 3.418 1.51819 0
M  V30 16 H 0.729 5.58782 3.83104 0
M  V30 17 H 1.672 6.56266 2.65933 0
M  V30 18 H 2.08 4.83886 2.90714 0
M  V30 19 N 1.4781 -0.272755 1.55222 0
M  V30 20 C 2.7261 -1.00234 1.75492 0
M  V30 21 C 3.0471 -1.8681 0.5592 0
M  V30 22 O 2.3171 -1.91215 -0.425882 0
M  V30 23 H 0.8971 -0.373076 0.647166 0
M  V30 24 H 3.5591 -0.296926 1.92625 0
M  V30 25 H 2.6551 -1.63913 2.65592 0
M  V30 26 N 2.9562 -1.48159 -0.537278 0
M  V30 27 C 4.3672 -1.49429 -1.11928 0
M  V30 28 C 4.7182 -0.26 -1.9447 0
M  V30 29 O 3.8432 0.633489 -2.0692 0
M  V30 30 C 4.4382 -2.70758 -2.03656 0
M  V30 31 C 2.9972 -2.74923 -2.57088 0
M  V30 32 C 2.1442 -2.42835 -1.3389 0
M  V30 33 H 5.0952 -1.55381 -0.322886 0
M  V30 34 H 5.1162 -2.48861 -2.87834 0
M  V30 35 H 4.6282 -3.60575 -1.43553 0
M  V30 36 H 2.7292 -1.89296 -3.20933 0
M  V30 37 H 2.8422 -3.76157 -2.9672 0
M  V30 38 H 1.2062 -1.93836 -1.65226 0
M  V30 39 H 1.9892 -3.34884 -0.755504 0
M  V30 40 N 4.4343 0.785586 -1.36625 0
M  V30 41 C 5.3973 1.87999 -1.31107 0
M  V30 42 C 6.3973 1.59316 -0.217959 0
M  V30 43 O 7.5873 1.67656 -0.472977 0
M  V30 44 C 4.7193 3.24861 -1.03334 0
M  V30 45 H 5.9123 1.94307 -2.2844 0
M  V30 46 H 3.4653 0.983813 -1.21453 0
M  V30 47 H 4.2003 3.24235 -0.0647432 0
M  V30 48 H 3.9853 3.4707 -1.82441 0
M  V30 49 H 5.4753 4.04929 -1.02088 0
M  V30 50 N 5.9124 1.20967 1.01018 0
M  V30 51 C 7.1374 1.0503 1.78839 0
M  V30 52 C 7.5624 -0.395752 1.8389 0
M  V30 53 O 6.9204 -1.28529 1.27867 0
M  V30 54 C 6.9684 1.64602 3.2084 0
M  V30 55 O 6.0724 0.887988 4.02726 0
M  V30 56 H 5.4134 0.369987 0.551367 0
M  V30 57 H 7.9434 1.60399 1.27018 0
M  V30 58 H 7.9534 1.68607 3.71532 0
M  V30 59 H 6.6284 2.69841 3.16479 0
M  V30 60 H 5.2054 0.922648 3.61305 0
M  V30 61 N 7.3905 -1.2043 1.01659 0
M  V30 62 C 8.8015 -1.71517 0.737482 0
M  V30 63 C 9.1525 -1.81547 -0.743973 0
M  V30 64 O 8.2775 -1.47803 -1.58061 0
M  V30 65 C 8.8725 -3.11515 1.33206 0
M  V30 66 C 7.4315 -3.59912 1.10183 0
M  V30 67 C 6.5785 -2.37116 1.43776 0
M  V30 68 H 9.5295 -1.05444 1.18606 0
M  V30 69 H 9.5505 -3.73575 0.722636 0
M  V30 70 H 9.0625 -3.04182 2.41028 0
M  V30 71 H 7.1635 -3.72577 0.0412756 0
M  V30 72 H 7.2765 -4.44731 1.78188 0
M  V30 73 H 5.6405 -2.39857 0.856778 0
M  V30 74 H 6.4235 -2.32424 2.52654 0
M  V30 75 N 8.8686 -0.792821 -1.36206 0
M  V30 76 C 9.8316 -0.199459 -2.2833 0
M  V30 77 C 10.8316 0.605189 -1.48977 0
M  V30 78 O 12.0216 0.425685 -1.68919 0
M  V30 79 C 9.1536 0.723523 -3.33134 0
M  V30 80 H 10.3466 -1.01181 -2.82316 0
M  V30 81 H 7.8996 -0.562485 -1.45828 0
M  V30 82 H 8.6346 1.56008 -2.84309 0
M  V30 83 H 8.4196 0.148436 -3.91819 0
M  V30 84 H 9.9096 1.13344 -4.01924 0
M  V30 85 N 10.3467 1.47872 -0.545128 0
M  V30 86 C 11.3097 2.28337 0.198717 0
M  V30 87 C 12.3097 1.36255 0.853888 0
M  V30 88 O 13.4997 1.59003 0.711606 0
M  V30 89 C 10.6317 3.15585 1.28915 0
M  V30 90 H 11.8247 2.95567 -0.507941 0
M  V30 91 H 9.3777 1.53362 -0.301616 0
M  V30 92 H 10.1127 2.53019 2.02859 0
M  V30 93 H 9.8977 3.83337 0.824309 0
M  V30 94 H 11.3877 3.76243 1.81194 0
M  V30 95 N 11.8248 0.280983 1.55075 0
M  V30 96 C 13.2408 -0.0729964 1.59433 0
M  V30 97 C 13.4408 -1.5411 1.29817 0
M  V30 98 O 12.4968 -2.29086 1.06187 0
M  V30 99 C 13.8098 0.306921 2.9913 0
M  V30 100 C 15.3578 0.254023 3.11968 0
M  V30 101 C 15.8328 0.608467 4.5394 0
M  V30 102 N 17.3238 0.560241 4.59799 0
M  V30 103 C 18.0588 0.80722 5.6769 0
M  V30 104 N 17.5548 1.11912 6.83701 0
M  V30 105 N 19.3478 0.735623 5.57266 0
M  V30 106 H 11.4988 1.238 1.7259 0
M  V30 107 H 13.7618 0.500547 0.805082 0
M  V30 108 H 13.4678 1.32816 3.25657 0
M  V30 109 H 13.3418 -0.349363 3.75579 0
M  V30 110 H 15.7288 -0.75794 2.852 0
M  V30 111 H 15.8098 0.944649 2.37718 0
M  V30 112 H 15.4538 1.61814 4.81434 0
M  V30 113 H 15.3838 -0.104013 5.26497 0
M  V30 114 H 17.8748 0.329288 3.76463 0
M  V30 115 H 18.1878 1.29409 7.61888 0
M  V30 116 H 16.5328 1.15695 6.85303 0
M  V30 117 H 19.7238 0.491752 4.6551 0
M  V30 118 H 19.8968 0.931482 6.4127 0
M  V30 119 N 13.3029 -1.57598 0.00835791 0
M  V30 120 C 14.5509 -1.90551 -0.6734 0
M  V30 121 C 14.8719 -0.883301 -1.73847 0
M  V30 122 O 14.1419 0.0781442 -1.95744 0
M  V30 123 H 12.7219 -0.703312 -0.251717 0
M  V30 124 H 15.3839 -1.94833 0.0512592 0
M  V30 125 H 14.4799 -2.9056 -1.13935 0
M  V30 126 N 14.781 0.264519 -1.55364 0
M  V30 127 C 15.711 1.33121 -1.91836 0
M  V30 128 C 16.692 1.51101 -0.781192 0
M  V30 129 O 17.877 1.64003 -1.04003 0
M  V30 130 C 15.007 2.68921 -2.19769 0
M  V30 131 C 13.961 2.65661 -3.35571 0
M  V30 132 C 13.287 4.05093 -3.49004 0
M  V30 133 C 14.587 2.24187 -4.71739 0
M  V30 134 H 16.281 1.02844 -2.81182 0
M  V30 135 H 13.827 0.493286 -1.35287 0
M  V30 136 H 15.78 3.43663 -2.43872 0
M  V30 137 H 14.504 3.00799 -1.27231 0
M  V30 138 H 13.163 1.93377 -3.1145 0
M  V30 139 H 12.811 4.34206 -2.53917 0
M  V30 140 H 12.511 4.03804 -4.26868 0
M  V30 141 H 14.035 4.81561 -3.75408 0
M  V30 142 H 15.449 2.88654 -4.9533 0
M  V30 143 H 13.846 2.34044 -5.52579 0
M  V30 144 H 14.916 1.19327 -4.69988 0
M  V30 145 N 16.2591 1.48442 0.529413 0
M  V30 146 C 17.4841 1.60406 1.31471 0
M  V30 147 C 17.9091 0.264738 1.86228 0
M  V30 148 O 17.2671 -0.763668 1.64432 0
M  V30 149 C 17.3151 2.65419 2.44101 0
M  V30 150 O 16.4191 2.22618 3.47153 0
M  V30 151 H 15.7601 0.537863 0.389357 0
M  V30 152 H 18.2901 1.94432 0.636965 0
M  V30 153 H 18.3001 2.86709 2.90279 0
M  V30 154 H 16.9751 3.62652 2.03608 0
M  V30 155 H 15.5521 2.11543 3.0709 0
M  V30 156 N 17.7372 -0.778329 1.37039 0
M  V30 157 C 19.1532 -1.07796 1.17695 0
M  V30 158 C 19.3532 -2.01498 0.00860115 0
M  V30 159 O 18.4092 -2.43901 -0.653352 0
M  V30 160 C 19.7222 -1.68178 2.49272 0
M  V30 161 C 21.2702 -1.80467 2.55735 0
M  V30 162 C 21.7452 -2.44263 3.87427 0
M  V30 163 N 23.2362 -2.51721 3.88833 0
M  V30 164 C 23.9712 -3.01919 4.87476 0
M  V30 165 N 23.4672 -3.5234 5.96513 0
M  V30 166 N 25.2602 -3.00733 4.74885 0
M  V30 167 H 17.4112 -0.156032 2.11826 0
M  V30 168 H 19.6742 -0.131844 0.938787 0
M  V30 169 H 19.3802 -1.06796 3.35093 0
M  V30 170 H 19.2542 -2.67554 2.65885 0
M  V30 171 H 21.6412 -2.40984 1.70325 0
M  V30 172 H 21.7222 -0.798656 2.43013 0
M  V30 173 H 21.3662 -1.84388 4.73248 0
M  V30 174 H 21.2962 -3.45458 3.9745 0
M  V30 175 H 23.7872 -2.1603 3.10063 0
M  V30 176 H 24.1002 -3.89027 6.67741 0
M  V30 177 H 22.4452 -3.50462 6.00168 0
M  V30 178 H 25.6362 -2.60638 3.88826 0
M  V30 179 H 25.8092 -3.39545 5.51918 0
M  V30 180 N 19.2153 -1.21501 -1.00376 0
M  V30 181 C 20.6313 -0.972629 -1.26539 0
M  V30 182 C 20.8313 0.340257 -1.98606 0
M  V30 183 O 19.8873 1.06561 -2.28913 0
M  V30 184 C 21.2003 -2.16404 -2.08781 0
M  V30 185 C 22.7483 -2.20643 -2.22004 0
M  V30 186 C 23.2233 -3.39306 -3.07629 0
M  V30 187 N 24.7143 -3.39401 -3.15217 0
M  V30 188 C 25.4493 -4.27867 -3.81729 0
M  V30 189 N 24.9453 -5.26533 -4.5026 0
M  V30 190 N 26.7383 -4.15672 -3.78382 0
M  V30 191 H 18.8893 -2.05929 -0.520281 0
M  V30 192 H 21.1523 -0.901803 -0.292328 0
M  V30 193 H 20.8583 -3.11554 -1.63178 0
M  V30 194 H 20.7323 -2.15567 -3.09533 0
M  V30 195 H 23.1193 -1.26048 -2.66825 0
M  V30 196 H 23.2003 -2.25523 -1.20718 0
M  V30 197 H 22.8443 -4.34195 -2.63509 0
M  V30 198 H 22.7743 -3.31665 -4.09031 0
M  V30 199 H 25.2653 -2.67997 -2.66432 0
M  V30 200 H 25.5783 -5.90337 -4.98721 0
M  V30 201 H 23.9233 -5.30457 -4.49044 0
M  V30 202 H 27.1143 -3.3785 -3.23998 0
M  V30 203 H 27.2873 -4.84825 -4.2994 0
M  V30 204 N 20.6934 1.19889 -1.02296 0
M  V30 205 C 22.1044 1.71124 -0.746568 0
M  V30 206 C 22.4554 1.81939 0.734335 0
M  V30 207 O 21.5804 1.48639 1.57275 0
M  V30 208 C 22.1754 3.10804 -1.34857 0
M  V30 209 C 20.7344 3.59323 -1.1209 0
M  V30 210 C 19.8814 2.3635 -1.45031 0
M  V30 211 H 22.8324 1.04813 -1.19163 0
M  V30 212 H 22.8534 3.73186 -0.742437 0
M  V30 213 H 22.3654 3.029 -2.42638 0
M  V30 214 H 20.4664 3.7255 -0.0610337 0
M  V30 215 H 20.5794 4.4378 -1.80544 0
M  V30 216 H 18.9434 2.39399 -0.869487 0
M  V30 217 H 19.7264 2.31081 -2.53883 0
M  V30 218 N 22.1715 0.800033 1.35784 0
M  V30 219 C 23.4195 0.376597 1.9856 0
M  V30 220 C 23.7405 -1.05812 1.63795 0
M  V30 221 O 23.0105 -1.73103 0.917171 0
M  V30 222 H 21.5905 0.136261 0.734467 0
M  V30 223 H 24.2525 1.02442 1.65806 0
M  V30 224 H 23.3485 0.477002 3.08433 0
M  V30 225 N 23.6496 -1.47581 0.552962 0
M  V30 226 C 24.5816 -2.27997 -0.234533 0
M  V30 227 C 25.5946 -1.36753 -0.883321 0
M  V30 228 O 26.7836 -1.61612 -0.757889 0
M  V30 229 C 23.8836 -3.10879 -1.34935 0
M  V30 230 C 23.0566 -4.30056 -0.798158 0
M  V30 231 C 22.1156 -4.94567 -1.79694 0
M  V30 232 O 21.1416 -5.53087 -1.34474 0
M  V30 233 N 22.3436 -4.88878 -3.13015 0
M  V30 234 H 25.1086 -2.96222 0.455255 0
M  V30 235 H 22.6696 -1.57163 0.388761 0
M  V30 236 H 24.6616 -3.50903 -2.01616 0
M  V30 237 H 23.2316 -2.44924 -1.94244 0
M  V30 238 H 22.4516 -3.94174 0.0453079 0
M  V30 239 H 23.7396 -5.07152 -0.409173 0
M  V30 240 H 23.1376 -4.42526 -3.52402 0
M  V30 241 H 21.6946 -5.32934 -3.75266 0
M  V30 242 N 25.1277 -0.289203 -1.54924 0
M  V30 243 C 26.5387 0.205791 -1.85562 0
M  V30 244 C 26.8897 1.54351 -1.2112 0
M  V30 245 O 26.0147 2.10435 -0.504601 0
M  V30 246 C 26.6097 0.380177 -3.3666 0
M  V30 247 C 25.1687 0.819395 -3.67373 0
M  V30 248 C 24.3157 -0.079159 -2.77187 0
M  V30 249 H 27.2667 -0.510577 -1.50262 0
M  V30 250 H 27.2877 1.21659 -3.60526 0
M  V30 251 H 26.7997 -0.593589 -3.83534 0
M  V30 252 H 24.9007 1.80413 -3.26009 0
M  V30 253 H 25.0137 0.646957 -4.74712 0
M  V30 254 H 23.3777 0.439565 -2.50878 0
M  V30 255 H 24.1607 -1.04906 -3.26878 0
M  V30 256 N 26.6058 1.57591 -0.0167156 0
M  V30 257 C 28.0168 1.79201 0.523834 0
M  V30 258 C 28.3678 0.925796 1.72984 0
M  V30 259 O 27.4928 0.132792 2.15992 0
M  V30 260 C 28.0878 3.25 0.957091 0
M  V30 261 C 26.6468 3.47648 1.44283 0
M  V30 262 C 25.7938 2.74374 0.401757 0
M  V30 263 H 28.7448 1.56831 -0.242816 0
M  V30 264 H 28.7658 3.34031 1.82219 0
M  V30 265 H 28.2778 3.88019 0.0791415 0
M  V30 266 H 26.3788 2.89866 2.34113 0
M  V30 267 H 26.4918 4.56352 1.45877 0
M  V30 268 H 24.8558 2.39485 0.867121 0
M  V30 269 H 25.6388 3.40102 -0.467513 0
M  V30 270 N 28.0839 -0.256276 1.55502 0
M  V30 271 C 29.0139 -1.32102 1.92539 0
M  V30 272 C 29.9949 -1.50684 0.789194 0
M  V30 273 O 31.1799 -1.63449 1.04872 0
M  V30 274 C 28.3099 -2.67752 2.21192 0
M  V30 275 C 27.2639 -2.63878 3.36975 0
M  V30 276 C 26.5899 -4.03236 3.51147 0
M  V30 277 C 27.8899 -2.21682 4.72921 0
M  V30 278 H 29.5839 -1.01351 2.81724 0
M  V30 279 H 27.1299 -0.486105 1.35547 0
M  V30 280 H 29.0829 -3.42365 2.45691 0
M  V30 281 H 27.8069 -3.0012 1.28824 0
M  V30 282 H 26.4659 -1.91722 3.12471 0
M  V30 283 H 26.1139 -4.32854 2.56216 0
M  V30 284 H 25.8139 -4.01535 4.29003 0
M  V30 285 H 27.3379 -4.79563 3.77957 0
M  V30 286 H 28.7519 -2.86023 4.96854 0
M  V30 287 H 27.1489 -2.3111 5.53812 0
M  V30 288 H 28.2189 -1.16833 4.70615 0
M  V30 289 N 29.562 -1.4872 -0.521534 0
M  V30 290 C 30.973 -1.50607 -1.10337 0
M  V30 291 C 31.324 -0.280612 -1.94183 0
M  V30 292 O 30.449 0.611507 -2.0758 0
M  V30 293 C 31.044 -2.72903 -2.00772 0
M  V30 294 C 29.603 -2.77634 -2.54158 0
M  V30 295 C 28.75 -2.44241 -1.31307 0
M  V30 296 H 31.701 -1.55714 -0.306388 0
M  V30 297 H 31.722 -2.519 -2.85178 0
M  V30 298 H 31.234 -3.62077 -1.39721 0
M  V30 299 H 29.335 -1.92689 -3.18907 0
M  V30 300 H 29.448 -3.79283 -2.92714 0
M  V30 301 H 27.812 -1.95577 -1.63161 0
M  V30 302 H 28.595 -3.35666 -0.719943 0
M  V30 303 N 31.0401 0.771051 -1.3745 0
M  V30 304 C 31.9701 1.89827 -1.3597 0
M  V30 305 C 32.9511 1.68562 -0.228216 0
M  V30 306 O 34.1361 1.8941 -0.428675 0
M  V30 307 C 31.2661 3.2712 -1.16662 0
M  V30 308 C 30.2201 3.6295 -2.2683 0
M  V30 309 C 29.5461 4.98791 -1.92644 0
M  V30 310 C 30.8461 3.69627 -3.69017 0
M  V30 311 H 32.5401 1.91323 -2.30295 0
M  V30 312 H 30.0861 0.919082 -1.10855 0
M  V30 313 H 32.0391 4.05615 -1.14256 0
M  V30 314 H 30.7631 3.26059 -0.187926 0
M  V30 315 H 29.4221 2.86763 -2.28392 0
M  V30 316 H 29.0701 4.94271 -0.933021 0
M  V30 317 H 28.7701 5.23733 -2.66416 0
M  V30 318 H 30.2941 5.79685 -1.91826 0
M  V30 319 H 31.7081 4.38273 -3.69581 0
M  V30 320 H 30.1051 4.06067 -4.41848 0
M  V30 321 H 31.1751 2.70273 -4.02592 0
M  V30 322 N 32.5182 1.22032 0.997298 0
M  V30 323 C 33.4482 1.01065 2.10495 0
M  V30 324 C 34.4292 -0.0669542 1.69968 0
M  V30 325 O 35.6142 0.0943987 1.9397 0
M  V30 326 C 32.7442 0.582874 3.42374 0
M  V30 327 C 31.6982 1.60592 3.96729 0
M  V30 328 C 31.0242 1.03412 5.24605 0
M  V30 329 C 32.3242 2.99478 4.27914 0
M  V30 330 H 34.0182 1.93708 2.28292 0
M  V30 331 H 31.5642 0.932761 1.09707 0
M  V30 332 H 33.5172 0.423332 4.19268 0
M  V30 333 H 32.2412 -0.379213 3.24391 0
M  V30 334 H 30.9002 1.75316 3.21963 0
M  V30 335 H 30.5482 0.063518 5.0296 0
M  V30 336 H 30.2482 1.71754 5.61938 0
M  V30 337 H 31.7722 0.886066 6.04137 0
M  V30 338 H 33.1862 2.88153 4.95622 0
M  V30 339 H 31.5832 3.64903 4.76409 0
M  V30 340 H 32.6532 3.49742 3.3587 0
M  V30 341 N 33.9963 -1.19345 1.0293 0
M  V30 342 C 34.9263 -2.2481 0.631105 0
M  V30 343 C 35.9073 -1.66245 -0.360104 0
M  V30 344 O 37.0923 -1.92677 -0.242726 0
M  V30 345 C 34.2223 -3.47295 -0.0184607 0
M  V30 346 C 33.1763 -4.18536 0.895073 0
M  V30 347 C 32.5023 -5.34586 0.110592 0
M  V30 348 C 33.8023 -4.73287 2.209 0
M  V30 349 H 35.4963 -2.58372 1.51275 0
M  V30 350 H 33.0423 -1.24194 0.728818 0
M  V30 351 H 34.9953 -4.20268 -0.308675 0
M  V30 352 H 33.7193 -3.12933 -0.934907 0
M  V30 353 H 32.3783 -3.47446 1.16949 0
M  V30 354 H 32.0263 -4.96469 -0.807902 0
M  V30 355 H 31.7263 -5.83183 0.719087 0
M  V30 356 H 33.2503 -6.10355 -0.172871 0
M  V30 357 H 34.6643 -5.38013 1.98028 0
M  V30 358 H 33.0613 -5.32373 2.76946 0
M  V30 359 H 34.1313 -3.91331 2.86336 0
M  V30 360 N 35.4744 -0.807222 -1.35358 0
M  V30 361 C 36.8854 -0.44876 -1.81226 0
M  V30 362 C 37.2364 1.02929 -1.67033 0
M  V30 363 O 36.3614 1.79991 -1.20133 0
M  V30 364 C 36.9564 -0.807774 -3.2903 0
M  V30 365 C 35.5154 -0.501901 -3.73039 0
M  V30 366 C 34.6624 -1.03304 -2.57339 0
M  V30 367 H 37.6134 -0.998808 -1.23327 0
M  V30 368 H 37.6344 -0.10554 -3.80354 0
M  V30 369 H 37.1464 -1.88357 -3.39328 0
M  V30 370 H 35.2474 0.565128 -3.68289 0
M  V30 371 H 35.3604 -1.03497 -4.67787 0
M  V30 372 H 33.7244 -0.455339 -2.50597 0
M  V30 373 H 34.5074 -2.11496 -2.70415 0
M  V30 374 N 36.9525 1.47285 -0.560781 0
M  V30 375 C 37.8825 2.32857 0.173105 0
M  V30 376 C 38.8635 1.44009 0.905281 0
M  V30 377 O 40.0485 1.7286 0.885046 0
M  V30 378 C 37.1785 3.25861 1.20133 0
M  V30 379 C 36.1325 4.23978 0.585388 0
M  V30 380 C 35.4585 5.06332 1.7185 0
M  V30 381 C 36.7585 5.20242 -0.463178 0
M  V30 382 H 38.4525 2.94466 -0.541307 0
M  V30 383 H 35.9985 1.41601 -0.261764 0
M  V30 384 H 37.9515 3.84569 1.72293 0
M  V30 385 H 36.6755 2.62315 1.94573 0
M  V30 386 H 35.3345 3.66501 0.085054 0
M  V30 387 H 34.9825 4.39186 2.45203 0
M  V30 388 H 34.6825 5.72762 1.31213 0
M  V30 389 H 36.2065 5.67899 2.24329 0
M  V30 390 H 37.6205 5.73293 -0.027502 0
M  V30 391 H 36.0175 5.94896 -0.788627 0
M  V30 392 H 37.0875 4.65504 -1.35773 0
M  V30 393 N 38.4306 0.297415 1.54768 0
M  V30 394 C 39.3606 -0.573494 2.26348 0
M  V30 395 C 40.3416 -1.14085 1.26169 0
M  V30 396 O 41.5266 -1.17086 1.54934 0
M  V30 397 C 38.6566 -1.74716 3.00153 0
M  V30 398 C 37.6106 -1.31032 4.07449 0
M  V30 399 C 36.9366 -2.56887 4.68949 0
M  V30 400 C 38.2366 -0.444183 5.20408 0
M  V30 401 H 39.9306 0.0235131 2.99391 0
M  V30 402 H 37.4766 0.0127488 1.43994 0
M  V30 403 H 39.4296 -2.3625 3.48947 0
M  V30 404 H 38.1536 -2.37035 2.24682 0
M  V30 405 H 36.8126 -0.718066 3.59499 0
M  V30 406 H 36.4606 -3.17512 3.90122 0
M  V30 407 H 36.1606 -2.2836 5.41411 0
M  V30 408 H 37.6846 -3.19229 5.20505 0
M  V30 409 H 39.0986 -0.9651 5.65118 0
M  V30 410 H 37.4956 -0.252846 5.99567 0
M  V30 411 H 38.5656 0.531609 4.81977 0
M  V30 412 N 39.9087 -1.5758 0.0250728 0
M  V30 413 C 40.8387 -2.13007 -0.956575 0
M  V30 414 C 41.8197 -1.0452 -1.342 0
M  V30 415 O 43.0047 -1.32332 -1.42133 0
M  V30 416 C 40.1347 -2.65386 -2.24026 0
M  V30 417 C 39.0887 -3.78623 -1.99571 0
M  V30 418 C 38.4147 -4.17414 -3.3417 0
M  V30 419 C 39.7147 -5.04867 -1.33814 0
M  V30 420 H 41.4087 -2.9528 -0.494991 0
M  V30 421 H 38.9547 -1.42042 -0.236651 0
M  V30 422 H 40.9077 -3.02794 -2.93076 0
M  V30 423 H 39.6317 -1.80268 -2.72343 0
M  V30 424 H 38.2907 -3.41646 -1.32941 0
M  V30 425 H 37.9387 -3.29284 -3.80238 0
M  V30 426 H 37.6387 -4.93719 -3.18615 0
M  V30 427 H 39.1627 -4.57402 -4.04495 0
M  V30 428 H 40.5767 -5.39888 -1.92857 0
M  V30 429 H 38.9737 -5.86144 -1.28669 0
M  V30 430 H 40.0437 -4.83904 -0.310561 0
M  V30 431 N 41.3868 0.248026 -1.55636 0
M  V30 432 C 42.3168 1.31079 -1.93237 0
M  V30 433 C 43.2978 1.50264 -0.797174 0
M  V30 434 O 44.4828 1.62891 -1.05737 0
M  V30 435 C 41.6128 2.66575 -2.22609 0
M  V30 436 C 40.5668 2.62087 -3.3837 0
M  V30 437 C 39.8928 4.01369 -3.53281 0
M  V30 438 C 41.1928 2.19171 -4.7409 0
M  V30 439 H 42.8868 0.998556 -2.82257 0
M  V30 440 H 40.4328 0.47891 -1.35803 0
M  V30 441 H 42.3858 3.41057 -2.47503 0
M  V30 442 H 41.1098 2.99432 -1.30414 0
M  V30 443 H 39.7688 1.90063 -3.13483 0
M  V30 444 H 39.4168 4.31489 -2.58508 0
M  V30 445 H 39.1168 3.99254 -4.31127 0
M  V30 446 H 40.6408 4.77552 -3.80495 0
M  V30 447 H 42.0548 2.83384 -4.98363 0
M  V30 448 H 40.4518 2.2817 -5.5503 0
M  V30 449 H 41.5218 1.14336 -4.71227 0
M  V30 450 N 42.8649 1.48995 0.513639 0
M  V30 451 C 43.7949 1.67636 1.62544 0
M  V30 452 C 44.7759 0.525087 1.61793 0
M  V30 453 O 45.9609 0.759502 1.78732 0
M  V30 454 C 43.0909 1.73114 3.01079 0
M  V30 455 C 42.0449 2.87905 3.16693 0
M  V30 456 C 41.3709 2.78486 4.56453 0
M  V30 457 C 42.6709 4.29005 2.97913 0
M  V30 458 H 44.3649 2.60716 1.47198 0
M  V30 459 H 41.9109 1.25465 0.706714 0
M  V30 460 H 43.8639 1.84742 3.78746 0
M  V30 461 H 42.5879 0.766241 3.17484 0
M  V30 462 H 41.2469 2.75859 2.41448 0
M  V30 463 H 40.8949 1.7993 4.69717 0
M  V30 464 H 40.5949 3.55523 4.67843 0
M  V30 465 H 42.1189 2.92104 5.36197 0
M  V30 466 H 43.5329 4.41798 3.65359 0
M  V30 467 H 41.9299 5.07166 3.20785 0
M  V30 468 H 42.9999 4.44329 1.94165 0
M  V30 469 N 44.343 -0.763751 1.37857 0
M  V30 470 C 45.273 -1.89103 1.36975 0
M  V30 471 C 46.254 -1.68439 0.237152 0
M  V30 472 O 47.439 -1.8918 0.438713 0
M  V30 473 C 44.569 -3.26496 1.18395 0
M  V30 474 C 43.523 -3.61741 2.28751 0
M  V30 475 C 42.849 -4.97762 1.95286 0
M  V30 476 C 44.149 -3.67665 3.70972 0
M  V30 477 H 45.843 -1.90099 2.31307 0
M  V30 478 H 43.389 -0.91319 1.11341 0
M  V30 479 H 45.342 -4.05003 1.16406 0
M  V30 480 H 44.066 -3.25955 0.205215 0
M  V30 481 H 42.725 -2.85547 2.29909 0
M  V30 482 H 42.373 -4.93769 0.959221 0
M  V30 483 H 42.073 -5.22313 2.69189 0
M  V30 484 H 43.597 -5.7866 1.94898 0
M  V30 485 H 45.011 -4.36307 3.719 0
M  V30 486 H 43.408 -4.03718 4.43995 0
M  V30 487 H 44.478 -2.68134 4.0402 0
M  V30 488 N 45.8211 -1.22559 -0.990812 0
M  V30 489 C 47.2371 -0.985996 -1.255 0
M  V30 490 C 47.4371 0.319173 -1.98956 0
M  V30 491 O 46.4931 1.04127 -2.3003 0
M  V30 492 C 47.8061 -2.18607 -2.06474 0
M  V30 493 C 49.3541 -2.22985 -2.19651 0
M  V30 494 C 49.8291 -3.4255 -3.04012 0
M  V30 495 N 51.3201 -3.42725 -3.11599 0
M  V30 496 C 52.0551 -4.31892 -3.7717 0
M  V30 497 N 51.5511 -5.31279 -4.44651 0
M  V30 498 N 53.3441 -4.19662 -3.73952 0
M  V30 499 H 45.4951 -2.06469 -0.49841 0
M  V30 500 H 47.7581 -0.904853 -0.282747 0
M  V30 501 H 47.4641 -3.13267 -1.59865 0
M  V30 502 H 47.3381 -2.18838 -3.07229 0
M  V30 503 H 49.7251 -1.28871 -2.65474 0
M  V30 504 H 49.8061 -2.26791 -1.18319 0
M  V30 505 H 49.4501 -4.36965 -2.58889 0
M  V30 506 H 49.3801 -3.35984 -4.0549 0
M  V30 507 H 51.8711 -2.70807 -2.63575 0
M  V30 508 H 52.1841 -5.95593 -4.92431 0
M  V30 509 H 50.5291 -5.3519 -4.43392 0
M  V30 510 H 53.7201 -3.41268 -3.20396 0
M  V30 511 H 53.8931 -4.89358 -4.24774 0
M  V30 512 N 47.2992 1.18797 -1.03562 0
M  V30 513 C 48.2622 2.20464 -0.626769 0
M  V30 514 C 49.2622 1.57721 0.313173 0
M  V30 515 O 50.4522 1.73917 0.0992615 0
M  V30 516 C 47.5842 3.40802 0.0818498 0
M  V30 517 H 48.7772 2.58149 -1.5264 0
M  V30 518 H 46.3302 1.32593 -0.827578 0
M  V30 519 H 47.0652 3.08642 0.995518 0
M  V30 520 H 46.8502 3.8758 -0.593652 0
M  V30 521 H 48.3402 4.16092 0.354584 0
M  V30 522 N 48.7773 0.814389 1.34928 0
M  V30 523 C 49.7093 0.187834 2.28429 0
M  V30 524 C 50.7223 -0.617374 1.5064 0
M  V30 525 O 51.9113 -0.448454 1.72775 0
M  V30 526 C 49.0113 -0.755962 3.30361 0
M  V30 527 C 48.1843 0.00456686 4.374 0
M  V30 528 C 47.2433 -0.858876 5.19143 0
M  V30 529 O 46.2693 -0.306968 5.68372 0
M  V30 530 N 47.4713 -2.17988 5.38016 0
M  V30 531 H 50.2363 0.991105 2.82838 0
M  V30 532 H 47.7973 0.670561 1.4736 0
M  V30 533 H 49.7893 -1.338 3.81942 0
M  V30 534 H 48.3593 -1.46001 2.7641 0
M  V30 535 H 47.5793 0.767865 3.86649 0
M  V30 536 H 48.8673 0.528422 5.06049 0
M  V30 537 H 48.2653 -2.65212 4.99679 0
M  V30 538 H 46.8223 -2.71098 5.92747 0
M  V30 539 N 50.2554 -1.46986 0.568584 0
M  V30 540 C 51.6664 -1.86188 0.138219 0
M  V30 541 C 52.0174 -1.47388 -1.29504 0
M  V30 542 O 51.1424 -0.88219 -1.97602 0
M  V30 543 C 51.7374 -3.3792 0.244065 0
M  V30 544 C 50.2964 -3.76171 -0.131335 0
M  V30 545 C 49.4434 -2.71027 0.586465 0
M  V30 546 H 52.3944 -1.38342 0.777645 0
M  V30 547 H 52.4154 -3.76729 -0.534351 0
M  V30 548 H 51.9274 -3.66128 1.28731 0
M  V30 549 H 50.0284 -3.5358 -1.17526 0
M  V30 550 H 50.1414 -4.78523 0.235146 0
M  V30 551 H 48.5054 -2.54684 0.0282722 0
M  V30 552 H 49.2884 -3.02077 1.63109 0
M  V30 553 N 51.7335 -0.305618 -1.54608 0
M  V30 554 C 52.6965 0.555591 -2.22364 0
M  V30 555 C 53.6965 1.05768 -1.21119 0
M  V30 556 O 54.8865 0.952972 -1.45822 0
M  V30 557 C 52.0185 1.76974 -2.91364 0
M  V30 558 H 53.2115 -0.0364572 -2.99878 0
M  V30 559 H 50.7645 -0.0565007 -1.56198 0
M  V30 560 H 51.4995 2.40151 -2.17941 0
M  V30 561 H 51.2845 1.41732 -3.65588 0
M  V30 562 H 52.7745 2.38148 -3.43038 0
M  V30 563 N 53.2116 1.57565 -0.0334293 0
M  V30 564 C 54.4606 1.91155 0.643639 0
M  V30 565 C 54.7736 0.91192 1.73042 0
M  V30 566 O 55.9796 1.13923 2.46442 0
M  V30 567 C 54.4356 3.39443 1.1961 0
M  V30 568 C 54.0436 4.47774 0.142381 0
M  V30 569 C 55.7876 3.82094 1.84944 0
M  V30 570 C 53.6946 5.87162 0.706727 0
M  V30 571 H 52.6246 0.713368 0.244176 0
M  V30 572 H 55.2756 1.8323 -0.0994323 0
M  V30 573 H 53.6576 3.42313 1.99092 0
M  V30 574 H 54.8316 4.56469 -0.630296 0
M  V30 575 H 53.1466 4.14352 -0.412446 0
M  V30 576 H 55.7436 4.83591 2.2813 0
M  V30 577 H 56.0866 3.17386 2.69392 0
M  V30 578 H 56.6196 3.81665 1.12145 0
M  V30 579 H 53.3586 6.55424 -0.0997178 0
M  V30 580 H 52.8786 5.82064 1.44779 0
M  V30 581 H 54.5576 6.35866 1.19514 0
M  V30 582 N 54.6897 -0.239769 1.55765 0
M  V30 583 C 55.9377 -0.964892 1.77579 0
M  V30 584 C 56.2587 -1.85582 0.598699 0
M  V30 585 O 55.5287 -1.92075 -0.385226 0
M  V30 586 H 54.1087 -0.359265 0.654933 0
M  V30 587 H 56.7707 -0.256001 1.93211 0
M  V30 588 H 55.8667 -1.58243 2.69009 0
M  V30 589 N 56.1678 -1.49265 -0.50573 0
M  V30 590 C 57.3928 -1.62478 -1.28902 0
M  V30 591 C 57.8178 -0.294332 -1.85783 0
M  V30 592 O 57.1758 0.737412 -1.65626 0
M  V30 593 C 57.2238 -2.69268 -2.39848 0
M  V30 594 O 56.3278 -2.28113 -3.43567 0
M  V30 595 H 55.6688 -0.54399 -0.380751 0
M  V30 596 H 58.1988 -1.95421 -0.605952 0
M  V30 597 H 58.2088 -2.91291 -2.85681 0
M  V30 598 H 56.8838 -3.65846 -1.97812 0
M  V30 599 H 55.4608 -2.16401 -3.03685 0
M  V30 600 N 57.6459 0.756429 -1.3826 0
M  V30 601 C 58.5759 1.88374 -1.37976 0
M  V30 602 C 59.5569 1.68311 -0.246082 0
M  V30 603 O 60.7419 1.88944 -0.44874 0
M  V30 604 C 57.8719 3.25864 -1.20125 0
M  V30 605 C 56.8259 3.60523 -2.30666 0
M  V30 606 C 56.1519 4.9672 -1.97923 0
M  V30 607 C 57.4519 3.65692 -3.72916 0
M  V30 608 H 59.1459 1.88869 -2.32312 0
M  V30 609 H 56.6919 0.907272 -1.11824 0
M  V30 610 H 58.6449 4.0438 -1.18552 0
M  V30 611 H 57.3689 3.25841 -0.222498 0
M  V30 612 H 56.0279 2.84324 -2.3142 0
M  V30 613 H 55.6759 4.93253 -0.985393 0
M  V30 614 H 55.3759 5.20878 -2.71955 0
M  V30 615 H 56.8999 5.77618 -1.97964 0
M  V30 616 H 58.3139 4.34328 -3.74208 0
M  V30 617 H 56.7109 4.01358 -4.4613 0
M  V30 618 H 57.7809 2.65987 -4.05436 0
M  V30 619 N 59.124 1.23083 0.984299 0
M  V30 620 C 60.087 1.00979 2.05757 0
M  V30 621 C 61.087 -0.0269573 1.60777 0
M  V30 622 O 62.277 0.212403 1.729 0
M  V30 623 C 59.409 0.527072 3.36801 0
M  V30 624 H 60.602 1.9622 2.26799 0
M  V30 625 H 58.155 1.05072 1.15714 0
M  V30 626 H 58.89 -0.429294 3.21446 0
M  V30 627 H 58.675 1.27515 3.70786 0
M  V30 628 H 60.165 0.392942 4.15747 0
M  V30 629 N 60.6021 -1.18246 1.0419 0
M  V30 630 C 61.8501 -1.87886 0.744543 0
M  V30 631 C 62.1711 -1.8082 -0.730006 0
M  V30 632 O 61.4411 -1.22736 -1.52685 0
M  V30 633 H 60.0211 -0.695556 0.272417 0
M  V30 634 H 62.6831 -1.43494 1.31892 0
M  V30 635 H 61.7791 -2.9389 1.05049 0
M  V30 636 N 62.0802 -0.821533 -1.34494 0
M  V30 637 C 63.3282 -0.408139 -1.97936 0
M  V30 638 C 63.6492 1.03193 -1.65457 0
M  V30 639 O 62.9192 1.71622 -0.944595 0
M  V30 640 H 61.4992 -0.147928 -0.732206 0
M  V30 641 H 64.1612 -1.05067 -1.64155 0
M  V30 642 H 63.2572 -0.52601 -3.07635 0
M  V30 643 N 63.5583 1.46682 -0.576371 0
M  V30 644 C 64.7833 2.07304 -0.0630475 0
M  V30 645 C 65.2083 1.42329 1.2298 0
M  V30 646 O 64.5663 0.504865 1.74129 0
M  V30 647 C 64.6143 3.60472 0.095895 0
M  V30 648 O 63.7183 3.95927 1.15394 0
M  V30 649 H 63.0593 0.661288 -0.0599463 0
M  V30 650 H 65.5893 1.88417 -0.797511 0
M  V30 651 H 65.5993 4.06865 0.304071 0
M  V30 652 H 64.2743 4.07157 -0.84828 0
M  V30 653 H 62.8513 3.61252 0.924724 0
M  V30 654 N 65.0364 0.313813 1.54444 0
M  V30 655 C 66.4474 -0.176243 1.85866 0
M  V30 656 C 66.7984 -1.52405 1.23561 0
M  V30 657 O 65.9234 -2.09605 0.538016 0
M  V30 658 C 66.5184 -0.32657 3.37222 0
M  V30 659 C 65.0774 -0.760846 3.6863 0
M  V30 660 C 64.2244 0.123247 2.77026 0
M  V30 661 H 67.1754 0.534418 1.49431 0
M  V30 662 H 67.1964 -1.15908 3.62416 0
M  V30 663 H 66.7084 0.654531 3.82541 0
M  V30 664 H 64.8094 -1.75204 3.28838 0
M  V30 665 H 64.9224 -0.571353 4.75681 0
M  V30 666 H 63.2864 -0.399597 2.51546 0
M  V30 667 H 64.0694 1.10094 3.25168 0
M  V30 668 N 66.5145 -1.57545 0.0417849 0
M  V30 669 C 67.7625 -1.91937 -0.632829 0
M  V30 670 C 68.0835 -0.919978 -1.71934 0
M  V30 671 O 67.3535 0.0366064 -1.95866 0
M  V30 672 H 65.9335 -0.708493 -0.236742 0
M  V30 673 H 68.5955 -1.9468 0.0925745 0
M  V30 674 H 67.6915 -2.92912 -1.07746 0
M  V30 675 N 67.9926 0.231505 -1.5589 0
M  V30 676 C 68.9556 1.27028 -1.90779 0
M  V30 677 C 69.9556 1.40308 -0.785507 0
M  V30 678 O 71.1456 1.38744 -1.05336 0
M  V30 679 C 68.2776 2.64566 -2.14983 0
M  V30 680 H 69.4706 0.973017 -2.83677 0
M  V30 681 H 67.0236 0.471486 -1.49019 0
M  V30 682 H 67.7586 2.99406 -1.24604 0
M  V30 683 H 67.5436 2.56305 -2.96732 0
M  V30 684 H 69.0336 3.39543 -2.43105 0
M  V30 685 N 69.4707 1.49531 0.497807 0
M  V30 686 C 70.4337 1.65916 1.58128 0
M  V30 687 C 71.4337 0.530825 1.51786 0
M  V30 688 O 72.6237 0.797342 1.54881 0
M  V30 689 C 69.7557 1.65951 2.9778 0
M  V30 690 H 70.9487 2.62556 1.44929 0
M  V30 691 H 68.5017 1.38611 0.722275 0
M  V30 692 H 69.2367 0.709065 3.16453 0
M  V30 693 H 69.0217 2.47897 3.03792 0
M  V30 694 H 70.5117 1.80673 3.76493 0
M  V30 695 N 70.9488 -0.749086 1.3866 0
M  V30 696 C 71.8588 -1.89358 1.38494 0
M  V30 697 C 72.8748 -1.71708 0.281476 0
M  V30 698 O 74.0508 -1.94554 0.520643 0
M  V30 699 C 71.1158 -3.24782 1.21316 0
M  V30 700 C 70.1768 -3.54926 2.41508 0
M  V30 701 C 69.4098 -4.83888 2.2514 0
M  V30 702 O 69.6328 -5.56592 1.24746 0
M  V30 703 O 68.5668 -5.13612 3.13826 0
M  V30 704 H 72.3928 -1.92452 2.34938 0
M  V30 705 H 69.9778 -0.894981 1.19626 0
M  V30 706 H 71.8598 -4.05739 1.13814 0
M  V30 707 H 70.5348 -3.2249 0.279592 0
M  V30 708 H 69.4418 -2.74112 2.54585 0
M  V30 709 H 70.7748 -3.61983 3.3351 0
M  V30 710 N 72.4269 -1.23603 -0.977757 0
M  V30 711 C 73.3899 -1.02069 -2.05218 0
M  V30 712 C 74.3899 0.0184305 -1.60789 0
M  V30 713 O 75.5799 -0.221569 -1.72785 0
M  V30 714 C 72.7119 -0.544926 -3.36517 0
M  V30 715 H 73.9049 -1.9742 -2.25755 0
M  V30 716 H 71.4579 -1.05684 -1.15155 0
M  V30 717 H 72.1929 0.412241 -3.21669 0
M  V30 718 H 71.9779 -1.2948 -3.70105 0
M  V30 719 H 73.4679 -0.414985 -4.15533 0
M  V30 720 N 73.905 1.17692 -1.04816 0
M  V30 721 C 75.316 1.69501 -0.782698 0
M  V30 722 C 75.667 1.83456 0.695577 0
M  V30 723 O 74.792 1.51942 1.54086 0
M  V30 724 C 75.387 3.07874 -1.41419 0
M  V30 725 C 73.946 3.56864 -1.19686 0
M  V30 726 C 73.093 2.3322 -1.50012 0
M  V30 727 H 76.044 1.02262 -1.2136 0
M  V30 728 H 76.065 3.71528 -0.821428 0
M  V30 729 H 75.577 2.97685 -2.49009 0
M  V30 730 H 73.678 3.72337 -0.140043 0
M  V30 731 H 73.791 4.39851 -1.89916 0
M  V30 732 H 72.155 2.37501 -0.920071 0
M  V30 733 H 72.938 2.25644 -2.58727 0
M  V30 734 N 75.3831 0.828654 1.34056 0
M  V30 735 C 76.6311 0.41863 1.97717 0
M  V30 736 C 76.9521 -1.02314 1.66002 0
M  V30 737 O 76.2221 -1.71119 0.953683 0
M  V30 738 H 74.8021 0.151809 0.731412 0
M  V30 739 H 77.4641 1.05936 1.63596 0
M  V30 740 H 76.5601 0.542318 3.07352 0
M  V30 741 N 76.8612 -1.46375 0.584142 0
M  V30 742 C 78.0862 -2.07268 0.0740405 0
M  V30 743 C 78.5112 -1.42979 -1.22223 0
M  V30 744 O 77.8692 -0.514092 -1.73859 0
M  V30 745 C 77.9172 -3.60518 -0.0767769 0
M  V30 746 O 77.0212 -3.96533 -1.13292 0
M  V30 747 H 76.3622 -0.660961 0.0634524 0
M  V30 748 H 78.8922 -1.87991 0.807492 0
M  V30 749 H 78.9022 -4.07021 -0.282489 0
M  V30 750 H 77.5772 -4.06702 0.86986 0
M  V30 751 H 76.1542 -3.61738 -0.905553 0
M  V30 752 N 78.3393 -0.321999 -1.54275 0
M  V30 753 C 79.3023 0.531975 -2.22941 0
M  V30 754 C 80.3023 1.04478 -1.22234 0
M  V30 755 O 81.4923 0.937452 -1.46825 0
M  V30 756 C 78.6243 1.73874 -2.93224 0
M  V30 757 H 79.8173 -0.0682612 -2.99822 0
M  V30 758 H 77.3703 -0.0730644 -1.56129 0
M  V30 759 H 78.1053 2.37825 -2.20476 0
M  V30 760 H 77.8903 1.37847 -3.6707 0
M  V30 761 H 79.3803 2.34496 -3.45545 0
M  V30 762 N 79.8174 1.5752 -0.0501392 0
M  V30 763 C 80.7494 2.08413 0.95376 0
M  V30 764 C 81.7624 1.01175 1.27544 0
M  V30 765 O 82.9514 1.28744 1.23641 0
M  V30 766 C 80.0514 2.51138 2.27559 0
M  V30 767 C 79.2244 3.817 2.13598 0
M  V30 768 C 78.2834 4.10749 3.28895 0
M  V30 769 O 77.3094 4.80685 3.04845 0
M  V30 770 N 78.5114 3.62579 4.5334 0
M  V30 771 H 81.2764 2.95165 0.519383 0
M  V30 772 H 78.8374 1.61327 0.136127 0
M  V30 773 H 80.8294 2.67648 3.03557 0
M  V30 774 H 79.3994 1.6964 2.62567 0
M  V30 775 H 78.6194 3.74782 1.22197 0
M  V30 776 H 79.9074 4.67201 2.01496 0
M  V30 777 H 79.3054 3.06039 4.75769 0
M  V30 778 H 77.8624 3.84329 5.26436 0
M  V30 779 N 81.2955 -0.223234 1.56011 0
M  V30 780 C 82.5415 -0.949279 1.79211 0
M  V30 781 C 82.8745 -1.84054 0.619494 0
M  V30 782 O 82.1495 -1.90726 -0.381317 0
M  V30 783 C 82.4325 -1.78965 3.12479 0
M  V30 784 C 82.2855 -0.924997 4.40186 0
M  V30 785 C 83.6045 -2.76774 3.42175 0
M  V30 786 H 80.7235 -0.343676 0.651963 0
M  V30 787 H 83.3655 -0.218253 1.88742 0
M  V30 788 H 81.5155 -2.41291 3.04485 0
M  V30 789 H 83.1875 -0.318615 4.60198 0
M  V30 790 H 81.4305 -0.230344 4.33188 0
M  V30 791 H 82.1015 -1.54735 5.29869 0
M  V30 792 H 84.5775 -2.24584 3.50287 0
M  V30 793 H 83.4535 -3.32678 4.36597 0
M  V30 794 H 83.7145 -3.54429 2.64258 0
M  V30 795 N 82.7736 -1.49793 -0.48987 0
M  V30 796 C 83.7366 -1.66752 -1.57246 0
M  V30 797 C 84.7366 -0.538867 -1.51502 0
M  V30 798 O 85.9266 -0.805545 -1.54456 0
M  V30 799 C 83.0586 -1.67528 -2.96896 0
M  V30 800 H 84.2516 -2.63321 -1.43534 0
M  V30 801 H 81.8046 -1.38992 -0.714914 0
M  V30 802 H 82.5396 -0.725837 -3.16073 0
M  V30 803 H 82.3246 -2.49504 -3.02473 0
M  V30 804 H 83.8146 -1.82667 -3.7553 0
M  V30 805 N 84.2517 0.741722 -1.39055 0
M  V30 806 C 85.4997 1.49818 -1.35643 0
M  V30 807 C 85.8207 1.94938 0.0491642 0
M  V30 808 O 85.0907 1.68505 0.999141 0
M  V30 809 H 83.6707 0.555755 -0.499144 0
M  V30 810 H 86.3327 0.880957 -1.73854 0
M  V30 811 H 85.4287 2.38348 -2.01486 0
M  V30 812 N 85.7298 1.2412 0.971189 0
M  V30 813 C 86.6598 1.05508 2.08304 0
M  V30 814 C 87.6408 -0.0308864 1.70072 0
M  V30 815 O 88.8258 0.135521 1.93727 0
M  V30 816 C 85.9558 0.655365 3.4106 0
M  V30 817 C 84.9098 1.68971 3.93234 0
M  V30 818 C 84.2358 1.14516 5.22293 0
M  V30 819 C 85.5358 3.08487 4.21465 0
M  V30 820 H 87.2298 1.98507 2.24132 0
M  V30 821 H 84.7758 0.955821 1.07704 0
M  V30 822 H 86.7288 0.51217 4.18276 0
M  V30 823 H 85.4528 -0.31032 3.25122 0
M  V30 824 H 84.1118 1.82106 3.18171 0
M  V30 825 H 83.7598 0.170189 5.02712 0
M  V30 826 H 83.4598 1.83635 5.58168 0
M  V30 827 H 84.9838 1.01401 6.02121 0
M  V30 828 H 86.3978 2.98601 4.89398 0
M  V30 829 H 84.7948 3.74926 4.68562 0
M  V30 830 H 85.8648 3.56787 3.28376 0
M  V30 831 N 87.2079 -1.17134 1.05439 0
M  V30 832 C 88.4479 -1.89137 0.77502 0
M  V30 833 C 88.8119 -1.79345 -0.685526 0
M  V30 834 O 90.0129 -2.46188 -1.0791 0
M  V30 835 C 88.2839 -3.35003 1.2453 0
M  V30 836 S 89.8429 -4.24952 1.09367 0
M  V30 837 H 86.6609 -0.652949 0.281387 0
M  V30 838 H 89.2629 -1.4145 1.34953 0
M  V30 839 H 87.9669 -3.39666 2.30338 0
M  V30 840 H 87.4979 -3.87736 0.665166 0
M  V30 841 H 89.5129 -4.96196 0.0193397 0
M  V30 842 N 88.686 -0.835752 -1.33615 0
M  V30 843 C 89.934 -0.429109 -1.97492 0
M  V30 844 C 90.255 1.01433 -1.66543 0
M  V30 845 O 89.525 1.70611 -0.962744 0
M  V30 846 H 88.105 -0.155686 -0.730596 0
M  V30 847 H 90.767 -1.06802 -1.63031 0
M  V30 848 H 89.863 -0.55861 -3.0706 0
M  V30 849 N 90.1641 1.46063 -0.591896 0
M  V30 850 C 91.5801 1.57561 -0.254288 0
M  V30 851 C 91.7801 1.58565 1.24336 0
M  V30 852 O 90.8361 1.50753 2.02558 0
M  V30 853 C 92.1491 2.86549 -0.911611 0
M  V30 854 C 93.6971 3.00197 -0.886059 0
M  V30 855 C 94.1721 4.31933 -1.5231 0
M  V30 856 N 95.6631 4.38654 -1.48786 0
M  V30 857 C 96.3981 5.39222 -1.95006 0
M  V30 858 N 95.8941 6.46414 -2.49241 0
M  V30 859 N 97.6871 5.3048 -1.85868 0
M  V30 860 H 89.8381 1.43655 -1.56451 0
M  V30 861 H 92.1011 0.68583 -0.654478 0
M  V30 862 H 91.8071 2.91651 -1.96551 0
M  V30 863 H 91.6811 3.74794 -0.425368 0
M  V30 864 H 94.0681 2.9467 0.159246 0
M  V30 865 H 94.1491 2.13403 -1.41041 0
M  V30 866 H 93.7931 4.38217 -2.56765 0
M  V30 867 H 93.7231 5.17516 -0.973891 0
M  V30 868 H 96.2141 3.61793 -1.09151 0
M  V30 869 H 96.5271 7.19376 -2.82344 0
M  V30 870 H 94.8721 6.47208 -2.53272 0
M  V30 871 H 98.0631 4.45643 -1.43248 0
M  V30 872 H 98.2361 6.08711 -2.22204 0
M  V30 873 N 91.6422 0.330177 1.54103 0
M  V30 874 C 92.5722 -0.525353 2.27513 0
M  V30 875 C 93.5532 -1.11383 1.2856 0
M  V30 876 O 94.7382 -1.13773 1.57383 0
M  V30 877 C 91.8682 -1.6831 3.03791 0
M  V30 878 C 90.8222 -1.2236 4.10137 0
M  V30 879 C 90.1482 -2.46882 4.74293 0
M  V30 880 C 91.4482 -0.333697 5.21233 0
M  V30 881 H 93.1422 0.087013 2.99274 0
M  V30 882 H 90.6882 0.0432893 1.43935 0
M  V30 883 H 92.6412 -2.28795 3.5388 0
M  V30 884 H 91.3652 -2.32216 2.29659 0
M  V30 885 H 90.0242 -0.64165 3.60941 0
M  V30 886 H 89.6722 -3.09165 3.96769 0
M  V30 887 H 89.3722 -2.16825 5.46133 0
M  V30 888 H 90.8962 -3.08117 5.27159 0
M  V30 889 H 92.3102 -0.845013 5.67038 0
M  V30 890 H 90.7072 -0.125612 5.99969 0
M  V30 891 H 91.7772 0.633724 4.80741 0
M  V30 892 N 93.1203 -1.57491 0.0584922 0
M  V30 893 C 94.3483 -1.97296 -0.623037 0
M  V30 894 C 94.7633 -0.936338 -1.63946 0
M  V30 895 O 94.1203 0.0785981 -1.82331 0
M  V30 896 C 94.1713 -3.37183 -1.30345 0
M  V30 897 O 93.8923 -4.36872 -0.32773 0
M  V30 898 C 95.3933 -3.91788 -2.07406 0
M  V30 899 H 92.6133 -0.649153 -0.169826 0
M  V30 900 H 95.1573 -2.04106 0.12696 0
M  V30 901 H 93.3123 -3.31502 -2.00463 0
M  V30 902 H 93.7263 -5.18141 -0.814269 0
M  V30 903 H 95.2003 -4.91926 -2.50425 0
M  V30 904 H 95.6773 -3.27609 -2.92521 0
M  V30 905 H 96.2833 -4.00829 -1.42184 0
M  V30 906 N 94.5984 0.214957 -1.56127 0
M  V30 907 C 95.5284 1.2695 -1.95974 0
M  V30 908 C 96.5094 1.48539 -0.828868 0
M  V30 909 O 97.6944 1.60611 -1.09168 0
M  V30 910 C 94.8244 2.61794 -2.28214 0
M  V30 911 C 93.7784 2.54851 -3.43853 0
M  V30 912 C 93.1044 3.93785 -3.61715 0
M  V30 913 C 94.4044 2.09065 -4.78632 0
M  V30 914 H 96.0984 0.93846 -2.84312 0
M  V30 915 H 93.6444 0.449996 -1.36788 0
M  V30 916 H 95.5974 3.35731 -2.54682 0
M  V30 917 H 94.3214 2.96599 -1.36736 0
M  V30 918 H 92.9804 1.8337 -3.17444 0
M  V30 919 H 92.6284 4.25908 -2.67602 0
M  V30 920 H 92.3284 3.90019 -4.39498 0
M  V30 921 H 93.8524 4.69374 -3.90539 0
M  V30 922 H 95.2664 2.7275 -5.04262 0
M  V30 923 H 93.6634 2.16346 -5.59745 0
M  V30 924 H 94.7334 1.04315 -4.73547 0
M  V30 925 N 96.0765 1.50051 0.48192 0
M  V30 926 C 97.0265 1.64512 1.5786 0
M  V30 927 C 98.0105 0.500073 1.52932 0
M  V30 928 O 99.2025 0.753964 1.60139 0
M  V30 929 C 96.3315 1.73263 2.9637 0
M  V30 930 C 95.4175 2.93409 3.06222 0
M  V30 931 N 95.8085 4.17236 2.85915 0
M  V30 932 C 94.1065 2.91742 3.37346 0
M  V30 933 C 94.8075 4.981 3.00451 0
M  V30 934 N 93.7835 4.3184 3.30174 0
M  V30 935 H 97.5855 2.57955 1.40842 0
M  V30 936 H 95.0995 1.47086 0.688439 0
M  V30 937 H 97.0965 1.81724 3.75209 0
M  V30 938 H 95.7565 0.809711 3.14442 0
M  V30 939 H 96.7675 4.46909 2.6171 0
M  V30 940 H 93.4445 2.08907 3.61475 0
M  V30 941 H 94.8345 6.06532 2.89082 0
M  V30 942 N 97.5546 -0.734337 1.39446 0
M  V30 943 C 98.9706 -1.03997 1.21065 0
M  V30 944 C 99.1706 -2.01369 0.0727019 0
M  V30 945 O 98.2266 -2.45856 -0.575426 0
M  V30 946 C 99.5396 -1.60163 2.54496 0
M  V30 947 C 101.088 -1.7224 2.61347 0
M  V30 948 C 101.563 -2.31814 3.95002 0
M  V30 949 N 103.054 -2.39223 3.96644 0
M  V30 950 C 103.789 -2.86258 4.96834 0
M  V30 951 N 103.285 -3.33184 6.07421 0
M  V30 952 N 105.078 -2.85473 4.84213 0
M  V30 953 H 97.2286 -0.0885624 2.12215 0
M  V30 954 H 99.4916 -0.10191 0.942506 0
M  V30 955 H 99.1976 -0.960811 3.38321 0
M  V30 956 H 99.0716 -2.5896 2.74262 0
M  V30 957 H 101.459 -2.35443 1.77906 0
M  V30 958 H 101.54 -0.720939 2.4543 0
M  V30 959 H 101.184 -1.69238 4.78875 0
M  V30 960 H 101.114 -3.32638 4.08239 0
M  V30 961 H 103.605 -2.06057 3.16779 0
M  V30 962 H 103.918 -3.67586 6.7978 0
M  V30 963 H 102.263 -3.31191 6.11013 0
M  V30 964 H 105.454 -2.48136 3.96921 0
M  V30 965 H 105.627 -3.21814 5.62441 0
M  V30 966 N 99.0327 -1.24633 -0.964593 0
M  V30 967 C 100.31 -0.995809 -1.68354 0
M  V30 968 C 100.69 0.480964 -2.05548 0
M  V30 969 O 100.038 1.45599 -1.76105 0
M  V30 970 C 100.248 -1.92177 -2.91323 0
M  V30 971 C 101.596 -2.19446 -3.63495 0
M  V30 972 O 102.62 -1.89855 -3.01386 0
M  V30 973 O 101.479 -2.69714 -4.75307 0
M  V30 974 H 98.5727 -0.376854 -0.736146 0
M  V30 975 H 101.119 -1.35745 -1.0184 0
M  V30 976 H 99.8907 -2.91938 -2.60553 0
M  V30 977 H 99.5137 -1.56349 -3.65569 0
M  V30 978 N 100.511 1.16574 -1.06058 0
M  V30 979 C 101.441 2.23057 -0.690488 0
M  V30 980 C 102.422 1.67141 0.315901 0
M  V30 981 O 103.607 1.93253 0.191556 0
M  V30 982 C 100.737 3.47222 -0.073625 0
M  V30 983 C 99.6908 4.16016 -1.00573 0
M  V30 984 C 99.0168 5.34104 -0.252289 0
M  V30 985 C 100.317 4.67264 -2.33371 0
M  V30 986 H 102.011 2.54271 -1.58072 0
M  V30 987 H 99.5568 1.22218 -0.76149 0
M  V30 988 H 101.51 4.20939 0.19714 0
M  V30 989 H 100.234 3.15302 0.85161 0
M  V30 990 H 98.8928 3.44223 -1.2612 0
M  V30 991 H 98.5408 4.98437 0.675988 0
M  V30 992 H 98.2408 5.81072 -0.873455 0
M  V30 993 H 99.7648 6.10599 0.0109857 0
M  V30 994 H 101.179 5.32573 -2.12223 0
M  V30 995 H 99.5758 5.24843 -2.90963 0
M  V30 996 H 100.646 3.83602 -2.96611 0
M  V30 997 N 101.989 0.842826 1.3317 0
M  V30 998 C 103.405 0.531128 1.50503 0
M  V30 999 C 103.605 -0.940734 1.78192 0
M  V30 1000 O 102.661 -1.72436 1.84451 0
M  V30 1001 C 103.974 1.40789 2.65705 0
M  V30 1002 C 105.522 1.40708 2.79589 0
M  V30 1003 C 105.997 2.26878 3.97857 0
M  V30 1004 N 107.488 2.24609 4.05099 0
M  V30 1005 C 108.223 2.88019 4.95815 0
M  V30 1006 N 107.719 3.60496 5.9162 0
M  V30 1007 N 109.512 2.77469 4.88843 0
M  V30 1008 H 101.663 1.79557 1.1346 0
M  V30 1009 H 103.926 0.766267 0.558156 0
M  V30 1010 H 103.632 2.454 2.51936 0
M  V30 1011 H 103.506 1.08677 3.61205 0
M  V30 1012 H 105.893 0.368668 2.92788 0
M  V30 1013 H 105.974 1.76829 1.84838 0
M  V30 1014 H 105.618 3.3078 3.85418 0
M  V30 1015 H 105.548 1.88096 4.91861 0
M  V30 1016 H 108.039 1.71906 3.36536 0
M  V30 1017 H 108.352 4.06076 6.57512 0
M  V30 1018 H 106.697 3.64604 5.91683 0
M  V30 1019 H 109.888 2.20406 4.12963 0
M  V30 1020 H 110.061 3.2717 5.59342 0
M  V30 1021 N 103.467 -1.45747 0.599634 0
M  V30 1022 C 104.695 -2.06668 0.0978551 0
M  V30 1023 C 105.11 -1.44562 -1.21439 0
M  V30 1024 O 104.467 -0.556923 -1.73795 0
M  V30 1025 C 104.518 -3.61456 -0.0567044 0
M  V30 1026 O 104.239 -4.21242 1.20361 0
M  V30 1027 C 105.74 -4.39345 -0.590869 0
M  V30 1028 H 102.96 -0.667825 0.0651943 0
M  V30 1029 H 105.504 -1.87115 0.82511 0
M  V30 1030 H 103.659 -3.80378 -0.734251 0
M  V30 1031 H 104.073 -5.14323 1.02821 0
M  V30 1032 H 105.547 -5.48182 -0.648131 0
M  V30 1033 H 106.024 -4.08568 -1.61147 0
M  V30 1034 H 106.63 -4.25268 0.0523679 0
M  V30 1035 N 104.945 -0.338344 -1.53925 0
M  V30 1036 C 106.193 0.259245 -2.0043 0
M  V30 1037 C 106.514 1.51484 -1.22791 0
M  V30 1038 O 105.784 1.93037 -0.33368 0
M  V30 1039 H 104.364 0.0987845 -0.740439 0
M  V30 1040 H 107.026 -0.458302 -1.89435 0
M  V30 1041 H 106.122 0.505334 -3.07982 0
M  V30 1042 N 106.423 1.57458 -0.0668435 0
M  V30 1043 C 107.839 1.56947 0.289772 0
M  V30 1044 C 108.039 1.07584 1.70376 0
M  V30 1045 O 107.095 0.739486 2.41429 0
M  V30 1046 C 108.408 3.0052 0.103943 0
M  V30 1047 C 109.956 3.12517 0.173857 0
M  V30 1048 C 110.431 4.57997 0.0163682 0
M  V30 1049 N 111.922 4.63144 0.0721352 0
M  V30 1050 C 112.657 5.73394 -0.0253794 0
M  V30 1051 N 112.153 6.92576 -0.176133 0
M  V30 1052 N 113.946 5.62091 0.0313305 0
M  V30 1053 H 106.097 1.87863 -0.991027 0
M  V30 1054 H 108.36 0.86583 -0.38606 0
M  V30 1055 H 108.066 3.40729 -0.871572 0
M  V30 1056 H 107.94 3.67304 0.858366 0
M  V30 1057 H 110.327 2.72197 1.13985 0
M  V30 1058 H 110.408 2.48381 -0.611586 0
M  V30 1059 H 110.052 4.99005 -0.946374 0
M  V30 1060 H 109.982 5.20158 0.821153 0
M  V30 1061 H 112.473 3.77436 0.187263 0
M  V30 1062 H 112.786 7.72418 -0.242821 0
M  V30 1063 H 111.131 6.94678 -0.211429 0
M  V30 1064 H 114.322 4.67867 0.147773 0
M  V30 1065 H 114.495 6.47982 -0.048121 0
M  V30 1066 N 107.901 -0.206675 1.56239 0
M  V30 1067 C 109.147 -0.925733 1.81113 0
M  V30 1068 C 109.502 -1.81368 0.642135 0
M  V30 1069 O 108.795 -1.88126 -0.363211 0
M  V30 1070 C 108.989 -1.78675 3.09532 0
M  V30 1071 C 108.818 -0.98365 4.3881 0
M  V30 1072 C 107.588 -0.672661 5.00803 0
M  V30 1073 C 109.786 -0.341847 5.13163 0
M  V30 1074 N 107.768 0.150283 6.13716 0
M  V30 1075 C 109.139 0.343815 6.19046 0
M  V30 1076 C 111.194 -0.256392 4.97239 0
M  V30 1077 C 109.897 1.10678 7.10734 0
M  V30 1078 C 111.923 0.493142 5.8934 0
M  V30 1079 C 111.285 1.16729 6.94661 0
M  V30 1080 H 107.384 -0.318524 0.714189 0
M  V30 1081 H 109.968 -0.195378 1.93717 0
M  V30 1082 H 108.139 -2.4888 2.98183 0
M  V30 1083 H 109.871 -2.44441 3.22538 0
M  V30 1084 H 106.626 -0.994294 4.63045 0
M  V30 1085 H 107.05 0.551026 6.74754 0
M  V30 1086 H 111.692 -0.763249 4.15854 0
M  V30 1087 H 109.41 1.6251 7.91591 0
M  V30 1088 H 112.996 0.560465 5.79094 0
M  V30 1089 H 111.876 1.738 7.64698 0
M  V30 1090 N 109.379 -1.50304 -0.473955 0
M  V30 1091 C 110.289 -1.7174 -1.5982 0
M  V30 1092 C 111.305 -0.600457 -1.63311 0
M  V30 1093 O 112.481 -0.878441 -1.81233 0
M  V30 1094 C 109.546 -1.80427 -2.96052 0
M  V30 1095 C 108.607 -3.04148 -3.02972 0
M  V30 1096 C 107.84 -3.12411 -4.32706 0
M  V30 1097 O 108.063 -2.27542 -5.23049 0
M  V30 1098 O 106.997 -4.05113 -4.45159 0
M  V30 1099 H 110.823 -2.67035 -1.44657 0
M  V30 1100 H 108.408 -1.34366 -0.653148 0
M  V30 1101 H 110.29 -1.88338 -3.7697 0
M  V30 1102 H 108.965 -0.883156 -3.11419 0
M  V30 1103 H 107.872 -3.0174 -2.21142 0
M  V30 1104 H 109.205 -3.95829 -2.92541 0
M  V30 1105 N 110.857 0.726932 -1.39834 0
M  V30 1106 C 112.268 1.30558 -1.3346 0
M  V30 1107 C 112.619 1.962 -0.00273003 0
M  V30 1108 O 111.744 1.96826 0.899371 0
M  V30 1109 C 112.339 2.37404 -2.41713 0
M  V30 1110 C 110.898 2.90921 -2.38835 0
M  V30 1111 C 110.045 1.64578 -2.2318 0
M  V30 1112 H 112.996 0.523862 -1.49804 0
M  V30 1113 H 113.017 3.17984 -2.08966 0
M  V30 1114 H 112.529 1.89599 -3.38635 0
M  V30 1115 H 110.63 3.42985 -1.45575 0
M  V30 1116 H 110.743 3.43487 -3.33997 0
M  V30 1117 H 109.107 1.89219 -1.70494 0
M  V30 1118 H 109.89 1.18814 -3.22084 0
M  V30 1119 N 112.336 1.25143 0.95797 0
M  V30 1120 C 113.613 1.00472 1.67823 0
M  V30 1121 C 113.993 -0.470056 2.058 0
M  V30 1122 O 113.341 -1.44663 1.76875 0
M  V30 1123 C 113.551 1.9372 2.90299 0
M  V30 1124 C 114.899 2.21371 3.62326 0
M  V30 1125 O 115.923 1.91451 3.00375 0
M  V30 1126 O 114.782 2.72231 4.7387 0
M  V30 1127 H 111.876 0.380752 0.734137 0
M  V30 1128 H 114.422 1.36283 1.01119 0
M  V30 1129 H 113.194 2.93316 2.59001 0
M  V30 1130 H 112.817 1.58286 3.64735 0
M  V30 1131 N 113.814 -1.1601 1.06675 0
M  V30 1132 C 115.225 -1.68235 0.809565 0
M  V30 1133 C 115.576 -1.8454 -0.666303 0
M  V30 1134 O 114.701 -1.54374 -1.5165 0
M  V30 1135 C 115.296 -3.05585 1.46299 0
M  V30 1136 C 113.855 -3.54915 1.25349 0
M  V30 1137 C 113.002 -2.30804 1.53703 0
M  V30 1138 H 115.953 -1.00318 1.22971 0
M  V30 1139 H 115.974 -3.70174 0.880431 0
M  V30 1140 H 115.486 -2.93686 2.53713 0
M  V30 1141 H 113.587 -3.72067 0.199261 0
M  V30 1142 H 113.7 -4.36774 1.9689 0
M  V30 1143 H 112.064 -2.36007 0.957739 0
M  V30 1144 H 112.847 -2.21499 2.62284 0
M  V30 1145 N 115.292 -0.849877 -1.32721 0
M  V30 1146 C 116.224 -0.248332 -2.27851 0
M  V30 1147 C 117.237 0.577218 -1.52224 0
M  V30 1148 O 118.426 0.402489 -1.73903 0
M  V30 1149 C 115.526 0.668107 -3.32249 0
M  V30 1150 C 114.699 -0.120534 -4.37234 0
M  V30 1151 C 113.758 0.720932 -5.21238 0
M  V30 1152 O 112.784 0.156166 -5.68986 0
M  V30 1153 N 113.986 2.03647 -5.43607 0
M  V30 1154 H 116.751 -1.06575 -2.80111 0
M  V30 1155 H 114.312 -0.709395 -1.45531 0
M  V30 1156 H 116.304 1.23627 -3.85355 0
M  V30 1157 H 114.874 1.38621 -2.80184 0
M  V30 1158 H 114.094 -0.870108 -3.84477 0
M  V30 1159 H 115.382 -0.662406 -5.0447 0
M  V30 1160 H 114.78 2.51871 -5.06535 0
M  V30 1161 H 113.337 2.55287 -5.99727 0
M  V30 1162 N 116.77 1.45427 -0.607355 0
M  V30 1163 C 118.186 1.57283 -0.270985 0
M  V30 1164 C 118.386 1.59875 1.22647 0
M  V30 1165 O 117.442 1.52893 2.00948 0
M  V30 1166 C 118.755 2.85566 -0.941952 0
M  V30 1167 C 120.303 2.9924 -0.917849 0
M  V30 1168 C 120.778 4.30293 -1.56882 0
M  V30 1169 N 122.269 4.37051 -1.5343 0
M  V30 1170 C 123.004 5.37123 -2.00715 0
M  V30 1171 N 122.5 6.43734 -2.56084 0
M  V30 1172 N 124.293 5.28479 -1.91484 0
M  V30 1173 H 116.444 1.41988 -1.57966 0
M  V30 1174 H 118.707 0.67885 -0.661715 0
M  V30 1175 H 118.413 2.8955 -1.99633 0
M  V30 1176 H 118.287 3.74322 -0.465096 0
M  V30 1177 H 120.674 2.94822 0.127984 0
M  V30 1178 H 120.755 2.11895 -1.43297 0
M  V30 1179 H 120.399 4.35469 -2.61398 0
M  V30 1180 H 120.329 5.16454 -1.02873 0
M  V30 1181 H 122.82 3.60615 -1.12982 0
M  V30 1182 H 123.133 7.16341 -2.89958 0
M  V30 1183 H 121.478 6.44485 -2.60122 0
M  V30 1184 H 124.669 4.44098 -1.47967 0
M  V30 1185 H 124.842 6.0632 -2.28648 0
M  V30 1186 N 118.248 0.346503 1.53744 0
M  V30 1187 C 119.473 -0.253074 2.0585 0
M  V30 1188 C 119.898 -1.43202 1.21962 0
M  V30 1189 O 119.256 -1.79783 0.234073 0
M  V30 1190 C 119.304 -0.643193 3.54817 0
M  V30 1191 O 118.408 -1.74286 3.73762 0
M  V30 1192 H 117.749 -0.0413583 0.662711 0
M  V30 1193 H 120.279 0.501574 1.98357 0
M  V30 1194 H 120.289 -0.919526 3.97503 0
M  V30 1195 H 118.964 0.218966 4.15323 0
M  V30 1196 H 117.541 -1.46356 3.42979 0
M  V30 1197 N 119.726 -1.57421 0.075193 0
M  V30 1198 C 121.142 -1.57099 -0.281444 0
M  V30 1199 C 121.342 -1.08486 -1.69803 0
M  V30 1200 O 120.398 -0.752279 -2.41033 0
M  V30 1201 C 121.711 -3.00571 -0.0880041 0
M  V30 1202 C 123.259 -3.12605 -0.157281 0
M  V30 1203 C 123.734 -4.57999 0.0079207 0
M  V30 1204 N 125.225 -4.63176 -0.0475725 0
M  V30 1205 C 125.96 -5.73373 0.0557876 0
M  V30 1206 N 125.456 -6.92473 0.21286 0
M  V30 1207 N 127.249 -5.621 -0.00152098 0
M  V30 1208 H 119.4 -1.87335 1.00098 0
M  V30 1209 H 121.663 -0.86377 0.390646 0
M  V30 1210 H 121.369 -3.40262 0.889629 0
M  V30 1211 H 121.243 -3.67754 -0.838875 0
M  V30 1212 H 123.63 -2.72798 -1.1254 0
M  V30 1213 H 123.711 -2.48053 0.62475 0
M  V30 1214 H 123.355 -4.98496 0.972824 0
M  V30 1215 H 123.285 -5.20586 -0.793556 0
M  V30 1216 H 125.776 -3.7753 -0.167244 0
M  V30 1217 H 126.089 -7.72279 0.283781 0
M  V30 1218 H 124.434 -6.94556 0.248267 0
M  V30 1219 H 127.625 -4.67938 -0.122958 0
M  V30 1220 H 127.798 -6.47948 0.0824844 0
M  V30 1221 N 121.204 0.198386 -1.56346 0
M  V30 1222 C 122.62 0.549085 -1.49857 0
M  V30 1223 C 122.82 1.86016 -0.774611 0
M  V30 1224 O 121.876 2.50416 -0.323776 0
M  V30 1225 C 123.189 0.606868 -2.94512 0
M  V30 1226 C 124.737 0.695925 -3.05165 0
M  V30 1227 C 125.212 0.784848 -4.51225 0
M  V30 1228 N 126.703 0.848463 -4.55363 0
M  V30 1229 C 127.438 0.937378 -5.65686 0
M  V30 1230 N 126.934 0.9888 -6.85707 0
M  V30 1231 N 128.727 0.974312 -5.53592 0
M  V30 1232 H 120.878 -0.661655 -2.01831 0
M  V30 1233 H 123.141 -0.235261 -0.918344 0
M  V30 1234 H 122.847 -0.28732 -3.50524 0
M  V30 1235 H 122.721 1.46268 -3.47686 0
M  V30 1236 H 125.108 1.58055 -2.49204 0
M  V30 1237 H 125.189 -0.186022 -2.55123 0
M  V30 1238 H 124.833 -0.0954072 -5.0781 0
M  V30 1239 H 124.763 1.68255 -4.98997 0
M  V30 1240 H 127.254 0.818103 -3.68938 0
M  V30 1241 H 127.567 1.05707 -7.65536 0
M  V30 1242 H 125.912 0.957534 -6.88372 0
M  V30 1243 H 129.103 0.930954 -4.58749 0
M  V30 1244 H 129.276 1.04015 -6.39597 0
M  V30 1245 N 122.682 1.50554 0.465978 0
M  V30 1246 C 123.922 1.63439 1.22747 0
M  V30 1247 C 124.286 0.329822 1.89146 0
M  V30 1248 O 125.487 0.334161 2.66715 0
M  V30 1249 C 123.758 2.78542 2.2394 0
M  V30 1250 S 125.317 3.11591 3.0896 0
M  V30 1251 H 122.135 0.576113 0.416672 0
M  V30 1252 H 124.737 1.88357 0.523641 0
M  V30 1253 H 123.441 3.71805 1.7375 0
M  V30 1254 H 122.972 2.55726 2.98944 0
M  V30 1255 H 124.987 2.55811 4.25176 0
M  V30 1256 N 124.16 -0.719506 1.40217 0
M  V30 1257 C 125.09 -1.8465 1.42922 0
M  V30 1258 C 126.071 -1.67599 0.29062 0
M  V30 1259 O 127.256 -1.87688 0.498677 0
M  V30 1260 C 124.386 -3.22565 1.28722 0
M  V30 1261 C 123.34 -3.54281 2.40144 0
M  V30 1262 C 122.666 -4.91298 2.11023 0
M  V30 1263 C 123.966 -3.55676 3.82481 0
M  V30 1264 H 125.66 -1.82644 2.37237 0
M  V30 1265 H 123.206 -0.877305 1.1419 0
M  V30 1266 H 125.159 -4.01095 1.29232 0
M  V30 1267 H 123.883 -3.25137 0.308811 0
M  V30 1268 H 122.542 -2.78088 2.38877 0
M  V30 1269 H 122.19 -4.90468 1.11582 0
M  V30 1270 H 121.89 -5.13485 2.8567 0
M  V30 1271 H 123.414 -5.72166 2.13209 0
M  V30 1272 H 124.828 -4.24254 3.85592 0
M  V30 1273 H 123.225 -3.89388 4.56614 0
M  V30 1274 H 124.295 -2.55144 4.12346 0
M  V30 1275 N 125.638 -1.25649 -0.95132 0
M  V30 1276 C 127.054 -1.02542 -1.223 0
M  V30 1277 C 127.254 0.255715 -1.99871 0
M  V30 1278 O 126.31 0.967558 -2.33226 0
M  V30 1279 C 127.623 -2.25065 -1.99415 0
M  V30 1280 C 129.171 -2.29861 -2.12446 0
M  V30 1281 C 129.646 -3.52048 -2.92961 0
M  V30 1282 N 131.137 -3.52465 -3.00538 0
M  V30 1283 C 131.872 -4.43672 -3.63239 0
M  V30 1284 N 131.368 -5.45157 -4.27523 0
M  V30 1285 N 133.161 -4.31346 -3.60412 0
M  V30 1286 H 125.312 -2.07951 -0.432471 0
M  V30 1287 H 127.575 -0.91339 -0.253816 0
M  V30 1288 H 127.281 -3.18194 -1.49817 0
M  V30 1289 H 127.155 -2.28502 -3.00111 0
M  V30 1290 H 129.542 -1.37252 -2.61239 0
M  V30 1291 H 129.623 -2.3044 -1.11044 0
M  V30 1292 H 129.267 -4.44981 -2.44856 0
M  V30 1293 H 129.197 -3.48715 -3.94596 0
M  V30 1294 H 131.688 -2.79056 -2.54826 0
M  V30 1295 H 132.001 -6.10958 -4.73234 0
M  V30 1296 H 130.346 -5.49025 -4.26141 0
M  V30 1297 H 133.537 -3.51288 -3.09377 0
M  V30 1298 H 133.71 -5.02624 -4.0899 0
M  V30 1299 N 127.117 1.15442 -1.07289 0
M  V30 1300 C 128.394 1.82306 -0.708792 0
M  V30 1301 C 128.774 1.94991 0.808807 0
M  V30 1302 O 128.122 1.50085 1.72298 0
M  V30 1303 C 128.332 3.18695 -1.42247 0
M  V30 1304 C 129.68 3.94341 -1.57417 0
M  V30 1305 O 130.704 3.28247 -1.38319 0
M  V30 1306 O 129.563 5.12839 -1.88834 0
M  V30 1307 H 126.657 0.787628 -0.252132 0
M  V30 1308 H 129.203 1.22559 -1.17377 0
M  V30 1309 H 127.975 3.04557 -2.45684 0
M  V30 1310 H 127.598 3.86128 -0.948223 0
M  V30 1311 N 128.595 0.856903 1.32268 0
M  V30 1312 C 130.006 0.515711 1.79436 0
M  V30 1313 C 130.357 -0.966586 1.70738 0
M  V30 1314 O 129.482 -1.75409 1.26731 0
M  V30 1315 C 130.077 0.929335 3.25805 0
M  V30 1316 C 128.636 0.640006 3.70919 0
M  V30 1317 C 127.783 1.12784 2.53328 0
M  V30 1318 H 130.734 1.04389 1.19535 0
M  V30 1319 H 130.755 0.246633 3.797 0
M  V30 1320 H 130.267 2.00821 3.32103 0
M  V30 1321 H 128.368 -0.428051 3.70133 0
M  V30 1322 H 128.481 1.20788 4.63624 0
M  V30 1323 H 126.845 0.548033 2.48734 0
M  V30 1324 H 127.628 2.21387 2.62379 0
M  V30 1325 N 130.073 -1.45103 0.615059 0
M  V30 1326 C 131.005 -2.28786 -0.13762 0
M  V30 1327 C 132.018 -1.40376 -0.824525 0
M  V30 1328 O 133.207 -1.64681 -0.688662 0
M  V30 1329 C 130.307 -3.16322 -1.21628 0
M  V30 1330 C 129.48 -4.33054 -0.615039 0
M  V30 1331 C 128.539 -5.01743 -1.58556 0
M  V30 1332 O 127.565 -5.58293 -1.10895 0
M  V30 1333 N 128.767 -5.01714 -2.91998 0
M  V30 1334 H 131.532 -2.94025 0.580483 0
M  V30 1335 H 129.093 -1.55373 0.45507 0
M  V30 1336 H 131.085 -3.59139 -1.86552 0
M  V30 1337 H 129.655 -2.52943 -1.83681 0
M  V30 1338 H 128.875 -3.93627 0.21245 0
M  V30 1339 H 130.163 -5.08431 -0.193704 0
M  V30 1340 H 129.561 -4.57075 -3.33316 0
M  V30 1341 H 128.118 -5.48371 -3.52325 0
M  V30 1342 N 131.551 -0.354651 -1.53558 0
M  V30 1343 C 132.967 -0.00315426 -1.596 0
M  V30 1344 C 133.167 1.47741 -1.37021 0
M  V30 1345 O 132.223 2.23759 -1.16996 0
M  V30 1346 C 133.536 -0.44929 -2.97325 0
M  V30 1347 C 135.084 -0.402578 -3.104 0
M  V30 1348 C 135.559 -0.824355 -4.5052 0
M  V30 1349 N 137.05 -0.778979 -4.56603 0
M  V30 1350 C 137.785 -1.07715 -5.63192 0
M  V30 1351 N 137.281 -1.44405 -6.77583 0
M  V30 1352 N 139.074 -1.00066 -5.53121 0
M  V30 1353 H 131.225 -1.31893 -1.66487 0
M  V30 1354 H 133.488 -0.538388 -0.780284 0
M  V30 1355 H 133.194 -1.48202 -3.1895 0
M  V30 1356 H 133.068 0.169772 -3.76818 0
M  V30 1357 H 135.455 0.621004 -2.88492 0
M  V30 1358 H 135.536 -1.05699 -2.32941 0
M  V30 1359 H 135.18 -1.846 -4.73165 0
M  V30 1360 H 135.11 -0.147304 -5.26394 0
M  V30 1361 H 137.601 -0.508528 -3.74463 0
M  V30 1362 H 137.914 -1.65612 -7.54846 0
M  V30 1363 H 136.259 -1.4826 -6.79002 0
M  V30 1364 H 139.45 -0.713293 -4.62633 0
M  V30 1365 H 139.623 -1.23638 -6.36096 0
M  V30 1366 N 133.029 1.57378 -0.0835403 0
M  V30 1367 C 134.275 1.94217 0.583733 0
M  V30 1368 C 134.608 0.964653 1.68547 0
M  V30 1369 O 133.883 -0.00422258 1.945 0
M  V30 1370 C 134.166 3.41253 1.14972 0
M  V30 1371 C 134.019 4.49768 0.0538277 0
M  V30 1372 C 135.338 3.89352 2.05166 0
M  V30 1373 H 132.457 0.706233 0.210724 0
M  V30 1374 H 135.099 1.89392 -0.1519 0
M  V30 1375 H 133.249 3.45496 1.77665 0
M  V30 1376 H 134.921 4.57641 -0.579851 0
M  V30 1377 H 133.164 4.29432 -0.614068 0
M  V30 1378 H 133.835 5.49817 0.490452 0
M  V30 1379 H 136.311 3.87189 1.52393 0
M  V30 1380 H 135.187 4.92822 2.41698 0
M  V30 1381 H 135.448 3.27973 2.96456 0
M  V30 1382 N 134.507 -0.190092 1.56449 0
M  V30 1383 C 135.437 -1.23816 1.97969 0
M  V30 1384 C 136.418 -1.47201 0.852395 0
M  V30 1385 O 137.603 -1.58854 1.1171 0
M  V30 1386 C 134.733 -2.5813 2.3235 0
M  V30 1387 C 133.687 -2.49348 3.47864 0
M  V30 1388 C 133.013 -3.8798 3.67934 0
M  V30 1389 C 134.313 -2.01424 4.81898 0
M  V30 1390 H 136.007 -0.89311 2.85769 0
M  V30 1391 H 133.553 -0.428177 1.37487 0
M  V30 1392 H 135.506 -3.31637 2.59991 0
M  V30 1393 H 134.23 -2.94386 1.41438 0
M  V30 1394 H 132.889 -1.78297 3.20321 0
M  V30 1395 H 132.537 -4.21597 2.74344 0
M  V30 1396 H 132.237 -3.82978 4.45648 0
M  V30 1397 H 133.761 -4.63101 3.97957 0
M  V30 1398 H 135.175 -2.64693 5.08538 0
M  V30 1399 H 133.572 -2.07413 5.63116 0
M  V30 1400 H 134.642 -0.967677 4.75146 0
M  V30 1401 N 135.985 -1.50799 -0.457987 0
M  V30 1402 C 136.895 -1.73426 -1.57989 0
M  V30 1403 C 137.911 -0.617745 -1.62665 0
M  V30 1404 O 139.087 -0.897614 -1.80291 0
M  V30 1405 C 136.152 -1.83557 -2.94122 0
M  V30 1406 C 135.213 -3.07345 -2.99729 0
M  V30 1407 C 134.446 -3.16983 -4.29368 0
M  V30 1408 O 134.669 -2.33077 -5.20607 0
M  V30 1409 O 133.603 -4.09812 -4.40837 0
M  V30 1410 H 137.429 -2.68555 -1.41817 0
M  V30 1411 H 135.014 -1.35052 -0.638859 0
M  V30 1412 H 136.896 -1.92326 -3.74952 0
M  V30 1413 H 135.571 -0.916137 -3.10465 0
M  V30 1414 H 134.478 -3.04068 -2.1793 0
M  V30 1415 H 135.811 -3.9891 -2.88326 0
M  V30 1416 N 137.463 0.71206 -1.40597 0
M  V30 1417 C 138.693 1.49894 -1.42181 0
M  V30 1418 C 139.101 1.89189 -0.0208078 0
M  V30 1419 O 138.444 1.56223 0.966436 0
M  V30 1420 C 138.506 2.80215 -2.25211 0
M  V30 1421 C 138.17 2.63221 -3.73582 0
M  V30 1422 C 139.167 2.30249 -4.66135 0
M  V30 1423 C 136.852 2.79376 -4.17438 0
M  V30 1424 C 138.846 2.13645 -6.00529 0
M  V30 1425 C 136.533 2.6239 -5.51901 0
M  V30 1426 C 137.531 2.29573 -6.43262 0
M  V30 1427 O 137.219 2.12719 -7.75246 0
M  V30 1428 H 136.951 0.469031 -0.486812 0
M  V30 1429 H 139.505 0.88564 -1.85326 0
M  V30 1430 H 137.735 3.4389 -1.76852 0
M  V30 1431 H 139.424 3.41947 -2.18694 0
M  V30 1432 H 140.19 2.17398 -4.33547 0
M  V30 1433 H 136.069 3.03906 -3.46644 0
M  V30 1434 H 139.613 1.87953 -6.71803 0
M  V30 1435 H 135.51 2.74826 -5.84073 0
M  V30 1436 H 136.278 2.27611 -7.86216 0
M  V30 1437 N 138.941 1.26152 0.944643 0
M  V30 1438 C 140.181 1.12708 1.70517 0
M  V30 1439 C 140.545 -0.324727 1.89234 0
M  V30 1440 O 141.746 -0.581211 2.62441 0
M  V30 1441 C 140.017 1.8713 3.04495 0
M  V30 1442 S 141.576 1.89698 3.95677 0
M  V30 1443 H 138.394 0.402665 0.585988 0
M  V30 1444 H 140.996 1.59821 1.12594 0
M  V30 1445 H 139.7 2.91833 2.88551 0
M  V30 1446 H 139.231 1.40444 3.67477 0
M  V30 1447 H 141.246 0.981198 4.86402 0
M  V30 1448 N 140.419 -1.14872 1.07899 0
M  V30 1449 C 141.835 -1.37776 0.805606 0
M  V30 1450 C 142.035 -1.92743 -0.587555 0
M  V30 1451 O 141.091 -2.13678 -1.34528 0
M  V30 1452 C 142.404 -2.34361 1.88402 0
M  V30 1453 C 143.952 -2.48012 1.90942 0
M  V30 1454 C 144.427 -3.47893 2.97883 0
M  V30 1455 N 145.918 -3.55433 2.97021 0
M  V30 1456 C 146.653 -4.32553 3.76412 0
M  V30 1457 N 146.149 -5.12959 4.65666 0
M  V30 1458 N 147.942 -4.27697 3.64735 0
M  V30 1459 H 140.093 -0.775365 1.97742 0
M  V30 1460 H 142.356 -0.403521 0.857831 0
M  V30 1461 H 142.062 -2.01098 2.88535 0
M  V30 1462 H 141.936 -3.34206 1.74889 0
M  V30 1463 H 144.323 -2.8057 0.914579 0
M  V30 1464 H 144.404 -1.48147 2.08534 0
M  V30 1465 H 144.048 -3.16069 3.97571 0
M  V30 1466 H 143.978 -4.47527 2.77538 0
M  V30 1467 H 146.469 -2.98048 2.32326 0
M  V30 1468 H 146.782 -5.69065 5.22862 0
M  V30 1469 H 145.127 -5.12245 4.69712 0
M  V30 1470 H 148.318 -3.63949 2.94378 0
M  V30 1471 H 148.491 -4.8755 4.26848 0
M  V30 1472 N 141.898 -0.863906 -1.31812 0
M  V30 1473 C 142.83 -0.272485 -2.27575 0
M  V30 1474 C 143.843 0.56104 -1.52827 0
M  V30 1475 O 145.032 0.384021 -1.7432 0
M  V30 1476 C 142.132 0.63283 -3.32939 0
M  V30 1477 C 141.305 -0.166902 -4.37081 0
M  V30 1478 C 140.364 0.665608 -5.21973 0
M  V30 1479 O 139.39 0.0958091 -5.69119 0
M  V30 1480 N 140.592 1.9787 -5.45736 0
M  V30 1481 H 143.357 -1.0954 -2.78964 0
M  V30 1482 H 140.918 -0.724791 -1.4477 0
M  V30 1483 H 142.91 1.19532 -3.86645 0
M  V30 1484 H 141.48 1.35642 -2.81638 0
M  V30 1485 H 140.7 -0.910838 -3.83533 0
M  V30 1486 H 141.988 -0.715874 -5.03739 0
M  V30 1487 H 141.386 2.46484 -5.09178 0
M  V30 1488 H 139.943 2.48911 -6.024 0
M  V30 1489 N 143.376 1.44774 -0.622745 0
M  V30 1490 C 144.309 2.27792 0.136329 0
M  V30 1491 C 145.287 1.38041 0.859264 0
M  V30 1492 O 146.471 1.67478 0.86506 0
M  V30 1493 C 143.598 3.16776 1.19878 0
M  V30 1494 C 142.644 4.22575 0.57731 0
M  V30 1495 S 143.477 5.31825 -0.626294 0
M  V30 1496 C 144.633 6.24377 0.436378 0
M  V30 1497 H 144.866 2.91824 -0.567967 0
M  V30 1498 H 142.399 1.48838 -0.410677 0
M  V30 1499 H 144.357 3.68596 1.80686 0
M  V30 1500 H 143.018 2.5198 1.87523 0
M  V30 1501 H 142.211 4.84818 1.37721 0
M  V30 1502 H 141.813 3.73974 0.0440439 0
M  V30 1503 H 144.105 6.64689 1.31128 0
M  V30 1504 H 145.048 7.07941 -0.150271 0
M  V30 1505 H 145.456 5.59381 0.758513 0
M  V30 1506 N 144.854 0.36279 1.53368 0
M  V30 1507 C 146.084 -0.228281 2.05335 0
M  V30 1508 C 146.492 -1.43226 1.23625 0
M  V30 1509 O 145.835 -1.81717 0.269206 0
M  V30 1510 C 145.897 -0.688549 3.52845 0
M  V30 1511 C 145.561 0.398362 4.5526 0
M  V30 1512 C 146.558 1.24732 5.04716 0
M  V30 1513 C 144.243 0.557805 4.99193 0
M  V30 1514 C 146.237 2.2411 5.96702 0
M  V30 1515 C 143.924 1.55495 5.90986 0
M  V30 1516 C 144.922 2.39503 6.39631 0
M  V30 1517 O 144.61 3.37517 7.29615 0
M  V30 1518 H 144.342 -0.044395 0.674541 0
M  V30 1519 H 146.896 0.518668 1.98744 0
M  V30 1520 H 145.126 -1.48706 3.56964 0
M  V30 1521 H 146.815 -1.20231 3.87685 0
M  V30 1522 H 147.581 1.13532 4.71525 0
M  V30 1523 H 143.46 -0.0862959 4.60919 0
M  V30 1524 H 147.004 2.89718 6.34594 0
M  V30 1525 H 142.901 1.66744 6.23592 0
M  V30 1526 H 143.669 3.33213 7.47604 0
M  V30 1527 N 146.332 -1.57332 0.0918853 0
M  V30 1528 C 147.743 -1.81496 -0.437739 0
M  V30 1529 C 148.094 -1.00727 -1.6837 0
M  V30 1530 O 147.219 -0.235694 -2.15113 0
M  V30 1531 C 147.814 -3.29197 -0.800939 0
M  V30 1532 C 146.373 -3.54136 -1.27532 0
M  V30 1533 C 145.52 -2.75979 -0.270392 0
M  V30 1534 H 148.471 -1.55494 0.317366 0
M  V30 1535 H 148.492 -3.42344 -1.66074 0
M  V30 1536 H 148.004 -3.87955 0.106078 0
M  V30 1537 H 146.105 -3.00705 -2.20016 0
M  V30 1538 H 146.218 -4.62792 -1.23938 0
M  V30 1539 H 144.582 -2.43349 -0.751872 0
M  V30 1540 H 145.365 -3.37484 0.629248 0
M  V30 1541 N 147.81 0.181792 -1.56548 0
M  V30 1542 C 148.72 1.24538 -1.98815 0
M  V30 1543 C 149.736 1.49045 -0.897861 0
M  V30 1544 O 150.912 1.61399 -1.20467 0
M  V30 1545 C 147.977 2.56683 -2.33055 0
M  V30 1546 C 147.038 2.40131 -3.55859 0
M  V30 1547 C 146.271 3.65975 -3.88456 0
M  V30 1548 O 146.494 4.70711 -3.22161 0
M  V30 1549 O 145.428 3.6071 -4.81842 0
M  V30 1550 H 149.254 0.916647 -2.89536 0
M  V30 1551 H 146.839 0.387842 -1.44278 0
M  V30 1552 H 148.721 3.34655 -2.56094 0
M  V30 1553 H 147.396 2.89157 -1.45498 0
M  V30 1554 H 146.303 1.60226 -3.38051 0
M  V30 1555 H 147.636 2.12585 -4.43924 0
M  V30 1556 N 149.288 1.51039 0.449983 0
M  V30 1557 C 150.218 1.74379 1.55288 0
M  V30 1558 C 151.199 0.593236 1.5942 0
M  V30 1559 O 152.384 0.834625 1.7535 0
M  V30 1560 C 149.514 1.85728 2.93466 0
M  V30 1561 C 148.468 3.01078 3.04197 0
M  V30 1562 C 147.794 2.97595 4.44231 0
M  V30 1563 C 149.094 4.41254 2.7945 0
M  V30 1564 H 150.788 2.66725 1.36008 0
M  V30 1565 H 148.334 1.2835 0.652864 0
M  V30 1566 H 150.287 2.0064 3.70569 0
M  V30 1567 H 149.011 0.900207 3.13949 0
M  V30 1568 H 147.67 2.85851 2.29531 0
M  V30 1569 H 147.318 1.99691 4.61663 0
M  V30 1570 H 147.018 3.75046 4.52343 0
M  V30 1571 H 148.542 3.14583 5.23326 0
M  V30 1572 H 149.956 4.56897 3.46292 0
M  V30 1573 H 148.353 5.20315 2.98985 0
M  V30 1574 H 149.423 4.52164 1.75144 0
M  V30 1575 N 150.766 -0.704594 1.40972 0
M  V30 1576 C 151.698 -1.82974 1.38033 0
M  V30 1577 C 152.711 -1.60305 0.283931 0
M  V30 1578 O 153.9 -1.69975 0.545042 0
M  V30 1579 C 151 -3.19578 1.12795 0
M  V30 1580 C 150.173 -3.69352 2.34302 0
M  V30 1581 C 149.232 -4.84601 2.05058 0
M  V30 1582 O 148.258 -4.96682 2.7802 0
M  V30 1583 N 149.46 -5.71194 1.03528 0
M  V30 1584 H 152.225 -1.85991 2.35005 0
M  V30 1585 H 149.786 -0.886567 1.35468 0
M  V30 1586 H 151.778 -3.9429 0.911987 0
M  V30 1587 H 150.348 -3.11642 0.24452 0
M  V30 1588 H 149.568 -2.85649 2.71659 0
M  V30 1589 H 150.856 -3.99345 3.1528 0
M  V30 1590 H 150.254 -5.64054 0.431217 0
M  V30 1591 H 148.811 -6.45843 0.879205 0
M  V30 1592 N 152.244 -1.26651 -0.937939 0
M  V30 1593 C 153.493 -1.11775 -1.67897 0
M  V30 1594 C 153.806 0.33794 -1.92659 0
M  V30 1595 O 155.012 0.607434 -2.64618 0
M  V30 1596 C 153.468 -1.9523 -3.02346 0
M  V30 1597 C 153.076 -3.45393 -2.8532 0
M  V30 1598 C 154.82 -1.88972 -3.80118 0
M  V30 1599 C 152.727 -4.21083 -4.15263 0
M  V30 1600 H 151.657 -0.414696 -0.629717 0
M  V30 1601 H 154.308 -1.50988 -1.04283 0
M  V30 1602 H 152.69 -1.48853 -3.66959 0
M  V30 1603 H 153.864 -3.99561 -2.29537 0
M  V30 1604 H 152.179 -3.52921 -2.20988 0
M  V30 1605 H 154.776 -2.42805 -4.76392 0
M  V30 1606 H 155.119 -0.86113 -4.07296 0
M  V30 1607 H 155.652 -2.33189 -3.22285 0
M  V30 1608 H 152.391 -5.24425 -3.93267 0
M  V30 1609 H 151.911 -3.71695 -4.70747 0
M  V30 1610 H 153.59 -4.29706 -4.83696 0
M  V30 1611 N 153.722 1.14298 -1.08507 0
M  V30 1612 C 154.685 2.17607 -0.719711 0
M  V30 1613 C 155.685 1.58907 0.245997 0
M  V30 1614 O 156.875 1.74181 0.0254081 0
M  V30 1615 C 154.007 3.40842 -0.0627695 0
M  V30 1616 H 155.2 2.51443 -1.63452 0
M  V30 1617 H 152.753 1.28963 -0.88307 0
M  V30 1618 H 153.488 3.12587 0.863716 0
M  V30 1619 H 153.273 3.84713 -0.757504 0
M  V30 1620 H 154.763 4.17221 0.177786 0
M  V30 1621 N 155.201 0.870884 1.31352 0
M  V30 1622 C 156.617 0.562932 1.49343 0
M  V30 1623 C 156.817 -0.902725 1.80148 0
M  V30 1624 O 155.873 -1.68484 1.88067 0
M  V30 1625 C 157.186 1.46393 2.62659 0
M  V30 1626 C 158.734 1.46607 2.76542 0
M  V30 1627 C 159.209 2.35266 3.92955 0
M  V30 1628 N 160.7 2.33151 4.00243 0
M  V30 1629 C 161.435 2.98471 4.89594 0
M  V30 1630 N 160.931 3.72964 5.8384 0
M  V30 1631 N 162.724 2.87775 4.82848 0
M  V30 1632 H 154.875 1.81923 1.09626 0
M  V30 1633 H 157.138 0.777934 0.541777 0
M  V30 1634 H 156.844 2.50689 2.46674 0
M  V30 1635 H 156.718 1.16314 3.58819 0
M  V30 1636 H 159.105 0.43069 2.9194 0
M  V30 1637 H 159.186 1.8071 1.81046 0
M  V30 1638 H 158.83 3.38881 3.78315 0
M  V30 1639 H 158.76 1.98487 4.87761 0
M  V30 1640 H 161.251 1.79006 3.32814 0
M  V30 1641 H 161.564 4.19932 6.4875 0
M  V30 1642 H 159.909 3.77073 5.83816 0
M  V30 1643 H 163.1 2.29116 4.08195 0
M  V30 1644 H 163.273 3.38961 5.52277 0
M  V30 1645 N 156.679 -1.44442 0.630414 0
M  V30 1646 C 157.925 -2.02351 0.134816 0
M  V30 1647 C 158.258 -1.4947 -1.23986 0
M  V30 1648 O 157.533 -0.678475 -1.82283 0
M  V30 1649 C 157.816 -3.59898 0.120707 0
M  V30 1650 C 157.669 -4.23063 1.52767 0
M  V30 1651 C 158.988 -4.36585 -0.555127 0
M  V30 1652 H 156.107 -0.73527 0.0504646 0
M  V30 1653 H 158.749 -1.72022 0.806751 0
M  V30 1654 H 156.899 -3.85868 -0.451477 0
M  V30 1655 H 158.571 -4.08202 2.14869 0
M  V30 1656 H 156.814 -3.80586 2.08175 0
M  V30 1657 H 157.485 -5.32071 1.46984 0
M  V30 1658 H 159.961 -4.16044 -0.0685429 0
M  V30 1659 H 158.837 -5.46294 -0.534185 0
M  V30 1660 H 159.098 -4.11138 -1.62535 0
M  V30 1661 N 158.157 -0.370918 -1.53173 0
M  V30 1662 C 159.067 0.480823 -2.2962 0
M  V30 1663 C 160.083 1.08789 -1.35798 0
M  V30 1664 O 161.259 1.09768 -1.68858 0
M  V30 1665 C 158.324 1.60227 -3.07454 0
M  V30 1666 C 157.385 1.0222 -4.16953 0
M  V30 1667 C 156.618 2.0902 -4.91066 0
M  V30 1668 O 156.841 3.30222 -4.65091 0
M  V30 1669 O 155.775 1.71778 -5.76867 0
M  V30 1670 H 159.601 -0.141421 -3.03371 0
M  V30 1671 H 157.186 -0.135146 -1.48787 0
M  V30 1672 H 159.068 2.25417 -3.56041 0
M  V30 1673 H 157.743 2.20982 -2.36535 0
M  V30 1674 H 156.65 0.334064 -3.72605 0
M  V30 1675 H 157.983 0.459131 -4.90054 0
M  V30 1676 N 159.635 1.57281 -0.100228 0
M  V30 1677 C 160.567 2.11342 0.886972 0
M  V30 1678 C 161.58 1.05182 1.24261 0
M  V30 1679 O 162.769 1.32613 1.19483 0
M  V30 1680 C 159.869 2.5825 2.19454 0
M  V30 1681 C 159.042 3.88302 2.01346 0
M  V30 1682 C 158.101 4.21004 3.15661 0
M  V30 1683 O 157.127 4.9014 2.89398 0
M  V30 1684 N 158.329 3.76818 4.41575 0
M  V30 1685 H 161.094 2.96668 0.425216 0
M  V30 1686 H 158.655 1.61678 0.0847334 0
M  V30 1687 H 160.647 2.7717 2.94888 0
M  V30 1688 H 159.217 1.77907 2.57037 0
M  V30 1689 H 158.437 3.7848 1.10212 0
M  V30 1690 H 159.725 4.73375 1.8653 0
M  V30 1691 H 159.123 3.2102 4.65792 0
M  V30 1692 H 157.68 4.00882 5.13942 0
M  V30 1693 N 161.113 -0.173488 1.56642 0
M  V30 1694 C 162.076 -1.19859 1.95362 0
M  V30 1695 C 163.076 -1.37296 0.83704 0
M  V30 1696 O 164.266 -1.34739 1.10413 0
M  V30 1697 C 161.398 -2.56405 2.24654 0
M  V30 1698 H 162.591 -0.867062 2.87092 0
M  V30 1699 H 160.144 -0.415853 1.50666 0
M  V30 1700 H 160.879 -2.94576 1.35631 0
M  V30 1701 H 160.664 -2.45115 3.06041 0
M  V30 1702 H 162.154 -3.30287 2.5554 0
M  V30 1703 N 162.591 -1.51276 -0.441967 0
M  V30 1704 C 163.819 -1.67516 -1.21434 0
M  V30 1705 C 164.234 -0.37055 -1.85128 0
M  V30 1706 O 163.591 0.650498 -1.70513 0
M  V30 1707 C 163.642 -2.78748 -2.30177 0
M  V30 1708 O 163.363 -4.04154 -1.69089 0
M  V30 1709 C 164.864 -3.06217 -3.20541 0
M  V30 1710 H 162.084 -0.562276 -0.366178 0
M  V30 1711 H 164.628 -1.97666 -0.524244 0
M  V30 1712 H 162.783 -2.5121 -2.94911 0
M  V30 1713 H 163.197 -4.65894 -2.40922 0
M  V30 1714 H 164.671 -3.8764 -3.92987 0
M  V30 1715 H 165.148 -2.18439 -3.81026 0
M  V30 1716 H 165.754 -3.35397 -2.61513 0
M  V30 1717 N 164.069 0.697108 -1.41344 0
M  V30 1718 C 165.001 1.8224 -1.39001 0
M  V30 1719 C 166.014 1.60152 -0.292428 0
M  V30 1720 O 167.203 1.69684 -0.554048 0
M  V30 1721 C 164.303 3.18976 -1.14489 0
M  V30 1722 C 163.476 3.68105 -2.36258 0
M  V30 1723 C 162.535 4.83506 -2.07625 0
M  V30 1724 O 161.561 4.95201 -2.8065 0
M  V30 1725 N 162.763 5.70637 -1.06555 0
M  V30 1726 H 165.528 1.84742 -2.35988 0
M  V30 1727 H 163.089 0.87937 -1.35936 0
M  V30 1728 H 165.081 3.93801 -0.932885 0
M  V30 1729 H 163.651 3.11508 -0.261043 0
M  V30 1730 H 162.871 2.84204 -2.7317 0
M  V30 1731 H 164.159 3.97667 -3.17393 0
M  V30 1732 H 163.557 5.63817 -0.461125 0
M  V30 1733 H 162.114 6.45368 -0.913444 0
M  V30 1734 N 165.547 1.27147 0.931209 0
M  V30 1735 C 166.51 1.09615 2.01289 0
M  V30 1736 C 167.51 0.0412581 1.60747 0
M  V30 1737 O 168.7 0.285545 1.71844 0
M  V30 1738 C 165.832 0.669447 3.34262 0
M  V30 1739 H 167.025 2.05662 2.18273 0
M  V30 1740 H 164.578 1.09885 1.11153 0
M  V30 1741 H 165.313 -0.292572 3.22978 0
M  V30 1742 H 165.098 1.43127 3.65044 0
M  V30 1743 H 166.588 0.568921 4.13706 0
M  V30 1744 N 167.025 -1.13721 1.09112 0
M  V30 1745 C 168.274 -1.84275 0.82009 0
M  V30 1746 C 168.587 -1.84253 -0.656509 0
M  V30 1747 O 169.793 -2.50668 -1.04296 0
M  V30 1748 C 168.249 -3.30825 1.41714 0
M  V30 1749 C 167.857 -3.39244 2.92605 0
M  V30 1750 C 169.601 -4.06443 1.22492 0
M  V30 1751 C 167.508 -4.80047 3.45411 0
M  V30 1752 H 166.438 -0.690387 0.30312 0
M  V30 1753 H 169.089 -1.28146 1.31343 0
M  V30 1754 H 167.471 -3.86737 0.851498 0
M  V30 1755 H 168.645 -2.93344 3.55367 0
M  V30 1756 H 166.96 -2.77088 3.10823 0
M  V30 1757 H 169.557 -5.10387 1.59402 0
M  V30 1758 H 169.9 -4.15972 0.165299 0
M  V30 1759 H 170.433 -3.56852 1.75788 0
M  V30 1760 H 167.172 -4.75709 4.50978 0
M  V30 1761 H 166.692 -5.26455 2.87411 0
M  V30 1762 H 168.371 -5.48957 3.42425 0
M  V30 1763 N 168.503 -0.877838 -1.30888 0
M  V30 1764 C 169.914 -0.544193 -1.78593 0
M  V30 1765 C 170.265 0.939301 -1.72254 0
M  V30 1766 O 169.39 1.7337 -1.29505 0
M  V30 1767 C 169.985 -0.98105 -3.24285 0
M  V30 1768 C 168.544 -0.698935 -3.69854 0
M  V30 1769 C 167.691 -1.168 -2.51502 0
M  V30 1770 H 170.642 -1.06278 -1.17859 0
M  V30 1771 H 170.663 -0.307009 -3.79259 0
M  V30 1772 H 170.175 -2.06079 -3.28866 0
M  V30 1773 H 168.276 0.369112 -3.70767 0
M  V30 1774 H 168.389 -1.28148 -4.61644 0
M  V30 1775 H 166.753 -0.587535 -2.47831 0
M  V30 1776 H 167.536 -2.25533 -2.58824 0
M  V30 1777 N 169.982 1.44106 -0.638065 0
M  V30 1778 C 170.915 2.27924 0.112161 0
M  V30 1779 C 171.893 1.38945 0.844574 0
M  V30 1780 O 173.077 1.68386 0.847248 0
M  V30 1781 C 170.204 3.18029 1.16512 0
M  V30 1782 C 169.25 4.23163 0.532458 0
M  V30 1783 S 170.083 5.31131 -0.682666 0
M  V30 1784 C 171.239 6.24805 0.37013 0
M  V30 1785 H 171.472 2.91205 -0.598887 0
M  V30 1786 H 169.005 1.48394 -0.426441 0
M  V30 1787 H 170.963 3.70492 1.76766 0
M  V30 1788 H 169.624 2.53955 1.8484 0
M  V30 1789 H 168.817 4.86252 1.32571 0
M  V30 1790 H 168.419 3.74 0.00437644 0
M  V30 1791 H 170.711 6.66042 1.24071 0
M  V30 1792 H 171.654 7.07741 -0.225349 0
M  V30 1793 H 172.062 5.60154 0.699141 0
M  V30 1794 N 171.46 0.379036 1.52974 0
M  V30 1795 C 172.37 -0.468639 2.29872 0
M  V30 1796 C 173.386 -1.08067 1.36373 0
M  V30 1797 O 174.562 -1.08871 1.69438 0
M  V30 1798 C 171.627 -1.58594 3.083 0
M  V30 1799 C 170.688 -1.00007 4.17489 0
M  V30 1800 C 169.921 -2.06413 4.92168 0
M  V30 1801 O 170.144 -3.27751 4.66835 0
M  V30 1802 O 169.078 -1.68717 5.7777 0
M  V30 1803 H 172.904 0.157508 3.03291 0
M  V30 1804 H 170.489 0.143035 1.48714 0
M  V30 1805 H 172.371 -2.23525 3.57232 0
M  V30 1806 H 171.046 -2.19724 2.37703 0
M  V30 1807 H 169.953 -0.314299 3.72777 0
M  V30 1808 H 171.286 -0.433135 4.90291 0
M  V30 1809 N 172.938 -1.57226 0.108567 0
M  V30 1810 C 174.354 -1.5766 -0.248058 0
M  V30 1811 C 174.554 -1.12063 -1.67464 0
M  V30 1812 O 173.61 -0.803236 -2.39383 0
M  V30 1813 C 174.923 -3.0069 -0.0242287 0
M  V30 1814 C 176.471 -3.12868 -0.0909372 0
M  V30 1815 C 176.946 -4.57879 0.105067 0
M  V30 1816 N 178.437 -4.63172 0.0506846 0
M  V30 1817 C 179.172 -5.73126 0.177396 0
M  V30 1818 N 178.668 -6.91866 0.359696 0
M  V30 1819 N 180.461 -5.61977 0.117709 0
M  V30 1820 H 172.612 -1.85169 1.04049 0
M  V30 1821 H 174.875 -0.85529 0.40888 0
M  V30 1822 H 174.581 -3.38299 0.961604 0
M  V30 1823 H 174.455 -3.6945 -0.76068 0
M  V30 1824 H 176.842 -2.75124 -1.06729 0
M  V30 1825 H 176.923 -2.46672 0.677225 0
M  V30 1826 H 176.567 -4.96321 1.07834 0
M  V30 1827 H 176.497 -5.22153 -0.682954 0
M  V30 1828 H 178.988 -3.778 -0.0871266 0
M  V30 1829 H 179.301 -7.71503 0.447529 0
M  V30 1830 H 177.646 -6.93874 0.395536 0
M  V30 1831 H 180.837 -4.68094 -0.0236741 0
M  V30 1832 H 181.01 -6.47627 0.219905 0
M  V30 1833 N 174.416 0.165178 -1.56732 0
M  V30 1834 C 175.662 0.877389 -1.83503 0
M  V30 1835 C 176.017 1.79602 -0.689996 0
M  V30 1836 O 175.31 1.89023 0.313205 0
M  V30 1837 C 175.504 1.70405 -3.1416 0
M  V30 1838 C 175.333 0.866961 -4.41264 0
M  V30 1839 C 174.103 0.539646 -5.0241 0
M  V30 1840 C 176.301 0.205671 -5.13889 0
M  V30 1841 N 174.283 -0.312946 -6.13102 0
M  V30 1842 C 175.654 -0.507823 -6.17917 0
M  V30 1843 C 177.709 0.124468 -4.97744 0
M  V30 1844 C 176.412 -1.29483 -7.0755 0
M  V30 1845 C 178.438 -0.649222 -5.87826 0
M  V30 1846 C 177.8 -1.35106 -6.91322 0
M  V30 1847 H 173.899 0.299477 -0.722383 0
M  V30 1848 H 176.483 0.143949 -1.94167 0
M  V30 1849 H 174.654 2.40887 -3.04677 0
M  V30 1850 H 176.386 2.35804 -3.28905 0
M  V30 1851 H 173.141 0.871176 -4.65519 0
M  V30 1852 H 173.565 -0.729731 -6.73056 0
M  V30 1853 H 178.207 0.652724 -4.17731 0
M  V30 1854 H 175.925 -1.83441 -7.87004 0
M  V30 1855 H 179.511 -0.713804 -5.77405 0
M  V30 1856 H 178.391 -1.94013 -7.59821 0
M  V30 1857 N 175.894 1.51508 0.433938 0
M  V30 1858 C 177.134 1.66006 1.19253 0
M  V30 1859 C 177.498 0.369868 1.88404 0
M  V30 1860 O 178.699 0.39066 2.65946 0
M  V30 1861 C 176.97 2.83229 2.17981 0
M  V30 1862 S 178.529 3.18075 3.02281 0
M  V30 1863 H 175.347 0.584821 0.404358 0
M  V30 1864 H 177.949 1.89425 0.48357 0
M  V30 1865 H 176.653 3.75407 1.65824 0
M  V30 1866 H 176.184 2.6201 2.93453 0
M  V30 1867 H 178.199 2.64772 4.19655 0
M  V30 1868 N 177.372 -0.689602 1.41712 0
M  V30 1869 C 178.62 -1.4468 1.4111 0
M  V30 1870 C 178.941 -1.94986 0.0232196 0
M  V30 1871 O 178.211 -1.72097 -0.935913 0
M  V30 1872 H 176.791 -0.536847 0.519427 0
M  V30 1873 H 179.453 -0.815825 1.77004 0
M  V30 1874 H 178.549 -2.30706 2.10193 0
M  V30 1875 N 178.85 -1.27639 -0.924453 0
M  V30 1876 C 180.098 -1.13941 -1.66918 0
M  V30 1877 C 180.419 0.314589 -1.92446 0
M  V30 1878 O 179.689 1.21964 -1.53303 0
M  V30 1879 H 178.269 -0.418678 -0.618642 0
M  V30 1880 H 180.931 -1.60213 -1.10985 0
M  V30 1881 H 180.027 -1.67094 -2.63602 0
M  V30 1882 N 180.328 1.1314 -1.09713 0
M  V30 1883 C 181.553 1.88862 -0.857081 0
M  V30 1884 C 181.978 1.78729 0.586304 0
M  V30 1885 O 181.336 1.13692 1.41222 0
M  V30 1886 C 181.384 3.36325 -1.30069 0
M  V30 1887 O 180.488 4.09815 -0.461007 0
M  V30 1888 H 179.829 0.587108 -0.310162 0
M  V30 1889 H 182.359 1.43129 -1.46203 0
M  V30 1890 H 182.369 3.87157 -1.28738 0
M  V30 1891 H 181.044 3.43017 -2.35185 0
M  V30 1892 H 179.621 3.68986 -0.538888 0
M  V30 1893 N 181.806 0.884767 1.30421 0
M  V30 1894 C 183.222 0.57874 1.48737 0
M  V30 1895 C 183.422 -0.883567 1.81095 0
M  V30 1896 O 182.478 -1.6648 1.89844 0
M  V30 1897 C 183.791 1.49171 2.61091 0
M  V30 1898 C 185.339 1.49532 2.74971 0
M  V30 1899 C 185.814 2.39421 3.90438 0
M  V30 1900 N 187.305 2.37383 3.97748 0
M  V30 1901 C 188.04 3.03647 4.86401 0
M  V30 1902 N 187.536 3.79136 5.79852 0
M  V30 1903 N 189.329 2.9288 4.79768 0
M  V30 1904 H 181.48 1.83075 1.0769 0
M  V30 1905 H 183.743 0.783637 0.533495 0
M  V30 1906 H 183.449 2.53291 2.44001 0
M  V30 1907 H 183.323 1.20113 3.57565 0
M  V30 1908 H 185.71 0.46163 2.91467 0
M  V30 1909 H 185.791 1.8262 1.79119 0
M  V30 1910 H 185.435 3.42874 3.74699 0
M  V30 1911 H 185.365 2.03649 4.85628 0
M  V30 1912 H 187.856 1.82525 3.30897 0
M  V30 1913 H 188.169 4.26789 6.4426 0
M  V30 1914 H 186.514 3.83243 5.79784 0
M  V30 1915 H 189.705 2.33433 4.05742 0
M  V30 1916 H 189.878 3.448 5.4865 0
M  V30 1917 N 183.284 -1.43765 0.645699 0
M  V30 1918 C 184.509 -2.06767 0.161883 0
M  V30 1919 C 184.934 -1.48034 -1.16049 0
M  V30 1920 O 184.292 -0.587369 -1.71522 0
M  V30 1921 C 184.34 -3.60519 0.0762003 0
M  V30 1922 O 183.444 -4.00982 -0.963721 0
M  V30 1923 H 182.785 -0.657675 0.091429 0
M  V30 1924 H 185.315 -1.84397 0.886499 0
M  V30 1925 H 185.325 -4.07853 -0.109604 0
M  V30 1926 H 184 -4.02646 1.04157 0
M  V30 1927 H 182.577 -3.65253 -0.751312 0
M  V30 1928 N 184.763 -0.387143 -1.52771 0
M  V30 1929 C 186.011 0.195349 -2.01154 0
M  V30 1930 C 186.332 1.475 -1.27549 0
M  V30 1931 O 185.602 1.91878 -0.394924 0
M  V30 1932 H 184.182 0.075178 -0.743207 0
M  V30 1933 H 186.844 -0.518337 -1.87881 0
M  V30 1934 H 185.94 0.407096 -3.09434 0
M  V30 1935 N 186.241 1.57166 -0.116904 0
M  V30 1936 C 187.466 1.999 0.55271 0
M  V30 1937 C 187.891 0.996039 1.59564 0
M  V30 1938 O 187.249 -0.032556 1.81271 0
M  V30 1939 C 187.297 3.4152 1.15742 0
M  V30 1940 O 186.401 3.44106 2.27299 0
M  V30 1941 H 185.742 0.649447 0.138258 0
M  V30 1942 H 188.272 2.03573 -0.204759 0
M  V30 1943 H 188.282 3.79684 1.49346 0
M  V30 1944 H 186.957 4.14034 0.393493 0
M  V30 1945 H 185.534 3.17759 1.9515 0
M  V30 1946 N 187.719 -0.156864 1.56817 0
M  V30 1947 C 188.959 -0.877453 1.84608 0
M  V30 1948 C 189.323 -1.78791 0.699845 0
M  V30 1949 O 190.524 -2.5472 0.858553 0
M  V30 1950 C 188.795 -1.63992 3.17555 0
M  V30 1951 S 190.354 -2.40729 3.66872 0
M  V30 1952 H 187.172 -0.293612 0.647544 0
M  V30 1953 H 189.774 -0.138099 1.95012 0
M  V30 1954 H 188.478 -0.962363 3.98957 0
M  V30 1955 H 188.009 -2.42038 3.10131 0
M  V30 1956 H 190.024 -3.65725 3.3535 0
M  V30 1957 N 189.197 -1.51736 -0.425897 0
M  V30 1958 C 190.16 -1.73271 -1.50032 0
M  V30 1959 C 191.16 -0.602639 -1.4908 0
M  V30 1960 O 192.35 -0.87033 -1.509 0
M  V30 1961 C 189.482 -1.79969 -2.89523 0
M  V30 1962 H 190.675 -2.69172 -1.32237 0
M  V30 1963 H 188.228 -1.41899 -0.65532 0
M  V30 1964 H 188.963 -0.859241 -3.1271 0
M  V30 1965 H 188.748 -2.62109 -2.91619 0
M  V30 1966 H 190.238 -1.9843 -3.67444 0
M  V30 1967 N 190.675 0.682077 -1.42076 0
M  V30 1968 C 191.625 1.78823 -1.41444 0
M  V30 1969 C 192.609 1.58323 -0.28681 0
M  V30 1970 O 193.801 1.68926 -0.528498 0
M  V30 1971 C 190.93 3.17232 -1.3122 0
M  V30 1972 C 190.016 3.4338 -2.489 0
M  V30 1973 N 190.407 3.40152 -3.7434 0
M  V30 1974 C 188.705 3.73986 -2.43003 0
M  V30 1975 C 189.406 3.65581 -4.52466 0
M  V30 1976 N 188.382 3.85989 -3.8277 0
M  V30 1977 H 192.184 1.7471 -2.36334 0
M  V30 1978 H 189.698 0.882622 -1.36321 0
M  V30 1979 H 191.695 3.96489 -1.2885 0
M  V30 1980 H 190.355 3.22547 -0.373263 0
M  V30 1981 H 191.366 3.20221 -4.07037 0
M  V30 1982 H 188.043 3.86591 -1.57651 0
M  V30 1983 H 189.433 3.69108 -5.61435 0
M  V30 1984 N 192.153 1.28127 0.917671 0
M  V30 1985 C 193.564 1.13622 1.48145 0
M  V30 1986 C 193.915 -0.275207 1.9426 0
M  V30 1987 O 193.04 -1.1691 1.82102 0
M  V30 1988 C 193.635 2.05648 2.69248 0
M  V30 1989 C 192.194 1.95219 3.21818 0
M  V30 1990 C 191.341 1.97618 1.94532 0
M  V30 1991 H 194.292 1.40874 0.730772 0
M  V30 1992 H 194.313 1.61818 3.44377 0
M  V30 1993 H 193.825 3.08365 2.35653 0
M  V30 1994 H 191.926 0.955244 3.60147 0
M  V30 1995 H 192.039 2.81976 3.87333 0
M  V30 1996 H 190.403 1.41973 2.11461 0
M  V30 1997 H 191.186 3.02007 1.63238 0
M  V30 1998 N 193.631 -1.12557 1.10312 0
M  V30 1999 C 194.581 -2.16331 0.720076 0
M  V30 2000 C 195.565 -1.58616 -0.270115 0
M  V30 2001 O 196.757 -1.76823 -0.0790507 0
M  V30 2002 C 193.886 -3.42963 0.152113 0
M  V30 2003 C 192.972 -4.07663 1.16927 0
M  V30 2004 N 193.363 -4.47392 2.35953 0
M  V30 2005 C 191.661 -4.34425 1.0095 0
M  V30 2006 C 192.362 -4.97932 3.0073 0
M  V30 2007 N 191.338 -4.93358 2.28252 0
M  V30 2008 H 195.14 -2.44813 1.62616 0
M  V30 2009 H 192.654 -1.29449 0.980654 0
M  V30 2010 H 194.651 -4.16664 -0.14037 0
M  V30 2011 H 193.311 -3.1595 -0.748701 0
M  V30 2012 H 194.322 -4.39802 2.73486 0
M  V30 2013 H 190.999 -4.17177 0.164134 0
M  V30 2014 H 192.389 -5.38397 4.01969 0
M  V30 2015 N 195.109 -0.891671 -1.2995 0
M  V30 2016 C 196.059 -0.334811 -2.25528 0
M  V30 2017 C 197.043 0.540553 -1.51548 0
M  V30 2018 O 198.235 0.383882 -1.72787 0
M  V30 2019 C 195.364 0.44374 -3.4042 0
M  V30 2020 C 194.45 -0.44609 -4.21747 0
M  V30 2021 N 194.841 -1.54963 -4.81477 0
M  V30 2022 C 193.139 -0.242415 -4.45341 0
M  V30 2023 C 193.84 -2.10015 -5.42465 0
M  V30 2024 N 192.816 -1.39423 -5.25416 0
M  V30 2025 H 196.618 -1.17792 -2.69262 0
M  V30 2026 H 194.132 -0.741822 -1.44467 0
M  V30 2027 H 196.129 0.859362 -4.07947 0
M  V30 2028 H 194.789 1.28421 -2.98225 0
M  V30 2029 H 195.8 -1.93244 -4.80497 0
M  V30 2030 H 192.477 0.560342 -4.13723 0
M  V30 2031 H 193.867 -3.02724 -5.9984 0
M  V30 2032 N 196.587 1.43421 -0.653314 0
M  V30 2033 C 197.519 2.29071 0.0769134 0
M  V30 2034 C 198.532 1.42513 0.787017 0
M  V30 2035 O 199.721 1.66449 0.644757 0
M  V30 2036 C 196.821 3.19436 1.13199 0
M  V30 2037 C 195.994 4.34533 0.500006 0
M  V30 2038 C 195.053 5.05771 1.45198 0
M  V30 2039 O 194.079 5.61037 0.960538 0
M  V30 2040 N 195.281 5.0928 2.78594 0
M  V30 2041 H 198.046 2.92382 -0.658235 0
M  V30 2042 H 195.607 1.54112 -0.496104 0
M  V30 2043 H 197.599 3.63958 1.76964 0
M  V30 2044 H 196.169 2.57724 1.7691 0
M  V30 2045 H 195.389 3.92925 -0.316738 0
M  V30 2046 H 196.677 5.08766 0.0588345 0
M  V30 2047 H 196.075 4.65751 3.2108 0
M  V30 2048 H 194.632 5.57519 3.37662 0
M  V30 2049 N 198.065 0.39524 1.52563 0
M  V30 2050 C 199.311 -0.185318 2.01952 0
M  V30 2051 C 199.644 -1.45964 1.28095 0
M  V30 2052 O 198.919 -1.90689 0.38315 0
M  V30 2053 C 199.202 -0.447193 3.57312 0
M  V30 2054 C 199.055 0.842828 4.41833 0
M  V30 2055 C 200.374 -1.23529 4.22408 0
M  V30 2056 H 197.493 -0.0658788 0.73405 0
M  V30 2057 H 200.135 0.525975 1.82575 0
M  V30 2058 H 198.285 -1.05312 3.73954 0
M  V30 2059 H 199.957 1.4795 4.36931 0
M  V30 2060 H 198.2 1.45686 4.08605 0
M  V30 2061 H 198.871 0.614165 5.48573 0
M  V30 2062 H 201.347 -0.722445 4.0978 0
M  V30 2063 H 200.223 -1.38727 5.3108 0
M  V30 2064 H 200.484 -2.25213 3.80436 0
M  V30 2065 N 199.544 -1.57102 0.125237 0
M  V30 2066 C 200.79 -1.95697 -0.532035 0
M  V30 2067 C 201.123 -1.009 -1.6593 0
M  V30 2068 O 200.398 -0.047347 -1.94442 0
M  V30 2069 C 200.681 -3.44181 -1.05884 0
M  V30 2070 C 200.534 -4.49752 0.0654392 0
M  V30 2071 C 201.853 -3.94655 -1.9477 0
M  V30 2072 H 198.972 -0.711571 -0.191925 0
M  V30 2073 H 201.614 -1.88923 0.20206 0
M  V30 2074 H 199.764 -3.50085 -1.68442 0
M  V30 2075 H 201.436 -4.55943 0.700982 0
M  V30 2076 H 199.679 -4.27653 0.727709 0
M  V30 2077 H 200.35 -5.50924 -0.344505 0
M  V30 2078 H 202.826 -3.91094 -1.42074 0
M  V30 2079 H 201.702 -4.99057 -2.28546 0
M  V30 2080 H 201.963 -3.35718 -2.87656 0
M  V30 2081 N 201.022 0.148545 -1.56898 0
M  V30 2082 C 202.433 0.708766 -1.72723 0
M  V30 2083 C 202.784 1.81734 -0.739395 0
M  V30 2084 O 201.909 2.16194 0.0943169 0
M  V30 2085 C 202.504 1.29245 -3.13179 0
M  V30 2086 C 201.063 1.79925 -3.30611 0
M  V30 2087 C 200.21 0.687111 -2.68652 0
M  V30 2088 H 203.161 -0.0771063 -1.58513 0
M  V30 2089 H 203.182 2.16224 -3.13093 0
M  V30 2090 H 202.694 0.485382 -3.85053 0
M  V30 2091 H 200.795 2.63203 -2.63732 0
M  V30 2092 H 200.908 1.92903 -4.38549 0
M  V30 2093 H 199.272 1.11335 -2.29078 0
M  V30 2094 H 200.055 -0.108483 -3.43129 0
M  V30 2095 N 202.5 1.5196 0.417844 0
M  V30 2096 C 203.747 1.65591 1.16559 0
M  V30 2097 C 204.075 0.381565 1.90721 0
M  V30 2098 O 203.33 -0.635156 1.85106 0
M  V30 2099 C 203.629 2.82269 2.19223 0
M  V30 2100 C 203.295 4.20819 1.61933 0
M  V30 2101 C 201.957 4.58506 1.46033 0
M  V30 2102 C 204.309 5.07196 1.20008 0
M  V30 2103 C 201.637 5.80257 0.867113 0
M  V30 2104 C 203.989 6.29544 0.621086 0
M  V30 2105 C 202.653 6.65987 0.449144 0
M  V30 2106 H 201.923 0.605939 0.42652 0
M  V30 2107 H 204.57 1.86041 0.45397 0
M  V30 2108 H 202.875 2.56118 2.96498 0
M  V30 2109 H 204.572 2.90012 2.76936 0
M  V30 2110 H 201.162 3.91116 1.7529 0
M  V30 2111 H 205.346 4.7867 1.31105 0
M  V30 2112 H 200.602 6.07124 0.721833 0
M  V30 2113 H 204.776 6.95805 0.287798 0
M  V30 2114 H 202.403 7.60199 -0.012632 0
M  V30 2115 N 203.978 -0.674533 1.42435 0
M  V30 2116 C 205.394 -0.98769 1.25367 0
M  V30 2117 C 205.594 -2.00879 0.158044 0
M  V30 2118 O 204.65 -2.48075 -0.470633 0
M  V30 2119 C 205.963 -1.49224 2.6106 0
M  V30 2120 C 207.511 -1.61 2.68417 0
M  V30 2121 C 207.986 -2.14852 4.04478 0
M  V30 2122 N 209.477 -2.22185 4.06434 0
M  V30 2123 C 210.212 -2.64928 5.08528 0
M  V30 2124 N 209.708 -3.07121 6.21006 0
M  V30 2125 N 211.501 -2.64679 4.95885 0
M  V30 2126 H 203.652 0.00152503 2.124 0
M  V30 2127 H 205.915 -0.0618434 0.945981 0
M  V30 2128 H 205.621 -0.816453 3.42092 0
M  V30 2129 H 205.495 -2.47094 2.84999 0
M  V30 2130 H 207.882 -2.27686 1.87732 0
M  V30 2131 H 207.963 -0.616195 2.48267 0
M  V30 2132 H 207.607 -1.48775 4.85622 0
M  V30 2133 H 207.537 -3.15024 4.2198 0
M  V30 2134 H 210.028 -1.92435 3.25234 0
M  V30 2135 H 210.341 -3.38423 6.94759 0
M  V30 2136 H 208.686 -3.04978 6.24511 0
M  V30 2137 H 211.877 -2.31078 4.07088 0
M  V30 2138 H 212.05 -2.9767 5.75584 0
M  V30 2139 N 205.456 -1.28612 -0.910864 0
M  V30 2140 C 206.696 -1.1719 -1.67469 0
M  V30 2141 C 207.06 0.274441 -1.90028 0
M  V30 2142 O 208.261 0.511425 -2.6389 0
M  V30 2143 C 206.532 -1.95137 -2.99427 0
M  V30 2144 S 208.091 -2.00122 -3.90508 0
M  V30 2145 H 204.909 -0.41806 -0.575106 0
M  V30 2146 H 207.511 -1.6275 -1.08317 0
M  V30 2147 H 206.215 -2.99381 -2.80712 0
M  V30 2148 H 205.746 -1.50137 -3.63624 0
M  V30 2149 H 207.761 -1.10981 -4.8363 0
M  V30 2150 N 206.934 1.1197 -1.10907 0
M  V30 2151 C 207.864 2.19928 -0.784473 0
M  V30 2152 C 208.845 1.6833 0.244726 0
M  V30 2153 O 210.03 1.93892 0.109418 0
M  V30 2154 C 207.16 3.46597 -0.220827 0
M  V30 2155 C 206.114 4.11376 -1.18127 0
M  V30 2156 C 205.44 5.32554 -0.478594 0
M  V30 2157 C 206.74 4.56945 -2.52979 0
M  V30 2158 H 208.434 2.47337 -1.68715 0
M  V30 2159 H 205.98 1.18879 -0.812642 0
M  V30 2160 H 207.933 4.21396 0.0184278 0
M  V30 2161 H 206.657 3.1863 0.717113 0
M  V30 2162 H 205.316 3.38564 -1.40606 0
M  V30 2163 H 204.964 5.00856 0.463976 0
M  V30 2164 H 204.664 5.76844 -1.11912 0
M  V30 2165 H 206.188 6.10096 -0.248 0
M  V30 2166 H 207.602 5.23093 -2.3462 0
M  V30 2167 H 205.999 5.1203 -3.12962 0
M  V30 2168 H 207.069 3.70676 -3.12614 0
M  V30 2169 N 208.412 0.89855 1.29475 0
M  V30 2170 C 209.823 0.572537 1.77705 0
M  V30 2171 C 210.174 -0.911778 1.73727 0
M  V30 2172 O 209.299 -1.71288 1.32247 0
M  V30 2173 C 209.894 1.03252 3.22683 0
M  V30 2174 C 208.453 0.757687 3.68695 0
M  V30 2175 C 207.6 1.20787 2.49612 0
M  V30 2176 H 210.551 1.08139 1.16153 0
M  V30 2177 H 210.572 0.367307 3.78723 0
M  V30 2178 H 210.084 2.11285 3.25546 0
M  V30 2179 H 208.185 -0.310079 3.71308 0
M  V30 2180 H 208.298 1.35476 4.59547 0
M  V30 2181 H 206.662 0.626888 2.46865 0
M  V30 2182 H 207.445 2.29622 2.55203 0
M  V30 2183 N 209.89 -1.43072 0.660911 0
M  V30 2184 C 211.138 -2.01323 0.177094 0
M  V30 2185 C 211.459 -1.5245 -1.2159 0
M  V30 2186 O 210.729 -0.740322 -1.81373 0
M  V30 2187 H 209.309 -0.744382 0.0624804 0
M  V30 2188 H 211.971 -1.75179 0.854305 0
M  V30 2189 H 211.067 -3.11649 0.167641 0
M  V30 2190 N 211.368 -0.403325 -1.52352 0
M  V30 2191 C 212.278 0.432009 -2.30588 0
M  V30 2192 C 213.294 1.05884 -1.38075 0
M  V30 2193 O 214.47 1.06161 -1.71148 0
M  V30 2194 C 211.535 1.53669 -3.10784 0
M  V30 2195 C 210.596 0.933525 -4.19027 0
M  V30 2196 C 209.829 1.98557 -4.9539 0
M  V30 2197 O 210.052 3.20283 -4.71991 0
M  V30 2198 O 208.986 1.59504 -5.80381 0
M  V30 2199 H 212.812 -0.205739 -3.03002 0
M  V30 2200 H 210.397 -0.166675 -1.48467 0
M  V30 2201 H 212.279 2.17814 -3.60742 0
M  V30 2202 H 210.954 2.15915 -2.41169 0
M  V30 2203 H 209.861 0.254954 -3.7323 0
M  V30 2204 H 211.194 0.35508 -4.90918 0
M  V30 2205 N 212.846 1.57033 -0.133567 0
M  V30 2206 C 214.093 1.95686 0.520877 0
M  V30 2207 C 214.421 1.0177 1.6575 0
M  V30 2208 O 213.676 0.0443195 1.9565 0
M  V30 2209 C 213.975 3.40674 1.08057 0
M  V30 2210 C 213.641 4.50855 0.0637899 0
M  V30 2211 C 212.303 4.80716 -0.215757 0
M  V30 2212 C 214.655 5.17398 -0.62835 0
M  V30 2213 C 211.983 5.74433 -1.19348 0
M  V30 2214 C 214.335 6.12167 -1.5948 0
M  V30 2215 C 212.999 6.40414 -1.88218 0
M  V30 2216 H 212.269 0.716067 0.190602 0
M  V30 2217 H 214.916 1.9026 -0.217556 0
M  V30 2218 H 213.221 3.42865 1.89606 0
M  V30 2219 H 214.918 3.67902 1.59529 0
M  V30 2220 H 211.508 4.27605 0.291855 0
M  V30 2221 H 215.692 4.94472 -0.425562 0
M  V30 2222 H 210.948 5.94616 -1.42272 0
M  V30 2223 H 215.122 6.6281 -2.13671 0
M  V30 2224 H 212.749 7.12838 -2.64133 0
M  V30 2225 N 214.325 -0.140222 1.56975 0
M  V30 2226 C 215.571 -0.852949 1.83991 0
M  V30 2227 C 215.904 -1.80512 0.716187 0
M  V30 2228 O 215.179 -1.92479 -0.279681 0
M  V30 2229 C 215.462 -1.6215 3.21527 0
M  V30 2230 C 215.315 -0.690363 4.4447 0
M  V30 2231 C 216.634 -2.58247 3.56366 0
M  V30 2232 H 213.753 -0.308634 0.669264 0
M  V30 2233 H 216.395 -0.117898 1.89634 0
M  V30 2234 H 214.545 -2.24812 3.16847 0
M  V30 2235 H 216.217 -0.0742264 4.6124 0
M  V30 2236 H 214.46 -0.000396433 4.338 0
M  V30 2237 H 215.131 -1.2643 5.37326 0
M  V30 2238 H 217.607 -2.05701 3.61699 0
M  V30 2239 H 216.483 -3.09067 4.53617 0
M  V30 2240 H 216.744 -3.39923 2.82674 0
M  V30 2241 N 215.803 -1.52179 -0.40978 0
M  V30 2242 C 217.028 -1.70347 -1.18308 0
M  V30 2243 C 217.453 -0.411887 -1.83535 0
M  V30 2244 O 216.811 0.630587 -1.6998 0
M  V30 2245 C 216.859 -2.83977 -2.22238 0
M  V30 2246 O 215.963 -2.495 -3.28365 0
M  V30 2247 H 215.304 -0.567103 -0.345384 0
M  V30 2248 H 217.834 -1.98879 -0.480445 0
M  V30 2249 H 217.844 -3.0887 -2.66577 0
M  V30 2250 H 216.519 -3.77685 -1.74146 0
M  V30 2251 H 215.096 -2.35277 -2.89308 0
M  V30 2252 N 217.281 0.66697 -1.42791 0
M  V30 2253 C 218.191 1.80962 -1.49299 0
M  V30 2254 C 219.207 1.69775 -0.381108 0
M  V30 2255 O 220.383 1.91188 -0.633188 0
M  V30 2256 C 217.448 3.17156 -1.40045 0
M  V30 2257 C 216.509 3.40242 -2.6179 0
M  V30 2258 C 215.742 4.69939 -2.52969 0
M  V30 2259 O 215.965 5.48372 -1.56985 0
M  V30 2260 O 214.899 4.94441 -3.43237 0
M  V30 2261 H 218.725 1.78427 -2.45759 0
M  V30 2262 H 216.31 0.823713 -1.24641 0
M  V30 2263 H 218.192 3.98413 -1.37276 0
M  V30 2264 H 216.867 3.20312 -0.467138 0
M  V30 2265 H 215.774 2.58802 -2.70134 0
M  V30 2266 H 217.107 3.41923 -3.54047 0
M  V30 2267 N 218.759 1.29093 0.90403 0
M  V30 2268 C 219.722 1.1386 1.98919 0
M  V30 2269 C 220.722 0.0753457 1.60623 0
M  V30 2270 O 221.912 0.321931 1.71199 0
M  V30 2271 C 219.044 0.740198 3.32767 0
M  V30 2272 H 220.237 2.10246 2.13861 0
M  V30 2273 H 217.79 1.12218 1.08797 0
M  V30 2274 H 218.525 -0.223997 3.23525 0
M  V30 2275 H 218.31 1.50838 3.61926 0
M  V30 2276 H 219.8 0.656546 4.12407 0
M  V30 2277 N 220.237 -1.11381 1.11499 0
M  V30 2278 C 221.167 -2.19509 0.796125 0
M  V30 2279 C 222.148 -1.68458 -0.235796 0
M  V30 2280 O 223.333 -1.93947 -0.0991344 0
M  V30 2281 C 220.463 -3.46475 0.239205 0
M  V30 2282 C 219.417 -4.10744 1.20307 0
M  V30 2283 C 218.743 -5.32293 0.50683 0
M  V30 2284 C 220.043 -4.55597 2.55399 0
M  V30 2285 H 221.737 -2.46439 1.70024 0
M  V30 2286 H 219.283 -1.18446 0.818935 0
M  V30 2287 H 221.236 -4.214 0.00392006 0
M  V30 2288 H 219.96 -3.19006 -0.700206 0
M  V30 2289 H 218.619 -3.37813 1.42399 0
M  V30 2290 H 218.267 -5.01095 -0.437408 0
M  V30 2291 H 217.967 -5.76243 1.1497 0
M  V30 2292 H 219.491 -6.09956 0.280351 0
M  V30 2293 H 220.905 -5.21841 2.37391 0
M  V30 2294 H 219.302 -5.10363 3.15673 0
M  V30 2295 H 220.372 -3.69013 3.14575 0
M  V30 2296 N 221.715 -0.905404 -1.28997 0
M  V30 2297 C 222.645 -0.404212 -2.29975 0
M  V30 2298 C 223.626 0.523784 -1.61835 0
M  V30 2299 O 224.811 0.433298 -1.89304 0
M  V30 2300 C 221.941 0.364042 -3.45387 0
M  V30 2301 C 220.895 -0.474048 -4.25367 0
M  V30 2302 C 220.221 0.422045 -5.33032 0
M  V30 2303 C 221.521 -1.72696 -4.92923 0
M  V30 2304 H 223.215 -1.24807 -2.72146 0
M  V30 2305 H 220.761 -0.601585 -1.30832 0
M  V30 2306 H 222.714 0.725447 -4.15109 0
M  V30 2307 H 221.438 1.24174 -3.02074 0
M  V30 2308 H 220.097 -0.81786 -3.57361 0
M  V30 2309 H 219.745 1.29804 -4.85963 0
M  V30 2310 H 219.445 -0.135057 -5.87445 0
M  V30 2311 H 220.969 0.779517 -6.05604 0
M  V30 2312 H 222.383 -1.43495 -5.55051 0
M  V30 2313 H 220.78 -2.22582 -5.57295 0
M  V30 2314 H 221.85 -2.45964 -4.17887 0
M  V30 2315 N 223.193 1.4272 -0.668489 0
M  V30 2316 C 224.439 2.01923 -0.188419 0
M  V30 2317 C 224.772 1.52704 1.19979 0
M  V30 2318 O 224.047 0.726566 1.8042 0
M  V30 2319 C 224.33 3.59451 -0.216085 0
M  V30 2320 C 224.183 4.18864 -1.6393 0
M  V30 2321 C 225.502 4.37903 0.439179 0
M  V30 2322 H 222.621 0.733674 -0.0699412 0
M  V30 2323 H 225.263 1.69822 -0.852076 0
M  V30 2324 H 223.413 3.86929 0.349012 0
M  V30 2325 H 225.085 4.02362 -2.25616 0
M  V30 2326 H 223.328 3.74933 -2.18193 0
M  V30 2327 H 223.999 5.27987 -1.61039 0
M  V30 2328 H 226.475 4.16079 -0.0417878 0
M  V30 2329 H 225.351 5.47519 0.389157 0
M  V30 2330 H 225.612 4.15303 1.51577 0
M  V30 2331 N 224.671 0.411399 1.52136 0
M  V30 2332 C 226.082 -0.0576826 1.86611 0
M  V30 2333 C 226.433 -1.44238 1.33003 0
M  V30 2334 O 225.558 -2.05759 0.670228 0
M  V30 2335 C 226.153 -0.111448 3.38617 0
M  V30 2336 C 224.712 -0.52487 3.72723 0
M  V30 2337 C 223.859 0.299176 2.75681 0
M  V30 2338 H 226.81 0.628368 1.4573 0
M  V30 2339 H 226.831 -0.926252 3.69054 0
M  V30 2340 H 226.343 0.896488 3.77604 0
M  V30 2341 H 224.444 -1.53936 3.39315 0
M  V30 2342 H 224.557 -0.267681 4.78352 0
M  V30 2343 H 222.921 -0.238814 2.53578 0
M  V30 2344 H 223.704 1.3055 3.17508 0
M  V30 2345 N 226.149 -1.5696 0.141893 0
M  V30 2346 C 227.059 -2.20066 -0.812905 0
M  V30 2347 C 228.075 -1.18344 -1.27557 0
M  V30 2348 O 229.251 -1.50902 -1.33381 0
M  V30 2349 C 226.316 -2.80583 -2.03652 0
M  V30 2350 C 225.377 -3.97414 -1.62359 0
M  V30 2351 C 224.61 -4.55036 -2.78887 0
M  V30 2352 O 224.833 -4.11538 -3.94959 0
M  V30 2353 O 223.767 -5.45376 -2.54653 0
M  V30 2354 H 227.593 -3.02157 -0.305746 0
M  V30 2355 H 225.178 -1.49159 -0.0848799 0
M  V30 2356 H 227.06 -3.19067 -2.75272 0
M  V30 2357 H 225.735 -2.01508 -2.5333 0
M  V30 2358 H 224.642 -3.63656 -0.877775 0
M  V30 2359 H 225.975 -4.77994 -1.17401 0
M  V30 2360 N 227.627 0.131896 -1.57047 0
M  V30 2361 C 228.875 0.840269 -1.83804 0
M  V30 2362 C 229.196 1.81017 -0.72512 0
M  V30 2363 O 228.466 1.94272 0.251995 0
M  V30 2364 H 227.046 0.313294 -0.678127 0
M  V30 2365 H 229.708 0.122294 -1.94516 0
M  V30 2366 H 228.804 1.39335 -2.79271 0
M  V30 2367 N 229.106 1.52395 0.401703 0
M  V30 2368 C 230.346 1.68498 1.15705 0
M  V30 2369 C 230.71 0.409748 1.87577 0
M  V30 2370 O 231.911 0.446983 2.65058 0
M  V30 2371 C 230.182 2.87789 2.11924 0
M  V30 2372 S 231.741 3.24415 2.95466 0
M  V30 2373 H 228.559 0.593267 0.391862 0
M  V30 2374 H 231.161 1.90408 0.443282 0
M  V30 2375 H 229.865 3.7884 1.57824 0
M  V30 2376 H 229.396 2.68175 2.87829 0
M  V30 2377 H 231.411 2.73614 4.13944 0
M  V30 2378 N 230.584 -0.659388 1.43143 0
M  V30 2379 C 232 -0.974337 1.26407 0
M  V30 2380 C 232.2 -2.007 0.179341 0
M  V30 2381 O 231.256 -2.4856 -0.444295 0
M  V30 2382 C 232.569 -1.46447 2.62628 0
M  V30 2383 C 234.117 -1.58144 2.7011 0
M  V30 2384 C 234.592 -2.1055 4.06734 0
M  V30 2385 N 236.083 -2.17861 4.08767 0
M  V30 2386 C 236.818 -2.59519 5.1131 0
M  V30 2387 N 236.314 -3.00518 6.24228 0
M  V30 2388 N 238.107 -2.59404 4.98664 0
M  V30 2389 H 230.258 0.0240528 2.12386 0
M  V30 2390 H 232.521 -0.0518065 0.946583 0
M  V30 2391 H 232.227 -0.780123 3.42939 0
M  V30 2392 H 232.101 -2.44058 2.87603 0
M  V30 2393 H 234.488 -2.25682 1.90136 0
M  V30 2394 H 234.569 -0.589828 2.48907 0
M  V30 2395 H 234.213 -1.43616 4.87172 0
M  V30 2396 H 234.143 -3.10531 4.25298 0
M  V30 2397 H 236.634 -1.88975 3.27257 0
M  V30 2398 H 236.947 -3.31036 6.98309 0
M  V30 2399 H 235.292 -2.98337 6.2771 0
M  V30 2400 H 238.483 -2.26747 4.09516 0
M  V30 2401 H 238.656 -2.91548 5.78709 0
M  V30 2402 N 232.062 -1.29571 -0.897171 0
M  V30 2403 C 233.309 -1.17689 -1.6479 0
M  V30 2404 C 233.637 0.27107 -1.92602 0
M  V30 2405 O 232.892 1.21193 -1.53658 0
M  V30 2406 C 233.191 -1.9382 -3.00281 0
M  V30 2407 C 232.857 -3.43522 -2.92068 0
M  V30 2408 C 231.519 -3.84348 -2.89535 0
M  V30 2409 C 233.871 -4.38906 -2.81089 0
M  V30 2410 C 231.199 -5.18869 -2.73846 0
M  V30 2411 C 233.551 -5.73521 -2.66939 0
M  V30 2412 C 232.215 -6.13601 -2.62774 0
M  V30 2413 H 231.485 -0.430654 -0.603008 0
M  V30 2414 H 234.132 -1.60536 -1.04404 0
M  V30 2415 H 232.437 -1.4357 -3.64547 0
M  V30 2416 H 234.134 -1.82028 -3.57305 0
M  V30 2417 H 230.724 -3.11072 -2.94842 0
M  V30 2418 H 234.908 -4.08315 -2.82121 0
M  V30 2419 H 230.164 -5.4903 -2.69027 0
M  V30 2420 H 234.338 -6.47078 -2.57416 0
M  V30 2421 H 231.965 -7.17786 -2.50375 0
M  V30 2422 N 233.54 1.10788 -1.12088 0
M  V30 2423 C 234.47 2.19083 -0.807755 0
M  V30 2424 C 235.451 1.6858 0.226859 0
M  V30 2425 O 236.636 1.93997 0.0888475 0
M  V30 2426 C 233.766 3.46344 -0.257576 0
M  V30 2427 C 232.72 4.101 -1.22483 0
M  V30 2428 C 232.046 5.32016 -0.535052 0
M  V30 2429 C 233.346 4.54236 -2.57811 0
M  V30 2430 H 235.04 2.45534 -1.71328 0
M  V30 2431 H 232.586 1.1801 -0.825205 0
M  V30 2432 H 234.539 4.21392 -0.0262679 0
M  V30 2433 H 233.263 3.19373 0.683278 0
M  V30 2434 H 231.922 3.37054 -1.44189 0
M  V30 2435 H 231.57 5.01319 0.410827 0
M  V30 2436 H 231.27 5.75625 -1.18024 0
M  V30 2437 H 232.794 6.09799 -0.312695 0
M  V30 2438 H 234.208 5.20575 -2.40155 0
M  V30 2439 H 232.605 5.08682 -3.18375 0
M  V30 2440 H 233.675 3.6734 -3.16528 0
M  V30 2441 N 235.018 0.912232 1.28515 0
M  V30 2442 C 235.968 0.370649 2.24967 0
M  V30 2443 C 236.952 -0.516375 1.52389 0
M  V30 2444 O 238.144 -0.356345 1.73376 0
M  V30 2445 C 235.273 -0.389526 3.41083 0
M  V30 2446 C 234.359 0.51313 4.20984 0
M  V30 2447 N 234.75 1.62604 4.78951 0
M  V30 2448 C 233.048 0.313235 4.44899 0
M  V30 2449 C 233.749 2.18619 5.39055 0
M  V30 2450 N 232.725 1.47765 5.23132 0
M  V30 2451 H 236.527 1.22061 2.67354 0
M  V30 2452 H 234.041 0.764712 1.43269 0
M  V30 2453 H 236.038 -0.794353 4.09262 0
M  V30 2454 H 234.698 -1.2366 3.0023 0
M  V30 2455 H 235.709 2.00864 4.77362 0
M  V30 2456 H 232.386 -0.494452 4.14562 0
M  V30 2457 H 233.776 3.12228 5.94948 0
M  V30 2458 N 236.496 -1.42363 0.676048 0
M  V30 2459 C 237.428 -2.29164 -0.0404605 0
M  V30 2460 C 238.441 -1.43747 -0.764245 0
M  V30 2461 O 239.63 -1.67453 -0.618195 0
M  V30 2462 C 236.73 -3.21196 -1.08103 0
M  V30 2463 C 235.903 -4.35273 -0.430812 0
M  V30 2464 C 234.962 -5.08017 -1.37133 0
M  V30 2465 O 233.988 -5.62494 -0.87116 0
M  V30 2466 N 235.19 -5.13647 -2.70456 0
M  V30 2467 H 237.955 -2.91298 0.704667 0
M  V30 2468 H 235.516 -1.53303 0.520559 0
M  V30 2469 H 237.508 -3.66728 -1.71152 0
M  V30 2470 H 236.078 -2.60505 -1.72788 0
M  V30 2471 H 235.298 -3.92372 0.379209 0
M  V30 2472 H 236.586 -5.08795 0.0221132 0
M  V30 2473 H 235.984 -4.708 -3.1363 0
M  V30 2474 H 234.541 -5.62821 -3.28749 0
M  V30 2475 N 237.974 -0.419461 -1.51915 0
M  V30 2476 C 238.884 0.407528 -2.31033 0
M  V30 2477 C 239.9 1.04413 -1.3919 0
M  V30 2478 O 241.076 1.0434 -1.72265 0
M  V30 2479 C 238.141 1.50365 -3.12396 0
M  V30 2480 C 237.202 0.889029 -4.19994 0
M  V30 2481 C 236.435 1.93291 -4.97468 0
M  V30 2482 O 236.658 3.15259 -4.75361 0
M  V30 2483 O 235.592 1.53339 -5.8204 0
M  V30 2484 H 239.418 -0.237865 -3.02767 0
M  V30 2485 H 237.003 -0.182413 -1.48282 0
M  V30 2486 H 238.885 2.13975 -3.63032 0
M  V30 2487 H 237.56 2.13345 -2.43445 0
M  V30 2488 H 236.467 0.215353 -3.7348 0
M  V30 2489 H 237.8 0.302991 -4.91267 0
M  V30 2490 N 239.452 1.56882 -0.150215 0
M  V30 2491 C 240.868 1.58263 0.20617 0
M  V30 2492 C 241.068 1.16464 1.64434 0
M  V30 2493 O 240.124 0.866422 2.3717 0
M  V30 2494 C 241.437 3.00649 -0.0555025 0
M  V30 2495 C 242.985 3.12999 0.00795388 0
M  V30 2496 C 243.46 4.5744 -0.226429 0
M  V30 2497 N 244.951 4.62875 -0.173469 0
M  V30 2498 C 245.686 5.72454 -0.329288 0
M  V30 2499 N 245.182 6.90669 -0.543005 0
M  V30 2500 N 246.975 5.61467 -0.266666 0
M  V30 2501 H 239.126 1.82345 -1.08922 0
M  V30 2502 H 241.389 0.844149 -0.431413 0
M  V30 2503 H 241.095 3.3563 -1.05096 0
M  V30 2504 H 240.969 3.71337 0.66246 0
M  V30 2505 H 243.356 2.77857 0.993966 0
M  V30 2506 H 243.437 2.4479 -0.742388 0
M  V30 2507 H 243.081 4.93287 -1.20956 0
M  V30 2508 H 243.011 5.2378 0.544274 0
M  V30 2509 H 245.502 3.77898 -0.0130709 0
M  V30 2510 H 245.815 7.70045 -0.651922 0
M  V30 2511 H 244.16 6.92581 -0.579366 0
M  V30 2512 H 247.351 4.67992 -0.100441 0
M  V30 2513 H 247.524 6.46816 -0.391535 0
M  V30 2514 N 240.93 -0.123565 1.57115 0
M  V30 2515 C 241.863 -1.18202 1.95201 0
M  V30 2516 C 242.841 -1.40349 0.821031 0
M  V30 2517 O 244.025 -1.54578 1.07879 0
M  V30 2518 C 241.152 -2.53671 2.24429 0
M  V30 2519 C 240.198 -2.4798 3.46999 0
M  V30 2520 S 241.031 -1.92389 4.99747 0
M  V30 2521 C 242.187 -3.2954 5.32123 0
M  V30 2522 H 242.42 -0.857212 2.84674 0
M  V30 2523 H 239.953 -0.33014 1.50829 0
M  V30 2524 H 241.911 -3.3162 2.41947 0
M  V30 2525 H 240.572 -2.83332 1.35579 0
M  V30 2526 H 239.765 -3.47758 3.64801 0
M  V30 2527 H 239.367 -1.7815 3.28844 0
M  V30 2528 H 241.659 -4.25736 5.27025 0
M  V30 2529 H 242.602 -3.16569 6.33395 0
M  V30 2530 H 243.01 -3.27758 4.59603 0
M  V30 2531 N 242.408 -1.52605 -0.393616 0
M  V30 2532 C 243.685 -1.58001 -1.15304 0
M  V30 2533 C 244.065 -0.370385 -2.07825 0
M  V30 2534 O 243.413 0.641638 -2.19306 0
M  V30 2535 C 243.623 -2.91652 -1.91677 0
M  V30 2536 C 244.971 -3.4522 -2.47201 0
M  V30 2537 O 245.995 -2.93495 -2.01839 0
M  V30 2538 O 244.854 -4.35579 -3.3005 0
M  V30 2539 H 241.948 -0.637068 -0.527327 0
M  V30 2540 H 244.494 -1.64939 -0.399141 0
M  V30 2541 H 243.266 -3.71136 -1.23992 0
M  V30 2542 H 242.889 -2.88077 -2.74039 0
M  V30 2543 N 243.887 0.651787 -1.4349 0
M  V30 2544 C 244.819 1.77725 -1.44729 0
M  V30 2545 C 245.832 1.59141 -0.343231 0
M  V30 2546 O 247.021 1.67835 -0.607751 0
M  V30 2547 C 244.121 3.15172 -1.24579 0
M  V30 2548 C 243.294 3.60402 -2.47849 0
M  V30 2549 C 242.353 4.76656 -2.22902 0
M  V30 2550 O 241.379 4.86022 -2.96263 0
M  V30 2551 N 242.581 5.66958 -1.24656 0
M  V30 2552 H 245.346 1.77141 -2.41746 0
M  V30 2553 H 242.907 0.835678 -1.38665 0
M  V30 2554 H 244.899 3.90634 -1.0577 0
M  V30 2555 H 243.469 3.1052 -0.360015 0
M  V30 2556 H 242.689 2.75369 -2.82073 0
M  V30 2557 H 243.977 3.87368 -3.29884 0
M  V30 2558 H 243.375 5.62065 -0.640265 0
M  V30 2559 H 241.932 6.42135 -1.1183 0
M  V30 2560 N 245.365 1.30045 0.890287 0
M  V30 2561 C 246.605 1.19839 1.65584 0
M  V30 2562 C 246.969 -0.244175 1.90441 0
M  V30 2563 O 248.17 -0.469378 2.6467 0
M  V30 2564 C 246.441 1.99876 2.96284 0
M  V30 2565 S 248 2.06309 3.87275 0
M  V30 2566 H 244.818 0.427157 0.568382 0
M  V30 2567 H 247.42 1.64453 1.05715 0
M  V30 2568 H 246.124 3.03809 2.75913 0
M  V30 2569 H 245.655 1.55903 3.61189 0
M  V30 2570 H 247.67 1.18661 4.81803 0
M  V30 2571 N 246.843 -1.10192 1.12674 0
M  V30 2572 C 247.753 -2.20172 0.810026 0
M  V30 2573 C 248.769 -1.72821 -0.202188 0
M  V30 2574 O 249.945 -2.01369 -0.0351691 0
M  V30 2575 C 247.01 -3.45631 0.272007 0
M  V30 2576 C 246.071 -4.07704 1.34447 0
M  V30 2577 C 245.304 -5.27175 0.832029 0
M  V30 2578 O 245.527 -5.69425 -0.333284 0
M  V30 2579 O 244.461 -5.80168 1.60277 0
M  V30 2580 H 248.287 -2.49701 1.72867 0
M  V30 2581 H 245.872 -1.18977 0.903597 0
M  V30 2582 H 247.754 -4.21394 -0.0230219 0
M  V30 2583 H 246.429 -3.17723 -0.619164 0
M  V30 2584 H 245.336 -3.33614 1.6927 0
M  V30 2585 H 246.669 -4.3982 2.2095 0
M  V30 2586 N 248.321 -0.919034 -1.28029 0
M  V30 2587 C 249.546 -0.570357 -1.99403 0
M  V30 2588 C 249.971 0.842486 -1.68178 0
M  V30 2589 O 249.329 1.56391 -0.917141 0
M  V30 2590 C 249.377 -0.792541 -3.51783 0
M  V30 2591 O 248.481 0.145988 -4.12142 0
M  V30 2592 H 247.822 -0.220555 -0.6263 0
M  V30 2593 H 250.352 -1.23592 -1.63053 0
M  V30 2594 H 250.362 -0.704708 -4.01868 0
M  V30 2595 H 249.037 -1.82247 -3.73844 0
M  V30 2596 H 247.614 0.00897528 -3.72899 0
M  V30 2597 N 249.799 1.42003 -0.683588 0
M  V30 2598 C 251.024 2.06265 -0.216647 0
M  V30 2599 C 251.449 1.51059 1.12083 0
M  V30 2600 O 250.807 0.632638 1.69904 0
M  V30 2601 C 250.855 3.60191 -0.171759 0
M  V30 2602 O 249.959 4.03396 0.857069 0
M  V30 2603 H 249.3 0.65502 -0.108834 0
M  V30 2604 H 251.83 1.81982 -0.935077 0
M  V30 2605 H 251.84 4.08 0.0014303 0
M  V30 2606 H 250.515 3.99743 -1.14796 0
M  V30 2607 H 249.092 3.67117 0.654208 0
M  V30 2608 N 251.277 0.427512 1.51691 0
M  V30 2609 C 252.505 -0.141191 2.06418 0
M  V30 2610 C 252.92 -1.37303 1.29589 0
M  V30 2611 O 252.277 -1.79059 0.352732 0
M  V30 2612 C 252.328 -0.473266 3.58389 0
M  V30 2613 O 252.049 0.709673 4.32314 0
M  V30 2614 C 253.55 -1.09371 4.29596 0
M  V30 2615 H 250.77 -0.0122747 0.670888 0
M  V30 2616 H 253.314 0.603764 1.95384 0
M  V30 2617 H 251.469 -1.16812 3.69369 0
M  V30 2618 H 251.883 0.42807 5.2275 0
M  V30 2619 H 253.357 -1.27613 5.37046 0
M  V30 2620 H 253.834 -2.072 3.87253 0
M  V30 2621 H 254.44 -0.43853 4.23033 0
M  V30 2622 N 252.755 -1.56801 0.158532 0
M  V30 2623 C 254.171 -1.5837 -0.197774 0
M  V30 2624 C 254.371 -1.17334 -1.63814 0
M  V30 2625 O 253.427 -0.878988 -2.36707 0
M  V30 2626 C 254.74 -3.00615 0.0714459 0
M  V30 2627 C 256.288 -3.12999 0.00864533 0
M  V30 2628 C 256.763 -4.57313 0.250685 0
M  V30 2629 N 258.254 -4.62777 0.198014 0
M  V30 2630 C 258.989 -5.72271 0.359642 0
M  V30 2631 N 258.485 -6.90371 0.579625 0
M  V30 2632 N 260.278 -5.61318 0.296438 0
M  V30 2633 H 252.429 -1.81765 1.09887 0
M  V30 2634 H 254.692 -0.841849 0.435884 0
M  V30 2635 H 254.398 -3.35068 1.06874 0
M  V30 2636 H 254.272 -3.71683 -0.642757 0
M  V30 2637 H 256.659 -2.7838 -0.979217 0
M  V30 2638 H 256.74 -2.44393 0.755359 0
M  V30 2639 H 256.384 -4.92639 1.2357 0
M  V30 2640 H 256.314 -5.24061 -0.516489 0
M  V30 2641 H 258.805 -3.77885 0.0331115 0
M  V30 2642 H 259.118 -7.69689 0.69275 0
M  V30 2643 H 257.463 -6.92264 0.616087 0
M  V30 2644 H 260.654 -4.67932 0.125258 0
M  V30 2645 H 260.827 -6.46599 0.425831 0
M  V30 2646 N 254.233 0.115231 -1.57178 0
M  V30 2647 C 255.649 0.468877 -1.52557 0
M  V30 2648 C 255.849 1.81649 -0.872125 0
M  V30 2649 O 254.905 2.48347 -0.45606 0
M  V30 2650 C 256.218 0.4499 -2.97315 0
M  V30 2651 C 257.766 0.533185 -3.08425 0
M  V30 2652 C 258.241 0.54456 -4.54751 0
M  V30 2653 N 259.732 0.605892 -4.5922 0
M  V30 2654 C 260.467 0.636203 -5.6986 0
M  V30 2655 N 259.963 0.623931 -6.89985 0
M  V30 2656 N 261.756 0.679496 -5.57978 0
M  V30 2657 H 253.907 -0.767712 -1.9804 0
M  V30 2658 H 256.17 -0.283609 -0.904583 0
M  V30 2659 H 255.876 -0.472721 -3.48509 0
M  V30 2660 H 255.75 1.27632 -3.5495 0
M  V30 2661 H 258.137 1.44623 -2.57232 0
M  V30 2662 H 258.218 -0.320995 -2.53778 0
M  V30 2663 H 257.862 -0.364452 -5.06591 0
M  V30 2664 H 257.792 1.41568 -5.07214 0
M  V30 2665 H 260.283 0.621386 -3.72756 0
M  V30 2666 H 260.596 0.649787 -7.70063 0
M  V30 2667 H 258.941 0.591296 -6.9248 0
M  V30 2668 H 262.132 0.686472 -4.63039 0
M  V30 2669 H 262.305 0.69965 -6.44212 0
M  V30 2670 N 255.711 1.52812 0.385517 0
M  V30 2671 C 256.661 1.74219 1.47078 0
M  V30 2672 C 257.645 0.59632 1.49442 0
M  V30 2673 O 258.837 0.85428 1.5502 0
M  V30 2674 C 255.966 1.9176 2.84751 0
M  V30 2675 C 255.052 3.12289 2.86943 0
M  V30 2676 N 255.443 4.34575 2.58802 0
M  V30 2677 C 253.741 3.12605 3.1811 0
M  V30 2678 C 254.442 5.162 2.68166 0
M  V30 2679 N 253.418 4.51964 3.02043 0
M  V30 2680 H 257.22 2.6639 1.24152 0
M  V30 2681 H 254.734 1.51166 0.593504 0
M  V30 2682 H 256.731 2.05218 3.62893 0
M  V30 2683 H 255.391 1.00805 3.08656 0
M  V30 2684 H 256.402 4.62649 2.32759 0
M  V30 2685 H 253.079 2.31472 3.47458 0
M  V30 2686 H 254.469 6.23689 2.49923 0
M  V30 2687 N 257.189 -0.644168 1.43834 0
M  V30 2688 C 258.121 -1.76955 1.45669 0
M  V30 2689 C 259.134 -1.58956 0.351666 0
M  V30 2690 O 260.323 -1.6751 0.616644 0
M  V30 2691 C 257.423 -3.14507 1.26248 0
M  V30 2692 C 256.596 -3.59083 2.49757 0
M  V30 2693 C 255.655 -4.75467 2.25427 0
M  V30 2694 O 254.681 -4.84444 2.98836 0
M  V30 2695 N 255.883 -5.66289 1.27661 0
M  V30 2696 H 258.648 -1.75856 2.42682 0
M  V30 2697 H 256.209 -0.828312 1.39106 0
M  V30 2698 H 258.201 -3.90067 1.0784 0
M  V30 2699 H 256.771 -3.10325 0.376478 0
M  V30 2700 H 255.991 -2.7387 2.8353 0
M  V30 2701 H 257.279 -3.85613 3.31934 0
M  V30 2702 H 256.677 -5.61718 0.670064 0
M  V30 2703 H 255.234 -6.41533 1.15234 0
M  V30 2704 N 258.668 -1.30515 -0.883378 0
M  V30 2705 C 259.578 -1.18959 -2.02203 0
M  V30 2706 C 260.594 -0.109172 -1.73657 0
M  V30 2707 O 261.77 -0.324413 -1.9877 0
M  V30 2708 C 258.835 -0.883871 -3.35244 0
M  V30 2709 C 257.896 -2.04982 -3.77201 0
M  V30 2710 C 257.129 -1.75859 -5.03894 0
M  V30 2711 O 257.352 -0.687276 -5.66244 0
M  V30 2712 O 256.286 -2.61146 -5.42297 0
M  V30 2713 H 260.112 -2.14616 -2.1488 0
M  V30 2714 H 257.697 -1.10124 -1.0096 0
M  V30 2715 H 259.579 -0.728644 -4.15053 0
M  V30 2716 H 258.254 0.0427798 -3.23672 0
M  V30 2717 H 257.161 -2.26038 -2.9809 0
M  V30 2718 H 258.494 -2.95825 -3.93381 0
M  V30 2719 N 260.146 1.09593 -1.13257 0
M  V30 2720 C 261.109 2.14359 -0.811358 0
M  V30 2721 C 262.109 1.59808 0.178377 0
M  V30 2722 O 263.299 1.74132 -0.0484911 0
M  V30 2723 C 260.431 3.40269 -0.207276 0
M  V30 2724 H 261.624 2.44284 -1.73969 0
M  V30 2725 H 259.177 1.25102 -0.936973 0
M  V30 2726 H 259.912 3.15969 0.73036 0
M  V30 2727 H 259.697 3.81154 -0.919992 0
M  V30 2728 H 261.187 4.176 0.000667944 0
M  V30 2729 N 261.624 0.925811 1.2754 0
M  V30 2730 C 262.556 0.380753 2.26015 0
M  V30 2731 C 263.569 -0.487485 1.5533 0
M  V30 2732 O 264.758 -0.300413 1.75954 0
M  V30 2733 C 261.858 -0.473259 3.35579 0
M  V30 2734 C 261.031 0.375249 4.35787 0
M  V30 2735 C 260.09 -0.415809 5.24555 0
M  V30 2736 O 259.116 0.175834 5.68928 0
M  V30 2737 N 260.318 -1.71607 5.54555 0
M  V30 2738 H 263.083 1.22725 2.73421 0
M  V30 2739 H 260.644 0.793037 1.41147 0
M  V30 2740 H 262.636 -1.00949 3.91907 0
M  V30 2741 H 261.206 -1.2205 2.87789 0
M  V30 2742 H 260.426 1.09279 3.7875 0
M  V30 2743 H 261.714 0.955399 4.99749 0
M  V30 2744 H 261.112 -2.2191 5.20358 0
M  V30 2745 H 259.669 -2.19887 6.1359 0
M  V30 2746 N 263.102 -1.41638 0.69111 0
M  V30 2747 C 264.012 -2.34588 0.0233487 0
M  V30 2748 C 265.028 -1.55987 -0.770984 0
M  V30 2749 O 266.204 -1.88486 -0.709569 0
M  V30 2750 C 263.269 -3.34684 -0.904851 0
M  V30 2751 C 262.33 -4.29176 -0.103225 0
M  V30 2752 C 261.563 -5.2449 -0.987216 0
M  V30 2753 O 261.786 -5.2514 -2.22674 0
M  V30 2754 O 260.72 -6.00295 -0.439281 0
M  V30 2755 H 264.546 -2.93261 0.789416 0
M  V30 2756 H 262.131 -1.42417 0.45142 0
M  V30 2757 H 264.013 -3.96133 -1.43724 0
M  V30 2758 H 262.688 -2.78461 -1.65049 0
M  V30 2759 H 261.595 -3.71089 0.473655 0
M  V30 2760 H 262.928 -4.88484 0.60365 0
M  V30 2761 N 264.58 -0.43555 -1.51462 0
M  V30 2762 C 265.543 0.365137 -2.26273 0
M  V30 2763 C 266.543 0.951227 -1.29647 0
M  V30 2764 O 267.733 0.825958 -1.53374 0
M  V30 2765 C 264.865 1.51645 -3.05314 0
M  V30 2766 H 266.058 -0.290474 -2.9849 0
M  V30 2767 H 263.611 -0.188676 -1.55157 0
M  V30 2768 H 264.346 2.20816 -2.3751 0
M  V30 2769 H 264.131 1.10238 -3.76284 0
M  V30 2770 H 265.621 2.08218 -3.61987 0
M  V30 2771 N 266.058 1.56714 -0.166846 0
M  V30 2772 C 267.298 1.98641 0.481763 0
M  V30 2773 C 267.662 1.05038 1.6072 0
M  V30 2774 O 268.863 1.36087 2.31805 0
M  V30 2775 C 267.134 3.44362 0.956517 0
M  V30 2776 S 268.693 4.08317 1.60694 0
M  V30 2777 H 265.511 0.693873 0.155116 0
M  V30 2778 H 268.113 1.93719 -0.263251 0
M  V30 2779 H 266.817 4.10204 0.126936 0
M  V30 2780 H 266.348 3.53041 1.73568 0
M  V30 2781 H 268.363 4.02999 2.89494 0
M  V30 2782 N 267.536 -0.106894 1.57237 0
M  V30 2783 C 268.761 -0.830287 1.90055 0
M  V30 2784 C 269.186 -1.72064 0.75998 0
M  V30 2785 O 268.544 -1.78982 -0.288991 0
M  V30 2786 C 268.592 -1.6295 3.21683 0
M  V30 2787 O 267.696 -2.73748 3.08441 0
M  V30 2788 H 267.037 -0.228855 0.623315 0
M  V30 2789 H 269.567 -0.085658 2.04421 0
M  V30 2790 H 269.577 -2.01621 3.54701 0
M  V30 2791 H 268.252 -0.975989 4.04286 0
M  V30 2792 H 266.829 -2.38192 2.86913 0
M  V30 2793 N 269.014 -1.53014 -0.377408 0
M  V30 2794 C 270.239 -1.72818 -1.14668 0
M  V30 2795 C 270.664 -0.450725 -1.8262 0
M  V30 2796 O 270.022 0.59439 -1.7128 0
M  V30 2797 C 270.07 -2.88627 -2.16164 0
M  V30 2798 O 269.174 -2.56409 -3.22998 0
M  V30 2799 H 268.515 -0.574301 -0.333278 0
M  V30 2800 H 271.045 -1.99853 -0.438152 0
M  V30 2801 H 271.055 -3.14455 -2.59966 0
M  V30 2802 H 269.73 -3.81294 -1.66095 0
M  V30 2803 H 268.307 -2.4136 -2.84253 0
M  V30 2804 N 270.492 0.636531 -1.44174 0
M  V30 2805 C 271.424 1.7618 -1.46606 0
M  V30 2806 C 272.437 1.58768 -0.360091 0
M  V30 2807 O 273.626 1.67181 -0.625518 0
M  V30 2808 C 270.726 3.13833 -1.27915 0
M  V30 2809 C 269.899 3.57753 -2.51658 0
M  V30 2810 C 268.958 4.74265 -2.27945 0
M  V30 2811 O 267.984 4.82852 -3.01401 0
M  V30 2812 N 269.186 5.65604 -1.30662 0
M  V30 2813 H 271.951 1.74567 -2.43612 0
M  V30 2814 H 269.512 0.820924 -1.39544 0
M  V30 2815 H 271.504 3.8949 -1.09907 0
M  V30 2816 H 270.074 3.10121 -0.39293 0
M  V30 2817 H 269.294 2.72362 -2.84978 0
M  V30 2818 H 270.582 3.83847 -3.33974 0
M  V30 2819 H 269.98 5.61354 -0.699844 0
M  V30 2820 H 268.537 6.40913 -1.18634 0
M  V30 2821 N 271.97 1.30982 0.876444 0
M  V30 2822 C 273.218 1.20058 1.62575 0
M  V30 2823 C 273.539 -0.242947 1.93481 0
M  V30 2824 O 272.809 -1.1619 1.57724 0
M  V30 2825 H 271.389 0.44135 0.602677 0
M  V30 2826 H 274.051 1.64222 1.04962 0
M  V30 2827 H 273.147 1.76762 2.57219 0
M  V30 2828 N 273.449 -1.08991 1.13837 0
M  V30 2829 C 274.379 -2.17771 0.842507 0
M  V30 2830 C 275.36 -1.6892 -0.20001 0
M  V30 2831 O 276.545 -1.94113 -0.0579731 0
M  V30 2832 C 273.675 -3.4589 0.312644 0
M  V30 2833 C 272.629 -4.08099 1.28992 0
M  V30 2834 C 271.955 -5.31098 0.619623 0
M  V30 2835 C 273.255 -4.50077 2.65005 0
M  V30 2836 H 274.949 -2.42777 1.75213 0
M  V30 2837 H 272.495 -1.16682 0.843875 0
M  V30 2838 H 274.448 -4.21297 0.0933043 0
M  V30 2839 H 273.172 -3.20419 -0.632382 0
M  V30 2840 H 271.831 -3.34717 1.49533 0
M  V30 2841 H 271.479 -5.0191 -0.33102 0
M  V30 2842 H 271.179 -5.73674 1.27167 0
M  V30 2843 H 272.703 -6.09224 0.409669 0
M  V30 2844 H 274.117 -5.16688 2.48407 0
M  V30 2845 H 272.514 -5.03553 3.26427 0
M  V30 2846 H 273.584 -3.62257 3.22332 0
M  V30 2847 N 274.927 -0.932562 -1.27047 0
M  V30 2848 C 276.176 -0.571351 -1.93439 0
M  V30 2849 C 276.489 0.892467 -1.74053 0
M  V30 2850 O 277.695 1.36267 -2.34826 0
M  V30 2851 C 276.151 -0.97106 -3.46552 0
M  V30 2852 C 275.759 -2.4559 -3.74686 0
M  V30 2853 C 277.503 -0.681333 -4.18997 0
M  V30 2854 C 275.41 -2.79475 -5.21198 0
M  V30 2855 H 274.34 -0.209966 -0.724176 0
M  V30 2856 H 276.991 -1.13403 -1.44263 0
M  V30 2857 H 275.373 -0.336983 -3.94564 0
M  V30 2858 H 276.547 -3.13829 -3.37414 0
M  V30 2859 H 274.862 -2.71802 -3.15456 0
M  V30 2860 H 277.459 -0.910939 -5.26883 0
M  V30 2861 H 277.802 0.381628 -4.14547 0
M  V30 2862 H 278.335 -1.27473 -3.76823 0
M  V30 2863 H 275.074 -3.847 -5.30741 0
M  V30 2864 H 274.594 -2.1589 -5.596 0
M  V30 2865 H 276.273 -2.67478 -5.89122 0
M  V30 2866 N 276.405 1.4127 -0.698611 0
M  V30 2867 C 277.335 2.33447 -0.049629 0
M  V30 2868 C 278.316 1.51982 0.763898 0
M  V30 2869 O 279.501 1.80509 0.716257 0
M  V30 2870 C 276.631 3.35828 0.885267 0
M  V30 2871 C 275.585 4.27627 0.178613 0
M  V30 2872 C 274.911 5.20406 1.22807 0
M  V30 2873 C 276.211 5.13459 -0.956933 0
M  V30 2874 H 277.905 2.87966 -0.81951 0
M  V30 2875 H 275.451 1.38461 -0.395538 0
M  V30 2876 H 277.404 3.9924 1.34854 0
M  V30 2877 H 276.128 2.79666 1.68685 0
M  V30 2878 H 274.787 3.65643 -0.26466 0
M  V30 2879 H 274.435 4.60558 2.02226 0
M  V30 2880 H 274.135 5.82661 0.760239 0
M  V30 2881 H 275.659 5.86695 1.69179 0
M  V30 2882 H 277.073 5.70421 -0.573805 0
M  V30 2883 H 275.47 5.8467 -1.35205 0
M  V30 2884 H 276.54 4.50443 -1.79524 0
M  V30 2885 N 277.883 0.443576 1.51229 0
M  V30 2886 C 278.833 -0.382787 2.24764 0
M  V30 2887 C 279.817 -0.984836 1.27239 0
M  V30 2888 O 281.009 -0.901943 1.52296 0
M  V30 2889 C 278.138 -1.47989 3.09765 0
M  V30 2890 C 277.224 -0.886931 4.14722 0
M  V30 2891 N 277.615 -0.0237103 5.05794 0
M  V30 2892 C 275.913 -1.15385 4.30816 0
M  V30 2893 C 276.614 0.309971 5.80874 0
M  V30 2894 N 275.59 -0.307989 5.42727 0
M  V30 2895 H 279.392 0.282624 2.92538 0
M  V30 2896 H 276.906 0.256027 1.60369 0
M  V30 2897 H 278.903 -2.08482 3.61027 0
M  V30 2898 H 277.563 -2.14758 2.43535 0
M  V30 2899 H 278.574 0.34318 5.16762 0
M  V30 2900 H 275.251 -1.81857 3.75812 0
M  V30 2901 H 276.641 1.01279 6.64223 0
M  V30 2902 N 279.361 -1.56624 0.175154 0
M  V30 2903 C 280.609 -1.96609 -0.467885 0
M  V30 2904 C 280.93 -1.06238 -1.63519 0
M  V30 2905 O 280.2 -0.129523 -1.95471 0
M  V30 2906 H 278.78 -0.726008 -0.175845 0
M  V30 2907 H 281.442 -1.93195 0.257234 0
M  V30 2908 H 280.538 -3.00989 -0.825342 0
M  V30 2909 N 280.839 0.0985539 -1.57292 0
M  V30 2910 C 282.064 0.820196 -1.90493 0
M  V30 2911 C 282.489 1.71658 -0.769094 0
M  V30 2912 O 281.847 1.79133 0.279495 0
M  V30 2913 C 281.895 1.61242 -3.22542 0
M  V30 2914 O 280.999 2.72108 -3.09888 0
M  V30 2915 H 280.34 0.225547 -0.62452 0
M  V30 2916 H 282.87 0.0748159 -2.04463 0
M  V30 2917 H 282.88 1.99737 -3.55766 0
M  V30 2918 H 281.555 0.954535 -4.04798 0
M  V30 2919 H 280.132 2.36667 -2.88172 0
M  V30 2920 N 282.317 1.53212 0.369288 0
M  V30 2921 C 283.565 1.68881 1.11012 0
M  V30 2922 C 283.886 0.441285 1.89941 0
M  V30 2923 O 283.156 -0.544623 1.88177 0
M  V30 2924 H 281.736 0.622569 0.412816 0
M  V30 2925 H 284.398 1.90391 0.416802 0
M  V30 2926 H 283.494 2.54822 1.80201 0
M  V30 2927 N 283.795 -0.628877 1.44509 0
M  V30 2928 C 284.728 -1.75367 1.46019 0
M  V30 2929 C 285.706 -1.59444 0.318787 0
M  V30 2930 O 286.89 -1.81297 0.516099 0
M  V30 2931 C 284.017 -3.12965 1.29501 0
M  V30 2932 C 283.063 -3.47532 2.47233 0
M  V30 2933 S 283.896 -3.44758 4.09758 0
M  V30 2934 C 285.052 -4.84973 3.95667 0
M  V30 2935 H 285.285 -1.7382 2.41193 0
M  V30 2936 H 282.818 -0.803686 1.31834 0
M  V30 2937 H 284.776 -3.92367 1.20658 0
M  V30 2938 H 283.437 -3.12049 0.358341 0
M  V30 2939 H 282.63 -4.47664 2.31544 0
M  V30 2940 H 282.232 -2.75598 2.52828 0
M  V30 2941 H 284.524 -5.74255 3.59496 0
M  V30 2942 H 285.467 -5.05716 4.95638 0
M  V30 2943 H 285.875 -4.59653 3.27688 0
M  V30 2944 N 285.273 -1.31445 -0.869486 0
M  V30 2945 C 286.203 -1.21727 -1.99261 0
M  V30 2946 C 287.184 -0.104359 -1.6978 0
M  V30 2947 O 288.369 -0.289038 -1.92037 0
M  V30 2948 C 285.499 -0.924317 -3.34774 0
M  V30 2949 C 284.453 -1.99685 -3.78563 0
M  V30 2950 C 283.779 -1.55658 -5.11541 0
M  V30 2951 C 285.079 -3.41003 -3.95619 0
M  V30 2952 H 286.773 -2.1569 -2.07649 0
M  V30 2953 H 284.319 -1.03839 -0.997675 0
M  V30 2954 H 286.272 -0.842934 -4.12883 0
M  V30 2955 H 284.996 0.0509793 -3.2656 0
M  V30 2956 H 283.655 -2.06813 -3.02694 0
M  V30 2957 H 283.303 -0.569132 -4.9977 0
M  V30 2958 H 283.003 -2.27409 -5.41811 0
M  V30 2959 H 284.527 -1.48928 -5.92159 0
M  V30 2960 H 285.941 -3.36547 -4.64122 0
M  V30 2961 H 284.338 -4.10975 -4.37286 0
M  V30 2962 H 285.408 -3.81754 -2.98985 0
M  V30 2963 N 286.751 1.08385 -1.14413 0
M  V30 2964 C 287.681 2.17321 -0.854044 0
M  V30 2965 C 288.662 1.69024 0.191049 0
M  V30 2966 O 289.847 1.94141 0.0476779 0
M  V30 2967 C 286.977 3.45719 -0.330983 0
M  V30 2968 C 285.931 4.07409 -1.31155 0
M  V30 2969 C 285.257 5.30762 -0.64778 0
M  V30 2970 C 286.557 4.48665 -2.67388 0
M  V30 2971 H 288.251 2.41845 -1.76498 0
M  V30 2972 H 285.797 1.16233 -0.850051 0
M  V30 2973 H 287.75 4.21241 -0.115645 0
M  V30 2974 H 286.474 3.2075 0.615381 0
M  V30 2975 H 285.133 3.33919 -1.51306 0
M  V30 2976 H 284.781 5.02078 0.304398 0
M  V30 2977 H 284.481 5.72992 -1.30207 0
M  V30 2978 H 286.005 6.08998 -0.441972 0
M  V30 2979 H 287.419 5.15364 -2.51143 0
M  V30 2980 H 285.816 5.01814 -3.29093 0
M  V30 2981 H 286.886 3.60543 -3.24248 0
M  V30 2982 N 288.23 0.939286 1.26551 0
M  V30 2983 C 289.641 0.628782 1.75793 0
M  V30 2984 C 289.992 -0.856046 1.7654 0
M  V30 2985 O 289.117 -1.66994 1.3763 0
M  V30 2986 C 289.712 1.13465 3.19235 0
M  V30 2987 C 288.271 0.874601 3.66098 0
M  V30 2988 C 287.418 1.28667 2.45642 0
M  V30 2989 H 290.369 1.1178 1.12654 0
M  V30 2990 H 290.39 0.487609 3.77363 0
M  V30 2991 H 289.902 2.21535 3.1866 0
M  V30 2992 H 288.003 -0.191793 3.72106 0
M  V30 2993 H 288.116 1.50028 4.55004 0
M  V30 2994 H 286.48 0.705109 2.44745 0
M  V30 2995 H 287.263 2.37625 2.47769 0
M  V30 2996 N 289.708 -1.40897 0.706093 0
M  V30 2997 C 290.948 -2.02916 0.245827 0
M  V30 2998 C 291.312 -1.54751 -1.13649 0
M  V30 2999 O 292.513 -2.08768 -1.69321 0
M  V30 3000 C 290.784 -3.56031 0.312537 0
M  V30 3001 S 292.343 -4.38741 -0.0721388 0
M  V30 3002 H 289.161 -0.704186 0.0982007 0
M  V30 3003 H 291.763 -1.72168 0.926207 0
M  V30 3004 H 290.467 -3.88579 1.32039 0
M  V30 3005 H 289.998 -3.91495 -0.386641 0
M  V30 3006 H 292.013 -4.78952 -1.29692 0
M  V30 3007 N 291.186 -0.45159 -1.50991 0
M  V30 3008 C 292.434 0.109857 -2.01801 0
M  V30 3009 C 292.755 1.41958 -1.3369 0
M  V30 3010 O 292.025 1.9003 -0.475951 0
M  V30 3011 H 290.605 0.0435884 -0.745727 0
M  V30 3012 H 293.267 -0.597557 -1.85514 0
M  V30 3013 H 292.363 0.275489 -3.10882 0
M  V30 3014 N 292.664 1.56529 -0.183458 0
M  V30 3015 C 293.889 2.02064 0.467428 0
M  V30 3016 C 294.314 1.06282 1.55196 0
M  V30 3017 O 293.672 0.0443565 1.81246 0
M  V30 3018 C 293.72 3.46122 1.01153 0
M  V30 3019 O 292.824 3.53437 2.12499 0
M  V30 3020 H 292.165 0.654726 0.110588 0
M  V30 3021 H 294.695 2.02521 -0.290917 0
M  V30 3022 H 294.705 3.85676 1.33108 0
M  V30 3023 H 293.38 4.15331 0.217533 0
M  V30 3024 H 291.957 3.2575 1.81497 0
M  V30 3025 N 294.142 -0.090211 1.57342 0
M  V30 3026 C 295.419 -0.824761 1.77361 0
M  V30 3027 C 295.799 -1.96698 0.76637 0
M  V30 3028 O 295.147 -2.27586 -0.204179 0
M  V30 3029 C 295.357 -1.31481 3.23286 0
M  V30 3030 C 296.705 -1.75563 3.86604 0
M  V30 3031 O 297.729 -1.41093 3.27065 0
M  V30 3032 O 296.588 -2.39317 4.91314 0
M  V30 3033 H 293.682 -0.393776 0.727234 0
M  V30 3034 H 296.228 -0.0717138 1.69548 0
M  V30 3035 H 295 -0.496671 3.88135 0
M  V30 3036 H 294.623 -2.12973 3.35751 0
M  V30 3037 N 295.62 -1.53406 -0.361157 0
M  V30 3038 C 297.036 -1.43277 -0.703124 0
M  V30 3039 C 297.236 -0.575384 -1.9311 0
M  V30 3040 O 296.292 -0.0595362 -2.5243 0
M  V30 3041 C 297.605 -2.8653 -0.9122 0
M  V30 3042 C 299.153 -2.96191 -1.01193 0
M  V30 3043 C 299.628 -4.40514 -1.25345 0
M  V30 3044 N 301.119 -4.43962 -1.32105 0
M  V30 3045 C 301.854 -5.52746 -1.5251 0
M  V30 3046 N 301.35 -6.71567 -1.70203 0
M  V30 3047 N 303.143 -5.40331 -1.54916 0
M  V30 3048 H 295.294 -2.07654 0.446475 0
M  V30 3049 H 297.557 -0.937944 0.137715 0
M  V30 3050 H 297.263 -3.51605 -0.0816414 0
M  V30 3051 H 297.137 -3.30441 -1.81903 0
M  V30 3052 H 299.524 -2.31266 -1.83303 0
M  V30 3053 H 299.605 -2.55667 -0.0823929 0
M  V30 3054 H 299.249 -5.06014 -0.437346 0
M  V30 3055 H 299.179 -4.78614 -2.19627 0
M  V30 3056 H 301.67 -3.58332 -1.20028 0
M  V30 3057 H 301.983 -7.50241 -1.85359 0
M  V30 3058 H 300.328 -6.74545 -1.67373 0
M  V30 3059 H 303.519 -4.46465 -1.40663 0
M  V30 3060 H 303.692 -6.25173 -1.70477 0
M  V30 3061 N 297.098 0.621204 -1.44841 0
M  V30 3062 C 298.345 1.38055 -1.48145 0
M  V30 3063 C 298.673 1.94143 -0.117867 0
M  V30 3064 O 297.928 1.74713 0.881694 0
M  V30 3065 C 298.227 2.55675 -2.4973 0
M  V30 3066 C 297.893 2.17817 -3.94799 0
M  V30 3067 C 296.555 2.07205 -4.34303 0
M  V30 3068 C 298.907 1.88065 -4.86087 0
M  V30 3069 C 296.235 1.65045 -5.63007 0
M  V30 3070 C 298.587 1.47394 -6.15189 0
M  V30 3071 C 297.251 1.35331 -6.53637 0
M  V30 3072 H 296.521 0.505181 -0.542101 0
M  V30 3073 H 299.168 0.703477 -1.78111 0
M  V30 3074 H 297.473 3.2866 -2.13284 0
M  V30 3075 H 299.17 3.13904 -2.4953 0
M  V30 3076 H 295.76 2.26998 -3.63552 0
M  V30 3077 H 299.944 1.95168 -4.56315 0
M  V30 3078 H 295.2 1.54317 -5.91605 0
M  V30 3079 H 299.374 1.23415 -6.85377 0
M  V30 3080 H 297.001 1.02435 -7.53267 0
M  V30 3081 N 298.576 1.31904 0.862503 0
M  V30 3082 C 299.992 1.10724 1.14945 0
M  V30 3083 C 300.192 -0.117421 2.01158 0
M  V30 3084 O 299.248 -0.804595 2.39338 0
M  V30 3085 C 300.561 2.38267 1.83437 0
M  V30 3086 C 302.109 2.43949 1.96106 0
M  V30 3087 C 302.584 3.71394 2.68013 0
M  V30 3088 N 304.075 3.72331 2.75543 0
M  V30 3089 C 304.81 4.67641 3.31812 0
M  V30 3090 N 304.306 5.73313 3.88953 0
M  V30 3091 N 306.099 4.5515 3.29841 0
M  V30 3092 H 298.25 2.10436 0.288191 0
M  V30 3093 H 300.513 0.928705 0.190292 0
M  V30 3094 H 300.219 3.27759 1.27542 0
M  V30 3095 H 300.093 2.48633 2.83657 0
M  V30 3096 H 302.48 1.54922 2.51164 0
M  V30 3097 H 302.561 2.37543 0.949059 0
M  V30 3098 H 302.205 4.60791 2.13621 0
M  V30 3099 H 302.135 3.75069 3.69636 0
M  V30 3100 H 304.626 2.95947 2.34997 0
M  V30 3101 H 304.939 6.42107 4.30022 0
M  V30 3102 H 303.284 5.77077 3.87308 0
M  V30 3103 H 306.475 3.71766 2.84443 0
M  V30 3104 H 306.648 5.29604 3.73394 0
M  V30 3105 N 300.054 -1.07777 1.14986 0
M  V30 3106 C 301.302 -1.79934 0.920235 0
M  V30 3107 C 301.623 -1.86955 -0.554336 0
M  V30 3108 O 300.893 -1.36731 -1.40291 0
M  V30 3109 H 299.473 -0.666424 0.337473 0
M  V30 3110 H 302.135 -1.3027 1.44968 0
M  V30 3111 H 301.231 -2.82539 1.32583 0
M  V30 3112 N 301.532 -0.945985 -1.26051 0
M  V30 3113 C 302.778 -0.597002 -1.93814 0
M  V30 3114 C 303.111 0.862484 -1.73997 0
M  V30 3115 O 302.386 1.61769 -1.07986 0
M  V30 3116 C 302.669 -0.945937 -3.47454 0
M  V30 3117 C 302.522 -2.46052 -3.76535 0
M  V30 3118 C 303.841 -0.464785 -4.37639 0
M  V30 3119 H 300.96 -0.218366 -0.703907 0
M  V30 3120 H 303.602 -1.18107 -1.48831 0
M  V30 3121 H 301.752 -0.448902 -3.85898 0
M  V30 3122 H 303.424 -3.03065 -3.47778 0
M  V30 3123 H 301.667 -2.90194 -3.22444 0
M  V30 3124 H 302.338 -2.65517 -4.83947 0
M  V30 3125 H 304.814 -0.891016 -4.06448 0
M  V30 3126 H 303.69 -0.737712 -5.4392 0
M  V30 3127 H 303.951 0.635274 -4.37512 0
M  V30 3128 N 303.011 1.40521 -0.713556 0
M  V30 3129 C 303.921 2.34522 -0.0606667 0
M  V30 3130 C 304.937 1.57193 0.74607 0
M  V30 3131 O 306.113 1.89591 0.679493 0
M  V30 3132 C 303.178 3.36081 0.851491 0
M  V30 3133 C 302.239 4.29286 0.0349339 0
M  V30 3134 C 301.472 5.25994 0.903649 0
M  V30 3135 O 301.695 5.28616 2.14292 0
M  V30 3136 O 300.629 6.00918 0.343723 0
M  V30 3137 H 304.455 2.91968 -0.835972 0
M  V30 3138 H 302.04 1.41681 -0.47402 0
M  V30 3139 H 303.922 3.98369 1.37404 0
M  V30 3140 H 302.597 2.81052 1.60598 0
M  V30 3141 H 301.504 3.70289 -0.532633 0
M  V30 3142 H 302.837 4.87462 -0.681287 0
M  V30 3143 N 304.489 0.459591 1.5075 0
M  V30 3144 C 305.719 -0.0972338 2.06371 0
M  V30 3145 C 306.127 -1.35074 1.32483 0
M  V30 3146 O 305.47 -1.79637 0.384226 0
M  V30 3147 C 305.532 -0.462759 3.56509 0
M  V30 3148 C 305.196 0.687084 4.51805 0
M  V30 3149 C 306.193 1.56578 4.95761 0
M  V30 3150 C 303.878 0.874144 4.94635 0
M  V30 3151 C 305.872 2.61604 5.81242 0
M  V30 3152 C 303.559 1.92765 5.79901 0
M  V30 3153 C 304.557 2.79697 6.23104 0
M  V30 3154 O 304.245 3.83235 7.06673 0
M  V30 3155 H 303.977 -0.00140687 0.675999 0
M  V30 3156 H 306.531 0.644011 1.95043 0
M  V30 3157 H 304.761 -1.25703 3.65699 0
M  V30 3158 H 306.45 -0.953323 3.94546 0
M  V30 3159 H 307.216 1.4329 4.6335 0
M  V30 3160 H 303.095 0.207006 4.60535 0
M  V30 3161 H 306.639 3.29489 6.14884 0
M  V30 3162 H 302.536 2.06064 6.11725 0
M  V30 3163 H 303.304 3.80084 7.24899 0
M  V30 3164 N 305.967 -1.56429 0.191757 0
M  V30 3165 C 307.213 -1.97777 -0.448554 0
M  V30 3166 C 307.546 -1.07847 -1.61501 0
M  V30 3167 O 306.821 -0.129774 -1.94067 0
M  V30 3168 C 307.104 -3.48362 -0.911906 0
M  V30 3169 C 306.957 -4.4907 0.256136 0
M  V30 3170 C 308.276 -4.02561 -1.77857 0
M  V30 3171 H 305.395 -0.719071 -0.161572 0
M  V30 3172 H 308.037 -1.87896 0.282007 0
M  V30 3173 H 306.187 -3.56914 -1.53442 0
M  V30 3174 H 307.859 -4.5256 0.893733 0
M  V30 3175 H 306.102 -4.24181 0.908436 0
M  V30 3176 H 306.773 -5.51889 -0.11053 0
M  V30 3177 H 309.249 -3.96767 -1.25359 0
M  V30 3178 H 308.125 -5.08301 -2.07174 0
M  V30 3179 H 308.386 -3.47616 -2.73158 0
M  V30 3180 N 307.445 0.0818655 -1.57387 0
M  V30 3181 C 308.685 0.788375 -1.88584 0
M  V30 3182 C 309.049 1.75248 -0.784351 0
M  V30 3183 O 310.25 2.50334 -0.979105 0
M  V30 3184 C 308.521 1.48654 -3.25018 0
M  V30 3185 S 310.08 2.22951 -3.7794 0
M  V30 3186 H 306.898 0.262383 -0.660815 0
M  V30 3187 H 309.5 0.0448995 -1.95448 0
M  V30 3188 H 308.204 0.770919 -4.03094 0
M  V30 3189 H 307.735 2.26965 -3.21326 0
M  V30 3190 H 309.75 3.49309 -3.52417 0
M  V30 3191 N 308.923 1.53595 0.353017 0
M  V30 3192 C 310.163 1.72094 1.10286 0
M  V30 3193 C 310.527 0.469217 1.86178 0
M  V30 3194 O 311.728 0.531083 2.63501 0
M  V30 3195 C 309.999 2.94386 2.02661 0
M  V30 3196 S 311.558 3.33651 2.84996 0
M  V30 3197 H 308.376 0.605433 0.372789 0
M  V30 3198 H 310.978 1.91722 0.38248 0
M  V30 3199 H 309.682 3.83669 1.45691 0
M  V30 3200 H 309.213 2.77197 2.79152 0
M  V30 3201 H 311.228 2.86645 4.0503 0
M  V30 3202 N 310.401 -0.613514 1.45168 0
M  V30 3203 C 311.812 -1.19539 1.43413 0
M  V30 3204 C 312.163 -1.95558 0.158632 0
M  V30 3205 O 311.288 -2.0335 -0.740119 0
M  V30 3206 C 311.883 -2.17445 2.59813 0
M  V30 3207 C 310.442 -2.71022 2.61197 0
M  V30 3208 C 309.589 -1.46323 2.35552 0
M  V30 3209 H 312.54 -0.403163 1.53494 0
M  V30 3210 H 312.561 -3.00373 2.33574 0
M  V30 3211 H 312.073 -1.62089 3.52631 0
M  V30 3212 H 310.174 -3.30332 1.7237 0
M  V30 3213 H 310.287 -3.15859 3.60236 0
M  V30 3214 H 308.651 -1.75072 1.84992 0
M  V30 3215 H 309.434 -0.92844 3.30507 0
M  V30 3216 N 311.879 -1.3236 -0.855495 0
M  V30 3217 C 313.29 -1.2056 -1.42556 0
M  V30 3218 C 313.641 0.182209 -1.95352 0
M  V30 3219 O 312.766 1.08088 -1.87472 0
M  V30 3220 C 313.361 -2.1826 -2.59129 0
M  V30 3221 C 311.92 -2.10351 -3.12137 0
M  V30 3222 C 311.067 -2.06674 -1.84882 0
M  V30 3223 H 314.018 -1.442 -0.662727 0
M  V30 3224 H 314.039 -1.78064 -3.36264 0
M  V30 3225 H 313.551 -3.19257 -2.20673 0
M  V30 3226 H 311.652 -1.12599 -3.55179 0
M  V30 3227 H 311.765 -3.00135 -3.73438 0
M  V30 3228 H 310.129 -1.51901 -2.04446 0
M  V30 3229 H 310.912 -3.09451 -1.48643 0
M  V30 3230 N 313.357 1.07166 -1.15556 0
M  V30 3231 C 314.768 1.6127 -0.940693 0
M  V30 3232 C 315.119 1.89251 0.517551 0
M  V30 3233 O 314.244 1.65937 1.38903 0
M  V30 3234 C 314.839 2.92993 -1.7012 0
M  V30 3235 C 313.398 3.43832 -1.53156 0
M  V30 3236 C 312.545 2.1786 -1.71558 0
M  V30 3237 H 315.496 0.90229 -1.30554 0
M  V30 3238 H 315.517 3.62007 -1.17181 0
M  V30 3239 H 315.029 2.72596 -2.76248 0
M  V30 3240 H 313.13 3.69307 -0.494294 0
M  V30 3241 H 313.243 4.19747 -2.30975 0
M  V30 3242 H 311.607 2.2765 -1.14225 0
M  V30 3243 H 312.39 1.99956 -2.79056 0
M  V30 3244 N 314.835 0.952656 1.25548 0
M  V30 3245 C 316.083 0.605176 1.92826 0
M  V30 3246 C 316.404 -0.860261 1.74999 0
M  V30 3247 O 315.674 -1.6125 1.11244 0
M  V30 3248 H 314.254 0.220832 0.713612 0
M  V30 3249 H 316.916 1.21047 1.52754 0
M  V30 3250 H 316.012 0.832798 3.00784 0
M  V30 3251 N 316.313 -1.40141 0.720998 0
M  V30 3252 C 317.541 -2.05096 0.272656 0
M  V30 3253 C 317.956 -1.54334 -1.0875 0
M  V30 3254 O 317.313 -0.702211 -1.6845 0
M  V30 3255 C 317.364 -3.60636 0.249835 0
M  V30 3256 O 317.085 -4.09526 1.55629 0
M  V30 3257 C 318.586 -4.42772 -0.216396 0
M  V30 3258 H 315.806 -0.659897 0.121558 0
M  V30 3259 H 318.35 -1.79449 0.980723 0
M  V30 3260 H 316.505 -3.85232 -0.409237 0
M  V30 3261 H 316.919 -5.03758 1.4604 0
M  V30 3262 H 318.393 -5.51702 -0.181212 0
M  V30 3263 H 318.87 -4.20756 -1.25941 0
M  V30 3264 H 319.476 -4.23294 0.412596 0
M  V30 3265 N 317.792 -0.46758 -1.50504 0
M  V30 3266 C 319.203 -0.0116166 -1.86696 0
M  V30 3267 C 319.554 1.39202 -1.38265 0
M  V30 3268 O 318.679 2.0313 -0.746132 0
M  V30 3269 C 319.274 -0.0143044 -3.38797 0
M  V30 3270 C 317.833 0.386175 -3.74414 0
M  V30 3271 C 316.98 -0.401287 -2.74381 0
M  V30 3272 H 319.931 -0.682022 -1.43297 0
M  V30 3273 H 319.952 0.788641 -3.72237 0
M  V30 3274 H 319.464 -1.03602 -3.74016 0
M  V30 3275 H 317.565 1.41237 -3.44794 0
M  V30 3276 H 317.678 0.0899596 -4.79016 0
M  V30 3277 H 316.042 0.144536 -2.5429 0
M  V30 3278 H 316.825 -1.42244 -3.12444 0
M  V30 3279 N 319.27 1.56325 -0.20005 0
M  V30 3280 C 320.547 1.89484 0.48529 0
M  V30 3281 C 320.927 1.1143 1.79294 0
M  V30 3282 O 320.275 0.216919 2.27468 0
M  V30 3283 C 320.485 3.41923 0.699243 0
M  V30 3284 C 321.833 4.12256 1.01638 0
M  V30 3285 O 322.857 3.47402 0.786792 0
M  V30 3286 O 321.716 5.26887 1.45095 0
M  V30 3287 H 318.81 0.787144 0.253639 0
M  V30 3288 H 321.356 1.67985 -0.240633 0
M  V30 3289 H 320.128 3.90658 -0.224008 0
M  V30 3290 H 319.751 3.69131 1.47744 0
M  V30 3291 N 320.748 -0.0735177 1.57428 0
M  V30 3292 C 322.159 -0.625551 1.75908 0
M  V30 3293 C 322.51 -1.78 0.825261 0
M  V30 3294 O 321.635 -2.16398 0.00893964 0
M  V30 3295 C 322.23 -1.14155 3.18989 0
M  V30 3296 C 320.789 -1.63946 3.38819 0
M  V30 3297 C 319.936 -0.558151 2.71625 0
M  V30 3298 H 322.887 0.152647 1.57964 0
M  V30 3299 H 322.908 -2.0104 3.23053 0
M  V30 3300 H 322.42 -0.301116 3.8693 0
M  V30 3301 H 320.521 -2.50321 2.7599 0
M  V30 3302 H 320.634 -1.71759 4.47253 0
M  V30 3303 H 318.998 -1.00278 2.34129 0
M  V30 3304 H 319.781 0.272071 3.4222 0
M  V30 3305 N 322.226 -1.5378 -0.344866 0
M  V30 3306 C 323.451 -1.75211 -1.10977 0
M  V30 3307 C 323.876 -0.48936 -1.81623 0
M  V30 3308 O 323.234 0.557925 -1.72502 0
M  V30 3309 C 323.282 -2.93147 -2.09993 0
M  V30 3310 O 322.386 -2.63203 -3.17487 0
M  V30 3311 H 321.727 -0.581241 -0.321021 0
M  V30 3312 H 324.257 -2.00738 -0.395661 0
M  V30 3313 H 324.267 -3.19898 -2.53237 0
M  V30 3314 H 322.942 -3.84731 -1.5797 0
M  V30 3315 H 321.519 -2.47336 -2.79069 0
M  V30 3316 N 323.704 0.605807 -1.45491 0
M  V30 3317 C 324.952 1.36207 -1.49305 0
M  V30 3318 C 325.273 1.94519 -0.136863 0
M  V30 3319 O 324.543 1.77261 0.833983 0
M  V30 3320 H 323.123 0.50565 -0.549843 0
M  V30 3321 H 325.785 0.711239 -1.81459 0
M  V30 3322 H 324.881 2.18058 -2.23287 0
M  V30 3323 N 325.182 1.32811 0.848464 0
M  V30 3324 C 326.41 1.26739 1.63538 0
M  V30 3325 C 326.825 -0.163484 1.88091 0
M  V30 3326 O 326.182 -1.10258 1.45429 0
M  V30 3327 C 326.233 2.03013 2.99112 0
M  V30 3328 O 325.954 3.40518 2.75643 0
M  V30 3329 C 327.455 2.04038 3.93552 0
M  V30 3330 H 324.675 0.437024 0.509167 0
M  V30 3331 H 327.219 1.75033 1.05753 0
M  V30 3332 H 325.374 1.58426 3.53525 0
M  V30 3333 H 325.788 3.79635 3.61908 0
M  V30 3334 H 327.262 2.61877 4.85926 0
M  V30 3335 H 327.739 1.0282 4.26995 0
M  V30 3336 H 328.345 2.486 3.45077 0
M  V30 3337 N 326.66 -1.06551 1.16123 0
M  V30 3338 C 327.623 -2.12132 0.867906 0
M  V30 3339 C 328.623 -1.60224 -0.135944 0
M  V30 3340 O 329.813 -1.73943 0.0946422 0
M  V30 3341 C 326.945 -3.396 0.297419 0
M  V30 3342 H 328.138 -2.39586 1.80385 0
M  V30 3343 H 325.691 -1.22574 0.969812 0
M  V30 3344 H 326.426 -3.17794 -0.64633 0
M  V30 3345 H 326.211 -3.78581 1.02073 0
M  V30 3346 H 327.701 -4.17455 0.110052 0
M  V30 3347 N 328.138 -0.959301 -1.25041 0
M  V30 3348 C 329.384 -0.617525 -1.9317 0
M  V30 3349 C 329.717 0.843981 -1.74902 0
M  V30 3350 O 328.992 1.60615 -1.09696 0
M  V30 3351 C 329.275 -0.982736 -3.46431 0
M  V30 3352 C 329.128 -2.50032 -3.73904 0
M  V30 3353 C 330.447 -0.511176 -4.37121 0
M  V30 3354 H 327.566 -0.22582 -0.701552 0
M  V30 3355 H 330.208 -1.19679 -1.4757 0
M  V30 3356 H 328.358 -0.489806 -3.854 0
M  V30 3357 H 330.03 -3.06737 -3.44544 0
M  V30 3358 H 328.273 -2.93598 -3.19348 0
M  V30 3359 H 328.944 -2.70635 -4.81103 0
M  V30 3360 H 331.42 -0.934075 -4.0548 0
M  V30 3361 H 330.296 -0.795361 -5.43107 0
M  V30 3362 H 330.557 0.588834 -4.38161 0
M  V30 3363 N 329.616 1.39756 -0.72842 0
M  V30 3364 C 330.864 2.00248 -0.272946 0
M  V30 3365 C 331.185 1.58077 1.14178 0
M  V30 3366 O 330.455 0.826014 1.77634 0
M  V30 3367 H 329.035 0.740554 -0.0979247 0
M  V30 3368 H 331.697 1.70903 -0.936912 0
M  V30 3369 H 330.793 3.10495 -0.316142 0
M  V30 3370 N 331.094 0.475555 1.50254 0
M  V30 3371 C 332.371 -0.139685 1.95101 0
M  V30 3372 C 332.751 -1.56555 1.41611 0
M  V30 3373 O 332.099 -2.19956 0.618993 0
M  V30 3374 C 332.309 -0.0784298 3.48912 0
M  V30 3375 C 333.657 -0.265095 4.23772 0
M  V30 3376 O 334.681 -0.154808 3.55863 0
M  V30 3377 O 333.54 -0.488327 5.44314 0
M  V30 3378 H 330.634 -0.109236 0.819754 0
M  V30 3379 H 333.18 0.536276 1.61004 0
M  V30 3380 H 331.952 0.916918 3.80405 0
M  V30 3381 H 331.575 -0.795655 3.89558 0
M  V30 3382 N 332.573 -1.56217 0.208337 0
M  V30 3383 C 333.984 -1.84243 -0.301904 0
M  V30 3384 C 334.335 -1.12939 -1.60434 0
M  V30 3385 O 333.46 -0.39461 -2.12772 0
M  V30 3386 C 334.055 -3.34231 -0.554543 0
M  V30 3387 C 332.614 -3.62621 -1.00912 0
M  V30 3388 C 331.761 -2.77224 -0.064933 0
M  V30 3389 H 334.712 -1.52712 0.431833 0
M  V30 3390 H 334.733 -3.5372 -1.40223 0
M  V30 3391 H 334.245 -3.86099 0.393561 0
M  V30 3392 H 332.346 -3.16197 -1.97104 0
M  V30 3393 H 332.459 -4.7071 -0.892674 0
M  V30 3394 H 330.823 -2.48256 -0.56929 0
M  V30 3395 H 331.606 -3.31887 0.877851 0
M  V30 3396 N 334.051 0.0651679 -1.57465 0
M  V30 3397 C 335.276 0.779605 -1.9219 0
M  V30 3398 C 335.701 1.69988 -0.805333 0
M  V30 3399 O 335.059 1.79685 0.241435 0
M  V30 3400 C 335.107 1.54364 -3.2589 0
M  V30 3401 O 334.211 2.65474 -3.1559 0
M  V30 3402 H 333.552 0.212249 -0.629163 0
M  V30 3403 H 336.082 0.0314294 -2.04576 0
M  V30 3404 H 336.092 1.92146 -3.59922 0
M  V30 3405 H 334.767 0.868457 -4.06732 0
M  V30 3406 H 333.344 2.30501 -2.93128 0
M  V30 3407 N 335.529 1.53961 0.336706 0
M  V30 3408 C 336.757 1.75483 1.09605 0
M  V30 3409 C 337.172 0.4972 1.82136 0
M  V30 3410 O 336.529 -0.53149 1.74589 0
M  V30 3411 C 336.58 2.93943 2.10428 0
M  V30 3412 O 336.301 4.14842 1.40846 0
M  V30 3413 C 337.802 3.27571 2.98684 0
M  V30 3414 H 335.022 0.586166 0.326574 0
M  V30 3415 H 337.566 2.00808 0.38683 0
M  V30 3416 H 335.721 2.70929 2.76905 0
M  V30 3417 H 336.135 4.81383 2.08255 0
M  V30 3418 H 337.609 4.13791 3.6535 0
M  V30 3419 H 338.086 2.44168 3.65074 0
M  V30 3420 H 338.692 3.52615 2.37787 0
M  V30 3421 N 337.007 -0.598083 1.45811 0
M  V30 3422 C 338.423 -0.919847 1.30426 0
M  V30 3423 C 338.623 -1.99759 0.264303 0
M  V30 3424 O 337.679 -2.50221 -0.338472 0
M  V30 3425 C 338.992 -1.35176 2.68603 0
M  V30 3426 C 340.54 -1.46546 2.76574 0
M  V30 3427 C 341.015 -1.9311 4.15298 0
M  V30 3428 N 342.506 -2.00328 4.1764 0
M  V30 3429 C 343.241 -2.37599 5.21856 0
M  V30 3430 N 342.737 -2.73771 6.36413 0
M  V30 3431 N 344.53 -2.38021 5.09218 0
M  V30 3432 H 336.681 0.114111 2.12093 0
M  V30 3433 H 338.944 -0.0116121 0.947929 0
M  V30 3434 H 338.65 -0.633969 3.45939 0
M  V30 3435 H 338.524 -2.3164 2.97696 0
M  V30 3436 H 340.911 -2.17415 1.99537 0
M  V30 3437 H 340.992 -0.483727 2.51185 0
M  V30 3438 H 340.636 -1.22824 4.92825 0
M  V30 3439 H 340.566 -2.92213 4.38086 0
M  V30 3440 H 343.057 -1.74925 3.34977 0
M  V30 3441 H 343.37 -3.0112 7.11721 0
M  V30 3442 H 341.715 -2.71445 6.39799 0
M  V30 3443 H 344.906 -2.09174 4.18765 0
M  V30 3444 H 345.079 -2.66741 5.90554 0
M  V30 3445 N 338.485 -1.33259 -0.841409 0
M  V30 3446 C 339.71 -1.2775 -1.63385 0
M  V30 3447 C 340.135 0.149188 -1.87507 0
M  V30 3448 O 339.493 1.10498 -1.43736 0
M  V30 3449 C 339.541 -2.05571 -2.96265 0
M  V30 3450 O 338.645 -1.41257 -3.87453 0
M  V30 3451 H 337.986 -0.439627 -0.497618 0
M  V30 3452 H 340.516 -1.75782 -1.04699 0
M  V30 3453 H 340.526 -2.16241 -3.45982 0
M  V30 3454 H 339.201 -3.09309 -2.7803 0
M  V30 3455 H 337.778 -1.39217 -3.45938 0
M  V30 3456 N 339.963 1.05934 -1.16686 0
M  V30 3457 C 341.209 1.79211 -0.962023 0
M  V30 3458 C 341.564 1.85667 0.504545 0
M  V30 3459 O 340.857 1.33991 1.36956 0
M  V30 3460 C 341.051 3.23105 -1.52767 0
M  V30 3461 C 340.88 3.30673 -3.04771 0
M  V30 3462 C 339.65 3.40395 -3.73442 0
M  V30 3463 C 341.848 3.20234 -4.02436 0
M  V30 3464 N 339.83 3.37015 -5.13122 0
M  V30 3465 C 341.201 3.24138 -5.28521 0
M  V30 3466 C 343.256 3.04143 -3.9421 0
M  V30 3467 C 341.959 3.13607 -6.47336 0
M  V30 3468 C 343.985 2.94951 -5.12599 0
M  V30 3469 C 343.347 2.99481 -6.37566 0
M  V30 3470 H 339.446 0.668442 -0.405844 0
M  V30 3471 H 342.03 1.26341 -1.48142 0
M  V30 3472 H 340.201 3.74364 -1.03471 0
M  V30 3473 H 341.933 3.84579 -1.26021 0
M  V30 3474 H 338.688 3.45344 -3.2409 0
M  V30 3475 H 339.112 3.38815 -5.86117 0
M  V30 3476 H 343.754 2.99484 -2.98445 0
M  V30 3477 H 341.472 3.17022 -7.43319 0
M  V30 3478 H 345.058 2.83583 -5.08008 0
M  V30 3479 H 343.938 2.92431 -7.27636 0
M  V30 3480 N 341.441 0.965919 1.2453 0
M  V30 3481 C 342.852 0.665929 1.7442 0
M  V30 3482 C 343.203 -0.818407 1.78316 0
M  V30 3483 O 342.328 -1.64037 1.41141 0
M  V30 3484 C 342.923 1.20211 3.16757 0
M  V30 3485 C 341.482 0.952059 3.6416 0
M  V30 3486 C 340.629 1.33848 2.42858 0
M  V30 3487 H 343.58 1.14144 1.10258 0
M  V30 3488 H 343.601 0.567544 3.76244 0
M  V30 3489 H 343.113 2.28244 3.13889 0
M  V30 3490 H 341.214 -0.112821 3.72429 0
M  V30 3491 H 341.327 1.59645 4.51719 0
M  V30 3492 H 339.691 0.756864 2.43195 0
M  V30 3493 H 340.474 2.42827 2.42673 0
M  V30 3494 N 342.919 -1.39368 0.735821 0
M  V30 3495 C 344.33 -1.83313 0.354015 0
M  V30 3496 C 344.681 -1.61461 -1.11466 0
M  V30 3497 O 343.806 -1.10621 -1.85989 0
M  V30 3498 C 344.401 -3.32781 0.635769 0
M  V30 3499 C 342.96 -3.75142 0.307448 0
M  V30 3500 C 342.107 -2.62358 0.897974 0
M  V30 3501 H 345.058 -1.28349 0.933398 0
M  V30 3502 H 345.079 -3.80388 -0.0921773 0
M  V30 3503 H 344.591 -3.48654 1.70476 0
M  V30 3504 H 342.692 -3.64857 -0.755674 0
M  V30 3505 H 342.805 -4.72532 0.790583 0
M  V30 3506 H 341.169 -2.52624 0.324551 0
M  V30 3507 H 341.952 -2.81036 1.97164 0
M  V30 3508 N 344.397 -0.483516 -1.5 0
M  V30 3509 C 345.645 0.067027 -2.01989 0
M  V30 3510 C 345.966 1.3909 -1.36671 0
M  V30 3511 O 345.236 1.88978 -0.516152 0
M  V30 3512 H 343.816 0.0277606 -0.746484 0
M  V30 3513 H 346.478 -0.636773 -1.84204 0
M  V30 3514 H 345.574 0.209484 -3.11396 0
M  V30 3515 N 345.875 1.56104 -0.216619 0
M  V30 3516 C 347.1 2.0301 0.424462 0
M  V30 3517 C 347.525 1.0955 1.52907 0
M  V30 3518 O 346.883 0.0827914 1.81111 0
M  V30 3519 C 346.931 3.4819 0.937883 0
M  V30 3520 O 346.035 3.57865 2.04955 0
M  V30 3521 H 345.376 0.656925 0.0966755 0
M  V30 3522 H 347.906 2.01859 -0.33381 0
M  V30 3523 H 347.916 3.88413 1.24897 0
M  V30 3524 H 346.591 4.15699 0.129387 0
M  V30 3525 H 345.168 3.29527 1.74546 0
M  V30 3526 N 347.353 -0.0568162 1.57498 0
M  V30 3527 C 348.769 -0.411933 1.54192 0
M  V30 3528 C 348.969 -1.78287 0.938942 0
M  V30 3529 O 348.025 -2.46483 0.547919 0
M  V30 3530 C 349.338 -0.339244 2.9878 0
M  V30 3531 C 350.886 -0.418348 3.10192 0
M  V30 3532 C 351.361 -0.375407 4.56459 0
M  V30 3533 N 352.852 -0.435038 4.61153 0
M  V30 3534 C 353.587 -0.424265 5.71828 0
M  V30 3535 N 353.083 -0.367418 6.91825 0
M  V30 3536 N 354.876 -0.471938 5.60115 0
M  V30 3537 H 347.027 0.840684 1.95055 0
M  V30 3538 H 349.29 0.316987 0.893433 0
M  V30 3539 H 348.996 0.601742 3.46514 0
M  V30 3540 H 348.87 -1.14371 3.59443 0
M  V30 3541 H 351.257 -1.34976 2.62422 0
M  V30 3542 H 351.338 0.414962 2.52412 0
M  V30 3543 H 350.982 0.552219 5.04889 0
M  V30 3544 H 350.912 -1.22645 5.12119 0
M  V30 3545 H 353.403 -0.482612 3.74806 0
M  V30 3546 H 353.716 -0.363535 7.71944 0
M  V30 3547 H 352.061 -0.333879 6.94198 0
M  V30 3548 H 355.252 -0.514145 4.65268 0
M  V30 3549 H 355.425 -0.460073 6.46365 0
M  V30 3550 N 348.832 -1.54138 -0.328536 0
M  V30 3551 C 350.078 -1.7236 -1.06865 0
M  V30 3552 C 350.411 -0.493231 -1.87832 0
M  V30 3553 O 349.686 0.5098 -1.877 0
M  V30 3554 C 349.969 -2.99621 -1.99747 0
M  V30 3555 C 349.822 -4.32899 -1.22143 0
M  V30 3556 C 351.141 -3.22615 -2.99345 0
M  V30 3557 H 348.26 -0.627151 -0.387105 0
M  V30 3558 H 350.902 -1.86827 -0.345767 0
M  V30 3559 H 349.052 -2.87418 -2.61387 0
M  V30 3560 H 350.724 -4.56978 -0.630017 0
M  V30 3561 H 348.967 -4.30628 -0.523628 0
M  V30 3562 H 349.638 -5.18154 -1.90318 0
M  V30 3563 H 352.114 -3.34248 -2.47826 0
M  V30 3564 H 350.99 -4.13027 -3.61524 0
M  V30 3565 H 351.251 -2.3961 -3.71536 0
M  V30 3566 N 350.31 0.590341 -1.46126 0
M  V30 3567 C 351.22 1.72793 -1.58681 0
M  V30 3568 C 352.236 1.67516 -0.470566 0
M  V30 3569 O 353.412 1.87562 -0.733642 0
M  V30 3570 C 350.477 3.09287 -1.5666 0
M  V30 3571 C 349.538 3.25886 -2.79458 0
M  V30 3572 C 348.771 4.55869 -2.77524 0
M  V30 3573 O 348.994 5.3928 -1.85832 0
M  V30 3574 O 347.928 4.75552 -3.68964 0
M  V30 3575 H 351.754 1.65149 -2.54872 0
M  V30 3576 H 349.339 0.756486 -1.28832 0
M  V30 3577 H 351.221 3.90577 -1.58202 0
M  V30 3578 H 349.896 3.17385 -0.636271 0
M  V30 3579 H 348.803 2.44119 -2.83472 0
M  V30 3580 H 350.136 3.22675 -3.71674 0
M  V30 3581 N 351.788 1.33704 0.83433 0
M  V30 3582 C 353.036 1.25169 1.58673 0
M  V30 3583 C 353.357 -0.18127 1.94156 0
M  V30 3584 O 352.627 -1.11113 1.6134 0
M  V30 3585 H 351.207 0.4603 0.58833 0
M  V30 3586 H 353.869 1.67478 0.996847 0
M  V30 3587 H 352.965 1.84856 2.51465 0
M  V30 3588 N 353.266 -1.05314 1.17247 0
M  V30 3589 C 354.229 -2.112 0.890357 0
M  V30 3590 C 355.229 -1.60359 -0.118943 0
M  V30 3591 O 356.419 -1.73833 0.113086 0
M  V30 3592 C 353.551 -3.39266 0.333422 0
M  V30 3593 H 354.744 -2.37659 1.82916 0
M  V30 3594 H 352.297 -1.21538 0.982758 0
M  V30 3595 H 353.032 -3.18462 -0.612587 0
M  V30 3596 H 352.817 -3.77477 1.06082 0
M  V30 3597 H 354.307 -4.17315 0.154322 0
M  V30 3598 N 354.744 -0.972509 -1.24016 0
M  V30 3599 C 355.654 -0.5143 -2.28893 0
M  V30 3600 C 356.67 0.427078 -1.68677 0
M  V30 3601 O 357.846 0.298939 -1.99169 0
M  V30 3602 C 354.911 0.183598 -3.46214 0
M  V30 3603 C 353.972 -0.798202 -4.21814 0
M  V30 3604 C 353.205 -0.133514 -5.33533 0
M  V30 3605 O 353.428 1.07714 -5.60137 0
M  V30 3606 O 352.362 -0.828103 -5.96176 0
M  V30 3607 H 356.188 -1.38629 -2.70214 0
M  V30 3608 H 353.773 -0.739769 -1.29799 0
M  V30 3609 H 355.655 0.575433 -4.17453 0
M  V30 3610 H 354.33 1.03048 -3.0686 0
M  V30 3611 H 353.237 -1.24059 -3.52931 0
M  V30 3612 H 354.57 -1.61364 -4.64997 0
M  V30 3613 N 356.222 1.38976 -0.743202 0
M  V30 3614 C 357.499 1.94351 -0.220705 0
M  V30 3615 C 357.879 1.67935 1.2791 0
M  V30 3616 O 357.227 1.01211 2.04862 0
M  V30 3617 C 357.437 3.44426 -0.563171 0
M  V30 3618 C 358.785 4.2144 -0.517046 0
M  V30 3619 O 359.809 3.52661 -0.500846 0
M  V30 3620 O 358.668 5.44032 -0.518806 0
M  V30 3621 H 355.762 0.825879 -0.043047 0
M  V30 3622 H 358.308 1.48429 -0.822618 0
M  V30 3623 H 357.08 3.5712 -1.59941 0
M  V30 3624 H 356.703 3.97543 0.0672883 0
M  V30 3625 N 357.7 0.491464 1.49741 0
M  V30 3626 C 358.61 -0.296835 2.32715 0
M  V30 3627 C 359.626 -0.976536 1.44013 0
M  V30 3628 O 360.802 -0.960023 1.77047 0
M  V30 3629 C 357.867 -1.35288 3.19215 0
M  V30 3630 C 356.928 -0.687632 4.23757 0
M  V30 3631 C 356.161 -1.69336 5.06123 0
M  V30 3632 O 356.384 -2.92219 4.89861 0
M  V30 3633 O 355.318 -1.25394 5.88693 0
M  V30 3634 H 359.144 0.382048 3.01287 0
M  V30 3635 H 356.729 0.252953 1.47243 0
M  V30 3636 H 358.611 -1.96411 3.72828 0
M  V30 3637 H 357.286 -2.01487 2.53347 0
M  V30 3638 H 356.193 -0.0369159 3.74082 0
M  V30 3639 H 357.526 -0.0682566 4.92153 0
M  V30 3640 N 359.178 -1.55987 0.224894 0
M  V30 3641 C 360.088 -2.24066 -0.69511 0
M  V30 3642 C 361.104 -1.24939 -1.21104 0
M  V30 3643 O 362.28 -1.5776 -1.25195 0
M  V30 3644 C 359.345 -2.90983 -1.88493 0
M  V30 3645 C 358.406 -4.05462 -1.41064 0
M  V30 3646 C 357.639 -4.69179 -2.54375 0
M  V30 3647 O 357.862 -4.31895 -3.72589 0
M  V30 3648 O 356.796 -5.58108 -2.25386 0
M  V30 3649 H 360.622 -3.03353 -0.145149 0
M  V30 3650 H 358.207 -1.49399 -0.00569476 0
M  V30 3651 H 360.089 -3.33209 -2.57972 0
M  V30 3652 H 358.764 -2.14653 -2.42293 0
M  V30 3653 H 357.671 -3.67798 -0.683774 0
M  V30 3654 H 359.004 -4.83545 -0.918985 0
M  V30 3655 N 360.656 0.0484629 -1.57525 0
M  V30 3656 C 361.566 1.07241 -2.08654 0
M  V30 3657 C 362.582 1.409 -1.02095 0
M  V30 3658 O 363.758 1.50609 -1.33712 0
M  V30 3659 C 360.823 2.36008 -2.5397 0
M  V30 3660 C 359.884 2.09108 -3.7493 0
M  V30 3661 C 359.117 3.31736 -4.18075 0
M  V30 3662 O 359.34 4.41714 -3.60895 0
M  V30 3663 O 358.274 3.18576 -5.10679 0
M  V30 3664 H 362.1 0.667965 -2.96263 0
M  V30 3665 H 359.685 0.26417 -1.47046 0
M  V30 3666 H 361.567 3.11747 -2.83535 0
M  V30 3667 H 360.242 2.75786 -1.69481 0
M  V30 3668 H 359.149 1.31 -3.50414 0
M  V30 3669 H 360.482 1.74198 -4.60343 0
M  V30 3670 N 362.134 1.5431 0.320358 0
M  V30 3671 C 363.044 1.86946 1.41734 0
M  V30 3672 C 364.06 0.761689 1.56443 0
M  V30 3673 O 365.236 1.05629 1.71477 0
M  V30 3674 C 362.301 2.09293 2.76401 0
M  V30 3675 C 361.362 3.33082 2.70841 0
M  V30 3676 C 360.595 3.54353 3.99086 0
M  V30 3677 O 360.818 2.79002 4.97508 0
M  V30 3678 O 359.752 4.47838 4.0215 0
M  V30 3679 H 363.578 2.80232 1.17062 0
M  V30 3680 H 361.163 1.40255 0.514673 0
M  V30 3681 H 363.045 2.25303 3.56113 0
M  V30 3682 H 361.72 1.19194 3.00956 0
M  V30 3683 H 360.627 3.22454 1.89668 0
M  V30 3684 H 361.96 4.23249 2.5124 0
M  V30 3685 N 363.613 -0.582584 1.46437 0
M  V30 3686 C 364.523 -1.71949 1.59595 0
M  V30 3687 C 365.539 -1.67264 0.479443 0
M  V30 3688 O 366.715 -1.87171 0.743579 0
M  V30 3689 C 363.78 -3.08452 1.58298 0
M  V30 3690 C 362.841 -3.244 2.81182 0
M  V30 3691 C 362.074 -4.54391 2.79937 0
M  V30 3692 O 362.297 -5.38287 1.8869 0
M  V30 3693 O 361.231 -4.73588 3.71481 0
M  V30 3694 H 365.057 -1.63795 2.55744 0
M  V30 3695 H 362.642 -0.749643 1.29231 0
M  V30 3696 H 364.524 -3.89732 1.60271 0
M  V30 3697 H 363.199 -3.17043 0.653094 0
M  V30 3698 H 362.106 -2.42613 2.84763 0
M  V30 3699 H 363.439 -3.20699 3.7338 0
M  V30 3700 N 365.091 -1.34144 -0.827227 0
M  V30 3701 C 366.316 -1.29476 -1.62021 0
M  V30 3702 C 366.741 0.129292 -1.87655 0
M  V30 3703 O 366.099 1.08967 -1.449 0
M  V30 3704 C 366.147 -2.08702 -2.94068 0
M  V30 3705 O 365.251 -1.45359 -3.85933 0
M  V30 3706 H 364.592 -0.444881 -0.492927 0
M  V30 3707 H 367.122 -1.76882 -1.02829 0
M  V30 3708 H 367.132 -2.19898 -3.43669 0
M  V30 3709 H 365.807 -3.12241 -2.74734 0
M  V30 3710 H 364.384 -1.42879 -3.44442 0
M  V30 3711 N 366.569 1.04691 -1.17803 0
M  V30 3712 C 367.816 1.77782 -0.969532 0
M  V30 3713 C 368.144 1.87926 0.501401 0
M  V30 3714 O 367.399 1.37918 1.38842 0
M  V30 3715 C 367.698 3.21467 -1.56186 0
M  V30 3716 C 367.364 3.3137 -3.05786 0
M  V30 3717 C 366.026 3.3378 -3.46619 0
M  V30 3718 C 368.378 3.31976 -4.01797 0
M  V30 3719 C 365.706 3.34431 -4.82051 0
M  V30 3720 C 368.058 3.34167 -5.37136 0
M  V30 3721 C 366.722 3.34866 -5.77426 0
M  V30 3722 H 365.992 0.650549 -0.354777 0
M  V30 3723 H 368.639 1.23006 -1.46772 0
M  V30 3724 H 366.944 3.79203 -0.985515 0
M  V30 3725 H 368.641 3.76652 -1.37602 0
M  V30 3726 H 365.231 3.3021 -2.73238 0
M  V30 3727 H 369.415 3.29311 -3.71306 0
M  V30 3728 H 364.671 3.33285 -5.12573 0
M  V30 3729 H 368.845 3.33585 -6.11305 0
M  V30 3730 H 366.472 3.35124 -6.82346 0
M  V30 3731 N 368.047 0.979072 1.23499 0
M  V30 3732 C 369.458 0.684391 1.73704 0
M  V30 3733 C 369.809 -0.799448 1.79174 0
M  V30 3734 O 368.934 -1.62531 1.42873 0
M  V30 3735 C 369.529 1.23564 3.15464 0
M  V30 3736 C 368.088 0.99063 3.6313 0
M  V30 3737 C 367.235 1.36416 2.41425 0
M  V30 3738 H 370.186 1.15307 1.09041 0
M  V30 3739 H 370.207 0.607417 3.7562 0
M  V30 3740 H 369.719 2.31561 3.1145 0
M  V30 3741 H 367.82 -0.0733136 3.72528 0
M  V30 3742 H 367.933 1.64427 4.5 0
M  V30 3743 H 366.297 0.782616 2.42378 0
M  V30 3744 H 367.08 2.45387 2.40083 0
M  V30 3745 N 369.525 -1.3858 0.750561 0
M  V30 3746 C 370.457 -2.29057 0.0810714 0
M  V30 3747 C 371.47 -1.47596 -0.686973 0
M  V30 3748 O 372.659 -1.70495 -0.528563 0
M  V30 3749 C 369.759 -3.26475 -0.909247 0
M  V30 3750 C 368.932 -4.36945 -0.199478 0
M  V30 3751 C 367.991 -5.14572 -1.10011 0
M  V30 3752 O 367.017 -5.66321 -0.57177 0
M  V30 3753 N 368.219 -5.27262 -2.42849 0
M  V30 3754 H 370.984 -2.87153 0.858087 0
M  V30 3755 H 368.545 -1.50328 0.60109 0
M  V30 3756 H 370.537 -3.75285 -1.51471 0
M  V30 3757 H 369.107 -2.69298 -1.58736 0
M  V30 3758 H 368.327 -3.8981 0.586664 0
M  V30 3759 H 369.615 -5.07963 0.291783 0
M  V30 3760 H 369.013 -4.86763 -2.88233 0
M  V30 3761 H 367.57 -5.79456 -2.98453 0
M  V30 3762 N 371.003 -0.499398 -1.49478 0
M  V30 3763 C 372.414 -0.051215 -1.8663 0
M  V30 3764 C 372.765 1.36238 -1.41186 0
M  V30 3765 O 371.89 2.01502 -0.789051 0
M  V30 3766 C 372.485 -0.0861651 -3.3869 0
M  V30 3767 C 371.044 0.30667 -3.75149 0
M  V30 3768 C 370.191 -0.459397 -2.73468 0
M  V30 3769 H 373.142 -0.712264 -1.41818 0
M  V30 3770 H 373.163 0.709507 -3.73826 0
M  V30 3771 H 372.675 -1.11512 -3.71735 0
M  V30 3772 H 370.776 1.33892 -3.47712 0
M  V30 3773 H 370.889 -0.0116669 -4.79099 0
M  V30 3774 H 369.253 0.0905645 -2.54539 0
M  V30 3775 H 370.036 -1.4884 -3.09357 0
M  V30 3776 N 372.481 1.55866 -0.233164 0
M  V30 3777 C 373.727 1.98897 0.395959 0
M  V30 3778 C 374.06 1.12091 1.58585 0
M  V30 3779 O 373.335 0.181182 1.93654 0
M  V30 3780 C 373.618 3.50658 0.819224 0
M  V30 3781 C 373.471 4.48233 -0.375109 0
M  V30 3782 C 374.79 4.07135 1.67121 0
M  V30 3783 H 371.909 0.723102 0.142451 0
M  V30 3784 H 374.551 1.87082 -0.331725 0
M  V30 3785 H 372.701 3.60857 1.43925 0
M  V30 3786 H 374.373 4.50031 -1.01341 0
M  V30 3787 H 372.616 4.21624 -1.02058 0
M  V30 3788 H 373.287 5.51988 -0.0358328 0
M  V30 3789 H 375.763 3.99952 1.14795 0
M  V30 3790 H 374.639 5.13615 1.93625 0
M  V30 3791 H 374.9 3.54736 2.63846 0
M  V30 3792 N 373.959 -0.0401083 1.57549 0
M  V30 3793 C 375.236 -0.767917 1.79896 0
M  V30 3794 C 375.616 -1.9416 0.82856 0
M  V30 3795 O 374.964 -2.2812 -0.131671 0
M  V30 3796 C 375.174 -1.2113 3.27305 0
M  V30 3797 C 376.522 -1.63175 3.91994 0
M  V30 3798 O 377.546 -1.30616 3.31388 0
M  V30 3799 O 376.405 -2.23565 4.98679 0
M  V30 3800 H 373.499 -0.370441 0.739393 0
M  V30 3801 H 376.045 -0.017737 1.69691 0
M  V30 3802 H 374.817 -0.372937 3.89519 0
M  V30 3803 H 374.44 -2.02183 3.42356 0
M  V30 3804 N 375.437 -1.54477 -0.31217 0
M  V30 3805 C 376.714 -1.63891 -1.06767 0
M  V30 3806 C 377.094 -0.480028 -2.0557 0
M  V30 3807 O 376.442 0.524487 -2.22399 0
M  V30 3808 C 376.652 -3.01402 -1.75948 0
M  V30 3809 C 378 -3.57838 -2.28554 0
M  V30 3810 O 379.024 -3.03782 -1.85998 0
M  V30 3811 O 377.883 -4.52462 -3.06497 0
M  V30 3812 H 374.977 -0.664125 -0.492816 0
M  V30 3813 H 377.523 -1.66823 -0.311149 0
M  V30 3814 H 376.295 -3.77187 -1.04144 0
M  V30 3815 H 375.918 -3.02199 -2.58383 0
M  V30 3816 N 376.915 0.57481 -1.46744 0
M  V30 3817 C 378.145 1.35659 -1.55821 0
M  V30 3818 C 378.553 1.88129 -0.201036 0
M  V30 3819 O 377.896 1.64723 0.813134 0
M  V30 3820 C 377.958 2.57473 -2.50894 0
M  V30 3821 C 377.622 2.26415 -3.9697 0
M  V30 3822 C 378.619 1.84771 -4.85958 0
M  V30 3823 C 376.304 2.38316 -4.42166 0
M  V30 3824 C 378.298 1.55434 -6.18158 0
M  V30 3825 C 375.985 2.08591 -5.74398 0
M  V30 3826 C 376.983 1.67216 -6.62214 0
M  V30 3827 O 376.671 1.37859 -7.91991 0
M  V30 3828 H 376.403 0.420496 -0.529301 0
M  V30 3829 H 378.957 0.704967 -1.92923 0
M  V30 3830 H 377.187 3.25468 -2.08824 0
M  V30 3831 H 378.876 3.19546 -2.50291 0
M  V30 3832 H 379.642 1.75085 -4.52295 0
M  V30 3833 H 375.521 2.69483 -3.74032 0
M  V30 3834 H 379.065 1.23065 -6.86659 0
M  V30 3835 H 374.962 2.17905 -6.07608 0
M  V30 3836 H 375.73 1.51638 -8.04331 0
M  V30 3837 N 378.394 1.34581 0.820102 0
M  V30 3838 C 379.641 1.27096 1.57648 0
M  V30 3839 C 379.969 -0.158317 1.93855 0
M  V30 3840 O 379.224 -1.12028 1.60463 0
M  V30 3841 C 379.523 2.10997 2.8847 0
M  V30 3842 C 379.189 3.59966 2.71543 0
M  V30 3843 C 377.851 4.00575 2.66634 0
M  V30 3844 C 380.203 4.54548 2.55021 0
M  V30 3845 C 377.531 5.33953 2.43128 0
M  V30 3846 C 379.883 5.88109 2.33047 0
M  V30 3847 C 378.547 6.27878 2.26552 0
M  V30 3848 H 377.817 0.465078 0.576874 0
M  V30 3849 H 380.464 1.6635 0.948671 0
M  V30 3850 H 378.769 1.6458 3.55557 0
M  V30 3851 H 380.466 2.0255 3.46084 0
M  V30 3852 H 377.056 3.27733 2.76205 0
M  V30 3853 H 381.24 4.24069 2.57835 0
M  V30 3854 H 376.496 5.63781 2.3656 0
M  V30 3855 H 380.67 6.60985 2.19251 0
M  V30 3856 H 378.297 7.31162 2.081 0
M  V30 3857 N 379.872 -1.04064 1.18357 0
M  V30 3858 C 381.118 -1.77528 0.980397 0
M  V30 3859 C 381.451 -1.87948 -0.48879 0
M  V30 3860 O 380.726 -1.3876 -1.36293 0
M  V30 3861 C 381.009 -3.20797 1.63588 0
M  V30 3862 C 380.862 -3.1832 3.17793 0
M  V30 3863 C 382.181 -4.18911 1.34914 0
M  V30 3864 H 379.3 -0.644443 0.357578 0
M  V30 3865 H 381.942 -1.2156 1.46024 0
M  V30 3866 H 380.092 -3.68586 1.22788 0
M  V30 3867 H 381.764 -2.78521 3.67728 0
M  V30 3868 H 380.007 -2.56351 3.49952 0
M  V30 3869 H 380.678 -4.19489 3.58794 0
M  V30 3870 H 383.154 -3.7967 1.70265 0
M  V30 3871 H 382.03 -5.17374 1.83346 0
M  V30 3872 H 382.291 -4.41262 0.272027 0
M  V30 3873 N 381.35 -0.985608 -1.22978 0
M  V30 3874 C 382.26 -0.538548 -2.28335 0
M  V30 3875 C 383.276 0.409163 -1.69121 0
M  V30 3876 O 384.452 0.277797 -1.99475 0
M  V30 3877 C 381.517 0.146867 -3.46389 0
M  V30 3878 C 380.578 -0.842896 -4.20944 0
M  V30 3879 C 379.811 -0.190095 -5.33361 0
M  V30 3880 O 380.034 1.01767 -5.61248 0
M  V30 3881 O 378.968 -0.891289 -5.95264 0
M  V30 3882 H 382.794 -1.41487 -2.68729 0
M  V30 3883 H 380.379 -0.753495 -1.29007 0
M  V30 3884 H 382.261 0.531125 -4.1804 0
M  V30 3885 H 380.936 0.997871 -3.07935 0
M  V30 3886 H 379.843 -1.27795 -3.51595 0
M  V30 3887 H 381.176 -1.66287 -4.6326 0
M  V30 3888 N 382.828 1.3818 -0.7579 0
M  V30 3889 C 384.239 1.82726 -0.383134 0
M  V30 3890 C 384.59 1.63214 1.08884 0
M  V30 3891 O 383.715 1.13566 1.84205 0
M  V30 3892 C 384.31 3.31728 -0.688631 0
M  V30 3893 C 382.869 3.74606 -0.367091 0
M  V30 3894 C 382.016 2.60896 -0.939599 0
M  V30 3895 H 384.967 1.26847 -0.953699 0
M  V30 3896 H 384.988 3.80487 0.0316492 0
M  V30 3897 H 384.5 3.45898 -1.76001 0
M  V30 3898 H 382.601 3.66013 0.697532 0
M  V30 3899 H 382.714 4.71215 -0.865658 0
M  V30 3900 H 381.078 2.52075 -0.3647 0
M  V30 3901 H 381.861 2.77864 -2.0161 0
M  V30 3902 N 384.306 0.507319 1.49211 0
M  V30 3903 C 385.717 0.0611118 1.866 0
M  V30 3904 C 386.068 -1.35488 1.41907 0
M  V30 3905 O 385.193 -2.0108 0.799726 0
M  V30 3906 C 385.788 0.104125 3.3864 0
M  V30 3907 C 384.347 -0.28677 3.75306 0
M  V30 3908 C 383.494 0.473893 2.73221 0
M  V30 3909 H 386.445 0.719775 1.41439 0
M  V30 3910 H 386.466 -0.689672 3.74198 0
M  V30 3911 H 385.978 1.13482 3.71138 0
M  V30 3912 H 384.079 -1.32046 3.48417 0
M  V30 3913 H 384.192 0.0370745 4.79086 0
M  V30 3914 H 382.556 -0.0770644 2.54583 0
M  V30 3915 H 383.339 1.50478 3.08563 0
M  V30 3916 N 385.784 -1.5574 0.241426 0
M  V30 3917 C 386.716 -2.18469 -0.693091 0
M  V30 3918 C 387.729 -1.15942 -1.14286 0
M  V30 3919 O 388.918 -1.42832 -1.07058 0
M  V30 3920 C 386.018 -2.7696 -1.95311 0
M  V30 3921 C 385.191 -4.04853 -1.65568 0
M  V30 3922 C 384.25 -4.47715 -2.76474 0
M  V30 3923 O 383.276 -5.14205 -2.44094 0
M  V30 3924 N 384.478 -4.15044 -4.05855 0
M  V30 3925 H 387.243 -2.99292 -0.156388 0
M  V30 3926 H 384.804 -1.61784 0.0611752 0
M  V30 3927 H 386.796 -3.02594 -2.68736 0
M  V30 3928 H 385.366 -2.00326 -2.39975 0
M  V30 3929 H 384.586 -3.86865 -0.756886 0
M  V30 3930 H 385.874 -4.88246 -1.43153 0
M  V30 3931 H 385.272 -3.61654 -4.34998 0
M  V30 3932 H 383.829 -4.45526 -4.75762 0
M  V30 3933 N 387.262 0.0317525 -1.57568 0
M  V30 3934 C 388.225 1.01783 -2.0536 0
M  V30 3935 C 389.225 1.29203 -0.957253 0
M  V30 3936 O 390.415 1.24251 -1.22095 0
M  V30 3937 C 387.547 2.35137 -2.46827 0
M  V30 3938 H 388.74 0.605062 -2.93733 0
M  V30 3939 H 386.293 0.278514 -1.53799 0
M  V30 3940 H 387.028 2.81168 -1.61602 0
M  V30 3941 H 386.813 2.16566 -3.26866 0
M  V30 3942 H 388.303 3.05938 -2.84239 0
M  V30 3943 N 388.74 1.54641 0.303973 0
M  V30 3944 C 389.65 1.88439 1.39743 0
M  V30 3945 C 390.666 0.778239 1.55626 0
M  V30 3946 O 391.842 1.07442 1.70347 0
M  V30 3947 C 388.907 2.12212 2.74166 0
M  V30 3948 C 387.968 3.35936 2.67293 0
M  V30 3949 C 387.201 3.58566 3.95305 0
M  V30 3950 O 387.424 2.84263 4.9452 0
M  V30 3951 O 386.358 4.52078 3.97378 0
M  V30 3952 H 390.184 2.81458 1.14083 0
M  V30 3953 H 387.769 1.40793 0.499768 0
M  V30 3954 H 389.651 2.29067 3.53704 0
M  V30 3955 H 388.326 1.22379 2.99675 0
M  V30 3956 H 387.233 3.24448 1.86237 0
M  V30 3957 H 388.566 4.2589 2.46736 0
M  V30 3958 N 390.218 -0.567019 1.47046 0
M  V30 3959 C 391.128 -1.70247 1.6141 0
M  V30 3960 C 392.144 -1.66746 0.497157 0
M  V30 3961 O 393.32 -1.86371 0.763389 0
M  V30 3962 C 390.385 -3.06756 1.61561 0
M  V30 3963 C 389.446 -3.21399 2.84607 0
M  V30 3964 C 388.679 -4.51396 2.84741 0
M  V30 3965 O 388.902 -5.36255 1.94388 0
M  V30 3966 O 387.836 -4.69621 3.76483 0
M  V30 3967 H 391.662 -1.61073 2.57467 0
M  V30 3968 H 389.247 -0.735894 1.30019 0
M  V30 3969 H 391.129 -3.8801 1.64396 0
M  V30 3970 H 389.804 -3.16333 0.686684 0
M  V30 3971 H 388.711 -2.39579 2.8732 0
M  V30 3972 H 390.044 -3.16721 3.76761 0
M  V30 3973 N 391.696 -1.35014 -0.812953 0
M  V30 3974 C 392.606 -1.2951 -1.95613 0
M  V30 3975 C 393.622 -0.20107 -1.72834 0
M  V30 3976 O 394.798 -0.42932 -1.96771 0
M  V30 3977 C 391.863 -1.06033 -3.30088 0
M  V30 3978 C 390.924 -2.24688 -3.65805 0
M  V30 3979 C 390.157 -2.02322 -4.93864 0
M  V30 3980 O 390.38 -0.986464 -5.61805 0
M  V30 3981 O 389.314 -2.89525 -5.27692 0
M  V30 3982 H 393.14 -2.25705 -2.03202 0
M  V30 3983 H 390.725 -1.15321 -0.949811 0
M  V30 3984 H 392.607 -0.94763 -4.10607 0
M  V30 3985 H 391.282 -0.128852 -3.23443 0
M  V30 3986 H 390.189 -2.41521 -2.85689 0
M  V30 3987 H 391.522 -3.16261 -3.77147 0
M  V30 3988 N 393.175 1.03435 -1.18907 0
M  V30 3989 C 394.085 2.15075 -0.937015 0
M  V30 3990 C 395.101 1.73706 0.101085 0
M  V30 3991 O 396.277 2.01232 -0.0822948 0
M  V30 3992 C 393.342 3.43458 -0.473057 0
M  V30 3993 C 392.403 3.99172 -1.57989 0
M  V30 3994 C 391.636 5.21427 -1.13797 0
M  V30 3995 O 391.859 5.704 0.000725941 0
M  V30 3996 O 390.793 5.69837 -1.9383 0
M  V30 3997 H 394.619 2.39198 -1.87131 0
M  V30 3998 H 392.204 1.13506 -0.971427 0
M  V30 3999 H 394.086 4.20811 -0.222702 0
M  V30 4000 H 392.761 3.20793 0.432869 0
M  V30 4001 H 391.668 3.23178 -1.88433 0
M  V30 4002 H 393.001 4.2619 -2.46217 0
M  V30 4003 N 394.653 0.992116 1.22453 0
M  V30 4004 C 395.563 0.55065 2.28046 0
M  V30 4005 C 396.579 -0.400189 1.69335 0
M  V30 4006 O 397.755 -0.267215 1.99619 0
M  V30 4007 C 394.82 -0.128496 3.46462 0
M  V30 4008 C 393.881 0.865208 4.20491 0
M  V30 4009 C 393.114 0.218377 5.33253 0
M  V30 4010 O 393.337 -0.987894 5.6178 0
M  V30 4011 O 392.271 0.922845 5.94783 0
M  V30 4012 H 396.097 1.4291 2.67975 0
M  V30 4013 H 393.682 0.760326 1.28606 0
M  V30 4014 H 395.564 -0.508947 4.18315 0
M  V30 4015 H 394.239 -0.981526 3.0846 0
M  V30 4016 H 393.146 1.29658 3.50913 0
M  V30 4017 H 394.479 1.68741 4.62371 0
M  V30 4018 N 396.131 -1.37776 0.765217 0
M  V30 4019 C 397.359 -2.04124 0.337767 0
M  V30 4020 C 397.774 -1.57715 -1.03785 0
M  V30 4021 O 397.131 -0.755447 -1.6613 0
M  V30 4022 C 397.182 -3.59658 0.364442 0
M  V30 4023 O 396.903 -4.04367 1.68579 0
M  V30 4024 C 398.404 -4.43236 -0.0754221 0
M  V30 4025 H 395.624 -0.655696 0.142491 0
M  V30 4026 H 398.168 -1.76238 1.03732 0
M  V30 4027 H 396.323 -3.86339 -0.286471 0
M  V30 4028 H 396.737 -4.98857 1.61993 0
M  V30 4029 H 398.211 -5.52 -0.00560067 0
M  V30 4030 H 398.688 -4.2455 -1.12491 0
M  V30 4031 H 399.294 -4.21767 0.547055 0
M  V30 4032 N 397.609 -0.515225 -1.4894 0
M  V30 4033 C 398.855 0.0242508 -2.02785 0
M  V30 4034 C 399.188 1.35323 -1.39289 0
M  V30 4035 O 398.463 1.87041 -0.533469 0
M  V30 4036 C 398.746 0.16184 -3.59736 0
M  V30 4037 C 398.599 -1.19127 -4.33738 0
M  V30 4038 C 399.918 0.895719 -4.30888 0
M  V30 4039 H 397.037 0.00733914 -0.736963 0
M  V30 4040 H 399.679 -0.669395 -1.77818 0
M  V30 4041 H 397.829 0.752624 -3.8114 0
M  V30 4042 H 399.501 -1.82202 -4.23792 0
M  V30 4043 H 397.744 -1.77695 -3.95736 0
M  V30 4044 H 398.415 -1.04815 -5.41957 0
M  V30 4045 H 400.891 0.394528 -4.14225 0
M  V30 4046 H 399.767 0.960859 -5.40425 0
M  V30 4047 H 400.028 1.9427 -3.97129 0
M  V30 4048 N 399.087 1.5561 -0.249682 0
M  V30 4049 C 400.498 1.84979 0.252949 0
M  V30 4050 C 400.849 1.17153 1.57384 0
M  V30 4051 O 399.974 0.450884 2.11651 0
M  V30 4052 C 400.569 3.35584 0.465732 0
M  V30 4053 C 399.128 3.65169 0.912624 0
M  V30 4054 C 398.275 2.77299 -0.00859085 0
M  V30 4055 H 401.226 1.51513 -0.47217 0
M  V30 4056 H 401.247 3.57313 1.30795 0
M  V30 4057 H 400.759 3.8492 -0.49579 0
M  V30 4058 H 398.86 3.21312 1.88652 0
M  V30 4059 H 398.973 4.72912 0.767559 0
M  V30 4060 H 397.337 2.49678 0.50327 0
M  V30 4061 H 398.12 3.29442 -0.965537 0
M  V30 4062 N 400.565 -0.0233959 1.57583 0
M  V30 4063 C 401.976 -0.56927 1.77809 0
M  V30 4064 C 402.327 -1.75284 0.881472 0
M  V30 4065 O 401.452 -2.1626 0.0777805 0
M  V30 4066 C 402.047 -1.03949 3.22459 0
M  V30 4067 C 400.606 -1.53084 3.43864 0
M  V30 4068 C 399.753 -0.471454 2.73263 0
M  V30 4069 H 402.704 0.202825 1.57399 0
M  V30 4070 H 402.725 -1.90661 3.29285 0
M  V30 4071 H 402.237 -0.177865 3.87692 0
M  V30 4072 H 400.338 -2.41414 2.83814 0
M  V30 4073 H 400.451 -1.57443 4.52491 0
M  V30 4074 H 398.815 -0.927788 2.37201 0
M  V30 4075 H 399.598 0.380808 3.41181 0
M  V30 4076 N 402.043 -1.548 -0.295768 0
M  V30 4077 C 403.454 -1.65274 -0.868411 0
M  V30 4078 C 403.805 -0.56481 -1.87894 0
M  V30 4079 O 402.93 0.29767 -2.14343 0
M  V30 4080 C 403.525 -2.99603 -1.58188 0
M  V30 4081 C 402.084 -3.12181 -2.10286 0
M  V30 4082 C 401.231 -2.6098 -0.93727 0
M  V30 4083 H 404.182 -1.58534 -0.0726422 0
M  V30 4084 H 404.203 -2.91319 -2.44772 0
M  V30 4085 H 403.715 -3.78764 -0.846151 0
M  V30 4086 H 401.816 -2.3775 -2.8689 0
M  V30 4087 H 401.929 -4.18415 -2.33379 0
M  V30 4088 H 400.293 -2.17564 -1.32431 0
M  V30 4089 H 401.076 -3.42623 -0.215414 0
M  V30 4090 N 403.521 0.559213 -1.47345 0
M  V30 4091 C 404.746 1.34676 -1.57725 0
M  V30 4092 C 405.171 1.86723 -0.227164 0
M  V30 4093 O 404.529 1.6286 0.796642 0
M  V30 4094 C 404.577 2.49399 -2.60447 0
M  V30 4095 O 403.681 3.51567 -2.15578 0
M  V30 4096 H 403.022 0.400115 -0.52991 0
M  V30 4097 H 405.552 0.676009 -1.93109 0
M  V30 4098 H 405.562 2.95996 -2.80803 0
M  V30 4099 H 404.237 2.10873 -3.58477 0
M  V30 4100 H 402.814 3.11289 -2.05313 0
M  V30 4101 N 404.999 1.35443 0.805782 0
M  V30 4102 C 406.224 1.32037 1.59941 0
M  V30 4103 C 406.649 -0.0994215 1.87837 0
M  V30 4104 O 406.007 -1.06648 1.46615 0
M  V30 4105 C 406.055 2.13354 2.90711 0
M  V30 4106 O 405.159 1.5148 3.83572 0
M  V30 4107 H 404.5 0.452666 0.485787 0
M  V30 4108 H 407.03 1.78496 1.00002 0
M  V30 4109 H 407.04 2.25338 3.40128 0
M  V30 4110 H 405.715 3.16572 2.69732 0
M  V30 4111 H 404.292 1.4834 3.42125 0
M  V30 4112 N 406.477 -1.02803 1.19454 0
M  V30 4113 C 407.427 -2.0945 0.900827 0
M  V30 4114 C 408.411 -1.60335 -0.134715 0
M  V30 4115 O 409.603 -1.76857 0.0710924 0
M  V30 4116 C 406.732 -3.4044 0.442229 0
M  V30 4117 C 405.818 -3.96286 1.51056 0
M  V30 4118 N 406.209 -4.25785 2.73021 0
M  V30 4119 C 404.507 -4.24307 1.37404 0
M  V30 4120 C 405.208 -4.70654 3.41848 0
M  V30 4121 N 404.184 -4.72238 2.69243 0
M  V30 4122 H 407.986 -2.3015 1.82779 0
M  V30 4123 H 405.5 -1.20672 1.08683 0
M  V30 4124 H 407.497 -4.16354 0.21326 0
M  V30 4125 H 406.157 -3.21159 -0.478238 0
M  V30 4126 H 407.168 -4.15041 3.09776 0
M  V30 4127 H 403.845 -4.14285 0.517103 0
M  V30 4128 H 405.235 -5.02392 4.46152 0
M  V30 4129 N 407.956 -0.998596 -1.21925 0
M  V30 4130 C 409.184 -0.696286 -1.94832 0
M  V30 4131 C 409.599 0.740032 -1.73692 0
M  V30 4132 O 408.956 1.5 -1.03953 0
M  V30 4133 C 409.007 -0.999833 -3.47398 0
M  V30 4134 O 408.728 -2.37972 -3.67833 0
M  V30 4135 C 410.229 -0.716025 -4.37479 0
M  V30 4136 H 407.449 -0.257111 -0.619786 0
M  V30 4137 H 409.993 -1.33491 -1.54921 0
M  V30 4138 H 408.148 -0.406918 -3.85257 0
M  V30 4139 H 408.562 -2.48338 -4.61983 0
M  V30 4140 H 410.036 -0.978642 -5.43256 0
M  V30 4141 H 410.513 0.349968 -4.37803 0
M  V30 4142 H 411.119 -1.29025 -4.05256 0
M  V30 4143 N 409.434 1.37368 -0.772513 0
M  V30 4144 C 410.364 2.32856 -0.173304 0
M  V30 4145 C 411.345 1.55818 0.682262 0
M  V30 4146 O 412.53 1.84052 0.619566 0
M  V30 4147 C 409.66 3.40048 0.706007 0
M  V30 4148 C 408.614 4.27973 -0.0483144 0
M  V30 4149 C 407.94 5.26184 0.950491 0
M  V30 4150 C 409.24 5.07665 -1.22776 0
M  V30 4151 H 410.934 2.83217 -0.971002 0
M  V30 4152 H 408.48 1.3617 -0.468377 0
M  V30 4153 H 410.433 4.05827 1.13501 0
M  V30 4154 H 409.157 2.88214 1.53623 0
M  V30 4155 H 407.816 3.63726 -0.458107 0
M  V30 4156 H 407.464 4.7063 1.77529 0
M  V30 4157 H 407.164 5.85872 0.450314 0
M  V30 4158 H 408.688 5.94838 1.37842 0
M  V30 4159 H 410.102 5.66578 -0.875366 0
M  V30 4160 H 408.499 5.76681 -1.66007 0
M  V30 4161 H 409.569 4.40294 -2.03149 0
M  V30 4162 N 410.912 0.523116 1.48665 0
M  V30 4163 C 411.875 -0.232592 2.28017 0
M  V30 4164 C 412.875 -0.874021 1.34972 0
M  V30 4165 O 414.065 -0.735132 1.57929 0
M  V30 4166 C 411.197 -1.33586 3.13636 0
M  V30 4167 H 412.39 0.464008 2.96289 0
M  V30 4168 H 409.943 0.278816 1.53793 0
M  V30 4169 H 410.678 -2.06593 2.4998 0
M  V30 4170 H 410.463 -0.881125 3.82071 0
M  V30 4171 H 411.953 -1.86759 3.73511 0
M  V30 4172 N 412.39 -1.55475 0.257931 0
M  V30 4173 C 413.636 -1.99502 -0.364266 0
M  V30 4174 C 413.969 -1.146 -1.56782 0
M  V30 4175 O 413.244 -0.211968 -1.93342 0
M  V30 4176 C 413.527 -3.51917 -0.763333 0
M  V30 4177 C 413.38 -4.4758 0.446371 0
M  V30 4178 C 414.699 -4.09742 -1.60623 0
M  V30 4179 H 411.818 -0.725277 -0.130929 0
M  V30 4180 H 414.46 -1.8653 0.361446 0
M  V30 4181 H 412.61 -3.63101 -1.38166 0
M  V30 4182 H 414.282 -4.48362 1.08487 0
M  V30 4183 H 412.525 -4.19947 1.08753 0
M  V30 4184 H 413.196 -5.51862 0.123645 0
M  V30 4185 H 415.672 -4.01727 -1.08418 0
M  V30 4186 H 414.548 -5.16631 -1.85429 0
M  V30 4187 H 414.809 -3.58889 -2.58169 0
M  V30 4188 N 413.868 0.0150385 -1.57593 0
M  V30 4189 C 415.114 0.704043 -1.90187 0
M  V30 4190 C 415.447 1.74249 -0.857366 0
M  V30 4191 O 414.722 1.94092 0.125843 0
M  V30 4192 C 415.005 1.36087 -3.33395 0
M  V30 4193 C 414.858 0.334981 -4.48551 0
M  V30 4194 C 416.177 2.29112 -3.7576 0
M  V30 4195 H 413.296 0.254475 -0.691673 0
M  V30 4196 H 415.938 -0.0331678 -1.89971 0
M  V30 4197 H 414.088 1.98922 -3.3371 0
M  V30 4198 H 415.76 -0.292534 -4.60372 0
M  V30 4199 H 414.003 -0.344325 -4.32431 0
M  V30 4200 H 414.674 0.833316 -5.45674 0
M  V30 4201 H 417.15 1.76308 -3.76902 0
M  V30 4202 H 416.026 2.72043 -4.76743 0
M  V30 4203 H 416.287 3.16385 -3.08793 0
M  V30 4204 N 415.346 1.54954 0.287554 0
M  V30 4205 C 416.594 1.74528 1.01904 0
M  V30 4206 C 416.915 0.541349 1.87335 0
M  V30 4207 O 416.185 -0.444108 1.908 0
M  V30 4208 H 414.765 0.643576 0.379235 0
M  V30 4209 H 417.427 1.92333 0.315294 0
M  V30 4210 H 416.523 2.64015 1.6644 0
M  V30 4211 N 416.824 -0.551391 1.4764 0
M  V30 4212 C 417.771 -1.65796 1.60563 0
M  V30 4213 C 418.741 -1.59932 0.448428 0
M  V30 4214 O 419.926 -1.78679 0.669222 0
M  V30 4215 C 417.066 -3.04108 1.63133 0
M  V30 4216 C 416.179 -3.20365 2.89811 0
M  V30 4217 C 415.314 -4.49109 2.8368 0
M  V30 4218 C 414.353 -4.58819 4.05156 0
M  V30 4219 N 413.49 -5.78926 3.97227 0
M  V30 4220 H 418.33 -1.54088 2.5507 0
M  V30 4221 H 415.867 -0.75052 1.26513 0
M  V30 4222 H 417.825 -3.84207 1.62606 0
M  V30 4223 H 416.455 -3.14637 0.721341 0
M  V30 4224 H 415.507 -2.33659 3.00179 0
M  V30 4225 H 416.819 -3.23402 3.79753 0
M  V30 4226 H 415.973 -5.37475 2.81434 0
M  V30 4227 H 414.712 -4.4856 1.91431 0
M  V30 4228 H 413.717 -3.68864 4.077 0
M  V30 4229 H 414.942 -4.61124 4.98539 0
M  V30 4230 H 412.888 -5.79314 3.07785 0
M  V30 4231 H 412.805 -5.83367 4.80853 0
M  V30 4232 H 414.073 -6.69637 3.99007 0
M  V30 4233 N 418.302 -1.35869 -0.798587 0
M  V30 4234 C 419.548 -1.2978 -1.55836 0
M  V30 4235 C 419.881 0.125322 -1.93795 0
M  V30 4236 O 419.156 1.07658 -1.61987 0
M  V30 4237 C 419.439 -2.21188 -2.84162 0
M  V30 4238 C 419.292 -3.72155 -2.52628 0
M  V30 4239 C 420.611 -2.11545 -3.85923 0
M  V30 4240 H 417.73 -0.472769 -0.565383 0
M  V30 4241 H 420.372 -1.66341 -0.918192 0
M  V30 4242 H 418.522 -1.90139 -3.38791 0
M  V30 4243 H 420.194 -4.13682 -2.04121 0
M  V30 4244 H 418.437 -3.92042 -1.85704 0
M  V30 4245 H 419.108 -4.31511 -3.44242 0
M  V30 4246 H 421.584 -2.38855 -3.40716 0
M  V30 4247 H 420.46 -2.77688 -4.73477 0
M  V30 4248 H 420.721 -1.09987 -4.282 0
M  V30 4249 N 419.78 1.02168 -1.19998 0
M  V30 4250 C 421.008 1.79296 -1.03249 0
M  V30 4251 C 421.423 1.84103 0.418502 0
M  V30 4252 O 420.78 1.29031 1.29063 0
M  V30 4253 C 420.831 3.24007 -1.60319 0
M  V30 4254 O 420.552 3.19512 -2.99739 0
M  V30 4255 C 422.053 4.17704 -1.48453 0
M  V30 4256 H 419.273 0.564016 -0.363493 0
M  V30 4257 H 421.817 1.28639 -1.58973 0
M  V30 4258 H 419.972 3.7183 -1.08727 0
M  V30 4259 H 420.386 4.10306 -3.26725 0
M  V30 4260 H 421.86 5.17104 -1.93153 0
M  V30 4261 H 422.337 4.37029 -0.436193 0
M  V30 4262 H 422.943 3.7576 -1.99211 0
M  V30 4263 N 421.258 1.00505 1.21394 0
M  V30 4264 C 422.669 0.721082 1.72213 0
M  V30 4265 C 423.02 -0.761263 1.80829 0
M  V30 4266 O 422.145 -1.59464 1.46288 0
M  V30 4267 C 422.74 1.30228 3.12772 0
M  V30 4268 C 421.299 1.06743 3.60947 0
M  V30 4269 C 420.446 1.41507 2.38477 0
M  V30 4270 H 423.397 1.17594 1.06571 0
M  V30 4271 H 423.418 0.686955 3.74247 0
M  V30 4272 H 422.93 2.38115 3.06468 0
M  V30 4273 H 421.031 0.00572162 3.726 0
M  V30 4274 H 421.144 1.73936 4.46411 0
M  V30 4275 H 419.508 0.833852 2.40664 0
M  V30 4276 H 420.291 2.50424 2.34824 0
M  V30 4277 N 422.737 -1.36956 0.779787 0
M  V30 4278 C 423.965 -2.03755 0.359398 0
M  V30 4279 C 424.38 -1.58807 -1.02106 0
M  V30 4280 O 423.737 -0.773024 -1.6532 0
M  V30 4281 C 423.788 -3.59251 0.402568 0
M  V30 4282 O 423.509 -4.02557 1.72858 0
M  V30 4283 C 425.01 -4.43291 -0.0284068 0
M  V30 4284 H 422.23 -0.654148 0.149437 0
M  V30 4285 H 424.774 -1.75128 1.05595 0
M  V30 4286 H 422.929 -3.86621 -0.245478 0
M  V30 4287 H 423.343 -4.97111 1.67275 0
M  V30 4288 H 424.817 -5.51975 0.0529466 0
M  V30 4289 H 425.294 -4.25719 -1.07982 0
M  V30 4290 H 425.9 -4.21163 0.591758 0
M  V30 4291 N 424.215 -0.530993 -1.48385 0
M  V30 4292 C 425.626 -0.0907905 -1.86479 0
M  V30 4293 C 425.977 1.33213 -1.44044 0
M  V30 4294 O 425.102 1.99783 -0.831615 0
M  V30 4295 C 425.697 -0.157987 -3.38431 0
M  V30 4296 C 424.256 0.227026 -3.75715 0
M  V30 4297 C 423.403 -0.5173 -2.72432 0
M  V30 4298 H 426.354 -0.742186 -1.40276 0
M  V30 4299 H 426.375 0.630053 -3.75247 0
M  V30 4300 H 425.887 -1.19372 -3.69286 0
M  V30 4301 H 423.988 1.26486 -3.50474 0
M  V30 4302 H 424.101 -0.113288 -4.78966 0
M  V30 4303 H 422.465 0.0365527 -2.54674 0
M  V30 4304 H 423.248 -1.55368 -3.0613 0
M  V30 4305 N 425.693 1.55336 -0.266172 0
M  V30 4306 C 427.109 1.59356 0.0882065 0
M  V30 4307 C 427.309 1.2834 1.55342 0
M  V30 4308 O 426.365 1.03996 2.30089 0
M  V30 4309 C 427.678 2.99409 -0.278364 0
M  V30 4310 C 429.226 3.12196 -0.224243 0
M  V30 4311 C 429.701 4.545 -0.565123 0
M  V30 4312 N 431.192 4.60313 -0.51634 0
M  V30 4313 C 431.927 5.68434 -0.753013 0
M  V30 4314 N 431.423 6.84738 -1.05383 0
M  V30 4315 N 433.216 5.57942 -0.682414 0
M  V30 4316 H 425.367 1.73764 -1.22147 0
M  V30 4317 H 427.63 0.809822 -0.492841 0
M  V30 4318 H 427.336 3.2691 -1.29703 0
M  V30 4319 H 427.21 3.75228 0.385186 0
M  V30 4320 H 429.597 2.84464 0.78512 0
M  V30 4321 H 429.678 2.38609 -0.921922 0
M  V30 4322 H 429.322 4.82956 -1.57213 0
M  V30 4323 H 429.252 5.26374 0.154248 0
M  V30 4324 H 431.743 3.7676 -0.29335 0
M  V30 4325 H 432.056 7.63088 -1.22133 0
M  V30 4326 H 430.401 6.86375 -1.09151 0
M  V30 4327 H 433.592 4.65958 -0.44731 0
M  V30 4328 H 433.765 6.4213 -0.870248 0
M  V30 4329 N 427.171 -0.0066808 1.57599 0
M  V30 4330 C 428.582 -0.550379 1.78403 0
M  V30 4331 C 428.933 -1.74339 0.900014 0
M  V30 4332 O 428.058 -2.16166 0.100713 0
M  V30 4333 C 428.653 -1.00523 3.23544 0
M  V30 4334 C 427.212 -1.49428 3.45468 0
M  V30 4335 C 426.359 -0.442444 2.73748 0
M  V30 4336 H 429.31 0.219508 1.57175 0
M  V30 4337 H 429.331 -1.87157 3.31289 0
M  V30 4338 H 428.843 -0.136735 3.87859 0
M  V30 4339 H 426.944 -2.3839 2.86358 0
M  V30 4340 H 427.057 -1.52635 4.54136 0
M  V30 4341 H 425.421 -0.902578 2.38171 0
M  V30 4342 H 426.204 0.416973 3.40758 0
M  V30 4343 N 428.649 -1.55105 -0.279332 0
M  V30 4344 C 429.877 -1.7943 -1.03017 0
M  V30 4345 C 430.292 -0.564456 -1.80165 0
M  V30 4346 O 429.649 0.466326 -1.76442 0
M  V30 4347 C 429.7 -3.0155 -1.99374 0
M  V30 4348 O 429.421 -4.19784 -1.25352 0
M  V30 4349 C 430.922 -3.3843 -2.86321 0
M  V30 4350 H 428.142 -0.597882 -0.304594 0
M  V30 4351 H 430.686 -2.02105 -0.312035 0
M  V30 4352 H 428.841 -2.81019 -2.66659 0
M  V30 4353 H 429.255 -4.88781 -1.90246 0
M  V30 4354 H 430.729 -4.27066 -3.49741 0
M  V30 4355 H 431.206 -2.57549 -3.5576 0
M  V30 4356 H 431.812 -3.61197 -2.24536 0
M  V30 4357 N 430.127 0.543554 -1.4793 0
M  V30 4358 C 431.404 1.30458 -1.4574 0
M  V30 4359 C 431.784 2.1048 -0.161692 0
M  V30 4360 O 431.132 2.11831 0.856734 0
M  V30 4361 C 431.342 2.19754 -2.71126 0
M  V30 4362 C 432.69 2.80334 -3.18901 0
M  V30 4363 O 433.714 2.30049 -2.71948 0
M  V30 4364 O 432.573 3.71766 -4.00565 0
M  V30 4365 H 429.667 0.588117 -0.581418 0
M  V30 4366 H 432.213 0.561328 -1.60147 0
M  V30 4367 H 430.985 1.60316 -3.56952 0
M  V30 4368 H 430.608 3.01351 -2.59371 0
M  V30 4369 N 431.605 1.3629 0.791371 0
M  V30 4370 C 432.853 1.30154 1.5461 0
M  V30 4371 C 433.174 -0.119409 1.94634 0
M  V30 4372 O 432.444 -1.05924 1.64794 0
M  V30 4373 H 431.024 0.478784 0.573389 0
M  V30 4374 H 433.686 1.70565 0.94306 0
M  V30 4375 H 432.782 1.92762 2.45457 0
M  V30 4376 N 433.083 -1.0153 1.20538 0
M  V30 4377 C 434.329 -1.75408 1.01783 0
M  V30 4378 C 434.662 -1.88943 -0.448814 0
M  V30 4379 O 433.937 -1.4162 -1.33319 0
M  V30 4380 C 434.22 -3.17255 1.70356 0
M  V30 4381 C 434.073 -3.11508 3.24473 0
M  V30 4382 C 435.392 -4.15955 1.43769 0
M  V30 4383 H 432.511 -0.636713 0.371167 0
M  V30 4384 H 435.153 -1.18436 1.4857 0
M  V30 4385 H 433.303 -3.65898 1.30578 0
M  V30 4386 H 434.975 -2.70658 3.73553 0
M  V30 4387 H 433.218 -2.4887 3.55311 0
M  V30 4388 H 433.889 -4.11784 3.67611 0
M  V30 4389 H 436.365 -3.75973 1.7828 0
M  V30 4390 H 435.241 -5.13368 1.94279 0
M  V30 4391 H 435.502 -4.40586 0.365564 0
M  V30 4392 N 434.561 -1.01147 -1.20859 0
M  V30 4393 C 435.838 -0.613136 -1.85742 0
M  V30 4394 C 436.218 0.909004 -1.90526 0
M  V30 4395 O 435.566 1.79862 -1.40932 0
M  V30 4396 C 435.776 -1.255 -3.25654 0
M  V30 4397 C 437.124 -1.3672 -4.01986 0
M  V30 4398 O 438.148 -1.21082 -3.34989 0
M  V30 4399 O 437.007 -1.6194 -5.21956 0
M  V30 4400 H 434.101 -0.210878 -0.799662 0
M  V30 4401 H 436.647 -1.10853 -1.2849 0
M  V30 4402 H 435.419 -2.29532 -3.16908 0
M  V30 4403 H 435.042 -0.746369 -3.90532 0
M  V30 4404 N 436.039 1.36541 -0.78704 0
M  V30 4405 C 437.288 1.98552 -0.35494 0
M  V30 4406 C 437.601 1.63171 1.07864 0
M  V30 4407 O 438.807 2.18399 1.61289 0
M  V30 4408 C 437.263 3.55136 -0.583671 0
M  V30 4409 C 436.871 3.99444 -2.02851 0
M  V30 4410 C 438.615 4.2395 -0.215957 0
M  V30 4411 C 436.522 5.48796 -2.20403 0
M  V30 4412 H 435.452 0.742888 -0.128972 0
M  V30 4413 H 438.103 1.5587 -0.968337 0
M  V30 4414 H 436.485 3.95875 0.0994046 0
M  V30 4415 H 437.659 3.6991 -2.74779 0
M  V30 4416 H 435.974 3.43459 -2.35425 0
M  V30 4417 H 438.571 5.33709 -0.325405 0
M  V30 4418 H 438.914 4.07827 0.835646 0
M  V30 4419 H 439.447 3.88565 -0.852175 0
M  V30 4420 H 436.186 5.69864 -3.23937 0
M  V30 4421 H 435.706 5.79964 -1.52977 0
M  V30 4422 H 437.385 6.14986 -2.01002 0
M  V30 4423 N 437.518 0.538854 1.48102 0
M  V30 4424 C 438.748 0.0122958 2.06596 0
M  V30 4425 C 439.156 -1.27861 1.39457 0
M  V30 4426 O 438.499 -1.77348 0.478907 0
M  V30 4427 C 438.561 -0.273131 3.58461 0
M  V30 4428 C 438.225 0.92561 4.47528 0
M  V30 4429 C 439.222 1.82637 4.86765 0
M  V30 4430 C 436.907 1.13511 4.89306 0
M  V30 4431 C 438.901 2.92047 5.66558 0
M  V30 4432 C 436.588 2.23233 5.68868 0
M  V30 4433 C 437.586 3.12333 6.07402 0
M  V30 4434 O 437.274 4.20155 6.85365 0
M  V30 4435 H 437.006 0.0344283 0.675123 0
M  V30 4436 H 439.56 0.746494 1.91355 0
M  V30 4437 H 437.79 -1.06141 3.71848 0
M  V30 4438 H 439.479 -0.742842 3.99045 0
M  V30 4439 H 440.245 1.67649 4.55103 0
M  V30 4440 H 436.124 0.450835 4.5879 0
M  V30 4441 H 439.668 3.6162 5.96554 0
M  V30 4442 H 435.565 2.38201 5.99942 0
M  V30 4443 H 436.333 4.17975 7.03732 0
M  V30 4444 N 438.996 -1.55193 0.274407 0
M  V30 4445 C 440.243 -1.99581 -0.342579 0
M  V30 4446 C 440.571 -1.1628 -1.55914 0
M  V30 4447 O 439.826 -0.22029 -1.94456 0
M  V30 4448 C 440.125 -3.49019 -0.769458 0
M  V30 4449 C 439.791 -4.49598 0.342389 0
M  V30 4450 C 438.453 -4.76821 0.647686 0
M  V30 4451 C 440.805 -5.0964 1.09163 0
M  V30 4452 C 438.133 -5.61354 1.70581 0
M  V30 4453 C 440.485 -5.95323 2.13948 0
M  V30 4454 C 439.149 -6.20867 2.45113 0
M  V30 4455 H 438.419 -0.730319 -0.125358 0
M  V30 4456 H 441.066 -1.87529 0.387971 0
M  V30 4457 H 439.371 -3.58544 -1.57967 0
M  V30 4458 H 441.068 -3.8077 -1.25757 0
M  V30 4459 H 437.658 -4.28496 0.094318 0
M  V30 4460 H 441.842 -4.88632 0.869024 0
M  V30 4461 H 437.098 -5.79392 1.9523 0
M  V30 4462 H 441.272 -6.40881 2.72478 0
M  V30 4463 H 438.899 -6.86162 3.27239 0
M  V30 4464 N 440.474 -0.00167713 -1.576 0
M  V30 4465 C 441.722 0.681471 -1.90264 0
M  V30 4466 C 442.043 1.7422 -0.875924 0
M  V30 4467 O 441.313 1.95709 0.0864412 0
M  V30 4468 H 439.893 0.254696 -0.702239 0
M  V30 4469 H 442.555 -0.0429996 -1.94853 0
M  V30 4470 H 441.651 1.15166 -2.90075 0
M  V30 4471 N 441.952 1.55251 0.271103 0
M  V30 4472 C 442.885 1.83191 1.36075 0
M  V30 4473 C 443.863 0.685091 1.47463 0
M  V30 4474 O 445.047 0.928292 1.64058 0
M  V30 4475 C 442.174 1.99521 2.73696 0
M  V30 4476 C 441.22 3.22081 2.79582 0
M  V30 4477 S 442.053 4.79388 2.38636 0
M  V30 4478 C 443.209 4.98693 3.78228 0
M  V30 4479 H 443.442 2.75327 1.12171 0
M  V30 4480 H 440.975 1.47046 0.470833 0
M  V30 4481 H 442.933 2.09613 3.52948 0
M  V30 4482 H 441.594 1.0827 2.9485 0
M  V30 4483 H 440.787 3.304 3.80594 0
M  V30 4484 H 440.389 3.10589 2.08352 0
M  V30 4485 H 442.681 4.84551 4.73515 0
M  V30 4486 H 443.624 6.00738 3.7486 0
M  V30 4487 H 444.032 4.26665 3.69618 0
M  V30 4488 N 443.43 -0.535701 1.48216 0
M  V30 4489 C 444.841 -1.11769 1.49548 0
M  V30 4490 C 445.192 -1.94442 0.26207 0
M  V30 4491 O 444.317 -2.06987 -0.631287 0
M  V30 4492 C 444.912 -2.03367 2.70975 0
M  V30 4493 C 443.471 -2.56795 2.75196 0
M  V30 4494 C 442.618 -1.33631 2.42977 0
M  V30 4495 H 445.569 -0.321232 1.55415 0
M  V30 4496 H 445.59 -2.87569 2.49167 0
M  V30 4497 H 445.102 -1.43169 3.60727 0
M  V30 4498 H 443.203 -3.20731 1.89638 0
M  V30 4499 H 443.316 -2.9632 3.76472 0
M  V30 4500 H 441.68 -1.6502 1.94012 0
M  V30 4501 H 442.463 -0.75194 3.34964 0
M  V30 4502 N 444.908 -1.36708 -0.784132 0
M  V30 4503 C 446.156 -1.30972 -1.53918 0
M  V30 4504 C 446.477 0.109086 -1.94695 0
M  V30 4505 O 445.747 1.05048 -1.65353 0
M  V30 4506 H 444.327 -0.481819 -0.570841 0
M  V30 4507 H 446.989 -1.71063 -0.934002 0
M  V30 4508 H 446.085 -1.94061 -2.44431 0
M  V30 4509 N 446.386 1.0089 -1.21074 0
M  V30 4510 C 447.296 2.13039 -0.982425 0
M  V30 4511 C 448.312 1.73881 0.0642161 0
M  V30 4512 O 449.488 2.01012 -0.12496 0
M  V30 4513 C 446.553 3.42377 -0.545803 0
M  V30 4514 C 445.614 3.95731 -1.6642 0
M  V30 4515 C 444.847 5.18896 -1.24832 0
M  V30 4516 O 445.07 5.70273 -0.120265 0
M  V30 4517 O 444.004 5.65597 -2.05873 0
M  V30 4518 H 447.83 2.35175 -1.92163 0
M  V30 4519 H 445.415 1.1142 -0.995285 0
M  V30 4520 H 447.297 4.20244 -0.311912 0
M  V30 4521 H 445.972 3.21639 0.364727 0
M  V30 4522 H 444.879 3.19108 -1.95246 0
M  V30 4523 H 446.212 4.20872 -2.55201 0
M  V30 4524 N 447.864 1.01787 1.20321 0
M  V30 4525 C 449.113 0.703249 1.89043 0
M  V30 4526 C 449.426 -0.770445 1.79787 0
M  V30 4527 O 450.632 -1.19767 2.43656 0
M  V30 4528 C 449.088 1.20749 3.3904 0
M  V30 4529 C 448.696 2.70817 3.56878 0
M  V30 4530 C 450.44 0.968352 4.13308 0
M  V30 4531 C 448.347 3.14716 5.00708 0
M  V30 4532 H 447.277 0.259354 0.707991 0
M  V30 4533 H 449.928 1.23072 1.36108 0
M  V30 4534 H 448.31 0.607989 3.91305 0
M  V30 4535 H 449.484 3.36327 3.14993 0
M  V30 4536 H 447.799 2.92888 2.95983 0
M  V30 4537 H 450.396 1.27173 5.19356 0
M  V30 4538 H 450.739 -0.095149 4.16191 0
M  V30 4539 H 451.272 1.53129 3.67146 0
M  V30 4540 H 448.011 4.20347 5.02979 0
M  V30 4541 H 447.531 2.53927 5.43398 0
M  V30 4542 H 449.21 3.07426 5.69296 0
M  V30 4543 N 449.342 -1.36122 0.79427 0
M  V30 4544 C 450.567 -2.03891 0.379871 0
M  V30 4545 C 450.992 -1.59488 -0.997251 0
M  V30 4546 O 450.35 -0.765652 -1.64339 0
M  V30 4547 C 450.398 -3.57687 0.457442 0
M  V30 4548 O 449.502 -4.08931 -0.5338 0
M  V30 4549 H 448.843 -0.6443 0.160541 0
M  V30 4550 H 451.373 -1.73976 1.07673 0
M  V30 4551 H 451.383 -4.06721 0.322792 0
M  V30 4552 H 450.058 -3.89357 1.46199 0
M  V30 4553 H 448.635 -3.71154 -0.360409 0
M  V30 4554 N 450.82 -0.546701 -1.47814 0
M  V30 4555 C 451.73 0.21026 -2.33656 0
M  V30 4556 C 452.746 0.922413 -1.47538 0
M  V30 4557 O 453.922 0.893652 -1.80488 0
M  V30 4558 C 450.987 1.23348 -3.24016 0
M  V30 4559 C 450.048 0.529883 -4.26017 0
M  V30 4560 C 449.281 1.50435 -5.12059 0
M  V30 4561 O 449.504 2.73837 -5.00369 0
M  V30 4562 O 448.438 1.03459 -5.92942 0
M  V30 4563 H 452.264 -0.493605 -2.99662 0
M  V30 4564 H 449.849 -0.307427 -1.46203 0
M  V30 4565 H 451.731 1.82438 -3.79861 0
M  V30 4566 H 450.406 1.91945 -2.60651 0
M  V30 4567 H 449.313 -0.101948 -3.73961 0
M  V30 4568 H 450.646 -0.11445 -4.92067 0
M  V30 4569 N 452.299 1.55045 -0.282633 0
M  V30 4570 C 453.249 2.19514 0.616249 0
M  V30 4571 C 454.233 1.16216 1.11277 0
M  V30 4572 O 455.425 1.42004 1.05659 0
M  V30 4573 C 452.554 2.92548 1.7964 0
M  V30 4574 C 451.64 4.03142 1.31671 0
M  V30 4575 N 452.031 5.0276 0.553695 0
M  V30 4576 C 450.329 4.1635 1.59903 0
M  V30 4577 C 451.03 5.80923 0.30054 0
M  V30 4578 N 450.006 5.3651 0.875116 0
M  V30 4579 H 453.808 2.93889 0.0255363 0
M  V30 4580 H 451.322 1.62169 -0.0865362 0
M  V30 4581 H 453.319 3.37188 2.45173 0
M  V30 4582 H 451.979 2.19685 2.39099 0
M  V30 4583 H 452.99 5.17512 0.20032 0
M  V30 4584 H 449.667 3.54682 2.20243 0
M  V30 4585 H 451.057 6.7118 -0.311053 0
M  V30 4586 N 453.777 0.010035 1.57597 0
M  V30 4587 C 454.687 -0.994226 2.12491 0
M  V30 4588 C 455.703 -1.37013 1.07254 0
M  V30 4589 O 456.879 -1.45542 1.3921 0
M  V30 4590 C 453.944 -2.2642 2.62555 0
M  V30 4591 C 453.005 -1.95049 3.82432 0
M  V30 4592 C 452.238 -3.15991 4.30099 0
M  V30 4593 O 452.461 -4.28015 3.7704 0
M  V30 4594 O 451.395 -2.99403 5.22151 0
M  V30 4595 H 455.221 -0.557549 2.98538 0
M  V30 4596 H 452.806 -0.209413 1.47925 0
M  V30 4597 H 454.688 -3.01009 2.9491 0
M  V30 4598 H 453.363 -2.69306 1.796 0
M  V30 4599 H 452.27 -1.17904 3.55034 0
M  V30 4600 H 453.603 -1.56992 4.66491 0
M  V30 4601 N 455.255 -1.55392 -0.262866 0
M  V30 4602 C 456.503 -1.76127 -0.991147 0
M  V30 4603 C 456.824 -0.571083 -1.8645 0
M  V30 4604 O 456.094 0.413698 -1.91482 0
M  V30 4605 H 454.674 -0.649528 -0.368948 0
M  V30 4606 H 457.336 -1.9281 -0.284655 0
M  V30 4607 H 456.432 -2.6663 -1.62219 0
M  V30 4608 N 456.733 0.527833 -1.48498 0
M  V30 4609 C 457.98 1.28354 -1.56625 0
M  V30 4610 C 458.308 1.93 -0.241096 0
M  V30 4611 O 457.563 1.79967 0.768798 0
M  V30 4612 C 457.862 2.39275 -2.65485 0
M  V30 4613 C 457.528 1.92268 -4.07853 0
M  V30 4614 C 456.19 1.79166 -4.46602 0
M  V30 4615 C 458.542 1.56771 -4.97064 0
M  V30 4616 C 455.87 1.28905 -5.72364 0
M  V30 4617 C 458.222 1.07972 -6.23318 0
M  V30 4618 C 456.886 0.934887 -6.60921 0
M  V30 4619 H 456.156 0.469682 -0.573131 0
M  V30 4620 H 458.803 0.588781 -1.82224 0
M  V30 4621 H 457.108 3.1443 -2.33754 0
M  V30 4622 H 458.805 2.974 -2.68988 0
M  V30 4623 H 455.395 2.03417 -3.77252 0
M  V30 4624 H 459.579 1.65753 -4.67803 0
M  V30 4625 H 454.835 1.16381 -6.00221 0
M  V30 4626 H 459.009 0.795775 -6.91838 0
M  V30 4627 H 456.636 0.543231 -7.58257 0
M  V30 4628 N 458.211 1.37122 0.776871 0
M  V30 4629 C 459.141 1.35164 1.90402 0
M  V30 4630 C 460.122 0.221069 1.68657 0
M  V30 4631 O 461.307 0.420642 1.8959 0
M  V30 4632 C 458.437 1.15274 3.27611 0
M  V30 4633 C 457.391 2.25289 3.63908 0
M  V30 4634 C 456.717 1.90527 4.99603 0
M  V30 4635 C 458.017 3.67446 3.71188 0
M  V30 4636 H 459.711 2.29482 1.92297 0
M  V30 4637 H 457.257 1.10465 0.923773 0
M  V30 4638 H 459.21 1.12536 4.06096 0
M  V30 4639 H 457.934 0.174102 3.26136 0
M  V30 4640 H 456.593 2.27174 2.87728 0
M  V30 4641 H 456.241 0.91206 4.94662 0
M  V30 4642 H 455.941 2.64193 5.24858 0
M  V30 4643 H 457.465 1.89367 5.80493 0
M  V30 4644 H 458.879 3.67719 4.39836 0
M  V30 4645 H 457.276 4.40123 4.07936 0
M  V30 4646 H 458.346 4.01443 2.71977 0
M  V30 4647 N 459.689 -1.00246 1.21608 0
M  V30 4648 C 461.105 -1.26435 0.973975 0
M  V30 4649 C 461.305 -1.98642 -0.338143 0
M  V30 4650 O 460.361 -2.29026 -1.06317 0
M  V30 4651 C 461.674 -2.08551 2.16626 0
M  V30 4652 C 463.222 -2.21769 2.20879 0
M  V30 4653 C 463.697 -3.07267 3.39633 0
M  V30 4654 N 465.188 -3.14855 3.39736 0
M  V30 4655 C 465.923 -3.81274 4.28273 0
M  V30 4656 N 465.419 -4.497 5.27012 0
M  V30 4657 N 467.212 -3.7794 4.16074 0
M  V30 4658 H 459.363 -0.518089 2.05984 0
M  V30 4659 H 461.626 -0.291368 0.902113 0
M  V30 4660 H 461.332 -1.62847 3.11727 0
M  V30 4661 H 461.206 -3.09303 2.15897 0
M  V30 4662 H 463.593 -2.66691 1.26332 0
M  V30 4663 H 463.674 -1.20478 2.25652 0
M  V30 4664 H 463.318 -2.63047 4.34475 0
M  V30 4665 H 463.248 -4.08678 3.321 0
M  V30 4666 H 465.739 -2.66147 2.6828 0
M  V30 4667 H 466.052 -4.98092 5.90867 0
M  V30 4668 H 464.397 -4.48479 5.30935 0
M  V30 4669 H 467.588 -3.23638 3.38195 0
M  V30 4670 H 467.761 -4.29424 4.85282 0
M  V30 4671 N 461.167 -1.02423 -1.1978 0
M  V30 4672 C 462.13 -0.605703 -2.21052 0
M  V30 4673 C 463.13 0.328209 -1.57415 0
M  V30 4674 O 464.32 0.115853 -1.73814 0
M  V30 4675 C 461.452 0.114366 -3.40708 0
M  V30 4676 H 462.645 -1.5017 -2.59594 0
M  V30 4677 H 460.198 -0.814888 -1.33376 0
M  V30 4678 H 460.933 1.02492 -3.07678 0
M  V30 4679 H 460.718 -0.556641 -3.88129 0
M  V30 4680 H 462.208 0.394272 -4.15735 0
M  V30 4681 N 462.645 1.35699 -0.801477 0
M  V30 4682 C 463.592 2.29876 -0.206294 0
M  V30 4683 C 464.562 1.52565 0.656752 0
M  V30 4684 O 465.747 1.81024 0.602906 0
M  V30 4685 C 462.887 3.39052 0.643272 0
M  V30 4686 C 462 4.31335 -0.239644 0
M  V30 4687 C 461.135 5.27599 0.61744 0
M  V30 4688 C 460.174 6.11521 -0.26619 0
M  V30 4689 N 459.311 6.99938 0.550571 0
M  V30 4690 H 464.151 2.80187 -1.01484 0
M  V30 4691 H 461.688 1.37902 -0.511997 0
M  V30 4692 H 463.646 4.0101 1.15094 0
M  V30 4693 H 462.276 2.9003 1.41713 0
M  V30 4694 H 461.328 3.70426 -0.865381 0
M  V30 4695 H 462.64 4.90243 -0.919985 0
M  V30 4696 H 461.794 5.94906 1.19045 0
M  V30 4697 H 460.533 4.69176 1.33137 0
M  V30 4698 H 459.538 5.43166 -0.851507 0
M  V30 4699 H 460.763 6.72022 -0.9779 0
M  V30 4700 H 458.709 6.44008 1.24856 0
M  V30 4701 H 458.626 7.55966 -0.071832 0
M  V30 4702 H 459.894 7.71599 1.10702 0
M  V30 4703 N 464.123 0.554532 1.47522 0
M  V30 4704 C 465.056 -0.242442 2.26908 0
M  V30 4705 C 466.034 -0.922722 1.33883 0
M  V30 4706 O 467.218 -0.942244 1.63261 0
M  V30 4707 C 464.345 -1.34525 3.10839 0
M  V30 4708 C 463.391 -0.773805 4.19422 0
M  V30 4709 S 464.224 0.377525 5.34168 0
M  V30 4710 C 465.38 -0.727164 6.21662 0
M  V30 4711 H 465.613 0.431218 2.94156 0
M  V30 4712 H 463.146 0.3408 1.50592 0
M  V30 4713 H 465.104 -1.97683 3.59766 0
M  V30 4714 H 463.765 -1.99073 2.42958 0
M  V30 4715 H 462.958 -1.60187 4.77866 0
M  V30 4716 H 462.56 -0.218448 3.73361 0
M  V30 4717 H 464.852 -1.61992 6.57849 0
M  V30 4718 H 465.795 -0.180135 7.07871 0
M  V30 4719 H 466.203 -1.01863 5.55233 0
M  V30 4720 N 465.601 -1.54893 0.290851 0
M  V30 4721 C 466.878 -1.91991 -0.373989 0
M  V30 4722 C 467.258 -1.21694 -1.72493 0
M  V30 4723 O 466.606 -0.34917 -2.25816 0
M  V30 4724 C 466.816 -3.45419 -0.498703 0
M  V30 4725 C 468.164 -4.1748 -0.774298 0
M  V30 4726 O 469.188 -3.51398 -0.582908 0
M  V30 4727 O 468.047 -5.3445 -1.14129 0
M  V30 4728 H 465.141 -0.800593 -0.207315 0
M  V30 4729 H 467.687 -1.66297 0.338164 0
M  V30 4730 H 466.459 -3.88688 0.451392 0
M  V30 4731 H 466.082 -3.77117 -1.25972 0
M  V30 4732 N 467.08 -0.0183926 -1.57589 0
M  V30 4733 C 468.01 0.965596 -2.12599 0
M  V30 4734 C 468.991 1.34641 -1.0395 0
M  V30 4735 O 470.176 1.42693 -1.31729 0
M  V30 4736 C 467.306 2.25149 -2.64434 0
M  V30 4737 C 466.26 2.01175 -3.77773 0
M  V30 4738 C 465.586 3.35937 -4.15994 0
M  V30 4739 C 466.886 1.35953 -5.04296 0
M  V30 4740 H 468.58 0.507504 -2.95067 0
M  V30 4741 H 466.126 0.242671 -1.41941 0
M  V30 4742 H 468.079 2.94357 -3.01549 0
M  V30 4743 H 466.803 2.73105 -1.79112 0
M  V30 4744 H 465.462 1.34388 -3.4108 0
M  V30 4745 H 465.11 3.81631 -3.27669 0
M  V30 4746 H 464.81 3.20705 -4.92364 0
M  V30 4747 H 466.334 4.0643 -4.55683 0
M  V30 4748 H 467.748 1.95144 -5.39065 0
M  V30 4749 H 466.145 1.31152 -5.85593 0
M  V30 4750 H 467.215 0.331071 -4.83768 0
M  V30 4751 N 468.558 1.5553 0.254621 0
M  V30 4752 C 469.468 1.92789 1.33677 0
M  V30 4753 C 470.484 0.827356 1.53071 0
M  V30 4754 O 471.66 1.12807 1.66843 0
M  V30 4755 C 468.725 2.20827 2.67275 0
M  V30 4756 C 467.786 3.4427 2.5647 0
M  V30 4757 C 467.019 3.70961 3.83697 0
M  V30 4758 O 467.242 2.99852 4.85227 0
M  V30 4759 O 466.176 4.64491 3.82794 0
M  V30 4760 H 470.002 2.84945 1.05071 0
M  V30 4761 H 467.587 1.42312 0.454723 0
M  V30 4762 H 469.469 2.40204 3.46237 0
M  V30 4763 H 468.144 1.31851 2.9563 0
M  V30 4764 H 467.051 3.30209 1.75821 0
M  V30 4765 H 468.384 4.33524 2.33062 0
M  V30 4766 N 470.036 -0.519951 1.48776 0
M  V30 4767 C 470.946 -1.65025 1.66745 0
M  V30 4768 C 471.962 -1.6508 0.549954 0
M  V30 4769 O 473.138 -1.83848 0.822295 0
M  V30 4770 C 470.203 -3.0146 1.71238 0
M  V30 4771 C 469.264 -3.12182 2.94688 0
M  V30 4772 C 468.497 -4.42109 2.98958 0
M  V30 4773 O 468.72 -5.29799 2.1135 0
M  V30 4774 O 467.654 -4.57406 3.91233 0
M  V30 4775 H 471.48 -1.52801 2.62461 0
M  V30 4776 H 469.065 -0.694157 1.32294 0
M  V30 4777 H 470.947 -3.82584 1.76657 0
M  V30 4778 H 469.622 -3.13988 0.786975 0
M  V30 4779 H 468.529 -2.30316 2.94797 0
M  V30 4780 H 469.862 -3.04574 3.86646 0
M  V30 4781 N 471.514 -1.37532 -0.769588 0
M  V30 4782 C 472.93 -1.18379 -1.07045 0
M  V30 4783 C 473.13 -0.0214312 -2.01489 0
M  V30 4784 O 472.186 0.637809 -2.44312 0
M  V30 4785 C 473.499 -2.50338 -1.66588 0
M  V30 4786 C 475.047 -2.56879 -1.78835 0
M  V30 4787 C 475.522 -3.88974 -2.41792 0
M  V30 4788 N 477.013 -3.90428 -2.4924 0
M  V30 4789 C 477.748 -4.89388 -2.98809 0
M  V30 4790 N 477.244 -5.98745 -3.48535 0
M  V30 4791 N 479.037 -4.76791 -2.97703 0
M  V30 4792 H 471.188 -2.11921 -0.142541 0
M  V30 4793 H 473.451 -0.939608 -0.125863 0
M  V30 4794 H 473.157 -3.35767 -1.0466 0
M  V30 4795 H 473.031 -2.67583 -2.65856 0
M  V30 4796 H 475.418 -1.71856 -2.39895 0
M  V30 4797 H 475.499 -2.43516 -0.783166 0
M  V30 4798 H 475.143 -4.74412 -1.81371 0
M  V30 4799 H 475.073 -3.99641 -3.4292 0
M  V30 4800 H 477.564 -3.11433 -2.14052 0
M  V30 4801 H 477.877 -6.70205 -3.84767 0
M  V30 4802 H 476.222 -6.02387 -3.46634 0
M  V30 4803 H 479.413 -3.90478 -2.58157 0
M  V30 4804 H 479.586 -5.54069 -3.36024 0
M  V30 4805 N 472.992 0.995999 -1.22138 0
M  V30 4806 C 474.408 1.25917 -0.980667 0
M  V30 4807 C 474.608 1.98819 0.327604 0
M  V30 4808 O 473.664 2.29587 1.05101 0
M  V30 4809 C 474.977 2.07399 -2.17729 0
M  V30 4810 C 476.525 2.20594 -2.22052 0
M  V30 4811 C 477 3.05462 -3.41258 0
M  V30 4812 N 478.491 3.13049 -3.41401 0
M  V30 4813 C 479.226 3.78997 -4.30289 0
M  V30 4814 N 478.722 4.46899 -5.2939 0
M  V30 4815 N 480.515 3.75728 -4.18073 0
M  V30 4816 H 472.666 0.507158 -2.06256 0
M  V30 4817 H 474.929 0.28658 -0.903646 0
M  V30 4818 H 474.635 1.61191 -3.12586 0
M  V30 4819 H 474.509 3.08154 -2.17534 0
M  V30 4820 H 476.896 2.66017 -1.27745 0
M  V30 4821 H 476.977 1.1928 -2.26287 0
M  V30 4822 H 476.621 2.60739 -4.35864 0
M  V30 4823 H 476.551 4.06911 -3.34262 0
M  V30 4824 H 479.042 2.64721 -2.69688 0
M  V30 4825 H 479.355 4.94952 -5.935 0
M  V30 4826 H 477.7 4.45657 -5.33306 0
M  V30 4827 H 480.891 3.2184 -3.39907 0
M  V30 4828 H 481.064 4.26845 -4.87553 0
M  V30 4829 N 474.47 1.03057 1.19235 0
M  V30 4830 C 475.403 0.557384 2.21288 0
M  V30 4831 C 476.381 -0.402675 1.57535 0
M  V30 4832 O 477.565 -0.319376 1.85775 0
M  V30 4833 C 474.692 -0.187041 3.38183 0
M  V30 4834 C 473.738 0.72471 4.20298 0
M  V30 4835 S 474.571 2.20187 4.88137 0
M  V30 4836 C 475.727 1.46801 6.08441 0
M  V30 4837 H 475.96 1.42207 2.61083 0
M  V30 4838 H 473.493 0.840651 1.29508 0
M  V30 4839 H 475.451 -0.610405 4.05936 0
M  V30 4840 H 474.112 -1.02748 2.96819 0
M  V30 4841 H 473.305 0.149911 5.03777 0
M  V30 4842 H 472.907 1.08647 3.57871 0
M  V30 4843 H 475.199 0.755522 6.73274 0
M  V30 4844 H 476.142 2.27946 6.70407 0
M  V30 4845 H 476.55 0.964762 5.56195 0
M  V30 4846 N 475.948 -1.35272 0.808662 0
M  V30 4847 C 477.364 -1.51806 0.492653 0
M  V30 4848 C 477.564 -1.7574 -0.985778 0
M  V30 4849 O 476.62 -1.80003 -1.77074 0
M  V30 4850 C 477.933 -2.69202 1.33981 0
M  V30 4851 C 479.481 -2.8308 1.33547 0
M  V30 4852 C 479.956 -4.03502 2.16679 0
M  V30 4853 N 481.447 -4.10684 2.14227 0
M  V30 4854 C 482.182 -5.02984 2.75308 0
M  V30 4855 N 481.678 -6.00603 3.45323 0
M  V30 4856 N 483.471 -4.95746 2.64938 0
M  V30 4857 H 475.622 -1.17993 1.76611 0
M  V30 4858 H 477.885 -0.577476 0.751814 0
M  V30 4859 H 477.591 -2.581 2.38909 0
M  V30 4860 H 477.465 -3.63854 0.994491 0
M  V30 4861 H 479.852 -2.93631 0.294036 0
M  V30 4862 H 479.933 -1.89278 1.72068 0
M  V30 4863 H 479.577 -3.93711 3.20864 0
M  V30 4864 H 479.507 -4.96489 1.75517 0
M  V30 4865 H 481.998 -3.40802 1.63285 0
M  V30 4866 H 482.311 -6.67633 3.89212 0
M  V30 4867 H 480.656 -6.0077 3.49428 0
M  V30 4868 H 483.847 -4.18439 2.09825 0
M  V30 4869 H 484.02 -5.67487 3.12829 0
M  V30 4870 N 477.426 -0.562348 -1.47226 0
M  V30 4871 C 478.358 0.220011 -2.28142 0
M  V30 4872 C 479.371 0.874596 -1.37312 0
M  V30 4873 O 480.56 0.747583 -1.62091 0
M  V30 4874 C 477.66 1.32953 -3.11732 0
M  V30 4875 C 476.833 0.770759 -4.30556 0
M  V30 4876 C 475.892 1.76541 -4.95701 0
M  V30 4877 O 474.918 1.3095 -5.53932 0
M  V30 4878 N 476.12 3.09896 -4.90861 0
M  V30 4879 H 478.885 -0.474107 -2.95926 0
M  V30 4880 H 476.446 -0.398761 -1.56912 0
M  V30 4881 H 478.438 1.99378 -3.5218 0
M  V30 4882 H 477.008 1.92681 -2.46156 0
M  V30 4883 H 476.228 -0.0704056 -3.94137 0
M  V30 4884 H 477.516 0.376872 -5.07402 0
M  V30 4885 H 476.914 3.49577 -4.44761 0
M  V30 4886 H 475.471 3.71865 -5.35313 0
M  V30 4887 N 478.904 1.54736 -0.299062 0
M  V30 4888 C 480.153 1.99279 0.311549 0
M  V30 4889 C 480.466 1.19107 1.55154 0
M  V30 4890 O 481.672 1.53908 2.23662 0
M  V30 4891 C 480.128 3.54768 0.605632 0
M  V30 4892 C 479.736 4.43746 -0.615914 0
M  V30 4893 C 481.48 4.07841 1.17754 0
M  V30 4894 C 479.387 5.90663 -0.29509 0
M  V30 4895 H 478.317 0.744359 0.120187 0
M  V30 4896 H 480.968 1.78919 -0.407464 0
M  V30 4897 H 479.35 3.71021 1.38419 0
M  V30 4898 H 480.524 4.39267 -1.39218 0
M  V30 4899 H 478.839 4.01434 -1.10633 0
M  V30 4900 H 481.436 5.15174 1.43179 0
M  V30 4901 H 481.779 3.58324 2.11918 0
M  V30 4902 H 482.312 3.95123 0.460739 0
M  V30 4903 H 479.051 6.44325 -1.20524 0
M  V30 4904 H 478.571 5.98155 0.44394 0
M  V30 4905 H 480.25 6.46916 0.104048 0
M  V30 4906 N 480.382 0.0267497 1.57577 0
M  V30 4907 C 481.33 -0.973923 2.11229 0
M  V30 4908 C 482.324 -1.33849 1.03831 0
M  V30 4909 O 483.53 -1.321 1.22269 0
M  V30 4910 H 479.905 -0.331844 0.674821 0
M  V30 4911 H 481.876 -0.496092 2.94247 0
M  V30 4912 C 480.625 -2.24798 2.65257 0
M  V30 4913 H 479.948 -1.9762 3.47543 0
M  V30 4914 H 481.388 -2.93031 3.06445 0
M  V30 4915 C 479.847 -2.97611 1.57891 0
M  V30 4916 O 480.377 -3.89629 0.97735 0
M  V30 4917 N 478.583 -2.59905 1.29992 0
M  V30 4918 H 478.13 -1.85154 1.79097 0
M  V30 4919 H 478.088 -3.08932 0.583798 0
M  V30 4920 N 481.861 -1.55662 -0.24637 0
M  V30 4921 C 482.771 -1.93495 -1.32653 0
M  V30 4922 C 483.787 -0.835462 -1.5263 0
M  V30 4923 O 484.963 -1.1369 -1.66242 0
M  V30 4924 C 482.028 -2.22242 -2.66101 0
M  V30 4925 C 481.089 -3.45625 -2.54641 0
M  V30 4926 C 480.322 -3.72991 -3.81724 0
M  V30 4927 O 480.545 -3.02421 -4.8363 0
M  V30 4928 O 479.479 -4.66515 -3.80325 0
M  V30 4929 H 483.305 -2.85498 -1.03559 0
M  V30 4930 H 480.89 -1.42551 -0.44717 0
M  V30 4931 H 482.772 -2.42037 -3.44958 0
M  V30 4932 H 481.447 -1.33417 -2.94926 0
M  V30 4933 H 480.354 -3.31136 -1.74067 0
M  V30 4934 H 481.687 -4.34754 -2.3076 0
M  V30 4935 N 483.339 0.512053 -1.4905 0
M  V30 4936 C 484.585 1.26874 -1.58212 0
M  V30 4937 C 484.918 1.9241 -0.263073 0
M  V30 4938 O 484.193 1.80181 0.732476 0
M  V30 4939 C 484.476 2.34428 -2.73341 0
M  V30 4940 C 484.329 1.73466 -4.15006 0
M  V30 4941 C 485.648 3.36073 -2.84154 0
M  V30 4942 H 482.767 0.459924 -0.575881 0
M  V30 4943 H 485.409 0.568587 -1.81293 0
M  V30 4944 H 483.559 2.94146 -2.53792 0
M  V30 4945 H 485.231 1.17661 -4.46042 0
M  V30 4946 H 483.474 1.03921 -4.21168 0
M  V30 4947 H 484.145 2.51426 -4.91415 0
M  V30 4948 H 486.621 2.86332 -3.01916 0
M  V30 4949 H 485.497 4.08703 -3.66406 0
M  V30 4950 H 485.758 3.97725 -1.93048 0
M  V30 4951 N 484.817 1.37938 0.762283 0
M  V30 4952 C 485.75 1.2884 1.88349 0
M  V30 4953 C 486.728 0.167084 1.61739 0
M  V30 4954 O 487.912 0.34292 1.85355 0
M  V30 4955 C 485.039 0.994257 3.23778 0
M  V30 4956 C 484.085 2.13376 3.69287 0
M  V30 4957 S 484.918 3.75439 3.81845 0
M  V30 4958 C 486.074 3.48195 5.20107 0
M  V30 4959 H 486.307 2.23736 1.95779 0
M  V30 4960 H 483.84 1.23672 0.924368 0
M  V30 4961 H 485.798 0.83138 4.01993 0
M  V30 4962 H 484.459 0.0626251 3.14038 0
M  V30 4963 H 483.652 1.88319 4.67495 0
M  V30 4964 H 483.254 2.25726 2.98201 0
M  V30 4965 H 485.546 3.0377 6.05583 0
M  V30 4966 H 486.489 4.45765 5.50181 0
M  V30 4967 H 486.897 2.82905 4.88493 0
M  V30 4968 N 486.295 -0.989507 1.22664 0
M  V30 4969 C 487.711 -1.25395 0.987331 0
M  V30 4970 C 487.911 -1.9899 -0.317056 0
M  V30 4971 O 486.967 -2.30141 -1.03882 0
M  V30 4972 C 488.28 -2.06242 2.18826 0
M  V30 4973 C 489.828 -2.19413 2.23219 0
M  V30 4974 C 490.303 -3.03648 3.42873 0
M  V30 4975 N 491.794 -3.11234 3.43056 0
M  V30 4976 C 492.529 -3.7671 4.32293 0
M  V30 4977 N 492.025 -4.44085 5.31752 0
M  V30 4978 N 493.818 -3.73505 4.2006 0
M  V30 4979 H 485.969 -0.496212 2.06522 0
M  V30 4980 H 488.232 -0.281784 0.905153 0
M  V30 4981 H 487.938 -1.59531 3.13437 0
M  V30 4982 H 487.812 -3.06996 2.19165 0
M  V30 4983 H 490.199 -2.65336 1.29154 0
M  V30 4984 H 490.28 -1.18078 2.26917 0
M  V30 4985 H 489.924 -2.58424 4.37241 0
M  V30 4986 H 489.854 -4.05132 3.36416 0
M  V30 4987 H 492.345 -2.63287 2.71088 0
M  V30 4988 H 492.658 -4.91797 5.96117 0
M  V30 4989 H 491.003 -4.42822 5.35662 0
M  V30 4990 H 494.194 -3.20033 3.41609 0
M  V30 4991 H 494.367 -4.24253 4.8981 0
M  V30 4992 N 487.773 -1.03688 -1.18687 0
M  V30 4993 C 488.683 -0.634908 -2.25845 0
M  V30 4994 C 489.699 0.337065 -1.70704 0
M  V30 4995 O 490.875 0.192943 -2.00474 0
M  V30 4996 C 487.94 -0.000180054 -3.467 0
M  V30 4997 C 487.001 -1.02067 -4.1699 0
M  V30 4998 C 486.234 -0.41614 -5.32075 0
M  V30 4999 O 486.457 0.778712 -5.65059 0
M  V30 5000 O 485.391 -1.14296 -5.90948 0
M  V30 5001 H 489.217 -1.52757 -2.62486 0
M  V30 5002 H 486.802 -0.807533 -1.25695 0
M  V30 5003 H 488.684 0.353342 -4.19916 0
M  V30 5004 H 487.359 0.866367 -3.11891 0
M  V30 5005 H 486.266 -1.42592 -3.45859 0
M  V30 5006 H 487.599 -1.85786 -4.5579 0
M  V30 5007 N 489.251 1.34841 -0.815825 0
M  V30 5008 C 490.497 1.99219 -0.410288 0
M  V30 5009 C 490.852 1.63532 1.01366 0
M  V30 5010 O 490.145 0.893093 1.69512 0
M  V30 5011 C 490.339 3.53273 -0.541541 0
M  V30 5012 C 490.168 4.03927 -1.9767 0
M  V30 5013 C 488.938 4.32852 -2.60706 0
M  V30 5014 C 491.136 4.21808 -2.9425 0
M  V30 5015 N 489.118 4.69494 -3.95536 0
M  V30 5016 C 490.489 4.6155 -4.13971 0
M  V30 5017 C 492.544 4.04038 -2.9096 0
M  V30 5018 C 491.247 4.85381 -5.30847 0
M  V30 5019 C 493.273 4.29031 -4.07046 0
M  V30 5020 C 492.635 4.69054 -5.25517 0
M  V30 5021 H 488.734 0.756494 -0.198094 0
M  V30 5022 H 491.318 1.63379 -1.05902 0
M  V30 5023 H 489.489 3.88323 0.0772544 0
M  V30 5024 H 491.221 4.04551 -0.109694 0
M  V30 5025 H 487.976 4.23503 -2.11995 0
M  V30 5026 H 488.4 4.92061 -4.64979 0
M  V30 5027 H 493.042 3.7223 -2.00512 0
M  V30 5028 H 490.76 5.16059 -6.21859 0
M  V30 5029 H 494.346 4.16826 -4.05891 0
M  V30 5030 H 493.226 4.88014 -6.1385 0
M  V30 5031 N 490.729 0.570148 1.46925 0
M  V30 5032 C 491.692 -0.159933 2.28641 0
M  V30 5033 C 492.692 -0.830638 1.37685 0
M  V30 5034 O 493.882 -0.684516 1.60187 0
M  V30 5035 C 491.014 -1.2354 3.17727 0
M  V30 5036 H 492.207 0.558035 2.94662 0
M  V30 5037 H 489.76 0.327603 1.52828 0
M  V30 5038 H 490.495 -1.98535 2.56426 0
M  V30 5039 H 490.28 -0.759125 3.84681 0
M  V30 5040 H 491.77 -1.74782 3.79264 0
M  V30 5041 N 492.207 -1.54576 0.307264 0
M  V30 5042 C 493.14 -2.19946 -0.608195 0
M  V30 5043 C 494.118 -1.17096 -1.12815 0
M  V30 5044 O 495.302 -1.45766 -1.19518 0
M  V30 5045 C 492.429 -2.84826 -1.8328 0
M  V30 5046 C 491.475 -4.01256 -1.44554 0
M  V30 5047 S 492.308 -5.33197 -0.49612 0
M  V30 5048 C 493.464 -6.01563 -1.72838 0
M  V30 5049 H 493.697 -2.97253 -0.0528544 0
M  V30 5050 H 491.23 -1.54129 0.0913837 0
M  V30 5051 H 493.188 -3.22832 -2.53554 0
M  V30 5052 H 491.849 -2.07353 -2.35931 0
M  V30 5053 H 491.042 -4.45457 -2.35762 0
M  V30 5054 H 490.644 -3.6484 -0.822671 0
M  V30 5055 H 492.936 -6.22751 -2.6681 0
M  V30 5056 H 493.879 -6.9552 -1.32882 0
M  V30 5057 H 494.287 -5.31279 -1.90795 0
M  V30 5058 N 493.685 -0.035106 -1.57561 0
M  V30 5059 C 494.648 0.929819 -2.09492 0
M  V30 5060 C 495.648 1.25026 -1.01119 0
M  V30 5061 O 496.838 1.18961 -1.27255 0
M  V30 5062 C 493.97 2.24457 -2.56577 0
M  V30 5063 H 495.163 0.479935 -2.96035 0
M  V30 5064 H 492.716 0.213033 -1.54841 0
M  V30 5065 H 493.451 2.74061 -1.73382 0
M  V30 5066 H 493.236 2.02508 -3.35757 0
M  V30 5067 H 494.726 2.93607 -2.96959 0
M  V30 5068 N 495.163 1.55791 0.238111 0
M  V30 5069 C 496.44 1.68798 0.98826 0
M  V30 5070 C 496.82 0.577562 2.03045 0
M  V30 5071 O 496.168 -0.41778 2.24648 0
M  V30 5072 C 496.378 3.09454 1.61367 0
M  V30 5073 C 497.726 3.68335 2.11221 0
M  V30 5074 O 498.75 3.1231 1.71292 0
M  V30 5075 O 497.609 4.6657 2.84561 0
M  V30 5076 H 494.703 0.686881 0.460568 0
M  V30 5077 H 497.249 1.68118 0.231202 0
M  V30 5078 H 496.021 3.81726 0.860295 0
M  V30 5079 H 495.644 3.14182 2.4367 0
M  V30 5080 N 496.642 -0.504142 1.49319 0
M  V30 5081 C 497.59 -1.62689 1.66238 0
M  V30 5082 C 498.584 -1.6095 0.528349 0
M  V30 5083 O 499.79 -1.65496 0.707887 0
M  V30 5084 H 496.165 -0.539247 0.524134 0
M  V30 5085 H 498.136 -1.45571 2.60484 0
M  V30 5086 C 496.885 -3.00841 1.74328 0
M  V30 5087 H 496.208 -3.02884 2.60963 0
M  V30 5088 H 497.648 -3.78945 1.90202 0
M  V30 5089 C 496.107 -3.33355 0.487416 0
M  V30 5090 O 496.637 -3.99819 -0.388294 0
M  V30 5091 N 494.843 -2.88469 0.351306 0
M  V30 5092 H 494.39 -2.34557 1.06492 0
M  V30 5093 H 494.348 -3.10591 -0.487899 0
M  V30 5094 N 498.12 -1.38341 -0.754957 0
M  V30 5095 C 499.052 -1.31347 -1.87831 0
M  V30 5096 C 500.065 -0.225955 -1.61224 0
M  V30 5097 O 501.254 -0.48341 -1.7183 0
M  V30 5098 C 498.354 -1.01201 -3.23437 0
M  V30 5099 C 497.527 -2.20834 -3.77559 0
M  V30 5100 C 496.586 -1.87454 -4.91678 0
M  V30 5101 O 495.612 -2.59934 -5.06382 0
M  V30 5102 N 496.814 -0.828682 -5.74555 0
M  V30 5103 H 499.579 -2.28147 -1.94342 0
M  V30 5104 H 497.14 -1.32184 -0.934828 0
M  V30 5105 H 499.132 -0.769249 -3.97322 0
M  V30 5106 H 497.702 -0.132011 -3.12321 0
M  V30 5107 H 496.922 -2.61184 -2.95256 0
M  V30 5108 H 498.21 -3.00678 -4.10451 0
M  V30 5109 H 497.608 -0.227591 -5.65242 0
M  V30 5110 H 496.165 -0.645802 -6.48593 0
M  V30 5111 N 499.598 0.982988 -1.23187 0
M  V30 5112 C 500.823 1.76455 -1.08988 0
M  V30 5113 C 501.248 1.84726 0.354691 0
M  V30 5114 O 500.606 1.30699 1.25649 0
M  V30 5115 C 500.654 3.17094 -1.71708 0
M  V30 5116 O 499.758 4.00648 -0.977477 0
M  V30 5117 H 499.099 0.542988 -0.382177 0
M  V30 5118 H 501.629 1.23413 -1.63188 0
M  V30 5119 H 501.639 3.67684 -1.76841 0
M  V30 5120 H 500.314 3.10389 -2.76823 0
M  V30 5121 H 498.891 3.59161 -1.0029 0
M  V30 5122 N 501.076 1.04316 1.18135 0
M  V30 5123 C 502.023 0.636398 2.21853 0
M  V30 5124 C 502.993 -0.357039 1.62217 0
M  V30 5125 O 504.178 -0.250453 1.89149 0
M  V30 5126 C 501.318 0.00812779 3.45099 0
M  V30 5127 C 500.431 1.04933 4.19062 0
M  V30 5128 C 499.566 0.389313 5.29771 0
M  V30 5129 C 498.605 1.41544 5.9551 0
M  V30 5130 N 497.742 0.78021 6.97751 0
M  V30 5131 H 502.582 1.52536 2.56002 0
M  V30 5132 H 500.119 0.76304 1.25762 0
M  V30 5133 H 502.077 -0.373497 4.15525 0
M  V30 5134 H 500.707 -0.844336 3.11562 0
M  V30 5135 H 499.759 1.54888 3.47439 0
M  V30 5136 H 501.071 1.82862 4.64072 0
M  V30 5137 H 500.225 -0.0463805 6.06682 0
M  V30 5138 H 498.964 -0.422038 4.8587 0
M  V30 5139 H 497.969 1.86124 5.17337 0
M  V30 5140 H 499.194 2.22854 6.41493 0
M  V30 5141 H 497.14 -0.0107899 6.55999 0
M  V30 5142 H 497.057 1.49716 7.41027 0
M  V30 5143 H 498.325 0.368996 7.78626 0
M  V30 5144 N 502.554 -1.34406 0.822964 0
M  V30 5145 C 503.502 -2.31428 0.233165 0
M  V30 5146 C 504.496 -1.57404 -0.626118 0
M  V30 5147 O 505.702 -1.72402 -0.517453 0
M  V30 5148 H 502.077 -0.749863 0.0566557 0
M  V30 5149 H 504.048 -2.78699 1.06628 0
M  V30 5150 C 502.797 -3.42653 -0.590264 0
M  V30 5151 H 502.12 -3.99753 0.0616129 0
M  V30 5152 H 503.56 -4.12778 -0.969054 0
M  V30 5153 C 502.019 -2.87112 -1.76262 0
M  V30 5154 O 502.549 -2.81995 -2.8608 0
M  V30 5155 N 500.755 -2.43934 -1.57938 0
M  V30 5156 H 500.302 -2.48296 -0.686078 0
M  V30 5157 H 500.26 -2.07123 -2.36532 0
M  V30 5158 N 504.032 -0.577932 -1.46621 0
M  V30 5159 C 504.962 0.145917 -2.33044 0
M  V30 5160 C 505.943 0.888412 -1.45056 0
M  V30 5161 O 507.128 0.864812 -1.73881 0
M  V30 5162 C 504.258 1.16322 -3.27241 0
M  V30 5163 C 503.212 0.535868 -4.24632 0
M  V30 5164 C 502.538 1.65929 -5.08303 0
M  V30 5165 C 503.838 -0.523861 -5.19666 0
M  V30 5166 H 505.532 -0.575636 -2.93814 0
M  V30 5167 H 503.078 -0.278272 -1.41286 0
M  V30 5168 H 505.031 1.67793 -3.86553 0
M  V30 5169 H 503.755 1.91498 -2.64567 0
M  V30 5170 H 502.414 0.0422759 -3.66576 0
M  V30 5171 H 502.062 2.40061 -4.42018 0
M  V30 5172 H 501.762 1.2452 -5.74255 0
M  V30 5173 H 503.286 2.17686 -5.70478 0
M  V30 5174 H 504.7 -0.0944059 -5.73222 0
M  V30 5175 H 503.097 -0.858 -5.93935 0
M  V30 5176 H 504.167 -1.41197 -4.63887 0
M  V30 5177 N 505.51 1.54411 -0.315457 0
M  V30 5178 C 506.921 1.85885 0.174265 0
M  V30 5179 C 507.272 1.23723 1.52273 0
M  V30 5180 O 506.397 0.540246 2.09548 0
M  V30 5181 C 506.992 3.37257 0.322981 0
M  V30 5182 C 505.551 3.68711 0.756922 0
M  V30 5183 C 504.698 2.77013 -0.126195 0
M  V30 5184 H 507.649 1.49374 -0.536007 0
M  V30 5185 H 507.67 3.62539 1.15522 0
M  V30 5186 H 507.182 3.82471 -0.658602 0
M  V30 5187 H 505.283 3.29024 1.74854 0
M  V30 5188 H 505.396 4.75741 0.566291 0
M  V30 5189 H 503.76 2.51588 0.39692 0
M  V30 5190 H 504.543 3.25051 -1.1044 0
M  V30 5191 N 506.988 0.0434614 1.5754 0
M  V30 5192 C 507.935 -0.93356 2.11077 0
M  V30 5193 C 508.905 -1.31383 1.01626 0
M  V30 5194 O 510.09 -1.40465 1.29129 0
M  V30 5195 C 507.23 -2.20578 2.65404 0
M  V30 5196 C 506.343 -1.88068 3.88914 0
M  V30 5197 C 505.478 -3.09691 4.31584 0
M  V30 5198 C 504.517 -2.73067 5.47815 0
M  V30 5199 N 503.654 -3.87359 5.85574 0
M  V30 5200 H 508.494 -0.470118 2.94268 0
M  V30 5201 H 506.031 -0.220434 1.45439 0
M  V30 5202 H 507.989 -2.95011 2.94999 0
M  V30 5203 H 506.619 -2.64513 1.85021 0
M  V30 5204 H 505.671 -1.03816 3.6596 0
M  V30 5205 H 506.983 -1.57104 4.73413 0
M  V30 5206 H 506.137 -3.92431 4.62691 0
M  V30 5207 H 504.876 -3.43827 3.45882 0
M  V30 5208 H 503.881 -1.88742 5.16388 0
M  V30 5209 H 505.106 -2.40131 6.35227 0
M  V30 5210 H 503.052 -4.21311 5.02825 0
M  V30 5211 H 502.969 -3.60068 6.64746 0
M  V30 5212 H 504.237 -4.70761 6.21292 0
M  V30 5213 N 508.466 -1.55915 -0.229846 0
M  V30 5214 C 509.429 -1.90914 -1.26824 0
M  V30 5215 C 510.429 -0.786999 -1.40225 0
M  V30 5216 O 511.619 -1.05484 -1.38632 0
M  V30 5217 C 508.751 -2.15264 -2.64337 0
M  V30 5218 H 509.944 -2.8378 -0.969998 0
M  V30 5219 H 507.497 -1.49069 -0.4699 0
M  V30 5220 H 508.232 -1.24923 -2.99274 0
M  V30 5221 H 508.017 -2.97005 -2.55989 0
M  V30 5222 H 509.507 -2.43467 -3.39284 0
M  V30 5223 N 509.944 0.496216 -1.49584 0
M  V30 5224 C 511.221 1.25755 -1.49816 0
M  V30 5225 C 511.601 2.09859 -0.228572 0
M  V30 5226 O 510.949 2.14449 0.788908 0
M  V30 5227 C 511.159 2.11017 -2.7798 0
M  V30 5228 C 512.507 2.70047 -3.27658 0
M  V30 5229 O 513.531 2.21281 -2.79129 0
M  V30 5230 O 512.39 3.58834 -4.1219 0
M  V30 5231 H 509.484 0.569322 -0.599834 0
M  V30 5232 H 512.03 0.510094 -1.61852 0
M  V30 5233 H 510.802 1.48879 -3.61871 0
M  V30 5234 H 510.425 2.92947 -2.68827 0
M  V30 5235 N 511.423 1.38739 0.74761 0
M  V30 5236 C 512.839 1.20067 1.05148 0
M  V30 5237 C 513.039 0.0534835 2.01429 0
M  V30 5238 O 512.095 -0.59886 2.45296 0
M  V30 5239 C 513.408 2.52957 1.62584 0
M  V30 5240 C 514.956 2.59692 1.74726 0
M  V30 5241 C 515.431 3.92772 2.35573 0
M  V30 5242 N 516.922 3.94343 2.42997 0
M  V30 5243 C 517.657 4.9408 2.90985 0
M  V30 5244 N 517.153 6.04214 3.38965 0
M  V30 5245 N 518.946 4.81466 2.9008 0
M  V30 5246 H 511.097 2.12121 0.108808 0
M  V30 5247 H 513.36 0.941491 0.110899 0
M  V30 5248 H 513.066 3.37389 0.993051 0
M  V30 5249 H 512.94 2.71779 2.61565 0
M  V30 5250 H 515.327 1.75651 2.3713 0
M  V30 5251 H 515.408 2.44731 0.744326 0
M  V30 5252 H 515.052 4.77238 1.738 0
M  V30 5253 H 514.982 4.05046 3.36519 0
M  V30 5254 H 517.473 3.14799 2.0907 0
M  V30 5255 H 517.786 6.76241 3.74056 0
M  V30 5256 H 516.131 6.07825 3.37007 0
M  V30 5257 H 519.322 3.94535 2.51912 0
M  V30 5258 H 519.495 5.59344 3.27166 0
M  V30 5259 N 512.901 -0.976442 1.23707 0
M  V30 5260 C 513.833 -2.07212 0.979574 0
M  V30 5261 C 514.846 -1.6273 -0.0478528 0
M  V30 5262 O 516.035 -1.77506 0.18815 0
M  V30 5263 C 513.135 -3.35835 0.45479 0
M  V30 5264 C 512.308 -4.09268 1.54331 0
M  V30 5265 C 511.367 -5.16166 1.02271 0
M  V30 5266 O 510.393 -5.42827 1.71254 0
M  V30 5267 N 511.595 -5.80313 -0.147419 0
M  V30 5268 H 514.36 -2.29878 1.92292 0
M  V30 5269 H 511.921 -1.14343 1.14618 0
M  V30 5270 H 513.913 -4.04597 0.0914631 0
M  V30 5271 H 512.483 -3.10106 -0.394068 0
M  V30 5272 H 511.703 -3.34906 2.07923 0
M  V30 5273 H 512.991 -4.55095 2.27522 0
M  V30 5274 H 512.389 -5.61043 -0.724353 0
M  V30 5275 H 510.946 -6.50231 -0.451972 0
M  V30 5276 N 514.379 -1.04941 -1.1758 0
M  V30 5277 C 515.342 -0.652456 -2.19717 0
M  V30 5278 C 516.342 0.294745 -1.58076 0
M  V30 5279 O 517.532 0.0789579 -1.74021 0
M  V30 5280 C 514.664 0.0420712 -3.40874 0
M  V30 5281 H 515.857 -1.55642 -2.5635 0
M  V30 5282 H 513.41 -0.842995 -1.31618 0
M  V30 5283 H 514.145 0.95943 -3.09783 0
M  V30 5284 H 513.93 -0.638844 -3.86861 0
M  V30 5285 H 515.42 0.306 -4.16477 0
M  V30 5286 N 515.857 1.33968 -0.830081 0
M  V30 5287 C 516.787 2.31911 -0.271911 0
M  V30 5288 C 517.768 1.58571 0.61556 0
M  V30 5289 O 518.953 1.86514 0.540946 0
M  V30 5290 C 516.083 3.42737 0.561146 0
M  V30 5291 C 515.037 4.27383 -0.229789 0
M  V30 5292 C 514.363 5.29742 0.726463 0
M  V30 5293 C 515.663 5.02 -1.44197 0
M  V30 5294 H 517.357 2.78844 -1.09025 0
M  V30 5295 H 514.903 1.34061 -0.52571 0
M  V30 5296 H 516.856 4.10276 0.961867 0
M  V30 5297 H 515.58 2.94471 1.41261 0
M  V30 5298 H 514.239 3.61456 -0.611964 0
M  V30 5299 H 513.887 4.77736 1.57408 0
M  V30 5300 H 513.587 5.87255 0.20142 0
M  V30 5301 H 515.111 6.00149 1.12489 0
M  V30 5302 H 516.525 5.62355 -1.11488 0
M  V30 5303 H 514.922 5.69122 -1.90317 0
M  V30 5304 H 515.992 4.31281 -2.2164 0
M  V30 5305 N 517.335 0.585699 1.46312 0
M  V30 5306 C 518.283 -0.158577 2.32059 0
M  V30 5307 C 519.277 -0.881427 1.44662 0
M  V30 5308 O 520.483 -0.799476 1.61271 0
M  V30 5309 H 516.858 -0.0700066 0.748734 0
M  V30 5310 H 518.829 0.583383 2.92642 0
M  V30 5311 C 517.578 -1.15701 3.27885 0
M  V30 5312 H 516.901 -0.610215 3.95116 0
M  V30 5313 H 518.341 -1.64812 3.90657 0
M  V30 5314 C 516.8 -2.21951 2.53455 0
M  V30 5315 O 517.33 -3.29352 2.29978 0
M  V30 5316 N 515.536 -1.9664 2.13965 0
M  V30 5317 H 515.083 -1.09309 2.33258 0
M  V30 5318 H 515.041 -2.6794 1.64485 0
M  V30 5319 N 518.813 -1.54241 0.323641 0
M  V30 5320 C 519.723 -2.28033 -0.551205 0
M  V30 5321 C 520.739 -1.32388 -1.12913 0
M  V30 5322 O 521.915 -1.65403 -1.14908 0
M  V30 5323 C 518.98 -3.02382 -1.69606 0
M  V30 5324 C 518.041 -4.13612 -1.14993 0
M  V30 5325 C 517.274 -4.84407 -2.24022 0
M  V30 5326 O 517.497 -4.54716 -3.44368 0
M  V30 5327 O 516.431 -5.71312 -1.89436 0
M  V30 5328 H 520.257 -3.03662 0.048066 0
M  V30 5329 H 517.842 -1.49133 0.0893289 0
M  V30 5330 H 519.724 -3.48941 -2.36259 0
M  V30 5331 H 518.399 -2.29628 -2.28151 0
M  V30 5332 H 517.306 -3.71402 -0.448484 0
M  V30 5333 H 518.639 -4.8841 -0.609608 0
M  V30 5334 N 520.291 -0.0518155 -1.57515 0
M  V30 5335 C 521.241 0.932017 -2.0808 0
M  V30 5336 C 522.225 1.27141 -0.986098 0
M  V30 5337 O 523.417 1.25373 -1.24943 0
M  V30 5338 C 520.546 2.20665 -2.62986 0
M  V30 5339 C 519.632 1.89462 -3.79427 0
M  V30 5340 N 520.023 1.28621 -4.89173 0
M  V30 5341 C 518.321 2.19327 -3.88345 0
M  V30 5342 C 519.022 1.15062 -5.70207 0
M  V30 5343 N 517.998 1.65372 -5.17835 0
M  V30 5344 H 521.8 0.456964 -2.90326 0
M  V30 5345 H 519.314 0.152619 -1.61681 0
M  V30 5346 H 521.311 2.92044 -2.97516 0
M  V30 5347 H 519.971 2.68776 -1.8218 0
M  V30 5348 H 520.982 0.958341 -5.08956 0
M  V30 5349 H 517.659 2.69955 -3.18482 0
M  V30 5350 H 519.049 0.678243 -6.68468 0
M  V30 5351 N 521.769 1.56035 0.221574 0
M  V30 5352 C 523.016 1.79047 0.94597 0
M  V30 5353 C 523.344 0.62057 1.84334 0
M  V30 5354 O 522.599 -0.395053 1.91671 0
M  V30 5355 C 522.898 3.07813 1.8162 0
M  V30 5356 C 522.564 4.3797 1.07206 0
M  V30 5357 C 521.226 4.73334 0.866508 0
M  V30 5358 C 523.578 5.18326 0.546565 0
M  V30 5359 C 520.906 5.8657 0.123549 0
M  V30 5360 C 523.258 6.32335 -0.18305 0
M  V30 5361 C 521.922 6.66301 -0.399861 0
M  V30 5362 H 521.192 0.655178 0.346155 0
M  V30 5363 H 523.839 1.90299 0.214146 0
M  V30 5364 H 522.144 2.91682 2.61589 0
M  V30 5365 H 523.841 3.2282 2.37884 0
M  V30 5366 H 520.431 4.10202 1.24226 0
M  V30 5367 H 524.615 4.9144 0.692847 0
M  V30 5368 H 519.871 6.11376 -0.0546591 0
M  V30 5369 H 524.045 6.9383 -0.59775 0
M  V30 5370 H 521.672 7.53889 -0.977489 0
M  V30 5371 N 523.247 -0.488276 1.49845 0
M  V30 5372 C 524.179 -1.60539 1.63584 0
M  V30 5373 C 525.192 -1.5434 0.517972 0
M  V30 5374 O 526.381 -1.60041 0.790516 0
M  V30 5375 C 523.481 -2.99374 1.58835 0
M  V30 5376 C 522.654 -3.30624 2.86368 0
M  V30 5377 C 521.713 -4.4893 2.74496 0
M  V30 5378 O 520.739 -4.50085 3.48443 0
M  V30 5379 N 521.941 -5.49591 1.86894 0
M  V30 5380 H 524.706 -1.49176 2.59936 0
M  V30 5381 H 522.267 -0.67639 1.47094 0
M  V30 5382 H 524.259 -3.76459 1.48529 0
M  V30 5383 H 522.829 -3.04595 0.702892 0
M  V30 5384 H 522.049 -2.42314 3.1093 0
M  V30 5385 H 523.337 -3.48305 3.70892 0
M  V30 5386 H 522.735 -5.51467 1.26097 0
M  V30 5387 H 521.292 -6.25728 1.82503 0
M  V30 5388 N 524.725 -1.39134 -0.740242 0
M  V30 5389 C 525.95 -1.39518 -1.53459 0
M  V30 5390 C 526.375 0.00968883 -1.88098 0
M  V30 5391 O 525.733 0.995312 -1.51536 0
M  V30 5392 C 525.781 -2.26981 -2.802 0
M  V30 5393 O 524.885 -1.69609 -3.75908 0
M  V30 5394 H 524.226 -0.475328 -0.463637 0
M  V30 5395 H 526.756 -1.83064 -0.913717 0
M  V30 5396 H 526.766 -2.41309 -3.28989 0
M  V30 5397 H 525.441 -3.29081 -2.5432 0
M  V30 5398 H 524.018 -1.64495 -3.34658 0
M  V30 5399 N 526.204 0.969867 -1.24223 0
M  V30 5400 C 527.453 1.70687 -1.07466 0
M  V30 5401 C 527.766 1.91736 0.386861 0
M  V30 5402 O 528.972 2.62986 0.674581 0
M  V30 5403 C 527.428 3.07217 -1.87472 0
M  V30 5404 C 527.036 2.94018 -3.3802 0
M  V30 5405 C 528.78 3.84804 -1.79237 0
M  V30 5406 C 526.687 4.25844 -4.10379 0
M  V30 5407 H 525.617 0.640067 -0.398536 0
M  V30 5408 H 528.268 1.08092 -1.48285 0
M  V30 5409 H 526.65 3.70628 -1.39466 0
M  V30 5410 H 527.824 2.39632 -3.9359 0
M  V30 5411 H 526.139 2.29898 -3.47183 0
M  V30 5412 H 528.736 4.82417 -2.30603 0
M  V30 5413 H 529.079 4.09356 -0.757197 0
M  V30 5414 H 529.612 3.28115 -2.24912 0
M  V30 5415 H 526.351 4.06486 -5.14246 0
M  V30 5416 H 525.871 4.80054 -3.59594 0
M  V30 5417 H 527.55 4.94475 -4.17257 0
M  V30 5418 N 527.682 1.05563 1.17022 0
M  V30 5419 C 528.612 0.681026 2.23348 0
M  V30 5420 C 529.593 -0.322983 1.67005 0
M  V30 5421 O 530.778 -0.199746 1.9317 0
M  V30 5422 C 527.908 0.0589053 3.4725 0
M  V30 5423 C 526.862 0.988082 4.16438 0
M  V30 5424 C 526.188 0.229646 5.34207 0
M  V30 5425 C 527.488 2.31388 4.68249 0
M  V30 5426 H 529.182 1.56993 2.54938 0
M  V30 5427 H 526.728 0.756302 1.2254 0
M  V30 5428 H 528.681 -0.214982 4.20851 0
M  V30 5429 H 527.405 -0.864968 3.14938 0
M  V30 5430 H 526.064 1.24659 3.44754 0
M  V30 5431 H 525.712 -0.697111 4.98146 0
M  V30 5432 H 525.412 0.848815 5.81437 0
M  V30 5433 H 526.936 -0.0368694 6.10589 0
M  V30 5434 H 528.35 2.09964 5.33468 0
M  V30 5435 H 526.747 2.88736 5.26072 0
M  V30 5436 H 527.817 2.94982 3.84855 0
M  V30 5437 N 529.16 -1.33526 0.837174 0
M  V30 5438 C 530.092 -2.28077 0.226579 0
M  V30 5439 C 531.105 -1.51666 -0.591717 0
M  V30 5440 O 532.294 -1.73511 -0.419064 0
M  V30 5441 C 529.394 -3.31597 -0.69978 0
M  V30 5442 C 528.567 -4.37329 0.0788067 0
M  V30 5443 C 527.626 -5.20526 -0.770637 0
M  V30 5444 O 526.652 -5.68811 -0.210453 0
M  V30 5445 N 527.854 -5.41639 -2.08825 0
M  V30 5446 H 530.619 -2.81115 1.03897 0
M  V30 5447 H 528.18 -1.46201 0.695476 0
M  V30 5448 H 530.172 -3.84158 -1.27298 0
M  V30 5449 H 528.742 -2.78848 -1.41288 0
M  V30 5450 H 527.962 -3.8529 0.833381 0
M  V30 5451 H 529.25 -5.05079 0.614238 0
M  V30 5452 H 528.648 -5.04108 -2.56693 0
M  V30 5453 H 527.205 -5.97263 -2.60998 0
M  V30 5454 N 530.638 -0.59345 -1.46 0
M  V30 5455 C 531.866 -0.0890934 -2.06708 0
M  V30 5456 C 532.281 1.2205 -1.44046 0
M  V30 5457 O 531.638 1.74029 -0.549551 0
M  V30 5458 C 531.689 0.0720263 -3.61428 0
M  V30 5459 O 531.41 -1.18574 -4.21748 0
M  V30 5460 C 532.911 0.609487 -4.3909 0
M  V30 5461 H 530.131 -0.0623628 -0.668096 0
M  V30 5462 H 532.675 -0.817171 -1.87464 0
M  V30 5463 H 530.83 0.750369 -3.80063 0
M  V30 5464 H 531.244 -1.0064 -5.14754 0
M  V30 5465 H 532.718 0.671363 -5.47902 0
M  V30 5466 H 533.195 1.62878 -4.07882 0
M  V30 5467 H 533.801 -0.03434 -4.25286 0
M  V30 5468 N 532.116 1.54067 -0.331816 0
M  V30 5469 C 533.046 2.27569 0.522932 0
M  V30 5470 C 534.027 1.28679 1.11247 0
M  V30 5471 O 535.212 1.57504 1.13605 0
M  V30 5472 C 532.342 3.0397 1.67987 0
M  V30 5473 C 531.296 4.10267 1.21924 0
M  V30 5474 C 530.622 4.74555 2.46377 0
M  V30 5475 C 531.922 5.21268 0.32815 0
M  V30 5476 H 533.616 2.99264 -0.0901977 0
M  V30 5477 H 531.162 1.4393 -0.044821 0
M  V30 5478 H 533.115 3.54123 2.28418 0
M  V30 5479 H 531.839 2.29906 2.31971 0
M  V30 5480 H 530.498 3.61009 0.637809 0
M  V30 5481 H 530.146 3.97098 3.08743 0
M  V30 5482 H 529.846 5.46363 2.16243 0
M  V30 5483 H 531.37 5.27487 3.07555 0
M  V30 5484 H 532.784 5.67128 0.838978 0
M  V30 5485 H 531.181 5.99982 0.119228 0
M  V30 5486 H 532.251 4.80673 -0.638839 0
M  V30 5487 N 533.594 0.0601682 1.57485 0
M  V30 5488 C 534.504 -0.926121 2.15546 0
M  V30 5489 C 535.52 -1.33532 1.11558 0
M  V30 5490 O 536.696 -1.4104 1.4377 0
M  V30 5491 C 533.761 -2.17952 2.69625 0
M  V30 5492 C 532.822 -1.82783 3.88444 0
M  V30 5493 C 532.055 -3.02148 4.39935 0
M  V30 5494 O 532.278 -4.15803 3.90466 0
M  V30 5495 O 531.212 -2.82639 5.31412 0
M  V30 5496 H 535.038 -0.462289 3.00161 0
M  V30 5497 H 532.623 -0.162246 1.48516 0
M  V30 5498 H 534.505 -2.91474 3.04337 0
M  V30 5499 H 533.18 -2.63456 1.88077 0
M  V30 5500 H 532.087 -1.06549 3.58606 0
M  V30 5501 H 533.42 -1.42072 4.7125 0
M  V30 5502 N 535.072 -1.5615 -0.213296 0
M  V30 5503 C 535.982 -1.96265 -1.28519 0
M  V30 5504 C 536.998 -0.86765 -1.50824 0
M  V30 5505 O 538.174 -1.17191 -1.63793 0
M  V30 5506 C 535.239 -2.27836 -2.61327 0
M  V30 5507 C 534.3 -3.50949 -2.47252 0
M  V30 5508 C 533.533 -3.81004 -3.73727 0
M  V30 5509 O 533.756 -3.12612 -4.77106 0
M  V30 5510 O 532.69 -4.74477 -3.70344 0
M  V30 5511 H 536.516 -2.87631 -0.974795 0
M  V30 5512 H 534.101 -1.43467 -0.416832 0
M  V30 5513 H 535.983 -2.49299 -3.39747 0
M  V30 5514 H 534.658 -1.39643 -2.9203 0
M  V30 5515 H 533.565 -3.34754 -1.67004 0
M  V30 5516 H 534.898 -4.39551 -2.21486 0
M  V30 5517 N 536.55 0.480323 -1.50102 0
M  V30 5518 C 537.482 1.59669 -1.64433 0
M  V30 5519 C 538.495 1.54063 -0.52615 0
M  V30 5520 O 539.684 1.59619 -0.798992 0
M  V30 5521 C 536.784 2.98527 -1.6042 0
M  V30 5522 C 535.957 3.291 -2.88117 0
M  V30 5523 C 535.016 4.47468 -2.76873 0
M  V30 5524 O 534.042 4.4823 -3.50825 0
M  V30 5525 N 535.244 5.48593 -1.89806 0
M  V30 5526 H 538.009 1.47795 -2.60723 0
M  V30 5527 H 535.57 0.66858 -1.4745 0
M  V30 5528 H 537.562 3.75666 -1.50523 0
M  V30 5529 H 536.132 3.04218 -0.719036 0
M  V30 5530 H 535.352 2.40662 -3.12211 0
M  V30 5531 H 536.64 3.46334 -3.72734 0
M  V30 5532 H 536.038 5.50791 -1.2902 0
M  V30 5533 H 534.595 6.24752 -1.85819 0
M  V30 5534 N 538.028 1.39524 0.732853 0
M  V30 5535 C 539.274 1.37068 1.49467 0
M  V30 5536 C 539.607 -0.0327166 1.94172 0
M  V30 5537 O 538.882 -0.998071 1.66939 0
M  V30 5538 C 539.165 2.34494 2.73285 0
M  V30 5539 C 539.018 3.83784 2.34585 0
M  V30 5540 C 540.337 2.29717 3.75391 0
M  V30 5541 H 537.456 0.499206 0.542183 0
M  V30 5542 H 540.098 1.70532 0.837783 0
M  V30 5543 H 538.248 2.06087 3.29333 0
M  V30 5544 H 539.92 4.22949 1.84151 0
M  V30 5545 H 538.163 4.00455 1.66787 0
M  V30 5546 H 538.834 4.47444 3.23262 0
M  V30 5547 H 541.31 2.54839 3.28932 0
M  V30 5548 H 540.186 2.99962 4.59689 0
M  V30 5549 H 540.447 1.30291 4.22465 0
M  V30 5550 N 539.506 -0.963266 1.24736 0
M  V30 5551 C 540.731 -1.74699 1.11781 0
M  V30 5552 C 541.156 -1.85267 -0.325258 0
M  V30 5553 O 540.514 -1.32681 -1.23553 0
M  V30 5554 C 540.562 -3.14322 1.76731 0
M  V30 5555 O 539.666 -3.99043 1.04109 0
M  V30 5556 H 539.007 -0.53684 0.390767 0
M  V30 5557 H 541.537 -1.20801 1.65131 0
M  V30 5558 H 541.547 -3.64824 1.82668 0
M  V30 5559 H 540.222 -3.05946 2.81726 0
M  V30 5560 H 538.799 -3.5752 1.05991 0
M  V30 5561 N 540.985 -1.06182 -1.16461 0
M  V30 5562 C 542.233 -0.776326 -1.86595 0
M  V30 5563 C 542.554 0.69921 -1.82033 0
M  V30 5564 O 541.824 1.50579 -1.2531 0
M  V30 5565 H 540.404 -0.284184 -0.690832 0
M  V30 5566 H 543.066 -1.34308 -1.41235 0
M  V30 5567 H 542.162 -1.10022 -2.92064 0
M  V30 5568 N 542.463 1.3308 -0.844243 0
M  V30 5569 C 543.373 2.32876 -0.283922 0
M  V30 5570 C 544.389 1.63589 0.592846 0
M  V30 5571 O 545.565 1.95205 0.495693 0
M  V30 5572 C 542.63 3.42667 0.527283 0
M  V30 5573 C 541.691 4.27664 -0.374394 0
M  V30 5574 C 540.924 5.32212 0.39819 0
M  V30 5575 O 541.147 5.46635 1.62932 0
M  V30 5576 O 540.081 6.01458 -0.2306 0
M  V30 5577 H 543.907 2.82671 -1.11045 0
M  V30 5578 H 541.492 1.36518 -0.606903 0
M  V30 5579 H 543.374 4.09652 0.988078 0
M  V30 5580 H 542.049 2.95079 1.33078 0
M  V30 5581 H 540.956 3.63526 -0.883144 0
M  V30 5582 H 542.289 4.78749 -1.1428 0
M  V30 5583 N 543.941 0.601185 1.45683 0
M  V30 5584 C 545.357 0.264315 1.57396 0
M  V30 5585 C 545.557 -1.23324 1.59353 0
M  V30 5586 O 544.613 -2.01594 1.52039 0
M  V30 5587 C 545.926 0.929839 2.85962 0
M  V30 5588 C 547.474 0.905156 2.99626 0
M  V30 5589 C 547.949 1.55057 4.30954 0
M  V30 5590 N 549.44 1.51576 4.37697 0
M  V30 5591 C 550.175 1.98436 5.37969 0
M  V30 5592 N 549.671 2.53352 6.44813 0
M  V30 5593 N 551.464 1.89242 5.29286 0
M  V30 5594 H 543.615 1.57363 1.42656 0
M  V30 5595 H 545.878 0.658831 0.681649 0
M  V30 5596 H 545.584 1.98404 2.90394 0
M  V30 5597 H 545.458 0.449224 3.74515 0
M  V30 5598 H 547.845 -0.14048 2.94765 0
M  V30 5599 H 547.926 1.42397 2.12501 0
M  V30 5600 H 547.57 2.5955 4.36573 0
M  V30 5601 H 547.5 1.00682 5.16886 0
M  V30 5602 H 549.991 1.11452 3.61091 0
M  V30 5603 H 550.304 2.86918 7.17564 0
M  V30 5604 H 548.649 2.57388 6.45582 0
M  V30 5605 H 551.84 1.46083 4.44722 0
M  V30 5606 H 552.013 2.26075 6.07284 0
M  V30 5607 N 545.419 -1.53889 0.339982 0
M  V30 5608 C 546.351 -2.22435 -0.55275 0
M  V30 5609 C 547.364 -1.22975 -1.06681 0
M  V30 5610 O 548.553 -1.49351 -0.977575 0
M  V30 5611 C 545.653 -2.8882 -1.77302 0
M  V30 5612 C 544.826 -4.14563 -1.39486 0
M  V30 5613 C 543.885 -4.64391 -2.47442 0
M  V30 5614 O 542.911 -5.28687 -2.10899 0
M  V30 5615 N 544.113 -4.40015 -3.78639 0
M  V30 5616 H 546.878 -2.9968 0.0342669 0
M  V30 5617 H 544.439 -1.61068 0.16394 0
M  V30 5618 H 546.431 -3.19072 -2.48948 0
M  V30 5619 H 545.001 -2.15182 -2.26749 0
M  V30 5620 H 544.221 -3.90896 -0.509321 0
M  V30 5621 H 545.509 -4.96362 -1.11813 0
M  V30 5622 H 544.907 -3.88586 -4.11118 0
M  V30 5623 H 543.464 -4.74881 -4.46465 0
M  V30 5624 N 546.897 -0.0685191 -1.57451 0
M  V30 5625 C 548.313 0.288101 -1.56978 0
M  V30 5626 C 548.513 1.70262 -1.07765 0
M  V30 5627 O 547.569 2.4135 -0.742054 0
M  V30 5628 C 548.882 0.100745 -3.00531 0
M  V30 5629 C 550.43 0.170531 -3.12535 0
M  V30 5630 C 550.905 0.0114944 -4.57999 0
M  V30 5631 N 552.396 0.0672065 -4.63151 0
M  V30 5632 C 553.131 -0.0314813 -5.73391 0
M  V30 5633 N 552.627 -0.183503 -6.92557 0
M  V30 5634 N 554.42 0.0253489 -5.62094 0
M  V30 5635 H 546.571 -0.993026 -1.87757 0
M  V30 5636 H 548.834 -0.386981 -0.865419 0
M  V30 5637 H 548.54 -0.875197 -3.40636 0
M  V30 5638 H 548.414 0.854457 -3.67395 0
M  V30 5639 H 550.801 1.13696 -2.72318 0
M  V30 5640 H 550.882 -0.614229 -2.48316 0
M  V30 5641 H 550.526 -0.951684 -4.98904 0
M  V30 5642 H 550.456 0.815617 -5.20245 0
M  V30 5643 H 552.947 0.183246 -3.77455 0
M  V30 5644 H 553.26 -0.251041 -7.72392 0
M  V30 5645 H 551.605 -0.218822 -6.94655 0
M  V30 5646 H 554.796 0.142794 -4.67882 0
M  V30 5647 H 554.969 -0.0550166 -6.47977 0
M  V30 5648 N 548.375 1.56261 0.205012 0
M  V30 5649 C 549.305 1.96779 1.257 0
M  V30 5650 C 550.286 0.838309 1.48008 0
M  V30 5651 O 551.471 1.10189 1.59913 0
M  V30 5652 C 548.601 2.29876 2.60335 0
M  V30 5653 C 547.555 3.45469 2.52656 0
M  V30 5654 C 546.881 3.64215 3.91473 0
M  V30 5655 C 548.181 4.79954 2.06014 0
M  V30 5656 H 549.875 2.84904 0.920338 0
M  V30 5657 H 547.421 1.37072 0.441277 0
M  V30 5658 H 549.374 2.56814 3.34102 0
M  V30 5659 H 548.098 1.38622 2.95722 0
M  V30 5660 H 546.757 3.18605 1.81345 0
M  V30 5661 H 546.405 2.70309 4.24196 0
M  V30 5662 H 546.105 4.41973 3.87213 0
M  V30 5663 H 547.629 3.93519 4.66878 0
M  V30 5664 H 549.043 5.05989 2.69533 0
M  V30 5665 H 547.44 5.61111 2.12777 0
M  V30 5666 H 548.51 4.74201 1.01297 0
M  V30 5667 N 549.853 -0.472356 1.50355 0
M  V30 5668 C 551.099 -1.22634 1.6152 0
M  V30 5669 C 551.432 -1.91645 0.313995 0
M  V30 5670 O 550.707 -1.82059 -0.684446 0
M  V30 5671 C 550.99 -2.27099 2.7946 0
M  V30 5672 C 550.843 -1.62402 4.19459 0
M  V30 5673 C 552.162 -3.28421 2.92964 0
M  V30 5674 H 549.281 -0.444494 0.587873 0
M  V30 5675 H 551.923 -0.520321 1.82737 0
M  V30 5676 H 550.073 -2.87314 2.61501 0
M  V30 5677 H 551.745 -1.05793 4.49005 0
M  V30 5678 H 549.988 -0.927184 4.23776 0
M  V30 5679 H 550.659 -2.38309 4.97909 0
M  V30 5680 H 553.135 -2.78227 3.09401 0
M  V30 5681 H 552.011 -3.98845 3.77113 0
M  V30 5682 H 552.272 -3.92467 2.03525 0
M  V30 5683 N 551.331 -1.39911 -0.725443 0
M  V30 5684 C 552.241 -1.41688 -1.8698 0
M  V30 5685 C 553.257 -0.310579 -1.71206 0
M  V30 5686 O 554.433 -0.55359 -1.93642 0
M  V30 5687 C 551.498 -1.26811 -3.22676 0
M  V30 5688 C 550.559 -2.47497 -3.50776 0
M  V30 5689 C 549.792 -2.3332 -4.79997 0
M  V30 5690 O 550.015 -1.34175 -5.54394 0
M  V30 5691 O 548.949 -3.22498 -5.08211 0
M  V30 5692 H 552.775 -2.38171 -1.88436 0
M  V30 5693 H 550.36 -1.21128 -0.874548 0
M  V30 5694 H 552.242 -1.20684 -4.03749 0
M  V30 5695 H 550.917 -0.334289 -3.21969 0
M  V30 5696 H 549.824 -2.59201 -2.69751 0
M  V30 5697 H 551.157 -3.39606 -3.5627 0
M  V30 5698 N 552.809 0.956637 -1.25245 0
M  V30 5699 C 554.037 1.73571 -1.12608 0
M  V30 5700 C 554.452 1.86063 0.320324 0
M  V30 5701 O 553.809 1.35691 1.22042 0
M  V30 5702 C 553.86 3.15053 -1.77268 0
M  V30 5703 O 553.581 3.03174 -3.16255 0
M  V30 5704 C 555.082 4.09248 -1.70386 0
M  V30 5705 H 552.302 0.543955 -0.392879 0
M  V30 5706 H 554.846 1.20031 -1.65568 0
M  V30 5707 H 553.001 3.65543 -1.28284 0
M  V30 5708 H 553.415 3.9241 -3.48015 0
M  V30 5709 H 554.889 5.06138 -2.20291 0
M  V30 5710 H 555.366 4.34102 -0.667239 0
M  V30 5711 H 555.972 3.64672 -2.18849 0
M  V30 5712 N 554.287 1.06798 1.15896 0
M  V30 5713 C 555.237 0.653213 2.18443 0
M  V30 5714 C 556.221 -0.318763 1.57711 0
M  V30 5715 O 557.413 -0.133388 1.76497 0
M  V30 5716 C 554.542 0.0465785 3.43268 0
M  V30 5717 C 553.628 1.04336 4.11066 0
M  V30 5718 N 554.019 2.22084 4.54436 0
M  V30 5719 C 552.317 0.875433 4.37324 0
M  V30 5720 C 553.018 2.85276 5.06944 0
M  V30 5721 N 551.994 2.12973 5.00143 0
M  V30 5722 H 555.796 1.55011 2.49698 0
M  V30 5723 H 553.31 0.940384 1.32403 0
M  V30 5724 H 555.307 -0.26843 4.16035 0
M  V30 5725 H 553.967 -0.845504 3.13499 0
M  V30 5726 H 554.978 2.59833 4.48004 0
M  V30 5727 H 551.655 0.0357721 4.17485 0
M  V30 5728 H 553.045 3.85223 5.50503 0
M  V30 5729 N 555.766 -1.3263 0.851289 0
M  V30 5730 C 556.729 -2.27247 0.298541 0
M  V30 5731 C 557.729 -1.51467 -0.539847 0
M  V30 5732 O 558.919 -1.7061 -0.351843 0
M  V30 5733 C 556.051 -3.35964 -0.578004 0
M  V30 5734 H 557.244 -2.7765 1.13359 0
M  V30 5735 H 554.797 -1.43245 0.625354 0
M  V30 5736 H 555.532 -2.90823 -1.435 0
M  V30 5737 H 555.317 -3.92094 0.0220539 0
M  V30 5738 H 556.807 -4.06472 -0.957626 0
M  V30 5739 N 557.244 -0.608902 -1.45362 0
M  V30 5740 C 558.472 -0.111013 -2.06602 0
M  V30 5741 C 558.887 1.20516 -1.45332 0
M  V30 5742 O 558.244 1.73437 -0.567978 0
M  V30 5743 C 558.295 0.033688 -3.61484 0
M  V30 5744 O 558.016 -1.23041 -4.20467 0
M  V30 5745 C 559.517 0.562882 -4.39712 0
M  V30 5746 H 556.737 -0.0694453 -0.667397 0
M  V30 5747 H 559.281 -0.837008 -1.86586 0
M  V30 5748 H 557.436 0.710016 -3.80838 0
M  V30 5749 H 557.85 -1.06094 -5.13658 0
M  V30 5750 H 559.324 0.613213 -5.48583 0
M  V30 5751 H 559.801 1.58543 -4.09586 0
M  V30 5752 H 560.407 -0.0794454 -4.25226 0
M  V30 5753 N 558.722 1.53707 -0.348139 0
M  V30 5754 C 560.138 1.596 0.00361134 0
M  V30 5755 C 560.338 1.36394 1.4832 0
M  V30 5756 O 559.394 1.16046 2.24253 0
M  V30 5757 C 560.707 2.97512 -0.436682 0
M  V30 5758 C 562.255 3.10568 -0.389416 0
M  V30 5759 C 562.73 4.50866 -0.805249 0
M  V30 5760 N 564.221 4.56929 -0.759616 0
M  V30 5761 C 564.956 5.63643 -1.05327 0
M  V30 5762 N 564.452 6.78189 -1.41531 0
M  V30 5763 N 566.245 5.5354 -0.977207 0
M  V30 5764 H 558.396 1.67044 -1.31187 0
M  V30 5765 H 560.659 0.782559 -0.535075 0
M  V30 5766 H 560.365 3.19575 -1.46849 0
M  V30 5767 H 560.239 3.76742 0.185744 0
M  V30 5768 H 562.626 2.88226 0.633228 0
M  V30 5769 H 562.707 2.33387 -1.04711 0
M  V30 5770 H 562.351 4.73943 -1.82593 0
M  V30 5771 H 562.281 5.26452 -0.124989 0
M  V30 5772 H 564.772 3.74675 -0.49265 0
M  V30 5773 H 565.085 7.55541 -1.62411 0
M  V30 5774 H 563.43 6.79624 -1.45381 0
M  V30 5775 H 566.621 4.62932 -0.693675 0
M  V30 5776 H 566.794 6.36614 -1.2094 0
M  V30 5777 N 560.2 0.0768682 1.57412 0
M  V30 5778 C 561.446 -0.591961 1.93968 0
M  V30 5779 C 561.779 -1.68954 0.9575 0
M  V30 5780 O 561.054 -1.94496 -0.0124675 0
M  V30 5781 C 561.337 -1.16418 3.40762 0
M  V30 5782 C 561.19 -0.0728933 4.49741 0
M  V30 5783 C 562.509 -2.06814 3.88479 0
M  V30 5784 H 559.628 -0.213716 0.705333 0
M  V30 5785 H 562.27 0.14387 1.89455 0
M  V30 5786 H 560.42 -1.79128 3.4474 0
M  V30 5787 H 562.092 0.560446 4.57883 0
M  V30 5788 H 560.335 0.595859 4.29688 0
M  V30 5789 H 561.006 -0.513755 5.49604 0
M  V30 5790 H 563.482 -1.54033 3.8654 0
M  V30 5791 H 562.358 -2.43785 4.91793 0
M  V30 5792 H 562.619 -2.97844 3.26713 0
M  V30 5793 N 561.678 -1.56367 -0.196722 0
M  V30 5794 C 562.927 -1.79724 -0.915539 0
M  V30 5795 C 563.24 -0.649804 -1.84491 0
M  V30 5796 O 564.446 -0.767631 -2.60422 0
M  V30 5797 C 562.902 -3.18369 -1.67836 0
M  V30 5798 C 562.51 -4.4091 -0.793897 0
M  V30 5799 C 564.254 -3.51037 -2.38691 0
M  V30 5800 C 562.161 -5.70577 -1.55549 0
M  V30 5801 H 561.091 -0.67013 -0.345604 0
M  V30 5802 H 563.742 -1.82721 -0.168856 0
M  V30 5803 H 562.124 -3.09617 -2.46887 0
M  V30 5804 H 563.298 -4.60781 -0.042163 0
M  V30 5805 H 561.613 -4.15937 -0.19626 0
M  V30 5806 H 564.21 -4.4515 -2.96219 0
M  V30 5807 H 564.553 -2.74704 -3.12799 0
M  V30 5808 H 565.086 -3.61229 -1.66608 0
M  V30 5809 H 561.825 -6.49871 -0.857226 0
M  V30 5810 H 561.345 -5.54726 -2.2812 0
M  V30 5811 H 563.024 -6.11637 -2.10971 0
M  V30 5812 N 563.156 0.464375 -1.50603 0
M  V30 5813 C 564.119 1.54393 -1.69397 0
M  V30 5814 C 565.119 1.50566 -0.564504 0
M  V30 5815 O 566.309 1.53066 -0.831645 0
M  V30 5816 C 563.441 2.9401 -1.72543 0
M  V30 5817 H 564.634 1.39044 -2.65719 0
M  V30 5818 H 562.187 0.69122 -1.40185 0
M  V30 5819 H 562.922 3.14795 -0.77938 0
M  V30 5820 H 562.707 2.98195 -2.54602 0
M  V30 5821 H 564.197 3.72375 -1.89015 0
M  V30 5822 N 564.634 1.40294 0.718013 0
M  V30 5823 C 565.564 1.43118 1.84498 0
M  V30 5824 C 566.545 0.292403 1.67568 0
M  V30 5825 O 567.73 0.500675 1.87635 0
M  V30 5826 C 564.86 1.29065 3.22427 0
M  V30 5827 C 563.814 2.40521 3.54025 0
M  V30 5828 C 563.14 2.11546 4.91073 0
M  V30 5829 C 564.44 3.82859 3.55269 0
M  V30 5830 H 566.134 2.37432 1.82391 0
M  V30 5831 H 563.68 1.14283 0.87609 0
M  V30 5832 H 565.633 1.29658 4.00957 0
M  V30 5833 H 564.357 0.312271 3.25104 0
M  V30 5834 H 563.016 2.39173 2.77834 0
M  V30 5835 H 562.664 1.12104 4.90348 0
M  V30 5836 H 562.364 2.86216 5.1318 0
M  V30 5837 H 563.888 2.13817 5.71939 0
M  V30 5838 H 565.302 3.86044 4.23843 0
M  V30 5839 H 563.699 4.57029 3.88902 0
M  V30 5840 H 564.769 4.12617 2.54706 0
M  V30 5841 N 566.112 -0.949982 1.2575 0
M  V30 5842 C 567.361 -1.68956 1.10168 0
M  V30 5843 C 567.674 -1.92327 -0.356309 0
M  V30 5844 O 568.88 -2.64026 -0.632657 0
M  V30 5845 C 567.336 -3.04196 1.92336 0
M  V30 5846 C 566.944 -2.88603 3.42655 0
M  V30 5847 C 568.688 -3.81904 1.85336 0
M  V30 5848 C 566.595 -4.19262 4.17101 0
M  V30 5849 H 565.525 -0.633645 0.408668 0
M  V30 5850 H 568.176 -1.05719 1.49986 0
M  V30 5851 H 566.558 -3.68363 1.45344 0
M  V30 5852 H 567.732 -2.3334 3.97353 0
M  V30 5853 H 566.047 -2.24345 3.50796 0
M  V30 5854 H 568.644 -4.78688 2.38248 0
M  V30 5855 H 568.987 -4.08099 0.822226 0
M  V30 5856 H 569.52 -3.24495 2.30104 0
M  V30 5857 H 566.259 -3.98254 5.20648 0
M  V30 5858 H 565.779 -4.74273 3.67186 0
M  V30 5859 H 567.458 -4.87775 4.25071 0
M  V30 5860 N 567.59 -1.07411 -1.15328 0
M  V30 5861 C 568.538 -0.689316 -2.22151 0
M  V30 5862 C 569.532 0.300156 -1.6672 0
M  V30 5863 O 570.738 0.163804 -1.79253 0
M  V30 5864 H 567.113 -0.204834 -0.723566 0
M  V30 5865 H 569.084 -1.59988 -2.51886 0
M  V30 5866 C 567.833 -0.103848 -3.47545 0
M  V30 5867 H 567.156 -0.856367 -3.90521 0
M  V30 5868 H 568.596 0.127725 -4.23808 0
M  V30 5869 C 567.055 1.15563 -3.1646 0
M  V30 5870 O 567.585 2.242 -3.33312 0
M  V30 5871 N 565.791 1.06203 -2.70498 0
M  V30 5872 H 565.338 0.177933 -2.56985 0
M  V30 5873 H 565.296 1.90553 -2.50074 0
M  V30 5874 N 569.068 1.32177 -0.85831 0
M  V30 5875 C 570.345 1.91781 -0.384624 0
M  V30 5876 C 570.725 1.78171 1.13217 0
M  V30 5877 O 570.073 1.18209 1.95548 0
M  V30 5878 C 570.283 3.38414 -0.853047 0
M  V30 5879 C 571.631 4.15542 -0.872359 0
M  V30 5880 O 572.655 3.47148 -0.797926 0
M  V30 5881 O 571.514 5.37678 -0.978009 0
M  V30 5882 H 568.608 0.819259 -0.112886 0
M  V30 5883 H 571.154 1.40923 -0.945453 0
M  V30 5884 H 569.926 3.4228 -1.89632 0
M  V30 5885 H 569.549 3.96683 -0.269874 0
M  V30 5886 N 570.547 0.616602 1.45037 0
M  V30 5887 C 571.479 -0.135186 2.28801 0
M  V30 5888 C 572.492 -0.82303 1.40464 0
M  V30 5889 O 573.681 -0.686909 1.64754 0
M  V30 5890 C 570.781 -1.21292 3.16451 0
M  V30 5891 C 569.954 -0.61043 4.3312 0
M  V30 5892 C 569.013 -1.58022 5.01912 0
M  V30 5893 O 568.039 -1.10301 5.58411 0
M  V30 5894 N 569.241 -2.91464 5.02025 0
M  V30 5895 H 572.006 0.583612 2.93963 0
M  V30 5896 H 569.567 0.456723 1.55324 0
M  V30 5897 H 571.559 -1.86169 3.59337 0
M  V30 5898 H 570.129 -1.83412 2.53138 0
M  V30 5899 H 569.349 0.216638 3.93604 0
M  V30 5900 H 570.637 -0.188293 5.08451 0
M  V30 5901 H 570.035 -3.32829 4.57429 0
M  V30 5902 H 568.592 -3.51741 5.48745 0
M  V30 5903 N 572.025 -1.5352 0.356285 0
M  V30 5904 C 573.441 -1.59599 0.00485267 0
M  V30 5905 C 573.641 -1.37179 -1.47595 0
M  V30 5906 O 572.697 -1.17234 -2.23635 0
M  V30 5907 C 574.01 -2.97277 0.452454 0
M  V30 5908 C 575.558 -3.10357 0.405881 0
M  V30 5909 C 576.033 -4.50432 0.829148 0
M  V30 5910 N 577.524 -4.5652 0.783838 0
M  V30 5911 C 578.259 -5.63077 1.08315 0
M  V30 5912 N 577.755 -6.77429 1.45126 0
M  V30 5913 N 579.548 -5.53014 1.00655 0
M  V30 5914 H 571.699 -1.66346 1.32071 0
M  V30 5915 H 573.962 -0.77971 0.539218 0
M  V30 5916 H 573.668 -3.18792 1.48542 0
M  V30 5917 H 573.542 -3.76836 -0.165762 0
M  V30 5918 H 575.929 -2.88558 -0.617934 0
M  V30 5919 H 576.01 -2.32828 1.05947 0
M  V30 5920 H 575.654 -4.72968 1.85103 0
M  V30 5921 H 575.584 -5.26378 0.152906 0
M  V30 5922 H 578.075 -3.74408 0.512513 0
M  V30 5923 H 578.388 -7.54669 1.66415 0
M  V30 5924 H 576.733 -6.78844 1.48983 0
M  V30 5925 H 579.924 -4.62557 0.718215 0
M  V30 5926 H 580.097 -6.35964 1.24315 0
M  V30 5927 N 573.503 -0.0852151 -1.57369 0
M  V30 5928 C 574.919 0.271436 -1.57275 0
M  V30 5929 C 575.119 1.69109 -1.09565 0
M  V30 5930 O 574.175 2.40549 -0.767611 0
M  V30 5931 C 575.488 0.0688638 -3.00621 0
M  V30 5932 C 577.036 0.137373 -3.12698 0
M  V30 5933 C 577.511 -0.0370832 -4.57985 0
M  V30 5934 N 579.002 0.0180794 -4.63196 0
M  V30 5935 C 579.737 -0.0922953 -5.73326 0
M  V30 5936 N 579.233 -0.256948 -6.92323 0
M  V30 5937 N 581.026 -0.0342702 -5.6209 0
M  V30 5938 H 573.177 -1.01288 -1.86693 0
M  V30 5939 H 575.44 -0.396138 -0.861266 0
M  V30 5940 H 575.146 -0.911277 -3.39689 0
M  V30 5941 H 575.02 0.815442 -3.6828 0
M  V30 5942 H 577.407 1.10801 -2.73509 0
M  V30 5943 H 577.488 -0.640532 -2.47651 0
M  V30 5944 H 577.132 -1.00455 -4.97867 0
M  V30 5945 H 577.062 0.760392 -5.21081 0
M  V30 5946 H 579.553 0.143202 -3.77629 0
M  V30 5947 H 579.866 -0.332949 -7.72082 0
M  V30 5948 H 578.211 -0.292487 -6.94384 0
M  V30 5949 H 581.402 0.0931605 -4.68007 0
M  V30 5950 H 581.575 -0.12374 -6.47882 0
M  V30 5951 N 574.981 1.5647 0.188427 0
M  V30 5952 C 575.944 1.9421 1.21718 0
M  V30 5953 C 576.944 0.823901 1.38089 0
M  V30 5954 O 578.134 1.09122 1.35787 0
M  V30 5955 C 575.266 2.22197 2.58537 0
M  V30 5956 H 576.459 2.86252 0.894418 0
M  V30 5957 H 574.012 1.50263 0.430211 0
M  V30 5958 H 574.747 1.32814 2.95856 0
M  V30 5959 H 574.532 3.03688 2.48025 0
M  V30 5960 H 576.022 2.52376 3.3271 0
M  V30 5961 N 576.459 -0.456382 1.50847 0
M  V30 5962 C 577.422 -1.53493 1.70213 0
M  V30 5963 C 578.422 -1.50264 0.572481 0
M  V30 5964 O 579.612 -1.52623 0.839751 0
M  V30 5965 C 576.744 -2.93091 1.741 0
M  V30 5966 H 577.937 -1.37633 2.66453 0
M  V30 5967 H 575.49 -0.683776 1.4055 0
M  V30 5968 H 576.225 -3.14378 0.796063 0
M  V30 5969 H 576.01 -2.9684 2.5618 0
M  V30 5970 H 577.5 -3.71368 1.90987 0
M  V30 5971 N 577.937 -1.40673 -0.710563 0
M  V30 5972 C 578.867 -1.44095 -1.83736 0
M  V30 5973 C 579.848 -0.301286 -1.67411 0
M  V30 5974 O 581.033 -0.510618 -1.87367 0
M  V30 5975 C 578.163 -1.30773 -3.21738 0
M  V30 5976 C 577.117 -2.42395 -3.52745 0
M  V30 5977 C 576.443 -2.14147 -4.89944 0
M  V30 5978 C 577.743 -3.84738 -3.53234 0
M  V30 5979 H 579.437 -2.38396 -1.81129 0
M  V30 5980 H 576.983 -1.14746 -0.870017 0
M  V30 5981 H 578.936 -1.31783 -4.00264 0
M  V30 5982 H 577.66 -0.329507 -3.24934 0
M  V30 5983 H 576.319 -2.40643 -2.76562 0
M  V30 5984 H 575.967 -1.14703 -4.89747 0
M  V30 5985 H 575.667 -2.88934 -5.11655 0
M  V30 5986 H 577.191 -2.16848 -5.70797 0
M  V30 5987 H 578.605 -3.88286 -4.2179 0
M  V30 5988 H 577.002 -4.59085 -3.86473 0
M  V30 5989 H 578.072 -4.13962 -2.52514 0
M  V30 5990 N 579.415 0.9433 -1.26252 0
M  V30 5991 C 580.325 2.07532 -1.09397 0
M  V30 5992 C 581.341 1.73977 -0.0280449 0
M  V30 5993 O 582.517 2.00067 -0.231337 0
M  V30 5994 C 579.582 3.39002 -0.726523 0
M  V30 5995 C 578.643 3.86353 -1.87163 0
M  V30 5996 C 577.876 5.11549 -1.52162 0
M  V30 5997 O 578.099 5.68834 -0.422385 0
M  V30 5998 O 577.033 5.53889 -2.35565 0
M  V30 5999 H 580.859 2.24658 -2.04359 0
M  V30 6000 H 578.444 1.05988 -1.05295 0
M  V30 6001 H 580.326 4.18 -0.534236 0
M  V30 6002 H 579.001 3.2312 0.193721 0
M  V30 6003 H 577.908 3.0831 -2.11886 0
M  V30 6004 H 579.241 4.06752 -2.77152 0
M  V30 6005 N 580.893 1.08022 1.14757 0
M  V30 6006 C 582.141 0.805913 1.85336 0
M  V30 6007 C 582.462 -0.670162 1.83122 0
M  V30 6008 O 581.732 -1.48567 1.2769 0
M  V30 6009 H 580.312 0.295138 0.686223 0
M  V30 6010 H 582.974 1.36538 1.3908 0
M  V30 6011 H 582.07 1.14655 2.90277 0
M  V30 6012 N 582.371 -1.3172 0.865308 0
M  V30 6013 C 583.618 -1.96876 0.473931 0
M  V30 6014 C 583.946 -1.68425 -0.972786 0
M  V30 6015 O 583.201 -0.970742 -1.69927 0
M  V30 6016 C 583.5 -3.5102 0.672283 0
M  V30 6017 C 583.166 -3.9948 2.09108 0
M  V30 6018 C 581.828 -4.12425 2.4791 0
M  V30 6019 C 584.18 -4.2503 3.0166 0
M  V30 6020 C 581.508 -4.48267 3.78515 0
M  V30 6021 C 583.86 -4.62335 4.31774 0
M  V30 6022 C 582.524 -4.73486 4.70497 0
M  V30 6023 H 581.794 -0.72042 0.173424 0
M  V30 6024 H 584.441 -1.56937 1.0974 0
M  V30 6025 H 582.746 -3.91785 -0.034356 0
M  V30 6026 H 584.443 -3.99475 0.349353 0
M  V30 6027 H 581.033 -3.89898 1.77981 0
M  V30 6028 H 585.217 -4.14529 2.7291 0
M  V30 6029 H 580.473 -4.55097 4.08285 0
M  V30 6030 H 584.647 -4.81058 5.03543 0
M  V30 6031 H 582.274 -5.01016 5.71741 0
M  V30 6032 N 583.85 -0.624285 -1.44708 0
M  V30 6033 C 584.779 0.0717025 -2.3339 0
M  V30 6034 C 585.76 0.841814 -1.47809 0
M  V30 6035 O 586.946 0.809056 -1.76544 0
M  V30 6036 C 584.076 1.05852 -3.30776 0
M  V30 6037 C 583.029 0.400503 -4.26122 0
M  V30 6038 C 582.356 1.49674 -5.13324 0
M  V30 6039 C 583.656 -0.688924 -5.17737 0
M  V30 6040 H 585.35 -0.668819 -2.91834 0
M  V30 6041 H 582.896 -0.32308 -1.40329 0
M  V30 6042 H 584.849 1.5541 -3.91696 0
M  V30 6043 H 583.572 1.82984 -2.70526 0
M  V30 6044 H 582.231 -0.0743687 -3.66525 0
M  V30 6045 H 581.88 2.25877 -4.49431 0
M  V30 6046 H 581.58 1.06188 -5.77926 0
M  V30 6047 H 583.104 1.99427 -5.77115 0
M  V30 6048 H 584.518 -0.276724 -5.72632 0
M  V30 6049 H 582.915 -1.04652 -5.90904 0
M  V30 6050 H 583.985 -1.55884 -4.5916 0
M  V30 6051 N 585.328 1.53329 -0.364422 0
M  V30 6052 C 586.291 2.24323 0.470292 0
M  V30 6053 C 587.291 1.25068 1.01067 0
M  V30 6054 O 588.481 1.49354 0.896605 0
M  V30 6055 C 585.613 2.97908 1.65722 0
M  V30 6056 H 586.806 2.9952 -0.150917 0
M  V30 6057 H 584.359 1.55868 -0.116092 0
M  V30 6058 H 585.094 2.2695 2.31655 0
M  V30 6059 H 584.879 3.70732 1.27671 0
M  V30 6060 H 586.369 3.5188 2.24878 0
M  V30 6061 N 586.806 0.0935595 1.57322 0
M  V30 6062 C 587.769 -0.851426 2.12799 0
M  V30 6063 C 588.769 -1.21187 1.0569 0
M  V30 6064 O 589.959 -1.14156 1.31583 0
M  V30 6065 C 587.091 -2.14779 2.64731 0
M  V30 6066 H 588.284 -0.369733 2.97612 0
M  V30 6067 H 585.837 -0.155417 1.55525 0
M  V30 6068 H 586.572 -2.67437 1.83434 0
M  V30 6069 H 586.357 -1.89907 3.43042 0
M  V30 6070 H 587.847 -2.82383 3.07651 0
M  V30 6071 N 588.284 -1.56567 -0.180126 0
M  V30 6072 C 589.214 -1.98753 -1.22553 0
M  V30 6073 C 590.195 -0.86175 -1.46656 0
M  V30 6074 O 591.38 -1.12719 -1.58139 0
M  V30 6075 C 588.51 -2.33988 -2.56645 0
M  V30 6076 C 587.464 -3.49445 -2.47128 0
M  V30 6077 C 586.79 -3.70397 -3.8563 0
M  V30 6078 C 588.09 -4.83171 -1.98352 0
M  V30 6079 H 589.784 -2.86332 -0.874896 0
M  V30 6080 H 587.33 -1.37757 -0.419414 0
M  V30 6081 H 589.283 -2.62097 -3.29974 0
M  V30 6082 H 588.007 -1.43309 -2.93479 0
M  V30 6083 H 586.666 -3.2145 -1.76254 0
M  V30 6084 H 586.314 -2.77023 -4.19842 0
M  V30 6085 H 586.014 -4.48077 -3.80132 0
M  V30 6086 H 587.538 -4.00897 -4.60558 0
M  V30 6087 H 588.952 -5.10213 -2.61449 0
M  V30 6088 H 587.349 -5.64425 -2.03823 0
M  V30 6089 H 588.419 -4.75753 -0.937402 0
M  V30 6090 N 589.762 0.448376 -1.51087 0
M  V30 6091 C 590.694 1.56146 -1.67783 0
M  V30 6092 C 591.707 1.52913 -0.55871 0
M  V30 6093 O 592.896 1.57889 -0.83267 0
M  V30 6094 C 589.996 2.95057 -1.66716 0
M  V30 6095 C 589.169 3.22915 -2.95033 0
M  V30 6096 C 588.228 4.41495 -2.86302 0
M  V30 6097 O 587.254 4.40688 -3.60254 0
M  V30 6098 N 588.456 5.44443 -2.014 0
M  V30 6099 H 591.221 1.42232 -2.638 0
M  V30 6100 H 588.782 0.637153 -1.48835 0
M  V30 6101 H 590.774 3.72388 -1.58458 0
M  V30 6102 H 589.344 3.02624 -0.783403 0
M  V30 6103 H 588.564 2.33985 -3.17245 0
M  V30 6104 H 589.852 3.38349 -3.79996 0
M  V30 6105 H 589.25 5.4793 -1.40674 0
M  V30 6106 H 587.807 6.2067 -1.99029 0
M  V30 6107 N 591.24 1.41047 0.703093 0
M  V30 6108 C 592.203 1.42036 1.79884 0
M  V30 6109 C 593.203 0.312153 1.57741 0
M  V30 6110 O 594.393 0.571672 1.64553 0
M  V30 6111 C 591.525 1.22437 3.18154 0
M  V30 6112 H 592.718 2.39572 1.80403 0
M  V30 6113 H 590.271 1.27079 0.909977 0
M  V30 6114 H 591.006 0.257112 3.23279 0
M  V30 6115 H 590.791 2.02723 3.35627 0
M  V30 6116 H 592.281 1.25946 3.98155 0
M  V30 6117 N 592.718 -0.936591 1.26751 0
M  V30 6118 C 593.995 -1.66094 1.03306 0
M  V30 6119 C 594.375 -2.06568 -0.435058 0
M  V30 6120 O 593.723 -1.79305 -1.41641 0
M  V30 6121 C 593.933 -2.86969 1.98619 0
M  V30 6122 C 595.281 -3.58516 2.27489 0
M  V30 6123 O 596.305 -2.97082 1.96522 0
M  V30 6124 O 595.164 -4.69181 2.80235 0
M  V30 6125 H 592.258 -0.727568 0.393158 0
M  V30 6126 H 594.804 -0.987914 1.3798 0
M  V30 6127 H 593.576 -2.53985 2.9767 0
M  V30 6128 H 593.199 -3.61996 1.64454 0
M  V30 6129 N 594.196 -1.08629 -1.14182 0
M  V30 6130 C 595.607 -0.838003 -1.66836 0
M  V30 6131 C 595.958 0.634885 -1.85644 0
M  V30 6132 O 595.083 1.49008 -1.56926 0
M  V30 6133 C 595.678 -1.51465 -3.03058 0
M  V30 6134 C 594.237 -1.31355 -3.52736 0
M  V30 6135 C 593.384 -1.57599 -2.28162 0
M  V30 6136 H 596.335 -1.24656 -0.982165 0
M  V30 6137 H 596.356 -0.943134 -3.68626 0
M  V30 6138 H 595.868 -2.58661 -2.89337 0
M  V30 6139 H 593.969 -0.262384 -3.71675 0
M  V30 6140 H 594.082 -2.04275 -4.33369 0
M  V30 6141 H 592.446 -0.997659 -2.34348 0
M  V30 6142 H 593.229 -2.66006 -2.17015 0
M  V30 6143 N 595.674 1.31259 -0.872281 0
M  V30 6144 C 597.085 1.78822 -0.536617 0
M  V30 6145 C 597.436 1.71855 0.946594 0
M  V30 6146 O 596.561 1.28769 1.73918 0
M  V30 6147 C 597.156 3.24698 -0.967294 0
M  V30 6148 C 595.715 3.70147 -0.683251 0
M  V30 6149 C 594.862 2.51994 -1.15733 0
M  V30 6150 H 597.813 1.18308 -1.05777 0
M  V30 6151 H 597.834 3.79386 -0.290929 0
M  V30 6152 H 597.346 3.29737 -2.04683 0
M  V30 6153 H 595.447 3.70607 0.384825 0
M  V30 6154 H 595.56 4.62183 -1.2619 0
M  V30 6155 H 593.924 2.48078 -0.577024 0
M  V30 6156 H 594.707 2.59778 -2.24434 0
M  V30 6157 N 597.152 0.631951 1.44375 0
M  V30 6158 C 598.084 -0.110911 2.28931 0
M  V30 6159 C 599.097 -0.808086 1.41329 0
M  V30 6160 O 600.286 -0.669396 1.65473 0
M  V30 6161 C 597.386 -1.17928 3.1772 0
M  V30 6162 C 596.559 -0.564458 4.33743 0
M  V30 6163 C 595.618 -1.5269 5.0356 0
M  V30 6164 O 594.644 -1.04372 5.59549 0
M  V30 6165 N 595.846 -2.86123 5.05088 0
M  V30 6166 H 598.611 0.614758 2.93327 0
M  V30 6167 H 596.172 0.473171 1.54831 0
M  V30 6168 H 598.164 -1.82348 3.61291 0
M  V30 6169 H 596.734 -1.80717 2.55069 0
M  V30 6170 H 595.954 0.258373 3.93352 0
M  V30 6171 H 597.242 -0.134355 5.08623 0
M  V30 6172 H 596.64 -3.27959 4.60933 0
M  V30 6173 H 595.197 -3.45901 5.52445 0
M  V30 6174 N 598.631 -1.53133 0.372548 0
M  V30 6175 C 599.594 -2.24569 -0.458389 0
M  V30 6176 C 600.594 -1.25603 -1.00402 0
M  V30 6177 O 601.784 -1.49827 -0.888672 0
M  V30 6178 C 598.916 -2.98783 -1.6414 0
M  V30 6179 H 600.109 -2.99436 0.166799 0
M  V30 6180 H 597.662 -1.55805 0.124357 0
M  V30 6181 H 598.397 -2.28176 -2.30448 0
M  V30 6182 H 598.182 -3.71404 -1.25704 0
M  V30 6183 H 599.672 -3.53068 -2.23008 0
M  V30 6184 N 600.109 -0.101901 -1.5727 0
M  V30 6185 C 601.019 0.868647 -2.17926 0
M  V30 6186 C 602.035 1.30527 -1.1506 0
M  V30 6187 O 603.211 1.37178 -1.47459 0
M  V30 6188 C 600.276 2.10727 -2.75309 0
M  V30 6189 C 599.337 1.7242 -3.93154 0
M  V30 6190 C 598.57 2.90377 -4.47791 0
M  V30 6191 O 598.793 4.05305 -4.01353 0
M  V30 6192 O 597.727 2.6845 -5.38719 0
M  V30 6193 H 601.553 0.382544 -3.01281 0
M  V30 6194 H 599.138 0.122812 -1.48894 0
M  V30 6195 H 601.02 2.83303 -3.11958 0
M  V30 6196 H 599.695 2.58376 -1.94996 0
M  V30 6197 H 598.602 0.970039 -3.61305 0
M  V30 6198 H 599.935 1.29528 -4.74851 0
M  V30 6199 N 601.587 1.56661 0.17182 0
M  V30 6200 C 603.003 1.50768 0.52357 0
M  V30 6201 C 603.203 0.806072 1.84675 0
M  V30 6202 O 602.259 0.366233 2.4983 0
M  V30 6203 C 603.572 2.955 0.556793 0
M  V30 6204 C 605.12 3.06303 0.644029 0
M  V30 6205 C 605.595 4.52492 0.708148 0
M  V30 6206 N 607.086 4.56737 0.771051 0
M  V30 6207 C 607.821 5.67196 0.841229 0
M  V30 6208 N 607.317 6.87287 0.872272 0
M  V30 6209 N 609.11 5.55165 0.88021 0
M  V30 6210 H 601.261 2.00679 -0.695817 0
M  V30 6211 H 603.524 0.914219 -0.250814 0
M  V30 6212 H 603.23 3.49986 -0.346774 0
M  V30 6213 H 603.104 3.50119 1.40346 0
M  V30 6214 H 605.491 2.51851 1.53802 0
M  V30 6215 H 605.572 2.5477 -0.229297 0
M  V30 6216 H 605.216 5.07575 -0.181585 0
M  V30 6217 H 605.146 5.01781 1.59761 0
M  V30 6218 H 607.637 3.70274 0.755364 0
M  V30 6219 H 607.95 7.6722 0.92698 0
M  V30 6220 H 606.295 6.89898 0.840557 0
M  V30 6221 H 609.486 4.60263 0.852956 0
M  V30 6222 H 609.659 6.41271 0.931439 0
M  V30 6223 N 603.065 -0.440357 1.51323 0
M  V30 6224 C 604.311 -1.19181 1.64085 0
M  V30 6225 C 604.644 -1.90936 0.354575 0
M  V30 6226 O 603.919 -1.8347 -0.645675 0
M  V30 6227 C 604.202 -2.2112 2.84215 0
M  V30 6228 C 604.055 -1.53468 4.22809 0
M  V30 6229 C 605.374 -3.22133 2.99864 0
M  V30 6230 H 602.493 -0.431924 0.597169 0
M  V30 6231 H 605.135 -0.481443 1.83799 0
M  V30 6232 H 603.285 -2.81703 2.67537 0
M  V30 6233 H 604.957 -0.962455 4.51148 0
M  V30 6234 H 603.2 -0.837086 4.25647 0
M  V30 6235 H 603.871 -2.27694 5.02852 0
M  V30 6236 H 606.347 -2.71601 3.15233 0
M  V30 6237 H 605.223 -3.90756 3.85488 0
M  V30 6238 H 605.484 -3.88061 2.11804 0
M  V30 6239 N 604.543 -1.41418 -0.695603 0
M  V30 6240 C 605.473 -1.46035 -1.82197 0
M  V30 6241 C 606.454 -0.319025 -1.67082 0
M  V30 6242 O 607.639 -0.530462 -1.86815 0
M  V30 6243 C 604.769 -1.34179 -3.20333 0
M  V30 6244 C 603.723 -2.46123 -3.50154 0
M  V30 6245 C 603.049 -2.19332 -4.87645 0
M  V30 6246 C 604.349 -3.88463 -3.49133 0
M  V30 6247 H 606.043 -2.40303 -1.78591 0
M  V30 6248 H 603.589 -1.15663 -0.857797 0
M  V30 6249 H 605.542 -1.36021 -3.98844 0
M  V30 6250 H 604.266 -0.363952 -3.24566 0
M  V30 6251 H 602.925 -2.43563 -2.73994 0
M  V30 6252 H 602.573 -1.19891 -4.88503 0
M  V30 6253 H 602.273 -2.94344 -5.08562 0
M  V30 6254 H 603.797 -2.22889 -5.68465 0
M  V30 6255 H 605.211 -3.92738 -4.17648 0
M  V30 6256 H 603.608 -4.63158 -3.81582 0
M  V30 6257 H 604.678 -4.16617 -2.48109 0
M  V30 6258 N 606.021 0.929856 -1.27246 0
M  V30 6259 C 606.951 2.04722 -1.12299 0
M  V30 6260 C 607.932 1.70082 -0.0250464 0
M  V30 6261 O 609.117 1.93176 -0.199141 0
M  V30 6262 C 606.247 3.38721 -0.767145 0
M  V30 6263 C 605.201 3.87466 -1.81808 0
M  V30 6264 C 604.527 5.18246 -1.31626 0
M  V30 6265 C 605.827 4.11095 -3.22177 0
M  V30 6266 H 607.521 2.17485 -2.05769 0
M  V30 6267 H 605.067 1.04503 -0.990715 0
M  V30 6268 H 607.02 4.16366 -0.649413 0
M  V30 6269 H 605.744 3.25967 0.203259 0
M  V30 6270 H 604.403 3.12012 -1.92468 0
M  V30 6271 H 604.051 5.01881 -0.335378 0
M  V30 6272 H 603.751 5.51829 -2.01887 0
M  V30 6273 H 605.275 5.98462 -1.21143 0
M  V30 6274 H 606.689 4.79316 -3.1453 0
M  V30 6275 H 605.086 4.55982 -3.90129 0
M  V30 6276 H 606.156 3.16468 -3.67391 0
M  V30 6277 N 607.499 1.09233 1.13605 0
M  V30 6278 C 608.462 0.733553 2.17144 0
M  V30 6279 C 609.462 -0.235873 1.59061 0
M  V30 6280 O 610.652 -0.0143167 1.74194 0
M  V30 6281 C 607.784 0.084471 3.40795 0
M  V30 6282 H 608.977 1.65049 2.50397 0
M  V30 6283 H 606.53 0.891264 1.28399 0
M  V30 6284 H 607.265 -0.843795 3.1313 0
M  V30 6285 H 607.05 0.781985 3.84223 0
M  V30 6286 H 608.54 -0.151216 4.17326 0
M  V30 6287 N 608.977 -1.30795 0.87923 0
M  V30 6288 C 609.907 -2.30742 0.357796 0
M  V30 6289 C 610.888 -1.60747 -0.556283 0
M  V30 6290 O 612.073 -1.88393 -0.47135 0
M  V30 6291 C 609.203 -3.44583 -0.433555 0
M  V30 6292 C 608.157 -4.26235 0.388251 0
M  V30 6293 C 607.483 -5.32073 -0.529352 0
M  V30 6294 C 608.783 -4.96303 1.62729 0
M  V30 6295 H 610.477 -2.74605 1.19299 0
M  V30 6296 H 608.023 -1.32017 0.575104 0
M  V30 6297 H 609.976 -4.13563 -0.808934 0
M  V30 6298 H 608.7 -2.99511 -1.30234 0
M  V30 6299 H 607.359 -3.58936 0.745695 0
M  V30 6300 H 607.007 -4.83249 -1.39569 0
M  V30 6301 H 606.707 -5.87598 0.0166741 0
M  V30 6302 H 608.231 -6.0391 -0.901373 0
M  V30 6303 H 609.645 -5.5783 1.32283 0
M  V30 6304 H 608.042 -5.61666 2.11309 0
M  V30 6305 H 609.112 -4.22758 2.37494 0
M  V30 6306 N 610.455 -0.639598 -1.44038 0
M  V30 6307 C 611.871 -0.305953 -1.5664 0
M  V30 6308 C 612.071 1.19055 -1.62567 0
M  V30 6309 O 611.127 1.97492 -1.57331 0
M  V30 6310 C 612.44 -1.00533 -2.83397 0
M  V30 6311 C 613.988 -0.984278 -2.97121 0
M  V30 6312 C 614.463 -1.66428 -4.26691 0
M  V30 6313 N 615.954 -1.63127 -4.33525 0
M  V30 6314 C 616.689 -2.12629 -5.32519 0
M  V30 6315 N 616.185 -2.70359 -6.3787 0
M  V30 6316 N 617.978 -2.03208 -5.24083 0
M  V30 6317 H 610.129 -1.6109 -1.38434 0
M  V30 6318 H 612.392 -0.676672 -0.663942 0
M  V30 6319 H 612.098 -2.06034 -2.85032 0
M  V30 6320 H 611.972 -0.548362 -3.73193 0
M  V30 6321 H 614.359 0.0622792 -2.95034 0
M  V30 6322 H 614.44 -1.47981 -2.08651 0
M  V30 6323 H 614.084 -2.71034 -4.29538 0
M  V30 6324 H 614.014 -1.14351 -5.14034 0
M  V30 6325 H 616.505 -1.20987 -3.58009 0
M  V30 6326 H 616.818 -3.05842 -7.09704 0
M  V30 6327 H 615.163 -2.74414 -6.38531 0
M  V30 6328 H 618.354 -1.57823 -4.40692 0
M  V30 6329 H 618.527 -2.42097 -6.01077 0
M  V30 6330 N 611.933 1.52934 -0.380664 0
M  V30 6331 C 613.349 1.59571 -0.0302429 0
M  V30 6332 C 613.549 1.39509 1.45394 0
M  V30 6333 O 612.605 1.20777 2.21741 0
M  V30 6334 C 613.918 2.96519 -0.499691 0
M  V30 6335 C 615.466 3.09672 -0.455204 0
M  V30 6336 C 615.941 4.49056 -0.900703 0
M  V30 6337 N 617.432 4.55215 -0.856367 0
M  V30 6338 C 618.167 5.61282 -1.17259 0
M  V30 6339 N 617.663 6.75035 -1.55885 0
M  V30 6340 N 619.456 5.51343 -1.0944 0
M  V30 6341 H 611.607 1.64224 -1.347 0
M  V30 6342 H 613.87 0.771033 -0.551554 0
M  V30 6343 H 613.576 3.16388 -1.53595 0
M  V30 6344 H 613.45 3.77052 0.105789 0
M  V30 6345 H 615.837 2.89504 0.571949 0
M  V30 6346 H 615.918 2.31113 -1.09638 0
M  V30 6347 H 615.562 4.69964 -1.92604 0
M  V30 6348 H 615.492 5.26068 -0.236629 0
M  V30 6349 H 617.983 3.73546 -0.572013 0
M  V30 6350 H 618.296 7.51926 -1.784 0
M  V30 6351 H 616.641 6.76388 -1.59764 0
M  V30 6352 H 619.832 4.61356 -0.791713 0
M  V30 6353 H 620.005 6.33905 -1.34417 0
M  V30 6354 N 613.412 0.11024 1.57214 0
M  V30 6355 C 614.642 -0.557025 1.98949 0
M  V30 6356 C 615.05 -1.61317 0.988606 0
M  V30 6357 O 614.393 -1.83679 -0.0279159 0
M  V30 6358 C 614.455 -1.24956 3.37085 0
M  V30 6359 C 614.119 -0.342398 4.55716 0
M  V30 6360 C 615.116 0.415511 5.18237 0
M  V30 6361 C 612.801 -0.256029 5.01647 0
M  V30 6362 C 614.795 1.24761 6.25071 0
M  V30 6363 C 612.482 0.579713 6.08344 0
M  V30 6364 C 613.48 1.33017 6.69922 0
M  V30 6365 O 613.168 2.15205 7.74559 0
M  V30 6366 H 612.9 -0.152792 0.658506 0
M  V30 6367 H 615.454 0.19076 2.04512 0
M  V30 6368 H 613.684 -2.04424 3.2825 0
M  V30 6369 H 615.373 -1.81286 3.63167 0
M  V30 6370 H 616.139 0.358605 4.83672 0
M  V30 6371 H 612.018 -0.829831 4.5347 0
M  V30 6372 H 615.562 1.83386 6.73064 0
M  V30 6373 H 611.459 0.638044 6.42339 0
M  V30 6374 H 612.227 2.08052 7.91617 0
M  V30 6375 N 614.89 -1.56749 -0.16351 0
M  V30 6376 C 615.82 -2.00042 -1.20438 0
M  V30 6377 C 616.801 -0.877256 -1.45733 0
M  V30 6378 O 617.986 -1.1439 -1.56935 0
M  V30 6379 C 615.116 -2.36697 -2.54149 0
M  V30 6380 C 614.07 -3.52046 -2.43408 0
M  V30 6381 C 613.396 -3.74466 -3.81679 0
M  V30 6382 C 614.696 -4.85247 -1.93216 0
M  V30 6383 H 616.39 -2.87244 -0.844477 0
M  V30 6384 H 613.936 -1.38194 -0.40478 0
M  V30 6385 H 615.889 -2.65582 -3.27176 0
M  V30 6386 H 614.613 -1.46414 -2.91943 0
M  V30 6387 H 613.272 -3.23301 -1.72834 0
M  V30 6388 H 612.92 -2.81461 -4.1688 0
M  V30 6389 H 612.62 -4.52084 -3.75359 0
M  V30 6390 H 614.144 -4.0576 -4.5628 0
M  V30 6391 H 615.558 -5.12957 -2.56023 0
M  V30 6392 H 613.955 -5.66556 -1.97825 0
M  V30 6393 H 615.025 -4.7672 -0.88689 0
M  V30 6394 N 616.368 0.432326 -1.51554 0
M  V30 6395 C 617.784 0.769195 -1.39841 0
M  V30 6396 C 617.984 1.95584 -0.484675 0
M  V30 6397 O 617.04 2.52433 0.0582829 0
M  V30 6398 C 618.353 1.04487 -2.81963 0
M  V30 6399 C 619.901 1.149 -2.91148 0
M  V30 6400 C 620.376 1.45758 -4.34187 0
M  V30 6401 N 621.867 1.52671 -4.37317 0
M  V30 6402 C 622.602 1.78129 -5.4503 0
M  V30 6403 N 622.098 2.01345 -6.62897 0
M  V30 6404 N 623.891 1.79953 -5.32516 0
M  V30 6405 H 616.042 -0.349122 -2.09511 0
M  V30 6406 H 618.305 -0.0938113 -0.943347 0
M  V30 6407 H 618.011 0.24557 -3.50842 0
M  V30 6408 H 617.885 1.97119 -3.21596 0
M  V30 6409 H 620.272 1.93891 -2.22464 0
M  V30 6410 H 620.353 0.201568 -2.55005 0
M  V30 6411 H 619.997 0.672917 -5.03423 0
M  V30 6412 H 619.927 2.41715 -4.67848 0
M  V30 6413 H 622.418 1.36612 -3.52343 0
M  V30 6414 H 622.731 2.20155 -7.40778 0
M  V30 6415 H 621.076 1.98657 -6.66003 0
M  V30 6416 H 624.267 1.61337 -4.39418 0
M  V30 6417 H 624.44 1.99455 -6.1654 0
M  V30 6418 N 617.846 1.41785 0.688094 0
M  V30 6419 C 618.809 1.43936 1.78368 0
M  V30 6420 C 619.809 0.328866 1.57401 0
M  V30 6421 O 620.999 0.589093 1.63937 0
M  V30 6422 C 618.131 1.25804 3.16838 0
M  V30 6423 H 619.324 2.41472 1.77852 0
M  V30 6424 H 616.877 1.28037 0.896448 0
M  V30 6425 H 617.612 0.291386 3.22988 0
M  V30 6426 H 617.397 2.06272 3.33458 0
M  V30 6427 H 618.887 1.30162 3.96797 0
M  V30 6428 N 619.324 -0.923095 1.27737 0
M  V30 6429 C 620.234 -2.05765 1.12685 0
M  V30 6430 C 621.25 -1.73911 0.0557197 0
M  V30 6431 O 622.426 -1.99674 0.263137 0
M  V30 6432 C 619.491 -3.37804 0.780363 0
M  V30 6433 C 618.552 -3.83326 1.93286 0
M  V30 6434 C 617.785 -5.09064 1.60281 0
M  V30 6435 O 618.008 -5.6809 0.512828 0
M  V30 6436 O 616.942 -5.50071 2.44347 0
M  V30 6437 H 620.768 -2.21378 2.07907 0
M  V30 6438 H 618.353 -1.04299 1.06968 0
M  V30 6439 H 620.235 -4.17097 0.600668 0
M  V30 6440 H 618.91 -3.23387 -0.142291 0
M  V30 6441 H 617.817 -3.049 2.16764 0
M  V30 6442 H 619.15 -4.02292 2.83588 0
M  V30 6443 N 620.802 -1.09834 -1.13024 0
M  V30 6444 C 621.734 -0.699379 -2.18269 0
M  V30 6445 C 622.747 0.260841 -1.60697 0
M  V30 6446 O 623.936 0.0462538 -1.7844 0
M  V30 6447 C 621.036 -0.0104537 -3.38898 0
M  V30 6448 C 620.209 -0.993275 -4.25973 0
M  V30 6449 C 619.268 -0.336982 -5.2512 0
M  V30 6450 O 618.294 -0.985892 -5.60597 0
M  V30 6451 N 619.496 0.90716 -5.73368 0
M  V30 6452 H 622.261 -1.60486 -2.5311 0
M  V30 6453 H 619.822 -0.986337 -1.28386 0
M  V30 6454 H 621.814 0.43991 -4.02302 0
M  V30 6455 H 620.384 0.797335 -3.0226 0
M  V30 6456 H 619.604 -1.62208 -3.5928 0
M  V30 6457 H 620.892 -1.65876 -4.81002 0
M  V30 6458 H 620.29 1.45384 -5.46699 0
M  V30 6459 H 618.847 1.30077 -6.38689 0
M  V30 6460 N 622.28 1.30327 -0.886154 0
M  V30 6461 C 623.227 2.28099 -0.352069 0
M  V30 6462 C 624.197 1.56433 0.558397 0
M  V30 6463 O 625.382 1.84492 0.486561 0
M  V30 6464 C 622.522 3.42456 0.426346 0
M  V30 6465 C 621.635 4.28938 -0.513472 0
M  V30 6466 C 620.77 5.30458 0.280657 0
M  V30 6467 C 619.809 6.0859 -0.654556 0
M  V30 6468 N 618.946 7.02022 0.104322 0
M  V30 6469 H 623.786 2.73166 -1.19097 0
M  V30 6470 H 621.323 1.34367 -0.598662 0
M  V30 6471 H 623.281 4.07518 0.893587 0
M  V30 6472 H 621.911 2.98455 1.22981 0
M  V30 6473 H 620.963 3.64173 -1.09921 0
M  V30 6474 H 622.275 4.83399 -1.2299 0
M  V30 6475 H 621.429 6.01273 0.8097 0
M  V30 6476 H 620.168 4.76693 1.03029 0
M  V30 6477 H 619.173 5.36651 -1.19522 0
M  V30 6478 H 620.398 6.64443 -1.4033 0
M  V30 6479 H 618.344 6.50645 0.836472 0
M  V30 6480 H 618.261 7.53979 -0.552453 0
M  V30 6481 H 619.529 7.77077 0.614069 0
M  V30 6482 N 623.758 0.647228 1.43697 0
M  V30 6483 C 624.668 -0.0487997 2.34549 0
M  V30 6484 C 625.684 -0.818586 1.53542 0
M  V30 6485 O 626.86 -0.767195 1.86215 0
M  V30 6486 C 623.925 -1.00734 3.31743 0
M  V30 6487 C 622.986 -0.23515 4.28655 0
M  V30 6488 C 622.219 -1.14803 5.21206 0
M  V30 6489 O 622.442 -2.38717 5.18045 0
M  V30 6490 O 621.376 -0.623667 5.9866 0
M  V30 6491 H 625.202 0.698863 2.9555 0
M  V30 6492 H 622.787 0.407412 1.43738 0
M  V30 6493 H 624.669 -1.55837 3.91526 0
M  V30 6494 H 623.344 -1.73534 2.73254 0
M  V30 6495 H 622.251 0.359319 3.7237 0
M  V30 6496 H 623.584 0.453152 4.9011 0
M  V30 6497 N 625.236 -1.5273 0.388769 0
M  V30 6498 C 626.168 -2.24081 -0.481704 0
M  V30 6499 C 627.181 -1.26307 -1.02715 0
M  V30 6500 O 628.37 -1.52386 -0.929565 0
M  V30 6501 C 625.47 -2.94315 -1.68024 0
M  V30 6502 C 624.643 -4.18791 -1.26226 0
M  V30 6503 C 623.702 -4.72028 -2.32542 0
M  V30 6504 O 622.728 -5.35129 -1.93972 0
M  V30 6505 N 623.93 -4.51838 -3.64448 0
M  V30 6506 H 626.695 -2.9942 0.129591 0
M  V30 6507 H 624.256 -1.60465 0.2151 0
M  V30 6508 H 626.248 -3.26831 -2.38671 0
M  V30 6509 H 624.818 -2.22287 -2.19789 0
M  V30 6510 H 624.038 -3.92318 -0.384703 0
M  V30 6511 H 625.326 -4.99668 -0.959647 0
M  V30 6512 H 624.724 -4.01468 -3.98547 0
M  V30 6513 H 623.281 -4.88845 -4.31131 0
M  V30 6514 N 626.714 -0.118576 -1.57153 0
M  V30 6515 C 628.13 0.238014 -1.57815 0
M  V30 6516 C 628.33 1.66747 -1.13127 0
M  V30 6517 O 627.386 2.38867 -0.818462 0
M  V30 6518 C 628.699 0.00508207 -3.007 0
M  V30 6519 C 630.247 0.0710139 -3.12919 0
M  V30 6520 C 630.722 -0.13422 -4.57803 0
M  V30 6521 N 632.213 -0.0801755 -4.63131 0
M  V30 6522 C 632.948 -0.213885 -5.73001 0
M  V30 6523 N 632.444 -0.403742 -6.91623 0
M  V30 6524 N 634.237 -0.15349 -5.6189 0
M  V30 6525 H 626.388 -1.05226 -1.84503 0
M  V30 6526 H 628.651 -0.414318 -0.852669 0
M  V30 6527 H 628.357 -0.983125 -3.3768 0
M  V30 6528 H 628.231 0.73714 -3.69927 0
M  V30 6529 H 630.618 1.04975 -2.75798 0
M  V30 6530 H 630.699 -0.692918 -2.46236 0
M  V30 6531 H 630.343 -1.10992 -4.95624 0
M  V30 6532 H 630.273 0.649692 -5.22577 0
M  V30 6533 H 632.764 0.0630689 -3.77847 0
M  V30 6534 H 633.077 -0.496645 -7.71202 0
M  V30 6535 H 631.422 -0.43971 -6.93608 0
M  V30 6536 H 634.613 -0.00613174 -4.681 0
M  V30 6537 H 634.786 -0.261138 -6.47474 0
M  V30 6538 N 628.193 1.56834 0.155195 0
M  V30 6539 C 629.143 1.94061 1.19684 0
M  V30 6540 C 630.127 0.810851 1.38975 0
M  V30 6541 O 631.319 1.07422 1.40675 0
M  V30 6542 C 628.448 2.31778 2.53247 0
M  V30 6543 C 627.534 3.51305 2.37583 0
M  V30 6544 N 627.925 4.68081 1.9166 0
M  V30 6545 C 626.223 3.56228 2.6836 0
M  V30 6546 C 626.924 5.50193 1.88845 0
M  V30 6547 N 625.9 4.91676 2.31852 0
M  V30 6548 H 629.702 2.81826 0.833747 0
M  V30 6549 H 627.216 1.58284 0.363328 0
M  V30 6550 H 629.213 2.56649 3.28538 0
M  V30 6551 H 627.873 1.4536 2.90346 0
M  V30 6552 H 628.884 4.91993 1.6175 0
M  V30 6553 H 625.561 2.8033 3.09389 0
M  V30 6554 H 626.951 6.53801 1.54901 0
M  V30 6555 N 629.671 -0.424282 1.51781 0
M  V30 6556 C 630.899 -1.1947 1.68921 0
M  V30 6557 C 631.314 -1.84683 0.39213 0
M  V30 6558 O 630.671 -1.71261 -0.630554 0
M  V30 6559 C 630.722 -2.26909 2.81416 0
M  V30 6560 O 630.443 -1.64361 4.061 0
M  V30 6561 C 631.944 -3.16945 3.09937 0
M  V30 6562 H 629.164 -0.359591 0.566511 0
M  V30 6563 H 631.708 -0.501139 1.98265 0
M  V30 6564 H 629.863 -2.91959 2.54635 0
M  V30 6565 H 630.277 -2.35468 4.68674 0
M  V30 6566 H 631.751 -3.88437 3.922 0
M  V30 6567 H 632.228 -3.78451 2.22871 0
M  V30 6568 H 632.834 -2.57581 3.38426 0
M  V30 6569 N 631.149 -1.42148 -0.680565 0
M  V30 6570 C 632.079 -1.4796 -1.80638 0
M  V30 6571 C 633.06 -0.336728 -1.66734 0
M  V30 6572 O 634.245 -0.550247 -1.86242 0
M  V30 6573 C 631.375 -1.37569 -3.18892 0
M  V30 6574 C 630.329 -2.49823 -3.47524 0
M  V30 6575 C 629.655 -2.24491 -4.85291 0
M  V30 6576 C 630.955 -3.92144 -3.44994 0
M  V30 6577 H 632.649 -2.42184 -1.76032 0
M  V30 6578 H 630.195 -1.16566 -0.845481 0
M  V30 6579 H 632.148 -1.40243 -3.97379 0
M  V30 6580 H 630.872 -0.398357 -3.24162 0
M  V30 6581 H 629.531 -2.46455 -2.71395 0
M  V30 6582 H 629.179 -1.25066 -4.87204 0
M  V30 6583 H 628.879 -2.99722 -5.05411 0
M  V30 6584 H 630.403 -2.28906 -5.66069 0
M  V30 6585 H 631.817 -3.97145 -4.13459 0
M  V30 6586 H 630.214 -4.67179 -3.76648 0
M  V30 6587 H 631.284 -4.19225 -2.43676 0
M  V30 6588 N 632.627 0.916307 -1.28225 0
M  V30 6589 C 634.043 1.19425 -1.05876 0
M  V30 6590 C 634.243 2.005 0.2005 0
M  V30 6591 O 633.299 2.35806 0.902873 0
M  V30 6592 C 634.612 1.93133 -2.30478 0
M  V30 6593 C 636.16 2.06026 -2.35632 0
M  V30 6594 C 636.635 2.83141 -3.59994 0
M  V30 6595 N 638.126 2.90704 -3.60618 0
M  V30 6596 C 638.861 3.50865 -4.53521 0
M  V30 6597 N 638.357 4.12327 -5.56739 0
M  V30 6598 N 640.15 3.48379 -4.41122 0
M  V30 6599 H 632.301 0.37496 -2.09064 0
M  V30 6600 H 634.564 0.228531 -0.920042 0
M  V30 6601 H 634.27 1.40985 -3.22205 0
M  V30 6602 H 634.144 2.93696 -2.36691 0
M  V30 6603 H 636.531 2.57355 -1.44404 0
M  V30 6604 H 636.612 1.04647 -2.33415 0
M  V30 6605 H 636.256 2.32492 -4.51564 0
M  V30 6606 H 636.186 3.84829 -3.59464 0
M  V30 6607 H 638.677 2.47034 -2.85977 0
M  V30 6608 H 638.99 4.56205 -6.23776 0
M  V30 6609 H 637.335 4.10839 -5.60568 0
M  V30 6610 H 640.526 2.99572 -3.59686 0
M  V30 6611 H 640.699 3.94974 -5.13712 0
M  V30 6612 N 634.105 1.10431 1.1244 0
M  V30 6613 C 635.055 0.722378 2.16254 0
M  V30 6614 C 636.039 -0.268427 1.58645 0
M  V30 6615 O 637.231 -0.077169 1.76832 0
M  V30 6616 C 634.36 0.155763 3.42946 0
M  V30 6617 C 633.446 1.17361 4.07538 0
M  V30 6618 N 633.837 2.36429 4.47141 0
M  V30 6619 C 632.135 1.01412 4.34317 0
M  V30 6620 C 632.836 3.01259 4.97612 0
M  V30 6621 N 631.812 2.28777 4.93115 0
M  V30 6622 H 635.614 1.62876 2.4464 0
M  V30 6623 H 633.128 0.982031 1.29344 0
M  V30 6624 H 635.125 -0.135936 4.16678 0
M  V30 6625 H 633.785 -0.745339 3.1603 0
M  V30 6626 H 634.796 2.73954 4.39511 0
M  V30 6627 H 631.473 0.168574 4.1716 0
M  V30 6628 H 632.863 4.02541 5.37968 0
M  V30 6629 N 635.583 -1.29855 0.893053 0
M  V30 6630 C 636.813 -1.99686 0.530019 0
M  V30 6631 C 637.221 -1.67066 -0.888012 0
M  V30 6632 O 636.564 -0.908366 -1.5967 0
M  V30 6633 C 636.626 -3.53855 0.63457 0
M  V30 6634 C 636.29 -4.10013 2.01837 0
M  V30 6635 C 637.287 -4.25406 2.98874 0
M  V30 6636 C 634.972 -4.45202 2.32595 0
M  V30 6637 C 636.966 -4.7521 4.24799 0
M  V30 6638 C 634.653 -4.94704 3.58763 0
M  V30 6639 C 635.651 -5.09662 4.5468 0
M  V30 6640 O 635.339 -5.58093 5.78608 0
M  V30 6641 H 635.071 -0.644913 0.20264 0
M  V30 6642 H 637.625 -1.66518 1.20253 0
M  V30 6643 H 635.855 -3.86583 -0.0949477 0
M  V30 6644 H 637.544 -4.04922 0.281648 0
M  V30 6645 H 638.31 -3.98515 2.76425 0
M  V30 6646 H 634.189 -4.32822 1.58701 0
M  V30 6647 H 637.733 -4.86801 4.99671 0
M  V30 6648 H 633.63 -5.21032 3.81046 0
M  V30 6649 H 634.398 -5.7642 5.81104 0
M  V30 6650 N 637.061 -0.65484 -1.43351 0
M  V30 6651 C 637.993 0.0744757 -2.29079 0
M  V30 6652 C 639.006 0.7855 -1.42596 0
M  V30 6653 O 640.195 0.642986 -1.66517 0
M  V30 6654 C 637.295 1.12859 -3.19556 0
M  V30 6655 C 636.468 0.495381 -4.34586 0
M  V30 6656 C 635.527 1.44659 -5.05925 0
M  V30 6657 O 634.553 0.954567 -5.61139 0
M  V30 6658 N 635.755 2.78051 -5.09576 0
M  V30 6659 H 638.52 -0.661346 -2.92312 0
M  V30 6660 H 636.081 -0.497744 -1.54059 0
M  V30 6661 H 638.073 1.76577 -3.64147 0
M  V30 6662 H 636.643 1.76636 -2.57912 0
M  V30 6663 H 635.863 -0.32092 -3.92892 0
M  V30 6664 H 637.151 0.0534203 -5.08772 0
M  V30 6665 H 636.549 3.20584 -4.66093 0
M  V30 6666 H 635.106 3.37068 -5.57878 0
M  V30 6667 N 638.539 1.52521 -0.396863 0
M  V30 6668 C 639.489 2.2348 0.451722 0
M  V30 6669 C 640.473 1.2415 1.0235 0
M  V30 6670 O 641.665 1.4945 0.948348 0
M  V30 6671 C 638.794 3.05067 1.57445 0
M  V30 6672 C 637.88 4.11799 1.01404 0
M  V30 6673 N 638.271 5.05482 0.179234 0
M  V30 6674 C 636.569 4.27064 1.28578 0
M  V30 6675 C 637.27 5.81552 -0.131202 0
M  V30 6676 N 636.246 5.41523 0.474735 0
M  V30 6677 H 640.048 2.93269 -0.192534 0
M  V30 6678 H 637.562 1.61081 -0.206591 0
M  V30 6679 H 639.559 3.54446 2.19485 0
M  V30 6680 H 638.219 2.36816 2.22145 0
M  V30 6681 H 639.23 5.17573 -0.18411 0
M  V30 6682 H 635.907 3.70042 1.93327 0
M  V30 6683 H 637.297 6.67023 -0.808061 0
M  V30 6684 N 640.017 0.126909 1.57088 0
M  V30 6685 C 641.263 -0.529952 1.95753 0
M  V30 6686 C 641.596 -1.65823 1.01077 0
M  V30 6687 O 640.871 -1.94437 0.0494162 0
M  V30 6688 C 641.154 -1.05517 3.44294 0
M  V30 6689 C 641.007 0.0702253 4.49745 0
M  V30 6690 C 642.326 -1.9435 3.94862 0
M  V30 6691 H 639.445 -0.191168 0.711775 0
M  V30 6692 H 642.087 0.204071 1.88901 0
M  V30 6693 H 640.237 -1.68069 3.50264 0
M  V30 6694 H 641.909 0.705834 4.55868 0
M  V30 6695 H 640.152 0.732259 4.27575 0
M  V30 6696 H 640.823 -0.338642 5.5096 0
M  V30 6697 H 643.299 -1.41658 3.91244 0
M  V30 6698 H 642.175 -2.28015 4.993 0
M  V30 6699 H 642.436 -2.87299 3.36024 0
M  V30 6700 N 641.495 -1.56914 -0.146875 0
M  V30 6701 C 642.458 -1.97368 -1.16526 0
M  V30 6702 C 643.458 -0.860223 -1.35856 0
M  V30 6703 O 644.648 -1.12684 -1.32846 0
M  V30 6704 C 641.78 -2.28974 -2.52555 0
M  V30 6705 H 642.973 -2.88523 -0.818209 0
M  V30 6706 H 640.526 -1.5135 -0.390221 0
M  V30 6707 H 641.261 -1.40611 -2.92231 0
M  V30 6708 H 641.046 -3.10157 -2.39886 0
M  V30 6709 H 642.536 -2.61109 -3.25902 0
M  V30 6710 N 642.974 0.416227 -1.52004 0
M  V30 6711 C 643.937 1.48926 -1.74223 0
M  V30 6712 C 644.937 1.48693 -0.612119 0
M  V30 6713 O 646.127 1.50343 -0.879921 0
M  V30 6714 C 643.259 2.88372 -1.81809 0
M  V30 6715 H 644.452 1.3052 -2.70008 0
M  V30 6716 H 642.005 0.646271 -1.42313 0
M  V30 6717 H 642.74 3.12157 -0.879135 0
M  V30 6718 H 642.525 2.89944 -2.6396 0
M  V30 6719 H 644.015 3.66173 -2.00766 0
M  V30 6720 N 644.452 1.42507 0.673017 0
M  V30 6721 C 645.698 1.43284 1.43519 0
M  V30 6722 C 646.031 0.049668 1.94136 0
M  V30 6723 O 645.306 -0.926369 1.71022 0
M  V30 6724 C 645.589 2.45874 2.63093 0
M  V30 6725 C 645.442 3.93388 2.18096 0
M  V30 6726 C 646.761 2.45431 3.6531 0
M  V30 6727 H 643.88 0.521752 0.520522 0
M  V30 6728 H 646.522 1.73932 0.764701 0
M  V30 6729 H 644.672 2.19869 3.20296 0
M  V30 6730 H 646.344 4.30379 1.66046 0
M  V30 6731 H 644.587 4.07169 1.49652 0
M  V30 6732 H 645.258 4.60752 3.03993 0
M  V30 6733 H 647.734 2.68561 3.17827 0
M  V30 6734 H 646.61 3.19189 4.46553 0
M  V30 6735 H 646.871 1.48092 4.16559 0
M  V30 6736 N 645.93 -0.909495 1.28709 0
M  V30 6737 C 647.207 -1.63865 1.06806 0
M  V30 6738 C 647.587 -2.07445 -0.391143 0
M  V30 6739 O 646.935 -1.82269 -1.37805 0
M  V30 6740 C 647.145 -2.82692 2.04661 0
M  V30 6741 C 648.493 -3.5361 2.35042 0
M  V30 6742 O 649.517 -2.92847 2.02779 0
M  V30 6743 O 648.376 -4.63131 2.90124 0
M  V30 6744 H 645.47 -0.719065 0.408502 0
M  V30 6745 H 648.016 -0.958424 1.40044 0
M  V30 6746 H 646.788 -2.47614 3.0299 0
M  V30 6747 H 646.411 -3.58426 1.72095 0
M  V30 6748 N 647.408 -1.11026 -1.11852 0
M  V30 6749 C 648.819 -0.873203 -1.65021 0
M  V30 6750 C 649.17 0.595364 -1.86949 0
M  V30 6751 O 648.295 1.45645 -1.60051 0
M  V30 6752 C 648.89 -1.57859 -2.99777 0
M  V30 6753 C 647.449 -1.38807 -3.49871 0
M  V30 6754 C 646.596 -1.62403 -2.24768 0
M  V30 6755 H 649.547 -1.26712 -0.955503 0
M  V30 6756 H 649.568 -1.02111 -3.66543 0
M  V30 6757 H 649.08 -2.6474 -2.83786 0
M  V30 6758 H 647.181 -0.341163 -3.71035 0
M  V30 6759 H 647.294 -2.13421 -4.28938 0
M  V30 6760 H 645.658 -1.04714 -2.32179 0
M  V30 6761 H 646.441 -2.70549 -2.11324 0
M  V30 6762 N 648.886 1.2938 -0.899927 0
M  V30 6763 C 649.796 2.31462 -0.382437 0
M  V30 6764 C 650.812 1.65956 0.522929 0
M  V30 6765 O 651.988 1.97131 0.412454 0
M  V30 6766 C 649.053 3.44595 0.381472 0
M  V30 6767 C 648.114 4.25692 -0.555444 0
M  V30 6768 C 647.347 5.33422 0.172102 0
M  V30 6769 O 647.57 5.53053 1.396 0
M  V30 6770 O 646.504 5.99939 -0.485491 0
M  V30 6771 H 650.33 2.77706 -1.22934 0
M  V30 6772 H 647.915 1.33821 -0.664259 0
M  V30 6773 H 649.797 4.13474 0.813442 0
M  V30 6774 H 648.472 3.00458 1.20443 0
M  V30 6775 H 647.379 3.59453 -1.03653 0
M  V30 6776 H 648.712 4.73471 -1.34483 0
M  V30 6777 N 650.364 0.662433 1.43002 0
M  V30 6778 C 651.311 -0.0235324 2.30788 0
M  V30 6779 C 652.281 -0.805342 1.4527 0
M  V30 6780 O 653.466 -0.78009 1.74124 0
M  V30 6781 C 650.606 -0.977545 3.30965 0
M  V30 6782 C 649.719 -0.190865 4.31578 0
M  V30 6783 C 648.854 -1.13951 5.18834 0
M  V30 6784 C 647.893 -0.343796 6.11134 0
M  V30 6785 N 647.03 -1.2445 6.90982 0
M  V30 6786 H 651.87 0.730921 2.88897 0
M  V30 6787 H 649.407 0.372197 1.42313 0
M  V30 6788 H 651.365 -1.54437 3.87563 0
M  V30 6789 H 649.995 -1.69877 2.74484 0
M  V30 6790 H 649.047 0.492388 3.772 0
M  V30 6791 H 650.359 0.427464 4.96965 0
M  V30 6792 H 649.513 -1.77666 5.80103 0
M  V30 6793 H 648.252 -1.79174 4.53595 0
M  V30 6794 H 647.257 0.30665 5.48944 0
M  V30 6795 H 648.482 0.304161 6.78419 0
M  V30 6796 H 646.428 -1.88336 6.28383 0
M  V30 6797 H 646.345 -0.680959 7.52927 0
M  V30 6798 H 647.613 -1.86952 7.56749 0
M  V30 6799 N 651.842 -1.52309 0.404946 0
M  V30 6800 C 652.805 -2.25491 -0.410651 0
M  V30 6801 C 653.805 -1.27704 -0.977154 0
M  V30 6802 O 654.995 -1.51679 -0.856691 0
M  V30 6803 C 652.127 -3.02197 -1.57765 0
M  V30 6804 H 653.32 -2.99015 0.230277 0
M  V30 6805 H 650.873 -1.55506 0.157377 0
M  V30 6806 H 651.608 -2.33013 -2.25556 0
M  V30 6807 H 651.393 -3.73987 -1.17797 0
M  V30 6808 H 652.883 -3.57719 -2.15469 0
M  V30 6809 N 653.32 -0.135238 -1.57019 0
M  V30 6810 C 654.252 0.839675 -2.13265 0
M  V30 6811 C 655.265 1.21887 -1.07923 0
M  V30 6812 O 656.454 1.16499 -1.35241 0
M  V30 6813 C 653.554 2.13647 -2.63075 0
M  V30 6814 C 652.727 1.92646 -3.92691 0
M  V30 6815 C 651.786 3.06205 -4.27931 0
M  V30 6816 O 650.812 2.78409 -4.96465 0
M  V30 6817 N 652.014 4.33072 -3.86561 0
M  V30 6818 H 654.779 0.359026 -2.97542 0
M  V30 6819 H 652.34 0.0486979 -1.61827 0
M  V30 6820 H 654.332 2.88641 -2.8367 0
M  V30 6821 H 652.902 2.5301 -1.83588 0
M  V30 6822 H 652.122 1.01754 -3.80841 0
M  V30 6823 H 653.41 1.75939 -4.77413 0
M  V30 6824 H 652.808 4.58526 -3.31316 0
M  V30 6825 H 651.365 5.04885 -4.12231 0
M  V30 6826 N 654.798 1.5699 0.138552 0
M  V30 6827 C 655.73 1.95515 1.1961 0
M  V30 6828 C 656.743 0.852002 1.38726 0
M  V30 6829 O 657.932 1.13038 1.38147 0
M  V30 6830 C 655.032 2.2213 2.55952 0
M  V30 6831 C 654.205 3.53424 2.57702 0
M  V30 6832 C 653.264 3.6848 3.75645 0
M  V30 6833 O 652.29 4.4079 3.60129 0
M  V30 6834 N 653.492 3.05777 4.93438 0
M  V30 6835 H 656.257 2.86838 0.868557 0
M  V30 6836 H 653.818 1.58542 0.328033 0
M  V30 6837 H 655.81 2.29435 3.33379 0
M  V30 6838 H 654.38 1.3703 2.80965 0
M  V30 6839 H 653.6 3.57484 1.6613 0
M  V30 6840 H 654.888 4.39759 2.55909 0
M  V30 6841 H 654.286 2.46961 5.08947 0
M  V30 6842 H 652.843 3.18631 5.6861 0
M  V30 6843 N 656.276 -0.40816 1.52223 0
M  V30 6844 C 657.209 -1.51834 1.70357 0
M  V30 6845 C 658.187 -1.52973 0.551171 0
M  V30 6846 O 659.371 -1.71667 0.778642 0
M  V30 6847 C 656.498 -2.90362 1.74378 0
M  V30 6848 C 655.544 -3.0713 2.95928 0
M  V30 6849 S 656.377 -2.80342 4.56255 0
M  V30 6850 C 657.533 -4.21098 4.63063 0
M  V30 6851 H 657.766 -1.36223 2.64255 0
M  V30 6852 H 655.299 -0.599798 1.42274 0
M  V30 6853 H 657.257 -3.70199 1.77379 0
M  V30 6854 H 655.918 -3.03314 0.816063 0
M  V30 6855 H 655.111 -4.08482 2.95226 0
M  V30 6856 H 654.713 -2.3516 2.90819 0
M  V30 6857 H 657.005 -5.14749 4.40499 0
M  V30 6858 H 657.948 -4.26823 5.65002 0
M  V30 6859 H 658.356 -4.06114 3.92086 0
M  V30 6860 N 657.755 -1.42862 -0.66545 0
M  V30 6861 C 659.171 -1.25993 -0.979687 0
M  V30 6862 C 659.371 -0.170831 -2.00775 0
M  V30 6863 O 658.427 0.454827 -2.4837 0
M  V30 6864 C 659.74 -2.62005 -1.47559 0
M  V30 6865 C 661.288 -2.69437 -1.59288 0
M  V30 6866 C 661.763 -4.05838 -2.12272 0
M  V30 6867 N 663.254 -4.0784 -2.19592 0
M  V30 6868 C 663.989 -5.10205 -2.61684 0
M  V30 6869 N 663.485 -6.22949 -3.03161 0
M  V30 6870 N 665.278 -4.9756 -2.61516 0
M  V30 6871 H 657.429 -2.12395 0.0150493 0
M  V30 6872 H 659.692 -0.946355 -0.0558187 0
M  V30 6873 H 659.398 -3.42605 -0.794654 0
M  V30 6874 H 659.272 -2.86566 -2.45275 0
M  V30 6875 H 661.659 -1.89178 -2.26486 0
M  V30 6876 H 661.74 -2.48655 -0.600374 0
M  V30 6877 H 661.384 -4.86559 -1.4568 0
M  V30 6878 H 661.314 -4.23977 -3.12331 0
M  V30 6879 H 663.805 -3.26452 -1.90361 0
M  V30 6880 H 664.118 -6.96899 -3.33993 0
M  V30 6881 H 662.463 -6.2644 -3.00995 0
M  V30 6882 H 665.654 -4.08551 -2.28481 0
M  V30 6883 H 665.827 -5.77468 -2.93999 0
M  V30 6884 N 659.233 0.902656 -1.29189 0
M  V30 6885 C 660.48 1.65287 -1.16989 0
M  V30 6886 C 660.808 1.92485 0.279232 0
M  V30 6887 O 660.063 1.53143 1.21843 0
M  V30 6888 C 660.362 3.011 -1.92545 0
M  V30 6889 C 660.028 2.93521 -3.42281 0
M  V30 6890 C 658.69 2.91161 -3.83117 0
M  V30 6891 C 661.042 2.82947 -4.3771 0
M  V30 6892 C 658.37 2.76043 -5.17704 0
M  V30 6893 C 660.722 2.69368 -5.72384 0
M  V30 6894 C 659.386 2.65373 -6.12482 0
M  V30 6895 H 658.656 0.604828 -0.428094 0
M  V30 6896 H 661.303 1.05084 -1.60092 0
M  V30 6897 H 659.608 3.65153 -1.42024 0
M  V30 6898 H 661.305 3.58073 -1.80512 0
M  V30 6899 H 657.895 2.96158 -3.09819 0
M  V30 6900 H 662.079 2.83849 -4.07116 0
M  V30 6901 H 657.335 2.71352 -5.47885 0
M  V30 6902 H 661.509 2.60156 -6.45981 0
M  V30 6903 H 659.136 2.53415 -7.16718 0
M  V30 6904 N 660.711 1.11618 1.11262 0
M  V30 6905 C 661.643 0.734015 2.17129 0
M  V30 6906 C 662.656 -0.235243 1.61091 0
M  V30 6907 O 663.845 -0.0178597 1.78491 0
M  V30 6908 C 660.945 0.0643682 3.38839 0
M  V30 6909 C 660.118 1.06092 4.24339 0
M  V30 6910 C 659.177 0.420482 5.24517 0
M  V30 6911 O 658.203 1.07495 5.58957 0
M  V30 6912 N 659.405 -0.815828 5.74739 0
M  V30 6913 H 662.17 1.64492 2.50524 0
M  V30 6914 H 659.731 1.00664 1.26801 0
M  V30 6915 H 661.723 -0.375851 4.02951 0
M  V30 6916 H 660.293 -0.749147 3.03491 0
M  V30 6917 H 659.513 1.67903 3.56654 0
M  V30 6918 H 660.801 1.73507 4.78302 0
M  V30 6919 H 660.199 -1.36668 5.48943 0
M  V30 6920 H 658.756 -1.199 6.40677 0
M  V30 6921 N 662.189 -1.289 0.906776 0
M  V30 6922 C 663.435 -1.95558 0.53712 0
M  V30 6923 C 663.768 -1.71262 -0.915582 0
M  V30 6924 O 663.043 -1.02961 -1.65013 0
M  V30 6925 C 663.326 -3.50198 0.838645 0
M  V30 6926 C 663.179 -3.83923 2.34357 0
M  V30 6927 C 664.498 -4.38861 0.329988 0
M  V30 6928 H 661.617 -0.710289 0.196617 0
M  V30 6929 H 664.259 -1.52392 1.13475 0
M  V30 6930 H 662.409 -3.87096 0.330024 0
M  V30 6931 H 664.081 -3.56933 2.92227 0
M  V30 6932 H 662.324 -3.31215 2.80141 0
M  V30 6933 H 662.995 -4.91883 2.5051 0
M  V30 6934 H 665.471 -4.08996 0.765609 0
M  V30 6935 H 664.347 -5.45931 0.570105 0
M  V30 6936 H 664.608 -4.35352 -0.769511 0
M  V30 6937 N 663.667 -0.670007 -1.42649 0
M  V30 6938 C 664.617 0.0339546 -2.27975 0
M  V30 6939 C 665.601 0.778295 -1.40824 0
M  V30 6940 O 666.793 0.657997 -1.64315 0
M  V30 6941 C 663.922 0.987899 -3.28779 0
M  V30 6942 C 663.008 0.241153 -4.23414 0
M  V30 6943 N 663.399 -0.751392 -5.00188 0
M  V30 6944 C 661.697 0.480269 -4.43407 0
M  V30 6945 C 662.398 -1.19615 -5.69269 0
M  V30 6946 N 661.374 -0.527045 -5.41039 0
M  V30 6947 H 665.176 -0.727425 -2.84756 0
M  V30 6948 H 662.69 -0.498673 -1.54554 0
M  V30 6949 H 664.687 1.50716 -3.88703 0
M  V30 6950 H 663.347 1.74916 -2.73559 0
M  V30 6951 H 664.358 -1.13075 -5.05405 0
M  V30 6952 H 661.035 1.2214 -3.99234 0
M  V30 6953 H 662.425 -2.01836 -6.40868 0
M  V30 6954 N 665.145 1.52092 -0.413018 0
M  V30 6955 C 666.373 2.06274 0.160881 0
M  V30 6956 C 666.788 1.28273 1.38533 0
M  V30 6957 O 666.145 0.33563 1.79387 0
M  V30 6958 C 666.196 3.57921 0.507443 0
M  V30 6959 O 665.917 4.32971 -0.668388 0
M  V30 6960 C 667.418 4.28533 1.13465 0
M  V30 6961 H 664.638 0.67074 0.0186759 0
M  V30 6962 H 667.182 1.95951 -0.585092 0
M  V30 6963 H 665.337 3.68238 1.20331 0
M  V30 6964 H 665.751 5.23135 -0.378169 0
M  V30 6965 H 667.225 5.35804 1.32732 0
M  V30 6966 H 667.702 3.85258 2.10886 0
M  V30 6967 H 668.308 4.22595 0.478876 0
M  V30 6968 N 666.623 0.143563 1.56945 0
M  V30 6969 C 667.573 -0.809115 2.1316 0
M  V30 6970 C 668.557 -1.21176 1.05855 0
M  V30 6971 O 669.749 -1.17875 1.3204 0
M  V30 6972 C 666.878 -2.04957 2.75405 0
M  V30 6973 C 665.964 -1.67018 3.89828 0
M  V30 6974 N 666.355 -0.998822 4.9584 0
M  V30 6975 C 664.653 -1.96313 4.00471 0
M  V30 6976 C 665.354 -0.816217 5.75945 0
M  V30 6977 N 664.33 -1.349 5.26596 0
M  V30 6978 H 668.132 -0.286919 2.92496 0
M  V30 6979 H 665.646 -0.0580948 1.62296 0
M  V30 6980 H 667.643 -2.74201 3.14037 0
M  V30 6981 H 666.303 -2.57697 1.97541 0
M  V30 6982 H 667.314 -0.659975 5.13678 0
M  V30 6983 H 663.991 -2.50927 3.33679 0
M  V30 6984 H 665.381 -0.287353 6.71285 0
M  V30 6985 N 668.101 -1.57061 -0.130224 0
M  V30 6986 C 669.031 -2.02552 -1.16168 0
M  V30 6987 C 670.012 -0.907971 -1.4384 0
M  V30 6988 O 671.197 -1.17693 -1.54473 0
M  V30 6989 C 668.327 -2.42035 -2.49071 0
M  V30 6990 C 667.281 -3.5713 -2.35886 0
M  V30 6991 C 666.607 -3.82478 -3.7365 0
M  V30 6992 C 667.907 -4.89236 -1.8288 0
M  V30 6993 H 669.601 -2.8897 -0.783359 0
M  V30 6994 H 667.147 -1.39021 -0.375376 0
M  V30 6995 H 669.1 -2.72462 -3.21469 0
M  V30 6996 H 667.824 -1.52573 -2.88771 0
M  V30 6997 H 666.483 -3.26895 -1.65938 0
M  V30 6998 H 666.131 -2.9024 -4.10816 0
M  V30 6999 H 665.831 -4.59944 -3.65685 0
M  V30 7000 H 667.355 -4.15347 -4.47571 0
M  V30 7001 H 668.769 -5.18272 -2.45085 0
M  V30 7002 H 667.166 -5.70624 -1.85763 0
M  V30 7003 H 668.236 -4.78494 -0.785571 0
M  V30 7004 N 669.579 0.400081 -1.52437 0
M  V30 7005 C 670.511 1.50729 -1.72666 0
M  V30 7006 C 671.524 1.51058 -0.607075 0
M  V30 7007 O 672.713 1.5516 -0.88248 0
M  V30 7008 C 669.813 2.89604 -1.76019 0
M  V30 7009 C 668.986 3.13365 -3.05157 0
M  V30 7010 C 668.045 4.32163 -3.00203 0
M  V30 7011 O 667.071 4.29004 -3.74092 0
M  V30 7012 N 668.273 5.3776 -2.18619 0
M  V30 7013 H 671.038 1.33767 -2.68191 0
M  V30 7014 H 668.599 0.58948 -1.50787 0
M  V30 7015 H 670.591 3.67159 -1.70225 0
M  V30 7016 H 669.161 2.99979 -0.879284 0
M  V30 7017 H 668.381 2.23774 -3.24529 0
M  V30 7018 H 669.669 3.26089 -3.90568 0
M  V30 7019 H 669.067 5.43177 -1.58035 0
M  V30 7020 H 667.624 6.14023 -2.18674 0
M  V30 7021 N 671.057 1.43213 0.657864 0
M  V30 7022 C 672.303 1.44798 1.41991 0
M  V30 7023 C 672.636 0.070256 1.94073 0
M  V30 7024 O 671.911 -0.908177 1.71995 0
M  V30 7025 C 672.194 2.4865 2.60471 0
M  V30 7026 C 672.047 3.95679 2.13911 0
M  V30 7027 C 673.366 2.49292 3.62686 0
M  V30 7028 H 670.485 0.527244 0.514959 0
M  V30 7029 H 673.127 1.74733 0.74621 0
M  V30 7030 H 671.277 2.23254 3.17946 0
M  V30 7031 H 672.949 4.32116 1.61472 0
M  V30 7032 H 671.192 4.08733 1.45325 0
M  V30 7033 H 671.863 4.6395 2.99089 0
M  V30 7034 H 674.339 2.71917 3.14961 0
M  V30 7035 H 673.215 3.23907 4.43143 0
M  V30 7036 H 673.476 1.52502 4.14964 0
M  V30 7037 N 672.536 -0.895792 1.29666 0
M  V30 7038 C 673.785 -1.64131 1.17234 0
M  V30 7039 C 674.098 -1.93665 -0.274416 0
M  V30 7040 O 675.304 -2.66472 -0.520105 0
M  V30 7041 C 673.76 -2.95764 2.05065 0
M  V30 7042 C 673.368 -2.7381 3.54587 0
M  V30 7043 C 675.112 -3.737 2.01367 0
M  V30 7044 C 673.019 -4.01194 4.34508 0
M  V30 7045 H 671.949 -0.615742 0.435175 0
M  V30 7046 H 674.6 -0.992626 1.54335 0
M  V30 7047 H 672.982 -3.61867 1.60837 0
M  V30 7048 H 674.156 -2.16277 4.06892 0
M  V30 7049 H 672.471 -2.09265 3.59996 0
M  V30 7050 H 675.068 -4.68152 2.58337 0
M  V30 7051 H 675.411 -4.04245 0.994575 0
M  V30 7052 H 675.944 -3.14444 2.43659 0
M  V30 7053 H 672.683 -3.75813 5.37071 0
M  V30 7054 H 672.203 -4.58272 3.86971 0
M  V30 7055 H 673.882 -4.69307 4.45376 0
M  V30 7056 N 674.014 -1.12206 -1.10668 0
M  V30 7057 C 674.924 -0.800686 -2.20513 0
M  V30 7058 C 675.94 0.209512 -1.72734 0
M  V30 7059 O 677.116 0.043705 -2.01353 0
M  V30 7060 C 674.181 -0.257353 -3.45744 0
M  V30 7061 C 673.242 -1.32718 -4.0827 0
M  V30 7062 C 672.475 -0.809674 -5.27522 0
M  V30 7063 O 672.698 0.35742 -5.69279 0
M  V30 7064 O 671.632 -1.57816 -5.80842 0
M  V30 7065 H 675.458 -1.71807 -2.50432 0
M  V30 7066 H 673.043 -0.898546 -1.19359 0
M  V30 7067 H 674.925 0.0408849 -4.2138 0
M  V30 7068 H 673.6 0.632627 -3.17458 0
M  V30 7069 H 672.507 -1.67855 -3.34329 0
M  V30 7070 H 673.84 -2.19083 -4.40753 0
M  V30 7071 N 675.492 1.28418 -0.913599 0
M  V30 7072 C 676.402 2.31043 -0.406965 0
M  V30 7073 C 677.418 1.66501 0.505298 0
M  V30 7074 O 678.594 1.97558 0.391522 0
M  V30 7075 C 675.659 3.4498 0.344901 0
M  V30 7076 C 674.72 4.25078 -0.600563 0
M  V30 7077 C 673.953 5.33575 0.115516 0
M  V30 7078 O 674.176 5.54503 1.33727 0
M  V30 7079 O 673.11 5.9939 -0.549095 0
M  V30 7080 H 676.936 2.76387 -1.25873 0
M  V30 7081 H 674.521 1.33109 -0.678415 0
M  V30 7082 H 676.403 4.14314 0.769542 0
M  V30 7083 H 675.078 3.01719 1.1725 0
M  V30 7084 H 673.985 3.58334 -1.0746 0
M  V30 7085 H 675.318 4.72018 -1.39497 0
M  V30 7086 N 676.97 0.677563 1.42291 0
M  V30 7087 C 678.386 0.347376 1.55774 0
M  V30 7088 C 678.586 -1.14703 1.65667 0
M  V30 7089 O 677.642 -1.93252 1.62512 0
M  V30 7090 C 678.955 1.08011 2.80631 0
M  V30 7091 C 680.503 1.06271 2.94407 0
M  V30 7092 C 680.978 1.77683 4.22129 0
M  V30 7093 N 682.469 1.74564 4.29047 0
M  V30 7094 C 683.204 2.26673 5.26694 0
M  V30 7095 N 682.7 2.87176 6.30477 0
M  V30 7096 N 684.493 2.17032 5.18511 0
M  V30 7097 H 676.644 1.64703 1.34114 0
M  V30 7098 H 678.907 0.694038 0.645768 0
M  V30 7099 H 678.613 2.13518 2.79469 0
M  V30 7100 H 678.487 0.647115 3.71608 0
M  V30 7101 H 680.874 0.0159658 2.95096 0
M  V30 7102 H 680.955 1.53461 2.04654 0
M  V30 7103 H 680.599 2.82327 4.22201 0
M  V30 7104 H 680.529 1.2794 5.10822 0
M  V30 7105 H 683.02 1.30436 3.54676 0
M  V30 7106 H 683.333 3.24551 7.01346 0
M  V30 7107 H 681.678 2.91247 6.31031 0
M  V30 7108 H 684.869 1.69451 4.36353 0
M  V30 7109 H 685.042 2.57948 5.94446 0
M  V30 7110 N 678.448 -1.51871 0.421078 0
M  V30 7111 C 679.694 -2.02237 -0.151014 0
M  V30 7112 C 680.027 -1.30554 -1.43768 0
M  V30 7113 O 679.302 -0.41546 -1.90011 0
M  V30 7114 C 679.585 -3.5802 -0.386482 0
M  V30 7115 C 679.438 -4.40339 0.9177 0
M  V30 7116 C 680.757 -4.24444 -1.16342 0
M  V30 7117 H 677.876 -0.735062 -0.0534102 0
M  V30 7118 H 680.518 -1.81656 0.556888 0
M  V30 7119 H 678.668 -3.75688 -0.989494 0
M  V30 7120 H 680.34 -4.34357 1.55344 0
M  V30 7121 H 678.583 -4.06073 1.526 0
M  V30 7122 H 679.254 -5.47451 0.707187 0
M  V30 7123 H 681.73 -4.10948 -0.652788 0
M  V30 7124 H 680.606 -5.33358 -1.29693 0
M  V30 7125 H 680.867 -3.84204 -2.18724 0
M  V30 7126 N 679.926 -0.151884 -1.56866 0
M  V30 7127 C 680.874 0.80299 -2.183 0
M  V30 7128 C 681.868 1.25174 -1.14139 0
M  V30 7129 O 683.074 1.21966 -1.3238 0
M  V30 7130 H 679.449 0.277169 -0.699057 0
M  V30 7131 H 681.42 0.260699 -2.97259 0
M  V30 7132 C 680.169 2.03009 -2.82281 0
M  V30 7133 H 679.492 1.69377 -3.62148 0
M  V30 7134 H 680.932 2.67753 -3.28762 0
M  V30 7135 C 679.391 2.84123 -1.81041 0
M  V30 7136 O 679.921 3.8063 -1.28388 0
M  V30 7137 N 678.127 2.48753 -1.50234 0
M  V30 7138 H 677.674 1.70337 -1.93244 0
M  V30 7139 H 677.632 3.03316 -0.827445 0
M  V30 7140 N 681.404 1.57128 0.121893 0
M  V30 7141 C 682.336 1.96773 1.17529 0
M  V30 7142 C 683.349 0.866668 1.37814 0
M  V30 7143 O 684.538 1.14497 1.3694 0
M  V30 7144 C 681.638 2.24832 2.53582 0
M  V30 7145 C 680.811 3.56138 2.53939 0
M  V30 7146 C 679.87 3.72443 3.71716 0
M  V30 7147 O 678.896 4.44584 3.55434 0
M  V30 7148 N 680.098 3.10993 4.90167 0
M  V30 7149 H 682.863 2.87743 0.838086 0
M  V30 7150 H 680.424 1.58881 0.311199 0
M  V30 7151 H 682.416 2.32958 3.30927 0
M  V30 7152 H 680.986 1.40002 2.79496 0
M  V30 7153 H 680.206 3.59226 1.62329 0
M  V30 7154 H 681.494 4.42448 2.51231 0
M  V30 7155 H 680.892 2.52345 5.06299 0
M  V30 7156 H 679.449 3.24644 5.65198 0
M  V30 7157 N 682.882 -0.391992 1.52647 0
M  V30 7158 C 684.107 -1.16312 1.71716 0
M  V30 7159 C 684.532 -1.83042 0.433279 0
M  V30 7160 O 683.89 -1.70705 -0.610707 0
M  V30 7161 C 683.938 -2.18908 2.86551 0
M  V30 7162 O 683.042 -3.2543 2.53316 0
M  V30 7163 H 682.383 -0.338743 0.571095 0
M  V30 7164 H 684.913 -0.457202 1.99426 0
M  V30 7165 H 684.923 -2.62954 3.1196 0
M  V30 7166 H 683.598 -1.69726 3.79692 0
M  V30 7167 H 682.175 -2.86543 2.38637 0
M  V30 7168 N 684.36 -1.4356 -0.65026 0
M  V30 7169 C 685.29 -1.51758 -1.77459 0
M  V30 7170 C 686.271 -0.372019 -1.65982 0
M  V30 7171 O 687.456 -0.589627 -1.85033 0
M  V30 7172 C 684.586 -1.44302 -3.15902 0
M  V30 7173 C 683.54 -2.57138 -3.42146 0
M  V30 7174 C 682.866 -2.34735 -4.8042 0
M  V30 7175 C 684.166 -3.99373 -3.36598 0
M  V30 7176 H 685.86 -2.45863 -1.70855 0
M  V30 7177 H 683.406 -1.18333 -0.820566 0
M  V30 7178 H 685.359 -1.48641 -3.94314 0
M  V30 7179 H 684.083 -0.467026 -3.23244 0
M  V30 7180 H 682.742 -2.52157 -2.66106 0
M  V30 7181 H 682.39 -1.35372 -4.84441 0
M  V30 7182 H 682.09 -3.10375 -4.9894 0
M  V30 7183 H 683.614 -2.40862 -5.61086 0
M  V30 7184 H 685.028 -4.05826 -4.04942 0
M  V30 7185 H 683.425 -4.75063 -3.66654 0
M  V30 7186 H 684.495 -4.243 -2.34729 0
M  V30 7187 N 685.838 0.888903 -1.30139 0
M  V30 7188 C 687.086 1.63713 -1.18501 0
M  V30 7189 C 687.407 1.9324 0.261399 0
M  V30 7190 O 686.677 1.56608 1.17689 0
M  V30 7191 H 685.257 0.606861 -0.435579 0
M  V30 7192 H 687.919 1.06525 -1.63213 0
M  V30 7193 H 687.015 2.58894 -1.743 0
M  V30 7194 N 687.317 1.12792 1.10072 0
M  V30 7195 C 688.247 0.821688 2.18565 0
M  V30 7196 C 689.228 -0.21612 1.68721 0
M  V30 7197 O 690.413 -0.0764932 1.94049 0
M  V30 7198 C 687.543 0.279624 3.46172 0
M  V30 7199 C 686.497 1.25092 4.09312 0
M  V30 7200 C 685.823 0.568916 5.31665 0
M  V30 7201 C 687.123 2.60699 4.52585 0
M  V30 7202 H 688.817 1.72888 2.44438 0
M  V30 7203 H 686.363 0.832702 1.17482 0
M  V30 7204 H 688.316 0.053099 4.21367 0
M  V30 7205 H 687.04 -0.662929 3.19801 0
M  V30 7206 H 685.699 1.46332 3.36129 0
M  V30 7207 H 685.347 -0.378898 5.01571 0
M  V30 7208 H 685.047 1.21687 5.74862 0
M  V30 7209 H 686.571 0.351517 6.09587 0
M  V30 7210 H 687.985 2.43465 5.19035 0
M  V30 7211 H 686.382 3.21608 5.06644 0
M  V30 7212 H 687.452 3.1886 3.65317 0
M  V30 7213 N 688.795 -1.27931 0.920396 0
M  V30 7214 C 689.725 -2.29487 0.431024 0
M  V30 7215 C 690.706 -1.62435 -0.504861 0
M  V30 7216 O 691.891 -1.89797 -0.411176 0
M  V30 7217 C 689.021 -3.45788 -0.323709 0
M  V30 7218 C 687.975 -4.24784 0.523658 0
M  V30 7219 C 687.301 -5.33488 -0.359809 0
M  V30 7220 C 688.601 -4.90874 1.78437 0
M  V30 7221 H 690.295 -2.70671 1.27975 0
M  V30 7222 H 687.841 -1.30121 0.616813 0
M  V30 7223 H 689.794 -4.15927 -0.676952 0
M  V30 7224 H 688.518 -3.03502 -1.2064 0
M  V30 7225 H 687.177 -3.56382 0.85951 0
M  V30 7226 H 686.825 -4.87445 -1.24124 0
M  V30 7227 H 686.525 -5.87247 0.203605 0
M  V30 7228 H 688.049 -6.06472 -0.708787 0
M  V30 7229 H 689.463 -5.53339 1.49963 0
M  V30 7230 H 687.86 -5.54659 2.29071 0
M  V30 7231 H 688.93 -4.14988 2.50824 0
M  V30 7232 N 690.273 -0.685099 -1.4193 0
M  V30 7233 C 691.55 -0.140152 -1.95097 0
M  V30 7234 C 691.93 1.34745 -1.62502 0
M  V30 7235 O 691.278 2.08872 -0.926534 0
M  V30 7236 C 691.488 -0.420268 -3.4646 0
M  V30 7237 C 692.836 -0.342338 -4.23218 0
M  V30 7238 O 693.86 -0.354592 -3.54431 0
M  V30 7239 O 692.719 -0.293404 -5.45712 0
M  V30 7240 H 689.813 -0.00885998 -0.826953 0
M  V30 7241 H 692.359 -0.760539 -1.51703 0
M  V30 7242 H 691.131 -1.45037 -3.63428 0
M  V30 7243 H 690.754 0.231616 -3.96925 0
M  V30 7244 N 691.751 1.51645 -0.429126 0
M  V30 7245 C 692.683 2.25279 0.422124 0
M  V30 7246 C 693.696 1.28986 0.993299 0
M  V30 7247 O 694.885 1.54797 0.888836 0
M  V30 7248 C 691.985 2.98666 1.60162 0
M  V30 7249 C 691.158 4.2199 1.15078 0
M  V30 7250 C 690.217 4.78028 2.19946 0
M  V30 7251 O 689.243 5.40084 1.79716 0
M  V30 7252 N 690.445 4.61342 3.5234 0
M  V30 7253 H 693.21 2.98971 -0.208931 0
M  V30 7254 H 690.771 1.59838 -0.257568 0
M  V30 7255 H 692.763 3.33044 2.29922 0
M  V30 7256 H 691.333 2.28036 2.13818 0
M  V30 7257 H 690.553 3.932 0.280552 0
M  V30 7258 H 691.841 5.02037 0.826831 0
M  V30 7259 H 691.239 4.11894 3.87763 0
M  V30 7260 H 689.796 5.00104 4.18019 0
M  V30 7261 N 693.229 0.160201 1.56784 0
M  V30 7262 C 694.177 -0.791402 2.18723 0
M  V30 7263 C 695.171 -1.24567 1.14801 0
M  V30 7264 O 696.377 -1.21262 1.33025 0
M  V30 7265 H 692.752 -0.273458 0.700517 0
M  V30 7266 H 694.723 -0.244931 2.97393 0
M  V30 7267 C 693.472 -2.01509 2.83354 0
M  V30 7268 H 692.795 -1.67454 3.63041 0
M  V30 7269 H 694.235 -2.66006 3.30177 0
M  V30 7270 C 692.694 -2.83159 1.82545 0
M  V30 7271 O 693.224 -3.79944 1.30405 0
M  V30 7272 N 691.43 -2.47953 1.51552 0
M  V30 7273 H 690.977 -1.69309 1.94144 0
M  V30 7274 H 690.935 -3.02873 0.843519 0
M  V30 7275 N 694.707 -1.5719 -0.113559 0
M  V30 7276 C 696.118 -1.74259 -0.670116 0
M  V30 7277 C 696.469 -0.779694 -1.80042 0
M  V30 7278 O 695.594 0.0461353 -2.16351 0
M  V30 7279 C 696.189 -3.15981 -1.22236 0
M  V30 7280 C 694.748 -3.34537 -1.72516 0
M  V30 7281 C 693.895 -2.70116 -0.627098 0
M  V30 7282 H 696.846 -1.58301 0.112396 0
M  V30 7283 H 696.867 -3.17832 -2.09197 0
M  V30 7284 H 696.379 -3.86038 -0.39949 0
M  V30 7285 H 694.48 -2.6953 -2.57263 0
M  V30 7286 H 694.593 -4.42737 -1.83086 0
M  V30 7287 H 692.957 -2.31501 -1.06204 0
M  V30 7288 H 693.74 -3.42802 0.184889 0
M  V30 7289 N 696.185 0.383891 -1.52853 0
M  V30 7290 C 697.135 1.46892 -1.74375 0
M  V30 7291 C 698.119 1.49378 -0.597909 0
M  V30 7292 O 699.311 1.54929 -0.855929 0
M  V30 7293 C 696.44 2.84547 -1.92063 0
M  V30 7294 C 695.526 2.8661 -3.12594 0
M  V30 7295 N 695.917 2.58339 -4.3485 0
M  V30 7296 C 694.215 3.17777 -3.12944 0
M  V30 7297 C 694.916 2.67616 -5.16485 0
M  V30 7298 N 693.892 3.01561 -4.52285 0
M  V30 7299 H 697.694 1.23869 -2.66522 0
M  V30 7300 H 695.208 0.591895 -1.51229 0
M  V30 7301 H 697.205 3.62674 -2.05604 0
M  V30 7302 H 695.865 3.08549 -1.01133 0
M  V30 7303 H 696.876 2.32266 -4.62896 0
M  V30 7304 H 693.553 3.47211 -2.31842 0
M  V30 7305 H 694.943 2.4926 -6.23955 0
M  V30 7306 N 697.663 1.43903 0.642637 0
M  V30 7307 C 698.593 1.52697 1.76652 0
M  V30 7308 C 699.574 0.380816 1.65782 0
M  V30 7309 O 700.759 0.599432 1.84717 0
M  V30 7310 C 697.889 1.45975 3.15133 0
M  V30 7311 C 696.843 2.58949 3.40778 0
M  V30 7312 C 696.169 2.37279 4.79169 0
M  V30 7313 C 697.469 4.01153 3.34475 0
M  V30 7314 H 699.163 2.46766 1.69549 0
M  V30 7315 H 696.709 1.18767 0.814279 0
M  V30 7316 H 698.662 1.5073 3.93521 0
M  V30 7317 H 697.386 0.484162 3.22991 0
M  V30 7318 H 696.045 2.53564 2.64765 0
M  V30 7319 H 695.693 1.37939 4.83717 0
M  V30 7320 H 695.393 3.13016 4.97287 0
M  V30 7321 H 696.917 2.43834 5.59801 0
M  V30 7322 H 698.331 4.07968 4.02784 0
M  V30 7323 H 696.728 4.77001 3.64129 0
M  V30 7324 H 697.798 4.25539 2.32475 0
M  V30 7325 N 699.141 -0.881989 1.30609 0
M  V30 7326 C 700.104 -1.96957 1.1722 0
M  V30 7327 C 701.104 -1.60472 0.102598 0
M  V30 7328 O 702.294 -1.70628 0.350943 0
M  V30 7329 C 699.426 -3.31463 0.796572 0
M  V30 7330 H 700.619 -2.10262 2.13846 0
M  V30 7331 H 698.172 -1.06877 1.14048 0
M  V30 7332 H 698.907 -3.23859 -0.169053 0
M  V30 7333 H 698.692 -3.59314 1.56959 0
M  V30 7334 H 700.182 -4.11233 0.72645 0
M  V30 7335 N 700.619 -1.13374 -1.09472 0
M  V30 7336 C 701.551 -0.768466 -2.15933 0
M  V30 7337 C 702.564 0.209585 -1.61445 0
M  V30 7338 O 703.753 -0.010539 -1.78497 0
M  V30 7339 C 700.853 -0.118266 -3.38694 0
M  V30 7340 C 700.026 -1.12829 -4.22597 0
M  V30 7341 C 699.085 -0.503875 -5.23782 0
M  V30 7342 O 698.111 -1.16374 -5.57177 0
M  V30 7343 N 699.313 0.724288 -5.75964 0
M  V30 7344 H 702.078 -1.68457 -2.47876 0
M  V30 7345 H 699.639 -1.02668 -1.25183 0
M  V30 7346 H 701.631 0.311698 -4.03498 0
M  V30 7347 H 700.201 0.700769 -3.04644 0
M  V30 7348 H 699.421 -1.73556 -3.53938 0
M  V30 7349 H 700.709 -1.81095 -4.75481 0
M  V30 7350 H 700.107 1.27918 -5.51048 0
M  V30 7351 H 698.664 1.09692 -6.42504 0
M  V30 7352 N 702.098 1.27442 -0.927168 0
M  V30 7353 C 703.008 2.30599 -0.431448 0
M  V30 7354 C 704.024 1.67028 0.48761 0
M  V30 7355 O 705.2 1.97962 0.370546 0
M  V30 7356 C 702.265 3.45327 0.308292 0
M  V30 7357 C 701.326 4.24418 -0.645615 0
M  V30 7358 C 700.559 5.33667 0.0589164 0
M  V30 7359 O 700.782 5.5589 1.27838 0
M  V30 7360 O 699.716 5.98774 -0.612638 0
M  V30 7361 H 703.542 2.75036 -1.28797 0
M  V30 7362 H 701.127 1.32382 -0.692495 0
M  V30 7363 H 703.009 4.15107 0.725555 0
M  V30 7364 H 701.684 3.02945 1.14043 0
M  V30 7365 H 700.591 3.57174 -1.11255 0
M  V30 7366 H 701.924 4.70512 -1.44496 0
M  V30 7367 N 703.576 0.692616 1.41565 0
M  V30 7368 C 704.506 0.0397325 2.33466 0
M  V30 7369 C 705.487 -0.770334 1.51657 0
M  V30 7370 O 706.672 -0.723903 1.80203 0
M  V30 7371 C 703.802 -0.899495 3.3545 0
M  V30 7372 C 702.756 -0.196738 4.27548 0
M  V30 7373 C 702.082 -1.25012 5.19881 0
M  V30 7374 C 703.382 0.935158 5.1386 0
M  V30 7375 H 705.076 0.807296 2.88311 0
M  V30 7376 H 702.622 0.389665 1.38628 0
M  V30 7377 H 704.575 -1.36545 3.98665 0
M  V30 7378 H 703.299 -1.69869 2.78948 0
M  V30 7379 H 701.958 0.249158 3.65752 0
M  V30 7380 H 701.606 -2.04177 4.59696 0
M  V30 7381 H 701.306 -0.784931 5.82334 0
M  V30 7382 H 702.83 -1.71665 5.85972 0
M  V30 7383 H 704.244 0.549619 5.70659 0
M  V30 7384 H 702.641 1.32726 5.85238 0
M  V30 7385 H 703.711 1.77613 4.512 0
M  V30 7386 N 705.054 -1.51416 0.437162 0
M  V30 7387 C 706.47 -1.59349 0.0894459 0
M  V30 7388 C 706.67 -1.44809 -1.40116 0
M  V30 7389 O 705.726 -1.28924 -2.17106 0
M  V30 7390 C 707.039 -2.9446 0.609398 0
M  V30 7391 C 708.587 -3.07769 0.569824 0
M  V30 7392 C 709.062 -4.45404 1.06675 0
M  V30 7393 N 710.553 -4.51723 1.02473 0
M  V30 7394 C 711.288 -5.56544 1.3801 0
M  V30 7395 N 710.784 -6.68784 1.80831 0
M  V30 7396 N 712.577 -5.46901 1.29828 0
M  V30 7397 H 704.728 -1.59112 1.40703 0
M  V30 7398 H 706.991 -0.750031 0.579791 0
M  V30 7399 H 706.697 -3.1047 1.65231 0
M  V30 7400 H 706.571 -3.77184 0.0342236 0
M  V30 7401 H 708.958 -2.91428 -0.464107 0
M  V30 7402 H 709.039 -2.26885 1.1814 0
M  V30 7403 H 708.683 -4.62492 2.09914 0
M  V30 7404 H 708.613 -5.24827 0.431712 0
M  V30 7405 H 711.104 -3.71165 0.710258 0
M  V30 7406 H 711.417 -7.44787 2.06185 0
M  V30 7407 H 709.762 -6.69992 1.84757 0
M  V30 7408 H 712.953 -4.581 0.962397 0
M  V30 7409 H 713.126 -6.2848 1.57851 0
M  V30 7410 N 706.532 -0.168513 -1.56696 0
M  V30 7411 C 707.943 0.348694 -1.83415 0
M  V30 7412 C 708.294 1.63257 -1.0882 0
M  V30 7413 O 707.419 2.13707 -0.340333 0
M  V30 7414 C 708.014 0.639423 -3.32711 0
M  V30 7415 C 706.573 1.10108 -3.59935 0
M  V30 7416 C 705.72 0.135464 -2.76969 0
M  V30 7417 H 708.671 -0.392829 -1.53761 0
M  V30 7418 H 708.692 1.49179 -3.50037 0
M  V30 7419 H 708.204 -0.295173 -3.86976 0
M  V30 7420 H 706.305 2.05088 -3.11079 0
M  V30 7421 H 706.418 1.01218 -4.68286 0
M  V30 7422 H 704.782 0.632286 -2.46727 0
M  V30 7423 H 705.565 -0.793104 -3.34013 0
M  V30 7424 N 708.01 1.57248 0.105221 0
M  V30 7425 C 708.942 1.98008 1.15436 0
M  V30 7426 C 709.955 0.881236 1.36887 0
M  V30 7427 O 711.144 1.15943 1.35718 0
M  V30 7428 C 708.244 2.27509 2.51183 0
M  V30 7429 C 707.417 3.58811 2.50147 0
M  V30 7430 C 706.476 3.76365 3.67745 0
M  V30 7431 O 705.502 4.48329 3.50699 0
M  V30 7432 N 706.704 3.16174 4.86841 0
M  V30 7433 H 709.469 2.88616 0.807519 0
M  V30 7434 H 707.03 1.59202 0.29433 0
M  V30 7435 H 709.022 2.36455 3.28438 0
M  V30 7436 H 707.592 1.42959 2.77995 0
M  V30 7437 H 706.812 3.60927 1.5851 0
M  V30 7438 H 708.1 4.45088 2.46524 0
M  V30 7439 H 707.498 2.57701 5.03594 0
M  V30 7440 H 706.055 3.30621 5.61723 0
M  V30 7441 N 709.488 -0.375779 1.53054 0
M  V30 7442 C 710.737 -1.11674 1.67964 0
M  V30 7443 C 711.05 -1.90755 0.432655 0
M  V30 7444 O 712.256 -2.67538 0.462109 0
M  V30 7445 C 710.712 -2.0344 2.96884 0
M  V30 7446 C 710.32 -1.29719 4.28809 0
M  V30 7447 C 712.064 -2.7759 3.2116 0
M  V30 7448 C 709.971 -2.20327 5.48826 0
M  V30 7449 H 708.901 -0.420597 0.625791 0
M  V30 7450 H 711.552 -0.378499 1.79554 0
M  V30 7451 H 709.934 -2.80953 2.79072 0
M  V30 7452 H 711.108 -0.573394 4.57219 0
M  V30 7453 H 709.423 -0.674735 4.10897 0
M  V30 7454 H 712.02 -3.4559 4.0801 0
M  V30 7455 H 712.363 -3.42399 2.36789 0
M  V30 7456 H 712.896 -2.07164 3.396 0
M  V30 7457 H 709.635 -1.60113 6.35645 0
M  V30 7458 H 709.155 -2.90585 5.2471 0
M  V30 7459 H 710.834 -2.80116 5.83219 0
M  V30 7460 N 710.966 -1.44241 -0.634997 0
M  V30 7461 C 711.898 -1.46793 -1.76024 0
M  V30 7462 C 712.911 -0.361781 -1.58729 0
M  V30 7463 O 714.1 -0.627297 -1.67114 0
M  V30 7464 C 711.2 -1.28248 -3.13697 0
M  V30 7465 C 710.373 -2.52038 -3.57485 0
M  V30 7466 C 709.432 -2.2845 -4.74022 0
M  V30 7467 O 708.458 -3.01915 -4.82531 0
M  V30 7468 N 709.66 -1.31264 -5.65464 0
M  V30 7469 H 712.425 -2.43797 -1.74307 0
M  V30 7470 H 709.986 -1.39631 -0.819438 0
M  V30 7471 H 711.978 -1.10321 -3.89373 0
M  V30 7472 H 710.548 -0.39623 -3.10079 0
M  V30 7473 H 709.768 -2.85268 -2.72059 0
M  V30 7474 H 711.056 -3.34382 -3.83492 0
M  V30 7475 H 710.454 -0.705817 -5.6128 0
M  V30 7476 H 709.011 -1.19316 -6.40786 0
M  V30 7477 N 712.444 0.87505 -1.31075 0
M  V30 7478 C 713.354 2.01441 -1.20244 0
M  V30 7479 C 714.37 1.73584 -0.120227 0
M  V30 7480 O 715.546 1.98559 -0.337063 0
M  V30 7481 C 712.611 3.34675 -0.905199 0
M  V30 7482 C 711.672 3.75889 -2.0738 0
M  V30 7483 C 710.905 5.02764 -1.79064 0
M  V30 7484 O 711.128 5.65795 -0.723318 0
M  V30 7485 O 710.062 5.40623 -2.64594 0
M  V30 7486 H 713.888 2.13509 -2.1598 0
M  V30 7487 H 711.473 1.00257 -1.10765 0
M  V30 7488 H 713.355 4.1458 -0.755057 0
M  V30 7489 H 712.03 3.23692 0.0221695 0
M  V30 7490 H 710.937 2.96645 -2.27931 0
M  V30 7491 H 712.27 3.91489 -2.98324 0
M  V30 7492 N 713.922 1.13953 1.08869 0
M  V30 7493 C 714.852 0.844824 2.17681 0
M  V30 7494 C 715.833 -0.198213 1.68941 0
M  V30 7495 O 717.018 -0.0559073 1.9412 0
M  V30 7496 C 714.148 0.316325 3.45856 0
M  V30 7497 C 713.102 1.29426 4.07962 0
M  V30 7498 C 712.428 0.625275 5.31031 0
M  V30 7499 C 713.728 2.65484 4.49795 0
M  V30 7500 H 715.422 1.75471 2.42591 0
M  V30 7501 H 712.968 0.845116 1.16592 0
M  V30 7502 H 714.921 0.0977876 4.21287 0
M  V30 7503 H 713.645 -0.628972 3.20486 0
M  V30 7504 H 712.304 1.49889 3.34558 0
M  V30 7505 H 711.952 -0.325678 5.01945 0
M  V30 7506 H 711.652 1.27777 5.73539 0
M  V30 7507 H 713.176 0.416152 6.0918 0
M  V30 7508 H 714.59 2.48957 5.16424 0
M  V30 7509 H 712.987 3.26963 5.03205 0
M  V30 7510 H 714.057 3.22717 3.61914 0
M  V30 7511 N 715.4 -1.26948 0.933913 0
M  V30 7512 C 716.33 -2.29017 0.45534 0
M  V30 7513 C 717.311 -1.62961 -0.487605 0
M  V30 7514 O 718.496 -1.90223 -0.391022 0
M  V30 7515 C 715.626 -3.46112 -0.287015 0
M  V30 7516 C 714.58 -4.24205 0.568682 0
M  V30 7517 C 713.906 -5.3384 -0.303206 0
M  V30 7518 C 715.206 -4.88954 1.83633 0
M  V30 7519 H 716.9 -2.69298 1.30839 0
M  V30 7520 H 714.446 -1.29459 0.630579 0
M  V30 7521 H 716.399 -4.16622 -0.6328 0
M  V30 7522 H 715.123 -3.04765 -1.17414 0
M  V30 7523 H 713.782 -3.5545 0.897261 0
M  V30 7524 H 713.43 -4.88734 -1.18947 0
M  V30 7525 H 713.13 -5.86998 0.265879 0
M  V30 7526 H 714.654 -6.0719 -0.644423 0
M  V30 7527 H 716.068 -5.51717 1.55823 0
M  V30 7528 H 714.465 -5.52198 2.34941 0
M  V30 7529 H 715.535 -4.12305 2.55211 0
M  V30 7530 N 716.879 -0.700114 -1.41195 0
M  V30 7531 C 717.829 -0.0144098 -2.27995 0
M  V30 7532 C 718.813 0.748249 -1.42443 0
M  V30 7533 O 720.005 0.622995 -1.65674 0
M  V30 7534 C 717.134 0.917938 -3.308 0
M  V30 7535 C 716.22 0.151286 -4.2383 0
M  V30 7536 N 716.611 -0.85732 -4.98481 0
M  V30 7537 C 714.909 0.386108 -4.44326 0
M  V30 7538 C 715.61 -1.31663 -5.66604 0
M  V30 7539 N 714.586 -0.641689 -5.39799 0
M  V30 7540 H 718.388 -0.787662 -2.83149 0
M  V30 7541 H 715.902 -0.531344 -1.53462 0
M  V30 7542 H 717.899 1.42437 -3.91813 0
M  V30 7543 H 716.559 1.69074 -2.77208 0
M  V30 7544 H 717.57 -1.2377 -5.02893 0
M  V30 7545 H 714.247 1.13644 -4.01735 0
M  V30 7546 H 715.637 -2.15384 -6.36443 0
M  V30 7547 N 718.357 1.51182 -0.445186 0
M  V30 7548 C 719.582 2.07056 0.119445 0
M  V30 7549 C 720.007 1.30966 1.35016 0
M  V30 7550 O 719.365 0.349827 1.77893 0
M  V30 7551 C 719.413 3.58234 0.412428 0
M  V30 7552 O 718.517 3.84249 1.49754 0
M  V30 7553 H 717.858 0.663998 -0.00157797 0
M  V30 7554 H 720.388 1.94699 -0.628779 0
M  V30 7555 H 720.398 4.02617 0.660583 0
M  V30 7556 H 719.073 4.13038 -0.487049 0
M  V30 7557 H 717.65 3.51724 1.23873 0
M  V30 7558 N 719.835 0.176821 1.56605 0
M  V30 7559 C 720.745 -0.763682 2.21822 0
M  V30 7560 C 721.761 -1.24889 1.21156 0
M  V30 7561 O 722.937 -1.29987 1.53836 0
M  V30 7562 C 720.002 -1.97352 2.8505 0
M  V30 7563 C 719.063 -1.53466 4.00932 0
M  V30 7564 C 718.296 -2.68682 4.61135 0
M  V30 7565 O 718.519 -3.85694 4.20234 0
M  V30 7566 O 717.453 -2.42442 5.50913 0
M  V30 7567 H 721.279 -0.238363 3.02763 0
M  V30 7568 H 718.864 -0.0516331 1.49311 0
M  V30 7569 H 720.746 -2.68096 3.25119 0
M  V30 7570 H 719.421 -2.48779 2.07101 0
M  V30 7571 H 718.328 -0.796551 3.65521 0
M  V30 7572 H 719.661 -1.06724 4.8049 0
M  V30 7573 N 721.313 -1.57302 -0.09688 0
M  V30 7574 C 722.263 -1.98369 -1.12399 0
M  V30 7575 C 723.247 -0.861872 -1.3587 0
M  V30 7576 O 724.439 -1.1257 -1.36591 0
M  V30 7577 C 721.568 -2.41017 -2.4447 0
M  V30 7578 C 720.654 -3.59881 -2.24381 0
M  V30 7579 N 721.045 -4.74872 -1.74155 0
M  V30 7580 C 719.343 -3.65943 -2.54954 0
M  V30 7581 C 720.044 -5.56823 -1.68294 0
M  V30 7582 N 719.02 -4.99942 -2.13444 0
M  V30 7583 H 722.822 -2.84726 -0.728575 0
M  V30 7584 H 720.336 -1.59523 -0.304332 0
M  V30 7585 H 722.333 -2.68665 -3.18786 0
M  V30 7586 H 720.993 -1.56036 -2.84751 0
M  V30 7587 H 722.004 -4.97657 -1.43379 0
M  V30 7588 H 718.681 -2.9162 -2.98771 0
M  V30 7589 H 720.071 -6.59099 -1.30528 0
M  V30 7590 N 722.791 0.367657 -1.53252 0
M  V30 7591 C 723.721 1.45632 -1.8252 0
M  V30 7592 C 724.702 1.55979 -0.678568 0
M  V30 7593 O 725.887 1.70581 -0.928217 0
M  V30 7594 C 723.017 2.82994 -2.01325 0
M  V30 7595 C 721.971 2.87473 -3.17086 0
M  V30 7596 C 721.297 4.2749 -3.21179 0
M  V30 7597 C 722.597 2.55182 -4.55719 0
M  V30 7598 H 724.291 1.21387 -2.73689 0
M  V30 7599 H 721.837 0.58251 -1.31692 0
M  V30 7600 H 723.79 3.59179 -2.20383 0
M  V30 7601 H 722.514 3.08622 -1.06864 0
M  V30 7602 H 721.173 2.13739 -2.97844 0
M  V30 7603 H 720.821 4.5019 -2.24361 0
M  V30 7604 H 720.521 4.31403 -3.98955 0
M  V30 7605 H 722.045 5.0555 -3.42419 0
M  V30 7606 H 723.459 3.21081 -4.74953 0
M  V30 7607 H 721.856 2.70414 -5.3572 0
M  V30 7608 H 722.926 1.5044 -4.60973 0
M  V30 7609 N 724.269 1.44576 0.627338 0
M  V30 7610 C 725.517 1.47267 1.38408 0
M  V30 7611 C 725.838 0.107971 1.94701 0
M  V30 7612 O 725.108 -0.860206 1.76004 0
M  V30 7613 H 723.688 0.542276 0.513756 0
M  V30 7614 H 726.35 1.80383 0.738099 0
M  V30 7615 H 725.446 2.20025 2.21349 0
M  V30 7616 N 725.747 -0.868086 1.31537 0
M  V30 7617 C 727.158 -1.437 1.19195 0
M  V30 7618 C 727.509 -1.95169 -0.200842 0
M  V30 7619 O 726.634 -1.86432 -1.09872 0
M  V30 7620 C 727.229 -2.612 2.15778 0
M  V30 7621 C 725.788 -3.1413 2.07363 0
M  V30 7622 C 724.935 -1.86845 2.049 0
M  V30 7623 H 727.886 -0.676457 1.43561 0
M  V30 7624 H 727.907 -3.37948 1.74847 0
M  V30 7625 H 727.419 -2.23709 3.17137 0
M  V30 7626 H 725.52 -3.56238 1.09204 0
M  V30 7627 H 725.633 -3.76285 2.96557 0
M  V30 7628 H 723.997 -2.05886 1.49943 0
M  V30 7629 H 724.78 -1.51589 3.08019 0
M  V30 7630 N 727.225 -1.14528 -1.08264 0
M  V30 7631 C 728.45 -0.938381 -1.84957 0
M  V30 7632 C 728.875 0.508044 -1.81109 0
M  V30 7633 O 728.233 1.36146 -1.19724 0
M  V30 7634 C 728.281 -1.44568 -3.30352 0
M  V30 7635 O 727.385 -0.638745 -4.07423 0
M  V30 7636 H 726.726 -0.335394 -0.573068 0
M  V30 7637 H 729.256 -1.52287 -1.36637 0
M  V30 7638 H 729.266 -1.45449 -3.81194 0
M  V30 7639 H 727.941 -2.49876 -3.32468 0
M  V30 7640 H 726.518 -0.698801 -3.66294 0
M  V30 7641 N 728.703 1.26451 -0.940633 0
M  V30 7642 C 729.613 2.30128 -0.455881 0
M  V30 7643 C 730.629 1.67536 0.469867 0
M  V30 7644 O 731.805 1.98344 0.349529 0
M  V30 7645 C 728.87 3.45634 0.271648 0
M  V30 7646 C 727.931 4.23709 -0.690594 0
M  V30 7647 C 727.164 5.337 0.00231047 0
M  V30 7648 O 727.387 5.57215 1.21935 0
M  V30 7649 O 726.321 5.98091 -0.676111 0
M  V30 7650 H 730.147 2.73655 -1.31707 0
M  V30 7651 H 727.732 1.3164 -0.706497 0
M  V30 7652 H 729.614 4.15853 0.681486 0
M  V30 7653 H 728.289 3.04138 1.10824 0
M  V30 7654 H 727.196 3.55974 -1.15037 0
M  V30 7655 H 728.529 4.68953 -1.49478 0
M  V30 7656 N 730.181 0.707592 1.40822 0
M  V30 7657 C 731.111 0.0644925 2.33411 0
M  V30 7658 C 732.092 -0.754205 1.52466 0
M  V30 7659 O 733.277 -0.704749 1.80961 0
M  V30 7660 C 730.407 -0.863865 3.36385 0
M  V30 7661 C 729.361 -0.15138 4.27732 0
M  V30 7662 C 728.687 -1.19491 5.21177 0
M  V30 7663 C 729.987 0.989607 5.12839 0
M  V30 7664 H 731.681 0.837829 2.87438 0
M  V30 7665 H 729.227 0.404346 1.38207 0
M  V30 7666 H 731.18 -1.32309 4.0009 0
M  V30 7667 H 729.904 -1.66901 2.80734 0
M  V30 7668 H 728.563 0.287937 3.65467 0
M  V30 7669 H 728.211 -1.9929 4.61836 0
M  V30 7670 H 727.911 -0.723123 5.83134 0
M  V30 7671 H 729.435 -1.6544 5.8776 0
M  V30 7672 H 730.849 0.610114 5.70044 0
M  V30 7673 H 729.246 1.38926 5.83798 0
M  V30 7674 H 730.316 1.82389 4.49291 0
M  V30 7675 N 731.66 -1.50943 0.453197 0
M  V30 7676 C 732.57 -2.31884 -0.355963 0
M  V30 7677 C 733.586 -1.41481 -1.01287 0
M  V30 7678 O 734.762 -1.74546 -1.00477 0
M  V30 7679 C 731.827 -3.15668 -1.43369 0
M  V30 7680 C 730.888 -4.2187 -0.795253 0
M  V30 7681 C 730.121 -5.0165 -1.82162 0
M  V30 7682 O 730.344 -4.82266 -3.04592 0
M  V30 7683 O 729.278 -5.85311 -1.40336 0
M  V30 7684 H 733.104 -3.02162 0.305248 0
M  V30 7685 H 730.689 -1.47839 0.215398 0
M  V30 7686 H 732.571 -3.67709 -2.05836 0
M  V30 7687 H 731.246 -2.48137 -2.07869 0
M  V30 7688 H 730.153 -3.73867 -0.132106 0
M  V30 7689 H 731.486 -4.9182 -0.193484 0
M  V30 7690 N 733.138 -0.185124 -1.56509 0
M  V30 7691 C 734.101 0.72591 -2.17401 0
M  V30 7692 C 735.101 1.14819 -1.12575 0
M  V30 7693 O 736.291 1.0629 -1.38015 0
M  V30 7694 C 733.423 1.98979 -2.76803 0
M  V30 7695 H 734.616 0.195588 -2.99262 0
M  V30 7696 H 732.169 0.0644772 -1.56167 0
M  V30 7697 H 732.904 2.56287 -1.98714 0
M  V30 7698 H 732.689 1.69583 -3.53531 0
M  V30 7699 H 734.179 2.63966 -3.23592 0
M  V30 7700 N 734.616 1.57351 0.0885366 0
M  V30 7701 C 736.027 1.75303 0.642308 0
M  V30 7702 C 736.378 0.808238 1.78779 0
M  V30 7703 O 735.503 -0.01171 2.16397 0
M  V30 7704 C 736.098 3.17885 1.17194 0
M  V30 7705 C 734.657 3.37239 1.67172 0
M  V30 7706 C 733.804 2.7108 0.584045 0
M  V30 7707 H 736.755 1.58103 -0.137567 0
M  V30 7708 H 736.776 3.2112 2.04114 0
M  V30 7709 H 736.288 3.86625 0.338024 0
M  V30 7710 H 734.389 2.73588 2.52943 0
M  V30 7711 H 734.502 4.45594 1.76019 0
M  V30 7712 H 732.866 2.33161 1.02508 0
M  V30 7713 H 733.649 3.42464 -0.239403 0
M  V30 7714 N 736.094 -0.359525 1.53444 0
M  V30 7715 C 737.057 -1.42357 1.7963 0
M  V30 7716 C 738.057 -1.46319 0.666884 0
M  V30 7717 O 739.247 -1.46974 0.935113 0
M  V30 7718 C 736.379 -2.81425 1.92387 0
M  V30 7719 H 737.572 -1.20409 2.74666 0
M  V30 7720 H 735.125 -0.593007 1.44614 0
M  V30 7721 H 735.86 -3.08679 0.994384 0
M  V30 7722 H 735.645 -2.79947 2.74539 0
M  V30 7723 H 737.135 -3.5847 2.14218 0
M  V30 7724 N 737.572 -1.44907 -0.619662 0
M  V30 7725 C 738.983 -1.42905 -1.20146 0
M  V30 7726 C 739.334 -0.150341 -1.95623 0
M  V30 7727 O 738.459 0.748732 -2.03034 0
M  V30 7728 C 739.054 -2.58889 -2.18545 0
M  V30 7729 C 737.613 -2.60046 -2.72127 0
M  V30 7730 C 736.76 -2.3493 -1.4732 0
M  V30 7731 H 739.711 -1.53321 -0.409666 0
M  V30 7732 H 739.732 -2.32298 -3.0136 0
M  V30 7733 H 739.244 -3.51941 -1.63583 0
M  V30 7734 H 737.345 -1.70968 -3.3106 0
M  V30 7735 H 737.458 -3.58893 -3.17384 0
M  V30 7736 H 735.822 -1.84248 -1.75855 0
M  V30 7737 H 736.605 -3.3011 -0.942442 0
M  V30 7738 N 739.05 0.861098 -1.31996 0
M  V30 7739 C 740.298 1.61162 -1.21947 0
M  V30 7740 C 740.619 1.93751 0.220351 0
M  V30 7741 O 739.889 1.59069 1.14341 0
M  V30 7742 H 738.469 0.597485 -0.448353 0
M  V30 7743 H 741.131 1.03039 -1.65436 0
M  V30 7744 H 740.227 2.55138 -1.79752 0
M  V30 7745 N 740.528 1.15101 1.07655 0
M  V30 7746 C 741.776 0.922149 1.79836 0
M  V30 7747 C 742.097 -0.552346 1.87014 0
M  V30 7748 O 741.367 -1.40145 1.3688 0
M  V30 7749 H 739.947 0.338182 0.666064 0
M  V30 7750 H 742.609 1.45107 1.30115 0
M  V30 7751 H 741.705 1.32883 2.82398 0
M  V30 7752 N 742.006 -1.2595 0.947325 0
M  V30 7753 C 743.231 -1.98083 0.614633 0
M  V30 7754 C 743.656 -1.70013 -0.804815 0
M  V30 7755 O 743.014 -0.95175 -1.54309 0
M  V30 7756 C 743.062 -3.4993 0.870706 0
M  V30 7757 O 742.166 -4.12364 -0.0541451 0
M  V30 7758 H 741.507 -0.621232 0.234451 0
M  V30 7759 H 744.037 -1.60259 1.27193 0
M  V30 7760 H 744.047 -4.00198 0.794051 0
M  V30 7761 H 742.722 -3.69691 1.90529 0
M  V30 7762 H 741.299 -3.72826 0.0740917 0
M  V30 7763 N 743.484 -0.715051 -1.40445 0
M  V30 7764 C 744.709 -0.26254 -2.05732 0
M  V30 7765 C 745.134 1.08691 -1.53519 0
M  V30 7766 O 744.492 1.68453 -0.670328 0
M  V30 7767 C 744.54 -0.25195 -3.59719 0
M  V30 7768 O 743.644 0.766998 -4.05205 0
M  V30 7769 H 742.985 -0.123398 -0.652433 0
M  V30 7770 H 745.515 -0.975382 -1.79854 0
M  V30 7771 H 745.525 -0.0894537 -4.07902 0
M  V30 7772 H 744.2 -1.23672 -3.97087 0
M  V30 7773 H 742.777 0.572269 -3.68483 0
M  V30 7774 N 744.962 1.50701 -0.461195 0
M  V30 7775 C 745.872 2.32069 0.343661 0
M  V30 7776 C 746.888 1.42016 1.00535 0
M  V30 7777 O 748.064 1.75077 0.995498 0
M  V30 7778 C 745.129 3.16424 1.41692 0
M  V30 7779 C 744.19 4.22286 0.772869 0
M  V30 7780 C 743.423 5.02609 1.79499 0
M  V30 7781 O 743.646 4.83874 3.0203 0
M  V30 7782 O 742.58 5.86047 1.3723 0
M  V30 7783 H 746.406 3.01996 -0.321268 0
M  V30 7784 H 743.991 1.47723 -0.223235 0
M  V30 7785 H 745.873 3.68795 2.03883 0
M  V30 7786 H 744.548 2.49236 2.0655 0
M  V30 7787 H 743.455 3.73931 0.112277 0
M  V30 7788 H 744.788 4.91915 0.167399 0
M  V30 7789 N 746.441 0.193421 1.56409 0
M  V30 7790 C 747.718 -0.493318 1.89277 0
M  V30 7791 C 748.098 -1.79765 1.10669 0
M  V30 7792 O 747.446 -2.27558 0.207274 0
M  V30 7793 C 747.656 -0.713732 3.41624 0
M  V30 7794 C 749.004 -1.03385 4.11821 0
M  V30 7795 O 750.028 -0.801511 3.47065 0
M  V30 7796 O 748.887 -1.47327 5.26267 0
M  V30 7797 H 745.981 -0.256973 0.786062 0
M  V30 7798 H 748.527 0.23351 1.68086 0
M  V30 7799 H 747.299 0.207446 3.9075 0
M  V30 7800 H 746.922 -1.49308 3.68501 0
M  V30 7801 N 747.919 -1.57396 -0.0801906 0
M  V30 7802 C 748.866 -2.03107 -1.09618 0
M  V30 7803 C 749.836 -0.910118 -1.38946 0
M  V30 7804 O 751.021 -1.17719 -1.50156 0
M  V30 7805 C 748.161 -2.47293 -2.40708 0
M  V30 7806 C 747.274 -3.72972 -2.17982 0
M  V30 7807 C 746.409 -4.05975 -3.42576 0
M  V30 7808 C 745.448 -5.24719 -3.15177 0
M  V30 7809 N 744.585 -5.53401 -4.32078 0
M  V30 7810 H 749.425 -2.89677 -0.69939 0
M  V30 7811 H 746.962 -1.43263 -0.333785 0
M  V30 7812 H 748.92 -2.7096 -3.17232 0
M  V30 7813 H 747.55 -1.63713 -2.78205 0
M  V30 7814 H 746.602 -3.56693 -1.32189 0
M  V30 7815 H 747.914 -4.59638 -1.93738 0
M  V30 7816 H 747.068 -4.30498 -4.275 0
M  V30 7817 H 745.807 -3.17859 -3.69887 0
M  V30 7818 H 744.812 -5 -2.28648 0
M  V30 7819 H 746.037 -6.14445 -2.89197 0
M  V30 7820 H 743.983 -4.68245 -4.59437 0
M  V30 7821 H 743.9 -6.34469 -4.11078 0
M  V30 7822 H 745.168 -5.8247 -5.18024 0
M  V30 7823 N 749.397 0.351382 -1.53633 0
M  V30 7824 C 750.645 1.09034 -1.70165 0
M  V30 7825 C 750.966 1.89413 -0.463422 0
M  V30 7826 O 750.236 1.888 0.522624 0
M  V30 7827 H 748.816 0.405522 -0.627344 0
M  V30 7828 H 751.478 0.394554 -1.90865 0
M  V30 7829 H 750.574 1.77215 -2.56907 0
M  V30 7830 N 750.875 1.45233 0.611969 0
M  V30 7831 C 752.123 1.48727 1.36838 0
M  V30 7832 C 752.444 0.128616 1.94575 0
M  V30 7833 O 751.714 -0.84149 1.76906 0
M  V30 7834 H 750.294 0.547695 0.507976 0
M  V30 7835 H 752.956 1.81156 0.718925 0
M  V30 7836 H 752.052 2.2236 2.19003 0
M  V30 7837 N 752.353 -0.854086 1.3245 0
M  V30 7838 C 753.283 -1.97827 1.24044 0
M  V30 7839 C 754.264 -1.69646 0.124166 0
M  V30 7840 O 755.449 -1.91687 0.31143 0
M  V30 7841 C 752.579 -3.33673 0.963324 0
M  V30 7842 C 751.533 -3.76207 2.04089 0
M  V30 7843 C 750.859 -5.0969 1.61618 0
M  V30 7844 C 752.159 -3.91612 3.45597 0
M  V30 7845 H 753.853 -2.05118 2.18099 0
M  V30 7846 H 751.399 -0.985489 1.04996 0
M  V30 7847 H 753.352 -4.11871 0.891061 0
M  V30 7848 H 752.076 -3.26597 -0.0128649 0
M  V30 7849 H 750.735 -3.0026 2.10332 0
M  V30 7850 H 750.383 -4.99072 0.627418 0
M  V30 7851 H 750.083 -5.3912 2.33717 0
M  V30 7852 H 751.607 -5.90381 1.55829 0
M  V30 7853 H 753.021 -4.60163 3.4194 0
M  V30 7854 H 751.418 -4.3246 4.16051 0
M  V30 7855 H 752.488 -2.9451 3.85217 0
M  V30 7856 N 753.831 -1.1567 -1.07043 0
M  V30 7857 C 754.763 -0.814095 -2.14255 0
M  V30 7858 C 755.776 0.175293 -1.61854 0
M  V30 7859 O 756.965 -0.0483984 -1.78434 0
M  V30 7860 C 754.065 -0.190082 -3.38367 0
M  V30 7861 C 753.238 -1.21768 -4.20109 0
M  V30 7862 C 752.297 -0.614863 -5.22595 0
M  V30 7863 O 751.323 -1.28167 -5.54583 0
M  V30 7864 N 752.525 0.601955 -5.77371 0
M  V30 7865 H 755.29 -1.73677 -2.44247 0
M  V30 7866 H 752.851 -1.05301 -1.22977 0
M  V30 7867 H 754.843 0.22604 -4.04068 0
M  V30 7868 H 753.413 0.635992 -3.06062 0
M  V30 7869 H 752.633 -1.81025 -3.50177 0
M  V30 7870 H 753.921 -1.9114 -4.71533 0
M  V30 7871 H 753.319 1.162 -5.53637 0
M  V30 7872 H 751.876 0.96039 -6.44686 0
M  V30 7873 N 755.309 1.25446 -0.953992 0
M  V30 7874 C 756.72 1.75047 -0.649255 0
M  V30 7875 C 757.071 1.77527 0.835385 0
M  V30 7876 O 756.196 1.39569 1.65377 0
M  V30 7877 C 756.791 3.17889 -1.17183 0
M  V30 7878 C 755.35 3.65052 -0.917267 0
M  V30 7879 C 754.497 2.44124 -1.31525 0
M  V30 7880 H 757.448 1.11342 -1.13087 0
M  V30 7881 H 757.469 3.76768 -0.531616 0
M  V30 7882 H 756.981 3.16052 -2.25239 0
M  V30 7883 H 755.082 3.72305 0.148354 0
M  V30 7884 H 755.195 4.53222 -1.55328 0
M  V30 7885 H 753.559 2.43906 -0.733624 0
M  V30 7886 H 754.342 2.44979 -2.405 0
M  V30 7887 N 756.787 0.722489 1.40064 0
M  V30 7888 C 758.198 0.336507 1.83642 0
M  V30 7889 C 758.549 -1.13002 1.6039 0
M  V30 7890 O 757.674 -1.87036 1.08842 0
M  V30 7891 C 758.269 0.603985 3.33373 0
M  V30 7892 C 756.828 0.271637 3.75419 0
M  V30 7893 C 755.975 0.872898 2.63203 0
M  V30 7894 H 758.926 0.921108 1.29233 0
M  V30 7895 H 758.947 -0.128471 3.80283 0
M  V30 7896 H 758.459 1.67141 3.50265 0
M  V30 7897 H 756.56 -0.790455 3.64119 0
M  V30 7898 H 756.673 0.745457 4.73265 0
M  V30 7899 H 755.037 0.300431 2.52922 0
M  V30 7900 H 755.82 1.94473 2.82905 0
M  V30 7901 N 758.265 -1.50454 0.469181 0
M  V30 7902 C 759.542 -1.9504 -0.147955 0
M  V30 7903 C 759.922 -1.40946 -1.57154 0
M  V30 7904 O 759.27 -0.609663 -2.20217 0
M  V30 7905 C 759.48 -3.48875 -0.0932198 0
M  V30 7906 C 760.828 -4.23655 -0.283056 0
M  V30 7907 O 761.852 -3.55795 -0.169892 0
M  V30 7908 O 760.711 -5.44102 -0.511396 0
M  V30 7909 H 757.805 -0.819283 -0.11271 0
M  V30 7910 H 760.351 -1.6123 0.529446 0
M  V30 7911 H 759.123 -3.80791 0.900784 0
M  V30 7912 H 758.746 -3.89217 -0.812161 0
M  V30 7913 N 759.743 -0.201713 -1.56304 0
M  V30 7914 C 760.968 0.443815 -2.02596 0
M  V30 7915 C 761.393 1.53945 -1.08086 0
M  V30 7916 O 760.751 1.81182 -0.0655056 0
M  V30 7917 C 760.799 0.971066 -3.47279 0
M  V30 7918 O 759.903 2.0836 -3.55893 0
M  V30 7919 H 759.244 0.10294 -0.655972 0
M  V30 7920 H 761.774 -0.314533 -2.02168 0
M  V30 7921 H 761.784 1.28598 -3.87204 0
M  V30 7922 H 760.459 0.169048 -4.15556 0
M  V30 7923 H 759.036 1.77683 -3.27846 0
M  V30 7924 N 761.222 1.57436 0.0718424 0
M  V30 7925 C 762.169 2.03686 1.08539 0
M  V30 7926 C 763.139 0.917474 1.38462 0
M  V30 7927 O 764.324 1.18513 1.4953 0
M  V30 7928 C 761.464 2.48566 2.39393 0
M  V30 7929 C 760.577 3.74122 2.16001 0
M  V30 7930 C 759.712 4.07786 3.40418 0
M  V30 7931 C 758.751 5.26383 3.1239 0
M  V30 7932 N 757.888 5.55685 4.29138 0
M  V30 7933 H 762.728 2.90043 0.684018 0
M  V30 7934 H 760.265 1.43438 0.326183 0
M  V30 7935 H 762.223 2.72639 3.15791 0
M  V30 7936 H 760.853 1.65186 2.77333 0
M  V30 7937 H 759.905 3.57389 1.30296 0
M  V30 7938 H 761.217 4.60659 1.91298 0
M  V30 7939 H 760.371 4.32759 4.25211 0
M  V30 7940 H 759.11 3.19817 3.68197 0
M  V30 7941 H 758.115 5.01206 2.25993 0
M  V30 7942 H 759.34 6.1597 2.85934 0
M  V30 7943 H 757.286 4.70675 4.56948 0
M  V30 7944 H 757.203 6.3664 4.07708 0
M  V30 7945 H 758.471 5.85209 5.14928 0
M  V30 7946 N 762.7 -0.34323 1.53817 0
M  V30 7947 C 763.977 -1.10047 1.61706 0
M  V30 7948 C 764.357 -2.06495 0.438514 0
M  V30 7949 O 763.705 -2.21297 -0.569188 0
M  V30 7950 C 763.915 -1.81985 2.97796 0
M  V30 7951 C 765.263 -2.35717 3.53161 0
M  V30 7952 O 766.287 -1.9208 2.99973 0
M  V30 7953 O 765.146 -3.15551 4.46195 0
M  V30 7954 H 762.24 -0.506096 0.654061 0
M  V30 7955 H 764.786 -0.344697 1.66162 0
M  V30 7956 H 763.558 -1.11722 3.75012 0
M  V30 7957 H 763.181 -2.64419 2.96931 0
M  V30 7958 N 764.178 -1.45556 -0.604258 0
M  V30 7959 C 765.455 -1.40221 -1.36373 0
M  V30 7960 C 765.835 -0.0745195 -2.10968 0
M  V30 7961 O 765.183 0.943594 -2.08107 0
M  V30 7962 C 765.393 -2.61807 -2.30777 0
M  V30 7963 C 766.741 -3.07037 -2.93281 0
M  V30 7964 O 767.765 -2.62203 -2.41097 0
M  V30 7965 O 766.624 -3.8485 -3.88011 0
M  V30 7966 H 763.718 -0.556602 -0.611656 0
M  V30 7967 H 766.264 -1.57689 -0.627069 0
M  V30 7968 H 765.036 -3.50017 -1.74939 0
M  V30 7969 H 764.659 -2.46688 -3.11818 0
M  V30 7970 N 765.656 0.84705 -1.32902 0
M  V30 7971 C 766.884 1.63403 -1.26913 0
M  V30 7972 C 767.299 1.88108 0.161483 0
M  V30 7973 O 766.656 1.45546 1.10103 0
M  V30 7974 C 766.707 2.98896 -2.03331 0
M  V30 7975 O 766.428 2.75281 -3.40811 0
M  V30 7976 C 767.929 3.93335 -2.04457 0
M  V30 7977 H 765.149 0.508701 -0.437566 0
M  V30 7978 H 767.693 1.05567 -1.75145 0
M  V30 7979 H 765.848 3.53356 -1.58802 0
M  V30 7980 H 766.262 3.61504 -3.8002 0
M  V30 7981 H 767.736 4.85647 -2.62394 0
M  V30 7982 H 768.213 4.26885 -1.03274 0
M  V30 7983 H 768.819 3.44812 -2.48967 0
M  V30 7984 N 767.134 1.16236 1.06428 0
M  V30 7985 C 768.545 0.950942 1.60667 0
M  V30 7986 C 768.896 -0.505491 1.89576 0
M  V30 7987 O 768.021 -1.37843 1.66818 0
M  V30 7988 C 768.616 1.71982 2.91904 0
M  V30 7989 C 767.175 1.55342 3.4285 0
M  V30 7990 C 766.322 1.72942 2.16763 0
M  V30 7991 H 769.273 1.31126 0.893959 0
M  V30 7992 H 769.294 1.19483 3.61253 0
M  V30 7993 H 768.806 2.77978 2.70831 0
M  V30 7994 H 766.907 0.5178 3.68985 0
M  V30 7995 H 767.02 2.33643 4.18267 0
M  V30 7996 H 765.384 1.15673 2.26918 0
M  V30 7997 H 766.167 2.80324 1.98175 0
M  V30 7998 N 768.612 -1.24939 0.960631 0
M  V30 7999 C 769.545 -2.24116 0.429804 0
M  V30 8000 C 770.523 -1.54972 -0.492188 0
M  V30 8001 O 771.707 -1.83642 -0.42519 0
M  V30 8002 C 768.834 -3.36558 -0.380312 0
M  V30 8003 C 767.88 -4.23757 0.482941 0
M  V30 8004 S 768.713 -4.9994 1.91885 0
M  V30 8005 C 769.869 -6.15846 1.11732 0
M  V30 8006 H 770.102 -2.68795 1.27029 0
M  V30 8007 H 767.635 -1.34108 0.765141 0
M  V30 8008 H 769.593 -4.01777 -0.841764 0
M  V30 8009 H 768.254 -2.90451 -1.19569 0
M  V30 8010 H 767.447 -5.03809 -0.138699 0
M  V30 8011 H 767.049 -3.63504 0.879839 0
M  V30 8012 H 769.341 -6.76495 0.368898 0
M  V30 8013 H 770.284 -6.82356 1.89198 0
M  V30 8014 H 770.692 -5.60805 0.644812 0
M  V30 8015 N 770.09 -0.729906 -1.39679 0
M  V30 8016 C 771.318 -0.285709 -2.04918 0
M  V30 8017 C 771.733 1.07765 -1.55023 0
M  V30 8018 O 771.09 1.67999 -0.712923 0
M  V30 8019 C 771.141 -0.272793 -3.60469 0
M  V30 8020 O 770.862 -1.58233 -4.08527 0
M  V30 8021 C 772.363 0.188199 -4.429 0
M  V30 8022 H 769.583 -0.125758 -0.65911 0
M  V30 8023 H 772.127 -0.992129 -1.78821 0
M  V30 8024 H 770.282 0.384699 -3.85485 0
M  V30 8025 H 770.696 -1.49245 -5.02818 0
M  V30 8026 H 772.17 0.14608 -5.51807 0
M  V30 8027 H 772.647 1.2326 -4.21549 0
M  V30 8028 H 773.253 -0.439541 -4.23023 0
M  V30 8029 N 771.568 1.50203 -0.477153 0
M  V30 8030 C 772.498 2.31517 0.303646 0
M  V30 8031 C 773.479 1.38696 0.984753 0
M  V30 8032 O 774.664 1.67615 0.980758 0
M  V30 8033 C 771.794 3.18598 1.38249 0
M  V30 8034 C 770.748 4.2002 0.822645 0
M  V30 8035 C 770.074 4.95878 2.00024 0
M  V30 8036 C 771.374 5.22023 -0.170185 0
M  V30 8037 H 773.068 2.97042 -0.375027 0
M  V30 8038 H 770.614 1.42848 -0.181802 0
M  V30 8039 H 772.567 3.74282 1.93625 0
M  V30 8040 H 771.291 2.5097 2.09002 0
M  V30 8041 H 769.95 3.65445 0.290813 0
M  V30 8042 H 769.598 4.24717 2.69489 0
M  V30 8043 H 769.298 5.64487 1.63183 0
M  V30 8044 H 770.822 5.54399 2.55878 0
M  V30 8045 H 772.236 5.72543 0.294606 0
M  V30 8046 H 770.633 5.98386 -0.453181 0
M  V30 8047 H 771.703 4.72396 -1.09408 0
M  V30 8048 N 773.046 0.209999 1.56195 0
M  V30 8049 C 774.457 -0.299943 1.84275 0
M  V30 8050 C 774.808 -1.60314 1.1311 0
M  V30 8051 O 773.933 -2.1273 0.396874 0
M  V30 8052 C 774.528 -0.550986 3.3429 0
M  V30 8053 C 773.087 -1.00526 3.62728 0
M  V30 8054 C 772.234 -0.0619828 2.77231 0
M  V30 8055 H 775.185 0.433458 1.52666 0
M  V30 8056 H 775.206 -1.39846 3.53869 0
M  V30 8057 H 774.718 0.397669 3.86057 0
M  V30 8058 H 772.819 -1.96768 3.16407 0
M  V30 8059 H 772.932 -0.887664 4.70805 0
M  V30 8060 H 771.296 -0.566648 2.48317 0
M  V30 8061 H 772.079 0.881383 3.31793 0
M  V30 8062 N 774.524 -1.57472 -0.0634922 0
M  V30 8063 C 775.471 -2.04258 -1.07457 0
M  V30 8064 C 776.441 -0.924804 -1.37973 0
M  V30 8065 O 777.626 -1.19305 -1.48899 0
M  V30 8066 C 774.766 -2.49832 -2.38071 0
M  V30 8067 C 773.879 -3.75263 -2.14014 0
M  V30 8068 C 773.014 -4.09585 -3.38251 0
M  V30 8069 C 772.053 -5.28032 -3.09594 0
M  V30 8070 N 771.19 -5.57953 -4.26185 0
M  V30 8071 H 776.03 -2.90402 -0.668626 0
M  V30 8072 H 773.567 -1.43609 -0.318572 0
M  V30 8073 H 775.525 -2.7431 -3.14341 0
M  V30 8074 H 774.155 -1.66654 -2.76453 0
M  V30 8075 H 773.207 -3.58075 -1.28399 0
M  V30 8076 H 774.519 -4.61667 -1.88852 0
M  V30 8077 H 773.673 -4.35008 -4.2291 0
M  V30 8078 H 772.412 -3.21765 -3.66495 0
M  V30 8079 H 771.417 -5.02397 -2.23332 0
M  V30 8080 H 772.642 -6.17477 -2.82663 0
M  V30 8081 H 770.588 -4.73092 -4.54445 0
M  V30 8082 H 770.505 -6.38793 -4.04326 0
M  V30 8083 H 771.773 -5.87931 -5.11817 0
M  V30 8084 N 776.003 0.335068 -1.53997 0
M  V30 8085 C 777.251 1.07223 -1.71312 0
M  V30 8086 C 777.572 1.88911 -0.483486 0
M  V30 8087 O 776.842 1.89344 0.50257 0
M  V30 8088 H 775.422 0.398846 -0.63161 0
M  V30 8089 H 778.084 0.374288 -1.91272 0
M  V30 8090 H 777.18 1.7448 -2.58772 0
M  V30 8091 N 777.481 1.45874 0.596531 0
M  V30 8092 C 778.706 1.54247 1.38646 0
M  V30 8093 C 779.131 0.179571 1.87241 0
M  V30 8094 O 778.489 -0.837831 1.6078 0
M  V30 8095 C 778.537 2.54015 2.55946 0
M  V30 8096 O 777.641 2.06561 3.5694 0
M  V30 8097 H 776.982 0.519555 0.413471 0
M  V30 8098 H 779.512 1.91327 0.724936 0
M  V30 8099 H 779.522 2.73179 3.03047 0
M  V30 8100 H 778.197 3.52994 2.19928 0
M  V30 8101 H 776.774 1.97324 3.16414 0
M  V30 8102 N 778.959 -0.83999 1.33349 0
M  V30 8103 C 780.187 -1.62728 1.27778 0
M  V30 8104 C 780.602 -1.88191 -0.151505 0
M  V30 8105 O 779.959 -1.46128 -1.09329 0
M  V30 8106 C 780.01 -2.97813 2.04913 0
M  V30 8107 O 779.731 -2.73469 3.42266 0
M  V30 8108 C 781.232 -3.92245 2.0654 0
M  V30 8109 H 778.452 -0.506374 0.440257 0
M  V30 8110 H 780.996 -1.04637 1.75703 0
M  V30 8111 H 779.151 -3.52509 1.60674 0
M  V30 8112 H 779.565 -3.59483 3.81932 0
M  V30 8113 H 781.039 -4.84249 2.64966 0
M  V30 8114 H 781.516 -4.26332 1.05537 0
M  V30 8115 H 782.122 -3.43487 2.50793 0
M  V30 8116 N 780.437 -1.16799 -1.0581 0
M  V30 8117 C 781.347 -0.893492 -2.16919 0
M  V30 8118 C 782.363 0.136061 -1.73467 0
M  V30 8119 O 783.539 -0.0417348 -2.01357 0
M  V30 8120 C 780.604 -0.403763 -3.44341 0
M  V30 8121 C 779.665 -1.49914 -4.02274 0
M  V30 8122 C 778.898 -1.03269 -5.23614 0
M  V30 8123 O 779.121 0.115647 -5.70283 0
M  V30 8124 O 778.055 -1.8231 -5.73626 0
M  V30 8125 H 781.881 -1.82274 -2.42919 0
M  V30 8126 H 779.466 -0.948361 -1.1544 0
M  V30 8127 H 781.348 -0.137874 -4.21174 0
M  V30 8128 H 780.023 0.497413 -3.19855 0
M  V30 8129 H 778.93 -1.81883 -3.26909 0
M  V30 8130 H 780.263 -2.3758 -4.31064 0
M  V30 8131 N 781.915 1.24427 -0.967243 0
M  V30 8132 C 782.847 2.24641 -0.454856 0
M  V30 8133 C 783.86 1.56849 0.436152 0
M  V30 8134 O 785.049 1.76846 0.242401 0
M  V30 8135 C 782.149 3.36954 0.362672 0
M  V30 8136 C 781.322 4.34318 -0.518324 0
M  V30 8137 C 780.381 5.25638 0.243122 0
M  V30 8138 O 779.407 5.68043 -0.362791 0
M  V30 8139 N 780.609 5.59897 1.53282 0
M  V30 8140 H 783.374 2.69238 -1.31648 0
M  V30 8141 H 780.935 1.38464 -0.839015 0
M  V30 8142 H 782.927 3.95014 0.880094 0
M  V30 8143 H 781.497 2.91646 1.12522 0
M  V30 8144 H 780.717 3.74953 -1.21672 0
M  V30 8145 H 782.005 4.96338 -1.11919 0
M  V30 8146 H 781.403 5.27373 2.04682 0
M  V30 8147 H 779.96 6.20488 1.99594 0
M  V30 8148 N 783.393 0.737304 1.3929 0
M  V30 8149 C 784.67 0.212464 1.94443 0
M  V30 8150 C 785.05 -1.28621 1.67391 0
M  V30 8151 O 784.398 -2.0529 1.00342 0
M  V30 8152 C 784.608 0.548565 3.44662 0
M  V30 8153 C 785.956 0.499177 4.21656 0
M  V30 8154 O 786.98 0.485892 3.5287 0
M  V30 8155 O 785.839 0.495739 5.44247 0
M  V30 8156 H 782.933 0.0395457 0.826054 0
M  V30 8157 H 785.479 0.816319 1.48776 0
M  V30 8158 H 784.251 1.58426 3.57795 0
M  V30 8159 H 783.874 -0.0841399 3.97511 0
M  V30 8160 N 784.871 -1.49948 0.485112 0
M  V30 8161 C 785.834 -2.27351 -0.290546 0
M  V30 8162 C 786.834 -1.32704 -0.908087 0
M  V30 8163 O 788.024 -1.56007 -0.775085 0
M  V30 8164 C 785.156 -3.10135 -1.41524 0
M  V30 8165 H 786.349 -2.97374 0.388454 0
M  V30 8166 H 783.902 -1.54453 0.239586 0
M  V30 8167 H 784.637 -2.44641 -2.12888 0
M  V30 8168 H 784.422 -3.79705 -0.978074 0
M  V30 8169 H 785.912 -3.68638 -1.96204 0
M  V30 8170 N 786.349 -0.21828 -1.56081 0
M  V30 8171 C 787.312 0.679633 -2.18892 0
M  V30 8172 C 788.312 1.12405 -1.14986 0
M  V30 8173 O 789.502 1.03339 -1.40238 0
M  V30 8174 C 786.634 1.93063 -2.80962 0
M  V30 8175 H 787.827 0.132066 -2.99609 0
M  V30 8176 H 785.38 0.0313374 -1.56269 0
M  V30 8177 H 786.115 2.52015 -2.04106 0
M  V30 8178 H 785.9 1.62046 -3.57048 0
M  V30 8179 H 787.39 2.57043 -3.29118 0
M  V30 8180 N 787.827 1.57504 0.0551401 0
M  V30 8181 C 789.052 1.92682 0.767352 0
M  V30 8182 C 789.477 0.81614 1.69472 0
M  V30 8183 O 788.835 -0.229989 1.79835 0
M  V30 8184 C 788.883 3.26866 1.52286 0
M  V30 8185 O 787.987 3.17274 2.63459 0
M  V30 8186 H 787.328 0.630502 0.208238 0
M  V30 8187 H 789.858 2.04592 0.0184026 0
M  V30 8188 H 789.868 3.61138 1.8985 0
M  V30 8189 H 788.543 4.07276 0.842541 0
M  V30 8190 H 787.12 2.94589 2.2863 0
M  V30 8191 N 789.305 -0.326896 1.54172 0
M  V30 8192 C 790.716 -0.901533 1.63491 0
M  V30 8193 C 791.067 -1.88994 0.52684 0
M  V30 8194 O 790.192 -2.137 -0.340794 0
M  V30 8195 C 790.787 -1.64192 2.96355 0
M  V30 8196 C 789.346 -2.16533 3.07881 0
M  V30 8197 C 788.493 -0.98966 2.59039 0
M  V30 8198 H 791.444 -0.104568 1.58355 0
M  V30 8199 H 791.465 -2.50592 2.86328 0
M  V30 8200 H 790.977 -0.922291 3.76982 0
M  V30 8201 H 789.078 -2.91622 2.31922 0
M  V30 8202 H 789.191 -2.41762 4.13628 0
M  V30 8203 H 787.555 -1.36787 2.14852 0
M  V30 8204 H 788.338 -0.284401 3.4212 0
M  V30 8205 N 790.784 -1.46188 -0.588786 0
M  V30 8206 C 791.694 -1.58865 -1.72624 0
M  V30 8207 C 792.71 -0.472348 -1.67466 0
M  V30 8208 O 793.886 -0.735638 -1.87484 0
M  V30 8209 C 790.951 -1.56989 -3.0912 0
M  V30 8210 C 790.012 -2.79804 -3.25589 0
M  V30 8211 C 789.245 -2.78009 -4.55573 0
M  V30 8212 O 789.468 -1.86406 -5.39082 0
M  V30 8213 O 788.402 -3.6947 -4.75159 0
M  V30 8214 H 792.228 -2.55047 -1.64878 0
M  V30 8215 H 789.813 -1.28912 -0.755115 0
M  V30 8216 H 791.695 -1.58618 -3.90408 0
M  V30 8217 H 790.37 -0.639648 -3.17317 0
M  V30 8218 H 789.277 -2.83732 -2.43818 0
M  V30 8219 H 790.61 -3.72017 -3.22279 0
M  V30 8220 N 792.262 0.832906 -1.33792 0
M  V30 8221 C 793.209 1.94314 -1.24541 0
M  V30 8222 C 794.179 1.65646 -0.122753 0
M  V30 8223 O 795.364 1.88394 -0.30204 0
M  V30 8224 C 792.504 3.30395 -0.996641 0
M  V30 8225 C 791.617 3.71422 -2.20612 0
M  V30 8226 C 790.752 4.96401 -1.89101 0
M  V30 8227 C 789.791 5.2998 -3.06247 0
M  V30 8228 N 788.928 6.46137 -2.74685 0
M  V30 8229 H 793.768 2.01559 -2.19495 0
M  V30 8230 H 791.305 0.986243 -1.09141 0
M  V30 8231 H 793.263 4.08803 -0.832817 0
M  V30 8232 H 791.893 3.22691 -0.0838242 0
M  V30 8233 H 790.945 2.88488 -2.47949 0
M  V30 8234 H 792.257 3.92215 -3.0817 0
M  V30 8235 H 791.411 5.82572 -1.69396 0
M  V30 8236 H 790.15 4.7759 -0.987882 0
M  V30 8237 H 789.155 4.42312 -3.26559 0
M  V30 8238 H 790.38 5.50737 -3.97323 0
M  V30 8239 H 788.326 6.28801 -1.86938 0
M  V30 8240 H 788.243 6.67054 -3.55774 0
M  V30 8241 H 789.511 7.35403 -2.58461 0
M  V30 8242 N 793.74 1.17359 1.05189 0
M  V30 8243 C 794.65 0.904984 2.16442 0
M  V30 8244 C 795.666 -0.12686 1.73537 0
M  V30 8245 O 796.842 0.0524127 2.01332 0
M  V30 8246 C 793.907 0.422019 3.44122 0
M  V30 8247 C 792.968 1.52045 4.01473 0
M  V30 8248 C 792.201 1.06044 5.23059 0
M  V30 8249 O 792.424 -0.0854023 5.70336 0
M  V30 8250 O 791.358 1.85349 5.72651 0
M  V30 8251 H 795.184 1.8356 2.41949 0
M  V30 8252 H 792.769 0.95447 1.14936 0
M  V30 8253 H 794.651 0.160208 4.21095 0
M  V30 8254 H 793.326 -0.480444 3.20115 0
M  V30 8255 H 792.233 1.83615 3.25939 0
M  V30 8256 H 793.566 2.39863 4.29798 0
M  V30 8257 N 795.218 -1.23913 0.973828 0
M  V30 8258 C 796.165 -2.25132 0.508366 0
M  V30 8259 C 797.135 -1.59908 -0.449307 0
M  V30 8260 O 798.32 -1.87405 -0.358313 0
M  V30 8261 C 795.46 -3.4458 -0.189422 0
M  V30 8262 C 794.573 -4.24381 0.807738 0
M  V30 8263 C 793.708 -5.31131 0.0854315 0
M  V30 8264 C 792.747 -6.02635 1.07225 0
M  V30 8265 N 791.884 -7.01073 0.379535 0
M  V30 8266 H 796.724 -2.64313 1.37632 0
M  V30 8267 H 794.261 -1.29924 0.689802 0
M  V30 8268 H 796.219 -4.12706 -0.610733 0
M  V30 8269 H 794.849 -3.06218 -1.02129 0
M  V30 8270 H 793.901 -3.55735 1.34747 0
M  V30 8271 H 795.213 -4.73778 1.55998 0
M  V30 8272 H 794.367 -6.05422 -0.393572 0
M  V30 8273 H 793.106 -4.82658 -0.699461 0
M  V30 8274 H 792.111 -5.27143 1.56207 0
M  V30 8275 H 793.336 -6.53197 1.85769 0
M  V30 8276 H 791.282 -6.54862 -0.386269 0
M  V30 8277 H 791.199 -7.48382 1.07054 0
M  V30 8278 H 792.467 -7.79462 -0.0772984 0
M  V30 8279 N 796.696 -0.74468 -1.38897 0
M  V30 8280 C 797.629 -0.0596441 -2.28122 0
M  V30 8281 C 798.607 0.73764 -1.44906 0
M  V30 8282 O 799.791 0.718155 -1.74284 0
M  V30 8283 C 796.918 0.922533 -3.25894 0
M  V30 8284 C 795.964 0.212566 -4.2597 0
M  V30 8285 S 796.797 -1.08035 -5.24489 0
M  V30 8286 C 797.953 -0.101014 -6.25818 0
M  V30 8287 H 798.186 -0.816289 -2.85874 0
M  V30 8288 H 795.719 -0.536882 -1.44765 0
M  V30 8289 H 797.677 1.4839 -3.82741 0
M  V30 8290 H 796.338 1.65209 -2.67142 0
M  V30 8291 H 795.531 0.956106 -4.94848 0
M  V30 8292 H 795.133 -0.277029 -3.72973 0
M  V30 8293 H 797.425 0.736072 -6.7349 0
M  V30 8294 H 798.368 -0.757206 -7.0404 0
M  V30 8295 H 798.776 0.275706 -5.63826 0
M  V30 8296 N 798.174 1.49689 -0.493057 0
M  V30 8297 C 799.122 2.30613 0.303383 0
M  V30 8298 C 800.116 1.38867 0.970165 0
M  V30 8299 O 801.322 1.55956 0.898761 0
M  V30 8300 H 797.697 0.742891 0.116691 0
M  V30 8301 H 799.668 2.95717 -0.39924 0
M  V30 8302 C 798.417 3.20008 1.35978 0
M  V30 8303 H 797.74 3.90526 0.856103 0
M  V30 8304 H 799.18 3.79586 1.88919 0
M  V30 8305 C 797.639 2.39079 2.37367 0
M  V30 8306 O 798.169 2.08933 3.43089 0
M  V30 8307 N 796.375 2.0125 2.09635 0
M  V30 8308 H 795.922 2.25966 1.23682 0
M  V30 8309 H 795.88 1.47408 2.77702 0
M  V30 8310 N 799.652 0.226554 1.55963 0
M  V30 8311 C 801.063 -0.280381 1.84583 0
M  V30 8312 C 801.414 -1.59105 1.14804 0
M  V30 8313 O 800.539 -2.12297 0.419414 0
M  V30 8314 C 801.134 -0.515499 3.34855 0
M  V30 8315 C 799.693 -0.966733 3.63774 0
M  V30 8316 C 798.84 -0.0325753 2.77281 0
M  V30 8317 H 801.791 0.449626 1.52197 0
M  V30 8318 H 801.812 -1.36085 3.55332 0
M  V30 8319 H 801.324 0.438594 3.85614 0
M  V30 8320 H 799.425 -1.93401 3.18476 0
M  V30 8321 H 799.538 -0.837679 4.7172 0
M  V30 8322 H 797.902 -0.540279 2.48904 0
M  V30 8323 H 798.685 0.916524 3.30839 0
M  V30 8324 N 801.13 -1.57531 -0.0467866 0
M  V30 8325 C 802.06 -2.08425 -1.05268 0
M  V30 8326 C 803.041 -0.982941 -1.38825 0
M  V30 8327 O 804.226 -1.25716 -1.48018 0
M  V30 8328 C 801.356 -2.54897 -2.35891 0
M  V30 8329 C 800.31 -3.69132 -2.16623 0
M  V30 8330 C 799.636 -4.01747 -3.52851 0
M  V30 8331 C 800.936 -4.98243 -1.56689 0
M  V30 8332 H 802.63 -2.92716 -0.62908 0
M  V30 8333 H 800.176 -1.40816 -0.301156 0
M  V30 8334 H 802.129 -2.8912 -3.06574 0
M  V30 8335 H 800.853 -1.67666 -2.80278 0
M  V30 8336 H 799.512 -3.35231 -1.48377 0
M  V30 8337 H 799.16 -3.11608 -3.94853 0
M  V30 8338 H 798.86 -4.78681 -3.4079 0
M  V30 8339 H 800.384 -4.38487 -4.24925 0
M  V30 8340 H 801.798 -5.30535 -2.17268 0
M  V30 8341 H 800.195 -5.79669 -1.55255 0
M  V30 8342 H 801.265 -4.81986 -0.530827 0
M  V30 8343 N 802.608 0.318715 -1.54344 0
M  V30 8344 C 803.518 1.41535 -1.87097 0
M  V30 8345 C 804.534 1.56361 -0.763353 0
M  V30 8346 O 805.71 1.71365 -1.05811 0
M  V30 8347 C 802.775 2.76178 -2.09587 0
M  V30 8348 C 801.836 2.70486 -3.3337 0
M  V30 8349 C 801.069 3.98708 -3.54778 0
M  V30 8350 O 801.292 4.9721 -2.79532 0
M  V30 8351 O 800.226 4.01674 -4.48266 0
M  V30 8352 H 804.052 1.16764 -2.80357 0
M  V30 8353 H 801.637 0.51318 -1.4031 0
M  V30 8354 H 803.519 3.55873 -2.25682 0
M  V30 8355 H 802.194 3.00829 -1.19514 0
M  V30 8356 H 801.101 1.89325 -3.22656 0
M  V30 8357 H 802.434 2.50789 -4.23516 0
M  V30 8358 N 804.086 1.46499 0.581025 0
M  V30 8359 C 805.018 1.53225 1.70455 0
M  V30 8360 C 806.031 0.420443 1.57277 0
M  V30 8361 O 807.22 0.688888 1.64671 0
M  V30 8362 C 804.32 1.39803 3.08721 0
M  V30 8363 C 803.493 2.65132 3.47884 0
M  V30 8364 C 802.552 2.45886 4.65217 0
M  V30 8365 O 801.578 3.19615 4.70993 0
M  V30 8366 N 802.78 1.5216 5.60203 0
M  V30 8367 H 805.545 2.50098 1.65139 0
M  V30 8368 H 803.106 1.42576 0.76705 0
M  V30 8369 H 805.098 1.24697 3.8501 0
M  V30 8370 H 803.668 0.51104 3.08394 0
M  V30 8371 H 802.888 2.95169 2.61284 0
M  V30 8372 H 804.176 3.48385 3.70817 0
M  V30 8373 H 803.574 0.913646 5.58273 0
M  V30 8374 H 802.131 1.43017 6.35916 0
M  V30 8375 N 805.565 -0.825799 1.34232 0
M  V30 8376 C 806.795 -1.61129 1.29309 0
M  V30 8377 C 807.203 -1.88714 -0.135589 0
M  V30 8378 O 806.546 -1.47703 -1.09222 0
M  V30 8379 C 806.608 -2.97866 2.01287 0
M  V30 8380 C 806.272 -2.9319 3.50555 0
M  V30 8381 C 807.269 -2.67978 4.45515 0
M  V30 8382 C 804.954 -3.12913 3.92926 0
M  V30 8383 C 806.948 -2.62536 5.80822 0
M  V30 8384 C 804.635 -3.07096 5.28333 0
M  V30 8385 C 805.633 -2.8194 6.22092 0
M  V30 8386 O 805.321 -2.7605 7.55018 0
M  V30 8387 H 805.053 -0.507652 0.446391 0
M  V30 8388 H 807.607 -1.03575 1.77374 0
M  V30 8389 H 805.837 -3.57327 1.47832 0
M  V30 8390 H 807.526 -3.58848 1.89691 0
M  V30 8391 H 808.292 -2.52478 4.14101 0
M  V30 8392 H 804.171 -3.3151 3.20347 0
M  V30 8393 H 807.715 -2.42821 6.53975 0
M  V30 8394 H 803.612 -3.22148 5.59367 0
M  V30 8395 H 804.38 -2.91798 7.6472 0
M  V30 8396 N 807.043 -1.17915 -1.04565 0
M  V30 8397 C 807.953 -0.916449 -2.15959 0
M  V30 8398 C 808.969 0.117655 -1.73602 0
M  V30 8399 O 810.145 -0.063089 -2.01301 0
M  V30 8400 C 807.21 -0.440262 -3.43893 0
M  V30 8401 C 806.271 -1.54172 -4.00661 0
M  V30 8402 C 805.504 -1.08816 -5.22489 0
M  V30 8403 O 805.727 0.0551547 -5.70373 0
M  V30 8404 O 804.661 -1.88383 -5.7166 0
M  V30 8405 H 808.487 -1.8484 -2.40972 0
M  V30 8406 H 806.072 -0.960552 -1.14428 0
M  V30 8407 H 807.954 -0.182537 -4.21004 0
M  V30 8408 H 806.629 0.46346 -3.20365 0
M  V30 8409 H 805.536 -1.85341 -3.24961 0
M  V30 8410 H 806.869 -2.42139 -4.2852 0
M  V30 8411 N 808.521 1.23394 -0.980386 0
M  V30 8412 C 809.937 1.43961 -0.689008 0
M  V30 8413 C 810.137 1.87229 0.744809 0
M  V30 8414 O 809.193 2.01831 1.51725 0
M  V30 8415 C 810.506 2.49128 -1.68392 0
M  V30 8416 C 812.054 2.62941 -1.69796 0
M  V30 8417 C 812.529 3.71317 -2.68118 0
M  V30 8418 N 814.02 3.7876 -2.66636 0
M  V30 8419 C 814.755 4.62176 -3.39383 0
M  V30 8420 N 814.251 5.49682 -4.21688 0
M  V30 8421 N 816.044 4.56372 -3.28147 0
M  V30 8422 H 808.195 0.936106 -1.90659 0
M  V30 8423 H 810.458 0.473023 -0.821555 0
M  V30 8424 H 810.164 2.24252 -2.70931 0
M  V30 8425 H 810.038 3.47514 -1.46675 0
M  V30 8426 H 812.425 2.87168 -0.679617 0
M  V30 8427 H 812.506 1.64871 -1.95579 0
M  V30 8428 H 812.15 3.4784 -3.70095 0
M  V30 8429 H 812.08 4.68929 -2.3961 0
M  V30 8430 H 814.571 3.16226 -2.06904 0
M  V30 8431 H 814.884 6.10323 -4.74053 0
M  V30 8432 H 813.229 5.49306 -4.25779 0
M  V30 8433 H 816.42 3.87029 -2.63299 0
M  V30 8434 H 816.593 5.21153 -3.85102 0
M  V30 8435 N 809.999 0.752036 1.385 0
M  V30 8436 C 810.946 0.123288 2.3047 0
M  V30 8437 C 811.916 -0.711326 1.50098 0
M  V30 8438 O 813.101 -0.667775 1.78733 0
M  V30 8439 C 810.241 -0.765085 3.36512 0
M  V30 8440 C 809.354 0.0839885 4.31918 0
M  V30 8441 C 808.489 -0.807243 5.25031 0
M  V30 8442 C 807.528 0.0455583 6.12083 0
M  V30 8443 N 806.665 -0.802547 6.97498 0
M  V30 8444 H 811.505 0.913169 2.83664 0
M  V30 8445 H 809.042 0.46195 1.39658 0
M  V30 8446 H 811 -1.29476 3.966 0
M  V30 8447 H 809.63 -1.52077 2.84732 0
M  V30 8448 H 808.682 0.731276 3.73305 0
M  V30 8449 H 809.994 0.74265 4.9324 0
M  V30 8450 H 809.148 -1.40414 5.90228 0
M  V30 8451 H 807.887 -1.49964 4.64071 0
M  V30 8452 H 806.892 0.655137 5.45883 0
M  V30 8453 H 808.117 0.734994 6.75111 0
M  V30 8454 H 806.063 -1.47992 6.39089 0
M  V30 8455 H 805.98 -0.200747 7.55733 0
M  V30 8456 H 807.248 -1.38447 7.67107 0
M  V30 8457 N 811.477 -1.49425 0.500989 0
M  V30 8458 C 812.723 -2.02753 -0.0436 0
M  V30 8459 C 813.056 -1.37991 -1.36646 0
M  V30 8460 O 812.331 -0.515597 -1.87542 0
M  V30 8461 C 812.614 -3.59565 -0.19616 0
M  V30 8462 C 812.467 -4.34855 1.14982 0
M  V30 8463 C 813.786 -4.30014 -0.936795 0
M  V30 8464 H 810.905 -0.73686 -0.0143711 0
M  V30 8465 H 813.547 -1.78448 0.652397 0
M  V30 8466 H 811.697 -3.80405 -0.788959 0
M  V30 8467 H 813.369 -4.25512 1.7815 0
M  V30 8468 H 811.612 -3.97414 1.73911 0
M  V30 8469 H 812.283 -5.42933 0.996385 0
M  V30 8470 H 814.759 -4.1383 -0.434036 0
M  V30 8471 H 813.635 -5.39483 -1.01238 0
M  V30 8472 H 813.896 -3.95257 -1.9805 0
M  V30 8473 N 812.955 -0.234822 -1.55841 0
M  V30 8474 C 813.903 0.686145 -2.22249 0
M  V30 8475 C 814.897 1.18948 -1.20614 0
M  V30 8476 O 816.103 1.14777 -1.38659 0
M  V30 8477 H 812.478 0.239724 -0.712767 0
M  V30 8478 H 814.449 0.102762 -2.98223 0
M  V30 8479 C 813.198 1.8776 -2.92646 0
M  V30 8480 H 812.521 1.49943 -3.70617 0
M  V30 8481 H 813.961 2.4995 -3.42493 0
M  V30 8482 C 812.42 2.74127 -1.95847 0
M  V30 8483 O 812.95 3.7329 -1.48384 0
M  V30 8484 N 811.156 2.4044 -1.63209 0
M  V30 8485 H 810.703 1.59854 -2.02001 0
M  V30 8486 H 810.661 2.98504 -0.987063 0
M  V30 8487 N 814.433 1.57553 0.0384317 0
M  V30 8488 C 815.396 2.04927 1.02653 0
M  V30 8489 C 816.396 0.951768 1.29607 0
M  V30 8490 O 817.586 1.21568 1.24768 0
M  V30 8491 C 814.718 2.45828 2.36181 0
M  V30 8492 H 815.911 2.93474 0.617508 0
M  V30 8493 H 813.464 1.53679 0.285031 0
M  V30 8494 H 814.199 1.60408 2.8185 0
M  V30 8495 H 813.984 3.25945 2.1795 0
M  V30 8496 H 815.474 2.82939 3.0714 0
M  V30 8497 N 815.911 -0.310526 1.54511 0
M  V30 8498 C 817.136 -1.07046 1.7764 0
M  V30 8499 C 817.561 -1.80488 0.529696 0
M  V30 8500 O 816.919 -1.73702 -0.519361 0
M  V30 8501 C 816.967 -2.03411 2.97752 0
M  V30 8502 O 816.071 -3.11545 2.7021 0
M  V30 8503 H 815.412 -0.307994 0.588248 0
M  V30 8504 H 817.942 -0.350848 2.01569 0
M  V30 8505 H 817.952 -2.46048 3.2546 0
M  V30 8506 H 816.627 -1.49361 3.88155 0
M  V30 8507 H 815.204 -2.7349 2.53491 0
M  V30 8508 N 817.389 -1.46805 -0.573248 0
M  V30 8509 C 818.635 -1.5283 -1.33307 0
M  V30 8510 C 818.968 -0.183287 -1.93333 0
M  V30 8511 O 818.243 0.806354 -1.76998 0
M  V30 8512 C 818.526 -2.63414 -2.45531 0
M  V30 8513 C 818.379 -4.07478 -1.90478 0
M  V30 8514 C 819.698 -2.70014 -3.47535 0
M  V30 8515 H 816.817 -0.556371 -0.483343 0
M  V30 8516 H 819.459 -1.78787 -0.643066 0
M  V30 8517 H 817.609 -2.41412 -3.04389 0
M  V30 8518 H 819.281 -4.40795 -1.36004 0
M  V30 8519 H 817.524 -4.16511 -1.21248 0
M  V30 8520 H 818.195 -4.80598 -2.71531 0
M  V30 8521 H 820.671 -2.89817 -2.98572 0
M  V30 8522 H 819.547 -3.49192 -4.23504 0
M  V30 8523 H 819.808 -1.76436 -4.05367 0
M  V30 8524 N 818.867 0.818669 -1.34668 0
M  V30 8525 C 820.278 1.39177 -1.24446 0
M  V30 8526 C 820.629 1.9578 0.128268 0
M  V30 8527 O 819.754 1.90382 1.02877 0
M  V30 8528 C 820.349 2.53012 -2.25323 0
M  V30 8529 C 818.908 3.06218 -2.18878 0
M  V30 8530 C 818.055 1.79112 -2.11694 0
M  V30 8531 H 821.006 0.622709 -1.45973 0
M  V30 8532 H 821.027 3.31226 -1.8727 0
M  V30 8533 H 820.539 2.11784 -3.25221 0
M  V30 8534 H 818.64 3.51939 -1.22351 0
M  V30 8535 H 818.753 3.65019 -3.10319 0
M  V30 8536 H 817.117 2.0018 -1.57481 0
M  V30 8537 H 817.9 1.40053 -3.13433 0
M  V30 8538 N 820.346 1.18468 1.03938 0
M  V30 8539 C 821.762 0.934635 1.29371 0
M  V30 8540 C 821.962 -0.399067 1.97509 0
M  V30 8541 O 821.018 -1.13309 2.25648 0
M  V30 8542 C 822.331 2.10111 2.15114 0
M  V30 8543 C 823.879 2.13955 2.28456 0
M  V30 8544 C 824.354 3.30024 3.17566 0
M  V30 8545 N 825.845 3.29893 3.25153 0
M  V30 8546 C 826.58 4.16346 3.94263 0
M  V30 8547 N 826.076 5.12934 4.65693 0
M  V30 8548 N 827.869 4.04256 3.90556 0
M  V30 8549 H 820.02 2.04294 0.581185 0
M  V30 8550 H 822.283 0.892727 0.318971 0
M  V30 8551 H 821.989 3.06572 1.72355 0
M  V30 8552 H 821.863 2.06283 3.15796 0
M  V30 8553 H 824.25 1.18072 2.7045 0
M  V30 8554 H 824.331 2.2184 1.2736 0
M  V30 8555 H 823.975 4.26181 2.76283 0
M  V30 8556 H 823.905 3.19376 4.18697 0
M  V30 8557 H 826.396 2.59969 2.74271 0
M  V30 8558 H 826.709 5.75271 5.16026 0
M  V30 8559 H 825.054 5.16893 4.64593 0
M  V30 8560 H 828.245 3.28083 3.33885 0
M  V30 8561 H 828.418 4.71848 4.44144 0
M  V30 8562 N 821.824 -1.22873 0.986916 0
M  V30 8563 C 823.072 -1.91084 0.658121 0
M  V30 8564 C 823.393 -1.77304 -0.811675 0
M  V30 8565 O 822.663 -1.15649 -1.58121 0
M  V30 8566 H 821.243 -0.707251 0.240427 0
M  V30 8567 H 823.905 -1.49357 1.25213 0
M  V30 8568 H 823.001 -2.98373 0.915428 0
M  V30 8569 N 823.302 -0.75937 -1.38099 0
M  V30 8570 C 824.549 -0.318113 -1.99986 0
M  V30 8571 C 824.877 1.10184 -1.6028 0
M  V30 8572 O 824.132 1.77015 -0.834524 0
M  V30 8573 C 824.431 -0.394999 -3.55211 0
M  V30 8574 C 824.097 -1.77143 -4.14646 0
M  V30 8575 C 822.759 -2.14811 -4.30592 0
M  V30 8576 C 825.111 -2.67407 -4.47373 0
M  V30 8577 C 822.439 -3.42203 -4.76565 0
M  V30 8578 C 824.791 -3.94196 -4.94765 0
M  V30 8579 C 823.455 -4.31925 -5.08918 0
M  V30 8580 H 822.725 -0.116406 -0.7318 0
M  V30 8581 H 825.372 -0.97098 -1.65058 0
M  V30 8582 H 823.677 0.341426 -3.9031 0
M  V30 8583 H 825.374 -0.0350722 -4.00985 0
M  V30 8584 H 821.964 -1.46864 -4.02652 0
M  V30 8585 H 826.148 -2.39569 -4.3465 0
M  V30 8586 H 821.404 -3.71346 -4.85708 0
M  V30 8587 H 825.578 -4.64276 -5.19057 0
M  V30 8588 H 823.205 -5.30699 -5.443 0
M  V30 8589 N 824.78 1.49157 -0.508906 0
M  V30 8590 C 826.191 1.86593 -0.0630975 0
M  V30 8591 C 826.542 1.42051 1.35337 0
M  V30 8592 O 825.667 0.801866 2.00995 0
M  V30 8593 C 826.262 3.38629 -0.107729 0
M  V30 8594 C 824.821 3.75336 0.282776 0
M  V30 8595 C 823.968 2.7317 -0.4768 0
M  V30 8596 H 826.919 1.41362 -0.72128 0
M  V30 8597 H 826.94 3.74271 0.685689 0
M  V30 8598 H 826.452 3.71017 -1.13876 0
M  V30 8599 H 824.553 3.48558 1.31675 0
M  V30 8600 H 824.666 4.79081 -0.0421728 0
M  V30 8601 H 823.03 2.54591 0.0743552 0
M  V30 8602 H 823.813 3.08403 -1.50807 0
M  V30 8603 N 826.258 0.243083 1.55714 0
M  V30 8604 C 827.505 -0.38272 1.9885 0
M  V30 8605 C 827.833 -1.58225 1.13115 0
M  V30 8606 O 827.088 -1.94861 0.181067 0
M  V30 8607 C 827.387 -0.839621 3.47398 0
M  V30 8608 C 827.053 0.251737 4.50197 0
M  V30 8609 C 825.715 0.551487 4.78029 0
M  V30 8610 C 828.067 0.988728 5.11736 0
M  V30 8611 C 825.395 1.59237 5.64677 0
M  V30 8612 C 827.747 2.0191 5.99512 0
M  V30 8613 C 826.411 2.32554 6.2568 0
M  V30 8614 H 825.681 -0.140047 0.727645 0
M  V30 8615 H 828.328 0.35011 1.88272 0
M  V30 8616 H 826.633 -1.65159 3.55288 0
M  V30 8617 H 828.33 -1.33404 3.78159 0
M  V30 8618 H 824.92 0.00796741 4.28599 0
M  V30 8619 H 829.104 0.7704 4.90284 0
M  V30 8620 H 824.36 1.83517 5.83208 0
M  V30 8621 H 828.534 2.59511 6.46241 0
M  V30 8622 H 826.161 3.13349 6.92616 0
M  V30 8623 N 827.736 -1.57571 -0.0300757 0
M  V30 8624 C 828.686 -2.02958 -1.03885 0
M  V30 8625 C 829.67 -0.918723 -1.32092 0
M  V30 8626 O 830.862 -1.18262 -1.31694 0
M  V30 8627 C 827.991 -2.51169 -2.34028 0
M  V30 8628 C 827.077 -3.69073 -2.08915 0
M  V30 8629 N 827.468 -4.81831 -1.53858 0
M  V30 8630 C 825.766 -3.76427 -2.39204 0
M  V30 8631 C 826.467 -5.6346 -1.44526 0
M  V30 8632 N 825.443 -5.08545 -1.92048 0
M  V30 8633 H 829.245 -2.8756 -0.607157 0
M  V30 8634 H 826.759 -1.6067 -0.236399 0
M  V30 8635 H 828.756 -2.81944 -3.07104 0
M  V30 8636 H 827.416 -1.67972 -2.77876 0
M  V30 8637 H 828.427 -5.03291 -1.22142 0
M  V30 8638 H 825.104 -3.04029 -2.86134 0
M  V30 8639 H 826.494 -6.64042 -1.02456 0
M  V30 8640 N 829.214 0.302327 -1.54673 0
M  V30 8641 C 830.439 1.06103 -1.78205 0
M  V30 8642 C 830.864 1.80204 -0.53926 0
M  V30 8643 O 830.222 1.73975 0.510142 0
M  V30 8644 C 830.27 2.01829 -2.98827 0
M  V30 8645 O 829.374 3.10108 -2.71858 0
M  V30 8646 H 828.715 0.30487 -0.589873 0
M  V30 8647 H 831.245 0.340153 -2.01753 0
M  V30 8648 H 831.255 2.44319 -3.2676 0
M  V30 8649 H 829.93 1.473 -3.88942 0
M  V30 8650 H 828.507 2.72142 -2.54937 0
M  V30 8651 N 830.692 1.47107 0.565454 0
M  V30 8652 C 831.917 1.57153 1.35343 0
M  V30 8653 C 832.342 0.219247 1.86818 0
M  V30 8654 O 831.7 -0.803539 1.62521 0
M  V30 8655 C 831.748 2.59387 2.50501 0
M  V30 8656 O 830.852 2.14086 3.52478 0
M  V30 8657 H 830.193 0.528209 0.402357 0
M  V30 8658 H 832.723 1.92821 0.684189 0
M  V30 8659 H 832.733 2.79546 2.97184 0
M  V30 8660 H 831.408 3.57579 2.12391 0
M  V30 8661 H 829.985 2.03991 3.12157 0
M  V30 8662 N 832.17 -0.811516 1.35101 0
M  V30 8663 C 833.08 -1.95475 1.29718 0
M  V30 8664 C 834.096 -1.72813 0.202909 0
M  V30 8665 O 835.272 -1.96725 0.431414 0
M  V30 8666 C 832.337 -3.29975 1.06385 0
M  V30 8667 C 831.398 -3.65566 2.25077 0
M  V30 8668 C 830.631 -4.93648 2.02848 0
M  V30 8669 O 830.854 -5.617 0.992442 0
M  V30 8670 O 829.788 -5.27384 2.90087 0
M  V30 8671 H 833.614 -2.02961 2.25921 0
M  V30 8672 H 831.199 -0.948583 1.15422 0
M  V30 8673 H 833.081 -4.10506 0.951999 0
M  V30 8674 H 831.756 -3.2343 0.132294 0
M  V30 8675 H 830.663 -2.85432 2.41825 0
M  V30 8676 H 831.996 -3.7681 3.16662 0
M  V30 8677 N 833.648 -1.19017 -1.03309 0
M  V30 8678 C 834.897 -0.984542 -1.76039 0
M  V30 8679 C 835.21 0.485937 -1.89468 0
M  V30 8680 O 836.416 0.810278 -2.59127 0
M  V30 8681 C 834.872 -1.71261 -3.1654 0
M  V30 8682 C 834.48 -3.22291 -3.11179 0
M  V30 8683 C 836.224 -1.59007 -3.93595 0
M  V30 8684 C 834.131 -3.87704 -4.46587 0
M  V30 8685 H 833.061 -0.364749 -0.659905 0
M  V30 8686 H 835.712 -1.4247 -1.15649 0
M  V30 8687 H 834.094 -1.20025 -3.77373 0
M  V30 8688 H 835.268 -3.80611 -2.59753 0
M  V30 8689 H 833.583 -3.34772 -2.47622 0
M  V30 8690 H 836.18 -2.05232 -4.93745 0
M  V30 8691 H 836.523 -0.543534 -4.12736 0
M  V30 8692 H 837.056 -2.07564 -3.39355 0
M  V30 8693 H 833.795 -4.92437 -4.3265 0
M  V30 8694 H 833.315 -3.34172 -4.98085 0
M  V30 8695 H 834.994 -3.91008 -5.15482 0
M  V30 8696 N 835.127 1.22348 -0.993418 0
M  V30 8697 C 836.059 2.23626 -0.502404 0
M  V30 8698 C 837.072 1.57739 0.402784 0
M  V30 8699 O 838.261 1.77321 0.204835 0
M  V30 8700 C 835.361 3.37647 0.291118 0
M  V30 8701 C 834.534 4.33121 -0.610332 0
M  V30 8702 C 833.593 5.26035 0.131572 0
M  V30 8703 O 832.619 5.67145 -0.483199 0
M  V30 8704 N 833.821 5.63023 1.41371 0
M  V30 8705 H 836.586 2.66385 -1.37329 0
M  V30 8706 H 834.147 1.36653 -0.868196 0
M  V30 8707 H 836.139 3.96792 0.796107 0
M  V30 8708 H 834.709 2.93967 1.0631 0
M  V30 8709 H 833.929 3.72287 -1.29598 0
M  V30 8710 H 835.217 4.93853 -1.22422 0
M  V30 8711 H 834.615 5.31596 1.93449 0
M  V30 8712 H 833.172 6.24582 1.86388 0
M  V30 8713 N 836.605 0.766683 1.37694 0
M  V30 8714 C 838.021 0.445739 1.53249 0
M  V30 8715 C 838.221 -1.03935 1.72626 0
M  V30 8716 O 837.277 -1.82525 1.74473 0
M  V30 8717 C 838.59 1.2564 2.73194 0
M  V30 8718 C 840.138 1.24779 2.87053 0
M  V30 8719 C 840.613 2.04169 4.09974 0
M  V30 8720 N 842.104 2.01497 4.17077 0
M  V30 8721 C 842.839 2.5971 5.11212 0
M  V30 8722 N 842.335 3.26691 6.10938 0
M  V30 8723 N 844.128 2.49568 5.03659 0
M  V30 8724 H 836.279 1.72899 1.23368 0
M  V30 8725 H 838.542 0.733701 0.600322 0
M  V30 8726 H 838.248 2.30859 2.65324 0
M  V30 8727 H 838.122 0.882133 3.6674 0
M  V30 8728 H 840.509 0.203603 2.94397 0
M  V30 8729 H 840.59 1.66166 1.9448 0
M  V30 8730 H 840.234 3.08606 4.03392 0
M  V30 8731 H 840.164 1.60167 5.01651 0
M  V30 8732 H 842.655 1.52728 3.45662 0
M  V30 8733 H 842.968 3.68497 6.79286 0
M  V30 8734 H 841.313 3.30789 6.11231 0
M  V30 8735 H 844.504 1.96859 4.24693 0
M  V30 8736 H 844.677 2.95231 5.76839 0
M  V30 8737 N 838.083 -1.48885 0.516809 0
M  V30 8738 C 839.36 -1.95412 -0.0858293 0
M  V30 8739 C 839.74 -1.45875 -1.5259 0
M  V30 8740 O 839.088 -0.679415 -2.18166 0
M  V30 8741 C 839.298 -3.48995 0.0178194 0
M  V30 8742 C 840.646 -4.24342 -0.14813 0
M  V30 8743 O 841.67 -3.56155 -0.0566125 0
M  V30 8744 O 840.529 -5.45454 -0.338035 0
M  V30 8745 H 837.623 -0.822455 -0.0865884 0
M  V30 8746 H 840.169 -1.59464 0.580472 0
M  V30 8747 H 838.941 -3.77732 1.02147 0
M  V30 8748 H 838.564 -3.91604 -0.687924 0
M  V30 8749 N 839.561 -0.251338 -1.55583 0
M  V30 8750 C 840.471 0.656978 -2.25213 0
M  V30 8751 C 841.487 1.18966 -1.26977 0
M  V30 8752 O 842.663 1.22499 -1.59862 0
M  V30 8753 C 839.728 1.83527 -2.94141 0
M  V30 8754 C 838.789 1.34162 -4.07798 0
M  V30 8755 C 838.022 2.46375 -4.73429 0
M  V30 8756 O 838.245 3.65205 -4.38157 0
M  V30 8757 O 837.179 2.15881 -5.61853 0
M  V30 8758 H 841.005 0.0936395 -3.03556 0
M  V30 8759 H 838.59 -0.0196638 -1.49387 0
M  V30 8760 H 840.472 2.52279 -3.3754 0
M  V30 8761 H 839.147 2.38614 -2.18735 0
M  V30 8762 H 838.054 0.621249 -3.68906 0
M  V30 8763 H 839.387 0.836779 -4.85035 0
M  V30 8764 N 841.039 1.57585 0.0217189 0
M  V30 8765 C 841.969 2.10073 1.01939 0
M  V30 8766 C 842.95 1.0049 1.37243 0
M  V30 8767 O 844.135 1.28055 1.45999 0
M  V30 8768 C 841.265 2.58618 2.31806 0
M  V30 8769 C 840.219 3.72531 2.10724 0
M  V30 8770 C 839.545 4.07309 3.46415 0
M  V30 8771 C 840.845 5.00672 1.48743 0
M  V30 8772 H 842.539 2.9368 0.582432 0
M  V30 8773 H 840.085 1.41277 0.278715 0
M  V30 8774 H 842.038 2.9396 3.01936 0
M  V30 8775 H 840.762 1.72104 2.77575 0
M  V30 8776 H 839.421 3.37549 1.43025 0
M  V30 8777 H 839.069 3.17851 3.89846 0
M  V30 8778 H 838.769 4.84042 3.33132 0
M  V30 8779 H 840.293 4.45192 4.17895 0
M  V30 8780 H 841.707 5.33925 2.088 0
M  V30 8781 H 840.104 5.82065 1.46013 0
M  V30 8782 H 841.174 4.82769 0.45408 0
M  V30 8783 N 842.517 -0.29412 1.54831 0
M  V30 8784 C 843.48 -1.3461 1.85507 0
M  V30 8785 C 844.48 -1.43359 0.728343 0
M  V30 8786 O 845.67 -1.42875 0.996609 0
M  V30 8787 C 842.802 -2.73012 2.0415 0
M  V30 8788 H 843.995 -1.08651 2.79526 0
M  V30 8789 H 841.548 -0.531138 1.46999 0
M  V30 8790 H 842.283 -3.04183 1.12441 0
M  V30 8791 H 842.068 -2.68051 2.86166 0
M  V30 8792 H 843.558 -3.49061 2.29229 0
M  V30 8793 N 843.995 -1.47404 -0.557645 0
M  V30 8794 C 845.406 -1.47872 -1.13977 0
M  V30 8795 C 845.757 -0.233176 -1.94809 0
M  V30 8796 O 844.882 0.661945 -2.06027 0
M  V30 8797 C 845.477 -2.67926 -2.07368 0
M  V30 8798 C 844.036 -2.71354 -2.60852 0
M  V30 8799 C 843.183 -2.40967 -1.37223 0
M  V30 8800 H 846.134 -1.54921 -0.344268 0
M  V30 8801 H 846.155 -2.44871 -2.91236 0
M  V30 8802 H 845.667 -3.58562 -1.48509 0
M  V30 8803 H 843.768 -1.84855 -3.23511 0
M  V30 8804 H 843.881 -3.72032 -3.01876 0
M  V30 8805 H 842.245 -1.91541 -1.67882 0
M  V30 8806 H 843.028 -3.33811 -0.801583 0
M  V30 8807 N 845.473 0.80434 -1.35529 0
M  V30 8808 C 846.436 1.89788 -1.28503 0
M  V30 8809 C 847.436 1.59601 -0.195983 0
M  V30 8810 O 848.626 1.68292 -0.449827 0
M  V30 8811 C 845.758 3.26255 -0.98847 0
M  V30 8812 H 846.951 1.97436 -2.25741 0
M  V30 8813 H 844.504 1.00046 -1.20086 0
M  V30 8814 H 845.239 3.24294 -0.0200541 0
M  V30 8815 H 845.024 3.49551 -1.77641 0
M  V30 8816 H 846.514 4.06298 -0.964975 0
M  V30 8817 N 846.951 1.19563 1.02676 0
M  V30 8818 C 848.199 0.997593 1.75763 0
M  V30 8819 C 848.52 -0.47253 1.89188 0
M  V30 8820 O 847.79 -1.34214 1.42701 0
M  V30 8821 H 846.37 0.366128 0.651122 0
M  V30 8822 H 849.032 1.50495 1.23844 0
M  V30 8823 H 848.128 1.44741 2.76508 0
M  V30 8824 N 848.429 -1.21819 0.999893 0
M  V30 8825 C 849.657 -1.94758 0.698359 0
M  V30 8826 C 850.072 -1.73771 -0.738183 0
M  V30 8827 O 849.429 -1.04113 -1.49889 0
M  V30 8828 C 849.48 -3.47292 1.00353 0
M  V30 8829 O 849.201 -3.67579 2.38363 0
M  V30 8830 C 850.702 -4.37403 0.72068 0
M  V30 8831 H 847.922 -0.619512 0.257771 0
M  V30 8832 H 850.466 -1.54778 1.33656 0
M  V30 8833 H 848.621 -3.85213 0.411018 0
M  V30 8834 H 849.035 -4.61719 2.48829 0
M  V30 8835 H 850.509 -5.43151 0.984422 0
M  V30 8836 H 850.986 -4.3784 -0.345309 0
M  V30 8837 H 851.592 -4.05119 1.29456 0
M  V30 8838 N 849.908 -0.773975 -1.37286 0
M  V30 8839 C 851.156 -0.338636 -1.99243 0
M  V30 8840 C 851.477 1.08919 -1.61746 0
M  V30 8841 O 850.747 1.74822 -0.88397 0
M  V30 8842 H 849.327 -0.12222 -0.736934 0
M  V30 8843 H 851.989 -0.992595 -1.67731 0
M  V30 8844 H 851.085 -0.418055 -3.09287 0
M  V30 8845 N 851.386 1.48609 -0.524698 0
M  V30 8846 C 852.632 2.02797 0.0113382 0
M  V30 8847 C 852.965 1.40147 1.34433 0
M  V30 8848 O 852.24 0.545368 1.86698 0
M  V30 8849 C 852.523 3.59832 0.138931 0
M  V30 8850 C 852.376 4.32971 -1.21886 0
M  V30 8851 C 853.695 4.3145 0.868265 0
M  V30 8852 H 850.814 0.736995 0.00264645 0
M  V30 8853 H 853.456 1.77388 -0.680704 0
M  V30 8854 H 851.606 3.81612 0.72834 0
M  V30 8855 H 853.278 4.22624 -1.84897 0
M  V30 8856 H 851.521 3.94597 -1.80211 0
M  V30 8857 H 852.192 5.41279 -1.08263 0
M  V30 8858 H 854.668 4.14468 0.368145 0
M  V30 8859 H 853.544 5.41025 0.926428 0
M  V30 8860 H 853.805 3.98358 1.91737 0
M  V30 8861 N 852.864 0.259585 1.55447 0
M  V30 8862 C 854.089 -0.368317 2.04103 0
M  V30 8863 C 854.514 -1.49827 1.13725 0
M  V30 8864 O 853.872 -1.80814 0.132705 0
M  V30 8865 C 853.92 -0.841506 3.50644 0
M  V30 8866 O 853.024 -1.95008 3.63381 0
M  V30 8867 H 852.365 -0.0785227 0.659341 0
M  V30 8868 H 854.895 0.389349 2.00861 0
M  V30 8869 H 854.905 -1.14138 3.9171 0
M  V30 8870 H 853.58 -0.0147001 4.15897 0
M  V30 8871 H 852.157 -1.65393 3.34215 0
M  V30 8872 N 854.342 -1.57594 -0.0133615 0
M  V30 8873 C 855.758 -1.5527 -0.369255 0
M  V30 8874 C 855.958 -0.987751 -1.7563 0
M  V30 8875 O 855.014 -0.615683 -2.44879 0
M  V30 8876 C 856.327 -2.99602 -0.25672 0
M  V30 8877 C 857.875 -3.11227 -0.332647 0
M  V30 8878 C 858.35 -4.57321 -0.249387 0
M  V30 8879 N 859.841 -4.62177 -0.3077 0
M  V30 8880 C 860.576 -5.72781 -0.26641 0
M  V30 8881 N 860.072 -6.92575 -0.176494 0
M  V30 8882 N 861.865 -5.61204 -0.317295 0
M  V30 8883 H 854.016 -1.92662 0.894154 0
M  V30 8884 H 856.279 -0.884352 0.341505 0
M  V30 8885 H 855.985 -3.44723 0.697072 0
M  V30 8886 H 855.859 -3.6246 -1.04415 0
M  V30 8887 H 858.246 -2.66045 -1.27688 0
M  V30 8888 H 858.327 -2.51171 0.484412 0
M  V30 8889 H 857.971 -5.03174 0.691242 0
M  V30 8890 H 857.901 -5.15306 -1.08476 0
M  V30 8891 H 860.392 -3.75994 -0.379069 0
M  V30 8892 H 860.705 -7.72653 -0.150518 0
M  V30 8893 H 859.05 -6.94854 -0.142314 0
M  V30 8894 H 862.241 -4.66509 -0.385643 0
M  V30 8895 H 862.414 -6.47388 -0.28165 0
M  V30 8896 N 855.82 0.285905 -1.54985 0
M  V30 8897 C 856.73 1.37534 -1.90057 0
M  V30 8898 C 857.746 1.54707 -0.796348 0
M  V30 8899 O 858.922 1.69082 -1.09423 0
M  V30 8900 C 855.987 2.7167 -2.15398 0
M  V30 8901 C 855.048 2.63354 -3.39033 0
M  V30 8902 C 854.281 3.91093 -3.63155 0
M  V30 8903 O 854.504 4.91169 -2.90015 0
M  V30 8904 O 853.438 3.92075 -4.56685 0
M  V30 8905 H 857.264 1.10791 -2.8277 0
M  V30 8906 H 854.849 0.483303 -1.41367 0
M  V30 8907 H 856.731 3.51006 -2.33179 0
M  V30 8908 H 855.406 2.98226 -1.25868 0
M  V30 8909 H 854.313 1.82438 -3.26599 0
M  V30 8910 H 855.646 2.41749 -4.2874 0
M  V30 8911 N 857.298 1.47698 0.54982 0
M  V30 8912 C 858.261 1.60282 1.63837 0
M  V30 8913 C 859.261 0.477394 1.5355 0
M  V30 8914 O 860.451 0.742665 1.57576 0
M  V30 8915 C 857.583 1.55431 3.03404 0
M  V30 8916 H 858.776 2.57325 1.54026 0
M  V30 8917 H 856.329 1.35999 0.770329 0
M  V30 8918 H 857.064 0.597912 3.1874 0
M  V30 8919 H 856.849 2.37116 3.12279 0
M  V30 8920 H 858.339 1.6739 3.82584 0
M  V30 8921 N 858.776 -0.797141 1.35954 0
M  V30 8922 C 860.022 -1.55698 1.29946 0
M  V30 8923 C 860.355 -1.93808 -0.123259 0
M  V30 8924 O 859.63 -1.62102 -1.07486 0
M  V30 8925 C 859.913 -2.83926 2.2149 0
M  V30 8926 C 859.766 -2.52232 3.72423 0
M  V30 8927 C 861.085 -3.85698 2.11955 0
M  V30 8928 H 858.204 -0.56488 0.47337 0
M  V30 8929 H 860.846 -0.916421 1.66438 0
M  V30 8930 H 858.996 -3.38588 1.905 0
M  V30 8931 H 860.668 -2.0368 4.13899 0
M  V30 8932 H 858.911 -1.85286 3.92239 0
M  V30 8933 H 859.582 -3.43782 4.31877 0
M  V30 8934 H 862.058 -3.40462 2.39218 0
M  V30 8935 H 860.934 -4.73182 2.78191 0
M  V30 8936 H 861.195 -4.28083 1.10442 0
M  V30 8937 N 860.254 -1.20106 -1.0204 0
M  V30 8938 C 861.479 -1.0351 -1.79723 0
M  V30 8939 C 861.904 0.411328 -1.83548 0
M  V30 8940 O 861.262 1.29608 -1.26773 0
M  V30 8941 C 861.31 -1.61876 -3.22224 0
M  V30 8942 O 860.414 -0.853813 -4.03465 0
M  V30 8943 H 859.755 -0.365299 -0.554484 0
M  V30 8944 H 862.285 -1.59316 -1.28373 0
M  V30 8945 H 862.295 -1.65451 -3.72948 0
M  V30 8946 H 860.97 -2.67148 -3.18755 0
M  V30 8947 H 859.547 -0.891983 -3.62075 0
M  V30 8948 N 861.732 1.21287 -1.00634 0
M  V30 8949 C 862.98 1.90013 -0.688438 0
M  V30 8950 C 863.301 1.78573 0.783365 0
M  V30 8951 O 862.571 1.1815 1.56261 0
M  V30 8952 H 861.151 0.703336 -0.251648 0
M  V30 8953 H 863.813 1.47346 -1.27574 0
M  V30 8954 H 862.909 2.96879 -0.962781 0
M  V30 8955 N 863.21 0.781244 1.36873 0
M  V30 8956 C 864.14 0.188128 2.32741 0
M  V30 8957 C 865.121 -0.672326 1.56249 0
M  V30 8958 O 866.306 -0.607835 1.84442 0
M  V30 8959 C 863.436 -0.684341 3.40491 0
M  V30 8960 C 862.39 0.0755641 4.27933 0
M  V30 8961 C 861.716 -0.916968 5.26779 0
M  V30 8962 C 863.016 1.26006 5.06873 0
M  V30 8963 H 864.71 0.989016 2.82593 0
M  V30 8964 H 862.256 0.477038 1.35869 0
M  V30 8965 H 864.209 -1.10915 4.06541 0
M  V30 8966 H 862.933 -1.51785 2.89187 0
M  V30 8967 H 861.592 0.481258 3.63427 0
M  V30 8968 H 861.24 -1.74528 4.71751 0
M  V30 8969 H 860.94 -0.413 5.86147 0
M  V30 8970 H 862.464 -1.34052 5.95703 0
M  V30 8971 H 863.878 0.911425 5.66009 0
M  V30 8972 H 862.275 1.69676 5.75613 0
M  V30 8973 H 863.345 2.05948 4.38991 0
M  V30 8974 N 864.689 -1.48329 0.532571 0
M  V30 8975 C 865.619 -2.32485 -0.217511 0
M  V30 8976 C 866.6 -1.42255 -0.932598 0
M  V30 8977 O 867.785 -1.7114 -0.917873 0
M  V30 8978 C 864.915 -3.23509 -1.26329 0
M  V30 8979 C 863.869 -4.22784 -0.666191 0
M  V30 8980 C 863.195 -5.0296 -1.81482 0
M  V30 8981 C 864.495 -5.21031 0.363813 0
M  V30 8982 H 866.189 -2.95445 0.485014 0
M  V30 8983 H 863.735 -1.42075 0.234694 0
M  V30 8984 H 865.688 -3.81211 -1.79601 0
M  V30 8985 H 864.412 -2.58554 -1.99543 0
M  V30 8986 H 863.071 -3.66272 -0.15498 0
M  V30 8987 H 862.719 -4.34427 -2.5354 0
M  V30 8988 H 862.419 -5.70154 -1.4212 0
M  V30 8989 H 863.943 -5.63514 -2.35126 0
M  V30 8990 H 865.357 -5.73241 -0.0819079 0
M  V30 8991 H 863.754 -5.96292 0.674956 0
M  V30 8992 H 864.824 -4.6801 1.26865 0
M  V30 8993 N 866.167 -0.267825 -1.55308 0
M  V30 8994 C 867.416 0.351635 -1.98611 0
M  V30 8995 C 867.729 1.57522 -1.15957 0
M  V30 8996 O 868.935 2.26717 -1.49371 0
M  V30 8997 C 867.391 0.676986 -3.53475 0
M  V30 8998 C 866.999 -0.526385 -4.44897 0
M  V30 8999 C 868.743 1.25948 -4.05386 0
M  V30 9000 C 866.65 -0.176026 -5.91138 0
M  V30 9001 H 865.58 0.13516 -0.741787 0
M  V30 9002 H 868.231 -0.371333 -1.79704 0
M  V30 9003 H 866.613 1.45866 -3.68156 0
M  V30 9004 H 867.787 -1.30339 -4.41982 0
M  V30 9005 H 866.102 -1.02522 -4.03582 0
M  V30 9006 H 868.699 1.53529 -5.12184 0
M  V30 9007 H 869.042 2.19094 -3.53982 0
M  V30 9008 H 869.575 0.540253 -3.94114 0
M  V30 9009 H 866.314 -1.07518 -6.46622 0
M  V30 9010 H 865.834 0.564363 -5.97139 0
M  V30 9011 H 867.513 0.234365 -6.46575 0
M  V30 9012 N 867.645 1.57599 0.00500368 0
M  V30 9013 C 868.578 2.03541 1.03181 0
M  V30 9014 C 869.556 0.924301 1.33774 0
M  V30 9015 O 870.74 1.19204 1.46023 0
M  V30 9016 C 867.867 2.42879 2.36067 0
M  V30 9017 C 866.913 3.64673 2.21169 0
M  V30 9018 S 867.746 5.12805 1.54243 0
M  V30 9019 C 868.902 5.55408 2.88569 0
M  V30 9020 H 869.135 2.90316 0.640598 0
M  V30 9021 H 866.668 1.52886 0.215722 0
M  V30 9022 H 868.626 2.66212 3.12476 0
M  V30 9023 H 867.287 1.56512 2.72329 0
M  V30 9024 H 866.48 3.89932 3.19326 0
M  V30 9025 H 866.082 3.41316 1.52904 0
M  V30 9026 H 868.374 5.57563 3.84876 0
M  V30 9027 H 869.317 6.55418 2.68016 0
M  V30 9028 H 869.725 4.82961 2.92249 0
M  V30 9029 N 869.123 -0.277682 1.55134 0
M  V30 9030 C 870.371 -1.00791 1.75173 0
M  V30 9031 C 870.692 -1.86987 0.553266 0
M  V30 9032 O 869.962 -1.91079 -0.43195 0
M  V30 9033 H 868.542 -0.375129 0.645978 0
M  V30 9034 H 871.204 -0.303041 1.9253 0
M  V30 9035 H 870.3 -1.64756 2.6507 0
M  V30 9036 N 870.601 -1.47988 -0.541979 0
M  V30 9037 C 871.564 -1.61148 -1.62984 0
M  V30 9038 C 872.564 -0.48553 -1.53295 0
M  V30 9039 O 873.754 -0.751012 -1.5718 0
M  V30 9040 C 870.886 -1.57038 -3.02576 0
M  V30 9041 H 872.079 -2.58138 -1.52659 0
M  V30 9042 H 869.632 -1.36405 -0.763106 0
M  V30 9043 H 870.367 -0.614807 -3.18419 0
M  V30 9044 H 870.152 -2.38769 -3.11018 0
M  V30 9045 H 871.642 -1.69416 -3.81691 0
M  V30 9046 N 872.079 0.78992 -1.36375 0
M  V30 9047 C 873.327 1.54472 -1.30319 0
M  V30 9048 C 873.648 1.94647 0.117338 0
M  V30 9049 O 872.918 1.64906 1.05748 0
M  V30 9050 H 871.498 0.572879 -0.479394 0
M  V30 9051 H 874.16 0.941245 -1.70665 0
M  V30 9052 H 873.256 2.45252 -1.93024 0
M  V30 9053 N 873.557 1.20646 1.01402 0
M  V30 9054 C 874.805 1.01618 1.74695 0
M  V30 9055 C 875.126 -0.452438 1.89679 0
M  V30 9056 O 874.396 -1.32693 1.44116 0
M  V30 9057 H 872.976 0.373013 0.647202 0
M  V30 9058 H 875.638 1.518 1.22241 0
M  V30 9059 H 874.734 1.47666 2.74957 0
M  V30 9060 N 875.035 -1.20752 1.01276 0
M  V30 9061 C 876.283 -1.89645 0.698505 0
M  V30 9062 C 876.604 -1.78986 -0.773883 0
M  V30 9063 O 875.874 -1.18977 -1.55632 0
M  V30 9064 H 874.454 -0.701992 0.255375 0
M  V30 9065 H 877.116 -1.46668 1.28353 0
M  V30 9066 H 876.212 -2.96364 0.978512 0
M  V30 9067 N 876.513 -0.788492 -1.36457 0
M  V30 9068 C 877.738 -0.371224 -2.04051 0
M  V30 9069 C 878.163 1.004 -1.59064 0
M  V30 9070 O 877.521 1.64663 -0.758679 0
M  V30 9071 C 877.569 -0.442275 -3.57877 0
M  V30 9072 O 876.673 0.55113 -4.08701 0
M  V30 9073 H 876.014 -0.157808 -0.644975 0
M  V30 9074 H 878.544 -1.06935 -1.74431 0
M  V30 9075 H 878.554 -0.305548 -4.06854 0
M  V30 9076 H 877.229 -1.44547 -3.89973 0
M  V30 9077 H 875.806 0.37614 -3.70998 0
M  V30 9078 N 877.991 1.48044 -0.54043 0
M  V30 9079 C 878.921 2.32597 0.205178 0
M  V30 9080 C 879.902 1.42748 0.925041 0
M  V30 9081 O 881.087 1.71624 0.908784 0
M  V30 9082 C 878.217 3.24175 1.24612 0
M  V30 9083 C 877.171 4.23131 0.64376 0
M  V30 9084 C 876.497 5.03915 1.78812 0
M  V30 9085 C 877.797 5.20831 -0.39144 0
M  V30 9086 H 879.491 2.95184 -0.500676 0
M  V30 9087 H 877.037 1.41948 -0.242225 0
M  V30 9088 H 878.99 3.82158 1.77576 0
M  V30 9089 H 877.714 2.59608 1.98169 0
M  V30 9090 H 876.373 3.66349 0.135554 0
M  V30 9091 H 876.021 4.35765 2.51232 0
M  V30 9092 H 875.721 5.709 1.39094 0
M  V30 9093 H 877.245 5.64753 2.32134 0
M  V30 9094 H 878.659 5.73277 0.0515064 0
M  V30 9095 H 877.056 5.95926 -0.706569 0
M  V30 9096 H 878.126 4.6733 -1.29345 0
M  V30 9097 N 879.47 0.276058 1.55163 0
M  V30 9098 C 880.719 -0.341098 1.98795 0
M  V30 9099 C 881.032 -1.56905 1.16791 0
M  V30 9100 O 882.238 -2.25922 1.50571 0
M  V30 9101 C 880.694 -0.658231 3.5383 0
M  V30 9102 C 880.302 0.549972 4.44611 0
M  V30 9103 C 882.046 -1.23796 4.06048 0
M  V30 9104 C 879.953 0.207373 5.91036 0
M  V30 9105 H 878.883 -0.131224 0.742493 0
M  V30 9106 H 881.534 0.380858 1.79504 0
M  V30 9107 H 879.916 -1.43911 3.68925 0
M  V30 9108 H 881.09 1.32681 4.41285 0
M  V30 9109 H 879.405 1.04661 4.03032 0
M  V30 9110 H 882.002 -1.50811 5.12991 0
M  V30 9111 H 882.345 -2.17214 3.55139 0
M  V30 9112 H 882.878 -0.519345 3.94395 0
M  V30 9113 H 879.617 1.10946 6.46043 0
M  V30 9114 H 879.137 -0.532687 5.9743 0
M  V30 9115 H 880.816 -0.200072 6.46691 0
M  V30 9116 N 880.948 -1.576 0.00335426 0
M  V30 9117 C 882.194 -1.90996 -0.681799 0
M  V30 9118 C 882.527 -0.877643 -1.73237 0
M  V30 9119 O 881.802 0.103183 -1.94226 0
M  V30 9120 C 882.085 -3.34961 -1.32187 0
M  V30 9121 C 881.938 -4.48911 -0.28261 0
M  V30 9122 C 883.257 -3.78408 -2.24711 0
M  V30 9123 H 880.376 -0.694596 -0.246386 0
M  V30 9124 H 883.018 -1.89919 0.055336 0
M  V30 9125 H 881.168 -3.36008 -1.95014 0
M  V30 9126 H 882.84 -4.59999 0.346241 0
M  V30 9127 H 881.083 -4.32 0.394768 0
M  V30 9128 H 881.754 -5.46609 -0.769576 0
M  V30 9129 H 884.23 -3.78934 -1.71897 0
M  V30 9130 H 883.106 -4.79885 -2.66461 0
M  V30 9131 H 883.367 -3.12464 -3.1276 0
M  V30 9132 N 882.426 0.269451 -1.5528 0
M  V30 9133 C 883.356 1.33729 -1.91413 0
M  V30 9134 C 884.337 1.51348 -0.776391 0
M  V30 9135 O 885.522 1.64332 -1.03482 0
M  V30 9136 C 882.652 2.69618 -2.18914 0
M  V30 9137 C 881.606 2.66725 -3.34726 0
M  V30 9138 C 880.932 4.06199 -3.47716 0
M  V30 9139 C 882.232 2.25684 -4.71025 0
M  V30 9140 H 883.926 1.03736 -2.80854 0
M  V30 9141 H 881.472 0.497579 -1.3513 0
M  V30 9142 H 883.425 3.44436 -2.42779 0
M  V30 9143 H 882.149 3.01201 -1.26275 0
M  V30 9144 H 880.808 1.94365 -3.10834 0
M  V30 9145 H 880.456 4.3501 -2.52537 0
M  V30 9146 H 880.156 4.05157 -4.25583 0
M  V30 9147 H 881.68 4.8275 -3.73877 0
M  V30 9148 H 883.094 2.90225 -4.94411 0
M  V30 9149 H 881.491 2.35797 -5.51833 0
M  V30 9150 H 882.561 1.20819 -4.69607 0
M  V30 9151 N 883.904 1.48273 0.534124 0
M  V30 9152 C 885.129 1.59988 1.31979 0
M  V30 9153 C 885.554 0.258824 1.86311 0
M  V30 9154 O 884.912 -0.768885 1.64188 0
M  V30 9155 C 884.96 2.64642 2.44943 0
M  V30 9156 O 884.064 2.21515 3.47858 0
M  V30 9157 H 883.405 0.536625 0.391063 0
M  V30 9158 H 885.935 1.94229 0.643135 0
M  V30 9159 H 885.945 2.85786 2.91187 0
M  V30 9160 H 884.62 3.62004 2.04758 0
M  V30 9161 H 883.197 2.10567 3.0776 0
M  V30 9162 N 885.382 -0.782676 1.36792 0
M  V30 9163 C 886.315 -1.90241 1.2603 0
M  V30 9164 C 887.293 -1.61969 0.143055 0
M  V30 9165 O 888.477 -1.85843 0.315366 0
M  V30 9166 C 885.604 -3.25218 0.946082 0
M  V30 9167 C 884.65 -3.72414 2.0787 0
M  V30 9168 S 885.483 -3.87376 3.69729 0
M  V30 9169 C 886.639 -5.25219 3.40435 0
M  V30 9170 H 886.872 -1.99079 2.20805 0
M  V30 9171 H 884.405 -0.942625 1.22286 0
M  V30 9172 H 886.363 -4.03183 0.771612 0
M  V30 9173 H 885.024 -3.14096 0.0159991 0
M  V30 9174 H 884.217 -4.7024 1.81358 0
M  V30 9175 H 883.819 -3.01519 2.21274 0
M  V30 9176 H 886.111 -6.10025 2.94746 0
M  V30 9177 H 887.054 -5.56738 4.37549 0
M  V30 9178 H 887.462 -4.92638 2.75622 0
M  V30 9179 N 886.86 -1.21182 -1.00761 0
M  V30 9180 C 887.79 -0.992773 -2.11344 0
M  V30 9181 C 888.771 0.0813618 -1.69905 0
M  V30 9182 O 889.956 -0.0779503 -1.94043 0
M  V30 9183 C 887.086 -0.553826 -3.42856 0
M  V30 9184 C 886.04 -1.57223 -3.98077 0
M  V30 9185 C 885.366 -0.989605 -5.25463 0
M  V30 9186 C 886.666 -2.95839 -4.30438 0
M  V30 9187 H 888.36 -1.91766 -2.29927 0
M  V30 9188 H 885.906 -0.923426 -1.10494 0
M  V30 9189 H 887.859 -0.387771 -4.19612 0
M  V30 9190 H 886.583 0.406702 -3.24058 0
M  V30 9191 H 885.242 -1.7258 -3.23437 0
M  V30 9192 H 884.89 -0.0208743 -5.02996 0
M  V30 9193 H 884.59 -1.66984 -5.63374 0
M  V30 9194 H 886.114 -0.834815 -6.04866 0
M  V30 9195 H 887.528 -2.8394 -4.98047 0
M  V30 9196 H 885.925 -3.60851 -4.79486 0
M  V30 9197 H 886.995 -3.46882 -3.38823 0
M  V30 9198 N 888.338 1.20213 -1.01915 0
M  V30 9199 C 889.268 2.25336 -0.612023 0
M  V30 9200 C 890.249 1.65933 0.374186 0
M  V30 9201 O 891.434 1.92464 0.259053 0
M  V30 9202 C 888.564 3.47267 0.047904 0
M  V30 9203 C 887.518 4.1928 -0.859557 0
M  V30 9204 C 886.844 5.3466 -0.0652655 0
M  V30 9205 C 888.144 4.75143 -2.1688 0
M  V30 9206 H 889.838 2.59645 -1.49079 0
M  V30 9207 H 887.384 1.24808 -0.718263 0
M  V30 9208 H 889.337 4.19991 0.344294 0
M  V30 9209 H 888.061 3.12129 0.961404 0
M  V30 9210 H 886.72 3.48425 -1.13999 0
M  V30 9211 H 886.368 4.95767 0.849964 0
M  V30 9212 H 886.068 5.83772 -0.669618 0
M  V30 9213 H 887.592 6.10187 0.224612 0
M  V30 9214 H 889.006 5.39672 -1.9346 0
M  V30 9215 H 887.403 5.34702 -2.72422 0
M  V30 9216 H 888.473 3.93744 -2.83008 0
M  V30 9217 N 889.816 0.795718 1.36037 0
M  V30 9218 C 890.746 0.212803 2.32528 0
M  V30 9219 C 891.727 -0.655716 1.56953 0
M  V30 9220 O 892.912 -0.588238 1.85077 0
M  V30 9221 C 890.042 -0.648189 3.41198 0
M  V30 9222 C 888.996 0.120948 4.27829 0
M  V30 9223 C 888.322 -0.861044 5.27722 0
M  V30 9224 C 889.622 1.31375 5.05508 0
M  V30 9225 H 891.316 1.01893 2.81528 0
M  V30 9226 H 888.862 0.491422 1.35355 0
M  V30 9227 H 890.815 -1.06597 4.07695 0
M  V30 9228 H 889.539 -1.48709 2.9078 0
M  V30 9229 H 888.198 0.519777 3.62897 0
M  V30 9230 H 887.846 -1.69515 4.73575 0
M  V30 9231 H 887.546 -0.350808 5.86552 0
M  V30 9232 H 889.07 -1.27726 5.97092 0
M  V30 9233 H 890.484 0.971406 5.6501 0
M  V30 9234 H 888.881 1.75772 5.73781 0
M  V30 9235 H 889.951 2.10593 4.36782 0
M  V30 9236 N 891.294 -1.47756 0.548274 0
M  V30 9237 C 892.71 -1.58247 0.207401 0
M  V30 9238 C 892.91 -1.54804 -1.28988 0
M  V30 9239 O 891.966 -1.44673 -2.06944 0
M  V30 9240 C 893.279 -2.89129 0.826142 0
M  V30 9241 C 894.827 -3.02695 0.79655 0
M  V30 9242 C 895.302 -4.36264 1.3942 0
M  V30 9243 N 896.793 -4.42877 1.35698 0
M  V30 9244 C 897.528 -5.44773 1.78913 0
M  V30 9245 N 897.024 -6.53528 2.29942 0
M  V30 9246 N 898.817 -5.35765 1.70038 0
M  V30 9247 H 890.968 -1.48236 1.52117 0
M  V30 9248 H 893.231 -0.704957 0.633829 0
M  V30 9249 H 892.937 -2.97358 1.87806 0
M  V30 9250 H 892.811 -3.75891 0.313916 0
M  V30 9251 H 895.198 -2.94067 -0.246655 0
M  V30 9252 H 895.279 -2.17496 1.34644 0
M  V30 9253 H 894.923 -4.45646 2.43642 0
M  V30 9254 H 894.853 -5.20179 0.819827 0
M  V30 9255 H 897.344 -3.64874 0.983623 0
M  V30 9256 H 897.657 -7.27441 2.60863 0
M  V30 9257 H 896.002 -6.54442 2.33947 0
M  V30 9258 H 899.193 -4.49699 1.29955 0
M  V30 9259 H 899.366 -6.1504 2.04035 0
M  V30 9260 N 892.772 -0.284283 -1.55015 0
M  V30 9261 C 894.188 0.069603 -1.59448 0
M  V30 9262 C 894.388 1.53833 -1.30144 0
M  V30 9263 O 893.444 2.2886 -1.06674 0
M  V30 9264 C 894.757 -0.313287 -2.99064 0
M  V30 9265 C 896.305 -0.260662 -3.11913 0
M  V30 9266 C 896.78 -0.618127 -4.5381 0
M  V30 9267 N 898.271 -0.570026 -4.59679 0
M  V30 9268 C 899.006 -0.8193 -5.67517 0
M  V30 9269 N 898.502 -1.13367 -6.83462 0
M  V30 9270 N 900.295 -0.747482 -5.57108 0
M  V30 9271 H 892.446 -1.24167 -1.72326 0
M  V30 9272 H 894.709 -0.502259 -0.804015 0
M  V30 9273 H 894.415 -1.33509 -3.25374 0
M  V30 9274 H 894.289 0.341369 -3.75652 0
M  V30 9275 H 896.676 0.751869 -2.85361 0
M  V30 9276 H 896.757 -0.949706 -2.37517 0
M  V30 9277 H 896.401 -1.62839 -4.81088 0
M  V30 9278 H 896.331 0.092807 -5.26518 0
M  V30 9279 H 898.822 -0.3373 -3.76392 0
M  V30 9280 H 899.135 -1.3103 -7.61611 0
M  V30 9281 H 897.48 -1.17154 -6.85055 0
M  V30 9282 H 900.671 -0.501658 -4.65404 0
M  V30 9283 H 900.844 -0.945128 -6.4107 0
M  V30 9284 N 894.251 1.57596 -0.0117121 0
M  V30 9285 C 895.198 2.09153 0.975897 0
M  V30 9286 C 896.168 0.989579 1.33404 0
M  V30 9287 O 897.353 1.26273 1.43038 0
M  V30 9288 C 894.493 2.60906 2.2588 0
M  V30 9289 C 893.606 3.85046 1.95866 0
M  V30 9290 C 892.741 4.25257 3.18323 0
M  V30 9291 C 891.78 5.42202 2.84049 0
M  V30 9292 N 890.917 5.77651 3.99079 0
M  V30 9293 H 895.757 2.93261 0.52931 0
M  V30 9294 H 893.294 1.44965 0.249691 0
M  V30 9295 H 895.252 2.88995 3.00895 0
M  V30 9296 H 893.882 1.79654 2.68187 0
M  V30 9297 H 892.934 3.63794 1.11168 0
M  V30 9298 H 894.246 4.70151 1.66611 0
M  V30 9299 H 893.4 4.5469 4.01674 0
M  V30 9300 H 892.139 3.38884 3.50726 0
M  V30 9301 H 891.144 5.1248 1.99107 0
M  V30 9302 H 892.369 6.3026 2.52881 0
M  V30 9303 H 890.315 4.94235 4.31356 0
M  V30 9304 H 890.232 6.57356 3.73388 0
M  V30 9305 H 891.5 6.11681 4.83183 0
M  V30 9306 N 895.729 -0.261212 1.5542 0
M  V30 9307 C 896.676 -1.32315 1.89107 0
M  V30 9308 C 897.646 -1.48517 0.743767 0
M  V30 9309 O 898.831 -1.62733 0.996123 0
M  V30 9310 C 895.971 -2.67626 2.17877 0
M  V30 9311 C 895.084 -2.59549 3.45338 0
M  V30 9312 C 894.219 -3.87118 3.63748 0
M  V30 9313 C 893.258 -3.736 4.8486 0
M  V30 9314 N 892.395 -4.93029 4.99867 0
M  V30 9315 H 897.235 -1.02886 2.79675 0
M  V30 9316 H 894.772 -0.496812 1.38456 0
M  V30 9317 H 896.73 -3.4637 2.32559 0
M  V30 9318 H 895.36 -2.95232 1.30529 0
M  V30 9319 H 894.412 -1.72452 3.39064 0
M  V30 9320 H 895.724 -2.45465 4.34222 0
M  V30 9321 H 894.878 -4.74305 3.78312 0
M  V30 9322 H 893.617 -4.04084 2.73071 0
M  V30 9323 H 892.622 -2.84797 4.70288 0
M  V30 9324 H 893.847 -3.58143 5.76984 0
M  V30 9325 H 891.793 -5.10383 4.12123 0
M  V30 9326 H 891.71 -4.81521 5.82815 0
M  V30 9327 H 892.978 -5.81754 5.18828 0
M  V30 9328 N 897.207 -1.48554 -0.526253 0
M  V30 9329 C 898.618 -1.50256 -1.10815 0
M  V30 9330 C 898.969 -0.274445 -1.94271 0
M  V30 9331 O 898.094 0.618094 -2.07385 0
M  V30 9332 C 898.689 -2.72264 -2.01638 0
M  V30 9333 C 897.248 -2.76826 -2.55038 0
M  V30 9334 C 896.395 -2.43823 -1.32081 0
M  V30 9335 H 899.346 -1.55616 -0.31133 0
M  V30 9336 H 899.367 -2.50993 -2.85977 0
M  V30 9337 H 898.879 -3.61632 -1.4087 0
M  V30 9338 H 896.98 -1.91676 -3.19517 0
M  V30 9339 H 897.093 -3.78351 -2.93917 0
M  V30 9340 H 895.457 -1.95058 -1.63781 0
M  V30 9341 H 896.24 -3.35436 -0.730596 0
M  V30 9342 N 898.685 0.775411 -1.37205 0
M  V30 9343 C 899.915 1.56219 -1.352 0
M  V30 9344 C 900.323 1.89087 0.065456 0
M  V30 9345 O 899.666 1.51655 1.03665 0
M  V30 9346 C 899.728 2.9019 -2.12203 0
M  V30 9347 C 899.392 2.79978 -3.61195 0
M  V30 9348 C 900.389 2.51258 -4.55154 0
M  V30 9349 C 898.074 2.98115 -4.04268 0
M  V30 9350 C 900.068 2.40798 -5.90165 0
M  V30 9351 C 897.755 2.87276 -5.39366 0
M  V30 9352 C 898.753 2.58657 -6.32128 0
M  V30 9353 O 898.441 2.47838 -7.64743 0
M  V30 9354 H 898.173 0.490735 -0.464925 0
M  V30 9355 H 900.727 0.969201 -1.81096 0
M  V30 9356 H 898.957 3.51594 -1.60992 0
M  V30 9357 H 900.646 3.51561 -2.02879 0
M  V30 9358 H 901.412 2.36935 -4.23186 0
M  V30 9359 H 897.291 3.19392 -3.3243 0
M  V30 9360 H 900.835 2.18381 -6.62537 0
M  V30 9361 H 896.732 3.01166 -5.70937 0
M  V30 9362 H 897.5 2.63215 -7.75023 0
M  V30 9363 N 900.163 1.21714 1.00117 0
M  V30 9364 C 901.411 1.03465 1.73607 0
M  V30 9365 C 901.732 -0.432295 1.90148 0
M  V30 9366 O 901.002 -1.31157 1.45515 0
M  V30 9367 H 899.582 0.379857 0.643209 0
M  V30 9368 H 902.244 1.53088 1.20624 0
M  V30 9369 H 901.34 1.50574 2.73375 0
M  V30 9370 N 901.641 -1.19671 1.02551 0
M  V30 9371 C 902.604 -2.20987 0.608055 0
M  V30 9372 C 903.604 -1.5745 -0.326534 0
M  V30 9373 O 904.794 -1.73827 -0.114003 0
M  V30 9374 C 901.926 -3.4072 -0.11074 0
M  V30 9375 H 903.119 -2.59434 1.50446 0
M  V30 9376 H 900.672 -1.3329 0.816307 0
M  V30 9377 H 901.407 -3.07787 -1.02165 0
M  V30 9378 H 901.192 -3.88069 0.560772 0
M  V30 9379 H 902.682 -4.15776 -0.389848 0
M  V30 9380 N 903.119 -0.802921 -1.35613 0
M  V30 9381 C 904.368 -0.378087 -1.98125 0
M  V30 9382 C 904.681 1.05953 -1.64418 0
M  V30 9383 O 905.887 1.58729 -2.20266 0
M  V30 9384 C 904.343 -0.625077 -3.5443 0
M  V30 9385 C 903.951 -2.07499 -3.97049 0
M  V30 9386 C 905.695 -0.265419 -4.23669 0
M  V30 9387 C 903.602 -2.26793 -5.46186 0
M  V30 9388 H 902.532 -0.137633 -0.741332 0
M  V30 9389 H 905.183 -0.986461 -1.54729 0
M  V30 9390 H 903.565 0.0531975 -3.95964 0
M  V30 9391 H 904.739 -2.79077 -3.66678 0
M  V30 9392 H 903.054 -2.39417 -3.40688 0
M  V30 9393 H 905.651 -0.387669 -5.33293 0
M  V30 9394 H 905.994 0.787994 -4.08774 0
M  V30 9395 H 906.527 -0.897464 -3.87544 0
M  V30 9396 H 903.266 -3.30566 -5.66045 0
M  V30 9397 H 902.786 -1.59735 -5.78139 0
M  V30 9398 H 904.465 -2.08165 -6.12598 0
M  V30 9399 N 904.597 1.47463 -0.556102 0
M  V30 9400 C 905.822 2.07371 -0.0344729 0
M  V30 9401 C 906.247 1.40621 1.2493 0
M  V30 9402 O 905.605 0.48082 1.74808 0
M  V30 9403 C 905.653 3.60306 0.145563 0
M  V30 9404 O 904.757 3.94299 1.20839 0
M  V30 9405 H 904.098 0.662052 -0.0508274 0
M  V30 9406 H 906.628 1.89498 -0.771469 0
M  V30 9407 H 906.638 4.06408 0.360112 0
M  V30 9408 H 905.313 4.08288 -0.792089 0
M  V30 9409 H 903.89 3.59944 0.97442 0
M  V30 9410 N 906.075 0.2925 1.54862 0
M  V30 9411 C 907.025 -0.60226 2.19902 0
M  V30 9412 C 908.009 -1.10535 1.16923 0
M  V30 9413 O 909.201 -1.04753 1.42674 0
M  V30 9414 C 906.33 -1.77774 2.93686 0
M  V30 9415 C 905.416 -1.29101 4.03972 0
M  V30 9416 N 905.807 -0.521671 5.03103 0
M  V30 9417 C 904.105 -1.57248 4.17359 0
M  V30 9418 C 904.806 -0.263545 5.81103 0
M  V30 9419 N 903.782 -0.840937 5.37056 0
M  V30 9420 H 907.584 -0.00682274 2.93899 0
M  V30 9421 H 905.098 0.0968604 1.62111 0
M  V30 9422 H 907.095 -2.43021 3.38743 0
M  V30 9423 H 905.755 -2.37696 2.21203 0
M  V30 9424 H 906.766 -0.167364 5.1763 0
M  V30 9425 H 903.443 -2.1798 3.56077 0
M  V30 9426 H 904.833 0.353783 6.70968 0
M  V30 9427 N 907.553 -1.57587 0.0200696 0
M  V30 9428 C 908.801 -1.91046 -0.65922 0
M  V30 9429 C 909.122 -0.896197 -1.73186 0
M  V30 9430 O 908.392 0.0635952 -1.95797 0
M  V30 9431 H 906.972 -0.705163 -0.246483 0
M  V30 9432 H 909.634 -1.94789 0.0657368 0
M  V30 9433 H 908.73 -2.91399 -1.11773 0
M  V30 9434 N 909.032 0.252966 -1.55557 0
M  V30 9435 C 910.278 0.983306 -1.77367 0
M  V30 9436 C 910.611 1.85203 -0.584258 0
M  V30 9437 O 909.886 1.89963 0.417644 0
M  V30 9438 C 910.169 1.84896 -3.09007 0
M  V30 9439 C 910.022 1.00883 -4.38341 0
M  V30 9440 C 911.341 2.83254 -3.36831 0
M  V30 9441 H 908.46 0.356056 -0.645286 0
M  V30 9442 H 911.102 0.254232 -1.88291 0
M  V30 9443 H 909.252 2.47058 -2.99825 0
M  V30 9444 H 910.924 0.40638 -4.59507 0
M  V30 9445 H 909.167 0.31297 -4.3267 0
M  V30 9446 H 909.838 1.64818 -5.2682 0
M  V30 9447 H 912.314 2.31228 -3.45937 0
M  V30 9448 H 911.19 3.40949 -4.30169 0
M  V30 9449 H 911.451 3.59407 -2.57447 0
M  V30 9450 N 910.51 1.48831 0.518367 0
M  V30 9451 C 911.756 1.57672 1.27543 0
M  V30 9452 C 912.089 0.254915 1.9252 0
M  V30 9453 O 911.364 -0.740107 1.79868 0
M  V30 9454 C 911.647 2.72345 2.35585 0
M  V30 9455 C 911.5 4.14267 1.75224 0
M  V30 9456 C 912.819 2.82726 3.37274 0
M  V30 9457 H 909.938 0.573926 0.462361 0
M  V30 9458 H 912.58 1.8105 0.576267 0
M  V30 9459 H 910.73 2.52543 2.95219 0
M  V30 9460 H 912.402 4.45539 1.19551 0
M  V30 9461 H 910.645 4.20724 1.05706 0
M  V30 9462 H 911.316 4.90345 2.53507 0
M  V30 9463 H 913.792 3.00699 2.8761 0
M  V30 9464 H 912.668 3.6467 4.10252 0
M  V30 9465 H 912.929 1.9136 3.9854 0
M  V30 9466 N 911.988 -0.768124 1.37614 0
M  V30 9467 C 912.898 -1.91249 1.35871 0
M  V30 9468 C 913.914 -1.7208 0.257786 0
M  V30 9469 O 915.09 -1.95253 0.493782 0
M  V30 9470 C 912.155 -3.26423 1.16829 0
M  V30 9471 C 911.216 -3.5822 2.36594 0
M  V30 9472 C 910.449 -4.86945 2.1845 0
M  V30 9473 O 910.672 -5.58258 1.17064 0
M  V30 9474 O 909.606 -5.17888 3.06718 0
M  V30 9475 H 913.432 -1.95671 2.32264 0
M  V30 9476 H 911.017 -0.911382 1.18382 0
M  V30 9477 H 912.899 -4.07269 1.08212 0
M  V30 9478 H 911.574 -3.22845 0.235123 0
M  V30 9479 H 910.481 -2.77594 2.50783 0
M  V30 9480 H 911.814 -3.66545 3.2849 0
M  V30 9481 N 913.466 -1.22244 -0.994698 0
M  V30 9482 C 914.712 -1.04746 -1.73655 0
M  V30 9483 C 915.045 0.41668 -1.89677 0
M  V30 9484 O 914.32 1.30897 -1.43862 0
M  V30 9485 C 914.603 -1.75716 -3.14318 0
M  V30 9486 C 914.456 -3.29714 -3.05955 0
M  V30 9487 C 915.775 -1.50809 -4.13455 0
M  V30 9488 H 912.894 -0.381921 -0.630322 0
M  V30 9489 H 915.536 -1.50559 -1.15897 0
M  V30 9490 H 913.686 -1.3677 -3.63629 0
M  V30 9491 H 915.358 -3.78093 -2.64279 0
M  V30 9492 H 913.601 -3.59484 -2.42804 0
M  V30 9493 H 914.272 -3.74547 -4.05485 0
M  V30 9494 H 916.748 -1.84636 -3.72892 0
M  V30 9495 H 915.624 -2.02964 -5.09997 0
M  V30 9496 H 915.885 -0.440292 -4.39902 0
M  V30 9497 N 914.944 1.19125 -1.03184 0
M  V30 9498 C 916.221 1.84674 -0.644574 0
M  V30 9499 C 916.601 1.92042 0.876534 0
M  V30 9500 O 915.949 1.43965 1.77444 0
M  V30 9501 C 916.159 3.23477 -1.3101 0
M  V30 9502 C 917.507 3.99608 -1.43524 0
M  V30 9503 O 918.531 3.32886 -1.2675 0
M  V30 9504 O 917.39 5.19132 -1.70776 0
M  V30 9505 H 914.484 0.795968 -0.22442 0
M  V30 9506 H 917.03 1.2659 -1.13018 0
M  V30 9507 H 915.802 3.12967 -2.34878 0
M  V30 9508 H 915.425 3.89209 -0.812547 0
M  V30 9509 N 916.422 0.810101 1.35185 0
M  V30 9510 C 917.833 0.452616 1.81131 0
M  V30 9511 C 918.184 -1.02573 1.67252 0
M  V30 9512 O 917.309 -1.79735 1.20516 0
M  V30 9513 C 917.904 0.814775 3.28857 0
M  V30 9514 C 916.463 0.509839 3.72931 0
M  V30 9515 C 915.61 1.03852 2.57119 0
M  V30 9516 H 918.561 1.00143 1.23114 0
M  V30 9517 H 918.582 0.113635 3.8033 0
M  V30 9518 H 918.094 1.89078 3.38926 0
M  V30 9519 H 916.195 -0.557289 3.68409 0
M  V30 9520 H 916.308 1.04493 4.67566 0
M  V30 9521 H 914.672 0.460671 2.50499 0
M  V30 9522 H 915.455 2.12071 2.69964 0
M  V30 9523 N 917.9 -1.47166 0.563914 0
M  V30 9524 C 918.833 -2.27058 -0.227989 0
M  V30 9525 C 919.811 -1.34468 -0.914179 0
M  V30 9526 O 920.995 -1.63857 -0.931829 0
M  V30 9527 C 918.122 -3.11689 -1.32543 0
M  V30 9528 C 917.168 -4.19906 -0.747084 0
M  V30 9529 S 918.001 -5.33916 0.41153 0
M  V30 9530 C 919.157 -6.22112 -0.687566 0
M  V30 9531 H 919.39 -2.93876 0.449939 0
M  V30 9532 H 916.923 -1.50372 0.350382 0
M  V30 9533 H 918.881 -3.61017 -1.95389 0
M  V30 9534 H 917.542 -2.44221 -1.97522 0
M  V30 9535 H 916.735 -4.78876 -1.57141 0
M  V30 9536 H 916.337 -3.73493 -0.194671 0
M  V30 9537 H 918.629 -6.58867 -1.578 0
M  V30 9538 H 919.572 -7.07971 -0.135058 0
M  V30 9539 H 919.98 -5.55871 -0.983255 0
M  V30 9540 N 919.378 -0.300708 -1.54705 0
M  V30 9541 C 920.308 0.568675 -2.26469 0
M  V30 9542 C 921.289 1.13817 -1.26411 0
M  V30 9543 O 922.474 1.16756 -1.55183 0
M  V30 9544 C 919.604 1.74077 -3.00524 0
M  V30 9545 C 918.558 1.30165 -4.07727 0
M  V30 9546 C 917.884 2.55888 -4.69495 0
M  V30 9547 C 919.184 0.433106 -5.20501 0
M  V30 9548 H 920.878 -0.0298851 -2.99385 0
M  V30 9549 H 918.424 -0.0158135 -1.43991 0
M  V30 9550 H 920.377 2.35506 -3.49449 0
M  V30 9551 H 919.101 2.36556 -2.25186 0
M  V30 9552 H 917.76 0.710414 -3.59651 0
M  V30 9553 H 917.408 3.16681 -3.90797 0
M  V30 9554 H 917.108 2.27207 -5.41895 0
M  V30 9555 H 918.632 3.18121 -5.21183 0
M  V30 9556 H 920.046 0.95307 -5.65322 0
M  V30 9557 H 918.443 0.240085 -5.9962 0
M  V30 9558 H 919.513 -0.541866 -4.81863 0
M  V30 9559 N 920.856 1.57574 -0.0284266 0
M  V30 9560 C 922.084 1.96071 0.660575 0
M  V30 9561 C 922.499 0.904881 1.65703 0
M  V30 9562 O 921.856 -0.113379 1.82147 0
M  V30 9563 C 921.907 3.34634 1.36756 0
M  V30 9564 O 921.628 4.36167 0.411041 0
M  V30 9565 C 923.129 3.87758 2.14845 0
M  V30 9566 H 920.349 0.645794 0.182183 0
M  V30 9567 H 922.893 2.04311 -0.0879858 0
M  V30 9568 H 921.048 3.27616 2.06753 0
M  V30 9569 H 921.462 5.16493 0.913 0
M  V30 9570 H 922.936 4.87058 2.59767 0
M  V30 9571 H 923.413 3.21967 2.9872 0
M  V30 9572 H 924.019 3.98043 1.49807 0
M  V30 9573 N 922.334 -0.244713 1.55689 0
M  V30 9574 C 923.264 -1.30667 1.93516 0
M  V30 9575 C 924.245 -1.50094 0.800371 0
M  V30 9576 O 925.43 -1.62665 1.06083 0
M  V30 9577 C 922.56 -2.66101 2.23176 0
M  V30 9578 C 921.514 -2.61366 3.38927 0
M  V30 9579 C 920.84 -4.00616 3.54134 0
M  V30 9580 C 922.14 -2.18161 4.74555 0
M  V30 9581 H 923.834 -0.992546 2.82469 0
M  V30 9582 H 921.38 -0.476018 1.35905 0
M  V30 9583 H 923.333 -3.4053 2.48228 0
M  V30 9584 H 922.057 -2.99154 1.31051 0
M  V30 9585 H 920.716 -1.89395 3.13887 0
M  V30 9586 H 920.364 -4.30938 2.59426 0
M  V30 9587 H 920.064 -3.98335 4.31975 0
M  V30 9588 H 921.588 -4.76741 3.8151 0
M  V30 9589 H 923.002 -2.82323 4.98965 0
M  V30 9590 H 921.399 -2.26988 5.55515 0
M  V30 9591 H 922.469 -1.13333 4.7147 0
M  V30 9592 N 923.813 -1.49104 -0.510467 0
M  V30 9593 C 924.723 -1.67792 -1.6396 0
M  V30 9594 C 925.739 -0.560454 -1.64727 0
M  V30 9595 O 926.915 -0.833985 -1.83321 0
M  V30 9596 C 923.98 -1.73154 -3.00364 0
M  V30 9597 C 923.041 -2.9667 -3.10299 0
M  V30 9598 C 922.274 -3.01767 -4.40196 0
M  V30 9599 O 922.497 -2.1472 -5.28443 0
M  V30 9600 O 921.431 -3.94137 -4.54906 0
M  V30 9601 H 925.257 -2.63428 -1.51126 0
M  V30 9602 H 922.842 -1.32734 -0.685719 0
M  V30 9603 H 924.724 -1.79089 -3.81451 0
M  V30 9604 H 923.399 -0.806952 -3.1348 0
M  V30 9605 H 922.306 -2.96257 -2.28435 0
M  V30 9606 H 923.639 -3.88578 -3.02106 0
M  V30 9607 N 925.291 0.760815 -1.38019 0
M  V30 9608 C 926.201 1.90526 -1.36884 0
M  V30 9609 C 927.217 1.71941 -0.266908 0
M  V30 9610 O 928.393 1.94988 -0.50413 0
M  V30 9611 C 925.458 3.25799 -1.18558 0
M  V30 9612 C 924.519 3.56961 -2.3849 0
M  V30 9613 C 923.752 4.8578 -2.21029 0
M  V30 9614 O 923.975 5.57629 -1.20023 0
M  V30 9615 O 922.909 5.16254 -3.0946 0
M  V30 9616 H 926.735 1.94437 -2.33298 0
M  V30 9617 H 924.32 0.905091 -1.18863 0
M  V30 9618 H 926.202 4.0669 -1.1037 0
M  V30 9619 H 924.877 3.22716 -0.252241 0
M  V30 9620 H 923.784 2.7626 -2.52252 0
M  V30 9621 H 925.117 3.64798 -3.30429 0
M  V30 9622 N 926.769 1.22769 0.988202 0
M  V30 9623 C 927.701 0.959757 2.08138 0
M  V30 9624 C 928.714 -0.0633787 1.62677 0
M  V30 9625 O 929.903 0.171203 1.77677 0
M  V30 9626 C 927.003 0.422724 3.36253 0
M  V30 9627 C 926.176 1.50419 4.10722 0
M  V30 9628 C 925.235 0.973407 5.17118 0
M  V30 9629 O 924.261 1.66066 5.44436 0
M  V30 9630 N 925.463 -0.202787 5.80146 0
M  V30 9631 H 928.228 1.9009 2.31702 0
M  V30 9632 H 925.789 1.13522 1.15431 0
M  V30 9633 H 927.781 0.0528514 4.04665 0
M  V30 9634 H 926.351 -0.423642 3.09716 0
M  V30 9635 H 925.571 2.04718 3.36874 0
M  V30 9636 H 926.859 2.23169 4.57245 0
M  V30 9637 H 926.257 -0.777856 5.60327 0
M  V30 9638 H 924.814 -0.513998 6.4977 0
M  V30 9639 N 928.247 -1.18576 1.03814 0
M  V30 9640 C 929.179 -2.21607 0.585055 0
M  V30 9641 C 930.192 -1.59125 -0.343963 0
M  V30 9642 O 931.381 -1.77959 -0.138882 0
M  V30 9643 C 928.481 -3.38495 -0.165602 0
M  V30 9644 C 927.654 -4.30557 0.770662 0
M  V30 9645 C 926.713 -5.26161 0.0637534 0
M  V30 9646 O 925.739 -5.64961 0.693359 0
M  V30 9647 N 926.941 -5.67882 -1.20377 0
M  V30 9648 H 929.706 -2.61104 1.47121 0
M  V30 9649 H 927.267 -1.33336 0.918316 0
M  V30 9650 H 929.259 -3.99474 -0.648292 0
M  V30 9651 H 927.829 -2.97711 -0.953268 0
M  V30 9652 H 927.049 -3.67221 1.43326 0
M  V30 9653 H 928.337 -4.88969 1.40667 0
M  V30 9654 H 927.735 -5.38409 -1.73586 0
M  V30 9655 H 926.292 -6.31069 -1.63079 0
M  V30 9656 N 929.725 -0.817259 -1.34754 0
M  V30 9657 C 930.655 -0.249769 -2.3216 0
M  V30 9658 C 931.636 0.630663 -1.57977 0
M  V30 9659 O 932.821 0.558719 -1.85989 0
M  V30 9660 C 929.951 0.593825 -3.42186 0
M  V30 9661 C 928.905 -0.188997 -4.27583 0
M  V30 9662 C 928.231 0.776979 -5.29025 0
M  V30 9663 C 929.531 -1.39401 -5.03354 0
M  V30 9664 H 931.225 -1.06359 -2.79872 0
M  V30 9665 H 928.771 -0.512894 -1.34556 0
M  V30 9666 H 930.724 1.00097 -4.09339 0
M  V30 9667 H 929.448 1.44064 -2.93109 0
M  V30 9668 H 928.107 -0.577445 -3.62024 0
M  V30 9669 H 927.755 1.61959 -4.76212 0
M  V30 9670 H 927.455 0.257448 -5.87036 0
M  V30 9671 H 928.979 1.18211 -5.99048 0
M  V30 9672 H 930.393 -1.06117 -5.63393 0
M  V30 9673 H 928.79 -1.84878 -5.70912 0
M  V30 9674 H 929.86 -2.17515 -4.33377 0
M  V30 9675 N 931.203 1.46865 -0.571711 0
M  V30 9676 C 932.619 1.57897 -0.23255 0
M  V30 9677 C 932.819 1.56836 1.26509 0
M  V30 9678 O 931.875 1.47947 2.04617 0
M  V30 9679 C 933.188 2.87778 -0.872036 0
M  V30 9680 C 934.736 3.01389 -0.844605 0
M  V30 9681 C 935.211 4.33991 -1.46343 0
M  V30 9682 N 936.702 4.40662 -1.42727 0
M  V30 9683 C 937.437 5.41858 -1.87557 0
M  V30 9684 N 936.933 6.49787 -2.4031 0
M  V30 9685 N 938.726 5.32992 -1.7854 0
M  V30 9686 H 930.877 1.45798 -1.54457 0
M  V30 9687 H 933.14 0.694785 -0.644964 0
M  V30 9688 H 932.846 2.94332 -1.92513 0
M  V30 9689 H 932.72 3.75345 -0.373677 0
M  V30 9690 H 935.107 2.94423 0.19984 0
M  V30 9691 H 935.188 2.15327 -1.38087 0
M  V30 9692 H 934.832 4.41714 -2.50701 0
M  V30 9693 H 934.762 5.18809 -0.902479 0
M  V30 9694 H 937.253 3.63263 -1.04155 0
M  V30 9695 H 937.566 7.23199 -2.72403 0
M  V30 9696 H 935.911 6.50637 -2.44329 0
M  V30 9697 H 939.102 4.47575 -1.37093 0
M  V30 9698 H 939.275 6.11716 -2.13794 0
M  V30 9699 N 932.681 0.308908 1.54543 0
M  V30 9700 C 933.591 -0.572939 2.27496 0
M  V30 9701 C 934.607 -1.14171 1.31305 0
M  V30 9702 O 935.783 -1.16481 1.64299 0
M  V30 9703 C 932.848 -1.72483 3.0075 0
M  V30 9704 C 931.909 -1.18934 4.12496 0
M  V30 9705 C 931.142 -2.28634 4.82247 0
M  V30 9706 O 931.365 -3.48691 4.5141 0
M  V30 9707 O 930.299 -1.94879 5.69478 0
M  V30 9708 H 934.125 0.0190877 3.03694 0
M  V30 9709 H 931.71 0.0750943 1.49211 0
M  V30 9710 H 933.592 -2.39578 3.46671 0
M  V30 9711 H 932.267 -2.30332 2.2744 0
M  V30 9712 H 931.174 -0.483904 3.70957 0
M  V30 9713 H 932.507 -0.656185 4.87806 0
M  V30 9714 N 934.159 -1.57557 0.0367827 0
M  V30 9715 C 935.089 -2.13712 -0.940719 0
M  V30 9716 C 936.07 -1.05515 -1.33419 0
M  V30 9717 O 937.255 -1.33385 -1.41146 0
M  V30 9718 C 934.385 -2.67043 -2.22048 0
M  V30 9719 C 933.339 -3.80096 -1.96752 0
M  V30 9720 C 932.665 -4.19886 -3.31059 0
M  V30 9721 C 933.965 -5.05848 -1.30058 0
M  V30 9722 H 935.659 -2.9564 -0.473033 0
M  V30 9723 H 933.205 -1.42214 -0.226089 0
M  V30 9724 H 935.158 -3.04964 -2.90818 0
M  V30 9725 H 933.882 -1.82287 -2.70996 0
M  V30 9726 H 932.541 -3.42625 -1.30398 0
M  V30 9727 H 932.189 -3.32101 -3.77781 0
M  V30 9728 H 931.889 -4.96073 -3.14937 0
M  V30 9729 H 933.413 -4.60395 -4.01084 0
M  V30 9730 H 934.827 -5.41306 -1.8884 0
M  V30 9731 H 933.224 -5.87084 -1.24309 0
M  V30 9732 H 934.294 -4.84122 -0.274591 0
M  V30 9733 N 935.637 0.236453 -1.55816 0
M  V30 9734 C 936.569 1.31602 -1.87653 0
M  V30 9735 C 937.582 1.43782 -0.763584 0
M  V30 9736 O 938.771 1.44945 -1.04178 0
M  V30 9737 C 935.871 2.69342 -2.05689 0
M  V30 9738 C 935.044 2.79298 -3.36617 0
M  V30 9739 C 934.103 3.97952 -3.44268 0
M  V30 9740 O 933.129 3.86989 -4.17406 0
M  V30 9741 N 934.331 5.11594 -2.74321 0
M  V30 9742 H 937.096 1.04623 -2.80845 0
M  V30 9743 H 934.657 0.426534 -1.5618 0
M  V30 9744 H 936.649 3.47074 -2.08138 0
M  V30 9745 H 935.219 2.88984 -1.19192 0
M  V30 9746 H 934.439 1.8816 -3.46395 0
M  V30 9747 H 935.727 2.82908 -4.22895 0
M  V30 9748 H 935.125 5.23394 -2.14651 0
M  V30 9749 H 933.682 5.87422 -2.8245 0
M  V30 9750 N 937.115 1.49373 0.502552 0
M  V30 9751 C 938.531 1.36101 0.833591 0
M  V30 9752 C 938.731 0.392911 1.97632 0
M  V30 9753 O 937.787 -0.175975 2.51886 0
M  V30 9754 C 939.1 2.76782 1.17526 0
M  V30 9755 C 940.648 2.85471 1.28356 0
M  V30 9756 C 941.123 4.26915 1.65853 0
M  V30 9757 N 942.614 4.29719 1.72905 0
M  V30 9758 C 943.349 5.36127 2.0336 0
M  V30 9759 N 942.845 6.52782 2.32049 0
M  V30 9760 N 944.638 5.23542 2.04598 0
M  V30 9761 H 936.789 2.10912 -0.251008 0
M  V30 9762 H 939.052 0.946696 -0.0497037 0
M  V30 9763 H 938.758 3.49314 0.408965 0
M  V30 9764 H 938.632 3.1205 2.11907 0
M  V30 9765 H 941.019 2.13177 2.04058 0
M  V30 9766 H 941.1 2.53787 0.320304 0
M  V30 9767 H 940.744 4.99735 0.907022 0
M  V30 9768 H 940.674 4.56063 2.63276 0
M  V30 9769 H 943.165 3.45586 1.529 0
M  V30 9770 H 943.478 7.29701 2.54471 0
M  V30 9771 H 941.823 6.56011 2.29509 0
M  V30 9772 H 945.014 4.31413 1.8166 0
M  V30 9773 H 945.187 6.06565 2.27998 0
M  V30 9774 N 938.594 -0.753485 1.38421 0
M  V30 9775 C 939.544 -1.85788 1.32162 0
M  V30 9776 C 940.528 -1.59577 0.20588 0
M  V30 9777 O 941.72 -1.71396 0.44186 0
M  V30 9778 C 938.849 -3.23498 1.14909 0
M  V30 9779 C 937.935 -3.556 2.31105 0
M  V30 9780 N 938.326 -3.58759 3.56547 0
M  V30 9781 C 936.624 -3.85866 2.23659 0
M  V30 9782 C 937.325 -3.8813 4.33278 0
M  V30 9783 N 936.301 -4.04966 3.62635 0
M  V30 9784 H 940.103 -1.86509 2.27138 0
M  V30 9785 H 937.617 -0.950843 1.31654 0
M  V30 9786 H 939.614 -4.02531 1.08509 0
M  V30 9787 H 938.274 -3.24029 0.20866 0
M  V30 9788 H 939.285 -3.40517 3.90216 0
M  V30 9789 H 935.962 -3.94112 1.37776 0
M  V30 9790 H 937.352 -3.97197 5.41926 0
M  V30 9791 N 940.072 -1.23292 -0.981677 0
M  V30 9792 C 941.32 -1.06214 -1.71939 0
M  V30 9793 C 941.641 0.401989 -1.90812 0
M  V30 9794 O 940.911 1.28825 -1.47584 0
M  V30 9795 H 939.491 -0.390042 -0.637084 0
M  V30 9796 H 942.153 -1.54988 -1.18173 0
M  V30 9797 H 941.249 -1.54904 -2.70945 0
M  V30 9798 N 941.55 1.18024 -1.04442 0
M  V30 9799 C 942.78 1.91753 -0.769044 0
M  V30 9800 C 943.188 1.76629 0.678141 0
M  V30 9801 O 942.531 1.09589 1.47431 0
M  V30 9802 C 942.593 3.43505 -1.0604 0
M  V30 9803 C 942.257 3.82409 -2.50225 0
M  V30 9804 C 943.254 3.8588 -3.48414 0
M  V30 9805 C 940.939 4.13594 -2.85036 0
M  V30 9806 C 942.933 4.19993 -4.79463 0
M  V30 9807 C 940.62 4.47377 -4.1629 0
M  V30 9808 C 941.618 4.50553 -5.13314 0
M  V30 9809 O 941.306 4.83546 -6.42214 0
M  V30 9810 H 941.038 0.615466 -0.279603 0
M  V30 9811 H 943.592 1.5065 -1.3962 0
M  V30 9812 H 941.822 3.84866 -0.376125 0
M  V30 9813 H 943.511 3.98486 -0.772235 0
M  V30 9814 H 944.277 3.6192 -3.2286 0
M  V30 9815 H 940.156 4.10297 -2.10185 0
M  V30 9816 H 943.7 4.22387 -5.55189 0
M  V30 9817 H 939.597 4.70798 -4.4161 0
M  V30 9818 H 940.365 5.01433 -6.46921 0
M  V30 9819 N 943.028 0.824394 1.34319 0
M  V30 9820 C 943.938 0.24932 2.33271 0
M  V30 9821 C 944.954 -0.617066 1.62691 0
M  V30 9822 O 946.13 -0.524616 1.94447 0
M  V30 9823 C 943.195 -0.578094 3.41846 0
M  V30 9824 C 942.256 0.310866 4.28173 0
M  V30 9825 C 941.489 -0.477153 5.31563 0
M  V30 9826 O 941.712 -1.71028 5.44156 0
M  V30 9827 O 940.646 0.141287 6.01734 0
M  V30 9828 H 944.472 1.06837 2.84288 0
M  V30 9829 H 942.057 0.58657 1.37403 0
M  V30 9830 H 943.939 -1.04878 4.0814 0
M  V30 9831 H 942.614 -1.37444 2.93071 0
M  V30 9832 H 941.521 0.829081 3.64797 0
M  V30 9833 H 942.854 1.07161 4.80393 0
M  V30 9834 N 944.506 -1.46559 0.579492 0
M  V30 9835 C 945.454 -2.3199 -0.168413 0
M  V30 9836 C 946.448 -1.44288 -0.887551 0
M  V30 9837 O 947.654 -1.60931 -0.806305 0
M  V30 9838 H 944.029 -0.748431 -0.0731799 0
M  V30 9839 H 946 -2.92886 0.570973 0
M  V30 9840 C 944.749 -3.27392 -1.1709 0
M  V30 9841 H 944.072 -3.94853 -0.626958 0
M  V30 9842 H 945.512 -3.89955 -1.66467 0
M  V30 9843 C 943.971 -2.52511 -2.23024 0
M  V30 9844 O 944.501 -2.2858 -3.30324 0
M  V30 9845 N 942.707 -2.1313 -1.97545 0
M  V30 9846 H 942.254 -2.32793 -1.10297 0
M  V30 9847 H 942.212 -1.63348 -2.68635 0
M  V30 9848 N 945.984 -0.3171 -1.54377 0
M  V30 9849 C 947.395 0.172287 -1.85903 0
M  V30 9850 C 947.746 1.52141 -1.23885 0
M  V30 9851 O 946.871 2.0949 -0.542476 0
M  V30 9852 C 947.466 0.319392 -3.37291 0
M  V30 9853 C 946.025 0.752998 -3.68791 0
M  V30 9854 C 945.172 -0.129143 -2.76999 0
M  V30 9855 H 948.123 -0.537597 -1.49317 0
M  V30 9856 H 948.144 1.15137 -3.62662 0
M  V30 9857 H 947.656 -0.662671 -3.82401 0
M  V30 9858 H 945.757 1.74504 -3.2921 0
M  V30 9859 H 945.87 0.561228 -4.75801 0
M  V30 9860 H 944.234 0.394242 -2.5163 0
M  V30 9861 H 945.017 -1.10785 -3.24933 0
M  V30 9862 N 947.462 1.57535 -0.0451378 0
M  V30 9863 C 948.69 1.96761 0.639742 0
M  V30 9864 C 949.105 0.922405 1.64734 0
M  V30 9865 O 948.462 -0.0940535 1.82257 0
M  V30 9866 C 948.513 3.36066 1.33199 0
M  V30 9867 O 948.234 4.36579 0.364757 0
M  V30 9868 C 949.735 3.90015 2.1072 0
M  V30 9869 H 946.955 0.64769 0.175324 0
M  V30 9870 H 949.499 2.04206 -0.109651 0
M  V30 9871 H 947.654 3.2979 2.03266 0
M  V30 9872 H 948.068 5.17432 0.858168 0
M  V30 9873 H 949.542 4.89785 2.54586 0
M  V30 9874 H 950.019 3.25117 2.95288 0
M  V30 9875 H 950.625 3.99609 1.45577 0
M  V30 9876 N 948.94 -0.228186 1.55939 0
M  V30 9877 C 950.17 -0.969211 1.82455 0
M  V30 9878 C 950.578 -1.78714 0.621133 0
M  V30 9879 O 949.921 -1.78841 -0.419694 0
M  V30 9880 C 949.983 -1.94088 3.02605 0
M  V30 9881 C 949.647 -1.30811 4.37878 0
M  V30 9882 C 950.644 -0.701275 5.15149 0
M  V30 9883 C 948.329 -1.32187 4.84595 0
M  V30 9884 C 950.323 -0.116631 6.37293 0
M  V30 9885 C 948.01 -0.733375 6.06683 0
M  V30 9886 C 949.008 -0.131804 6.82873 0
M  V30 9887 O 948.696 0.447549 8.02653 0
M  V30 9888 H 948.428 -0.289951 0.610659 0
M  V30 9889 H 950.982 -0.250576 2.03866 0
M  V30 9890 H 949.212 -2.69833 2.76996 0
M  V30 9891 H 950.901 -2.5469 3.1605 0
M  V30 9892 H 951.667 -0.683022 4.80166 0
M  V30 9893 H 947.546 -1.77949 4.25271 0
M  V30 9894 H 951.09 0.353539 6.96704 0
M  V30 9895 H 946.987 -0.749019 6.4114 0
M  V30 9896 H 947.755 0.341224 8.17788 0
M  V30 9897 N 950.418 -1.49637 -0.494624 0
M  V30 9898 C 951.834 -1.36541 -0.826361 0
M  V30 9899 C 952.034 -0.403386 -1.97421 0
M  V30 9900 O 951.09 0.162614 -2.51976 0
M  V30 9901 C 952.403 -2.77401 -1.16057 0
M  V30 9902 C 953.951 -2.86148 -1.26841 0
M  V30 9903 C 954.426 -4.27789 -1.63587 0
M  V30 9904 N 955.917 -4.3063 -1.70624 0
M  V30 9905 C 956.652 -5.37198 -2.00514 0
M  V30 9906 N 956.148 -6.54004 -2.28584 0
M  V30 9907 N 957.941 -5.2462 -2.01818 0
M  V30 9908 H 950.092 -2.10776 0.26219 0
M  V30 9909 H 952.355 -0.946419 0.0547235 0
M  V30 9910 H 952.061 -3.49526 -0.390434 0
M  V30 9911 H 951.935 -3.1317 -2.10249 0
M  V30 9912 H 954.322 -2.14256 -2.02925 0
M  V30 9913 H 954.403 -2.53953 -0.30684 0
M  V30 9914 H 954.047 -5.00209 -0.880507 0
M  V30 9915 H 953.977 -4.57453 -2.60854 0
M  V30 9916 H 956.468 -3.46393 -1.51065 0
M  V30 9917 H 956.781 -7.31041 -2.50598 0
M  V30 9918 H 955.126 -6.57219 -2.26027 0
M  V30 9919 H 958.317 -4.32371 -1.79369 0
M  V30 9920 H 958.49 -6.07765 -2.24778 0
M  V30 9921 N 951.896 0.746133 -1.38819 0
M  V30 9922 C 953.143 1.50545 -1.35434 0
M  V30 9923 C 953.471 1.94427 0.0532669 0
M  V30 9924 O 952.726 1.66285 1.03188 0
M  V30 9925 C 953.025 2.76639 -2.26286 0
M  V30 9926 C 952.691 2.51682 -3.74122 0
M  V30 9927 C 951.353 2.44584 -4.14406 0
M  V30 9928 C 953.705 2.30071 -4.67672 0
M  V30 9929 C 951.033 2.13902 -5.46318 0
M  V30 9930 C 953.385 2.00907 -5.99849 0
M  V30 9931 C 952.049 1.92271 -6.39209 0
M  V30 9932 H 951.319 0.550883 -0.49559 0
M  V30 9933 H 953.966 0.857337 -1.71237 0
M  V30 9934 H 952.271 3.46138 -1.83564 0
M  V30 9935 H 953.968 3.34626 -2.20967 0
M  V30 9936 H 950.558 2.5808 -3.42188 0
M  V30 9937 H 954.742 2.34528 -4.3739 0
M  V30 9938 H 949.998 2.0573 -5.75748 0
M  V30 9939 H 954.172 1.83191 -6.71874 0
M  V30 9940 H 951.799 1.68261 -7.41345 0
M  V30 9941 N 953.375 1.23811 0.975125 0
M  V30 9942 C 954.305 1.04846 2.08638 0
M  V30 9943 C 955.286 -0.0362859 1.70061 0
M  V30 9944 O 956.471 0.12937 1.93769 0
M  V30 9945 C 953.601 0.644534 3.41267 0
M  V30 9946 C 952.555 1.67722 3.93768 0
M  V30 9947 C 951.881 1.12857 5.22654 0
M  V30 9948 C 953.181 3.07147 4.22443 0
M  V30 9949 H 954.875 1.97795 2.24761 0
M  V30 9950 H 952.421 0.952397 1.08006 0
M  V30 9951 H 954.374 0.498887 4.18436 0
M  V30 9952 H 953.098 -0.320641 3.25022 0
M  V30 9953 H 951.757 1.81095 3.18748 0
M  V30 9954 H 951.405 0.154227 5.02764 0
M  V30 9955 H 951.105 1.81862 5.58749 0
M  V30 9956 H 952.629 0.994891 6.0244 0
M  V30 9957 H 954.043 2.97045 4.90344 0
M  V30 9958 H 952.44 3.73437 4.6975 0
M  V30 9959 H 953.51 3.55743 3.29507 0
M  V30 9960 N 954.853 -1.17469 1.05066 0
M  V30 9961 C 955.763 -2.25089 0.661222 0
M  V30 9962 C 956.779 -1.71086 -0.31712 0
M  V30 9963 O 957.955 -2.00685 -0.169534 0
M  V30 9964 C 955.02 -3.46676 0.0406415 0
M  V30 9965 C 954.081 -4.15771 1.06927 0
M  V30 9966 C 953.314 -5.31553 0.478208 0
M  V30 9967 O 953.537 -5.6593 -0.712714 0
M  V30 9968 O 952.471 -5.89574 1.21185 0
M  V30 9969 H 956.297 -2.60685 1.5581 0
M  V30 9970 H 953.882 -1.24744 0.822147 0
M  V30 9971 H 955.764 -4.203 -0.304312 0
M  V30 9972 H 954.439 -3.1288 -0.829909 0
M  V30 9973 H 953.346 -3.44171 1.46619 0
M  V30 9974 H 954.679 -4.53591 1.91092 0
M  V30 9975 N 956.331 -0.831506 -1.3388 0
M  V30 9976 C 957.241 -0.261688 -2.33136 0
M  V30 9977 C 958.257 0.608429 -1.63016 0
M  V30 9978 O 959.433 0.514297 -1.94723 0
M  V30 9979 C 956.498 0.559957 -3.42148 0
M  V30 9980 C 955.559 -0.333569 -4.28002 0
M  V30 9981 C 954.792 0.448956 -5.31808 0
M  V30 9982 O 955.015 1.6814 -5.45055 0
M  V30 9983 O 953.949 -0.173197 -6.01651 0
M  V30 9984 H 957.775 -1.08343 -2.83717 0
M  V30 9985 H 955.36 -0.593849 -1.3709 0
M  V30 9986 H 957.242 1.02712 -4.08691 0
M  V30 9987 H 955.917 1.35888 -2.93796 0
M  V30 9988 H 954.824 -0.848416 -3.64352 0
M  V30 9989 H 956.157 -1.09707 -4.79818 0
M  V30 9990 N 957.809 1.4625 -0.587256 0
M  V30 9991 C 959.225 1.57641 -0.249284 0
M  V30 9992 C 959.425 1.58169 1.24839 0
M  V30 9993 O 958.481 1.50109 2.03036 0
M  V30 9994 C 959.794 2.86837 -0.902509 0
M  V30 9995 C 961.342 3.00476 -0.876524 0
M  V30 9996 C 961.817 4.32414 -1.50938 0
M  V30 9997 N 963.308 4.39124 -1.47392 0
M  V30 9998 C 964.043 5.39838 -1.93293 0
M  V30 9999 N 963.539 6.47202 -2.47188 0
M  V30 10000 N 965.332 5.31068 -1.84183 0
M  V30 10001 H 957.483 1.44151 -1.55994 0
M  V30 10002 H 959.746 0.687905 -0.652297 0
M  V30 10003 H 959.452 2.92274 -1.95624 0
M  V30 10004 H 959.326 3.74927 -0.413466 0
M  V30 10005 H 961.713 2.94618 0.168601 0
M  V30 10006 H 961.794 2.1385 -1.40363 0
M  V30 10007 H 961.438 4.3903 -2.55372 0
M  V30 10008 H 961.368 5.17823 -0.957455 0
M  V30 10009 H 963.859 3.62138 -1.08002 0
M  V30 10010 H 964.172 7.20269 -2.80058 0
M  V30 10011 H 962.517 6.48009 -2.51216 0
M  V30 10012 H 965.708 4.46095 -1.41833 0
M  V30 10013 H 965.881 6.09414 -2.2027 0
M  V30 10014 N 959.287 0.325282 1.54207 0
M  V30 10015 C 960.698 -0.162426 1.85992 0
M  V30 10016 C 961.049 -1.51482 1.2469 0
M  V30 10017 O 960.174 -2.092 0.553578 0
M  V30 10018 C 960.769 -0.3015 3.37456 0
M  V30 10019 C 959.328 -0.73343 3.69185 0
M  V30 10020 C 958.475 0.143831 2.76927 0
M  V30 10021 H 961.426 0.545508 1.4903 0
M  V30 10022 H 961.447 -1.13212 3.63268 0
M  V30 10023 H 960.959 0.682942 3.82044 0
M  V30 10024 H 959.06 -1.72755 3.30131 0
M  V30 10025 H 959.173 -0.535987 4.76092 0
M  V30 10026 H 957.537 -0.380892 2.51836 0
M  V30 10027 H 958.32 1.12507 3.24341 0
M  V30 10028 O 960.804 -1.60345 0.192835 0
M  V30 10029 H 961.495 -1.89671 -0.393005 0
M  V30 END ATOM
M  V30 BEGIN BOND
M  V30 END BOND
M  V30 END CTAB
M  END
$$$$
