drugbank_target|P51648 Fatty aldehyde dehydrogenase (DB00157)
 OpenBabel12092119353D

  0  0  0     0  0            999 V3000
M  V30 BEGIN CTAB
M  V30 COUNTS 7821 7901 0 0 0
M  V30 BEGIN ATOM
M  V30 1 H -0.908 1.98254 -0.117106 0
M  V30 2 N 0 1.576 0 0
M  V30 3 C 0.933 2.03868 1.02534 0
M  V30 4 C 1.911 0.928543 1.3348 0
M  V30 5 O 3.095 1.19667 1.45644 0
M  V30 6 C 0.222 2.43627 2.35294 0
M  V30 7 C -0.732 3.65373 2.2001 0
M  V30 8 S 0.101 5.13292 1.52614 0
M  V30 9 C 1.257 5.56322 2.86805 0
M  V30 10 H 1.49 2.90518 0.631377 0
M  V30 11 H -0.977 1.52953 0.210867 0
M  V30 12 H 0.981 2.67203 3.11629 0
M  V30 13 H -0.358 1.57376 2.7183 0
M  V30 14 H -1.165 3.90944 3.18086 0
M  V30 15 H -1.563 3.418 1.51819 0
M  V30 16 H 0.729 5.58782 3.83104 0
M  V30 17 H 1.672 6.56266 2.65933 0
M  V30 18 H 2.08 4.83886 2.90714 0
M  V30 19 N 1.4781 -0.272755 1.55222 0
M  V30 20 C 2.3881 -1.35918 1.91216 0
M  V30 21 C 3.4041 -1.54026 0.809436 0
M  V30 22 O 4.5801 -1.68148 1.10852 0
M  V30 23 C 1.6451 -2.69834 2.17693 0
M  V30 24 C 0.7061 -2.6047 3.41253 0
M  V30 25 C -0.0609 -3.88 3.66458 0
M  V30 26 O 0.1621 -4.88693 2.94169 0
M  V30 27 O -0.9039 -3.88189 4.59992 0
M  V30 28 H 2.9221 -1.0839 2.83699 0
M  V30 29 H 0.5071 -0.471301 1.41771 0
M  V30 30 H 2.3891 -3.49017 2.36147 0
M  V30 31 H 1.0641 -2.97148 1.28392 0
M  V30 32 H -0.0289 -1.79663 3.28134 0
M  V30 33 H 1.3041 -2.38106 4.30774 0
M  V30 34 N 2.9562 -1.48159 -0.537278 0
M  V30 35 C 3.8862 -1.65029 -1.6519 0
M  V30 36 C 4.8672 -0.499281 -1.62607 0
M  V30 37 O 6.0522 -0.730972 -1.79918 0
M  V30 38 C 3.1822 -1.68303 -3.03795 0
M  V30 39 C 2.1362 -2.8283 -3.21234 0
M  V30 40 C 1.4622 -2.71189 -4.60826 0
M  V30 41 C 2.7622 -4.24211 -3.04701 0
M  V30 42 H 4.4562 -2.58341 -1.51328 0
M  V30 43 H 2.0022 -1.24325 -0.726585 0
M  V30 44 H 3.9552 -1.78693 -3.81637 0
M  V30 45 H 2.6792 -0.715635 -3.18663 0
M  V30 46 H 1.3382 -2.71983 -2.45807 0
M  V30 47 H 0.9862 -1.72435 -4.7252 0
M  V30 48 H 0.6862 -3.48035 -4.7344 0
M  V30 49 H 2.2102 -2.83537 -5.40777 0
M  V30 50 H 3.6242 -4.3593 -3.72341 0
M  V30 51 H 2.0212 -5.01998 -3.28813 0
M  V30 52 H 3.0912 -4.41184 -2.01209 0
M  V30 53 N 4.4343 0.785586 -1.36625 0
M  V30 54 C 5.3443 1.92964 -1.33425 0
M  V30 55 C 6.3603 1.72394 -0.235851 0
M  V30 56 O 7.5363 1.95866 -0.468878 0
M  V30 57 C 4.6013 3.27884 -1.12662 0
M  V30 58 C 3.6623 3.61204 -2.32013 0
M  V30 59 C 2.8953 4.89687 -2.12231 0
M  V30 60 O 3.1183 5.59704 -1.09945 0
M  V30 61 O 2.0523 5.21752 -3.00098 0
M  V30 62 H 5.8783 1.98613 -2.29753 0
M  V30 63 H 3.4633 0.926384 -1.17211 0
M  V30 64 H 5.3453 4.08614 -1.03016 0
M  V30 65 H 4.0203 3.23118 -0.193991 0
M  V30 66 H 2.9273 2.80765 -2.47228 0
M  V30 67 H 4.2603 3.70698 -3.23796 0
M  V30 68 N 5.9124 1.20967 1.01018 0
M  V30 69 C 7.1584 1.02526 1.74975 0
M  V30 70 C 7.4914 -0.4408 1.89131 0
M  V30 71 O 6.7664 -1.32718 1.42184 0
M  V30 72 C 7.0494 1.71699 3.1653 0
M  V30 73 C 6.9024 3.25791 3.10129 0
M  V30 74 C 8.2214 1.45531 4.15342 0
M  V30 75 H 5.3404 0.373863 0.635134 0
M  V30 76 H 7.9824 1.49071 1.17805 0
M  V30 77 H 6.1324 1.32128 3.65341 0
M  V30 78 H 7.8044 3.74697 2.69072 0
M  V30 79 H 6.0474 3.56363 2.47362 0
M  V30 80 H 6.7184 3.69353 4.10222 0
M  V30 81 H 9.1944 1.79872 3.75213 0
M  V30 82 H 8.0704 1.96453 5.1254 0
M  V30 83 H 8.3314 0.384237 4.40427 0
M  V30 84 N 7.3905 -1.2043 1.01659 0
M  V30 85 C 8.8065 -1.41852 0.731442 0
M  V30 86 C 9.0065 -1.89358 -0.688898 0
M  V30 87 O 8.0625 -2.06247 -1.45666 0
M  V30 88 C 9.3755 -2.44019 1.75714 0
M  V30 89 C 10.9235 -2.57785 1.77527 0
M  V30 90 C 11.3985 -3.63194 2.79023 0
M  V30 91 N 12.8895 -3.70678 2.77763 0
M  V30 92 C 13.6245 -4.51897 3.52954 0
M  V30 93 N 13.1205 -5.36921 4.37821 0
M  V30 94 N 14.9135 -4.4643 3.41551 0
M  V30 95 H 7.0645 -0.879093 1.93354 0
M  V30 96 H 9.3275 -0.448425 0.835236 0
M  V30 97 H 9.0335 -2.1611 2.77469 0
M  V30 98 H 8.9075 -3.43007 1.56927 0
M  V30 99 H 11.2945 -2.85023 0.764569 0
M  V30 100 H 11.3755 -1.58992 2.00387 0
M  V30 101 H 11.0195 -3.36699 3.80258 0
M  V30 102 H 10.9495 -4.61609 2.53425 0
M  V30 103 H 13.4405 -3.09944 2.16201 0
M  V30 104 H 13.7535 -5.95981 4.91962 0
M  V30 105 H 12.0985 -5.36424 4.41899 0
M  V30 106 H 15.2895 -3.79042 2.74672 0
M  V30 107 H 15.4625 -5.09491 4.00404 0
M  V30 108 N 8.8686 -0.792821 -1.36206 0
M  V30 109 C 10.2846 -0.474903 -1.52371 0
M  V30 110 C 10.4846 1.00622 -1.74578 0
M  V30 111 O 9.5406 1.79162 -1.77924 0
M  V30 112 C 10.8536 -1.3083 -2.70747 0
M  V30 113 C 12.4016 -1.30234 -2.84619 0
M  V30 114 C 12.8766 -2.11956 -4.06004 0
M  V30 115 N 14.3676 -2.09419 -4.13156 0
M  V30 116 C 15.1026 -2.69419 -5.06163 0
M  V30 117 N 14.5986 -3.3829 -6.04592 0
M  V30 118 N 16.3916 -2.59134 -4.98804 0
M  V30 119 H 8.5426 -1.75222 -1.20046 0
M  V30 120 H 10.8056 -0.745024 -0.586211 0
M  V30 121 H 10.5116 -2.35881 -2.6087 0
M  V30 122 H 10.3856 -0.95196 -3.6499 0
M  V30 123 H 12.7726 -0.259748 -2.93955 0
M  V30 124 H 12.8536 -1.69847 -1.91274 0
M  V30 125 H 12.4976 -3.16248 -3.97429 0
M  V30 126 H 12.4276 -1.69711 -4.98503 0
M  V30 127 H 14.9186 -1.59297 -3.42685 0
M  V30 128 H 15.2316 -3.81394 -6.7213 0
M  V30 129 H 13.5766 -3.42393 -6.04807 0
M  V30 130 H 16.7676 -2.04927 -4.20859 0
M  V30 131 H 16.9406 -3.06185 -5.711 0
M  V30 132 N 10.3467 1.47872 -0.545128 0
M  V30 133 C 11.5927 2.02793 -0.0166104 0
M  V30 134 C 11.9257 1.41987 1.32489 0
M  V30 135 O 11.2007 0.571045 1.85928 0
M  V30 136 C 11.4837 3.59989 0.0893294 0
M  V30 137 C 11.3367 4.3125 -1.27841 0
M  V30 138 C 12.6557 4.32606 0.808724 0
M  V30 139 H 9.7747 0.736962 -0.00751035 0
M  V30 140 H 12.4167 1.76433 -0.705085 0
M  V30 141 H 10.5667 3.82579 0.675681 0
M  V30 142 H 12.2387 4.20035 -1.90704 0
M  V30 143 H 10.4817 3.92076 -1.85632 0
M  V30 144 H 11.1527 5.39736 -1.15713 0
M  V30 145 H 13.6287 4.14936 0.310992 0
M  V30 146 H 12.5047 5.42251 0.851782 0
M  V30 147 H 12.7657 4.00963 1.86229 0
M  V30 148 N 11.8248 0.280983 1.55075 0
M  V30 149 C 13.2408 -0.0729964 1.59433 0
M  V30 150 C 13.4408 -1.5411 1.29817 0
M  V30 151 O 12.4968 -2.29086 1.06187 0
M  V30 152 C 13.8098 0.306921 2.9913 0
M  V30 153 C 15.3578 0.254023 3.11968 0
M  V30 154 C 15.8328 0.608467 4.5394 0
M  V30 155 N 17.3238 0.560241 4.59799 0
M  V30 156 C 18.0588 0.80722 5.6769 0
M  V30 157 N 17.5548 1.11912 6.83701 0
M  V30 158 N 19.3478 0.735623 5.57266 0
M  V30 159 H 11.4988 1.238 1.7259 0
M  V30 160 H 13.7618 0.500547 0.805082 0
M  V30 161 H 13.4678 1.32816 3.25657 0
M  V30 162 H 13.3418 -0.349363 3.75579 0
M  V30 163 H 15.7288 -0.75794 2.852 0
M  V30 164 H 15.8098 0.944649 2.37718 0
M  V30 165 H 15.4538 1.61814 4.81434 0
M  V30 166 H 15.3838 -0.104013 5.26497 0
M  V30 167 H 17.8748 0.329288 3.76463 0
M  V30 168 H 18.1878 1.29409 7.61888 0
M  V30 169 H 16.5328 1.15695 6.85303 0
M  V30 170 H 19.7238 0.491752 4.6551 0
M  V30 171 H 19.8968 0.931482 6.4127 0
M  V30 172 N 13.3029 -1.57598 0.00835791 0
M  V30 173 C 14.2349 -2.05811 -1.00868 0
M  V30 174 C 15.2479 -0.977579 -1.30182 0
M  V30 175 O 16.4369 -1.25421 -1.27011 0
M  V30 176 C 13.5369 -2.45016 -2.34137 0
M  V30 177 C 12.7099 -3.75903 -2.23643 0
M  V30 178 C 11.7689 -4.01884 -3.3967 0
M  V30 179 O 10.7949 -4.72433 -3.17483 0
M  V30 180 N 11.9969 -3.50432 -4.62793 0
M  V30 181 H 14.7619 -2.93684 -0.597458 0
M  V30 182 H 12.3229 -1.60909 -0.178852 0
M  V30 183 H 14.3149 -2.59506 -3.10546 0
M  V30 184 H 12.8849 -1.62618 -2.66972 0
M  V30 185 H 12.1049 -3.7141 -1.32091 0
M  V30 186 H 13.3929 -4.61695 -2.13812 0
M  V30 187 H 12.7909 -2.93317 -4.83716 0
M  V30 188 H 11.3479 -3.70236 -5.3644 0
M  V30 189 N 14.781 0.264519 -1.55364 0
M  V30 190 C 15.744 1.31046 -1.88042 0
M  V30 191 C 16.744 1.41943 -0.755569 0
M  V30 192 O 17.934 1.40947 -1.02369 0
M  V30 193 C 15.066 2.69067 -2.09323 0
M  V30 194 H 16.259 1.03297 -2.81549 0
M  V30 195 H 13.812 0.502989 -1.47986 0
M  V30 196 H 14.547 3.01982 -1.18226 0
M  V30 197 H 14.332 2.62542 -2.91229 0
M  V30 198 H 15.822 3.44623 -2.35848 0
M  V30 199 N 16.2591 1.48442 0.529413 0
M  V30 200 C 17.5061 1.56488 1.28521 0
M  V30 201 C 17.8341 0.239042 1.93025 0
M  V30 202 O 17.0891 -0.770713 1.79885 0
M  V30 203 C 17.3881 2.6523 2.39558 0
M  V30 204 C 17.0541 4.07648 1.92702 0
M  V30 205 C 15.7161 4.46411 1.79641 0
M  V30 206 C 18.0681 4.96896 1.573 0
M  V30 207 C 15.3961 5.72226 1.29514 0
M  V30 208 C 17.7481 6.23202 1.08636 0
M  V30 209 C 16.4121 6.60821 0.941919 0
M  V30 210 H 15.6821 0.572631 0.470292 0
M  V30 211 H 18.3291 1.82161 0.59072 0
M  V30 212 H 16.6341 2.33419 3.14679 0
M  V30 213 H 18.3311 2.68671 2.97686 0
M  V30 214 H 14.9211 3.77036 2.03819 0
M  V30 215 H 19.1051 4.67626 1.66251 0
M  V30 216 H 14.3611 6.00097 1.17019 0
M  V30 217 H 18.5351 6.91753 0.803136 0
M  V30 218 H 16.1621 7.58198 0.5513 0
M  V30 219 N 17.7372 -0.778329 1.37039 0
M  V30 220 C 18.6672 -1.90546 1.34962 0
M  V30 221 C 19.6482 -1.68681 0.219274 0
M  V30 222 O 20.8332 -1.89634 0.418624 0
M  V30 223 C 17.9632 -3.27734 1.14925 0
M  V30 224 C 16.9172 -3.64147 2.24902 0
M  V30 225 C 16.2432 -4.99806 1.89996 0
M  V30 226 C 17.5432 -3.71579 3.67051 0
M  V30 227 H 19.2372 -1.92541 2.29277 0
M  V30 228 H 16.7832 -0.924948 1.10366 0
M  V30 229 H 18.7362 -4.06215 1.12104 0
M  V30 230 H 17.4602 -3.26154 0.170631 0
M  V30 231 H 16.1192 -2.8797 2.26868 0
M  V30 232 H 15.7672 -4.94759 0.906796 0
M  V30 233 H 15.4672 -5.25139 2.63634 0
M  V30 234 H 16.9912 -5.80694 1.88749 0
M  V30 235 H 18.4052 -4.40227 3.67251 0
M  V30 236 H 16.8022 -4.08405 4.39688 0
M  V30 237 H 17.8722 -2.72404 4.01154 0
M  V30 238 N 19.2153 -1.21501 -1.00376 0
M  V30 239 C 20.4403 -1.05977 -1.78279 0
M  V30 240 C 20.8653 0.385994 -1.84097 0
M  V30 241 O 20.2233 1.27849 -1.28547 0
M  V30 242 C 20.2713 -1.66302 -3.19963 0
M  V30 243 O 19.3753 -0.909333 -4.0225 0
M  V30 244 H 18.7163 -0.372906 -0.549397 0
M  V30 245 H 21.2463 -1.6107 -1.26165 0
M  V30 246 H 21.2563 -1.70574 -3.70632 0
M  V30 247 H 19.9313 -2.71515 -3.15043 0
M  V30 248 H 18.5083 -0.941795 -3.60811 0
M  V30 249 N 20.6934 1.19889 -1.02296 0
M  V30 250 C 21.9414 1.89046 -0.714558 0
M  V30 251 C 22.2624 1.79636 0.758681 0
M  V30 252 O 21.5324 1.20292 1.54618 0
M  V30 253 H 20.1124 0.699802 -0.261317 0
M  V30 254 H 22.7744 1.45574 -1.29592 0
M  V30 255 H 21.8704 2.95524 -1.0036 0
M  V30 256 N 22.1715 0.800033 1.35784 0
M  V30 257 C 23.5875 0.482977 1.52117 0
M  V30 258 C 23.7875 -0.996948 1.75109 0
M  V30 259 O 22.8435 -1.78216 1.78872 0
M  V30 260 C 24.1565 1.32264 2.70049 0
M  V30 261 C 25.7045 1.31742 2.83924 0
M  V30 262 C 26.1795 2.14106 4.04874 0
M  V30 263 N 27.6705 2.11607 4.12039 0
M  V30 264 C 28.4055 2.72099 5.04727 0
M  V30 265 N 27.9015 3.41492 6.02789 0
M  V30 266 N 29.6945 2.61776 4.97423 0
M  V30 267 H 21.8455 1.75856 1.19115 0
M  V30 268 H 24.1085 0.748122 0.582252 0
M  V30 269 H 23.8145 2.37261 2.59616 0
M  V30 270 H 23.6885 0.971303 3.6448 0
M  V30 271 H 26.0755 0.275333 2.93813 0
M  V30 272 H 26.1565 1.70859 1.9037 0
M  V30 273 H 25.8005 3.18351 3.95746 0
M  V30 274 H 25.7305 1.72353 4.97596 0
M  V30 275 H 28.2215 1.61112 3.41835 0
M  V30 276 H 28.5345 3.84953 6.70098 0
M  V30 277 H 26.8795 3.45596 6.02983 0
M  V30 278 H 30.0705 2.07157 4.19766 0
M  V30 279 H 30.2435 3.0921 5.69468 0
M  V30 280 N 23.6496 -1.47581 0.552962 0
M  V30 281 C 24.8746 -2.07378 0.0300593 0
M  V30 282 C 25.2996 -1.40355 -1.25229 0
M  V30 283 O 24.6576 -0.477099 -1.7491 0
M  V30 284 C 24.7056 -3.60274 -0.153231 0
M  V30 285 O 23.8096 -3.94041 -1.21678 0
M  V30 286 H 23.1506 -0.662158 0.0494182 0
M  V30 287 H 25.6806 -1.89662 0.767434 0
M  V30 288 H 25.6906 -4.0633 -0.368761 0
M  V30 289 H 24.3656 -4.08455 0.783397 0
M  V30 290 H 22.9426 -3.59735 -0.982079 0
M  V30 291 N 25.1277 -0.289203 -1.54924 0
M  V30 292 C 26.5437 0.0645403 -1.59469 0
M  V30 293 C 26.7437 1.53419 -1.30632 0
M  V30 294 O 25.7997 2.2852 -1.074 0
M  V30 295 C 27.1127 -0.32278 -2.98963 0
M  V30 296 C 28.6607 -0.270564 -3.11828 0
M  V30 297 C 29.1357 -0.632532 -4.53611 0
M  V30 298 N 30.6267 -0.584617 -4.59496 0
M  V30 299 C 31.3617 -0.837314 -5.67254 0
M  V30 300 N 30.8577 -1.15536 -6.83098 0
M  V30 301 N 32.6507 -0.765166 -5.56868 0
M  V30 302 H 24.8017 -1.24714 -1.71931 0
M  V30 303 H 27.0647 -0.504809 -0.802416 0
M  V30 304 H 26.7707 -1.34541 -3.24948 0
M  V30 305 H 26.6447 0.32944 -3.75759 0
M  V30 306 H 29.0317 0.742805 -2.85598 0
M  V30 307 H 29.1127 -0.957242 -2.37214 0
M  V30 308 H 28.7567 -1.64365 -4.80569 0
M  V30 309 H 28.6867 0.07609 -5.26545 0
M  V30 310 H 31.1777 -0.349248 -3.76283 0
M  V30 311 H 31.4907 -1.33447 -7.61191 0
M  V30 312 H 29.8357 -1.19328 -6.84679 0
M  V30 313 H 33.0267 -0.516432 -4.65243 0
M  V30 314 H 33.1997 -0.965477 -6.40767 0
M  V30 315 N 26.6058 1.57591 -0.0167156 0
M  V30 316 C 28.0168 1.79201 0.523834 0
M  V30 317 C 28.3678 0.925796 1.72984 0
M  V30 318 O 27.4928 0.132792 2.15992 0
M  V30 319 C 28.0878 3.25 0.957091 0
M  V30 320 C 26.6468 3.47648 1.44283 0
M  V30 321 C 25.7938 2.74374 0.401757 0
M  V30 322 H 28.7448 1.56831 -0.242816 0
M  V30 323 H 28.7658 3.34031 1.82219 0
M  V30 324 H 28.2778 3.88019 0.0791415 0
M  V30 325 H 26.3788 2.89866 2.34113 0
M  V30 326 H 26.4918 4.56352 1.45877 0
M  V30 327 H 24.8558 2.39485 0.867121 0
M  V30 328 H 25.6388 3.40102 -0.467513 0
M  V30 329 N 28.0839 -0.256276 1.55502 0
M  V30 330 C 29.0139 -1.32102 1.92539 0
M  V30 331 C 29.9949 -1.50684 0.789194 0
M  V30 332 O 31.1799 -1.63449 1.04872 0
M  V30 333 C 28.3099 -2.67752 2.21192 0
M  V30 334 C 27.2639 -2.63878 3.36975 0
M  V30 335 C 26.5899 -4.03236 3.51147 0
M  V30 336 C 27.8899 -2.21682 4.72921 0
M  V30 337 H 29.5839 -1.01351 2.81724 0
M  V30 338 H 27.1299 -0.486105 1.35547 0
M  V30 339 H 29.0829 -3.42365 2.45691 0
M  V30 340 H 27.8069 -3.0012 1.28824 0
M  V30 341 H 26.4659 -1.91722 3.12471 0
M  V30 342 H 26.1139 -4.32854 2.56216 0
M  V30 343 H 25.8139 -4.01535 4.29003 0
M  V30 344 H 27.3379 -4.79563 3.77957 0
M  V30 345 H 28.7519 -2.86023 4.96854 0
M  V30 346 H 27.1489 -2.3111 5.53812 0
M  V30 347 H 28.2189 -1.16833 4.70615 0
M  V30 348 N 29.562 -1.4872 -0.521534 0
M  V30 349 C 30.978 -1.35028 -0.850855 0
M  V30 350 C 31.178 -0.367712 -1.98116 0
M  V30 351 O 30.234 0.208037 -2.51642 0
M  V30 352 C 31.547 -2.75263 -1.21041 0
M  V30 353 C 33.095 -2.83813 -1.31981 0
M  V30 354 C 33.57 -4.24769 -1.71276 0
M  V30 355 N 35.061 -4.27482 -1.78363 0
M  V30 356 C 35.796 -5.33494 -2.1017 0
M  V30 357 N 35.292 -6.49775 -2.40343 0
M  V30 358 N 37.085 -5.20894 -2.11248 0
M  V30 359 H 29.236 -2.11214 0.22413 0
M  V30 360 H 31.499 -0.947252 0.0376439 0
M  V30 361 H 31.205 -3.48765 -0.453415 0
M  V30 362 H 31.079 -3.09327 -2.15863 0
M  V30 363 H 33.466 -2.10561 -2.06756 0
M  V30 364 H 33.547 -2.53358 -0.352596 0
M  V30 365 H 33.191 -4.9854 -0.970588 0
M  V30 366 H 33.121 -4.52673 -2.69062 0
M  V30 367 H 35.612 -3.43611 -1.57288 0
M  V30 368 H 35.925 -7.26402 -2.63743 0
M  V30 369 H 34.27 -6.53035 -2.37844 0
M  V30 370 H 37.461 -4.29065 -1.87139 0
M  V30 371 H 37.634 -6.03612 -2.35704 0
M  V30 372 N 31.0401 0.771051 -1.3745 0
M  V30 373 C 32.2871 1.52963 -1.32697 0
M  V30 374 C 32.6151 1.94299 0.0883274 0
M  V30 375 O 31.8701 1.64397 1.0617 0
M  V30 376 C 32.1691 2.80676 -2.2126 0
M  V30 377 C 31.8351 2.58389 -3.69521 0
M  V30 378 C 30.4971 2.52019 -4.09927 0
M  V30 379 C 32.8491 2.38469 -4.63446 0
M  V30 380 C 30.1771 2.23721 -5.42371 0
M  V30 381 C 32.5291 2.11694 -5.96128 0
M  V30 382 C 31.1931 2.03769 -6.35637 0
M  V30 383 H 30.4631 0.559732 -0.485573 0
M  V30 384 H 33.1101 0.888083 -1.69662 0
M  V30 385 H 31.4151 3.49392 -1.77291 0
M  V30 386 H 33.1121 3.38557 -2.14895 0
M  V30 387 H 29.7021 2.6421 -3.37478 0
M  V30 388 H 33.8861 2.4238 -4.33089 0
M  V30 389 H 29.1421 2.16081 -5.71943 0
M  V30 390 H 33.3161 1.9528 -6.6846 0
M  V30 391 H 30.9431 1.81606 -7.38189 0
M  V30 392 N 32.5182 1.22032 0.997298 0
M  V30 393 C 33.9342 0.979326 1.26021 0
M  V30 394 C 34.1342 -0.32972 1.98784 0
M  V30 395 O 33.1902 -1.05345 2.29475 0
M  V30 396 C 34.5032 2.17509 2.07631 0
M  V30 397 C 36.0512 2.21817 2.2083 0
M  V30 398 C 36.5262 3.40933 3.05825 0
M  V30 399 N 38.0172 3.41067 3.13412 0
M  V30 400 C 38.7522 4.29885 3.79455 0
M  V30 401 N 38.2482 5.28914 4.47462 0
M  V30 402 N 40.0412 4.17673 3.76173 0
M  V30 403 H 32.1922 2.06202 0.509352 0
M  V30 404 H 34.4552 0.90334 0.287541 0
M  V30 405 H 34.1612 3.12415 1.61524 0
M  V30 406 H 34.0352 2.17206 3.08385 0
M  V30 407 H 36.4222 1.27462 2.66153 0
M  V30 408 H 36.5032 2.2616 1.1952 0
M  V30 409 H 36.1472 4.35586 2.61203 0
M  V30 410 H 36.0772 3.33829 4.07266 0
M  V30 411 H 38.5682 2.69406 2.65007 0
M  V30 412 H 38.8812 5.92973 4.95583 0
M  V30 413 H 37.2262 5.32831 4.46224 0
M  V30 414 H 40.4172 3.39564 3.22202 0
M  V30 415 H 40.5902 4.87098 4.27363 0
M  V30 416 N 33.9963 -1.19345 1.0293 0
M  V30 417 C 34.9263 -2.2481 0.631105 0
M  V30 418 C 35.9073 -1.66245 -0.360104 0
M  V30 419 O 37.0923 -1.92677 -0.242726 0
M  V30 420 C 34.2223 -3.47295 -0.0184607 0
M  V30 421 C 33.1763 -4.18536 0.895073 0
M  V30 422 C 32.5023 -5.34586 0.110592 0
M  V30 423 C 33.8023 -4.73287 2.209 0
M  V30 424 H 35.4963 -2.58372 1.51275 0
M  V30 425 H 33.0423 -1.24194 0.728818 0
M  V30 426 H 34.9953 -4.20268 -0.308675 0
M  V30 427 H 33.7193 -3.12933 -0.934907 0
M  V30 428 H 32.3783 -3.47446 1.16949 0
M  V30 429 H 32.0263 -4.96469 -0.807902 0
M  V30 430 H 31.7263 -5.83183 0.719087 0
M  V30 431 H 33.2503 -6.10355 -0.172871 0
M  V30 432 H 34.6643 -5.38013 1.98028 0
M  V30 433 H 33.0613 -5.32373 2.76946 0
M  V30 434 H 34.1313 -3.91331 2.86336 0
M  V30 435 N 35.4744 -0.807222 -1.35358 0
M  V30 436 C 36.4064 -0.175717 -2.28525 0
M  V30 437 C 37.4194 0.625354 -1.5031 0
M  V30 438 O 38.6084 0.457611 -1.72535 0
M  V30 439 C 35.7084 0.773471 -3.29956 0
M  V30 440 C 34.8814 0.0186296 -4.37396 0
M  V30 441 C 33.9404 0.886395 -5.18681 0
M  V30 442 O 32.9664 0.337106 -5.68201 0
M  V30 443 N 34.1684 2.20839 -5.36852 0
M  V30 444 H 36.9334 -0.976091 -2.83359 0
M  V30 445 H 34.4944 -0.662737 -1.47714 0
M  V30 446 H 36.4864 1.35824 -3.81227 0
M  V30 447 H 35.0564 1.47465 -2.75632 0
M  V30 448 H 34.2764 -0.747349 -3.87051 0
M  V30 449 H 35.5644 -0.501577 -5.06322 0
M  V30 450 H 34.9624 2.67858 -4.98265 0
M  V30 451 H 33.5194 2.74237 -5.91301 0
M  V30 452 N 36.9525 1.47285 -0.560781 0
M  V30 453 C 37.8845 2.28118 0.222438 0
M  V30 454 C 38.8975 1.37219 0.876056 0
M  V30 455 O 40.0865 1.62011 0.749307 0
M  V30 456 C 37.1865 3.1159 1.33285 0
M  V30 457 C 36.3595 4.30473 0.77534 0
M  V30 458 C 35.4185 4.95513 1.77069 0
M  V30 459 O 34.4445 5.53792 1.31539 0
M  V30 460 N 35.6465 4.90531 3.10418 0
M  V30 461 H 38.4115 2.95976 -0.470958 0
M  V30 462 H 35.9725 1.56955 -0.39709 0
M  V30 463 H 37.9645 3.51967 1.99752 0
M  V30 464 H 36.5345 2.45951 1.92943 0
M  V30 465 H 35.7545 3.94144 -0.0662113 0
M  V30 466 H 37.0425 5.07362 0.382272 0
M  V30 467 H 36.4405 4.44389 3.5005 0
M  V30 468 H 34.9975 5.34917 3.72434 0
M  V30 469 N 38.4306 0.297415 1.54768 0
M  V30 470 C 39.3606 -0.573494 2.26348 0
M  V30 471 C 40.3416 -1.14085 1.26169 0
M  V30 472 O 41.5266 -1.17086 1.54934 0
M  V30 473 C 38.6566 -1.74716 3.00153 0
M  V30 474 C 37.6106 -1.31032 4.07449 0
M  V30 475 C 36.9366 -2.56887 4.68949 0
M  V30 476 C 38.2366 -0.444183 5.20408 0
M  V30 477 H 39.9306 0.0235131 2.99391 0
M  V30 478 H 37.4766 0.0127488 1.43994 0
M  V30 479 H 39.4296 -2.3625 3.48947 0
M  V30 480 H 38.1536 -2.37035 2.24682 0
M  V30 481 H 36.8126 -0.718066 3.59499 0
M  V30 482 H 36.4606 -3.17512 3.90122 0
M  V30 483 H 36.1606 -2.2836 5.41411 0
M  V30 484 H 37.6846 -3.19229 5.20505 0
M  V30 485 H 39.0986 -0.9651 5.65118 0
M  V30 486 H 37.4956 -0.252846 5.99567 0
M  V30 487 H 38.5656 0.531609 4.81977 0
M  V30 488 N 39.9087 -1.5758 0.0250728 0
M  V30 489 C 40.8187 -2.1343 -0.973905 0
M  V30 490 C 41.8347 -1.08556 -1.35984 0
M  V30 491 O 43.0107 -1.40592 -1.44207 0
M  V30 492 C 40.0757 -2.64703 -2.23904 0
M  V30 493 C 39.1367 -3.84276 -1.91391 0
M  V30 494 C 38.3697 -4.33095 -3.11873 0
M  V30 495 O 38.5927 -3.81107 -4.24398 0
M  V30 496 O 37.5267 -5.24984 -2.94406 0
M  V30 497 H 41.3527 -2.99057 -0.529036 0
M  V30 498 H 38.9377 -1.48118 -0.195288 0
M  V30 499 H 40.8197 -2.97769 -2.98181 0
M  V30 500 H 39.4947 -1.82161 -2.6758 0
M  V30 501 H 38.4017 -3.56143 -1.14511 0
M  V30 502 H 39.7347 -4.67968 -1.52534 0
M  V30 503 N 41.3868 0.248026 -1.55636 0
M  V30 504 C 42.3498 1.29044 -1.89421 0
M  V30 505 C 43.3498 1.41134 -0.770581 0
M  V30 506 O 44.5398 1.39854 -1.03858 0
M  V30 507 C 41.6718 2.66831 -2.12165 0
M  V30 508 H 42.8648 1.00305 -2.82629 0
M  V30 509 H 40.4178 0.487265 -1.48511 0
M  V30 510 H 41.1528 3.00711 -1.21422 0
M  V30 511 H 40.9378 2.59438 -2.93997 0
M  V30 512 H 42.4278 3.42103 -2.3949 0
M  V30 513 N 42.8649 1.48995 0.513639 0
M  V30 514 C 43.7949 1.67636 1.62544 0
M  V30 515 C 44.7759 0.525087 1.61793 0
M  V30 516 O 45.9609 0.759502 1.78732 0
M  V30 517 C 43.0909 1.73114 3.01079 0
M  V30 518 C 42.0449 2.87905 3.16693 0
M  V30 519 C 41.3709 2.78486 4.56453 0
M  V30 520 C 42.6709 4.29005 2.97913 0
M  V30 521 H 44.3649 2.60716 1.47198 0
M  V30 522 H 41.9109 1.25465 0.706714 0
M  V30 523 H 43.8639 1.84742 3.78746 0
M  V30 524 H 42.5879 0.766241 3.17484 0
M  V30 525 H 41.2469 2.75859 2.41448 0
M  V30 526 H 40.8949 1.7993 4.69717 0
M  V30 527 H 40.5949 3.55523 4.67843 0
M  V30 528 H 42.1189 2.92104 5.36197 0
M  V30 529 H 43.5329 4.41798 3.65359 0
M  V30 530 H 41.9299 5.07166 3.20785 0
M  V30 531 H 42.9999 4.44329 1.94165 0
M  V30 532 N 44.343 -0.763751 1.37857 0
M  V30 533 C 45.759 -1.06542 1.18832 0
M  V30 534 C 45.959 -2.01478 0.0299722 0
M  V30 535 O 45.015 -2.4458 -0.627447 0
M  V30 536 C 46.328 -1.65525 2.51042 0
M  V30 537 C 47.876 -1.77745 2.57635 0
M  V30 538 C 48.351 -2.4014 3.89996 0
M  V30 539 N 49.842 -2.47582 3.91481 0
M  V30 540 C 50.577 -2.96732 4.9065 0
M  V30 541 N 50.073 -3.45993 6.00217 0
M  V30 542 N 51.866 -2.95679 4.78048 0
M  V30 543 H 44.017 -0.133556 2.1198 0
M  V30 544 H 46.28 -0.121879 0.940133 0
M  V30 545 H 45.986 -1.03236 3.36207 0
M  V30 546 H 45.86 -2.64719 2.68707 0
M  V30 547 H 48.247 -2.39164 1.72872 0
M  V30 548 H 48.328 -0.772836 2.43846 0
M  V30 549 H 47.972 -1.79358 4.75177 0
M  V30 550 H 47.902 -3.41223 4.01092 0
M  V30 551 H 50.393 -2.1273 3.12337 0
M  V30 552 H 50.706 -3.81922 6.7183 0
M  V30 553 H 49.051 -3.44077 6.03851 0
M  V30 554 H 52.242 -2.56499 3.91568 0
M  V30 555 H 52.415 -3.33672 5.55488 0
M  V30 556 N 45.8211 -1.22559 -0.990812 0
M  V30 557 C 47.2371 -0.985996 -1.255 0
M  V30 558 C 47.4371 0.319173 -1.98956 0
M  V30 559 O 46.4931 1.04127 -2.3003 0
M  V30 560 C 47.8061 -2.18607 -2.06474 0
M  V30 561 C 49.3541 -2.22985 -2.19651 0
M  V30 562 C 49.8291 -3.4255 -3.04012 0
M  V30 563 N 51.3201 -3.42725 -3.11599 0
M  V30 564 C 52.0551 -4.31892 -3.7717 0
M  V30 565 N 51.5511 -5.31279 -4.44651 0
M  V30 566 N 53.3441 -4.19662 -3.73952 0
M  V30 567 H 45.4951 -2.06469 -0.49841 0
M  V30 568 H 47.7581 -0.904853 -0.282747 0
M  V30 569 H 47.4641 -3.13267 -1.59865 0
M  V30 570 H 47.3381 -2.18838 -3.07229 0
M  V30 571 H 49.7251 -1.28871 -2.65474 0
M  V30 572 H 49.8061 -2.26791 -1.18319 0
M  V30 573 H 49.4501 -4.36965 -2.58889 0
M  V30 574 H 49.3801 -3.35984 -4.0549 0
M  V30 575 H 51.8711 -2.70807 -2.63575 0
M  V30 576 H 52.1841 -5.95593 -4.92431 0
M  V30 577 H 50.5291 -5.3519 -4.43392 0
M  V30 578 H 53.7201 -3.41268 -3.20396 0
M  V30 579 H 53.8931 -4.89358 -4.24774 0
M  V30 580 N 47.2992 1.18797 -1.03562 0
M  V30 581 C 48.2322 2.2105 -0.56676 0
M  V30 582 C 49.2102 1.57704 0.395993 0
M  V30 583 O 50.3942 1.85908 0.311498 0
M  V30 584 C 47.5212 3.38259 0.172704 0
M  V30 585 C 46.5672 4.19987 -0.74252 0
M  V30 586 S 47.4002 4.87199 -2.22254 0
M  V30 587 C 48.5562 6.07813 -1.49379 0
M  V30 588 H 48.7892 2.60478 -1.43312 0
M  V30 589 H 46.3222 1.29151 -0.846133 0
M  V30 590 H 48.2802 4.06191 0.593191 0
M  V30 591 H 46.9412 2.97252 1.01488 0
M  V30 592 H 46.1342 5.03709 -0.171265 0
M  V30 593 H 45.7362 3.57408 -1.10163 0
M  V30 594 H 48.0282 6.72948 -0.784056 0
M  V30 595 H 48.9712 6.69435 -2.30786 0
M  V30 596 H 49.3792 5.55781 -0.988331 0
M  V30 597 N 48.7773 0.814389 1.34928 0
M  V30 598 C 50.0233 0.399013 1.98836 0
M  V30 599 C 50.3563 -1.03314 1.64438 0
M  V30 600 O 49.6313 -1.71811 0.911659 0
M  V30 601 C 49.9143 0.591629 3.55207 0
M  V30 602 C 49.7673 2.06928 3.99376 0
M  V30 603 C 51.0863 0.022199 4.40094 0
M  V30 604 H 48.2053 0.146451 0.722303 0
M  V30 605 H 50.8473 1.02537 1.59957 0
M  V30 606 H 48.9973 0.0584441 3.88456 0
M  V30 607 H 50.6693 2.66544 3.76499 0
M  V30 608 H 48.9123 2.56287 3.49999 0
M  V30 609 H 49.5833 2.1549 5.08201 0
M  V30 610 H 52.0593 0.477643 4.13349 0
M  V30 611 H 50.9353 0.186832 5.48582 0
M  V30 612 H 51.1963 -1.07215 4.28902 0
M  V30 613 N 50.2554 -1.46986 0.568584 0
M  V30 614 C 51.1874 -2.28233 -0.210337 0
M  V30 615 C 52.2004 -1.37682 -0.868767 0
M  V30 616 O 53.3894 -1.62406 -0.740705 0
M  V30 617 C 50.4894 -3.12293 -1.3163 0
M  V30 618 C 49.6624 -4.30878 -0.7525 0
M  V30 619 C 48.7214 -4.96445 -1.74439 0
M  V30 620 O 47.7474 -5.54482 -1.286 0
M  V30 621 N 48.9494 -4.92171 -3.07812 0
M  V30 622 H 51.7144 -2.95723 0.486648 0
M  V30 623 H 49.2754 -1.56742 0.405409 0
M  V30 624 H 51.2674 -3.53022 -1.97883 0
M  V30 625 H 49.8374 -2.46971 -1.91636 0
M  V30 626 H 49.0574 -3.94104 0.0871128 0
M  V30 627 H 50.3454 -5.07558 -0.35536 0
M  V30 628 H 49.7434 -4.46239 -3.47688 0
M  V30 629 H 48.3004 -5.36884 -3.69592 0
M  V30 630 N 51.7335 -0.305618 -1.54608 0
M  V30 631 C 52.6435 0.57778 -2.27374 0
M  V30 632 C 53.6595 1.14451 -1.31061 0
M  V30 633 O 54.8355 1.16831 -1.6405 0
M  V30 634 C 51.9005 1.73123 -3.00382 0
M  V30 635 C 50.9615 1.19812 -4.12242 0
M  V30 636 C 50.1945 2.2966 -4.81759 0
M  V30 637 O 50.4175 3.49651 -4.50666 0
M  V30 638 O 49.3515 1.96091 -5.69062 0
M  V30 639 H 53.1775 -0.012624 -3.03697 0
M  V30 640 H 50.7625 -0.0719184 -1.49227 0
M  V30 641 H 52.6445 2.40315 -3.4616 0
M  V30 642 H 51.3195 2.30815 -2.26949 0
M  V30 643 H 50.2265 0.491798 -3.70853 0
M  V30 644 H 51.5595 0.666566 -4.87666 0
M  V30 645 N 53.2116 1.57565 -0.0334293 0
M  V30 646 C 54.6276 1.56297 0.322997 0
M  V30 647 C 54.8276 1.03945 1.7262 0
M  V30 648 O 53.8836 0.688109 2.42943 0
M  V30 649 C 55.1966 3.00232 0.167664 0
M  V30 650 C 56.7446 3.12078 0.240107 0
M  V30 651 C 57.2196 4.57859 0.113513 0
M  V30 652 N 58.7106 4.62887 0.170359 0
M  V30 653 C 59.4456 5.73319 0.0962517 0
M  V30 654 N 58.9416 6.92794 -0.0291881 0
M  V30 655 N 60.7346 5.61898 0.150551 0
M  V30 656 H 52.8856 1.89923 -0.950956 0
M  V30 657 H 55.1486 0.873824 -0.367608 0
M  V30 658 H 54.8546 3.42501 -0.799102 0
M  V30 659 H 54.7286 3.654 0.936083 0
M  V30 660 H 57.1156 2.69718 1.19733 0
M  V30 661 H 57.1966 2.49623 -0.558763 0
M  V30 662 H 56.8406 5.009 -0.840314 0
M  V30 663 H 56.7706 5.18299 0.931302 0
M  V30 664 H 59.2616 3.76954 0.26728 0
M  V30 665 H 59.5746 7.7276 -0.0789252 0
M  V30 666 H 57.9196 6.94971 -0.0640299 0
M  V30 667 H 61.1106 4.67448 0.246981 0
M  V30 668 H 61.2836 6.47938 0.0893365 0
M  V30 669 N 54.6897 -0.239769 1.55765 0
M  V30 670 C 55.5997 -1.31831 1.94056 0
M  V30 671 C 56.6157 -1.52275 0.841925 0
M  V30 672 O 57.7917 -1.65759 1.14394 0
M  V30 673 C 54.8567 -2.65156 2.23368 0
M  V30 674 C 53.9177 -2.53173 3.46701 0
M  V30 675 C 53.1507 -3.8014 3.74606 0
M  V30 676 O 53.3737 -4.82343 3.04469 0
M  V30 677 O 52.3077 -3.78344 4.68123 0
M  V30 678 H 56.1337 -1.02347 2.85935 0
M  V30 679 H 53.7187 -0.441123 1.42739 0
M  V30 680 H 55.6007 -3.43929 2.43497 0
M  V30 681 H 54.2757 -2.94358 1.34666 0
M  V30 682 H 53.1827 -1.72662 3.31871 0
M  V30 683 H 54.5157 -2.28915 4.35728 0
M  V30 684 N 56.1678 -1.49265 -0.50573 0
M  V30 685 C 57.1148 -1.65585 -1.6078 0
M  V30 686 C 58.0848 -0.497396 -1.58478 0
M  V30 687 O 59.2698 -0.72385 -1.76536 0
M  V30 688 C 56.4098 -1.72408 -2.98948 0
M  V30 689 C 55.5228 -2.99525 -3.11301 0
M  V30 690 C 54.6578 -2.97356 -4.40174 0
M  V30 691 C 53.6968 -4.19074 -4.46143 0
M  V30 692 N 52.8338 -4.14841 -5.66437 0
M  V30 693 H 57.6738 -2.59688 -1.46172 0
M  V30 694 H 55.2108 -1.28761 -0.711261 0
M  V30 695 H 57.1688 -1.74344 -3.79025 0
M  V30 696 H 55.7988 -0.817753 -3.1227 0
M  V30 697 H 54.8508 -3.07222 -2.24318 0
M  V30 698 H 56.1628 -3.89518 -3.11572 0
M  V30 699 H 55.3168 -2.97829 -5.28567 0
M  V30 700 H 54.0558 -2.05133 -4.42461 0
M  V30 701 H 53.0608 -4.1885 -3.56153 0
M  V30 702 H 54.2858 -5.12483 -4.45575 0
M  V30 703 H 52.2318 -3.25453 -5.69575 0
M  V30 704 H 52.1488 -4.98564 -5.68304 0
M  V30 705 H 53.4168 -4.1941 -6.57051 0
M  V30 706 N 57.6459 0.756429 -1.3826 0
M  V30 707 C 58.9229 1.50584 -1.24835 0
M  V30 708 C 59.3029 2.10556 0.151485 0
M  V30 709 O 58.6509 1.96825 1.1607 0
M  V30 710 C 58.8609 2.57448 -2.3563 0
M  V30 711 C 60.2089 3.24429 -2.73917 0
M  V30 712 O 61.2329 2.67751 -2.34921 0
M  V30 713 O 60.0919 4.26937 -3.41156 0
M  V30 714 H 57.1859 0.667664 -0.48801 0
M  V30 715 H 59.7319 0.792083 -1.5008 0
M  V30 716 H 58.5039 2.11362 -3.29305 0
M  V30 717 H 58.1269 3.36408 -2.11933 0
M  V30 718 N 59.124 1.23083 0.984299 0
M  V30 719 C 60.373 1.05466 1.71929 0
M  V30 720 C 60.686 -0.409211 1.91272 0
M  V30 721 O 61.892 -0.705226 2.62181 0
M  V30 722 C 60.348 1.83874 3.09384 0
M  V30 723 C 59.956 3.34566 2.97943 0
M  V30 724 C 61.7 1.74734 3.8687 0
M  V30 725 C 59.607 4.05381 4.30605 0
M  V30 726 H 58.537 0.391039 0.644674 0
M  V30 727 H 61.188 1.47013 1.09815 0
M  V30 728 H 59.57 1.35131 3.72231 0
M  V30 729 H 60.744 3.90767 2.44209 0
M  V30 730 H 59.059 3.44476 2.33934 0
M  V30 731 H 61.656 2.24957 4.85076 0
M  V30 732 H 61.999 0.709372 4.10212 0
M  V30 733 H 62.532 2.21067 3.30717 0
M  V30 734 H 59.271 5.09467 4.1246 0
M  V30 735 H 58.791 3.53967 4.84218 0
M  V30 736 H 60.47 4.11458 4.99311 0
M  V30 737 N 60.6021 -1.18246 1.0419 0
M  V30 738 C 61.5321 -2.24127 0.654914 0
M  V30 739 C 62.5131 -1.66617 -0.342451 0
M  V30 740 O 63.6981 -1.92924 -0.222277 0
M  V30 741 C 60.8281 -3.47295 0.0183757 0
M  V30 742 C 59.7821 -4.17563 0.939414 0
M  V30 743 C 59.1081 -5.34438 0.167286 0
M  V30 744 C 60.4081 -4.70917 2.25908 0
M  V30 745 H 62.1021 -2.56753 1.54007 0
M  V30 746 H 59.6481 -1.23414 0.74195 0
M  V30 747 H 61.6011 -4.20572 -0.264082 0
M  V30 748 H 60.3251 -3.13907 -0.901664 0
M  V30 749 H 58.9841 -3.46186 1.20628 0
M  V30 750 H 58.6321 -4.97298 -0.7552 0
M  V30 751 H 58.3321 -5.82388 0.780901 0
M  V30 752 H 59.8561 -6.10504 -0.108125 0
M  V30 753 H 61.2701 -5.35882 2.03724 0
M  V30 754 H 59.6671 -5.29406 2.82577 0
M  V30 755 H 60.7371 -3.88272 2.9047 0
M  V30 756 N 62.0802 -0.821533 -1.34494 0
M  V30 757 C 63.3082 -0.421884 -2.02553 0
M  V30 758 C 63.7232 0.971745 -1.61872 0
M  V30 759 O 63.0802 1.62864 -0.823496 0
M  V30 760 C 63.1312 -0.51285 -3.57844 0
M  V30 761 O 62.8522 -1.85155 -3.97051 0
M  V30 762 C 64.3532 -0.107921 -4.43169 0
M  V30 763 H 61.5732 -0.169482 -0.649243 0
M  V30 764 H 64.1172 -1.1093 -1.71798 0
M  V30 765 H 62.2722 0.126474 -3.87193 0
M  V30 766 H 62.6862 -1.82482 -4.91732 0
M  V30 767 H 64.1602 -0.222657 -5.51551 0
M  V30 768 H 64.6372 0.948401 -4.28838 0
M  V30 769 H 65.2432 -0.720989 -4.19144 0
M  V30 770 N 63.5583 1.46682 -0.576371 0
M  V30 771 C 64.5213 2.28707 0.150239 0
M  V30 772 C 65.5213 1.38035 0.824794 0
M  V30 773 O 66.7113 1.60476 0.677719 0
M  V30 774 C 63.8433 3.18248 1.22192 0
M  V30 775 H 65.0363 2.94423 -0.570521 0
M  V30 776 H 62.5893 1.52688 -0.334078 0
M  V30 777 H 63.3243 2.57265 1.97447 0
M  V30 778 H 63.1093 3.85 0.742812 0
M  V30 779 H 64.5993 3.80001 1.73172 0
M  V30 780 N 65.0364 0.313813 1.54444 0
M  V30 781 C 66.2854 -0.292519 1.99568 0
M  V30 782 C 66.5984 -1.54011 1.20582 0
M  V30 783 O 67.8044 -2.22183 1.56035 0
M  V30 784 C 66.2604 -0.571752 3.55329 0
M  V30 785 C 65.8684 0.658229 4.43138 0
M  V30 786 C 67.6124 -1.13857 4.08946 0
M  V30 787 C 65.5194 0.351439 5.90355 0
M  V30 788 H 64.4494 -0.113079 0.745472 0
M  V30 789 H 67.1004 0.424518 1.78522 0
M  V30 790 H 65.4824 -1.34872 3.72325 0
M  V30 791 H 66.6564 1.43403 4.37918 0
M  V30 792 H 64.9714 1.14458 4.0036 0
M  V30 793 H 67.5684 -1.38257 5.16516 0
M  V30 794 H 67.9114 -2.08489 3.6033 0
M  V30 795 H 68.4444 -0.423015 3.95544 0
M  V30 796 H 65.1834 1.26667 6.43145 0
M  V30 797 H 64.7034 -0.386842 5.98551 0
M  V30 798 H 66.3824 -0.0423134 6.46986 0
M  V30 799 N 66.5145 -1.57545 0.0417849 0
M  V30 800 C 67.4775 -2.09885 -0.92093 0
M  V30 801 C 68.4775 -1.01648 -1.24596 0
M  V30 802 O 69.6675 -1.27759 -1.1842 0
M  V30 803 C 66.7995 -2.57527 -2.23367 0
M  V30 804 H 67.9925 -2.96236 -0.467382 0
M  V30 805 H 65.5455 -1.5493 -0.206467 0
M  V30 806 H 66.2805 -1.74542 -2.73323 0
M  V30 807 H 66.0655 -3.36613 -2.01083 0
M  V30 808 H 67.5555 -2.98201 -2.92346 0
M  V30 809 N 67.9926 0.231505 -1.5589 0
M  V30 810 C 68.9556 1.27028 -1.90779 0
M  V30 811 C 69.9556 1.40308 -0.785507 0
M  V30 812 O 71.1456 1.38744 -1.05336 0
M  V30 813 C 68.2776 2.64566 -2.14983 0
M  V30 814 H 69.4706 0.973017 -2.83677 0
M  V30 815 H 67.0236 0.471486 -1.49019 0
M  V30 816 H 67.7586 2.99406 -1.24604 0
M  V30 817 H 67.5436 2.56305 -2.96732 0
M  V30 818 H 69.0336 3.39543 -2.43105 0
M  V30 819 N 69.4707 1.49531 0.497807 0
M  V30 820 C 70.7477 1.49682 1.25915 0
M  V30 821 C 71.1277 0.226339 2.09883 0
M  V30 822 O 70.4757 -0.791189 2.14365 0
M  V30 823 C 70.6857 2.77755 2.11313 0
M  V30 824 C 72.0337 3.27371 2.70395 0
M  V30 825 O 73.0577 2.78894 2.21578 0
M  V30 826 O 71.9167 4.11808 3.59272 0
M  V30 827 H 69.0107 0.599228 0.56996 0
M  V30 828 H 71.5567 1.61798 0.511816 0
M  V30 829 H 70.3287 3.61713 1.49264 0
M  V30 830 H 69.9517 2.68515 2.93233 0
M  V30 831 N 70.9488 -0.749086 1.3866 0
M  V30 832 C 71.8788 -1.8764 1.38973 0
M  V30 833 C 72.8598 -1.68178 0.255004 0
M  V30 834 O 74.0448 -1.88704 0.458754 0
M  V30 835 C 71.1748 -3.25222 1.21851 0
M  V30 836 C 70.1288 -3.59295 2.32575 0
M  V30 837 C 69.4548 -4.95663 2.00555 0
M  V30 838 C 70.7548 -3.63709 3.7485 0
M  V30 839 H 72.4488 -1.87635 2.3331 0
M  V30 840 H 69.9948 -0.901329 1.12303 0
M  V30 841 H 71.9478 -4.03746 1.20695 0
M  V30 842 H 70.6718 -3.25719 0.239775 0
M  V30 843 H 69.3308 -2.83093 2.32925 0
M  V30 844 H 68.9788 -4.92724 1.01154 0
M  V30 845 H 68.6788 -5.19429 2.74714 0
M  V30 846 H 70.2028 -5.7656 2.01024 0
M  V30 847 H 71.6168 -4.32338 3.76506 0
M  V30 848 H 70.0138 -3.98986 4.48252 0
M  V30 849 H 71.0838 -2.63834 4.06841 0
M  V30 850 N 72.4269 -1.23603 -0.977757 0
M  V30 851 C 73.6669 -1.08148 -1.73446 0
M  V30 852 C 74.0309 0.374785 -1.88307 0
M  V30 853 O 75.2319 0.650588 -2.60808 0
M  V30 854 C 73.5029 -1.78991 -3.0935 0
M  V30 855 S 75.0619 -1.79141 -4.00567 0
M  V30 856 H 71.8799 -0.386987 -0.596458 0
M  V30 857 H 74.4819 -1.5678 -1.16792 0
M  V30 858 H 73.1859 -2.8408 -2.96187 0
M  V30 859 H 72.7169 -1.30651 -3.71071 0
M  V30 860 H 74.7319 -0.851892 -4.88833 0
M  V30 861 N 73.905 1.17692 -1.04816 0
M  V30 862 C 74.852 2.21581 -0.645797 0
M  V30 863 C 75.822 1.62367 0.350159 0
M  V30 864 O 77.007 1.89254 0.242433 0
M  V30 865 C 74.147 3.45092 -0.0227568 0
M  V30 866 C 73.26 4.18613 -1.06709 0
M  V30 867 C 72.395 5.29602 -0.411767 0
M  V30 868 C 71.434 5.94904 -1.44067 0
M  V30 869 N 70.571 6.97414 -0.809781 0
M  V30 870 H 75.411 2.55353 -1.5362 0
M  V30 871 H 72.948 1.25438 -0.768364 0
M  V30 872 H 74.906 4.15679 0.35588 0
M  V30 873 H 73.536 3.11917 0.831122 0
M  V30 874 H 72.588 3.46779 -1.5636 0
M  V30 875 H 73.9 4.63293 -1.84827 0
M  V30 876 H 73.054 6.06696 0.0206623 0
M  V30 877 H 71.793 4.86045 0.401438 0
M  V30 878 H 70.798 5.16544 -1.88316 0
M  V30 879 H 72.023 6.40542 -2.25571 0
M  V30 880 H 69.969 6.55998 -0.0170186 0
M  V30 881 H 69.886 7.40386 -1.52856 0
M  V30 882 H 71.154 7.78463 -0.401999 0
M  V30 883 N 75.3831 0.828654 1.34056 0
M  V30 884 C 76.6081 0.431637 2.02859 0
M  V30 885 C 77.0331 -0.956339 1.61975 0
M  V30 886 O 76.3911 -1.62338 0.807228 0
M  V30 887 C 76.4391 0.548323 3.56407 0
M  V30 888 O 75.5431 -0.429556 4.10157 0
M  V30 889 H 74.8841 0.176886 0.640006 0
M  V30 890 H 77.4141 1.12066 1.71179 0
M  V30 891 H 77.4241 0.426196 4.05768 0
M  V30 892 H 76.0991 1.5606 3.8551 0
M  V30 893 H 74.6761 -0.265836 3.71951 0
M  V30 894 N 76.8612 -1.46375 0.584142 0
M  V30 895 C 77.7712 -2.34115 -0.150728 0
M  V30 896 C 78.7872 -1.49838 -0.884567 0
M  V30 897 O 79.9632 -1.82704 -0.847429 0
M  V30 898 C 77.0282 -3.2705 -1.15062 0
M  V30 899 C 76.0892 -4.27228 -0.421293 0
M  V30 900 C 75.3222 -5.15722 -1.37355 0
M  V30 901 O 75.5452 -5.07176 -2.61014 0
M  V30 902 O 74.4792 -5.95383 -0.883355 0
M  V30 903 H 78.3052 -2.98309 0.569708 0
M  V30 904 H 75.8902 -1.45373 0.344535 0
M  V30 905 H 77.7722 -3.84381 -1.72712 0
M  V30 906 H 76.4472 -2.65451 -1.8525 0
M  V30 907 H 75.3542 -3.7358 0.197085 0
M  V30 908 H 76.6872 -4.91616 0.239641 0
M  V30 909 N 78.3393 -0.321999 -1.54275 0
M  V30 910 C 79.5863 0.281044 -2.0054 0
M  V30 911 C 79.9143 1.52265 -1.21019 0
M  V30 912 O 79.1693 1.93687 -0.279982 0
M  V30 913 C 79.4683 0.661769 -3.5122 0
M  V30 914 C 79.1343 -0.480482 -4.48333 0
M  V30 915 C 77.7963 -0.794005 -4.74604 0
M  V30 916 C 80.1483 -1.24783 -5.06042 0
M  V30 917 C 77.4763 -1.87763 -5.55844 0
M  V30 918 C 79.8283 -2.32153 -5.88462 0
M  V30 919 C 78.4923 -2.64089 -6.13036 0
M  V30 920 H 77.7623 0.102841 -0.733829 0
M  V30 921 H 80.4093 -0.445453 -1.86247 0
M  V30 922 H 78.7143 1.46867 -3.63232 0
M  V30 923 H 80.4113 1.13989 -3.84457 0
M  V30 924 H 77.0013 -0.226039 -4.28004 0
M  V30 925 H 81.1853 -1.01887 -4.85729 0
M  V30 926 H 76.4413 -2.12954 -5.73115 0
M  V30 927 H 80.6153 -2.92057 -6.32199 0
M  V30 928 H 78.2423 -3.48185 -6.75775 0
M  V30 929 N 79.8174 1.5752 -0.0501392 0
M  V30 930 C 80.7654 2.12651 0.942459 0
M  V30 931 C 81.7594 1.05807 1.32292 0
M  V30 932 O 82.9654 1.24217 1.3027 0
M  V30 933 H 79.3404 0.679673 0.321789 0
M  V30 934 H 81.3114 2.94951 0.452356 0
M  V30 935 C 80.0604 2.68565 2.20836 0
M  V30 936 H 79.3834 3.50439 1.92439 0
M  V30 937 H 80.8234 3.10761 2.8845 0
M  V30 938 C 79.2824 1.62291 2.95234 0
M  V30 939 O 79.8124 1.03508 3.88135 0
M  V30 940 N 78.0184 1.33836 2.57946 0
M  V30 941 H 77.5654 1.81826 1.82475 0
M  V30 942 H 77.5234 0.629595 3.08032 0
M  V30 943 N 81.2955 -0.223234 1.56011 0
M  V30 944 C 82.5415 -0.949279 1.79211 0
M  V30 945 C 82.8745 -1.84054 0.619494 0
M  V30 946 O 82.1495 -1.90726 -0.381317 0
M  V30 947 C 82.4325 -1.78965 3.12479 0
M  V30 948 C 82.2855 -0.924997 4.40186 0
M  V30 949 C 83.6045 -2.76774 3.42175 0
M  V30 950 H 80.7235 -0.343676 0.651963 0
M  V30 951 H 83.3655 -0.218253 1.88742 0
M  V30 952 H 81.5155 -2.41291 3.04485 0
M  V30 953 H 83.1875 -0.318615 4.60198 0
M  V30 954 H 81.4305 -0.230344 4.33188 0
M  V30 955 H 82.1015 -1.54735 5.29869 0
M  V30 956 H 84.5775 -2.24584 3.50287 0
M  V30 957 H 83.4535 -3.32678 4.36597 0
M  V30 958 H 83.7145 -3.54429 2.64258 0
M  V30 959 N 82.7736 -1.49793 -0.48987 0
M  V30 960 C 84.0036 -1.6333 -1.26518 0
M  V30 961 C 84.4116 -0.308392 -1.8667 0
M  V30 962 O 83.7546 0.717512 -1.69108 0
M  V30 963 C 83.8166 -2.6522 -2.4269 0
M  V30 964 C 83.4806 -4.09279 -2.03321 0
M  V30 965 C 84.4776 -4.95738 -1.56652 0
M  V30 966 C 82.1626 -4.55082 -2.12616 0
M  V30 967 C 84.1566 -6.26041 -1.19795 0
M  V30 968 C 81.8436 -5.85396 -1.75371 0
M  V30 969 C 82.8416 -6.707 -1.29036 0
M  V30 970 O 82.5296 -7.98584 -0.92299 0
M  V30 971 H 82.2616 -0.552502 -0.389509 0
M  V30 972 H 84.8156 -1.96642 -0.593381 0
M  V30 973 H 83.0456 -2.27112 -3.12981 0
M  V30 974 H 84.7346 -2.68171 -3.04695 0
M  V30 975 H 85.5006 -4.61575 -1.48908 0
M  V30 976 H 81.3796 -3.88844 -2.47631 0
M  V30 977 H 84.9236 -6.92578 -0.835582 0
M  V30 978 H 80.8206 -6.19085 -1.82768 0
M  V30 979 H 81.5886 -8.11692 -1.05349 0
M  V30 980 N 84.2517 0.741722 -1.39055 0
M  V30 981 C 85.4767 1.53607 -1.39354 0
M  V30 982 C 85.9017 1.88096 0.0116905 0
M  V30 983 O 85.2597 1.5143 0.996924 0
M  V30 984 C 85.3077 2.80441 -2.26682 0
M  V30 985 O 84.4117 3.76088 -1.69208 0
M  V30 986 H 83.7527 0.464142 -0.474835 0
M  V30 987 H 86.2827 0.915665 -1.82967 0
M  V30 988 H 86.2927 3.29246 -2.40959 0
M  V30 989 H 84.9677 2.5467 -3.2881 0
M  V30 990 H 83.5447 3.34833 -1.64138 0
M  V30 991 N 85.7298 1.2412 0.971189 0
M  V30 992 C 86.6618 0.988349 2.06795 0
M  V30 993 C 87.6748 -0.0409541 1.62748 0
M  V30 994 O 88.8638 0.195673 1.77424 0
M  V30 995 C 85.9638 0.469023 3.35639 0
M  V30 996 C 85.1368 1.56065 4.08611 0
M  V30 997 C 84.1958 1.04458 5.15728 0
M  V30 998 O 83.2218 1.73553 5.42096 0
M  V30 999 N 84.4238 -0.122817 5.8037 0
M  V30 1000 H 87.1888 1.93265 2.29061 0
M  V30 1001 H 84.7498 1.15102 1.13856 0
M  V30 1002 H 86.7418 0.108613 4.04554 0
M  V30 1003 H 85.3118 -0.380919 3.1027 0
M  V30 1004 H 84.5318 2.09341 3.34021 0
M  V30 1005 H 85.8198 2.29449 4.54126 0
M  V30 1006 H 85.2178 -0.700563 5.61345 0
M  V30 1007 H 83.7748 -0.424404 6.50417 0
M  V30 1008 N 87.2079 -1.17134 1.05439 0
M  V30 1009 C 88.1179 -2.24878 0.668365 0
M  V30 1010 C 89.1339 -1.71186 -0.311687 0
M  V30 1011 O 90.3099 -2.00738 -0.163161 0
M  V30 1012 C 87.3749 -3.46662 0.051648 0
M  V30 1013 C 86.4359 -4.15429 1.08246 0
M  V30 1014 C 85.6689 -5.31399 0.495082 0
M  V30 1015 O 85.8919 -5.66153 -0.694743 0
M  V30 1016 O 84.8259 -5.89187 1.23056 0
M  V30 1017 H 88.6519 -2.60189 1.56637 0
M  V30 1018 H 86.2369 -1.24482 0.826104 0
M  V30 1019 H 88.1189 -4.20394 -0.290966 0
M  V30 1020 H 86.7939 -3.13142 -0.819971 0
M  V30 1021 H 85.7009 -3.43704 1.47711 0
M  V30 1022 H 87.0339 -4.52982 1.92532 0
M  V30 1023 N 88.686 -0.835752 -1.33615 0
M  V30 1024 C 89.932 -0.430596 -1.98176 0
M  V30 1025 C 90.265 1.00684 -1.66061 0
M  V30 1026 O 89.54 1.70339 -0.938877 0
M  V30 1027 C 89.823 -0.648065 -3.5422 0
M  V30 1028 C 89.676 -2.13255 -3.96033 0
M  V30 1029 C 90.995 -0.0922113 -4.40003 0
M  V30 1030 H 88.114 -0.157924 -0.719881 0
M  V30 1031 H 90.756 -1.05069 -1.58305 0
M  V30 1032 H 88.906 -0.120237 -3.88314 0
M  V30 1033 H 90.578 -2.725 -3.72211 0
M  V30 1034 H 88.821 -2.61823 -3.45878 0
M  V30 1035 H 89.492 -2.23547 -5.04708 0
M  V30 1036 H 91.968 -0.543343 -4.12537 0
M  V30 1037 H 90.844 -0.274083 -5.48215 0
M  V30 1038 H 91.105 1.00378 -4.30554 0
M  V30 1039 N 90.1641 1.46063 -0.591896 0
M  V30 1040 C 91.4131 2.01547 -0.0786637 0
M  V30 1041 C 91.7261 1.46796 1.29268 0
M  V30 1042 O 92.9321 1.94157 1.89777 0
M  V30 1043 C 91.3881 3.59787 -0.0900024 0
M  V30 1044 C 90.9961 4.23534 -1.46023 0
M  V30 1045 C 92.7401 4.22895 0.368806 0
M  V30 1046 C 90.6471 5.73881 -1.4288 0
M  V30 1047 H 89.5771 0.753564 -0.0256388 0
M  V30 1048 H 92.2281 1.677 -0.744905 0
M  V30 1049 H 90.6101 3.90752 0.642586 0
M  V30 1050 H 91.7841 4.04167 -2.21328 0
M  V30 1051 H 90.0991 3.72558 -1.85982 0
M  V30 1052 H 92.6961 5.33116 0.411258 0
M  V30 1053 H 93.0391 3.9247 1.38827 0
M  V30 1054 H 93.5721 3.9659 -0.31001 0
M  V30 1055 H 90.3111 6.0898 -2.42536 0
M  V30 1056 H 89.8311 5.95486 -0.718095 0
M  V30 1057 H 91.5101 6.36776 -1.14565 0
M  V30 1058 N 91.6422 0.330177 1.54103 0
M  V30 1059 C 92.8702 -0.272179 2.05102 0
M  V30 1060 C 93.2852 -1.45267 1.20595 0
M  V30 1061 O 92.6422 -1.8094 0.238144 0
M  V30 1062 C 92.6932 -0.70023 3.54653 0
M  V30 1063 O 92.4142 0.433301 4.35952 0
M  V30 1064 C 93.9152 -1.3647 4.21771 0
M  V30 1065 H 91.1352 -0.0549159 0.668749 0
M  V30 1066 H 93.6792 0.478285 1.98828 0
M  V30 1067 H 91.8342 -1.40066 3.61193 0
M  V30 1068 H 92.2482 0.0947539 5.24414 0
M  V30 1069 H 93.7222 -1.61509 5.27843 0
M  V30 1070 H 94.1992 -2.31409 3.73292 0
M  V30 1071 H 94.8052 -0.706675 4.19388 0
M  V30 1072 N 93.1203 -1.57491 0.0584922 0
M  V30 1073 C 94.3663 -1.93264 -0.614558 0
M  V30 1074 C 94.6993 -0.937717 -1.7006 0
M  V30 1075 O 93.9743 0.0351652 -1.94468 0
M  V30 1076 C 94.2573 -3.3938 -1.20386 0
M  V30 1077 C 94.1103 -4.49625 -0.125375 0
M  V30 1078 C 95.4293 -3.86039 -2.11334 0
M  V30 1079 H 92.5483 -0.702791 -0.221933 0
M  V30 1080 H 95.1903 -1.8961 0.12175 0
M  V30 1081 H 93.3403 -3.42626 -1.83139 0
M  V30 1082 H 95.0123 -4.58506 0.506971 0
M  V30 1083 H 93.2553 -4.30354 0.545672 0
M  V30 1084 H 93.9263 -5.48967 -0.577861 0
M  V30 1085 H 96.4023 -3.84716 -1.58534 0
M  V30 1086 H 95.2783 -4.88914 -2.49507 0
M  V30 1087 H 95.5393 -3.23215 -3.01636 0
M  V30 1088 N 94.5984 0.214957 -1.56127 0
M  V30 1089 C 95.5284 1.2695 -1.95974 0
M  V30 1090 C 96.5094 1.48539 -0.828868 0
M  V30 1091 O 97.6944 1.60611 -1.09168 0
M  V30 1092 C 94.8244 2.61794 -2.28214 0
M  V30 1093 C 93.7784 2.54851 -3.43853 0
M  V30 1094 C 93.1044 3.93785 -3.61715 0
M  V30 1095 C 94.4044 2.09065 -4.78632 0
M  V30 1096 H 96.0984 0.93846 -2.84312 0
M  V30 1097 H 93.6444 0.449996 -1.36788 0
M  V30 1098 H 95.5974 3.35731 -2.54682 0
M  V30 1099 H 94.3214 2.96599 -1.36736 0
M  V30 1100 H 92.9804 1.8337 -3.17444 0
M  V30 1101 H 92.6284 4.25908 -2.67602 0
M  V30 1102 H 92.3284 3.90019 -4.39498 0
M  V30 1103 H 93.8524 4.69374 -3.90539 0
M  V30 1104 H 95.2664 2.7275 -5.04262 0
M  V30 1105 H 93.6634 2.16346 -5.59745 0
M  V30 1106 H 94.7334 1.04315 -4.73547 0
M  V30 1107 N 96.0765 1.50051 0.48192 0
M  V30 1108 C 97.3245 1.60181 1.23234 0
M  V30 1109 C 97.6455 0.299176 1.92691 0
M  V30 1110 O 96.9155 -0.682708 1.83619 0
M  V30 1111 H 95.4955 0.590232 0.457859 0
M  V30 1112 H 98.1575 1.86775 0.556881 0
M  V30 1113 H 97.2535 2.40753 1.98607 0
M  V30 1114 N 97.5546 -0.734337 1.39446 0
M  V30 1115 C 98.4646 -1.87879 1.40495 0
M  V30 1116 C 99.4806 -1.714 0.299672 0
M  V30 1117 O 100.657 -1.93991 0.541249 0
M  V30 1118 C 97.7216 -3.23477 1.24754 0
M  V30 1119 C 96.7826 -3.52344 2.45259 0
M  V30 1120 C 96.0156 -4.81473 2.30259 0
M  V30 1121 O 96.2386 -5.55237 1.30643 0
M  V30 1122 O 95.1726 -5.10254 3.19256 0
M  V30 1123 H 98.9986 -1.89949 2.36966 0
M  V30 1124 H 96.5836 -0.882243 1.20569 0
M  V30 1125 H 98.4656 -4.04509 1.18111 0
M  V30 1126 H 97.1406 -3.22176 0.313781 0
M  V30 1127 H 96.0476 -2.71396 2.57478 0
M  V30 1128 H 97.3806 -3.58426 3.37331 0
M  V30 1129 N 99.0327 -1.24633 -0.964593 0
M  V30 1130 C 100.282 -1.08188 -1.7023 0
M  V30 1131 C 100.595 0.37873 -1.91898 0
M  V30 1132 O 101.801 0.663427 -2.6327 0
M  V30 1133 C 100.257 -1.88773 -3.06419 0
M  V30 1134 C 99.8647 -3.39263 -2.92582 0
M  V30 1135 C 101.609 -1.80867 -3.84041 0
M  V30 1136 C 99.5157 -4.1218 -4.24101 0
M  V30 1137 H 98.4457 -0.401245 -0.638372 0
M  V30 1138 H 101.097 -1.48742 -1.07462 0
M  V30 1139 H 99.4787 -1.41035 -3.70034 0
M  V30 1140 H 100.653 -3.94603 -2.37961 0
M  V30 1141 H 98.9677 -3.48154 -2.28424 0
M  V30 1142 H 101.565 -2.32646 -4.81435 0
M  V30 1143 H 101.908 -0.774543 -4.09031 0
M  V30 1144 H 102.441 -2.26301 -3.27159 0
M  V30 1145 H 99.1797 -5.15965 -4.04303 0
M  V30 1146 H 98.6997 -3.61626 -4.78526 0
M  V30 1147 H 100.379 -4.19349 -4.92702 0
M  V30 1148 N 100.511 1.16574 -1.06058 0
M  V30 1149 C 101.788 1.83048 -0.689416 0
M  V30 1150 C 102.168 1.94122 0.829443 0
M  V30 1151 O 101.516 1.48249 1.7388 0
M  V30 1152 C 101.726 3.20186 -1.38859 0
M  V30 1153 C 103.074 3.95989 -1.53226 0
M  V30 1154 O 104.098 3.29696 -1.3483 0
M  V30 1155 O 102.957 5.14813 -1.83384 0
M  V30 1156 H 100.051 0.790258 -0.243764 0
M  V30 1157 H 102.597 1.23797 -1.16071 0
M  V30 1158 H 101.369 3.07146 -2.4244 0
M  V30 1159 H 100.992 3.87112 -0.907216 0
M  V30 1160 N 101.989 0.842826 1.3317 0
M  V30 1161 C 103.236 0.440447 1.97652 0
M  V30 1162 C 103.564 -1.00123 1.6675 0
M  V30 1163 O 102.819 -1.7155 0.941761 0
M  V30 1164 C 103.118 0.612607 3.52111 0
M  V30 1165 C 102.784 2.02297 4.02972 0
M  V30 1166 C 101.446 2.40874 4.16573 0
M  V30 1167 C 103.798 2.94402 4.30089 0
M  V30 1168 C 101.126 3.70852 4.54627 0
M  V30 1169 C 103.478 4.23865 4.69597 0
M  V30 1170 C 102.142 4.62392 4.81404 0
M  V30 1171 H 101.412 0.161171 0.72326 0
M  V30 1172 H 104.059 1.07061 1.58777 0
M  V30 1173 H 102.364 -0.100849 3.9167 0
M  V30 1174 H 104.061 0.2815 4.00011 0
M  V30 1175 H 100.651 1.71338 3.92863 0
M  V30 1176 H 104.835 2.65835 4.19101 0
M  V30 1177 H 100.091 4.00501 4.61962 0
M  V30 1178 H 104.265 4.95306 4.89536 0
M  V30 1179 H 101.892 5.63154 5.10648 0
M  V30 1180 N 103.467 -1.45747 0.599634 0
M  V30 1181 C 104.4 -2.27547 -0.172552 0
M  V30 1182 C 105.378 -1.36657 -0.881116 0
M  V30 1183 O 106.562 -1.66081 -0.891595 0
M  V30 1184 C 103.689 -3.14829 -1.24903 0
M  V30 1185 C 102.735 -4.21603 -0.644465 0
M  V30 1186 S 103.568 -5.32754 0.541606 0
M  V30 1187 C 104.724 -6.23604 -0.535656 0
M  V30 1188 H 104.957 -2.92691 0.521468 0
M  V30 1189 H 102.49 -1.49473 0.386947 0
M  V30 1190 H 104.448 -3.65675 -1.86527 0
M  V30 1191 H 103.109 -2.48965 -1.91508 0
M  V30 1192 H 102.302 -4.82566 -1.45417 0
M  V30 1193 H 101.904 -3.73857 -0.103534 0
M  V30 1194 H 104.196 -6.62519 -1.41686 0
M  V30 1195 H 105.139 -7.0809 0.0376246 0
M  V30 1196 H 105.547 -5.58103 -0.84741 0
M  V30 1197 N 104.945 -0.338344 -1.53925 0
M  V30 1198 C 105.875 0.51328 -2.27789 0
M  V30 1199 C 106.856 1.107 -1.29149 0
M  V30 1200 O 108.041 1.12937 -1.57984 0
M  V30 1201 C 105.171 1.66697 -3.04679 0
M  V30 1202 C 104.125 1.20183 -4.1078 0
M  V30 1203 C 103.451 2.44363 -4.75595 0
M  V30 1204 C 104.751 0.30605 -5.21403 0
M  V30 1205 H 106.445 -0.102883 -2.99223 0
M  V30 1206 H 103.991 -0.0509219 -1.4391 0
M  V30 1207 H 105.944 2.26915 -3.55088 0
M  V30 1208 H 104.668 2.30995 -2.30887 0
M  V30 1209 H 103.327 0.622499 -3.61276 0
M  V30 1210 H 102.975 3.07057 -3.98403 0
M  V30 1211 H 102.675 2.13925 -5.47275 0
M  V30 1212 H 104.199 3.05317 -5.28786 0
M  V30 1213 H 105.613 0.814929 -5.67478 0
M  V30 1214 H 104.01 0.0937929 -6.00027 0
M  V30 1215 H 105.08 -0.65921 -4.80398 0
M  V30 1216 N 106.423 1.57458 -0.0668435 0
M  V30 1217 C 107.333 2.15937 0.916975 0
M  V30 1218 C 108.349 1.12123 1.33058 0
M  V30 1219 O 109.525 1.44366 1.40429 0
M  V30 1220 C 106.59 2.70547 2.16807 0
M  V30 1221 C 105.651 3.89215 1.81135 0
M  V30 1222 C 104.884 4.41211 3.0028 0
M  V30 1223 O 105.107 3.92225 4.14144 0
M  V30 1224 O 104.041 5.32605 2.80384 0
M  V30 1225 H 107.867 3.00354 0.449561 0
M  V30 1226 H 105.452 1.48584 0.155949 0
M  V30 1227 H 107.334 3.0557 2.90181 0
M  V30 1228 H 106.009 1.89192 2.62656 0
M  V30 1229 H 104.916 3.59054 1.05028 0
M  V30 1230 H 106.249 4.71848 1.40073 0
M  V30 1231 N 107.901 -0.206675 1.56239 0
M  V30 1232 C 108.849 -1.27571 1.94495 0
M  V30 1233 C 109.843 -1.47737 0.828862 0
M  V30 1234 O 111.049 -1.48735 1.0138 0
M  V30 1235 H 107.424 -0.428029 0.6183 0
M  V30 1236 H 109.395 -0.925961 2.8367 0
M  V30 1237 C 108.144 -2.61568 2.29079 0
M  V30 1238 H 107.467 -2.46863 3.14482 0
M  V30 1239 H 108.907 -3.35144 2.5972 0
M  V30 1240 C 107.366 -3.17695 1.12123 0
M  V30 1241 O 107.896 -3.99801 0.390153 0
M  V30 1242 N 106.102 -2.76276 0.901097 0
M  V30 1243 H 105.649 -2.09613 1.49733 0
M  V30 1244 H 105.607 -3.1417 0.120319 0
M  V30 1245 N 109.379 -1.50304 -0.473955 0
M  V30 1246 C 110.309 -1.71886 -1.58042 0
M  V30 1247 C 111.29 -0.567799 -1.60344 0
M  V30 1248 O 112.475 -0.806623 -1.76656 0
M  V30 1249 C 109.605 -1.81036 -2.96384 0
M  V30 1250 C 108.559 -2.962 -3.08949 0
M  V30 1251 C 107.885 -2.9049 -4.48909 0
M  V30 1252 C 109.185 -4.36752 -2.86434 0
M  V30 1253 H 110.879 -2.64527 -1.40234 0
M  V30 1254 H 108.425 -1.27295 -0.673201 0
M  V30 1255 H 110.378 -1.94719 -3.73714 0
M  V30 1256 H 109.102 -0.850147 -3.15341 0
M  V30 1257 H 107.761 -2.82164 -2.3405 0
M  V30 1258 H 107.409 -1.92321 -4.64781 0
M  V30 1259 H 107.109 -3.67802 -4.58253 0
M  V30 1260 H 108.633 -3.06218 -5.28264 0
M  V30 1261 H 110.047 -4.5133 -3.53517 0
M  V30 1262 H 108.444 -5.15493 -3.07225 0
M  V30 1263 H 109.514 -4.49321 -1.82316 0
M  V30 1264 N 110.857 0.726932 -1.39834 0
M  V30 1265 C 112.268 1.30558 -1.3346 0
M  V30 1266 C 112.619 1.962 -0.00273003 0
M  V30 1267 O 111.744 1.96826 0.899371 0
M  V30 1268 C 112.339 2.37404 -2.41713 0
M  V30 1269 C 110.898 2.90921 -2.38835 0
M  V30 1270 C 110.045 1.64578 -2.2318 0
M  V30 1271 H 112.996 0.523862 -1.49804 0
M  V30 1272 H 113.017 3.17984 -2.08966 0
M  V30 1273 H 112.529 1.89599 -3.38635 0
M  V30 1274 H 110.63 3.42985 -1.45575 0
M  V30 1275 H 110.743 3.43487 -3.33997 0
M  V30 1276 H 109.107 1.89219 -1.70494 0
M  V30 1277 H 109.89 1.18814 -3.22084 0
M  V30 1278 N 112.336 1.25143 0.95797 0
M  V30 1279 C 113.246 1.06968 2.08794 0
M  V30 1280 C 114.262 0.00773911 1.73998 0
M  V30 1281 O 115.438 0.207972 2.00323 0
M  V30 1282 C 112.503 0.68691 3.39827 0
M  V30 1283 C 111.564 1.82641 3.88511 0
M  V30 1284 C 110.797 1.46181 5.1329 0
M  V30 1285 O 111.02 0.355971 5.69288 0
M  V30 1286 O 109.954 2.29085 5.566 0
M  V30 1287 H 113.78 2.01723 2.27027 0
M  V30 1288 H 111.365 1.04051 1.07209 0
M  V30 1289 H 113.247 0.485417 4.18595 0
M  V30 1290 H 111.922 -0.231417 3.22872 0
M  V30 1291 H 110.829 2.08274 3.10762 0
M  V30 1292 H 112.162 2.72386 4.09959 0
M  V30 1293 N 113.814 -1.1601 1.06675 0
M  V30 1294 C 115.06 -1.87145 0.796766 0
M  V30 1295 C 115.415 -1.8037 -0.669658 0
M  V30 1296 O 114.708 -1.21116 -1.48463 0
M  V30 1297 C 114.902 -3.35547 1.23057 0
M  V30 1298 C 114.731 -3.56769 2.73762 0
M  V30 1299 C 113.501 -3.72635 3.41279 0
M  V30 1300 C 115.699 -3.55166 3.7197 0
M  V30 1301 N 113.681 -3.81845 4.80695 0
M  V30 1302 C 115.052 -3.70406 4.97191 0
M  V30 1303 C 117.107 -3.384 3.65226 0
M  V30 1304 C 115.81 -3.70615 6.16471 0
M  V30 1305 C 117.836 -3.39904 4.83962 0
M  V30 1306 C 117.198 -3.55667 6.08013 0
M  V30 1307 H 113.297 -0.702267 0.344014 0
M  V30 1308 H 115.881 -1.39165 1.36166 0
M  V30 1309 H 114.052 -3.82159 0.693456 0
M  V30 1310 H 115.784 -3.94363 0.908844 0
M  V30 1311 H 112.539 -3.73121 2.91681 0
M  V30 1312 H 112.963 -3.90209 5.53232 0
M  V30 1313 H 117.605 -3.25138 2.70269 0
M  V30 1314 H 115.323 -3.82658 7.11757 0
M  V30 1315 H 118.909 -3.28169 4.80413 0
M  V30 1316 H 117.789 -3.56755 6.98352 0
M  V30 1317 N 115.292 -0.849877 -1.32721 0
M  V30 1318 C 116.538 -0.451591 -1.97708 0
M  V30 1319 C 116.871 0.989175 -1.6712 0
M  V30 1320 O 116.146 1.69334 -0.956891 0
M  V30 1321 C 116.429 -0.685598 -3.53513 0
M  V30 1322 C 116.282 -2.17444 -3.93749 0
M  V30 1323 C 117.601 -0.138874 -4.39881 0
M  V30 1324 H 114.72 -0.16555 -0.718166 0
M  V30 1325 H 117.362 -1.06742 -1.57182 0
M  V30 1326 H 115.512 -0.161416 -3.88165 0
M  V30 1327 H 117.184 -2.76433 -3.693 0
M  V30 1328 H 115.427 -2.65476 -3.43081 0
M  V30 1329 H 116.098 -2.28888 -5.02309 0
M  V30 1330 H 118.574 -0.587068 -4.11938 0
M  V30 1331 H 117.45 -0.332213 -5.47894 0
M  V30 1332 H 117.711 0.95806 -4.31594 0
M  V30 1333 N 116.77 1.45427 -0.607355 0
M  V30 1334 C 117.998 2.06614 -0.108814 0
M  V30 1335 C 118.413 1.45204 1.2067 0
M  V30 1336 O 117.77 0.566132 1.73497 0
M  V30 1337 C 117.821 3.61481 0.0375347 0
M  V30 1338 O 117.542 4.20598 -1.22593 0
M  V30 1339 C 119.043 4.39652 0.567561 0
M  V30 1340 H 116.263 0.66747 -0.0687351 0
M  V30 1341 H 118.807 1.86675 -0.835022 0
M  V30 1342 H 116.962 3.80762 0.714068 0
M  V30 1343 H 117.376 5.1377 -1.05547 0
M  V30 1344 H 118.85 5.48518 0.61905 0
M  V30 1345 H 119.327 4.09417 1.58978 0
M  V30 1346 H 119.933 4.25234 -0.0749202 0
M  V30 1347 N 118.248 0.346503 1.53744 0
M  V30 1348 C 119.211 -0.496439 2.23759 0
M  V30 1349 C 120.211 -1.0252 1.2388 0
M  V30 1350 O 121.401 -0.913974 1.48297 0
M  V30 1351 C 118.533 -1.69187 2.95954 0
M  V30 1352 H 119.726 0.115952 2.99676 0
M  V30 1353 H 117.279 0.0978939 1.55993 0
M  V30 1354 H 118.014 -2.34288 2.24231 0
M  V30 1355 H 117.799 -1.31989 3.69217 0
M  V30 1356 H 119.289 -2.28969 3.49232 0
M  V30 1357 N 119.726 -1.57421 0.075193 0
M  V30 1358 C 120.673 -2.12915 -0.890843 0
M  V30 1359 C 121.643 -1.04252 -1.29309 0
M  V30 1360 O 122.828 -1.31933 -1.37834 0
M  V30 1361 C 119.968 -2.69795 -2.15186 0
M  V30 1362 C 119.081 -3.92624 -1.80194 0
M  V30 1363 C 118.216 -4.37736 -3.00933 0
M  V30 1364 C 117.255 -5.53205 -2.61974 0
M  V30 1365 N 116.392 -5.9326 -3.75483 0
M  V30 1366 H 121.232 -2.95156 -0.410735 0
M  V30 1367 H 118.769 -1.45854 -0.191086 0
M  V30 1368 H 120.727 -3.00883 -2.89008 0
M  V30 1369 H 119.357 -1.90313 -2.60731 0
M  V30 1370 H 118.409 -3.67977 -0.964218 0
M  V30 1371 H 119.721 -4.76482 -1.47534 0
M  V30 1372 H 118.875 -4.70503 -3.8303 0
M  V30 1373 H 117.614 -3.52739 -3.36789 0
M  V30 1374 H 116.619 -5.20086 -1.783 0
M  V30 1375 H 117.844 -6.39936 -2.27284 0
M  V30 1376 H 115.79 -5.11212 -4.11094 0
M  V30 1377 H 115.707 -6.71865 -3.46602 0
M  V30 1378 H 116.975 -6.30651 -4.58148 0
M  V30 1379 N 121.204 0.198386 -1.56346 0
M  V30 1380 C 122.615 0.763358 -1.70381 0
M  V30 1381 C 122.966 1.83995 -0.681203 0
M  V30 1382 O 122.091 2.15785 0.16305 0
M  V30 1383 C 122.686 1.39143 -3.08909 0
M  V30 1384 C 121.245 1.90352 -3.2472 0
M  V30 1385 C 120.392 0.772233 -2.6633 0
M  V30 1386 H 123.343 -0.0266377 -1.58678 0
M  V30 1387 H 123.364 2.26076 -3.06055 0
M  V30 1388 H 122.876 0.607638 -3.83314 0
M  V30 1389 H 120.977 2.71461 -2.55225 0
M  V30 1390 H 121.09 2.06757 -4.3219 0
M  V30 1391 H 119.454 1.18566 -2.2542 0
M  V30 1392 H 120.237 0.00073556 -3.433 0
M  V30 1393 N 122.682 1.50554 0.465978 0
M  V30 1394 C 123.928 1.62038 1.21949 0
M  V30 1395 C 124.261 0.322116 1.9151 0
M  V30 1396 O 123.536 -0.676723 1.82348 0
M  V30 1397 C 123.819 2.80421 2.25912 0
M  V30 1398 C 123.672 4.20144 1.60622 0
M  V30 1399 C 124.991 2.94354 3.27176 0
M  V30 1400 H 122.11 0.589752 0.441998 0
M  V30 1401 H 124.752 1.82956 0.51257 0
M  V30 1402 H 122.902 2.62717 2.86203 0
M  V30 1403 H 124.574 4.49449 1.03889 0
M  V30 1404 H 122.817 4.24165 0.909211 0
M  V30 1405 H 123.488 4.98914 2.36196 0
M  V30 1406 H 125.964 3.10578 2.76913 0
M  V30 1407 H 124.84 3.788 3.97242 0
M  V30 1408 H 125.101 2.05186 3.916 0
M  V30 1409 N 124.16 -0.719506 1.40217 0
M  V30 1410 C 125.107 -1.83359 1.40172 0
M  V30 1411 C 126.077 -1.64065 0.259206 0
M  V30 1412 O 127.262 -1.85254 0.456677 0
M  V30 1413 C 124.402 -3.2103 1.26624 0
M  V30 1414 C 123.515 -3.51923 2.50548 0
M  V30 1415 C 122.65 -4.79079 2.29471 0
M  V30 1416 C 121.689 -5.02863 3.48992 0
M  V30 1417 N 120.826 -6.2123 3.27135 0
M  V30 1418 H 125.666 -1.82733 2.35399 0
M  V30 1419 H 123.203 -0.892688 1.16917 0
M  V30 1420 H 125.161 -4.00524 1.16776 0
M  V30 1421 H 123.791 -3.20895 0.350176 0
M  V30 1422 H 122.843 -2.67014 2.70939 0
M  V30 1423 H 124.155 -3.6541 3.39525 0
M  V30 1424 H 123.309 -5.66582 2.16955 0
M  V30 1425 H 122.048 -4.67794 1.37913 0
M  V30 1426 H 121.053 -4.13816 3.6199 0
M  V30 1427 H 122.278 -5.16023 4.41472 0
M  V30 1428 H 120.224 -6.11204 2.38256 0
M  V30 1429 H 120.141 -6.35375 4.09675 0
M  V30 1430 H 121.409 -7.11532 3.18344 0
M  V30 1431 N 125.638 -1.25649 -0.95132 0
M  V30 1432 C 126.585 -1.06323 -2.04851 0
M  V30 1433 C 127.555 0.0286491 -1.66075 0
M  V30 1434 O 128.74 -0.12917 -1.90362 0
M  V30 1435 C 125.88 -0.691529 -3.381 0
M  V30 1436 C 124.993 -1.85861 -3.89974 0
M  V30 1437 C 124.128 -1.43096 -5.11563 0
M  V30 1438 C 123.167 -2.56696 -5.55674 0
M  V30 1439 N 122.304 -2.14684 -6.68472 0
M  V30 1440 H 127.144 -2.00222 -2.20715 0
M  V30 1441 H 124.681 -0.997027 -1.08156 0
M  V30 1442 H 126.639 -0.456963 -4.1469 0
M  V30 1443 H 125.269 0.210474 -3.22113 0
M  V30 1444 H 124.321 -2.20639 -3.09875 0
M  V30 1445 H 125.633 -2.71161 -4.18657 0
M  V30 1446 H 124.787 -1.15624 -5.9558 0
M  V30 1447 H 123.526 -0.548722 -4.84603 0
M  V30 1448 H 122.531 -2.84909 -4.7022 0
M  V30 1449 H 123.756 -3.45503 -5.8464 0
M  V30 1450 H 121.702 -1.28881 -6.43215 0
M  V30 1451 H 121.619 -2.9353 -6.96689 0
M  V30 1452 H 122.887 -1.90397 -7.5589 0
M  V30 1453 N 127.117 1.15442 -1.07289 0
M  V30 1454 C 128.065 2.22225 -0.686952 0
M  V30 1455 C 129.059 1.66688 0.30193 0
M  V30 1456 O 130.265 1.79236 0.165712 0
M  V30 1457 H 126.64 0.723783 -0.204064 0
M  V30 1458 H 128.611 2.52056 -1.5972 0
M  V30 1459 C 127.36 3.47556 -0.100149 0
M  V30 1460 H 126.683 3.90612 -0.852211 0
M  V30 1461 H 128.123 4.23794 0.132235 0
M  V30 1462 C 126.582 3.16337 1.159 0
M  V30 1463 O 127.112 3.33074 2.24555 0
M  V30 1464 N 125.318 2.70385 1.06491 0
M  V30 1465 H 124.865 2.56966 0.180668 0
M  V30 1466 H 124.823 2.49871 1.90819 0
M  V30 1467 N 128.595 0.856903 1.32268 0
M  V30 1468 C 129.841 0.462069 1.97466 0
M  V30 1469 C 130.174 -0.980298 1.67642 0
M  V30 1470 O 129.449 -1.68824 0.965858 0
M  V30 1471 C 129.732 0.704336 3.53145 0
M  V30 1472 C 129.585 2.19529 3.9259 0
M  V30 1473 C 130.904 0.1622 4.39801 0
M  V30 1474 H 128.023 0.169357 0.717278 0
M  V30 1475 H 130.665 1.07574 1.56614 0
M  V30 1476 H 128.815 0.181999 3.88073 0
M  V30 1477 H 130.487 2.78387 3.67829 0
M  V30 1478 H 128.73 2.67292 3.41668 0
M  V30 1479 H 129.401 2.31549 5.01088 0
M  V30 1480 H 131.877 0.608905 4.11621 0
M  V30 1481 H 130.753 0.361265 5.4771 0
M  V30 1482 H 131.014 -0.935158 4.32096 0
M  V30 1483 N 130.073 -1.45103 0.615059 0
M  V30 1484 C 131.003 -2.33339 -0.0865619 0
M  V30 1485 C 131.984 -1.4727 -0.851209 0
M  V30 1486 O 133.169 -1.76026 -0.820281 0
M  V30 1487 C 130.299 -3.30095 -1.07956 0
M  V30 1488 C 129.253 -4.25858 -0.427628 0
M  V30 1489 C 128.579 -5.12361 -1.5294 0
M  V30 1490 C 129.879 -5.18165 0.655944 0
M  V30 1491 H 131.573 -2.92254 0.650224 0
M  V30 1492 H 129.119 -1.40532 0.314138 0
M  V30 1493 H 131.072 -3.90698 -1.57901 0
M  V30 1494 H 129.796 -2.69355 -1.84703 0
M  V30 1495 H 128.455 -3.66564 0.0510292 0
M  V30 1496 H 128.103 -4.47984 -2.28734 0
M  V30 1497 H 127.803 -5.77238 -1.09865 0
M  V30 1498 H 129.327 -5.75833 -2.03098 0
M  V30 1499 H 130.741 -5.72796 0.240257 0
M  V30 1500 H 129.138 -5.91559 1.00888 0
M  V30 1501 H 130.208 -4.60144 1.52957 0
M  V30 1502 N 131.551 -0.354651 -1.53558 0
M  V30 1503 C 132.779 0.239515 -2.05509 0
M  V30 1504 C 133.194 1.4333 -1.2289 0
M  V30 1505 O 132.551 1.80538 -0.266899 0
M  V30 1506 C 132.602 0.643719 -3.55723 0
M  V30 1507 O 132.323 -0.502602 -4.35207 0
M  V30 1508 C 133.824 1.29743 -4.23889 0
M  V30 1509 H 131.044 0.0442697 -0.669538 0
M  V30 1510 H 133.588 -0.509856 -1.98042 0
M  V30 1511 H 131.743 1.34302 -3.63376 0
M  V30 1512 H 132.157 -0.178172 -5.24197 0
M  V30 1513 H 133.631 1.53091 -5.30346 0
M  V30 1514 H 134.108 2.25441 -3.76926 0
M  V30 1515 H 134.714 0.639865 -4.20459 0
M  V30 1516 N 133.029 1.57378 -0.0835403 0
M  V30 1517 C 133.962 2.09016 0.915833 0
M  V30 1518 C 134.94 0.997993 1.2837 0
M  V30 1519 O 136.124 1.27219 1.39096 0
M  V30 1520 C 133.251 2.55757 2.22049 0
M  V30 1521 C 132.297 3.76522 2.00333 0
M  V30 1522 S 133.13 5.20661 1.25191 0
M  V30 1523 C 134.286 5.70743 2.56912 0
M  V30 1524 H 134.519 2.93457 0.476492 0
M  V30 1525 H 132.052 1.53856 0.129493 0
M  V30 1526 H 134.01 2.83346 2.97027 0
M  V30 1527 H 132.671 1.71564 2.63106 0
M  V30 1528 H 131.864 4.07256 2.96916 0
M  V30 1529 H 131.466 3.49367 1.33488 0
M  V30 1530 H 133.758 5.78304 3.52946 0
M  V30 1531 H 134.701 6.6944 2.30772 0
M  V30 1532 H 135.109 4.98616 2.64655 0
M  V30 1533 N 134.507 -0.190092 1.56449 0
M  V30 1534 C 135.437 -1.23816 1.97969 0
M  V30 1535 C 136.418 -1.47201 0.852395 0
M  V30 1536 O 137.603 -1.58854 1.1171 0
M  V30 1537 C 134.733 -2.5813 2.3235 0
M  V30 1538 C 133.687 -2.49348 3.47864 0
M  V30 1539 C 133.013 -3.8798 3.67934 0
M  V30 1540 C 134.313 -2.01424 4.81898 0
M  V30 1541 H 136.007 -0.89311 2.85769 0
M  V30 1542 H 133.553 -0.428177 1.37487 0
M  V30 1543 H 135.506 -3.31637 2.59991 0
M  V30 1544 H 134.23 -2.94386 1.41438 0
M  V30 1545 H 132.889 -1.78297 3.20321 0
M  V30 1546 H 132.537 -4.21597 2.74344 0
M  V30 1547 H 132.237 -3.82978 4.45648 0
M  V30 1548 H 133.761 -4.63101 3.97957 0
M  V30 1549 H 135.175 -2.64693 5.08538 0
M  V30 1550 H 133.572 -2.07413 5.63116 0
M  V30 1551 H 134.642 -0.967677 4.75146 0
M  V30 1552 N 135.985 -1.50799 -0.457987 0
M  V30 1553 C 137.262 -1.52968 -1.21902 0
M  V30 1554 C 137.642 -0.281906 -2.09209 0
M  V30 1555 O 136.99 0.734076 -2.16388 0
M  V30 1556 C 137.2 -2.8326 -2.03875 0
M  V30 1557 C 138.548 -3.34425 -2.6162 0
M  V30 1558 O 139.572 -2.8467 -2.14106 0
M  V30 1559 O 138.431 -4.21188 -3.48228 0
M  V30 1560 H 135.525 -0.614129 -0.553873 0
M  V30 1561 H 138.071 -1.63098 -0.468739 0
M  V30 1562 H 136.843 -3.65543 -1.39621 0
M  V30 1563 H 136.466 -2.76195 -2.8601 0
M  V30 1564 N 137.463 0.71206 -1.40597 0
M  V30 1565 C 138.373 1.8562 -1.43466 0
M  V30 1566 C 139.389 1.70902 -0.326902 0
M  V30 1567 O 140.565 1.93105 -0.572043 0
M  V30 1568 C 137.63 3.21451 -1.29884 0
M  V30 1569 C 136.691 3.48398 -2.50833 0
M  V30 1570 C 135.924 4.77749 -2.3789 0
M  V30 1571 O 136.147 5.53089 -1.39459 0
M  V30 1572 O 135.081 5.05111 -3.27333 0
M  V30 1573 H 138.907 1.86155 -2.39958 0
M  V30 1574 H 136.492 0.86295 -1.21957 0
M  V30 1575 H 138.374 4.02579 -1.24531 0
M  V30 1576 H 137.049 3.21636 -0.364997 0
M  V30 1577 H 135.956 2.67265 -2.61763 0
M  V30 1578 H 137.289 3.53014 -3.4299 0
M  V30 1579 N 138.941 1.26152 0.944643 0
M  V30 1580 C 139.904 1.07474 2.0244 0
M  V30 1581 C 140.904 0.0242064 1.60782 0
M  V30 1582 O 142.094 0.267302 1.72137 0
M  V30 1583 C 139.226 0.633956 3.34953 0
M  V30 1584 H 140.419 2.03336 2.20442 0
M  V30 1585 H 137.972 1.087 1.12312 0
M  V30 1586 H 138.707 -0.326811 3.22649 0
M  V30 1587 H 138.492 1.39247 3.66542 0
M  V30 1588 H 139.982 0.52501 4.14287 0
M  V30 1589 N 140.419 -1.14872 1.07899 0
M  V30 1590 C 141.649 -1.89386 0.825631 0
M  V30 1591 C 142.057 -1.78565 -0.625406 0
M  V30 1592 O 141.4 -1.13918 -1.44113 0
M  V30 1593 C 141.462 -3.40206 1.16191 0
M  V30 1594 C 141.126 -3.74812 2.61467 0
M  V30 1595 C 142.123 -3.75367 3.59716 0
M  V30 1596 C 139.808 -4.0495 2.97189 0
M  V30 1597 C 141.802 -4.05574 4.9172 0
M  V30 1598 C 139.489 -4.34821 4.29388 0
M  V30 1599 C 140.487 -4.35116 5.26463 0
M  V30 1600 O 140.175 -4.64267 6.56286 0
M  V30 1601 H 139.907 -0.606894 0.297751 0
M  V30 1602 H 142.461 -1.46438 1.44031 0
M  V30 1603 H 140.691 -3.8358 0.490214 0
M  V30 1604 H 142.38 -3.96018 0.890193 0
M  V30 1605 H 143.146 -3.52176 3.33462 0
M  V30 1606 H 139.025 -4.03876 2.22273 0
M  V30 1607 H 142.569 -4.05719 5.67484 0
M  V30 1608 H 138.466 -4.5748 4.55392 0
M  V30 1609 H 139.234 -4.82007 6.61522 0
M  V30 1610 N 141.898 -0.863906 -1.31812 0
M  V30 1611 C 143.147 -0.46801 -1.96195 0
M  V30 1612 C 143.46 0.983474 -1.69077 0
M  V30 1613 O 144.666 1.48523 -2.27273 0
M  V30 1614 C 143.122 -0.785995 -3.51212 0
M  V30 1615 C 142.73 -2.25383 -3.87178 0
M  V30 1616 C 144.474 -0.458274 -4.22019 0
M  V30 1617 C 142.381 -2.51455 -5.3528 0
M  V30 1618 H 141.311 -0.171283 -0.734287 0
M  V30 1619 H 143.962 -1.05597 -1.50072 0
M  V30 1620 H 142.344 -0.127359 -3.95795 0
M  V30 1621 H 143.518 -2.95502 -3.53575 0
M  V30 1622 H 141.833 -2.54698 -3.2942 0
M  V30 1623 H 144.43 -0.630369 -5.30971 0
M  V30 1624 H 144.773 0.600834 -4.11941 0
M  V30 1625 H 145.306 -1.07319 -3.8305 0
M  V30 1626 H 142.045 -3.56025 -5.50387 0
M  V30 1627 H 141.565 -1.85923 -5.70257 0
M  V30 1628 H 143.244 -2.35874 -6.02472 0
M  V30 1629 N 143.376 1.44774 -0.622745 0
M  V30 1630 C 144.308 2.28856 0.125485 0
M  V30 1631 C 145.321 1.40811 0.817069 0
M  V30 1632 O 146.51 1.65044 0.679918 0
M  V30 1633 C 143.61 3.16963 1.19949 0
M  V30 1634 C 142.783 4.33374 0.592064 0
M  V30 1635 C 141.842 5.02577 1.55893 0
M  V30 1636 O 140.868 5.58873 1.07933 0
M  V30 1637 N 142.07 5.03256 2.89334 0
M  V30 1638 H 144.835 2.93713 -0.596068 0
M  V30 1639 H 142.396 1.55129 -0.463303 0
M  V30 1640 H 144.388 3.60123 1.84644 0
M  V30 1641 H 142.958 2.53913 1.82337 0
M  V30 1642 H 142.178 3.93509 -0.233322 0
M  V30 1643 H 143.466 5.08527 0.166738 0
M  V30 1644 H 142.864 4.58836 3.30887 0
M  V30 1645 H 141.421 5.50232 3.49412 0
M  V30 1646 N 144.854 0.36279 1.53368 0
M  V30 1647 C 146.265 -0.117022 1.86333 0
M  V30 1648 C 146.616 -1.48397 1.28347 0
M  V30 1649 O 145.741 -2.07787 0.604428 0
M  V30 1650 C 146.336 -0.21912 3.38091 0
M  V30 1651 C 144.895 -0.643184 3.70864 0
M  V30 1652 C 144.042 0.211318 2.76494 0
M  V30 1653 H 146.993 0.581687 1.47655 0
M  V30 1654 H 147.014 -1.04319 3.6592 0
M  V30 1655 H 146.526 0.775902 3.80265 0
M  V30 1656 H 144.627 -1.64654 3.34245 0
M  V30 1657 H 144.74 -0.41973 4.77258 0
M  V30 1658 H 143.104 -0.319367 2.5269 0
M  V30 1659 H 143.887 1.20383 3.21501 0
M  V30 1660 N 146.332 -1.57332 0.0918853 0
M  V30 1661 C 147.264 -2.10869 -0.898168 0
M  V30 1662 C 148.277 -1.04521 -1.24817 0
M  V30 1663 O 149.466 -1.31977 -1.20184 0
M  V30 1664 C 146.566 -2.57083 -2.2082 0
M  V30 1665 C 145.739 -3.87229 -2.03402 0
M  V30 1666 C 144.798 -4.19324 -3.17889 0
M  V30 1667 O 143.824 -4.88598 -2.91994 0
M  V30 1668 N 145.026 -3.74471 -4.43567 0
M  V30 1669 H 147.791 -2.96439 -0.440943 0
M  V30 1670 H 145.352 -1.61631 -0.0933064 0
M  V30 1671 H 147.344 -2.75602 -2.96354 0
M  V30 1672 H 145.914 -1.76541 -2.57977 0
M  V30 1673 H 145.134 -3.7789 -1.12218 0
M  V30 1674 H 146.422 -4.72379 -1.89038 0
M  V30 1675 H 145.82 -3.18546 -4.67488 0
M  V30 1676 H 144.377 -3.98151 -5.16061 0
M  V30 1677 N 147.81 0.181792 -1.56548 0
M  V30 1678 C 149.221 0.745244 -1.71181 0
M  V30 1679 C 149.572 1.83262 -0.70068 0
M  V30 1680 O 148.697 2.15946 0.140154 0
M  V30 1681 C 149.292 1.35859 -3.10367 0
M  V30 1682 C 147.851 1.86898 -3.2672 0
M  V30 1683 C 146.998 0.743942 -2.67134 0
M  V30 1684 H 149.949 -0.0434661 -1.5864 0
M  V30 1685 H 149.97 2.22817 -3.08436 0
M  V30 1686 H 149.482 0.566948 -3.83937 0
M  V30 1687 H 147.583 2.68738 -2.5809 0
M  V30 1688 H 147.696 2.02162 -4.34359 0
M  V30 1689 H 146.06 1.16169 -2.26665 0
M  V30 1690 H 146.843 -0.035676 -3.43281 0
M  V30 1691 N 149.288 1.51039 0.449983 0
M  V30 1692 C 150.218 1.74379 1.55288 0
M  V30 1693 C 151.199 0.593236 1.5942 0
M  V30 1694 O 152.384 0.834625 1.7535 0
M  V30 1695 C 149.514 1.85728 2.93466 0
M  V30 1696 C 148.468 3.01078 3.04197 0
M  V30 1697 C 147.794 2.97595 4.44231 0
M  V30 1698 C 149.094 4.41254 2.7945 0
M  V30 1699 H 150.788 2.66725 1.36008 0
M  V30 1700 H 148.334 1.2835 0.652864 0
M  V30 1701 H 150.287 2.0064 3.70569 0
M  V30 1702 H 149.011 0.900207 3.13949 0
M  V30 1703 H 147.67 2.85851 2.29531 0
M  V30 1704 H 147.318 1.99691 4.61663 0
M  V30 1705 H 147.018 3.75046 4.52343 0
M  V30 1706 H 148.542 3.14583 5.23326 0
M  V30 1707 H 149.956 4.56897 3.46292 0
M  V30 1708 H 148.353 5.20315 2.98985 0
M  V30 1709 H 149.423 4.52164 1.75144 0
M  V30 1710 N 150.766 -0.704594 1.40972 0
M  V30 1711 C 152.014 -1.46169 1.39568 0
M  V30 1712 C 152.335 -1.95 0.00253745 0
M  V30 1713 O 151.605 -1.71095 -0.954114 0
M  V30 1714 H 150.185 -0.542326 0.513704 0
M  V30 1715 H 152.847 -0.834553 1.76128 0
M  V30 1716 H 151.943 -2.32922 2.07735 0
M  V30 1717 N 152.244 -1.26651 -0.937939 0
M  V30 1718 C 153.49 -1.12553 -1.687 0
M  V30 1719 C 153.823 0.329782 -1.91379 0
M  V30 1720 O 153.098 1.24202 -1.4968 0
M  V30 1721 C 153.381 -1.89862 -3.05981 0
M  V30 1722 C 153.234 -3.43318 -2.90607 0
M  V30 1723 C 154.553 -1.69499 -4.0615 0
M  V30 1724 H 151.672 -0.410257 -0.612257 0
M  V30 1725 H 154.314 -1.55685 -1.08913 0
M  V30 1726 H 152.464 -1.53204 -3.57017 0
M  V30 1727 H 154.136 -3.89747 -2.46769 0
M  V30 1728 H 152.379 -3.70179 -2.26164 0
M  V30 1729 H 153.05 -3.92642 -3.8799 0
M  V30 1730 H 155.526 -2.01442 -3.64088 0
M  V30 1731 H 154.402 -2.26002 -5.00214 0
M  V30 1732 H 154.663 -0.640365 -4.37438 0
M  V30 1733 N 153.722 1.14298 -1.08507 0
M  V30 1734 C 154.968 1.85633 -0.816581 0
M  V30 1735 C 155.301 1.82784 0.656021 0
M  V30 1736 O 154.576 1.25926 1.48233 0
M  V30 1737 C 154.859 3.34223 -1.34041 0
M  V30 1738 C 154.712 3.45639 -2.87843 0
M  V30 1739 C 156.031 4.29356 -0.9665 0
M  V30 1740 H 153.15 0.67402 -0.298104 0
M  V30 1741 H 155.792 1.34214 -1.34487 0
M  V30 1742 H 153.942 3.78144 -0.89104 0
M  V30 1743 H 155.614 3.10498 -3.41158 0
M  V30 1744 H 153.857 2.86817 -3.25451 0
M  V30 1745 H 154.528 4.50089 -3.19569 0
M  V30 1746 H 157.004 3.93457 -1.35391 0
M  V30 1747 H 155.88 5.3178 -1.3602 0
M  V30 1748 H 156.141 4.41919 0.126362 0
M  V30 1749 N 155.201 0.870884 1.31352 0
M  V30 1750 C 156.131 0.343096 2.30966 0
M  V30 1751 C 157.112 -0.566507 1.60389 0
M  V30 1752 O 158.297 -0.483336 1.88089 0
M  V30 1753 C 155.427 -0.455487 3.443 0
M  V30 1754 C 154.381 0.361103 4.26474 0
M  V30 1755 C 153.707 -0.563221 5.31725 0
M  V30 1756 C 155.007 1.59566 4.97329 0
M  V30 1757 H 156.701 1.17548 2.75359 0
M  V30 1758 H 154.247 0.566686 1.32381 0
M  V30 1759 H 156.2 -0.83525 4.13039 0
M  V30 1760 H 154.924 -1.32139 2.98675 0
M  V30 1761 H 153.583 0.722825 3.59403 0
M  V30 1762 H 153.231 -1.42643 4.82351 0
M  V30 1763 H 152.931 -0.0207409 5.87596 0
M  V30 1764 H 154.455 -0.939808 6.03324 0
M  V30 1765 H 155.869 1.28728 5.58661 0
M  V30 1766 H 154.266 2.07728 5.63 0
M  V30 1767 H 155.336 2.34798 4.24262 0
M  V30 1768 N 156.679 -1.44442 0.630414 0
M  V30 1769 C 157.928 -2.01267 0.132073 0
M  V30 1770 C 158.241 -1.50172 -1.25331 0
M  V30 1771 O 159.447 -1.9912 -1.84562 0
M  V30 1772 C 157.903 -3.59422 0.185362 0
M  V30 1773 C 157.511 -4.19514 1.57201 0
M  V30 1774 C 159.255 -4.23724 -0.256553 0
M  V30 1775 C 157.162 -5.69891 1.58045 0
M  V30 1776 H 156.092 -0.752619 0.0456092 0
M  V30 1777 H 158.743 -1.65666 0.789106 0
M  V30 1778 H 157.125 -3.92318 -0.538759 0
M  V30 1779 H 158.299 -3.98156 2.31966 0
M  V30 1780 H 156.614 -3.67496 1.95795 0
M  V30 1781 H 159.211 -5.34019 -0.269767 0
M  V30 1782 H 159.554 -3.96013 -1.28372 0
M  V30 1783 H 160.087 -3.95629 0.41505 0
M  V30 1784 H 156.826 -6.02336 2.58597 0
M  V30 1785 H 156.346 -5.93373 0.875725 0
M  V30 1786 H 158.025 -6.33515 1.31408 0
M  V30 1787 N 158.157 -0.370918 -1.53173 0
M  V30 1788 C 159.406 0.218249 -2.00516 0
M  V30 1789 C 159.719 1.49429 -1.26215 0
M  V30 1790 O 160.925 2.16239 -1.64174 0
M  V30 1791 C 159.381 0.43948 -3.57207 0
M  V30 1792 C 158.989 -0.822244 -4.4039 0
M  V30 1793 C 160.733 0.986012 -4.1289 0
M  V30 1794 C 158.64 -0.570304 -5.88644 0
M  V30 1795 H 157.57 0.0853333 -0.749156 0
M  V30 1796 H 160.221 -0.490483 -1.76823 0
M  V30 1797 H 158.603 1.20961 -3.77074 0
M  V30 1798 H 159.777 -1.59557 -4.32294 0
M  V30 1799 H 158.092 -1.29238 -3.95836 0
M  V30 1800 H 160.689 1.18991 -5.21292 0
M  V30 1801 H 161.032 1.94972 -3.6782 0
M  V30 1802 H 161.565 0.27592 -3.96842 0
M  V30 1803 H 158.304 -1.50449 -6.38001 0
M  V30 1804 H 157.824 0.164427 -5.99575 0
M  V30 1805 H 159.503 -0.19784 -6.46697 0
M  V30 1806 N 159.635 1.57281 -0.100228 0
M  V30 1807 C 160.883 1.94153 0.561157 0
M  V30 1808 C 161.204 0.983157 1.68401 0
M  V30 1809 O 160.474 0.0361132 1.95867 0
M  V30 1810 H 159.054 0.716791 0.210283 0
M  V30 1811 H 161.716 1.94202 -0.164765 0
M  V30 1812 H 160.812 2.96709 0.968008 0
M  V30 1813 N 161.113 -0.173488 1.56642 0
M  V30 1814 C 162.076 -1.19859 1.95362 0
M  V30 1815 C 163.076 -1.37296 0.83704 0
M  V30 1816 O 164.266 -1.34739 1.10413 0
M  V30 1817 C 161.398 -2.56405 2.24654 0
M  V30 1818 H 162.591 -0.867062 2.87092 0
M  V30 1819 H 160.144 -0.415853 1.50666 0
M  V30 1820 H 160.879 -2.94576 1.35631 0
M  V30 1821 H 160.664 -2.45115 3.06041 0
M  V30 1822 H 162.154 -3.30287 2.5554 0
M  V30 1823 N 162.591 -1.51276 -0.441967 0
M  V30 1824 C 163.837 -1.6492 -1.1905 0
M  V30 1825 C 164.192 -0.358731 -1.89026 0
M  V30 1826 O 163.485 0.645193 -1.8041 0
M  V30 1827 C 163.679 -2.78746 -2.23686 0
M  V30 1828 C 163.508 -4.18737 -1.63979 0
M  V30 1829 C 162.278 -4.84739 -1.42674 0
M  V30 1830 C 164.476 -5.01988 -1.11858 0
M  V30 1831 N 162.458 -6.08858 -0.785159 0
M  V30 1832 C 163.829 -6.17071 -0.601989 0
M  V30 1833 C 165.884 -4.87551 -1.0099 0
M  V30 1834 C 164.587 -7.19299 0.0126012 0
M  V30 1835 C 166.613 -5.89983 -0.409206 0
M  V30 1836 C 165.975 -7.04333 0.0968651 0
M  V30 1837 H 162.074 -0.657416 -0.423471 0
M  V30 1838 H 164.658 -1.8849 -0.48782 0
M  V30 1839 H 162.829 -2.56848 -2.91348 0
M  V30 1840 H 164.561 -2.81595 -2.90666 0
M  V30 1841 H 161.316 -4.42528 -1.68719 0
M  V30 1842 H 161.74 -6.75282 -0.481942 0
M  V30 1843 H 166.382 -3.99401 -1.38703 0
M  V30 1844 H 164.1 -8.071 0.401879 0
M  V30 1845 H 167.686 -5.8088 -0.327079 0
M  V30 1846 H 166.566 -7.82238 0.554373 0
M  V30 1847 N 164.069 0.697108 -1.41344 0
M  V30 1848 C 165.017 1.83237 -1.43272 0
M  V30 1849 C 166.011 1.66522 -0.310947 0
M  V30 1850 O 167.217 1.73402 -0.482899 0
M  V30 1851 H 163.592 0.603802 -0.448249 0
M  V30 1852 H 165.563 1.78727 -2.38954 0
M  V30 1853 C 164.312 3.21245 -1.33029 0
M  V30 1854 H 163.635 3.34723 -2.18633 0
M  V30 1855 H 165.075 4.00763 -1.38439 0
M  V30 1856 C 163.534 3.36873 -0.0424635 0
M  V30 1857 O 164.064 3.91177 0.913421 0
M  V30 1858 N 162.27 2.90581 0.0331145 0
M  V30 1859 H 161.817 2.46577 -0.745506 0
M  V30 1860 H 161.775 3.01416 0.894199 0
M  V30 1861 N 165.547 1.27147 0.931209 0
M  V30 1862 C 166.777 1.15914 1.71019 0
M  V30 1863 C 167.185 -0.287112 1.87009 0
M  V30 1864 O 166.528 -1.20761 1.38429 0
M  V30 1865 C 166.59 1.76647 3.13107 0
M  V30 1866 C 166.254 3.25807 3.20467 0
M  V30 1867 C 167.251 4.22489 3.02983 0
M  V30 1868 C 164.936 3.66452 3.43538 0
M  V30 1869 C 166.93 5.57794 3.08454 0
M  V30 1870 C 164.617 5.01888 3.48643 0
M  V30 1871 C 165.615 5.97369 3.31119 0
M  V30 1872 O 165.303 7.30337 3.35952 0
M  V30 1873 H 165.035 0.404062 0.54195 0
M  V30 1874 H 167.589 1.68457 1.17521 0
M  V30 1875 H 165.819 1.18578 3.68071 0
M  V30 1876 H 167.508 1.60179 3.72958 0
M  V30 1877 H 168.274 3.92425 2.85004 0
M  V30 1878 H 164.153 2.92611 3.5623 0
M  V30 1879 H 167.697 6.32298 2.94694 0
M  V30 1880 H 163.594 5.31609 3.66145 0
M  V30 1881 H 164.362 7.38739 3.5243 0
M  V30 1882 N 167.025 -1.13721 1.09112 0
M  V30 1883 C 168.436 -1.6648 0.845068 0
M  V30 1884 C 168.787 -1.85911 -0.62701 0
M  V30 1885 O 167.912 -1.57556 -1.48341 0
M  V30 1886 C 168.507 -3.02413 1.52748 0
M  V30 1887 C 167.066 -3.52176 1.32849 0
M  V30 1888 C 166.213 -2.27492 1.58564 0
M  V30 1889 H 169.164 -0.976872 1.25072 0
M  V30 1890 H 169.185 -3.68223 0.958752 0
M  V30 1891 H 168.697 -2.88238 2.59885 0
M  V30 1892 H 166.798 -3.7156 0.278137 0
M  V30 1893 H 166.911 -4.32499 2.0611 0
M  V30 1894 H 165.275 -2.33923 1.00758 0
M  V30 1895 H 166.058 -2.15886 2.66924 0
M  V30 1896 N 168.503 -0.877838 -1.30888 0
M  V30 1897 C 169.75 -0.492696 -1.96415 0
M  V30 1898 C 170.078 0.956671 -1.69346 0
M  V30 1899 O 169.333 1.68993 -0.986913 0
M  V30 1900 C 169.632 -0.705748 -3.50363 0
M  V30 1901 C 169.298 -2.1291 -3.97467 0
M  V30 1902 C 167.96 -2.51834 -4.1004 0
M  V30 1903 C 170.312 -3.05702 -4.22132 0
M  V30 1904 C 167.64 -3.82775 -4.44635 0
M  V30 1905 C 169.992 -4.36166 -4.58194 0
M  V30 1906 C 168.656 -4.74993 -4.68975 0
M  V30 1907 H 167.926 -0.18029 -0.718733 0
M  V30 1908 H 170.573 -1.11233 -1.55883 0
M  V30 1909 H 168.878 -0.00303058 -3.918 0
M  V30 1910 H 170.575 -0.387456 -3.99124 0
M  V30 1911 H 167.165 -1.81694 -3.88182 0
M  V30 1912 H 171.349 -2.76853 -4.11906 0
M  V30 1913 H 166.605 -4.12609 -4.51181 0
M  V30 1914 H 170.779 -5.08111 -4.76231 0
M  V30 1915 H 168.406 -5.76495 -4.95537 0
M  V30 1916 N 169.982 1.44106 -0.638065 0
M  V30 1917 C 171.228 2.02277 -0.145546 0
M  V30 1918 C 171.561 1.50125 1.23191 0
M  V30 1919 O 170.836 0.688133 1.8192 0
M  V30 1920 C 171.119 3.59829 -0.139791 0
M  V30 1921 C 170.972 4.22247 -1.55008 0
M  V30 1922 C 172.291 4.36873 0.531966 0
M  V30 1923 H 169.41 0.734992 -0.0543632 0
M  V30 1924 H 172.052 1.71592 -0.815863 0
M  V30 1925 H 170.202 3.86102 0.431007 0
M  V30 1926 H 171.874 4.07057 -2.1703 0
M  V30 1927 H 170.117 3.79476 -2.10191 0
M  V30 1928 H 170.788 5.31284 -1.49804 0
M  V30 1929 H 173.264 4.16074 0.0464781 0
M  V30 1930 H 172.14 5.4657 0.505206 0
M  V30 1931 H 172.401 4.11995 1.60352 0
M  V30 1932 N 171.46 0.379036 1.52974 0
M  V30 1933 C 172.39 -0.452706 2.29069 0
M  V30 1934 C 173.371 -1.07237 1.32039 0
M  V30 1935 O 174.556 -1.08708 1.60923 0
M  V30 1936 C 171.686 -1.5856 3.08992 0
M  V30 1937 C 170.64 -1.0925 4.13822 0
M  V30 1938 C 169.966 -2.31668 4.81907 0
M  V30 1939 C 171.266 -0.167702 5.22031 0
M  V30 1940 H 172.96 0.182181 2.98845 0
M  V30 1941 H 170.506 0.0890592 1.43724 0
M  V30 1942 H 172.459 -2.1742 3.6098 0
M  V30 1943 H 171.183 -2.24792 2.36931 0
M  V30 1944 H 169.842 -0.526494 3.628 0
M  V30 1945 H 169.49 -2.96386 4.06404 0
M  V30 1946 H 169.19 -1.9934 5.52754 0
M  V30 1947 H 170.714 -2.91189 5.36695 0
M  V30 1948 H 172.128 -0.664186 5.6944 0
M  V30 1949 H 170.525 0.0653265 6.00064 0
M  V30 1950 H 171.595 0.786347 4.78482 0
M  V30 1951 N 172.938 -1.57226 0.108567 0
M  V30 1952 C 174.166 -1.99179 -0.559954 0
M  V30 1953 C 174.581 -0.988022 -1.60884 0
M  V30 1954 O 173.938 0.0205512 -1.82488 0
M  V30 1955 C 173.989 -3.41159 -1.19552 0
M  V30 1956 O 173.71 -4.37694 -0.188577 0
M  V30 1957 C 175.211 -3.98188 -1.94837 0
M  V30 1958 H 172.431 -0.654228 -0.149088 0
M  V30 1959 H 174.975 -2.03598 0.19183 0
M  V30 1960 H 173.13 -3.37711 -1.89815 0
M  V30 1961 H 173.544 -5.20469 -0.649014 0
M  V30 1962 H 175.018 -4.99644 -2.34648 0
M  V30 1963 H 175.495 -3.3675 -2.81951 0
M  V30 1964 H 176.101 -4.0515 -1.2936 0
M  V30 1965 N 174.416 0.165178 -1.56732 0
M  V30 1966 C 175.665 0.879143 -1.81532 0
M  V30 1967 C 175.978 1.83144 -0.686842 0
M  V30 1968 O 177.184 2.58823 -0.819944 0
M  V30 1969 C 175.64 1.61388 -3.21686 0
M  V30 1970 C 175.248 0.704904 -4.4242 0
M  V30 1971 C 176.992 2.3157 -3.55774 0
M  V30 1972 C 174.899 1.44022 -5.73595 0
M  V30 1973 H 173.829 0.332033 -0.676957 0
M  V30 1974 H 176.48 0.132008 -1.83025 0
M  V30 1975 H 174.862 2.40599 -3.14529 0
M  V30 1976 H 176.036 -0.0506815 -4.60772 0
M  V30 1977 H 174.351 0.112419 -4.16248 0
M  V30 1978 H 176.948 2.8719 -4.51028 0
M  V30 1979 H 177.291 3.07201 -2.8095 0
M  V30 1980 H 177.824 1.59297 -3.64513 0
M  V30 1981 H 174.563 0.72612 -6.51466 0
M  V30 1982 H 174.083 2.16898 -5.5921 0
M  V30 1983 H 175.762 1.98606 -6.15764 0
M  V30 1984 N 175.894 1.51508 0.433938 0
M  V30 1985 C 176.826 1.69266 1.54537 0
M  V30 1986 C 177.839 0.573276 1.52373 0
M  V30 1987 O 179.028 0.847698 1.57087 0
M  V30 1988 C 176.128 1.69524 2.93453 0
M  V30 1989 C 175.301 2.98101 3.20085 0
M  V30 1990 C 174.36 2.90502 4.38742 0
M  V30 1991 O 173.386 3.64442 4.3723 0
M  V30 1992 N 174.588 2.06586 5.42496 0
M  V30 1993 H 177.353 2.65145 1.39708 0
M  V30 1994 H 174.914 1.49437 0.622922 0
M  V30 1995 H 176.906 1.62004 3.70859 0
M  V30 1996 H 175.476 0.812245 3.01863 0
M  V30 1997 H 174.696 3.19464 2.30947 0
M  V30 1998 H 175.984 3.83207 3.34708 0
M  V30 1999 H 175.382 1.45896 5.46563 0
M  V30 2000 H 173.939 2.04943 6.18742 0
M  V30 2001 N 177.372 -0.689602 1.41712 0
M  V30 2002 C 178.783 -1.26973 1.36875 0
M  V30 2003 C 179.134 -1.96124 0.054748 0
M  V30 2004 O 178.259 -1.99141 -0.84687 0
M  V30 2005 C 178.854 -2.30912 2.47922 0
M  V30 2006 C 177.413 -2.84486 2.46464 0
M  V30 2007 C 176.56 -1.58603 2.27465 0
M  V30 2008 H 179.511 -0.48396 1.51141 0
M  V30 2009 H 179.532 -3.12331 2.17323 0
M  V30 2010 H 179.044 -1.80554 3.43543 0
M  V30 2011 H 177.145 -3.39005 1.54617 0
M  V30 2012 H 177.258 -3.34511 3.42986 0
M  V30 2013 H 175.622 -1.84632 1.75451 0
M  V30 2014 H 176.405 -1.10233 3.25121 0
M  V30 2015 N 178.85 -1.27639 -0.924453 0
M  V30 2016 C 179.78 -1.13166 -2.04244 0
M  V30 2017 C 180.761 -0.032256 -1.70069 0
M  V30 2018 O 181.946 -0.207328 -1.9309 0
M  V30 2019 C 179.076 -0.781496 -3.38393 0
M  V30 2020 C 178.03 -1.83449 -3.86692 0
M  V30 2021 C 177.356 -1.33822 -5.17683 0
M  V30 2022 C 178.656 -3.23917 -4.09726 0
M  V30 2023 H 180.35 -2.06689 -2.1661 0
M  V30 2024 H 177.896 -0.995136 -1.04082 0
M  V30 2025 H 179.849 -0.667057 -4.16087 0
M  V30 2026 H 178.573 0.189439 -3.2605 0
M  V30 2027 H 177.232 -1.93789 -3.11193 0
M  V30 2028 H 176.88 -0.35665 -5.01734 0
M  V30 2029 H 176.58 -2.04224 -5.50968 0
M  V30 2030 H 178.104 -1.23679 -5.97943 0
M  V30 2031 H 179.518 -3.16559 -4.77978 0
M  V30 2032 H 177.915 -3.92059 -4.54324 0
M  V30 2033 H 178.985 -3.68729 -3.14908 0
M  V30 2034 N 180.328 1.1314 -1.09713 0
M  V30 2035 C 181.577 1.83838 -0.829851 0
M  V30 2036 C 181.89 1.84599 0.646728 0
M  V30 2037 O 183.096 2.51218 1.02965 0
M  V30 2038 C 181.552 3.30069 -1.43466 0
M  V30 2039 C 181.16 3.37688 -2.94399 0
M  V30 2040 C 182.904 4.05788 -1.24645 0
M  V30 2041 C 180.811 4.78209 -3.47952 0
M  V30 2042 H 179.741 0.68877 -0.306777 0
M  V30 2043 H 182.392 1.27448 -1.3202 0
M  V30 2044 H 180.774 3.8628 -0.871996 0
M  V30 2045 H 181.948 2.91456 -3.56918 0
M  V30 2046 H 180.263 2.75436 -3.12289 0
M  V30 2047 H 182.86 5.09535 -1.62107 0
M  V30 2048 H 183.203 4.15878 -0.187357 0
M  V30 2049 H 183.736 3.55915 -1.77678 0
M  V30 2050 H 180.475 4.73311 -4.53495 0
M  V30 2051 H 179.995 5.24924 -2.90198 0
M  V30 2052 H 181.674 5.47133 -3.45332 0
M  V30 2053 N 181.806 0.884767 1.30421 0
M  V30 2054 C 183.054 0.502112 1.95763 0
M  V30 2055 C 183.375 -0.951815 1.70192 0
M  V30 2056 O 182.645 -1.6692 1.0254 0
M  V30 2057 H 181.225 0.182694 0.724315 0
M  V30 2058 H 183.887 1.1278 1.58955 0
M  V30 2059 H 182.983 0.672188 3.04775 0
M  V30 2060 N 183.284 -1.43765 0.645699 0
M  V30 2061 C 184.247 -2.29163 -0.0409488 0
M  V30 2062 C 185.247 -1.41813 -0.757996 0
M  V30 2063 O 186.437 -1.63527 -0.600382 0
M  V30 2064 C 183.569 -3.23716 -1.06869 0
M  V30 2065 H 184.762 -2.91366 0.710345 0
M  V30 2066 H 182.315 -1.5092 0.406547 0
M  V30 2067 H 183.05 -2.66393 -1.84947 0
M  V30 2068 H 182.835 -3.88105 -0.558277 0
M  V30 2069 H 184.325 -3.87831 -1.54845 0
M  V30 2070 N 184.763 -0.387143 -1.52771 0
M  V30 2071 C 186.012 0.19697 -2.00736 0
M  V30 2072 C 186.325 1.48082 -1.27793 0
M  V30 2073 O 187.531 2.14485 -1.66458 0
M  V30 2074 C 185.987 0.401568 -3.57653 0
M  V30 2075 C 185.595 -0.868907 -4.39493 0
M  V30 2076 C 187.339 0.942164 -4.13912 0
M  V30 2077 C 185.246 -0.632705 -5.88006 0
M  V30 2078 H 184.176 0.0773827 -0.750019 0
M  V30 2079 H 186.827 -0.50921 -1.76293 0
M  V30 2080 H 185.209 1.16954 -3.78335 0
M  V30 2081 H 186.383 -1.64133 -4.30577 0
M  V30 2082 H 184.698 -1.33429 -3.94443 0
M  V30 2083 H 187.295 1.13455 -5.22525 0
M  V30 2084 H 187.638 1.9106 -3.69867 0
M  V30 2085 H 188.171 0.233814 -3.97112 0
M  V30 2086 H 184.91 -1.57208 -6.36369 0
M  V30 2087 H 184.43 0.100825 -5.99715 0
M  V30 2088 H 186.109 -0.26642 -6.46451 0
M  V30 2089 N 186.241 1.57166 -0.116904 0
M  V30 2090 C 187.204 2.14039 0.819742 0
M  V30 2091 C 188.204 1.07477 1.19605 0
M  V30 2092 O 189.394 1.33263 1.1219 0
M  V30 2093 C 186.526 2.67891 2.10826 0
M  V30 2094 H 187.719 2.98128 0.325511 0
M  V30 2095 H 185.272 1.55739 0.132312 0
M  V30 2096 H 186.007 1.87384 2.64685 0
M  V30 2097 H 185.792 3.45823 1.84793 0
M  V30 2098 H 187.282 3.11809 2.77785 0
M  V30 2099 N 187.719 -0.156864 1.56817 0
M  V30 2100 C 188.682 -1.17781 1.96622 0
M  V30 2101 C 189.682 -1.36401 0.851555 0
M  V30 2102 O 190.872 -1.33561 1.11836 0
M  V30 2103 C 188.004 -2.54008 2.27361 0
M  V30 2104 H 189.197 -0.836564 2.87996 0
M  V30 2105 H 186.75 -0.39985 1.51099 0
M  V30 2106 H 187.485 -2.9312 1.38748 0
M  V30 2107 H 187.27 -2.41856 3.08623 0
M  V30 2108 H 188.76 -3.27558 2.59029 0
M  V30 2109 N 189.197 -1.51736 -0.425897 0
M  V30 2110 C 190.445 -1.64644 -1.17204 0
M  V30 2111 C 190.766 -0.370486 -1.91448 0
M  V30 2112 O 190.036 0.614088 -1.86026 0
M  V30 2113 H 188.616 -0.606819 -0.435638 0
M  V30 2114 H 191.278 -1.88713 -0.487177 0
M  V30 2115 H 190.374 -2.47958 -1.89534 0
M  V30 2116 N 190.675 0.682077 -1.42076 0
M  V30 2117 C 191.623 1.81707 -1.45208 0
M  V30 2118 C 192.617 1.66183 -0.328591 0
M  V30 2119 O 193.823 1.7288 -0.501264 0
M  V30 2120 H 190.198 0.599014 -0.454628 0
M  V30 2121 H 192.169 1.76183 -2.40836 0
M  V30 2122 C 190.918 3.19816 -1.36428 0
M  V30 2123 H 190.241 3.32385 -2.22171 0
M  V30 2124 H 191.681 3.99272 -1.42681 0
M  V30 2125 C 190.14 3.36809 -0.078191 0
M  V30 2126 O 190.67 3.92124 0.87188 0
M  V30 2127 N 188.876 2.906 0.00229266 0
M  V30 2128 H 188.423 2.45772 -0.771616 0
M  V30 2129 H 188.381 3.02347 0.862179 0
M  V30 2130 N 192.153 1.28127 0.917671 0
M  V30 2131 C 193.116 1.11744 2.00115 0
M  V30 2132 C 194.116 0.0583052 1.60694 0
M  V30 2133 O 195.306 0.303755 1.71531 0
M  V30 2134 C 192.438 0.704862 3.33533 0
M  V30 2135 H 193.631 2.07966 2.16079 0
M  V30 2136 H 191.184 1.11058 1.09981 0
M  V30 2137 H 191.919 -0.258299 3.2327 0
M  V30 2138 H 191.704 1.4699 3.63505 0
M  V30 2139 H 193.194 0.612768 4.1308 0
M  V30 2140 N 193.631 -1.12557 1.10312 0
M  V30 2141 C 194.877 -1.84311 0.846011 0
M  V30 2142 C 195.21 -1.83805 -0.626859 0
M  V30 2143 O 194.485 -1.28268 -1.46211 0
M  V30 2144 C 194.768 -3.32048 1.39341 0
M  V30 2145 C 194.621 -3.41016 2.93305 0
M  V30 2146 C 195.94 -4.27764 1.03468 0
M  V30 2147 H 193.059 -0.669192 0.30879 0
M  V30 2148 H 195.701 -1.32057 1.36605 0
M  V30 2149 H 193.851 -3.76678 0.951087 0
M  V30 2150 H 195.523 -3.05031 3.46055 0
M  V30 2151 H 193.766 -2.81603 3.29973 0
M  V30 2152 H 194.437 -4.44948 3.26689 0
M  V30 2153 H 196.913 -3.91253 1.41633 0
M  V30 2154 H 195.789 -5.29549 1.44463 0
M  V30 2155 H 196.05 -4.42064 -0.0560404 0
M  V30 2156 N 195.109 -0.891671 -1.2995 0
M  V30 2157 C 196.358 -0.509521 -1.95158 0
M  V30 2158 C 196.671 0.947388 -1.71125 0
M  V30 2159 O 197.877 1.43669 -2.30372 0
M  V30 2160 C 196.333 -0.860315 -3.49466 0
M  V30 2161 C 195.941 -2.33545 -3.8231 0
M  V30 2162 C 197.685 -0.547687 -4.20952 0
M  V30 2163 C 195.592 -2.62752 -5.29826 0
M  V30 2164 H 194.522 -0.18682 -0.730489 0
M  V30 2165 H 197.173 -1.08756 -1.47798 0
M  V30 2166 H 195.555 -0.211285 -3.95436 0
M  V30 2167 H 196.729 -3.02936 -3.47227 0
M  V30 2168 H 195.044 -2.61629 -3.23944 0
M  V30 2169 H 197.641 -0.742854 -5.29515 0
M  V30 2170 H 197.984 0.51332 -4.13123 0
M  V30 2171 H 198.517 -1.1542 -3.80688 0
M  V30 2172 H 195.256 -3.6762 -5.42712 0
M  V30 2173 H 194.776 -1.97977 -5.66185 0
M  V30 2174 H 196.455 -2.48601 -5.97333 0
M  V30 2175 N 196.587 1.43421 -0.653314 0
M  V30 2176 C 197.836 2.01032 -0.164076 0
M  V30 2177 C 198.149 1.52147 1.22926 0
M  V30 2178 O 199.355 2.02031 1.81371 0
M  V30 2179 C 197.811 3.59082 -0.24252 0
M  V30 2180 C 197.419 4.1696 -1.63855 0
M  V30 2181 C 199.163 4.24079 0.18911 0
M  V30 2182 C 197.07 5.67304 -1.67092 0
M  V30 2183 H 196 0.751798 -0.0575769 0
M  V30 2184 H 198.651 1.6439 -0.815362 0
M  V30 2185 H 197.033 3.93125 0.476276 0
M  V30 2186 H 198.207 3.94416 -2.38271 0
M  V30 2187 H 196.522 3.64335 -2.01616 0
M  V30 2188 H 199.119 5.34381 0.184775 0
M  V30 2189 H 199.462 3.98005 1.22056 0
M  V30 2190 H 199.995 3.94918 -0.477938 0
M  V30 2191 H 196.734 5.98145 -2.68146 0
M  V30 2192 H 196.254 5.91904 -0.970014 0
M  V30 2193 H 197.933 6.31344 -1.4147 0
M  V30 2194 N 198.065 0.39524 1.52563 0
M  V30 2195 C 199.012 -0.437036 2.26624 0
M  V30 2196 C 199.982 -1.05281 1.28472 0
M  V30 2197 O 201.167 -1.07971 1.57311 0
M  V30 2198 C 198.307 -1.55524 3.08069 0
M  V30 2199 C 197.42 -0.961745 4.21158 0
M  V30 2200 C 196.555 -2.05149 4.89987 0
M  V30 2201 C 195.594 -1.4342 5.95061 0
M  V30 2202 N 194.731 -2.46351 6.57462 0
M  V30 2203 H 199.571 0.200976 2.97322 0
M  V30 2204 H 197.108 0.110944 1.46681 0
M  V30 2205 H 199.066 -2.21437 3.53584 0
M  V30 2206 H 197.696 -2.16348 2.3957 0
M  V30 2207 H 196.748 -0.192048 3.79915 0
M  V30 2208 H 198.06 -0.470701 4.96574 0
M  V30 2209 H 197.214 -2.78819 5.38837 0
M  V30 2210 H 195.953 -2.57615 4.14109 0
M  V30 2211 H 194.958 -0.682774 5.45544 0
M  V30 2212 H 196.183 -0.917416 6.72875 0
M  V30 2213 H 194.129 -2.97975 5.8442 0
M  V30 2214 H 194.046 -2.02019 7.28508 0
M  V30 2215 H 195.314 -3.19633 7.10954 0
M  V30 2216 N 199.544 -1.57102 0.125237 0
M  V30 2217 C 200.955 -1.82384 -0.399142 0
M  V30 2218 C 201.306 -1.04276 -1.66195 0
M  V30 2219 O 200.431 -0.281269 -2.14564 0
M  V30 2220 C 201.026 -3.30821 -0.730932 0
M  V30 2221 C 199.585 -3.56762 -1.19992 0
M  V30 2222 C 198.732 -2.7649 -0.211792 0
M  V30 2223 H 201.683 -1.54786 0.350277 0
M  V30 2224 H 201.704 -3.4579 -1.58775 0
M  V30 2225 H 201.216 -3.87643 0.188345 0
M  V30 2226 H 199.317 -3.05305 -2.13588 0
M  V30 2227 H 199.43 -4.65317 -1.14093 0
M  V30 2228 H 197.794 -2.4489 -0.700085 0
M  V30 2229 H 198.577 -3.36073 0.700691 0
M  V30 2230 N 201.022 0.148545 -1.56898 0
M  V30 2231 C 202.247 0.880385 -1.87787 0
M  V30 2232 C 202.672 1.74018 -0.714093 0
M  V30 2233 O 202.03 1.78153 0.336343 0
M  V30 2234 C 202.078 1.71422 -3.17249 0
M  V30 2235 O 201.182 2.8183 -3.01074 0
M  V30 2236 H 200.523 0.245301 -0.617028 0
M  V30 2237 H 203.053 0.139826 -2.04122 0
M  V30 2238 H 203.063 2.10954 -3.49231 0
M  V30 2239 H 201.738 1.08284 -4.01556 0
M  V30 2240 H 200.315 2.45715 -2.80497 0
M  V30 2241 N 202.5 1.5196 0.417844 0
M  V30 2242 C 203.41 1.77554 1.53336 0
M  V30 2243 C 204.426 0.660655 1.6097 0
M  V30 2244 O 205.602 0.945099 1.77848 0
M  V30 2245 C 202.667 1.91291 2.89152 0
M  V30 2246 C 201.728 3.15183 2.91475 0
M  V30 2247 C 200.961 3.28256 4.20813 0
M  V30 2248 O 201.184 2.46798 5.14244 0
M  V30 2249 O 200.118 4.21356 4.29817 0
M  V30 2250 H 203.944 2.7222 1.34647 0
M  V30 2251 H 201.529 1.36698 0.602828 0
M  V30 2252 H 203.411 2.02199 3.69721 0
M  V30 2253 H 202.086 0.998129 3.07927 0
M  V30 2254 H 200.993 3.09739 2.09791 0
M  V30 2255 H 202.326 4.06414 2.77648 0
M  V30 2256 N 203.978 -0.674533 1.42435 0
M  V30 2257 C 204.908 -1.80009 1.48724 0
M  V30 2258 C 205.889 -1.6659 0.343793 0
M  V30 2259 O 207.074 -1.86007 0.558137 0
M  V30 2260 C 204.204 -3.18306 1.38919 0
M  V30 2261 C 203.158 -3.46461 2.51294 0
M  V30 2262 C 202.484 -4.84335 2.26547 0
M  V30 2263 C 203.784 -3.43328 3.93603 0
M  V30 2264 H 205.478 -1.75004 2.42928 0
M  V30 2265 H 203.024 -0.840533 1.16923 0
M  V30 2266 H 204.977 -3.9678 1.41927 0
M  V30 2267 H 203.701 -3.2399 0.412094 0
M  V30 2268 H 202.36 -2.70348 2.47604 0
M  V30 2269 H 202.008 -4.86669 1.2713 0
M  V30 2270 H 201.708 -5.04136 3.01861 0
M  V30 2271 H 203.232 -5.65094 2.31304 0
M  V30 2272 H 204.646 -4.11772 3.98894 0
M  V30 2273 H 203.043 -3.74664 4.68771 0
M  V30 2274 H 204.113 -2.41897 4.20255 0
M  V30 2275 N 205.456 -1.28612 -0.910864 0
M  V30 2276 C 206.681 -1.1891 -1.69927 0
M  V30 2277 C 207.106 0.248372 -1.86453 0
M  V30 2278 O 206.464 1.17961 -1.37676 0
M  V30 2279 C 206.512 -1.89578 -3.06745 0
M  V30 2280 O 205.616 -1.20521 -3.94396 0
M  V30 2281 H 204.957 -0.412632 -0.520222 0
M  V30 2282 H 207.487 -1.69985 -1.1387 0
M  V30 2283 H 207.497 -1.97597 -3.56958 0
M  V30 2284 H 206.172 -2.94136 -2.94035 0
M  V30 2285 H 204.749 -1.20684 -3.52831 0
M  V30 2286 N 206.934 1.1197 -1.10907 0
M  V30 2287 C 207.844 2.21433 -0.774896 0
M  V30 2288 C 208.86 1.72478 0.229657 0
M  V30 2289 O 210.036 2.01288 0.0672008 0
M  V30 2290 C 207.101 3.4602 -0.216986 0
M  V30 2291 C 206.162 4.09791 -1.27944 0
M  V30 2292 C 205.395 5.28431 -0.748055 0
M  V30 2293 O 205.618 5.68823 0.423833 0
M  V30 2294 O 204.552 5.82644 -1.51027 0
M  V30 2295 H 208.378 2.5242 -1.68873 0
M  V30 2296 H 205.963 1.20399 -0.884555 0
M  V30 2297 H 207.845 4.21304 0.090059 0
M  V30 2298 H 206.52 3.16698 0.669633 0
M  V30 2299 H 205.427 3.36265 -1.63941 0
M  V30 2300 H 206.76 4.4328 -2.13925 0
M  V30 2301 N 208.412 0.89855 1.29475 0
M  V30 2302 C 209.36 0.365253 2.29714 0
M  V30 2303 C 210.354 -0.534993 1.6073 0
M  V30 2304 O 211.56 -0.417921 1.75081 0
M  V30 2305 H 207.935 0.0994853 0.74539 0
M  V30 2306 H 209.906 1.22406 2.72138 0
M  V30 2307 C 208.655 -0.393159 3.4547 0
M  V30 2308 H 207.978 0.290332 3.98744 0
M  V30 2309 H 209.418 -0.731189 4.17648 0
M  V30 2310 C 207.877 -1.59539 2.9673 0
M  V30 2311 O 208.407 -2.69469 2.97908 0
M  V30 2312 N 206.613 -1.43716 2.52575 0
M  V30 2313 H 206.16 -0.542828 2.51816 0
M  V30 2314 H 206.118 -2.24288 2.20323 0
M  V30 2315 N 209.89 -1.43072 0.660911 0
M  V30 2316 C 211.118 -2.06067 0.185422 0
M  V30 2317 C 211.533 -1.49582 -1.15198 0
M  V30 2318 O 210.89 -0.630134 -1.71276 0
M  V30 2319 C 210.941 -3.61371 0.0966523 0
M  V30 2320 O 210.662 -4.15758 1.38119 0
M  V30 2321 C 212.163 -4.41455 -0.403996 0
M  V30 2322 H 209.383 -0.664459 0.0934604 0
M  V30 2323 H 211.927 -1.83447 0.90373 0
M  V30 2324 H 210.082 -3.8315 -0.572259 0
M  V30 2325 H 210.496 -5.09499 1.24542 0
M  V30 2326 H 211.97 -5.50437 -0.415045 0
M  V30 2327 H 212.447 -4.15036 -1.43674 0
M  V30 2328 H 213.053 -4.24663 0.232691 0
M  V30 2329 N 211.368 -0.403325 -1.52352 0
M  V30 2330 C 212.331 0.413051 -2.25447 0
M  V30 2331 C 213.331 0.978513 -1.276 0
M  V30 2332 O 214.521 0.858305 -1.51587 0
M  V30 2333 C 211.653 1.58087 -3.02029 0
M  V30 2334 H 212.846 -0.227094 -2.99039 0
M  V30 2335 H 210.399 -0.155722 -1.55522 0
M  V30 2336 H 211.134 2.25804 -2.32772 0
M  V30 2337 H 210.919 1.18195 -3.73861 0
M  V30 2338 H 212.409 2.1585 -3.57489 0
M  V30 2339 N 212.846 1.57033 -0.133567 0
M  V30 2340 C 213.793 2.16074 0.811208 0
M  V30 2341 C 214.763 1.08979 1.2535 0
M  V30 2342 O 215.948 1.36958 1.32843 0
M  V30 2343 C 213.088 2.77595 2.05024 0
M  V30 2344 C 212.201 3.99042 1.65498 0
M  V30 2345 C 211.336 4.48603 2.84479 0
M  V30 2346 C 210.375 5.62547 2.41262 0
M  V30 2347 N 209.512 6.06787 3.53206 0
M  V30 2348 H 214.352 2.96477 0.300906 0
M  V30 2349 H 211.889 1.46462 0.136822 0
M  V30 2350 H 213.847 3.11402 2.77642 0
M  V30 2351 H 212.477 1.99859 2.53488 0
M  V30 2352 H 211.529 3.71302 0.826981 0
M  V30 2353 H 212.841 4.81629 1.29748 0
M  V30 2354 H 211.995 4.84395 3.65303 0
M  V30 2355 H 210.734 3.64995 3.23465 0
M  V30 2356 H 209.739 5.26345 1.58874 0
M  V30 2357 H 210.964 6.47931 2.03377 0
M  V30 2358 H 208.91 5.26117 3.91838 0
M  V30 2359 H 208.827 6.84266 3.21427 0
M  V30 2360 H 210.095 6.4722 4.34427 0
M  V30 2361 N 214.325 -0.140222 1.56975 0
M  V30 2362 C 215.574 -0.850152 1.82908 0
M  V30 2363 C 215.887 -1.82028 0.715892 0
M  V30 2364 O 217.093 -2.57485 0.861016 0
M  V30 2365 C 215.549 -1.5625 3.24213 0
M  V30 2366 C 215.157 -0.63443 4.43485 0
M  V30 2367 C 216.901 -2.25881 3.59413 0
M  V30 2368 C 214.808 -1.34879 5.75814 0
M  V30 2369 H 213.738 -0.321221 0.682153 0
M  V30 2370 H 216.389 -0.102874 1.83211 0
M  V30 2371 H 214.771 -2.35565 3.18316 0
M  V30 2372 H 215.945 0.12398 4.60633 0
M  V30 2373 H 214.26 -0.0461836 4.16374 0
M  V30 2374 H 216.857 -2.79978 4.5554 0
M  V30 2375 H 217.2 -3.02693 2.85802 0
M  V30 2376 H 217.733 -1.53477 3.67001 0
M  V30 2377 H 214.472 -0.622385 6.52539 0
M  V30 2378 H 213.992 -2.07974 5.6259 0
M  V30 2379 H 215.671 -1.88784 6.18845 0
M  V30 2380 N 215.803 -1.52179 -0.40978 0
M  V30 2381 C 216.733 -1.78435 -1.5061 0
M  V30 2382 C 217.714 -0.635295 -1.57791 0
M  V30 2383 O 218.899 -0.880823 -1.73076 0
M  V30 2384 C 216.029 -1.93444 -2.88439 0
M  V30 2385 C 214.983 -3.09038 -2.96108 0
M  V30 2386 C 214.309 -3.09268 -4.36185 0
M  V30 2387 C 215.609 -4.48508 -2.67652 0
M  V30 2388 H 217.303 -2.70237 -1.28889 0
M  V30 2389 H 214.849 -1.30036 -0.618605 0
M  V30 2390 H 216.802 -2.10394 -3.65119 0
M  V30 2391 H 215.526 -0.983129 -3.11452 0
M  V30 2392 H 214.185 -2.91837 -2.21872 0
M  V30 2393 H 213.833 -2.11861 -4.56206 0
M  V30 2394 H 213.533 -3.86907 -4.42241 0
M  V30 2395 H 215.057 -3.28348 -5.14801 0
M  V30 2396 H 216.471 -4.65918 -3.34056 0
M  V30 2397 H 214.868 -5.28059 -2.85085 0
M  V30 2398 H 215.938 -4.56649 -1.63095 0
M  V30 2399 N 217.281 0.66697 -1.42791 0
M  V30 2400 C 218.244 1.76211 -1.46568 0
M  V30 2401 C 219.244 1.56896 -0.352196 0
M  V30 2402 O 220.434 1.63044 -0.613364 0
M  V30 2403 C 217.566 3.14935 -1.30494 0
M  V30 2404 H 218.759 1.74247 -2.44086 0
M  V30 2405 H 216.312 0.877342 -1.29354 0
M  V30 2406 H 217.047 3.2252 -0.339301 0
M  V30 2407 H 216.832 3.30359 -2.11199 0
M  V30 2408 H 218.322 3.94821 -1.36038 0
M  V30 2409 N 218.759 1.29093 0.90403 0
M  V30 2410 C 219.706 1.13853 2.00764 0
M  V30 2411 C 220.676 0.0330084 1.66067 0
M  V30 2412 O 221.861 0.199733 1.89752 0
M  V30 2413 C 219.001 0.816537 3.35301 0
M  V30 2414 C 218.114 2.00206 3.82807 0
M  V30 2415 C 217.249 1.61983 5.059 0
M  V30 2416 C 216.288 2.77143 5.45764 0
M  V30 2417 N 215.425 2.39346 6.60044 0
M  V30 2418 H 220.265 2.08276 2.13132 0
M  V30 2419 H 217.802 1.03648 1.04381 0
M  V30 2420 H 219.76 0.610557 4.12708 0
M  V30 2421 H 218.39 -0.090779 3.22672 0
M  V30 2422 H 217.442 2.31988 3.01473 0
M  V30 2423 H 218.754 2.86512 4.08304 0
M  V30 2424 H 217.908 1.37649 5.90879 0
M  V30 2425 H 216.647 0.728202 4.82233 0
M  V30 2426 H 215.652 3.02165 4.59322 0
M  V30 2427 H 216.877 3.66964 5.71414 0
M  V30 2428 H 214.823 1.52665 6.37989 0
M  V30 2429 H 214.74 3.19185 6.85315 0
M  V30 2430 H 216.008 2.1832 7.48303 0
M  V30 2431 N 220.237 -1.11381 1.11499 0
M  V30 2432 C 221.167 -2.19509 0.796125 0
M  V30 2433 C 222.148 -1.68458 -0.235796 0
M  V30 2434 O 223.333 -1.93947 -0.0991344 0
M  V30 2435 C 220.463 -3.46475 0.239205 0
M  V30 2436 C 219.417 -4.10744 1.20307 0
M  V30 2437 C 218.743 -5.32293 0.50683 0
M  V30 2438 C 220.043 -4.55597 2.55399 0
M  V30 2439 H 221.737 -2.46439 1.70024 0
M  V30 2440 H 219.283 -1.18446 0.818935 0
M  V30 2441 H 221.236 -4.214 0.00392006 0
M  V30 2442 H 219.96 -3.19006 -0.700206 0
M  V30 2443 H 218.619 -3.37813 1.42399 0
M  V30 2444 H 218.267 -5.01095 -0.437408 0
M  V30 2445 H 217.967 -5.76243 1.1497 0
M  V30 2446 H 219.491 -6.09956 0.280351 0
M  V30 2447 H 220.905 -5.21841 2.37391 0
M  V30 2448 H 219.302 -5.10363 3.15673 0
M  V30 2449 H 220.372 -3.69013 3.14575 0
M  V30 2450 N 221.715 -0.905404 -1.28997 0
M  V30 2451 C 222.645 -0.404212 -2.29975 0
M  V30 2452 C 223.626 0.523784 -1.61835 0
M  V30 2453 O 224.811 0.433298 -1.89304 0
M  V30 2454 C 221.941 0.364042 -3.45387 0
M  V30 2455 C 220.895 -0.474048 -4.25367 0
M  V30 2456 C 220.221 0.422045 -5.33032 0
M  V30 2457 C 221.521 -1.72696 -4.92923 0
M  V30 2458 H 223.215 -1.24807 -2.72146 0
M  V30 2459 H 220.761 -0.601585 -1.30832 0
M  V30 2460 H 222.714 0.725447 -4.15109 0
M  V30 2461 H 221.438 1.24174 -3.02074 0
M  V30 2462 H 220.097 -0.81786 -3.57361 0
M  V30 2463 H 219.745 1.29804 -4.85963 0
M  V30 2464 H 219.445 -0.135057 -5.87445 0
M  V30 2465 H 220.969 0.779517 -6.05604 0
M  V30 2466 H 222.383 -1.43495 -5.55051 0
M  V30 2467 H 220.78 -2.22582 -5.57295 0
M  V30 2468 H 221.85 -2.45964 -4.17887 0
M  V30 2469 N 223.193 1.4272 -0.668489 0
M  V30 2470 C 224.604 1.84793 -0.266151 0
M  V30 2471 C 224.955 1.55959 1.19043 0
M  V30 2472 O 224.08 1.01622 1.91055 0
M  V30 2473 C 224.675 3.35436 -0.476271 0
M  V30 2474 C 223.234 3.76182 -0.128113 0
M  V30 2475 C 222.381 2.66344 -0.771777 0
M  V30 2476 H 225.332 1.32656 -0.871098 0
M  V30 2477 H 225.353 3.79515 0.273561 0
M  V30 2478 H 224.865 3.5639 -1.53647 0
M  V30 2479 H 222.966 3.60836 0.928891 0
M  V30 2480 H 223.079 4.75766 -0.564231 0
M  V30 2481 H 221.443 2.53885 -0.203652 0
M  V30 2482 H 222.226 2.90123 -1.83531 0
M  V30 2483 N 224.671 0.411399 1.52136 0
M  V30 2484 C 225.603 -0.448386 2.24771 0
M  V30 2485 C 226.616 -1.00828 1.27818 0
M  V30 2486 O 227.805 -0.906841 1.53749 0
M  V30 2487 C 224.905 -1.63636 2.96777 0
M  V30 2488 C 224.078 -1.19995 4.20618 0
M  V30 2489 C 223.137 -2.25509 4.75428 0
M  V30 2490 O 222.163 -1.86007 5.3795 0
M  V30 2491 N 223.365 -3.577 4.57199 0
M  V30 2492 H 226.13 0.174025 2.99194 0
M  V30 2493 H 223.691 0.238897 1.60128 0
M  V30 2494 H 225.683 -2.33793 3.30338 0
M  V30 2495 H 224.253 -2.16465 2.25526 0
M  V30 2496 H 223.473 -0.326421 3.92846 0
M  V30 2497 H 224.761 -0.885365 5.01038 0
M  V30 2498 H 224.159 -3.92543 4.07341 0
M  V30 2499 H 222.716 -4.23827 4.95191 0
M  V30 2500 N 226.149 -1.5696 0.141893 0
M  V30 2501 C 227.379 -2.00031 -0.516828 0
M  V30 2502 C 227.787 -1.02091 -1.59293 0
M  V30 2503 O 227.13 -0.00909657 -1.83698 0
M  V30 2504 C 227.192 -3.39534 -1.1814 0
M  V30 2505 C 226.856 -4.56313 -0.250513 0
M  V30 2506 C 227.853 -5.17295 0.519839 0
M  V30 2507 C 225.538 -5.02061 -0.154907 0
M  V30 2508 C 227.532 -6.2243 1.3733 0
M  V30 2509 C 225.219 -6.07053 0.702161 0
M  V30 2510 C 226.217 -6.67106 1.46487 0
M  V30 2511 O 225.905 -7.70066 2.30767 0
M  V30 2512 H 225.637 -0.661451 -0.139493 0
M  V30 2513 H 228.191 -2.04086 0.231926 0
M  V30 2514 H 226.421 -3.32302 -1.97769 0
M  V30 2515 H 228.11 -3.66745 -1.73933 0
M  V30 2516 H 228.876 -4.82852 0.45598 0
M  V30 2517 H 224.755 -4.5505 -0.7383 0
M  V30 2518 H 228.299 -6.69233 1.96909 0
M  V30 2519 H 224.196 -6.40923 0.76733 0
M  V30 2520 H 224.964 -7.87264 2.23959 0
M  V30 2521 N 227.627 0.131896 -1.57047 0
M  V30 2522 C 228.557 1.16384 -2.02428 0
M  V30 2523 C 229.538 1.43936 -0.90644 0
M  V30 2524 O 230.723 1.54599 -1.17528 0
M  V30 2525 C 227.853 2.49328 -2.4177 0
M  V30 2526 C 226.807 2.36266 -3.56879 0
M  V30 2527 C 226.133 3.74057 -3.8208 0
M  V30 2528 C 227.433 1.834 -4.89042 0
M  V30 2529 H 229.127 0.786433 -2.88887 0
M  V30 2530 H 226.673 0.376855 -1.38981 0
M  V30 2531 H 228.626 3.21759 -2.7212 0
M  V30 2532 H 227.35 2.88934 -1.52266 0
M  V30 2533 H 226.009 1.66286 -3.26718 0
M  V30 2534 H 225.657 4.11125 -2.89803 0
M  V30 2535 H 225.357 3.66174 -4.59554 0
M  V30 2536 H 226.881 4.48012 -4.1487 0
M  V30 2537 H 228.295 2.45636 -5.18011 0
M  V30 2538 H 226.692 1.8637 -5.70426 0
M  V30 2539 H 227.762 0.790662 -4.7841 0
M  V30 2540 N 229.106 1.52395 0.401703 0
M  V30 2541 C 230.383 1.57387 1.16141 0
M  V30 2542 C 230.763 0.359359 2.08019 0
M  V30 2543 O 230.111 -0.65326 2.18963 0
M  V30 2544 C 230.321 2.90631 1.93221 0
M  V30 2545 C 231.669 3.43904 2.49028 0
M  V30 2546 O 232.693 2.92421 2.03393 0
M  V30 2547 O 231.552 4.33823 3.32356 0
M  V30 2548 H 228.646 0.634262 0.530698 0
M  V30 2549 H 231.192 1.64725 0.407883 0
M  V30 2550 H 229.964 3.70473 1.25958 0
M  V30 2551 H 229.587 2.8662 2.75563 0
M  V30 2552 N 230.584 -0.659388 1.43143 0
M  V30 2553 C 231.516 -1.7849 1.43784 0
M  V30 2554 C 232.529 -1.5932 0.334787 0
M  V30 2555 O 233.718 -1.68155 0.598842 0
M  V30 2556 C 230.818 -3.15828 1.22906 0
M  V30 2557 C 229.991 -3.61711 2.45934 0
M  V30 2558 C 229.05 -4.77831 2.20371 0
M  V30 2559 O 228.076 -4.87586 2.93681 0
M  V30 2560 N 229.278 -5.67611 1.21647 0
M  V30 2561 H 232.043 -1.7842 2.40803 0
M  V30 2562 H 229.604 -0.84302 1.3822 0
M  V30 2563 H 231.596 -3.91189 1.03697 0
M  V30 2564 H 230.166 -3.10707 0.343542 0
M  V30 2565 H 229.386 -2.76861 2.80609 0
M  V30 2566 H 230.674 -3.89112 3.27825 0
M  V30 2567 H 230.072 -5.62397 0.610449 0
M  V30 2568 H 228.629 -6.42719 1.08423 0
M  V30 2569 N 232.062 -1.29571 -0.897171 0
M  V30 2570 C 233.339 -1.08365 -1.62839 0
M  V30 2571 C 233.719 0.371331 -2.07808 0
M  V30 2572 O 233.067 1.3606 -1.83576 0
M  V30 2573 C 233.277 -2.0735 -2.80726 0
M  V30 2574 C 234.625 -2.38406 -3.51351 0
M  V30 2575 O 235.649 -2.05564 -2.90898 0
M  V30 2576 O 234.508 -2.9453 -4.60341 0
M  V30 2577 H 231.602 -0.415345 -0.715134 0
M  V30 2578 H 234.148 -1.40952 -0.945018 0
M  V30 2579 H 232.92 -3.05339 -2.44711 0
M  V30 2580 H 232.543 -1.75507 -3.56767 0
M  V30 2581 N 233.54 1.10788 -1.12088 0
M  V30 2582 C 234.47 2.19083 -0.807755 0
M  V30 2583 C 235.451 1.6858 0.226859 0
M  V30 2584 O 236.636 1.93997 0.0888475 0
M  V30 2585 C 233.766 3.46344 -0.257576 0
M  V30 2586 C 232.72 4.101 -1.22483 0
M  V30 2587 C 232.046 5.32016 -0.535052 0
M  V30 2588 C 233.346 4.54236 -2.57811 0
M  V30 2589 H 235.04 2.45534 -1.71328 0
M  V30 2590 H 232.586 1.1801 -0.825205 0
M  V30 2591 H 234.539 4.21392 -0.0262679 0
M  V30 2592 H 233.263 3.19373 0.683278 0
M  V30 2593 H 231.922 3.37054 -1.44189 0
M  V30 2594 H 231.57 5.01319 0.410827 0
M  V30 2595 H 231.27 5.75625 -1.18024 0
M  V30 2596 H 232.794 6.09799 -0.312695 0
M  V30 2597 H 234.208 5.20575 -2.40155 0
M  V30 2598 H 232.605 5.08682 -3.18375 0
M  V30 2599 H 233.675 3.6734 -3.16528 0
M  V30 2600 N 235.018 0.912232 1.28515 0
M  V30 2601 C 236.248 0.559604 1.98877 0
M  V30 2602 C 236.656 -0.863113 1.68366 0
M  V30 2603 O 235.999 -1.58304 0.931969 0
M  V30 2604 C 236.061 0.68703 3.52874 0
M  V30 2605 C 235.725 2.07901 4.06972 0
M  V30 2606 C 236.722 3.05157 4.20922 0
M  V30 2607 C 234.407 2.39178 4.417 0
M  V30 2608 C 236.401 4.31806 4.68852 0
M  V30 2609 C 234.088 3.66068 4.89324 0
M  V30 2610 C 235.086 4.62195 5.02856 0
M  V30 2611 O 234.774 5.86829 5.49442 0
M  V30 2612 H 234.506 0.212191 0.641834 0
M  V30 2613 H 237.06 1.22712 1.64715 0
M  V30 2614 H 235.29 -0.0375486 3.86682 0
M  V30 2615 H 236.979 0.341727 4.04459 0
M  V30 2616 H 237.745 2.82311 3.94367 0
M  V30 2617 H 233.624 1.65109 4.30418 0
M  V30 2618 H 237.168 5.06842 4.79329 0
M  V30 2619 H 233.065 3.88739 5.15318 0
M  V30 2620 H 233.833 5.89597 5.6773 0
M  V30 2621 N 236.496 -1.42363 0.676048 0
M  V30 2622 C 237.745 -2.00745 0.196037 0
M  V30 2623 C 238.058 -1.54083 -1.20489 0
M  V30 2624 O 239.264 -2.04891 -1.78134 0
M  V30 2625 C 237.72 -3.58651 0.299616 0
M  V30 2626 C 237.328 -4.143 1.70468 0
M  V30 2627 C 239.072 -4.24326 -0.121619 0
M  V30 2628 C 236.979 -5.64574 1.76096 0
M  V30 2629 H 235.909 -0.750787 0.0695301 0
M  V30 2630 H 238.56 -1.63072 0.841412 0
M  V30 2631 H 236.942 -3.93833 -0.413673 0
M  V30 2632 H 238.116 -3.90575 2.44515 0
M  V30 2633 H 236.431 -3.61081 2.07387 0
M  V30 2634 H 239.028 -5.34607 -0.0997362 0
M  V30 2635 H 239.371 -3.99897 -1.15708 0
M  V30 2636 H 239.904 -3.94108 0.540706 0
M  V30 2637 H 236.643 -5.93804 2.77628 0
M  V30 2638 H 236.163 -5.90286 1.06406 0
M  V30 2639 H 237.842 -6.29013 1.51496 0
M  V30 2640 N 237.974 -0.419461 -1.51915 0
M  V30 2641 C 239.22 0.153166 -2.02221 0
M  V30 2642 C 239.553 1.43907 -1.30401 0
M  V30 2643 O 238.828 1.90055 -0.413438 0
M  V30 2644 C 239.111 0.390291 -3.57979 0
M  V30 2645 C 238.964 -0.913014 -4.40436 0
M  V30 2646 C 240.283 1.16794 -4.2432 0
M  V30 2647 H 237.402 0.0541924 -0.735005 0
M  V30 2648 H 240.044 -0.554955 -1.81715 0
M  V30 2649 H 238.194 0.993491 -3.75582 0
M  V30 2650 H 239.866 -1.54882 -4.34522 0
M  V30 2651 H 238.109 -1.52168 -4.06236 0
M  V30 2652 H 238.78 -0.701361 -5.47526 0
M  V30 2653 H 241.256 0.657161 -4.10878 0
M  V30 2654 H 240.132 1.3026 -5.3322 0
M  V30 2655 H 240.393 2.19132 -3.83971 0
M  V30 2656 N 239.452 1.56882 -0.150215 0
M  V30 2657 C 240.701 1.95403 0.500071 0
M  V30 2658 C 241.014 1.03777 1.658 0
M  V30 2659 O 242.22 1.31889 2.37313 0
M  V30 2660 C 240.676 3.4738 0.941018 0
M  V30 2661 C 240.284 4.47596 -0.190158 0
M  V30 2662 C 242.028 3.9476 1.56091 0
M  V30 2663 C 239.935 5.90787 0.269237 0
M  V30 2664 H 238.865 0.729515 0.190588 0
M  V30 2665 H 241.516 1.81988 -0.235074 0
M  V30 2666 H 239.898 3.56138 1.73152 0
M  V30 2667 H 241.072 4.50536 -0.967157 0
M  V30 2668 H 239.387 4.10151 -0.718666 0
M  V30 2669 H 241.984 4.99181 1.9163 0
M  V30 2670 H 242.327 3.36494 2.45107 0
M  V30 2671 H 242.86 3.88932 0.835249 0
M  V30 2672 H 239.599 6.52879 -0.585621 0
M  V30 2673 H 239.119 5.912 1.01204 0
M  V30 2674 H 240.798 6.42979 0.720176 0
M  V30 2675 N 240.93 -0.123565 1.57115 0
M  V30 2676 C 241.878 -1.17082 2.00984 0
M  V30 2677 C 242.872 -1.43136 0.906009 0
M  V30 2678 O 244.078 -1.43152 1.09121 0
M  V30 2679 H 240.453 -0.394653 0.64012 0
M  V30 2680 H 242.424 -0.774292 2.88179 0
M  V30 2681 C 241.173 -2.49057 2.42623 0
M  V30 2682 H 240.496 -2.29846 3.27125 0
M  V30 2683 H 241.936 -3.20906 2.7712 0
M  V30 2684 C 240.395 -3.11305 1.28805 0
M  V30 2685 O 240.925 -3.97171 0.60153 0
M  V30 2686 N 239.131 -2.71111 1.04628 0
M  V30 2687 H 238.678 -2.01382 1.60634 0
M  V30 2688 H 238.636 -3.1309 0.286685 0
M  V30 2689 N 242.408 -1.52605 -0.393616 0
M  V30 2690 C 243.656 -1.67093 -1.13685 0
M  V30 2691 C 243.977 -0.411011 -1.90619 0
M  V30 2692 O 243.247 0.574491 -1.87287 0
M  V30 2693 H 241.827 -0.615923 -0.422668 0
M  V30 2694 H 244.489 -1.89704 -0.447039 0
M  V30 2695 H 243.585 -2.51922 -1.84232 0
M  V30 2696 N 243.887 0.651787 -1.4349 0
M  V30 2697 C 245.135 1.40888 -1.44897 0
M  V30 2698 C 245.456 1.94856 -0.0749086 0
M  V30 2699 O 244.726 1.74518 0.889956 0
M  V30 2700 H 243.306 0.522887 -0.533478 0
M  V30 2701 H 245.968 0.768609 -1.79104 0
M  V30 2702 H 245.064 2.25052 -2.16236 0
M  V30 2703 N 245.365 1.30045 0.890287 0
M  V30 2704 C 246.611 1.18737 1.64406 0
M  V30 2705 C 246.944 -0.258525 1.92472 0
M  V30 2706 O 246.219 -1.18562 1.54186 0
M  V30 2707 C 246.502 2.01087 2.98724 0
M  V30 2708 C 246.355 3.53867 2.77665 0
M  V30 2709 C 247.674 1.84457 3.9958 0
M  V30 2710 H 244.793 0.432698 0.596608 0
M  V30 2711 H 247.435 1.5962 1.0306 0
M  V30 2712 H 245.585 1.66349 3.51084 0
M  V30 2713 H 247.257 3.98637 2.32133 0
M  V30 2714 H 245.5 3.78318 2.12269 0
M  V30 2715 H 246.171 4.06772 3.7315 0
M  V30 2716 H 248.647 2.14817 3.56361 0
M  V30 2717 H 247.523 2.44411 4.91482 0
M  V30 2718 H 247.784 0.802276 4.3476 0
M  V30 2719 N 246.843 -1.10192 1.12674 0
M  V30 2720 C 247.753 -2.20172 0.810026 0
M  V30 2721 C 248.769 -1.72821 -0.202188 0
M  V30 2722 O 249.945 -2.01369 -0.0351691 0
M  V30 2723 C 247.01 -3.45631 0.272007 0
M  V30 2724 C 246.071 -4.07704 1.34447 0
M  V30 2725 C 245.304 -5.27175 0.832029 0
M  V30 2726 O 245.527 -5.69425 -0.333284 0
M  V30 2727 O 244.461 -5.80168 1.60277 0
M  V30 2728 H 248.287 -2.49701 1.72867 0
M  V30 2729 H 245.872 -1.18977 0.903597 0
M  V30 2730 H 247.754 -4.21394 -0.0230219 0
M  V30 2731 H 246.429 -3.17723 -0.619164 0
M  V30 2732 H 245.336 -3.33614 1.6927 0
M  V30 2733 H 246.669 -4.3982 2.2095 0
M  V30 2734 N 248.321 -0.919034 -1.28029 0
M  V30 2735 C 249.231 -0.416756 -2.30869 0
M  V30 2736 C 250.247 0.498235 -1.66714 0
M  V30 2737 O 251.423 0.383144 -1.97722 0
M  V30 2738 C 248.488 0.330274 -3.45123 0
M  V30 2739 C 247.549 -0.618578 -4.2482 0
M  V30 2740 C 246.782 0.0928959 -5.33619 0
M  V30 2741 O 247.005 1.31375 -5.55065 0
M  V30 2742 O 245.939 -0.574499 -5.99152 0
M  V30 2743 H 249.765 -1.27043 -2.75851 0
M  V30 2744 H 247.35 -0.684052 -1.3282 0
M  V30 2745 H 249.232 0.751972 -4.14636 0
M  V30 2746 H 247.907 1.1597 -3.02213 0
M  V30 2747 H 246.814 -1.08978 -3.57875 0
M  V30 2748 H 248.147 -1.41497 -4.71423 0
M  V30 2749 N 249.799 1.42003 -0.683588 0
M  V30 2750 C 251.027 2.05746 -0.218182 0
M  V30 2751 C 251.442 1.51396 1.12804 0
M  V30 2752 O 250.799 0.657303 1.70252 0
M  V30 2753 C 250.85 3.61171 -0.154131 0
M  V30 2754 O 250.571 4.13508 -1.44716 0
M  V30 2755 C 252.072 4.42042 0.333713 0
M  V30 2756 H 249.292 0.662888 -0.10402 0
M  V30 2757 H 251.836 1.81987 -0.9328 0
M  V30 2758 H 249.991 3.84012 0.511231 0
M  V30 2759 H 250.405 5.07453 -1.32632 0
M  V30 2760 H 251.879 5.51028 0.327423 0
M  V30 2761 H 252.356 4.17269 1.37053 0
M  V30 2762 H 252.962 4.24239 -0.300222 0
M  V30 2763 N 251.277 0.427512 1.51691 0
M  V30 2764 C 252.505 -0.141191 2.06418 0
M  V30 2765 C 252.92 -1.37303 1.29589 0
M  V30 2766 O 252.277 -1.79059 0.352732 0
M  V30 2767 C 252.328 -0.473266 3.58389 0
M  V30 2768 O 252.049 0.709673 4.32314 0
M  V30 2769 C 253.55 -1.09371 4.29596 0
M  V30 2770 H 250.77 -0.0122747 0.670888 0
M  V30 2771 H 253.314 0.603764 1.95384 0
M  V30 2772 H 251.469 -1.16812 3.69369 0
M  V30 2773 H 251.883 0.42807 5.2275 0
M  V30 2774 H 253.357 -1.27613 5.37046 0
M  V30 2775 H 253.834 -2.072 3.87253 0
M  V30 2776 H 254.44 -0.43853 4.23033 0
M  V30 2777 N 252.755 -1.56801 0.158532 0
M  V30 2778 C 253.665 -2.20916 -0.789518 0
M  V30 2779 C 254.681 -1.1969 -1.26294 0
M  V30 2780 O 255.857 -1.52308 -1.31773 0
M  V30 2781 C 252.922 -2.82727 -2.00665 0
M  V30 2782 C 251.983 -3.99114 -1.58134 0
M  V30 2783 C 251.216 -4.57968 -2.74045 0
M  V30 2784 O 251.439 -4.15704 -3.90572 0
M  V30 2785 O 250.373 -5.48047 -2.48855 0
M  V30 2786 H 254.199 -3.02464 -0.273681 0
M  V30 2787 H 251.784 -1.4924 -0.0690548 0
M  V30 2788 H 253.666 -3.21968 -2.71872 0
M  V30 2789 H 252.341 -2.04184 -2.51179 0
M  V30 2790 H 251.248 -3.64567 -0.839155 0
M  V30 2791 H 252.581 -4.79212 -1.12325 0
M  V30 2792 N 254.233 0.115231 -1.57178 0
M  V30 2793 C 255.163 1.1423 -2.03651 0
M  V30 2794 C 256.144 1.42967 -0.921655 0
M  V30 2795 O 257.329 1.53343 -1.19162 0
M  V30 2796 C 254.459 2.4675 -2.44401 0
M  V30 2797 C 253.413 2.32467 -3.59365 0
M  V30 2798 C 252.739 3.69984 -3.86026 0
M  V30 2799 C 254.039 1.78203 -4.90959 0
M  V30 2800 H 255.733 0.755749 -2.89705 0
M  V30 2801 H 253.279 0.362093 -1.39373 0
M  V30 2802 H 255.232 3.18854 -2.75517 0
M  V30 2803 H 253.956 2.87302 -1.55322 0
M  V30 2804 H 252.615 1.62811 -3.28463 0
M  V30 2805 H 252.263 4.08028 -2.94147 0
M  V30 2806 H 251.963 3.61279 -4.63412 0
M  V30 2807 H 253.487 4.43587 -4.19599 0
M  V30 2808 H 254.901 2.40128 -5.20587 0
M  V30 2809 H 253.298 1.8031 -5.72371 0
M  V30 2810 H 254.368 0.739876 -4.79222 0
M  V30 2811 N 255.711 1.52812 0.385517 0
M  V30 2812 C 256.641 1.80808 1.47752 0
M  V30 2813 C 257.622 0.660318 1.5676 0
M  V30 2814 O 258.807 0.908246 1.71652 0
M  V30 2815 C 255.937 1.98008 2.85324 0
M  V30 2816 C 254.891 3.13709 2.91154 0
M  V30 2817 C 254.217 3.16169 4.31209 0
M  V30 2818 C 255.517 4.52709 2.60483 0
M  V30 2819 H 257.211 2.72253 1.24573 0
M  V30 2820 H 254.757 1.31003 0.597839 0
M  V30 2821 H 256.71 2.16176 3.61726 0
M  V30 2822 H 255.434 1.03255 3.09848 0
M  V30 2823 H 254.093 2.95329 2.17201 0
M  V30 2824 H 253.741 2.19092 4.52778 0
M  V30 2825 H 253.441 3.93894 4.36029 0
M  V30 2826 H 254.965 3.36496 5.09512 0
M  V30 2827 H 256.379 4.71173 3.26602 0
M  V30 2828 H 254.776 5.32528 2.76648 0
M  V30 2829 H 255.846 4.59186 1.55809 0
M  V30 2830 N 257.189 -0.644168 1.43834 0
M  V30 2831 C 258.136 -1.75671 1.49694 0
M  V30 2832 C 259.106 -1.6246 0.345809 0
M  V30 2833 O 260.291 -1.82573 0.554234 0
M  V30 2834 C 257.431 -3.13867 1.43463 0
M  V30 2835 C 256.544 -3.38147 2.6885 0
M  V30 2836 C 255.679 -4.66241 2.54544 0
M  V30 2837 C 254.718 -4.83657 3.75157 0
M  V30 2838 N 253.855 -6.03016 3.59605 0
M  V30 2839 H 258.695 -1.69998 2.44754 0
M  V30 2840 H 256.232 -0.829458 1.21484 0
M  V30 2841 H 258.19 -3.9377 1.37843 0
M  V30 2842 H 256.82 -3.18588 0.519783 0
M  V30 2843 H 255.872 -2.52276 2.84712 0
M  V30 2844 H 257.184 -3.46899 3.58417 0
M  V30 2845 H 256.338 -5.54285 2.46683 0
M  V30 2846 H 255.077 -4.59826 1.62516 0
M  V30 2847 H 254.082 -3.94046 3.83416 0
M  V30 2848 H 255.307 -4.91896 4.68204 0
M  V30 2849 H 253.253 -5.97715 2.7032 0
M  V30 2850 H 253.17 -6.12766 4.42779 0
M  V30 2851 H 254.438 -6.93657 3.55613 0
M  V30 2852 N 258.668 -1.30515 -0.883378 0
M  V30 2853 C 259.6 -1.12846 -1.99496 0
M  V30 2854 C 260.613 -0.0712571 -1.62644 0
M  V30 2855 O 261.802 -0.317432 -1.75655 0
M  V30 2856 C 258.902 -0.699123 -3.3161 0
M  V30 2857 C 258.075 -1.83842 -3.96889 0
M  V30 2858 C 257.134 -1.39737 -5.07307 0
M  V30 2859 O 256.16 -2.10485 -5.28852 0
M  V30 2860 N 257.362 -0.277279 -5.79837 0
M  V30 2861 H 260.127 -2.08585 -2.15203 0
M  V30 2862 H 257.688 -1.22672 -1.05656 0
M  V30 2863 H 259.68 -0.387044 -4.02845 0
M  V30 2864 H 258.25 0.166276 -3.12157 0
M  V30 2865 H 257.47 -2.31853 -3.18807 0
M  V30 2866 H 258.758 -2.60187 -4.37241 0
M  V30 2867 H 258.156 0.3122 -5.64838 0
M  V30 2868 H 256.713 -0.0246623 -6.51795 0
M  V30 2869 N 260.146 1.09593 -1.13257 0
M  V30 2870 C 261.562 1.33775 -0.870423 0
M  V30 2871 C 261.762 1.95327 0.494926 0
M  V30 2872 O 260.818 2.19853 1.2418 0
M  V30 2873 C 262.131 2.25106 -1.99369 0
M  V30 2874 C 263.679 2.3862 -2.02558 0
M  V30 2875 C 264.154 3.33285 -3.14142 0
M  V30 2876 N 265.645 3.40857 -3.13641 0
M  V30 2877 C 266.38 4.14101 -3.96621 0
M  V30 2878 N 265.876 4.90157 -4.8961 0
M  V30 2879 N 267.669 4.09808 -3.84726 0
M  V30 2880 H 259.82 0.680136 -2.01216 0
M  V30 2881 H 262.083 0.362133 -0.876107 0
M  V30 2882 H 261.789 1.87103 -2.97801 0
M  V30 2883 H 261.663 3.25481 -1.90635 0
M  V30 2884 H 264.05 2.75887 -1.0474 0
M  V30 2885 H 264.131 1.38028 -2.15364 0
M  V30 2886 H 263.775 2.96741 -4.12198 0
M  V30 2887 H 263.705 4.33776 -2.98574 0
M  V30 2888 H 266.196 2.86624 -2.46282 0
M  V30 2889 H 266.509 5.4347 -5.49418 0
M  V30 2890 H 264.854 4.89251 -4.93617 0
M  V30 2891 H 268.045 3.4949 -3.11408 0
M  V30 2892 H 268.218 4.66629 -4.49623 0
M  V30 2893 N 261.624 0.925811 1.2754 0
M  V30 2894 C 262.871 0.565255 1.94451 0
M  V30 2895 C 263.199 -0.89316 1.7278 0
M  V30 2896 O 262.454 -1.65213 1.04895 0
M  V30 2897 C 262.753 0.835296 3.47502 0
M  V30 2898 C 262.419 2.27515 3.89291 0
M  V30 2899 C 261.081 2.66879 4.00411 0
M  V30 2900 C 263.433 3.21158 4.10496 0
M  V30 2901 C 260.761 3.99014 4.30122 0
M  V30 2902 C 263.113 4.52871 4.4169 0
M  V30 2903 C 261.777 4.92072 4.51023 0
M  V30 2904 H 261.047 0.206841 0.711546 0
M  V30 2905 H 263.694 1.16942 1.51647 0
M  V30 2906 H 261.999 0.148442 3.91519 0
M  V30 2907 H 263.696 0.535322 3.97411 0
M  V30 2908 H 260.286 1.95976 3.81171 0
M  V30 2909 H 264.47 2.9195 4.01346 0
M  V30 2910 H 259.726 4.2907 4.35556 0
M  V30 2911 H 263.9 5.25436 4.57045 0
M  V30 2912 H 261.527 5.9449 4.738 0
M  V30 2913 N 263.102 -1.41638 0.69111 0
M  V30 2914 C 264.379 -1.95036 0.148421 0
M  V30 2915 C 264.759 -1.63072 -1.34055 0
M  V30 2916 O 264.107 -0.93538 -2.08478 0
M  V30 2917 C 264.317 -3.46279 0.434951 0
M  V30 2918 C 265.665 -4.23069 0.360275 0
M  V30 2919 O 266.689 -3.54277 0.369613 0
M  V30 2920 O 265.548 -5.45583 0.316534 0
M  V30 2921 H 262.642 -0.826908 0.0123654 0
M  V30 2922 H 265.188 -1.5138 0.766963 0
M  V30 2923 H 263.96 -3.6281 1.46576 0
M  V30 2924 H 263.583 -3.97019 -0.214787 0
M  V30 2925 N 264.58 -0.43555 -1.51462 0
M  V30 2926 C 265.53 0.394701 -2.24558 0
M  V30 2927 C 266.514 0.99157 -1.26715 0
M  V30 2928 O 267.706 0.910007 -1.51815 0
M  V30 2929 C 264.835 1.4963 -3.08975 0
M  V30 2930 C 263.921 0.908912 -4.14246 0
M  V30 2931 N 264.312 0.0505335 -5.05775 0
M  V30 2932 C 262.61 1.17668 -4.30198 0
M  V30 2933 C 263.311 -0.279161 -5.8103 0
M  V30 2934 N 262.287 0.336767 -5.42556 0
M  V30 2935 H 266.089 -0.267106 -2.92684 0
M  V30 2936 H 263.603 -0.247518 -1.60503 0
M  V30 2937 H 265.6 2.10394 -3.59917 0
M  V30 2938 H 264.26 2.16046 -2.42393 0
M  V30 2939 H 265.271 -0.31577 -5.16936 0
M  V30 2940 H 261.948 1.83847 -3.74842 0
M  V30 2941 H 263.338 -0.977553 -6.64751 0
M  V30 2942 N 266.058 1.56714 -0.166846 0
M  V30 2943 C 267.307 1.95922 0.479318 0
M  V30 2944 C 267.62 1.05529 1.6469 0
M  V30 2945 O 268.826 1.34399 2.35901 0
M  V30 2946 C 267.282 3.48359 0.90412 0
M  V30 2947 C 266.89 4.47369 -0.237621 0
M  V30 2948 C 268.634 3.96394 1.51896 0
M  V30 2949 C 266.541 5.91039 0.206561 0
M  V30 2950 H 265.471 0.731495 0.18284 0
M  V30 2951 H 268.122 1.81728 -0.254363 0
M  V30 2952 H 266.504 3.57955 1.69365 0
M  V30 2953 H 267.678 4.49485 -1.01489 0
M  V30 2954 H 265.993 4.09366 -0.762128 0
M  V30 2955 H 268.59 5.01186 1.86325 0
M  V30 2956 H 268.933 3.39075 2.41524 0
M  V30 2957 H 269.466 3.89796 0.79395 0
M  V30 2958 H 266.205 6.52221 -0.654834 0
M  V30 2959 H 265.725 5.9224 0.949282 0
M  V30 2960 H 267.404 6.43707 0.651939 0
M  V30 2961 N 267.536 -0.106894 1.57237 0
M  V30 2962 C 268.783 -0.812526 1.85484 0
M  V30 2963 C 269.111 -1.79304 0.753687 0
M  V30 2964 O 268.366 -1.94047 -0.253853 0
M  V30 2965 C 268.665 -1.58628 3.20268 0
M  V30 2966 C 268.331 -0.748967 4.44636 0
M  V30 2967 C 266.993 -0.518104 4.78403 0
M  V30 2968 C 269.345 -0.166122 5.20935 0
M  V30 2969 C 266.673 0.305659 5.85903 0
M  V30 2970 C 269.025 0.644899 6.29304 0
M  V30 2971 C 267.689 0.885965 6.61594 0
M  V30 2972 H 266.959 -0.297324 0.678734 0
M  V30 2973 H 269.606 -0.0744332 1.91355 0
M  V30 2974 H 267.911 -2.39562 3.10028 0
M  V30 2975 H 269.608 -2.13643 3.39349 0
M  V30 2976 H 266.198 -0.939006 4.18187 0
M  V30 2977 H 270.382 -0.33167 4.95191 0
M  V30 2978 H 265.638 0.501528 6.0934 0
M  V30 2979 H 269.812 1.10345 6.87602 0
M  V30 2980 H 267.439 1.52609 7.44725 0
M  V30 2981 N 269.014 -1.53014 -0.377408 0
M  V30 2982 C 270.244 -1.72265 -1.14054 0
M  V30 2983 C 270.652 -0.44601 -1.83868 0
M  V30 2984 O 269.995 0.590095 -1.73964 0
M  V30 2985 C 270.057 -2.82492 -2.22348 0
M  V30 2986 C 269.721 -4.23233 -1.72402 0
M  V30 2987 C 270.718 -5.05992 -1.19448 0
M  V30 2988 C 268.403 -4.696 -1.78273 0
M  V30 2989 C 270.397 -6.33203 -0.730268 0
M  V30 2990 C 268.084 -5.96792 -1.31464 0
M  V30 2991 C 269.082 -6.78424 -0.789297 0
M  V30 2992 O 268.77 -8.0323 -0.328077 0
M  V30 2993 H 268.502 -0.579873 -0.347453 0
M  V30 2994 H 271.056 -2.00502 -0.445882 0
M  V30 2995 H 269.286 -2.49702 -2.95272 0
M  V30 2996 H 270.975 -2.90034 -2.83963 0
M  V30 2997 H 271.741 -4.71349 -1.14259 0
M  V30 2998 H 267.62 -4.06142 -2.18106 0
M  V30 2999 H 271.164 -6.96868 -0.319542 0
M  V30 3000 H 267.061 -6.30937 -1.36342 0
M  V30 3001 H 267.829 -8.1727 -0.448493 0
M  V30 3002 N 270.492 0.636531 -1.44174 0
M  V30 3003 C 271.72 1.42353 -1.50144 0
M  V30 3004 C 272.135 1.88389 -0.124575 0
M  V30 3005 O 271.492 1.6051 0.868489 0
M  V30 3006 C 271.543 2.64744 -2.46156 0
M  V30 3007 O 271.264 2.20629 -3.7849 0
M  V30 3008 C 272.765 3.57929 -2.61537 0
M  V30 3009 H 269.985 0.436752 -0.5094 0
M  V30 3010 H 272.529 0.778933 -1.89084 0
M  V30 3011 H 270.684 3.25307 -2.10366 0
M  V30 3012 H 271.098 2.99938 -4.30276 0
M  V30 3013 H 272.572 4.40428 -3.32757 0
M  V30 3014 H 273.049 4.06382 -1.66585 0
M  V30 3015 H 273.655 3.03238 -2.98206 0
M  V30 3016 N 271.97 1.30982 0.876444 0
M  V30 3017 C 273.218 1.20058 1.62575 0
M  V30 3018 C 273.539 -0.242947 1.93481 0
M  V30 3019 O 272.809 -1.1619 1.57724 0
M  V30 3020 H 271.389 0.44135 0.602677 0
M  V30 3021 H 274.051 1.64222 1.04962 0
M  V30 3022 H 273.147 1.76762 2.57219 0
M  V30 3023 N 273.449 -1.08991 1.13837 0
M  V30 3024 C 274.397 -2.17841 0.815347 0
M  V30 3025 C 275.391 -1.68164 -0.204233 0
M  V30 3026 O 276.597 -1.79897 -0.0609304 0
M  V30 3027 H 272.972 -0.710654 0.245915 0
M  V30 3028 H 274.943 -2.42315 1.74143 0
M  V30 3029 C 273.692 -3.46381 0.302614 0
M  V30 3030 H 273.015 -3.84979 1.0785 0
M  V30 3031 H 274.455 -4.23844 0.115074 0
M  V30 3032 C 272.914 -3.22556 -0.972591 0
M  V30 3033 O 273.444 -3.45599 -2.04754 0
M  V30 3034 N 271.65 -2.76134 -0.905455 0
M  V30 3035 H 271.197 -2.57582 -0.0305421 0
M  V30 3036 H 271.155 -2.60571 -1.75926 0
M  V30 3037 N 274.927 -0.932562 -1.27047 0
M  V30 3038 C 276.155 -0.592031 -1.98249 0
M  V30 3039 C 276.57 0.831062 -1.69525 0
M  V30 3040 O 275.927 1.55299 -0.958561 0
M  V30 3041 C 275.978 -0.814279 -3.5221 0
M  V30 3042 O 275.699 -2.18139 -3.7993 0
M  V30 3043 C 277.2 -0.483121 -4.4066 0
M  V30 3044 H 274.42 -0.223896 -0.632544 0
M  V30 3045 H 276.964 -1.25091 -1.61779 0
M  V30 3046 H 275.119 -0.20213 -3.86872 0
M  V30 3047 H 275.533 -2.235 -4.74498 0
M  V30 3048 H 277.007 -0.689298 -5.47679 0
M  V30 3049 H 277.484 0.581546 -4.35333 0
M  V30 3050 H 278.09 -1.07362 -4.11526 0
M  V30 3051 N 276.405 1.4127 -0.698611 0
M  V30 3052 C 277.368 2.29158 -0.044132 0
M  V30 3053 C 278.368 1.44529 0.704841 0
M  V30 3054 O 279.558 1.65643 0.539276 0
M  V30 3055 C 276.69 3.27459 0.947809 0
M  V30 3056 H 277.883 2.88529 -0.817994 0
M  V30 3057 H 275.436 1.49307 -0.46228 0
M  V30 3058 H 276.171 2.73073 1.74933 0
M  V30 3059 H 275.956 3.8991 0.41385 0
M  V30 3060 H 277.446 3.93311 1.40344 0
M  V30 3061 N 277.883 0.443576 1.51229 0
M  V30 3062 C 279.129 -0.120975 2.02439 0
M  V30 3063 C 279.462 -1.41815 1.32674 0
M  V30 3064 O 278.737 -1.89373 0.443622 0
M  V30 3065 C 279.02 -0.333291 3.58554 0
M  V30 3066 C 278.873 0.982968 4.38928 0
M  V30 3067 C 280.192 -1.10028 4.26124 0
M  V30 3068 H 277.311 -0.0424923 0.735774 0
M  V30 3069 H 279.953 0.583794 1.80809 0
M  V30 3070 H 278.103 -0.933614 3.77115 0
M  V30 3071 H 279.775 1.61775 4.32003 0
M  V30 3072 H 278.018 1.58611 4.03763 0
M  V30 3073 H 278.689 0.788379 5.46341 0
M  V30 3074 H 281.165 -0.591711 4.11871 0
M  V30 3075 H 280.041 -1.21761 5.35225 0
M  V30 3076 H 280.302 -2.12996 3.87408 0
M  V30 3077 N 279.361 -1.56624 0.175154 0
M  V30 3078 C 280.609 -1.96609 -0.467885 0
M  V30 3079 C 280.93 -1.06238 -1.63519 0
M  V30 3080 O 280.2 -0.129523 -1.95471 0
M  V30 3081 H 278.78 -0.726008 -0.175845 0
M  V30 3082 H 281.442 -1.93195 0.257234 0
M  V30 3083 H 280.538 -3.00989 -0.825342 0
M  V30 3084 N 280.839 0.0985539 -1.57292 0
M  V30 3085 C 281.786 1.11981 -2.01814 0
M  V30 3086 C 282.756 1.39999 -0.89384 0
M  V30 3087 O 283.941 1.5152 -1.15958 0
M  V30 3088 C 281.081 2.43577 -2.44467 0
M  V30 3089 C 280.194 2.2232 -3.70402 0
M  V30 3090 C 279.329 3.4729 -4.01949 0
M  V30 3091 C 278.368 3.2128 -5.21005 0
M  V30 3092 N 277.505 4.38507 -5.48321 0
M  V30 3093 H 282.345 0.733149 -2.88841 0
M  V30 3094 H 279.882 0.350482 -1.42864 0
M  V30 3095 H 281.84 3.20373 -2.6724 0
M  V30 3096 H 280.47 2.80097 -1.60455 0
M  V30 3097 H 279.522 1.36343 -3.55126 0
M  V30 3098 H 280.834 1.99089 -4.57345 0
M  V30 3099 H 279.988 4.32495 -4.25479 0
M  V30 3100 H 278.727 3.73572 -3.13521 0
M  V30 3101 H 277.732 2.34468 -4.97298 0
M  V30 3102 H 278.957 2.96348 -6.11028 0
M  V30 3103 H 276.903 4.64871 -4.62851 0
M  V30 3104 H 276.82 4.18455 -6.29628 0
M  V30 3105 H 278.088 5.24787 -5.76385 0
M  V30 3106 N 282.317 1.53212 0.369288 0
M  V30 3107 C 283.566 1.68436 1.10961 0
M  V30 3108 C 283.879 0.440738 1.9057 0
M  V30 3109 O 285.085 0.473446 2.6734 0
M  V30 3110 C 283.541 2.97744 2.0218 0
M  V30 3111 C 283.149 4.29355 1.279 0
M  V30 3112 C 284.893 3.22334 2.76226 0
M  V30 3113 C 282.8 5.49755 2.17999 0
M  V30 3114 H 281.73 0.627568 0.41794 0
M  V30 3115 H 284.381 1.79713 0.370884 0
M  V30 3116 H 282.763 2.8026 2.79768 0
M  V30 3117 H 283.937 4.57458 0.554007 0
M  V30 3118 H 282.252 4.11179 0.657311 0
M  V30 3119 H 284.849 4.09471 3.43857 0
M  V30 3120 H 285.192 2.38238 3.41392 0
M  V30 3121 H 285.725 3.40475 2.05723 0
M  V30 3122 H 282.464 6.36318 1.57417 0
M  V30 3123 H 281.984 5.25937 2.88359 0
M  V30 3124 H 283.663 5.84401 2.77641 0
M  V30 3125 N 283.795 -0.628877 1.44509 0
M  V30 3126 C 285.041 -1.39045 1.47629 0
M  V30 3127 C 285.374 -1.93892 0.109343 0
M  V30 3128 O 284.649 -1.7379 -0.87334 0
M  V30 3129 C 284.932 -2.55408 2.53848 0
M  V30 3130 C 284.785 -2.05896 3.99909 0
M  V30 3131 C 286.104 -3.5759 2.56549 0
M  V30 3132 H 283.223 -0.504232 0.537512 0
M  V30 3133 H 285.865 -0.710854 1.76201 0
M  V30 3134 H 284.015 -3.13384 2.29615 0
M  V30 3135 H 285.687 -1.52734 4.35282 0
M  V30 3136 H 283.93 -1.37061 4.11578 0
M  V30 3137 H 284.601 -2.89681 4.69882 0
M  V30 3138 H 287.077 -3.09419 2.78207 0
M  V30 3139 H 285.953 -4.36527 3.32769 0
M  V30 3140 H 286.214 -4.11808 1.60832 0
M  V30 3141 N 285.273 -1.31445 -0.869486 0
M  V30 3142 C 286.206 -1.13465 -1.97992 0
M  V30 3143 C 287.184 -0.0380291 -1.62556 0
M  V30 3144 O 288.368 -0.194544 -1.87493 0
M  V30 3145 C 285.495 -0.733822 -3.30655 0
M  V30 3146 C 284.541 -1.83356 -3.85075 0
M  V30 3147 S 285.374 -3.43909 -4.10472 0
M  V30 3148 C 286.53 -3.05763 -5.46132 0
M  V30 3149 H 286.763 -2.07471 -2.1294 0
M  V30 3150 H 284.296 -1.15936 -1.01972 0
M  V30 3151 H 286.254 -0.509306 -4.07328 0
M  V30 3152 H 284.915 0.187123 -3.13542 0
M  V30 3153 H 284.108 -1.50574 -4.80982 0
M  V30 3154 H 283.71 -2.01315 -3.15195 0
M  V30 3155 H 286.002 -2.54686 -6.27807 0
M  V30 3156 H 286.945 -4.00635 -5.83864 0
M  V30 3157 H 287.353 -2.43192 -5.09429 0
M  V30 3158 N 286.751 1.08385 -1.14413 0
M  V30 3159 C 287.661 2.18856 -0.844951 0
M  V30 3160 C 288.677 1.73121 0.174668 0
M  V30 3161 O 289.853 2.014 0.00312857 0
M  V30 3162 C 286.918 3.45155 -0.32696 0
M  V30 3163 C 285.979 4.05513 -1.40916 0
M  V30 3164 C 285.212 5.25784 -0.915793 0
M  V30 3165 O 285.435 5.69884 0.242651 0
M  V30 3166 O 284.369 5.77545 -1.69487 0
M  V30 3167 H 288.195 2.46919 -1.76818 0
M  V30 3168 H 285.78 1.17524 -0.922411 0
M  V30 3169 H 287.662 4.21377 -0.0440211 0
M  V30 3170 H 286.337 3.18668 0.568539 0
M  V30 3171 H 285.244 3.30879 -1.74556 0
M  V30 3172 H 286.577 4.3625 -2.27919 0
M  V30 3173 N 288.23 0.939286 1.26551 0
M  V30 3174 C 289.193 0.451987 2.24699 0
M  V30 3175 C 290.193 -0.435869 1.5478 0
M  V30 3176 O 291.383 -0.235314 1.72603 0
M  V30 3177 C 288.515 -0.348801 3.39111 0
M  V30 3178 H 289.708 1.3193 2.69322 0
M  V30 3179 H 287.261 0.721072 1.38673 0
M  V30 3180 H 287.996 -1.23444 2.99887 0
M  V30 3181 H 287.781 0.287945 3.91041 0
M  V30 3182 H 289.271 -0.679726 4.12031 0
M  V30 3183 N 289.708 -1.40897 0.706093 0
M  V30 3184 C 290.671 -2.29131 0.0562841 0
M  V30 3185 C 291.671 -1.44901 -0.697166 0
M  V30 3186 O 292.861 -1.65926 -0.530484 0
M  V30 3187 C 289.993 -3.27957 -0.93043 0
M  V30 3188 H 291.186 -2.88091 0.833284 0
M  V30 3189 H 288.739 -1.4906 0.470192 0
M  V30 3190 H 289.474 -2.73997 -1.73482 0
M  V30 3191 H 289.259 -3.90124 -0.393166 0
M  V30 3192 H 290.749 -3.94049 -1.38256 0
M  V30 3193 N 291.186 -0.45159 -1.50991 0
M  V30 3194 C 292.149 0.341117 -2.26647 0
M  V30 3195 C 293.149 0.937422 -1.30649 0
M  V30 3196 O 294.339 0.809644 -1.54241 0
M  V30 3197 C 291.471 1.48398 -3.06905 0
M  V30 3198 H 292.664 -0.322117 -2.98165 0
M  V30 3199 H 290.217 -0.205122 -1.54948 0
M  V30 3200 H 290.952 2.18284 -2.39838 0
M  V30 3201 H 290.737 1.06241 -3.77432 0
M  V30 3202 H 292.227 2.04367 -3.64176 0
M  V30 3203 N 292.664 1.56529 -0.183458 0
M  V30 3204 C 293.611 2.18546 0.742055 0
M  V30 3205 C 294.581 1.12912 1.2182 0
M  V30 3206 O 295.766 1.41115 1.28418 0
M  V30 3207 C 292.906 2.83977 1.96089 0
M  V30 3208 C 292.019 4.04105 1.52719 0
M  V30 3209 C 291.154 4.57427 2.70063 0
M  V30 3210 C 290.193 5.69938 2.23243 0
M  V30 3211 N 289.33 6.17717 3.33722 0
M  V30 3212 H 294.17 2.97284 0.206432 0
M  V30 3213 H 291.707 1.46823 0.0901571 0
M  V30 3214 H 293.665 3.20077 2.67594 0
M  V30 3215 H 292.295 2.07822 2.47002 0
M  V30 3216 H 291.347 3.73745 0.708436 0
M  V30 3217 H 292.659 4.85513 1.1436 0
M  V30 3218 H 291.813 4.95772 3.49708 0
M  V30 3219 H 290.552 3.75101 3.11689 0
M  V30 3220 H 289.557 5.31133 1.42048 0
M  V30 3221 H 290.782 6.54073 1.82661 0
M  V30 3222 H 288.728 5.38317 3.74902 0
M  V30 3223 H 288.645 6.94146 2.99495 0
M  V30 3224 H 289.913 6.60713 4.13616 0
M  V30 3225 N 294.142 -0.090211 1.57342 0
M  V30 3226 C 295.092 -1.11557 1.98844 0
M  V30 3227 C 296.076 -1.35503 0.867624 0
M  V30 3228 O 297.268 -1.36113 1.13148 0
M  V30 3229 C 294.397 -2.43446 2.42051 0
M  V30 3230 C 293.483 -2.22853 3.60828 0
M  V30 3231 N 293.874 -1.72141 4.75606 0
M  V30 3232 C 292.172 -2.53401 3.67021 0
M  V30 3233 C 292.873 -1.65932 5.57531 0
M  V30 3234 N 291.849 -2.11323 5.00843 0
M  V30 3235 H 295.651 -0.716499 2.85032 0
M  V30 3236 H 293.165 -0.297567 1.59651 0
M  V30 3237 H 295.162 -3.17644 2.70014 0
M  V30 3238 H 293.822 -2.84087 1.57241 0
M  V30 3239 H 294.833 -1.41268 4.98261 0
M  V30 3240 H 291.51 -2.97532 2.92884 0
M  V30 3241 H 292.9 -1.27733 6.59647 0
M  V30 3242 N 295.62 -1.53406 -0.361157 0
M  V30 3243 C 296.55 -1.83136 -1.44857 0
M  V30 3244 C 297.531 -0.685174 -1.5569 0
M  V30 3245 O 298.716 -0.93544 -1.70186 0
M  V30 3246 C 295.846 -2.02522 -2.82138 0
M  V30 3247 C 294.8 -3.18302 -2.86126 0
M  V30 3248 C 294.126 -3.22989 -4.26125 0
M  V30 3249 C 295.426 -4.56796 -2.53248 0
M  V30 3250 H 297.12 -2.74201 -1.20226 0
M  V30 3251 H 294.666 -1.31938 -0.576922 0
M  V30 3252 H 296.619 -2.21904 -3.58241 0
M  V30 3253 H 295.343 -1.08172 -3.08166 0
M  V30 3254 H 294.002 -2.98747 -2.12475 0
M  V30 3255 H 293.65 -2.26267 -4.49235 0
M  V30 3256 H 293.35 -4.00781 -4.29708 0
M  V30 3257 H 294.874 -3.44559 -5.04094 0
M  V30 3258 H 296.288 -4.7631 -3.19064 0
M  V30 3259 H 294.685 -5.36862 -2.68141 0
M  V30 3260 H 295.755 -4.61606 -1.48484 0
M  V30 3261 N 297.098 0.621204 -1.44841 0
M  V30 3262 C 298.326 1.40752 -1.51646 0
M  V30 3263 C 298.741 1.88246 -0.144549 0
M  V30 3264 O 298.098 1.61422 0.851416 0
M  V30 3265 C 298.149 2.62119 -2.4895 0
M  V30 3266 O 297.87 2.16602 -3.80808 0
M  V30 3267 C 299.371 3.55135 -2.65319 0
M  V30 3268 H 296.591 0.431325 -0.514004 0
M  V30 3269 H 299.135 0.758835 -1.899 0
M  V30 3270 H 297.29 3.23058 -2.13805 0
M  V30 3271 H 297.704 2.95358 -4.33433 0
M  V30 3272 H 299.178 4.36874 -3.37409 0
M  V30 3273 H 299.655 4.04592 -1.70886 0
M  V30 3274 H 300.261 3.00058 -3.01405 0
M  V30 3275 N 298.576 1.31904 0.862503 0
M  V30 3276 C 299.987 1.19803 1.43193 0
M  V30 3277 C 300.338 -0.192567 1.95253 0
M  V30 3278 O 299.463 -1.09081 1.86896 0
M  V30 3279 C 300.058 2.16883 2.60283 0
M  V30 3280 C 298.617 2.08692 3.13248 0
M  V30 3281 C 297.764 2.05691 1.85975 0
M  V30 3282 H 300.715 1.43846 0.670365 0
M  V30 3283 H 300.736 1.76278 3.37204 0
M  V30 3284 H 300.248 3.18083 2.22363 0
M  V30 3285 H 298.349 1.10713 3.55771 0
M  V30 3286 H 298.462 2.9815 3.75025 0
M  V30 3287 H 296.826 1.50814 2.05249 0
M  V30 3288 H 297.609 3.08659 1.50282 0
M  V30 3289 N 300.054 -1.07777 1.14986 0
M  V30 3290 C 301.3 -1.80557 0.923422 0
M  V30 3291 C 301.633 -1.86298 -0.548337 0
M  V30 3292 O 300.908 -1.34354 -1.40639 0
M  V30 3293 C 301.191 -3.25839 1.53299 0
M  V30 3294 C 301.044 -3.28269 3.07505 0
M  V30 3295 C 302.363 -4.22991 1.21518 0
M  V30 3296 H 299.482 -0.655493 0.336894 0
M  V30 3297 H 302.124 -1.26144 1.42083 0
M  V30 3298 H 300.274 -3.72306 1.10999 0
M  V30 3299 H 301.946 -2.90079 3.58681 0
M  V30 3300 H 300.189 -2.67355 3.4162 0
M  V30 3301 H 300.86 -4.30691 3.45266 0
M  V30 3302 H 303.336 -3.84894 1.581 0
M  V30 3303 H 302.212 -5.22945 1.66793 0
M  V30 3304 H 302.473 -4.41904 0.131505 0
M  V30 3305 N 301.532 -0.945985 -1.26051 0
M  V30 3306 C 302.76 -0.613025 -1.9761 0
M  V30 3307 C 303.175 0.813035 -1.70397 0
M  V30 3308 O 302.532 1.54274 -0.974979 0
M  V30 3309 C 302.583 -0.85159 -3.51326 0
M  V30 3310 O 302.304 -2.22157 -3.77595 0
M  V30 3311 C 303.805 -0.529831 -4.40122 0
M  V30 3312 H 301.025 -0.230593 -0.630133 0
M  V30 3313 H 303.569 -1.268 -1.60443 0
M  V30 3314 H 301.724 -0.243151 -3.86636 0
M  V30 3315 H 302.138 -2.2852 -4.721 0
M  V30 3316 H 303.612 -0.747348 -5.46917 0
M  V30 3317 H 304.089 0.535341 -4.35925 0
M  V30 3318 H 304.695 -1.11721 -4.10364 0
M  V30 3319 N 303.011 1.40521 -0.713556 0
M  V30 3320 C 303.941 2.33381 -0.0743864 0
M  V30 3321 C 304.922 1.52784 0.747735 0
M  V30 3322 O 306.107 1.81258 0.697071 0
M  V30 3323 C 303.237 3.36748 0.849598 0
M  V30 3324 C 302.191 4.27793 0.133247 0
M  V30 3325 C 301.517 5.21679 1.17281 0
M  V30 3326 C 302.817 5.12415 -1.01134 0
M  V30 3327 H 304.511 2.87081 -0.850007 0
M  V30 3328 H 302.057 1.38034 -0.410201 0
M  V30 3329 H 304.01 4.00648 1.30612 0
M  V30 3330 H 302.734 2.81439 1.65709 0
M  V30 3331 H 301.393 3.65342 -0.303426 0
M  V30 3332 H 301.041 4.62677 1.9733 0
M  V30 3333 H 300.741 5.83435 0.698397 0
M  V30 3334 H 302.265 5.88456 1.62947 0
M  V30 3335 H 303.679 5.69781 -0.634274 0
M  V30 3336 H 302.076 5.83203 -1.41399 0
M  V30 3337 H 303.146 4.48514 -1.84292 0
M  V30 3338 N 304.489 0.459591 1.5075 0
M  V30 3339 C 305.399 -0.34613 2.32033 0
M  V30 3340 C 306.415 -1.00686 1.41909 0
M  V30 3341 O 307.591 -0.997361 1.7497 0
M  V30 3342 C 304.656 -1.42029 3.16273 0
M  V30 3343 C 303.717 -0.777362 4.22203 0
M  V30 3344 C 302.95 -1.80034 5.02418 0
M  V30 3345 O 303.173 -3.02544 4.83553 0
M  V30 3346 O 302.107 -1.37853 5.85901 0
M  V30 3347 H 305.933 0.318054 3.0203 0
M  V30 3348 H 303.518 0.221663 1.47746 0
M  V30 3349 H 305.4 -2.04275 3.68578 0
M  V30 3350 H 304.075 -2.06815 2.49016 0
M  V30 3351 H 302.982 -0.116256 3.73919 0
M  V30 3352 H 304.315 -0.172634 4.91897 0
M  V30 3353 N 305.967 -1.56429 0.191757 0
M  V30 3354 C 306.897 -2.21937 -0.725696 0
M  V30 3355 C 307.878 -1.1814 -1.2238 0
M  V30 3356 O 309.063 -1.46636 -1.27325 0
M  V30 3357 C 306.193 -2.87611 -1.94672 0
M  V30 3358 C 305.147 -3.97623 -1.58366 0
M  V30 3359 C 304.473 -4.50446 -2.88102 0
M  V30 3360 C 305.773 -5.16197 -0.796133 0
M  V30 3361 H 307.467 -2.98861 -0.179606 0
M  V30 3362 H 305.013 -1.43749 -0.0849464 0
M  V30 3363 H 306.966 -3.3212 -2.59373 0
M  V30 3364 H 305.69 -2.08087 -2.51728 0
M  V30 3365 H 304.349 -3.53801 -0.960247 0
M  V30 3366 H 303.997 -3.67688 -3.43241 0
M  V30 3367 H 303.697 -5.24675 -2.64556 0
M  V30 3368 H 305.221 -4.97654 -3.53798 0
M  V30 3369 H 306.635 -5.57271 -1.34618 0
M  V30 3370 H 305.032 -5.96471 -0.658928 0
M  V30 3371 H 306.102 -4.84473 0.203478 0
M  V30 3372 N 307.445 0.0818655 -1.57387 0
M  V30 3373 C 308.693 0.781368 -1.86384 0
M  V30 3374 C 309.014 1.78618 -0.782342 0
M  V30 3375 O 308.284 1.94976 0.190061 0
M  V30 3376 H 306.864 0.291562 -0.687751 0
M  V30 3377 H 309.526 0.060348 -1.94807 0
M  V30 3378 H 308.622 1.3038 -2.83562 0
M  V30 3379 N 308.923 1.53595 0.353017 0
M  V30 3380 C 310.171 1.70049 1.09215 0
M  V30 3381 C 310.492 0.461406 1.89463 0
M  V30 3382 O 309.762 -0.524633 1.88744 0
M  V30 3383 H 308.342 0.626912 0.40619 0
M  V30 3384 H 311.004 1.90822 0.396585 0
M  V30 3385 H 310.1 2.56718 1.77488 0
M  V30 3386 N 310.401 -0.613514 1.45168 0
M  V30 3387 C 311.348 -1.72456 1.53387 0
M  V30 3388 C 312.318 -1.6169 0.380191 0
M  V30 3389 O 313.503 -1.81356 0.592836 0
M  V30 3390 C 310.643 -3.10753 1.50088 0
M  V30 3391 C 309.756 -3.32368 2.75963 0
M  V30 3392 C 308.891 -4.60737 2.64376 0
M  V30 3393 C 307.93 -4.7559 3.85332 0
M  V30 3394 N 307.067 -5.95253 3.72315 0
M  V30 3395 H 311.907 -1.64768 2.48305 0
M  V30 3396 H 309.444 -0.803503 1.23216 0
M  V30 3397 H 311.402 -3.90758 1.46164 0
M  V30 3398 H 310.032 -3.17413 0.587243 0
M  V30 3399 H 309.084 -2.4618 2.89999 0
M  V30 3400 H 310.396 -3.39218 3.65695 0
M  V30 3401 H 309.55 -5.48928 2.58385 0
M  V30 3402 H 308.289 -4.56275 1.72233 0
M  V30 3403 H 307.294 -3.85824 3.91688 0
M  V30 3404 H 308.519 -4.81854 4.78533 0
M  V30 3405 H 306.465 -5.91847 2.82937 0
M  V30 3406 H 306.382 -6.03236 4.55677 0
M  V30 3407 H 307.65 -6.85958 3.70246 0
M  V30 3408 N 311.879 -1.3236 -0.855495 0
M  V30 3409 C 313.104 -1.2601 -1.64731 0
M  V30 3410 C 313.529 0.169068 -1.87339 0
M  V30 3411 O 312.887 1.12016 -1.42556 0
M  V30 3412 C 312.935 -2.02417 -2.98429 0
M  V30 3413 O 312.039 -1.3714 -3.8893 0
M  V30 3414 H 311.38 -0.434325 -0.502253 0
M  V30 3415 H 313.91 -1.74661 -1.06558 0
M  V30 3416 H 313.92 -2.12559 -3.48257 0
M  V30 3417 H 312.595 -3.06343 -2.81295 0
M  V30 3418 H 311.172 -1.3554 -3.47395 0
M  V30 3419 N 313.357 1.07166 -1.15556 0
M  V30 3420 C 314.768 1.6127 -0.940693 0
M  V30 3421 C 315.119 1.89251 0.517551 0
M  V30 3422 O 314.244 1.65937 1.38903 0
M  V30 3423 C 314.839 2.92993 -1.7012 0
M  V30 3424 C 313.398 3.43832 -1.53156 0
M  V30 3425 C 312.545 2.1786 -1.71558 0
M  V30 3426 H 315.496 0.90229 -1.30554 0
M  V30 3427 H 315.517 3.62007 -1.17181 0
M  V30 3428 H 315.029 2.72596 -2.76248 0
M  V30 3429 H 313.13 3.69307 -0.494294 0
M  V30 3430 H 313.243 4.19747 -2.30975 0
M  V30 3431 H 311.607 2.2765 -1.14225 0
M  V30 3432 H 312.39 1.99956 -2.79056 0
M  V30 3433 N 314.835 0.952656 1.25548 0
M  V30 3434 C 316.075 0.614013 1.9496 0
M  V30 3435 C 316.439 -0.833215 1.72978 0
M  V30 3436 O 317.64 -1.28135 2.36294 0
M  V30 3437 C 315.911 0.960562 3.4425 0
M  V30 3438 S 317.47 0.734195 4.32614 0
M  V30 3439 H 314.288 0.225754 0.674208 0
M  V30 3440 H 316.89 1.22641 1.52248 0
M  V30 3441 H 315.594 2.01103 3.57751 0
M  V30 3442 H 315.125 0.338336 3.91942 0
M  V30 3443 H 317.14 -0.395995 4.94617 0
M  V30 3444 N 316.313 -1.40141 0.720998 0
M  V30 3445 C 317.543 -2.04798 0.27226 0
M  V30 3446 C 317.951 -1.54442 -1.09289 0
M  V30 3447 O 317.294 -0.698342 -1.69908 0
M  V30 3448 C 317.356 -3.59048 0.18027 0
M  V30 3449 C 317.02 -4.32317 1.48159 0
M  V30 3450 C 318.017 -4.59902 2.42458 0
M  V30 3451 C 315.702 -4.71125 1.74202 0
M  V30 3452 C 317.696 -5.25288 3.61042 0
M  V30 3453 C 315.383 -5.36242 2.93066 0
M  V30 3454 C 316.381 -5.63254 3.86308 0
M  V30 3455 O 316.069 -6.27024 5.03086 0
M  V30 3456 H 315.801 -0.665419 0.119139 0
M  V30 3457 H 318.355 -1.80436 0.981432 0
M  V30 3458 H 316.585 -3.82251 -0.58489 0
M  V30 3459 H 318.274 -4.05221 -0.234618 0
M  V30 3460 H 319.04 -4.30379 2.23604 0
M  V30 3461 H 314.919 -4.49466 1.02477 0
M  V30 3462 H 318.463 -5.46289 4.33837 0
M  V30 3463 H 314.36 -5.65185 3.11826 0
M  V30 3464 H 315.128 -6.4552 5.03235 0
M  V30 3465 N 317.792 -0.46758 -1.50504 0
M  V30 3466 C 319.041 0.0902868 -2.01498 0
M  V30 3467 C 319.354 1.411 -1.35463 0
M  V30 3468 O 320.56 2.0536 -1.77594 0
M  V30 3469 C 319.016 0.21142 -3.59278 0
M  V30 3470 C 318.624 -1.10065 -4.34269 0
M  V30 3471 C 320.368 0.721433 -4.18325 0
M  V30 3472 C 318.275 -0.943505 -5.83825 0
M  V30 3473 H 317.205 0.037517 -0.753066 0
M  V30 3474 H 319.856 -0.601943 -1.73346 0
M  V30 3475 H 318.238 0.967352 -3.84003 0
M  V30 3476 H 319.412 -1.86726 -4.21272 0
M  V30 3477 H 317.727 -1.5415 -3.86816 0
M  V30 3478 H 320.324 0.85598 -5.27804 0
M  V30 3479 H 320.667 1.71186 -3.79475 0
M  V30 3480 H 321.2 0.0229843 -3.97793 0
M  V30 3481 H 317.939 -1.90719 -6.27141 0
M  V30 3482 H 317.459 -0.217213 -5.99407 0
M  V30 3483 H 319.138 -0.608715 -6.4413 0
M  V30 3484 N 319.27 1.56325 -0.20005 0
M  V30 3485 C 320.547 1.89484 0.48529 0
M  V30 3486 C 320.927 1.1143 1.79294 0
M  V30 3487 O 320.275 0.216919 2.27468 0
M  V30 3488 C 320.485 3.41923 0.699243 0
M  V30 3489 C 321.833 4.12256 1.01638 0
M  V30 3490 O 322.857 3.47402 0.786792 0
M  V30 3491 O 321.716 5.26887 1.45095 0
M  V30 3492 H 318.81 0.787144 0.253639 0
M  V30 3493 H 321.356 1.67985 -0.240633 0
M  V30 3494 H 320.128 3.90658 -0.224008 0
M  V30 3495 H 319.751 3.69131 1.47744 0
M  V30 3496 N 320.748 -0.0735177 1.57428 0
M  V30 3497 C 321.695 -1.08756 2.0357 0
M  V30 3498 C 322.665 -1.38559 0.916 0
M  V30 3499 O 323.85 -1.49656 1.18354 0
M  V30 3500 C 320.99 -2.39657 2.48311 0
M  V30 3501 C 320.103 -2.16399 3.73892 0
M  V30 3502 C 319.238 -3.40852 4.07423 0
M  V30 3503 C 318.277 -3.1295 5.2605 0
M  V30 3504 N 317.414 -4.29729 5.55228 0
M  V30 3505 H 322.254 -0.687104 2.8997 0
M  V30 3506 H 319.791 -0.327709 1.43403 0
M  V30 3507 H 321.749 -3.16081 2.72303 0
M  V30 3508 H 320.379 -2.77508 1.64891 0
M  V30 3509 H 319.431 -1.30676 3.57251 0
M  V30 3510 H 320.743 -1.91788 4.60455 0
M  V30 3511 H 319.897 -4.25671 4.32306 0
M  V30 3512 H 318.636 -3.68537 3.19425 0
M  V30 3513 H 317.641 -2.26526 5.00965 0
M  V30 3514 H 318.866 -2.86589 6.15665 0
M  V30 3515 H 316.812 -4.57448 4.70188 0
M  V30 3516 H 316.729 -4.08385 6.36206 0
M  V30 3517 H 317.997 -5.1555 5.84661 0
M  V30 3518 N 322.226 -1.5378 -0.344866 0
M  V30 3519 C 323.503 -1.61589 -1.10219 0
M  V30 3520 C 323.883 -0.436316 -2.06542 0
M  V30 3521 O 323.231 0.571543 -2.21237 0
M  V30 3522 C 323.441 -2.97602 -1.82301 0
M  V30 3523 C 324.789 -3.5291 -2.36093 0
M  V30 3524 O 325.813 -2.99768 -1.924 0
M  V30 3525 O 324.672 -4.45859 -3.16026 0
M  V30 3526 H 321.766 -0.653522 -0.506792 0
M  V30 3527 H 324.312 -1.66126 -0.346465 0
M  V30 3528 H 323.084 -3.74893 -1.12121 0
M  V30 3529 H 322.707 -2.9665 -2.64735 0
M  V30 3530 N 323.704 0.605807 -1.45491 0
M  V30 3531 C 324.944 1.37606 -1.51142 0
M  V30 3532 C 325.308 1.91413 -0.150075 0
M  V30 3533 O 326.509 2.68677 -0.0812828 0
M  V30 3534 C 324.78 2.49197 -2.56195 0
M  V30 3535 S 326.339 3.36953 -2.81083 0
M  V30 3536 H 323.157 0.469118 -0.534275 0
M  V30 3537 H 325.759 0.698845 -1.82583 0
M  V30 3538 H 324.463 2.0802 -3.53773 0
M  V30 3539 H 323.994 3.21717 -2.26411 0
M  V30 3540 H 326.009 4.47395 -2.14598 0
M  V30 3541 N 325.182 1.32811 0.848464 0
M  V30 3542 C 326.459 1.14334 1.58704 0
M  V30 3543 C 326.839 -0.293948 2.09043 0
M  V30 3544 O 326.187 -1.29153 1.88499 0
M  V30 3545 C 326.397 2.17626 2.72837 0
M  V30 3546 C 327.745 2.51282 3.42261 0
M  V30 3547 O 328.769 2.16219 2.83068 0
M  V30 3548 O 327.628 3.11413 4.49093 0
M  V30 3549 H 324.722 0.441601 0.699226 0
M  V30 3550 H 327.268 1.44362 0.892053 0
M  V30 3551 H 326.04 3.14211 2.3321 0
M  V30 3552 H 325.663 1.88628 3.50008 0
M  V30 3553 N 326.66 -1.06551 1.16123 0
M  V30 3554 C 327.59 -2.15935 0.88851 0
M  V30 3555 C 328.571 -1.69306 -0.164135 0
M  V30 3556 O 329.756 -1.94193 -0.0167857 0
M  V30 3557 C 326.886 -3.45149 0.385942 0
M  V30 3558 C 325.84 -4.05271 1.3762 0
M  V30 3559 C 325.166 -5.29664 0.732137 0
M  V30 3560 C 326.466 -4.44355 2.74493 0
M  V30 3561 H 328.16 -2.39006 1.80323 0
M  V30 3562 H 325.706 -1.14866 0.868435 0
M  V30 3563 H 327.659 -4.21004 0.182647 0
M  V30 3564 H 326.383 -3.21689 -0.564274 0
M  V30 3565 H 325.042 -3.3147 1.56599 0
M  V30 3566 H 324.69 -5.02499 -0.224483 0
M  V30 3567 H 324.39 -5.70848 1.39307 0
M  V30 3568 H 325.914 -6.08218 0.538802 0
M  V30 3569 H 327.328 -5.11303 2.59311 0
M  V30 3570 H 325.725 -4.96515 3.37035 0
M  V30 3571 H 326.795 -3.55339 3.29943 0
M  V30 3572 N 328.138 -0.959301 -1.25041 0
M  V30 3573 C 329.415 -0.533805 -1.88175 0
M  V30 3574 C 329.795 0.988994 -1.865 0
M  V30 3575 O 329.143 1.85677 -1.33177 0
M  V30 3576 C 329.353 -1.11575 -3.30684 0
M  V30 3577 C 330.701 -1.19548 -4.07423 0
M  V30 3578 O 331.725 -1.06765 -3.39823 0
M  V30 3579 O 330.584 -1.39656 -5.28354 0
M  V30 3580 H 327.678 -0.176772 -0.807887 0
M  V30 3581 H 330.224 -1.05303 -1.33076 0
M  V30 3582 H 328.996 -2.15884 -3.26358 0
M  V30 3583 H 328.619 -0.580059 -3.93346 0
M  V30 3584 N 329.616 1.39756 -0.72842 0
M  V30 3585 C 330.865 1.99879 -0.270407 0
M  V30 3586 C 331.178 1.58449 1.14688 0
M  V30 3587 O 332.384 2.11362 1.70407 0
M  V30 3588 C 330.84 3.57292 -0.43252 0
M  V30 3589 C 330.448 4.07688 -1.85727 0
M  V30 3590 C 332.192 4.24485 -0.0359507 0
M  V30 3591 C 330.099 5.5765 -1.96928 0
M  V30 3592 H 329.029 0.747689 -0.0973472 0
M  V30 3593 H 331.68 1.59837 -0.901355 0
M  V30 3594 H 330.062 3.95097 0.267219 0
M  V30 3595 H 331.236 3.81231 -2.58843 0
M  V30 3596 H 329.551 3.53135 -2.20646 0
M  V30 3597 H 332.148 5.34609 -0.0987484 0
M  V30 3598 H 332.491 4.03915 1.00787 0
M  V30 3599 H 333.024 3.9183 -0.686604 0
M  V30 3600 H 329.763 5.8309 -2.99476 0
M  V30 3601 H 329.283 5.8593 -1.28241 0
M  V30 3602 H 330.962 6.22957 -1.74737 0
M  V30 3603 N 331.094 0.475555 1.50254 0
M  V30 3604 C 332.34 -0.0780073 2.0265 0
M  V30 3605 C 332.673 -1.38968 1.35652 0
M  V30 3606 O 331.948 -1.8839 0.483691 0
M  V30 3607 C 332.231 -0.257161 3.59181 0
M  V30 3608 C 332.084 1.07585 4.36744 0
M  V30 3609 C 333.403 -1.00965 4.28362 0
M  V30 3610 H 330.522 -0.0268758 0.73651 0
M  V30 3611 H 333.164 0.622015 1.7953 0
M  V30 3612 H 331.314 -0.853412 3.79011 0
M  V30 3613 H 332.986 1.70902 4.28474 0
M  V30 3614 H 331.229 1.6714 4.00308 0
M  V30 3615 H 331.9 0.904088 5.44546 0
M  V30 3616 H 334.376 -0.504214 4.13034 0
M  V30 3617 H 333.252 -1.10381 5.37687 0
M  V30 3618 H 333.513 -2.04731 3.91839 0
M  V30 3619 N 332.573 -1.56217 0.208337 0
M  V30 3620 C 333.813 -1.99849 -0.428927 0
M  V30 3621 C 334.177 -1.09262 -1.57879 0
M  V30 3622 O 335.378 -1.42185 -2.28116 0
M  V30 3623 C 333.649 -3.46777 -0.864879 0
M  V30 3624 S 335.208 -4.12434 -1.49811 0
M  V30 3625 H 332.026 -0.697742 -0.136665 0
M  V30 3626 H 334.628 -1.92953 0.314519 0
M  V30 3627 H 333.332 -4.10396 -0.0181326 0
M  V30 3628 H 332.863 -3.57518 -1.64147 0
M  V30 3629 H 334.878 -4.10532 -2.78707 0
M  V30 3630 N 334.051 0.0651679 -1.57465 0
M  V30 3631 C 335.467 0.420105 -1.53972 0
M  V30 3632 C 335.667 1.78782 -0.929474 0
M  V30 3633 O 334.723 2.46771 -0.534839 0
M  V30 3634 C 336.036 0.355084 -2.98596 0
M  V30 3635 C 337.584 0.434792 -3.09965 0
M  V30 3636 C 338.059 0.399609 -4.56253 0
M  V30 3637 N 339.55 0.459488 -4.60915 0
M  V30 3638 C 340.285 0.454584 -5.71595 0
M  V30 3639 N 339.781 0.404102 -6.9162 0
M  V30 3640 N 341.574 0.501635 -5.59857 0
M  V30 3641 H 333.725 -0.830328 -1.95498 0
M  V30 3642 H 335.988 -0.312244 -0.895102 0
M  V30 3643 H 335.694 -0.583357 -3.46828 0
M  V30 3644 H 335.568 1.16275 -3.58831 0
M  V30 3645 H 337.955 1.36366 -2.61703 0
M  V30 3646 H 338.036 -0.40157 -2.52628 0
M  V30 3647 H 337.68 -0.525436 -5.05175 0
M  V30 3648 H 337.61 1.25359 -5.11461 0
M  V30 3649 H 340.101 0.502482 -3.74544 0
M  V30 3650 H 340.414 0.404468 -7.71741 0
M  V30 3651 H 338.759 0.37069 -6.94011 0
M  V30 3652 H 341.95 0.538812 -4.64989 0
M  V30 3653 H 342.123 0.494345 -6.46112 0
M  V30 3654 N 335.529 1.53961 0.336706 0
M  V30 3655 C 336.945 1.44378 0.680241 0
M  V30 3656 C 337.145 0.606034 1.9217 0
M  V30 3657 O 336.201 0.099688 2.52303 0
M  V30 3658 C 337.514 2.87945 0.8665 0
M  V30 3659 C 339.062 2.97763 0.964682 0
M  V30 3660 C 339.537 4.42453 1.18321 0
M  V30 3661 N 341.028 4.46008 1.25025 0
M  V30 3662 C 341.763 5.55102 1.43697 0
M  V30 3663 N 341.259 6.7419 1.59498 0
M  V30 3664 N 343.052 5.42727 1.463 0
M  V30 3665 H 335.203 2.06918 -0.479455 0
M  V30 3666 H 337.466 0.935634 -0.152619 0
M  V30 3667 H 337.172 3.51691 0.0256937 0
M  V30 3668 H 337.046 3.33293 1.76623 0
M  V30 3669 H 339.433 2.34153 1.796 0
M  V30 3670 H 339.514 2.55766 0.041708 0
M  V30 3671 H 339.158 5.06645 0.356788 0
M  V30 3672 H 339.088 4.82048 2.11985 0
M  V30 3673 H 341.579 3.60196 1.14312 0
M  V30 3674 H 341.892 7.53095 1.734 0
M  V30 3675 H 340.237 6.77123 1.56621 0
M  V30 3676 H 343.428 4.48647 1.33543 0
M  V30 3677 H 343.601 6.27806 1.6051 0
M  V30 3678 N 337.007 -0.598083 1.45811 0
M  V30 3679 C 338.256 -1.35295 1.49594 0
M  V30 3680 C 338.569 -1.95057 0.145679 0
M  V30 3681 O 339.775 -2.71431 0.0612099 0
M  V30 3682 C 338.231 -2.45124 2.63519 0
M  V30 3683 C 337.839 -1.91732 4.04899 0
M  V30 3684 C 339.583 -3.2205 2.76558 0
M  V30 3685 C 337.49 -2.991 5.1019 0
M  V30 3686 H 336.42 -0.508552 0.556679 0
M  V30 3687 H 339.071 -0.639977 1.71978 0
M  V30 3688 H 337.453 -3.19149 2.34435 0
M  V30 3689 H 338.627 -1.24352 4.43704 0
M  V30 3690 H 336.942 -1.27522 3.96393 0
M  V30 3691 H 339.539 -4.0215 3.52391 0
M  V30 3692 H 339.882 -3.73663 1.83526 0
M  V30 3693 H 340.415 -2.55127 3.05213 0
M  V30 3694 H 337.154 -2.52393 6.04961 0
M  V30 3695 H 336.674 -3.65017 4.75944 0
M  V30 3696 H 338.353 -3.63318 5.35359 0
M  V30 3697 N 338.485 -1.33259 -0.841409 0
M  V30 3698 C 339.713 -1.27605 -1.62864 0
M  V30 3699 C 340.128 0.153507 -1.88175 0
M  V30 3700 O 339.485 1.09485 -1.46011 0
M  V30 3701 C 339.536 -2.04596 -2.98031 0
M  V30 3702 O 339.257 -3.41975 -2.73834 0
M  V30 3703 C 340.758 -2.06122 -3.92465 0
M  V30 3704 H 337.978 -0.439718 -0.506842 0
M  V30 3705 H 340.522 -1.75591 -1.04824 0
M  V30 3706 H 338.677 -1.60299 -3.5268 0
M  V30 3707 H 339.091 -3.81549 -3.59889 0
M  V30 3708 H 340.565 -2.64451 -4.84531 0
M  V30 3709 H 341.042 -1.05083 -4.26444 0
M  V30 3710 H 341.648 -2.50427 -3.43753 0
M  V30 3711 N 339.963 1.05934 -1.16686 0
M  V30 3712 C 341.209 1.79211 -0.962023 0
M  V30 3713 C 341.564 1.85667 0.504545 0
M  V30 3714 O 340.857 1.33991 1.36956 0
M  V30 3715 C 341.051 3.23105 -1.52767 0
M  V30 3716 C 340.88 3.30673 -3.04771 0
M  V30 3717 C 339.65 3.40395 -3.73442 0
M  V30 3718 C 341.848 3.20234 -4.02436 0
M  V30 3719 N 339.83 3.37015 -5.13122 0
M  V30 3720 C 341.201 3.24138 -5.28521 0
M  V30 3721 C 343.256 3.04143 -3.9421 0
M  V30 3722 C 341.959 3.13607 -6.47336 0
M  V30 3723 C 343.985 2.94951 -5.12599 0
M  V30 3724 C 343.347 2.99481 -6.37566 0
M  V30 3725 H 339.446 0.668442 -0.405844 0
M  V30 3726 H 342.03 1.26341 -1.48142 0
M  V30 3727 H 340.201 3.74364 -1.03471 0
M  V30 3728 H 341.933 3.84579 -1.26021 0
M  V30 3729 H 338.688 3.45344 -3.2409 0
M  V30 3730 H 339.112 3.38815 -5.86117 0
M  V30 3731 H 343.754 2.99484 -2.98445 0
M  V30 3732 H 341.472 3.17022 -7.43319 0
M  V30 3733 H 345.058 2.83583 -5.08008 0
M  V30 3734 H 343.938 2.92431 -7.27636 0
M  V30 3735 N 341.441 0.965919 1.2453 0
M  V30 3736 C 342.689 0.625593 1.92174 0
M  V30 3737 C 343.01 -0.841652 1.75901 0
M  V30 3738 O 342.28 -1.60061 1.12948 0
M  V30 3739 H 340.86 0.228388 0.71123 0
M  V30 3740 H 343.522 1.2266 1.51461 0
M  V30 3741 H 342.618 0.864653 2.99884 0
M  V30 3742 N 342.919 -1.39368 0.735821 0
M  V30 3743 C 343.866 -2.30599 0.0963825 0
M  V30 3744 C 344.836 -1.49257 -0.728794 0
M  V30 3745 O 346.021 -1.77941 -0.688588 0
M  V30 3746 C 343.161 -3.35596 -0.804305 0
M  V30 3747 C 342.274 -4.31987 0.0335761 0
M  V30 3748 C 341.409 -5.24053 -0.868461 0
M  V30 3749 C 340.448 -6.12095 -0.0258776 0
M  V30 3750 N 339.585 -6.96514 -0.883893 0
M  V30 3751 H 344.425 -2.8471 0.880002 0
M  V30 3752 H 341.962 -1.40188 0.445619 0
M  V30 3753 H 343.92 -3.95062 -1.34096 0
M  V30 3754 H 342.55 -2.82938 -1.55389 0
M  V30 3755 H 341.602 -3.74133 0.68766 0
M  V30 3756 H 342.914 -4.94074 0.685036 0
M  V30 3757 H 342.068 -5.88549 -1.47293 0
M  V30 3758 H 340.807 -4.62289 -1.5537 0
M  V30 3759 H 339.812 -5.4661 0.591386 0
M  V30 3760 H 341.037 -6.75923 0.656156 0
M  V30 3761 H 338.983 -6.37318 -1.55441 0
M  V30 3762 H 338.9 -7.55448 -0.288931 0
M  V30 3763 H 340.168 -7.65439 -1.4739 0
M  V30 3764 N 344.397 -0.483516 -1.5 0
M  V30 3765 C 345.627 0.0643896 -2.065 0
M  V30 3766 C 346.035 1.32949 -1.34615 0
M  V30 3767 O 345.378 1.79003 -0.412756 0
M  V30 3768 C 345.44 0.405983 -3.572 0
M  V30 3769 C 345.104 -0.758875 -4.50655 0
M  V30 3770 C 346.101 -1.64445 -4.93208 0
M  V30 3771 C 343.786 -0.952725 -4.93182 0
M  V30 3772 C 345.78 -2.70818 -5.77006 0
M  V30 3773 C 343.467 -2.01966 -5.76761 0
M  V30 3774 C 344.465 -2.89574 -6.18576 0
M  V30 3775 O 344.153 -3.94429 -7.00486 0
M  V30 3776 H 343.885 -0.00934786 -0.675935 0
M  V30 3777 H 346.439 -0.674959 -1.93993 0
M  V30 3778 H 344.669 1.19869 -3.67652 0
M  V30 3779 H 346.358 0.890433 -3.96013 0
M  V30 3780 H 347.124 -1.50643 -4.61012 0
M  V30 3781 H 343.003 -0.280247 -4.60147 0
M  V30 3782 H 346.547 -3.3923 -6.09565 0
M  V30 3783 H 342.444 -2.1577 -6.0837 0
M  V30 3784 H 343.212 -3.91568 -7.1876 0
M  V30 3785 N 345.875 1.56104 -0.216619 0
M  V30 3786 C 346.808 2.16026 0.735395 0
M  V30 3787 C 347.786 1.1032 1.1945 0
M  V30 3788 O 348.97 1.38549 1.27814 0
M  V30 3789 C 346.097 2.73656 1.99575 0
M  V30 3790 C 345.143 3.92146 1.67702 0
M  V30 3791 S 345.976 5.29397 0.806145 0
M  V30 3792 C 347.132 5.90463 2.07617 0
M  V30 3793 H 347.365 2.96439 0.226072 0
M  V30 3794 H 344.898 1.544 -0.00136639 0
M  V30 3795 H 346.856 3.075 2.71945 0
M  V30 3796 H 345.517 1.93245 2.47619 0
M  V30 3797 H 344.71 4.30954 2.61332 0
M  V30 3798 H 344.312 3.59423 1.03398 0
M  V30 3799 H 346.604 6.06136 3.02664 0
M  V30 3800 H 347.547 6.86589 1.73207 0
M  V30 3801 H 347.955 5.19252 2.21445 0
M  V30 3802 N 347.353 -0.0568162 1.57498 0
M  V30 3803 C 348.301 -1.08452 2.05769 0
M  V30 3804 C 349.295 -1.39164 0.965903 0
M  V30 3805 O 350.501 -1.38395 1.15095 0
M  V30 3806 H 346.876 -0.367148 0.656282 0
M  V30 3807 H 348.847 -0.651368 2.91204 0
M  V30 3808 C 347.596 -2.38543 2.52968 0
M  V30 3809 H 346.919 -2.15765 3.36579 0
M  V30 3810 H 348.359 -3.08863 2.90481 0
M  V30 3811 C 346.818 -3.05562 1.41893 0
M  V30 3812 O 347.348 -3.94262 0.769442 0
M  V30 3813 N 345.554 -2.6643 1.16032 0
M  V30 3814 H 345.101 -1.94387 1.6903 0
M  V30 3815 H 345.059 -3.11593 0.419219 0
M  V30 3816 N 348.832 -1.54138 -0.328536 0
M  V30 3817 C 350.072 -1.73827 -1.07534 0
M  V30 3818 C 350.436 -0.498777 -1.85408 0
M  V30 3819 O 351.637 -0.572937 -2.62623 0
M  V30 3820 C 349.908 -2.97573 -1.97952 0
M  V30 3821 S 351.467 -3.38143 -2.79652 0
M  V30 3822 H 348.285 -0.611287 -0.36311 0
M  V30 3823 H 350.887 -1.92306 -0.351931 0
M  V30 3824 H 349.591 -3.85939 -1.39569 0
M  V30 3825 H 349.122 -2.81603 -2.74706 0
M  V30 3826 H 351.137 -2.93052 -4.00418 0
M  V30 3827 N 350.31 0.590341 -1.46126 0
M  V30 3828 C 351.558 1.34616 -1.50742 0
M  V30 3829 C 351.879 1.94363 -0.157486 0
M  V30 3830 O 351.149 1.78136 0.815136 0
M  V30 3831 H 349.729 0.499789 -0.555175 0
M  V30 3832 H 352.391 0.691953 -1.82203 0
M  V30 3833 H 351.487 2.15678 -2.25587 0
M  V30 3834 N 351.788 1.33704 0.83433 0
M  V30 3835 C 352.72 1.20172 1.9517 0
M  V30 3836 C 353.733 0.131572 1.62267 0
M  V30 3837 O 354.922 0.382406 1.74356 0
M  V30 3838 C 352.022 0.821716 3.28787 0
M  V30 3839 C 351.195 1.98446 3.89792 0
M  V30 3840 C 350.254 1.58469 5.01771 0
M  V30 3841 O 349.28 2.29968 5.20676 0
M  V30 3842 N 350.482 0.492291 5.78409 0
M  V30 3843 H 353.247 2.16429 2.07313 0
M  V30 3844 H 350.808 1.26509 1.0103 0
M  V30 3845 H 352.8 0.536291 4.01131 0
M  V30 3846 H 351.37 -0.0503058 3.1256 0
M  V30 3847 H 350.59 2.43526 3.09982 0
M  V30 3848 H 351.878 2.76236 4.27283 0
M  V30 3849 H 351.276 -0.102349 5.65607 0
M  V30 3850 H 349.833 0.266555 6.51255 0
M  V30 3851 N 353.266 -1.05314 1.17247 0
M  V30 3852 C 354.494 -1.81971 0.984593 0
M  V30 3853 C 354.909 -1.82929 -0.467166 0
M  V30 3854 O 354.266 -1.25564 -1.32438 0
M  V30 3855 C 354.317 -3.28143 1.51672 0
M  V30 3856 O 354.038 -3.27347 2.91163 0
M  V30 3857 C 355.539 -4.21493 1.37326 0
M  V30 3858 H 352.759 -0.573455 0.348411 0
M  V30 3859 H 355.303 -1.32808 1.55506 0
M  V30 3860 H 353.458 -3.74582 0.988302 0
M  V30 3861 H 353.872 -4.18824 3.15732 0
M  V30 3862 H 355.346 -5.22043 1.79375 0
M  V30 3863 H 355.823 -4.38031 0.320169 0
M  V30 3864 H 356.429 -3.80909 1.89178 0
M  V30 3865 N 354.744 -0.972509 -1.24016 0
M  V30 3866 C 355.984 -0.644951 -1.93958 0
M  V30 3867 C 356.348 0.80559 -1.74282 0
M  V30 3868 O 357.549 1.2436 -2.38302 0
M  V30 3869 C 355.82 -1.01521 -3.42678 0
M  V30 3870 S 357.379 -0.802927 -4.31391 0
M  V30 3871 H 354.197 -0.236452 -0.670531 0
M  V30 3872 H 356.799 -1.25048 -1.50277 0
M  V30 3873 H 355.503 -2.06769 -3.54506 0
M  V30 3874 H 355.034 -0.400648 -3.91355 0
M  V30 3875 H 357.049 0.317256 -4.95185 0
M  V30 3876 N 356.222 1.38976 -0.743202 0
M  V30 3877 C 357.471 1.99581 -0.291592 0
M  V30 3878 C 357.784 1.59656 1.13001 0
M  V30 3879 O 358.99 2.13157 1.68156 0
M  V30 3880 C 357.446 3.56813 -0.470391 0
M  V30 3881 C 357.054 4.05695 -1.90041 0
M  V30 3882 C 358.798 4.24423 -0.0809709 0
M  V30 3883 C 356.705 5.5553 -2.02832 0
M  V30 3884 H 355.635 0.746615 -0.105272 0
M  V30 3885 H 358.286 1.58872 -0.918258 0
M  V30 3886 H 356.668 3.95359 0.225299 0
M  V30 3887 H 357.842 3.78464 -2.62872 0
M  V30 3888 H 356.157 3.50775 -2.24379 0
M  V30 3889 H 358.754 5.34474 -0.155445 0
M  V30 3890 H 359.097 4.04962 0.96497 0
M  V30 3891 H 359.63 3.9108 -0.728124 0
M  V30 3892 H 356.369 5.79881 -3.05643 0
M  V30 3893 H 355.889 5.84537 -1.34448 0
M  V30 3894 H 357.568 6.21069 -1.81335 0
M  V30 3895 N 357.7 0.491464 1.49741 0
M  V30 3896 C 358.663 -0.280906 2.27472 0
M  V30 3897 C 359.663 -0.902454 1.33088 0
M  V30 3898 O 360.853 -0.768465 1.56334 0
M  V30 3899 C 357.985 -1.40209 3.10732 0
M  V30 3900 H 359.178 0.401056 2.97206 0
M  V30 3901 H 356.731 0.246131 1.5435 0
M  V30 3902 H 357.466 -2.11849 2.45541 0
M  V30 3903 H 357.251 -0.961969 3.80117 0
M  V30 3904 H 358.741 -1.9464 3.69466 0
M  V30 3905 N 359.178 -1.55987 0.224894 0
M  V30 3906 C 360.589 -1.84553 -0.282345 0
M  V30 3907 C 360.94 -1.14634 -1.59227 0
M  V30 3908 O 360.065 -0.417155 -2.12341 0
M  V30 3909 C 360.66 -3.348 -0.519062 0
M  V30 3910 C 359.219 -3.63671 -0.970604 0
M  V30 3911 C 358.366 -2.77277 -0.0355261 0
M  V30 3912 H 361.317 -1.52245 0.448006 0
M  V30 3913 H 361.338 -3.55187 -1.36463 0
M  V30 3914 H 360.85 -3.8566 0.43449 0
M  V30 3915 H 358.951 -3.1827 -1.9374 0
M  V30 3916 H 359.064 -4.71631 -0.842698 0
M  V30 3917 H 357.428 -2.48846 -0.542927 0
M  V30 3918 H 358.211 -3.30937 0.913003 0
M  V30 3919 N 360.656 0.0484629 -1.57525 0
M  V30 3920 C 361.933 0.777447 -1.79486 0
M  V30 3921 C 362.313 1.94597 -0.818251 0
M  V30 3922 O 361.661 2.28047 0.143767 0
M  V30 3923 C 361.871 1.22864 -3.26658 0
M  V30 3924 C 363.219 1.65251 -3.91123 0
M  V30 3925 O 364.243 1.32372 -3.3069 0
M  V30 3926 O 363.102 2.26207 -4.97486 0
M  V30 3927 H 360.196 0.374357 -0.737419 0
M  V30 3928 H 362.742 0.0267359 -1.69679 0
M  V30 3929 H 361.514 0.393589 -3.89316 0
M  V30 3930 H 361.137 2.03996 -3.41279 0
M  V30 3931 N 362.134 1.5431 0.320358 0
M  V30 3932 C 363.364 1.7638 1.07582 0
M  V30 3933 C 363.772 0.513944 1.82086 0
M  V30 3934 O 363.115 -0.525123 1.76035 0
M  V30 3935 C 363.177 2.9055 2.1171 0
M  V30 3936 C 362.841 4.2934 1.56575 0
M  V30 3937 C 363.838 5.10077 1.00586 0
M  V30 3938 C 361.523 4.75893 1.60722 0
M  V30 3939 C 363.517 6.35477 0.494756 0
M  V30 3940 C 361.204 6.0126 1.09224 0
M  V30 3941 C 362.202 6.80886 0.53696 0
M  V30 3942 O 361.89 8.03894 0.0297371 0
M  V30 3943 H 361.622 0.592369 0.325692 0
M  V30 3944 H 364.176 2.02019 0.37116 0
M  V30 3945 H 362.406 2.60489 2.85801 0
M  V30 3946 H 364.095 3.00373 2.73003 0
M  V30 3947 H 364.861 4.75265 0.966869 0
M  V30 3948 H 360.74 4.13957 2.02882 0
M  V30 3949 H 364.284 6.97574 0.0606842 0
M  V30 3950 H 360.181 6.35562 1.12831 0
M  V30 3951 H 360.949 8.18372 0.14486 0
M  V30 3952 N 363.613 -0.582584 1.46437 0
M  V30 3953 C 364.862 -1.337 1.5102 0
M  V30 3954 C 365.175 -1.94891 0.166359 0
M  V30 3955 O 366.381 -2.71351 0.0899954 0
M  V30 3956 C 364.837 -2.42315 2.66104 0
M  V30 3957 C 364.445 -1.87427 4.06909 0
M  V30 3958 C 366.189 -3.19099 2.79958 0
M  V30 3959 C 364.096 -2.93672 5.13333 0
M  V30 3960 H 363.026 -0.502619 0.562041 0
M  V30 3961 H 365.677 -0.621701 1.72647 0
M  V30 3962 H 364.059 -3.16645 2.37807 0
M  V30 3963 H 365.233 -1.19639 4.44998 0
M  V30 3964 H 363.548 -1.2331 3.97723 0
M  V30 3965 H 366.145 -3.9839 3.56636 0
M  V30 3966 H 366.488 -3.71695 1.87479 0
M  V30 3967 H 367.021 -2.51875 3.07902 0
M  V30 3968 H 363.76 -2.45962 6.07604 0
M  V30 3969 H 363.28 -3.59948 4.79789 0
M  V30 3970 H 364.959 -3.5762 5.39182 0
M  V30 3971 N 365.091 -1.34144 -0.827227 0
M  V30 3972 C 366.021 -1.28005 -1.95287 0
M  V30 3973 C 367.002 -0.158321 -1.69362 0
M  V30 3974 O 368.187 -0.349987 -1.9102 0
M  V30 3975 C 365.317 -1.03036 -3.31664 0
M  V30 3976 C 364.271 -2.11628 -3.72019 0
M  V30 3977 C 363.597 -1.71854 -5.0633 0
M  V30 3978 C 364.897 -3.53417 -3.8457 0
M  V30 3979 H 366.591 -2.22187 -2.00682 0
M  V30 3980 H 364.137 -1.0696 -0.964135 0
M  V30 3981 H 366.09 -0.973863 -4.09993 0
M  V30 3982 H 364.814 -0.0529391 -3.26557 0
M  V30 3983 H 363.473 -2.16339 -2.95961 0
M  V30 3984 H 363.121 -0.727841 -4.97706 0
M  V30 3985 H 362.821 -2.44531 -5.34302 0
M  V30 3986 H 364.345 -1.67692 -5.87122 0
M  V30 3987 H 365.759 -3.51142 -4.5318 0
M  V30 3988 H 364.156 -4.24679 -4.2399 0
M  V30 3989 H 365.226 -3.91072 -2.86689 0
M  V30 3990 N 366.569 1.04691 -1.17803 0
M  V30 3991 C 367.809 1.79352 -0.980423 0
M  V30 3992 C 368.173 1.85853 0.481958 0
M  V30 3993 O 369.374 2.56656 0.798809 0
M  V30 3994 C 367.645 3.19088 -1.6099 0
M  V30 3995 S 369.204 4.10164 -1.55918 0
M  V30 3996 H 366.022 0.617631 -0.352211 0
M  V30 3997 H 368.624 1.25575 -1.49837 0
M  V30 3998 H 367.328 3.11962 -2.66661 0
M  V30 3999 H 366.859 3.77941 -1.09197 0
M  V30 4000 H 368.874 4.92907 -0.570685 0
M  V30 4001 N 368.047 0.979072 1.23499 0
M  V30 4002 C 368.957 0.526431 2.28617 0
M  V30 4003 C 369.973 -0.418126 1.68901 0
M  V30 4004 O 371.149 -0.288372 1.99325 0
M  V30 4005 C 368.214 -0.165235 3.46306 0
M  V30 4006 C 367.275 0.82056 4.21385 0
M  V30 4007 C 366.508 0.161807 5.33455 0
M  V30 4008 O 366.731 -1.04742 5.60701 0
M  V30 4009 O 365.665 0.859708 5.95729 0
M  V30 4010 H 369.491 1.4006 2.69475 0
M  V30 4011 H 367.076 0.746643 1.29405 0
M  V30 4012 H 368.958 -0.553287 4.17752 0
M  V30 4013 H 367.633 -1.01419 3.07402 0
M  V30 4014 H 366.54 1.25929 3.52268 0
M  V30 4015 H 367.873 1.63828 4.64135 0
M  V30 4016 N 369.525 -1.3858 0.750561 0
M  V30 4017 C 370.488 -2.28836 0.129152 0
M  V30 4018 C 371.488 -1.47045 -0.650714 0
M  V30 4019 O 372.678 -1.6753 -0.477428 0
M  V30 4020 C 369.81 -3.30751 -0.825622 0
M  V30 4021 H 371.003 -2.85294 0.924516 0
M  V30 4022 H 368.556 -1.47489 0.517376 0
M  V30 4023 H 369.291 -2.79378 -1.64677 0
M  V30 4024 H 369.076 -3.91177 -0.268852 0
M  V30 4025 H 370.566 -3.98249 -1.2565 0
M  V30 4026 N 371.003 -0.499398 -1.49478 0
M  V30 4027 C 372.228 0.044722 -2.07352 0
M  V30 4028 C 372.653 1.30207 -1.35749 0
M  V30 4029 O 372.011 1.76516 -0.413732 0
M  V30 4030 C 372.059 0.283013 -3.59488 0
M  V30 4031 O 371.163 1.35804 -3.89398 0
M  V30 4032 H 370.504 -0.0255147 -0.66351 0
M  V30 4033 H 373.034 -0.698561 -1.92305 0
M  V30 4034 H 373.044 0.515007 -4.04737 0
M  V30 4035 H 371.719 -0.635636 -4.11014 0
M  V30 4036 H 370.296 1.11113 -3.55961 0
M  V30 4037 N 372.481 1.55866 -0.233164 0
M  V30 4038 C 373.411 2.23783 0.666599 0
M  V30 4039 C 374.392 1.21343 1.19205 0
M  V30 4040 O 375.577 1.4996 1.23392 0
M  V30 4041 C 372.707 2.92671 1.86978 0
M  V30 4042 C 371.661 4.01682 1.47768 0
M  V30 4043 C 370.987 4.57926 2.76058 0
M  V30 4044 C 372.287 5.18126 0.658993 0
M  V30 4045 H 373.981 2.99232 0.100306 0
M  V30 4046 H 371.527 1.43924 0.046804 0
M  V30 4047 H 373.48 3.3888 2.50476 0
M  V30 4048 H 372.204 2.14688 2.46123 0
M  V30 4049 H 370.863 3.56222 0.866106 0
M  V30 4050 H 370.511 3.76659 3.33372 0
M  V30 4051 H 370.211 5.31505 2.50552 0
M  V30 4052 H 371.735 5.06859 3.40479 0
M  V30 4053 H 373.149 5.60644 1.19795 0
M  V30 4054 H 371.546 5.98009 0.500552 0
M  V30 4055 H 372.616 4.83763 -0.331856 0
M  V30 4056 N 373.959 -0.0401083 1.57549 0
M  V30 4057 C 374.891 -1.07149 2.02612 0
M  V30 4058 C 375.904 -1.33126 0.937085 0
M  V30 4059 O 377.093 -1.30808 1.21456 0
M  V30 4060 C 374.193 -2.41561 2.37701 0
M  V30 4061 C 373.366 -2.35096 3.68848 0
M  V30 4062 C 372.425 -3.51867 3.91249 0
M  V30 4063 O 371.451 -3.3186 4.62447 0
M  V30 4064 N 372.653 -4.73351 3.36035 0
M  V30 4065 H 375.418 -0.687485 2.91708 0
M  V30 4066 H 372.979 -0.228248 1.60283 0
M  V30 4067 H 374.971 -3.18379 2.49833 0
M  V30 4068 H 373.541 -2.71846 1.54332 0
M  V30 4069 H 372.761 -1.4345 3.67173 0
M  V30 4070 H 374.049 -2.27908 4.54901 0
M  V30 4071 H 373.447 -4.92507 2.78304 0
M  V30 4072 H 372.004 -5.47572 3.53565 0
M  V30 4073 N 375.437 -1.54477 -0.31217 0
M  V30 4074 C 376.385 -1.85395 -1.40469 0
M  V30 4075 C 377.379 -0.726749 -1.53019 0
M  V30 4076 O 378.585 -0.910582 -1.55269 0
M  V30 4077 H 374.96 -0.587845 -0.46898 0
M  V30 4078 H 376.931 -2.76736 -1.11623 0
M  V30 4079 C 375.68 -2.10811 -2.76503 0
M  V30 4080 H 375.003 -2.97014 -2.67625 0
M  V30 4081 H 376.443 -2.3639 -3.51988 0
M  V30 4082 C 374.902 -0.903165 -3.24568 0
M  V30 4083 O 375.432 -0.118085 -4.01526 0
M  V30 4084 N 373.638 -0.711634 -2.81752 0
M  V30 4085 H 373.185 -1.35171 -2.19286 0
M  V30 4086 H 373.143 0.0930473 -3.14262 0
M  V30 4087 N 376.915 0.57481 -1.46744 0
M  V30 4088 C 377.847 1.69804 -1.53946 0
M  V30 4089 C 378.86 1.57098 -0.427106 0
M  V30 4090 O 380.049 1.64378 -0.695863 0
M  V30 4091 C 377.149 3.08125 -1.4111 0
M  V30 4092 C 376.322 3.46757 -2.66605 0
M  V30 4093 C 375.381 4.6417 -2.47855 0
M  V30 4094 O 374.407 4.69634 -3.21609 0
M  V30 4095 N 375.609 5.59553 -1.54534 0
M  V30 4096 H 378.374 1.64077 -2.50796 0
M  V30 4097 H 375.935 0.761 -1.429 0
M  V30 4098 H 377.927 3.84478 -1.26328 0
M  V30 4099 H 376.497 3.08175 -0.524109 0
M  V30 4100 H 375.717 2.6003 -2.96274 0
M  V30 4101 H 377.005 3.69337 -3.49954 0
M  V30 4102 H 376.403 5.57881 -0.937304 0
M  V30 4103 H 374.96 6.35304 -1.45711 0
M  V30 4104 N 378.394 1.34581 0.820102 0
M  V30 4105 C 379.643 1.26437 1.57151 0
M  V30 4106 C 379.956 -0.163111 1.94919 0
M  V30 4107 O 381.162 -0.366722 2.69012 0
M  V30 4108 C 379.618 2.21658 2.83541 0
M  V30 4109 C 379.226 3.69679 2.53065 0
M  V30 4110 C 380.97 2.22428 3.61561 0
M  V30 4111 C 378.877 4.56761 3.75664 0
M  V30 4112 H 377.807 0.469707 0.589823 0
M  V30 4113 H 380.458 1.59763 0.902656 0
M  V30 4114 H 378.84 1.81287 3.52067 0
M  V30 4115 H 380.014 4.18605 1.92631 0
M  V30 4116 H 378.329 3.71384 1.88316 0
M  V30 4117 H 380.926 2.8471 4.52597 0
M  V30 4118 H 381.269 1.22434 3.97889 0
M  V30 4119 H 381.802 2.61259 2.99981 0
M  V30 4120 H 378.541 5.57702 3.44454 0
M  V30 4121 H 378.061 4.12568 4.35371 0
M  V30 4122 H 379.74 4.71509 4.43044 0
M  V30 4123 N 379.872 -1.04064 1.18357 0
M  V30 4124 C 381.118 -1.77528 0.980397 0
M  V30 4125 C 381.451 -1.87948 -0.48879 0
M  V30 4126 O 380.726 -1.3876 -1.36293 0
M  V30 4127 C 381.009 -3.20797 1.63588 0
M  V30 4128 C 380.862 -3.1832 3.17793 0
M  V30 4129 C 382.181 -4.18911 1.34914 0
M  V30 4130 H 379.3 -0.644443 0.357578 0
M  V30 4131 H 381.942 -1.2156 1.46024 0
M  V30 4132 H 380.092 -3.68586 1.22788 0
M  V30 4133 H 381.764 -2.78521 3.67728 0
M  V30 4134 H 380.007 -2.56351 3.49952 0
M  V30 4135 H 380.678 -4.19489 3.58794 0
M  V30 4136 H 383.154 -3.7967 1.70265 0
M  V30 4137 H 382.03 -5.17374 1.83346 0
M  V30 4138 H 382.291 -4.41262 0.272027 0
M  V30 4139 N 381.35 -0.985608 -1.22978 0
M  V30 4140 C 382.596 -0.667998 -1.92118 0
M  V30 4141 C 382.951 0.790454 -1.75413 0
M  V30 4142 O 382.244 1.56336 -1.10768 0
M  V30 4143 C 382.438 -1.00014 -3.43121 0
M  V30 4144 C 382.267 -2.48933 -3.74516 0
M  V30 4145 C 381.037 -3.15218 -3.94925 0
M  V30 4146 C 383.235 -3.47024 -3.79577 0
M  V30 4147 N 381.217 -4.53689 -4.13569 0
M  V30 4148 C 382.588 -4.70923 -4.03276 0
M  V30 4149 C 384.643 -3.41432 -3.62393 0
M  V30 4150 C 383.346 -5.89914 -4.11574 0
M  V30 4151 C 385.372 -4.59793 -3.71947 0
M  V30 4152 C 384.734 -5.82489 -3.96088 0
M  V30 4153 H 380.833 -0.295589 -0.723983 0
M  V30 4154 H 383.417 -1.26413 -1.4808 0
M  V30 4155 H 381.588 -0.432655 -3.85983 0
M  V30 4156 H 383.32 -0.63927 -3.99619 0
M  V30 4157 H 380.075 -2.65702 -3.92045 0
M  V30 4158 H 380.499 -5.25492 -4.26834 0
M  V30 4159 H 385.141 -2.47594 -3.4272 0
M  V30 4160 H 382.859 -6.84164 -4.30053 0
M  V30 4161 H 386.445 -4.57048 -3.59998 0
M  V30 4162 H 385.325 -6.72546 -4.033 0
M  V30 4163 N 382.828 1.3818 -0.7579 0
M  V30 4164 C 383.775 2.30416 -0.133057 0
M  V30 4165 C 384.745 1.50398 0.704957 0
M  V30 4166 O 385.93 1.79014 0.660192 0
M  V30 4167 C 383.07 3.36834 0.750813 0
M  V30 4168 C 382.183 4.31879 -0.102297 0
M  V30 4169 C 381.318 5.25368 0.784979 0
M  V30 4170 C 380.357 6.12058 -0.0715046 0
M  V30 4171 N 379.494 6.97832 0.772972 0
M  V30 4172 H 384.334 2.83274 -0.925186 0
M  V30 4173 H 381.871 1.39461 -0.467866 0
M  V30 4174 H 383.829 3.97145 1.27794 0
M  V30 4175 H 382.459 2.85374 1.50868 0
M  V30 4176 H 381.511 3.72991 -0.747095 0
M  V30 4177 H 382.823 4.92921 -0.763552 0
M  V30 4178 H 381.977 5.90818 1.37911 0
M  V30 4179 H 380.716 4.64703 1.47996 0
M  V30 4180 H 379.721 5.456 -0.678272 0
M  V30 4181 H 380.946 6.74793 -0.763606 0
M  V30 4182 H 378.892 6.3971 1.45282 0
M  V30 4183 H 378.809 7.55812 0.168709 0
M  V30 4184 H 380.077 7.67687 1.35194 0
M  V30 4185 N 384.306 0.507319 1.49211 0
M  V30 4186 C 385.555 -0.0368315 2.01666 0
M  V30 4187 C 385.868 -1.37459 1.39156 0
M  V30 4188 O 387.074 -2.00579 1.82976 0
M  V30 4189 C 385.53 -0.116089 3.59713 0
M  V30 4190 C 385.138 1.2154 4.31198 0
M  V30 4191 C 386.882 -0.610268 4.2009 0
M  V30 4192 C 384.789 1.09796 5.81119 0
M  V30 4193 H 383.719 -0.0175376 0.753796 0
M  V30 4194 H 386.37 0.647691 1.71689 0
M  V30 4195 H 384.752 -0.8652 3.86433 0
M  V30 4196 H 385.926 1.9783 4.16173 0
M  V30 4197 H 384.241 1.64352 3.82593 0
M  V30 4198 H 386.838 -0.715742 5.29888 0
M  V30 4199 H 387.181 -1.61064 3.8388 0
M  V30 4200 H 387.714 0.0824916 3.97714 0
M  V30 4201 H 384.453 2.0728 6.21864 0
M  V30 4202 H 383.973 0.376058 5.9862 0
M  V30 4203 H 385.652 0.779281 6.4229 0
M  V30 4204 N 385.784 -1.5574 0.241426 0
M  V30 4205 C 386.731 -2.21149 -0.660432 0
M  V30 4206 C 387.701 -1.17356 -1.17545 0
M  V30 4207 O 388.886 -1.45784 -1.23093 0
M  V30 4208 C 386.026 -2.91059 -1.85414 0
M  V30 4209 C 385.139 -4.09495 -1.37616 0
M  V30 4210 C 384.274 -4.67135 -2.529 0
M  V30 4211 C 383.313 -5.77831 -2.01936 0
M  V30 4212 N 382.45 -6.29677 -3.10566 0
M  V30 4213 H 387.29 -2.97845 -0.095955 0
M  V30 4214 H 384.827 -1.47057 -0.0356024 0
M  V30 4215 H 386.785 -3.29788 -2.5553 0
M  V30 4216 H 385.415 -2.16846 -2.39118 0
M  V30 4217 H 384.467 -3.76117 -0.569235 0
M  V30 4218 H 385.779 -4.89423 -0.962618 0
M  V30 4219 H 384.933 -5.08409 -3.31067 0
M  V30 4220 H 383.672 -3.86411 -2.97553 0
M  V30 4221 H 382.677 -5.36039 -1.22238 0
M  V30 4222 H 383.902 -6.60402 -1.58259 0
M  V30 4223 H 381.848 -5.5186 -3.54664 0
M  V30 4224 H 381.765 -7.04783 -2.73526 0
M  V30 4225 H 383.033 -6.75609 -3.88809 0
M  V30 4226 N 387.262 0.0317525 -1.57568 0
M  V30 4227 C 388.172 1.05021 -2.0978 0
M  V30 4228 C 389.188 1.39809 -1.03583 0
M  V30 4229 O 390.364 1.49182 -1.35302 0
M  V30 4230 C 387.429 2.33301 -2.56459 0
M  V30 4231 C 386.49 2.0512 -3.77127 0
M  V30 4232 C 385.723 3.27283 -4.2157 0
M  V30 4233 O 385.946 4.37861 -3.65559 0
M  V30 4234 O 384.88 3.13141 -5.14029 0
M  V30 4235 H 388.706 0.636505 -2.96955 0
M  V30 4236 H 386.291 0.248559 -1.47318 0
M  V30 4237 H 388.173 3.08722 -2.86825 0
M  V30 4238 H 386.848 2.73973 -1.72397 0
M  V30 4239 H 385.755 1.27276 -3.51784 0
M  V30 4240 H 387.088 1.69305 -4.62165 0
M  V30 4241 N 388.74 1.54641 0.303973 0
M  V30 4242 C 389.968 1.77768 1.05858 0
M  V30 4243 C 390.383 0.535722 1.8104 0
M  V30 4244 O 389.74 -0.494337 1.75677 0
M  V30 4245 C 389.791 2.9834 2.04146 0
M  V30 4246 O 389.512 4.17736 1.32015 0
M  V30 4247 C 391.013 3.33832 2.91669 0
M  V30 4248 H 388.233 0.592961 0.314067 0
M  V30 4249 H 390.777 2.01583 0.344149 0
M  V30 4250 H 388.932 2.76742 2.71096 0
M  V30 4251 H 389.346 4.85693 1.97998 0
M  V30 4252 H 390.82 4.21448 3.56491 0
M  V30 4253 H 391.297 2.51857 3.59812 0
M  V30 4254 H 391.903 3.57579 2.30254 0
M  V30 4255 N 390.218 -0.567019 1.47046 0
M  V30 4256 C 391.464 -1.32658 1.53394 0
M  V30 4257 C 391.797 -1.93254 0.19148 0
M  V30 4258 O 391.072 -1.77338 -0.798844 0
M  V30 4259 C 391.355 -2.44412 2.64452 0
M  V30 4260 C 391.208 -1.88749 4.08282 0
M  V30 4261 C 392.527 -3.46387 2.71485 0
M  V30 4262 H 389.646 -0.48098 0.558415 0
M  V30 4263 H 392.288 -0.635481 1.79058 0
M  V30 4264 H 390.438 -3.03363 2.427 0
M  V30 4265 H 392.11 -1.34134 4.41368 0
M  V30 4266 H 390.353 -1.19481 4.17021 0
M  V30 4267 H 391.024 -2.69491 4.81745 0
M  V30 4268 H 393.5 -2.9734 2.91081 0
M  V30 4269 H 392.376 -4.2202 3.50985 0
M  V30 4270 H 392.637 -4.04616 1.78153 0
M  V30 4271 N 391.696 -1.35014 -0.812953 0
M  V30 4272 C 392.643 -1.27412 -1.92444 0
M  V30 4273 C 393.613 -0.14733 -1.65445 0
M  V30 4274 O 394.798 -0.329974 -1.87925 0
M  V30 4275 C 391.938 -1.04558 -3.28879 0
M  V30 4276 C 391.051 -2.26101 -3.68106 0
M  V30 4277 C 390.186 -1.96449 -4.9354 0
M  V30 4278 C 389.225 -3.14081 -5.25376 0
M  V30 4279 N 388.362 -2.84246 -6.41988 0
M  V30 4280 H 393.202 -2.22463 -1.98278 0
M  V30 4281 H 390.739 -1.10593 -0.969933 0
M  V30 4282 H 392.697 -0.893413 -4.07522 0
M  V30 4283 H 391.327 -0.131719 -3.22531 0
M  V30 4284 H 390.379 -2.52204 -2.84775 0
M  V30 4285 H 391.691 -3.13959 -3.87597 0
M  V30 4286 H 390.845 -1.78026 -5.79993 0
M  V30 4287 H 389.584 -1.05867 -4.76071 0
M  V30 4288 H 388.589 -3.33089 -4.37415 0
M  V30 4289 H 389.814 -4.05455 -5.44778 0
M  V30 4290 H 387.76 -1.96252 -6.25956 0
M  V30 4291 H 387.677 -3.65637 -6.61699 0
M  V30 4292 H 388.945 -2.6935 -7.31485 0
M  V30 4293 N 393.175 1.03435 -1.18907 0
M  V30 4294 C 394.085 2.15075 -0.937015 0
M  V30 4295 C 395.101 1.73706 0.101085 0
M  V30 4296 O 396.277 2.01232 -0.0822948 0
M  V30 4297 C 393.342 3.43458 -0.473057 0
M  V30 4298 C 392.403 3.99172 -1.57989 0
M  V30 4299 C 391.636 5.21427 -1.13797 0
M  V30 4300 O 391.859 5.704 0.000725941 0
M  V30 4301 O 390.793 5.69837 -1.9383 0
M  V30 4302 H 394.619 2.39198 -1.87131 0
M  V30 4303 H 392.204 1.13506 -0.971427 0
M  V30 4304 H 394.086 4.20811 -0.222702 0
M  V30 4305 H 392.761 3.20793 0.432869 0
M  V30 4306 H 391.668 3.23178 -1.88433 0
M  V30 4307 H 393.001 4.2619 -2.46217 0
M  V30 4308 N 394.653 0.992116 1.22453 0
M  V30 4309 C 395.9 0.667534 1.91181 0
M  V30 4310 C 396.228 -0.800317 1.77271 0
M  V30 4311 O 395.483 -1.59421 1.13505 0
M  V30 4312 C 395.782 1.01832 3.42586 0
M  V30 4313 C 395.448 2.47831 3.76684 0
M  V30 4314 C 394.11 2.87729 3.85701 0
M  V30 4315 C 396.462 3.42466 3.92895 0
M  V30 4316 C 393.79 4.21252 4.08367 0
M  V30 4317 C 396.142 4.75648 4.17064 0
M  V30 4318 C 394.806 5.15288 4.24305 0
M  V30 4319 H 394.076 0.244268 0.699581 0
M  V30 4320 H 396.723 1.24816 1.45235 0
M  V30 4321 H 395.028 0.355769 3.90181 0
M  V30 4322 H 396.725 0.745228 3.94014 0
M  V30 4323 H 393.315 2.15905 3.70247 0
M  V30 4324 H 397.499 3.12814 3.85307 0
M  V30 4325 H 392.755 4.51554 4.122 0
M  V30 4326 H 396.929 5.48924 4.2855 0
M  V30 4327 H 394.556 6.18769 4.41621 0
M  V30 4328 N 396.131 -1.37776 0.765217 0
M  V30 4329 C 397.361 -2.03828 0.337277 0
M  V30 4330 C 397.769 -1.57841 -1.04321 0
M  V30 4331 O 397.112 -0.752043 -1.67601 0
M  V30 4332 C 397.174 -3.58292 0.294407 0
M  V30 4333 C 396.838 -4.27384 1.61838 0
M  V30 4334 C 397.835 -4.51956 2.56967 0
M  V30 4335 C 395.52 -4.65345 1.89102 0
M  V30 4336 C 397.514 -5.13536 3.77571 0
M  V30 4337 C 395.201 -5.26647 3.09978 0
M  V30 4338 C 396.199 -5.50679 4.04032 0
M  V30 4339 O 395.887 -6.10702 5.2278 0
M  V30 4340 H 395.619 -0.661292 0.140248 0
M  V30 4341 H 398.173 -1.77222 1.03834 0
M  V30 4342 H 396.403 -3.83918 -0.462983 0
M  V30 4343 H 398.092 -4.05763 -0.105581 0
M  V30 4344 H 398.858 -4.23048 2.37183 0
M  V30 4345 H 394.737 -4.45978 1.16725 0
M  V30 4346 H 398.281 -5.3221 4.50997 0
M  V30 4347 H 394.178 -5.54979 3.29649 0
M  V30 4348 H 394.946 -6.29183 5.23517 0
M  V30 4349 N 397.609 -0.515225 -1.4894 0
M  V30 4350 C 398.857 0.0241671 -2.02086 0
M  V30 4351 C 399.178 1.3616 -1.3959 0
M  V30 4352 O 398.448 1.87841 -0.556121 0
M  V30 4353 H 397.028 0.0119203 -0.746905 0
M  V30 4354 H 399.69 -0.675702 -1.82812 0
M  V30 4355 H 398.786 0.143385 -3.1177 0
M  V30 4356 N 399.087 1.5561 -0.249682 0
M  V30 4357 C 399.997 2.25143 0.659375 0
M  V30 4358 C 401.013 1.2685 1.19101 0
M  V30 4359 O 402.189 1.59732 1.22669 0
M  V30 4360 C 399.254 2.93945 1.8384 0
M  V30 4361 C 398.315 4.07655 1.34596 0
M  V30 4362 C 397.548 4.73167 2.46878 0
M  V30 4363 O 397.771 4.37768 3.65671 0
M  V30 4364 O 396.705 5.61623 2.16478 0
M  V30 4365 H 400.531 3.03545 0.0968698 0
M  V30 4366 H 398.116 1.49389 -0.018074 0
M  V30 4367 H 399.998 3.37271 2.52638 0
M  V30 4368 H 398.673 2.18481 2.38847 0
M  V30 4369 H 397.58 3.68839 0.625174 0
M  V30 4370 H 398.913 4.84946 0.841941 0
M  V30 4371 N 400.565 -0.0233959 1.57583 0
M  V30 4372 C 401.513 -1.04063 2.08023 0
M  V30 4373 C 402.507 -1.37084 0.995204 0
M  V30 4374 O 403.713 -1.35923 1.18004 0
M  V30 4375 H 400.088 -0.353144 0.663922 0
M  V30 4376 H 402.059 -0.589453 2.9252 0
M  V30 4377 C 400.808 -2.33123 2.57971 0
M  V30 4378 H 400.131 -2.08577 3.4108 0
M  V30 4379 H 401.571 -3.02632 2.96967 0
M  V30 4380 C 400.03 -3.02483 1.48342 0
M  V30 4381 O 400.56 -3.92541 0.852898 0
M  V30 4382 N 398.766 -2.63909 1.21658 0
M  V30 4383 H 398.313 -1.90758 1.73116 0
M  V30 4384 H 398.271 -3.10633 0.485218 0
M  V30 4385 N 402.043 -1.548 -0.295768 0
M  V30 4386 C 403.292 -1.73538 -1.02798 0
M  V30 4387 C 403.605 -0.531159 -1.8825 0
M  V30 4388 O 404.811 -0.600458 -2.64777 0
M  V30 4389 C 403.267 -3.07051 -1.87744 0
M  V30 4390 C 402.875 -4.34968 -1.07269 0
M  V30 4391 C 404.619 -3.35146 -2.60533 0
M  V30 4392 C 402.526 -5.5953 -1.91521 0
M  V30 4393 H 401.456 -0.646794 -0.387522 0
M  V30 4394 H 404.107 -1.81278 -0.284718 0
M  V30 4395 H 402.489 -2.93289 -2.66078 0
M  V30 4396 H 403.663 -4.5958 -0.335117 0
M  V30 4397 H 401.978 -4.13847 -0.460384 0
M  V30 4398 H 404.575 -4.2541 -3.23929 0
M  V30 4399 H 404.918 -2.54255 -3.29636 0
M  V30 4400 H 405.451 -3.49902 -1.89244 0
M  V30 4401 H 402.19 -6.43103 -1.26878 0
M  V30 4402 H 401.71 -5.39096 -2.62937 0
M  V30 4403 H 403.389 -5.96982 -2.49442 0
M  V30 4404 N 403.521 0.559213 -1.47345 0
M  V30 4405 C 404.468 1.66645 -1.59682 0
M  V30 4406 C 405.438 1.60168 -0.43994 0
M  V30 4407 O 406.623 1.79031 -0.659736 0
M  V30 4408 C 403.763 3.04969 -1.61518 0
M  V30 4409 C 402.876 3.21897 -2.88108 0
M  V30 4410 C 402.011 4.50608 -2.81294 0
M  V30 4411 C 401.05 4.60961 -4.02717 0
M  V30 4412 N 400.187 5.81024 -3.94151 0
M  V30 4413 H 405.027 1.55439 -2.54249 0
M  V30 4414 H 402.564 0.757219 -1.26113 0
M  V30 4415 H 404.522 3.85064 -1.60566 0
M  V30 4416 H 403.152 3.15015 -0.704645 0
M  V30 4417 H 402.204 2.35248 -2.98936 0
M  V30 4418 H 403.516 3.25412 -3.78032 0
M  V30 4419 H 402.67 5.3896 -2.7858 0
M  V30 4420 H 401.409 4.49568 -1.89049 0
M  V30 4421 H 400.414 3.71021 -4.05738 0
M  V30 4422 H 401.639 4.63761 -4.96087 0
M  V30 4423 H 399.585 5.80938 -3.04708 0
M  V30 4424 H 399.502 5.85909 -4.77752 0
M  V30 4425 H 400.77 6.71744 -3.9545 0
M  V30 4426 N 404.999 1.35443 0.805782 0
M  V30 4427 C 405.909 1.30546 1.94923 0
M  V30 4428 C 406.925 0.210233 1.72725 0
M  V30 4429 O 408.101 0.43975 1.9654 0
M  V30 4430 C 405.166 1.07782 3.29521 0
M  V30 4431 C 404.227 2.26625 3.64609 0
M  V30 4432 C 403.46 2.04938 4.92784 0
M  V30 4433 O 403.683 1.01624 5.61274 0
M  V30 4434 O 402.617 2.9232 5.26149 0
M  V30 4435 H 406.443 2.26779 2.02002 0
M  V30 4436 H 404.028 1.15823 0.943682 0
M  V30 4437 H 405.91 0.969392 4.10098 0
M  V30 4438 H 404.585 0.146003 3.23371 0
M  V30 4439 H 403.492 2.43033 2.84404 0
M  V30 4440 H 404.825 3.18257 3.75464 0
M  V30 4441 N 406.477 -1.02803 1.19454 0
M  V30 4442 C 407.702 -1.80378 1.02364 0
M  V30 4443 C 408.127 -1.83282 -0.423007 0
M  V30 4444 O 407.485 -1.25945 -1.30413 0
M  V30 4445 C 407.533 -3.23248 1.59821 0
M  V30 4446 O 406.637 -4.04 0.828105 0
M  V30 4447 H 405.978 -0.556799 0.361761 0
M  V30 4448 H 408.508 -1.29385 1.58495 0
M  V30 4449 H 408.518 -3.73994 1.63073 0
M  V30 4450 H 407.193 -3.2045 2.65113 0
M  V30 4451 H 405.77 -3.62635 0.86891 0
M  V30 4452 N 407.956 -0.998596 -1.21925 0
M  V30 4453 C 409.367 -0.711939 -1.72593 0
M  V30 4454 C 409.718 0.770842 -1.80423 0
M  V30 4455 O 408.843 1.60237 -1.4544 0
M  V30 4456 C 409.438 -1.28567 -3.13458 0
M  V30 4457 C 407.997 -1.04828 -3.61508 0
M  V30 4458 C 407.144 -1.4024 -2.39224 0
M  V30 4459 H 410.095 -1.17027 -1.07193 0
M  V30 4460 H 410.116 -0.667098 -3.74607 0
M  V30 4461 H 409.628 -2.36486 -3.07727 0
M  V30 4462 H 407.729 0.0140383 -3.72597 0
M  V30 4463 H 407.842 -1.71566 -4.47328 0
M  V30 4464 H 406.206 -0.821077 -2.41103 0
M  V30 4465 H 406.989 -2.49176 -2.36149 0
M  V30 4466 N 409.434 1.37368 -0.772513 0
M  V30 4467 C 410.711 1.93839 -0.26188 0
M  V30 4468 C 411.091 1.7061 1.24319 0
M  V30 4469 O 410.439 1.05534 2.02669 0
M  V30 4470 C 410.649 3.43154 -0.636102 0
M  V30 4471 C 411.997 4.20249 -0.606324 0
M  V30 4472 O 413.021 3.5152 -0.575538 0
M  V30 4473 O 411.88 5.42809 -0.634086 0
M  V30 4474 H 408.974 0.82478 -0.0605555 0
M  V30 4475 H 411.52 1.4665 -0.853917 0
M  V30 4476 H 410.292 3.53647 -1.6748 0
M  V30 4477 H 409.915 3.97596 -0.0170516 0
M  V30 4478 N 410.912 0.523116 1.48665 0
M  V30 4479 C 412.142 -0.00961724 2.06598 0
M  V30 4480 C 412.55 -1.29333 1.38093 0
M  V30 4481 O 411.893 -1.77846 0.46007 0
M  V30 4482 C 411.955 -0.311135 3.58151 0
M  V30 4483 C 411.619 0.878092 4.48485 0
M  V30 4484 C 412.616 1.77464 4.88674 0
M  V30 4485 C 410.301 1.08315 4.90483 0
M  V30 4486 C 412.295 2.86021 5.69623 0
M  V30 4487 C 409.982 2.17187 5.71203 0
M  V30 4488 C 410.98 3.05873 6.10681 0
M  V30 4489 O 410.668 4.12862 6.89783 0
M  V30 4490 H 410.4 0.0272658 0.67545 0
M  V30 4491 H 412.954 0.726156 1.92136 0
M  V30 4492 H 411.184 -1.10079 3.70701 0
M  V30 4493 H 412.873 -0.785125 3.98234 0
M  V30 4494 H 413.639 1.62813 4.56855 0
M  V30 4495 H 409.518 0.402149 4.59243 0
M  V30 4496 H 413.062 3.55272 6.00356 0
M  V30 4497 H 408.959 2.31824 6.02435 0
M  V30 4498 H 409.727 4.10487 7.08126 0
M  V30 4499 N 412.39 -1.55475 0.257931 0
M  V30 4500 C 413.3 -2.2549 -0.647425 0
M  V30 4501 C 414.316 -1.2748 -1.18427 0
M  V30 4502 O 415.492 -1.6038 -1.2182 0
M  V30 4503 C 412.557 -2.94916 -1.82278 0
M  V30 4504 C 411.618 -4.08363 -1.32432 0
M  V30 4505 C 410.851 -4.74469 -2.44366 0
M  V30 4506 O 411.074 -4.39701 -3.63344 0
M  V30 4507 O 410.008 -5.62763 -2.13497 0
M  V30 4508 H 413.834 -3.03593 -0.0807707 0
M  V30 4509 H 411.419 -1.49377 0.0259962 0
M  V30 4510 H 413.301 -3.38606 -2.50846 0
M  V30 4511 H 411.976 -2.19744 -2.37685 0
M  V30 4512 H 410.883 -3.69166 -0.605605 0
M  V30 4513 H 412.216 -4.85385 -0.816211 0
M  V30 4514 N 413.868 0.0150385 -1.57593 0
M  V30 4515 C 415.284 0.370907 -1.5523 0
M  V30 4516 C 415.484 1.75735 -0.985882 0
M  V30 4517 O 414.54 2.44944 -0.613077 0
M  V30 4518 C 415.853 0.259908 -2.99575 0
M  V30 4519 C 417.401 0.335959 -3.11192 0
M  V30 4520 C 417.876 0.254253 -4.57294 0
M  V30 4521 N 419.367 0.312618 -4.62144 0
M  V30 4522 C 420.102 0.272505 -5.72752 0
M  V30 4523 N 419.598 0.183864 -6.92556 0
M  V30 4524 N 421.391 0.323267 -5.6117 0
M  V30 4525 H 413.542 -0.892104 -1.92757 0
M  V30 4526 H 415.805 -0.340563 -0.884715 0
M  V30 4527 H 415.511 -0.693403 -3.44797 0
M  V30 4528 H 415.385 1.048 -3.62349 0
M  V30 4529 H 417.772 1.27971 -2.65909 0
M  V30 4530 H 417.853 -0.481739 -2.51223 0
M  V30 4531 H 417.497 -0.685887 -5.03247 0
M  V30 4532 H 417.427 1.09024 -5.15191 0
M  V30 4533 H 419.918 0.38307 -3.75953 0
M  V30 4534 H 420.231 0.15874 -7.72637 0
M  V30 4535 H 418.576 0.149708 -6.94839 0
M  V30 4536 H 421.767 0.390607 -4.66467 0
M  V30 4537 H 421.94 0.288539 -6.47357 0
M  V30 4538 N 415.346 1.54954 0.287554 0
M  V30 4539 C 416.595 1.74081 1.01877 0
M  V30 4540 C 416.908 0.541135 1.87966 0
M  V30 4541 O 418.114 0.614491 2.64455 0
M  V30 4542 C 416.57 3.08042 1.86113 0
M  V30 4543 C 416.178 4.35531 1.04961 0
M  V30 4544 C 417.922 3.36523 2.58752 0
M  V30 4545 C 415.829 5.60538 1.88551 0
M  V30 4546 H 414.759 0.64884 0.384087 0
M  V30 4547 H 417.41 1.81426 0.275101 0
M  V30 4548 H 415.792 2.94696 2.64519 0
M  V30 4549 H 416.966 4.59751 0.31074 0
M  V30 4550 H 415.281 4.14085 0.43843 0
M  V30 4551 H 417.878 4.27122 3.21668 0
M  V30 4552 H 418.221 2.56 3.28283 0
M  V30 4553 H 418.754 3.50901 1.87386 0
M  V30 4554 H 415.493 6.43767 1.23466 0
M  V30 4555 H 415.013 5.40483 2.60074 0
M  V30 4556 H 416.692 5.98297 2.46273 0
M  V30 4557 N 416.824 -0.551391 1.4764 0
M  V30 4558 C 418.073 -1.30467 1.53822 0
M  V30 4559 C 418.386 -1.94495 0.207661 0
M  V30 4560 O 419.592 -2.71099 0.147533 0
M  V30 4561 C 418.048 -2.36616 2.71184 0
M  V30 4562 C 417.656 -1.78754 4.10793 0
M  V30 4563 C 419.4 -3.13088 2.86663 0
M  V30 4564 C 417.307 -2.82717 5.19447 0
M  V30 4565 H 416.237 -0.490584 0.572576 0
M  V30 4566 H 418.888 -0.58494 1.73927 0
M  V30 4567 H 417.27 -3.11529 2.4447 0
M  V30 4568 H 418.444 -1.10173 4.47435 0
M  V30 4569 H 416.759 -1.14846 4.00249 0
M  V30 4570 H 419.356 -3.90736 3.65007 0
M  V30 4571 H 419.699 -3.67635 1.95321 0
M  V30 4572 H 420.232 -2.45288 3.13175 0
M  V30 4573 H 416.971 -2.33018 6.12685 0
M  V30 4574 H 416.491 -3.4969 4.87316 0
M  V30 4575 H 418.17 -3.46102 5.46646 0
M  V30 4576 N 418.302 -1.35869 -0.798587 0
M  V30 4577 C 419.25 -1.29491 -1.93222 0
M  V30 4578 C 420.244 -0.18836 -1.6835 0
M  V30 4579 O 421.45 -0.354822 -1.76468 0
M  V30 4580 H 417.825 -0.402901 -0.63496 0
M  V30 4581 H 419.796 -2.25247 -1.9572 0
M  V30 4582 C 418.545 -1.09184 -3.30112 0
M  V30 4583 H 417.868 -1.93574 -3.49813 0
M  V30 4584 H 419.308 -1.08766 -4.09812 0
M  V30 4585 C 417.767 0.203959 -3.36282 0
M  V30 4586 O 418.297 1.19699 -3.83451 0
M  V30 4587 N 416.503 0.245488 -2.89561 0
M  V30 4588 H 416.05 -0.563223 -2.51367 0
M  V30 4589 H 416.008 1.11219 -2.94071 0
M  V30 4590 N 419.78 1.02168 -1.19998 0
M  V30 4591 C 420.71 2.12488 -0.96804 0
M  V30 4592 C 421.691 1.69799 0.101185 0
M  V30 4593 O 422.876 1.94121 -0.0552993 0
M  V30 4594 C 420.006 3.43479 -0.513776 0
M  V30 4595 C 418.96 3.99884 -1.52566 0
M  V30 4596 C 418.286 5.26582 -0.928214 0
M  V30 4597 C 419.586 4.33861 -2.90795 0
M  V30 4598 H 421.28 2.32149 -1.89069 0
M  V30 4599 H 418.826 1.11564 -0.910468 0
M  V30 4600 H 420.779 4.20036 -0.338774 0
M  V30 4601 H 419.503 3.23561 0.444493 0
M  V30 4602 H 418.162 3.25429 -1.68794 0
M  V30 4603 H 417.81 5.02986 0.0378289 0
M  V30 4604 H 417.51 5.65284 -1.60397 0
M  V30 4605 H 419.034 6.05799 -0.764167 0
M  V30 4606 H 420.448 5.01327 -2.78109 0
M  V30 4607 H 418.845 4.83664 -3.55231 0
M  V30 4608 H 419.915 3.42848 -3.42904 0
M  V30 4609 N 421.258 1.00505 1.21394 0
M  V30 4610 C 422.674 0.717873 1.42544 0
M  V30 4611 C 422.874 -0.706936 1.88692 0
M  V30 4612 O 421.93 -1.47627 2.04847 0
M  V30 4613 C 423.243 1.73377 2.45684 0
M  V30 4614 C 424.791 1.75059 2.59467 0
M  V30 4615 C 425.266 2.75545 3.6584 0
M  V30 4616 N 426.757 2.74213 3.73311 0
M  V30 4617 C 427.492 3.48626 4.55245 0
M  V30 4618 N 426.988 4.32678 5.41075 0
M  V30 4619 N 428.781 3.37276 4.49668 0
M  V30 4620 H 420.932 1.92506 0.897503 0
M  V30 4621 H 423.195 0.830919 0.456375 0
M  V30 4622 H 422.901 2.75395 2.18748 0
M  V30 4623 H 422.775 1.53647 3.44489 0
M  V30 4624 H 425.162 0.737337 2.8574 0
M  V30 4625 H 425.243 1.98861 1.60897 0
M  V30 4626 H 424.887 3.77028 3.40313 0
M  V30 4627 H 424.817 2.49009 4.64007 0
M  V30 4628 H 427.308 2.13234 3.11993 0
M  V30 4629 H 427.621 4.86253 6.00648 0
M  V30 4630 H 425.966 4.3676 5.40616 0
M  V30 4631 H 429.157 2.71043 3.81646 0
M  V30 4632 H 429.33 3.95524 5.13288 0
M  V30 4633 N 422.737 -1.36956 0.779787 0
M  V30 4634 C 423.687 -2.27539 0.144892 0
M  V30 4635 C 424.671 -1.46493 -0.665488 0
M  V30 4636 O 425.863 -1.68968 -0.527141 0
M  V30 4637 C 422.992 -3.35512 -0.727082 0
M  V30 4638 C 422.078 -4.24001 0.0915642 0
M  V30 4639 N 422.469 -4.92757 1.14125 0
M  V30 4640 C 420.767 -4.45807 -0.131141 0
M  V30 4641 C 421.468 -5.58138 1.6388 0
M  V30 4642 N 420.444 -5.35241 0.94962 0
M  V30 4643 H 424.246 -2.78176 0.948446 0
M  V30 4644 H 421.76 -1.50169 0.618315 0
M  V30 4645 H 423.757 -3.99324 -1.19776 0
M  V30 4646 H 422.417 -2.86431 -1.52929 0
M  V30 4647 H 423.428 -4.94984 1.52353 0
M  V30 4648 H 420.105 -4.07582 -0.904621 0
M  V30 4649 H 421.495 -6.23071 2.51461 0
M  V30 4650 N 424.215 -0.530993 -1.48385 0
M  V30 4651 C 425.462 0.0027373 -2.025 0
M  V30 4652 C 425.79 1.34186 -1.40799 0
M  V30 4653 O 425.045 1.88 -0.543544 0
M  V30 4654 C 425.344 0.172742 -3.56982 0
M  V30 4655 C 425.01 -1.09215 -4.37473 0
M  V30 4656 C 423.672 -1.43881 -4.59186 0
M  V30 4657 C 426.024 -1.93153 -4.84088 0
M  V30 4658 C 423.352 -2.62381 -5.2476 0
M  V30 4659 C 425.704 -3.10833 -5.50968 0
M  V30 4660 C 424.368 -3.45843 -5.70919 0
M  V30 4661 H 423.638 0.00100165 -0.740999 0
M  V30 4662 H 426.285 -0.697219 -1.78357 0
M  V30 4663 H 424.59 0.955473 -3.79971 0
M  V30 4664 H 426.287 0.600642 -3.96476 0
M  V30 4665 H 422.877 -0.812177 -4.20834 0
M  V30 4666 H 427.061 -1.67683 -4.67115 0
M  V30 4667 H 422.317 -2.89707 -5.38405 0
M  V30 4668 H 426.491 -3.7618 -5.86056 0
M  V30 4669 H 424.118 -4.37764 -6.21503 0
M  V30 4670 N 425.693 1.55336 -0.266172 0
M  V30 4671 C 426.64 2.22172 0.625165 0
M  V30 4672 C 427.61 1.19211 1.15663 0
M  V30 4673 O 428.795 1.47723 1.20758 0
M  V30 4674 C 425.935 2.93972 1.8076 0
M  V30 4675 C 425.048 4.11632 1.31084 0
M  V30 4676 C 424.183 4.71099 2.45436 0
M  V30 4677 C 423.222 5.8097 1.92718 0
M  V30 4678 N 422.359 6.34538 3.00509 0
M  V30 4679 H 427.199 2.9796 0.0485582 0
M  V30 4680 H 424.736 1.47095 0.0122024 0
M  V30 4681 H 426.694 3.33811 2.50251 0
M  V30 4682 H 425.324 2.20623 2.35638 0
M  V30 4683 H 424.376 3.76975 0.509326 0
M  V30 4684 H 425.688 4.90893 0.884633 0
M  V30 4685 H 424.842 5.13612 3.22936 0
M  V30 4686 H 423.581 3.91096 2.91368 0
M  V30 4687 H 422.586 5.37916 1.13695 0
M  V30 4688 H 423.811 6.62836 1.47733 0
M  V30 4689 H 421.757 5.57433 3.45839 0
M  V30 4690 H 421.674 7.09046 2.62279 0
M  V30 4691 H 422.942 6.81709 3.78011 0
M  V30 4692 N 427.171 -0.0066808 1.57599 0
M  V30 4693 C 428.587 -0.36267 1.55425 0
M  V30 4694 C 428.787 -1.75209 0.995187 0
M  V30 4695 O 427.843 -2.44616 0.626058 0
M  V30 4696 C 429.156 -0.244017 2.99708 0
M  V30 4697 C 430.704 -0.319451 3.11366 0
M  V30 4698 C 431.179 -0.229998 4.57422 0
M  V30 4699 N 432.67 -0.288105 4.62303 0
M  V30 4700 C 433.405 -0.242127 5.72889 0
M  V30 4701 N 432.901 -0.147133 6.92644 0
M  V30 4702 N 434.694 -0.293502 5.61333 0
M  V30 4703 H 426.845 0.902314 1.92281 0
M  V30 4704 H 429.108 0.34525 0.882896 0
M  V30 4705 H 428.814 0.711678 3.44424 0
M  V30 4706 H 428.688 -1.02877 3.629 0
M  V30 4707 H 431.075 -1.26559 2.66584 0
M  V30 4708 H 431.156 0.495055 2.50964 0
M  V30 4709 H 430.8 0.712566 5.02877 0
M  V30 4710 H 430.73 -1.0629 5.15761 0
M  V30 4711 H 433.221 -0.363126 3.76151 0
M  V30 4712 H 433.534 -0.117763 7.7271 0
M  V30 4713 H 431.879 -0.112857 6.94908 0
M  V30 4714 H 435.07 -0.365864 4.66668 0
M  V30 4715 H 435.243 -0.254204 6.47501 0
M  V30 4716 N 428.649 -1.55105 -0.279332 0
M  V30 4717 C 429.898 -1.74618 -1.00952 0
M  V30 4718 C 430.211 -0.551096 -1.87676 0
M  V30 4719 O 431.417 -0.628507 -2.64125 0
M  V30 4720 C 429.873 -3.09025 -1.84476 0
M  V30 4721 C 429.481 -4.36081 -1.0265 0
M  V30 4722 C 431.225 -3.37891 -2.56963 0
M  V30 4723 C 429.132 -5.6153 -1.85576 0
M  V30 4724 H 428.062 -0.650868 -0.38064 0
M  V30 4725 H 430.713 -1.81569 -0.265475 0
M  V30 4726 H 429.095 -2.96095 -2.62952 0
M  V30 4727 H 430.269 -4.59909 -0.286354 0
M  V30 4728 H 428.584 -4.14312 -0.416464 0
M  V30 4729 H 431.181 -4.28822 -3.19399 0
M  V30 4730 H 431.524 -2.57737 -3.26921 0
M  V30 4731 H 432.057 -3.5189 -1.85522 0
M  V30 4732 H 428.796 -6.44413 -1.2005 0
M  V30 4733 H 428.316 -5.41854 -2.57204 0
M  V30 4734 H 429.995 -5.99594 -2.43096 0
M  V30 4735 N 430.127 0.543554 -1.4793 0
M  V30 4736 C 431.057 1.65888 -1.64327 0
M  V30 4737 C 432.038 1.62818 -0.492383 0
M  V30 4738 O 433.223 1.80226 -0.723338 0
M  V30 4739 C 430.353 3.04506 -1.67013 0
M  V30 4740 C 429.307 3.2243 -2.81466 0
M  V30 4741 C 428.633 4.61972 -2.69233 0
M  V30 4742 C 429.933 3.06496 -4.22915 0
M  V30 4743 H 431.627 1.52421 -2.57698 0
M  V30 4744 H 429.173 0.731849 -1.24016 0
M  V30 4745 H 431.126 3.82391 -1.77074 0
M  V30 4746 H 429.85 3.18964 -0.70212 0
M  V30 4747 H 428.509 2.46957 -2.70938 0
M  V30 4748 H 428.157 4.73247 -1.7043 0
M  V30 4749 H 427.857 4.74911 -3.46025 0
M  V30 4750 H 429.381 5.41974 -2.81242 0
M  V30 4751 H 430.795 3.74186 -4.34348 0
M  V30 4752 H 429.192 3.30938 -5.006 0
M  V30 4753 H 430.262 2.03077 -4.40327 0
M  V30 4754 N 431.605 1.3629 0.791371 0
M  V30 4755 C 432.83 1.33726 1.58531 0
M  V30 4756 C 433.255 -0.0794933 1.87932 0
M  V30 4757 O 432.613 -1.05087 1.47738 0
M  V30 4758 C 432.661 2.16425 2.88431 0
M  V30 4759 O 431.765 1.5554 3.81944 0
M  V30 4760 H 431.106 0.457793 0.480959 0
M  V30 4761 H 433.636 1.79547 0.981031 0
M  V30 4762 H 433.646 2.28933 3.37718 0
M  V30 4763 H 432.321 3.19415 2.66359 0
M  V30 4764 H 430.898 1.51961 3.40532 0
M  V30 4765 N 433.083 -1.0153 1.20538 0
M  V30 4766 C 434.013 -2.11972 0.979295 0
M  V30 4767 C 434.994 -1.6985 -0.0921787 0
M  V30 4768 O 436.179 -1.94089 0.0655932 0
M  V30 4769 C 433.309 -3.43201 0.531984 0
M  V30 4770 C 432.263 -3.9907 1.54685 0
M  V30 4771 C 431.589 -5.26082 0.956127 0
M  V30 4772 C 432.889 -4.32313 2.93092 0
M  V30 4773 H 434.583 -2.31143 1.90298 0
M  V30 4774 H 432.129 -1.11079 0.916372 0
M  V30 4775 H 434.082 -4.1985 0.361044 0
M  V30 4776 H 432.806 -3.23792 -0.427327 0
M  V30 4777 H 431.465 -3.2453 1.70517 0
M  V30 4778 H 431.113 -5.02999 -0.0111538 0
M  V30 4779 H 430.813 -5.64426 1.63393 0
M  V30 4780 H 432.337 -6.05386 0.796284 0
M  V30 4781 H 433.751 -4.99845 2.80763 0
M  V30 4782 H 432.148 -4.81774 3.57791 0
M  V30 4783 H 433.218 -3.41025 3.44717 0
M  V30 4784 N 434.561 -1.01147 -1.20859 0
M  V30 4785 C 435.491 -0.597663 -2.25722 0
M  V30 4786 C 436.472 0.384744 -1.65692 0
M  V30 4787 O 437.657 0.271303 -1.92296 0
M  V30 4788 C 434.787 0.0700149 -3.47229 0
M  V30 4789 C 433.741 -0.832843 -4.19819 0
M  V30 4790 C 433.067 -0.0312202 -5.34691 0
M  V30 4791 C 434.367 -2.1385 -4.76514 0
M  V30 4792 H 436.061 -1.47423 -2.60589 0
M  V30 4793 H 433.607 -0.710301 -1.25263 0
M  V30 4794 H 435.56 0.37103 -4.19763 0
M  V30 4795 H 434.284 0.981259 -3.11511 0
M  V30 4796 H 432.943 -1.11778 -3.49144 0
M  V30 4797 H 432.591 0.881515 -4.95215 0
M  V30 4798 H 432.291 -0.632434 -5.84187 0
M  V30 4799 H 433.815 0.26346 -6.10031 0
M  V30 4800 H 435.229 -1.9002 -5.40893 0
M  V30 4801 H 433.626 -2.69012 -5.36426 0
M  V30 4802 H 434.696 -2.80495 -3.95538 0
M  V30 4803 N 436.039 1.36541 -0.78704 0
M  V30 4804 C 436.949 2.3387 -0.184896 0
M  V30 4805 C 437.965 1.60927 0.661697 0
M  V30 4806 O 439.141 1.92927 0.57804 0
M  V30 4807 C 436.206 3.40122 0.672145 0
M  V30 4808 C 435.267 4.28867 -0.19267 0
M  V30 4809 C 434.5 5.30045 0.623561 0
M  V30 4810 O 434.723 5.39232 1.8597 0
M  V30 4811 O 433.657 6.01895 0.0247068 0
M  V30 4812 H 437.483 2.87126 -0.989562 0
M  V30 4813 H 435.068 1.38969 -0.548455 0
M  V30 4814 H 436.95 4.05093 1.16094 0
M  V30 4815 H 435.625 2.89169 1.45474 0
M  V30 4816 H 434.532 3.66945 -0.728166 0
M  V30 4817 H 435.865 4.83165 -0.938722 0
M  V30 4818 N 437.518 0.538854 1.48102 0
M  V30 4819 C 438.766 0.00798599 2.02098 0
M  V30 4820 C 439.087 -1.33922 1.41739 0
M  V30 4821 O 438.357 -1.86932 0.585934 0
M  V30 4822 H 436.937 -3.62179e-05 0.747 0
M  V30 4823 H 439.599 0.7047 1.81714 0
M  V30 4824 H 438.695 -0.0937672 3.11959 0
M  V30 4825 N 438.996 -1.55193 0.274407 0
M  V30 4826 C 439.928 -2.1989 -0.646595 0
M  V30 4827 C 440.941 -1.1834 -1.11801 0
M  V30 4828 O 442.13 -1.4507 -1.04004 0
M  V30 4829 C 439.23 -2.8104 -1.89393 0
M  V30 4830 C 438.403 -4.08274 -1.56943 0
M  V30 4831 C 437.462 -4.53478 -2.66916 0
M  V30 4832 O 436.488 -5.19267 -2.33132 0
M  V30 4833 N 437.69 -4.2356 -3.9696 0
M  V30 4834 H 440.455 -2.99556 -0.0928686 0
M  V30 4835 H 438.016 -1.61618 0.0954783 0
M  V30 4836 H 440.008 -3.08226 -2.62257 0
M  V30 4837 H 438.578 -2.05372 -2.35672 0
M  V30 4838 H 437.798 -3.88384 -0.674655 0
M  V30 4839 H 439.086 -4.91173 -1.32764 0
M  V30 4840 H 438.484 -3.70799 -4.27229 0
M  V30 4841 H 437.041 -4.55518 -4.66205 0
M  V30 4842 N 440.474 -0.00167713 -1.576 0
M  V30 4843 C 441.421 0.989195 -2.08527 0
M  V30 4844 C 442.391 1.34031 -0.981065 0
M  V30 4845 O 443.576 1.43839 -1.2536 0
M  V30 4846 C 440.716 2.27537 -2.59463 0
M  V30 4847 C 439.829 1.98314 -3.83791 0
M  V30 4848 C 438.964 3.21025 -4.23222 0
M  V30 4849 C 438.003 2.87495 -5.40382 0
M  V30 4850 N 437.14 4.02749 -5.75098 0
M  V30 4851 H 441.98 0.547973 -2.92919 0
M  V30 4852 H 439.517 0.258917 -1.44803 0
M  V30 4853 H 441.475 3.02729 -2.87073 0
M  V30 4854 H 440.105 2.69325 -1.77943 0
M  V30 4855 H 439.157 1.13482 -3.63078 0
M  V30 4856 H 440.469 1.69601 -4.69081 0
M  V30 4857 H 439.623 4.04561 -4.52123 0
M  V30 4858 H 438.362 3.52877 -3.36644 0
M  V30 4859 H 437.367 2.02367 -5.11202 0
M  V30 4860 H 438.592 2.56889 -6.28637 0
M  V30 4861 H 436.538 4.34494 -4.91478 0
M  V30 4862 H 436.455 3.77566 -6.54966 0
M  V30 4863 H 437.723 4.87068 -6.08592 0
M  V30 4864 N 441.952 1.55251 0.271103 0
M  V30 4865 C 443.201 1.75151 1.00025 0
M  V30 4866 C 443.514 0.561041 1.87381 0
M  V30 4867 O 444.72 0.642506 2.63788 0
M  V30 4868 C 443.176 3.09999 1.82835 0
M  V30 4869 C 442.784 4.3662 1.00336 0
M  V30 4870 C 444.528 3.39249 2.55168 0
M  V30 4871 C 442.435 5.62506 1.82595 0
M  V30 4872 H 441.365 0.652877 0.377183 0
M  V30 4873 H 444.016 1.81708 0.255843 0
M  V30 4874 H 442.398 2.97485 2.61378 0
M  V30 4875 H 443.572 4.60055 0.261959 0
M  V30 4876 H 441.887 4.14527 0.394486 0
M  V30 4877 H 444.484 4.3051 3.1712 0
M  V30 4878 H 444.827 2.59467 3.2555 0
M  V30 4879 H 445.36 3.52869 1.83653 0
M  V30 4880 H 442.099 6.45041 1.16631 0
M  V30 4881 H 441.619 5.43211 2.54327 0
M  V30 4882 H 443.298 6.00875 2.39913 0
M  V30 4883 N 443.43 -0.535701 1.48216 0
M  V30 4884 C 444.393 -1.623 1.61838 0
M  V30 4885 C 445.393 -1.53087 0.492024 0
M  V30 4886 O 446.583 -1.5686 0.757668 0
M  V30 4887 C 443.715 -3.01907 1.58319 0
M  V30 4888 H 444.908 -1.51564 2.58783 0
M  V30 4889 H 442.461 -0.757317 1.36727 0
M  V30 4890 H 443.196 -3.18155 0.628299 0
M  V30 4891 H 442.981 -3.10003 2.40085 0
M  V30 4892 H 444.471 -3.80969 1.71033 0
M  V30 4893 N 444.908 -1.36708 -0.784132 0
M  V30 4894 C 446.155 -1.31231 -1.54222 0
M  V30 4895 C 446.483 0.106864 -1.94206 0
M  V30 4896 O 445.738 1.07734 -1.63376 0
M  V30 4897 C 446.037 -2.18571 -2.82774 0
M  V30 4898 C 445.703 -3.67039 -2.61903 0
M  V30 4899 C 444.365 -4.07503 -2.55919 0
M  V30 4900 C 446.717 -4.61149 -2.4288 0
M  V30 4901 C 444.045 -5.40211 -2.28886 0
M  V30 4902 C 446.397 -5.94081 -2.17373 0
M  V30 4903 C 445.061 -6.33664 -2.09825 0
M  V30 4904 H 444.331 -0.48021 -0.56434 0
M  V30 4905 H 446.978 -1.68807 -0.904233 0
M  V30 4906 H 445.283 -1.73949 -3.51068 0
M  V30 4907 H 446.98 -2.11655 -3.40592 0
M  V30 4908 H 443.57 -3.34941 -2.67418 0
M  V30 4909 H 447.754 -4.30756 -2.46501 0
M  V30 4910 H 443.01 -5.69855 -2.21529 0
M  V30 4911 H 447.184 -6.66566 -2.01649 0
M  V30 4912 H 444.811 -7.36423 -1.88641 0
M  V30 4913 N 446.386 1.0089 -1.21074 0
M  V30 4914 C 447.634 1.74262 -1.02358 0
M  V30 4915 C 447.955 1.89869 0.444393 0
M  V30 4916 O 447.225 1.44677 1.32081 0
M  V30 4917 H 445.805 0.645615 -0.375754 0
M  V30 4918 H 448.467 1.21596 -1.52317 0
M  V30 4919 H 447.563 2.74328 -1.4883 0
M  V30 4920 N 447.864 1.01787 1.20321 0
M  V30 4921 C 449.112 0.706538 1.89347 0
M  V30 4922 C 449.433 -0.766289 1.79313 0
M  V30 4923 O 448.703 -1.55126 1.19635 0
M  V30 4924 H 447.283 0.258348 0.700903 0
M  V30 4925 H 449.945 1.28974 1.46122 0
M  V30 4926 H 449.041 0.991066 2.95946 0
M  V30 4927 N 449.342 -1.36122 0.79427 0
M  V30 4928 C 450.252 -2.33769 0.197296 0
M  V30 4929 C 451.268 -1.61276 -0.653153 0
M  V30 4930 O 452.444 -1.9323 -0.5678 0
M  V30 4931 C 449.509 -3.40474 -0.654098 0
M  V30 4932 C 448.57 -4.28759 0.215411 0
M  V30 4933 C 447.803 -5.30368 -0.595443 0
M  V30 4934 O 448.026 -5.40211 -1.83107 0
M  V30 4935 O 446.96 -6.019 0.00721351 0
M  V30 4936 H 450.786 -2.86597 1.00478 0
M  V30 4937 H 448.371 -1.38676 0.555818 0
M  V30 4938 H 450.253 -4.05703 -1.13944 0
M  V30 4939 H 448.928 -2.89937 -1.43938 0
M  V30 4940 H 447.835 -3.66554 0.747615 0
M  V30 4941 H 449.168 -4.82661 0.964332 0
M  V30 4942 N 450.82 -0.546701 -1.47814 0
M  V30 4943 C 452.048 -0.0232857 -2.06887 0
M  V30 4944 C 452.463 1.26571 -1.4009 0
M  V30 4945 O 451.82 1.7569 -0.493906 0
M  V30 4946 C 451.871 0.186975 -3.61016 0
M  V30 4947 O 451.592 -1.05097 -4.25307 0
M  V30 4948 C 453.093 0.748872 -4.36929 0
M  V30 4949 H 450.313 -0.0410763 -0.669742 0
M  V30 4950 H 452.857 -0.757117 -1.89968 0
M  V30 4951 H 451.012 0.870903 -3.77484 0
M  V30 4952 H 451.426 -0.842121 -5.17695 0
M  V30 4953 H 452.9 0.845334 -5.45489 0
M  V30 4954 H 453.377 1.75772 -4.02493 0
M  V30 4955 H 453.983 0.100979 -4.2518 0
M  V30 4956 N 452.299 1.55045 -0.282633 0
M  V30 4957 C 453.576 1.9179 0.384166 0
M  V30 4958 C 453.956 1.20778 1.73136 0
M  V30 4959 O 453.304 0.33719 2.25998 0
M  V30 4960 C 453.514 3.45149 0.517014 0
M  V30 4961 C 454.862 4.17064 0.796427 0
M  V30 4962 O 455.886 3.51084 0.601535 0
M  V30 4963 O 454.745 5.33837 1.16962 0
M  V30 4964 H 451.839 0.799483 0.211558 0
M  V30 4965 H 454.385 1.66474 -0.32934 0
M  V30 4966 H 453.157 3.88922 -0.430772 0
M  V30 4967 H 452.78 3.76443 1.2797 0
M  V30 4968 N 453.777 0.010035 1.57597 0
M  V30 4969 C 454.687 -0.994226 2.12491 0
M  V30 4970 C 455.703 -1.37013 1.07254 0
M  V30 4971 O 456.879 -1.45542 1.3921 0
M  V30 4972 C 453.944 -2.2642 2.62555 0
M  V30 4973 C 453.005 -1.95049 3.82432 0
M  V30 4974 C 452.238 -3.15991 4.30099 0
M  V30 4975 O 452.461 -4.28015 3.7704 0
M  V30 4976 O 451.395 -2.99403 5.22151 0
M  V30 4977 H 455.221 -0.557549 2.98538 0
M  V30 4978 H 452.806 -0.209413 1.47925 0
M  V30 4979 H 454.688 -3.01009 2.9491 0
M  V30 4980 H 453.363 -2.69306 1.796 0
M  V30 4981 H 452.27 -1.17904 3.55034 0
M  V30 4982 H 453.603 -1.56992 4.66491 0
M  V30 4983 N 455.255 -1.55392 -0.262866 0
M  V30 4984 C 456.218 -1.88181 -1.30846 0
M  V30 4985 C 457.218 -0.757079 -1.41862 0
M  V30 4986 O 458.408 -1.02519 -1.40838 0
M  V30 4987 C 455.54 -2.09609 -2.68844 0
M  V30 4988 H 456.733 -2.81659 -1.02997 0
M  V30 4989 H 454.286 -1.48039 -0.501414 0
M  V30 4990 H 455.021 -1.18547 -3.01856 0
M  V30 4991 H 454.806 -2.91508 -2.62231 0
M  V30 4992 H 456.296 -2.36215 -3.44372 0
M  V30 4993 N 456.733 0.527833 -1.48498 0
M  V30 4994 C 457.961 1.30823 -1.6029 0
M  V30 4995 C 458.376 1.86945 -0.263974 0
M  V30 4996 O 457.733 1.6651 0.747034 0
M  V30 4997 C 457.784 2.45756 -2.65116 0
M  V30 4998 O 457.505 1.91946 -3.93813 0
M  V30 4999 C 459.006 3.37543 -2.87367 0
M  V30 5000 H 456.226 0.397763 -0.540394 0
M  V30 5001 H 458.77 0.636529 -1.94341 0
M  V30 5002 H 456.925 3.08806 -2.33917 0
M  V30 5003 H 457.339 2.67195 -4.51339 0
M  V30 5004 H 458.813 4.14532 -3.6451 0
M  V30 5005 H 459.29 3.92905 -1.9627 0
M  V30 5006 H 459.896 2.80283 -3.19878 0
M  V30 5007 N 458.211 1.37122 0.776871 0
M  V30 5008 C 459.627 1.1781 1.07671 0
M  V30 5009 C 459.827 0.0107454 2.01497 0
M  V30 5010 O 458.883 -0.650756 2.4397 0
M  V30 5011 C 460.196 2.49451 1.67913 0
M  V30 5012 C 461.744 2.55927 1.80195 0
M  V30 5013 C 462.219 3.87686 2.43851 0
M  V30 5014 N 463.71 3.891 2.51307 0
M  V30 5015 C 464.445 4.87797 3.014 0
M  V30 5016 N 463.941 5.96888 3.51705 0
M  V30 5017 N 465.734 4.75205 3.00227 0
M  V30 5018 H 457.885 2.11843 0.153778 0
M  V30 5019 H 460.148 0.938927 0.130844 0
M  V30 5020 H 459.854 3.35207 1.06439 0
M  V30 5021 H 459.728 2.66169 2.67271 0
M  V30 5022 H 462.115 1.70582 2.40803 0
M  V30 5023 H 462.196 2.43097 0.796069 0
M  V30 5024 H 461.84 4.73444 1.83884 0
M  V30 5025 H 461.77 3.97817 3.45035 0
M  V30 5026 H 464.261 3.10293 2.157 0
M  V30 5027 H 464.574 6.68155 3.88316 0
M  V30 5028 H 462.919 6.0054 3.49824 0
M  V30 5029 H 466.11 3.89103 2.60224 0
M  V30 5030 H 466.283 5.52279 3.38957 0
M  V30 5031 N 459.689 -1.00246 1.21608 0
M  V30 5032 C 460.919 -1.77373 1.05935 0
M  V30 5033 C 461.327 -1.85059 -0.393686 0
M  V30 5034 O 460.67 -1.31289 -1.28487 0
M  V30 5035 C 460.732 -3.22705 1.58435 0
M  V30 5036 C 460.396 -3.38591 3.06929 0
M  V30 5037 C 461.393 -3.2667 4.04454 0
M  V30 5038 C 459.078 -3.6395 3.46187 0
M  V30 5039 C 461.072 -3.39877 5.39224 0
M  V30 5040 C 458.759 -3.768 4.81108 0
M  V30 5041 C 459.757 -3.6477 5.77436 0
M  V30 5042 O 459.445 -3.77206 7.09909 0
M  V30 5043 H 459.177 -0.56419 0.372378 0
M  V30 5044 H 461.731 -1.26971 1.61454 0
M  V30 5045 H 459.961 -3.74255 0.973147 0
M  V30 5046 H 461.65 -3.81515 1.38568 0
M  V30 5047 H 462.416 -3.06999 3.75468 0
M  V30 5048 H 458.295 -3.72395 2.71741 0
M  V30 5049 H 461.839 -3.30404 6.14393 0
M  V30 5050 H 457.736 -3.95975 5.09779 0
M  V30 5051 H 458.504 -3.94138 7.17355 0
M  V30 5052 N 461.167 -1.02423 -1.1978 0
M  V30 5053 C 462.416 -0.713265 -1.88667 0
M  V30 5054 C 462.729 0.7609 -1.80193 0
M  V30 5055 O 463.935 1.18473 -2.44288 0
M  V30 5056 C 462.391 -1.22545 -3.38394 0
M  V30 5057 C 461.999 -2.72706 -3.55437 0
M  V30 5058 C 463.743 -0.990257 -4.12788 0
M  V30 5059 C 461.65 -3.17367 -4.99031 0
M  V30 5060 H 460.58 -0.263105 -0.706606 0
M  V30 5061 H 463.231 -1.23792 -1.35454 0
M  V30 5062 H 461.613 -0.628732 -3.90977 0
M  V30 5063 H 462.787 -3.37993 -3.13205 0
M  V30 5064 H 461.102 -2.94453 -2.94425 0
M  V30 5065 H 463.699 -1.29926 -5.18675 0
M  V30 5066 H 464.042 0.0730761 -4.16236 0
M  V30 5067 H 464.575 -1.55074 -3.66329 0
M  V30 5068 H 461.314 -4.23009 -5.00743 0
M  V30 5069 H 460.834 -2.56805 -5.42044 0
M  V30 5070 H 462.513 -3.10441 -5.67658 0
M  V30 5071 N 462.645 1.35699 -0.801477 0
M  V30 5072 C 463.608 2.28199 -0.213994 0
M  V30 5073 C 464.608 1.49359 0.595691 0
M  V30 5074 O 465.798 1.69186 0.414921 0
M  V30 5075 C 462.93 3.33587 0.702297 0
M  V30 5076 H 464.123 2.81666 -1.02976 0
M  V30 5077 H 461.676 1.45467 -0.571759 0
M  V30 5078 H 462.411 2.85297 1.54195 0
M  V30 5079 H 462.196 3.91906 0.123484 0
M  V30 5080 H 463.686 4.02638 1.10783 0
M  V30 5081 N 464.123 0.554532 1.47522 0
M  V30 5082 C 465.534 0.120446 1.86311 0
M  V30 5083 C 465.885 -1.30904 1.46145 0
M  V30 5084 O 465.01 -1.98434 0.863294 0
M  V30 5085 C 465.605 0.211808 3.38137 0
M  V30 5086 C 464.164 -0.167224 3.76028 0
M  V30 5087 C 463.311 0.560576 2.71575 0
M  V30 5088 H 466.262 0.764408 1.39077 0
M  V30 5089 H 466.283 -0.570275 3.76202 0
M  V30 5090 H 465.795 1.25232 3.6734 0
M  V30 5091 H 463.896 -1.20894 3.52442 0
M  V30 5092 H 464.009 0.189473 4.78725 0
M  V30 5093 H 462.373 0.00396836 2.547 0
M  V30 5094 H 463.156 1.60219 3.0362 0
M  V30 5095 N 465.601 -1.54893 0.290851 0
M  V30 5096 C 466.829 -2.04343 -0.324288 0
M  V30 5097 C 467.244 -1.16859 -1.48289 0
M  V30 5098 O 466.601 -0.192018 -1.81487 0
M  V30 5099 C 466.652 -3.52756 -0.79026 0
M  V30 5100 O 466.373 -4.36913 0.322213 0
M  V30 5101 C 467.874 -4.18161 -1.4716 0
M  V30 5102 H 465.094 -0.667135 -0.0719173 0
M  V30 5103 H 467.638 -1.99981 0.427529 0
M  V30 5104 H 465.793 -3.57511 -1.49213 0
M  V30 5105 H 466.207 -5.24486 -0.0387372 0
M  V30 5106 H 467.681 -5.23562 -1.7489 0
M  V30 5107 H 468.158 -3.67282 -2.40834 0
M  V30 5108 H 468.764 -4.17454 -0.813178 0
M  V30 5109 N 467.08 -0.0183926 -1.57589 0
M  V30 5110 C 468.326 0.663543 -1.91638 0
M  V30 5111 C 468.659 1.72392 -0.894134 0
M  V30 5112 O 467.934 1.94316 0.0846449 0
M  V30 5113 C 468.217 1.28984 -3.36207 0
M  V30 5114 C 468.07 0.239761 -4.49161 0
M  V30 5115 C 469.389 2.2109 -3.80536 0
M  V30 5116 H 466.508 0.239746 -0.696915 0
M  V30 5117 H 469.15 -0.073456 -1.89858 0
M  V30 5118 H 467.3 1.91799 -3.37854 0
M  V30 5119 H 468.972 -0.390119 -4.59647 0
M  V30 5120 H 467.215 -0.435972 -4.31604 0
M  V30 5121 H 467.886 0.717383 -5.47319 0
M  V30 5122 H 470.362 1.68273 -3.80557 0
M  V30 5123 H 469.238 2.61869 -4.82406 0
M  V30 5124 H 469.499 3.09764 -3.15434 0
M  V30 5125 N 468.558 1.5553 0.254621 0
M  V30 5126 C 469.488 1.9268 1.31897 0
M  V30 5127 C 470.469 0.790797 1.506 0
M  V30 5128 O 471.654 1.05045 1.63337 0
M  V30 5129 C 468.784 2.21477 2.67517 0
M  V30 5130 C 467.738 3.37256 2.63519 0
M  V30 5131 C 467.064 3.51576 4.02862 0
M  V30 5132 C 468.364 4.73157 2.21179 0
M  V30 5133 H 470.058 2.81832 1.01051 0
M  V30 5134 H 467.604 1.35599 0.484662 0
M  V30 5135 H 469.557 2.46055 3.42104 0
M  V30 5136 H 468.281 1.29144 2.99982 0
M  V30 5137 H 466.94 3.12675 1.9139 0
M  V30 5138 H 466.588 2.56676 4.32581 0
M  V30 5139 H 466.288 4.2943 4.01078 0
M  V30 5140 H 467.812 3.78467 4.79161 0
M  V30 5141 H 469.226 4.97158 2.85494 0
M  V30 5142 H 467.623 5.54058 2.30521 0
M  V30 5143 H 468.693 4.70739 1.16332 0
M  V30 5144 N 470.036 -0.519951 1.48776 0
M  V30 5145 C 471.264 -1.29971 1.60982 0
M  V30 5146 C 471.679 -1.86803 0.273885 0
M  V30 5147 O 471.036 -1.66904 -0.738193 0
M  V30 5148 C 471.087 -2.44346 2.66415 0
M  V30 5149 O 470.808 -1.89855 3.94825 0
M  V30 5150 C 472.309 -3.36014 2.89153 0
M  V30 5151 H 469.529 -0.394891 0.542496 0
M  V30 5152 H 472.073 -0.626214 1.94676 0
M  V30 5153 H 470.228 -3.07562 2.35552 0
M  V30 5154 H 470.642 -2.64798 4.5275 0
M  V30 5155 H 472.116 -4.12593 3.66703 0
M  V30 5156 H 472.593 -3.91859 1.98351 0
M  V30 5157 H 473.199 -2.78582 3.21359 0
M  V30 5158 N 471.514 -1.37532 -0.769588 0
M  V30 5159 C 472.791 -1.23392 -1.51768 0
M  V30 5160 C 473.171 0.17157 -2.10402 0
M  V30 5161 O 472.519 1.17943 -1.95708 0
M  V30 5162 C 472.729 -2.33163 -2.59685 0
M  V30 5163 C 474.077 -2.70809 -3.27028 0
M  V30 5164 O 475.101 -2.32355 -2.69981 0
M  V30 5165 O 473.96 -3.37066 -4.30173 0
M  V30 5166 H 471.054 -0.481617 -0.67229 0
M  V30 5167 H 473.6 -1.49318 -0.806368 0
M  V30 5168 H 472.372 -3.27273 -2.14494 0
M  V30 5169 H 471.995 -2.08713 -3.38415 0
M  V30 5170 N 472.992 0.995999 -1.22138 0
M  V30 5171 C 474.238 1.73767 -1.04561 0
M  V30 5172 C 474.571 1.89633 0.418698 0
M  V30 5173 O 473.846 1.43723 1.3105 0
M  V30 5174 C 474.129 3.14505 -1.75382 0
M  V30 5175 C 473.982 3.06306 -3.29388 0
M  V30 5176 C 475.301 4.13615 -1.50369 0
M  V30 5177 H 472.42 0.630728 -0.38125 0
M  V30 5178 H 475.062 1.16057 -1.50435 0
M  V30 5179 H 473.212 3.63775 -1.36383 0
M  V30 5180 H 474.884 2.64681 -3.77812 0
M  V30 5181 H 473.127 2.43186 -3.59226 0
M  V30 5182 H 473.798 4.05884 -3.74116 0
M  V30 5183 H 476.274 3.73089 -1.84239 0
M  V30 5184 H 475.15 5.10212 -2.02421 0
M  V30 5185 H 475.411 4.39949 -0.435611 0
M  V30 5186 N 474.47 1.03057 1.19235 0
M  V30 5187 C 475.747 0.642608 1.84743 0
M  V30 5188 C 476.127 -0.878577 1.91948 0
M  V30 5189 O 475.475 -1.77597 1.43776 0
M  V30 5190 C 475.685 1.30665 3.23616 0
M  V30 5191 C 477.033 1.43098 3.9976 0
M  V30 5192 O 478.057 1.26396 3.3302 0
M  V30 5193 O 476.916 1.70223 5.19313 0
M  V30 5194 H 474.01 0.223573 0.796206 0
M  V30 5195 H 476.556 1.12883 1.26711 0
M  V30 5196 H 475.328 2.34544 3.13217 0
M  V30 5197 H 474.951 0.808405 3.89295 0
M  V30 5198 N 475.948 -1.35272 0.808662 0
M  V30 5199 C 477.359 -1.81179 0.450688 0
M  V30 5200 C 477.71 -1.67143 -1.02751 0
M  V30 5201 O 476.835 -1.20325 -1.79864 0
M  V30 5202 C 477.43 -3.28943 0.811275 0
M  V30 5203 C 475.989 -3.72985 0.505871 0
M  V30 5204 C 475.136 -2.57229 1.03578 0
M  V30 5205 H 478.087 -1.2322 1.00012 0
M  V30 5206 H 478.108 -3.80342 0.109588 0
M  V30 5207 H 477.62 -3.39127 1.88718 0
M  V30 5208 H 475.721 -3.68349 -0.561209 0
M  V30 5209 H 475.834 -4.67677 1.03995 0
M  V30 5210 H 474.198 -2.50548 0.458005 0
M  V30 5211 H 474.981 -2.7019 2.11784 0
M  V30 5212 N 477.426 -0.562348 -1.47226 0
M  V30 5213 C 478.373 0.182461 -2.30078 0
M  V30 5214 C 479.343 0.903503 -1.39377 0
M  V30 5215 O 480.528 0.898188 -1.68337 0
M  V30 5216 C 477.668 1.20322 -3.23445 0
M  V30 5217 C 476.781 0.487717 -4.29238 0
M  V30 5218 C 475.916 1.49422 -5.09752 0
M  V30 5219 C 474.955 0.763976 -6.07314 0
M  V30 5220 N 474.092 1.71755 -6.80768 0
M  V30 5221 H 478.932 -0.530169 -2.93246 0
M  V30 5222 H 476.469 -0.273276 -1.44539 0
M  V30 5223 H 478.427 1.80768 -3.76004 0
M  V30 5224 H 477.057 1.88382 -2.6213 0
M  V30 5225 H 476.109 -0.231374 -3.79696 0
M  V30 5226 H 477.421 -0.0841003 -4.98729 0
M  V30 5227 H 476.575 2.17206 -5.66486 0
M  V30 5228 H 475.314 2.09995 -4.40174 0
M  V30 5229 H 474.319 0.0722344 -5.49753 0
M  V30 5230 H 475.544 0.16391 -6.78902 0
M  V30 5231 H 473.49 2.31177 -6.13916 0
M  V30 5232 H 473.407 1.19802 -7.46447 0
M  V30 5233 H 474.675 2.38638 -7.42073 0
M  V30 5234 N 478.904 1.54736 -0.299062 0
M  V30 5235 C 480.132 2.04512 0.313447 0
M  V30 5236 C 480.547 1.17643 1.47667 0
M  V30 5237 O 479.904 0.20164 1.81383 0
M  V30 5238 C 479.955 3.53171 0.771542 0
M  V30 5239 O 479.676 4.36736 -0.345379 0
M  V30 5240 C 481.177 4.18936 1.4494 0
M  V30 5241 H 478.397 0.667507 0.0683784 0
M  V30 5242 H 480.941 1.99752 -0.438129 0
M  V30 5243 H 479.096 3.58298 1.47314 0
M  V30 5244 H 479.51 5.24499 0.0109219 0
M  V30 5245 H 480.984 5.24482 1.72111 0
M  V30 5246 H 481.461 3.68554 2.38883 0
M  V30 5247 H 482.067 4.17879 0.791028 0
M  V30 5248 N 480.382 0.0267497 1.57577 0
M  V30 5249 C 481.329 -0.955894 2.10075 0
M  V30 5250 C 482.299 -1.32453 1.00226 0
M  V30 5251 O 483.484 -1.41826 1.27632 0
M  V30 5252 C 480.624 -2.2338 2.6305 0
M  V30 5253 C 479.737 -1.92183 3.86898 0
M  V30 5254 C 478.872 -3.14251 4.28275 0
M  V30 5255 C 477.911 -2.78862 5.44888 0
M  V30 5256 N 477.048 -3.93548 5.81433 0
M  V30 5257 H 481.888 -0.501303 2.93753 0
M  V30 5258 H 479.425 -0.235847 1.45197 0
M  V30 5259 H 481.383 -2.98124 2.91853 0
M  V30 5260 H 480.013 -2.6646 1.82205 0
M  V30 5261 H 479.065 -1.07692 3.64838 0
M  V30 5262 H 480.377 -1.62117 4.7172 0
M  V30 5263 H 479.531 -3.97317 4.58502 0
M  V30 5264 H 478.27 -3.47476 3.42215 0
M  V30 5265 H 477.275 -1.94208 5.14357 0
M  V30 5266 H 478.5 -2.46855 6.32645 0
M  V30 5267 H 476.446 -4.2662 4.98328 0
M  V30 5268 H 476.363 -3.67098 6.6089 0
M  V30 5269 H 477.631 -4.77325 6.16264 0
M  V30 5270 N 481.861 -1.55662 -0.24637 0
M  V30 5271 C 483.107 -1.77782 -0.975779 0
M  V30 5272 C 483.44 -0.592103 -1.84953 0
M  V30 5273 O 482.715 0.409588 -1.90138 0
M  V30 5274 C 482.998 -3.09788 -1.83584 0
M  V30 5275 C 482.851 -4.38764 -0.990241 0
M  V30 5276 C 484.17 -3.38029 -2.81823 0
M  V30 5277 H 481.289 -0.646789 -0.353317 0
M  V30 5278 H 483.931 -1.88398 -0.246248 0
M  V30 5279 H 482.081 -3.00869 -2.45784 0
M  V30 5280 H 483.753 -4.59675 -0.386897 0
M  V30 5281 H 481.996 -4.32798 -0.294626 0
M  V30 5282 H 482.667 -5.27514 -1.62584 0
M  V30 5283 H 485.143 -3.46915 -2.2976 0
M  V30 5284 H 484.019 -4.3161 -3.39122 0
M  V30 5285 H 484.28 -2.58968 -3.58313 0
M  V30 5286 N 483.339 0.512053 -1.4905 0
M  V30 5287 C 484.272 1.63209 -1.59493 0
M  V30 5288 C 485.25 1.56407 -0.444481 0
M  V30 5289 O 486.434 1.76623 -0.658535 0
M  V30 5290 C 483.561 3.01685 -1.53961 0
M  V30 5291 C 482.607 3.26786 -2.74068 0
M  V30 5292 S 483.44 3.11107 -4.35859 0
M  V30 5293 C 484.596 4.51997 -4.32954 0
M  V30 5294 H 484.829 1.54104 -2.54243 0
M  V30 5295 H 482.362 0.696382 -1.37804 0
M  V30 5296 H 484.32 3.81538 -1.51455 0
M  V30 5297 H 482.981 3.08215 -0.605178 0
M  V30 5298 H 482.174 4.27849 -2.66386 0
M  V30 5299 H 481.776 2.54635 -2.73928 0
M  V30 5300 H 484.068 5.43871 -4.03993 0
M  V30 5301 H 485.011 4.64731 -5.34257 0
M  V30 5302 H 485.419 4.32159 -3.63178 0
M  V30 5303 N 484.817 1.37938 0.762283 0
M  V30 5304 C 485.749 1.30349 1.88525 0
M  V30 5305 C 486.762 0.217402 1.61342 0
M  V30 5306 O 487.951 0.474291 1.72084 0
M  V30 5307 C 485.051 0.994844 3.23969 0
M  V30 5308 C 484.224 2.18829 3.78725 0
M  V30 5309 C 483.283 1.84844 4.92665 0
M  V30 5310 O 482.309 2.57244 5.07754 0
M  V30 5311 N 483.511 0.798201 5.74986 0
M  V30 5312 H 486.276 2.27114 1.95549 0
M  V30 5313 H 483.837 1.31686 0.941825 0
M  V30 5314 H 485.829 0.748168 3.97724 0
M  V30 5315 H 484.399 0.115446 3.12387 0
M  V30 5316 H 483.619 2.59615 2.96637 0
M  V30 5317 H 484.907 2.98497 4.1204 0
M  V30 5318 H 484.305 0.197611 5.65355 0
M  V30 5319 H 482.862 0.611396 6.48926 0
M  V30 5320 N 486.295 -0.989507 1.22664 0
M  V30 5321 C 487.205 -2.11449 1.01619 0
M  V30 5322 C 488.221 -1.73962 -0.036545 0
M  V30 5323 O 489.397 -2.00788 0.156924 0
M  V30 5324 C 486.462 -3.41465 0.600204 0
M  V30 5325 C 485.523 -3.93033 1.72695 0
M  V30 5326 C 484.756 -5.16844 1.33071 0
M  V30 5327 O 484.979 -5.7001 0.210975 0
M  V30 5328 O 483.913 -5.6225 2.14845 0
M  V30 5329 H 487.739 -2.32088 1.9588 0
M  V30 5330 H 485.324 -1.09823 1.01289 0
M  V30 5331 H 487.206 -4.19695 0.37873 0
M  V30 5332 H 485.881 -3.22178 -0.313511 0
M  V30 5333 H 484.788 -3.15961 2.00298 0
M  V30 5334 H 486.121 -4.16758 2.61865 0
M  V30 5335 N 487.773 -1.03688 -1.18687 0
M  V30 5336 C 488.683 -0.634908 -2.25845 0
M  V30 5337 C 489.699 0.337065 -1.70704 0
M  V30 5338 O 490.875 0.192943 -2.00474 0
M  V30 5339 C 487.94 -0.000180054 -3.467 0
M  V30 5340 C 487.001 -1.02067 -4.1699 0
M  V30 5341 C 486.234 -0.41614 -5.32075 0
M  V30 5342 O 486.457 0.778712 -5.65059 0
M  V30 5343 O 485.391 -1.14296 -5.90948 0
M  V30 5344 H 489.217 -1.52757 -2.62486 0
M  V30 5345 H 486.802 -0.807533 -1.25695 0
M  V30 5346 H 488.684 0.353342 -4.19916 0
M  V30 5347 H 487.359 0.866367 -3.11891 0
M  V30 5348 H 486.266 -1.42592 -3.45859 0
M  V30 5349 H 487.599 -1.85786 -4.5579 0
M  V30 5350 N 489.251 1.34841 -0.815825 0
M  V30 5351 C 490.5 1.97755 -0.396976 0
M  V30 5352 C 490.813 1.65422 1.04379 0
M  V30 5353 O 492.019 2.21771 1.5662 0
M  V30 5354 C 490.475 3.53818 -0.658869 0
M  V30 5355 C 490.083 3.95051 -2.11278 0
M  V30 5356 C 491.827 4.23397 -0.305834 0
M  V30 5357 C 489.734 5.43997 -2.31994 0
M  V30 5358 H 488.664 0.739985 -0.1447 0
M  V30 5359 H 491.315 1.53781 -1.00118 0
M  V30 5360 H 489.697 3.95997 0.0154112 0
M  V30 5361 H 490.871 3.63998 -2.82564 0
M  V30 5362 H 489.186 3.38388 -2.42657 0
M  V30 5363 H 491.783 5.32899 -0.43854 0
M  V30 5364 H 492.126 4.09508 0.748952 0
M  V30 5365 H 492.659 3.8667 -0.934403 0
M  V30 5366 H 489.398 5.62865 -3.35952 0
M  V30 5367 H 488.918 5.76589 -1.65244 0
M  V30 5368 H 490.597 6.10584 -2.14001 0
M  V30 5369 N 490.729 0.570148 1.46925 0
M  V30 5370 C 491.976 0.0509529 2.02436 0
M  V30 5371 C 492.304 -1.30405 1.44308 0
M  V30 5372 O 491.559 -1.86493 0.593198 0
M  V30 5373 C 491.858 -0.0780336 3.57315 0
M  V30 5374 C 491.524 1.20775 4.34424 0
M  V30 5375 C 490.186 1.56004 4.5521 0
M  V30 5376 C 492.538 2.0592 4.78797 0
M  V30 5377 C 489.866 2.76201 5.17619 0
M  V30 5378 C 492.218 3.25332 5.42533 0
M  V30 5379 C 490.882 3.60859 5.61549 0
M  V30 5380 H 490.152 0.018645 0.740765 0
M  V30 5381 H 492.799 0.744262 1.76445 0
M  V30 5382 H 491.104 -0.854394 3.82371 0
M  V30 5383 H 492.801 -0.495312 3.97929 0
M  V30 5384 H 489.391 0.923469 4.18533 0
M  V30 5385 H 493.575 1.80008 4.62505 0
M  V30 5386 H 488.831 3.0388 5.30535 0
M  V30 5387 H 493.005 3.91586 5.75876 0
M  V30 5388 H 490.632 4.54088 6.09678 0
M  V30 5389 N 492.207 -1.54576 0.307264 0
M  V30 5390 C 493.455 -1.99867 -0.299574 0
M  V30 5391 C 493.776 -1.19714 -1.53927 0
M  V30 5392 O 493.046 -0.29472 -1.9367 0
M  V30 5393 H 491.626 -0.738299 -0.113683 0
M  V30 5394 H 494.288 -1.9032 0.420042 0
M  V30 5395 H 493.384 -3.06901 -0.567283 0
M  V30 5396 N 493.685 -0.035106 -1.57561 0
M  V30 5397 C 495.096 0.502885 -1.798 0
M  V30 5398 C 495.447 1.71892 -0.945921 0
M  V30 5399 O 494.572 2.15822 -0.157991 0
M  V30 5400 C 495.167 0.919097 -3.26095 0
M  V30 5401 C 493.726 1.40216 -3.49308 0
M  V30 5402 C 492.873 0.369709 -2.74824 0
M  V30 5403 H 495.824 -0.261102 -1.56537 0
M  V30 5404 H 495.845 1.78308 -3.36135 0
M  V30 5405 H 495.357 0.0338526 -3.88085 0
M  V30 5406 H 493.458 2.30714 -2.92578 0
M  V30 5407 H 493.571 1.40541 -4.58023 0
M  V30 5408 H 491.935 0.839113 -2.40481 0
M  V30 5409 H 492.718 -0.507173 -3.39533 0
M  V30 5410 N 495.163 1.55791 0.238111 0
M  V30 5411 C 496.412 1.77234 0.962868 0
M  V30 5412 C 496.725 0.600661 1.86149 0
M  V30 5413 O 497.931 0.698315 2.62366 0
M  V30 5414 C 496.387 3.13808 1.76218 0
M  V30 5415 C 495.995 4.3865 0.910518 0
M  V30 5416 C 497.739 3.44585 2.47914 0
M  V30 5417 C 495.646 5.66252 1.70623 0
M  V30 5418 H 494.576 0.660731 0.36325 0
M  V30 5419 H 497.227 1.8221 0.217242 0
M  V30 5420 H 495.609 3.02963 2.55009 0
M  V30 5421 H 496.783 4.60507 0.164316 0
M  V30 5422 H 495.098 4.15271 0.30647 0
M  V30 5423 H 497.695 4.3714 3.07917 0
M  V30 5424 H 498.038 2.66314 3.19973 0
M  V30 5425 H 498.571 3.56685 1.76127 0
M  V30 5426 H 495.31 6.47369 1.02923 0
M  V30 5427 H 494.83 5.48483 2.42748 0
M  V30 5428 H 496.509 6.05829 2.27114 0
M  V30 5429 N 496.642 -0.504142 1.49319 0
M  V30 5430 C 497.572 -1.61473 1.68667 0
M  V30 5431 C 498.553 -1.61455 0.535378 0
M  V30 5432 O 499.738 -1.78245 0.770868 0
M  V30 5433 C 496.868 -2.99971 1.75028 0
M  V30 5434 C 495.822 -3.14854 2.89916 0
M  V30 5435 C 495.148 -4.54671 2.81387 0
M  V30 5436 C 496.448 -2.95176 4.30893 0
M  V30 5437 H 498.142 -1.45535 2.61648 0
M  V30 5438 H 495.688 -0.698711 1.25913 0
M  V30 5439 H 497.641 -3.77562 1.8715 0
M  V30 5440 H 496.365 -3.1699 0.786441 0
M  V30 5441 H 495.024 -2.39687 2.77391 0
M  V30 5442 H 494.672 -4.68562 1.82917 0
M  V30 5443 H 494.372 -4.6557 3.58494 0
M  V30 5444 H 495.896 -5.34327 2.95512 0
M  V30 5445 H 497.31 -3.62538 4.44116 0
M  V30 5446 H 495.707 -3.17549 5.09198 0
M  V30 5447 H 496.777 -1.91332 4.45556 0
M  V30 5448 N 498.12 -1.38341 -0.754957 0
M  V30 5449 C 499.531 -1.30803 -1.3322 0
M  V30 5450 C 499.882 0.0368 -1.96165 0
M  V30 5451 O 499.007 0.938844 -1.94974 0
M  V30 5452 C 499.602 -2.3688 -2.42225 0
M  V30 5453 C 498.161 -2.32925 -2.95674 0
M  V30 5454 C 497.308 -2.19819 -1.69042 0
M  V30 5455 H 500.259 -1.48719 -0.553937 0
M  V30 5456 H 500.28 -2.02517 -3.22129 0
M  V30 5457 H 499.792 -3.34747 -1.96383 0
M  V30 5458 H 497.893 -1.38635 -3.45848 0
M  V30 5459 H 498.006 -3.27008 -3.50146 0
M  V30 5460 H 496.37 -1.66648 -1.92615 0
M  V30 5461 H 497.153 -3.19625 -1.25279 0
M  V30 5462 N 499.598 0.982988 -1.23187 0
M  V30 5463 C 500.847 1.71817 -1.05649 0
M  V30 5464 C 501.16 1.91315 0.407176 0
M  V30 5465 O 502.366 2.62256 0.702436 0
M  V30 5466 C 500.822 3.09188 -1.84203 0
M  V30 5467 C 500.43 2.97586 -3.34882 0
M  V30 5468 C 502.174 3.86684 -1.75146 0
M  V30 5469 C 500.081 4.30173 -4.05839 0
M  V30 5470 H 499.011 0.644258 -0.391724 0
M  V30 5471 H 501.662 1.09659 -1.4713 0
M  V30 5472 H 500.044 3.72087 -1.35527 0
M  V30 5473 H 501.218 2.43793 -3.91026 0
M  V30 5474 H 499.533 2.33567 -3.44725 0
M  V30 5475 H 502.13 4.84836 -2.25473 0
M  V30 5476 H 502.473 4.10136 -0.713737 0
M  V30 5477 H 503.006 3.30482 -2.21419 0
M  V30 5478 H 499.745 4.11918 -5.09906 0
M  V30 5479 H 499.265 4.83841 -3.54482 0
M  V30 5480 H 500.944 4.98873 -4.11989 0
M  V30 5481 N 501.076 1.04316 1.18135 0
M  V30 5482 C 502.322 0.749128 1.88457 0
M  V30 5483 C 502.655 -0.72149 1.803 0
M  V30 5484 O 501.93 -1.52676 1.205 0
M  V30 5485 C 502.213 1.21905 3.38838 0
M  V30 5486 C 502.066 2.75195 3.55792 0
M  V30 5487 C 503.385 0.811085 4.32561 0
M  V30 5488 H 500.504 0.273611 0.684329 0
M  V30 5489 H 503.146 1.29561 1.38975 0
M  V30 5490 H 501.296 0.754137 3.8111 0
M  V30 5491 H 502.968 3.29743 3.22595 0
M  V30 5492 H 501.211 3.14899 2.98364 0
M  V30 5493 H 501.882 3.03135 4.61317 0
M  V30 5494 H 504.358 1.21118 3.98082 0
M  V30 5495 H 503.234 1.16761 5.36338 0
M  V30 5496 H 503.495 -0.285596 4.41177 0
M  V30 5497 N 502.554 -1.34406 0.822964 0
M  V30 5498 C 503.965 -1.8069 0.469879 0
M  V30 5499 C 504.316 -1.68223 -1.00972 0
M  V30 5500 O 503.441 -1.22226 -1.78577 0
M  V30 5501 C 504.036 -3.28064 0.846118 0
M  V30 5502 C 502.595 -3.72428 0.545402 0
M  V30 5503 C 501.742 -2.56116 1.06301 0
M  V30 5504 H 504.693 -1.22153 1.01313 0
M  V30 5505 H 504.714 -3.80205 0.149922 0
M  V30 5506 H 504.226 -3.37107 1.92304 0
M  V30 5507 H 502.327 -3.68924 -0.522109 0
M  V30 5508 H 502.44 -4.66548 1.0895 0
M  V30 5509 H 500.804 -2.50048 0.484554 0
M  V30 5510 H 501.587 -2.67928 2.14638 0
M  V30 5511 N 504.032 -0.577932 -1.46621 0
M  V30 5512 C 505.278 -0.0617793 -2.02706 0
M  V30 5513 C 505.611 1.29294 -1.44903 0
M  V30 5514 O 504.886 1.8461 -0.61232 0
M  V30 5515 C 505.169 0.00911824 -3.60099 0
M  V30 5516 C 505.022 -1.37416 -4.28295 0
M  V30 5517 C 506.341 0.712159 -4.343 0
M  V30 5518 H 503.46 -0.0239246 -0.736612 0
M  V30 5519 H 506.102 -0.744211 -1.74818 0
M  V30 5520 H 504.252 0.590292 -3.83989 0
M  V30 5521 H 505.924 -2.00013 -4.15683 0
M  V30 5522 H 504.167 -1.94319 -3.87843 0
M  V30 5523 H 504.838 -1.27707 -5.37024 0
M  V30 5524 H 507.314 0.218486 -4.15526 0
M  V30 5525 H 506.19 0.730782 -5.44014 0
M  V30 5526 H 506.451 1.77251 -4.05012 0
M  V30 5527 N 505.51 1.54411 -0.315457 0
M  V30 5528 C 506.457 2.24048 0.554166 0
M  V30 5529 C 507.427 1.2283 1.11812 0
M  V30 5530 O 508.612 1.51491 1.15997 0
M  V30 5531 C 505.752 2.99574 1.71316 0
M  V30 5532 C 504.865 4.15594 1.17922 0
M  V30 5533 C 504 4.78669 2.30324 0
M  V30 5534 C 503.039 5.86807 1.74137 0
M  V30 5535 N 502.176 6.43777 2.8017 0
M  V30 5536 H 507.016 2.97964 -0.0462602 0
M  V30 5537 H 504.553 1.47059 -0.0346009 0
M  V30 5538 H 506.511 3.41604 2.39505 0
M  V30 5539 H 505.141 2.28008 2.285 0
M  V30 5540 H 504.193 3.78404 0.389136 0
M  V30 5541 H 505.505 4.93459 0.728012 0
M  V30 5542 H 504.659 5.23626 3.06433 0
M  V30 5543 H 503.398 4.00168 2.78778 0
M  V30 5544 H 502.403 5.41261 0.965236 0
M  V30 5545 H 503.628 6.67201 1.2657 0
M  V30 5546 H 501.574 5.68153 3.2793 0
M  V30 5547 H 501.491 7.17031 2.39588 0
M  V30 5548 H 502.759 6.9339 3.56132 0
M  V30 5549 N 506.988 0.0434614 1.5754 0
M  V30 5550 C 507.936 -0.951465 2.1225 0
M  V30 5551 C 508.93 -1.3274 1.05245 0
M  V30 5552 O 510.136 -1.30795 1.23663 0
M  V30 5553 H 506.511 -0.324667 0.678303 0
M  V30 5554 H 508.482 -0.464855 2.94757 0
M  V30 5555 C 507.231 -2.21972 2.67626 0
M  V30 5556 H 506.554 -1.93923 3.4962 0
M  V30 5557 H 507.994 -2.89765 3.09536 0
M  V30 5558 C 506.453 -2.95919 1.61038 0
M  V30 5559 O 506.983 -3.8857 1.01862 0
M  V30 5560 N 505.189 -2.58511 1.32741 0
M  V30 5561 H 504.736 -1.83244 1.81051 0
M  V30 5562 H 504.694 -3.08296 0.616531 0
M  V30 5563 N 508.466 -1.55915 -0.229846 0
M  V30 5564 C 509.712 -1.78807 -0.956868 0
M  V30 5565 C 510.045 -0.611687 -1.84315 0
M  V30 5566 O 509.32 0.389398 -1.90562 0
M  V30 5567 C 509.603 -3.11718 -1.80288 0
M  V30 5568 C 509.456 -4.3979 -0.943649 0
M  V30 5569 C 510.775 -3.40999 -2.78222 0
M  V30 5570 H 507.894 -0.6505 -0.346437 0
M  V30 5571 H 510.536 -1.88648 -0.226252 0
M  V30 5572 H 508.686 -3.03459 -2.42579 0
M  V30 5573 H 510.358 -4.60059 -0.338121 0
M  V30 5574 H 508.601 -4.33086 -0.248705 0
M  V30 5575 H 509.272 -5.29208 -1.5698 0
M  V30 5576 H 511.748 -3.49332 -2.26067 0
M  V30 5577 H 510.624 -4.35183 -3.34526 0
M  V30 5578 H 510.885 -2.62754 -3.55546 0
M  V30 5579 N 509.944 0.496216 -1.49584 0
M  V30 5580 C 511.221 1.25755 -1.49816 0
M  V30 5581 C 511.601 2.09859 -0.228572 0
M  V30 5582 O 510.949 2.14449 0.788908 0
M  V30 5583 C 511.159 2.11017 -2.7798 0
M  V30 5584 C 512.507 2.70047 -3.27658 0
M  V30 5585 O 513.531 2.21281 -2.79129 0
M  V30 5586 O 512.39 3.58834 -4.1219 0
M  V30 5587 H 509.484 0.569322 -0.599834 0
M  V30 5588 H 512.03 0.510094 -1.61852 0
M  V30 5589 H 510.802 1.48879 -3.61871 0
M  V30 5590 H 510.425 2.92947 -2.68827 0
M  V30 5591 N 511.423 1.38739 0.74761 0
M  V30 5592 C 512.333 1.38696 1.89211 0
M  V30 5593 C 513.349 0.283303 1.71678 0
M  V30 5594 O 514.525 0.522713 1.94498 0
M  V30 5595 C 511.59 1.21662 3.24653 0
M  V30 5596 C 510.651 2.41886 3.54669 0
M  V30 5597 C 509.884 2.25655 4.83648 0
M  V30 5598 O 510.107 1.25339 5.56459 0
M  V30 5599 O 509.041 3.14372 5.13277 0
M  V30 5600 H 512.867 2.35143 1.92202 0
M  V30 5601 H 510.452 1.19721 0.893708 0
M  V30 5602 H 512.334 1.14246 4.05618 0
M  V30 5603 H 511.009 0.283024 3.2246 0
M  V30 5604 H 509.916 2.54877 2.73841 0
M  V30 5605 H 511.249 3.33895 3.61628 0
M  V30 5606 N 512.901 -0.976442 1.23707 0
M  V30 5607 C 513.864 -2.0511 1.02287 0
M  V30 5608 C 514.864 -1.60791 -0.0167195 0
M  V30 5609 O 516.054 -1.72761 0.223408 0
M  V30 5610 C 513.186 -3.36458 0.548507 0
M  V30 5611 H 514.379 -2.25545 1.9766 0
M  V30 5612 H 511.932 -1.15042 1.05806 0
M  V30 5613 H 512.667 -3.21713 -0.408818 0
M  V30 5614 H 512.452 -3.69967 1.29874 0
M  V30 5615 H 513.942 -4.15489 0.419406 0
M  V30 5616 N 514.379 -1.04941 -1.1758 0
M  V30 5617 C 515.628 -0.753124 -1.87112 0
M  V30 5618 C 515.941 0.722507 -1.81767 0
M  V30 5619 O 517.147 1.13265 -2.46746 0
M  V30 5620 C 515.603 -1.29695 -3.35719 0
M  V30 5621 C 515.211 -2.80184 -3.49572 0
M  V30 5622 C 516.955 -1.07759 -4.10595 0
M  V30 5623 C 514.862 -3.2788 -4.92187 0
M  V30 5624 H 513.792 -0.278034 -0.700866 0
M  V30 5625 H 516.443 -1.26637 -1.32798 0
M  V30 5626 H 514.825 -0.711522 -3.89555 0
M  V30 5627 H 515.999 -3.44561 -3.05965 0
M  V30 5628 H 514.314 -3.00632 -2.88113 0
M  V30 5629 H 516.911 -1.40899 -5.15802 0
M  V30 5630 H 517.254 -0.0152302 -4.16297 0
M  V30 5631 H 517.787 -1.62809 -3.62957 0
M  V30 5632 H 514.526 -4.33535 -4.91658 0
M  V30 5633 H 514.046 -2.68245 -5.36475 0
M  V30 5634 H 515.725 -3.22412 -5.60945 0
M  V30 5635 N 515.857 1.33968 -0.830081 0
M  V30 5636 C 516.805 2.31301 -0.245435 0
M  V30 5637 C 517.799 1.57734 0.617762 0
M  V30 5638 O 519.005 1.72674 0.508303 0
M  V30 5639 H 515.38 0.749552 -0.0606316 0
M  V30 5640 H 517.351 2.78129 -1.08105 0
M  V30 5641 C 516.1 3.42961 0.572084 0
M  V30 5642 H 515.423 3.99714 -0.0828118 0
M  V30 5643 H 516.863 4.13286 0.94715 0
M  V30 5644 C 515.322 2.88043 1.74737 0
M  V30 5645 O 515.852 2.83508 2.8458 0
M  V30 5646 N 514.058 2.44768 1.56642 0
M  V30 5647 H 513.605 2.48656 0.672901 0
M  V30 5648 H 513.563 2.08375 2.3543 0
M  V30 5649 N 517.335 0.585699 1.46312 0
M  V30 5650 C 518.582 0.0724211 2.0237 0
M  V30 5651 C 518.91 -1.28868 1.45683 0
M  V30 5652 O 518.165 -1.85853 0.612945 0
M  V30 5653 C 518.464 -0.0401312 3.57377 0
M  V30 5654 C 518.13 1.25376 4.33119 0
M  V30 5655 C 516.792 1.60824 4.5353 0
M  V30 5656 C 519.144 2.10987 4.76586 0
M  V30 5657 C 516.472 2.81676 5.14661 0
M  V30 5658 C 518.824 3.31068 5.39052 0
M  V30 5659 C 517.488 3.66794 5.5769 0
M  V30 5660 H 516.758 0.0265007 0.740526 0
M  V30 5661 H 519.405 0.762935 1.75646 0
M  V30 5662 H 517.71 -0.813791 3.83255 0
M  V30 5663 H 519.407 -0.453078 3.98432 0
M  V30 5664 H 515.997 0.967808 4.1753 0
M  V30 5665 H 520.181 1.84904 4.60569 0
M  V30 5666 H 515.437 3.0949 5.27282 0
M  V30 5667 H 519.611 3.97672 5.71691 0
M  V30 5668 H 517.238 4.60529 6.04828 0
M  V30 5669 N 518.813 -1.54241 0.323641 0
M  V30 5670 C 520.062 -1.9975 -0.279806 0
M  V30 5671 C 520.375 -1.2156 -1.5324 0
M  V30 5672 O 521.581 -1.57447 -2.21185 0
M  V30 5673 C 520.037 -3.55686 -0.549115 0
M  V30 5674 C 519.645 -4.4271 0.686432 0
M  V30 5675 C 521.389 -4.09663 -1.11251 0
M  V30 5676 C 519.296 -5.90119 0.389022 0
M  V30 5677 H 518.226 -0.746177 -0.10833 0
M  V30 5678 H 520.877 -1.78248 0.435877 0
M  V30 5679 H 519.259 -3.73176 -1.32499 0
M  V30 5680 H 520.433 -4.36996 1.46188 0
M  V30 5681 H 518.748 -3.99623 1.17005 0
M  V30 5682 H 521.345 -5.17386 -1.34965 0
M  V30 5683 H 521.688 -3.61651 -2.06191 0
M  V30 5684 H 522.221 -3.95806 -0.39782 0
M  V30 5685 H 518.96 -6.42326 1.30759 0
M  V30 5686 H 518.48 -5.98785 -0.348722 0
M  V30 5687 H 520.159 -6.47 -0.0011164 0
M  V30 5688 N 520.291 -0.0518155 -1.57515 0
M  V30 5689 C 521.239 0.940195 -2.12751 0
M  V30 5690 C 522.233 1.3218 -1.05948 0
M  V30 5691 O 523.439 1.30138 -1.24355 0
M  V30 5692 H 519.814 0.321066 -0.680015 0
M  V30 5693 H 521.785 0.449217 -2.94999 0
M  V30 5694 C 520.534 2.2055 -2.68799 0
M  V30 5695 H 519.857 1.92066 -3.50643 0
M  V30 5696 H 521.297 2.88119 -3.11068 0
M  V30 5697 C 519.756 2.95061 -1.62605 0
M  V30 5698 O 520.286 3.88025 -1.03921 0
M  V30 5699 N 518.492 2.57804 -1.34111 0
M  V30 5700 H 518.039 1.82281 -1.8202 0
M  V30 5701 H 517.997 3.07964 -0.632872 0
M  V30 5702 N 521.769 1.56035 0.221574 0
M  V30 5703 C 522.679 1.95581 1.29558 0
M  V30 5704 C 523.695 0.859639 1.51282 0
M  V30 5705 O 524.871 1.16321 1.64413 0
M  V30 5706 C 521.936 2.26447 2.62531 0
M  V30 5707 C 520.997 3.49632 2.4911 0
M  V30 5708 C 520.23 3.79017 3.75742 0
M  V30 5709 O 520.453 3.10077 4.78757 0
M  V30 5710 O 519.387 4.72507 3.72855 0
M  V30 5711 H 523.213 2.8711 0.990035 0
M  V30 5712 H 520.798 1.43244 0.424434 0
M  V30 5713 H 522.68 2.47494 3.41064 0
M  V30 5714 H 521.355 1.38092 2.92766 0
M  V30 5715 H 520.262 3.33864 1.68777 0
M  V30 5716 H 521.595 4.3837 2.23814 0
M  V30 5717 N 523.247 -0.488276 1.49845 0
M  V30 5718 C 524.663 -0.820566 1.3689 0
M  V30 5719 C 524.863 -1.97248 0.411752 0
M  V30 5720 O 523.919 -2.52042 -0.151931 0
M  V30 5721 C 525.232 -1.1488 2.77891 0
M  V30 5722 C 526.78 -1.25626 2.86683 0
M  V30 5723 C 527.255 -1.61772 4.28479 0
M  V30 5724 N 528.746 -1.68797 4.31349 0
M  V30 5725 C 529.481 -1.98235 5.38043 0
M  V30 5726 N 528.977 -2.2581 6.54967 0
M  V30 5727 N 530.77 -1.99593 5.2547 0
M  V30 5728 H 522.921 0.271123 2.10662 0
M  V30 5729 H 525.184 0.058735 0.946179 0
M  V30 5730 H 524.89 -0.375614 3.49688 0
M  V30 5731 H 524.764 -2.08919 3.14058 0
M  V30 5732 H 527.151 -2.02014 2.15114 0
M  V30 5733 H 527.232 -0.296072 2.54081 0
M  V30 5734 H 526.876 -0.859295 5.00578 0
M  V30 5735 H 526.806 -2.58912 4.58554 0
M  V30 5736 H 529.297 -1.49595 3.4703 0
M  V30 5737 H 529.61 -2.47497 7.32096 0
M  V30 5738 H 527.955 -2.23239 6.58171 0
M  V30 5739 H 531.146 -1.77535 4.33127 0
M  V30 5740 H 531.319 -2.222 6.08713 0
M  V30 5741 N 524.725 -1.39134 -0.740242 0
M  V30 5742 C 525.635 -1.39697 -1.88473 0
M  V30 5743 C 526.651 -0.292403 -1.71526 0
M  V30 5744 O 527.827 -0.533021 -1.94219 0
M  V30 5745 C 524.892 -1.23382 -3.24003 0
M  V30 5746 C 523.953 -2.43763 -3.53381 0
M  V30 5747 C 523.186 -2.28216 -4.82445 0
M  V30 5748 O 523.409 -1.28288 -5.55786 0
M  V30 5749 O 522.343 -3.1709 -5.11603 0
M  V30 5750 H 526.169 -2.36159 -1.90952 0
M  V30 5751 H 523.754 -1.20194 -0.887346 0
M  V30 5752 H 525.636 -1.16395 -4.05006 0
M  V30 5753 H 524.311 -0.300121 -3.22306 0
M  V30 5754 H 523.218 -2.56325 -2.72485 0
M  V30 5755 H 524.551 -3.35808 -3.59852 0
M  V30 5756 N 526.204 0.969867 -1.24223 0
M  V30 5757 C 527.151 2.06407 -1.0327 0
M  V30 5758 C 528.121 1.66014 0.0533 0
M  V30 5759 O 529.306 1.90533 -0.100896 0
M  V30 5760 C 526.446 3.3909 -0.641262 0
M  V30 5761 C 525.559 3.9269 -1.80051 0
M  V30 5762 C 524.694 5.13631 -1.35486 0
M  V30 5763 C 523.733 5.59423 -2.48419 0
M  V30 5764 N 522.87 6.71586 -2.04737 0
M  V30 5765 H 527.71 2.23663 -1.96923 0
M  V30 5766 H 525.247 1.09624 -0.980862 0
M  V30 5767 H 527.205 4.15323 -0.395351 0
M  V30 5768 H 525.835 3.21765 0.258269 0
M  V30 5769 H 524.887 3.13116 -2.16014 0
M  V30 5770 H 526.199 4.22636 -2.64916 0
M  V30 5771 H 525.353 5.97231 -1.0677 0
M  V30 5772 H 524.092 4.85364 -0.476722 0
M  V30 5773 H 523.097 4.74398 -2.77897 0
M  V30 5774 H 524.322 5.89705 -3.36786 0
M  V30 5775 H 522.268 6.45058 -1.19318 0
M  V30 5776 H 522.185 7.0097 -2.83156 0
M  V30 5777 H 523.453 7.58633 -1.79154 0
M  V30 5778 N 527.682 1.05563 1.17022 0
M  V30 5779 C 529.093 0.793475 1.69 0
M  V30 5780 C 529.444 -0.683882 1.83895 0
M  V30 5781 O 528.569 -1.53116 1.5292 0
M  V30 5782 C 529.164 1.43376 3.06967 0
M  V30 5783 C 527.723 1.21956 3.56095 0
M  V30 5784 C 526.87 1.51494 2.3226 0
M  V30 5785 H 529.821 1.22008 1.01487 0
M  V30 5786 H 529.842 0.845068 3.70997 0
M  V30 5787 H 529.354 2.50899 2.96093 0
M  V30 5788 H 527.455 0.163749 3.7224 0
M  V30 5789 H 527.568 1.92713 4.38633 0
M  V30 5790 H 525.932 0.935175 2.3691 0
M  V30 5791 H 526.715 2.60159 2.23992 0
M  V30 5792 N 529.16 -1.33526 0.837174 0
M  V30 5793 C 530.09 -2.31764 0.284206 0
M  V30 5794 C 531.071 -1.58896 -0.607142 0
M  V30 5795 O 532.256 -1.86798 -0.531047 0
M  V30 5796 C 529.386 -3.43029 -0.542962 0
M  V30 5797 C 528.34 -4.27255 0.252451 0
M  V30 5798 C 527.666 -5.3012 -0.69836 0
M  V30 5799 C 528.966 -5.01229 1.46858 0
M  V30 5800 H 530.66 -2.78262 1.10502 0
M  V30 5801 H 528.206 -1.3378 0.532812 0
M  V30 5802 H 530.159 -4.1078 -0.940096 0
M  V30 5803 H 528.883 -2.95216 -1.39697 0
M  V30 5804 H 527.542 -3.61127 0.631124 0
M  V30 5805 H 527.19 -4.78564 -1.54872 0
M  V30 5806 H 526.89 -5.87353 -0.170274 0
M  V30 5807 H 528.414 -6.00737 -1.09305 0
M  V30 5808 H 529.828 -5.61756 1.14469 0
M  V30 5809 H 528.225 -5.68104 1.93333 0
M  V30 5810 H 529.295 -4.301 2.23924 0
M  V30 5811 N 530.638 -0.59345 -1.46 0
M  V30 5812 C 531.601 0.123538 -2.28867 0
M  V30 5813 C 532.601 0.808628 -1.38989 0
M  V30 5814 O 533.791 0.658945 -1.61256 0
M  V30 5815 C 530.923 1.1847 -3.19653 0
M  V30 5816 H 532.116 -0.604843 -2.93737 0
M  V30 5817 H 529.669 -0.351875 -1.52288 0
M  V30 5818 H 530.404 1.94431 -2.59552 0
M  V30 5819 H 530.189 0.69783 -3.8584 0
M  V30 5820 H 531.679 1.68726 -3.81997 0
M  V30 5821 N 532.116 1.54067 -0.331816 0
M  V30 5822 C 533.046 2.27569 0.522932 0
M  V30 5823 C 534.027 1.28679 1.11247 0
M  V30 5824 O 535.212 1.57504 1.13605 0
M  V30 5825 C 532.342 3.0397 1.67987 0
M  V30 5826 C 531.296 4.10267 1.21924 0
M  V30 5827 C 530.622 4.74555 2.46377 0
M  V30 5828 C 531.922 5.21268 0.32815 0
M  V30 5829 H 533.616 2.99264 -0.0901977 0
M  V30 5830 H 531.162 1.4393 -0.044821 0
M  V30 5831 H 533.115 3.54123 2.28418 0
M  V30 5832 H 531.839 2.29906 2.31971 0
M  V30 5833 H 530.498 3.61009 0.637809 0
M  V30 5834 H 530.146 3.97098 3.08743 0
M  V30 5835 H 529.846 5.46363 2.16243 0
M  V30 5836 H 531.37 5.27487 3.07555 0
M  V30 5837 H 532.784 5.67128 0.838978 0
M  V30 5838 H 531.181 5.99982 0.119228 0
M  V30 5839 H 532.251 4.80673 -0.638839 0
M  V30 5840 N 533.594 0.0601682 1.57485 0
M  V30 5841 C 534.824 -0.620037 1.97076 0
M  V30 5842 C 535.232 -1.64381 0.936784 0
M  V30 5843 O 534.575 -1.83497 -0.0863377 0
M  V30 5844 C 534.637 -1.35617 3.32939 0
M  V30 5845 C 534.301 -0.487208 4.54396 0
M  V30 5846 C 535.298 0.250428 5.19297 0
M  V30 5847 C 532.983 -0.415494 5.00579 0
M  V30 5848 C 534.977 1.04812 6.28723 0
M  V30 5849 C 532.664 0.385879 6.0988 0
M  V30 5850 C 533.662 1.11637 6.73815 0
M  V30 5851 O 533.35 1.90454 7.81014 0
M  V30 5852 H 533.082 -0.173664 0.653312 0
M  V30 5853 H 535.636 0.1256 2.05016 0
M  V30 5854 H 533.866 -2.14763 3.2158 0
M  V30 5855 H 535.555 -1.92749 3.57215 0
M  V30 5856 H 536.321 0.204546 4.84568 0
M  V30 5857 H 532.2 -0.973679 4.506 0
M  V30 5858 H 535.744 1.6188 6.78558 0
M  V30 5859 H 531.641 0.433366 6.44044 0
M  V30 5860 H 532.409 1.82762 7.97835 0
M  V30 5861 N 535.072 -1.5615 -0.213296 0
M  V30 5862 C 536.318 -1.79812 -0.937849 0
M  V30 5863 C 536.651 -0.631201 -1.83656 0
M  V30 5864 O 535.926 0.369165 -1.90964 0
M  V30 5865 C 536.209 -3.13613 -1.76972 0
M  V30 5866 C 536.062 -4.40766 -0.89695 0
M  V30 5867 C 537.381 -3.43931 -2.7459 0
M  V30 5868 H 534.5 -0.654138 -0.339518 0
M  V30 5869 H 537.142 -1.88877 -0.20623 0
M  V30 5870 H 535.292 -3.06015 -2.39347 0
M  V30 5871 H 536.964 -4.60392 -0.289306 0
M  V30 5872 H 535.207 -4.33326 -0.202756 0
M  V30 5873 H 535.878 -5.30843 -1.51358 0
M  V30 5874 H 538.354 -3.5171 -2.22349 0
M  V30 5875 H 537.23 -4.38706 -3.29891 0
M  V30 5876 H 537.491 -2.6651 -3.52739 0
M  V30 5877 N 536.55 0.480323 -1.50102 0
M  V30 5878 C 537.797 1.23307 -1.60629 0
M  V30 5879 C 538.125 1.92135 -0.302375 0
M  V30 5880 O 537.38 1.82321 0.711154 0
M  V30 5881 C 537.679 2.30708 -2.72963 0
M  V30 5882 C 537.345 1.79195 -4.13763 0
M  V30 5883 C 536.007 1.64867 -4.52076 0
M  V30 5884 C 538.359 1.40878 -5.018 0
M  V30 5885 C 535.687 1.10631 -5.76175 0
M  V30 5886 C 538.039 0.880872 -6.26437 0
M  V30 5887 C 536.703 0.724146 -6.6356 0
M  V30 5888 H 535.973 0.451211 -0.587784 0
M  V30 5889 H 538.62 0.53051 -1.84005 0
M  V30 5890 H 536.925 3.06834 -2.43639 0
M  V30 5891 H 538.622 2.88692 -2.78313 0
M  V30 5892 H 535.212 1.91313 -3.83533 0
M  V30 5893 H 539.396 1.50786 -4.7284 0
M  V30 5894 H 534.652 0.972263 -6.0362 0
M  V30 5895 H 538.826 0.575269 -6.9402 0
M  V30 5896 H 536.453 0.301722 -7.59601 0
M  V30 5897 N 538.028 1.39524 0.732853 0
M  V30 5898 C 539.253 1.40329 1.52717 0
M  V30 5899 C 539.678 0.000286574 1.881 0
M  V30 5900 O 539.036 -0.987262 1.52062 0
M  V30 5901 C 539.084 2.28464 2.78992 0
M  V30 5902 O 538.188 1.716 3.75003 0
M  V30 5903 H 537.529 0.47778 0.461109 0
M  V30 5904 H 540.059 1.83546 0.903996 0
M  V30 5905 H 540.069 2.43051 3.27705 0
M  V30 5906 H 538.744 3.30425 2.52572 0
M  V30 5907 H 537.321 1.66267 3.33781 0
M  V30 5908 N 539.506 -0.963266 1.24736 0
M  V30 5909 C 540.456 -2.0438 1.01058 0
M  V30 5910 C 541.44 -1.60824 -0.0495354 0
M  V30 5911 O 542.632 -1.76232 0.164741 0
M  V30 5912 C 539.761 -3.37617 0.622067 0
M  V30 5913 C 538.847 -3.87722 1.7185 0
M  V30 5914 N 539.238 -4.10715 2.95207 0
M  V30 5915 C 537.536 -4.16426 1.59703 0
M  V30 5916 C 538.237 -4.51872 3.66315 0
M  V30 5917 N 537.213 -4.57302 2.93897 0
M  V30 5918 H 541.015 -2.20138 1.94721 0
M  V30 5919 H 538.529 -1.14741 1.14927 0
M  V30 5920 H 540.526 -4.14638 0.43366 0
M  V30 5921 H 539.186 -3.23242 -0.307327 0
M  V30 5922 H 540.197 -3.98037 3.31341 0
M  V30 5923 H 536.874 -4.10962 0.73598 0
M  V30 5924 H 538.264 -4.78037 4.72155 0
M  V30 5925 N 540.985 -1.06182 -1.16461 0
M  V30 5926 C 541.933 -0.665716 -2.2287 0
M  V30 5927 C 542.927 0.317822 -1.66392 0
M  V30 5928 O 544.133 0.182807 -1.79069 0
M  V30 5929 H 540.508 -0.197148 -0.725697 0
M  V30 5930 H 542.479 -1.57307 -2.53569 0
M  V30 5931 C 541.228 -0.0669803 -3.47635 0
M  V30 5932 H 540.551 -0.814899 -3.91407 0
M  V30 5933 H 541.991 0.172669 -4.23648 0
M  V30 5934 C 540.45 1.18913 -3.15216 0
M  V30 5935 O 540.98 2.27723 -3.30916 0
M  V30 5936 N 539.186 1.09066 -2.69357 0
M  V30 5937 H 538.733 0.20518 -2.56782 0
M  V30 5938 H 538.691 1.93195 -2.48039 0
M  V30 5939 N 542.463 1.3308 -0.844243 0
M  V30 5940 C 543.413 2.26589 -0.253289 0
M  V30 5941 C 544.397 1.49501 0.594836 0
M  V30 5942 O 545.589 1.71291 0.445924 0
M  V30 5943 C 542.718 3.38599 0.566176 0
M  V30 5944 C 541.804 4.23081 -0.293756 0
M  V30 5945 N 542.195 4.86751 -1.37505 0
M  V30 5946 C 540.493 4.45925 -0.0817086 0
M  V30 5947 C 541.194 5.49684 -1.90323 0
M  V30 5948 N 540.17 5.30101 -1.20391 0
M  V30 5949 H 543.972 2.73334 -1.08009 0
M  V30 5950 H 541.486 1.47048 -0.689258 0
M  V30 5951 H 543.483 4.04584 1.00587 0
M  V30 5952 H 542.143 2.93401 1.39089 0
M  V30 5953 H 543.154 4.87151 -1.75796 0
M  V30 5954 H 539.831 4.11434 0.709129 0
M  V30 5955 H 541.221 6.10363 -2.80902 0
M  V30 5956 N 543.941 0.601185 1.45683 0
M  V30 5957 C 544.888 -0.121396 2.30481 0
M  V30 5958 C 545.858 -0.866232 1.41724 0
M  V30 5959 O 547.043 -0.85324 1.70659 0
M  V30 5960 C 544.183 -1.11704 3.26521 0
M  V30 5961 C 543.296 -0.373741 4.3038 0
M  V30 5962 C 542.431 -1.35854 5.13534 0
M  V30 5963 C 541.47 -0.602689 6.09126 0
M  V30 5964 N 540.607 -1.53645 6.85082 0
M  V30 5965 H 545.447 0.607732 2.91737 0
M  V30 5966 H 542.984 0.311502 1.43764 0
M  V30 5967 H 544.942 -1.70735 3.80664 0
M  V30 5968 H 543.572 -1.81366 2.67032 0
M  V30 5969 H 542.624 0.331962 3.78949 0
M  V30 5970 H 543.936 0.2163 4.98331 0
M  V30 5971 H 543.09 -2.02111 5.72046 0
M  V30 5972 H 541.829 -1.98251 4.45587 0
M  V30 5973 H 540.834 0.0735482 5.49751 0
M  V30 5974 H 542.059 0.0161467 6.79098 0
M  V30 5975 H 540.005 -2.14819 6.1983 0
M  V30 5976 H 539.922 -0.999688 7.49361 0
M  V30 5977 H 541.19 -2.1888 7.48139 0
M  V30 5978 N 545.419 -1.53889 0.339982 0
M  V30 5979 C 546.349 -2.27843 -0.510856 0
M  V30 5980 C 547.33 -1.29267 -1.10563 0
M  V30 5981 O 548.515 -1.58104 -1.12768 0
M  V30 5982 C 545.645 -3.04857 -1.66372 0
M  V30 5983 C 544.599 -4.10907 -1.19746 0
M  V30 5984 C 543.925 -4.75855 -2.43857 0
M  V30 5985 C 545.225 -5.21435 -0.300501 0
M  V30 5986 H 546.919 -2.99212 0.106067 0
M  V30 5987 H 544.465 -1.43904 0.0524533 0
M  V30 5988 H 546.418 -3.5533 -2.26537 0
M  V30 5989 H 545.142 -2.31133 -2.30749 0
M  V30 5990 H 543.801 -3.61342 -0.618654 0
M  V30 5991 H 543.449 -3.9873 -3.06633 0
M  V30 5992 H 543.149 -5.47502 -2.13343 0
M  V30 5993 H 544.673 -5.2911 -3.04754 0
M  V30 5994 H 546.087 -5.67565 -0.80889 0
M  V30 5995 H 544.484 -6.00036 -0.0874076 0
M  V30 5996 H 545.554 -4.80328 0.664321 0
M  V30 5997 N 546.897 -0.0685191 -1.57451 0
M  V30 5998 C 548.146 0.600898 -1.92541 0
M  V30 5999 C 548.459 1.70967 -0.950239 0
M  V30 6000 O 549.665 2.43844 -1.19384 0
M  V30 6001 C 548.121 1.12019 -3.42023 0
M  V30 6002 C 547.729 0.0426028 -4.4798 0
M  V30 6003 C 549.473 1.76386 -3.86119 0
M  V30 6004 C 547.38 0.575759 -5.88591 0
M  V30 6005 H 546.31 0.228225 -0.71863 0
M  V30 6006 H 548.961 -0.140223 -1.82963 0
M  V30 6007 H 547.343 1.91418 -3.46663 0
M  V30 6008 H 548.517 -0.73182 -4.54952 0
M  V30 6009 H 546.832 -0.504642 -4.13331 0
M  V30 6010 H 549.429 2.17302 -4.88553 0
M  V30 6011 H 549.772 2.62255 -3.23308 0
M  V30 6012 H 550.305 1.03615 -3.84069 0
M  V30 6013 H 547.044 -0.245691 -6.55039 0
M  V30 6014 H 546.564 1.31778 -5.85145 0
M  V30 6015 H 548.243 1.0532 -6.3837 0
M  V30 6016 N 548.375 1.56261 0.205012 0
M  V30 6017 C 549.322 1.93754 1.25411 0
M  V30 6018 C 550.292 0.796826 1.45739 0
M  V30 6019 O 551.477 1.05414 1.59036 0
M  V30 6020 C 548.617 2.27383 2.59598 0
M  V30 6021 C 547.73 3.5447 2.46931 0
M  V30 6022 C 546.865 3.77468 3.73753 0
M  V30 6023 C 545.904 4.98014 3.55877 0
M  V30 6024 N 545.041 5.17316 4.74688 0
M  V30 6025 H 549.881 2.83203 0.92737 0
M  V30 6026 H 547.418 1.40158 0.446574 0
M  V30 6027 H 549.376 2.44895 3.37761 0
M  V30 6028 H 548.006 1.41088 2.90335 0
M  V30 6029 H 547.058 3.45061 1.60116 0
M  V30 6030 H 548.37 4.42789 2.29651 0
M  V30 6031 H 547.524 3.95165 4.60358 0
M  V30 6032 H 546.263 2.87461 3.93976 0
M  V30 6033 H 545.268 4.80249 2.67657 0
M  V30 6034 H 546.493 5.8952 3.37109 0
M  V30 6035 H 544.439 4.30255 4.95194 0
M  V30 6036 H 544.356 5.99796 4.60197 0
M  V30 6037 H 545.624 5.39463 5.62672 0
M  V30 6038 N 549.853 -0.472356 1.50355 0
M  V30 6039 C 551.269 -0.806001 1.37753 0
M  V30 6040 C 551.469 -1.968 0.432649 0
M  V30 6041 O 550.525 -2.52189 -0.12519 0
M  V30 6042 C 551.838 -1.11926 2.79093 0
M  V30 6043 C 553.386 -1.22579 2.87999 0
M  V30 6044 C 553.861 -1.57218 4.3017 0
M  V30 6045 N 555.352 -1.64212 4.33115 0
M  V30 6046 C 556.087 -1.92517 5.40116 0
M  V30 6047 N 555.583 -2.1885 6.57325 0
M  V30 6048 N 557.376 -1.94008 5.27558 0
M  V30 6049 H 549.527 0.293451 2.10363 0
M  V30 6050 H 551.79 0.0687672 0.945503 0
M  V30 6051 H 551.496 -0.338504 3.50067 0
M  V30 6052 H 551.37 -2.05577 3.16256 0
M  V30 6053 H 553.757 -1.99722 2.17245 0
M  V30 6054 H 553.838 -0.269107 2.54381 0
M  V30 6055 H 553.482 -0.806154 5.01461 0
M  V30 6056 H 553.412 -2.54034 4.61275 0
M  V30 6057 H 555.903 -1.45906 3.48597 0
M  V30 6058 H 556.216 -2.39718 7.3468 0
M  V30 6059 H 554.561 -2.16245 6.60502 0
M  V30 6060 H 557.752 -1.72931 4.34986 0
M  V30 6061 H 557.925 -2.15731 6.11035 0
M  V30 6062 N 551.331 -1.39911 -0.725443 0
M  V30 6063 C 552.264 -1.33788 -1.84867 0
M  V30 6064 C 553.242 -0.209907 -1.61239 0
M  V30 6065 O 554.426 -0.391943 -1.8438 0
M  V30 6066 C 551.553 -1.07975 -3.21028 0
M  V30 6067 C 550.599 -2.23092 -3.635 0
M  V30 6068 S 551.432 -3.85431 -3.71757 0
M  V30 6069 C 552.588 -3.61862 -5.10692 0
M  V30 6070 H 552.821 -2.28848 -1.89779 0
M  V30 6071 H 550.354 -1.26079 -0.891254 0
M  V30 6072 H 552.312 -0.937669 -3.99647 0
M  V30 6073 H 550.973 -0.145865 -3.13761 0
M  V30 6074 H 550.166 -2.00647 -4.62338 0
M  V30 6075 H 549.768 -2.33553 -2.92112 0
M  V30 6076 H 552.06 -3.19719 -5.97316 0
M  V30 6077 H 553.003 -4.60196 -5.38169 0
M  V30 6078 H 553.411 -2.95757 -4.8082 0
M  V30 6079 N 552.809 0.956637 -1.25245 0
M  V30 6080 C 554.058 1.69537 -1.0927 0
M  V30 6081 C 554.371 1.92136 0.366503 0
M  V30 6082 O 555.577 2.63687 0.64665 0
M  V30 6083 C 554.033 3.05211 -1.9072 0
M  V30 6084 C 553.641 2.90416 -3.41119 0
M  V30 6085 C 555.385 3.82882 -1.83308 0
M  V30 6086 C 553.292 4.21468 -4.14872 0
M  V30 6087 H 552.222 0.635804 -0.405302 0
M  V30 6088 H 554.873 1.06513 -1.49423 0
M  V30 6089 H 553.255 3.69128 -1.43389 0
M  V30 6090 H 554.429 2.35444 -3.9611 0
M  V30 6091 H 552.744 2.26203 -3.49602 0
M  V30 6092 H 555.341 4.79944 -2.35706 0
M  V30 6093 H 555.684 4.0853 -0.800572 0
M  V30 6094 H 556.217 3.25711 -2.28379 0
M  V30 6095 H 552.956 4.01009 -5.18529 0
M  V30 6096 H 552.476 4.76213 -3.64665 0
M  V30 6097 H 554.155 4.90022 -4.22478 0
M  V30 6098 N 554.287 1.06798 1.15896 0
M  V30 6099 C 555.564 0.701057 1.82605 0
M  V30 6100 C 555.944 -0.817066 1.94646 0
M  V30 6101 O 555.292 -1.72933 1.49353 0
M  V30 6102 C 555.502 1.40895 3.19296 0
M  V30 6103 C 556.85 1.55744 3.95005 0
M  V30 6104 O 557.874 1.36927 3.28831 0
M  V30 6105 O 556.733 1.86658 5.13635 0
M  V30 6106 H 553.827 0.248791 0.78869 0
M  V30 6107 H 556.373 1.16857 1.23055 0
M  V30 6108 H 555.145 2.4439 3.05596 0
M  V30 6109 H 554.768 0.931847 3.86526 0
M  V30 6110 N 555.766 -1.3263 0.851289 0
M  V30 6111 C 556.676 -2.32722 0.296268 0
M  V30 6112 C 557.692 -1.63901 -0.584162 0
M  V30 6113 O 558.868 -1.95465 -0.485334 0
M  V30 6114 C 555.933 -3.42942 -0.509103 0
M  V30 6115 C 554.994 -4.2746 0.397069 0
M  V30 6116 C 554.227 -5.32416 -0.36996 0
M  V30 6117 O 554.45 -5.47491 -1.6003 0
M  V30 6118 O 553.384 -6.01327 0.262493 0
M  V30 6119 H 557.21 -2.82078 1.12543 0
M  V30 6120 H 554.795 -1.36194 0.614135 0
M  V30 6121 H 556.677 -4.1017 -0.96634 0
M  V30 6122 H 555.352 -2.95781 -1.31512 0
M  V30 6123 H 554.259 -3.63053 0.902411 0
M  V30 6124 H 555.592 -4.78136 1.16818 0
M  V30 6125 N 557.244 -0.608902 -1.45362 0
M  V30 6126 C 558.472 -0.111013 -2.06602 0
M  V30 6127 C 558.887 1.20516 -1.45332 0
M  V30 6128 O 558.244 1.73437 -0.567978 0
M  V30 6129 C 558.295 0.033688 -3.61484 0
M  V30 6130 O 558.016 -1.23041 -4.20467 0
M  V30 6131 C 559.517 0.562882 -4.39712 0
M  V30 6132 H 556.737 -0.0694453 -0.667397 0
M  V30 6133 H 559.281 -0.837008 -1.86586 0
M  V30 6134 H 557.436 0.710016 -3.80838 0
M  V30 6135 H 557.85 -1.06094 -5.13658 0
M  V30 6136 H 559.324 0.613213 -5.48583 0
M  V30 6137 H 559.801 1.58543 -4.09586 0
M  V30 6138 H 560.407 -0.0794454 -4.25226 0
M  V30 6139 N 558.722 1.53707 -0.348139 0
M  V30 6140 C 559.947 2.05877 0.250883 0
M  V30 6141 C 560.372 1.22115 1.43072 0
M  V30 6142 O 559.73 0.235986 1.79758 0
M  V30 6143 C 559.778 3.54886 0.639416 0
M  V30 6144 O 558.882 3.73948 1.73888 0
M  V30 6145 H 558.223 0.662754 0.040653 0
M  V30 6146 H 560.753 1.98303 -0.503685 0
M  V30 6147 H 560.763 3.97601 0.915295 0
M  V30 6148 H 559.438 4.153 -0.223386 0
M  V30 6149 H 558.015 3.43134 1.45991 0
M  V30 6150 N 560.2 0.0768682 1.57412 0
M  V30 6151 C 561.425 -0.603404 1.98428 0
M  V30 6152 C 561.85 -1.62047 0.955108 0
M  V30 6153 O 561.208 -1.81129 -0.0786778 0
M  V30 6154 C 561.256 -1.24396 3.38464 0
M  V30 6155 O 560.36 -2.35982 3.3821 0
M  V30 6156 H 559.701 -0.154741 0.645718 0
M  V30 6157 H 562.231 0.152885 2.04028 0
M  V30 6158 H 562.241 -1.5896 3.7576 0
M  V30 6159 H 560.916 -0.498735 4.12899 0
M  V30 6160 H 559.493 -2.03173 3.1269 0
M  V30 6161 N 561.678 -1.56367 -0.196722 0
M  V30 6162 C 562.926 -1.80172 -0.915554 0
M  V30 6163 C 563.247 -0.649649 -1.8386 0
M  V30 6164 O 562.517 0.332111 -1.93064 0
M  V30 6165 H 561.097 -0.664592 -0.341067 0
M  V30 6166 H 563.759 -1.93844 -0.202622 0
M  V30 6167 H 562.855 -2.7327 -1.50764 0
M  V30 6168 N 563.156 0.464375 -1.50603 0
M  V30 6169 C 564.404 1.21356 -1.61608 0
M  V30 6170 C 564.725 1.92329 -0.321643 0
M  V30 6171 O 563.995 1.84403 0.661232 0
M  V30 6172 H 562.575 0.45094 -0.595535 0
M  V30 6173 H 565.237 0.535046 -1.87412 0
M  V30 6174 H 564.333 1.95783 -2.43054 0
M  V30 6175 N 564.634 1.40294 0.718013 0
M  V30 6176 C 565.88 1.38645 1.48005 0
M  V30 6177 C 566.213 -0.0121202 1.94196 0
M  V30 6178 O 565.488 -0.980309 1.67989 0
M  V30 6179 C 565.771 2.37379 2.70782 0
M  V30 6180 C 565.624 3.8625 2.30501 0
M  V30 6181 C 566.943 2.33685 3.72933 0
M  V30 6182 H 564.062 0.504928 0.536858 0
M  V30 6183 H 566.704 1.71411 0.819649 0
M  V30 6184 H 564.854 2.09568 3.27129 0
M  V30 6185 H 566.526 4.24879 1.79655 0
M  V30 6186 H 564.769 4.02202 1.6253 0
M  V30 6187 H 565.44 4.50847 3.18498 0
M  V30 6188 H 567.916 2.58314 3.2621 0
M  V30 6189 H 566.792 3.0482 4.56482 0
M  V30 6190 H 567.053 1.34765 4.21059 0
M  V30 6191 N 566.112 -0.949982 1.2575 0
M  V30 6192 C 567.34 -1.72972 1.13527 0
M  V30 6193 C 567.755 -1.8623 -0.310453 0
M  V30 6194 O 567.112 -1.36336 -1.2132 0
M  V30 6195 C 567.163 -3.14108 1.78936 0
M  V30 6196 O 566.884 -3.01493 3.17858 0
M  V30 6197 C 568.385 -4.08338 1.72554 0
M  V30 6198 H 565.605 -0.541864 0.395758 0
M  V30 6199 H 568.149 -1.19151 1.66202 0
M  V30 6200 H 566.304 -3.64858 1.30221 0
M  V30 6201 H 566.718 -3.90559 3.50092 0
M  V30 6202 H 568.192 -5.04963 2.22973 0
M  V30 6203 H 568.669 -4.33742 0.690251 0
M  V30 6204 H 569.275 -3.63506 2.2078 0
M  V30 6205 N 567.59 -1.07411 -1.15328 0
M  V30 6206 C 568.838 -0.796073 -1.85761 0
M  V30 6207 C 569.159 0.679864 -1.82764 0
M  V30 6208 O 568.429 1.49242 -1.269 0
M  V30 6209 H 567.009 -0.291495 -0.687779 0
M  V30 6210 H 569.671 -1.35799 -1.39802 0
M  V30 6211 H 568.767 -1.13114 -2.90881 0
M  V30 6212 N 569.068 1.32177 -0.85831 0
M  V30 6213 C 570.016 2.30729 -0.294442 0
M  V30 6214 C 571.01 1.59009 0.584165 0
M  V30 6215 O 572.216 1.73713 0.471562 0
M  V30 6216 H 568.591 0.748097 -0.0765171 0
M  V30 6217 H 570.562 2.75774 -1.1398 0
M  V30 6218 C 569.311 3.44098 0.499208 0
M  V30 6219 H 568.634 3.99449 -0.167579 0
M  V30 6220 H 570.074 4.15202 0.859273 0
M  V30 6221 C 568.533 2.91684 1.68588 0
M  V30 6222 O 569.063 2.89481 2.78503 0
M  V30 6223 N 567.269 2.48036 1.51415 0
M  V30 6224 H 566.816 2.50027 0.620006 0
M  V30 6225 H 566.774 2.13322 2.30957 0
M  V30 6226 N 570.547 0.616602 1.45037 0
M  V30 6227 C 571.824 0.0469086 1.95544 0
M  V30 6228 C 572.204 -1.42345 1.55888 0
M  V30 6229 O 571.552 -2.13055 0.825824 0
M  V30 6230 C 571.762 0.254489 3.48071 0
M  V30 6231 C 573.11 0.140025 4.24369 0
M  V30 6232 O 574.134 0.185084 3.55719 0
M  V30 6233 O 572.993 0.0327034 5.4649 0
M  V30 6234 H 570.087 -0.0306051 0.826433 0
M  V30 6235 H 572.633 0.687293 1.55159 0
M  V30 6236 H 571.405 1.27532 3.69934 0
M  V30 6237 H 571.028 -0.42073 3.95368 0
M  V30 6238 N 572.025 -1.5352 0.356285 0
M  V30 6239 C 573.271 -2.01414 -0.236653 0
M  V30 6240 C 573.604 -1.24339 -1.49176 0
M  V30 6241 O 572.879 -0.334496 -1.91602 0
M  V30 6242 C 573.162 -3.56059 -0.537982 0
M  V30 6243 C 573.015 -4.43835 0.730112 0
M  V30 6244 C 574.334 -4.19127 -1.34239 0
M  V30 6245 H 571.453 -0.732135 -0.0845386 0
M  V30 6246 H 574.095 -1.83854 0.479341 0
M  V30 6247 H 572.245 -3.71153 -1.14795 0
M  V30 6248 H 573.917 -4.40555 1.36782 0
M  V30 6249 H 572.16 -4.1218 1.3524 0
M  V30 6250 H 572.831 -5.49958 0.474358 0
M  V30 6251 H 575.307 -4.07809 -0.826498 0
M  V30 6252 H 574.183 -5.27378 -1.52198 0
M  V30 6253 H 574.444 -3.74581 -2.34822 0
M  V30 6254 N 573.503 -0.0852151 -1.57369 0
M  V30 6255 C 574.752 0.580443 -1.93168 0
M  V30 6256 C 575.065 1.6995 -0.968319 0
M  V30 6257 O 576.271 2.42564 -1.21963 0
M  V30 6258 C 574.727 1.08386 -3.43192 0
M  V30 6259 C 574.335 -0.00491388 -4.48 0
M  V30 6260 C 576.079 1.72281 -3.87968 0
M  V30 6261 C 573.986 0.513299 -5.89168 0
M  V30 6262 H 572.916 0.22059 -0.72101 0
M  V30 6263 H 575.567 -0.159621 -1.82804 0
M  V30 6264 H 573.949 1.8773 -3.48674 0
M  V30 6265 H 575.123 -0.780032 -4.5415 0
M  V30 6266 H 573.438 -0.548453 -4.12772 0
M  V30 6267 H 576.035 2.12108 -4.9083 0
M  V30 6268 H 576.378 2.58811 -3.26071 0
M  V30 6269 H 576.911 0.995359 -3.85146 0
M  V30 6270 H 573.65 -0.315153 -6.54742 0
M  V30 6271 H 573.17 1.25564 -5.8651 0
M  V30 6272 H 574.849 0.985433 -6.39451 0
M  V30 6273 N 574.981 1.5647 0.188427 0
M  V30 6274 C 575.914 1.90146 1.26173 0
M  V30 6275 C 576.892 0.762294 1.43624 0
M  V30 6276 O 578.076 1.01395 1.58907 0
M  V30 6277 C 575.203 2.13748 2.62735 0
M  V30 6278 C 574.249 3.36448 2.62116 0
M  V30 6279 S 575.082 4.91364 2.12889 0
M  V30 6280 C 576.238 5.18041 3.51261 0
M  V30 6281 H 576.471 2.80886 0.974192 0
M  V30 6282 H 574.004 1.49335 0.392226 0
M  V30 6283 H 575.962 2.28028 3.41341 0
M  V30 6284 H 574.623 1.23747 2.88696 0
M  V30 6285 H 573.816 3.50109 3.62546 0
M  V30 6286 H 573.418 3.21196 1.91596 0
M  V30 6287 H 575.71 5.0897 4.47164 0
M  V30 6288 H 576.653 6.19764 3.42489 0
M  V30 6289 H 577.061 4.45657 3.46482 0
M  V30 6290 N 576.459 -0.456382 1.50847 0
M  V30 6291 C 577.409 -1.55045 1.67168 0
M  V30 6292 C 578.393 -1.52061 0.525958 0
M  V30 6293 O 579.585 -1.58836 0.781036 0
M  V30 6294 C 576.714 -2.93386 1.78268 0
M  V30 6295 C 575.8 -3.01198 2.98564 0
M  V30 6296 N 576.191 -2.78792 4.22029 0
M  V30 6297 C 574.489 -3.32346 2.97426 0
M  V30 6298 C 575.19 -2.91953 5.03128 0
M  V30 6299 N 574.166 -3.22797 4.37382 0
M  V30 6300 H 577.968 -1.36444 2.60308 0
M  V30 6301 H 575.482 -0.663375 1.48233 0
M  V30 6302 H 577.479 -3.72071 1.88067 0
M  V30 6303 H 576.139 -3.13022 0.862965 0
M  V30 6304 H 577.15 -2.54087 4.51287 0
M  V30 6305 H 573.827 -3.57877 2.15012 0
M  V30 6306 H 575.217 -2.78745 6.11351 0
M  V30 6307 N 577.937 -1.40673 -0.710563 0
M  V30 6308 C 579.184 -1.39222 -1.47049 0
M  V30 6309 C 579.512 0.0037691 -1.945 0
M  V30 6310 O 578.767 0.989224 -1.68857 0
M  V30 6311 C 579.066 -2.33253 -2.70791 0
M  V30 6312 C 578.732 -3.80406 -2.42079 0
M  V30 6313 C 577.394 -4.20496 -2.33959 0
M  V30 6314 C 579.746 -4.73375 -2.18094 0
M  V30 6315 C 577.074 -5.51584 -1.99929 0
M  V30 6316 C 579.426 -6.04768 -1.85576 0
M  V30 6317 C 578.09 -6.43895 -1.75941 0
M  V30 6318 H 577.36 -0.509449 -0.538092 0
M  V30 6319 H 580.007 -1.73363 -0.81348 0
M  V30 6320 H 578.312 -1.92314 -3.41354 0
M  V30 6321 H 580.009 -2.29412 -3.28894 0
M  V30 6322 H 576.599 -3.48645 -2.49288 0
M  V30 6323 H 580.783 -4.43217 -2.23321 0
M  V30 6324 H 576.039 -5.80797 -1.91011 0
M  V30 6325 H 580.213 -6.76318 -1.66033 0
M  V30 6326 H 577.84 -7.45387 -1.4934 0
M  V30 6327 N 579.415 0.9433 -1.26252 0
M  V30 6328 C 580.643 1.72367 -1.14443 0
M  V30 6329 C 581.058 1.86392 0.300572 0
M  V30 6330 O 580.415 1.36978 1.20596 0
M  V30 6331 C 580.466 3.13155 -1.806 0
M  V30 6332 O 580.187 2.99803 -3.19452 0
M  V30 6333 C 581.688 4.07417 -1.74717 0
M  V30 6334 H 578.908 0.539758 -0.398626 0
M  V30 6335 H 581.452 1.18268 -1.66832 0
M  V30 6336 H 579.607 3.64162 -1.32154 0
M  V30 6337 H 580.021 3.88697 -3.52158 0
M  V30 6338 H 581.495 5.03773 -2.25647 0
M  V30 6339 H 581.972 4.3337 -0.713244 0
M  V30 6340 H 582.578 3.6233 -2.22704 0
M  V30 6341 N 580.893 1.08022 1.14757 0
M  V30 6342 C 581.823 0.728248 2.21853 0
M  V30 6343 C 582.804 -0.287486 1.67653 0
M  V30 6344 O 583.989 -0.158727 1.9355 0
M  V30 6345 C 581.119 0.132549 3.47047 0
M  V30 6346 C 580.073 1.07619 4.14249 0
M  V30 6347 C 579.399 0.342907 5.33599 0
M  V30 6348 C 580.699 2.41268 4.63235 0
M  V30 6349 H 582.393 1.62365 2.51551 0
M  V30 6350 H 579.939 0.782125 1.20908 0
M  V30 6351 H 581.892 -0.125665 4.21213 0
M  V30 6352 H 580.616 -0.797971 3.16702 0
M  V30 6353 H 579.275 1.31944 3.42033 0
M  V30 6354 H 578.923 -0.59129 4.99513 0
M  V30 6355 H 578.623 0.971955 5.79506 0
M  V30 6356 H 580.147 0.0926538 6.1053 0
M  V30 6357 H 581.561 2.21232 5.28894 0
M  V30 6358 H 579.958 2.9983 5.19829 0
M  V30 6359 H 581.028 3.03079 3.78512 0
M  V30 6360 N 582.371 -1.3172 0.865308 0
M  V30 6361 C 583.319 -2.30569 0.306674 0
M  V30 6362 C 584.313 -1.59317 -0.575724 0
M  V30 6363 O 585.519 -1.73961 -0.462343 0
M  V30 6364 H 581.894 -0.747681 0.0804834 0
M  V30 6365 H 583.865 -2.75165 1.15441 0
M  V30 6366 C 582.614 -3.44358 -0.480952 0
M  V30 6367 H 581.937 -3.99354 0.18876 0
M  V30 6368 H 583.377 -4.15652 -0.837241 0
M  V30 6369 C 581.836 -2.92574 -1.67039 0
M  V30 6370 O 582.366 -2.90954 -2.76964 0
M  V30 6371 N 580.572 -2.48835 -1.50097 0
M  V30 6372 H 580.119 -2.50353 -0.606738 0
M  V30 6373 H 580.077 -2.14543 -2.29823 0
M  V30 6374 N 583.85 -0.624285 -1.44708 0
M  V30 6375 C 585.075 -0.131171 -2.06985 0
M  V30 6376 C 585.5 1.18234 -1.46295 0
M  V30 6377 O 584.858 1.72375 -0.561842 0
M  V30 6378 C 584.906 -0.0226724 -3.60593 0
M  V30 6379 O 584.01 1.02314 -3.99507 0
M  V30 6380 H 583.351 -0.0816556 -0.65896 0
M  V30 6381 H 585.88 -0.859027 -1.85693 0
M  V30 6382 H 585.891 0.170138 -4.07645 0
M  V30 6383 H 584.566 -0.981685 -4.04148 0
M  V30 6384 H 583.143 0.805452 -3.64097 0
M  V30 6385 N 585.328 1.53329 -0.364422 0
M  V30 6386 C 586.575 2.01239 0.225634 0
M  V30 6387 C 586.903 1.25172 1.48869 0
M  V30 6388 O 586.158 0.333289 1.92841 0
M  V30 6389 C 586.457 3.52911 0.564661 0
M  V30 6390 C 586.123 4.46837 -0.603936 0
M  V30 6391 C 584.785 4.72234 -0.924585 0
M  V30 6392 C 587.137 5.02409 -1.38691 0
M  V30 6393 C 584.465 5.50454 -2.0302 0
M  V30 6394 C 586.817 5.81836 -2.48293 0
M  V30 6395 C 585.481 6.0552 -2.80894 0
M  V30 6396 H 584.751 0.736386 0.0825654 0
M  V30 6397 H 587.398 1.84948 -0.496645 0
M  V30 6398 H 585.703 3.67144 1.36794 0
M  V30 6399 H 587.4 3.87455 1.03344 0
M  V30 6400 H 583.99 4.27217 -0.343983 0
M  V30 6401 H 588.174 4.82735 -1.15243 0
M  V30 6402 H 583.43 5.67024 -2.28678 0
M  V30 6403 H 587.604 6.23905 -3.0938 0
M  V30 6404 H 585.231 6.65916 -3.66688 0
M  V30 6405 N 586.806 0.0935595 1.57322 0
M  V30 6406 C 588.217 -0.435807 1.81542 0
M  V30 6407 C 588.568 -1.68263 1.00907 0
M  V30 6408 O 587.693 -2.15087 0.237983 0
M  V30 6409 C 588.288 -0.797436 3.29282 0
M  V30 6410 C 586.847 -1.27155 3.54272 0
M  V30 6411 C 585.994 -0.267455 2.76007 0
M  V30 6412 H 588.945 0.31902 1.5546 0
M  V30 6413 H 588.966 -1.6571 3.42521 0
M  V30 6414 H 588.478 0.110206 3.87943 0
M  V30 6415 H 586.579 -2.19696 3.00939 0
M  V30 6416 H 586.692 -1.23445 4.62923 0
M  V30 6417 H 585.056 -0.749282 2.43429 0
M  V30 6418 H 585.839 0.632839 3.37417 0
M  V30 6419 N 588.284 -1.56567 -0.180126 0
M  V30 6420 C 589.531 -1.81492 -0.898167 0
M  V30 6421 C 589.859 -0.669225 -1.82624 0
M  V30 6422 O 589.114 0.344096 -1.92651 0
M  V30 6423 C 589.413 -3.1252 -1.73395 0
M  V30 6424 C 589.079 -4.40658 -0.955567 0
M  V30 6425 C 587.741 -4.75465 -0.740707 0
M  V30 6426 C 590.093 -5.19593 -0.408948 0
M  V30 6427 C 587.421 -5.86691 0.0320128 0
M  V30 6428 C 589.773 -6.31627 0.350638 0
M  V30 6429 C 588.437 -6.65007 0.576378 0
M  V30 6430 H 587.707 -0.664125 -0.328662 0
M  V30 6431 H 590.354 -1.908 -0.163616 0
M  V30 6432 H 588.659 -2.98515 -2.53763 0
M  V30 6433 H 590.356 -3.29013 -2.29241 0
M  V30 6434 H 586.946 -4.13352 -1.13306 0
M  V30 6435 H 591.13 -4.93104 -0.562307 0
M  V30 6436 H 586.386 -6.11016 0.216735 0
M  V30 6437 H 590.56 -6.92001 0.781497 0
M  V30 6438 H 588.187 -7.51033 1.17703 0
M  V30 6439 N 589.762 0.448376 -1.51087 0
M  V30 6440 C 591.01 1.19635 -1.62886 0
M  V30 6441 C 591.331 1.91977 -0.342024 0
M  V30 6442 O 590.601 1.85094 0.641636 0
M  V30 6443 H 589.181 0.444598 -0.600285 0
M  V30 6444 H 591.843 0.515138 -1.87969 0
M  V30 6445 H 590.939 1.93194 -2.45117 0
M  V30 6446 N 591.24 1.41047 0.703093 0
M  V30 6447 C 592.488 1.39723 1.4602 0
M  V30 6448 C 592.809 0.00461257 1.94999 0
M  V30 6449 O 592.079 -0.952292 1.71196 0
M  V30 6450 H 590.659 0.514281 0.541779 0
M  V30 6451 H 593.321 1.76217 0.832678 0
M  V30 6452 H 592.417 2.07982 2.32701 0
M  V30 6453 N 592.718 -0.936591 1.26751 0
M  V30 6454 C 593.964 -1.6858 1.12733 0
M  V30 6455 C 594.297 -1.91414 -0.327745 0
M  V30 6456 O 593.572 -1.49812 -1.24043 0
M  V30 6457 C 593.855 -3.05779 1.90187 0
M  V30 6458 C 593.708 -2.90242 3.43627 0
M  V30 6459 C 595.027 -4.0597 1.69931 0
M  V30 6460 H 592.146 -0.61182 0.410908 0
M  V30 6461 H 594.788 -1.08747 1.55801 0
M  V30 6462 H 592.938 -3.56853 1.53584 0
M  V30 6463 H 594.61 -2.46354 3.9001 0
M  V30 6464 H 592.853 -2.2577 3.70419 0
M  V30 6465 H 593.524 -3.87572 3.93055 0
M  V30 6466 H 596 -3.63874 2.0183 0
M  V30 6467 H 594.876 -4.99974 2.26534 0
M  V30 6468 H 595.137 -4.37369 0.64502 0
M  V30 6469 N 594.196 -1.08629 -1.14182 0
M  V30 6470 C 595.444 -0.815731 -1.84906 0
M  V30 6471 C 595.765 0.660441 -1.83475 0
M  V30 6472 O 595.035 1.47888 -1.28476 0
M  V30 6473 H 593.615 -0.298773 -0.684648 0
M  V30 6474 H 596.277 -1.37274 -1.38354 0
M  V30 6475 H 595.373 -1.16193 -2.89665 0
M  V30 6476 N 595.674 1.31259 -0.872281 0
M  V30 6477 C 596.899 2.0133 -0.498099 0
M  V30 6478 C 597.324 1.65031 0.902568 0
M  V30 6479 O 596.682 0.860164 1.59596 0
M  V30 6480 C 596.73 3.54411 -0.665205 0
M  V30 6481 O 595.834 4.11347 0.294473 0
M  V30 6482 H 595.175 0.633844 -0.197832 0
M  V30 6483 H 597.705 1.67402 -1.17633 0
M  V30 6484 H 597.715 4.04147 -0.559373 0
M  V30 6485 H 596.39 3.80171 -1.68651 0
M  V30 6486 H 594.967 3.72624 0.143403 0
M  V30 6487 N 597.152 0.631951 1.44375 0
M  V30 6488 C 598.377 0.142146 2.06912 0
M  V30 6489 C 598.802 -1.17456 1.4692 0
M  V30 6490 O 598.16 -1.72074 0.570975 0
M  V30 6491 C 598.208 0.0417952 3.60576 0
M  V30 6492 O 597.312 -1.00194 4.00044 0
M  V30 6493 H 596.653 0.0851491 0.658518 0
M  V30 6494 H 599.183 0.868863 1.85235 0
M  V30 6495 H 599.193 -0.148517 4.0773 0
M  V30 6496 H 597.868 1.0031 4.03622 0
M  V30 6497 H 596.445 -0.786131 3.64519 0
M  V30 6498 N 598.631 -1.53133 0.372548 0
M  V30 6499 C 599.879 -2.00958 -0.214534 0
M  V30 6500 C 600.2 -1.26135 -1.48711 0
M  V30 6501 O 599.47 -0.376597 -1.92246 0
M  V30 6502 H 598.05 -0.742456 -0.0822664 0
M  V30 6503 H 600.712 -1.88367 0.500385 0
M  V30 6504 H 599.808 -3.09031 -0.436605 0
M  V30 6505 N 600.109 -0.101901 -1.5727 0
M  V30 6506 C 601.042 0.891377 -2.10071 0
M  V30 6507 C 602.02 1.27197 -1.01291 0
M  V30 6508 O 603.204 1.37602 -1.28833 0
M  V30 6509 C 600.331 2.19049 -2.58331 0
M  V30 6510 C 599.377 1.95925 -3.78834 0
M  V30 6511 S 600.21 1.19106 -5.22086 0
M  V30 6512 C 601.366 2.50234 -5.73702 0
M  V30 6513 H 601.599 0.442212 -2.93993 0
M  V30 6514 H 599.132 0.111529 -1.53997 0
M  V30 6515 H 601.09 2.937 -2.86793 0
M  V30 6516 H 599.751 2.61086 -1.74622 0
M  V30 6517 H 598.944 2.92143 -4.10693 0
M  V30 6518 H 598.546 1.29401 -3.50901 0
M  V30 6519 H 600.838 3.46173 -5.82384 0
M  V30 6520 H 601.781 2.22944 -6.72088 0
M  V30 6521 H 602.189 2.58818 -5.01671 0
M  V30 6522 N 601.587 1.56661 0.17182 0
M  V30 6523 C 602.835 1.81606 0.886774 0
M  V30 6524 C 603.156 0.678818 1.82803 0
M  V30 6525 O 602.426 -0.301354 1.93568 0
M  V30 6526 H 601.006 0.669934 0.330451 0
M  V30 6527 H 603.668 1.94142 0.171757 0
M  V30 6528 H 602.764 2.75634 1.46398 0
M  V30 6529 N 603.065 -0.440357 1.51323 0
M  V30 6530 C 604.028 -1.51679 1.71832 0
M  V30 6531 C 605.028 -1.49648 0.588386 0
M  V30 6532 O 606.218 -1.51724 0.855891 0
M  V30 6533 C 603.35 -2.91228 1.77199 0
M  V30 6534 H 604.543 -1.34799 2.67898 0
M  V30 6535 H 602.096 -0.66883 1.41267 0
M  V30 6536 H 602.831 -3.13516 0.829363 0
M  V30 6537 H 602.616 -2.94107 2.59314 0
M  V30 6538 H 604.106 -3.69321 1.94915 0
M  V30 6539 N 604.543 -1.41418 -0.695603 0
M  V30 6540 C 605.773 -1.43921 -1.48224 0
M  V30 6541 C 606.181 -0.0428855 -1.89151 0
M  V30 6542 O 605.524 0.948138 -1.5734 0
M  V30 6543 C 605.586 -2.28466 -2.77567 0
M  V30 6544 C 605.25 -3.76629 -2.58844 0
M  V30 6545 C 606.247 -4.6879 -2.24793 0
M  V30 6546 C 603.932 -4.2067 -2.74485 0
M  V30 6547 C 605.926 -6.02981 -2.06622 0
M  V30 6548 C 603.613 -5.54926 -2.55931 0
M  V30 6549 C 604.611 -6.45897 -2.2205 0
M  V30 6550 O 604.299 -7.77675 -2.03657 0
M  V30 6551 H 604.031 -0.492252 -0.463318 0
M  V30 6552 H 606.585 -1.86347 -0.863952 0
M  V30 6553 H 604.815 -1.80853 -3.41802 0
M  V30 6554 H 606.504 -2.2267 -3.39371 0
M  V30 6555 H 607.27 -4.36055 -2.12323 0
M  V30 6556 H 603.149 -3.50167 -2.9984 0
M  V30 6557 H 606.693 -6.73951 -1.80099 0
M  V30 6558 H 602.59 -5.8724 -2.67991 0
M  V30 6559 H 603.358 -7.88819 -2.1842 0
M  V30 6560 N 606.021 0.929856 -1.27246 0
M  V30 6561 C 606.971 2.01629 -1.06442 0
M  V30 6562 C 607.955 1.60899 0.00687842 0
M  V30 6563 O 609.147 1.75733 -0.211407 0
M  V30 6564 C 606.276 3.35849 -0.711361 0
M  V30 6565 C 605.362 3.8303 -1.82069 0
M  V30 6566 N 605.753 4.02743 -3.05993 0
M  V30 6567 C 604.051 4.12046 -1.70687 0
M  V30 6568 C 604.752 4.42001 -3.78167 0
M  V30 6569 N 603.728 4.4935 -3.05918 0
M  V30 6570 H 607.53 2.14898 -2.00489 0
M  V30 6571 H 605.044 1.11654 -1.17929 0
M  V30 6572 H 607.041 4.13343 -0.543442 0
M  V30 6573 H 605.701 3.23944 0.221517 0
M  V30 6574 H 606.712 3.89112 -3.41778 0
M  V30 6575 H 603.389 4.08866 -0.844681 0
M  V30 6576 H 604.779 4.6535 -4.84664 0
M  V30 6577 N 607.499 1.09233 1.13605 0
M  V30 6578 C 608.747 0.825525 1.84471 0
M  V30 6579 C 609.068 -0.650702 1.83823 0
M  V30 6580 O 608.338 -1.47204 1.29259 0
M  V30 6581 H 606.918 0.3024 0.683054 0
M  V30 6582 H 609.58 1.38006 1.37624 0
M  V30 6583 H 608.676 1.17727 2.89045 0
M  V30 6584 N 608.977 -1.30795 0.87923 0
M  V30 6585 C 609.924 -2.28282 0.339968 0
M  V30 6586 C 610.894 -1.56134 -0.566685 0
M  V30 6587 O 612.079 -1.84231 -0.496338 0
M  V30 6588 C 609.219 -3.42225 -0.444501 0
M  V30 6589 C 608.332 -4.29204 0.490717 0
M  V30 6590 C 607.467 -5.30302 -0.308784 0
M  V30 6591 C 606.506 -6.08929 0.622272 0
M  V30 6592 N 605.643 -7.01957 -0.14155 0
M  V30 6593 H 610.483 -2.73794 1.17647 0
M  V30 6594 H 608.02 -1.34682 0.591527 0
M  V30 6595 H 609.978 -4.07038 -0.915186 0
M  V30 6596 H 608.608 -2.97799 -1.24562 0
M  V30 6597 H 607.66 -3.6475 1.07988 0
M  V30 6598 H 608.972 -4.84045 1.20425 0
M  V30 6599 H 608.126 -6.00835 -0.841575 0
M  V30 6600 H 606.865 -4.7614 -1.05556 0
M  V30 6601 H 605.87 -5.37278 1.16674 0
M  V30 6602 H 607.095 -6.65178 1.36804 0
M  V30 6603 H 605.041 -6.50192 -0.870966 0
M  V30 6604 H 604.958 -7.54261 0.51246 0
M  V30 6605 H 606.226 -7.76741 -0.655271 0
M  V30 6606 N 610.455 -0.639598 -1.44038 0
M  V30 6607 C 611.405 0.0823038 -2.27851 0
M  V30 6608 C 612.389 0.807991 -1.39141 0
M  V30 6609 O 613.581 0.692702 -1.62882 0
M  V30 6610 C 610.71 1.05742 -3.26609 0
M  V30 6611 C 609.796 0.330911 -4.22807 0
M  V30 6612 N 610.187 -0.645126 -5.01669 0
M  V30 6613 C 608.485 0.574214 -4.42288 0
M  V30 6614 C 609.186 -1.07513 -5.71678 0
M  V30 6615 N 608.162 -0.412164 -5.42035 0
M  V30 6616 H 611.964 -0.666861 -2.86234 0
M  V30 6617 H 609.478 -0.465777 -1.55577 0
M  V30 6618 H 611.475 1.58927 -3.85419 0
M  V30 6619 H 610.135 1.80679 -2.69787 0
M  V30 6620 H 611.146 -1.02329 -5.0769 0
M  V30 6621 H 607.823 1.30581 -3.96554 0
M  V30 6622 H 609.213 -1.88196 -6.45005 0
M  V30 6623 N 611.933 1.52934 -0.380664 0
M  V30 6624 C 613.158 2.06363 0.207157 0
M  V30 6625 C 613.583 1.25122 1.4045 0
M  V30 6626 O 612.941 0.274062 1.79217 0
M  V30 6627 C 612.989 3.56162 0.563996 0
M  V30 6628 O 612.093 3.77552 1.65917 0
M  V30 6629 H 611.434 0.663468 0.0265859 0
M  V30 6630 H 613.964 1.9719 -0.545635 0
M  V30 6631 H 613.974 3.99453 0.830752 0
M  V30 6632 H 612.649 4.14732 -0.311427 0
M  V30 6633 H 611.226 3.46154 1.3868 0
M  V30 6634 N 613.412 0.11024 1.57214 0
M  V30 6635 C 614.659 -0.54987 1.94891 0
M  V30 6636 C 614.987 -1.67243 0.992984 0
M  V30 6637 O 614.242 -1.95694 0.0152703 0
M  V30 6638 C 614.541 -1.13102 3.39032 0
M  V30 6639 C 614.207 -0.130713 4.5071 0
M  V30 6640 C 612.869 0.14437 4.80983 0
M  V30 6641 C 615.221 0.551472 5.18274 0
M  V30 6642 C 612.549 1.10807 5.76141 0
M  V30 6643 C 614.901 1.50375 6.14467 0
M  V30 6644 C 613.565 1.78691 6.43138 0
M  V30 6645 H 612.835 -0.201212 0.713158 0
M  V30 6646 H 615.482 0.189288 1.90562 0
M  V30 6647 H 613.787 -1.94675 3.40013 0
M  V30 6648 H 615.484 -1.64973 3.65493 0
M  V30 6649 H 612.074 -0.355301 4.27125 0
M  V30 6650 H 616.258 0.35211 4.95049 0
M  V30 6651 H 611.514 1.3343 5.96663 0
M  V30 6652 H 615.688 2.03808 6.65909 0
M  V30 6653 H 613.315 2.53522 7.1668 0
M  V30 6654 N 614.89 -1.56749 -0.16351 0
M  V30 6655 C 616.167 -1.73321 -0.906599 0
M  V30 6656 C 616.547 -0.673779 -2.00059 0
M  V30 6657 O 615.895 0.310121 -2.26386 0
M  V30 6658 C 616.105 -3.168 -1.46419 0
M  V30 6659 C 617.453 -3.77993 -1.93407 0
M  V30 6660 O 618.477 -3.20127 -1.56196 0
M  V30 6661 O 617.336 -4.79615 -2.61976 0
M  V30 6662 H 614.43 -0.708073 -0.427272 0
M  V30 6663 H 616.976 -1.69029 -0.150727 0
M  V30 6664 H 615.748 -3.85396 -0.677189 0
M  V30 6665 H 615.371 -3.2545 -2.28403 0
M  V30 6666 N 616.368 0.432326 -1.51554 0
M  V30 6667 C 617.596 1.20364 -1.68286 0
M  V30 6668 C 618.011 1.84888 -0.38233 0
M  V30 6669 O 617.368 1.70924 0.639627 0
M  V30 6670 C 617.419 2.28398 -2.80208 0
M  V30 6671 O 617.14 1.66512 -4.05223 0
M  V30 6672 C 618.641 3.18584 -3.08251 0
M  V30 6673 H 615.861 0.36259 -0.564596 0
M  V30 6674 H 618.405 0.511647 -1.97996 0
M  V30 6675 H 616.56 2.93305 -2.53083 0
M  V30 6676 H 616.974 2.37951 -4.67418 0
M  V30 6677 H 618.448 3.90511 -3.90135 0
M  V30 6678 H 618.925 3.79628 -2.2086 0
M  V30 6679 H 619.531 2.59372 -3.37055 0
M  V30 6680 N 617.846 1.41785 0.688094 0
M  V30 6681 C 619.093 1.41544 1.44816 0
M  V30 6682 C 619.421 0.0271746 1.94481 0
M  V30 6683 O 618.676 -0.962235 1.7041 0
M  V30 6684 C 618.975 2.37532 2.67046 0
M  V30 6685 C 618.641 3.84209 2.35996 0
M  V30 6686 C 617.303 4.24165 2.27239 0
M  V30 6687 C 619.655 4.76785 2.10536 0
M  V30 6688 C 616.983 5.54695 1.91128 0
M  V30 6689 C 619.335 6.07644 1.75931 0
M  V30 6690 C 617.999 6.46613 1.65675 0
M  V30 6691 H 617.269 0.517945 0.529919 0
M  V30 6692 H 619.916 1.74635 0.785797 0
M  V30 6693 H 618.221 1.9772 3.38251 0
M  V30 6694 H 619.918 2.34615 3.25203 0
M  V30 6695 H 616.508 3.52567 2.4371 0
M  V30 6696 H 620.692 4.46714 2.16242 0
M  V30 6697 H 615.948 5.83762 1.81746 0
M  V30 6698 H 620.122 6.78874 1.55252 0
M  V30 6699 H 617.749 7.47668 1.37463 0
M  V30 6700 N 619.324 -0.923095 1.27737 0
M  V30 6701 C 620.549 -1.71054 1.17283 0
M  V30 6702 C 620.974 -1.86208 -0.266153 0
M  V30 6703 O 620.332 -1.36545 -1.1927 0
M  V30 6704 C 620.38 -3.0854 1.86642 0
M  V30 6705 O 619.484 -3.95528 1.16752 0
M  V30 6706 H 618.825 -0.524136 0.407649 0
M  V30 6707 H 621.355 -1.15487 1.6889 0
M  V30 6708 H 621.365 -3.58828 1.94182 0
M  V30 6709 H 620.04 -2.96828 2.91317 0
M  V30 6710 H 618.617 -3.53967 1.17312 0
M  V30 6711 N 620.802 -1.09834 -1.13024 0
M  V30 6712 C 621.752 -0.710899 -2.16634 0
M  V30 6713 C 622.736 0.276836 -1.58501 0
M  V30 6714 O 623.928 0.0865457 -1.76788 0
M  V30 6715 C 621.057 -0.137574 -3.43024 0
M  V30 6716 C 620.143 -1.15198 -4.08155 0
M  V30 6717 N 620.534 -2.34054 -4.48388 0
M  V30 6718 C 618.832 -0.991074 -4.34849 0
M  V30 6719 C 619.533 -2.98616 -4.99203 0
M  V30 6720 N 618.509 -2.26159 -4.94321 0
M  V30 6721 H 622.311 -1.61576 -2.455 0
M  V30 6722 H 619.825 -0.975158 -1.29863 0
M  V30 6723 H 621.822 0.158031 -4.166 0
M  V30 6724 H 620.482 0.762088 -3.1563 0
M  V30 6725 H 621.493 -2.7162 -4.40957 0
M  V30 6726 H 618.17 -0.146448 -4.17243 0
M  V30 6727 H 619.56 -3.99683 -5.40096 0
M  V30 6728 N 622.28 1.30327 -0.886154 0
M  V30 6729 C 623.212 2.27079 -0.311072 0
M  V30 6730 C 624.225 1.53758 0.53502 0
M  V30 6731 O 625.414 1.74947 0.354378 0
M  V30 6732 C 622.514 3.33965 0.576228 0
M  V30 6733 C 621.687 4.36735 -0.241064 0
M  V30 6734 C 620.746 5.23028 0.576916 0
M  V30 6735 O 619.772 5.692 -0.000802231 0
M  V30 6736 N 620.974 5.49016 1.88579 0
M  V30 6737 H 623.739 2.77065 -1.14259 0
M  V30 6738 H 621.3 1.43519 -0.749258 0
M  V30 6739 H 623.292 3.88618 1.12953 0
M  V30 6740 H 621.862 2.839 1.30842 0
M  V30 6741 H 621.082 3.81932 -0.975805 0
M  V30 6742 H 622.37 5.02451 -0.801272 0
M  V30 6743 H 621.768 5.13288 2.37806 0
M  V30 6744 H 620.325 6.06539 2.38651 0
M  V30 6745 N 623.758 0.647228 1.43697 0
M  V30 6746 C 625.174 0.314256 1.56476 0
M  V30 6747 C 625.374 -1.18191 1.63196 0
M  V30 6748 O 624.43 -1.96655 1.58376 0
M  V30 6749 C 625.743 1.02034 2.82859 0
M  V30 6750 C 627.291 1.00002 2.96595 0
M  V30 6751 C 627.766 1.68689 4.25803 0
M  V30 6752 N 629.257 1.65424 4.32654 0
M  V30 6753 C 629.992 2.1545 5.31384 0
M  V30 6754 N 629.488 2.73738 6.36427 0
M  V30 6755 N 631.281 2.05985 5.22998 0
M  V30 6756 H 623.432 1.61821 1.37578 0
M  V30 6757 H 625.695 0.680184 0.660344 0
M  V30 6758 H 625.401 2.07542 2.83935 0
M  V30 6759 H 625.275 0.568146 3.72897 0
M  V30 6760 H 627.662 -0.0466319 2.95063 0
M  V30 6761 H 627.743 1.49086 2.07863 0
M  V30 6762 H 627.387 2.73308 4.28095 0
M  V30 6763 H 627.317 1.17076 5.13421 0
M  V30 6764 H 629.808 1.22884 3.57363 0
M  V30 6765 H 630.121 3.09602 7.08072 0
M  V30 6766 H 628.466 2.77796 6.37067 0
M  V30 6767 H 631.657 1.60157 4.39849 0
M  V30 6768 H 631.83 2.45281 5.99784 0
M  V30 6769 N 625.236 -1.5273 0.388769 0
M  V30 6770 C 626.647 -1.86505 -0.0853788 0
M  V30 6771 C 626.998 -1.30847 -1.46197 0
M  V30 6772 O 626.123 -0.639609 -2.06732 0
M  V30 6773 C 626.718 -3.38414 -0.161703 0
M  V30 6774 C 625.277 -3.71902 -0.580144 0
M  V30 6775 C 624.424 -2.76095 0.258218 0
M  V30 6776 H 627.375 -1.46647 0.606665 0
M  V30 6777 H 627.396 -3.67638 -0.980936 0
M  V30 6778 H 626.908 -3.78893 0.840333 0
M  V30 6779 H 625.009 -3.36992 -1.58957 0
M  V30 6780 H 625.122 -4.77902 -0.338663 0
M  V30 6781 H 623.486 -2.53195 -0.276432 0
M  V30 6782 H 624.269 -3.19411 1.25822 0
M  V30 6783 N 626.714 -0.118576 -1.57153 0
M  V30 6784 C 627.954 0.542618 -1.97066 0
M  V30 6785 C 628.318 1.63874 -1.00046 0
M  V30 6786 O 629.519 2.3588 -1.28895 0
M  V30 6787 C 627.79 1.06196 -3.41258 0
M  V30 6788 S 629.349 1.73174 -4.03183 0
M  V30 6789 H 626.167 0.17638 -0.688775 0
M  V30 6790 H 628.769 -0.203556 -1.94437 0
M  V30 6791 H 627.473 0.253016 -4.09619 0
M  V30 6792 H 627.004 1.84342 -3.47536 0
M  V30 6793 H 629.019 3.01749 -3.93906 0
M  V30 6794 N 628.193 1.56834 0.155195 0
M  V30 6795 C 629.123 2.00678 1.19376 0
M  V30 6796 C 630.104 0.884973 1.45266 0
M  V30 6797 O 631.289 1.1522 1.56326 0
M  V30 6798 C 628.419 2.38042 2.5289 0
M  V30 6799 C 627.373 3.53332 2.41538 0
M  V30 6800 C 626.699 3.76485 3.79688 0
M  V30 6801 C 627.999 4.86265 1.9064 0
M  V30 6802 H 629.693 2.87688 0.829232 0
M  V30 6803 H 627.239 1.38407 0.397445 0
M  V30 6804 H 629.192 2.67314 3.25763 0
M  V30 6805 H 627.916 1.4796 2.91162 0
M  V30 6806 H 626.575 3.24213 1.71117 0
M  V30 6807 H 626.223 2.83667 4.15382 0
M  V30 6808 H 625.923 4.54068 3.72956 0
M  V30 6809 H 627.447 4.08174 4.54122 0
M  V30 6810 H 628.861 5.14308 2.53299 0
M  V30 6811 H 627.258 5.67597 1.94818 0
M  V30 6812 H 628.328 4.77184 0.861596 0
M  V30 6813 N 629.671 -0.424282 1.51781 0
M  V30 6814 C 630.601 -1.52305 1.7699 0
M  V30 6815 C 631.582 -1.5839 0.620209 0
M  V30 6816 O 632.767 -1.73908 0.864268 0
M  V30 6817 C 629.897 -2.90271 1.90683 0
M  V30 6818 C 628.851 -2.99043 3.06198 0
M  V30 6819 C 628.177 -4.39116 3.05092 0
M  V30 6820 C 629.477 -2.7192 4.45934 0
M  V30 6821 H 631.171 -1.31461 2.68995 0
M  V30 6822 H 628.717 -0.630985 1.29439 0
M  V30 6823 H 630.67 -3.6711 2.06901 0
M  V30 6824 H 629.394 -3.12376 0.953365 0
M  V30 6825 H 628.053 -2.24646 2.89706 0
M  V30 6826 H 627.701 -4.58207 2.07498 0
M  V30 6827 H 627.401 -4.45912 3.82669 0
M  V30 6828 H 628.925 -5.17911 3.2342 0
M  V30 6829 H 630.339 -3.38487 4.62709 0
M  V30 6830 H 628.736 -2.90111 5.25315 0
M  V30 6831 H 629.806 -1.67445 4.55072 0
M  V30 6832 N 631.149 -1.42148 -0.680565 0
M  V30 6833 C 632.096 -1.45175 -1.79424 0
M  V30 6834 C 633.066 -0.304352 -1.63288 0
M  V30 6835 O 634.251 -0.507591 -1.83924 0
M  V30 6836 C 631.391 -1.35429 -3.17416 0
M  V30 6837 C 630.504 -2.60158 -3.4488 0
M  V30 6838 C 629.639 -2.42596 -4.72568 0
M  V30 6839 C 628.678 -3.62727 -4.93047 0
M  V30 6840 N 627.815 -3.44143 -6.11973 0
M  V30 6841 H 632.655 -2.40349 -1.76172 0
M  V30 6842 H 630.192 -1.19334 -0.860107 0
M  V30 6843 H 632.15 -1.27777 -3.97151 0
M  V30 6844 H 630.78 -0.438536 -3.19807 0
M  V30 6845 H 629.832 -2.78199 -2.5944 0
M  V30 6846 H 631.144 -3.49473 -3.55908 0
M  V30 6847 H 630.298 -2.32497 -5.60384 0
M  V30 6848 H 629.037 -1.50761 -4.63813 0
M  V30 6849 H 628.042 -3.73264 -4.03676 0
M  V30 6850 H 629.267 -4.55534 -5.03652 0
M  V30 6851 H 627.213 -2.5502 -6.04401 0
M  V30 6852 H 627.13 -4.27041 -6.23836 0
M  V30 6853 H 628.398 -3.37845 -7.02482 0
M  V30 6854 N 632.627 0.916307 -1.28225 0
M  V30 6855 C 633.852 1.7043 -1.18188 0
M  V30 6856 C 634.277 1.86346 0.256274 0
M  V30 6857 O 633.635 1.37175 1.18544 0
M  V30 6858 C 633.683 3.07546 -1.88275 0
M  V30 6859 O 632.787 3.94904 -1.18848 0
M  V30 6860 H 632.128 0.521967 -0.410423 0
M  V30 6861 H 634.658 1.14589 -1.69501 0
M  V30 6862 H 634.668 3.57793 -1.96082 0
M  V30 6863 H 633.343 2.95279 -2.92887 0
M  V30 6864 H 631.92 3.53339 -1.19187 0
M  V30 6865 N 634.105 1.10431 1.1244 0
M  V30 6866 C 635.035 0.775143 2.20258 0
M  V30 6867 C 636.016 -0.25186 1.68225 0
M  V30 6868 O 637.201 -0.117637 1.93843 0
M  V30 6869 C 634.331 0.206133 3.46688 0
M  V30 6870 C 633.285 1.16382 4.11873 0
M  V30 6871 C 632.611 0.456014 5.32752 0
M  V30 6872 C 633.911 2.5104 4.58013 0
M  V30 6873 H 635.605 1.67665 2.4805 0
M  V30 6874 H 633.151 0.807595 1.19222 0
M  V30 6875 H 635.104 -0.036291 4.21384 0
M  V30 6876 H 633.828 -0.730614 3.18323 0
M  V30 6877 H 632.487 1.39169 3.39157 0
M  V30 6878 H 632.135 -0.485203 5.00654 0
M  V30 6879 H 631.835 1.09466 5.77314 0
M  V30 6880 H 633.359 0.222135 6.10196 0
M  V30 6881 H 634.773 2.32401 5.24083 0
M  V30 6882 H 633.17 3.10789 5.13352 0
M  V30 6883 H 634.24 3.11039 3.71998 0
M  V30 6884 N 635.583 -1.29855 0.893053 0
M  V30 6885 C 636.53 -2.27909 0.364161 0
M  V30 6886 C 637.5 -1.56726 -0.550093 0
M  V30 6887 O 638.685 -1.84747 -0.47677 0
M  V30 6888 C 635.825 -3.42678 -0.408178 0
M  V30 6889 C 634.938 -4.28659 0.536212 0
M  V30 6890 C 634.073 -5.30599 -0.252521 0
M  V30 6891 C 633.112 -6.08234 0.686822 0
M  V30 6892 N 632.249 -7.02068 -0.0670902 0
M  V30 6893 H 637.089 -2.72531 1.20544 0
M  V30 6894 H 634.626 -1.34047 0.605779 0
M  V30 6895 H 636.584 -4.07986 -0.871962 0
M  V30 6896 H 635.214 -2.99103 -1.21397 0
M  V30 6897 H 634.266 -3.63584 1.1185 0
M  V30 6898 H 635.578 -4.8274 1.25552 0
M  V30 6899 H 634.732 -6.01694 -0.777801 0
M  V30 6900 H 633.471 -4.77233 -1.005 0
M  V30 6901 H 632.476 -5.3601 1.22366 0
M  V30 6902 H 633.701 -6.63689 1.43852 0
M  V30 6903 H 631.647 -6.5108 -0.801955 0
M  V30 6904 H 631.564 -7.53675 0.59243 0
M  V30 6905 H 632.832 -7.77392 -0.572851 0
M  V30 6906 N 637.061 -0.65484 -1.43351 0
M  V30 6907 C 638.477 -0.32255 -1.56307 0
M  V30 6908 C 638.677 1.17324 -1.63821 0
M  V30 6909 O 637.733 1.95813 -1.59417 0
M  V30 6910 C 639.046 -1.03533 -2.82314 0
M  V30 6911 C 640.594 -1.01574 -2.9606 0
M  V30 6912 C 641.069 -1.70945 -4.24902 0
M  V30 6913 N 642.56 -1.67716 -4.3177 0
M  V30 6914 C 643.295 -2.18265 -5.30234 0
M  V30 6915 N 642.791 -2.7711 -6.34966 0
M  V30 6916 N 644.584 -2.08756 -5.21898 0
M  V30 6917 H 636.735 -1.62549 -1.36717 0
M  V30 6918 H 638.998 -0.683676 -0.656727 0
M  V30 6919 H 638.704 -2.09045 -2.8283 0
M  V30 6920 H 638.578 -0.587913 -3.7259 0
M  V30 6921 H 640.965 0.0309834 -2.95084 0
M  V30 6922 H 641.046 -1.50186 -2.07069 0
M  V30 6923 H 640.69 -2.75574 -4.26639 0
M  V30 6924 H 640.62 -1.19797 -5.12793 0
M  V30 6925 H 643.111 -1.24777 -3.56706 0
M  V30 6926 H 643.424 -3.13353 -7.06421 0
M  V30 6927 H 641.769 -2.81171 -6.35585 0
M  V30 6928 H 644.96 -1.62488 -4.38994 0
M  V30 6929 H 645.133 -2.48459 -5.98475 0
M  V30 6930 N 638.539 1.52521 -0.396863 0
M  V30 6931 C 639.449 2.30403 0.44178 0
M  V30 6932 C 640.465 1.37625 1.06468 0
M  V30 6933 O 641.641 1.70697 1.06886 0
M  V30 6934 C 638.706 3.1013 1.54986 0
M  V30 6935 C 637.767 4.18628 0.951279 0
M  V30 6936 C 637 4.94543 2.00655 0
M  V30 6937 O 637.223 4.70629 3.22281 0
M  V30 6938 O 636.157 5.797 1.61962 0
M  V30 6939 H 639.983 3.03087 -0.192892 0
M  V30 6940 H 637.568 1.48537 -0.16038 0
M  V30 6941 H 639.45 3.59816 2.19341 0
M  V30 6942 H 638.125 2.40251 2.16935 0
M  V30 6943 H 637.032 3.73119 0.270773 0
M  V30 6944 H 638.365 4.90763 0.375887 0
M  V30 6945 N 640.017 0.126909 1.57088 0
M  V30 6946 C 641.265 -0.528123 1.95078 0
M  V30 6947 C 641.586 -1.66708 1.0116 0
M  V30 6948 O 640.856 -1.95777 0.0693527 0
M  V30 6949 H 639.436 -0.198087 0.720257 0
M  V30 6950 H 642.098 0.197703 1.93895 0
M  V30 6951 H 641.194 -0.917507 2.98309 0
M  V30 6952 N 641.495 -1.56914 -0.146875 0
M  V30 6953 C 642.458 -1.97368 -1.16526 0
M  V30 6954 C 643.458 -0.860223 -1.35856 0
M  V30 6955 O 644.648 -1.12684 -1.32846 0
M  V30 6956 C 641.78 -2.28974 -2.52555 0
M  V30 6957 H 642.973 -2.88523 -0.818209 0
M  V30 6958 H 640.526 -1.5135 -0.390221 0
M  V30 6959 H 641.261 -1.40611 -2.92231 0
M  V30 6960 H 641.046 -3.10157 -2.39886 0
M  V30 6961 H 642.536 -2.61109 -3.25902 0
M  V30 6962 N 642.974 0.416227 -1.52004 0
M  V30 6963 C 643.922 1.5272 -1.7544 0
M  V30 6964 C 644.916 1.57596 -0.621289 0
M  V30 6965 O 646.122 1.61087 -0.803172 0
M  V30 6966 H 642.497 0.507772 -0.554682 0
M  V30 6967 H 644.468 1.30136 -2.68528 0
M  V30 6968 C 643.217 2.90165 -1.91571 0
M  V30 6969 H 642.54 2.87154 -2.78178 0
M  V30 6970 H 643.98 3.67211 -2.11972 0
M  V30 6971 C 642.439 3.29947 -0.680942 0
M  V30 6972 O 642.969 4.01403 0.154527 0
M  V30 6973 N 641.175 2.8593 -0.518894 0
M  V30 6974 H 640.722 2.2795 -1.19986 0
M  V30 6975 H 640.68 3.12907 0.305985 0
M  V30 6976 N 644.452 1.42507 0.673017 0
M  V30 6977 C 645.399 1.46124 1.78651 0
M  V30 6978 C 646.369 0.313007 1.63124 0
M  V30 6979 O 647.554 0.517337 1.83653 0
M  V30 6980 C 644.694 1.3711 3.16694 0
M  V30 6981 C 643.807 2.61983 3.43495 0
M  V30 6982 C 642.942 2.45098 4.71275 0
M  V30 6983 C 641.981 3.65336 4.91117 0
M  V30 6984 N 641.118 3.47383 6.10139 0
M  V30 6985 H 645.958 2.4128 1.74895 0
M  V30 6986 H 643.495 1.19788 0.853766 0
M  V30 6987 H 645.453 1.29881 3.96468 0
M  V30 6988 H 644.083 0.45549 3.1957 0
M  V30 6989 H 643.135 2.79571 2.57961 0
M  V30 6990 H 644.447 3.51355 3.5405 0
M  V30 6991 H 643.601 2.35466 5.59143 0
M  V30 6992 H 642.34 1.53219 4.63007 0
M  V30 6993 H 641.345 3.754 4.0169 0
M  V30 6994 H 642.57 4.58199 5.01229 0
M  V30 6995 H 640.516 2.58222 6.0304 0
M  V30 6996 H 640.433 4.30344 6.21563 0
M  V30 6997 H 641.701 3.41565 7.00681 0
M  V30 6998 N 645.93 -0.909495 1.28709 0
M  V30 6999 C 646.86 -2.0291 1.15542 0
M  V30 7000 C 647.841 -1.7002 0.0521017 0
M  V30 7001 O 649.026 -1.92835 0.229849 0
M  V30 7002 C 646.156 -3.37458 0.820935 0
M  V30 7003 C 645.11 -3.84524 1.87949 0
M  V30 7004 C 644.436 -5.16086 1.39854 0
M  V30 7005 C 645.736 -4.05918 3.28676 0
M  V30 7006 H 647.43 -2.14183 2.09203 0
M  V30 7007 H 644.976 -1.02913 1.00722 0
M  V30 7008 H 646.929 -4.1528 0.715571 0
M  V30 7009 H 645.653 -3.26249 -0.151374 0
M  V30 7010 H 644.312 -3.08911 1.97408 0
M  V30 7011 H 643.96 -5.01284 0.41518 0
M  V30 7012 H 643.66 -5.48547 2.1064 0
M  V30 7013 H 645.184 -5.96459 1.30649 0
M  V30 7014 H 646.598 -4.74252 3.22115 0
M  V30 7015 H 644.995 -4.49717 3.97334 0
M  V30 7016 H 646.065 -3.10583 3.72379 0
M  V30 7017 N 647.408 -1.11026 -1.11852 0
M  V30 7018 C 648.824 -0.843294 -1.35502 0
M  V30 7019 C 649.024 0.534179 -1.9429 0
M  V30 7020 O 648.08 1.28585 -2.17307 0
M  V30 7021 C 649.393 -1.94793 -2.29077 0
M  V30 7022 C 650.941 -1.97709 -2.42652 0
M  V30 7023 C 651.416 -3.07364 -3.39546 0
M  V30 7024 N 652.907 -3.0671 -3.47107 0
M  V30 7025 C 653.642 -3.88197 -4.22008 0
M  V30 7026 N 653.138 -4.79635 -4.99922 0
M  V30 7027 N 654.931 -3.76391 -4.17476 0
M  V30 7028 H 647.082 -1.99805 -0.720538 0
M  V30 7029 H 649.345 -0.868633 -0.379711 0
M  V30 7030 H 649.051 -2.93971 -1.93065 0
M  V30 7031 H 648.925 -1.84039 -3.29256 0
M  V30 7032 H 651.312 -0.991604 -2.77941 0
M  V30 7033 H 651.393 -2.1254 -1.4234 0
M  V30 7034 H 651.037 -4.06136 -3.04985 0
M  V30 7035 H 650.967 -2.89774 -4.39703 0
M  V30 7036 H 653.458 -2.40457 -2.91528 0
M  V30 7037 H 653.771 -5.38357 -5.54429 0
M  V30 7038 H 652.116 -4.8366 -4.99097 0
M  V30 7039 H 655.307 -3.04303 -3.55693 0
M  V30 7040 H 655.48 -4.40131 -4.75593 0
M  V30 7041 N 648.886 1.2938 -0.899927 0
M  V30 7042 C 650.116 1.99402 -0.540601 0
M  V30 7043 C 650.524 1.67534 0.87914 0
M  V30 7044 O 649.867 0.916821 1.59186 0
M  V30 7045 C 649.929 3.53514 -0.653326 0
M  V30 7046 C 649.593 4.08937 -2.04009 0
M  V30 7047 C 650.59 4.23815 -3.01126 0
M  V30 7048 C 648.275 4.43962 -2.34953 0
M  V30 7049 C 650.269 4.72951 -4.27313 0
M  V30 7050 C 647.956 4.92795 -3.61382 0
M  V30 7051 C 648.954 5.07244 -4.57376 0
M  V30 7052 O 648.642 5.55017 -5.8156 0
M  V30 7053 H 648.374 0.64383 -0.206057 0
M  V30 7054 H 650.928 1.65878 -1.21134 0
M  V30 7055 H 649.158 3.86628 0.0744449 0
M  V30 7056 H 650.847 4.04767 -0.303118 0
M  V30 7057 H 651.613 3.97043 -2.78535 0
M  V30 7058 H 647.492 4.31974 -1.60994 0
M  V30 7059 H 651.036 4.84144 -5.02245 0
M  V30 7060 H 646.933 5.19004 -3.83804 0
M  V30 7061 H 647.701 5.73331 -5.84153 0
M  V30 7062 N 650.364 0.662433 1.43002 0
M  V30 7063 C 651.775 0.258315 1.84904 0
M  V30 7064 C 652.126 -1.19703 1.55453 0
M  V30 7065 O 651.251 -1.91484 1.00811 0
M  V30 7066 C 651.846 0.462047 3.35635 0
M  V30 7067 C 650.405 0.112165 3.76233 0
M  V30 7068 C 649.552 0.760479 2.66668 0
M  V30 7069 H 652.503 0.865467 1.33024 0
M  V30 7070 H 652.524 -0.289646 3.79396 0
M  V30 7071 H 652.036 1.52135 3.57039 0
M  V30 7072 H 650.137 -0.944179 3.60439 0
M  V30 7073 H 650.25 0.544058 4.76001 0
M  V30 7074 H 648.614 0.192887 2.53969 0
M  V30 7075 H 649.397 1.82299 2.90898 0
M  V30 7076 N 651.842 -1.52309 0.404946 0
M  V30 7077 C 653.253 -1.86585 -0.0655926 0
M  V30 7078 C 653.604 -1.3239 -1.44801 0
M  V30 7079 O 652.729 -0.6615 -2.06042 0
M  V30 7080 C 653.324 -3.38566 -0.125801 0
M  V30 7081 C 651.883 -3.72497 -0.540666 0
M  V30 7082 C 651.03 -2.75806 0.287487 0
M  V30 7083 H 653.981 -1.45995 0.622185 0
M  V30 7084 H 654.002 -3.68658 -0.941888 0
M  V30 7085 H 653.514 -3.77981 0.880473 0
M  V30 7086 H 651.615 -3.38659 -1.55373 0
M  V30 7087 H 651.728 -4.78234 -0.287956 0
M  V30 7088 H 650.092 -2.53474 -0.249561 0
M  V30 7089 H 650.875 -3.18059 1.29203 0
M  V30 7090 N 653.32 -0.135238 -1.57019 0
M  V30 7091 C 654.268 0.826099 -2.17436 0
M  V30 7092 C 655.262 1.26378 -1.12805 0
M  V30 7093 O 656.468 1.23363 -1.31079 0
M  V30 7094 H 652.843 0.284568 -0.696078 0
M  V30 7095 H 654.814 0.292212 -2.96966 0
M  V30 7096 C 653.563 2.05991 -2.80112 0
M  V30 7097 H 652.886 1.73209 -3.60331 0
M  V30 7098 H 654.326 2.71225 -3.25903 0
M  V30 7099 C 652.785 2.86027 -1.78017 0
M  V30 7100 O 653.315 3.81971 -1.24344 0
M  V30 7101 N 651.521 2.50332 -1.47588 0
M  V30 7102 H 651.068 1.72377 -1.91426 0
M  V30 7103 H 651.026 3.04177 -0.795228 0
M  V30 7104 N 654.798 1.5699 0.138552 0
M  V30 7105 C 656.023 1.88344 0.86841 0
M  V30 7106 C 656.448 0.725159 1.7356 0
M  V30 7107 O 655.806 -0.324992 1.78363 0
M  V30 7108 C 655.854 3.18334 1.69398 0
M  V30 7109 O 654.958 3.02863 2.79907 0
M  V30 7110 H 654.299 0.618577 0.241367 0
M  V30 7111 H 656.829 2.04207 0.126826 0
M  V30 7112 H 656.839 3.50567 2.08726 0
M  V30 7113 H 655.514 4.02238 1.05725 0
M  V30 7114 H 654.091 2.82056 2.43924 0
M  V30 7115 N 656.276 -0.40816 1.52223 0
M  V30 7116 C 657.208 -1.51642 1.71864 0
M  V30 7117 C 658.221 -1.51378 0.599056 0
M  V30 7118 O 659.41 -1.55626 0.874239 0
M  V30 7119 C 656.51 -2.90534 1.74481 0
M  V30 7120 C 655.683 -3.14979 3.03491 0
M  V30 7121 C 654.742 -4.33749 2.97907 0
M  V30 7122 O 653.768 -4.30982 3.71811 0
M  V30 7123 N 654.97 -5.38912 2.15764 0
M  V30 7124 H 657.735 -1.35188 2.67478 0
M  V30 7125 H 655.296 -0.597468 1.50472 0
M  V30 7126 H 657.288 -3.68056 1.68275 0
M  V30 7127 H 655.858 -3.00441 0.863363 0
M  V30 7128 H 655.078 -2.25492 3.23337 0
M  V30 7129 H 656.366 -3.28156 3.88833 0
M  V30 7130 H 655.764 -5.44008 1.55152 0
M  V30 7131 H 654.321 -6.15174 2.15415 0
M  V30 7132 N 657.755 -1.42862 -0.66545 0
M  V30 7133 C 658.98 -1.47456 -1.45848 0
M  V30 7134 C 659.405 -0.0900312 -1.87884 0
M  V30 7135 O 658.763 0.913587 -1.56599 0
M  V30 7136 C 658.811 -2.41514 -2.67774 0
M  V30 7137 O 657.915 -1.89296 -3.66389 0
M  V30 7138 H 657.256 -0.499236 -0.437789 0
M  V30 7139 H 659.786 -1.8765 -0.815394 0
M  V30 7140 H 659.796 -2.58409 -3.15735 0
M  V30 7141 H 658.471 -3.42099 -2.36519 0
M  V30 7142 H 657.048 -1.82003 -3.25468 0
M  V30 7143 N 659.233 0.902656 -1.29189 0
M  V30 7144 C 660.18 2.00643 -1.14066 0
M  V30 7145 C 661.15 1.66064 -0.0347756 0
M  V30 7146 O 662.335 1.8973 -0.201752 0
M  V30 7147 C 659.475 3.35214 -0.820104 0
M  V30 7148 C 658.588 3.82594 -2.00614 0
M  V30 7149 C 657.723 5.05727 -1.62522 0
M  V30 7150 C 656.762 5.45469 -2.77724 0
M  V30 7151 N 655.899 6.59789 -2.40048 0
M  V30 7152 H 660.739 2.1291 -2.08502 0
M  V30 7153 H 658.276 1.04271 -1.03759 0
M  V30 7154 H 660.234 4.12643 -0.614949 0
M  V30 7155 H 658.864 3.22682 0.0873452 0
M  V30 7156 H 657.916 3.01226 -2.32308 0
M  V30 7157 H 659.228 4.07999 -2.86946 0
M  V30 7158 H 658.382 5.90732 -1.38277 0
M  V30 7159 H 657.121 4.82155 -0.733333 0
M  V30 7160 H 656.126 4.59 -3.02653 0
M  V30 7161 H 657.351 5.71024 -3.67572 0
M  V30 7162 H 655.297 6.37826 -1.53343 0
M  V30 7163 H 655.214 6.84975 -3.19914 0
M  V30 7164 H 656.482 7.4807 -2.19116 0
M  V30 7165 N 660.711 1.11618 1.11262 0
M  V30 7166 C 661.957 0.867463 1.83311 0
M  V30 7167 C 662.29 -0.605366 1.84524 0
M  V30 7168 O 661.565 -1.44704 1.29965 0
M  V30 7169 C 661.848 1.43207 3.30399 0
M  V30 7170 C 661.701 2.97265 3.3757 0
M  V30 7171 C 663.02 1.08454 4.26528 0
M  V30 7172 H 660.139 0.316578 0.665543 0
M  V30 7173 H 662.781 1.38137 1.30454 0
M  V30 7174 H 660.931 0.994982 3.75543 0
M  V30 7175 H 662.603 3.49591 3.00971 0
M  V30 7176 H 660.846 3.33237 2.77733 0
M  V30 7177 H 661.517 3.31859 4.41105 0
M  V30 7178 H 663.993 1.4619 3.89574 0
M  V30 7179 H 662.869 1.50633 5.27826 0
M  V30 7180 H 663.13 -0.00444568 4.421 0
M  V30 7181 N 662.189 -1.289 0.906776 0
M  V30 7182 C 663.466 -1.90221 0.455537 0
M  V30 7183 C 663.846 -1.82251 -1.06527 0
M  V30 7184 O 663.194 -1.25385 -1.91026 0
M  V30 7185 C 663.404 -3.35015 0.97806 0
M  V30 7186 C 664.752 -4.12018 1.02598 0
M  V30 7187 O 665.776 -3.43947 0.926218 0
M  V30 7188 O 664.635 -5.33677 1.17689 0
M  V30 7189 H 661.729 -0.814505 0.143214 0
M  V30 7190 H 664.275 -1.37317 0.997104 0
M  V30 7191 H 663.047 -3.35006 2.02204 0
M  V30 7192 H 662.67 -3.95408 0.416914 0
M  V30 7193 N 663.667 -0.670007 -1.42649 0
M  V30 7194 C 664.913 -0.19923 -2.02422 0
M  V30 7195 C 665.268 1.17947 -1.52007 0
M  V30 7196 O 664.561 1.77939 -0.710512 0
M  V30 7197 C 664.755 -0.168298 -3.57004 0
M  V30 7198 C 664.584 -1.54246 -4.22419 0
M  V30 7199 C 663.354 -2.13904 -4.57792 0
M  V30 7200 C 665.552 -2.4842 -4.50324 0
M  V30 7201 N 663.534 -3.44151 -5.08364 0
M  V30 7202 C 664.905 -3.63317 -5.02395 0
M  V30 7203 C 666.96 -2.47011 -4.32308 0
M  V30 7204 C 665.663 -4.77051 -5.38345 0
M  V30 7205 C 667.689 -3.59838 -4.6933 0
M  V30 7206 C 667.051 -4.73462 -5.21549 0
M  V30 7207 H 663.15 -0.117717 -0.773089 0
M  V30 7208 H 665.734 -0.881955 -1.73579 0
M  V30 7209 H 663.905 0.483824 -3.85375 0
M  V30 7210 H 665.637 0.314914 -4.03473 0
M  V30 7211 H 662.392 -1.66441 -4.4339 0
M  V30 7212 H 662.816 -4.10846 -5.38084 0
M  V30 7213 H 667.458 -1.60394 -3.91195 0
M  V30 7214 H 665.176 -5.64347 -5.78393 0
M  V30 7215 H 668.762 -3.59969 -4.57071 0
M  V30 7216 H 667.642 -5.59321 -5.49663 0
M  V30 7217 N 665.145 1.52092 -0.413018 0
M  V30 7218 C 666.393 2.01456 0.161178 0
M  V30 7219 C 666.714 1.30034 1.45314 0
M  V30 7220 O 665.984 0.427435 1.9118 0
M  V30 7221 H 664.564 0.744376 0.0625526 0
M  V30 7222 H 667.226 1.86974 -0.550151 0
M  V30 7223 H 666.322 3.1008 0.354517 0
M  V30 7224 N 666.623 0.143563 1.56945 0
M  V30 7225 C 667.57 -0.797433 2.16586 0
M  V30 7226 C 668.54 -1.24654 1.09775 0
M  V30 7227 O 669.725 -1.31968 1.37801 0
M  V30 7228 C 666.865 -2.03253 2.78895 0
M  V30 7229 C 665.978 -1.62954 4.00087 0
M  V30 7230 C 665.113 -2.81617 4.50406 0
M  V30 7231 C 664.152 -2.37675 5.64072 0
M  V30 7232 N 663.289 -3.49335 6.09023 0
M  V30 7233 H 668.129 -0.282023 2.96662 0
M  V30 7234 H 665.666 -0.127494 1.46546 0
M  V30 7235 H 667.624 -2.75653 3.13163 0
M  V30 7236 H 666.254 -2.52211 2.01469 0
M  V30 7237 H 665.306 -0.803322 3.71821 0
M  V30 7238 H 666.618 -1.26679 4.82446 0
M  V30 7239 H 665.772 -3.62212 4.86711 0
M  V30 7240 H 664.511 -3.21134 3.67048 0
M  V30 7241 H 663.516 -1.55519 5.27346 0
M  V30 7242 H 664.741 -1.99247 6.49213 0
M  V30 7243 H 662.687 -3.8848 5.28601 0
M  V30 7244 H 662.604 -3.17064 6.86299 0
M  V30 7245 H 663.872 -4.30297 6.49973 0
M  V30 7246 N 668.101 -1.57061 -0.130224 0
M  V30 7247 C 669.348 -1.84257 -0.839972 0
M  V30 7248 C 669.676 -0.726986 -1.80403 0
M  V30 7249 O 668.931 0.282632 -1.93648 0
M  V30 7250 C 669.23 -3.17878 -1.63365 0
M  V30 7251 C 668.896 -4.43475 -0.814891 0
M  V30 7252 C 667.558 -4.77581 -0.589066 0
M  V30 7253 C 669.91 -5.20631 -0.243437 0
M  V30 7254 C 667.238 -5.86292 0.218648 0
M  V30 7255 C 669.59 -6.30192 0.551408 0
M  V30 7256 C 668.254 -6.62837 0.787653 0
M  V30 7257 H 667.524 -0.674245 -0.307367 0
M  V30 7258 H 670.171 -1.91224 -0.102832 0
M  V30 7259 H 668.476 -3.06437 -2.44138 0
M  V30 7260 H 670.173 -3.3614 -2.18658 0
M  V30 7261 H 666.763 -4.16747 -1.00098 0
M  V30 7262 H 670.947 -4.94644 -0.405145 0
M  V30 7263 H 666.203 -6.10017 0.411016 0
M  V30 7264 H 670.377 -6.89165 1.00126 0
M  V30 7265 H 668.004 -7.46908 1.41537 0
M  V30 7266 N 669.579 0.400081 -1.52437 0
M  V30 7267 C 670.826 1.14619 -1.6694 0
M  V30 7268 C 671.154 1.90262 -0.403797 0
M  V30 7269 O 670.409 1.85835 0.61351 0
M  V30 7270 C 670.708 2.15914 -2.84808 0
M  V30 7271 C 670.374 1.57011 -4.2268 0
M  V30 7272 C 669.036 1.40672 -4.60179 0
M  V30 7273 C 671.388 1.14081 -5.08562 0
M  V30 7274 C 668.716 0.799335 -5.81229 0
M  V30 7275 C 671.068 0.547573 -6.30226 0
M  V30 7276 C 669.732 0.371389 -6.66466 0
M  V30 7277 H 669.002 0.419419 -0.610875 0
M  V30 7278 H 671.649 0.432227 -1.86558 0
M  V30 7279 H 669.954 2.93488 -2.59561 0
M  V30 7280 H 671.651 2.73533 -2.93225 0
M  V30 7281 H 668.241 1.70713 -3.93135 0
M  V30 7282 H 672.425 1.2551 -4.80168 0
M  V30 7283 H 667.681 0.65093 -6.07925 0
M  V30 7284 H 671.855 0.206575 -6.96094 0
M  V30 7285 H 669.482 -0.10135 -7.60132 0
M  V30 7286 N 671.057 1.43213 0.657864 0
M  V30 7287 C 671.987 1.50815 1.78262 0
M  V30 7288 C 672.968 0.363211 1.66177 0
M  V30 7289 O 674.153 0.579806 1.85343 0
M  V30 7290 C 671.283 1.42625 3.16663 0
M  V30 7291 C 670.237 2.5532 3.43505 0
M  V30 7292 C 669.563 2.32184 4.81658 0
M  V30 7293 C 670.863 3.97583 3.38711 0
M  V30 7294 H 672.557 2.44954 1.72157 0
M  V30 7295 H 670.103 1.17896 0.82683 0
M  V30 7296 H 672.056 1.46548 3.95097 0
M  V30 7297 H 670.78 0.449877 3.23487 0
M  V30 7298 H 669.439 2.50742 2.6744 0
M  V30 7299 H 669.087 1.32801 4.85153 0
M  V30 7300 H 668.787 3.07724 5.00579 0
M  V30 7301 H 670.311 2.37883 5.62356 0
M  V30 7302 H 671.725 4.03673 4.07089 0
M  V30 7303 H 670.122 4.73112 3.69168 0
M  V30 7304 H 671.192 4.23049 2.36976 0
M  V30 7305 N 672.536 -0.895792 1.29666 0
M  V30 7306 C 673.466 -2.01673 1.17688 0
M  V30 7307 C 674.447 -1.69955 0.0701317 0
M  V30 7308 O 675.632 -1.9258 0.250289 0
M  V30 7309 C 672.762 -3.36568 0.856681 0
M  V30 7310 C 671.716 -3.82509 1.92017 0
M  V30 7311 C 671.042 -5.14574 1.4532 0
M  V30 7312 C 672.342 -4.02409 3.32963 0
M  V30 7313 H 674.036 -2.11953 2.11463 0
M  V30 7314 H 671.582 -1.01839 1.01807 0
M  V30 7315 H 673.535 -4.14498 0.759577 0
M  V30 7316 H 672.259 -3.26391 -0.116763 0
M  V30 7317 H 670.918 -3.068 2.00673 0
M  V30 7318 H 670.566 -5.00815 0.468325 0
M  V30 7319 H 670.266 -5.46283 2.16447 0
M  V30 7320 H 671.79 -5.9504 1.36968 0
M  V30 7321 H 673.204 -4.70808 3.27127 0
M  V30 7322 H 671.601 -4.45478 4.02082 0
M  V30 7323 H 672.671 -3.06616 3.75652 0
M  V30 7324 N 674.014 -1.12206 -1.10668 0
M  V30 7325 C 674.961 -0.787716 -2.16942 0
M  V30 7326 C 675.931 0.244442 -1.64291 0
M  V30 7327 O 677.116 0.119558 -1.90425 0
M  V30 7328 C 674.256 -0.24584 -3.44223 0
M  V30 7329 C 673.369 -1.33552 -4.10838 0
M  V30 7330 C 672.504 -0.753337 -5.25831 0
M  V30 7331 C 671.543 -1.82231 -5.84344 0
M  V30 7332 N 670.68 -1.25902 -6.90719 0
M  V30 7333 H 675.52 -1.69809 -2.44885 0
M  V30 7334 H 673.057 -0.847862 -1.20207 0
M  V30 7335 H 675.015 0.0863639 -4.17111 0
M  V30 7336 H 673.645 0.627702 -3.16638 0
M  V30 7337 H 672.697 -1.78454 -3.35944 0
M  V30 7338 H 674.009 -2.14396 -4.50373 0
M  V30 7339 H 673.163 -0.37166 -6.05561 0
M  V30 7340 H 671.902 0.0863297 -4.87624 0
M  V30 7341 H 670.907 -2.2132 -5.03287 0
M  V30 7342 H 672.132 -2.66515 -6.24617 0
M  V30 7343 H 670.078 -0.44114 -6.54515 0
M  V30 7344 H 669.995 -2.00408 -7.28953 0
M  V30 7345 H 671.263 -0.904498 -7.74235 0
M  V30 7346 N 675.492 1.28418 -0.913599 0
M  V30 7347 C 676.908 1.47411 -0.611728 0
M  V30 7348 C 677.108 1.83018 0.843008 0
M  V30 7349 O 676.164 1.93505 1.6221 0
M  V30 7350 C 677.477 2.57703 -1.5495 0
M  V30 7351 C 679.025 2.71572 -1.5562 0
M  V30 7352 C 679.5 3.85008 -2.48058 0
M  V30 7353 N 680.991 3.92361 -2.46184 0
M  V30 7354 C 681.726 4.79516 -3.14407 0
M  V30 7355 N 681.222 5.71262 -3.91958 0
M  V30 7356 N 683.015 4.73125 -3.03495 0
M  V30 7357 H 675.166 1.03585 -1.85429 0
M  V30 7358 H 677.429 0.515907 -0.795326 0
M  V30 7359 H 677.135 2.38298 -2.58663 0
M  V30 7360 H 677.009 3.54801 -1.28048 0
M  V30 7361 H 679.396 2.90366 -0.526441 0
M  V30 7362 H 679.477 1.75006 -1.86565 0
M  V30 7363 H 679.121 3.66969 -3.51136 0
M  V30 7364 H 679.051 4.80971 -2.14416 0
M  V30 7365 H 681.542 3.26749 -1.89851 0
M  V30 7366 H 681.855 6.34593 -4.41034 0
M  V30 7367 H 680.2 5.71103 -3.96063 0
M  V30 7368 H 683.391 4.00442 -2.42413 0
M  V30 7369 H 683.564 5.40834 -3.56935 0
M  V30 7370 N 676.97 0.677563 1.42291 0
M  V30 7371 C 678.217 0.200975 2.015 0
M  V30 7372 C 678.545 -1.19342 1.53583 0
M  V30 7373 O 677.8 -1.81579 0.7299 0
M  V30 7374 C 678.099 0.187229 3.56909 0
M  V30 7375 C 677.765 1.52667 4.24268 0
M  V30 7376 C 676.427 1.89341 4.42384 0
M  V30 7377 C 678.779 2.40869 4.62203 0
M  V30 7378 C 676.107 3.13836 4.95705 0
M  V30 7379 C 678.459 3.64679 5.16906 0
M  V30 7380 C 677.123 4.01519 5.33234 0
M  V30 7381 H 676.393 0.0735418 0.737342 0
M  V30 7382 H 679.04 0.873095 1.70439 0
M  V30 7383 H 677.345 -0.568407 3.87655 0
M  V30 7384 H 679.042 -0.198773 4.00507 0
M  V30 7385 H 675.632 1.23138 4.1053 0
M  V30 7386 H 679.816 2.1382 4.47878 0
M  V30 7387 H 675.072 3.42396 5.06532 0
M  V30 7388 H 679.246 4.33224 5.45243 0
M  V30 7389 H 676.873 4.98062 5.74316 0
M  V30 7390 N 678.448 -1.51871 0.421078 0
M  V30 7391 C 679.396 -2.28903 -0.413066 0
M  V30 7392 C 680.39 -1.3408 -1.03532 0
M  V30 7393 O 681.596 -1.5149 -0.972146 0
M  V30 7394 H 677.971 -0.736478 -0.152003 0
M  V30 7395 H 679.942 -2.97285 0.257695 0
M  V30 7396 C 678.691 -3.13156 -1.51091 0
M  V30 7397 H 678.014 -3.85997 -1.04145 0
M  V30 7398 H 679.454 -3.7014 -2.06814 0
M  V30 7399 C 677.913 -2.27482 -2.48503 0
M  V30 7400 O 678.443 -1.92325 -3.52667 0
M  V30 7401 N 676.649 -1.91019 -2.18998 0
M  V30 7402 H 676.196 -2.19808 -1.34322 0
M  V30 7403 H 676.154 -1.3399 -2.84419 0
M  V30 7404 N 679.926 -0.151884 -1.56866 0
M  V30 7405 C 680.873 0.785936 -2.17006 0
M  V30 7406 C 681.843 1.2407 -1.10435 0
M  V30 7407 O 683.028 1.31235 -1.38499 0
M  V30 7408 C 680.168 2.01771 -2.79969 0
M  V30 7409 C 679.281 1.6083 -4.00946 0
M  V30 7410 C 678.416 2.79224 -4.51893 0
M  V30 7411 C 677.455 2.3468 -5.65324 0
M  V30 7412 N 676.592 3.461 -6.10867 0
M  V30 7413 H 681.432 0.266286 -2.96808 0
M  V30 7414 H 678.969 0.11972 -1.46612 0
M  V30 7415 H 680.927 2.73989 -3.14621 0
M  V30 7416 H 679.557 2.51139 -2.02803 0
M  V30 7417 H 678.609 0.783592 -3.72242 0
M  V30 7418 H 679.921 1.24119 -4.83111 0
M  V30 7419 H 679.075 3.59625 -4.88625 0
M  V30 7420 H 677.814 3.19183 -3.68746 0
M  V30 7421 H 676.819 1.52721 -5.28163 0
M  V30 7422 H 678.044 1.95801 -6.5026 0
M  V30 7423 H 675.99 3.85671 -5.30654 0
M  V30 7424 H 675.907 3.1342 -6.87971 0
M  V30 7425 H 677.175 4.26844 -6.52246 0
M  V30 7426 N 681.404 1.57128 0.121893 0
M  V30 7427 C 682.314 2.03425 1.16857 0
M  V30 7428 C 683.33 0.954108 1.45509 0
M  V30 7429 O 684.506 1.26541 1.56682 0
M  V30 7430 C 681.571 2.42685 2.47599 0
M  V30 7431 C 680.632 3.64767 2.2637 0
M  V30 7432 C 679.865 4.02145 3.50878 0
M  V30 7433 O 680.088 3.39897 4.58068 0
M  V30 7434 O 679.022 4.95262 3.42051 0
M  V30 7435 H 682.848 2.92825 0.80544 0
M  V30 7436 H 680.433 1.45654 0.332477 0
M  V30 7437 H 682.315 2.68684 3.24634 0
M  V30 7438 H 680.99 1.56432 2.83392 0
M  V30 7439 H 679.897 3.43922 1.47203 0
M  V30 7440 H 681.23 4.51716 1.95482 0
M  V30 7441 N 682.882 -0.391992 1.52647 0
M  V30 7442 C 683.829 -1.47866 1.77213 0
M  V30 7443 C 684.799 -1.54286 0.615223 0
M  V30 7444 O 685.984 -1.7059 0.854622 0
M  V30 7445 C 683.124 -2.85129 1.94411 0
M  V30 7446 C 682.237 -2.87883 3.22098 0
M  V30 7447 C 681.372 -4.16553 3.29631 0
M  V30 7448 C 680.411 -4.13348 4.51453 0
M  V30 7449 N 679.548 -5.33619 4.56284 0
M  V30 7450 H 684.388 -1.26219 2.6995 0
M  V30 7451 H 681.925 -0.612367 1.33748 0
M  V30 7452 H 683.883 -3.64833 2.02367 0
M  V30 7453 H 682.513 -3.05232 1.05038 0
M  V30 7454 H 681.565 -2.00567 3.23229 0
M  V30 7455 H 682.877 -2.81382 4.11856 0
M  V30 7456 H 682.031 -5.0466 3.36753 0
M  V30 7457 H 680.77 -4.25773 2.37842 0
M  V30 7458 H 679.775 -3.23629 4.44459 0
M  V30 7459 H 681 -4.05754 5.44555 0
M  V30 7460 H 678.946 -5.43474 3.67385 0
M  V30 7461 H 678.863 -5.29182 5.3991 0
M  V30 7462 H 680.131 -6.23632 4.67657 0
M  V30 7463 N 684.36 -1.4356 -0.65026 0
M  V30 7464 C 685.29 -1.51758 -1.77459 0
M  V30 7465 C 686.271 -0.372019 -1.65982 0
M  V30 7466 O 687.456 -0.589627 -1.85033 0
M  V30 7467 C 684.586 -1.44302 -3.15902 0
M  V30 7468 C 683.54 -2.57138 -3.42146 0
M  V30 7469 C 682.866 -2.34735 -4.8042 0
M  V30 7470 C 684.166 -3.99373 -3.36598 0
M  V30 7471 H 685.86 -2.45863 -1.70855 0
M  V30 7472 H 683.406 -1.18333 -0.820566 0
M  V30 7473 H 685.359 -1.48641 -3.94314 0
M  V30 7474 H 684.083 -0.467026 -3.23244 0
M  V30 7475 H 682.742 -2.52157 -2.66106 0
M  V30 7476 H 682.39 -1.35372 -4.84441 0
M  V30 7477 H 682.09 -3.10375 -4.9894 0
M  V30 7478 H 683.614 -2.40862 -5.61086 0
M  V30 7479 H 685.028 -4.05826 -4.04942 0
M  V30 7480 H 683.425 -4.75063 -3.66654 0
M  V30 7481 H 684.495 -4.243 -2.34729 0
M  V30 7482 N 685.838 0.888903 -1.30139 0
M  V30 7483 C 687.086 1.63713 -1.18501 0
M  V30 7484 C 687.407 1.9324 0.261399 0
M  V30 7485 O 686.677 1.56608 1.17689 0
M  V30 7486 H 685.257 0.606861 -0.435579 0
M  V30 7487 H 687.919 1.06525 -1.63213 0
M  V30 7488 H 687.015 2.58894 -1.743 0
M  V30 7489 N 687.317 1.12792 1.10072 0
M  V30 7490 C 688.247 0.821688 2.18565 0
M  V30 7491 C 689.228 -0.21612 1.68721 0
M  V30 7492 O 690.413 -0.0764932 1.94049 0
M  V30 7493 C 687.543 0.279624 3.46172 0
M  V30 7494 C 686.497 1.25092 4.09312 0
M  V30 7495 C 685.823 0.568916 5.31665 0
M  V30 7496 C 687.123 2.60699 4.52585 0
M  V30 7497 H 688.817 1.72888 2.44438 0
M  V30 7498 H 686.363 0.832702 1.17482 0
M  V30 7499 H 688.316 0.053099 4.21367 0
M  V30 7500 H 687.04 -0.662929 3.19801 0
M  V30 7501 H 685.699 1.46332 3.36129 0
M  V30 7502 H 685.347 -0.378898 5.01571 0
M  V30 7503 H 685.047 1.21687 5.74862 0
M  V30 7504 H 686.571 0.351517 6.09587 0
M  V30 7505 H 687.985 2.43465 5.19035 0
M  V30 7506 H 686.382 3.21608 5.06644 0
M  V30 7507 H 687.452 3.1886 3.65317 0
M  V30 7508 N 688.795 -1.27931 0.920396 0
M  V30 7509 C 689.725 -2.29487 0.431024 0
M  V30 7510 C 690.706 -1.62435 -0.504861 0
M  V30 7511 O 691.891 -1.89797 -0.411176 0
M  V30 7512 C 689.021 -3.45788 -0.323709 0
M  V30 7513 C 687.975 -4.24784 0.523658 0
M  V30 7514 C 687.301 -5.33488 -0.359809 0
M  V30 7515 C 688.601 -4.90874 1.78437 0
M  V30 7516 H 690.295 -2.70671 1.27975 0
M  V30 7517 H 687.841 -1.30121 0.616813 0
M  V30 7518 H 689.794 -4.15927 -0.676952 0
M  V30 7519 H 688.518 -3.03502 -1.2064 0
M  V30 7520 H 687.177 -3.56382 0.85951 0
M  V30 7521 H 686.825 -4.87445 -1.24124 0
M  V30 7522 H 686.525 -5.87247 0.203605 0
M  V30 7523 H 688.049 -6.06472 -0.708787 0
M  V30 7524 H 689.463 -5.53339 1.49963 0
M  V30 7525 H 687.86 -5.54659 2.29071 0
M  V30 7526 H 688.93 -4.14988 2.50824 0
M  V30 7527 N 690.273 -0.685099 -1.4193 0
M  V30 7528 C 691.203 -0.0273506 -2.33484 0
M  V30 7529 C 692.184 0.778366 -1.51246 0
M  V30 7530 O 693.369 0.733449 -1.79817 0
M  V30 7531 C 690.499 0.917272 -3.34968 0
M  V30 7532 C 689.453 0.21941 -4.27437 0
M  V30 7533 C 688.779 1.27768 -5.1921 0
M  V30 7534 C 690.079 -0.907894 -5.14349 0
M  V30 7535 H 691.773 -0.791994 -2.88735 0
M  V30 7536 H 689.319 -0.382308 -1.38832 0
M  V30 7537 H 691.272 1.38657 -3.97935 0
M  V30 7538 H 689.996 1.71346 -2.78043 0
M  V30 7539 H 688.655 -0.229757 -3.65879 0
M  V30 7540 H 688.303 2.06612 -4.58607 0
M  V30 7541 H 688.003 0.815803 -5.81909 0
M  V30 7542 H 689.527 1.7477 -5.85054 0
M  V30 7543 H 690.941 -0.519348 -5.70943 0
M  V30 7544 H 689.338 -1.2962 -5.85934 0
M  V30 7545 H 690.408 -1.75218 -4.52136 0
M  V30 7546 N 691.751 1.51645 -0.429126 0
M  V30 7547 C 692.681 2.30434 0.377148 0
M  V30 7548 C 693.662 1.35493 1.02838 0
M  V30 7549 O 694.847 1.6441 1.03359 0
M  V30 7550 C 691.977 3.14038 1.48315 0
M  V30 7551 C 690.931 4.1719 0.955855 0
M  V30 7552 C 690.257 4.89263 2.15698 0
M  V30 7553 C 691.557 5.223 -0.00402136 0
M  V30 7554 H 693.251 2.98085 -0.280336 0
M  V30 7555 H 690.797 1.43354 -0.136265 0
M  V30 7556 H 692.75 3.67933 2.05435 0
M  V30 7557 H 691.474 2.44193 2.16881 0
M  V30 7558 H 690.133 3.64335 0.406929 0
M  V30 7559 H 689.781 4.15929 2.82864 0
M  V30 7560 H 689.481 5.59009 1.81059 0
M  V30 7561 H 691.005 5.45978 2.73387 0
M  V30 7562 H 692.419 5.71315 0.476607 0
M  V30 7563 H 690.816 5.99525 -0.26258 0
M  V30 7564 H 691.886 4.75638 -0.943236 0
M  V30 7565 N 693.229 0.160201 1.56784 0
M  V30 7566 C 694.457 -0.494165 2.00912 0
M  V30 7567 C 694.872 -1.57548 1.04038 0
M  V30 7568 O 694.229 -1.82457 0.0394581 0
M  V30 7569 C 694.28 -1.08271 3.44905 0
M  V30 7570 O 694.001 -0.0445704 4.38077 0
M  V30 7571 C 695.502 -1.8164 4.04378 0
M  V30 7572 H 692.722 -0.127498 0.658776 0
M  V30 7573 H 695.266 0.258665 2.02858 0
M  V30 7574 H 693.421 -1.78609 3.4377 0
M  V30 7575 H 693.835 -0.477544 5.22322 0
M  V30 7576 H 695.309 -2.18094 5.07089 0
M  V30 7577 H 695.786 -2.70727 3.45838 0
M  V30 7578 H 696.392 -1.15969 4.09184 0
M  V30 7579 N 694.707 -1.5719 -0.113559 0
M  V30 7580 C 695.954 -1.85138 -0.820382 0
M  V30 7581 C 696.282 -0.74608 -1.79622 0
M  V30 7582 O 695.537 0.262077 -1.93937 0
M  V30 7583 C 695.836 -3.19593 -1.59984 0
M  V30 7584 C 695.502 -4.44315 -0.767809 0
M  V30 7585 C 694.164 -4.78179 -0.538379 0
M  V30 7586 C 696.516 -5.2086 -0.188203 0
M  V30 7587 C 693.844 -5.86028 0.28082 0
M  V30 7588 C 696.196 -6.29572 0.618217 0
M  V30 7589 C 694.86 -6.61964 0.857912 0
M  V30 7590 H 694.13 -0.677467 -0.300199 0
M  V30 7591 H 696.777 -1.91322 -0.0825443 0
M  V30 7592 H 695.082 -3.0901 -2.40874 0
M  V30 7593 H 696.779 -3.3844 -2.1508 0
M  V30 7594 H 693.369 -4.17786 -0.956724 0
M  V30 7595 H 697.553 -4.95045 -0.352658 0
M  V30 7596 H 692.809 -6.09547 0.475693 0
M  V30 7597 H 696.983 -6.88064 1.0743 0
M  V30 7598 H 694.61 -7.45365 1.49451 0
M  V30 7599 N 696.185 0.383891 -1.52853 0
M  V30 7600 C 697.115 1.47559 -1.80965 0
M  V30 7601 C 698.096 1.5669 -0.661986 0
M  V30 7602 O 699.281 1.71556 -0.910072 0
M  V30 7603 C 696.411 2.85114 -1.98312 0
M  V30 7604 C 695.365 2.9082 -3.14019 0
M  V30 7605 C 694.691 4.30873 -3.16627 0
M  V30 7606 C 695.991 2.60001 -4.52986 0
M  V30 7607 H 697.685 1.24283 -2.72386 0
M  V30 7608 H 695.231 0.596445 -1.31067 0
M  V30 7609 H 697.184 3.61496 -2.16561 0
M  V30 7610 H 695.908 3.09738 -1.03585 0
M  V30 7611 H 694.567 2.16886 -2.9556 0
M  V30 7612 H 694.215 4.52545 -2.19573 0
M  V30 7613 H 693.915 4.3561 -3.94357 0
M  V30 7614 H 695.439 5.09154 -3.37038 0
M  V30 7615 H 696.853 3.261 -4.71521 0
M  V30 7616 H 695.25 2.76081 -5.32822 0
M  V30 7617 H 696.32 1.5532 -4.59351 0
M  V30 7618 N 697.663 1.43903 0.642637 0
M  V30 7619 C 698.911 1.45791 1.39962 0
M  V30 7620 C 699.232 0.0873144 1.94804 0
M  V30 7621 O 698.502 -0.878825 1.75081 0
M  V30 7622 H 697.082 0.536797 0.519479 0
M  V30 7623 H 699.744 1.7959 0.757189 0
M  V30 7624 H 698.84 2.17665 2.2367 0
M  V30 7625 N 699.141 -0.881989 1.30609 0
M  V30 7626 C 700.39 -1.62878 1.18969 0
M  V30 7627 C 700.703 -1.93946 -0.253859 0
M  V30 7628 O 701.909 -2.67008 -0.491813 0
M  V30 7629 C 700.365 -2.93573 2.0819 0
M  V30 7630 C 699.973 -2.70034 3.57471 0
M  V30 7631 C 701.717 -3.71543 2.0532 0
M  V30 7632 C 699.624 -3.96563 4.38739 0
M  V30 7633 H 698.554 -0.611092 0.441682 0
M  V30 7634 H 701.205 -0.976201 1.55379 0
M  V30 7635 H 699.587 -3.6014 1.64666 0
M  V30 7636 H 700.761 -2.11949 4.09163 0
M  V30 7637 H 699.076 -2.05435 3.62195 0
M  V30 7638 H 701.673 -4.65386 2.63288 0
M  V30 7639 H 702.016 -4.03167 1.03739 0
M  V30 7640 H 702.549 -3.11842 2.46981 0
M  V30 7641 H 699.288 -3.70095 5.41027 0
M  V30 7642 H 698.808 -4.54142 3.9181 0
M  V30 7643 H 700.487 -4.64557 4.50329 0
M  V30 7644 N 700.619 -1.13374 -1.09472 0
M  V30 7645 C 701.865 -0.896516 -1.81908 0
M  V30 7646 C 702.198 0.575933 -1.85463 0
M  V30 7647 O 701.473 1.42618 -1.32251 0
M  V30 7648 C 701.756 -1.48445 -3.28079 0
M  V30 7649 C 701.609 -3.02598 -3.32798 0
M  V30 7650 C 702.928 -1.15226 -4.24748 0
M  V30 7651 H 700.047 -0.327127 -0.660422 0
M  V30 7652 H 702.689 -1.40195 -1.2824 0
M  V30 7653 H 700.839 -1.0546 -3.73912 0
M  V30 7654 H 702.511 -3.54335 -2.95372 0
M  V30 7655 H 700.754 -3.37613 -2.72397 0
M  V30 7656 H 701.425 -3.38835 -4.3577 0
M  V30 7657 H 703.901 -1.52369 -3.87199 0
M  V30 7658 H 702.777 -1.59012 -5.25363 0
M  V30 7659 H 703.038 -0.0658891 -4.42051 0
M  V30 7660 N 702.098 1.27442 -0.927168 0
M  V30 7661 C 703.061 2.2512 -0.430525 0
M  V30 7662 C 704.061 1.54357 0.450619 0
M  V30 7663 O 705.251 1.72371 0.251774 0
M  V30 7664 C 702.383 3.38763 0.381144 0
M  V30 7665 H 703.576 2.70569 -1.29354 0
M  V30 7666 H 701.129 1.39355 -0.707806 0
M  V30 7667 H 701.864 2.98695 1.263 0
M  V30 7668 H 701.649 3.91298 -0.250618 0
M  V30 7669 H 703.139 4.11364 0.719012 0
M  V30 7670 N 703.576 0.692616 1.41565 0
M  V30 7671 C 704.539 0.0344174 2.29174 0
M  V30 7672 C 705.539 -0.710961 1.44229 0
M  V30 7673 O 706.729 -0.546293 1.65412 0
M  V30 7674 C 703.861 -0.961682 3.27054 0
M  V30 7675 H 705.054 0.805755 2.88873 0
M  V30 7676 H 702.607 0.455947 1.49502 0
M  V30 7677 H 703.342 -1.76089 2.72329 0
M  V30 7678 H 703.127 -0.430375 3.89731 0
M  V30 7679 H 704.617 -1.4201 3.92712 0
M  V30 7680 N 705.054 -1.51416 0.437162 0
M  V30 7681 C 706.3 -2.02386 -0.129555 0
M  V30 7682 C 706.633 -1.32071 -1.42376 0
M  V30 7683 O 705.908 -0.43559 -1.8956 0
M  V30 7684 C 706.191 -3.5841 -0.348487 0
M  V30 7685 C 706.044 -4.39341 0.964352 0
M  V30 7686 C 707.363 -4.25654 -1.11834 0
M  V30 7687 H 704.482 -0.735587 -0.0456109 0
M  V30 7688 H 707.124 -1.81055 0.576124 0
M  V30 7689 H 705.274 -3.76716 -0.949592 0
M  V30 7690 H 706.946 -4.32685 1.59942 0
M  V30 7691 H 705.189 -4.04432 1.56898 0
M  V30 7692 H 705.86 -5.4667 0.765212 0
M  V30 7693 H 708.336 -4.11617 -0.609165 0
M  V30 7694 H 707.212 -5.34704 -1.24029 0
M  V30 7695 H 707.473 -3.86502 -2.14636 0
M  V30 7696 N 706.532 -0.168513 -1.56696 0
M  V30 7697 C 707.462 0.758563 -2.20835 0
M  V30 7698 C 708.443 1.24121 -1.1631 0
M  V30 7699 O 709.628 1.29487 -1.4473 0
M  V30 7700 C 706.758 1.9892 -2.8469 0
M  V30 7701 C 705.712 1.64252 -3.95228 0
M  V30 7702 C 705.038 2.94757 -4.46119 0
M  V30 7703 C 706.338 0.872675 -5.14958 0
M  V30 7704 H 708.032 0.223953 -2.98561 0
M  V30 7705 H 705.578 0.106277 -1.43607 0
M  V30 7706 H 707.531 2.64275 -3.28233 0
M  V30 7707 H 706.255 2.5479 -2.04327 0
M  V30 7708 H 704.914 1.01266 -3.52336 0
M  V30 7709 H 704.562 3.48662 -3.62552 0
M  V30 7710 H 704.262 2.72316 -5.2069 0
M  V30 7711 H 705.786 3.61147 -4.92347 0
M  V30 7712 H 707.2 1.42875 -5.55211 0
M  V30 7713 H 705.597 0.747402 -5.95428 0
M  V30 7714 H 706.667 -0.131535 -4.84722 0
M  V30 7715 N 708.01 1.57248 0.105221 0
M  V30 7716 C 709.256 1.85845 0.811753 0
M  V30 7717 C 709.589 0.756219 1.78871 0
M  V30 7718 O 708.864 -0.236736 1.93054 0
M  V30 7719 C 709.147 3.25059 1.54947 0
M  V30 7720 C 709 4.45898 0.591185 0
M  V30 7721 C 710.319 3.6203 2.50245 0
M  V30 7722 H 707.438 0.675973 0.293649 0
M  V30 7723 H 710.08 1.89849 0.0756269 0
M  V30 7724 H 708.23 3.21776 2.17698 0
M  V30 7725 H 709.902 4.61291 -0.0285352 0
M  V30 7726 H 708.145 4.33693 -0.0962343 0
M  V30 7727 H 708.816 5.40009 1.1443 0
M  V30 7728 H 711.292 3.66192 1.97593 0
M  V30 7729 H 710.168 4.60389 2.98886 0
M  V30 7730 H 710.429 2.90176 3.33542 0
M  V30 7731 N 709.488 -0.375779 1.53054 0
M  V30 7732 C 710.435 -1.45978 1.78771 0
M  V30 7733 C 711.405 -1.53625 0.631552 0
M  V30 7734 O 712.59 -1.69674 0.872667 0
M  V30 7735 C 709.73 -2.8305 1.97425 0
M  V30 7736 C 708.843 -2.84451 3.25134 0
M  V30 7737 C 707.978 -4.13034 3.34031 0
M  V30 7738 C 707.017 -4.08536 4.55812 0
M  V30 7739 N 706.154 -5.2875 4.61918 0
M  V30 7740 H 710.994 -1.23349 2.71273 0
M  V30 7741 H 708.531 -0.598147 1.3439 0
M  V30 7742 H 710.489 -3.62666 2.06225 0
M  V30 7743 H 709.119 -3.04101 1.0827 0
M  V30 7744 H 708.171 -1.97127 3.25338 0
M  V30 7745 H 709.483 -2.76998 4.14818 0
M  V30 7746 H 708.637 -5.0106 3.42087 0
M  V30 7747 H 707.376 -4.23226 2.42345 0
M  V30 7748 H 706.381 -3.18897 4.47867 0
M  V30 7749 H 707.606 -3.99955 5.48828 0
M  V30 7750 H 705.552 -5.39547 3.73129 0
M  V30 7751 H 705.469 -5.23426 5.45492 0
M  V30 7752 H 706.737 -6.18637 4.74245 0
M  V30 7753 N 710.966 -1.44241 -0.634997 0
M  V30 7754 C 711.929 -1.50457 -1.72903 0
M  V30 7755 C 712.929 -0.387058 -1.56072 0
M  V30 7756 O 714.119 -0.649531 -1.61638 0
M  V30 7757 C 711.251 -1.37477 -3.1195 0
M  V30 7758 H 712.444 -2.47907 -1.68767 0
M  V30 7759 H 709.997 -1.31276 -0.84831 0
M  V30 7760 H 710.732 -0.41106 -3.21684 0
M  V30 7761 H 710.517 -2.18506 -3.25573 0
M  V30 7762 H 712.007 -1.44799 -3.91692 0
M  V30 7763 N 712.444 0.87505 -1.31075 0
M  V30 7764 C 713.354 2.01441 -1.20244 0
M  V30 7765 C 714.37 1.73584 -0.120227 0
M  V30 7766 O 715.546 1.98559 -0.337063 0
M  V30 7767 C 712.611 3.34675 -0.905199 0
M  V30 7768 C 711.672 3.75889 -2.0738 0
M  V30 7769 C 710.905 5.02764 -1.79064 0
M  V30 7770 O 711.128 5.65795 -0.723318 0
M  V30 7771 O 710.062 5.40623 -2.64594 0
M  V30 7772 H 713.888 2.13509 -2.1598 0
M  V30 7773 H 711.473 1.00257 -1.10765 0
M  V30 7774 H 713.355 4.1458 -0.755057 0
M  V30 7775 H 712.03 3.23692 0.0221695 0
M  V30 7776 H 710.937 2.96645 -2.27931 0
M  V30 7777 H 712.27 3.91489 -2.98324 0
M  V30 7778 N 713.922 1.13953 1.08869 0
M  V30 7779 C 715.152 0.926825 1.84644 0
M  V30 7780 C 715.56 -0.527941 1.81685 0
M  V30 7781 O 714.903 -1.37742 1.21543 0
M  V30 7782 C 714.965 1.34416 3.33426 0
M  V30 7783 C 714.629 2.81351 3.60126 0
M  V30 7784 C 715.626 3.79486 3.55368 0
M  V30 7785 C 713.311 3.1865 3.88288 0
M  V30 7786 C 715.305 5.1293 3.78393 0
M  V30 7787 C 712.992 4.5227 4.10968 0
M  V30 7788 C 713.99 5.4922 4.06013 0
M  V30 7789 O 713.678 6.80429 4.28102 0
M  V30 7790 H 713.41 0.33013 0.589907 0
M  V30 7791 H 715.964 1.51738 1.38436 0
M  V30 7792 H 714.194 0.696901 3.80368 0
M  V30 7793 H 715.883 1.10302 3.90626 0
M  V30 7794 H 716.649 3.52017 3.3363 0
M  V30 7795 H 712.528 2.43785 3.91267 0
M  V30 7796 H 716.072 5.88591 3.74442 0
M  V30 7797 H 711.969 4.79462 4.32188 0
M  V30 7798 H 712.737 6.86617 4.45533 0
M  V30 7799 N 715.4 -1.26948 0.933913 0
M  V30 7800 C 716.63 -1.97898 0.593279 0
M  V30 7801 C 717.038 -1.69806 -0.834412 0
M  V30 7802 O 716.381 -0.958704 -1.56699 0
M  V30 7803 C 716.443 -3.51657 0.746825 0
M  V30 7804 C 716.107 -4.03384 2.14779 0
M  V30 7805 C 717.104 -4.15682 3.12257 0
M  V30 7806 C 714.789 -4.37577 2.46641 0
M  V30 7807 C 716.783 -4.61455 4.39702 0
M  V30 7808 C 714.47 -4.8304 3.7432 0
M  V30 7809 C 715.468 -4.94939 4.70664 0
M  V30 7810 O 715.156 -5.39403 5.96071 0
M  V30 7811 H 714.888 -0.63814 0.223055 0
M  V30 7812 H 717.442 -1.62608 1.2549 0
M  V30 7813 H 715.672 -3.8669 0.0280889 0
M  V30 7814 H 717.361 -4.03821 0.410328 0
M  V30 7815 H 718.127 -3.89519 2.88964 0
M  V30 7816 H 714.006 -4.27554 1.72391 0
M  V30 7817 H 717.55 -4.70658 5.14905 0
M  V30 7818 H 713.447 -5.08646 3.97429 0
M  V30 7819 H 714.215 -5.57641 5.99148 0
M  V30 7820 O 716.917 -0.838709 -1.38014 0
M  V30 7821 H 717.608 -0.426604 -1.88944 0
M  V30 END ATOM
M  V30 BEGIN BOND
M  V30 END BOND
M  V30 END CTAB
M  END
$$$$
