drugbank_target|P51659 Peroxisomal multifunctional enzyme type 2 (DB00157; DB03192)
 OpenBabel12092119313D

  0  0  0     0  0            999 V3000
M  V30 BEGIN CTAB
M  V30 COUNTS 11277 11388 0 0 0
M  V30 BEGIN ATOM
M  V30 1 H -0.908 1.98254 -0.117106 0
M  V30 2 N 0 1.576 0 0
M  V30 3 C 0.933 2.03868 1.02534 0
M  V30 4 C 1.911 0.928543 1.3348 0
M  V30 5 O 3.095 1.19667 1.45644 0
M  V30 6 C 0.222 2.43627 2.35294 0
M  V30 7 C -0.732 3.65373 2.2001 0
M  V30 8 S 0.101 5.13292 1.52614 0
M  V30 9 C 1.257 5.56322 2.86805 0
M  V30 10 H 1.49 2.90518 0.631377 0
M  V30 11 H -0.977 1.52953 0.210867 0
M  V30 12 H 0.981 2.67203 3.11629 0
M  V30 13 H -0.358 1.57376 2.7183 0
M  V30 14 H -1.165 3.90944 3.18086 0
M  V30 15 H -1.563 3.418 1.51819 0
M  V30 16 H 0.729 5.58782 3.83104 0
M  V30 17 H 1.672 6.56266 2.65933 0
M  V30 18 H 2.08 4.83886 2.90714 0
M  V30 19 N 1.4781 -0.272755 1.55222 0
M  V30 20 C 2.7261 -1.00234 1.75492 0
M  V30 21 C 3.0471 -1.8681 0.5592 0
M  V30 22 O 2.3171 -1.91215 -0.425882 0
M  V30 23 H 0.8971 -0.373076 0.647166 0
M  V30 24 H 3.5591 -0.296926 1.92625 0
M  V30 25 H 2.6551 -1.63913 2.65592 0
M  V30 26 N 2.9562 -1.48159 -0.537278 0
M  V30 27 C 4.1812 -1.59707 -1.32319 0
M  V30 28 C 4.6062 -0.254859 -1.86365 0
M  V30 29 O 3.9642 0.772378 -1.64024 0
M  V30 30 C 4.0122 -2.6412 -2.45505 0
M  V30 31 O 3.1162 -2.20774 -3.48328 0
M  V30 32 H 2.4572 -0.535791 -0.392204 0
M  V30 33 H 4.9872 -1.94092 -0.647268 0
M  V30 34 H 4.9972 -2.85166 -2.91795 0
M  V30 35 H 3.6722 -3.61567 -2.05528 0
M  V30 36 H 2.2492 -2.09911 -3.08207 0
M  V30 37 N 4.4343 0.785586 -1.36625 0
M  V30 38 C 5.8453 1.36101 -1.27803 0
M  V30 39 C 6.1963 1.96035 0.0804875 0
M  V30 40 O 5.3213 1.92834 0.982042 0
M  V30 41 C 5.9163 2.47442 -2.31426 0
M  V30 42 C 4.4753 3.00789 -2.26281 0
M  V30 43 C 3.6223 1.73896 -2.15999 0
M  V30 44 H 6.5733 0.586928 -1.47448 0
M  V30 45 H 6.5943 3.2656 -1.95291 0
M  V30 46 H 6.1063 2.03791 -3.30289 0
M  V30 47 H 4.2073 3.48851 -1.30896 0
M  V30 48 H 4.3203 3.57343 -3.19128 0
M  V30 49 H 2.6843 1.9628 -1.62316 0
M  V30 50 H 3.4673 1.32368 -3.16755 0
M  V30 51 N 5.9124 1.20967 1.01018 0
M  V30 52 C 6.8424 0.988272 2.11555 0
M  V30 53 C 7.8234 -0.0849778 1.69888 0
M  V30 54 O 9.0084 0.0738202 1.9406 0
M  V30 55 C 6.1384 0.546528 3.42973 0
M  V30 56 C 5.0924 1.56375 3.9841 0
M  V30 57 C 4.4184 0.97842 5.25672 0
M  V30 58 C 5.7184 2.94922 4.31066 0
M  V30 59 H 7.4124 1.91276 2.30334 0
M  V30 60 H 4.9584 0.921073 1.1069 0
M  V30 61 H 6.9114 0.378839 4.19694 0
M  V30 62 H 5.6354 -0.413598 3.23971 0
M  V30 63 H 4.2944 1.71891 3.23804 0
M  V30 64 H 3.9424 0.0101688 5.02999 0
M  V30 65 H 3.6424 1.65784 5.63728 0
M  V30 66 H 5.1664 0.821939 6.05043 0
M  V30 67 H 6.5804 2.8288 4.9865 0
M  V30 68 H 4.9774 3.5983 4.80253 0
M  V30 69 H 6.0474 3.4616 3.39561 0
M  V30 70 N 7.3905 -1.2043 1.01659 0
M  V30 71 C 8.8065 -1.41852 0.731442 0
M  V30 72 C 9.0065 -1.89358 -0.688898 0
M  V30 73 O 8.0625 -2.06247 -1.45666 0
M  V30 74 C 9.3755 -2.44019 1.75714 0
M  V30 75 C 10.9235 -2.57785 1.77527 0
M  V30 76 C 11.3985 -3.63194 2.79023 0
M  V30 77 N 12.8895 -3.70678 2.77763 0
M  V30 78 C 13.6245 -4.51897 3.52954 0
M  V30 79 N 13.1205 -5.36921 4.37821 0
M  V30 80 N 14.9135 -4.4643 3.41551 0
M  V30 81 H 7.0645 -0.879093 1.93354 0
M  V30 82 H 9.3275 -0.448425 0.835236 0
M  V30 83 H 9.0335 -2.1611 2.77469 0
M  V30 84 H 8.9075 -3.43007 1.56927 0
M  V30 85 H 11.2945 -2.85023 0.764569 0
M  V30 86 H 11.3755 -1.58992 2.00387 0
M  V30 87 H 11.0195 -3.36699 3.80258 0
M  V30 88 H 10.9495 -4.61609 2.53425 0
M  V30 89 H 13.4405 -3.09944 2.16201 0
M  V30 90 H 13.7535 -5.95981 4.91962 0
M  V30 91 H 12.0985 -5.36424 4.41899 0
M  V30 92 H 15.2895 -3.79042 2.74672 0
M  V30 93 H 15.4625 -5.09491 4.00404 0
M  V30 94 N 8.8686 -0.792821 -1.36206 0
M  V30 95 C 10.1156 -0.366786 -1.99151 0
M  V30 96 C 10.4436 1.06243 -1.62919 0
M  V30 97 O 9.6986 1.74927 -0.877442 0
M  V30 98 C 9.9976 -0.481501 -3.54142 0
M  V30 99 C 9.6636 -1.87202 -4.10203 0
M  V30 100 C 8.3256 -2.25248 -4.25226 0
M  V30 101 C 10.6776 -2.78237 -4.40719 0
M  V30 102 C 8.0056 -3.53723 -4.68078 0
M  V30 103 C 10.3576 -4.06144 -4.85005 0
M  V30 104 C 9.0216 -4.44207 -4.98234 0
M  V30 105 H 8.2916 -0.134217 -0.728743 0
M  V30 106 H 10.9386 -1.01094 -1.62641 0
M  V30 107 H 9.2436 0.246146 -3.91026 0
M  V30 108 H 10.9406 -0.132844 -4.0078 0
M  V30 109 H 7.5306 -1.56639 -3.98951 0
M  V30 110 H 11.7146 -2.50097 -4.28679 0
M  V30 111 H 6.9706 -3.8308 -4.76508 0
M  V30 112 H 11.1446 -4.76796 -5.07581 0
M  V30 113 H 8.7716 -5.43814 -5.31197 0
M  V30 114 N 10.3467 1.47872 -0.545128 0
M  V30 115 C 11.6237 1.9554 0.0485222 0
M  V30 116 C 12.0037 1.4876 1.49779 0
M  V30 117 O 11.3517 0.720925 2.16829 0
M  V30 118 C 11.5617 3.48898 -0.084417 0
M  V30 119 C 12.9097 4.24547 0.0671239 0
M  V30 120 O 13.9337 3.56198 -0.0113649 0
M  V30 121 O 12.7927 5.45999 0.233882 0
M  V30 122 H 9.8867 0.823957 0.0708773 0
M  V30 123 H 12.4327 1.58327 -0.610798 0
M  V30 124 H 11.2047 3.75714 -1.09337 0
M  V30 125 H 10.8277 3.92845 0.613066 0
M  V30 126 N 11.8248 0.280983 1.55075 0
M  V30 127 C 13.0728 -0.333455 1.9933 0
M  V30 128 C 13.3938 -1.55937 1.17085 0
M  V30 129 O 12.6638 -1.94143 0.261805 0
M  V30 130 H 11.2438 -0.126197 0.736263 0
M  V30 131 H 13.9058 0.387678 1.91005 0
M  V30 132 H 13.0018 -0.619292 3.05894 0
M  V30 133 N 13.3029 -1.57598 0.00835791 0
M  V30 134 C 14.7189 -1.55764 -0.347822 0
M  V30 135 C 14.9189 -1.01186 -1.74252 0
M  V30 136 O 13.9749 -0.649371 -2.44007 0
M  V30 137 C 15.2879 -2.99927 -0.215407 0
M  V30 138 C 16.8359 -3.11656 -0.289725 0
M  V30 139 C 17.3109 -4.57621 -0.18634 0
M  V30 140 N 18.8019 -4.62557 -0.243978 0
M  V30 141 C 19.5369 -5.73094 -0.18745 0
M  V30 142 N 19.0329 -6.92753 -0.0810331 0
M  V30 143 N 20.8259 -5.61588 -0.239925 0
M  V30 144 H 12.9769 -1.91411 0.92062 0
M  V30 145 H 15.2399 -0.879562 0.353659 0
M  V30 146 H 14.9459 -3.43729 0.744512 0
M  V30 147 H 14.8199 -3.63865 -0.994097 0
M  V30 148 H 17.2069 -2.67779 -1.24009 0
M  V30 149 H 17.2879 -2.5048 0.51898 0
M  V30 150 H 16.9319 -5.02174 0.760519 0
M  V30 151 H 16.8619 -5.16752 -1.01364 0
M  V30 152 H 19.3529 -3.76481 -0.327217 0
M  V30 153 H 19.6659 -7.72787 -0.0440241 0
M  V30 154 H 18.0109 -6.94984 -0.0465419 0
M  V30 155 H 21.2019 -4.66996 -0.321317 0
M  V30 156 H 21.3749 -6.47714 -0.192407 0
M  V30 157 N 14.781 0.264519 -1.55364 0
M  V30 158 C 16.027 0.99646 -1.76631 0
M  V30 159 C 16.36 1.85632 -0.570478 0
M  V30 160 O 15.635 1.89647 0.43175 0
M  V30 161 C 15.918 1.87187 -3.07625 0
M  V30 162 C 15.771 1.04138 -4.37579 0
M  V30 163 C 17.09 2.85749 -3.34717 0
M  V30 164 H 14.209 0.360841 -0.642622 0
M  V30 165 H 16.851 0.268218 -1.88097 0
M  V30 166 H 15.001 2.49279 -2.9798 0
M  V30 167 H 16.673 0.440517 -4.59192 0
M  V30 168 H 14.916 0.345115 -4.32425 0
M  V30 169 H 15.587 1.68729 -5.2558 0
M  V30 170 H 18.063 2.33793 -3.4421 0
M  V30 171 H 16.939 3.44136 -4.27623 0
M  V30 172 H 17.2 3.61311 -2.54768 0
M  V30 173 N 16.2591 1.48442 0.529413 0
M  V30 174 C 17.5051 1.5672 1.28711 0
M  V30 175 C 17.8381 0.2406 1.92704 0
M  V30 176 O 17.1131 -0.753454 1.79313 0
M  V30 177 C 17.3961 2.70587 2.37603 0
M  V30 178 C 17.2491 4.12953 1.78297 0
M  V30 179 C 18.5681 2.80212 3.39366 0
M  V30 180 H 15.6871 0.570474 0.466613 0
M  V30 181 H 18.3291 1.80617 0.589706 0
M  V30 182 H 16.4791 2.50342 2.97088 0
M  V30 183 H 18.1511 4.44639 1.22858 0
M  V30 184 H 16.3941 4.19927 1.0883 0
M  V30 185 H 17.0651 4.88448 2.57144 0
M  V30 186 H 19.5411 2.98553 2.89836 0
M  V30 187 H 18.4171 3.61611 4.12951 0
M  V30 188 H 18.6781 1.88393 3.99951 0
M  V30 189 N 17.7372 -0.778329 1.37039 0
M  V30 190 C 18.6672 -1.90546 1.34962 0
M  V30 191 C 19.6482 -1.68681 0.219274 0
M  V30 192 O 20.8332 -1.89634 0.418624 0
M  V30 193 C 17.9632 -3.27734 1.14925 0
M  V30 194 C 16.9172 -3.64147 2.24902 0
M  V30 195 C 16.2432 -4.99806 1.89996 0
M  V30 196 C 17.5432 -3.71579 3.67051 0
M  V30 197 H 19.2372 -1.92541 2.29277 0
M  V30 198 H 16.7832 -0.924948 1.10366 0
M  V30 199 H 18.7362 -4.06215 1.12104 0
M  V30 200 H 17.4602 -3.26154 0.170631 0
M  V30 201 H 16.1192 -2.8797 2.26868 0
M  V30 202 H 15.7672 -4.94759 0.906796 0
M  V30 203 H 15.4672 -5.25139 2.63634 0
M  V30 204 H 16.9912 -5.80694 1.88749 0
M  V30 205 H 18.4052 -4.40227 3.67251 0
M  V30 206 H 16.8022 -4.08405 4.39688 0
M  V30 207 H 17.8722 -2.72404 4.01154 0
M  V30 208 N 19.2153 -1.21501 -1.00376 0
M  V30 209 C 20.4613 -1.03452 -1.74429 0
M  V30 210 C 20.7943 0.430764 -1.89362 0
M  V30 211 O 20.0693 1.31962 -1.42886 0
M  V30 212 C 20.3523 -1.73375 -3.15615 0
M  V30 213 C 20.2053 -3.27431 -3.08397 0
M  V30 214 C 21.5243 -1.47732 -4.14564 0
M  V30 215 H 18.6433 -0.377226 -0.633143 0
M  V30 216 H 21.2853 -1.49693 -1.17013 0
M  V30 217 H 19.4353 -1.34064 -3.64636 0
M  V30 218 H 21.1073 -3.76119 -2.67081 0
M  V30 219 H 19.3503 -3.5767 -2.45468 0
M  V30 220 H 20.0213 -3.71524 -4.08258 0
M  V30 221 H 22.4973 -1.8186 -3.74254 0
M  V30 222 H 21.3733 -1.99169 -5.11491 0
M  V30 223 H 21.6343 -0.407589 -4.40217 0
M  V30 224 N 20.6934 1.19889 -1.02296 0
M  V30 225 C 21.9214 1.9339 -0.735399 0
M  V30 226 C 22.3364 1.75148 0.704887 0
M  V30 227 O 21.6934 1.06954 1.47875 0
M  V30 228 C 21.7444 3.45313 -1.06962 0
M  V30 229 O 21.4654 3.62964 -2.45334 0
M  V30 230 C 22.9664 4.35948 -0.804021 0
M  V30 231 H 20.1864 0.61448 -0.269546 0
M  V30 232 H 22.7304 1.522 -1.36585 0
M  V30 233 H 20.8854 3.84359 -0.484455 0
M  V30 234 H 21.2994 4.56886 -2.57595 0
M  V30 235 H 22.7734 5.41174 -1.0879 0
M  V30 236 H 23.2504 4.3842 0.261691 0
M  V30 237 H 23.8564 4.02574 -1.37164 0
M  V30 238 N 22.1715 0.800033 1.35784 0
M  V30 239 C 23.4195 0.376597 1.9856 0
M  V30 240 C 23.7405 -1.05812 1.63795 0
M  V30 241 O 23.0105 -1.73103 0.917171 0
M  V30 242 H 21.5905 0.136261 0.734467 0
M  V30 243 H 24.2525 1.02442 1.65806 0
M  V30 244 H 23.3485 0.477002 3.08433 0
M  V30 245 N 23.6496 -1.47581 0.552962 0
M  V30 246 C 24.6126 -2.28439 -0.186605 0
M  V30 247 C 25.6126 -1.36706 -0.84665 0
M  V30 248 O 26.8026 -1.59378 -0.703164 0
M  V30 249 C 23.9346 -3.16264 -1.2724 0
M  V30 250 H 25.1276 -2.95294 0.523609 0
M  V30 251 H 22.6806 -1.532 0.309745 0
M  V30 252 H 23.4156 -2.54091 -2.01514 0
M  V30 253 H 23.2006 -3.83769 -0.803968 0
M  V30 254 H 24.6906 -3.77198 -1.79196 0
M  V30 255 N 25.1277 -0.289203 -1.54924 0
M  V30 256 C 26.3757 0.322879 -1.99504 0
M  V30 257 C 26.6967 1.55313 -1.1791 0
M  V30 258 O 25.9667 1.94001 -0.272097 0
M  V30 259 H 24.5467 0.122291 -0.736922 0
M  V30 260 H 27.2087 -0.397802 -1.90797 0
M  V30 261 H 26.3047 0.603061 -3.06218 0
M  V30 262 N 26.6058 1.57591 -0.0167156 0
M  V30 263 C 27.5688 2.08393 0.954204 0
M  V30 264 C 28.5688 0.996531 1.26198 0
M  V30 265 O 29.7588 1.25858 1.20438 0
M  V30 266 C 26.8908 2.5394 2.27436 0
M  V30 267 H 28.0838 2.95455 0.514451 0
M  V30 268 H 25.6368 1.54582 0.231089 0
M  V30 269 H 26.3718 1.70171 2.76066 0
M  V30 270 H 26.1568 3.33371 2.06412 0
M  V30 271 H 27.6468 2.93512 2.97053 0
M  V30 272 N 28.0839 -0.256276 1.55502 0
M  V30 273 C 29.3319 -0.983672 1.76545 0
M  V30 274 C 29.6529 -1.86206 0.578982 0
M  V30 275 O 28.9229 -1.91656 -0.405577 0
M  V30 276 H 27.5029 -0.366191 0.651086 0
M  V30 277 H 30.1649 -0.276479 1.92929 0
M  V30 278 H 29.2609 -1.61087 2.67315 0
M  V30 279 N 29.562 -1.4872 -0.521534 0
M  V30 280 C 30.492 -1.66771 -1.63431 0
M  V30 281 C 31.473 -0.516499 -1.62069 0
M  V30 282 O 32.658 -0.750013 -1.79132 0
M  V30 283 C 29.788 -1.71515 -3.01993 0
M  V30 284 C 28.742 -2.86222 -3.18216 0
M  V30 285 C 28.068 -2.76061 -4.57924 0
M  V30 286 C 29.368 -4.27419 -3.00184 0
M  V30 287 H 31.062 -2.59932 -1.48579 0
M  V30 288 H 28.608 -1.25089 -0.713358 0
M  V30 289 H 30.561 -1.82731 -3.7972 0
M  V30 290 H 29.285 -0.749393 -3.17886 0
M  V30 291 H 27.944 -2.74575 -2.42908 0
M  V30 292 H 27.592 -1.77437 -4.70665 0
M  V30 293 H 27.292 -3.53037 -4.69722 0
M  V30 294 H 28.816 -2.89256 -5.37739 0
M  V30 295 H 30.23 -4.39855 -3.67697 0
M  V30 296 H 28.627 -5.05458 -3.2347 0
M  V30 297 H 29.697 -4.43293 -1.96518 0
M  V30 298 N 31.0401 0.771051 -1.3745 0
M  V30 299 C 32.2881 1.52661 -1.32435 0
M  V30 300 C 32.6091 1.9479 0.0905024 0
M  V30 301 O 31.8791 1.66348 1.03466 0
M  V30 302 H 30.4591 0.566218 -0.487244 0
M  V30 303 H 33.1211 0.917636 -1.71946 0
M  V30 304 H 32.2171 2.42568 -1.96385 0
M  V30 305 N 32.5182 1.22032 0.997298 0
M  V30 306 C 33.9342 0.979326 1.26021 0
M  V30 307 C 34.1342 -0.32972 1.98784 0
M  V30 308 O 33.1902 -1.05345 2.29475 0
M  V30 309 C 34.5032 2.17509 2.07631 0
M  V30 310 C 36.0512 2.21817 2.2083 0
M  V30 311 C 36.5262 3.40933 3.05825 0
M  V30 312 N 38.0172 3.41067 3.13412 0
M  V30 313 C 38.7522 4.29885 3.79455 0
M  V30 314 N 38.2482 5.28914 4.47462 0
M  V30 315 N 40.0412 4.17673 3.76173 0
M  V30 316 H 32.1922 2.06202 0.509352 0
M  V30 317 H 34.4552 0.90334 0.287541 0
M  V30 318 H 34.1612 3.12415 1.61524 0
M  V30 319 H 34.0352 2.17206 3.08385 0
M  V30 320 H 36.4222 1.27462 2.66153 0
M  V30 321 H 36.5032 2.2616 1.1952 0
M  V30 322 H 36.1472 4.35586 2.61203 0
M  V30 323 H 36.0772 3.33829 4.07266 0
M  V30 324 H 38.5682 2.69406 2.65007 0
M  V30 325 H 38.8812 5.92973 4.95583 0
M  V30 326 H 37.2262 5.32831 4.46224 0
M  V30 327 H 40.4172 3.39564 3.22202 0
M  V30 328 H 40.5902 4.87098 4.27363 0
M  V30 329 N 33.9963 -1.19345 1.0293 0
M  V30 330 C 34.9593 -2.20793 0.615069 0
M  V30 331 C 35.9593 -1.57553 -0.321533 0
M  V30 332 O 37.1493 -1.73862 -0.108483 0
M  V30 333 C 34.2813 -3.40754 -0.0999222 0
M  V30 334 H 35.4743 -2.58955 1.51269 0
M  V30 335 H 33.0273 -1.3303 0.820534 0
M  V30 336 H 33.7623 -3.0811 -1.01187 0
M  V30 337 H 33.5473 -3.87889 0.57309 0
M  V30 338 H 35.0373 -4.15898 -0.376645 0
M  V30 339 N 35.4744 -0.807222 -1.35358 0
M  V30 340 C 36.7044 -0.399796 -2.02695 0
M  V30 341 C 37.1124 0.994176 -1.60974 0
M  V30 342 O 36.4554 1.65209 -0.803226 0
M  V30 343 C 36.5174 -0.404445 -3.57218 0
M  V30 344 C 36.1814 -1.74904 -4.22206 0
M  V30 345 C 37.1784 -2.70743 -4.4384 0
M  V30 346 C 34.8634 -2.03322 -4.5931 0
M  V30 347 C 36.8574 -3.93183 -5.01683 0
M  V30 348 C 34.5444 -3.26026 -5.16866 0
M  V30 349 C 35.5424 -4.20774 -5.37994 0
M  V30 350 O 35.2304 -5.41312 -5.94337 0
M  V30 351 H 34.9624 -0.160517 -0.656666 0
M  V30 352 H 37.5164 -1.09235 -1.73945 0
M  V30 353 H 35.7464 0.344707 -3.85161 0
M  V30 354 H 37.4354 -0.0192429 -4.05895 0
M  V30 355 H 38.2014 -2.5008 -4.15554 0
M  V30 356 H 34.0804 -1.30384 -4.42178 0
M  V30 357 H 37.6244 -4.6715 -5.1809 0
M  V30 358 H 33.5214 -3.46559 -5.44579 0
M  V30 359 H 34.2894 -5.42618 -6.12787 0
M  V30 360 N 36.9525 1.47285 -0.560781 0
M  V30 361 C 37.9155 2.28535 0.174488 0
M  V30 362 C 38.9155 1.37153 0.839388 0
M  V30 363 O 40.1055 1.59748 0.694702 0
M  V30 364 C 37.2375 3.16934 1.25561 0
M  V30 365 H 38.4305 2.95012 -0.539262 0
M  V30 366 H 35.9835 1.53034 -0.317865 0
M  V30 367 H 36.7185 2.55157 2.00164 0
M  V30 368 H 36.5035 3.8419 0.783604 0
M  V30 369 H 37.9935 3.78143 1.77193 0
M  V30 370 N 38.4306 0.297415 1.54768 0
M  V30 371 C 39.3606 -0.573494 2.26348 0
M  V30 372 C 40.3416 -1.14085 1.26169 0
M  V30 373 O 41.5266 -1.17086 1.54934 0
M  V30 374 C 38.6566 -1.74716 3.00153 0
M  V30 375 C 37.6106 -1.31032 4.07449 0
M  V30 376 C 36.9366 -2.56887 4.68949 0
M  V30 377 C 38.2366 -0.444183 5.20408 0
M  V30 378 H 39.9306 0.0235131 2.99391 0
M  V30 379 H 37.4766 0.0127488 1.43994 0
M  V30 380 H 39.4296 -2.3625 3.48947 0
M  V30 381 H 38.1536 -2.37035 2.24682 0
M  V30 382 H 36.8126 -0.718066 3.59499 0
M  V30 383 H 36.4606 -3.17512 3.90122 0
M  V30 384 H 36.1606 -2.2836 5.41411 0
M  V30 385 H 37.6846 -3.19229 5.20505 0
M  V30 386 H 39.0986 -0.9651 5.65118 0
M  V30 387 H 37.4956 -0.252846 5.99567 0
M  V30 388 H 38.5656 0.531609 4.81977 0
M  V30 389 N 39.9087 -1.5758 0.0250728 0
M  V30 390 C 40.8717 -2.08896 -0.943139 0
M  V30 391 C 41.8717 -1.00321 -1.25668 0
M  V30 392 O 43.0617 -1.26495 -1.19769 0
M  V30 393 C 40.1937 -2.55143 -2.26086 0
M  V30 394 H 41.3867 -2.95723 -0.498775 0
M  V30 395 H 38.9397 -1.54703 -0.222888 0
M  V30 396 H 39.6747 -1.71633 -2.75159 0
M  V30 397 H 39.4597 -3.34461 -2.04641 0
M  V30 398 H 40.9497 -2.95083 -2.95492 0
M  V30 399 N 41.3868 0.248026 -1.55636 0
M  V30 400 C 42.6338 0.976224 -1.77415 0
M  V30 401 C 42.9618 1.85361 -0.589193 0
M  V30 402 O 42.2168 1.90973 0.427529 0
M  V30 403 C 42.5158 1.86819 -3.04686 0
M  V30 404 C 42.1818 1.14625 -4.36087 0
M  V30 405 C 40.8438 0.946723 -4.71795 0
M  V30 406 C 43.1958 0.634463 -5.17324 0
M  V30 407 C 40.5238 0.223091 -5.86276 0
M  V30 408 C 42.8758 -0.0756959 -6.32555 0
M  V30 409 C 41.5398 -0.286711 -6.66884 0
M  V30 410 H 40.8098 0.357226 -0.649208 0
M  V30 411 H 43.4568 0.246415 -1.89908 0
M  V30 412 H 41.7618 2.66502 -2.872 0
M  V30 413 H 43.4588 2.43329 -3.18735 0
M  V30 414 H 40.0488 1.3117 -4.08035 0
M  V30 415 H 44.2328 0.77616 -4.90193 0
M  V30 416 H 39.4888 0.0491185 -6.1138 0
M  V30 417 H 43.6628 -0.479899 -6.94745 0
M  V30 418 H 41.2898 -0.849389 -7.5544 0
M  V30 419 N 42.8649 1.48995 0.513639 0
M  V30 420 C 43.8279 1.64229 1.59879 0
M  V30 421 C 44.8279 0.514696 1.5234 0
M  V30 422 O 46.0179 0.78087 1.55718 0
M  V30 423 C 43.1499 1.62783 2.99524 0
M  V30 424 H 44.3429 2.61004 1.47705 0
M  V30 425 H 41.8959 1.37837 0.736936 0
M  V30 426 H 42.6309 0.675461 3.17188 0
M  V30 427 H 42.4159 2.4466 3.06404 0
M  V30 428 H 43.9059 1.76669 3.78388 0
M  V30 429 N 44.343 -0.763751 1.37857 0
M  V30 430 C 45.253 -1.90817 1.36478 0
M  V30 431 C 46.269 -1.71997 0.263248 0
M  V30 432 O 47.445 -1.95095 0.499979 0
M  V30 433 C 44.51 -3.2605 1.17864 0
M  V30 434 C 43.571 -3.57467 2.3773 0
M  V30 435 C 42.804 -4.86249 2.19995 0
M  V30 436 O 43.027 -5.57884 1.18836 0
M  V30 437 O 41.961 -5.16911 3.08361 0
M  V30 438 H 45.787 -1.94933 2.32884 0
M  V30 439 H 43.372 -0.907619 1.1867 0
M  V30 440 H 45.254 -4.06924 1.09504 0
M  V30 441 H 43.929 -3.22769 0.245372 0
M  V30 442 H 42.836 -2.76796 2.51664 0
M  V30 443 H 44.169 -3.655 3.29652 0
M  V30 444 N 45.8211 -1.22559 -0.990812 0
M  V30 445 C 47.2371 -0.985996 -1.255 0
M  V30 446 C 47.4371 0.319173 -1.98956 0
M  V30 447 O 46.4931 1.04127 -2.3003 0
M  V30 448 C 47.8061 -2.18607 -2.06474 0
M  V30 449 C 49.3541 -2.22985 -2.19651 0
M  V30 450 C 49.8291 -3.4255 -3.04012 0
M  V30 451 N 51.3201 -3.42725 -3.11599 0
M  V30 452 C 52.0551 -4.31892 -3.7717 0
M  V30 453 N 51.5511 -5.31279 -4.44651 0
M  V30 454 N 53.3441 -4.19662 -3.73952 0
M  V30 455 H 45.4951 -2.06469 -0.49841 0
M  V30 456 H 47.7581 -0.904853 -0.282747 0
M  V30 457 H 47.4641 -3.13267 -1.59865 0
M  V30 458 H 47.3381 -2.18838 -3.07229 0
M  V30 459 H 49.7251 -1.28871 -2.65474 0
M  V30 460 H 49.8061 -2.26791 -1.18319 0
M  V30 461 H 49.4501 -4.36965 -2.58889 0
M  V30 462 H 49.3801 -3.35984 -4.0549 0
M  V30 463 H 51.8711 -2.70807 -2.63575 0
M  V30 464 H 52.1841 -5.95593 -4.92431 0
M  V30 465 H 50.5291 -5.3519 -4.43392 0
M  V30 466 H 53.7201 -3.41268 -3.20396 0
M  V30 467 H 53.8931 -4.89358 -4.24774 0
M  V30 468 N 47.2992 1.18797 -1.03562 0
M  V30 469 C 48.5472 1.88278 -0.734569 0
M  V30 470 C 48.8682 1.8043 0.739586 0
M  V30 471 O 48.1382 1.21925 1.53333 0
M  V30 472 H 46.7182 0.696991 -0.268725 0
M  V30 473 H 49.3802 1.44192 -1.31129 0
M  V30 474 H 48.4762 2.94443 -1.03489 0
M  V30 475 N 48.7773 0.814389 1.34928 0
M  V30 476 C 49.7403 0.235759 2.27984 0
M  V30 477 C 50.7403 -0.581412 1.49921 0
M  V30 478 O 51.9303 -0.398758 1.69575 0
M  V30 479 C 49.0623 -0.670433 3.34242 0
M  V30 480 H 50.2553 1.05659 2.80671 0
M  V30 481 H 47.8083 0.585614 1.44915 0
M  V30 482 H 48.5433 -1.51466 2.86755 0
M  V30 483 H 48.3283 -0.0860822 3.92005 0
M  V30 484 H 49.8183 -1.06935 4.03676 0
M  V30 485 N 50.2554 -1.46986 0.568584 0
M  V30 486 C 51.1854 -2.32946 -0.160753 0
M  V30 487 C 52.1664 -1.44487 -0.897631 0
M  V30 488 O 53.3514 -1.73327 -0.875867 0
M  V30 489 C 50.4814 -3.26494 -1.18403 0
M  V30 490 C 49.4354 -4.24282 -0.562895 0
M  V30 491 C 48.7614 -5.07236 -1.69163 0
M  V30 492 C 50.0614 -5.19989 0.490761 0
M  V30 493 H 51.7554 -2.94175 0.556916 0
M  V30 494 H 49.3014 -1.4146 0.26927 0
M  V30 495 H 51.2544 -3.85477 -1.70251 0
M  V30 496 H 49.9784 -2.63343 -1.93179 0
M  V30 497 H 48.6374 -3.66541 -0.0656164 0
M  V30 498 H 48.2854 -4.4048 -2.42871 0
M  V30 499 H 47.9854 -5.7345 -1.28174 0
M  V30 500 H 49.5094 -5.6908 -2.21314 0
M  V30 501 H 50.9234 -5.73271 0.0579047 0
M  V30 502 H 49.3204 -5.94469 0.820165 0
M  V30 503 H 50.3904 -4.64777 1.3824 0
M  V30 504 N 51.7335 -0.305618 -1.54608 0
M  V30 505 C 52.9795 0.302746 -2.00528 0
M  V30 506 C 53.3125 1.53184 -1.19367 0
M  V30 507 O 52.5875 1.92598 -0.271321 0
M  V30 508 C 52.8705 0.654756 -3.54097 0
M  V30 509 C 52.7235 -0.583793 -4.45995 0
M  V30 510 C 54.0425 1.47947 -4.14487 0
M  V30 511 H 51.1615 0.108564 -0.72896 0
M  V30 512 H 53.8035 -0.418634 -1.85331 0
M  V30 513 H 51.9535 1.26935 -3.67178 0
M  V30 514 H 53.6255 -1.22224 -4.44814 0
M  V30 515 H 51.8685 -1.21615 -4.16404 0
M  V30 516 H 52.5395 -0.293287 -5.5122 0
M  V30 517 H 55.0155 0.96013 -4.04871 0
M  V30 518 H 53.8915 1.69454 -5.22088 0
M  V30 519 H 54.1525 2.47011 -3.66658 0
M  V30 520 N 53.2116 1.57565 -0.0334293 0
M  V30 521 C 54.4576 1.92262 0.645226 0
M  V30 522 C 54.7906 0.910543 1.71531 0
M  V30 523 O 54.0656 -0.066099 1.94388 0
M  V30 524 C 54.3486 3.37422 1.2577 0
M  V30 525 C 54.2016 4.49369 0.196891 0
M  V30 526 C 55.5206 3.82628 2.17449 0
M  V30 527 H 52.6396 0.699171 0.233085 0
M  V30 528 H 55.2816 1.89779 -0.0915694 0
M  V30 529 H 53.4316 3.39669 1.88566 0
M  V30 530 H 55.1036 4.59254 -0.433962 0
M  V30 531 H 53.3466 4.31168 -0.477137 0
M  V30 532 H 54.0176 5.47978 0.665124 0
M  V30 533 H 56.4936 3.82145 1.64634 0
M  V30 534 H 55.3696 4.84883 2.57254 0
M  V30 535 H 55.6306 3.18376 3.0674 0
M  V30 536 N 54.6897 -0.239769 1.55765 0
M  V30 537 C 55.9357 -0.968234 1.78194 0
M  V30 538 C 56.2687 -1.84701 0.599938 0
M  V30 539 O 55.5437 -1.9031 -0.401524 0
M  V30 540 C 55.8267 -1.8227 3.10564 0
M  V30 541 C 55.6797 -0.971633 4.3918 0
M  V30 542 C 56.9987 -2.80388 3.39221 0
M  V30 543 H 54.1177 -0.350572 0.648281 0
M  V30 544 H 56.7597 -0.238259 1.885 0
M  V30 545 H 54.9097 -2.44507 3.01908 0
M  V30 546 H 56.5817 -0.367408 4.59835 0
M  V30 547 H 54.8247 -0.276276 4.32919 0
M  V30 548 H 55.4957 -1.60346 5.28198 0
M  V30 549 H 57.9717 -2.28287 3.47885 0
M  V30 550 H 56.8477 -3.3729 4.33044 0
M  V30 551 H 57.1087 -3.57212 2.60484 0
M  V30 552 N 56.1678 -1.49265 -0.50573 0
M  V30 553 C 57.1158 -1.66065 -1.62866 0
M  V30 554 C 58.1098 -0.526636 -1.61006 0
M  V30 555 O 59.3158 -0.706126 -1.65571 0
M  V30 556 H 55.6908 -0.52356 -0.539805 0
M  V30 557 H 57.6618 -2.60329 -1.45848 0
M  V30 558 C 56.4108 -1.74008 -3.01026 0
M  V30 559 H 55.7338 -2.6064 -3.03161 0
M  V30 560 H 57.1738 -1.89798 -3.79147 0
M  V30 561 C 55.6328 -0.483868 -3.33407 0
M  V30 562 O 56.1628 0.392548 -3.99777 0
M  V30 563 N 54.3688 -0.348236 -2.88506 0
M  V30 564 H 53.9158 -1.06242 -2.34671 0
M  V30 565 H 53.8738 0.491204 -3.10539 0
M  V30 566 N 57.6459 0.756429 -1.3826 0
M  V30 567 C 58.9229 1.50584 -1.24835 0
M  V30 568 C 59.3029 2.10556 0.151485 0
M  V30 569 O 58.6509 1.96825 1.1607 0
M  V30 570 C 58.8609 2.57448 -2.3563 0
M  V30 571 C 60.2089 3.24429 -2.73917 0
M  V30 572 O 61.2329 2.67751 -2.34921 0
M  V30 573 O 60.0919 4.26937 -3.41156 0
M  V30 574 H 57.1859 0.667664 -0.48801 0
M  V30 575 H 59.7319 0.792083 -1.5008 0
M  V30 576 H 58.5039 2.11362 -3.29305 0
M  V30 577 H 58.1269 3.36408 -2.11933 0
M  V30 578 N 59.124 1.23083 0.984299 0
M  V30 579 C 60.054 1.03292 2.09411 0
M  V30 580 C 61.035 -0.048923 1.7003 0
M  V30 581 O 62.22 0.114967 1.93859 0
M  V30 582 C 59.35 0.619155 3.41736 0
M  V30 583 C 58.304 1.64791 3.95004 0
M  V30 584 C 57.63 1.0897 5.23478 0
M  V30 585 C 58.93 3.03999 4.24714 0
M  V30 586 H 60.624 1.96119 2.26225 0
M  V30 587 H 58.17 0.944344 1.08711 0
M  V30 588 H 60.123 0.467777 4.18796 0
M  V30 589 H 58.847 -0.344786 3.24775 0
M  V30 590 H 57.506 1.78721 3.20085 0
M  V30 591 H 57.154 0.11686 5.02864 0
M  V30 592 H 56.854 1.77704 5.60085 0
M  V30 593 H 58.378 0.950093 6.03163 0
M  V30 594 H 59.792 2.93393 4.92538 0
M  V30 595 H 58.189 3.69936 4.72512 0
M  V30 596 H 59.259 3.53285 3.32142 0
M  V30 597 N 60.6021 -1.18246 1.0419 0
M  V30 598 C 61.8501 -1.87886 0.744543 0
M  V30 599 C 62.1711 -1.8082 -0.730006 0
M  V30 600 O 61.4411 -1.22736 -1.52685 0
M  V30 601 H 60.0211 -0.695556 0.272417 0
M  V30 602 H 62.6831 -1.43494 1.31892 0
M  V30 603 H 61.7791 -2.9389 1.05049 0
M  V30 604 N 62.0802 -0.821533 -1.34494 0
M  V30 605 C 63.3282 -0.408139 -1.97936 0
M  V30 606 C 63.6492 1.03193 -1.65457 0
M  V30 607 O 62.9192 1.71622 -0.944595 0
M  V30 608 H 61.4992 -0.147928 -0.732206 0
M  V30 609 H 64.1612 -1.05067 -1.64155 0
M  V30 610 H 63.2572 -0.52601 -3.07635 0
M  V30 611 N 63.5583 1.46682 -0.576371 0
M  V30 612 C 64.8353 1.95599 0.00703437 0
M  V30 613 C 65.2153 1.51904 1.46589 0
M  V30 614 O 64.5633 0.766755 2.15251 0
M  V30 615 C 64.7733 3.4864 -0.158404 0
M  V30 616 C 66.1213 4.24594 -0.0229439 0
M  V30 617 O 67.1453 3.56094 -0.0869173 0
M  V30 618 O 66.0043 5.46373 0.118015 0
M  V30 619 H 63.0983 0.825275 0.053384 0
M  V30 620 H 65.6443 1.56996 -0.644244 0
M  V30 621 H 64.4163 3.7331 -1.17282 0
M  V30 622 H 64.0393 3.94057 0.5296 0
M  V30 623 N 65.0364 0.313813 1.54444 0
M  V30 624 C 66.2834 -0.291675 2.00388 0
M  V30 625 C 66.6114 -1.52904 1.2021 0
M  V30 626 O 65.8664 -1.93833 0.269707 0
M  V30 627 C 66.1654 -0.680386 3.50864 0
M  V30 628 C 65.8314 0.456699 4.48581 0
M  V30 629 C 64.4934 0.768824 4.75018 0
M  V30 630 C 66.8454 1.22098 5.06697 0
M  V30 631 C 64.1734 1.84812 5.56831 0
M  V30 632 C 66.5254 2.29029 5.89685 0
M  V30 633 C 65.1894 2.60834 6.14428 0
M  V30 634 H 64.4594 -0.106732 0.733273 0
M  V30 635 H 67.1064 0.43557 1.86481 0
M  V30 636 H 65.4114 -1.48791 3.62448 0
M  V30 637 H 67.1084 -1.16026 3.83847 0
M  V30 638 H 63.6984 0.203337 4.28117 0
M  V30 639 H 67.8824 0.993096 4.86263 0
M  V30 640 H 63.1384 2.09912 5.74236 0
M  V30 641 H 67.3124 2.887 6.33739 0
M  V30 642 H 64.9394 3.44596 6.77612 0
M  V30 643 N 66.5145 -1.57545 0.0417849 0
M  V30 644 C 67.4615 -2.10977 -0.935805 0
M  V30 645 C 68.4315 -1.01486 -1.31491 0
M  V30 646 O 69.6165 -1.2898 -1.40602 0
M  V30 647 C 66.7565 -2.65169 -2.2086 0
M  V30 648 C 65.8695 -3.88714 -1.88482 0
M  V30 649 C 65.0045 -4.31254 -3.1015 0
M  V30 650 C 64.0435 -5.47524 -2.7365 0
M  V30 651 N 63.1805 -5.85162 -3.87982 0
M  V30 652 H 68.0205 -2.94218 -0.473249 0
M  V30 653 H 65.5575 -1.45415 -0.221981 0
M  V30 654 H 67.5155 -2.94685 -2.95325 0
M  V30 655 H 66.1455 -1.8474 -2.64709 0
M  V30 656 H 65.1975 -3.65849 -1.04205 0
M  V30 657 H 66.5095 -4.73245 -1.57608 0
M  V30 658 H 65.6635 -4.62273 -3.92923 0
M  V30 659 H 64.4025 -3.45516 -3.44195 0
M  V30 660 H 63.4075 -5.16187 -1.89291 0
M  V30 661 H 64.6325 -6.34971 -2.40807 0
M  V30 662 H 62.5785 -5.02377 -4.21846 0
M  V30 663 H 62.4955 -6.64362 -3.60775 0
M  V30 664 H 63.7635 -6.20791 -4.71422 0
M  V30 665 N 67.9926 0.231505 -1.5589 0
M  V30 666 C 69.2406 0.955461 -1.78088 0
M  V30 667 C 69.5616 1.85262 -0.608533 0
M  V30 668 O 68.8316 1.92277 0.375035 0
M  V30 669 H 67.4116 0.355787 -0.656829 0
M  V30 670 H 70.0736 0.245751 -1.93344 0
M  V30 671 H 69.1696 1.56814 -2.69844 0
M  V30 672 N 69.4707 1.49531 0.497807 0
M  V30 673 C 70.7167 1.59415 1.25358 0
M  V30 674 C 71.0497 0.281422 1.9215 0
M  V30 675 O 70.3247 -0.715249 1.80871 0
M  V30 676 C 70.6077 2.75566 2.3181 0
M  V30 677 C 70.4607 4.16642 1.69498 0
M  V30 678 C 71.7797 2.87347 3.33346 0
M  V30 679 H 68.8987 0.580244 0.454408 0
M  V30 680 H 71.5407 1.81827 0.551262 0
M  V30 681 H 69.6907 2.56587 2.91711 0
M  V30 682 H 71.3627 4.47145 1.13399 0
M  V30 683 H 69.6057 4.22141 0.998978 0
M  V30 684 H 70.2767 4.93792 2.46725 0
M  V30 685 H 72.7527 3.04634 2.83438 0
M  V30 686 H 71.6287 3.70289 4.05188 0
M  V30 687 H 71.8897 1.96834 3.95865 0
M  V30 688 N 70.9488 -0.749086 1.3866 0
M  V30 689 C 72.1968 -1.50535 1.34847 0
M  V30 690 C 72.5178 -1.94909 -0.0595016 0
M  V30 691 O 71.7878 -1.67973 -1.00806 0
M  V30 692 H 70.3678 -0.558395 0.49619 0
M  V30 693 H 73.0298 -0.890165 1.73384 0
M  V30 694 H 72.1258 -2.39413 2.00219 0
M  V30 695 N 72.4269 -1.23603 -0.977757 0
M  V30 696 C 73.3739 -1.01954 -2.07061 0
M  V30 697 C 74.3439 0.0638697 -1.65977 0
M  V30 698 O 75.5289 -0.0887624 -1.90593 0
M  V30 699 C 72.6689 -0.619658 -3.39491 0
M  V30 700 C 71.7819 -1.77547 -3.93829 0
M  V30 701 C 70.9169 -1.32212 -5.14484 0
M  V30 702 C 69.9559 -2.44852 -5.60994 0
M  V30 703 N 69.0929 -2.00456 -6.72876 0
M  V30 704 H 73.9329 -1.95495 -2.24913 0
M  V30 705 H 71.4699 -0.973861 -1.10247 0
M  V30 706 H 73.4279 -0.368898 -4.15566 0
M  V30 707 H 72.0579 0.278752 -3.21594 0
M  V30 708 H 71.1099 -2.14016 -3.14486 0
M  V30 709 H 72.4219 -2.62219 -4.24314 0
M  V30 710 H 71.5759 -1.02965 -5.97899 0
M  V30 711 H 70.3149 -0.445808 -4.85658 0
M  V30 712 H 69.3199 -2.74871 -4.76157 0
M  V30 713 H 70.5449 -3.33024 -5.91837 0
M  V30 714 H 68.4909 -1.15208 -6.45804 0
M  V30 715 H 68.4079 -2.78687 -7.02759 0
M  V30 716 H 69.6759 -1.7432 -7.59758 0
M  V30 717 N 73.905 1.17692 -1.04816 0
M  V30 718 C 75.153 1.87488 -0.754497 0
M  V30 719 C 75.474 1.81205 0.720407 0
M  V30 720 O 74.744 1.23544 1.52032 0
M  V30 721 H 73.324 0.694101 -0.276102 0
M  V30 722 H 75.986 1.42793 -1.32651 0
M  V30 723 H 75.082 2.93328 -1.06606 0
M  V30 724 N 75.3831 0.828654 1.34056 0
M  V30 725 C 76.6081 0.431637 2.02859 0
M  V30 726 C 77.0331 -0.956339 1.61975 0
M  V30 727 O 76.3911 -1.62338 0.807228 0
M  V30 728 C 76.4391 0.548323 3.56407 0
M  V30 729 O 75.5431 -0.429556 4.10157 0
M  V30 730 H 74.8841 0.176886 0.640006 0
M  V30 731 H 77.4141 1.12066 1.71179 0
M  V30 732 H 77.4241 0.426196 4.05768 0
M  V30 733 H 76.0991 1.5606 3.8551 0
M  V30 734 H 74.6761 -0.265836 3.71951 0
M  V30 735 N 76.8612 -1.46375 0.584142 0
M  V30 736 C 77.7912 -2.33103 -0.136037 0
M  V30 737 C 78.7722 -1.45431 -0.882255 0
M  V30 738 O 79.9572 -1.74246 -0.857434 0
M  V30 739 C 77.0872 -3.27731 -1.14933 0
M  V30 740 C 76.0412 -4.24855 -0.517862 0
M  V30 741 C 75.3672 -5.09001 -1.63773 0
M  V30 742 C 76.6672 -5.19439 0.545886 0
M  V30 743 H 78.3612 -2.93568 0.588086 0
M  V30 744 H 75.9072 -1.41166 0.284259 0
M  V30 745 H 77.8602 -3.87261 -1.66153 0
M  V30 746 H 76.5842 -2.65377 -1.90375 0
M  V30 747 H 75.2432 -3.6659 -0.0267361 0
M  V30 748 H 74.8912 -4.43031 -2.38185 0
M  V30 749 H 74.5912 -5.74777 -1.22085 0
M  V30 750 H 76.1152 -5.71396 -2.15266 0
M  V30 751 H 77.5292 -5.73177 0.118704 0
M  V30 752 H 75.9262 -5.93566 0.88317 0
M  V30 753 H 76.9962 -4.63285 1.43162 0
M  V30 754 N 78.3393 -0.321999 -1.54275 0
M  V30 755 C 79.3023 0.531975 -2.22941 0
M  V30 756 C 80.3023 1.04478 -1.22234 0
M  V30 757 O 81.4923 0.937452 -1.46825 0
M  V30 758 C 78.6243 1.73874 -2.93224 0
M  V30 759 H 79.8173 -0.0682612 -2.99822 0
M  V30 760 H 77.3703 -0.0730644 -1.56129 0
M  V30 761 H 78.1053 2.37825 -2.20476 0
M  V30 762 H 77.8903 1.37847 -3.6707 0
M  V30 763 H 79.3803 2.34496 -3.45545 0
M  V30 764 N 79.8174 1.5752 -0.0501392 0
M  V30 765 C 80.7804 2.1037 0.909786 0
M  V30 766 C 81.7804 1.02308 1.24056 0
M  V30 767 O 82.9704 1.28385 1.17741 0
M  V30 768 C 80.1024 2.58708 2.21998 0
M  V30 769 H 81.2954 2.96479 0.451665 0
M  V30 770 H 78.8484 1.55038 0.198248 0
M  V30 771 H 79.5834 1.75989 2.72394 0
M  V30 772 H 79.3684 3.37675 1.99295 0
M  V30 773 H 80.8584 2.99747 2.9076 0
M  V30 774 N 81.2955 -0.223234 1.56011 0
M  V30 775 C 82.5725 -0.972108 1.69733 0
M  V30 776 C 82.9525 -2.02485 0.59691 0
M  V30 777 O 82.3005 -2.25037 -0.396324 0
M  V30 778 C 82.5105 -1.58407 3.10979 0
M  V30 779 C 83.8585 -2.07696 3.70334 0
M  V30 780 O 84.8825 -1.68304 3.1393 0
M  V30 781 O 83.7415 -2.80096 4.69264 0
M  V30 782 H 80.8355 -0.453993 0.691245 0
M  V30 783 H 83.3815 -0.215149 1.68331 0
M  V30 784 H 82.1535 -0.823831 3.82529 0
M  V30 785 H 81.7765 -2.40661 3.16493 0
M  V30 786 N 82.7736 -1.49793 -0.48987 0
M  V30 787 C 83.7206 -1.67281 -1.59014 0
M  V30 788 C 84.6906 -0.514177 -1.57941 0
M  V30 789 O 85.8756 -0.742533 -1.75759 0
M  V30 790 C 83.0156 -1.75569 -2.97102 0
M  V30 791 C 82.1286 -3.0281 -3.08107 0
M  V30 792 C 81.2636 -3.02008 -4.36995 0
M  V30 793 C 80.3026 -4.23782 -4.41673 0
M  V30 794 N 79.4396 -4.20826 -5.62005 0
M  V30 795 H 84.2796 -2.61224 -1.43409 0
M  V30 796 H 81.8166 -1.29508 -0.697565 0
M  V30 797 H 83.7746 -1.78354 -3.77155 0
M  V30 798 H 82.4046 -0.850827 -3.11385 0
M  V30 799 H 81.4566 -3.09584 -2.21047 0
M  V30 800 H 82.7686 -3.92801 -3.07423 0
M  V30 801 H 81.9226 -3.03418 -5.25378 0
M  V30 802 H 80.6616 -2.09815 -4.4026 0
M  V30 803 H 79.6666 -4.22604 -3.5169 0
M  V30 804 H 80.8916 -5.17181 -4.40115 0
M  V30 805 H 78.8376 -3.31476 -5.66091 0
M  V30 806 H 78.7546 -5.04564 -5.62984 0
M  V30 807 H 80.0226 -4.26355 -6.52565 0
M  V30 808 N 84.2517 0.741722 -1.39055 0
M  V30 809 C 85.4977 1.50336 -1.36113 0
M  V30 810 C 85.8307 1.94148 0.0450796 0
M  V30 811 O 85.1057 1.66301 1.00868 0
M  V30 812 C 85.3887 2.74773 -2.32749 0
M  V30 813 C 85.2417 2.37023 -3.82283 0
M  V30 814 C 86.5607 3.76846 -2.27322 0
M  V30 815 H 83.6797 0.545351 -0.495743 0
M  V30 816 H 86.3217 0.848624 -1.69995 0
M  V30 817 H 84.4717 3.30639 -2.03986 0
M  V30 818 H 86.1437 1.8684 -4.21768 0
M  V30 819 H 84.3867 1.69334 -3.99385 0
M  V30 820 H 85.0577 3.26104 -4.45376 0
M  V30 821 H 87.5337 3.30548 -2.5274 0
M  V30 822 H 86.4097 4.6159 -2.97028 0
M  V30 823 H 86.6707 4.23286 -1.27599 0
M  V30 824 N 85.7298 1.2412 0.971189 0
M  V30 825 C 86.9758 1.08041 1.71625 0
M  V30 826 C 87.3088 -0.380407 1.90438 0
M  V30 827 O 86.5838 -1.28127 1.46334 0
M  V30 828 C 86.8668 1.81682 3.10908 0
M  V30 829 C 86.7198 3.35493 2.99608 0
M  V30 830 C 88.0388 1.58671 4.10501 0
M  V30 831 H 85.1578 0.39388 0.622919 0
M  V30 832 H 87.7998 1.52743 1.13003 0
M  V30 833 H 85.9498 1.43684 3.60953 0
M  V30 834 H 87.6218 3.83068 2.57015 0
M  V30 835 H 85.8648 3.64052 2.35899 0
M  V30 836 H 86.5358 3.82217 3.98264 0
M  V30 837 H 89.0118 1.91719 3.69301 0
M  V30 838 H 87.8878 2.1266 5.06031 0
M  V30 839 H 88.1488 0.524161 4.38982 0
M  V30 840 N 87.2079 -1.17134 1.05439 0
M  V30 841 C 88.1179 -2.24878 0.668365 0
M  V30 842 C 89.1339 -1.71186 -0.311687 0
M  V30 843 O 90.3099 -2.00738 -0.163161 0
M  V30 844 C 87.3749 -3.46662 0.051648 0
M  V30 845 C 86.4359 -4.15429 1.08246 0
M  V30 846 C 85.6689 -5.31399 0.495082 0
M  V30 847 O 85.8919 -5.66153 -0.694743 0
M  V30 848 O 84.8259 -5.89187 1.23056 0
M  V30 849 H 88.6519 -2.60189 1.56637 0
M  V30 850 H 86.2369 -1.24482 0.826104 0
M  V30 851 H 88.1189 -4.20394 -0.290966 0
M  V30 852 H 86.7939 -3.13142 -0.819971 0
M  V30 853 H 85.7009 -3.43704 1.47711 0
M  V30 854 H 87.0339 -4.52982 1.92532 0
M  V30 855 N 88.686 -0.835752 -1.33615 0
M  V30 856 C 89.596 -0.269088 -2.33052 0
M  V30 857 C 90.612 0.603251 -1.63208 0
M  V30 858 O 91.788 0.508112 -1.94885 0
M  V30 859 C 88.853 0.549091 -3.42324 0
M  V30 860 C 87.914 -0.347156 -4.27894 0
M  V30 861 C 87.147 0.43207 -5.31948 0
M  V30 862 O 87.37 1.66409 -5.45586 0
M  V30 863 O 86.304 -0.192298 -6.01593 0
M  V30 864 H 90.13 -1.09243 -2.83372 0
M  V30 865 H 87.715 -0.598198 -1.36901 0
M  V30 866 H 89.597 1.01414 -4.09015 0
M  V30 867 H 88.272 1.34955 -2.94226 0
M  V30 868 H 87.179 -0.859979 -3.64081 0
M  V30 869 H 88.512 -1.1123 -4.79467 0
M  V30 870 N 90.1641 1.46063 -0.591896 0
M  V30 871 C 91.4131 2.01547 -0.0786637 0
M  V30 872 C 91.7261 1.46796 1.29268 0
M  V30 873 O 92.9321 1.94157 1.89777 0
M  V30 874 C 91.3881 3.59787 -0.0900024 0
M  V30 875 C 90.9961 4.23534 -1.46023 0
M  V30 876 C 92.7401 4.22895 0.368806 0
M  V30 877 C 90.6471 5.73881 -1.4288 0
M  V30 878 H 89.5771 0.753564 -0.0256388 0
M  V30 879 H 92.2281 1.677 -0.744905 0
M  V30 880 H 90.6101 3.90752 0.642586 0
M  V30 881 H 91.7841 4.04167 -2.21328 0
M  V30 882 H 90.0991 3.72558 -1.85982 0
M  V30 883 H 92.6961 5.33116 0.411258 0
M  V30 884 H 93.0391 3.9247 1.38827 0
M  V30 885 H 93.5721 3.9659 -0.31001 0
M  V30 886 H 90.3111 6.0898 -2.42536 0
M  V30 887 H 89.8311 5.95486 -0.718095 0
M  V30 888 H 91.5101 6.36776 -1.14565 0
M  V30 889 N 91.6422 0.330177 1.54103 0
M  V30 890 C 93.0582 -0.0222371 1.59585 0
M  V30 891 C 93.2582 -1.49902 1.34654 0
M  V30 892 O 92.3142 -2.25592 1.13421 0
M  V30 893 C 93.6272 0.401932 2.98002 0
M  V30 894 C 95.1752 0.353145 3.11001 0
M  V30 895 C 95.6502 0.752576 4.51775 0
M  V30 896 N 97.1412 0.706239 4.57784 0
M  V30 897 C 97.8762 0.987417 5.64834 0
M  V30 898 N 97.3722 1.33607 6.79795 0
M  V30 899 N 99.1652 0.91254 5.54643 0
M  V30 900 H 91.3162 1.29228 1.68564 0
M  V30 901 H 93.5792 0.525906 0.78875 0
M  V30 902 H 93.2852 1.4311 3.21267 0
M  V30 903 H 93.1592 -0.229699 3.765 0
M  V30 904 H 95.5462 -0.666822 2.87467 0
M  V30 905 H 95.6272 1.0198 2.34593 0
M  V30 906 H 95.2712 1.77049 4.76042 0
M  V30 907 H 95.2012 0.0635409 5.26562 0
M  V30 908 H 97.6922 0.44889 3.75224 0
M  V30 909 H 98.0052 1.53582 7.57385 0
M  V30 910 H 96.3502 1.37439 6.81275 0
M  V30 911 H 99.5412 0.639601 4.6371 0
M  V30 912 H 99.7142 1.13503 6.37982 0
M  V30 913 N 93.1203 -1.57491 0.0584922 0
M  V30 914 C 94.5363 -1.56792 -0.298091 0
M  V30 915 C 94.7363 -1.06679 -1.70944 0
M  V30 916 O 93.7923 -0.726672 -2.41818 0
M  V30 917 C 95.1053 -3.00461 -0.119879 0
M  V30 918 C 96.6533 -3.1242 -0.190428 0
M  V30 919 C 97.1283 -4.57982 -0.0406567 0
M  V30 920 N 98.6193 -4.63099 -0.0966958 0
M  V30 921 C 99.3543 -5.734 -0.00502943 0
M  V30 922 N 98.8503 -6.9266 0.139402 0
M  V30 923 N 100.643 -5.62067 -0.0611391 0
M  V30 924 H 92.7943 -1.88386 0.98105 0
M  V30 925 H 95.0573 -0.867865 0.381463 0
M  V30 926 H 94.7633 -3.41187 0.85349 0
M  V30 927 H 94.6373 -3.66843 -0.877833 0
M  V30 928 H 97.0243 -2.71589 -1.15427 0
M  V30 929 H 97.1053 -2.48702 0.598405 0
M  V30 930 H 96.7493 -4.995 0.919897 0
M  V30 931 H 96.6793 -5.19715 -0.848727 0
M  V30 932 H 99.1703 -3.77331 -0.207277 0
M  V30 933 H 99.4833 -7.72536 0.201855 0
M  V30 934 H 97.8283 -6.94781 0.174586 0
M  V30 935 H 101.019 -4.67782 -0.172583 0
M  V30 936 H 101.192 -6.47999 0.0137562 0
M  V30 937 N 94.5984 0.214957 -1.56127 0
M  V30 938 C 96.0144 0.564948 -1.49267 0
M  V30 939 C 96.2144 1.86827 -0.754838 0
M  V30 940 O 95.2704 2.50745 -0.297198 0
M  V30 941 C 96.5834 0.638071 -2.93852 0
M  V30 942 C 98.1314 0.728253 -3.0441 0
M  V30 943 C 98.6064 0.832663 -4.50367 0
M  V30 944 N 100.097 0.896712 -4.54437 0
M  V30 945 C 100.832 0.997324 -5.6466 0
M  V30 946 N 100.328 1.06147 -6.8462 0
M  V30 947 N 102.121 1.03297 -5.52527 0
M  V30 948 H 94.2724 -0.640211 -2.02522 0
M  V30 949 H 96.5354 -0.225507 -0.920788 0
M  V30 950 H 96.2414 -0.250126 -3.50809 0
M  V30 951 H 96.1154 1.49947 -3.46115 0
M  V30 952 H 98.5024 1.60689 -2.47514 0
M  V30 953 H 98.5834 -0.158952 -2.55306 0
M  V30 954 H 98.2274 -0.0415417 -5.07883 0
M  V30 955 H 98.1574 1.73538 -4.97184 0
M  V30 956 H 100.648 0.857188 -3.6805 0
M  V30 957 H 100.961 1.1382 -7.64372 0
M  V30 958 H 99.3064 1.03049 -6.87318 0
M  V30 959 H 102.497 0.979558 -4.57736 0
M  V30 960 H 102.67 1.10793 -6.38458 0
M  V30 961 N 96.0765 1.50051 0.48192 0
M  V30 962 C 97.3245 1.60181 1.23234 0
M  V30 963 C 97.6455 0.299176 1.92691 0
M  V30 964 O 96.9155 -0.682708 1.83619 0
M  V30 965 H 95.4955 0.590232 0.457859 0
M  V30 966 H 98.1575 1.86775 0.556881 0
M  V30 967 H 97.2535 2.40753 1.98607 0
M  V30 968 N 97.5546 -0.734337 1.39446 0
M  V30 969 C 98.8026 -1.49096 1.36436 0
M  V30 970 C 99.1236 -1.94961 -0.0388255 0
M  V30 971 O 98.3936 -1.69033 -0.990191 0
M  V30 972 H 96.9736 -0.5531 0.502085 0
M  V30 973 H 99.6356 -0.871725 1.74319 0
M  V30 974 H 98.7316 -2.37276 2.02747 0
M  V30 975 N 99.0327 -1.24633 -0.964593 0
M  V30 976 C 99.9797 -1.04144 -2.05968 0
M  V30 977 C 100.95 0.046262 -1.66036 0
M  V30 978 O 102.135 -0.108972 -1.90489 0
M  V30 979 C 99.2747 -0.65563 -3.38815 0
M  V30 980 C 98.3877 -1.81714 -3.91923 0
M  V30 981 C 97.5227 -1.37662 -5.13052 0
M  V30 982 C 96.5617 -2.50788 -5.58365 0
M  V30 983 N 95.6987 -2.07582 -6.70712 0
M  V30 984 H 100.539 -1.9787 -2.22827 0
M  V30 985 H 98.0757 -0.9855 -1.09208 0
M  V30 986 H 100.034 -0.412954 -4.15151 0
M  V30 987 H 98.6637 0.244627 -3.21872 0
M  V30 988 H 97.7157 -2.1734 -3.12198 0
M  V30 989 H 99.0277 -2.66705 -4.21509 0
M  V30 990 H 98.1817 -1.093 -5.96773 0
M  V30 991 H 96.9207 -0.497293 -4.85158 0
M  V30 992 H 95.9257 -2.79906 -4.73215 0
M  V30 993 H 97.1507 -3.39283 -5.88272 0
M  V30 994 H 95.0967 -1.22051 -6.44546 0
M  V30 995 H 95.0137 -2.86125 -6.99763 0
M  V30 996 H 96.2817 -1.82369 -7.57867 0
M  V30 997 N 100.511 1.16574 -1.06058 0
M  V30 998 C 101.474 2.19085 -0.673392 0
M  V30 999 C 102.474 1.5835 0.279648 0
M  V30 1000 O 103.664 1.74088 0.0623488 0
M  V30 1001 C 100.796 3.40899 0.00954234 0
M  V30 1002 H 101.989 2.54853 -1.58081 0
M  V30 1003 H 99.5418 1.30808 -0.855516 0
M  V30 1004 H 100.277 3.10684 0.929826 0
M  V30 1005 H 100.062 3.86233 -0.67573 0
M  V30 1006 H 101.552 4.1675 0.266245 0
M  V30 1007 N 101.989 0.842826 1.3317 0
M  V30 1008 C 103.235 0.441099 1.97945 0
M  V30 1009 C 103.568 -0.998024 1.66593 0
M  V30 1010 O 102.843 -1.69839 0.947898 0
M  V30 1011 C 103.126 0.666841 3.53872 0
M  V30 1012 C 102.979 2.15352 3.94897 0
M  V30 1013 C 104.298 0.115544 4.39948 0
M  V30 1014 H 101.417 0.161739 0.719034 0
M  V30 1015 H 104.059 1.05907 1.57746 0
M  V30 1016 H 102.209 0.140828 3.88245 0
M  V30 1017 H 103.881 2.7447 3.70761 0
M  V30 1018 H 102.124 2.63653 3.44484 0
M  V30 1019 H 102.795 2.26221 5.03516 0
M  V30 1020 H 105.271 0.565213 4.12243 0
M  V30 1021 H 104.147 0.303152 5.48062 0
M  V30 1022 H 104.408 -0.980935 4.3108 0
M  V30 1023 N 103.467 -1.45747 0.599634 0
M  V30 1024 C 104.43 -2.28917 -0.113835 0
M  V30 1025 C 105.43 -1.3933 -0.802729 0
M  V30 1026 O 106.62 -1.61534 -0.652103 0
M  V30 1027 C 103.752 -3.20152 -1.17114 0
M  V30 1028 H 104.945 -2.93478 0.617289 0
M  V30 1029 H 102.498 -1.52137 0.358327 0
M  V30 1030 H 103.233 -2.60374 -1.93329 0
M  V30 1031 H 103.018 -3.86133 -0.681468 0
M  V30 1032 H 104.508 -3.82708 -1.67105 0
M  V30 1033 N 104.945 -0.338344 -1.53925 0
M  V30 1034 C 105.893 0.536231 -2.26335 0
M  V30 1035 C 106.887 1.1063 -1.28286 0
M  V30 1036 O 108.093 1.05264 -1.46012 0
M  V30 1037 H 104.468 0.191602 -0.727181 0
M  V30 1038 H 106.439 -0.0965747 -2.98244 0
M  V30 1039 C 105.188 1.67803 -3.04528 0
M  V30 1040 H 104.511 1.24864 -3.79801 0
M  V30 1041 H 105.951 2.26526 -3.58416 0
M  V30 1042 C 104.41 2.60439 -2.13712 0
M  V30 1043 O 104.94 3.6255 -1.72975 0
M  V30 1044 N 103.146 2.29006 -1.78898 0
M  V30 1045 H 102.693 1.46011 -2.12223 0
M  V30 1046 H 102.651 2.91248 -1.18416 0
M  V30 1047 N 106.423 1.57458 -0.0668435 0
M  V30 1048 C 107.653 1.97337 0.611677 0
M  V30 1049 C 108.061 0.943744 1.63982 0
M  V30 1050 O 107.404 -0.0785584 1.83532 0
M  V30 1051 C 107.466 3.33511 1.34205 0
M  V30 1052 C 107.13 4.54598 0.467941 0
M  V30 1053 C 108.127 5.19186 -0.272439 0
M  V30 1054 C 105.812 5.0075 0.39427 0
M  V30 1055 C 107.806 6.28274 -1.07476 0
M  V30 1056 C 105.493 6.09711 -0.411729 0
M  V30 1057 C 106.491 6.73335 -1.14492 0
M  V30 1058 O 106.179 7.80199 -1.93763 0
M  V30 1059 H 105.911 0.654042 0.170893 0
M  V30 1060 H 108.465 2.04961 -0.134289 0
M  V30 1061 H 106.695 3.22487 2.13398 0
M  V30 1062 H 108.384 3.58029 1.91233 0
M  V30 1063 H 109.15 4.84477 -0.225086 0
M  V30 1064 H 105.029 4.51009 0.954569 0
M  V30 1065 H 108.573 6.77866 -1.64755 0
M  V30 1066 H 104.47 6.43854 -0.460664 0
M  V30 1067 H 105.238 7.97053 -1.86142 0
M  V30 1068 N 107.901 -0.206675 1.56239 0
M  V30 1069 C 109.178 -0.954051 1.70755 0
M  V30 1070 C 109.558 -2.01841 0.618353 0
M  V30 1071 O 108.906 -2.25444 -0.372434 0
M  V30 1072 C 109.116 -1.551 3.12642 0
M  V30 1073 C 110.464 -2.03757 3.72516 0
M  V30 1074 O 111.488 -1.64965 3.15698 0
M  V30 1075 O 110.347 -2.75103 4.72208 0
M  V30 1076 H 107.441 -0.446636 0.696021 0
M  V30 1077 H 109.987 -0.197283 1.68549 0
M  V30 1078 H 108.759 -0.783212 3.83382 0
M  V30 1079 H 108.382 -2.37291 3.19028 0
M  V30 1080 N 109.379 -1.50304 -0.473955 0
M  V30 1081 C 110.604 -1.65175 -1.25427 0
M  V30 1082 C 111.029 -0.333673 -1.85117 0
M  V30 1083 O 110.387 0.702114 -1.67153 0
M  V30 1084 C 110.435 -2.74295 -2.34082 0
M  V30 1085 O 109.539 -2.35349 -3.38651 0
M  V30 1086 H 108.88 -0.551944 -0.369126 0
M  V30 1087 H 111.41 -1.96662 -0.564364 0
M  V30 1088 H 111.42 -2.97285 -2.79438 0
M  V30 1089 H 110.095 -3.69959 -1.90008 0
M  V30 1090 H 108.672 -2.22794 -2.99027 0
M  V30 1091 N 110.857 0.726932 -1.39834 0
M  V30 1092 C 112.103 1.48884 -1.377 0
M  V30 1093 C 112.436 1.94185 0.0244852 0
M  V30 1094 O 111.711 1.67361 0.990986 0
M  V30 1095 C 111.994 2.72288 -2.3565 0
M  V30 1096 C 111.847 2.32956 -3.84775 0
M  V30 1097 C 113.166 3.74414 -2.31306 0
M  V30 1098 H 110.285 0.540062 -0.5015 0
M  V30 1099 H 112.927 0.830547 -1.70886 0
M  V30 1100 H 111.077 3.28457 -2.07481 0
M  V30 1101 H 112.749 1.82356 -4.23726 0
M  V30 1102 H 110.992 1.65088 -4.01159 0
M  V30 1103 H 111.663 3.21362 -4.4881 0
M  V30 1104 H 114.139 3.27849 -2.56231 0
M  V30 1105 H 113.015 4.58414 -3.01907 0
M  V30 1106 H 113.276 4.21909 -1.32081 0
M  V30 1107 N 112.336 1.25143 0.95797 0
M  V30 1108 C 113.246 1.06968 2.08794 0
M  V30 1109 C 114.262 0.00773911 1.73998 0
M  V30 1110 O 115.438 0.207972 2.00323 0
M  V30 1111 C 112.503 0.68691 3.39827 0
M  V30 1112 C 111.564 1.82641 3.88511 0
M  V30 1113 C 110.797 1.46181 5.1329 0
M  V30 1114 O 111.02 0.355971 5.69288 0
M  V30 1115 O 109.954 2.29085 5.566 0
M  V30 1116 H 113.78 2.01723 2.27027 0
M  V30 1117 H 111.365 1.04051 1.07209 0
M  V30 1118 H 113.247 0.485417 4.18595 0
M  V30 1119 H 111.922 -0.231417 3.22872 0
M  V30 1120 H 110.829 2.08274 3.10762 0
M  V30 1121 H 112.162 2.72386 4.09959 0
M  V30 1122 N 113.814 -1.1601 1.06675 0
M  V30 1123 C 114.724 -2.24156 0.692179 0
M  V30 1124 C 115.74 -1.71507 -0.293513 0
M  V30 1125 O 116.916 -2.009 -0.141861 0
M  V30 1126 C 113.981 -3.46587 0.0884131 0
M  V30 1127 C 113.042 -4.14257 1.12646 0
M  V30 1128 C 112.275 -5.30844 0.551416 0
M  V30 1129 O 112.498 -5.66858 -0.634656 0
M  V30 1130 O 111.432 -5.87848 1.29298 0
M  V30 1131 H 115.258 -2.58513 1.59388 0
M  V30 1132 H 112.843 -1.23599 0.83926 0
M  V30 1133 H 114.725 -4.20679 -0.246361 0
M  V30 1134 H 113.4 -3.13994 -0.786712 0
M  V30 1135 H 112.307 -3.42118 1.51348 0
M  V30 1136 H 113.64 -4.50914 1.97325 0
M  V30 1137 N 115.292 -0.849877 -1.32721 0
M  V30 1138 C 116.54 -0.450032 -1.97026 0
M  V30 1139 C 116.861 0.996604 -1.67609 0
M  V30 1140 O 116.131 1.6958 -0.980786 0
M  V30 1141 H 114.711 -0.163426 -0.728904 0
M  V30 1142 H 117.373 -1.08526 -1.6189 0
M  V30 1143 H 116.469 -0.591146 -3.0645 0
M  V30 1144 N 116.77 1.45427 -0.607355 0
M  V30 1145 C 117.68 2.34325 0.113463 0
M  V30 1146 C 118.696 1.51226 0.860617 0
M  V30 1147 O 119.872 1.84029 0.818255 0
M  V30 1148 C 116.937 3.28839 1.09844 0
M  V30 1149 C 115.998 4.27844 0.353271 0
M  V30 1150 C 115.231 5.17842 1.29133 0
M  V30 1151 O 115.454 5.11264 2.52913 0
M  V30 1152 O 114.388 5.96713 0.788523 0
M  V30 1153 H 118.214 2.97364 -0.617094 0
M  V30 1154 H 115.799 1.44807 -0.367619 0
M  V30 1155 H 117.681 3.8708 1.66575 0
M  V30 1156 H 116.356 2.68365 1.81003 0
M  V30 1157 H 115.263 3.7322 -0.256494 0
M  V30 1158 H 116.596 4.91173 -0.317822 0
M  V30 1159 N 118.248 0.346503 1.53744 0
M  V30 1160 C 119.195 -0.508914 2.25119 0
M  V30 1161 C 120.165 -1.09315 1.25058 0
M  V30 1162 O 121.35 -1.12921 1.53797 0
M  V30 1163 C 118.49 -1.65246 3.02965 0
M  V30 1164 C 117.603 -1.09525 4.17886 0
M  V30 1165 C 116.738 -2.20634 4.83212 0
M  V30 1166 C 115.777 -1.62279 5.90196 0
M  V30 1167 N 114.914 -2.67143 6.49291 0
M  V30 1168 H 119.754 0.106283 2.9781 0
M  V30 1169 H 117.291 0.0642227 1.4696 0
M  V30 1170 H 119.249 -2.32574 3.4636 0
M  V30 1171 H 117.879 -2.2386 2.32565 0
M  V30 1172 H 116.931 -0.312818 3.79112 0
M  V30 1173 H 118.243 -0.628444 4.94825 0
M  V30 1174 H 117.397 -2.95821 5.29693 0
M  V30 1175 H 116.136 -2.70659 4.05703 0
M  V30 1176 H 115.141 -0.855989 5.43096 0
M  V30 1177 H 116.366 -1.13102 6.69615 0
M  V30 1178 H 114.312 -3.16417 5.74645 0
M  V30 1179 H 114.229 -2.25093 7.21713 0
M  V30 1180 H 115.497 -3.4209 7.00425 0
M  V30 1181 N 119.726 -1.57421 0.075193 0
M  V30 1182 C 120.972 -1.93905 -0.594025 0
M  V30 1183 C 121.305 -0.955701 -1.69056 0
M  V30 1184 O 120.58 0.0145373 -1.94495 0
M  V30 1185 C 120.863 -3.40638 -1.1678 0
M  V30 1186 C 120.716 -4.49733 -0.0776792 0
M  V30 1187 C 122.035 -3.88259 -2.07228 0
M  V30 1188 H 119.154 -0.705105 -0.214466 0
M  V30 1189 H 121.796 -1.8947 0.141854 0
M  V30 1190 H 119.946 -3.44549 -1.79494 0
M  V30 1191 H 121.618 -4.57942 0.555573 0
M  V30 1192 H 119.861 -4.29751 0.591286 0
M  V30 1193 H 120.532 -5.49549 -0.519603 0
M  V30 1194 H 123.008 -3.86376 -1.54445 0
M  V30 1195 H 121.884 -4.91533 -2.44308 0
M  V30 1196 H 122.145 -3.26396 -2.98191 0
M  V30 1197 N 121.204 0.198386 -1.56346 0
M  V30 1198 C 122.45 0.920648 -1.80698 0
M  V30 1199 C 122.783 1.83045 -0.648697 0
M  V30 1200 O 122.058 1.91308 0.350925 0
M  V30 1201 C 122.341 1.73971 -3.15287 0
M  V30 1202 C 122.194 0.85485 -4.41602 0
M  V30 1203 C 123.513 2.71296 -3.46535 0
M  V30 1204 H 120.632 0.333261 -0.657348 0
M  V30 1205 H 123.274 0.188198 -1.89066 0
M  V30 1206 H 121.424 2.36416 -3.08285 0
M  V30 1207 H 123.096 0.245362 -4.60647 0
M  V30 1208 H 121.339 0.161398 -4.335 0
M  V30 1209 H 122.01 1.46286 -5.32264 0
M  V30 1210 H 124.486 2.18983 -3.53816 0
M  V30 1211 H 123.362 3.2569 -4.41834 0
M  V30 1212 H 123.623 3.5018 -2.69864 0
M  V30 1213 N 122.682 1.50554 0.465978 0
M  V30 1214 C 123.629 1.6979 1.56333 0
M  V30 1215 C 124.599 0.539239 1.57103 0
M  V30 1216 O 125.784 0.770401 1.74555 0
M  V30 1217 C 122.924 1.80273 2.94271 0
M  V30 1218 C 122.037 3.07674 3.0325 0
M  V30 1219 C 121.172 3.08922 4.32135 0
M  V30 1220 C 120.211 4.30755 4.34875 0
M  V30 1221 N 119.348 4.29714 5.55239 0
M  V30 1222 H 124.188 2.63472 1.39235 0
M  V30 1223 H 121.725 1.30602 0.676873 0
M  V30 1224 H 123.683 1.84332 3.74269 0
M  V30 1225 H 122.313 0.900258 3.09992 0
M  V30 1226 H 121.365 3.13062 2.16094 0
M  V30 1227 H 122.677 3.97642 3.01135 0
M  V30 1228 H 121.831 3.11738 5.20485 0
M  V30 1229 H 120.57 2.16792 4.36866 0
M  V30 1230 H 119.575 4.28146 3.44922 0
M  V30 1231 H 120.8 5.24117 4.31831 0
M  V30 1232 H 118.746 3.4044 5.60746 0
M  V30 1233 H 118.663 5.13456 5.54886 0
M  V30 1234 H 119.931 4.36683 6.457 0
M  V30 1235 N 124.16 -0.719506 1.40217 0
M  V30 1236 C 125.388 -1.50864 1.41589 0
M  V30 1237 C 125.803 -1.88794 0.0145275 0
M  V30 1238 O 125.16 -1.55174 -0.960594 0
M  V30 1239 C 125.211 -2.78646 2.30302 0
M  V30 1240 O 124.932 -2.42321 3.64983 0
M  V30 1241 C 126.433 -3.72569 2.40224 0
M  V30 1242 H 123.653 -0.465709 0.48307 0
M  V30 1243 H 126.197 -0.88785 1.84221 0
M  V30 1244 H 124.352 -3.37019 1.91042 0
M  V30 1245 H 124.766 -3.24514 4.12057 0
M  V30 1246 H 126.24 -4.5908 3.06512 0
M  V30 1247 H 126.717 -4.15403 1.42608 0
M  V30 1248 H 127.323 -3.20109 2.80019 0
M  V30 1249 N 125.638 -1.25649 -0.95132 0
M  V30 1250 C 126.601 -1.06399 -2.03007 0
M  V30 1251 C 127.601 -0.0156794 -1.60792 0
M  V30 1252 O 128.791 -0.25817 -1.72276 0
M  V30 1253 C 125.923 -0.616184 -3.35285 0
M  V30 1254 H 127.116 -2.02164 -2.21517 0
M  V30 1255 H 124.669 -1.08103 -1.12887 0
M  V30 1256 H 125.404 0.343917 -3.22471 0
M  V30 1257 H 125.189 -1.37301 -3.67275 0
M  V30 1258 H 126.679 -0.503032 -4.14559 0
M  V30 1259 N 127.117 1.15442 -1.07289 0
M  V30 1260 C 128.047 2.22312 -0.714107 0
M  V30 1261 C 129.028 1.67467 0.298155 0
M  V30 1262 O 130.213 1.93445 0.171048 0
M  V30 1263 C 127.343 3.47124 -0.110448 0
M  V30 1264 C 126.297 4.14926 -1.04979 0
M  V30 1265 C 125.623 5.33807 -0.308924 0
M  V30 1266 C 126.923 4.64762 -2.38314 0
M  V30 1267 H 128.617 2.5258 -1.6076 0
M  V30 1268 H 126.163 1.21404 -0.77441 0
M  V30 1269 H 128.116 4.21124 0.152482 0
M  V30 1270 H 126.84 3.16187 0.81812 0
M  V30 1271 H 125.499 3.42866 -1.29764 0
M  V30 1272 H 125.147 4.99126 0.623084 0
M  V30 1273 H 124.847 5.80113 -0.935036 0
M  V30 1274 H 126.371 6.10576 -0.0537771 0
M  V30 1275 H 127.785 5.30292 -2.1786 0
M  V30 1276 H 126.182 5.21728 -2.96514 0
M  V30 1277 H 127.252 3.80434 -3.00663 0
M  V30 1278 N 128.595 0.856903 1.32268 0
M  V30 1279 C 129.872 0.382583 1.91822 0
M  V30 1280 C 130.252 -1.13407 1.78051 0
M  V30 1281 O 129.6 -1.95673 1.18001 0
M  V30 1282 C 129.81 0.849446 3.38505 0
M  V30 1283 C 131.158 0.867936 4.15634 0
M  V30 1284 O 132.182 0.794232 3.47232 0
M  V30 1285 O 131.041 0.972286 5.37781 0
M  V30 1286 H 128.135 0.112014 0.819379 0
M  V30 1287 H 130.681 0.943952 1.41024 0
M  V30 1288 H 129.453 1.89267 3.42482 0
M  V30 1289 H 129.076 0.265652 3.96712 0
M  V30 1290 N 130.073 -1.45103 0.615059 0
M  V30 1291 C 131.036 -2.29025 -0.0895485 0
M  V30 1292 C 132.036 -1.40174 -0.787906 0
M  V30 1293 O 133.226 -1.62217 -0.634933 0
M  V30 1294 C 130.358 -3.21376 -1.13711 0
M  V30 1295 H 131.551 -2.92807 0.648382 0
M  V30 1296 H 129.104 -1.51749 0.374444 0
M  V30 1297 H 129.839 -2.6241 -1.90556 0
M  V30 1298 H 129.624 -3.86834 -0.640475 0
M  V30 1299 H 131.114 -3.84459 -1.63036 0
M  V30 1300 N 131.551 -0.354651 -1.53558 0
M  V30 1301 C 132.798 0.238443 -2.01091 0
M  V30 1302 C 133.126 1.49663 -1.24222 0
M  V30 1303 O 132.381 1.93049 -0.321003 0
M  V30 1304 C 132.68 0.587121 -3.52545 0
M  V30 1305 C 132.346 -0.575472 -4.47213 0
M  V30 1306 C 131.008 -0.894497 -4.72813 0
M  V30 1307 C 133.36 -1.35489 -5.03281 0
M  V30 1308 C 130.688 -1.99511 -5.51736 0
M  V30 1309 C 133.04 -2.44583 -5.83405 0
M  V30 1310 C 131.704 -2.77033 -6.07296 0
M  V30 1311 H 130.974 0.0872526 -0.735845 0
M  V30 1312 H 133.621 -0.484859 -1.8526 0
M  V30 1313 H 131.926 1.39129 -3.66265 0
M  V30 1314 H 133.623 1.05809 -3.86789 0
M  V30 1315 H 130.213 -0.316774 -4.27428 0
M  V30 1316 H 134.397 -1.12167 -4.83459 0
M  V30 1317 H 129.653 -2.25063 -5.68469 0
M  V30 1318 H 133.827 -3.05401 -6.25862 0
M  V30 1319 H 131.454 -3.6244 -6.68237 0
M  V30 1320 N 133.029 1.57378 -0.0835403 0
M  V30 1321 C 134.277 1.93547 0.581718 0
M  V30 1322 C 134.598 0.96524 1.69435 0
M  V30 1323 O 133.868 0.0153369 1.95894 0
M  V30 1324 H 132.448 0.714521 0.217874 0
M  V30 1325 H 135.11 1.94366 -0.144158 0
M  V30 1326 H 134.206 2.95665 0.999423 0
M  V30 1327 N 134.507 -0.190092 1.56449 0
M  V30 1328 C 135.923 -0.54113 1.50146 0
M  V30 1329 C 136.123 -1.85603 0.784465 0
M  V30 1330 O 135.179 -2.5024 0.337051 0
M  V30 1331 C 136.492 -0.591241 2.9483 0
M  V30 1332 C 138.04 -0.679732 3.0553 0
M  V30 1333 C 138.515 -0.760908 4.51635 0
M  V30 1334 N 140.006 -0.824302 4.55806 0
M  V30 1335 C 140.741 -0.907365 5.66175 0
M  V30 1336 N 140.237 -0.952422 6.86222 0
M  V30 1337 N 142.03 -0.94494 5.541 0
M  V30 1338 H 134.181 0.67235 2.01478 0
M  V30 1339 H 136.444 0.240127 0.917084 0
M  V30 1340 H 136.15 0.305905 3.50367 0
M  V30 1341 H 136.024 -1.44422 3.48457 0
M  V30 1342 H 138.411 -1.56731 2.50039 0
M  V30 1343 H 138.492 0.199549 2.5502 0
M  V30 1344 H 138.136 0.122336 5.07753 0
M  V30 1345 H 138.066 -1.65606 4.99882 0
M  V30 1346 H 140.557 -0.798526 3.69367 0
M  V30 1347 H 140.87 -1.01645 7.66086 0
M  V30 1348 H 139.215 -0.921014 6.8887 0
M  V30 1349 H 142.406 -0.906612 4.59236 0
M  V30 1350 H 142.579 -1.00622 6.4014 0
M  V30 1351 N 135.985 -1.50799 -0.457987 0
M  V30 1352 C 137.234 -1.6168 -1.20593 0
M  V30 1353 C 137.547 -0.32888 -1.92815 0
M  V30 1354 O 138.753 -0.316773 -2.69646 0
M  V30 1355 C 137.209 -2.8545 -2.19195 0
M  V30 1356 C 136.817 -4.21168 -1.52715 0
M  V30 1357 C 138.561 -3.05681 -2.94549 0
M  V30 1358 C 136.468 -5.3611 -2.4968 0
M  V30 1359 H 135.398 -0.602134 -0.453818 0
M  V30 1360 H 138.049 -1.77245 -0.475031 0
M  V30 1361 H 136.431 -2.63472 -2.95632 0
M  V30 1362 H 137.605 -4.53449 -0.819775 0
M  V30 1363 H 135.92 -4.06648 -0.895922 0
M  V30 1364 H 138.517 -3.88727 -3.67145 0
M  V30 1365 H 138.86 -2.17929 -3.54701 0
M  V30 1366 H 139.393 -3.27901 -2.25223 0
M  V30 1367 H 136.132 -6.26057 -1.94249 0
M  V30 1368 H 135.652 -5.0823 -3.18532 0
M  V30 1369 H 137.331 -5.6722 -3.11241 0
M  V30 1370 N 137.463 0.71206 -1.40597 0
M  V30 1371 C 138.74 1.46536 -1.29563 0
M  V30 1372 C 139.12 2.10931 0.0844217 0
M  V30 1373 O 138.468 2.00418 1.0975 0
M  V30 1374 C 138.678 2.49821 -2.43701 0
M  V30 1375 C 140.026 3.15551 -2.841 0
M  V30 1376 O 141.05 2.60142 -2.4332 0
M  V30 1377 O 139.909 4.15867 -3.54566 0
M  V30 1378 H 137.003 0.651801 -0.509004 0
M  V30 1379 H 139.549 0.743935 -1.52524 0
M  V30 1380 H 138.321 2.00778 -3.35863 0
M  V30 1381 H 137.944 3.29495 -2.22528 0
M  V30 1382 N 138.941 1.26152 0.944643 0
M  V30 1383 C 140.187 1.11657 1.69294 0
M  V30 1384 C 140.52 -0.339926 1.91202 0
M  V30 1385 O 139.795 -1.24994 1.49019 0
M  V30 1386 C 140.078 1.88236 3.06984 0
M  V30 1387 C 139.931 3.41772 2.92424 0
M  V30 1388 C 141.25 1.67343 4.07043 0
M  V30 1389 H 138.369 0.407004 0.614424 0
M  V30 1390 H 141.011 1.55106 1.09737 0
M  V30 1391 H 139.161 1.51308 3.57824 0
M  V30 1392 H 140.833 3.88433 2.48832 0
M  V30 1393 H 139.076 3.68974 2.28124 0
M  V30 1394 H 139.747 3.90579 3.90067 0
M  V30 1395 H 142.223 1.99509 3.65151 0
M  V30 1396 H 141.099 2.23346 5.01406 0
M  V30 1397 H 141.36 0.617158 4.37771 0
M  V30 1398 N 140.419 -1.14872 1.07899 0
M  V30 1399 C 141.665 -1.86064 0.806725 0
M  V30 1400 C 141.998 -1.82434 -0.665706 0
M  V30 1401 O 141.273 -1.25138 -1.48899 0
M  V30 1402 C 141.556 -3.34929 1.32267 0
M  V30 1403 C 141.409 -3.47161 2.86006 0
M  V30 1404 C 142.728 -4.29863 0.943717 0
M  V30 1405 H 139.847 -0.675591 0.294526 0
M  V30 1406 H 142.489 -1.34925 1.33773 0
M  V30 1407 H 140.639 -3.78611 0.870974 0
M  V30 1408 H 142.311 -3.12302 3.39507 0
M  V30 1409 H 140.554 -2.88539 3.23925 0
M  V30 1410 H 141.225 -4.51777 3.17177 0
M  V30 1411 H 143.701 -3.9417 1.33302 0
M  V30 1412 H 142.577 -5.32494 1.33198 0
M  V30 1413 H 142.838 -4.41846 -0.149796 0
M  V30 1414 N 141.898 -0.863906 -1.31812 0
M  V30 1415 C 143.144 -0.472535 -1.97218 0
M  V30 1416 C 143.477 0.971394 -1.68159 0
M  V30 1417 O 142.752 1.68309 -0.974798 0
M  V30 1418 C 143.035 -0.723054 -3.52766 0
M  V30 1419 C 142.888 -2.21608 -3.91421 0
M  V30 1420 C 144.207 -0.185522 -4.39709 0
M  V30 1421 H 141.326 -0.173158 -0.71637 0
M  V30 1422 H 143.968 -1.08403 -1.56041 0
M  V30 1423 H 142.118 -0.202577 -3.87971 0
M  V30 1424 H 143.79 -2.80334 -3.66347 0
M  V30 1425 H 142.033 -2.691 -3.40246 0
M  V30 1426 H 142.704 -2.34203 -4.99853 0
M  V30 1427 H 145.18 -0.630726 -4.11292 0
M  V30 1428 H 144.056 -0.390306 -5.47511 0
M  V30 1429 H 144.317 0.912229 -4.32586 0
M  V30 1430 N 143.376 1.44774 -0.622745 0
M  V30 1431 C 144.324 2.32387 0.0994683 0
M  V30 1432 C 145.318 1.46859 0.844326 0
M  V30 1433 O 146.524 1.63254 0.758174 0
M  V30 1434 H 142.899 0.750273 0.0509291 0
M  V30 1435 H 144.87 2.91062 -0.65767 0
M  V30 1436 C 143.619 3.30723 1.07319 0
M  V30 1437 H 142.942 3.96541 0.509462 0
M  V30 1438 H 144.382 3.94725 1.54817 0
M  V30 1439 C 142.841 2.59021 2.15429 0
M  V30 1440 O 143.371 2.38286 3.23393 0
M  V30 1441 N 141.577 2.189 1.91131 0
M  V30 1442 H 141.124 2.35964 1.03337 0
M  V30 1443 H 141.082 1.71251 2.63668 0
M  V30 1444 N 144.854 0.36279 1.53368 0
M  V30 1445 C 145.802 -0.500155 2.27159 0
M  V30 1446 C 146.796 -1.08575 1.3003 0
M  V30 1447 O 148.002 -1.02927 1.47668 0
M  V30 1448 H 144.377 -0.180009 0.730138 0
M  V30 1449 H 146.348 0.14401 2.98052 0
M  V30 1450 C 145.097 -1.62937 3.07159 0
M  V30 1451 H 144.42 -1.18806 3.8174 0
M  V30 1452 H 145.86 -2.20795 3.61975 0
M  V30 1453 C 144.319 -2.57007 2.17829 0
M  V30 1454 O 144.849 -3.59752 1.78721 0
M  V30 1455 N 143.055 -2.26131 1.82518 0
M  V30 1456 H 142.602 -1.42616 2.14519 0
M  V30 1457 H 142.56 -2.89327 1.23034 0
M  V30 1458 N 146.332 -1.57332 0.0918853 0
M  V30 1459 C 147.295 -2.12708 -0.85369 0
M  V30 1460 C 148.295 -1.05561 -1.213 0
M  V30 1461 O 149.485 -1.31461 -1.14296 0
M  V30 1462 C 146.617 -2.64503 -2.15061 0
M  V30 1463 H 147.81 -2.97573 -0.3729 0
M  V30 1464 H 145.363 -1.55509 -0.157072 0
M  V30 1465 H 146.098 -1.83149 -2.67632 0
M  V30 1466 H 145.883 -3.4284 -1.90272 0
M  V30 1467 H 147.373 -3.07351 -2.82711 0
M  V30 1468 N 147.81 0.181792 -1.56548 0
M  V30 1469 C 149.058 0.89832 -1.81038 0
M  V30 1470 C 149.379 1.83232 -0.667164 0
M  V30 1471 O 148.649 1.93372 0.313673 0
M  V30 1472 H 147.229 0.33471 -0.667816 0
M  V30 1473 H 149.891 0.184116 -1.94028 0
M  V30 1474 H 148.987 1.4815 -2.74696 0
M  V30 1475 N 149.288 1.51039 0.449983 0
M  V30 1476 C 150.537 1.62317 1.19733 0
M  V30 1477 C 150.85 0.339101 1.92638 0
M  V30 1478 O 152.056 0.331069 2.69474 0
M  V30 1479 C 150.512 2.86608 2.17678 0
M  V30 1480 C 150.12 4.21972 1.50479 0
M  V30 1481 C 151.864 3.07239 2.92924 0
M  V30 1482 C 149.771 5.37426 2.46834 0
M  V30 1483 H 148.701 0.604532 0.450619 0
M  V30 1484 H 151.352 1.77494 0.465625 0
M  V30 1485 H 149.734 2.65037 2.94231 0
M  V30 1486 H 150.908 4.53878 0.795716 0
M  V30 1487 H 149.223 4.07117 0.874344 0
M  V30 1488 H 151.82 3.90668 3.65079 0
M  V30 1489 H 152.163 2.19807 3.5354 0
M  V30 1490 H 152.696 3.29091 2.23481 0
M  V30 1491 H 149.435 6.27079 1.90926 0
M  V30 1492 H 148.955 5.09912 3.15832 0
M  V30 1493 H 150.634 5.68862 3.08228 0
M  V30 1494 N 150.766 -0.704594 1.40972 0
M  V30 1495 C 151.696 -1.83124 1.44872 0
M  V30 1496 C 152.677 -1.67281 0.30838 0
M  V30 1497 O 153.862 -1.87149 0.518556 0
M  V30 1498 C 150.992 -3.21181 1.32136 0
M  V30 1499 C 149.946 -3.51714 2.43888 0
M  V30 1500 C 149.272 -4.89032 2.16222 0
M  V30 1501 C 150.572 -3.516 3.86232 0
M  V30 1502 H 152.266 -1.80117 2.39161 0
M  V30 1503 H 149.812 -0.865145 1.15114 0
M  V30 1504 H 151.765 -3.99702 1.33479 0
M  V30 1505 H 150.489 -3.24791 0.343279 0
M  V30 1506 H 149.148 -2.75539 2.41813 0
M  V30 1507 H 148.796 -4.89256 1.16778 0
M  V30 1508 H 148.496 -5.10426 2.911 0
M  V30 1509 H 150.02 -5.69873 2.19265 0
M  V30 1510 H 151.434 -4.2014 3.9007 0
M  V30 1511 H 149.831 -3.84523 4.60719 0
M  V30 1512 H 150.901 -2.50757 4.15029 0
M  V30 1513 N 152.244 -1.26651 -0.937939 0
M  V30 1514 C 153.66 -1.03834 -1.21205 0
M  V30 1515 C 153.86 0.234502 -2.00131 0
M  V30 1516 O 152.916 0.942767 -2.3424 0
M  V30 1517 C 154.229 -2.27167 -1.97017 0
M  V30 1518 C 155.777 -2.32101 -2.09996 0
M  V30 1519 C 156.252 -3.55136 -2.8921 0
M  V30 1520 N 157.743 -3.55632 -2.96783 0
M  V30 1521 C 158.478 -4.475 -3.58512 0
M  V30 1522 N 157.974 -5.4966 -4.21717 0
M  V30 1523 N 159.767 -4.35145 -3.55816 0
M  V30 1524 H 151.918 -2.08398 -0.410391 0
M  V30 1525 H 154.181 -0.916031 -0.244114 0
M  V30 1526 H 153.887 -3.19765 -1.46434 0
M  V30 1527 H 153.761 -2.31672 -2.97671 0
M  V30 1528 H 156.148 -1.40015 -2.59769 0
M  V30 1529 H 156.229 -2.31605 -1.08594 0
M  V30 1530 H 155.873 -4.47553 -2.40123 0
M  V30 1531 H 155.803 -3.5288 -3.90875 0
M  V30 1532 H 158.294 -2.81743 -2.51852 0
M  V30 1533 H 158.607 -6.15943 -4.66727 0
M  V30 1534 H 156.952 -5.53514 -4.20294 0
M  V30 1535 H 160.143 -3.5455 -3.05634 0
M  V30 1536 H 160.316 -5.06934 -4.03636 0
M  V30 1537 N 153.722 1.14298 -1.08507 0
M  V30 1538 C 154.999 1.81544 -0.728088 0
M  V30 1539 C 155.379 1.95838 0.78808 0
M  V30 1540 O 154.727 1.51904 1.70697 0
M  V30 1541 C 154.937 3.17169 -1.45619 0
M  V30 1542 C 156.285 3.9265 -1.61591 0
M  V30 1543 O 157.309 3.26762 -1.41793 0
M  V30 1544 O 156.168 5.10807 -1.94263 0
M  V30 1545 H 153.262 0.78491 -0.260471 0
M  V30 1546 H 155.808 1.21307 -1.18671 0
M  V30 1547 H 154.58 3.01934 -2.489 0
M  V30 1548 H 154.203 3.851 -0.989124 0
M  V30 1549 N 155.201 0.870884 1.31352 0
M  V30 1550 C 156.617 0.562932 1.49343 0
M  V30 1551 C 156.817 -0.902725 1.80148 0
M  V30 1552 O 155.873 -1.68484 1.88067 0
M  V30 1553 C 157.186 1.46393 2.62659 0
M  V30 1554 C 158.734 1.46607 2.76542 0
M  V30 1555 C 159.209 2.35266 3.92955 0
M  V30 1556 N 160.7 2.33151 4.00243 0
M  V30 1557 C 161.435 2.98471 4.89594 0
M  V30 1558 N 160.931 3.72964 5.8384 0
M  V30 1559 N 162.724 2.87775 4.82848 0
M  V30 1560 H 154.875 1.81923 1.09626 0
M  V30 1561 H 157.138 0.777934 0.541777 0
M  V30 1562 H 156.844 2.50689 2.46674 0
M  V30 1563 H 156.718 1.16314 3.58819 0
M  V30 1564 H 159.105 0.43069 2.9194 0
M  V30 1565 H 159.186 1.8071 1.81046 0
M  V30 1566 H 158.83 3.38881 3.78315 0
M  V30 1567 H 158.76 1.98487 4.87761 0
M  V30 1568 H 161.251 1.79006 3.32814 0
M  V30 1569 H 161.564 4.19932 6.4875 0
M  V30 1570 H 159.909 3.77073 5.83816 0
M  V30 1571 H 163.1 2.29116 4.08195 0
M  V30 1572 H 163.273 3.38961 5.52277 0
M  V30 1573 N 156.679 -1.44442 0.630414 0
M  V30 1574 C 157.904 -2.06927 0.139944 0
M  V30 1575 C 158.329 -1.46795 -1.17613 0
M  V30 1576 O 157.687 -0.569144 -1.72135 0
M  V30 1577 C 157.735 -3.6058 0.0379581 0
M  V30 1578 O 156.839 -3.99937 -1.0062 0
M  V30 1579 H 156.18 -0.658608 0.0844483 0
M  V30 1580 H 158.71 -1.85327 0.866891 0
M  V30 1581 H 158.72 -4.07714 -0.152856 0
M  V30 1582 H 157.395 -4.03728 0.998809 0
M  V30 1583 H 155.972 -3.64436 -0.79001 0
M  V30 1584 N 158.157 -0.370918 -1.53173 0
M  V30 1585 C 159.404 0.217102 -2.01333 0
M  V30 1586 C 159.732 1.48338 -1.25802 0
M  V30 1587 O 158.987 1.92698 -0.34146 0
M  V30 1588 C 159.286 0.549696 -3.53147 0
M  V30 1589 C 158.952 -0.622872 -4.46577 0
M  V30 1590 C 157.614 -0.944595 -4.71838 0
M  V30 1591 C 159.966 -1.40819 -5.01816 0
M  V30 1592 C 157.294 -2.05351 -5.49589 0
M  V30 1593 C 159.646 -2.50757 -5.80778 0
M  V30 1594 C 158.31 -2.83458 -6.04324 0
M  V30 1595 H 157.58 0.0794431 -0.736729 0
M  V30 1596 H 160.227 -0.504481 -1.84736 0
M  V30 1597 H 158.532 1.35237 -3.6772 0
M  V30 1598 H 160.229 1.017 -3.87889 0
M  V30 1599 H 156.819 -0.36209 -4.27068 0
M  V30 1600 H 161.003 -1.17289 -4.82242 0
M  V30 1601 H 156.259 -2.3108 -5.6605 0
M  V30 1602 H 160.433 -3.12022 -6.22588 0
M  V30 1603 H 158.06 -3.69508 -6.64355 0
M  V30 1604 N 159.635 1.57281 -0.100228 0
M  V30 1605 C 160.598 2.13158 0.842398 0
M  V30 1606 C 161.598 1.06202 1.20738 0
M  V30 1607 O 162.788 1.32066 1.13597 0
M  V30 1608 C 159.92 2.65639 2.13655 0
M  V30 1609 H 161.113 2.97766 0.357114 0
M  V30 1610 H 158.666 1.5559 0.148823 0
M  V30 1611 H 159.401 1.84566 2.66657 0
M  V30 1612 H 159.186 3.43844 1.88451 0
M  V30 1613 H 160.676 3.08846 2.81077 0
M  V30 1614 N 161.113 -0.173488 1.56642 0
M  V30 1615 C 162.529 -0.525174 1.50712 0
M  V30 1616 C 162.729 -1.8476 0.804107 0
M  V30 1617 O 161.785 -2.49869 0.363574 0
M  V30 1618 C 163.098 -0.559937 2.95441 0
M  V30 1619 C 164.646 -0.647288 3.06234 0
M  V30 1620 C 165.121 -0.712963 4.52417 0
M  V30 1621 N 166.612 -0.775911 4.56655 0
M  V30 1622 C 167.347 -0.847264 5.67106 0
M  V30 1623 N 166.843 -0.879585 6.87194 0
M  V30 1624 N 168.636 -0.886117 5.55071 0
M  V30 1625 H 160.787 0.693681 2.00753 0
M  V30 1626 H 163.05 0.249841 0.914485 0
M  V30 1627 H 162.756 0.343049 3.50023 0
M  V30 1628 H 162.63 -1.40718 3.49969 0
M  V30 1629 H 165.017 -1.5407 2.51687 0
M  V30 1630 H 165.098 0.226586 2.54794 0
M  V30 1631 H 164.742 0.176183 5.07594 0
M  V30 1632 H 164.672 -1.60295 5.0161 0
M  V30 1633 H 167.163 -0.759304 3.70193 0
M  V30 1634 H 167.476 -0.935144 7.67121 0
M  V30 1635 H 165.821 -0.847898 6.89808 0
M  V30 1636 H 169.012 -0.857853 4.60172 0
M  V30 1637 H 169.185 -0.938263 6.41171 0
M  V30 1638 N 162.591 -1.51276 -0.441967 0
M  V30 1639 C 163.84 -1.6295 -1.18871 0
M  V30 1640 C 164.153 -0.349312 -1.92456 0
M  V30 1641 O 165.359 -0.345355 -2.69295 0
M  V30 1642 C 163.815 -2.87759 -2.16155 0
M  V30 1643 C 163.423 -4.22764 -1.48239 0
M  V30 1644 C 165.167 -3.08788 -2.91291 0
M  V30 1645 C 163.074 -5.38728 -2.4398 0
M  V30 1646 H 162.004 -0.606913 -0.447406 0
M  V30 1647 H 164.655 -1.77739 -0.456205 0
M  V30 1648 H 163.037 -2.66593 -2.92821 0
M  V30 1649 H 164.211 -4.54293 -0.771635 0
M  V30 1650 H 162.526 -4.07575 -0.852741 0
M  V30 1651 H 165.123 -3.92599 -3.63002 0
M  V30 1652 H 165.466 -2.21679 -3.5237 0
M  V30 1653 H 165.999 -3.30272 -2.21733 0
M  V30 1654 H 162.738 -6.28082 -1.87598 0
M  V30 1655 H 162.258 -5.1158 -3.13123 0
M  V30 1656 H 163.937 -5.70489 -3.05207 0
M  V30 1657 N 164.069 0.697108 -1.41344 0
M  V30 1658 C 165.294 1.49096 -1.44171 0
M  V30 1659 C 165.719 1.88038 -0.0481568 0
M  V30 1660 O 165.077 1.54525 0.948243 0
M  V30 1661 C 165.125 2.73088 -2.3549 0
M  V30 1662 O 164.229 3.70514 -1.81088 0
M  V30 1663 H 163.57 0.448801 -0.489361 0
M  V30 1664 H 166.1 0.856992 -1.85787 0
M  V30 1665 H 166.11 3.21413 -2.51312 0
M  V30 1666 H 164.785 2.44081 -3.36745 0
M  V30 1667 H 163.362 3.29441 -1.74708 0
M  V30 1668 N 165.547 1.27147 0.931209 0
M  V30 1669 C 166.824 1.0401 1.65654 0
M  V30 1670 C 167.204 -0.426297 2.06751 0
M  V30 1671 O 166.552 -1.40879 1.79904 0
M  V30 1672 C 166.762 1.99834 2.86125 0
M  V30 1673 C 168.11 2.29007 3.57549 0
M  V30 1674 O 169.134 1.97779 2.96246 0
M  V30 1675 O 167.993 2.82222 4.67989 0
M  V30 1676 H 165.087 0.396239 0.725895 0
M  V30 1677 H 167.633 1.38397 0.982056 0
M  V30 1678 H 166.405 2.98744 2.52721 0
M  V30 1679 H 166.028 1.65987 3.61295 0
M  V30 1680 N 167.025 -1.13721 1.09112 0
M  V30 1681 C 167.935 -2.22638 0.73957 0
M  V30 1682 C 168.951 -1.72091 -0.257068 0
M  V30 1683 O 170.127 -2.01155 -0.0992154 0
M  V30 1684 C 167.192 -3.46322 0.16191 0
M  V30 1685 C 166.253 -4.11775 1.21408 0
M  V30 1686 C 165.486 -5.29555 0.663891 0
M  V30 1687 O 165.709 -5.68077 -0.514274 0
M  V30 1688 O 164.643 -5.84973 1.41738 0
M  V30 1689 H 168.469 -2.55074 1.64836 0
M  V30 1690 H 166.054 -1.21791 0.865289 0
M  V30 1691 H 167.936 -4.21107 -0.157073 0
M  V30 1692 H 166.611 -3.15593 -0.719932 0
M  V30 1693 H 165.518 -3.3883 1.58571 0
M  V30 1694 H 166.851 -4.46627 2.06845 0
M  V30 1695 N 168.503 -0.877838 -1.30888 0
M  V30 1696 C 169.78 -0.413052 -1.91189 0
M  V30 1697 C 170.16 1.1056 -1.79832 0
M  V30 1698 O 169.508 1.93771 -1.21099 0
M  V30 1699 C 169.718 -0.903191 -3.3711 0
M  V30 1700 C 171.066 -0.93395 -4.14201 0
M  V30 1701 O 172.09 -0.849373 -3.45925 0
M  V30 1702 O 170.949 -1.05772 -5.36167 0
M  V30 1703 H 168.043 -0.125035 -0.817493 0
M  V30 1704 H 170.589 -0.966269 -1.39504 0
M  V30 1705 H 169.361 -1.94692 -3.39427 0
M  V30 1706 H 168.984 -0.328732 -3.96239 0
M  V30 1707 N 169.982 1.44106 -0.638065 0
M  V30 1708 C 171.228 2.02815 -0.15409 0
M  V30 1709 C 171.583 1.49342 1.21304 0
M  V30 1710 O 170.876 0.670699 1.79478 0
M  V30 1711 C 171.07 3.5729 -0.0887327 0
M  V30 1712 C 170.899 4.2575 -1.44799 0
M  V30 1713 C 169.669 4.62443 -2.03653 0
M  V30 1714 C 171.867 4.55746 -2.38327 0
M  V30 1715 N 169.849 5.15903 -3.32741 0
M  V30 1716 C 171.22 5.10364 -3.52036 0
M  V30 1717 C 173.275 4.37703 -2.3732 0
M  V30 1718 C 171.978 5.48837 -4.64941 0
M  V30 1719 C 174.004 4.77229 -3.49294 0
M  V30 1720 C 173.366 5.31966 -4.61726 0
M  V30 1721 H 169.465 0.775519 -0.100466 0
M  V30 1722 H 172.049 1.755 -0.843071 0
M  V30 1723 H 170.22 3.84201 0.569548 0
M  V30 1724 H 171.952 4.02671 0.404711 0
M  V30 1725 H 168.707 4.46987 -1.56523 0
M  V30 1726 H 169.131 5.47102 -3.98758 0
M  V30 1727 H 173.773 3.94671 -1.51641 0
M  V30 1728 H 171.491 5.9082 -5.51323 0
M  V30 1729 H 175.077 4.64976 -3.49698 0
M  V30 1730 H 173.957 5.61986 -5.46939 0
M  V30 1731 N 171.46 0.379036 1.52974 0
M  V30 1732 C 172.737 -0.263479 1.93817 0
M  V30 1733 C 173.117 -1.65244 1.31368 0
M  V30 1734 O 172.465 -2.23448 0.477856 0
M  V30 1735 C 172.675 -0.300166 3.47707 0
M  V30 1736 C 174.023 -0.534061 4.21228 0
M  V30 1737 O 175.047 -0.38081 3.54159 0
M  V30 1738 O 173.906 -0.833501 5.40106 0
M  V30 1739 H 171 -0.161149 0.811147 0
M  V30 1740 H 173.546 0.432798 1.64088 0
M  V30 1741 H 172.318 0.673138 3.85467 0
M  V30 1742 H 171.941 -1.04179 3.83709 0
M  V30 1743 N 172.938 -1.57226 0.108567 0
M  V30 1744 C 174.187 -1.94008 -0.551703 0
M  V30 1745 C 174.5 -0.993442 -1.68494 0
M  V30 1746 O 175.706 -1.25551 -2.40726 0
M  V30 1747 C 174.162 -3.44763 -1.03279 0
M  V30 1748 C 173.77 -4.47943 0.0714193 0
M  V30 1749 C 175.514 -3.90483 -1.66503 0
M  V30 1750 C 173.421 -5.89865 -0.425779 0
M  V30 1751 H 172.351 -0.724206 -0.209863 0
M  V30 1752 H 175.002 -1.82547 0.186741 0
M  V30 1753 H 173.384 -3.51422 -1.82533 0
M  V30 1754 H 174.558 -4.52942 0.847365 0
M  V30 1755 H 172.873 -4.11913 0.609669 0
M  V30 1756 H 175.47 -4.93925 -2.04798 0
M  V30 1757 H 175.813 -3.29877 -2.53942 0
M  V30 1758 H 176.346 -3.86581 -0.938074 0
M  V30 1759 H 173.085 -6.54202 0.412316 0
M  V30 1760 H 172.605 -5.88309 -1.16843 0
M  V30 1761 H 174.284 -6.40844 -0.890397 0
M  V30 1762 N 174.416 0.165178 -1.56732 0
M  V30 1763 C 175.665 0.879143 -1.81532 0
M  V30 1764 C 175.978 1.83144 -0.686842 0
M  V30 1765 O 177.184 2.58823 -0.819944 0
M  V30 1766 C 175.64 1.61388 -3.21686 0
M  V30 1767 C 175.248 0.704904 -4.4242 0
M  V30 1768 C 176.992 2.3157 -3.55774 0
M  V30 1769 C 174.899 1.44022 -5.73595 0
M  V30 1770 H 173.829 0.332033 -0.676957 0
M  V30 1771 H 176.48 0.132008 -1.83025 0
M  V30 1772 H 174.862 2.40599 -3.14529 0
M  V30 1773 H 176.036 -0.0506815 -4.60772 0
M  V30 1774 H 174.351 0.112419 -4.16248 0
M  V30 1775 H 176.948 2.8719 -4.51028 0
M  V30 1776 H 177.291 3.07201 -2.8095 0
M  V30 1777 H 177.824 1.59297 -3.64513 0
M  V30 1778 H 174.563 0.72612 -6.51466 0
M  V30 1779 H 174.083 2.16898 -5.5921 0
M  V30 1780 H 175.762 1.98606 -6.15764 0
M  V30 1781 N 175.894 1.51508 0.433938 0
M  V30 1782 C 176.844 1.69451 1.52546 0
M  V30 1783 C 177.828 0.548474 1.51263 0
M  V30 1784 O 179.02 0.804529 1.57659 0
M  V30 1785 C 176.149 1.82604 2.90707 0
M  V30 1786 C 175.235 3.03002 2.96733 0
M  V30 1787 N 175.626 4.26121 2.72496 0
M  V30 1788 C 173.924 3.02327 3.27894 0
M  V30 1789 C 174.625 5.07407 2.84452 0
M  V30 1790 N 173.601 4.42126 3.16269 0
M  V30 1791 H 177.403 2.62305 1.32564 0
M  V30 1792 H 174.917 1.49202 0.641297 0
M  V30 1793 H 176.914 1.93569 3.69238 0
M  V30 1794 H 175.574 0.909339 3.11707 0
M  V30 1795 H 176.585 4.55009 2.4736 0
M  V30 1796 H 173.262 2.20301 3.54646 0
M  V30 1797 H 174.652 6.15422 2.69639 0
M  V30 1798 N 177.372 -0.689602 1.41712 0
M  V30 1799 C 178.788 -1.00093 1.24312 0
M  V30 1800 C 178.988 -2.01036 0.136729 0
M  V30 1801 O 178.044 -2.47562 -0.496918 0
M  V30 1802 C 179.357 -1.51985 2.59463 0
M  V30 1803 C 180.905 -1.63838 2.66695 0
M  V30 1804 C 181.38 -2.1913 4.02177 0
M  V30 1805 N 182.871 -2.26483 4.04054 0
M  V30 1806 C 183.606 -2.70306 5.0569 0
M  V30 1807 N 183.102 -3.13691 6.17713 0
M  V30 1808 N 184.895 -2.69923 4.9305 0
M  V30 1809 H 177.046 -0.0210029 2.1239 0
M  V30 1810 H 179.309 -0.0718733 0.945272 0
M  V30 1811 H 179.015 -0.85269 3.41207 0
M  V30 1812 H 178.889 -2.50103 2.82362 0
M  V30 1813 H 181.276 -2.29664 1.85306 0
M  V30 1814 H 181.357 -0.642492 2.476 0
M  V30 1815 H 181.001 -1.53918 4.84016 0
M  V30 1816 H 180.931 -3.19482 4.18615 0
M  V30 1817 H 183.422 -1.95874 3.23174 0
M  V30 1818 H 183.735 -3.45773 6.9113 0
M  V30 1819 H 182.08 -3.11585 6.21241 0
M  V30 1820 H 185.271 -2.35382 4.04614 0
M  V30 1821 H 185.444 -3.03758 5.72394 0
M  V30 1822 N 178.85 -1.27639 -0.924453 0
M  V30 1823 C 180.096 -1.14336 -1.67497 0
M  V30 1824 C 180.429 0.309465 -1.91718 0
M  V30 1825 O 179.704 1.22608 -1.50989 0
M  V30 1826 C 179.987 -1.93096 -3.0395 0
M  V30 1827 C 179.84 -3.46381 -2.8695 0
M  V30 1828 C 181.159 -1.73798 -4.0433 0
M  V30 1829 H 178.278 -0.416728 -0.607871 0
M  V30 1830 H 180.92 -1.56832 -1.07256 0
M  V30 1831 H 179.07 -1.56982 -3.55372 0
M  V30 1832 H 180.742 -3.92343 -2.42621 0
M  V30 1833 H 178.985 -3.72557 -2.22225 0
M  V30 1834 H 179.656 -3.96735 -3.83804 0
M  V30 1835 H 182.132 -2.05293 -3.61931 0
M  V30 1836 H 181.008 -2.31294 -4.97789 0
M  V30 1837 H 181.269 -0.686725 -4.36734 0
M  V30 1838 N 180.328 1.1314 -1.09713 0
M  V30 1839 C 181.278 2.16709 -0.708593 0
M  V30 1840 C 182.262 1.58471 0.278523 0
M  V30 1841 O 183.454 1.76779 0.088427 0
M  V30 1842 C 180.583 3.43039 -0.133923 0
M  V30 1843 C 179.669 4.08277 -1.14763 0
M  V30 1844 N 180.06 4.48637 -2.33577 0
M  V30 1845 C 178.358 4.34954 -0.986446 0
M  V30 1846 C 179.059 4.9952 -2.98085 0
M  V30 1847 N 178.035 4.94561 -2.25632 0
M  V30 1848 H 181.837 2.45672 -1.61315 0
M  V30 1849 H 179.351 1.29967 -0.973775 0
M  V30 1850 H 181.348 4.16583 0.162465 0
M  V30 1851 H 180.008 3.15549 0.765447 0
M  V30 1852 H 181.019 4.41246 -2.7115 0
M  V30 1853 H 177.696 4.17258 -0.142008 0
M  V30 1854 H 179.086 5.40521 -3.99108 0
M  V30 1855 N 181.806 0.884767 1.30421 0
M  V30 1856 C 182.736 0.367574 2.30589 0
M  V30 1857 C 183.717 -0.549464 1.60981 0
M  V30 1858 O 184.902 -0.46336 1.88591 0
M  V30 1859 C 182.032 -0.418944 3.44764 0
M  V30 1860 C 180.986 0.406316 4.26067 0
M  V30 1861 C 180.312 -0.506793 5.32293 0
M  V30 1862 C 181.612 1.64832 4.95608 0
M  V30 1863 H 183.306 1.20462 2.74097 0
M  V30 1864 H 180.852 0.580695 1.31772 0
M  V30 1865 H 182.805 -0.791395 4.13902 0
M  V30 1866 H 181.529 -1.28964 3.0006 0
M  V30 1867 H 180.188 0.760903 3.58617 0
M  V30 1868 H 179.836 -1.37519 4.83836 0
M  V30 1869 H 179.536 0.0415828 5.87585 0
M  V30 1870 H 181.06 -0.875764 6.04287 0
M  V30 1871 H 182.474 1.34646 5.57264 0
M  V30 1872 H 180.871 2.13688 5.60765 0
M  V30 1873 H 181.941 2.39284 4.21748 0
M  V30 1874 N 183.284 -1.43765 0.645699 0
M  V30 1875 C 184.7 -1.56509 0.312591 0
M  V30 1876 C 184.9 -1.6307 -1.18365 0
M  V30 1877 O 183.956 -1.58167 -1.96824 0
M  V30 1878 C 185.269 -2.82968 1.01733 0
M  V30 1879 C 186.817 -2.96701 0.996865 0
M  V30 1880 C 187.292 -4.25982 1.68236 0
M  V30 1881 N 188.783 -4.32829 1.64964 0
M  V30 1882 C 189.518 -5.31613 2.14885 0
M  V30 1883 N 189.014 -6.36718 2.73061 0
M  V30 1884 N 190.807 -5.23217 2.05428 0
M  V30 1885 H 182.958 -1.3775 1.61675 0
M  V30 1886 H 185.221 -0.661067 0.679481 0
M  V30 1887 H 184.927 -2.84156 2.0724 0
M  V30 1888 H 184.801 -3.72957 0.564177 0
M  V30 1889 H 187.188 -2.95058 -0.0497719 0
M  V30 1890 H 187.269 -2.08022 1.48865 0
M  V30 1891 H 186.913 -4.28386 2.72852 0
M  V30 1892 H 186.843 -5.13545 1.16529 0
M  V30 1893 H 189.334 -3.57493 1.22503 0
M  V30 1894 H 189.647 -7.08401 3.08848 0
M  V30 1895 H 187.992 -6.37362 2.77118 0
M  V30 1896 H 191.183 -4.40019 1.59689 0
M  V30 1897 H 191.356 -6.00045 2.44643 0
M  V30 1898 N 184.763 -0.387143 -1.52771 0
M  V30 1899 C 186.011 0.195349 -2.01154 0
M  V30 1900 C 186.332 1.475 -1.27549 0
M  V30 1901 O 185.602 1.91878 -0.394924 0
M  V30 1902 H 184.182 0.075178 -0.743207 0
M  V30 1903 H 186.844 -0.518337 -1.87881 0
M  V30 1904 H 185.94 0.407096 -3.09434 0
M  V30 1905 N 186.241 1.57166 -0.116904 0
M  V30 1906 C 187.466 1.999 0.55271 0
M  V30 1907 C 187.891 0.996039 1.59564 0
M  V30 1908 O 187.249 -0.032556 1.81271 0
M  V30 1909 C 187.297 3.4152 1.15742 0
M  V30 1910 O 186.401 3.44106 2.27299 0
M  V30 1911 H 185.742 0.649447 0.138258 0
M  V30 1912 H 188.272 2.03573 -0.204759 0
M  V30 1913 H 188.282 3.79684 1.49346 0
M  V30 1914 H 186.957 4.14034 0.393493 0
M  V30 1915 H 185.534 3.17759 1.9515 0
M  V30 1916 N 187.719 -0.156864 1.56817 0
M  V30 1917 C 188.966 -0.871125 1.82805 0
M  V30 1918 C 189.294 -1.81611 0.696262 0
M  V30 1919 O 188.549 -1.93141 -0.315459 0
M  V30 1920 C 188.848 -1.68737 3.1506 0
M  V30 1921 C 188.514 -0.890045 4.42028 0
M  V30 1922 C 187.176 -0.670042 4.76512 0
M  V30 1923 C 189.528 -0.331769 5.20143 0
M  V30 1924 C 186.856 0.119104 5.86579 0
M  V30 1925 C 189.208 0.444365 6.31037 0
M  V30 1926 C 187.872 0.675035 6.64078 0
M  V30 1927 H 187.142 -0.318767 0.668931 0
M  V30 1928 H 189.789 -0.135274 1.91022 0
M  V30 1929 H 188.094 -2.49304 3.0225 0
M  V30 1930 H 189.791 -2.24331 3.3238 0
M  V30 1931 H 186.381 -1.07157 4.14988 0
M  V30 1932 H 190.565 -0.489043 4.93885 0
M  V30 1933 H 185.821 0.307417 6.10627 0
M  V30 1934 H 189.995 0.884139 6.90765 0
M  V30 1935 H 187.622 1.28839 7.49203 0
M  V30 1936 N 189.197 -1.51736 -0.425897 0
M  V30 1937 C 190.129 -1.70083 -1.53638 0
M  V30 1938 C 191.142 -0.581349 -1.52066 0
M  V30 1939 O 192.331 -0.856017 -1.56635 0
M  V30 1940 C 189.431 -1.71078 -2.9255 0
M  V30 1941 C 188.604 -2.99795 -3.185 0
M  V30 1942 C 187.663 -2.92825 -4.37196 0
M  V30 1943 O 186.689 -3.66756 -4.35291 0
M  V30 1944 N 187.891 -2.0946 -5.41393 0
M  V30 1945 H 190.656 -2.65882 -1.383 0
M  V30 1946 H 188.217 -1.49765 -0.614988 0
M  V30 1947 H 190.209 -1.63969 -3.69995 0
M  V30 1948 H 188.779 -0.828242 -3.01428 0
M  V30 1949 H 187.999 -3.20684 -2.2925 0
M  V30 1950 H 189.287 -3.84977 -3.32671 0
M  V30 1951 H 188.685 -1.48792 -5.45781 0
M  V30 1952 H 187.242 -2.08221 -6.17647 0
M  V30 1953 N 190.675 0.682077 -1.42076 0
M  V30 1954 C 191.921 1.44428 -1.42367 0
M  V30 1955 C 192.254 1.94164 -0.0373056 0
M  V30 1956 O 191.529 1.70429 0.937239 0
M  V30 1957 C 191.812 2.64654 -2.44194 0
M  V30 1958 C 191.665 2.20596 -3.91991 0
M  V30 1959 C 192.984 3.66865 -2.431 0
M  V30 1960 H 190.103 0.523834 -0.518428 0
M  V30 1961 H 192.745 0.77576 -1.73442 0
M  V30 1962 H 190.895 3.2169 -2.17826 0
M  V30 1963 H 192.567 1.68783 -4.29313 0
M  V30 1964 H 190.81 1.52242 -4.06208 0
M  V30 1965 H 191.481 3.06921 -4.58807 0
M  V30 1966 H 193.957 3.19531 -2.66532 0
M  V30 1967 H 192.833 4.48577 -3.16339 0
M  V30 1968 H 193.094 4.17493 -1.45437 0
M  V30 1969 N 192.153 1.28127 0.917671 0
M  V30 1970 C 193.381 1.17892 1.70026 0
M  V30 1971 C 193.796 -0.262958 1.8696 0
M  V30 1972 O 193.153 -1.17811 1.3938 0
M  V30 1973 C 193.204 1.86872 3.09453 0
M  V30 1974 O 192.925 3.25428 2.93306 0
M  V30 1975 C 194.426 1.8289 4.03815 0
M  V30 1976 H 191.646 0.40942 0.531617 0
M  V30 1977 H 194.19 1.69181 1.14883 0
M  V30 1978 H 192.345 1.39464 3.61426 0
M  V30 1979 H 192.759 3.59918 3.81523 0
M  V30 1980 H 194.233 2.35751 4.99125 0
M  V30 1981 H 194.71 0.800412 4.31845 0
M  V30 1982 H 195.316 2.29959 3.57769 0
M  V30 1983 N 193.631 -1.12557 1.10312 0
M  V30 1984 C 195.047 -1.36036 0.834649 0
M  V30 1985 C 195.247 -1.93946 -0.546539 0
M  V30 1986 O 194.303 -2.16484 -1.29966 0
M  V30 1987 C 195.616 -2.30312 1.9333 0
M  V30 1988 C 197.164 -2.43906 1.9616 0
M  V30 1989 C 197.639 -3.41496 3.05195 0
M  V30 1990 N 199.13 -3.49053 3.04494 0
M  V30 1991 C 199.865 -4.24471 3.85502 0
M  V30 1992 N 199.361 -5.02966 4.76442 0
M  V30 1993 N 201.154 -4.19864 3.73725 0
M  V30 1994 H 193.305 -0.733246 1.99342 0
M  V30 1995 H 195.568 -0.385234 0.866198 0
M  V30 1996 H 195.274 -1.94933 2.92735 0
M  V30 1997 H 195.148 -3.30421 1.81939 0
M  V30 1998 H 197.535 -2.78567 0.973886 0
M  V30 1999 H 197.616 -1.4369 2.11629 0
M  V30 2000 H 197.26 -3.07565 4.04186 0
M  V30 2001 H 197.19 -4.41539 2.86968 0
M  V30 2002 H 199.681 -2.93053 2.38596 0
M  V30 2003 H 199.994 -5.57846 5.34815 0
M  V30 2004 H 198.339 -5.02167 4.80472 0
M  V30 2005 H 201.53 -3.57623 3.02032 0
M  V30 2006 H 201.703 -4.78386 4.37093 0
M  V30 2007 N 195.109 -0.891671 -1.2995 0
M  V30 2008 C 196.072 -0.36828 -2.26222 0
M  V30 2009 C 197.072 0.493014 -1.53056 0
M  V30 2010 O 198.262 0.299213 -1.71611 0
M  V30 2011 C 195.394 0.47442 -3.37583 0
M  V30 2012 H 196.587 -1.21844 -2.74033 0
M  V30 2013 H 194.14 -0.669107 -1.41254 0
M  V30 2014 H 194.875 1.34489 -2.95099 0
M  V30 2015 H 194.66 -0.142615 -3.91841 0
M  V30 2016 H 196.15 0.83218 -4.09224 0
M  V30 2017 N 196.587 1.43421 -0.653314 0
M  V30 2018 C 197.55 2.29182 0.0287951 0
M  V30 2019 C 198.55 1.42213 0.750465 0
M  V30 2020 O 199.74 1.63843 0.591701 0
M  V30 2021 C 196.872 3.24278 1.05151 0
M  V30 2022 H 198.065 2.90985 -0.725786 0
M  V30 2023 H 195.618 1.50702 -0.414545 0
M  V30 2024 H 196.353 2.6737 1.83532 0
M  V30 2025 H 196.138 3.88396 0.537687 0
M  V30 2026 H 197.628 3.88647 1.52786 0
M  V30 2027 N 198.065 0.39524 1.52563 0
M  V30 2028 C 199.311 -0.177763 2.02622 0
M  V30 2029 C 199.666 -1.43974 1.27629 0
M  V30 2030 O 198.959 -1.87995 0.36992 0
M  V30 2031 C 199.153 -0.493444 3.53977 0
M  V30 2032 C 198.982 0.736392 4.4363 0
M  V30 2033 C 197.752 1.25744 4.89404 0
M  V30 2034 C 199.95 1.61046 4.88435 0
M  V30 2035 N 197.932 2.44421 5.63145 0
M  V30 2036 C 199.303 2.64359 5.60816 0
M  V30 2037 C 201.358 1.62985 4.70468 0
M  V30 2038 C 200.061 3.69505 6.17137 0
M  V30 2039 C 202.087 2.67042 5.27677 0
M  V30 2040 C 201.449 3.69077 5.99968 0
M  V30 2041 H 197.548 -0.0269794 0.781534 0
M  V30 2042 H 200.132 0.546466 1.86874 0
M  V30 2043 H 198.303 -1.18672 3.69826 0
M  V30 2044 H 200.035 -1.05412 3.90731 0
M  V30 2045 H 196.79 0.817546 4.6649 0
M  V30 2046 H 197.214 3.04485 6.04663 0
M  V30 2047 H 201.856 0.854442 4.14076 0
M  V30 2048 H 199.574 4.4791 6.72608 0
M  V30 2049 H 203.16 2.69433 5.15652 0
M  V30 2050 H 202.04 4.48273 6.43444 0
M  V30 2051 N 199.544 -1.57102 0.125237 0
M  V30 2052 C 200.454 -2.19191 -0.8362 0
M  V30 2053 C 201.47 -1.16985 -1.28805 0
M  V30 2054 O 202.646 -1.49479 -1.34974 0
M  V30 2055 C 199.711 -2.78407 -2.06617 0
M  V30 2056 C 198.772 -3.9567 -1.66565 0
M  V30 2057 C 198.005 -4.52052 -2.83698 0
M  V30 2058 O 198.228 -4.07326 -3.99302 0
M  V30 2059 O 197.162 -5.42645 -2.60423 0
M  V30 2060 H 200.988 -3.01816 -0.337776 0
M  V30 2061 H 198.573 -1.4906 -0.100695 0
M  V30 2062 H 200.455 -3.16129 -2.7864 0
M  V30 2063 H 199.13 -1.9881 -2.55453 0
M  V30 2064 H 198.037 -3.62705 -0.916296 0
M  V30 2065 H 199.37 -4.76722 -1.22464 0
M  V30 2066 N 201.022 0.148545 -1.56898 0
M  V30 2067 C 201.972 1.1886 -1.94567 0
M  V30 2068 C 202.956 1.3863 -0.816735 0
M  V30 2069 O 204.148 1.40218 -1.08018 0
M  V30 2070 C 201.277 2.52262 -2.32849 0
M  V30 2071 C 200.363 2.36092 -3.52309 0
M  V30 2072 N 200.754 1.89674 -4.6889 0
M  V30 2073 C 199.052 2.66848 -3.57363 0
M  V30 2074 C 199.753 1.86511 -5.50989 0
M  V30 2075 N 198.729 2.29766 -4.92655 0
M  V30 2076 H 202.531 0.821793 -2.82177 0
M  V30 2077 H 200.045 0.356615 -1.58436 0
M  V30 2078 H 202.042 3.27447 -2.58039 0
M  V30 2079 H 200.702 2.89727 -1.46589 0
M  V30 2080 H 201.713 1.59663 -4.92674 0
M  V30 2081 H 198.39 3.08198 -2.81639 0
M  V30 2082 H 199.78 1.52128 -6.54452 0
M  V30 2083 N 202.5 1.5196 0.417844 0
M  V30 2084 C 203.433 1.69387 1.52916 0
M  V30 2085 C 204.411 0.541419 1.53321 0
M  V30 2086 O 205.595 0.767695 1.72159 0
M  V30 2087 C 202.722 1.72525 2.91467 0
M  V30 2088 C 201.768 2.93967 3.09008 0
M  V30 2089 S 202.601 4.54461 2.83242 0
M  V30 2090 C 203.757 4.60372 4.24038 0
M  V30 2091 H 203.99 2.63382 1.37903 0
M  V30 2092 H 201.523 1.41889 0.608845 0
M  V30 2093 H 203.481 1.75018 3.7132 0
M  V30 2094 H 202.142 0.796733 3.03827 0
M  V30 2095 H 201.335 2.92619 4.10353 0
M  V30 2096 H 200.937 2.89316 2.37007 0
M  V30 2097 H 203.229 4.37213 5.17544 0
M  V30 2098 H 204.172 5.62273 4.30412 0
M  V30 2099 H 204.58 3.89492 4.08602 0
M  V30 2100 N 203.978 -0.674533 1.42435 0
M  V30 2101 C 204.925 -1.78807 1.45934 0
M  V30 2102 C 205.895 -1.63157 0.311271 0
M  V30 2103 O 207.08 -1.83707 0.515383 0
M  V30 2104 C 204.22 -3.16839 1.36773 0
M  V30 2105 C 203.333 -3.43774 2.61617 0
M  V30 2106 C 202.468 -4.71536 2.44597 0
M  V30 2107 C 201.507 -4.91505 3.64814 0
M  V30 2108 N 200.644 -6.10508 3.46734 0
M  V30 2109 H 205.484 -1.75151 2.41093 0
M  V30 2110 H 203.021 -0.85504 1.19697 0
M  V30 2111 H 204.979 -3.96606 1.29459 0
M  V30 2112 H 203.609 -3.19619 0.452089 0
M  V30 2113 H 202.661 -2.58259 2.79297 0
M  V30 2114 H 203.973 -3.54423 3.50978 0
M  V30 2115 H 203.127 -5.59393 2.3487 0
M  V30 2116 H 201.866 -4.6317 1.52726 0
M  V30 2117 H 200.871 -4.0209 3.74972 0
M  V30 2118 H 202.096 -5.01716 4.57665 0
M  V30 2119 H 200.042 -6.03315 2.5758 0
M  V30 2120 H 199.959 -6.2202 4.29682 0
M  V30 2121 H 201.227 -7.01044 3.40819 0
M  V30 2122 N 205.456 -1.28612 -0.910864 0
M  V30 2123 C 206.403 -1.12786 -2.01365 0
M  V30 2124 C 207.373 -0.024201 -1.66082 0
M  V30 2125 O 208.558 -0.189667 -1.89855 0
M  V30 2126 C 205.698 -0.798743 -3.35729 0
M  V30 2127 C 204.811 -1.98173 -3.83864 0
M  V30 2128 C 203.946 -1.59298 -5.06752 0
M  V30 2129 C 202.985 -2.74245 -5.47226 0
M  V30 2130 N 202.122 -2.35842 -6.61304 0
M  V30 2131 H 206.962 -2.07142 -2.14234 0
M  V30 2132 H 204.499 -1.03093 -1.0493 0
M  V30 2133 H 206.457 -0.588662 -4.13026 0
M  V30 2134 H 205.087 0.10789 -3.2262 0
M  V30 2135 H 204.139 -2.30386 -3.02699 0
M  V30 2136 H 205.451 -2.84343 -4.09818 0
M  V30 2137 H 204.605 -1.34513 -5.916 0
M  V30 2138 H 203.344 -0.702618 -4.82612 0
M  V30 2139 H 202.349 -2.99725 -4.60918 0
M  V30 2140 H 203.574 -3.63928 -5.73353 0
M  V30 2141 H 201.52 -1.49279 -6.38789 0
M  V30 2142 H 201.437 -3.15546 -6.86998 0
M  V30 2143 H 202.705 -2.14348 -7.4945 0
M  V30 2144 N 206.934 1.1197 -1.10907 0
M  V30 2145 C 207.866 2.17592 -0.720175 0
M  V30 2146 C 208.879 1.60938 0.245495 0
M  V30 2147 O 210.068 1.78476 0.0292245 0
M  V30 2148 C 207.168 3.38873 -0.0427917 0
M  V30 2149 C 206.341 4.25006 -1.03388 0
M  V30 2150 C 205.4 5.24774 -0.387075 0
M  V30 2151 O 204.426 5.59631 -1.03934 0
M  V30 2152 N 205.628 5.74208 0.852407 0
M  V30 2153 H 208.393 2.51567 -1.62893 0
M  V30 2154 H 205.954 1.27439 -0.998543 0
M  V30 2155 H 207.946 4.02703 0.401501 0
M  V30 2156 H 206.516 3.03007 0.768456 0
M  V30 2157 H 205.736 3.57716 -1.65629 0
M  V30 2158 H 207.024 4.79397 -1.70458 0
M  V30 2159 H 206.422 5.48062 1.40161 0
M  V30 2160 H 204.979 6.39901 1.23977 0
M  V30 2161 N 208.412 0.89855 1.29475 0
M  V30 2162 C 209.359 0.373819 2.27753 0
M  V30 2163 C 210.329 -0.543444 1.56958 0
M  V30 2164 O 211.514 -0.468934 1.84948 0
M  V30 2165 C 208.654 -0.393648 3.42848 0
M  V30 2166 C 207.767 0.554379 4.28428 0
M  V30 2167 C 206.902 -0.230026 5.30702 0
M  V30 2168 C 205.941 0.712599 6.07938 0
M  V30 2169 N 205.078 -0.0373283 7.0209 0
M  V30 2170 H 209.918 1.21699 2.72017 0
M  V30 2171 H 207.455 0.611456 1.33789 0
M  V30 2172 H 209.413 -0.85466 4.08352 0
M  V30 2173 H 208.043 -1.20128 2.99615 0
M  V30 2174 H 207.095 1.13391 3.63107 0
M  V30 2175 H 208.407 1.27597 4.82204 0
M  V30 2176 H 207.561 -0.752288 6.02018 0
M  V30 2177 H 206.3 -0.984758 4.77654 0
M  V30 2178 H 205.305 1.24637 5.35486 0
M  V30 2179 H 206.53 1.46664 6.63074 0
M  V30 2180 H 204.476 -0.774348 6.51414 0
M  V30 2181 H 204.393 0.624374 7.53417 0
M  V30 2182 H 205.661 -0.539891 7.77628 0
M  V30 2183 N 209.89 -1.43072 0.660911 0
M  V30 2184 C 211.12 -2.05769 0.185153 0
M  V30 2185 C 211.528 -1.49668 -1.15742 0
M  V30 2186 O 210.871 -0.625649 -1.72717 0
M  V30 2187 C 210.933 -3.59489 0.0278237 0
M  V30 2188 C 210.597 -4.38212 1.2969 0
M  V30 2189 C 211.594 -4.69772 2.22734 0
M  V30 2190 C 209.279 -4.7809 1.54063 0
M  V30 2191 C 211.273 -5.40129 3.38437 0
M  V30 2192 C 208.96 -5.4819 2.70058 0
M  V30 2193 C 209.958 -5.79132 3.62071 0
M  V30 2194 O 209.646 -6.47798 4.76039 0
M  V30 2195 H 209.378 -0.669873 0.0908086 0
M  V30 2196 H 211.932 -1.84436 0.90402 0
M  V30 2197 H 210.162 -3.79426 -0.746489 0
M  V30 2198 H 211.851 -4.03862 -0.406275 0
M  V30 2199 H 212.617 -4.39476 2.05149 0
M  V30 2200 H 208.496 -4.53408 0.833215 0
M  V30 2201 H 212.04 -5.64198 4.10277 0
M  V30 2202 H 207.937 -5.77902 2.87574 0
M  V30 2203 H 208.705 -6.66283 4.75404 0
M  V30 2204 N 211.368 -0.403325 -1.52352 0
M  V30 2205 C 212.616 0.174003 -2.0135 0
M  V30 2206 C 212.937 1.46139 -1.29106 0
M  V30 2207 O 212.207 1.91448 -0.415253 0
M  V30 2208 H 210.787 0.0672911 -0.743963 0
M  V30 2209 H 213.449 -0.538235 -1.87321 0
M  V30 2210 H 212.545 0.374254 -3.09848 0
M  V30 2211 N 212.846 1.57033 -0.133567 0
M  V30 2212 C 214.262 1.58035 0.222944 0
M  V30 2213 C 214.462 1.14713 1.6566 0
M  V30 2214 O 213.518 0.841218 2.38075 0
M  V30 2215 C 214.831 3.00691 -0.0236116 0
M  V30 2216 C 216.379 3.12973 0.0411512 0
M  V30 2217 C 216.854 4.57654 -0.177899 0
M  V30 2218 N 218.345 4.63033 -0.124365 0
M  V30 2219 C 219.08 5.72771 -0.268553 0
M  V30 2220 N 218.576 6.91206 -0.46972 0
M  V30 2221 N 220.369 5.61718 -0.2071 0
M  V30 2222 H 212.52 1.8349 -1.06981 0
M  V30 2223 H 214.783 0.848677 -0.422436 0
M  V30 2224 H 214.489 3.36726 -1.0153 0
M  V30 2225 H 214.363 3.70614 0.701808 0
M  V30 2226 H 216.75 2.76787 1.02338 0
M  V30 2227 H 216.831 2.45564 -0.716383 0
M  V30 2228 H 216.475 4.94542 -1.15717 0
M  V30 2229 H 216.405 5.23173 0.599797 0
M  V30 2230 H 218.896 3.7789 0.027011 0
M  V30 2231 H 219.209 7.70693 -0.570212 0
M  V30 2232 H 217.554 6.93156 -0.505876 0
M  V30 2233 H 220.745 4.68072 -0.0507986 0
M  V30 2234 H 220.918 6.47195 -0.322909 0
M  V30 2235 N 214.325 -0.140222 1.56975 0
M  V30 2236 C 215.574 -0.850152 1.82908 0
M  V30 2237 C 215.887 -1.82028 0.715892 0
M  V30 2238 O 217.093 -2.57485 0.861016 0
M  V30 2239 C 215.549 -1.5625 3.24213 0
M  V30 2240 C 215.157 -0.63443 4.43485 0
M  V30 2241 C 216.901 -2.25881 3.59413 0
M  V30 2242 C 214.808 -1.34879 5.75814 0
M  V30 2243 H 213.738 -0.321221 0.682153 0
M  V30 2244 H 216.389 -0.102874 1.83211 0
M  V30 2245 H 214.771 -2.35565 3.18316 0
M  V30 2246 H 215.945 0.12398 4.60633 0
M  V30 2247 H 214.26 -0.0461836 4.16374 0
M  V30 2248 H 216.857 -2.79978 4.5554 0
M  V30 2249 H 217.2 -3.02693 2.85802 0
M  V30 2250 H 217.733 -1.53477 3.67001 0
M  V30 2251 H 214.472 -0.622385 6.52539 0
M  V30 2252 H 213.992 -2.07974 5.6259 0
M  V30 2253 H 215.671 -1.88784 6.18845 0
M  V30 2254 N 215.803 -1.52179 -0.40978 0
M  V30 2255 C 217.052 -1.65434 -1.15388 0
M  V30 2256 C 217.365 -0.390056 -1.91671 0
M  V30 2257 O 218.571 -0.402399 -2.68501 0
M  V30 2258 C 217.027 -2.92279 -2.10003 0
M  V30 2259 C 216.635 -4.25813 -1.39239 0
M  V30 2260 C 218.379 -3.14897 -2.84675 0
M  V30 2261 C 216.286 -5.43782 -2.32498 0
M  V30 2262 H 215.216 -0.616267 -0.434432 0
M  V30 2263 H 217.867 -1.78666 -0.418401 0
M  V30 2264 H 216.249 -2.72744 -2.871 0
M  V30 2265 H 217.423 -4.55828 -0.675099 0
M  V30 2266 H 215.738 -4.09292 -0.766097 0
M  V30 2267 H 218.335 -4.0021 -3.54593 0
M  V30 2268 H 218.678 -2.29103 -3.47588 0
M  V30 2269 H 219.211 -3.34901 -2.14677 0
M  V30 2270 H 215.95 -6.3192 -1.74233 0
M  V30 2271 H 215.47 -5.18106 -3.02201 0
M  V30 2272 H 217.149 -5.76834 -2.93038 0
M  V30 2273 N 217.281 0.66697 -1.42791 0
M  V30 2274 C 218.214 1.79177 -1.41318 0
M  V30 2275 C 219.192 1.60234 -0.276401 0
M  V30 2276 O 220.376 1.82602 -0.46785 0
M  V30 2277 C 217.503 3.16289 -1.21157 0
M  V30 2278 C 216.549 3.53964 -2.37932 0
M  V30 2279 S 217.382 3.55501 -4.00474 0
M  V30 2280 C 218.538 4.95292 -3.8267 0
M  V30 2281 H 218.771 1.80153 -2.365 0
M  V30 2282 H 216.304 0.838357 -1.29657 0
M  V30 2283 H 218.262 3.95428 -1.10212 0
M  V30 2284 H 216.923 3.1289 -0.275481 0
M  V30 2285 H 216.116 4.53646 -2.19594 0
M  V30 2286 H 215.718 2.82204 -2.45432 0
M  V30 2287 H 218.01 5.83584 -3.44145 0
M  V30 2288 H 218.953 5.18679 -4.82055 0
M  V30 2289 H 219.361 4.68179 -3.15386 0
M  V30 2290 N 218.759 1.29093 0.90403 0
M  V30 2291 C 219.987 1.19689 1.68766 0
M  V30 2292 C 220.402 -0.243113 1.87228 0
M  V30 2293 O 219.759 -1.16326 1.40621 0
M  V30 2294 C 219.81 1.90144 3.07453 0
M  V30 2295 O 219.531 3.2852 2.89838 0
M  V30 2296 C 221.032 1.87162 4.01852 0
M  V30 2297 H 218.252 0.415035 0.527244 0
M  V30 2298 H 220.796 1.7039 1.13082 0
M  V30 2299 H 218.951 1.43289 3.59926 0
M  V30 2300 H 219.365 3.63944 3.77684 0
M  V30 2301 H 220.839 2.41032 4.96596 0
M  V30 2302 H 221.316 0.84617 4.30972 0
M  V30 2303 H 221.922 2.33741 3.5531 0
M  V30 2304 N 220.237 -1.11381 1.11499 0
M  V30 2305 C 221.462 -1.87475 0.887019 0
M  V30 2306 C 221.887 -1.79639 -0.557796 0
M  V30 2307 O 221.245 -1.15924 -1.39396 0
M  V30 2308 C 221.293 -3.34213 1.35403 0
M  V30 2309 O 220.397 -4.0903 0.526146 0
M  V30 2310 H 219.738 -0.582099 0.319463 0
M  V30 2311 H 222.268 -1.40785 1.48461 0
M  V30 2312 H 222.278 -3.8506 1.34881 0
M  V30 2313 H 220.953 -3.39232 2.40612 0
M  V30 2314 H 219.53 -3.68082 0.597522 0
M  V30 2315 N 221.715 -0.905404 -1.28997 0
M  V30 2316 C 222.94 -0.549175 -1.99997 0
M  V30 2317 C 223.365 0.860276 -1.67275 0
M  V30 2318 O 222.723 1.57355 -0.900502 0
M  V30 2319 C 222.771 -0.755185 -3.52604 0
M  V30 2320 O 221.875 0.189692 -4.11964 0
M  V30 2321 H 221.216 -0.213899 -0.628604 0
M  V30 2322 H 223.746 -1.21856 -1.64354 0
M  V30 2323 H 223.756 -0.662045 -4.02593 0
M  V30 2324 H 222.431 -1.78271 -3.75755 0
M  V30 2325 H 221.008 0.0485257 -3.72868 0
M  V30 2326 N 223.193 1.4272 -0.668489 0
M  V30 2327 C 224.156 2.292 0.00448567 0
M  V30 2328 C 225.156 1.43001 0.735339 0
M  V30 2329 O 226.346 1.64461 0.57429 0
M  V30 2330 C 223.478 3.25375 1.01705 0
M  V30 2331 H 224.671 2.90199 -0.756608 0
M  V30 2332 H 222.224 1.50254 -0.430506 0
M  V30 2333 H 222.959 2.69301 1.80686 0
M  V30 2334 H 222.744 3.88944 0.496463 0
M  V30 2335 H 224.234 3.90245 1.48655 0
M  V30 2336 N 224.671 0.411399 1.52136 0
M  V30 2337 C 225.896 -0.165538 2.06738 0
M  V30 2338 C 226.321 -1.379 1.27926 0
M  V30 2339 O 225.679 -1.78628 0.310114 0
M  V30 2340 C 225.727 -0.492124 3.57226 0
M  V30 2341 O 224.831 -1.58276 3.80818 0
M  V30 2342 H 224.172 -0.0132132 0.663869 0
M  V30 2343 H 226.702 0.585253 1.96051 0
M  V30 2344 H 226.712 -0.750104 4.01045 0
M  V30 2345 H 225.387 0.394922 4.14021 0
M  V30 2346 H 223.964 -1.31677 3.48877 0
M  V30 2347 N 226.149 -1.5696 0.141893 0
M  V30 2348 C 227.397 -1.95573 -0.509484 0
M  V30 2349 C 227.718 -1.02746 -1.65736 0
M  V30 2350 O 226.988 -0.0880311 -1.95702 0
M  V30 2351 H 225.568 -0.722115 -0.191205 0
M  V30 2352 H 228.23 -1.93697 0.216196 0
M  V30 2353 H 227.326 -2.99171 -0.889 0
M  V30 2354 N 227.627 0.131896 -1.57047 0
M  V30 2355 C 228.876 0.84044 -1.83356 0
M  V30 2356 C 229.189 1.81646 -0.725535 0
M  V30 2357 O 230.395 2.57025 -0.874659 0
M  V30 2358 C 228.851 1.54528 -3.25037 0
M  V30 2359 C 228.459 0.610902 -4.43815 0
M  V30 2360 C 230.203 2.23972 -3.60606 0
M  V30 2361 C 228.11 1.31823 -5.76521 0
M  V30 2362 H 227.04 0.317599 -0.683847 0
M  V30 2363 H 229.691 0.0931561 -1.83263 0
M  V30 2364 H 228.073 2.33873 -3.19561 0
M  V30 2365 H 229.247 -0.148407 -4.60561 0
M  V30 2366 H 227.562 0.0241016 -4.16393 0
M  V30 2367 H 230.159 2.77558 -4.57018 0
M  V30 2368 H 230.502 3.01173 -2.87403 0
M  V30 2369 H 231.035 1.51529 -3.6781 0
M  V30 2370 H 227.774 0.587771 -6.52859 0
M  V30 2371 H 227.294 2.04987 -5.63685 0
M  V30 2372 H 228.973 1.855 -6.19838 0
M  V30 2373 N 229.106 1.52395 0.401703 0
M  V30 2374 C 230.336 1.70429 1.1678 0
M  V30 2375 C 230.744 0.416702 1.84554 0
M  V30 2376 O 230.087 -0.617697 1.73003 0
M  V30 2377 C 230.149 2.78919 2.26814 0
M  V30 2378 C 229.813 4.20437 1.79113 0
M  V30 2379 C 230.81 5.04028 1.27482 0
M  V30 2380 C 228.495 4.66704 1.85722 0
M  V30 2381 C 230.489 6.31961 0.830913 0
M  V30 2382 C 228.176 5.94625 1.40942 0
M  V30 2383 C 229.174 6.77082 0.897128 0
M  V30 2384 O 228.862 8.02607 0.455822 0
M  V30 2385 H 228.594 0.574272 0.356634 0
M  V30 2386 H 231.148 1.99767 0.477724 0
M  V30 2387 H 229.378 2.44973 2.99207 0
M  V30 2388 H 231.067 2.8548 2.88541 0
M  V30 2389 H 231.833 4.69471 1.21744 0
M  V30 2390 H 227.712 4.0262 2.24539 0
M  V30 2391 H 231.256 6.96271 0.430368 0
M  V30 2392 H 227.153 6.28688 1.46362 0
M  V30 2393 H 227.921 8.16453 0.578457 0
M  V30 2394 N 230.584 -0.659388 1.43143 0
M  V30 2395 C 231.832 -1.41654 1.44147 0
M  V30 2396 C 232.153 -1.94893 0.0645739 0
M  V30 2397 O 231.423 -1.74044 -0.899198 0
M  V30 2398 H 230.003 -0.525708 0.530697 0
M  V30 2399 H 232.665 -0.778097 1.78694 0
M  V30 2400 H 231.761 -2.26195 2.1504 0
M  V30 2401 N 232.062 -1.29571 -0.897171 0
M  V30 2402 C 233.01 -1.14802 -2.02295 0
M  V30 2403 C 234.004 -0.0629637 -1.69283 0
M  V30 2404 O 235.21 -0.222945 -1.78614 0
M  V30 2405 H 231.585 -0.354692 -0.663097 0
M  V30 2406 H 233.556 -2.10108 -2.11889 0
M  V30 2407 C 232.305 -0.843966 -3.37302 0
M  V30 2408 H 231.628 -1.67093 -3.63208 0
M  V30 2409 H 233.068 -0.780672 -4.16751 0
M  V30 2410 C 231.527 0.452843 -3.33843 0
M  V30 2411 O 232.057 1.47813 -3.73516 0
M  V30 2412 N 230.263 0.459601 -2.86943 0
M  V30 2413 H 229.81 -0.375213 -2.54853 0
M  V30 2414 H 229.768 1.32726 -2.85011 0
M  V30 2415 N 233.54 1.10788 -1.12088 0
M  V30 2416 C 234.787 1.82671 -0.873931 0
M  V30 2417 C 235.115 1.85004 0.600311 0
M  V30 2418 O 234.37 1.30365 1.45957 0
M  V30 2419 C 234.669 3.29294 -1.38926 0
M  V30 2420 C 234.335 3.47113 -2.87791 0
M  V30 2421 C 232.997 3.51684 -3.28439 0
M  V30 2422 C 235.349 3.52808 -3.83635 0
M  V30 2423 C 232.677 3.59513 -4.63646 0
M  V30 2424 C 235.029 3.62169 -5.18668 0
M  V30 2425 C 233.693 3.65003 -5.58864 0
M  V30 2426 H 232.963 0.668441 -0.319794 0
M  V30 2427 H 235.61 1.30613 -1.40045 0
M  V30 2428 H 233.915 3.83894 -0.783122 0
M  V30 2429 H 235.612 3.83416 -1.17443 0
M  V30 2430 H 232.202 3.4423 -2.5535 0
M  V30 2431 H 236.386 3.4853 -3.53328 0
M  V30 2432 H 231.642 3.59987 -4.94185 0
M  V30 2433 H 235.816 3.6552 -5.92763 0
M  V30 2434 H 233.443 3.70822 -6.63623 0
M  V30 2435 N 235.018 0.912232 1.28515 0
M  V30 2436 C 236.266 0.543523 1.94654 0
M  V30 2437 C 236.587 -0.9155 1.72173 0
M  V30 2438 O 235.857 -1.64708 1.06058 0
M  V30 2439 H 234.437 0.198017 0.720277 0
M  V30 2440 H 237.099 1.16126 1.56527 0
M  V30 2441 H 236.195 0.736684 3.03281 0
M  V30 2442 N 236.496 -1.42363 0.676048 0
M  V30 2443 C 237.428 -2.29164 -0.0404605 0
M  V30 2444 C 238.441 -1.43747 -0.764245 0
M  V30 2445 O 239.63 -1.67453 -0.618195 0
M  V30 2446 C 236.73 -3.21196 -1.08103 0
M  V30 2447 C 235.903 -4.35273 -0.430812 0
M  V30 2448 C 234.962 -5.08017 -1.37133 0
M  V30 2449 O 233.988 -5.62494 -0.87116 0
M  V30 2450 N 235.19 -5.13647 -2.70456 0
M  V30 2451 H 237.955 -2.91298 0.704667 0
M  V30 2452 H 235.516 -1.53303 0.520559 0
M  V30 2453 H 237.508 -3.66728 -1.71152 0
M  V30 2454 H 236.078 -2.60505 -1.72788 0
M  V30 2455 H 235.298 -3.92372 0.379209 0
M  V30 2456 H 236.586 -5.08795 0.0221132 0
M  V30 2457 H 235.984 -4.708 -3.1363 0
M  V30 2458 H 234.541 -5.62821 -3.28749 0
M  V30 2459 N 237.974 -0.419461 -1.51915 0
M  V30 2460 C 238.937 0.389116 -2.25873 0
M  V30 2461 C 239.937 0.964924 -1.28631 0
M  V30 2462 O 241.127 0.842179 -1.52489 0
M  V30 2463 C 238.259 1.54874 -3.03689 0
M  V30 2464 H 239.452 -0.258799 -2.98781 0
M  V30 2465 H 237.005 -0.172209 -1.55348 0
M  V30 2466 H 237.74 2.23323 -2.35154 0
M  V30 2467 H 237.525 1.14223 -3.75094 0
M  V30 2468 H 239.015 2.12046 -3.59759 0
M  V30 2469 N 239.452 1.56882 -0.150215 0
M  V30 2470 C 240.4 2.18214 0.805313 0
M  V30 2471 C 241.394 1.14006 1.25296 0
M  V30 2472 O 242.6 1.3225 1.22107 0
M  V30 2473 H 238.975 0.698762 0.277913 0
M  V30 2474 H 240.946 2.97231 0.263862 0
M  V30 2475 C 239.695 2.82065 2.03309 0
M  V30 2476 H 239.018 3.61968 1.69763 0
M  V30 2477 H 240.458 3.28477 2.68103 0
M  V30 2478 C 238.917 1.80739 2.84315 0
M  V30 2479 O 239.447 1.27983 3.80767 0
M  V30 2480 N 237.653 1.4997 2.48913 0
M  V30 2481 H 237.2 1.93062 1.70542 0
M  V30 2482 H 237.158 0.824217 3.03404 0
M  V30 2483 N 240.93 -0.123565 1.57115 0
M  V30 2484 C 242.16 -0.845233 1.88519 0
M  V30 2485 C 242.568 -1.74168 0.739064 0
M  V30 2486 O 241.911 -1.81244 -0.299355 0
M  V30 2487 C 241.973 -1.73452 3.14888 0
M  V30 2488 C 241.637 -1.01285 4.45635 0
M  V30 2489 C 242.634 -0.355774 5.18681 0
M  V30 2490 C 240.319 -0.99538 4.92339 0
M  V30 2491 C 242.313 0.309114 6.3665 0
M  V30 2492 C 240 -0.32669 6.10226 0
M  V30 2493 C 240.998 0.324406 6.82229 0
M  V30 2494 O 240.686 0.982437 7.97874 0
M  V30 2495 H 240.418 -0.248534 0.628655 0
M  V30 2496 H 242.972 -0.113907 2.05084 0
M  V30 2497 H 241.202 -2.50737 2.94394 0
M  V30 2498 H 242.891 -2.33021 3.32349 0
M  V30 2499 H 243.657 -0.360918 4.83655 0
M  V30 2500 H 239.536 -1.49159 4.36202 0
M  V30 2501 H 243.08 0.8179 6.92789 0
M  V30 2502 H 238.977 -0.319294 6.4471 0
M  V30 2503 H 239.745 0.886454 8.13686 0
M  V30 2504 N 242.408 -1.52605 -0.393616 0
M  V30 2505 C 243.633 -1.71592 -1.16495 0
M  V30 2506 C 244.058 -0.43133 -1.83088 0
M  V30 2507 O 243.416 0.612523 -1.7064 0
M  V30 2508 C 243.464 -2.86318 -2.19213 0
M  V30 2509 O 242.568 -2.52969 -3.257 0
M  V30 2510 H 241.909 -0.570734 -0.33935 0
M  V30 2511 H 244.439 -1.99377 -0.459324 0
M  V30 2512 H 244.449 -3.1168 -2.63286 0
M  V30 2513 H 243.124 -3.79511 -1.7013 0
M  V30 2514 H 241.701 -2.38332 -2.86797 0
M  V30 2515 N 243.887 0.651787 -1.4349 0
M  V30 2516 C 244.85 1.74647 -1.48429 0
M  V30 2517 C 245.85 1.56513 -0.368817 0
M  V30 2518 O 247.04 1.62385 -0.630623 0
M  V30 2519 C 244.172 3.13533 -1.33827 0
M  V30 2520 H 245.365 1.71649 -2.4592 0
M  V30 2521 H 242.918 0.863573 -1.30277 0
M  V30 2522 H 243.653 3.22142 -0.37349 0
M  V30 2523 H 243.438 3.28101 -2.14691 0
M  V30 2524 H 244.928 3.93356 -1.40218 0
M  V30 2525 N 245.365 1.30045 0.890287 0
M  V30 2526 C 246.328 1.15963 1.977 0
M  V30 2527 C 247.328 0.0923777 1.60534 0
M  V30 2528 O 248.518 0.340071 1.70848 0
M  V30 2529 C 245.65 0.775451 3.31963 0
M  V30 2530 H 246.843 2.12502 2.11619 0
M  V30 2531 H 244.396 1.13366 1.07601 0
M  V30 2532 H 245.131 -0.189671 3.23745 0
M  V30 2533 H 244.916 1.54668 3.60306 0
M  V30 2534 H 246.406 0.700251 4.11687 0
M  V30 2535 N 246.843 -1.10192 1.12674 0
M  V30 2536 C 247.79 -2.16606 0.796906 0
M  V30 2537 C 248.76 -1.64394 -0.237476 0
M  V30 2538 O 249.945 -1.90474 -0.111484 0
M  V30 2539 C 247.085 -3.44116 0.26043 0
M  V30 2540 C 246.198 -4.10268 1.35293 0
M  V30 2541 C 245.333 -5.25507 0.775621 0
M  V30 2542 C 244.372 -5.83567 1.84706 0
M  V30 2543 N 243.509 -6.90179 1.28829 0
M  V30 2544 H 248.349 -2.44163 1.70846 0
M  V30 2545 H 245.886 -1.19846 0.85295 0
M  V30 2546 H 247.844 -4.17143 -0.0686814 0
M  V30 2547 H 246.474 -3.16901 -0.614274 0
M  V30 2548 H 245.526 -3.35184 1.79877 0
M  V30 2549 H 246.838 -4.4946 2.16303 0
M  V30 2550 H 245.992 -6.05398 0.397327 0
M  V30 2551 H 244.731 -4.87656 -0.0656581 0
M  V30 2552 H 243.736 -5.02344 2.23452 0
M  V30 2553 H 244.961 -6.23482 2.69161 0
M  V30 2554 H 242.907 -6.54322 0.468881 0
M  V30 2555 H 242.824 -7.28097 2.03497 0
M  V30 2556 H 244.092 -7.73844 0.937311 0
M  V30 2557 N 248.321 -0.919034 -1.28029 0
M  V30 2558 C 249.251 -0.428581 -2.29533 0
M  V30 2559 C 250.232 0.50659 -1.62381 0
M  V30 2560 O 251.417 0.413195 -1.89753 0
M  V30 2561 C 248.547 0.327388 -3.45753 0
M  V30 2562 C 247.501 -0.519137 -4.2484 0
M  V30 2563 C 246.827 0.365486 -5.33449 0
M  V30 2564 C 248.127 -1.77914 -4.91064 0
M  V30 2565 H 249.821 -1.27687 -2.70807 0
M  V30 2566 H 247.367 -0.615428 -1.30186 0
M  V30 2567 H 249.32 0.681378 -4.15855 0
M  V30 2568 H 248.044 1.20963 -3.03374 0
M  V30 2569 H 246.703 -0.855717 -3.56473 0
M  V30 2570 H 246.351 1.24642 -4.87312 0
M  V30 2571 H 246.051 -0.197356 -5.87268 0
M  V30 2572 H 247.575 0.715241 -6.06396 0
M  V30 2573 H 248.989 -1.49374 -5.53498 0
M  V30 2574 H 247.386 -2.2848 -5.54903 0
M  V30 2575 H 248.456 -2.50382 -4.15255 0
M  V30 2576 N 249.799 1.42003 -0.683588 0
M  V30 2577 C 251.047 2.01015 -0.209101 0
M  V30 2578 C 251.368 1.54365 1.19149 0
M  V30 2579 O 250.638 0.769083 1.80172 0
M  V30 2580 H 249.218 0.743294 -0.074315 0
M  V30 2581 H 251.88 1.73798 -0.882066 0
M  V30 2582 H 250.976 3.11343 -0.2172 0
M  V30 2583 N 251.277 0.427512 1.51691 0
M  V30 2584 C 252.207 -0.3796 2.30394 0
M  V30 2585 C 253.188 -1.02982 1.35384 0
M  V30 2586 O 254.373 -1.03534 1.643 0
M  V30 2587 C 251.503 -1.48649 3.1388 0
M  V30 2588 C 250.457 -0.960294 4.17088 0
M  V30 2589 C 249.783 -2.16219 4.89033 0
M  V30 2590 C 251.083 -0.00153679 5.223 0
M  V30 2591 H 252.777 0.277164 2.98114 0
M  V30 2592 H 250.323 0.134739 1.43368 0
M  V30 2593 H 252.276 -2.05826 3.67714 0
M  V30 2594 H 251 -2.1714 2.43962 0
M  V30 2595 H 249.659 -0.410806 3.64291 0
M  V30 2596 H 249.307 -2.83307 4.15628 0
M  V30 2597 H 249.007 -1.81654 5.58816 0
M  V30 2598 H 250.531 -2.73968 5.45687 0
M  V30 2599 H 251.945 -0.482687 5.71264 0
M  V30 2600 H 250.342 0.256199 5.99553 0
M  V30 2601 H 251.412 0.938174 4.75738 0
M  V30 2602 N 252.755 -1.56801 0.158532 0
M  V30 2603 C 253.685 -2.20347 -0.772609 0
M  V30 2604 C 254.666 -1.15518 -1.24859 0
M  V30 2605 O 255.851 -1.43902 -1.30406 0
M  V30 2606 C 252.981 -2.83417 -2.00729 0
M  V30 2607 C 251.935 -3.94174 -1.66765 0
M  V30 2608 C 251.261 -4.44233 -2.97592 0
M  V30 2609 C 252.561 -5.14392 -0.905447 0
M  V30 2610 H 254.255 -2.98413 -0.242959 0
M  V30 2611 H 251.801 -1.43537 -0.115419 0
M  V30 2612 H 253.754 -3.26543 -2.6636 0
M  V30 2613 H 252.478 -2.02701 -2.56086 0
M  V30 2614 H 251.137 -3.51684 -1.03508 0
M  V30 2615 H 250.785 -3.60325 -3.50963 0
M  V30 2616 H 250.485 -5.18945 -2.75626 0
M  V30 2617 H 252.009 -4.90037 -3.64274 0
M  V30 2618 H 253.423 -5.5429 -1.46408 0
M  V30 2619 H 251.82 -5.9494 -0.7853 0
M  V30 2620 H 252.89 -4.84795 0.100668 0
M  V30 2621 N 254.233 0.115231 -1.57178 0
M  V30 2622 C 255.481 0.820727 -1.84685 0
M  V30 2623 C 255.802 1.80237 -0.744279 0
M  V30 2624 O 255.072 1.94529 0.231375 0
M  V30 2625 H 253.652 0.306084 -0.681411 0
M  V30 2626 H 256.314 0.101656 -1.94635 0
M  V30 2627 H 255.41 1.36366 -2.80733 0
M  V30 2628 N 255.711 1.52812 0.385517 0
M  V30 2629 C 256.641 1.80808 1.47752 0
M  V30 2630 C 257.622 0.660318 1.5676 0
M  V30 2631 O 258.807 0.908246 1.71652 0
M  V30 2632 C 255.937 1.98008 2.85324 0
M  V30 2633 C 254.891 3.13709 2.91154 0
M  V30 2634 C 254.217 3.16169 4.31209 0
M  V30 2635 C 255.517 4.52709 2.60483 0
M  V30 2636 H 257.211 2.72253 1.24573 0
M  V30 2637 H 254.757 1.31003 0.597839 0
M  V30 2638 H 256.71 2.16176 3.61726 0
M  V30 2639 H 255.434 1.03255 3.09848 0
M  V30 2640 H 254.093 2.95329 2.17201 0
M  V30 2641 H 253.741 2.19092 4.52778 0
M  V30 2642 H 253.441 3.93894 4.36029 0
M  V30 2643 H 254.965 3.36496 5.09512 0
M  V30 2644 H 256.379 4.71173 3.26602 0
M  V30 2645 H 254.776 5.32528 2.76648 0
M  V30 2646 H 255.846 4.59186 1.55809 0
M  V30 2647 N 257.189 -0.644168 1.43834 0
M  V30 2648 C 258.152 -1.73857 1.49353 0
M  V30 2649 C 259.152 -1.56315 0.377112 0
M  V30 2650 O 260.342 -1.62048 0.639226 0
M  V30 2651 C 257.474 -3.12819 1.35488 0
M  V30 2652 H 258.667 -1.70342 2.46827 0
M  V30 2653 H 256.22 -0.856652 1.30733 0
M  V30 2654 H 256.955 -3.2194 0.390569 0
M  V30 2655 H 256.74 -3.26958 2.16428 0
M  V30 2656 H 258.23 -3.92606 1.42302 0
M  V30 2657 N 258.668 -1.30515 -0.883378 0
M  V30 2658 C 259.616 -1.16941 -2.01066 0
M  V30 2659 C 260.61 -0.0809148 -1.69207 0
M  V30 2660 O 261.816 -0.241877 -1.78367 0
M  V30 2661 H 258.191 -0.361705 -0.659298 0
M  V30 2662 H 260.162 -2.12344 -2.09649 0
M  V30 2663 C 258.911 -0.879694 -3.36388 0
M  V30 2664 H 258.234 -1.70936 -3.61415 0
M  V30 2665 H 259.674 -0.82483 -4.159 0
M  V30 2666 C 258.133 0.417409 -3.34304 0
M  V30 2667 O 258.663 1.43843 -3.75063 0
M  V30 2668 N 256.869 0.429141 -2.87414 0
M  V30 2669 H 256.416 -0.402222 -2.5444 0
M  V30 2670 H 256.374 1.29696 -2.86403 0
M  V30 2671 N 260.146 1.09593 -1.13257 0
M  V30 2672 C 261.371 1.8604 -0.916732 0
M  V30 2673 C 261.796 1.80504 0.529146 0
M  V30 2674 O 261.154 1.18127 1.37534 0
M  V30 2675 C 261.202 3.32017 -1.40703 0
M  V30 2676 O 260.306 4.08141 -0.591153 0
M  V30 2677 H 259.647 0.576943 -0.328683 0
M  V30 2678 H 262.177 1.38405 -1.50682 0
M  V30 2679 H 262.187 3.82865 -1.4099 0
M  V30 2680 H 260.862 3.35361 -2.45979 0
M  V30 2681 H 259.439 3.67084 -0.656005 0
M  V30 2682 N 261.624 0.925811 1.2754 0
M  V30 2683 C 262.554 0.440748 2.29303 0
M  V30 2684 C 263.535 -0.497971 1.62648 0
M  V30 2685 O 264.72 -0.403126 1.8997 0
M  V30 2686 C 261.85 -0.309048 3.45922 0
M  V30 2687 C 260.804 0.54166 4.24559 0
M  V30 2688 C 260.13 -0.337191 5.33636 0
M  V30 2689 C 261.43 1.80516 4.90114 0
M  V30 2690 H 263.124 1.29121 2.70126 0
M  V30 2691 H 260.67 0.622323 1.29858 0
M  V30 2692 H 262.623 -0.659315 4.1621 0
M  V30 2693 H 261.347 -1.19352 3.04011 0
M  V30 2694 H 260.006 0.874609 3.56014 0
M  V30 2695 H 259.654 -1.22056 4.87966 0
M  V30 2696 H 259.354 0.228497 5.87156 0
M  V30 2697 H 260.878 -0.683072 6.06767 0
M  V30 2698 H 262.292 1.52307 5.52698 0
M  V30 2699 H 260.689 2.3142 5.53683 0
M  V30 2700 H 261.759 2.52581 4.13921 0
M  V30 2701 N 263.102 -1.41638 0.69111 0
M  V30 2702 C 264.065 -2.29178 0.0319786 0
M  V30 2703 C 265.065 -1.44153 -0.712496 0
M  V30 2704 O 266.255 -1.65354 -0.548053 0
M  V30 2705 C 263.387 -3.26952 -0.965161 0
M  V30 2706 H 264.58 -2.88959 0.802681 0
M  V30 2707 H 262.133 -1.4955 0.454356 0
M  V30 2708 H 262.868 -2.72142 -1.76378 0
M  V30 2709 H 262.653 -3.89685 -0.434522 0
M  V30 2710 H 264.143 -3.92561 -1.42428 0
M  V30 2711 N 264.58 -0.43555 -1.51462 0
M  V30 2712 C 265.829 0.133007 -2.01261 0
M  V30 2713 C 266.142 1.43942 -1.32439 0
M  V30 2714 O 267.348 2.09081 -1.73198 0
M  V30 2715 C 265.804 0.287581 -3.58749 0
M  V30 2716 C 265.412 -1.00829 -4.36506 0
M  V30 2717 C 267.156 0.810004 -4.167 0
M  V30 2718 C 265.063 -0.819454 -5.85695 0
M  V30 2719 H 263.993 0.0534822 -0.752101 0
M  V30 2720 H 266.644 -0.565038 -1.74584 0
M  V30 2721 H 265.026 1.04859 -3.81865 0
M  V30 2722 H 266.2 -1.77749 -4.25138 0
M  V30 2723 H 264.515 -1.45911 -3.89999 0
M  V30 2724 H 267.112 0.967743 -5.2587 0
M  V30 2725 H 267.455 1.79196 -3.75758 0
M  V30 2726 H 267.988 0.107357 -3.97655 0
M  V30 2727 H 264.727 -1.77374 -6.31046 0
M  V30 2728 H 264.247 -0.0900208 -5.99732 0
M  V30 2729 H 265.926 -0.471949 -6.45276 0
M  V30 2730 N 266.058 1.56714 -0.166846 0
M  V30 2731 C 266.968 2.21331 0.777791 0
M  V30 2732 C 267.984 1.20358 1.25658 0
M  V30 2733 O 269.16 1.53005 1.30964 0
M  V30 2734 C 266.225 2.83787 1.99163 0
M  V30 2735 C 265.286 3.99947 1.56016 0
M  V30 2736 C 264.519 4.59415 2.71613 0
M  V30 2737 O 264.742 4.17769 3.88362 0
M  V30 2738 O 263.676 5.49359 2.45945 0
M  V30 2739 H 267.502 3.02605 0.257636 0
M  V30 2740 H 265.087 1.49275 0.0611393 0
M  V30 2741 H 266.969 3.23405 2.70161 0
M  V30 2742 H 265.644 2.05513 2.50092 0
M  V30 2743 H 264.551 3.65007 0.819809 0
M  V30 2744 H 265.884 4.79801 1.09782 0
M  V30 2745 N 267.536 -0.106894 1.57237 0
M  V30 2746 C 268.784 -0.810921 1.85117 0
M  V30 2747 C 269.105 -1.7984 0.753827 0
M  V30 2748 O 268.375 -1.94649 -0.221056 0
M  V30 2749 H 266.955 -0.302466 0.683025 0
M  V30 2750 H 269.617 -0.0913324 1.94686 0
M  V30 2751 H 268.713 -1.34875 2.81452 0
M  V30 2752 N 269.014 -1.53014 -0.377408 0
M  V30 2753 C 270.43 -1.42523 -0.718281 0
M  V30 2754 C 270.63 -0.55487 -1.9371 0
M  V30 2755 O 269.686 -0.0327593 -2.52479 0
M  V30 2756 C 270.999 -2.85546 -0.942539 0
M  V30 2757 C 272.547 -2.95101 -1.04329 0
M  V30 2758 C 273.022 -4.3916 -1.3001 0
M  V30 2759 N 274.513 -4.42536 -1.36806 0
M  V30 2760 C 275.248 -5.51097 -1.58364 0
M  V30 2761 N 274.744 -6.69724 -1.77317 0
M  V30 2762 N 276.537 -5.38657 -1.60638 0
M  V30 2763 H 268.688 -2.08116 0.424426 0
M  V30 2764 H 270.951 -0.939352 0.127759 0
M  V30 2765 H 270.657 -3.51499 -0.118929 0
M  V30 2766 H 270.531 -3.28493 -1.85397 0
M  V30 2767 H 272.918 -2.29309 -1.85745 0
M  V30 2768 H 272.999 -2.55566 -0.109505 0
M  V30 2769 H 272.643 -5.05521 -0.490991 0
M  V30 2770 H 272.573 -4.76258 -2.24691 0
M  V30 2771 H 275.064 -3.57039 -1.23821 0
M  V30 2772 H 275.377 -7.48233 -1.93306 0
M  V30 2773 H 273.722 -6.72732 -1.74518 0
M  V30 2774 H 276.913 -4.44948 -1.45391 0
M  V30 2775 H 277.086 -6.2333 -1.77098 0
M  V30 2776 N 270.492 0.636531 -1.44174 0
M  V30 2777 C 271.439 1.74875 -1.50624 0
M  V30 2778 C 272.409 1.62275 -0.35442 0
M  V30 2779 O 273.594 1.82276 -0.563908 0
M  V30 2780 C 270.734 3.13102 -1.45125 0
M  V30 2781 C 269.847 3.36717 -2.7064 0
M  V30 2782 C 268.982 4.64885 -2.57013 0
M  V30 2783 C 268.021 4.8166 -3.77717 0
M  V30 2784 N 267.158 6.01101 -3.62798 0
M  V30 2785 H 271.998 1.68697 -2.45653 0
M  V30 2786 H 269.535 0.823004 -1.21922 0
M  V30 2787 H 271.493 3.93034 -1.39929 0
M  V30 2788 H 270.123 3.18308 -0.536671 0
M  V30 2789 H 269.175 2.50763 -2.86046 0
M  V30 2790 H 270.487 3.44993 -3.60252 0
M  V30 2791 H 269.641 5.52969 -2.49619 0
M  V30 2792 H 268.38 4.58957 -1.64953 0
M  V30 2793 H 267.385 3.92007 -3.85501 0
M  V30 2794 H 268.61 4.89406 -4.70807 0
M  V30 2795 H 266.556 5.96273 -2.73486 0
M  V30 2796 H 266.473 6.10409 -4.46023 0
M  V30 2797 H 267.741 6.91761 -3.59286 0
M  V30 2798 N 271.97 1.30982 0.876444 0
M  V30 2799 C 273.195 1.23373 1.66715 0
M  V30 2800 C 273.62 -0.19885 1.87046 0
M  V30 2801 O 272.978 -1.1427 1.40756 0
M  V30 2802 C 273.026 1.97644 3.01611 0
M  V30 2803 O 272.13 1.30935 3.91062 0
M  V30 2804 H 271.471 0.426279 0.509099 0
M  V30 2805 H 274.001 1.72944 1.09323 0
M  V30 2806 H 274.011 2.06992 3.51594 0
M  V30 2807 H 272.686 3.01829 2.86133 0
M  V30 2808 H 271.263 1.29996 3.49507 0
M  V30 2809 N 273.449 -1.08991 1.13837 0
M  V30 2810 C 274.397 -2.17841 0.815347 0
M  V30 2811 C 275.391 -1.68164 -0.204233 0
M  V30 2812 O 276.597 -1.79897 -0.0609304 0
M  V30 2813 H 272.972 -0.710654 0.245915 0
M  V30 2814 H 274.943 -2.42315 1.74143 0
M  V30 2815 C 273.692 -3.46381 0.302614 0
M  V30 2816 H 273.015 -3.84979 1.0785 0
M  V30 2817 H 274.455 -4.23844 0.115074 0
M  V30 2818 C 272.914 -3.22556 -0.972591 0
M  V30 2819 O 273.444 -3.45599 -2.04754 0
M  V30 2820 N 271.65 -2.76134 -0.905455 0
M  V30 2821 H 271.197 -2.57582 -0.0305421 0
M  V30 2822 H 271.155 -2.60571 -1.75926 0
M  V30 2823 N 274.927 -0.932562 -1.27047 0
M  V30 2824 C 276.176 -0.571351 -1.93439 0
M  V30 2825 C 276.489 0.892467 -1.74053 0
M  V30 2826 O 277.695 1.36267 -2.34826 0
M  V30 2827 C 276.151 -0.97106 -3.46552 0
M  V30 2828 C 275.759 -2.4559 -3.74686 0
M  V30 2829 C 277.503 -0.681333 -4.18997 0
M  V30 2830 C 275.41 -2.79475 -5.21198 0
M  V30 2831 H 274.34 -0.209966 -0.724176 0
M  V30 2832 H 276.991 -1.13403 -1.44263 0
M  V30 2833 H 275.373 -0.336983 -3.94564 0
M  V30 2834 H 276.547 -3.13829 -3.37414 0
M  V30 2835 H 274.862 -2.71802 -3.15456 0
M  V30 2836 H 277.459 -0.910939 -5.26883 0
M  V30 2837 H 277.802 0.381628 -4.14547 0
M  V30 2838 H 278.335 -1.27473 -3.76823 0
M  V30 2839 H 275.074 -3.847 -5.30741 0
M  V30 2840 H 274.594 -2.1589 -5.596 0
M  V30 2841 H 276.273 -2.67478 -5.89122 0
M  V30 2842 N 276.405 1.4127 -0.698611 0
M  V30 2843 C 277.355 2.27997 -0.0119836 0
M  V30 2844 C 278.339 1.42363 0.749765 0
M  V30 2845 O 279.531 1.65607 0.624758 0
M  V30 2846 C 276.66 3.30702 0.921458 0
M  V30 2847 C 275.746 4.23814 0.155796 0
M  V30 2848 N 276.137 4.98572 -0.852015 0
M  V30 2849 C 274.435 4.44284 0.390836 0
M  V30 2850 C 275.136 5.66744 -1.3106 0
M  V30 2851 N 274.112 5.39867 -0.635944 0
M  V30 2852 H 277.914 2.83232 -0.784649 0
M  V30 2853 H 275.428 1.53518 -0.529711 0
M  V30 2854 H 277.425 3.91661 1.42854 0
M  V30 2855 H 276.085 2.77028 1.69369 0
M  V30 2856 H 277.096 5.03024 -1.23235 0
M  V30 2857 H 273.773 4.01614 1.14071 0
M  V30 2858 H 275.163 6.36672 -2.14707 0
M  V30 2859 N 277.883 0.443576 1.51229 0
M  V30 2860 C 279.123 -0.119889 2.04048 0
M  V30 2861 C 279.487 -1.39418 1.32009 0
M  V30 2862 O 280.688 -2.03829 1.75235 0
M  V30 2863 C 278.959 -0.327233 3.55899 0
M  V30 2864 S 280.518 -0.853208 4.30425 0
M  V30 2865 H 277.336 -0.028921 0.710412 0
M  V30 2866 H 279.938 0.604413 1.85922 0
M  V30 2867 H 278.642 0.606445 4.05895 0
M  V30 2868 H 278.173 -1.07844 3.7833 0
M  V30 2869 H 280.188 -2.13005 4.48155 0
M  V30 2870 N 279.361 -1.56624 0.175154 0
M  V30 2871 C 280.309 -2.19468 -0.770495 0
M  V30 2872 C 281.303 -1.15985 -1.23466 0
M  V30 2873 O 282.509 -1.34176 -1.19987 0
M  V30 2874 H 278.884 -0.703095 -0.266761 0
M  V30 2875 H 280.855 -2.97613 -0.216542 0
M  V30 2876 C 279.604 -2.85264 -1.98796 0
M  V30 2877 H 278.927 -3.64623 -1.63983 0
M  V30 2878 H 280.367 -3.327 -2.62843 0
M  V30 2879 C 278.826 -1.85239 -2.81404 0
M  V30 2880 O 279.356 -1.34024 -3.78682 0
M  V30 2881 N 277.562 -1.53911 -2.46495 0
M  V30 2882 H 277.109 -1.95751 -1.67449 0
M  V30 2883 H 277.067 -0.872382 -3.02054 0
M  V30 2884 N 280.839 0.0985539 -1.57292 0
M  V30 2885 C 282.067 0.816318 -1.90115 0
M  V30 2886 C 282.482 1.72451 -0.768509 0
M  V30 2887 O 281.839 1.80643 0.259687 0
M  V30 2888 C 281.89 1.63259 -3.22535 0
M  V30 2889 O 281.611 0.760934 -4.31441 0
M  V30 2890 C 283.112 2.45372 -3.69199 0
M  V30 2891 H 280.332 0.233595 -0.629027 0
M  V30 2892 H 282.876 0.0768229 -2.04356 0
M  V30 2893 H 281.031 2.32463 -3.09903 0
M  V30 2894 H 281.445 1.32595 -5.07463 0
M  V30 2895 H 282.919 2.98144 -4.64558 0
M  V30 2896 H 283.396 3.23677 -2.96867 0
M  V30 2897 H 284.002 1.81373 -3.84687 0
M  V30 2898 N 282.317 1.53212 0.369288 0
M  V30 2899 C 283.566 1.68436 1.10961 0
M  V30 2900 C 283.879 0.440738 1.9057 0
M  V30 2901 O 285.085 0.473446 2.6734 0
M  V30 2902 C 283.541 2.97744 2.0218 0
M  V30 2903 C 283.149 4.29355 1.279 0
M  V30 2904 C 284.893 3.22334 2.76226 0
M  V30 2905 C 282.8 5.49755 2.17999 0
M  V30 2906 H 281.73 0.627568 0.41794 0
M  V30 2907 H 284.381 1.79713 0.370884 0
M  V30 2908 H 282.763 2.8026 2.79768 0
M  V30 2909 H 283.937 4.57458 0.554007 0
M  V30 2910 H 282.252 4.11179 0.657311 0
M  V30 2911 H 284.849 4.09471 3.43857 0
M  V30 2912 H 285.192 2.38238 3.41392 0
M  V30 2913 H 285.725 3.40475 2.05723 0
M  V30 2914 H 282.464 6.36318 1.57417 0
M  V30 2915 H 281.984 5.25937 2.88359 0
M  V30 2916 H 283.663 5.84401 2.77641 0
M  V30 2917 N 283.795 -0.628877 1.44509 0
M  V30 2918 C 284.758 -1.72263 1.51188 0
M  V30 2919 C 285.758 -1.55907 0.39367 0
M  V30 2920 O 286.948 -1.61361 0.656377 0
M  V30 2921 C 284.08 -3.11365 1.38798 0
M  V30 2922 H 285.273 -1.67714 2.4862 0
M  V30 2923 H 282.826 -0.842737 1.31634 0
M  V30 2924 H 283.561 -3.21507 0.424693 0
M  V30 2925 H 283.346 -3.24644 2.19884 0
M  V30 2926 H 284.836 -3.91075 1.46458 0
M  V30 2927 N 285.273 -1.31445 -0.869486 0
M  V30 2928 C 286.684 -1.19042 -1.43826 0
M  V30 2929 C 287.035 0.202919 -1.95148 0
M  V30 2930 O 286.16 1.10071 -1.86315 0
M  V30 2931 C 286.755 -2.15499 -2.6143 0
M  V30 2932 C 285.314 -2.07028 -3.14351 0
M  V30 2933 C 284.461 -2.04701 -1.87063 0
M  V30 2934 H 287.412 -1.43489 -0.677984 0
M  V30 2935 H 287.433 -1.74488 -3.38134 0
M  V30 2936 H 286.945 -3.16899 -2.24046 0
M  V30 2937 H 285.046 -1.08825 -3.56354 0
M  V30 2938 H 285.159 -2.96157 -3.766 0
M  V30 2939 H 283.523 -1.49724 -2.06046 0
M  V30 2940 H 284.306 -3.07857 -1.51917 0
M  V30 2941 N 286.751 1.08385 -1.14413 0
M  V30 2942 C 287.699 2.17406 -0.826888 0
M  V30 2943 C 288.693 1.6827 0.195312 0
M  V30 2944 O 289.899 1.79927 0.0513892 0
M  V30 2945 H 286.274 0.70934 -0.249681 0
M  V30 2946 H 288.245 2.41388 -1.75426 0
M  V30 2947 C 286.994 3.46215 -0.320979 0
M  V30 2948 H 286.317 3.84401 -1.0989 0
M  V30 2949 H 287.757 4.23777 -0.137549 0
M  V30 2950 C 286.216 3.23067 0.955472 0
M  V30 2951 O 286.746 3.4668 2.02918 0
M  V30 2952 N 284.952 2.7661 0.890798 0
M  V30 2953 H 284.499 2.57594 0.0168815 0
M  V30 2954 H 284.457 2.61501 1.74542 0
M  V30 2955 N 288.23 0.939286 1.26551 0
M  V30 2956 C 289.193 0.451987 2.24699 0
M  V30 2957 C 290.193 -0.435869 1.5478 0
M  V30 2958 O 291.383 -0.235314 1.72603 0
M  V30 2959 C 288.515 -0.348801 3.39111 0
M  V30 2960 H 289.708 1.3193 2.69322 0
M  V30 2961 H 287.261 0.721072 1.38673 0
M  V30 2962 H 287.996 -1.23444 2.99887 0
M  V30 2963 H 287.781 0.287945 3.91041 0
M  V30 2964 H 289.271 -0.679726 4.12031 0
M  V30 2965 N 289.708 -1.40897 0.706093 0
M  V30 2966 C 290.956 -2.00657 0.241054 0
M  V30 2967 C 291.277 -1.56241 -1.16678 0
M  V30 2968 O 290.547 -0.79765 -1.78926 0
M  V30 2969 H 289.127 -0.742018 0.0861308 0
M  V30 2970 H 291.789 -1.72372 0.909604 0
M  V30 2971 H 290.885 -3.10958 0.266705 0
M  V30 2972 N 291.186 -0.45159 -1.50991 0
M  V30 2973 C 292.411 0.110667 -2.07105 0
M  V30 2974 C 292.836 1.3446 -1.31538 0
M  V30 2975 O 292.194 1.77743 -0.357365 0
M  V30 2976 C 292.242 0.397238 -3.58405 0
M  V30 2977 O 291.346 1.48124 -3.84881 0
M  V30 2978 H 290.687 -0.00439271 -0.663985 0
M  V30 2979 H 293.217 -0.637026 -1.9443 0
M  V30 2980 H 293.227 0.64351 -4.02893 0
M  V30 2981 H 291.902 -0.504553 -4.12828 0
M  V30 2982 H 290.479 1.22381 -3.52246 0
M  V30 2983 N 292.664 1.56529 -0.183458 0
M  V30 2984 C 294.08 1.58664 0.172554 0
M  V30 2985 C 294.28 1.19925 1.61926 0
M  V30 2986 O 293.336 0.916534 2.35278 0
M  V30 2987 C 294.649 3.00463 -0.119262 0
M  V30 2988 C 296.197 3.12945 -0.0584396 0
M  V30 2989 C 296.672 4.56857 -0.323408 0
M  V30 2990 N 298.163 4.62403 -0.271612 0
M  V30 2991 C 298.898 5.71626 -0.450639 0
M  V30 2992 N 298.394 6.89362 -0.689384 0
M  V30 2993 N 300.187 5.60775 -0.385701 0
M  V30 2994 H 292.338 1.79994 -1.12765 0
M  V30 2995 H 294.601 0.834808 -0.449222 0
M  V30 2996 H 294.307 3.33326 -1.12192 0
M  V30 2997 H 294.181 3.72659 0.583544 0
M  V30 2998 H 296.568 2.79902 0.934805 0
M  V30 2999 H 296.649 2.4316 -0.794144 0
M  V30 3000 H 296.293 4.9061 -1.31392 0
M  V30 3001 H 296.223 5.24816 0.43305 0
M  V30 3002 H 298.714 3.77785 -0.0932256 0
M  V30 3003 H 299.027 7.68489 -0.815113 0
M  V30 3004 H 297.372 6.91196 -0.726142 0
M  V30 3005 H 300.563 4.67674 -0.199687 0
M  V30 3006 H 300.736 6.4584 -0.528646 0
M  V30 3007 N 294.142 -0.090211 1.57342 0
M  V30 3008 C 295.075 -1.14035 1.97664 0
M  V30 3009 C 296.053 -1.38576 0.850616 0
M  V30 3010 O 297.237 -1.52255 1.11134 0
M  V30 3011 C 294.364 -2.48854 2.2976 0
M  V30 3012 C 293.41 -2.40564 3.52181 0
M  V30 3013 S 294.243 -1.81745 5.03715 0
M  V30 3014 C 295.399 -3.18178 5.38993 0
M  V30 3015 H 295.632 -0.796636 2.86428 0
M  V30 3016 H 293.165 -0.298072 1.51496 0
M  V30 3017 H 295.123 -3.26413 2.48927 0
M  V30 3018 H 293.784 -2.80393 1.41558 0
M  V30 3019 H 292.977 -3.39942 3.72096 0
M  V30 3020 H 292.579 -1.71135 3.32549 0
M  V30 3021 H 294.871 -4.14461 5.35937 0
M  V30 3022 H 295.814 -3.03062 6.39968 0
M  V30 3023 H 296.222 -3.17935 4.66452 0
M  V30 3024 N 295.62 -1.53406 -0.361157 0
M  V30 3025 C 296.848 -1.73717 -1.12383 0
M  V30 3026 C 297.263 -0.468161 -1.82904 0
M  V30 3027 O 296.62 0.559198 -1.73722 0
M  V30 3028 C 296.671 -2.90558 -2.15078 0
M  V30 3029 O 296.392 -4.12549 -1.47428 0
M  V30 3030 C 297.893 -3.22777 -3.03858 0
M  V30 3031 H 295.113 -0.580896 -0.335858 0
M  V30 3032 H 297.657 -2.00167 -0.418728 0
M  V30 3033 H 295.812 -2.66489 -2.8118 0
M  V30 3034 H 296.226 -4.78009 -2.15887 0
M  V30 3035 H 297.7 -4.07927 -3.71887 0
M  V30 3036 H 298.177 -2.38329 -3.68912 0
M  V30 3037 H 298.783 -3.48787 -2.43367 0
M  V30 3038 N 297.098 0.621204 -1.44841 0
M  V30 3039 C 298.03 1.74615 -1.48466 0
M  V30 3040 C 299.043 1.58377 -0.37691 0
M  V30 3041 O 300.232 1.66508 -0.643215 0
M  V30 3042 C 297.332 3.12459 -1.31236 0
M  V30 3043 C 296.505 3.55064 -2.55438 0
M  V30 3044 C 295.564 4.71821 -2.32963 0
M  V30 3045 O 294.59 4.79628 -3.06505 0
M  V30 3046 N 295.792 5.64186 -1.36654 0
M  V30 3047 H 298.557 1.71973 -2.45449 0
M  V30 3048 H 296.118 0.806077 -1.40407 0
M  V30 3049 H 298.11 3.88302 -1.14032 0
M  V30 3050 H 296.68 3.09686 -0.4258 0
M  V30 3051 H 295.9 2.69324 -2.87851 0
M  V30 3052 H 297.188 3.80284 -3.38026 0
M  V30 3053 H 296.586 5.6058 -0.759344 0
M  V30 3054 H 295.143 6.39618 -1.25425 0
M  V30 3055 N 298.576 1.31904 0.862503 0
M  V30 3056 C 299.804 1.24998 1.64873 0
M  V30 3057 C 300.219 -0.183425 1.87907 0
M  V30 3058 O 299.576 -1.11794 1.44251 0
M  V30 3059 C 299.627 1.99829 3.01248 0
M  V30 3060 O 299.348 3.37575 2.79239 0
M  V30 3061 C 300.849 1.99852 3.95694 0
M  V30 3062 H 298.069 0.431599 0.513773 0
M  V30 3063 H 300.613 1.73901 1.07604 0
M  V30 3064 H 298.768 1.54668 3.55185 0
M  V30 3065 H 299.182 3.75776 3.65914 0
M  V30 3066 H 300.656 2.56709 4.88676 0
M  V30 3067 H 301.133 0.982852 4.28062 0
M  V30 3068 H 301.739 2.44926 3.47694 0
M  V30 3069 N 300.054 -1.07777 1.14986 0
M  V30 3070 C 301.3 -1.80557 0.923422 0
M  V30 3071 C 301.633 -1.86298 -0.548337 0
M  V30 3072 O 300.908 -1.34354 -1.40639 0
M  V30 3073 C 301.191 -3.25839 1.53299 0
M  V30 3074 C 301.044 -3.28269 3.07505 0
M  V30 3075 C 302.363 -4.22991 1.21518 0
M  V30 3076 H 299.482 -0.655493 0.336894 0
M  V30 3077 H 302.124 -1.26144 1.42083 0
M  V30 3078 H 300.274 -3.72306 1.10999 0
M  V30 3079 H 301.946 -2.90079 3.58681 0
M  V30 3080 H 300.189 -2.67355 3.4162 0
M  V30 3081 H 300.86 -4.30691 3.45266 0
M  V30 3082 H 303.336 -3.84894 1.581 0
M  V30 3083 H 302.212 -5.22945 1.66793 0
M  V30 3084 H 302.473 -4.41904 0.131505 0
M  V30 3085 N 301.532 -0.945985 -1.26051 0
M  V30 3086 C 302.465 -0.403619 -2.24602 0
M  V30 3087 C 303.443 0.510241 -1.54387 0
M  V30 3088 O 304.627 0.446593 -1.83133 0
M  V30 3089 C 301.754 0.419564 -3.36091 0
M  V30 3090 C 300.8 -0.433454 -4.24292 0
M  V30 3091 S 301.633 -1.86037 -5.02146 0
M  V30 3092 C 302.789 -1.04538 -6.17108 0
M  V30 3093 H 303.022 -1.23883 -2.7026 0
M  V30 3094 H 300.555 -0.749438 -1.34992 0
M  V30 3095 H 302.513 0.888595 -4.00767 0
M  V30 3096 H 301.174 1.22951 -2.89036 0
M  V30 3097 H 300.367 0.197486 -5.03613 0
M  V30 3098 H 299.969 -0.837357 -3.64506 0
M  V30 3099 H 302.261 -0.289923 -6.76879 0
M  V30 3100 H 303.204 -1.81222 -6.84518 0
M  V30 3101 H 303.612 -0.579319 -5.61519 0
M  V30 3102 N 303.011 1.40521 -0.713556 0
M  V30 3103 C 304.422 1.83853 -0.324807 0
M  V30 3104 C 304.773 1.59667 1.14021 0
M  V30 3105 O 303.898 1.07649 1.87725 0
M  V30 3106 C 304.493 3.33751 -0.582746 0
M  V30 3107 C 303.052 3.75584 -0.247727 0
M  V30 3108 C 302.199 2.63753 -0.856121 0
M  V30 3109 H 305.15 1.29817 -0.91286 0
M  V30 3110 H 305.171 3.80194 0.152682 0
M  V30 3111 H 304.683 3.51322 -1.64908 0
M  V30 3112 H 302.784 3.63608 0.813624 0
M  V30 3113 H 302.897 4.7373 -0.715307 0
M  V30 3114 H 301.261 2.53108 -0.28432 0
M  V30 3115 H 302.044 2.84137 -1.92668 0
M  V30 3116 N 304.489 0.459591 1.5075 0
M  V30 3117 C 305.399 -0.34613 2.32033 0
M  V30 3118 C 306.415 -1.00686 1.41909 0
M  V30 3119 O 307.591 -0.997361 1.7497 0
M  V30 3120 C 304.656 -1.42029 3.16273 0
M  V30 3121 C 303.717 -0.777362 4.22203 0
M  V30 3122 C 302.95 -1.80034 5.02418 0
M  V30 3123 O 303.173 -3.02544 4.83553 0
M  V30 3124 O 302.107 -1.37853 5.85901 0
M  V30 3125 H 305.933 0.318054 3.0203 0
M  V30 3126 H 303.518 0.221663 1.47746 0
M  V30 3127 H 305.4 -2.04275 3.68578 0
M  V30 3128 H 304.075 -2.06815 2.49016 0
M  V30 3129 H 302.982 -0.116256 3.73919 0
M  V30 3130 H 304.315 -0.172634 4.91897 0
M  V30 3131 N 305.967 -1.56429 0.191757 0
M  V30 3132 C 307.244 -1.89224 -0.495332 0
M  V30 3133 C 307.624 -1.10478 -1.79883 0
M  V30 3134 O 306.972 -0.204852 -2.2758 0
M  V30 3135 C 307.182 -3.41548 -0.717367 0
M  V30 3136 C 308.53 -4.11711 -1.03823 0
M  V30 3137 O 309.554 -3.4698 -0.805204 0
M  V30 3138 O 308.413 -5.2611 -1.47887 0
M  V30 3139 H 305.507 -0.785788 -0.25781 0
M  V30 3140 H 308.053 -1.68111 0.231721 0
M  V30 3141 H 306.825 -3.90772 0.203287 0
M  V30 3142 H 306.448 -3.68342 -1.497 0
M  V30 3143 N 307.445 0.0818655 -1.57387 0
M  V30 3144 C 308.375 1.09885 -2.06028 0
M  V30 3145 C 309.356 1.4098 -0.951774 0
M  V30 3146 O 310.541 1.50781 -1.22387 0
M  V30 3147 C 307.671 2.4151 -2.4958 0
M  V30 3148 C 306.625 2.24792 -3.64215 0
M  V30 3149 C 305.951 3.61712 -3.93787 0
M  V30 3150 C 307.251 1.67749 -4.94629 0
M  V30 3151 H 308.945 0.694128 -2.91243 0
M  V30 3152 H 306.491 0.332448 -1.4011 0
M  V30 3153 H 308.444 3.12939 -2.82219 0
M  V30 3154 H 307.168 2.83943 -1.61381 0
M  V30 3155 H 305.827 1.55807 -3.31843 0
M  V30 3156 H 305.475 4.01697 -3.02735 0
M  V30 3157 H 305.175 3.51368 -4.70971 0
M  V30 3158 H 306.699 4.34587 -4.28913 0
M  V30 3159 H 308.113 2.29032 -5.25564 0
M  V30 3160 H 306.51 1.68128 -5.76067 0
M  V30 3161 H 307.58 0.638059 -4.80684 0
M  V30 3162 N 308.923 1.53595 0.353017 0
M  V30 3163 C 310.169 1.70638 1.09593 0
M  V30 3164 C 310.502 0.463286 1.88593 0
M  V30 3165 O 309.777 -0.539597 1.86865 0
M  V30 3166 C 310.06 2.96406 2.04489 0
M  V30 3167 C 309.913 4.30901 1.29014 0
M  V30 3168 C 311.232 3.17812 3.0444 0
M  V30 3169 H 308.351 0.620913 0.397034 0
M  V30 3170 H 310.993 1.86254 0.375446 0
M  V30 3171 H 309.143 2.83223 2.65927 0
M  V30 3172 H 310.815 4.55917 0.702638 0
M  V30 3173 H 309.058 4.29741 0.592071 0
M  V30 3174 H 309.729 5.1506 1.98537 0
M  V30 3175 H 312.205 3.30263 2.53112 0
M  V30 3176 H 311.081 4.07223 3.6805 0
M  V30 3177 H 311.342 2.33669 3.75301 0
M  V30 3178 N 310.401 -0.613514 1.45168 0
M  V30 3179 C 311.311 -1.75296 1.55912 0
M  V30 3180 C 312.327 -1.68244 0.443856 0
M  V30 3181 O 313.503 -1.88706 0.70371 0
M  V30 3182 C 310.568 -3.1174 1.5172 0
M  V30 3183 C 309.629 -3.30291 2.74238 0
M  V30 3184 C 308.862 -4.60226 2.70236 0
M  V30 3185 O 309.085 -5.42168 1.77229 0
M  V30 3186 O 308.019 -4.81361 3.61352 0
M  V30 3187 H 311.845 -1.69183 2.52212 0
M  V30 3188 H 309.43 -0.776886 1.27612 0
M  V30 3189 H 311.312 -3.93044 1.51968 0
M  V30 3190 H 309.987 -3.18357 0.585697 0
M  V30 3191 H 308.894 -2.48598 2.79553 0
M  V30 3192 H 310.227 -3.28547 3.66494 0
M  V30 3193 N 311.879 -1.3236 -0.855495 0
M  V30 3194 C 312.842 -1.21164 -1.94556 0
M  V30 3195 C 313.842 -0.134908 -1.60233 0
M  V30 3196 O 315.032 -0.385249 -1.69887 0
M  V30 3197 C 312.164 -0.863192 -3.29791 0
M  V30 3198 H 313.357 -2.18038 -2.05911 0
M  V30 3199 H 310.91 -1.16179 -1.04557 0
M  V30 3200 H 311.645 0.103769 -3.24134 0
M  V30 3201 H 311.43 -1.64166 -3.56078 0
M  V30 3202 H 312.92 -0.809156 -4.09686 0
M  V30 3203 N 313.357 1.07166 -1.15556 0
M  V30 3204 C 314.287 2.16403 -0.877046 0
M  V30 3205 C 315.268 1.69217 0.173111 0
M  V30 3206 O 316.453 1.94181 0.027084 0
M  V30 3207 C 313.583 3.45349 -0.367632 0
M  V30 3208 C 312.537 4.05995 -1.35468 0
M  V30 3209 C 311.863 5.30045 -0.704038 0
M  V30 3210 C 313.163 4.45804 -2.72132 0
M  V30 3211 H 314.857 2.39959 -1.79053 0
M  V30 3212 H 312.403 1.15325 -0.862331 0
M  V30 3213 H 314.356 4.21095 -0.160317 0
M  V30 3214 H 313.08 3.21385 0.581326 0
M  V30 3215 H 311.739 3.32296 -1.54839 0
M  V30 3216 H 311.387 5.02373 0.251128 0
M  V30 3217 H 311.087 5.71579 -1.36277 0
M  V30 3218 H 312.611 6.08495 -0.50654 0
M  V30 3219 H 314.025 5.12671 -2.56595 0
M  V30 3220 H 312.422 4.98296 -3.34397 0
M  V30 3221 H 313.492 3.57083 -3.28054 0
M  V30 3222 N 314.835 0.952656 1.25548 0
M  V30 3223 C 315.782 0.47008 2.25962 0
M  V30 3224 C 316.752 -0.476384 1.59122 0
M  V30 3225 O 317.937 -0.39007 1.8677 0
M  V30 3226 C 315.077 -0.247881 3.44209 0
M  V30 3227 C 314.19 0.735591 4.25691 0
M  V30 3228 C 313.325 -0.0047306 5.312 0
M  V30 3229 C 312.364 0.969805 6.04368 0
M  V30 3230 N 311.501 0.260486 7.01617 0
M  V30 3231 H 316.341 1.33126 2.66611 0
M  V30 3232 H 313.878 0.66765 1.31076 0
M  V30 3233 H 315.836 -0.680695 4.1161 0
M  V30 3234 H 314.466 -1.07312 3.0444 0
M  V30 3235 H 313.518 1.28689 3.57971 0
M  V30 3236 H 314.83 1.47934 4.76358 0
M  V30 3237 H 313.984 -0.496275 6.04667 0
M  V30 3238 H 312.723 -0.781282 4.81401 0
M  V30 3239 H 311.728 1.47237 5.29718 0
M  V30 3240 H 312.953 1.74655 6.56256 0
M  V30 3241 H 310.899 -0.497364 6.54112 0
M  V30 3242 H 310.816 0.943362 7.50091 0
M  V30 3243 H 312.084 -0.209587 7.79218 0
M  V30 3244 N 316.313 -1.40141 0.720998 0
M  V30 3245 C 317.724 -1.83678 0.334553 0
M  V30 3246 C 318.075 -1.6027 -1.13173 0
M  V30 3247 O 317.2 -1.08643 -1.87152 0
M  V30 3248 C 317.795 -3.33437 0.600437 0
M  V30 3249 C 316.354 -3.75447 0.267642 0
M  V30 3250 C 315.501 -2.63296 0.870097 0
M  V30 3251 H 318.452 -1.29331 0.919732 0
M  V30 3252 H 318.473 -3.80269 -0.132517 0
M  V30 3253 H 317.985 -3.50442 1.66768 0
M  V30 3254 H 316.086 -3.64035 -0.794329 0
M  V30 3255 H 316.199 -4.73344 0.74042 0
M  V30 3256 H 314.563 -2.52954 0.297739 0
M  V30 3257 H 315.346 -2.83112 1.94172 0
M  V30 3258 N 317.792 -0.46758 -1.50504 0
M  V30 3259 C 318.702 0.33382 -2.32213 0
M  V30 3260 C 319.718 0.999323 -1.42441 0
M  V30 3261 O 320.894 0.988068 -1.75497 0
M  V30 3262 C 317.959 1.4035 -3.17022 0
M  V30 3263 C 317.02 0.754961 -4.2261 0
M  V30 3264 C 316.253 1.77367 -5.03365 0
M  V30 3265 O 316.476 2.99976 -4.8515 0
M  V30 3266 O 315.41 1.34744 -5.86624 0
M  V30 3267 H 319.236 -0.334067 -3.01857 0
M  V30 3268 H 316.821 -0.229496 -1.47627 0
M  V30 3269 H 318.703 2.02318 -3.69656 0
M  V30 3270 H 317.378 2.05492 -2.5011 0
M  V30 3271 H 316.285 0.0964244 -3.73976 0
M  V30 3272 H 317.618 0.146545 -4.91982 0
M  V30 3273 N 319.27 1.56325 -0.20005 0
M  V30 3274 C 320.5 2.01811 0.442232 0
M  V30 3275 C 320.908 1.07932 1.55394 0
M  V30 3276 O 320.251 0.0772685 1.83537 0
M  V30 3277 C 320.313 3.43685 1.05457 0
M  V30 3278 C 319.977 4.56928 0.0809833 0
M  V30 3279 C 320.974 5.15009 -0.711471 0
M  V30 3280 C 318.659 5.0229 -0.0315364 0
M  V30 3281 C 320.653 6.16904 -1.60336 0
M  V30 3282 C 318.34 6.04028 -0.926981 0
M  V30 3283 C 319.338 6.6121 -1.71146 0
M  V30 3284 O 319.026 7.60971 -2.59189 0
M  V30 3285 H 318.758 0.666173 0.114848 0
M  V30 3286 H 321.312 2.03085 -0.307511 0
M  V30 3287 H 319.542 3.39413 1.85299 0
M  V30 3288 H 321.231 3.72948 1.60201 0
M  V30 3289 H 321.997 4.80827 -0.634873 0
M  V30 3290 H 317.876 4.57476 0.568902 0
M  V30 3291 H 321.42 6.61464 -2.21611 0
M  V30 3292 H 317.317 6.37634 -1.00468 0
M  V30 3293 H 318.085 7.7841 -2.53023 0
M  V30 3294 N 320.748 -0.0735177 1.57428 0
M  V30 3295 C 321.994 -0.774145 1.87443 0
M  V30 3296 C 322.327 -1.77311 0.792103 0
M  V30 3297 O 321.602 -1.93492 -0.197793 0
M  V30 3298 C 321.885 -1.48367 3.28115 0
M  V30 3299 C 321.738 -0.501227 4.46999 0
M  V30 3300 C 323.057 -2.429 3.66998 0
M  V30 3301 H 320.176 -0.279971 0.681752 0
M  V30 3302 H 322.818 -0.0373616 1.89963 0
M  V30 3303 H 320.968 -2.11171 3.26097 0
M  V30 3304 H 322.64 0.121468 4.6114 0
M  V30 3305 H 320.883 0.183593 4.33411 0
M  V30 3306 H 321.554 -1.03526 5.42205 0
M  V30 3307 H 324.03 -1.90175 3.70098 0
M  V30 3308 H 322.906 -2.89549 4.66318 0
M  V30 3309 H 323.167 -3.27628 2.96837 0
M  V30 3310 N 322.226 -1.5378 -0.344866 0
M  V30 3311 C 323.189 -1.80981 -1.40637 0
M  V30 3312 C 324.189 -0.680816 -1.45676 0
M  V30 3313 O 325.379 -0.949095 -1.46075 0
M  V30 3314 C 322.511 -1.95063 -2.79577 0
M  V30 3315 H 323.704 -2.75803 -1.17783 0
M  V30 3316 H 321.257 -1.45173 -0.579181 0
M  V30 3317 H 321.992 -1.02379 -3.07716 0
M  V30 3318 H 321.777 -2.77198 -2.77315 0
M  V30 3319 H 323.267 -2.17629 -3.56409 0
M  V30 3320 N 323.704 0.605807 -1.45491 0
M  V30 3321 C 325.115 1.18777 -1.44045 0
M  V30 3322 C 325.466 1.95471 -0.169001 0
M  V30 3323 O 324.591 2.0374 0.729324 0
M  V30 3324 C 325.186 2.16064 -2.60963 0
M  V30 3325 C 323.745 2.69633 -2.62631 0
M  V30 3326 C 322.892 1.45072 -2.36325 0
M  V30 3327 H 325.843 0.395017 -1.53705 0
M  V30 3328 H 325.864 2.9913 -2.35163 0
M  V30 3329 H 325.376 1.60217 -3.53486 0
M  V30 3330 H 323.477 3.29414 -1.74119 0
M  V30 3331 H 323.59 3.13944 -3.61906 0
M  V30 3332 H 321.954 1.74089 -1.85917 0
M  V30 3333 H 322.737 0.910899 -3.30995 0
M  V30 3334 N 325.182 1.32811 0.848464 0
M  V30 3335 C 326.112 1.24882 1.97299 0
M  V30 3336 C 327.093 0.131357 1.69592 0
M  V30 3337 O 328.278 0.319553 1.91553 0
M  V30 3338 C 325.408 0.97746 3.33261 0
M  V30 3339 C 324.362 2.05682 3.75338 0
M  V30 3340 C 323.688 1.63777 5.09 0
M  V30 3341 C 324.988 3.47254 3.90144 0
M  V30 3342 H 326.682 2.18966 2.04191 0
M  V30 3343 H 324.228 1.05413 0.981029 0
M  V30 3344 H 326.181 0.908513 4.1149 0
M  V30 3345 H 324.905 0.000980011 3.266 0
M  V30 3346 H 323.564 2.11603 2.99366 0
M  V30 3347 H 323.212 0.648569 4.98801 0
M  V30 3348 H 322.912 2.36 5.38124 0
M  V30 3349 H 324.436 1.5833 5.89715 0
M  V30 3350 H 325.85 3.43888 4.58709 0
M  V30 3351 H 324.247 4.1788 4.30693 0
M  V30 3352 H 325.317 3.86462 2.92874 0
M  V30 3353 N 326.66 -1.06551 1.16123 0
M  V30 3354 C 327.906 -1.79567 0.94252 0
M  V30 3355 C 328.239 -1.86869 -0.528547 0
M  V30 3356 O 327.514 -1.35838 -1.39206 0
M  V30 3357 C 327.797 -3.24195 1.56747 0
M  V30 3358 C 327.65 -3.24989 3.10969 0
M  V30 3359 C 328.969 -4.21678 1.25998 0
M  V30 3360 H 326.088 -0.651883 0.343828 0
M  V30 3361 H 328.73 -1.2463 1.43413 0
M  V30 3362 H 326.88 -3.71107 1.14942 0
M  V30 3363 H 328.552 -2.86258 3.61737 0
M  V30 3364 H 326.795 -2.63716 3.44436 0
M  V30 3365 H 327.466 -4.27005 3.49815 0
M  V30 3366 H 329.942 -3.83196 1.62174 0
M  V30 3367 H 328.818 -5.21146 1.7233 0
M  V30 3368 H 329.079 -4.4174 0.178367 0
M  V30 3369 N 328.138 -0.959301 -1.25041 0
M  V30 3370 C 329.068 -0.501388 -2.28053 0
M  V30 3371 C 330.049 0.454673 -1.63911 0
M  V30 3372 O 331.234 0.352618 -1.90972 0
M  V30 3373 C 328.364 0.217224 -3.4662 0
M  V30 3374 C 327.318 -0.654034 -4.22973 0
M  V30 3375 C 326.644 0.195589 -5.34342 0
M  V30 3376 C 327.944 -1.93447 -4.85155 0
M  V30 3377 H 329.638 -1.36238 -2.66608 0
M  V30 3378 H 327.184 -0.656534 -1.28163 0
M  V30 3379 H 329.137 0.548732 -4.17812 0
M  V30 3380 H 327.861 1.1125 -3.07068 0
M  V30 3381 H 326.52 -0.968693 -3.5357 0
M  V30 3382 H 326.168 1.09076 -4.91031 0
M  V30 3383 H 325.868 -0.384091 -5.86343 0
M  V30 3384 H 327.392 0.521958 -6.08365 0
M  V30 3385 H 328.806 -1.66908 -5.48466 0
M  V30 3386 H 327.203 -2.46018 -5.47353 0
M  V30 3387 H 328.273 -2.63466 -4.07079 0
M  V30 3388 N 329.616 1.39756 -0.72842 0
M  V30 3389 C 330.862 2.01425 -0.282761 0
M  V30 3390 C 331.217 1.56754 1.11561 0
M  V30 3391 O 330.51 0.783482 1.74849 0
M  V30 3392 C 330.704 3.56002 -0.315776 0
M  V30 3393 C 330.533 4.1568 -1.71582 0
M  V30 3394 C 329.303 4.48555 -2.32651 0
M  V30 3395 C 331.501 4.39667 -2.66829 0
M  V30 3396 N 329.483 4.93698 -3.64877 0
M  V30 3397 C 330.854 4.86942 -3.8378 0
M  V30 3398 C 332.909 4.21724 -2.64675 0
M  V30 3399 C 331.612 5.18158 -4.98904 0
M  V30 3400 C 333.638 4.54049 -3.78937 0
M  V30 3401 C 333 5.01525 -4.94623 0
M  V30 3402 H 329.099 0.76756 -0.149583 0
M  V30 3403 H 331.683 1.69784 -0.952976 0
M  V30 3404 H 329.854 3.87046 0.324057 0
M  V30 3405 H 331.586 4.0443 0.147808 0
M  V30 3406 H 328.341 4.36128 -1.84633 0
M  V30 3407 H 328.765 5.20635 -4.32744 0
M  V30 3408 H 333.407 3.84228 -1.76433 0
M  V30 3409 H 331.125 5.54562 -5.87781 0
M  V30 3410 H 334.711 4.41795 -3.78561 0
M  V30 3411 H 333.591 5.26065 -5.81572 0
M  V30 3412 N 331.094 0.475555 1.50254 0
M  V30 3413 C 332.024 -0.30611 2.31485 0
M  V30 3414 C 333.005 -0.986228 1.38591 0
M  V30 3415 O 334.19 -0.982541 1.67511 0
M  V30 3416 C 331.32 -1.38588 3.1845 0
M  V30 3417 C 330.274 -0.827115 4.19932 0
M  V30 3418 C 329.6 -2.00551 4.95665 0
M  V30 3419 C 330.9 0.16463 5.2204 0
M  V30 3420 H 332.594 0.371866 2.97082 0
M  V30 3421 H 330.14 0.180282 1.42867 0
M  V30 3422 H 332.093 -1.94023 3.74076 0
M  V30 3423 H 330.817 -2.09269 2.50747 0
M  V30 3424 H 329.476 -0.294702 3.65414 0
M  V30 3425 H 329.124 -2.6994 4.2443 0
M  V30 3426 H 328.824 -1.63784 5.64313 0
M  V30 3427 H 330.348 -2.56468 5.54127 0
M  V30 3428 H 331.762 -0.300699 5.72511 0
M  V30 3429 H 330.159 0.446813 5.98434 0
M  V30 3430 H 331.229 1.08905 4.72512 0
M  V30 3431 N 332.573 -1.56217 0.208337 0
M  V30 3432 C 333.813 -1.99849 -0.428927 0
M  V30 3433 C 334.177 -1.09262 -1.57879 0
M  V30 3434 O 335.378 -1.42185 -2.28116 0
M  V30 3435 C 333.649 -3.46777 -0.864879 0
M  V30 3436 S 335.208 -4.12434 -1.49811 0
M  V30 3437 H 332.026 -0.697742 -0.136665 0
M  V30 3438 H 334.628 -1.92953 0.314519 0
M  V30 3439 H 333.332 -4.10396 -0.0181326 0
M  V30 3440 H 332.863 -3.57518 -1.64147 0
M  V30 3441 H 334.878 -4.10532 -2.78707 0
M  V30 3442 N 334.051 0.0651679 -1.57465 0
M  V30 3443 C 335.001 1.0838 -2.00594 0
M  V30 3444 C 335.985 1.34106 -0.889071 0
M  V30 3445 O 337.177 1.34295 -1.15299 0
M  V30 3446 C 334.306 2.39565 -2.45894 0
M  V30 3447 C 333.392 2.17085 -3.64328 0
M  V30 3448 N 333.783 1.64553 -4.78285 0
M  V30 3449 C 332.081 2.4753 -3.71006 0
M  V30 3450 C 332.782 1.57042 -5.60101 0
M  V30 3451 N 331.758 2.03328 -5.04141 0
M  V30 3452 H 335.56 0.671062 -2.86136 0
M  V30 3453 H 333.074 0.27213 -1.60104 0
M  V30 3454 H 335.071 3.13308 -2.75034 0
M  V30 3455 H 333.731 2.81549 -1.61741 0
M  V30 3456 H 334.742 1.33323 -5.00445 0
M  V30 3457 H 331.419 2.92835 -2.9758 0
M  V30 3458 H 332.809 1.17223 -6.61595 0
M  V30 3459 N 335.529 1.53961 0.336706 0
M  V30 3460 C 336.439 1.85432 1.43708 0
M  V30 3461 C 337.455 0.745053 1.57242 0
M  V30 3462 O 338.631 1.03804 1.72588 0
M  V30 3463 C 335.696 2.06349 2.78605 0
M  V30 3464 C 334.757 3.30191 2.74358 0
M  V30 3465 C 333.99 3.50101 4.02822 0
M  V30 3466 O 334.213 2.7371 5.00439 0
M  V30 3467 O 333.147 4.43547 4.06878 0
M  V30 3468 H 336.973 2.78975 1.20028 0
M  V30 3469 H 334.558 1.39701 0.52952 0
M  V30 3470 H 336.44 2.21513 3.58483 0
M  V30 3471 H 335.115 1.15995 3.02203 0
M  V30 3472 H 334.022 3.20425 1.93078 0
M  V30 3473 H 335.355 4.2056 2.55715 0
M  V30 3474 N 337.007 -0.598083 1.45811 0
M  V30 3475 C 338.232 -1.3881 1.54099 0
M  V30 3476 C 338.657 -1.8726 0.177578 0
M  V30 3477 O 338.015 -1.6069 -0.839541 0
M  V30 3478 C 338.063 -2.56217 2.53743 0
M  V30 3479 O 337.167 -3.5716 2.06182 0
M  V30 3480 H 336.508 -0.414024 0.519115 0
M  V30 3481 H 339.038 -0.726971 1.91249 0
M  V30 3482 H 339.048 -3.03337 2.72856 0
M  V30 3483 H 337.723 -2.20303 3.5276 0
M  V30 3484 H 336.3 -3.16624 1.96987 0
M  V30 3485 N 338.485 -1.33259 -0.841409 0
M  V30 3486 C 339.725 -1.25902 -1.61022 0
M  V30 3487 C 340.089 0.173325 -1.91216 0
M  V30 3488 O 341.29 0.370824 -2.6623 0
M  V30 3489 C 339.561 -2.10735 -2.88662 0
M  V30 3490 S 341.12 -2.20541 -3.79351 0
M  V30 3491 H 337.938 -0.447958 -0.552137 0
M  V30 3492 H 340.54 -1.68263 -0.995382 0
M  V30 3493 H 339.244 -3.1384 -2.64448 0
M  V30 3494 H 338.775 -1.69201 -3.55154 0
M  V30 3495 H 340.79 -1.36462 -4.77067 0
M  V30 3496 N 339.963 1.05934 -1.16686 0
M  V30 3497 C 340.873 2.17014 -0.891183 0
M  V30 3498 C 341.889 1.73453 0.137907 0
M  V30 3499 O 343.065 2.01361 -0.039592 0
M  V30 3500 C 340.13 3.44384 -0.400099 0
M  V30 3501 C 339.191 4.02433 -1.49486 0
M  V30 3502 C 338.424 5.23723 -1.02711 0
M  V30 3503 O 338.647 5.7027 0.121716 0
M  V30 3504 O 337.581 5.7382 -1.81699 0
M  V30 3505 H 341.407 2.43113 -1.82015 0
M  V30 3506 H 338.992 1.15541 -0.947132 0
M  V30 3507 H 340.874 4.21189 -0.133392 0
M  V30 3508 H 339.549 3.19802 0.500817 0
M  V30 3509 H 338.456 3.27102 -1.81535 0
M  V30 3510 H 339.789 4.31317 -2.37121 0
M  V30 3511 N 341.441 0.965919 1.2453 0
M  V30 3512 C 342.351 0.502154 2.29163 0
M  V30 3513 C 343.367 -0.436017 1.68448 0
M  V30 3514 O 344.543 -0.309497 1.99008 0
M  V30 3515 C 341.608 -0.201956 3.46111 0
M  V30 3516 C 340.669 0.775821 4.22232 0
M  V30 3517 C 339.902 0.105217 5.33596 0
M  V30 3518 O 340.125 -1.10683 5.59558 0
M  V30 3519 O 339.059 0.796475 5.96607 0
M  V30 3520 H 342.885 1.37194 2.70946 0
M  V30 3521 H 340.47 0.732875 1.30189 0
M  V30 3522 H 342.352 -0.597564 4.17142 0
M  V30 3523 H 341.027 -1.04673 3.06309 0
M  V30 3524 H 339.934 1.22185 3.53584 0
M  V30 3525 H 341.267 1.58896 4.65846 0
M  V30 3526 N 342.919 -1.39368 0.735821 0
M  V30 3527 C 343.867 -2.32443 0.0855131 0
M  V30 3528 C 344.861 -1.53104 -0.724954 0
M  V30 3529 O 346.067 -1.68762 -0.626047 0
M  V30 3530 H 342.442 -0.751948 0.00885257 0
M  V30 3531 H 344.413 -2.84916 0.886883 0
M  V30 3532 C 343.162 -3.38206 -0.806983 0
M  V30 3533 H 342.485 -3.99335 -0.19274 0
M  V30 3534 H 343.925 -4.05779 -1.2296 0
M  V30 3535 C 342.384 -2.75321 -1.94165 0
M  V30 3536 O 342.914 -2.63231 -3.03435 0
M  V30 3537 N 341.12 -2.33396 -1.73132 0
M  V30 3538 H 340.667 -2.4343 -0.842596 0
M  V30 3539 H 340.625 -1.91661 -2.49225 0
M  V30 3540 N 344.397 -0.483516 -1.5 0
M  V30 3541 C 345.645 0.067027 -2.01989 0
M  V30 3542 C 345.966 1.3909 -1.36671 0
M  V30 3543 O 345.236 1.88978 -0.516152 0
M  V30 3544 H 343.816 0.0277606 -0.746484 0
M  V30 3545 H 346.478 -0.636773 -1.84204 0
M  V30 3546 H 345.574 0.209484 -3.11396 0
M  V30 3547 N 345.875 1.56104 -0.216619 0
M  V30 3548 C 347.123 1.97781 0.415593 0
M  V30 3549 C 347.444 1.10536 1.60645 0
M  V30 3550 O 346.714 0.181303 1.95059 0
M  V30 3551 H 345.294 0.730415 0.156534 0
M  V30 3552 H 347.956 1.92445 -0.308366 0
M  V30 3553 H 347.052 3.03072 0.74525 0
M  V30 3554 N 347.353 -0.0568162 1.57498 0
M  V30 3555 C 348.283 -1.06593 2.0775 0
M  V30 3556 C 349.264 -1.39448 0.974082 0
M  V30 3557 O 350.449 -1.48815 1.24771 0
M  V30 3558 C 347.579 -2.37509 2.5339 0
M  V30 3559 C 346.533 -2.1897 3.67745 0
M  V30 3560 C 345.859 -3.55402 3.99492 0
M  V30 3561 C 347.159 -1.59859 4.97235 0
M  V30 3562 H 348.853 -0.647706 2.9231 0
M  V30 3563 H 346.399 -0.310116 1.40621 0
M  V30 3564 H 348.352 -3.08409 2.87162 0
M  V30 3565 H 347.076 -2.8134 1.65878 0
M  V30 3566 H 345.735 -1.50508 3.3428 0
M  V30 3567 H 345.383 -3.9683 3.09088 0
M  V30 3568 H 345.083 -3.43831 4.76502 0
M  V30 3569 H 346.607 -4.27708 4.35773 0
M  V30 3570 H 348.021 -2.20642 5.29141 0
M  V30 3571 H 346.418 -1.58942 5.78669 0
M  V30 3572 H 347.488 -0.561506 4.81638 0
M  V30 3573 N 348.832 -1.54138 -0.328536 0
M  V30 3574 C 350.079 -1.72105 -1.06706 0
M  V30 3575 C 350.407 -0.492111 -1.88171 0
M  V30 3576 O 349.662 0.526153 -1.88494 0
M  V30 3577 C 349.961 -2.9457 -2.02393 0
M  V30 3578 C 349.627 -4.29544 -1.37122 0
M  V30 3579 C 348.289 -4.6624 -1.19052 0
M  V30 3580 C 350.641 -5.1333 -0.902331 0
M  V30 3581 C 347.969 -5.84325 -0.527331 0
M  V30 3582 C 350.321 -6.32094 -0.252988 0
M  V30 3583 C 348.985 -6.67473 -0.0600901 0
M  V30 3584 H 348.255 -0.629775 -0.390466 0
M  V30 3585 H 350.902 -1.88372 -0.34473 0
M  V30 3586 H 349.207 -2.72969 -2.81061 0
M  V30 3587 H 350.904 -3.05665 -2.59557 0
M  V30 3588 H 347.494 -4.0067 -1.52188 0
M  V30 3589 H 351.678 -4.855 -1.02974 0
M  V30 3590 H 346.934 -6.103 -0.366634 0
M  V30 3591 H 351.108 -6.96299 0.118366 0
M  V30 3592 H 348.735 -7.58832 0.455828 0
M  V30 3593 N 350.31 0.590341 -1.46126 0
M  V30 3594 C 351.22 1.72793 -1.58681 0
M  V30 3595 C 352.236 1.67516 -0.470566 0
M  V30 3596 O 353.412 1.87562 -0.733642 0
M  V30 3597 C 350.477 3.09287 -1.5666 0
M  V30 3598 C 349.538 3.25886 -2.79458 0
M  V30 3599 C 348.771 4.55869 -2.77524 0
M  V30 3600 O 348.994 5.3928 -1.85832 0
M  V30 3601 O 347.928 4.75552 -3.68964 0
M  V30 3602 H 351.754 1.65149 -2.54872 0
M  V30 3603 H 349.339 0.756486 -1.28832 0
M  V30 3604 H 351.221 3.90577 -1.58202 0
M  V30 3605 H 349.896 3.17385 -0.636271 0
M  V30 3606 H 348.803 2.44119 -2.83472 0
M  V30 3607 H 350.136 3.22675 -3.71674 0
M  V30 3608 N 351.788 1.33704 0.83433 0
M  V30 3609 C 353.034 1.25603 1.59222 0
M  V30 3610 C 353.367 -0.176659 1.93395 0
M  V30 3611 O 352.642 -1.11915 1.59076 0
M  V30 3612 C 352.925 2.13576 2.89926 0
M  V30 3613 C 352.778 3.65326 2.62406 0
M  V30 3614 C 354.097 2.01238 3.91397 0
M  V30 3615 H 351.216 0.457613 0.577719 0
M  V30 3616 H 353.858 1.63848 0.961972 0
M  V30 3617 H 352.008 1.8109 3.43713 0
M  V30 3618 H 353.68 4.08124 2.15017 0
M  V30 3619 H 351.923 3.8698 1.96033 0
M  V30 3620 H 352.594 4.22232 3.55562 0
M  V30 3621 H 355.07 2.29738 3.46929 0
M  V30 3622 H 353.946 2.65036 4.80673 0
M  V30 3623 H 354.207 0.985951 4.30966 0
M  V30 3624 N 353.266 -1.05314 1.17247 0
M  V30 3625 C 354.514 -1.77941 0.958194 0
M  V30 3626 C 354.835 -1.88089 -0.514556 0
M  V30 3627 O 354.105 -1.39676 -1.37359 0
M  V30 3628 H 352.685 -0.659116 0.351533 0
M  V30 3629 H 355.347 -1.27166 1.47699 0
M  V30 3630 H 354.443 -2.79663 1.38546 0
M  V30 3631 N 354.744 -0.972509 -1.24016 0
M  V30 3632 C 355.707 -0.511403 -2.23422 0
M  V30 3633 C 356.707 0.394679 -1.55881 0
M  V30 3634 O 357.897 0.189469 -1.73167 0
M  V30 3635 C 355.029 0.258769 -3.39916 0
M  V30 3636 H 356.222 -1.39024 -2.6573 0
M  V30 3637 H 353.775 -0.757585 -1.36713 0
M  V30 3638 H 354.51 1.1545 -3.03054 0
M  V30 3639 H 354.295 -0.391522 -3.9014 0
M  V30 3640 H 355.785 0.570244 -4.13688 0
M  V30 3641 N 356.222 1.38976 -0.743202 0
M  V30 3642 C 357.47 1.99948 -0.29417 0
M  V30 3643 C 357.791 1.59279 1.12495 0
M  V30 3644 O 357.061 0.844808 1.76748 0
M  V30 3645 H 355.641 0.739473 -0.105774 0
M  V30 3646 H 358.303 1.699 -0.954986 0
M  V30 3647 H 357.399 3.10142 -0.349056 0
M  V30 3648 N 357.7 0.491464 1.49741 0
M  V30 3649 C 358.946 -0.0485431 2.03342 0
M  V30 3650 C 359.301 -1.35566 1.36527 0
M  V30 3651 O 358.594 -1.85262 0.488729 0
M  V30 3652 C 358.788 -0.267329 3.56399 0
M  V30 3653 C 358.617 1.01703 4.38049 0
M  V30 3654 C 357.387 1.56614 4.80417 0
M  V30 3655 C 359.585 1.91782 4.77204 0
M  V30 3656 N 357.567 2.7974 5.4646 0
M  V30 3657 C 358.938 2.99489 5.42868 0
M  V30 3658 C 360.993 1.92575 4.5915 0
M  V30 3659 C 359.696 4.08005 5.92389 0
M  V30 3660 C 361.722 3.0006 5.09626 0
M  V30 3661 C 361.084 4.06485 5.75282 0
M  V30 3662 H 357.183 0.0227779 0.781668 0
M  V30 3663 H 359.767 0.664204 1.8302 0
M  V30 3664 H 357.938 -0.949126 3.76625 0
M  V30 3665 H 359.67 -0.803492 3.96644 0
M  V30 3666 H 356.425 1.11256 4.60347 0
M  V30 3667 H 356.849 3.42323 5.84075 0
M  V30 3668 H 361.491 1.11605 4.07804 0
M  V30 3669 H 359.209 4.89779 6.42761 0
M  V30 3670 H 362.795 3.01681 4.97473 0
M  V30 3671 H 361.675 4.88287 6.13633 0
M  V30 3672 N 359.178 -1.55987 0.224894 0
M  V30 3673 C 360.427 -1.97566 -0.406273 0
M  V30 3674 C 360.74 -1.11569 -1.6066 0
M  V30 3675 O 361.946 -1.43062 -2.3075 0
M  V30 3676 C 360.402 -3.51474 -0.774207 0
M  V30 3677 C 360.01 -4.46179 0.403496 0
M  V30 3678 C 361.754 -4.01758 -1.37079 0
M  V30 3679 C 359.661 -5.91399 0.0129412 0
M  V30 3680 H 358.591 -0.737777 -0.155565 0
M  V30 3681 H 361.242 -1.80659 0.321635 0
M  V30 3682 H 359.624 -3.63994 -1.55963 0
M  V30 3683 H 360.798 -4.45409 1.18101 0
M  V30 3684 H 359.113 -4.06255 0.913536 0
M  V30 3685 H 361.71 -5.07756 -1.67596 0
M  V30 3686 H 362.053 -3.47805 -2.28773 0
M  V30 3687 H 362.586 -3.92475 -0.648733 0
M  V30 3688 H 359.325 -6.49341 0.896451 0
M  V30 3689 H 358.845 -5.95356 -0.728821 0
M  V30 3690 H 360.524 -6.45683 -0.412582 0
M  V30 3691 N 360.656 0.0484629 -1.57525 0
M  V30 3692 C 361.904 0.741657 -1.88 0
M  V30 3693 C 362.225 1.76918 -0.820054 0
M  V30 3694 O 361.495 1.95335 0.148661 0
M  V30 3695 H 360.075 0.276908 -0.69378 0
M  V30 3696 H 362.737 0.019013 -1.94891 0
M  V30 3697 H 361.833 1.24336 -2.86264 0
M  V30 3698 N 362.134 1.5431 0.320358 0
M  V30 3699 C 363.081 1.83918 1.39438 0
M  V30 3700 C 364.051 0.686525 1.51248 0
M  V30 3701 O 365.236 0.933269 1.66417 0
M  V30 3702 C 362.376 2.075 2.75749 0
M  V30 3703 C 361.489 3.35177 2.72544 0
M  V30 3704 C 360.624 3.48704 4.00723 0
M  V30 3705 C 359.663 4.70244 3.91838 0
M  V30 3706 N 358.8 4.80679 5.11754 0
M  V30 3707 H 363.64 2.75544 1.13489 0
M  V30 3708 H 361.177 1.36459 0.549309 0
M  V30 3709 H 363.135 2.19166 3.54996 0
M  V30 3710 H 361.765 1.19163 3 0
M  V30 3711 H 360.817 3.32233 1.85271 0
M  V30 3712 H 362.129 4.24534 2.61863 0
M  V30 3713 H 361.283 3.59928 4.88402 0
M  V30 3714 H 360.022 2.57445 4.14214 0
M  V30 3715 H 359.027 4.59072 3.02544 0
M  V30 3716 H 360.252 5.6289 3.7991 0
M  V30 3717 H 358.198 3.92337 5.25745 0
M  V30 3718 H 358.115 5.64007 5.0342 0
M  V30 3719 H 359.383 4.96239 6.01138 0
M  V30 3720 N 363.613 -0.582584 1.46437 0
M  V30 3721 C 364.543 -1.70187 1.59871 0
M  V30 3722 C 365.524 -1.64066 0.449042 0
M  V30 3723 O 366.709 -1.82081 0.6753 0
M  V30 3724 C 363.839 -3.08827 1.58881 0
M  V30 3725 C 362.793 -3.29779 2.72819 0
M  V30 3726 C 362.119 -4.68947 2.5689 0
M  V30 3727 C 363.419 -3.17601 4.1464 0
M  V30 3728 H 365.113 -1.592 2.53566 0
M  V30 3729 H 362.659 -0.764472 1.22032 0
M  V30 3730 H 364.612 -3.86951 1.66873 0
M  V30 3731 H 363.336 -3.20713 0.617306 0
M  V30 3732 H 361.995 -2.54054 2.64296 0
M  V30 3733 H 361.643 -4.77599 1.57823 0
M  V30 3734 H 361.343 -4.83919 3.33312 0
M  V30 3735 H 362.867 -5.4924 2.66773 0
M  V30 3736 H 364.281 -3.8557 4.24274 0
M  V30 3737 H 362.678 -3.44094 4.9165 0
M  V30 3738 H 363.748 -2.14681 4.34788 0
M  V30 3739 N 365.091 -1.34144 -0.827227 0
M  V30 3740 C 366.507 -1.13732 -1.11969 0
M  V30 3741 C 366.707 0.0640463 -2.01398 0
M  V30 3742 O 365.763 0.740856 -2.41387 0
M  V30 3743 C 367.076 -2.43047 -1.77055 0
M  V30 3744 C 368.624 -2.49063 -1.89569 0
M  V30 3745 C 369.099 -3.78369 -2.58072 0
M  V30 3746 N 370.59 -3.79505 -2.65575 0
M  V30 3747 C 371.325 -4.76274 -3.19297 0
M  V30 3748 N 370.821 -5.83424 -3.73616 0
M  V30 3749 N 372.614 -4.63735 -3.17658 0
M  V30 3750 H 364.765 -2.11126 -0.232296 0
M  V30 3751 H 367.028 -0.933424 -0.165602 0
M  V30 3752 H 366.734 -3.31025 -1.18807 0
M  V30 3753 H 366.608 -2.56066 -2.76966 0
M  V30 3754 H 368.995 -1.61527 -2.46968 0
M  V30 3755 H 369.076 -2.39975 -0.885745 0
M  V30 3756 H 368.72 -4.66293 -2.01329 0
M  V30 3757 H 368.65 -3.84737 -3.59562 0
M  V30 3758 H 371.141 -3.02074 -2.27068 0
M  V30 3759 H 371.454 -6.53282 -4.12846 0
M  V30 3760 H 369.799 -5.87143 -3.71871 0
M  V30 3761 H 372.99 -3.79177 -2.74486 0
M  V30 3762 H 373.163 -5.39318 -3.59221 0
M  V30 3763 N 366.569 1.04691 -1.17803 0
M  V30 3764 C 367.815 1.78181 -0.980977 0
M  V30 3765 C 368.17 1.86191 0.484825 0
M  V30 3766 O 367.463 1.35436 1.35527 0
M  V30 3767 C 367.657 3.21467 -1.56186 0
M  V30 3768 C 367.486 3.27422 -3.08261 0
M  V30 3769 C 366.256 3.36415 -3.77032 0
M  V30 3770 C 368.454 3.15947 -4.0581 0
M  V30 3771 N 366.436 3.31554 -5.16667 0
M  V30 3772 C 367.807 3.18514 -5.31929 0
M  V30 3773 C 369.862 2.99945 -3.97413 0
M  V30 3774 C 368.565 3.06723 -6.50625 0
M  V30 3775 C 370.591 2.89497 -5.15699 0
M  V30 3776 C 369.953 2.92702 -6.40706 0
M  V30 3777 H 366.052 0.6641 -0.412911 0
M  V30 3778 H 368.636 1.24762 -1.49474 0
M  V30 3779 H 366.807 3.73245 -1.07436 0
M  V30 3780 H 368.539 3.8322 -1.30093 0
M  V30 3781 H 365.294 3.41887 -3.27735 0
M  V30 3782 H 365.718 3.3258 -5.89678 0
M  V30 3783 H 370.36 2.96302 -3.01604 0
M  V30 3784 H 368.078 3.0912 -7.46639 0
M  V30 3785 H 371.664 2.78179 -5.10987 0
M  V30 3786 H 370.544 2.84697 -7.30696 0
M  V30 3787 N 368.047 0.979072 1.23499 0
M  V30 3788 C 368.957 0.526431 2.28617 0
M  V30 3789 C 369.973 -0.418126 1.68901 0
M  V30 3790 O 371.149 -0.288372 1.99325 0
M  V30 3791 C 368.214 -0.165235 3.46306 0
M  V30 3792 C 367.275 0.82056 4.21385 0
M  V30 3793 C 366.508 0.161807 5.33455 0
M  V30 3794 O 366.731 -1.04742 5.60701 0
M  V30 3795 O 365.665 0.859708 5.95729 0
M  V30 3796 H 369.491 1.4006 2.69475 0
M  V30 3797 H 367.076 0.746643 1.29405 0
M  V30 3798 H 368.958 -0.553287 4.17752 0
M  V30 3799 H 367.633 -1.01419 3.07402 0
M  V30 3800 H 366.54 1.25929 3.52268 0
M  V30 3801 H 367.873 1.63828 4.64135 0
M  V30 3802 N 369.525 -1.3858 0.750561 0
M  V30 3803 C 370.941 -1.53759 0.427824 0
M  V30 3804 C 371.141 -1.71401 -1.05943 0
M  V30 3805 O 370.197 -1.72331 -1.84549 0
M  V30 3806 C 371.51 -2.74642 1.22443 0
M  V30 3807 C 373.058 -2.88489 1.2142 0
M  V30 3808 C 373.533 -4.12329 1.9937 0
M  V30 3809 N 375.024 -4.194 1.96616 0
M  V30 3810 C 375.759 -5.14209 2.53727 0
M  V30 3811 N 375.255 -6.14709 3.19539 0
M  V30 3812 N 377.048 -5.06537 2.43673 0
M  V30 3813 H 369.199 -1.25377 1.71447 0
M  V30 3814 H 371.462 -0.608844 0.726645 0
M  V30 3815 H 371.168 -2.68 2.27747 0
M  V30 3816 H 371.042 -3.67745 0.839273 0
M  V30 3817 H 373.429 -2.94614 0.169232 0
M  V30 3818 H 373.51 -1.96406 1.63885 0
M  V30 3819 H 373.154 -4.06966 3.03877 0
M  V30 3820 H 373.084 -5.03486 1.54302 0
M  V30 3821 H 375.575 -3.47421 1.48684 0
M  V30 3822 H 375.888 -6.8354 3.60545 0
M  V30 3823 H 374.233 -6.1505 3.23633 0
M  V30 3824 H 377.424 -4.26962 1.91889 0
M  V30 3825 H 377.597 -5.80245 2.88479 0
M  V30 3826 N 371.003 -0.499398 -1.49478 0
M  V30 3827 C 372.231 0.0425456 -2.06856 0
M  V30 3828 C 372.646 1.30964 -1.35992 0
M  V30 3829 O 372.003 1.77172 -0.437762 0
M  V30 3830 C 372.054 0.301735 -3.60239 0
M  V30 3831 O 371.775 -0.915127 -4.28436 0
M  V30 3832 C 373.276 0.887499 -4.34325 0
M  V30 3833 H 370.496 -0.0197482 -0.670709 0
M  V30 3834 H 373.04 -0.696297 -1.92281 0
M  V30 3835 H 371.195 0.990556 -3.74522 0
M  V30 3836 H 371.609 -0.676993 -5.20113 0
M  V30 3837 H 373.083 1.01845 -5.42523 0
M  V30 3838 H 373.56 1.88488 -3.96698 0
M  V30 3839 H 374.166 0.236196 -4.24644 0
M  V30 3840 N 372.481 1.55866 -0.233164 0
M  V30 3841 C 373.411 2.23783 0.666599 0
M  V30 3842 C 374.392 1.21343 1.19205 0
M  V30 3843 O 375.577 1.4996 1.23392 0
M  V30 3844 C 372.707 2.92671 1.86978 0
M  V30 3845 C 371.661 4.01682 1.47768 0
M  V30 3846 C 370.987 4.57926 2.76058 0
M  V30 3847 C 372.287 5.18126 0.658993 0
M  V30 3848 H 373.981 2.99232 0.100306 0
M  V30 3849 H 371.527 1.43924 0.046804 0
M  V30 3850 H 373.48 3.3888 2.50476 0
M  V30 3851 H 372.204 2.14688 2.46123 0
M  V30 3852 H 370.863 3.56222 0.866106 0
M  V30 3853 H 370.511 3.76659 3.33372 0
M  V30 3854 H 370.211 5.31505 2.50552 0
M  V30 3855 H 371.735 5.06859 3.40479 0
M  V30 3856 H 373.149 5.60644 1.19795 0
M  V30 3857 H 371.546 5.98009 0.500552 0
M  V30 3858 H 372.616 4.83763 -0.331856 0
M  V30 3859 N 373.959 -0.0401083 1.57549 0
M  V30 3860 C 375.207 -0.731677 1.8839 0
M  V30 3861 C 375.528 -1.76481 0.829425 0
M  V30 3862 O 374.798 -1.95411 -0.1383 0
M  V30 3863 H 373.378 -0.273225 0.695239 0
M  V30 3864 H 376.04 -0.00867725 1.94898 0
M  V30 3865 H 375.136 -1.22816 2.86919 0
M  V30 3866 N 375.437 -1.54477 -0.31217 0
M  V30 3867 C 376.4 -1.83923 -1.36766 0
M  V30 3868 C 377.4 -0.711563 -1.44199 0
M  V30 3869 O 378.59 -0.979866 -1.44029 0
M  V30 3870 C 375.722 -2.0095 -2.75376 0
M  V30 3871 H 376.915 -2.78239 -1.11906 0
M  V30 3872 H 374.468 -1.46369 -0.548257 0
M  V30 3873 H 375.203 -1.08883 -3.05475 0
M  V30 3874 H 374.988 -2.83018 -2.71373 0
M  V30 3875 H 376.478 -2.2514 -3.51713 0
M  V30 3876 N 376.915 0.57481 -1.46744 0
M  V30 3877 C 378.164 1.32898 -1.51727 0
M  V30 3878 C 378.477 1.948 -0.176692 0
M  V30 3879 O 379.683 2.71299 -0.104385 0
M  V30 3880 C 378.139 2.40901 -2.67385 0
M  V30 3881 C 377.747 1.85266 -4.07898 0
M  V30 3882 C 379.491 3.17609 -2.81646 0
M  V30 3883 C 377.398 2.90945 -5.14883 0
M  V30 3884 H 376.328 0.499631 -0.564699 0
M  V30 3885 H 378.979 0.612536 -1.72975 0
M  V30 3886 H 377.361 3.15379 -2.39483 0
M  V30 3887 H 378.535 1.17278 -4.45626 0
M  V30 3888 H 376.85 1.21199 -3.98371 0
M  V30 3889 H 379.447 3.96493 -3.58744 0
M  V30 3890 H 379.79 3.70696 -1.89448 0
M  V30 3891 H 380.323 2.50239 -3.09233 0
M  V30 3892 H 377.062 2.42736 -6.089 0
M  V30 3893 H 376.582 3.57398 -4.81691 0
M  V30 3894 H 378.261 3.54755 -5.41071 0
M  V30 3895 N 378.394 1.34581 0.820102 0
M  V30 3896 C 379.64 1.27285 1.57881 0
M  V30 3897 C 379.973 -0.156137 1.93571 0
M  V30 3898 O 379.248 -1.10222 1.60254 0
M  V30 3899 C 379.531 2.16639 2.87645 0
M  V30 3900 C 379.384 3.68088 2.58517 0
M  V30 3901 C 380.703 2.05378 3.8924 0
M  V30 3902 H 377.822 0.463714 0.572833 0
M  V30 3903 H 380.464 1.64859 0.944539 0
M  V30 3904 H 378.614 1.84725 3.41773 0
M  V30 3905 H 380.286 4.10382 2.10676 0
M  V30 3906 H 378.529 3.89038 1.91917 0
M  V30 3907 H 379.2 4.2598 3.51063 0
M  V30 3908 H 381.676 2.33404 3.44473 0
M  V30 3909 H 380.552 2.7012 4.77835 0
M  V30 3910 H 380.813 1.0316 4.29896 0
M  V30 3911 N 379.872 -1.04064 1.18357 0
M  V30 3912 C 381.288 -1.2947 0.933258 0
M  V30 3913 C 381.488 -1.97466 -0.401169 0
M  V30 3914 O 380.544 -2.25528 -1.13549 0
M  V30 3915 C 381.857 -2.15337 2.09882 0
M  V30 3916 C 383.405 -2.28683 2.13712 0
M  V30 3917 C 383.88 -3.17917 3.29686 0
M  V30 3918 N 385.371 -3.25504 3.29547 0
M  V30 3919 C 386.106 -3.94706 4.15926 0
M  V30 3920 N 385.602 -4.66239 5.12439 0
M  V30 3921 N 387.395 -3.90986 4.0384 0
M  V30 3922 H 379.546 -0.583359 2.04232 0
M  V30 3923 H 381.809 -0.319921 0.892387 0
M  V30 3924 H 381.515 -1.72682 3.06389 0
M  V30 3925 H 381.389 -3.16015 2.05947 0
M  V30 3926 H 383.776 -2.70575 1.17784 0
M  V30 3927 H 383.857 -1.27596 2.21705 0
M  V30 3928 H 383.501 -2.76736 4.25887 0
M  V30 3929 H 383.431 -4.19036 3.1893 0
M  V30 3930 H 385.922 -2.74547 2.59677 0
M  V30 3931 H 386.235 -5.16638 5.74722 0
M  V30 3932 H 384.58 -4.65143 5.16398 0
M  V30 3933 H 387.771 -3.34234 3.27727 0
M  V30 3934 H 387.944 -4.44646 4.71375 0
M  V30 3935 N 381.35 -0.985608 -1.22978 0
M  V30 3936 C 382.282 -0.488154 -2.23941 0
M  V30 3937 C 383.295 0.41282 -1.57479 0
M  V30 3938 O 384.484 0.216121 -1.77187 0
M  V30 3939 C 381.584 0.312611 -3.37455 0
M  V30 3940 C 380.757 -0.582741 -4.33501 0
M  V30 3941 C 379.816 0.165064 -5.25941 0
M  V30 3942 O 378.842 -0.447077 -5.67442 0
M  V30 3943 N 380.044 1.44953 -5.62111 0
M  V30 3944 H 382.809 -1.3563 -2.67254 0
M  V30 3945 H 380.37 -0.859477 -1.37203 0
M  V30 3946 H 382.362 0.821357 -3.96277 0
M  V30 3947 H 380.932 1.0818 -2.93285 0
M  V30 3948 H 380.152 -1.27225 -3.73105 0
M  V30 3949 H 381.44 -1.19275 -4.94622 0
M  V30 3950 H 380.838 1.9683 -5.30353 0
M  V30 3951 H 379.395 1.90361 -6.23383 0
M  V30 3952 N 382.828 1.3818 -0.7579 0
M  V30 3953 C 383.775 2.30416 -0.133057 0
M  V30 3954 C 384.745 1.50398 0.704957 0
M  V30 3955 O 385.93 1.79014 0.660192 0
M  V30 3956 C 383.07 3.36834 0.750813 0
M  V30 3957 C 382.183 4.31879 -0.102297 0
M  V30 3958 C 381.318 5.25368 0.784979 0
M  V30 3959 C 380.357 6.12058 -0.0715046 0
M  V30 3960 N 379.494 6.97832 0.772972 0
M  V30 3961 H 384.334 2.83274 -0.925186 0
M  V30 3962 H 381.871 1.39461 -0.467866 0
M  V30 3963 H 383.829 3.97145 1.27794 0
M  V30 3964 H 382.459 2.85374 1.50868 0
M  V30 3965 H 381.511 3.72991 -0.747095 0
M  V30 3966 H 382.823 4.92921 -0.763552 0
M  V30 3967 H 381.977 5.90818 1.37911 0
M  V30 3968 H 380.716 4.64703 1.47996 0
M  V30 3969 H 379.721 5.456 -0.678272 0
M  V30 3970 H 380.946 6.74793 -0.763606 0
M  V30 3971 H 378.892 6.3971 1.45282 0
M  V30 3972 H 378.809 7.55812 0.168709 0
M  V30 3973 H 380.077 7.67687 1.35194 0
M  V30 3974 N 384.306 0.507319 1.49211 0
M  V30 3975 C 385.254 -0.281364 2.30892 0
M  V30 3976 C 386.248 -0.95687 1.39787 0
M  V30 3977 O 387.454 -0.883838 1.56807 0
M  V30 3978 H 383.829 -0.109597 0.743971 0
M  V30 3979 H 385.8 0.42744 2.95323 0
M  V30 3980 C 384.549 -1.32918 3.21291 0
M  V30 3981 H 383.872 -0.818799 3.91326 0
M  V30 3982 H 385.312 -1.85288 3.81372 0
M  V30 3983 C 383.771 -2.35074 2.41333 0
M  V30 3984 O 384.301 -3.4108 2.12197 0
M  V30 3985 N 382.507 -2.07705 2.03241 0
M  V30 3986 H 382.054 -1.2152 2.27136 0
M  V30 3987 H 382.012 -2.76283 1.50051 0
M  V30 3988 N 385.784 -1.5574 0.241426 0
M  V30 3989 C 386.734 -2.17803 -0.674233 0
M  V30 3990 C 387.718 -1.13225 -1.14319 0
M  V30 3991 O 388.91 -1.39153 -1.09387 0
M  V30 3992 C 386.039 -2.87682 -1.87333 0
M  V30 3993 C 385.125 -3.99509 -1.42313 0
M  V30 3994 N 385.516 -5.01115 -0.686798 0
M  V30 3995 C 383.814 -4.11964 -1.70885 0
M  V30 3996 C 384.515 -5.79922 -0.454456 0
M  V30 3997 N 383.491 -5.34001 -1.01705 0
M  V30 3998 H 387.293 -2.93718 -0.103447 0
M  V30 3999 H 384.807 -1.62342 0.0435095 0
M  V30 4000 H 386.804 -3.3057 -2.54026 0
M  V30 4001 H 385.464 -2.13269 -2.4484 0
M  V30 4002 H 386.475 -5.16799 -0.337459 0
M  V30 4003 H 383.152 -3.48718 -2.2957 0
M  V30 4004 H 384.542 -6.71768 0.132992 0
M  V30 4005 N 387.262 0.0317525 -1.57568 0
M  V30 4006 C 388.673 0.578692 -1.77505 0
M  V30 4007 C 389.024 1.75749 -0.872164 0
M  V30 4008 O 388.149 2.16298 -0.0663106 0
M  V30 4009 C 388.744 1.05658 -3.21904 0
M  V30 4010 C 387.303 1.54906 -3.43047 0
M  V30 4011 C 386.45 0.485939 -2.73009 0
M  V30 4012 H 389.401 -0.194475 -1.57504 0
M  V30 4013 H 389.422 1.92404 -3.28269 0
M  V30 4014 H 388.934 0.198422 -3.87592 0
M  V30 4015 H 387.035 2.42915 -2.82529 0
M  V30 4016 H 387.148 1.59841 -4.5165 0
M  V30 4017 H 385.512 0.940354 -2.36705 0
M  V30 4018 H 386.295 -0.362709 -3.41379 0
M  V30 4019 N 388.74 1.54641 0.303973 0
M  V30 4020 C 389.673 1.80263 1.3993 0
M  V30 4021 C 390.651 0.653657 1.48883 0
M  V30 4022 O 391.835 0.893284 1.6599 0
M  V30 4023 C 388.962 1.9367 2.77866 0
M  V30 4024 C 388.008 3.16078 2.86351 0
M  V30 4025 S 388.841 4.74219 2.4875 0
M  V30 4026 C 389.997 4.90558 3.88721 0
M  V30 4027 H 390.23 2.72886 1.17986 0
M  V30 4028 H 387.763 1.46014 0.501918 0
M  V30 4029 H 389.721 2.0208 3.57315 0
M  V30 4030 H 388.382 1.01991 2.9708 0
M  V30 4031 H 387.575 3.22252 3.87517 0
M  V30 4032 H 387.177 3.06099 2.14893 0
M  V30 4033 H 389.469 4.74398 4.83687 0
M  V30 4034 H 390.412 5.92651 3.87518 0
M  V30 4035 H 390.82 4.18728 3.78585 0
M  V30 4036 N 390.218 -0.567019 1.47046 0
M  V30 4037 C 391.446 -1.35027 1.56765 0
M  V30 4038 C 391.861 -1.8758 0.214316 0
M  V30 4039 O 391.218 -1.64471 -0.790919 0
M  V30 4040 C 391.269 -2.52698 2.58507 0
M  V30 4041 O 390.99 -2.0232 3.88585 0
M  V30 4042 C 392.491 -3.45043 2.78316 0
M  V30 4043 H 389.711 -0.41195 0.529658 0
M  V30 4044 H 392.255 -0.687832 1.92585 0
M  V30 4045 H 390.41 -3.149 2.25648 0
M  V30 4046 H 390.824 -2.79068 4.44096 0
M  V30 4047 H 392.298 -4.2405 3.53391 0
M  V30 4048 H 392.775 -3.97971 1.85784 0
M  V30 4049 H 393.381 -2.88665 3.12334 0
M  V30 4050 N 391.696 -1.35014 -0.812953 0
M  V30 4051 C 393.107 -1.25035 -1.38648 0
M  V30 4052 C 393.458 0.119967 -1.95833 0
M  V30 4053 O 392.583 1.02069 -1.90816 0
M  V30 4054 C 393.178 -2.26394 -2.52054 0
M  V30 4055 C 391.737 -2.20175 -3.05287 0
M  V30 4056 C 390.884 -2.12451 -1.78213 0
M  V30 4057 H 393.835 -1.46235 -0.616516 0
M  V30 4058 H 393.856 -1.88672 -3.30429 0
M  V30 4059 H 393.368 -3.26116 -2.10404 0
M  V30 4060 H 391.469 -1.23841 -3.51417 0
M  V30 4061 H 391.582 -3.11863 -3.63701 0
M  V30 4062 H 389.946 -1.58328 -1.9951 0
M  V30 4063 H 390.729 -3.14024 -1.38723 0
M  V30 4064 N 393.175 1.03435 -1.18907 0
M  V30 4065 C 394.085 2.15075 -0.937015 0
M  V30 4066 C 395.101 1.73706 0.101085 0
M  V30 4067 O 396.277 2.01232 -0.0822948 0
M  V30 4068 C 393.342 3.43458 -0.473057 0
M  V30 4069 C 392.403 3.99172 -1.57989 0
M  V30 4070 C 391.636 5.21427 -1.13797 0
M  V30 4071 O 391.859 5.704 0.000725941 0
M  V30 4072 O 390.793 5.69837 -1.9383 0
M  V30 4073 H 394.619 2.39198 -1.87131 0
M  V30 4074 H 392.204 1.13506 -0.971427 0
M  V30 4075 H 394.086 4.20811 -0.222702 0
M  V30 4076 H 392.761 3.20793 0.432869 0
M  V30 4077 H 391.668 3.23178 -1.88433 0
M  V30 4078 H 393.001 4.2619 -2.46217 0
M  V30 4079 N 394.653 0.992116 1.22453 0
M  V30 4080 C 395.616 0.546883 2.2258 0
M  V30 4081 C 396.616 -0.369829 1.56489 0
M  V30 4082 O 397.806 -0.161896 1.73446 0
M  V30 4083 C 394.938 -0.204659 3.40285 0
M  V30 4084 H 396.131 1.43234 2.63484 0
M  V30 4085 H 393.684 0.779239 1.3549 0
M  V30 4086 H 394.419 -1.10614 3.04853 0
M  V30 4087 H 394.204 0.45354 3.89468 0
M  V30 4088 H 395.694 -0.504358 4.14543 0
M  V30 4089 N 396.131 -1.37776 0.765217 0
M  V30 4090 C 397.377 -2.00145 0.327072 0
M  V30 4091 C 397.71 -1.60607 -1.09175 0
M  V30 4092 O 396.985 -0.849127 -1.74986 0
M  V30 4093 C 397.268 -3.57109 0.46319 0
M  V30 4094 C 397.121 -4.06576 1.92395 0
M  V30 4095 C 398.44 -4.39888 -0.136473 0
M  V30 4096 H 395.559 -0.727113 0.120316 0
M  V30 4097 H 398.201 -1.63549 0.967039 0
M  V30 4098 H 396.351 -3.88414 -0.0816358 0
M  V30 4099 H 398.023 -3.85864 2.52798 0
M  V30 4100 H 396.266 -3.59011 2.43503 0
M  V30 4101 H 396.937 -5.15639 1.97028 0
M  V30 4102 H 399.413 -4.14803 0.328317 0
M  V30 4103 H 398.289 -5.48899 -0.0110582 0
M  V30 4104 H 398.55 -4.24758 -1.22608 0
M  V30 4105 N 397.609 -0.515225 -1.4894 0
M  V30 4106 C 398.556 0.255567 -2.29381 0
M  V30 4107 C 399.526 0.947387 -1.36432 0
M  V30 4108 O 400.711 0.951288 -1.65394 0
M  V30 4109 C 397.851 1.30551 -3.19453 0
M  V30 4110 C 396.964 0.624029 -4.27469 0
M  V30 4111 C 396.099 1.65563 -5.0474 0
M  V30 4112 C 395.138 0.956802 -6.04576 0
M  V30 4113 N 394.275 1.93326 -6.74959 0
M  V30 4114 H 399.115 -0.436607 -2.94784 0
M  V30 4115 H 396.652 -0.227154 -1.45336 0
M  V30 4116 H 398.61 1.92639 -3.70062 0
M  V30 4117 H 397.24 1.96626 -2.56004 0
M  V30 4118 H 396.292 -0.110459 -3.8024 0
M  V30 4119 H 397.604 0.0746092 -4.98744 0
M  V30 4120 H 396.758 2.35119 -5.59289 0
M  V30 4121 H 395.497 2.23893 -4.3327 0
M  V30 4122 H 394.502 0.247097 -5.49244 0
M  V30 4123 H 395.727 0.379814 -6.78037 0
M  V30 4124 H 393.673 2.50591 -6.06251 0
M  V30 4125 H 393.59 1.43489 -7.42258 0
M  V30 4126 H 394.858 2.62126 -7.34105 0
M  V30 4127 N 399.087 1.5561 -0.249682 0
M  V30 4128 C 400.05 2.20217 0.635394 0
M  V30 4129 C 401.05 1.17227 1.10066 0
M  V30 4130 O 402.24 1.42292 1.00492 0
M  V30 4131 C 399.372 2.84794 1.87363 0
M  V30 4132 H 400.565 2.99814 0.0716752 0
M  V30 4133 H 398.118 1.563 -0.000153234 0
M  V30 4134 H 398.853 2.09142 2.47851 0
M  V30 4135 H 398.638 3.60241 1.5482 0
M  V30 4136 H 400.128 3.3423 2.5036 0
M  V30 4137 N 400.565 -0.0233959 1.57583 0
M  V30 4138 C 401.513 -1.04063 2.08023 0
M  V30 4139 C 402.507 -1.37084 0.995204 0
M  V30 4140 O 403.713 -1.35923 1.18004 0
M  V30 4141 H 400.088 -0.353144 0.663922 0
M  V30 4142 H 402.059 -0.589453 2.9252 0
M  V30 4143 C 400.808 -2.33123 2.57971 0
M  V30 4144 H 400.131 -2.08577 3.4108 0
M  V30 4145 H 401.571 -3.02632 2.96967 0
M  V30 4146 C 400.03 -3.02483 1.48342 0
M  V30 4147 O 400.56 -3.92541 0.852898 0
M  V30 4148 N 398.766 -2.63909 1.21658 0
M  V30 4149 H 398.313 -1.90758 1.73116 0
M  V30 4150 H 398.271 -3.10633 0.485218 0
M  V30 4151 N 402.043 -1.548 -0.295768 0
M  V30 4152 C 403.289 -1.75517 -1.02789 0
M  V30 4153 C 403.644 -0.537266 -1.84746 0
M  V30 4154 O 402.937 0.470299 -1.85738 0
M  V30 4155 C 403.131 -2.98797 -1.961 0
M  V30 4156 C 402.96 -4.3246 -1.23321 0
M  V30 4157 C 401.73 -4.96131 -0.95822 0
M  V30 4158 C 403.928 -5.10365 -0.635024 0
M  V30 4159 N 401.91 -6.1357 -0.201257 0
M  V30 4160 C 403.281 -6.19999 -0.0110937 0
M  V30 4161 C 405.336 -4.94957 -0.540594 0
M  V30 4162 C 404.039 -7.15904 0.698136 0
M  V30 4163 C 406.065 -5.91197 0.154992 0
M  V30 4164 C 405.427 -7.00203 0.767752 0
M  V30 4165 H 401.526 -0.694786 -0.358882 0
M  V30 4166 H 404.11 -1.92281 -0.305943 0
M  V30 4167 H 402.281 -2.83448 -2.6554 0
M  V30 4168 H 404.013 -3.08017 -2.62502 0
M  V30 4169 H 400.768 -4.56595 -1.25771 0
M  V30 4170 H 401.192 -6.76802 0.16389 0
M  V30 4171 H 405.834 -4.10803 -1.00003 0
M  V30 4172 H 403.552 -7.99595 1.16933 0
M  V30 4173 H 407.138 -5.81353 0.228069 0
M  V30 4174 H 406.018 -7.73393 1.29743 0
M  V30 4175 N 403.521 0.559213 -1.47345 0
M  V30 4176 C 404.468 1.66645 -1.59682 0
M  V30 4177 C 405.438 1.60168 -0.43994 0
M  V30 4178 O 406.623 1.79031 -0.659736 0
M  V30 4179 C 403.763 3.04969 -1.61518 0
M  V30 4180 C 402.876 3.21897 -2.88108 0
M  V30 4181 C 402.011 4.50608 -2.81294 0
M  V30 4182 C 401.05 4.60961 -4.02717 0
M  V30 4183 N 400.187 5.81024 -3.94151 0
M  V30 4184 H 405.027 1.55439 -2.54249 0
M  V30 4185 H 402.564 0.757219 -1.26113 0
M  V30 4186 H 404.522 3.85064 -1.60566 0
M  V30 4187 H 403.152 3.15015 -0.704645 0
M  V30 4188 H 402.204 2.35248 -2.98936 0
M  V30 4189 H 403.516 3.25412 -3.78032 0
M  V30 4190 H 402.67 5.3896 -2.7858 0
M  V30 4191 H 401.409 4.49568 -1.89049 0
M  V30 4192 H 400.414 3.71021 -4.05738 0
M  V30 4193 H 401.639 4.63761 -4.96087 0
M  V30 4194 H 399.585 5.80938 -3.04708 0
M  V30 4195 H 399.502 5.85909 -4.77752 0
M  V30 4196 H 400.77 6.71744 -3.9545 0
M  V30 4197 N 404.999 1.35443 0.805782 0
M  V30 4198 C 405.946 1.28431 1.91766 0
M  V30 4199 C 406.916 0.156102 1.65365 0
M  V30 4200 O 408.101 0.339936 1.87747 0
M  V30 4201 C 405.241 1.06301 3.2832 0
M  V30 4202 C 404.354 2.2805 3.66902 0
M  V30 4203 C 403.489 1.99064 4.92491 0
M  V30 4204 C 402.528 3.16863 5.23703 0
M  V30 4205 N 401.665 2.87647 6.40471 0
M  V30 4206 H 406.505 2.23511 1.97096 0
M  V30 4207 H 404.042 1.11105 0.964054 0
M  V30 4208 H 406 0.915012 4.07042 0
M  V30 4209 H 404.63 0.148822 3.22457 0
M  V30 4210 H 403.682 2.53711 2.83434 0
M  V30 4211 H 404.994 3.1601 3.85927 0
M  V30 4212 H 404.148 1.81099 5.7904 0
M  V30 4213 H 402.887 1.0839 4.75503 0
M  V30 4214 H 401.892 3.35404 4.35642 0
M  V30 4215 H 403.117 4.08339 5.4262 0
M  V30 4216 H 401.063 1.99568 6.24907 0
M  V30 4217 H 400.98 3.69141 6.59751 0
M  V30 4218 H 402.248 2.73226 7.30047 0
M  V30 4219 N 406.477 -1.02803 1.19454 0
M  V30 4220 C 407.726 -1.7562 0.991996 0
M  V30 4221 C 408.039 -1.89672 -0.477901 0
M  V30 4222 O 409.245 -2.59468 -0.799287 0
M  V30 4223 C 407.701 -3.15812 1.72601 0
M  V30 4224 C 407.309 -3.0981 3.23607 0
M  V30 4225 C 409.053 -3.92918 1.60674 0
M  V30 4226 C 406.96 -4.44939 3.89594 0
M  V30 4227 H 405.89 -0.658352 0.367543 0
M  V30 4228 H 408.541 -1.15044 1.42959 0
M  V30 4229 H 406.923 -3.7686 1.21624 0
M  V30 4230 H 408.097 -2.58138 3.81709 0
M  V30 4231 H 406.412 -2.46201 3.35819 0
M  V30 4232 H 409.009 -4.9287 2.07323 0
M  V30 4233 H 409.352 -4.12502 0.561025 0
M  V30 4234 H 409.885 -3.38472 2.09001 0
M  V30 4235 H 406.624 -4.30559 4.94267 0
M  V30 4236 H 406.144 -4.96664 3.36281 0
M  V30 4237 H 407.823 -5.1382 3.93189 0
M  V30 4238 N 407.956 -0.998596 -1.21925 0
M  V30 4239 C 409.196 -0.685948 -1.92546 0
M  V30 4240 C 409.56 0.768441 -1.75952 0
M  V30 4241 O 410.761 1.19277 -2.40887 0
M  V30 4242 C 409.032 -1.08767 -3.40448 0
M  V30 4243 S 410.591 -0.894251 -4.29591 0
M  V30 4244 H 407.409 -0.250622 -0.665364 0
M  V30 4245 H 410.011 -1.28207 -1.47591 0
M  V30 4246 H 408.715 -2.14242 -3.50041 0
M  V30 4247 H 408.246 -0.48357 -3.90417 0
M  V30 4248 H 410.261 0.212149 -4.95746 0
M  V30 4249 N 409.434 1.37368 -0.772513 0
M  V30 4250 C 410.711 1.93839 -0.26188 0
M  V30 4251 C 411.091 1.7061 1.24319 0
M  V30 4252 O 410.439 1.05534 2.02669 0
M  V30 4253 C 410.649 3.43154 -0.636102 0
M  V30 4254 C 411.997 4.20249 -0.606324 0
M  V30 4255 O 413.021 3.5152 -0.575538 0
M  V30 4256 O 411.88 5.42809 -0.634086 0
M  V30 4257 H 408.974 0.82478 -0.0605555 0
M  V30 4258 H 411.52 1.4665 -0.853917 0
M  V30 4259 H 410.292 3.53647 -1.6748 0
M  V30 4260 H 409.915 3.97596 -0.0170516 0
M  V30 4261 N 410.912 0.523116 1.48665 0
M  V30 4262 C 412.159 -0.0134763 2.02496 0
M  V30 4263 C 412.487 -1.3493 1.40086 0
M  V30 4264 O 411.742 -1.88286 0.533567 0
M  V30 4265 C 412.041 -0.191671 3.56886 0
M  V30 4266 C 411.707 1.06893 4.38046 0
M  V30 4267 C 410.369 1.41443 4.59943 0
M  V30 4268 C 412.721 1.90584 4.85106 0
M  V30 4269 C 410.049 2.59594 5.26144 0
M  V30 4270 C 412.401 3.07907 5.52609 0
M  V30 4271 C 411.065 3.42811 5.72745 0
M  V30 4272 H 410.335 -0.00493133 0.740984 0
M  V30 4273 H 412.982 0.687751 1.78724 0
M  V30 4274 H 411.287 -0.97561 3.79459 0
M  V30 4275 H 412.984 -0.621659 3.96152 0
M  V30 4276 H 409.574 0.789848 4.21259 0
M  V30 4277 H 413.758 1.65203 4.67997 0
M  V30 4278 H 409.014 2.86847 5.39934 0
M  V30 4279 H 413.188 3.73066 5.88043 0
M  V30 4280 H 410.815 4.34462 6.23816 0
M  V30 4281 N 412.39 -1.55475 0.257931 0
M  V30 4282 C 413.3 -2.2549 -0.647425 0
M  V30 4283 C 414.316 -1.2748 -1.18427 0
M  V30 4284 O 415.492 -1.6038 -1.2182 0
M  V30 4285 C 412.557 -2.94916 -1.82278 0
M  V30 4286 C 411.618 -4.08363 -1.32432 0
M  V30 4287 C 410.851 -4.74469 -2.44366 0
M  V30 4288 O 411.074 -4.39701 -3.63344 0
M  V30 4289 O 410.008 -5.62763 -2.13497 0
M  V30 4290 H 413.834 -3.03593 -0.0807707 0
M  V30 4291 H 411.419 -1.49377 0.0259962 0
M  V30 4292 H 413.301 -3.38606 -2.50846 0
M  V30 4293 H 411.976 -2.19744 -2.37685 0
M  V30 4294 H 410.883 -3.69166 -0.605605 0
M  V30 4295 H 412.216 -4.85385 -0.816211 0
M  V30 4296 N 413.868 0.0150385 -1.57593 0
M  V30 4297 C 414.816 1.02958 -2.08572 0
M  V30 4298 C 415.81 1.36554 -1.00246 0
M  V30 4299 O 417.016 1.35295 -1.18724 0
M  V30 4300 H 413.391 0.349619 -0.665786 0
M  V30 4301 H 415.362 0.573932 -2.92829 0
M  V30 4302 C 414.111 2.31752 -2.59203 0
M  V30 4303 H 413.434 2.06765 -3.42182 0
M  V30 4304 H 414.874 3.01053 -2.98568 0
M  V30 4305 C 413.333 3.01692 -1.49945 0
M  V30 4306 O 413.863 3.92083 -0.873704 0
M  V30 4307 N 412.069 2.6326 -1.23056 0
M  V30 4308 H 411.616 1.89838 -1.74125 0
M  V30 4309 H 411.574 3.10372 -0.501685 0
M  V30 4310 N 415.346 1.54954 0.287554 0
M  V30 4311 C 416.309 1.86076 1.33823 0
M  V30 4312 C 417.309 0.734414 1.43049 0
M  V30 4313 O 418.499 1.00266 1.42452 0
M  V30 4314 C 415.631 2.05305 2.72144 0
M  V30 4315 H 416.824 2.79984 1.07465 0
M  V30 4316 H 414.377 1.47223 0.524902 0
M  V30 4317 H 415.112 1.1373 3.03704 0
M  V30 4318 H 414.897 2.873 2.66836 0
M  V30 4319 H 416.387 2.30706 3.48087 0
M  V30 4320 N 416.824 -0.551391 1.4764 0
M  V30 4321 C 418.049 -1.33837 1.58437 0
M  V30 4322 C 418.474 -1.866 0.237063 0
M  V30 4323 O 417.832 -1.6328 -0.787994 0
M  V30 4324 C 417.88 -2.48014 2.61766 0
M  V30 4325 O 416.984 -3.50419 2.1744 0
M  V30 4326 H 416.325 -0.397299 0.532024 0
M  V30 4327 H 418.855 -0.665759 1.93465 0
M  V30 4328 H 418.865 -2.94503 2.82369 0
M  V30 4329 H 417.54 -2.08969 3.5959 0
M  V30 4330 H 416.117 -3.10196 2.06961 0
M  V30 4331 N 418.302 -1.35869 -0.798587 0
M  V30 4332 C 419.249 -1.29446 -1.91082 0
M  V30 4333 C 420.219 -0.16487 -1.6528 0
M  V30 4334 O 421.404 -0.349888 -1.87564 0
M  V30 4335 C 418.544 -1.0804 -3.27752 0
M  V30 4336 C 417.657 -2.29993 -3.65687 0
M  V30 4337 C 416.792 -2.01673 -4.91428 0
M  V30 4338 C 415.831 -3.19636 -5.22015 0
M  V30 4339 N 414.968 -2.91039 -6.38937 0
M  V30 4340 H 419.808 -2.24553 -1.95907 0
M  V30 4341 H 417.345 -1.11615 -0.958148 0
M  V30 4342 H 419.303 -0.936586 -4.06551 0
M  V30 4343 H 417.933 -0.16592 -3.22373 0
M  V30 4344 H 416.985 -2.55211 -2.82085 0
M  V30 4345 H 418.297 -3.18052 -3.84245 0
M  V30 4346 H 417.451 -1.84168 -5.78072 0
M  V30 4347 H 416.19 -1.10911 -4.74921 0
M  V30 4348 H 415.195 -3.37709 -4.33858 0
M  V30 4349 H 416.42 -4.11211 -5.40447 0
M  V30 4350 H 414.366 -2.0288 -6.2384 0
M  V30 4351 H 414.283 -3.72635 -6.57784 0
M  V30 4352 H 415.551 -2.77093 -7.28587 0
M  V30 4353 N 419.78 1.02168 -1.19998 0
M  V30 4354 C 421.191 1.57135 -1.00825 0
M  V30 4355 C 421.542 1.91276 0.436818 0
M  V30 4356 O 420.667 1.71679 1.3174 0
M  V30 4357 C 421.262 2.85514 -1.82393 0
M  V30 4358 C 419.821 3.37027 -1.67601 0
M  V30 4359 C 418.968 2.10388 -1.80644 0
M  V30 4360 H 421.919 0.846106 -1.34264 0
M  V30 4361 H 421.94 3.56711 -1.32429 0
M  V30 4362 H 421.452 2.60634 -2.87561 0
M  V30 4363 H 419.553 3.66878 -0.650485 0
M  V30 4364 H 419.666 4.09572 -2.4857 0
M  V30 4365 H 418.03 2.22601 -1.23778 0
M  V30 4366 H 418.813 1.8794 -2.87286 0
M  V30 4367 N 421.258 1.00505 1.21394 0
M  V30 4368 C 422.19 0.52372 2.23136 0
M  V30 4369 C 423.203 -0.387714 1.58116 0
M  V30 4370 O 424.392 -0.187905 1.77508 0
M  V30 4371 C 421.492 -0.258885 3.3791 0
M  V30 4372 C 420.665 0.651634 4.32519 0
M  V30 4373 C 419.724 -0.0813705 5.26137 0
M  V30 4374 O 418.75 0.537295 5.66658 0
M  V30 4375 N 419.952 -1.35992 5.64346 0
M  V30 4376 H 422.717 1.39865 2.65062 0
M  V30 4377 H 420.278 0.881196 1.35818 0
M  V30 4378 H 422.27 -0.758208 3.97534 0
M  V30 4379 H 420.84 -1.035 2.94968 0
M  V30 4380 H 420.06 1.33145 3.71034 0
M  V30 4381 H 421.348 1.27129 4.92662 0
M  V30 4382 H 420.746 -1.88368 5.33417 0
M  V30 4383 H 419.303 -1.8042 6.26332 0
M  V30 4384 N 422.737 -1.36956 0.779787 0
M  V30 4385 C 423.962 -2.04283 0.358224 0
M  V30 4386 C 424.387 -1.58422 -1.01411 0
M  V30 4387 O 423.745 -0.748179 -1.65142 0
M  V30 4388 C 423.793 -3.58152 0.419479 0
M  V30 4389 O 422.897 -4.08342 -0.577142 0
M  V30 4390 H 422.238 -0.645967 0.153698 0
M  V30 4391 H 424.768 -1.75108 1.05822 0
M  V30 4392 H 424.778 -4.07041 0.279636 0
M  V30 4393 H 423.453 -3.90886 1.42061 0
M  V30 4394 H 422.03 -3.70751 -0.399755 0
M  V30 4395 N 424.215 -0.530993 -1.48385 0
M  V30 4396 C 425.464 0.00474348 -2.01699 0
M  V30 4397 C 425.777 1.35227 -1.41325 0
M  V30 4398 O 426.983 1.97643 -1.86144 0
M  V30 4399 C 425.439 0.0588473 -3.59852 0
M  V30 4400 C 425.047 -1.28385 -4.2921 0
M  V30 4401 C 426.791 0.543358 -4.21008 0
M  V30 4402 C 424.698 -1.19028 -5.79298 0
M  V30 4403 H 423.628 0.00554317 -0.75398 0
M  V30 4404 H 426.279 -0.674924 -1.70637 0
M  V30 4405 H 424.661 0.803612 -3.8776 0
M  V30 4406 H 425.835 -2.04426 -4.12973 0
M  V30 4407 H 424.15 -1.70418 -3.7993 0
M  V30 4408 H 426.747 0.631351 -5.3096 0
M  V30 4409 H 427.09 1.54937 -3.86394 0
M  V30 4410 H 427.623 -0.145754 -3.97533 0
M  V30 4411 H 424.362 -2.17147 -6.18488 0
M  V30 4412 H 423.882 -0.471246 -5.97946 0
M  V30 4413 H 425.561 -0.881365 -6.40969 0
M  V30 4414 N 425.693 1.55336 -0.266172 0
M  V30 4415 C 426.625 2.19544 0.658247 0
M  V30 4416 C 427.638 1.17746 1.12427 0
M  V30 4417 O 428.827 1.44517 1.04772 0
M  V30 4418 C 425.927 2.80032 1.9088 0
M  V30 4419 C 425.1 4.07436 1.59106 0
M  V30 4420 C 424.159 4.52056 2.69317 0
M  V30 4421 O 423.185 5.18023 2.35883 0
M  V30 4422 N 424.387 4.21448 3.99201 0
M  V30 4423 H 427.152 2.99503 0.108754 0
M  V30 4424 H 424.713 1.61667 -0.0869059 0
M  V30 4425 H 426.705 3.06831 2.63888 0
M  V30 4426 H 425.275 2.04119 2.36758 0
M  V30 4427 H 424.495 3.88021 0.695243 0
M  V30 4428 H 425.783 4.90462 1.35367 0
M  V30 4429 H 425.181 3.68528 4.29189 0
M  V30 4430 H 423.738 4.53039 4.68614 0
M  V30 4431 N 427.171 -0.0066808 1.57599 0
M  V30 4432 C 428.081 -1.01671 2.11424 0
M  V30 4433 C 429.097 -1.38143 1.05795 0
M  V30 4434 O 430.273 -1.47011 1.37658 0
M  V30 4435 C 427.338 -2.29192 2.60139 0
M  V30 4436 C 426.399 -1.99094 3.80342 0
M  V30 4437 C 425.632 -3.20535 4.26724 0
M  V30 4438 O 425.855 -4.3199 3.72479 0
M  V30 4439 O 424.789 -3.04924 5.18946 0
M  V30 4440 H 428.615 -0.589181 2.9793 0
M  V30 4441 H 426.2 -0.225091 1.47695 0
M  V30 4442 H 428.082 -3.0412 2.917 0
M  V30 4443 H 426.757 -2.71195 1.76733 0
M  V30 4444 H 425.664 -1.21663 3.53764 0
M  V30 4445 H 426.997 -1.61931 4.648 0
M  V30 4446 N 428.649 -1.55105 -0.279332 0
M  V30 4447 C 429.874 -1.7976 -1.03446 0
M  V30 4448 C 430.299 -0.565952 -1.79384 0
M  V30 4449 O 429.657 0.484259 -1.74713 0
M  V30 4450 C 429.705 -3.0179 -1.97371 0
M  V30 4451 O 428.809 -2.76432 -3.06038 0
M  V30 4452 H 428.15 -0.594334 -0.29608 0
M  V30 4453 H 430.68 -2.02235 -0.310165 0
M  V30 4454 H 430.69 -3.30351 -2.39441 0
M  V30 4455 H 429.365 -3.91085 -1.4151 0
M  V30 4456 H 427.942 -2.58949 -2.68328 0
M  V30 4457 N 430.127 0.543554 -1.4793 0
M  V30 4458 C 431.355 1.32516 -1.58894 0
M  V30 4459 C 431.77 1.87215 -0.244131 0
M  V30 4460 O 431.127 1.65709 0.764652 0
M  V30 4461 C 431.178 2.48554 -2.62494 0
M  V30 4462 O 430.899 1.96112 -3.91755 0
M  V30 4463 C 432.4 3.40572 -2.8377 0
M  V30 4464 H 429.62 0.403472 -0.536145 0
M  V30 4465 H 432.164 0.657106 -1.93655 0
M  V30 4466 H 430.319 3.1127 -2.30629 0
M  V30 4467 H 430.733 2.71967 -4.4848 0
M  V30 4468 H 432.207 4.18375 -3.60093 0
M  V30 4469 H 432.684 3.94965 -1.92092 0
M  V30 4470 H 433.29 2.8366 -3.16887 0
M  V30 4471 N 431.605 1.3629 0.791371 0
M  V30 4472 C 432.853 1.30154 1.5461 0
M  V30 4473 C 433.174 -0.119409 1.94634 0
M  V30 4474 O 432.444 -1.05924 1.64794 0
M  V30 4475 H 431.024 0.478784 0.573389 0
M  V30 4476 H 433.686 1.70565 0.94306 0
M  V30 4477 H 432.782 1.92762 2.45457 0
M  V30 4478 N 433.083 -1.0153 1.20538 0
M  V30 4479 C 434.308 -1.79283 1.04271 0
M  V30 4480 C 434.733 -1.8372 -0.403544 0
M  V30 4481 O 434.091 -1.27321 -1.2907 0
M  V30 4482 C 434.139 -3.21535 1.63241 0
M  V30 4483 O 433.243 -4.03099 0.870908 0
M  V30 4484 H 432.584 -0.55293 0.367647 0
M  V30 4485 H 435.114 -1.27696 1.59859 0
M  V30 4486 H 435.124 -3.72243 1.6703 0
M  V30 4487 H 433.799 -3.1762 2.68497 0
M  V30 4488 H 432.376 -3.61693 0.907323 0
M  V30 4489 N 434.561 -1.01147 -1.20859 0
M  V30 4490 C 435.81 -0.693214 -1.89413 0
M  V30 4491 C 436.123 0.779969 -1.79376 0
M  V30 4492 O 437.329 1.21057 -2.43017 0
M  V30 4493 C 435.785 -1.18949 -3.39675 0
M  V30 4494 C 435.393 -2.68921 -3.58309 0
M  V30 4495 C 437.137 -0.94642 -4.13815 0
M  V30 4496 C 435.044 -3.12056 -5.0237 0
M  V30 4497 H 433.974 -0.255595 -0.709357 0
M  V30 4498 H 436.625 -1.22349 -1.36759 0
M  V30 4499 H 435.007 -0.587228 -3.91622 0
M  V30 4500 H 436.181 -3.34652 -3.16772 0
M  V30 4501 H 434.496 -2.91314 -2.97532 0
M  V30 4502 H 437.093 -1.24417 -5.20023 0
M  V30 4503 H 437.436 0.117219 -4.16135 0
M  V30 4504 H 437.969 -1.5118 -3.67953 0
M  V30 4505 H 434.708 -4.17674 -5.05202 0
M  V30 4506 H 434.228 -2.51041 -5.44737 0
M  V30 4507 H 435.907 -3.04403 -5.70918 0
M  V30 4508 N 436.039 1.36541 -0.78704 0
M  V30 4509 C 437.288 1.98552 -0.35494 0
M  V30 4510 C 437.601 1.63171 1.07864 0
M  V30 4511 O 438.807 2.18399 1.61289 0
M  V30 4512 C 437.263 3.55136 -0.583671 0
M  V30 4513 C 436.871 3.99444 -2.02851 0
M  V30 4514 C 438.615 4.2395 -0.215957 0
M  V30 4515 C 436.522 5.48796 -2.20403 0
M  V30 4516 H 435.452 0.742888 -0.128972 0
M  V30 4517 H 438.103 1.5587 -0.968337 0
M  V30 4518 H 436.485 3.95875 0.0994046 0
M  V30 4519 H 437.659 3.6991 -2.74779 0
M  V30 4520 H 435.974 3.43459 -2.35425 0
M  V30 4521 H 438.571 5.33709 -0.325405 0
M  V30 4522 H 438.914 4.07827 0.835646 0
M  V30 4523 H 439.447 3.88565 -0.852175 0
M  V30 4524 H 436.186 5.69864 -3.23937 0
M  V30 4525 H 435.706 5.79964 -1.52977 0
M  V30 4526 H 437.385 6.14986 -2.01002 0
M  V30 4527 N 437.518 0.538854 1.48102 0
M  V30 4528 C 438.428 -0.222648 2.33541 0
M  V30 4529 C 439.444 -0.930225 1.47047 0
M  V30 4530 O 440.62 -0.903211 1.80011 0
M  V30 4531 C 437.685 -1.25064 3.23357 0
M  V30 4532 C 436.746 -0.552469 4.2573 0
M  V30 4533 C 435.979 -1.53149 5.11254 0
M  V30 4534 O 436.202 -2.76487 4.9891 0
M  V30 4535 O 435.136 -1.06602 5.92385 0
M  V30 4536 H 438.962 0.477707 2.99919 0
M  V30 4537 H 436.547 0.299669 1.46364 0
M  V30 4538 H 438.429 -1.8445 3.78888 0
M  V30 4539 H 437.104 -1.93325 2.59629 0
M  V30 4540 H 436.011 0.082114 3.7401 0
M  V30 4541 H 437.344 0.0883526 4.92121 0
M  V30 4542 N 438.996 -1.55193 0.274407 0
M  V30 4543 C 440.242 -1.99877 -0.343086 0
M  V30 4544 C 440.575 -1.16256 -1.55558 0
M  V30 4545 O 439.85 -0.232462 -1.93106 0
M  V30 4546 C 440.133 -3.52706 -0.725965 0
M  V30 4547 C 439.986 -4.47081 0.493818 0
M  V30 4548 C 441.305 -4.11422 -1.56268 0
M  V30 4549 H 438.424 -0.726625 -0.123229 0
M  V30 4550 H 441.066 -1.86136 0.38121 0
M  V30 4551 H 439.216 -3.64546 -1.34307 0
M  V30 4552 H 440.888 -4.47186 1.13237 0
M  V30 4553 H 439.131 -4.1877 1.13201 0
M  V30 4554 H 439.802 -5.51699 0.18217 0
M  V30 4555 H 442.278 -4.02855 -1.04151 0
M  V30 4556 H 441.154 -5.18568 -1.79939 0
M  V30 4557 H 441.415 -3.61607 -2.54348 0
M  V30 4558 N 440.474 -0.00167713 -1.576 0
M  V30 4559 C 441.404 0.988091 -2.11563 0
M  V30 4560 C 442.385 1.35736 -1.02517 0
M  V30 4561 O 443.57 1.44082 -1.30208 0
M  V30 4562 C 440.7 2.27941 -2.62031 0
M  V30 4563 C 439.654 2.0517 -3.75619 0
M  V30 4564 C 438.98 3.4033 -4.12407 0
M  V30 4565 C 440.28 1.41294 -5.02825 0
M  V30 4566 H 441.974 0.538771 -2.94513 0
M  V30 4567 H 439.52 0.257712 -1.41675 0
M  V30 4568 H 441.473 2.97539 -2.9841 0
M  V30 4569 H 440.197 2.74989 -1.76205 0
M  V30 4570 H 438.856 1.37998 -3.39635 0
M  V30 4571 H 438.504 3.85085 -3.23603 0
M  V30 4572 H 438.204 3.25909 -4.88935 0
M  V30 4573 H 439.728 4.1124 -4.51347 0
M  V30 4574 H 441.142 2.00851 -5.36965 0
M  V30 4575 H 439.539 1.37356 -5.84169 0
M  V30 4576 H 440.609 0.382362 -4.8339 0
M  V30 4577 N 441.952 1.55251 0.271103 0
M  V30 4578 C 443.177 1.80306 1.02491 0
M  V30 4579 C 443.602 0.575457 1.79081 0
M  V30 4580 O 442.96 -0.474987 1.74967 0
M  V30 4581 C 443.008 3.02832 1.95768 0
M  V30 4582 O 442.112 2.78051 3.04568 0
M  V30 4583 H 441.453 0.595896 0.292923 0
M  V30 4584 H 443.983 2.02397 0.299436 0
M  V30 4585 H 443.993 3.31616 2.37686 0
M  V30 4586 H 442.668 3.9183 1.39434 0
M  V30 4587 H 441.245 2.60369 2.66951 0
M  V30 4588 N 443.43 -0.535701 1.48216 0
M  V30 4589 C 444.377 -1.64083 1.62312 0
M  V30 4590 C 445.347 -1.59448 0.465365 0
M  V30 4591 O 446.532 -1.77959 0.688135 0
M  V30 4592 C 443.672 -3.0236 1.66349 0
M  V30 4593 C 442.785 -3.17273 2.93193 0
M  V30 4594 C 441.92 -4.46075 2.88427 0
M  V30 4595 C 440.959 -4.54496 4.1 0
M  V30 4596 N 440.096 -5.7468 4.03345 0
M  V30 4597 H 444.936 -1.51374 2.5669 0
M  V30 4598 H 442.473 -0.737059 1.27302 0
M  V30 4599 H 444.431 -3.82461 1.66672 0
M  V30 4600 H 443.061 -3.13854 0.754672 0
M  V30 4601 H 442.113 -2.30462 3.02641 0
M  V30 4602 H 443.425 -3.19357 3.83162 0
M  V30 4603 H 442.579 -5.3446 2.87119 0
M  V30 4604 H 441.318 -4.46504 1.96177 0
M  V30 4605 H 440.323 -3.64519 4.11589 0
M  V30 4606 H 441.548 -4.5581 5.03402 0
M  V30 4607 H 439.494 -5.76017 3.13912 0
M  V30 4608 H 439.411 -5.78234 4.87013 0
M  V30 4609 H 440.679 -6.65367 4.06087 0
M  V30 4610 N 444.908 -1.36708 -0.784132 0
M  V30 4611 C 446.157 -1.30559 -1.53744 0
M  V30 4612 C 446.47 0.111374 -1.95283 0
M  V30 4613 O 447.676 0.29527 -2.6989 0
M  V30 4614 C 446.132 -2.29098 -2.77565 0
M  V30 4615 C 445.74 -3.76258 -2.43174 0
M  V30 4616 C 447.484 -2.31936 -3.55536 0
M  V30 4617 C 445.391 -4.6656 -3.63422 0
M  V30 4618 H 444.321 -0.48518 -0.577162 0
M  V30 4619 H 446.972 -1.62101 -0.859981 0
M  V30 4620 H 445.354 -1.90557 -3.47137 0
M  V30 4621 H 446.528 -4.23565 -1.81465 0
M  V30 4622 H 444.843 -3.76246 -1.78403 0
M  V30 4623 H 447.44 -2.9661 -4.44889 0
M  V30 4624 H 447.783 -1.3294 -3.94503 0
M  V30 4625 H 448.316 -2.6912 -2.92949 0
M  V30 4626 H 445.055 -5.66638 -3.29547 0
M  V30 4627 H 444.575 -4.23966 -4.24279 0
M  V30 4628 H 446.254 -4.8309 -4.30387 0
M  V30 4629 N 446.386 1.0089 -1.21074 0
M  V30 4630 C 447.663 1.71834 -0.934469 0
M  V30 4631 C 448.043 2.0368 0.554753 0
M  V30 4632 O 447.391 1.70742 1.51854 0
M  V30 4633 C 447.601 2.98061 -1.8155 0
M  V30 4634 C 448.949 3.7117 -2.06199 0
M  V30 4635 O 449.973 3.08034 -1.78867 0
M  V30 4636 O 448.832 4.84721 -2.52404 0
M  V30 4637 H 445.926 0.749253 -0.35007 0
M  V30 4638 H 448.472 1.06668 -1.31985 0
M  V30 4639 H 447.244 2.70908 -2.82355 0
M  V30 4640 H 446.867 3.70968 -1.43068 0
M  V30 4641 N 447.864 1.01787 1.20321 0
M  V30 4642 C 449.089 0.727009 1.9424 0
M  V30 4643 C 449.514 -0.706179 1.74341 0
M  V30 4644 O 448.872 -1.48609 1.03852 0
M  V30 4645 C 448.92 1.06958 3.44372 0
M  V30 4646 O 448.024 0.181983 4.11998 0
M  V30 4647 H 447.365 0.269626 0.606793 0
M  V30 4648 H 449.895 1.36158 1.52716 0
M  V30 4649 H 449.905 1.02182 3.94997 0
M  V30 4650 H 448.58 2.11378 3.58179 0
M  V30 4651 H 447.157 0.287378 3.71791 0
M  V30 4652 N 449.342 -1.36122 0.79427 0
M  V30 4653 C 450.252 -2.33769 0.197296 0
M  V30 4654 C 451.268 -1.61276 -0.653153 0
M  V30 4655 O 452.444 -1.9323 -0.5678 0
M  V30 4656 C 449.509 -3.40474 -0.654098 0
M  V30 4657 C 448.57 -4.28759 0.215411 0
M  V30 4658 C 447.803 -5.30368 -0.595443 0
M  V30 4659 O 448.026 -5.40211 -1.83107 0
M  V30 4660 O 446.96 -6.019 0.00721351 0
M  V30 4661 H 450.786 -2.86597 1.00478 0
M  V30 4662 H 448.371 -1.38676 0.555818 0
M  V30 4663 H 450.253 -4.05703 -1.13944 0
M  V30 4664 H 448.928 -2.89937 -1.43938 0
M  V30 4665 H 447.835 -3.66554 0.747615 0
M  V30 4666 H 449.168 -4.82661 0.964332 0
M  V30 4667 N 450.82 -0.546701 -1.47814 0
M  V30 4668 C 452.068 -0.0187037 -2.02091 0
M  V30 4669 C 452.389 1.33168 -1.42447 0
M  V30 4670 O 451.659 1.86619 -0.595839 0
M  V30 4671 H 450.239 -0.00392531 -0.74699 0
M  V30 4672 H 452.901 -0.714327 -1.81338 0
M  V30 4673 H 451.997 0.0772219 -3.12004 0
M  V30 4674 N 452.299 1.55045 -0.282633 0
M  V30 4675 C 453.547 1.99365 0.331334 0
M  V30 4676 C 453.868 1.1725 1.55812 0
M  V30 4677 O 453.138 0.263871 1.94115 0
M  V30 4678 H 451.718 0.736397 0.125414 0
M  V30 4679 H 454.38 1.90964 -0.389711 0
M  V30 4680 H 453.476 3.0596 0.616036 0
M  V30 4681 N 453.777 0.010035 1.57597 0
M  V30 4682 C 455.023 -0.673697 1.91283 0
M  V30 4683 C 455.356 -1.72863 0.884979 0
M  V30 4684 O 454.631 -1.94268 -0.0949487 0
M  V30 4685 C 454.914 -1.30766 3.35518 0
M  V30 4686 C 454.767 -0.263578 4.49027 0
M  V30 4687 C 456.086 -2.23105 3.79358 0
M  V30 4688 H 453.205 -0.243439 0.695634 0
M  V30 4689 H 455.847 0.0633864 1.89894 0
M  V30 4690 H 453.997 -1.93588 3.36832 0
M  V30 4691 H 455.669 0.365738 4.59848 0
M  V30 4692 H 453.912 0.413077 4.31829 0
M  V30 4693 H 454.583 -0.746398 5.4693 0
M  V30 4694 H 457.059 -1.70289 3.79659 0
M  V30 4695 H 455.935 -2.64424 4.81011 0
M  V30 4696 H 456.196 -3.11433 3.13787 0
M  V30 4697 N 455.255 -1.55392 -0.262866 0
M  V30 4698 C 456.48 -1.80847 -1.01533 0
M  V30 4699 C 456.905 -0.584946 -1.78774 0
M  V30 4700 O 456.263 0.465701 -1.75217 0
M  V30 4701 C 456.311 -3.03866 -1.94159 0
M  V30 4702 O 455.415 -2.79662 -3.03089 0
M  V30 4703 H 454.756 -0.597441 -0.289759 0
M  V30 4704 H 457.286 -2.02553 -0.288698 0
M  V30 4705 H 457.296 -3.32872 -2.35924 0
M  V30 4706 H 455.971 -3.92564 -1.37354 0
M  V30 4707 H 454.548 -2.61781 -2.65566 0
M  V30 4708 N 456.733 0.527833 -1.48498 0
M  V30 4709 C 457.696 1.61439 -1.62696 0
M  V30 4710 C 458.696 1.52824 -0.500136 0
M  V30 4711 O 459.886 1.56456 -0.765976 0
M  V30 4712 C 457.018 3.01063 -1.59918 0
M  V30 4713 H 458.211 1.50189 -2.59583 0
M  V30 4714 H 455.764 0.750055 -1.37127 0
M  V30 4715 H 456.499 3.17818 -0.645163 0
M  V30 4716 H 456.284 3.08725 -2.41726 0
M  V30 4717 H 457.774 3.80057 -1.73051 0
M  V30 4718 N 458.211 1.37122 0.776871 0
M  V30 4719 C 459.159 1.32549 1.91138 0
M  V30 4720 C 460.153 0.215119 1.68029 0
M  V30 4721 O 461.359 0.382852 1.75881 0
M  V30 4722 H 457.734 0.412952 0.62847 0
M  V30 4723 H 459.705 2.28332 1.92112 0
M  V30 4724 C 458.454 1.14422 3.28333 0
M  V30 4725 H 457.777 1.99115 3.46689 0
M  V30 4726 H 459.217 1.15272 4.0803 0
M  V30 4727 C 457.676 -0.150434 3.36564 0
M  V30 4728 O 458.206 -1.13584 3.85307 0
M  V30 4729 N 456.412 -0.19939 2.89915 0
M  V30 4730 H 455.959 0.603142 2.5044 0
M  V30 4731 H 455.917 -1.06526 2.95803 0
M  V30 4732 N 459.689 -1.00246 1.21608 0
M  V30 4733 C 460.639 -2.07492 0.945051 0
M  V30 4734 C 461.623 -1.60585 -0.100675 0
M  V30 4735 O 462.815 -1.76667 0.10859 0
M  V30 4736 C 459.944 -3.39425 0.514342 0
M  V30 4737 C 459.03 -3.92993 1.59428 0
M  V30 4738 N 459.421 -4.19898 2.81991 0
M  V30 4739 C 457.719 -4.21297 1.46374 0
M  V30 4740 C 458.42 -4.63297 3.51754 0
M  V30 4741 N 457.396 -4.66421 2.79199 0
M  V30 4742 H 461.198 -2.26222 1.87619 0
M  V30 4743 H 458.712 -1.18339 1.11219 0
M  V30 4744 H 460.709 -4.15808 0.301527 0
M  V30 4745 H 459.369 -3.22101 -0.410008 0
M  V30 4746 H 460.38 -4.08377 3.1851 0
M  V30 4747 H 457.057 -4.13095 0.604863 0
M  V30 4748 H 458.447 -4.92816 4.56708 0
M  V30 4749 N 461.167 -1.02423 -1.1978 0
M  V30 4750 C 462.395 -0.737456 -1.93311 0
M  V30 4751 C 462.81 0.703023 -1.75223 0
M  V30 4752 O 462.167 1.47761 -1.07112 0
M  V30 4753 C 462.218 -1.0733 -3.45199 0
M  V30 4754 O 461.939 -2.4572 -3.62702 0
M  V30 4755 C 463.44 -0.80866 -4.35862 0
M  V30 4756 H 460.66 -0.2702 -0.614193 0
M  V30 4757 H 463.204 -1.36747 -1.52054 0
M  V30 4758 H 461.359 -0.488545 -3.84307 0
M  V30 4759 H 461.773 -2.58081 -4.56612 0
M  V30 4760 H 463.247 -1.09365 -5.41057 0
M  V30 4761 H 463.724 0.257025 -4.38447 0
M  V30 4762 H 464.33 -1.37592 -4.02428 0
M  V30 4763 N 462.645 1.35699 -0.801477 0
M  V30 4764 C 463.87 2.03687 -0.390678 0
M  V30 4765 C 464.295 1.60015 0.988778 0
M  V30 4766 O 463.653 0.774357 1.63931 0
M  V30 4767 C 463.701 3.57439 -0.476404 0
M  V30 4768 O 462.805 4.09208 0.512106 0
M  V30 4769 H 462.146 0.64344 -0.163956 0
M  V30 4770 H 464.676 1.73403 -1.08594 0
M  V30 4771 H 464.686 4.06544 -0.344357 0
M  V30 4772 H 463.361 3.88576 -1.48262 0
M  V30 4773 H 461.938 3.7134 0.340721 0
M  V30 4774 N 464.123 0.554532 1.47522 0
M  V30 4775 C 465.539 0.214107 1.58157 0
M  V30 4776 C 465.739 -1.28331 1.55349 0
M  V30 4777 O 464.795 -2.06329 1.45549 0
M  V30 4778 C 466.108 0.838391 2.88776 0
M  V30 4779 C 467.656 0.809374 3.02354 0
M  V30 4780 C 468.131 1.41268 4.35669 0
M  V30 4781 N 469.622 1.37574 4.42298 0
M  V30 4782 C 470.357 1.8122 5.4401 0
M  V30 4783 N 469.853 2.3271 6.52547 0
M  V30 4784 N 471.646 1.72307 5.35039 0
M  V30 4785 H 463.797 1.52744 1.4759 0
M  V30 4786 H 466.06 0.636812 0.702264 0
M  V30 4787 H 465.766 1.89065 2.96559 0
M  V30 4788 H 465.64 0.329847 3.75755 0
M  V30 4789 H 468.027 -0.234187 2.94169 0
M  V30 4790 H 468.108 1.35565 2.16924 0
M  V30 4791 H 467.752 2.45529 4.4461 0
M  V30 4792 H 467.682 0.841871 5.19827 0
M  V30 4793 H 470.173 0.999081 3.64454 0
M  V30 4794 H 470.486 2.63944 7.26329 0
M  V30 4795 H 468.831 2.36719 6.53444 0
M  V30 4796 H 472.022 1.3186 4.49144 0
M  V30 4797 H 472.195 2.06641 6.14169 0
M  V30 4798 N 465.601 -1.54893 0.290851 0
M  V30 4799 C 466.564 -2.21824 -0.576784 0
M  V30 4800 C 467.564 -1.20104 -1.06919 0
M  V30 4801 O 468.754 -1.44906 -0.966843 0
M  V30 4802 C 465.886 -2.89662 -1.79747 0
M  V30 4803 H 467.079 -2.99899 0.00784051 0
M  V30 4804 H 464.632 -1.56245 0.0415934 0
M  V30 4805 H 465.367 -2.15639 -2.42219 0
M  V30 4806 H 465.152 -3.64219 -1.45214 0
M  V30 4807 H 466.642 -3.4075 -2.4141 0
M  V30 4808 N 467.08 -0.0183926 -1.57589 0
M  V30 4809 C 468.308 0.673046 -1.95647 0
M  V30 4810 C 468.723 1.66275 -0.894312 0
M  V30 4811 O 468.08 1.82072 0.124975 0
M  V30 4812 C 468.131 1.38884 -3.33756 0
M  V30 4813 O 467.852 0.438806 -4.35897 0
M  V30 4814 C 469.353 2.1731 -3.86383 0
M  V30 4815 H 466.573 0.186292 -0.644621 0
M  V30 4816 H 469.117 -0.0749748 -2.04363 0
M  V30 4817 H 467.272 2.08835 -3.26293 0
M  V30 4818 H 467.686 0.945869 -5.15901 0
M  V30 4819 H 469.16 2.62863 -4.85394 0
M  V30 4820 H 469.637 3.00764 -3.20059 0
M  V30 4821 H 470.243 1.52339 -3.97081 0
M  V30 4822 N 468.558 1.5553 0.254621 0
M  V30 4823 C 469.783 1.81383 1.00573 0
M  V30 4824 C 470.208 0.594419 1.78461 0
M  V30 4825 O 469.566 -0.456403 1.75461 0
M  V30 4826 C 469.614 3.04892 1.92545 0
M  V30 4827 O 468.718 2.81266 3.01601 0
M  V30 4828 H 468.059 0.598969 0.286587 0
M  V30 4829 H 470.589 2.02703 0.277952 0
M  V30 4830 H 470.599 3.34119 2.34155 0
M  V30 4831 H 469.274 3.93287 1.3527 0
M  V30 4832 H 467.851 2.63185 2.64174 0
M  V30 4833 N 470.036 -0.519951 1.48776 0
M  V30 4834 C 471.264 -1.29971 1.60982 0
M  V30 4835 C 471.679 -1.86803 0.273885 0
M  V30 4836 O 471.036 -1.66904 -0.738193 0
M  V30 4837 C 471.087 -2.44346 2.66415 0
M  V30 4838 O 470.808 -1.89855 3.94825 0
M  V30 4839 C 472.309 -3.36014 2.89153 0
M  V30 4840 H 469.529 -0.394891 0.542496 0
M  V30 4841 H 472.073 -0.626214 1.94676 0
M  V30 4842 H 470.228 -3.07562 2.35552 0
M  V30 4843 H 470.642 -2.64798 4.5275 0
M  V30 4844 H 472.116 -4.12593 3.66703 0
M  V30 4845 H 472.593 -3.91859 1.98351 0
M  V30 4846 H 473.199 -2.78582 3.21359 0
M  V30 4847 N 471.514 -1.37532 -0.769588 0
M  V30 4848 C 472.477 -1.33292 -1.86456 0
M  V30 4849 C 473.477 -0.236537 -1.59051 0
M  V30 4850 O 474.667 -0.492511 -1.67093 0
M  V30 4851 C 471.799 -1.07118 -3.23633 0
M  V30 4852 H 472.992 -2.30692 -1.91628 0
M  V30 4853 H 470.545 -1.22593 -0.969572 0
M  V30 4854 H 471.28 -0.102578 -3.24138 0
M  V30 4855 H 471.065 -1.86479 -3.44917 0
M  V30 4856 H 472.555 -1.06806 -4.03711 0
M  V30 4857 N 472.992 0.995999 -1.22138 0
M  V30 4858 C 474.22 1.77066 -1.07029 0
M  V30 4859 C 474.635 1.8495 0.379357 0
M  V30 4860 O 473.992 1.3174 1.26297 0
M  V30 4861 C 474.043 3.20533 -1.67155 0
M  V30 4862 O 473.764 3.13082 -3.06449 0
M  V30 4863 C 475.265 4.14461 -1.5728 0
M  V30 4864 H 472.485 0.556179 -0.375374 0
M  V30 4865 H 475.029 1.25238 -1.61666 0
M  V30 4866 H 473.184 3.6944 -1.16589 0
M  V30 4867 H 473.598 4.03283 -3.35355 0
M  V30 4868 H 475.072 5.1289 -2.04078 0
M  V30 4869 H 475.549 4.36005 -0.528795 0
M  V30 4870 H 476.155 3.71449 -2.07136 0
M  V30 4871 N 474.47 1.03057 1.19235 0
M  V30 4872 C 475.695 0.74757 1.93458 0
M  V30 4873 C 476.12 -0.687648 1.7508 0
M  V30 4874 O 475.478 -1.47499 1.05422 0
M  V30 4875 C 475.526 1.10604 3.43219 0
M  V30 4876 O 474.63 0.225671 4.11782 0
M  V30 4877 H 473.971 0.276047 0.603899 0
M  V30 4878 H 476.501 1.3777 1.51263 0
M  V30 4879 H 476.511 1.06366 3.93891 0
M  V30 4880 H 475.186 2.15165 3.55917 0
M  V30 4881 H 473.763 0.326795 3.71465 0
M  V30 4882 N 475.948 -1.35272 0.808662 0
M  V30 4883 C 477.196 -1.98316 0.389233 0
M  V30 4884 C 477.517 -1.64465 -1.04767 0
M  V30 4885 O 476.787 -0.928175 -1.72516 0
M  V30 4886 H 475.367 -0.733585 0.140935 0
M  V30 4887 H 478.029 -1.6515 1.03496 0
M  V30 4888 H 477.125 -3.08123 0.496631 0
M  V30 4889 N 477.426 -0.562348 -1.47226 0
M  V30 4890 C 478.673 -0.0402165 -2.0246 0
M  V30 4891 C 479.001 1.31169 -1.43614 0
M  V30 4892 O 478.256 1.86805 -0.5833 0
M  V30 4893 C 478.555 0.0969817 -3.57268 0
M  V30 4894 C 478.221 -1.1847 -4.35058 0
M  V30 4895 C 476.883 -1.53588 -4.56031 0
M  V30 4896 C 479.235 -2.03378 -4.79882 0
M  V30 4897 C 476.563 -2.73452 -5.19077 0
M  V30 4898 C 478.915 -3.2245 -5.44251 0
M  V30 4899 C 477.579 -3.57876 -5.63455 0
M  V30 4900 H 476.849 -0.0147163 -0.740854 0
M  V30 4901 H 479.496 -0.734895 -1.76838 0
M  V30 4902 H 477.801 0.87466 -3.81912 0
M  V30 4903 H 479.498 0.516408 -3.97661 0
M  V30 4904 H 476.088 -0.90126 -4.19017 0
M  V30 4905 H 480.272 -1.77553 -4.63453 0
M  V30 4906 H 475.528 -3.01062 -5.32139 0
M  V30 4907 H 479.702 -3.88526 -5.77945 0
M  V30 4908 H 477.329 -4.50849 -6.12078 0
M  V30 4909 N 478.904 1.54736 -0.299062 0
M  V30 4910 C 479.867 2.22127 0.565012 0
M  V30 4911 C 480.867 1.20669 1.06281 0
M  V30 4912 O 482.057 1.45417 0.959145 0
M  V30 4913 C 479.189 2.90611 1.78208 0
M  V30 4914 H 480.382 2.99891 -0.0237448 0
M  V30 4915 H 477.935 1.5622 -0.0498788 0
M  V30 4916 H 478.67 2.16921 2.41072 0
M  V30 4917 H 478.455 3.64984 1.43281 0
M  V30 4918 H 479.945 3.42026 2.396 0
M  V30 4919 N 480.382 0.0267497 1.57577 0
M  V30 4920 C 481.63 -0.651116 1.91324 0
M  V30 4921 C 481.951 -1.72804 0.90353 0
M  V30 4922 O 481.221 -1.95822 -0.0552946 0
M  V30 4923 H 479.801 -0.243491 0.706202 0
M  V30 4924 H 482.463 0.0739935 1.94759 0
M  V30 4925 H 481.559 -1.10536 2.9187 0
M  V30 4926 N 481.861 -1.55662 -0.24637 0
M  V30 4927 C 482.824 -1.89558 -1.28842 0
M  V30 4928 C 483.824 -0.772082 -1.41052 0
M  V30 4929 O 485.014 -1.04007 -1.39743 0
M  V30 4930 C 482.146 -2.12449 -2.66605 0
M  V30 4931 H 483.339 -2.82735 -1.00004 0
M  V30 4932 H 480.892 -1.48562 -0.485684 0
M  V30 4933 H 481.627 -1.21742 -3.00582 0
M  V30 4934 H 481.412 -2.94273 -2.59125 0
M  V30 4935 H 482.902 -2.39854 -3.41847 0
M  V30 4936 N 483.339 0.512053 -1.4905 0
M  V30 4937 C 484.588 1.26343 -1.57227 0
M  V30 4938 C 484.901 1.93876 -0.259155 0
M  V30 4939 O 486.107 2.70612 -0.219358 0
M  V30 4940 C 484.563 2.29343 -2.77362 0
M  V30 4941 C 484.171 1.67799 -4.15388 0
M  V30 4942 C 485.915 3.05378 -2.94864 0
M  V30 4943 C 483.822 2.68845 -5.2676 0
M  V30 4944 H 482.752 0.475231 -0.585382 0
M  V30 4945 H 485.403 0.53862 -1.75417 0
M  V30 4946 H 483.785 3.04938 -2.52643 0
M  V30 4947 H 484.959 0.982715 -4.50199 0
M  V30 4948 H 483.274 1.04194 -4.03153 0
M  V30 4949 H 485.871 3.80921 -3.75238 0
M  V30 4950 H 486.214 3.62327 -2.05 0
M  V30 4951 H 486.747 2.36898 -3.19569 0
M  V30 4952 H 483.486 2.16692 -6.18647 0
M  V30 4953 H 483.006 3.36647 -4.96416 0
M  V30 4954 H 484.685 3.31487 -5.5563 0
M  V30 4955 N 484.817 1.37938 0.762283 0
M  V30 4956 C 486.065 1.33404 1.51815 0
M  V30 4957 C 486.386 -0.0780975 1.94844 0
M  V30 4958 O 485.656 -1.02405 1.67003 0
M  V30 4959 H 484.236 0.490839 0.563104 0
M  V30 4960 H 486.898 1.72527 0.906669 0
M  V30 4961 H 485.994 1.97926 2.41313 0
M  V30 4962 N 486.295 -0.989507 1.22664 0
M  V30 4963 C 487.227 -2.0824 0.957542 0
M  V30 4964 C 488.24 -1.6267 -0.0651098 0
M  V30 4965 O 489.429 -1.77695 0.169312 0
M  V30 4966 C 486.529 -3.36298 0.419145 0
M  V30 4967 C 485.702 -4.10882 1.49982 0
M  V30 4968 C 484.761 -5.17221 0.967904 0
M  V30 4969 O 483.787 -5.44613 1.65487 0
M  V30 4970 N 484.989 -5.80124 -0.20896 0
M  V30 4971 H 487.754 -2.31904 1.89843 0
M  V30 4972 H 485.315 -1.15552 1.13399 0
M  V30 4973 H 487.307 -4.04671 0.0485451 0
M  V30 4974 H 485.877 -3.09671 -0.426937 0
M  V30 4975 H 485.097 -3.37092 2.04359 0
M  V30 4976 H 486.385 -4.57482 2.22682 0
M  V30 4977 H 485.783 -5.60244 -0.783818 0
M  V30 4978 H 484.34 -6.49715 -0.520913 0
M  V30 4979 N 487.773 -1.03688 -1.18687 0
M  V30 4980 C 488.72 -0.624624 -2.22187 0
M  V30 4981 C 489.69 0.365636 -1.62026 0
M  V30 4982 O 490.875 0.260481 -1.89014 0
M  V30 4983 C 488.015 0.0101738 -3.45099 0
M  V30 4984 C 487.128 -1.02709 -4.19613 0
M  V30 4985 C 486.263 -0.361213 -5.2997 0
M  V30 4986 C 485.302 -1.38384 -5.96252 0
M  V30 4987 N 484.439 -0.743196 -6.98155 0
M  V30 4988 H 489.279 -1.51176 -2.56807 0
M  V30 4989 H 486.816 -0.75636 -1.26165 0
M  V30 4990 H 488.774 0.395528 -4.15321 0
M  V30 4991 H 487.404 0.860848 -3.1111 0
M  V30 4992 H 486.456 -1.53043 -3.48256 0
M  V30 4993 H 487.768 -1.80398 -4.65036 0
M  V30 4994 H 486.922 0.0785537 -6.06649 0
M  V30 4995 H 485.661 0.447799 -4.8564 0
M  V30 4996 H 484.666 -1.83378 -5.18317 0
M  V30 4997 H 485.891 -2.19448 -6.42666 0
M  V30 4998 H 483.837 0.0455789 -6.55984 0
M  V30 4999 H 483.754 -1.45784 -7.41811 0
M  V30 5000 H 485.022 -0.327698 -7.78811 0
M  V30 5001 N 489.251 1.34841 -0.815825 0
M  V30 5002 C 490.181 2.32187 -0.247298 0
M  V30 5003 C 491.162 1.5791 0.632344 0
M  V30 5004 O 492.347 1.8593 0.560698 0
M  V30 5005 C 489.477 3.42122 0.597466 0
M  V30 5006 C 488.431 4.27602 -0.184446 0
M  V30 5007 C 487.757 5.28942 0.782609 0
M  V30 5008 C 489.057 5.03502 -1.38865 0
M  V30 5009 H 490.751 2.79985 -1.06061 0
M  V30 5010 H 488.297 1.34611 -0.511461 0
M  V30 5011 H 490.25 4.09232 1.00533 0
M  V30 5012 H 488.974 2.92956 1.44376 0
M  V30 5013 H 487.633 3.62085 -0.573592 0
M  V30 5014 H 487.281 4.7604 1.62466 0
M  V30 5015 H 486.981 5.87008 0.263695 0
M  V30 5016 H 488.505 5.98922 1.18848 0
M  V30 5017 H 489.919 5.63506 -1.05518 0
M  V30 5018 H 488.316 5.71108 -1.8427 0
M  V30 5019 H 489.386 4.33608 -2.17054 0
M  V30 5020 N 490.729 0.570148 1.46925 0
M  V30 5021 C 492.14 0.1402 1.86173 0
M  V30 5022 C 492.491 -1.29347 1.47526 0
M  V30 5023 O 491.616 -1.97508 0.884292 0
M  V30 5024 C 492.211 0.247661 3.37894 0
M  V30 5025 C 490.77 -0.127332 3.76185 0
M  V30 5026 C 489.917 0.589349 2.70965 0
M  V30 5027 H 492.868 0.779117 1.38259 0
M  V30 5028 H 492.889 -0.530341 3.76786 0
M  V30 5029 H 492.401 1.29121 3.65991 0
M  V30 5030 H 490.502 -1.17149 3.53704 0
M  V30 5031 H 490.615 0.240238 4.78497 0
M  V30 5032 H 488.979 0.0309824 2.54681 0
M  V30 5033 H 489.762 1.6343 3.01903 0
M  V30 5034 N 492.207 -1.54576 0.307264 0
M  V30 5035 C 493.618 -1.8579 -0.184121 0
M  V30 5036 C 493.969 -1.22914 -1.52927 0
M  V30 5037 O 493.094 -0.529126 -2.09831 0
M  V30 5038 C 493.689 -3.37081 -0.340862 0
M  V30 5039 C 492.248 -3.68304 -0.776465 0
M  V30 5040 C 491.395 -2.77076 0.111503 0
M  V30 5041 H 494.346 -1.49656 0.528078 0
M  V30 5042 H 494.367 -3.61922 -1.17443 0
M  V30 5043 H 493.879 -3.82815 0.638309 0
M  V30 5044 H 491.98 -3.28092 -1.76596 0
M  V30 5045 H 492.093 -4.75434 -0.591512 0
M  V30 5046 H 490.457 -2.51374 -0.410256 0
M  V30 5047 H 491.24 -3.25632 1.08714 0
M  V30 5048 N 493.685 -0.035106 -1.57561 0
M  V30 5049 C 494.932 0.642229 -1.92046 0
M  V30 5050 C 495.26 1.7179 -0.91206 0
M  V30 5051 O 494.515 1.95544 0.0781153 0
M  V30 5052 C 494.814 1.29149 -3.3325 0
M  V30 5053 C 494.48 0.345604 -4.49574 0
M  V30 5054 C 493.142 0.0852775 -4.81124 0
M  V30 5055 C 495.494 -0.303569 -5.20315 0
M  V30 5056 C 492.822 -0.831927 -5.80772 0
M  V30 5057 C 495.174 -1.20886 -6.20942 0
M  V30 5058 C 493.838 -1.47802 -6.50931 0
M  V30 5059 H 493.108 0.235008 -0.702746 0
M  V30 5060 H 495.755 -0.0981529 -1.91248 0
M  V30 5061 H 494.06 2.10676 -3.30337 0
M  V30 5062 H 495.757 1.82223 -3.57205 0
M  V30 5063 H 492.347 0.558683 -4.24943 0
M  V30 5064 H 496.531 -0.115515 -4.96166 0
M  V30 5065 H 491.787 -1.0481 -6.02349 0
M  V30 5066 H 495.961 -1.71804 -6.74875 0
M  V30 5067 H 493.588 -2.19039 -7.2796 0
M  V30 5068 N 495.163 1.55791 0.238111 0
M  V30 5069 C 496.388 1.8244 0.986432 0
M  V30 5070 C 496.813 0.613314 1.7782 0
M  V30 5071 O 496.171 -0.437767 1.75935 0
M  V30 5072 C 496.219 3.06917 1.893 0
M  V30 5073 O 495.323 2.84449 2.98601 0
M  V30 5074 H 494.664 0.601975 0.280218 0
M  V30 5075 H 497.194 2.02987 0.256437 0
M  V30 5076 H 497.204 3.36583 2.30598 0
M  V30 5077 H 495.879 3.947 1.31091 0
M  V30 5078 H 494.456 2.65972 2.61368 0
M  V30 5079 N 496.642 -0.504142 1.49319 0
M  V30 5080 C 497.872 -1.28071 1.62116 0
M  V30 5081 C 498.28 -1.86955 0.290566 0
M  V30 5082 O 497.623 -1.68415 -0.733616 0
M  V30 5083 C 497.685 -2.4521 2.62893 0
M  V30 5084 C 497.349 -2.07218 4.0732 0
M  V30 5085 C 498.346 -1.61375 4.94221 0
M  V30 5086 C 496.031 -2.16949 4.53033 0
M  V30 5087 C 498.025 -1.25763 6.2487 0
M  V30 5088 C 495.712 -1.80949 5.83696 0
M  V30 5089 C 496.71 -1.3543 6.69438 0
M  V30 5090 O 496.398 -0.99915 7.97667 0
M  V30 5091 H 496.13 -0.394763 0.54876 0
M  V30 5092 H 498.684 -0.612118 1.96067 0
M  V30 5093 H 496.914 -3.15134 2.24115 0
M  V30 5094 H 498.603 -3.0724 2.65252 0
M  V30 5095 H 499.369 -1.53306 4.60133 0
M  V30 5096 H 495.248 -2.5133 3.86463 0
M  V30 5097 H 498.792 -0.901631 6.91749 0
M  V30 5098 H 494.689 -1.88667 6.17313 0
M  V30 5099 H 495.457 -1.13089 8.1065 0
M  V30 5100 N 498.12 -1.38341 -0.754957 0
M  V30 5101 C 499.083 -1.35262 -1.85032 0
M  V30 5102 C 500.083 -0.253393 -1.58791 0
M  V30 5103 O 501.273 -0.510205 -1.66561 0
M  V30 5104 C 498.405 -1.10544 -3.22479 0
M  V30 5105 H 499.598 -2.32712 -1.8917 0
M  V30 5106 H 497.151 -1.23614 -0.956515 0
M  V30 5107 H 497.886 -0.136952 -3.24011 0
M  V30 5108 H 497.671 -1.90127 -3.4292 0
M  V30 5109 H 499.161 -1.11082 -4.02555 0
M  V30 5110 N 499.598 0.982988 -1.23187 0
M  V30 5111 C 500.828 1.75666 -1.08743 0
M  V30 5112 C 501.236 1.85662 0.364195 0
M  V30 5113 O 500.579 1.33317 1.26382 0
M  V30 5114 C 500.641 3.20144 -1.63549 0
M  V30 5115 C 500.305 3.33665 -3.12277 0
M  V30 5116 C 501.302 3.20194 -4.096 0
M  V30 5117 C 498.987 3.58397 -3.51933 0
M  V30 5118 C 500.981 3.31256 -5.44563 0
M  V30 5119 C 498.668 3.69098 -4.87042 0
M  V30 5120 C 499.666 3.55537 -5.83166 0
M  V30 5121 O 499.354 3.65864 -7.1582 0
M  V30 5122 H 499.086 0.558194 -0.381307 0
M  V30 5123 H 501.64 1.24387 -1.63454 0
M  V30 5124 H 499.87 3.72659 -1.03256 0
M  V30 5125 H 501.559 3.79262 -1.4462 0
M  V30 5126 H 502.325 3.00987 -3.80305 0
M  V30 5127 H 498.204 3.68025 -2.77631 0
M  V30 5128 H 501.748 3.20588 -6.19572 0
M  V30 5129 H 497.645 3.87814 -5.16014 0
M  V30 5130 H 498.413 3.82675 -7.23534 0
M  V30 5131 N 501.076 1.04316 1.18135 0
M  V30 5132 C 502.304 0.768117 1.92113 0
M  V30 5133 C 502.719 -0.675057 1.76319 0
M  V30 5134 O 502.076 -1.46038 1.09449 0
M  V30 5135 C 502.127 1.12808 3.43448 0
M  V30 5136 O 501.848 2.5146 3.58747 0
M  V30 5137 C 503.349 0.8779 4.3452 0
M  V30 5138 H 500.569 0.279937 0.609817 0
M  V30 5139 H 503.113 1.39149 1.49859 0
M  V30 5140 H 501.268 0.549623 3.83481 0
M  V30 5141 H 501.682 2.65313 4.52448 0
M  V30 5142 H 503.156 1.17959 5.39249 0
M  V30 5143 H 503.633 -0.187239 4.38801 0
M  V30 5144 H 504.239 1.43977 4.00188 0
M  V30 5145 N 502.554 -1.34406 0.822964 0
M  V30 5146 C 503.464 -2.33298 0.246838 0
M  V30 5147 C 504.48 -1.62625 -0.618797 0
M  V30 5148 O 505.656 -1.94391 -0.526685 0
M  V30 5149 C 502.721 -3.41785 -0.581731 0
M  V30 5150 C 501.782 -4.28206 0.306309 0
M  V30 5151 C 501.015 -5.31512 -0.48281 0
M  V30 5152 O 501.238 -5.43973 -1.71607 0
M  V30 5153 O 500.172 -6.01749 0.134884 0
M  V30 5154 H 503.998 -2.84401 1.06534 0
M  V30 5155 H 501.583 -1.37466 0.585108 0
M  V30 5156 H 503.465 -4.08028 -1.05313 0
M  V30 5157 H 502.14 -2.92925 -1.37756 0
M  V30 5158 H 501.047 -3.64885 0.825199 0
M  V30 5159 H 502.38 -4.80507 1.06649 0
M  V30 5160 N 504.032 -0.577932 -1.46621 0
M  V30 5161 C 504.962 0.145917 -2.33044 0
M  V30 5162 C 505.943 0.888412 -1.45056 0
M  V30 5163 O 507.128 0.864812 -1.73881 0
M  V30 5164 C 504.258 1.16322 -3.27241 0
M  V30 5165 C 503.212 0.535868 -4.24632 0
M  V30 5166 C 502.538 1.65929 -5.08303 0
M  V30 5167 C 503.838 -0.523861 -5.19666 0
M  V30 5168 H 505.532 -0.575636 -2.93814 0
M  V30 5169 H 503.078 -0.278272 -1.41286 0
M  V30 5170 H 505.031 1.67793 -3.86553 0
M  V30 5171 H 503.755 1.91498 -2.64567 0
M  V30 5172 H 502.414 0.0422759 -3.66576 0
M  V30 5173 H 502.062 2.40061 -4.42018 0
M  V30 5174 H 501.762 1.2452 -5.74255 0
M  V30 5175 H 503.286 2.17686 -5.70478 0
M  V30 5176 H 504.7 -0.0944059 -5.73222 0
M  V30 5177 H 503.097 -0.858 -5.93935 0
M  V30 5178 H 504.167 -1.41197 -4.63887 0
M  V30 5179 N 505.51 1.54411 -0.315457 0
M  V30 5180 C 506.42 2.27737 0.56329 0
M  V30 5181 C 507.436 1.31787 1.13614 0
M  V30 5182 O 508.612 1.64791 1.15784 0
M  V30 5183 C 505.677 3.01478 1.71207 0
M  V30 5184 C 504.738 4.12997 1.17185 0
M  V30 5185 C 503.971 4.83212 2.26588 0
M  V30 5186 O 504.194 4.52884 3.46775 0
M  V30 5187 O 503.128 5.70299 1.92463 0
M  V30 5188 H 506.954 3.03683 -0.0319614 0
M  V30 5189 H 504.539 1.49178 -0.0814188 0
M  V30 5190 H 506.421 3.47683 2.38106 0
M  V30 5191 H 505.096 2.28414 2.29366 0
M  V30 5192 H 504.003 3.71159 0.468174 0
M  V30 5193 H 505.336 4.8808 0.635501 0
M  V30 5194 N 506.988 0.0434614 1.5754 0
M  V30 5195 C 507.951 -0.918696 2.09982 0
M  V30 5196 C 508.951 -1.24488 1.01781 0
M  V30 5197 O 510.141 -1.18284 1.27885 0
M  V30 5198 C 507.273 -2.23093 2.57764 0
M  V30 5199 H 508.466 -0.464229 2.96285 0
M  V30 5200 H 506.019 -0.204818 1.54952 0
M  V30 5201 H 506.754 -2.73137 1.74832 0
M  V30 5202 H 506.539 -2.00724 3.36827 0
M  V30 5203 H 508.029 -2.92028 2.98512 0
M  V30 5204 N 508.466 -1.55915 -0.229846 0
M  V30 5205 C 509.715 -1.77742 -0.953455 0
M  V30 5206 C 510.028 -0.610524 -1.85828 0
M  V30 5207 O 511.234 -0.712219 -2.61992 0
M  V30 5208 C 509.69 -3.14738 -1.74551 0
M  V30 5209 C 509.298 -4.39126 -0.887242 0
M  V30 5210 C 511.042 -3.45895 -2.46084 0
M  V30 5211 C 508.949 -5.67149 -1.67617 0
M  V30 5212 H 507.879 -0.662648 -0.359741 0
M  V30 5213 H 510.53 -1.82322 -0.207576 0
M  V30 5214 H 508.912 -3.04311 -2.53399 0
M  V30 5215 H 510.086 -4.60588 -0.139892 0
M  V30 5216 H 508.401 -4.15427 -0.284443 0
M  V30 5217 H 510.998 -4.38767 -3.05594 0
M  V30 5218 H 511.341 -2.68007 -3.18556 0
M  V30 5219 H 511.874 -3.57614 -1.74233 0
M  V30 5220 H 508.613 -6.47906 -0.994881 0
M  V30 5221 H 508.133 -5.49763 -2.39836 0
M  V30 5222 H 509.812 -6.07025 -2.23898 0
M  V30 5223 N 509.944 0.496216 -1.49584 0
M  V30 5224 C 510.877 1.61508 -1.61215 0
M  V30 5225 C 511.855 1.55927 -0.461045 0
M  V30 5226 O 513.039 1.75914 -0.677231 0
M  V30 5227 C 510.166 3.00035 -1.57152 0
M  V30 5228 C 509.212 3.23861 -2.77518 0
M  V30 5229 S 510.045 3.06466 -4.39134 0
M  V30 5230 C 511.201 4.4738 -4.37724 0
M  V30 5231 H 511.434 1.51398 -2.55863 0
M  V30 5232 H 508.967 0.681727 -1.38535 0
M  V30 5233 H 510.925 3.7991 -1.55494 0
M  V30 5234 H 509.586 3.07556 -0.637834 0
M  V30 5235 H 508.779 4.25 -2.70908 0
M  V30 5236 H 508.381 2.51716 -2.76614 0
M  V30 5237 H 510.673 5.39556 -4.09738 0
M  V30 5238 H 511.616 4.59038 -5.39156 0
M  V30 5239 H 512.024 4.28283 -3.67742 0
M  V30 5240 N 511.423 1.38739 0.74761 0
M  V30 5241 C 512.653 1.3832 1.53464 0
M  V30 5242 C 513.061 -0.0273464 1.8918 0
M  V30 5243 O 512.404 -1.00588 1.53713 0
M  V30 5244 C 512.466 2.18007 2.85855 0
M  V30 5245 C 512.13 3.66762 2.72644 0
M  V30 5246 C 513.127 4.60124 2.42037 0
M  V30 5247 C 510.812 4.10193 2.89909 0
M  V30 5248 C 512.806 5.94897 2.28859 0
M  V30 5249 C 510.493 5.45045 2.7635 0
M  V30 5250 C 511.491 6.37211 2.45869 0
M  V30 5251 O 511.179 7.69581 2.3238 0
M  V30 5252 H 510.911 0.474718 0.481268 0
M  V30 5253 H 513.465 1.83012 0.932518 0
M  V30 5254 H 511.695 1.68043 3.48279 0
M  V30 5255 H 513.384 2.09921 3.47402 0
M  V30 5256 H 514.15 4.27874 2.28361 0
M  V30 5257 H 510.029 3.38797 3.1263 0
M  V30 5258 H 513.573 6.66802 2.04989 0
M  V30 5259 H 509.47 5.76889 2.89601 0
M  V30 5260 H 510.238 7.80169 2.47546 0
M  V30 5261 N 512.901 -0.976442 1.23707 0
M  V30 5262 C 513.864 -2.0511 1.02287 0
M  V30 5263 C 514.864 -1.60791 -0.0167195 0
M  V30 5264 O 516.054 -1.72761 0.223408 0
M  V30 5265 C 513.186 -3.36458 0.548507 0
M  V30 5266 H 514.379 -2.25545 1.9766 0
M  V30 5267 H 511.932 -1.15042 1.05806 0
M  V30 5268 H 512.667 -3.21713 -0.408818 0
M  V30 5269 H 512.452 -3.69967 1.29874 0
M  V30 5270 H 513.942 -4.15489 0.419406 0
M  V30 5271 N 514.379 -1.04941 -1.1758 0
M  V30 5272 C 515.309 -0.669172 -2.23706 0
M  V30 5273 C 516.29 0.331835 -1.66832 0
M  V30 5274 O 517.475 0.209988 -1.93061 0
M  V30 5275 C 514.605 -0.0404889 -3.47276 0
M  V30 5276 C 513.559 -0.965983 -4.16957 0
M  V30 5277 C 512.885 -0.201312 -5.34321 0
M  V30 5278 C 514.185 -2.28902 -4.69469 0
M  V30 5279 H 515.879 -1.55639 -2.55767 0
M  V30 5280 H 513.425 -0.749793 -1.22939 0
M  V30 5281 H 515.378 0.237298 -4.20731 0
M  V30 5282 H 514.102 0.881658 -3.14475 0
M  V30 5283 H 512.761 -1.22829 -3.45411 0
M  V30 5284 H 512.409 0.723519 -4.97769 0
M  V30 5285 H 512.109 -0.817968 -5.81879 0
M  V30 5286 H 513.633 0.0692499 -6.10561 0
M  V30 5287 H 515.047 -2.07132 -5.34574 0
M  V30 5288 H 513.444 -2.85942 -5.27596 0
M  V30 5289 H 514.514 -2.92937 -3.86414 0
M  V30 5290 N 515.857 1.33968 -0.830081 0
M  V30 5291 C 517.105 1.97672 -0.420734 0
M  V30 5292 C 517.426 1.66111 1.02138 0
M  V30 5293 O 516.696 0.955503 1.71017 0
M  V30 5294 H 515.276 0.73125 -0.152587 0
M  V30 5295 H 517.938 1.63483 -1.0611 0
M  V30 5296 H 517.034 3.07294 -0.545588 0
M  V30 5297 N 517.335 0.585699 1.46312 0
M  V30 5298 C 518.581 0.0725284 2.0267 0
M  V30 5299 C 518.914 -1.28523 1.45586 0
M  V30 5300 O 518.189 -1.84283 0.622101 0
M  V30 5301 C 518.472 0.0099788 3.60099 0
M  V30 5302 C 518.325 1.39685 4.27561 0
M  V30 5303 C 519.644 -0.689117 4.34671 0
M  V30 5304 H 516.763 0.0278307 0.736474 0
M  V30 5305 H 519.405 0.753472 1.74421 0
M  V30 5306 H 517.555 -0.56992 3.84297 0
M  V30 5307 H 519.227 2.02215 4.14617 0
M  V30 5308 H 517.47 1.96374 3.86807 0
M  V30 5309 H 518.141 1.30553 5.36339 0
M  V30 5310 H 520.617 -0.196446 4.15636 0
M  V30 5311 H 519.493 -0.701921 5.44393 0
M  V30 5312 H 519.754 -1.75101 4.05946 0
M  V30 5313 N 518.813 -1.54241 0.323641 0
M  V30 5314 C 520.061 -2.00174 -0.278359 0
M  V30 5315 C 520.382 -1.2134 -1.52648 0
M  V30 5316 O 519.652 -0.315244 -1.93347 0
M  V30 5317 H 518.232 -0.739463 -0.105845 0
M  V30 5318 H 520.894 -1.89864 0.440204 0
M  V30 5319 H 519.99 -3.07486 -0.5347 0
M  V30 5320 N 520.291 -0.0518155 -1.57515 0
M  V30 5321 C 521.254 0.907547 -2.10467 0
M  V30 5322 C 522.254 1.23947 -1.02439 0
M  V30 5323 O 523.444 1.17604 -1.2851 0
M  V30 5324 C 520.576 2.21723 -2.58944 0
M  V30 5325 H 521.769 0.44851 -2.96527 0
M  V30 5326 H 519.322 0.196598 -1.55059 0
M  V30 5327 H 520.057 2.72206 -1.76279 0
M  V30 5328 H 519.842 1.98935 -3.37886 0
M  V30 5329 H 521.332 2.90441 -3.00056 0
M  V30 5330 N 521.769 1.56035 0.221574 0
M  V30 5331 C 522.994 1.83476 0.967026 0
M  V30 5332 C 523.419 0.632139 1.7716 0
M  V30 5333 O 522.777 -0.419082 1.7639 0
M  V30 5334 C 522.825 3.08907 1.86034 0
M  V30 5335 O 521.929 2.876 2.95567 0
M  V30 5336 H 521.27 0.604913 0.273817 0
M  V30 5337 H 523.8 2.03247 0.234893 0
M  V30 5338 H 523.81 3.3901 2.27016 0
M  V30 5339 H 522.485 3.96068 1.26898 0
M  V30 5340 H 521.062 2.6873 2.58532 0
M  V30 5341 N 523.247 -0.488276 1.49845 0
M  V30 5342 C 524.496 -1.23826 1.59217 0
M  V30 5343 C 524.809 -1.93439 0.289966 0
M  V30 5344 O 526.015 -2.70229 0.262382 0
M  V30 5345 C 524.471 -2.24902 2.80976 0
M  V30 5346 C 524.079 -1.6117 4.18005 0
M  V30 5347 C 525.823 -3.00648 2.99685 0
M  V30 5348 C 523.73 -2.60431 5.3097 0
M  V30 5349 H 522.66 -0.465858 0.592868 0
M  V30 5350 H 525.311 -0.510645 1.76252 0
M  V30 5351 H 523.693 -3.0088 2.57463 0
M  V30 5352 H 524.867 -0.910968 4.51706 0
M  V30 5353 H 523.182 -0.97767 4.0476 0
M  V30 5354 H 525.779 -3.74903 3.81251 0
M  V30 5355 H 526.122 -3.5902 2.10738 0
M  V30 5356 H 526.655 -2.31784 3.23297 0
M  V30 5357 H 523.394 -2.06823 6.22017 0
M  V30 5358 H 522.914 -3.28707 5.01709 0
M  V30 5359 H 524.593 -3.22606 5.60834 0
M  V30 5360 N 524.725 -1.39134 -0.740242 0
M  V30 5361 C 525.672 -1.37434 -1.8542 0
M  V30 5362 C 526.642 -0.234822 -1.64432 0
M  V30 5363 O 527.827 -0.429125 -1.85912 0
M  V30 5364 C 524.967 -1.21844 -3.22875 0
M  V30 5365 C 524.08 -2.45296 -3.55603 0
M  V30 5366 C 523.215 -2.22334 -4.82432 0
M  V30 5367 C 522.254 -3.41488 -5.07988 0
M  V30 5368 N 521.391 -3.17877 -6.26018 0
M  V30 5369 H 526.231 -2.3266 -1.86207 0
M  V30 5370 H 523.768 -1.15578 -0.909946 0
M  V30 5371 H 525.726 -1.10818 -4.02213 0
M  V30 5372 H 524.356 -0.3025 -3.21379 0
M  V30 5373 H 523.408 -2.66945 -2.71006 0
M  V30 5374 H 524.72 -3.34063 -3.7041 0
M  V30 5375 H 523.874 -2.0852 -5.69741 0
M  V30 5376 H 522.613 -1.30954 -4.6979 0
M  V30 5377 H 521.618 -3.55807 -4.19144 0
M  V30 5378 H 522.843 -4.33763 -5.22519 0
M  V30 5379 H 520.789 -2.29156 -6.14673 0
M  V30 5380 H 520.706 -4.00198 -6.41387 0
M  V30 5381 H 521.974 -3.07746 -7.16179 0
M  V30 5382 N 526.204 0.969867 -1.24223 0
M  V30 5383 C 527.481 1.68774 -0.988664 0
M  V30 5384 C 527.861 2.05342 0.489673 0
M  V30 5385 O 527.209 1.75486 1.46345 0
M  V30 5386 C 527.419 2.92135 -1.90941 0
M  V30 5387 C 528.767 3.64422 -2.17903 0
M  V30 5388 O 529.791 3.02188 -1.88576 0
M  V30 5389 O 528.65 4.76446 -2.67697 0
M  V30 5390 H 525.744 0.737736 -0.37373 0
M  V30 5391 H 528.29 1.02415 -1.35312 0
M  V30 5392 H 527.062 2.61788 -2.90831 0
M  V30 5393 H 526.685 3.66228 -1.54798 0
M  V30 5394 N 527.682 1.05563 1.17022 0
M  V30 5395 C 529.093 0.793475 1.69 0
M  V30 5396 C 529.444 -0.683882 1.83895 0
M  V30 5397 O 528.569 -1.53116 1.5292 0
M  V30 5398 C 529.164 1.43376 3.06967 0
M  V30 5399 C 527.723 1.21956 3.56095 0
M  V30 5400 C 526.87 1.51494 2.3226 0
M  V30 5401 H 529.821 1.22008 1.01487 0
M  V30 5402 H 529.842 0.845068 3.70997 0
M  V30 5403 H 529.354 2.50899 2.96093 0
M  V30 5404 H 527.455 0.163749 3.7224 0
M  V30 5405 H 527.568 1.92713 4.38633 0
M  V30 5406 H 525.932 0.935175 2.3691 0
M  V30 5407 H 526.715 2.60159 2.23992 0
M  V30 5408 N 529.16 -1.33526 0.837174 0
M  V30 5409 C 530.107 -2.29248 0.267169 0
M  V30 5410 C 531.077 -1.54252 -0.616071 0
M  V30 5411 O 532.262 -1.82559 -0.554699 0
M  V30 5412 C 529.402 -3.40638 -0.553152 0
M  V30 5413 C 528.515 -4.30548 0.353921 0
M  V30 5414 C 527.65 -5.29051 -0.477339 0
M  V30 5415 C 526.689 -6.106 0.42823 0
M  V30 5416 N 525.826 -7.01152 -0.364801 0
M  V30 5417 H 530.666 -2.77398 1.08877 0
M  V30 5418 H 528.203 -1.36496 0.54838 0
M  V30 5419 H 530.161 -4.03921 -1.04422 0
M  V30 5420 H 528.791 -2.93685 -1.33973 0
M  V30 5421 H 527.843 -3.68001 0.963289 0
M  V30 5422 H 529.155 -4.87631 1.04964 0
M  V30 5423 H 528.309 -5.97853 -1.0323 0
M  V30 5424 H 527.048 -4.72541 -1.2065 0
M  V30 5425 H 526.053 -5.40718 0.995219 0
M  V30 5426 H 527.278 -6.69193 1.15573 0
M  V30 5427 H 525.224 -6.47092 -1.07738 0
M  V30 5428 H 525.141 -7.5551 0.272238 0
M  V30 5429 H 526.409 -7.74263 -0.902054 0
M  V30 5430 N 530.638 -0.59345 -1.46 0
M  V30 5431 C 531.915 -0.0157933 -1.95594 0
M  V30 5432 C 532.295 1.44807 -1.53604 0
M  V30 5433 O 531.643 2.14342 -0.791824 0
M  V30 5434 C 531.853 -0.199081 -3.48432 0
M  V30 5435 C 533.201 -0.0724943 -4.24538 0
M  V30 5436 O 534.225 -0.128469 -3.55968 0
M  V30 5437 O 533.084 0.0542426 -5.46473 0
M  V30 5438 H 530.178 0.043749 -0.825842 0
M  V30 5439 H 532.724 -0.662522 -1.56233 0
M  V30 5440 H 531.496 -1.21631 -3.71916 0
M  V30 5441 H 531.119 0.483576 -3.94648 0
M  V30 5442 N 532.116 1.54067 -0.331816 0
M  V30 5443 C 533.046 2.27569 0.522932 0
M  V30 5444 C 534.027 1.28679 1.11247 0
M  V30 5445 O 535.212 1.57504 1.13605 0
M  V30 5446 C 532.342 3.0397 1.67987 0
M  V30 5447 C 531.296 4.10267 1.21924 0
M  V30 5448 C 530.622 4.74555 2.46377 0
M  V30 5449 C 531.922 5.21268 0.32815 0
M  V30 5450 H 533.616 2.99264 -0.0901977 0
M  V30 5451 H 531.162 1.4393 -0.044821 0
M  V30 5452 H 533.115 3.54123 2.28418 0
M  V30 5453 H 531.839 2.29906 2.31971 0
M  V30 5454 H 530.498 3.61009 0.637809 0
M  V30 5455 H 530.146 3.97098 3.08743 0
M  V30 5456 H 529.846 5.46363 2.16243 0
M  V30 5457 H 531.37 5.27487 3.07555 0
M  V30 5458 H 532.784 5.67128 0.838978 0
M  V30 5459 H 531.181 5.99982 0.119228 0
M  V30 5460 H 532.251 4.80673 -0.638839 0
M  V30 5461 N 533.594 0.0601682 1.57485 0
M  V30 5462 C 534.541 -0.91112 2.12055 0
M  V30 5463 C 535.511 -1.30298 1.03013 0
M  V30 5464 O 536.696 -1.39087 1.30612 0
M  V30 5465 C 533.836 -2.1775 2.67729 0
M  V30 5466 C 532.949 -1.83933 3.90887 0
M  V30 5467 C 532.084 -3.05096 4.34845 0
M  V30 5468 C 531.123 -2.67241 5.5068 0
M  V30 5469 N 530.26 -3.81127 5.8965 0
M  V30 5470 H 535.1 -0.43888 2.9475 0
M  V30 5471 H 532.637 -0.204995 1.45665 0
M  V30 5472 H 534.595 -2.91866 2.98111 0
M  V30 5473 H 533.225 -2.62535 1.87816 0
M  V30 5474 H 532.277 -0.999287 3.6704 0
M  V30 5475 H 533.589 -1.52074 4.75052 0
M  V30 5476 H 532.743 -3.87502 4.66827 0
M  V30 5477 H 531.482 -3.40139 3.49509 0
M  V30 5478 H 530.487 -1.83254 5.18361 0
M  V30 5479 H 531.712 -2.3338 6.37738 0
M  V30 5480 H 529.658 -4.15954 5.07266 0
M  V30 5481 H 529.575 -3.52997 6.68528 0
M  V30 5482 H 530.843 -4.64145 6.2625 0
M  V30 5483 N 535.072 -1.5615 -0.213296 0
M  V30 5484 C 536.319 -1.79546 -0.936462 0
M  V30 5485 C 536.647 -0.630337 -1.84003 0
M  V30 5486 O 535.902 0.384883 -1.91878 0
M  V30 5487 C 536.201 -3.08772 -1.79985 0
M  V30 5488 C 535.867 -4.38532 -1.04882 0
M  V30 5489 C 534.529 -4.73787 -0.841393 0
M  V30 5490 C 536.881 -5.18609 -0.51907 0
M  V30 5491 C 534.209 -5.86627 -0.0924403 0
M  V30 5492 C 536.561 -6.32229 0.216581 0
M  V30 5493 C 535.225 -6.6608 0.435191 0
M  V30 5494 H 534.495 -0.657004 -0.342676 0
M  V30 5495 H 537.142 -1.9041 -0.204051 0
M  V30 5496 H 535.447 -2.93065 -2.60038 0
M  V30 5497 H 537.144 -3.24077 -2.36168 0
M  V30 5498 H 533.734 -4.10855 -1.22048 0
M  V30 5499 H 537.918 -4.91801 -0.666775 0
M  V30 5500 H 533.174 -6.11338 0.087081 0
M  V30 5501 H 537.348 -6.93503 0.634538 0
M  V30 5502 H 534.975 -7.5336 1.01746 0
M  V30 5503 N 536.55 0.480323 -1.50102 0
M  V30 5504 C 537.799 1.22979 -1.59872 0
M  V30 5505 C 538.112 1.93282 -0.30022 0
M  V30 5506 O 539.318 2.70086 -0.276709 0
M  V30 5507 C 537.774 2.23408 -2.82164 0
M  V30 5508 C 537.382 1.5895 -4.18854 0
M  V30 5509 C 539.126 2.99055 -3.01275 0
M  V30 5510 C 537.033 2.57611 -5.32344 0
M  V30 5511 H 535.963 0.462707 -0.59533 0
M  V30 5512 H 538.614 0.501291 -1.7652 0
M  V30 5513 H 536.996 2.99511 -2.59055 0
M  V30 5514 H 538.17 0.887 -4.52182 0
M  V30 5515 H 536.485 0.956191 -4.05273 0
M  V30 5516 H 539.082 3.72876 -3.83233 0
M  V30 5517 H 539.425 3.57897 -2.12639 0
M  V30 5518 H 539.958 2.30066 -3.24522 0
M  V30 5519 H 536.697 2.03521 -6.23105 0
M  V30 5520 H 536.217 3.26041 -5.03445 0
M  V30 5521 H 537.896 3.19627 -5.62537 0
M  V30 5522 N 538.028 1.39524 0.732853 0
M  V30 5523 C 539.258 1.3994 1.51988 0
M  V30 5524 C 539.666 -0.00727973 1.89199 0
M  V30 5525 O 539.009 -0.989521 1.54771 0
M  V30 5526 C 539.071 2.21026 2.83527 0
M  V30 5527 C 538.735 3.69633 2.68738 0
M  V30 5528 C 539.732 4.62665 2.37143 0
M  V30 5529 C 537.417 4.13244 2.85542 0
M  V30 5530 C 539.411 5.97291 2.22536 0
M  V30 5531 C 537.098 5.47945 2.70554 0
M  V30 5532 C 538.096 6.39783 2.39097 0
M  V30 5533 O 537.784 7.72002 2.24204 0
M  V30 5534 H 537.516 0.479795 0.476206 0
M  V30 5535 H 540.07 1.8399 0.913054 0
M  V30 5536 H 538.3 1.71728 3.46477 0
M  V30 5537 H 539.989 2.13594 3.45156 0
M  V30 5538 H 540.755 4.30272 2.2381 0
M  V30 5539 H 536.634 3.42094 3.09019 0
M  V30 5540 H 540.178 6.68939 1.97905 0
M  V30 5541 H 536.075 5.79928 2.83466 0
M  V30 5542 H 536.843 7.8275 2.39258 0
M  V30 5543 N 539.506 -0.963266 1.24736 0
M  V30 5544 C 540.416 -2.09246 1.06082 0
M  V30 5545 C 541.432 -1.74 0.000363101 0
M  V30 5546 O 542.608 -2.0041 0.199479 0
M  V30 5547 C 539.673 -3.40115 0.672498 0
M  V30 5548 C 538.734 -3.89282 1.80993 0
M  V30 5549 C 537.967 -5.13905 1.44004 0
M  V30 5550 O 538.19 -5.69434 0.331835 0
M  V30 5551 O 537.124 -5.57566 2.26723 0
M  V30 5552 H 540.95 -2.27881 2.00759 0
M  V30 5553 H 538.535 -1.07649 1.03595 0
M  V30 5554 H 540.417 -4.18797 0.467668 0
M  V30 5555 H 539.092 -3.22771 -0.245102 0
M  V30 5556 H 537.999 -3.11642 2.06955 0
M  V30 5557 H 539.332 -4.1111 2.70646 0
M  V30 5558 N 540.985 -1.06182 -1.16461 0
M  V30 5559 C 542.233 -0.776326 -1.86595 0
M  V30 5560 C 542.554 0.69921 -1.82033 0
M  V30 5561 O 541.824 1.50579 -1.2531 0
M  V30 5562 H 540.404 -0.284184 -0.690832 0
M  V30 5563 H 543.066 -1.34308 -1.41235 0
M  V30 5564 H 542.162 -1.10022 -2.92064 0
M  V30 5565 N 542.463 1.3308 -0.844243 0
M  V30 5566 C 543.688 2.02341 -0.455282 0
M  V30 5567 C 544.113 1.6308 0.93737 0
M  V30 5568 O 543.471 0.826118 1.61385 0
M  V30 5569 C 543.519 3.55743 -0.58988 0
M  V30 5570 O 542.623 4.1063 0.38166 0
M  V30 5571 H 541.964 0.637898 -0.184343 0
M  V30 5572 H 544.494 1.6986 -1.14056 0
M  V30 5573 H 544.504 4.05243 -0.473522 0
M  V30 5574 H 543.179 3.83662 -1.60549 0
M  V30 5575 H 541.756 3.72236 0.22241 0
M  V30 5576 N 543.941 0.601185 1.45683 0
M  V30 5577 C 545.166 0.0982245 2.07167 0
M  V30 5578 C 545.591 -1.20546 1.44396 0
M  V30 5579 O 544.949 -1.73247 0.534347 0
M  V30 5580 C 544.997 -0.0346976 3.60583 0
M  V30 5581 O 544.101 -1.08657 3.97828 0
M  V30 5582 H 543.442 0.0711618 0.660176 0
M  V30 5583 H 545.972 0.829376 1.87036 0
M  V30 5584 H 545.982 -0.234969 4.07323 0
M  V30 5585 H 544.657 0.917265 4.05659 0
M  V30 5586 H 543.234 -0.863275 3.6277 0
M  V30 5587 N 545.419 -1.53889 0.339982 0
M  V30 5588 C 546.696 -1.93084 -0.312719 0
M  V30 5589 C 547.076 -1.2712 -1.68534 0
M  V30 5590 O 546.424 -0.420835 -2.24591 0
M  V30 5591 C 546.634 -3.4683 -0.388558 0
M  V30 5592 C 547.982 -4.19732 -0.641088 0
M  V30 5593 O 549.006 -3.53075 -0.470818 0
M  V30 5594 O 547.865 -5.3781 -0.970685 0
M  V30 5595 H 544.959 -0.806784 -0.18174 0
M  V30 5596 H 547.505 -1.65137 0.390898 0
M  V30 5597 H 546.277 -3.87055 0.574821 0
M  V30 5598 H 545.9 -3.80933 -1.1391 0
M  V30 5599 N 546.897 -0.0685191 -1.57451 0
M  V30 5600 C 548.144 0.601348 -1.93365 0
M  V30 5601 C 548.472 1.69816 -0.948294 0
M  V30 5602 O 547.727 1.95666 0.0366199 0
M  V30 5603 C 548.026 1.22051 -3.35914 0
M  V30 5604 C 547.692 0.250165 -4.50205 0
M  V30 5605 C 546.354 -0.0167954 -4.81197 0
M  V30 5606 C 548.706 -0.413867 -5.19554 0
M  V30 5607 C 546.034 -0.95493 -5.78876 0
M  V30 5608 C 548.386 -1.3403 -6.18238 0
M  V30 5609 C 547.05 -1.61576 -6.47649 0
M  V30 5610 H 546.32 0.220049 -0.707573 0
M  V30 5611 H 548.967 -0.138697 -1.90997 0
M  V30 5612 H 547.272 2.03622 -3.34732 0
M  V30 5613 H 548.969 1.74605 -3.6099 0
M  V30 5614 H 545.559 0.468421 -4.26033 0
M  V30 5615 H 549.743 -0.220733 -4.95809 0
M  V30 5616 H 544.999 -1.17563 -5.99991 0
M  V30 5617 H 549.173 -1.86081 -6.71079 0
M  V30 5618 H 546.8 -2.34431 -7.2315 0
M  V30 5619 N 548.375 1.56261 0.205012 0
M  V30 5620 C 549.6 1.84491 0.947512 0
M  V30 5621 C 550.025 0.650894 1.76479 0
M  V30 5622 O 549.383 -0.40035 1.76824 0
M  V30 5623 C 549.431 3.10863 1.82747 0
M  V30 5624 O 548.535 2.90719 2.925 0
M  V30 5625 H 547.876 0.607783 0.267386 0
M  V30 5626 H 550.406 2.03485 0.213323 0
M  V30 5627 H 550.416 3.41399 2.23407 0
M  V30 5628 H 549.091 3.97392 1.2269 0
M  V30 5629 H 547.668 2.71457 2.55667 0
M  V30 5630 N 549.853 -0.472356 1.50355 0
M  V30 5631 C 551.093 -1.23439 1.62918 0
M  V30 5632 C 551.457 -1.89284 0.321801 0
M  V30 5633 O 552.658 -2.66854 0.322852 0
M  V30 5634 C 550.929 -2.25119 2.7759 0
M  V30 5635 S 552.488 -3.10278 3.10279 0
M  V30 5636 H 549.306 -0.41911 0.574341 0
M  V30 5637 H 551.908 -0.531621 1.88133 0
M  V30 5638 H 550.612 -1.75324 3.71066 0
M  V30 5639 H 550.143 -3.00026 2.54457 0
M  V30 5640 H 552.158 -4.26257 2.54007 0
M  V30 5641 N 551.331 -1.39911 -0.725443 0
M  V30 5642 C 552.261 -1.42138 -1.85254 0
M  V30 5643 C 553.242 -0.283513 -1.67721 0
M  V30 5644 O 554.427 -0.490717 -1.87898 0
M  V30 5645 C 551.557 -1.27354 -3.23107 0
M  V30 5646 C 550.511 -2.3864 -3.55296 0
M  V30 5647 C 549.837 -2.08939 -4.92188 0
M  V30 5648 C 551.137 -3.8097 -3.57295 0
M  V30 5649 H 552.831 -2.36461 -1.83648 0
M  V30 5650 H 550.377 -1.13817 -0.882138 0
M  V30 5651 H 552.33 -1.2753 -4.01639 0
M  V30 5652 H 551.054 -0.295025 -3.25265 0
M  V30 5653 H 549.713 -2.37696 -2.79099 0
M  V30 5654 H 549.361 -1.09502 -4.90936 0
M  V30 5655 H 549.061 -2.83491 -5.14691 0
M  V30 5656 H 550.585 -2.10781 -5.73065 0
M  V30 5657 H 551.999 -3.8379 -4.25885 0
M  V30 5658 H 550.396 -4.5496 -3.9132 0
M  V30 5659 H 551.466 -4.11261 -2.5689 0
M  V30 5660 N 552.809 0.956637 -1.25245 0
M  V30 5661 C 554.22 1.51569 -1.09012 0
M  V30 5662 C 554.571 1.93322 0.334813 0
M  V30 5663 O 553.696 1.78421 1.22454 0
M  V30 5664 C 554.291 2.75444 -1.97271 0
M  V30 5665 C 552.85 3.27669 -1.8523 0
M  V30 5666 C 551.997 2.00517 -1.91542 0
M  V30 5667 H 554.948 0.773746 -1.3856 0
M  V30 5668 H 554.969 3.4919 -1.51151 0
M  V30 5669 H 554.481 2.45024 -3.00973 0
M  V30 5670 H 552.582 3.62914 -0.844045 0
M  V30 5671 H 552.695 3.9582 -2.69932 0
M  V30 5672 H 551.059 2.15727 -1.35404 0
M  V30 5673 H 551.842 1.72448 -2.96844 0
M  V30 5674 N 554.287 1.06798 1.15896 0
M  V30 5675 C 555.515 0.808694 1.90441 0
M  V30 5676 C 555.93 -0.637506 1.77711 0
M  V30 5677 O 555.287 -1.43684 1.12522 0
M  V30 5678 C 555.338 1.20068 3.40978 0
M  V30 5679 O 555.059 2.59013 3.53333 0
M  V30 5680 C 556.56 0.96987 4.3256 0
M  V30 5681 H 553.78 0.292809 0.603742 0
M  V30 5682 H 556.324 1.42296 1.46874 0
M  V30 5683 H 554.479 0.630842 3.82229 0
M  V30 5684 H 554.893 2.7485 4.46719 0
M  V30 5685 H 556.367 1.29371 5.36626 0
M  V30 5686 H 556.844 -0.0941209 4.39099 0
M  V30 5687 H 557.45 1.52433 3.97044 0
M  V30 5688 N 555.766 -1.3263 0.851289 0
M  V30 5689 C 557.013 -1.97368 0.453023 0
M  V30 5690 C 557.341 -1.67384 -0.990596 0
M  V30 5691 O 556.596 -0.952665 -1.70947 0
M  V30 5692 C 556.895 -3.51713 0.635015 0
M  V30 5693 C 556.561 -4.01676 2.04859 0
M  V30 5694 C 555.223 -4.15031 2.43522 0
M  V30 5695 C 557.575 -4.28206 2.97135 0
M  V30 5696 C 554.903 -4.52257 3.73739 0
M  V30 5697 C 557.255 -4.66889 4.26846 0
M  V30 5698 C 555.919 -4.7845 4.65448 0
M  V30 5699 H 555.189 -0.722219 0.165773 0
M  V30 5700 H 557.836 -1.58092 1.0807 0
M  V30 5701 H 556.141 -3.91726 -0.0759081 0
M  V30 5702 H 557.838 -3.99823 0.306964 0
M  V30 5703 H 554.428 -3.91764 1.73836 0
M  V30 5704 H 558.612 -4.174 2.68498 0
M  V30 5705 H 553.868 -4.59402 4.03435 0
M  V30 5706 H 558.042 -4.86372 4.98413 0
M  V30 5707 H 555.669 -5.07052 5.66395 0
M  V30 5708 N 557.244 -0.608902 -1.45362 0
M  V30 5709 C 558.492 -0.104401 -2.0183 0
M  V30 5710 C 558.813 1.27007 -1.47967 0
M  V30 5711 O 558.083 1.83924 -0.674455 0
M  V30 5712 H 556.663 -0.0356042 -0.746151 0
M  V30 5713 H 559.325 -0.790596 -1.78145 0
M  V30 5714 H 558.421 -0.0551793 -3.12051 0
M  V30 5715 N 558.722 1.53707 -0.348139 0
M  V30 5716 C 559.968 2.01286 0.247332 0
M  V30 5717 C 560.301 1.23546 1.49834 0
M  V30 5718 O 559.576 0.324331 1.91777 0
M  V30 5719 C 559.859 3.55768 0.556858 0
M  V30 5720 C 559.712 4.44216 -0.706564 0
M  V30 5721 C 561.031 4.1841 1.3646 0
M  V30 5722 H 558.15 0.731677 0.0884201 0
M  V30 5723 H 560.792 1.84106 -0.469584 0
M  V30 5724 H 558.942 3.70539 1.16761 0
M  V30 5725 H 560.614 4.41274 -1.34444 0
M  V30 5726 H 558.857 4.12892 -1.33052 0
M  V30 5727 H 559.528 5.50202 -0.445186 0
M  V30 5728 H 562.004 4.07365 0.848113 0
M  V30 5729 H 560.88 5.26563 1.54992 0
M  V30 5730 H 561.141 3.7333 2.36805 0
M  V30 5731 N 560.2 0.0768682 1.57412 0
M  V30 5732 C 561.449 -0.590679 1.92857 0
M  V30 5733 C 561.762 -1.70461 0.959293 0
M  V30 5734 O 562.968 -2.43207 1.20675 0
M  V30 5735 C 561.424 -1.10204 3.42612 0
M  V30 5736 C 561.032 -0.0188447 4.47996 0
M  V30 5737 C 562.776 -1.74336 3.87049 0
M  V30 5738 C 560.683 -0.544536 5.88888 0
M  V30 5739 H 559.613 -0.224411 0.71983 0
M  V30 5740 H 562.264 0.149924 1.82887 0
M  V30 5741 H 560.646 -1.89577 3.47673 0
M  V30 5742 H 561.82 0.755936 4.54557 0
M  V30 5743 H 560.135 0.526555 4.13057 0
M  V30 5744 H 562.732 -2.14708 4.89699 0
M  V30 5745 H 563.075 -2.60537 3.24694 0
M  V30 5746 H 563.608 -1.01577 3.84613 0
M  V30 5747 H 560.347 0.280426 6.549 0
M  V30 5748 H 559.867 -1.28673 5.85836 0
M  V30 5749 H 561.546 -1.01933 6.3892 0
M  V30 5750 N 561.678 -1.56367 -0.196722 0
M  V30 5751 C 562.927 -1.79724 -0.915539 0
M  V30 5752 C 563.24 -0.649804 -1.84491 0
M  V30 5753 O 564.446 -0.767631 -2.60422 0
M  V30 5754 C 562.902 -3.18369 -1.67836 0
M  V30 5755 C 562.51 -4.4091 -0.793897 0
M  V30 5756 C 564.254 -3.51037 -2.38691 0
M  V30 5757 C 562.161 -5.70577 -1.55549 0
M  V30 5758 H 561.091 -0.67013 -0.345604 0
M  V30 5759 H 563.742 -1.82721 -0.168856 0
M  V30 5760 H 562.124 -3.09617 -2.46887 0
M  V30 5761 H 563.298 -4.60781 -0.042163 0
M  V30 5762 H 561.613 -4.15937 -0.19626 0
M  V30 5763 H 564.21 -4.4515 -2.96219 0
M  V30 5764 H 564.553 -2.74704 -3.12799 0
M  V30 5765 H 565.086 -3.61229 -1.66608 0
M  V30 5766 H 561.825 -6.49871 -0.857226 0
M  V30 5767 H 561.345 -5.54726 -2.2812 0
M  V30 5768 H 563.024 -6.11637 -2.10971 0
M  V30 5769 N 563.156 0.464375 -1.50603 0
M  V30 5770 C 564.404 1.21356 -1.61608 0
M  V30 5771 C 564.725 1.92329 -0.321643 0
M  V30 5772 O 563.995 1.84403 0.661232 0
M  V30 5773 H 562.575 0.45094 -0.595535 0
M  V30 5774 H 565.237 0.535046 -1.87412 0
M  V30 5775 H 564.333 1.95783 -2.43054 0
M  V30 5776 N 564.634 1.40294 0.718013 0
M  V30 5777 C 565.566 1.36281 1.84283 0
M  V30 5778 C 566.579 0.268621 1.60569 0
M  V30 5779 O 567.768 0.528798 1.70487 0
M  V30 5780 C 564.868 1.09741 3.2064 0
M  V30 5781 C 564.041 2.30767 3.71571 0
M  V30 5782 C 563.1 2.00424 4.86535 0
M  V30 5783 O 562.126 2.73268 4.99313 0
M  V30 5784 N 563.328 0.980724 5.72156 0
M  V30 5785 H 566.093 2.3322 1.88225 0
M  V30 5786 H 563.654 1.34616 0.899453 0
M  V30 5787 H 565.646 0.874322 3.95143 0
M  V30 5788 H 564.216 0.214771 3.11861 0
M  V30 5789 H 563.436 2.68921 2.88228 0
M  V30 5790 H 564.724 3.11455 4.02335 0
M  V30 5791 H 564.122 0.377375 5.6444 0
M  V30 5792 H 562.679 0.817538 6.46653 0
M  V30 5793 N 566.112 -0.949982 1.2575 0
M  V30 5794 C 567.059 -2.04738 1.06541 0
M  V30 5795 C 568.029 -1.66078 -0.0268818 0
M  V30 5796 O 569.214 -1.90348 0.131196 0
M  V30 5797 C 566.354 -3.38027 0.695127 0
M  V30 5798 C 565.467 -3.89776 1.86276 0
M  V30 5799 C 564.602 -5.11411 1.4364 0
M  V30 5800 C 563.641 -5.554 2.57287 0
M  V30 5801 N 562.778 -6.68244 2.15395 0
M  V30 5802 H 567.618 -2.20502 2.00457 0
M  V30 5803 H 565.155 -1.0805 0.998178 0
M  V30 5804 H 567.113 -4.14641 0.461375 0
M  V30 5805 H 565.743 -3.22135 -0.207046 0
M  V30 5806 H 564.795 -3.0964 2.20969 0
M  V30 5807 H 566.107 -4.18368 2.71606 0
M  V30 5808 H 565.261 -5.95457 1.16257 0
M  V30 5809 H 564 -4.84545 0.553879 0
M  V30 5810 H 563.005 -4.69916 2.85409 0
M  V30 5811 H 564.23 -5.84272 3.46125 0
M  V30 5812 H 562.176 -6.43078 1.29565 0
M  V30 5813 H 562.093 -6.96377 2.94272 0
M  V30 5814 H 563.361 -7.55687 1.91201 0
M  V30 5815 N 567.59 -1.07411 -1.15328 0
M  V30 5816 C 568.815 -0.818856 -1.90551 0
M  V30 5817 C 569.24 0.622194 -1.77512 0
M  V30 5818 O 568.598 1.43484 -1.10824 0
M  V30 5819 C 568.646 -1.23267 -3.38877 0
M  V30 5820 O 567.75 -0.378345 -4.10661 0
M  V30 5821 H 567.091 -0.29827 -0.593238 0
M  V30 5822 H 569.621 -1.43289 -1.46046 0
M  V30 5823 H 569.631 -1.20912 -3.89672 0
M  V30 5824 H 568.306 -2.28226 -3.47686 0
M  V30 5825 H 566.883 -0.464437 -3.69996 0
M  V30 5826 N 569.068 1.32177 -0.85831 0
M  V30 5827 C 570.001 2.26823 -0.25035 0
M  V30 5828 C 570.979 1.50571 0.61378 0
M  V30 5829 O 572.163 1.79682 0.569777 0
M  V30 5830 C 569.29 3.32472 0.646556 0
M  V30 5831 C 568.336 4.26255 -0.144675 0
M  V30 5832 S 569.169 5.13608 -1.5155 0
M  V30 5833 C 570.325 6.22778 -0.624408 0
M  V30 5834 H 570.558 2.7804 -1.05267 0
M  V30 5835 H 568.091 1.39764 -0.656152 0
M  V30 5836 H 570.049 3.93817 1.15837 0
M  V30 5837 H 568.71 2.80031 1.42272 0
M  V30 5838 H 567.903 5.01114 0.538613 0
M  V30 5839 H 567.505 3.69346 -0.588198 0
M  V30 5840 H 569.797 6.77287 0.169846 0
M  V30 5841 H 570.74 6.95233 -1.34376 0
M  V30 5842 H 571.148 5.64156 -0.197128 0
M  V30 5843 N 570.547 0.616602 1.45037 0
M  V30 5844 C 571.48 -0.145984 2.27733 0
M  V30 5845 C 572.458 -0.865108 1.37676 0
M  V30 5846 O 573.642 -0.872152 1.6711 0
M  V30 5847 C 570.769 -1.2122 3.16265 0
M  V30 5848 C 569.815 -0.595218 4.22326 0
M  V30 5849 S 570.648 0.603744 5.32086 0
M  V30 5850 C 571.804 -0.462842 6.24186 0
M  V30 5851 H 572.037 0.555591 2.92062 0
M  V30 5852 H 569.57 0.404364 1.49011 0
M  V30 5853 H 571.528 -1.82247 3.67827 0
M  V30 5854 H 570.189 -1.88589 2.51183 0
M  V30 5855 H 569.382 -1.39775 4.8423 0
M  V30 5856 H 568.984 -0.0598965 3.73952 0
M  V30 5857 H 571.276 -1.33945 6.64127 0
M  V30 5858 H 572.219 0.120259 7.07998 0
M  V30 5859 H 572.627 -0.782219 5.59054 0
M  V30 5860 N 572.025 -1.5352 0.356285 0
M  V30 5861 C 573.273 -2.00719 -0.235837 0
M  V30 5862 C 573.594 -1.24551 -1.5004 0
M  V30 5863 O 572.864 -0.356185 -1.92635 0
M  V30 5864 H 571.444 -0.741542 -0.0901366 0
M  V30 5865 H 574.106 -1.88887 0.480378 0
M  V30 5866 H 573.202 -3.08551 -0.469357 0
M  V30 5867 N 573.503 -0.0852151 -1.57369 0
M  V30 5868 C 574.751 0.579658 -1.93609 0
M  V30 5869 C 575.072 1.69332 -0.967043 0
M  V30 5870 O 574.342 1.95892 -0.0174215 0
M  V30 5871 H 572.922 0.217113 -0.714752 0
M  V30 5872 H 575.584 -0.146226 -1.94351 0
M  V30 5873 H 574.68 0.996276 -2.95771 0
M  V30 5874 N 574.981 1.5647 0.188427 0
M  V30 5875 C 576.229 1.80655 0.905986 0
M  V30 5876 C 576.55 0.659391 1.83513 0
M  V30 5877 O 575.82 -0.321868 1.93238 0
M  V30 5878 H 574.4 0.666391 0.337538 0
M  V30 5879 H 577.062 1.93949 0.192339 0
M  V30 5880 H 576.158 2.74066 1.49313 0
M  V30 5881 N 576.459 -0.456382 1.50847 0
M  V30 5882 C 577.389 -1.56025 1.73719 0
M  V30 5883 C 578.37 -1.5967 0.586473 0
M  V30 5884 O 579.555 -1.75702 0.827185 0
M  V30 5885 C 576.685 -2.94251 1.84483 0
M  V30 5886 C 575.639 -3.05471 2.99786 0
M  V30 5887 C 574.965 -4.45489 2.95709 0
M  V30 5888 C 576.265 -2.81318 4.40065 0
M  V30 5889 H 577.959 -1.37138 2.66146 0
M  V30 5890 H 575.505 -0.658299 1.28072 0
M  V30 5891 H 577.458 -3.71417 1.99067 0
M  V30 5892 H 576.182 -3.14328 0.886891 0
M  V30 5893 H 574.841 -2.30741 2.84876 0
M  V30 5894 H 574.489 -4.62505 1.97732 0
M  V30 5895 H 574.189 -4.53929 3.73125 0
M  V30 5896 H 575.713 -5.24655 3.12362 0
M  V30 5897 H 577.127 -3.48226 4.55425 0
M  V30 5898 H 575.524 -3.01188 5.19043 0
M  V30 5899 H 576.594 -1.7706 4.51418 0
M  V30 5900 N 577.937 -1.40673 -0.710563 0
M  V30 5901 C 578.9 -1.4108 -1.80635 0
M  V30 5902 C 579.9 -0.303783 -1.57904 0
M  V30 5903 O 581.09 -0.562937 -1.64853 0
M  V30 5904 C 578.222 -1.20748 -3.18799 0
M  V30 5905 H 579.415 -2.38612 -1.81671 0
M  V30 5906 H 576.968 -1.26595 -0.916704 0
M  V30 5907 H 577.703 -0.239964 -3.23411 0
M  V30 5908 H 577.488 -2.00941 -3.36698 0
M  V30 5909 H 578.978 -1.23833 -3.98817 0
M  V30 5910 N 579.415 0.9433 -1.26252 0
M  V30 5911 C 580.325 2.07532 -1.09397 0
M  V30 5912 C 581.341 1.73977 -0.0280449 0
M  V30 5913 O 582.517 2.00067 -0.231337 0
M  V30 5914 C 579.582 3.39002 -0.726523 0
M  V30 5915 C 578.643 3.86353 -1.87163 0
M  V30 5916 C 577.876 5.11549 -1.52162 0
M  V30 5917 O 578.099 5.68834 -0.422385 0
M  V30 5918 O 577.033 5.53889 -2.35565 0
M  V30 5919 H 580.859 2.24658 -2.04359 0
M  V30 5920 H 578.444 1.05988 -1.05295 0
M  V30 5921 H 580.326 4.18 -0.534236 0
M  V30 5922 H 579.001 3.2312 0.193721 0
M  V30 5923 H 577.908 3.0831 -2.11886 0
M  V30 5924 H 579.241 4.06752 -2.77152 0
M  V30 5925 N 580.893 1.08022 1.14757 0
M  V30 5926 C 582.142 0.802468 1.8505 0
M  V30 5927 C 582.455 -0.674061 1.83619 0
M  V30 5928 O 583.661 -1.06683 2.49662 0
M  V30 5929 C 582.117 1.38551 3.32162 0
M  V30 5930 C 581.725 2.89354 3.42021 0
M  V30 5931 C 583.469 1.18608 4.07594 0
M  V30 5932 C 581.376 3.40815 4.83321 0
M  V30 5933 H 580.306 0.296518 0.693248 0
M  V30 5934 H 582.957 1.30114 1.29393 0
M  V30 5935 H 581.339 0.814556 3.87532 0
M  V30 5936 H 582.513 3.52552 2.96722 0
M  V30 5937 H 580.828 3.08165 2.80041 0
M  V30 5938 H 583.425 1.54525 5.11885 0
M  V30 5939 H 583.768 0.125599 4.1611 0
M  V30 5940 H 584.301 1.72375 3.58513 0
M  V30 5941 H 581.04 4.46418 4.79991 0
M  V30 5942 H 580.56 2.82374 5.29174 0
M  V30 5943 H 582.239 3.37171 5.522 0
M  V30 5944 N 582.371 -1.3172 0.865308 0
M  V30 5945 C 583.782 -1.79104 0.527126 0
M  V30 5946 C 584.133 -1.7135 -0.955695 0
M  V30 5947 O 583.258 -1.27845 -1.74598 0
M  V30 5948 C 583.853 -3.25207 0.950061 0
M  V30 5949 C 582.412 -3.70504 0.663611 0
M  V30 5950 C 581.559 -2.52605 1.14395 0
M  V30 5951 H 584.51 -1.18868 1.05148 0
M  V30 5952 H 584.531 -3.79535 0.270805 0
M  V30 5953 H 584.043 -3.30818 2.02931 0
M  V30 5954 H 582.144 -3.70398 -0.404474 0
M  V30 5955 H 582.257 -4.62845 1.23737 0
M  V30 5956 H 580.621 -2.4838 0.563859 0
M  V30 5957 H 581.404 -2.60964 2.23053 0
M  V30 5958 N 583.85 -0.624285 -1.44708 0
M  V30 5959 C 585.098 -0.125802 -2.01708 0
M  V30 5960 C 585.418 1.2543 -1.49306 0
M  V30 5961 O 584.689 1.83198 -0.693924 0
M  V30 5962 H 583.269 -0.0435161 -0.745731 0
M  V30 5963 H 585.931 -0.809446 -1.77296 0
M  V30 5964 H 585.027 -0.0882734 -3.11975 0
M  V30 5965 N 585.328 1.53329 -0.364422 0
M  V30 5966 C 586.258 2.28627 0.474543 0
M  V30 5967 C 587.239 1.31009 1.08492 0
M  V30 5968 O 588.424 1.59878 1.10239 0
M  V30 5969 C 585.554 3.07465 1.61501 0
M  V30 5970 C 584.508 4.1276 1.13194 0
M  V30 5971 C 583.834 4.79674 2.36255 0
M  V30 5972 C 585.134 5.21847 0.217507 0
M  V30 5973 H 586.828 2.99005 -0.153656 0
M  V30 5974 H 584.374 1.43803 -0.0753406 0
M  V30 5975 H 586.327 3.58889 2.20855 0
M  V30 5976 H 585.051 2.34775 2.27042 0
M  V30 5977 H 583.71 3.62281 0.56109 0
M  V30 5978 H 583.358 4.03557 3.00251 0
M  V30 5979 H 583.058 5.50827 2.04606 0
M  V30 5980 H 584.582 5.33892 2.96297 0
M  V30 5981 H 585.996 5.6878 0.718493 0
M  V30 5982 H 584.393 6.00099 -0.00806408 0
M  V30 5983 H 585.463 4.7921 -0.740653 0
M  V30 5984 N 586.806 0.0935595 1.57322 0
M  V30 5985 C 588.031 -0.582324 1.99057 0
M  V30 5986 C 588.456 -1.61025 0.972242 0
M  V30 5987 O 587.814 -1.81202 -0.0594622 0
M  V30 5988 C 587.862 -1.20799 3.39765 0
M  V30 5989 O 586.966 -2.32382 3.40694 0
M  V30 5990 H 586.307 -0.147884 0.647323 0
M  V30 5991 H 588.837 0.174516 2.03854 0
M  V30 5992 H 588.847 -1.54966 3.77425 0
M  V30 5993 H 587.522 -0.454914 4.13405 0
M  V30 5994 H 586.099 -1.99845 3.14827 0
M  V30 5995 N 588.284 -1.56567 -0.180126 0
M  V30 5996 C 589.533 -1.80685 -0.896426 0
M  V30 5997 C 589.846 -0.669335 -1.83791 0
M  V30 5998 O 591.052 -0.795209 -2.59593 0
M  V30 5999 C 589.508 -3.20132 -1.6445 0
M  V30 6000 C 589.116 -4.41727 -0.747088 0
M  V30 6001 C 590.86 -3.53549 -2.34955 0
M  V30 6002 C 588.767 -5.72195 -1.49489 0
M  V30 6003 H 587.697 -0.673758 -0.338477 0
M  V30 6004 H 590.348 -1.8289 -0.149467 0
M  V30 6005 H 588.73 -3.12218 -2.43589 0
M  V30 6006 H 589.904 -4.608 0.00671129 0
M  V30 6007 H 588.219 -4.16122 -0.152134 0
M  V30 6008 H 590.816 -4.48267 -2.91481 0
M  V30 6009 H 591.159 -2.78006 -3.09868 0
M  V30 6010 H 591.692 -3.62976 -1.62768 0
M  V30 6011 H 588.431 -6.50743 -0.788251 0
M  V30 6012 H 587.951 -5.57115 -2.22224 0
M  V30 6013 H 589.63 -6.1384 -2.04472 0
M  V30 6014 N 589.762 0.448376 -1.51087 0
M  V30 6015 C 590.71 1.56407 -1.72161 0
M  V30 6016 C 591.704 1.58878 -0.587721 0
M  V30 6017 O 592.91 1.62755 -0.768822 0
M  V30 6018 H 589.285 0.519423 -0.543786 0
M  V30 6019 H 591.256 1.35803 -2.65707 0
M  V30 6020 C 590.005 2.94163 -1.85373 0
M  V30 6021 H 589.328 2.9299 -2.72024 0
M  V30 6022 H 590.768 3.71625 -2.04135 0
M  V30 6023 C 589.227 3.31317 -0.610803 0
M  V30 6024 O 589.757 4.00985 0.239636 0
M  V30 6025 N 587.963 2.86966 -0.458127 0
M  V30 6026 H 587.51 2.30443 -1.15124 0
M  V30 6027 H 587.468 3.12188 0.372289 0
M  V30 6028 N 591.24 1.41047 0.703093 0
M  V30 6029 C 592.487 1.4 1.46309 0
M  V30 6030 C 592.815 0.00654574 1.94499 0
M  V30 6031 O 592.07 -0.980255 1.6938 0
M  V30 6032 C 592.369 2.34686 2.6955 0
M  V30 6033 C 592.035 3.81684 2.40058 0
M  V30 6034 C 590.697 4.21731 2.31725 0
M  V30 6035 C 593.049 4.74525 2.15581 0
M  V30 6036 C 590.377 5.52637 1.97001 0
M  V30 6037 C 592.729 6.05744 1.82366 0
M  V30 6038 C 591.393 6.44819 1.72524 0
M  V30 6039 H 590.663 0.512295 0.535382 0
M  V30 6040 H 593.31 1.73792 0.804275 0
M  V30 6041 H 591.615 1.94122 3.40329 0
M  V30 6042 H 593.312 2.31152 3.27673 0
M  V30 6043 H 589.902 3.49963 2.47435 0
M  V30 6044 H 594.086 4.44395 2.20968 0
M  V30 6045 H 589.342 5.81802 1.87928 0
M  V30 6046 H 593.516 6.77189 1.62444 0
M  V30 6047 H 591.143 7.46168 1.45385 0
M  V30 6048 N 592.718 -0.936591 1.26751 0
M  V30 6049 C 593.681 -2.01752 1.08761 0
M  V30 6050 C 594.681 -1.60763 0.0344435 0
M  V30 6051 O 595.871 -1.71963 0.278258 0
M  V30 6052 C 593.003 -3.34543 0.655271 0
M  V30 6053 H 594.196 -2.19143 2.04735 0
M  V30 6054 H 591.749 -1.11618 1.09413 0
M  V30 6055 H 592.484 -3.22851 -0.30626 0
M  V30 6056 H 592.269 -3.65647 1.41578 0
M  V30 6057 H 593.759 -4.13944 0.551378 0
M  V30 6058 N 594.196 -1.08629 -1.14182 0
M  V30 6059 C 595.143 -0.718299 -2.19338 0
M  V30 6060 C 596.113 0.296587 -1.63431 0
M  V30 6061 O 597.298 0.180079 -1.89948 0
M  V30 6062 C 594.438 -0.136203 -3.44831 0
M  V30 6063 C 593.551 -1.20414 -4.14879 0
M  V30 6064 C 592.686 -0.585666 -5.27962 0
M  V30 6065 C 591.725 -1.63548 -5.89846 0
M  V30 6066 N 590.862 -1.03864 -6.94375 0
M  V30 6067 H 595.702 -1.61932 -2.50164 0
M  V30 6068 H 593.239 -0.80919 -1.22844 0
M  V30 6069 H 595.197 0.219021 -4.16625 0
M  V30 6070 H 593.827 0.728121 -3.14481 0
M  V30 6071 H 592.879 -1.67676 -3.41451 0
M  V30 6072 H 594.191 -1.99959 -4.56966 0
M  V30 6073 H 593.345 -0.178818 -6.06436 0
M  V30 6074 H 592.084 0.24142 -4.87102 0
M  V30 6075 H 591.089 -2.05197 -5.10073 0
M  V30 6076 H 592.314 -2.46509 -6.3278 0
M  V30 6077 H 590.26 -0.232687 -6.55587 0
M  V30 6078 H 590.177 -1.77116 -7.3496 0
M  V30 6079 H 591.445 -0.657724 -7.7672 0
M  V30 6080 N 595.674 1.31259 -0.872281 0
M  V30 6081 C 596.92 1.96913 -0.485083 0
M  V30 6082 C 597.253 1.68774 0.960667 0
M  V30 6083 O 596.528 0.985495 1.67685 0
M  V30 6084 C 596.811 3.52299 -0.745502 0
M  V30 6085 C 596.664 3.90002 -2.24095 0
M  V30 6086 C 597.983 4.39582 -0.213516 0
M  V30 6087 H 595.102 0.715252 -0.177716 0
M  V30 6088 H 597.744 1.55347 -1.09395 0
M  V30 6089 H 595.894 3.87835 -0.227276 0
M  V30 6090 H 597.566 3.64555 -2.82661 0
M  V30 6091 H 595.809 3.38526 -2.71261 0
M  V30 6092 H 596.48 4.98352 -2.37381 0
M  V30 6093 H 598.956 4.10882 -0.656902 0
M  V30 6094 H 597.832 5.47251 -0.42516 0
M  V30 6095 H 598.093 4.33158 0.884666 0
M  V30 6096 N 597.152 0.631951 1.44375 0
M  V30 6097 C 598.082 -0.0593243 2.33425 0
M  V30 6098 C 599.063 -0.833964 1.48253 0
M  V30 6099 O 600.248 -0.799682 1.76971 0
M  V30 6100 C 597.378 -1.04096 3.31333 0
M  V30 6101 C 596.332 -0.377899 4.26328 0
M  V30 6102 C 595.658 -1.4695 5.14111 0
M  V30 6103 C 596.958 0.716371 5.17364 0
M  V30 6104 H 598.652 0.684287 2.91475 0
M  V30 6105 H 596.198 0.330518 1.40156 0
M  V30 6106 H 598.151 -1.53331 3.92514 0
M  V30 6107 H 596.875 -1.81547 2.71493 0
M  V30 6108 H 595.534 0.0938054 3.6648 0
M  V30 6109 H 595.182 -2.2349 4.50623 0
M  V30 6110 H 594.882 -1.03121 5.78481 0
M  V30 6111 H 596.406 -1.96363 5.78164 0
M  V30 6112 H 597.82 0.307089 5.72477 0
M  V30 6113 H 596.217 1.07784 5.90341 0
M  V30 6114 H 597.287 1.58316 4.58327 0
M  V30 6115 N 598.631 -1.53133 0.372548 0
M  V30 6116 C 599.581 -2.22733 -0.487218 0
M  V30 6117 C 600.565 -1.22506 -1.04312 0
M  V30 6118 O 601.757 -1.47923 -0.972005 0
M  V30 6119 C 598.886 -3.02524 -1.62278 0
M  V30 6120 C 597.972 -4.10133 -1.07943 0
M  V30 6121 N 598.363 -5.05133 -0.259629 0
M  V30 6122 C 596.661 -4.24964 -1.35356 0
M  V30 6123 C 597.362 -5.81687 0.0386656 0
M  V30 6124 N 596.338 -5.40699 -0.560827 0
M  V30 6125 H 600.14 -2.93538 0.145853 0
M  V30 6126 H 597.654 -1.61389 0.180938 0
M  V30 6127 H 599.651 -3.50909 -2.25096 0
M  V30 6128 H 598.311 -2.33252 -2.25884 0
M  V30 6129 H 599.322 -5.178 0.101746 0
M  V30 6130 H 595.999 -3.66919 -1.9919 0
M  V30 6131 H 597.389 -6.68224 0.701841 0
M  V30 6132 N 600.109 -0.101901 -1.5727 0
M  V30 6133 C 601.357 0.559091 -1.94213 0
M  V30 6134 C 601.678 1.68297 -0.984948 0
M  V30 6135 O 600.948 1.95863 -0.0381975 0
M  V30 6136 H 599.528 0.20952 -0.717015 0
M  V30 6137 H 602.19 -0.166831 -1.94185 0
M  V30 6138 H 601.286 0.96485 -2.96811 0
M  V30 6139 N 601.587 1.56661 0.17182 0
M  V30 6140 C 602.497 1.99604 1.2327 0
M  V30 6141 C 603.513 0.907333 1.4847 0
M  V30 6142 O 604.689 1.21492 1.60629 0
M  V30 6143 C 601.754 2.34685 2.55194 0
M  V30 6144 C 600.815 3.57381 2.3786 0
M  V30 6145 C 600.048 3.90779 3.63494 0
M  V30 6146 O 600.271 3.25152 4.6865 0
M  V30 6147 O 599.205 4.84129 3.57634 0
M  V30 6148 H 603.031 2.90114 0.898192 0
M  V30 6149 H 600.616 1.44522 0.378647 0
M  V30 6150 H 602.498 2.5822 3.33017 0
M  V30 6151 H 601.173 1.47336 2.88225 0
M  V30 6152 H 600.08 3.39064 1.5807 0
M  V30 6153 H 601.413 4.45268 2.09754 0
M  V30 6154 N 603.065 -0.440357 1.51323 0
M  V30 6155 C 603.997 -1.55254 1.68609 0
M  V30 6156 C 605.01 -1.52614 0.566812 0
M  V30 6157 O 606.199 -1.57445 0.841032 0
M  V30 6158 C 603.299 -2.94169 1.68279 0
M  V30 6159 C 602.472 -3.21346 2.96742 0
M  V30 6160 C 601.531 -4.3997 2.8864 0
M  V30 6161 O 600.557 -4.38771 3.62586 0
M  V30 6162 N 601.759 -5.43367 2.04285 0
M  V30 6163 H 604.524 -1.40831 2.6455 0
M  V30 6164 H 602.085 -0.629251 1.49171 0
M  V30 6165 H 604.077 -3.71543 1.60431 0
M  V30 6166 H 602.647 -3.02205 0.799441 0
M  V30 6167 H 601.867 -2.32299 3.18482 0
M  V30 6168 H 603.155 -3.3633 3.81785 0
M  V30 6169 H 602.553 -5.47176 1.43578 0
M  V30 6170 H 601.11 -6.19605 2.02318 0
M  V30 6171 N 604.543 -1.41418 -0.695603 0
M  V30 6172 C 605.773 -1.43921 -1.48224 0
M  V30 6173 C 606.181 -0.0428855 -1.89151 0
M  V30 6174 O 605.524 0.948138 -1.5734 0
M  V30 6175 C 605.586 -2.28466 -2.77567 0
M  V30 6176 C 605.25 -3.76629 -2.58844 0
M  V30 6177 C 606.247 -4.6879 -2.24793 0
M  V30 6178 C 603.932 -4.2067 -2.74485 0
M  V30 6179 C 605.926 -6.02981 -2.06622 0
M  V30 6180 C 603.613 -5.54926 -2.55931 0
M  V30 6181 C 604.611 -6.45897 -2.2205 0
M  V30 6182 O 604.299 -7.77675 -2.03657 0
M  V30 6183 H 604.031 -0.492252 -0.463318 0
M  V30 6184 H 606.585 -1.86347 -0.863952 0
M  V30 6185 H 604.815 -1.80853 -3.41802 0
M  V30 6186 H 606.504 -2.2267 -3.39371 0
M  V30 6187 H 607.27 -4.36055 -2.12323 0
M  V30 6188 H 603.149 -3.50167 -2.9984 0
M  V30 6189 H 606.693 -6.73951 -1.80099 0
M  V30 6190 H 602.59 -5.8724 -2.67991 0
M  V30 6191 H 603.358 -7.88819 -2.1842 0
M  V30 6192 N 606.021 0.929856 -1.27246 0
M  V30 6193 C 606.951 2.04722 -1.12299 0
M  V30 6194 C 607.932 1.70082 -0.0250464 0
M  V30 6195 O 609.117 1.93176 -0.199141 0
M  V30 6196 C 606.247 3.38721 -0.767145 0
M  V30 6197 C 605.201 3.87466 -1.81808 0
M  V30 6198 C 604.527 5.18246 -1.31626 0
M  V30 6199 C 605.827 4.11095 -3.22177 0
M  V30 6200 H 607.521 2.17485 -2.05769 0
M  V30 6201 H 605.067 1.04503 -0.990715 0
M  V30 6202 H 607.02 4.16366 -0.649413 0
M  V30 6203 H 605.744 3.25967 0.203259 0
M  V30 6204 H 604.403 3.12012 -1.92468 0
M  V30 6205 H 604.051 5.01881 -0.335378 0
M  V30 6206 H 603.751 5.51829 -2.01887 0
M  V30 6207 H 605.275 5.98462 -1.21143 0
M  V30 6208 H 606.689 4.79316 -3.1453 0
M  V30 6209 H 605.086 4.55982 -3.90129 0
M  V30 6210 H 606.156 3.16468 -3.67391 0
M  V30 6211 N 607.499 1.09233 1.13605 0
M  V30 6212 C 608.409 0.741939 2.22559 0
M  V30 6213 C 609.425 -0.255236 1.72118 0
M  V30 6214 O 610.601 -0.0970747 2.01166 0
M  V30 6215 C 607.666 0.165595 3.46304 0
M  V30 6216 C 606.727 1.21846 4.11645 0
M  V30 6217 C 605.96 0.669526 5.29484 0
M  V30 6218 O 606.183 -0.508228 5.68131 0
M  V30 6219 O 605.117 1.42361 5.84822 0
M  V30 6220 H 608.943 1.65107 2.54899 0
M  V30 6221 H 606.528 0.866584 1.21699 0
M  V30 6222 H 608.41 -0.152592 4.21124 0
M  V30 6223 H 607.085 -0.716573 3.15669 0
M  V30 6224 H 605.992 1.58931 3.38662 0
M  V30 6225 H 607.325 2.07321 4.46407 0
M  V30 6226 N 608.977 -1.30795 0.87923 0
M  V30 6227 C 609.907 -2.30742 0.357796 0
M  V30 6228 C 610.888 -1.60747 -0.556283 0
M  V30 6229 O 612.073 -1.88393 -0.47135 0
M  V30 6230 C 609.203 -3.44583 -0.433555 0
M  V30 6231 C 608.157 -4.26235 0.388251 0
M  V30 6232 C 607.483 -5.32073 -0.529352 0
M  V30 6233 C 608.783 -4.96303 1.62729 0
M  V30 6234 H 610.477 -2.74605 1.19299 0
M  V30 6235 H 608.023 -1.32017 0.575104 0
M  V30 6236 H 609.976 -4.13563 -0.808934 0
M  V30 6237 H 608.7 -2.99511 -1.30234 0
M  V30 6238 H 607.359 -3.58936 0.745695 0
M  V30 6239 H 607.007 -4.83249 -1.39569 0
M  V30 6240 H 606.707 -5.87598 0.0166741 0
M  V30 6241 H 608.231 -6.0391 -0.901373 0
M  V30 6242 H 609.645 -5.5783 1.32283 0
M  V30 6243 H 608.042 -5.61666 2.11309 0
M  V30 6244 H 609.112 -4.22758 2.37494 0
M  V30 6245 N 610.455 -0.639598 -1.44038 0
M  V30 6246 C 611.685 -0.154586 -2.06021 0
M  V30 6247 C 612.093 1.17951 -1.47933 0
M  V30 6248 O 611.436 1.73627 -0.59994 0
M  V30 6249 C 611.498 0.0255459 -3.59491 0
M  V30 6250 C 611.162 -1.2317 -4.40089 0
M  V30 6251 C 612.159 -2.15735 -4.73027 0
M  V30 6252 C 609.844 -1.46949 -4.80324 0
M  V30 6253 C 611.838 -3.30382 -5.45093 0
M  V30 6254 C 609.525 -2.61891 -5.52138 0
M  V30 6255 C 610.523 -3.53433 -5.84443 0
M  V30 6256 O 610.211 -4.6637 -6.54793 0
M  V30 6257 H 609.943 -0.0808543 -0.671147 0
M  V30 6258 H 612.497 -0.876541 -1.85758 0
M  V30 6259 H 610.727 0.802733 -3.78276 0
M  V30 6260 H 612.416 0.466184 -4.03214 0
M  V30 6261 H 613.182 -1.98602 -4.42473 0
M  V30 6262 H 609.061 -0.765815 -4.54595 0
M  V30 6263 H 612.605 -4.01856 -5.70226 0
M  V30 6264 H 608.502 -2.78964 -5.82108 0
M  V30 6265 H 609.27 -4.6546 -6.73267 0
M  V30 6266 N 611.933 1.52934 -0.380664 0
M  V30 6267 C 612.88 2.26197 0.458641 0
M  V30 6268 C 613.85 1.27462 1.06502 0
M  V30 6269 O 615.035 1.56274 1.09467 0
M  V30 6270 C 612.175 3.06571 1.58456 0
M  V30 6271 C 611.288 4.20222 1.00189 0
M  V30 6272 C 610.423 4.88007 2.09815 0
M  V30 6273 C 609.462 5.93665 1.49092 0
M  V30 6274 N 608.599 6.55081 2.52613 0
M  V30 6275 H 613.439 2.975 -0.172595 0
M  V30 6276 H 610.976 1.4678 -0.0969426 0
M  V30 6277 H 612.934 3.51455 2.24801 0
M  V30 6278 H 611.564 2.37494 2.18624 0
M  V30 6279 H 610.616 3.79714 0.228292 0
M  V30 6280 H 611.928 4.96102 0.518064 0
M  V30 6281 H 611.082 5.36151 2.83948 0
M  V30 6282 H 609.821 4.11632 2.61555 0
M  V30 6283 H 608.826 5.44868 0.7348 0
M  V30 6284 H 610.051 6.71969 0.981582 0
M  V30 6285 H 607.997 5.8155 3.03538 0
M  V30 6286 H 607.914 7.26548 2.08961 0
M  V30 6287 H 609.182 7.07871 3.26402 0
M  V30 6288 N 613.412 0.11024 1.57214 0
M  V30 6289 C 614.823 -0.416527 1.81994 0
M  V30 6290 C 615.174 -1.67183 1.02686 0
M  V30 6291 O 614.299 -2.14823 0.260782 0
M  V30 6292 C 614.894 -0.762466 3.30109 0
M  V30 6293 C 613.453 -1.23391 3.556 0
M  V30 6294 C 612.6 -0.238166 2.76275 0
M  V30 6295 H 615.551 0.335491 1.55113 0
M  V30 6296 H 615.572 -1.62068 3.44259 0
M  V30 6297 H 615.084 0.151346 3.87805 0
M  V30 6298 H 613.185 -2.16492 3.03253 0
M  V30 6299 H 613.298 -1.18528 4.64207 0
M  V30 6300 H 611.662 -0.723421 2.4421 0
M  V30 6301 H 612.445 0.668591 3.36727 0
M  V30 6302 N 614.89 -1.56749 -0.16351 0
M  V30 6303 C 615.82 -2.00042 -1.20438 0
M  V30 6304 C 616.801 -0.877256 -1.45733 0
M  V30 6305 O 617.986 -1.1439 -1.56935 0
M  V30 6306 C 615.116 -2.36697 -2.54149 0
M  V30 6307 C 614.07 -3.52046 -2.43408 0
M  V30 6308 C 613.396 -3.74466 -3.81679 0
M  V30 6309 C 614.696 -4.85247 -1.93216 0
M  V30 6310 H 616.39 -2.87244 -0.844477 0
M  V30 6311 H 613.936 -1.38194 -0.40478 0
M  V30 6312 H 615.889 -2.65582 -3.27176 0
M  V30 6313 H 614.613 -1.46414 -2.91943 0
M  V30 6314 H 613.272 -3.23301 -1.72834 0
M  V30 6315 H 612.92 -2.81461 -4.1688 0
M  V30 6316 H 612.62 -4.52084 -3.75359 0
M  V30 6317 H 614.144 -4.0576 -4.5628 0
M  V30 6318 H 615.558 -5.12957 -2.56023 0
M  V30 6319 H 613.955 -5.66556 -1.97825 0
M  V30 6320 H 615.025 -4.7672 -0.88689 0
M  V30 6321 N 616.368 0.432326 -1.51554 0
M  V30 6322 C 617.779 1.01202 -1.56892 0
M  V30 6323 C 618.13 1.92175 -0.395394 0
M  V30 6324 O 617.255 2.10844 0.487198 0
M  V30 6325 C 617.85 1.84217 -2.8434 0
M  V30 6326 C 616.409 2.37228 -2.92233 0
M  V30 6327 C 615.556 1.16576 -2.51606 0
M  V30 6328 H 618.507 0.213407 -1.57259 0
M  V30 6329 H 618.528 2.69721 -2.68385 0
M  V30 6330 H 618.04 1.17979 -3.69733 0
M  V30 6331 H 616.141 3.06905 -2.11282 0
M  V30 6332 H 616.254 2.69682 -3.95991 0
M  V30 6333 H 614.618 1.51263 -2.04919 0
M  V30 6334 H 615.401 0.519404 -3.39348 0
M  V30 6335 N 617.846 1.41785 0.688094 0
M  V30 6336 C 619.262 1.24419 0.999608 0
M  V30 6337 C 619.462 0.138868 2.01021 0
M  V30 6338 O 618.518 -0.494283 2.47615 0
M  V30 6339 C 619.831 2.59625 1.51709 0
M  V30 6340 C 621.379 2.66869 1.63554 0
M  V30 6341 C 621.854 4.0241 2.18702 0
M  V30 6342 N 623.345 4.04295 2.26053 0
M  V30 6343 C 624.08 5.05977 2.69768 0
M  V30 6344 N 623.576 6.18047 3.13033 0
M  V30 6345 N 625.369 4.93336 2.69398 0
M  V30 6346 H 617.52 2.12392 0.0187427 0
M  V30 6347 H 619.783 0.945347 0.0708673 0
M  V30 6348 H 619.489 3.41297 0.849059 0
M  V30 6349 H 619.363 2.82628 2.49803 0
M  V30 6350 H 621.75 1.8555 2.29467 0
M  V30 6351 H 621.831 2.47668 0.639857 0
M  V30 6352 H 621.475 4.8418 1.53402 0
M  V30 6353 H 621.405 4.18955 3.19037 0
M  V30 6354 H 623.896 3.23383 1.9553 0
M  V30 6355 H 624.209 6.91498 3.45038 0
M  V30 6356 H 622.554 6.21572 3.10923 0
M  V30 6357 H 625.745 4.04865 2.34952 0
M  V30 6358 H 625.918 5.72717 3.03148 0
M  V30 6359 N 619.324 -0.923095 1.27737 0
M  V30 6360 C 620.287 -2.00587 1.10894 0
M  V30 6361 C 621.287 -1.60718 0.0514927 0
M  V30 6362 O 622.477 -1.71658 0.296481 0
M  V30 6363 C 619.609 -3.33829 0.690717 0
M  V30 6364 H 620.802 -2.16959 2.07048 0
M  V30 6365 H 618.355 -1.10451 1.1059 0
M  V30 6366 H 619.09 -3.23157 -0.272 0
M  V30 6367 H 618.875 -3.64125 1.45448 0
M  V30 6368 H 620.365 -4.13336 0.595252 0
M  V30 6369 N 620.802 -1.09834 -1.13024 0
M  V30 6370 C 622.05 -0.835297 -1.8403 0
M  V30 6371 C 622.371 0.640944 -1.84165 0
M  V30 6372 O 621.641 1.46517 -1.30037 0
M  V30 6373 H 620.221 -0.306018 -0.681441 0
M  V30 6374 H 622.883 -1.38734 -1.36891 0
M  V30 6375 H 621.979 -1.19258 -2.88416 0
M  V30 6376 N 622.28 1.30327 -0.886154 0
M  V30 6377 C 623.227 2.28099 -0.352069 0
M  V30 6378 C 624.197 1.56433 0.558397 0
M  V30 6379 O 625.382 1.84492 0.486561 0
M  V30 6380 C 622.522 3.42456 0.426346 0
M  V30 6381 C 621.635 4.28938 -0.513472 0
M  V30 6382 C 620.77 5.30458 0.280657 0
M  V30 6383 C 619.809 6.0859 -0.654556 0
M  V30 6384 N 618.946 7.02022 0.104322 0
M  V30 6385 H 623.786 2.73166 -1.19097 0
M  V30 6386 H 621.323 1.34367 -0.598662 0
M  V30 6387 H 623.281 4.07518 0.893587 0
M  V30 6388 H 621.911 2.98455 1.22981 0
M  V30 6389 H 620.963 3.64173 -1.09921 0
M  V30 6390 H 622.275 4.83399 -1.2299 0
M  V30 6391 H 621.429 6.01273 0.8097 0
M  V30 6392 H 620.168 4.76693 1.03029 0
M  V30 6393 H 619.173 5.36651 -1.19522 0
M  V30 6394 H 620.398 6.64443 -1.4033 0
M  V30 6395 H 618.344 6.50645 0.836472 0
M  V30 6396 H 618.261 7.53979 -0.552453 0
M  V30 6397 H 619.529 7.77077 0.614069 0
M  V30 6398 N 623.758 0.647228 1.43697 0
M  V30 6399 C 624.688 -0.0345631 2.33474 0
M  V30 6400 C 625.669 -0.818193 1.4913 0
M  V30 6401 O 626.854 -0.780867 1.77809 0
M  V30 6402 C 623.984 -1.00576 3.32418 0
M  V30 6403 C 622.938 -0.33266 4.26705 0
M  V30 6404 C 622.264 -1.41489 5.1564 0
M  V30 6405 C 623.564 0.771204 5.16575 0
M  V30 6406 H 625.258 0.715163 2.90733 0
M  V30 6407 H 622.804 0.345364 1.39797 0
M  V30 6408 H 624.757 -1.49159 3.94119 0
M  V30 6409 H 623.481 -1.78657 2.73403 0
M  V30 6410 H 622.14 0.13267 3.6636 0
M  V30 6411 H 621.788 -2.18698 4.52968 0
M  V30 6412 H 621.488 -0.969799 5.79542 0
M  V30 6413 H 623.012 -1.9022 5.80214 0
M  V30 6414 H 624.426 0.36779 5.72119 0
M  V30 6415 H 622.823 1.1404 5.89165 0
M  V30 6416 H 623.893 1.63169 4.56622 0
M  V30 6417 N 625.236 -1.5273 0.388769 0
M  V30 6418 C 626.183 -2.26437 -0.446639 0
M  V30 6419 C 627.153 -1.28025 -1.05824 0
M  V30 6420 O 628.338 -1.56852 -1.08637 0
M  V30 6421 C 625.478 -3.07407 -1.56828 0
M  V30 6422 C 624.591 -4.20747 -0.979589 0
M  V30 6423 C 623.726 -4.89113 -2.07224 0
M  V30 6424 C 622.765 -5.94447 -1.45942 0
M  V30 6425 N 621.902 -6.56411 -2.49135 0
M  V30 6426 H 626.742 -2.97404 0.18837 0
M  V30 6427 H 624.279 -1.46727 0.104725 0
M  V30 6428 H 626.237 -3.52642 -2.22934 0
M  V30 6429 H 624.867 -2.3865 -2.17361 0
M  V30 6430 H 623.919 -3.7983 -0.208151 0
M  V30 6431 H 625.231 -4.9637 -0.491747 0
M  V30 6432 H 624.385 -5.3765 -2.81101 0
M  V30 6433 H 623.124 -4.13013 -2.59368 0
M  V30 6434 H 622.129 -5.4525 -0.705894 0
M  V30 6435 H 623.354 -6.7248 -0.945932 0
M  V30 6436 H 621.3 -5.83152 -3.00449 0
M  V30 6437 H 621.217 -7.27645 -2.05105 0
M  V30 6438 H 622.485 -7.09592 -3.22644 0
M  V30 6439 N 626.714 -0.118576 -1.57153 0
M  V30 6440 C 627.954 0.542618 -1.97066 0
M  V30 6441 C 628.318 1.63874 -1.00046 0
M  V30 6442 O 629.519 2.3588 -1.28895 0
M  V30 6443 C 627.79 1.06196 -3.41258 0
M  V30 6444 S 629.349 1.73174 -4.03183 0
M  V30 6445 H 626.167 0.17638 -0.688775 0
M  V30 6446 H 628.769 -0.203556 -1.94437 0
M  V30 6447 H 627.473 0.253016 -4.09619 0
M  V30 6448 H 627.004 1.84342 -3.47536 0
M  V30 6449 H 629.019 3.01749 -3.93906 0
M  V30 6450 N 628.193 1.56834 0.155195 0
M  V30 6451 C 629.103 2.009 1.21146 0
M  V30 6452 C 630.119 0.923029 1.475 0
M  V30 6453 O 631.295 1.23189 1.59331 0
M  V30 6454 C 628.36 2.37378 2.52691 0
M  V30 6455 C 627.421 3.59883 2.34057 0
M  V30 6456 C 626.654 3.94612 3.59329 0
M  V30 6457 O 626.877 3.30104 4.65175 0
M  V30 6458 O 625.811 4.87895 3.52479 0
M  V30 6459 H 629.637 2.9105 0.867371 0
M  V30 6460 H 627.222 1.44916 0.363298 0
M  V30 6461 H 629.104 2.61737 3.3026 0
M  V30 6462 H 627.779 1.50385 2.86646 0
M  V30 6463 H 626.686 3.40722 1.54465 0
M  V30 6464 H 628.019 4.47468 2.0502 0
M  V30 6465 N 629.671 -0.424282 1.51781 0
M  V30 6466 C 630.634 -1.49848 1.73431 0
M  V30 6467 C 631.634 -1.49016 0.604225 0
M  V30 6468 O 632.824 -1.50808 0.871935 0
M  V30 6469 C 629.956 -2.89332 1.80277 0
M  V30 6470 H 631.149 -1.3195 2.69312 0
M  V30 6471 H 628.702 -0.653809 1.41968 0
M  V30 6472 H 629.437 -3.12618 0.862568 0
M  V30 6473 H 629.222 -2.9134 2.62419 0
M  V30 6474 H 630.712 -3.67233 1.98821 0
M  V30 6475 N 631.149 -1.42148 -0.680565 0
M  V30 6476 C 632.395 -1.42521 -1.44277 0
M  V30 6477 C 632.728 -0.0393718 -1.9416 0
M  V30 6478 O 632.003 0.935425 -1.70529 0
M  V30 6479 C 632.286 -2.44475 -2.64394 0
M  V30 6480 C 632.139 -3.92226 -2.20179 0
M  V30 6481 C 633.458 -2.43491 -3.66606 0
M  V30 6482 H 630.577 -0.518985 -0.523282 0
M  V30 6483 H 633.219 -1.73524 -0.773914 0
M  V30 6484 H 631.369 -2.18168 -3.21458 0
M  V30 6485 H 633.041 -4.29493 -1.68327 0
M  V30 6486 H 631.284 -4.0637 -1.5181 0
M  V30 6487 H 631.955 -4.59133 -3.06433 0
M  V30 6488 H 634.431 -2.66872 -3.19247 0
M  V30 6489 H 633.307 -3.16816 -4.4824 0
M  V30 6490 H 633.568 -1.45881 -4.17338 0
M  V30 6491 N 632.627 0.916307 -1.28225 0
M  V30 6492 C 633.873 1.66765 -1.154 0
M  V30 6493 C 634.206 1.91912 0.297251 0
M  V30 6494 O 633.481 1.51766 1.21644 0
M  V30 6495 C 633.764 3.02715 -1.95028 0
M  V30 6496 C 633.617 2.84738 -3.48201 0
M  V30 6497 C 634.936 4.03215 -1.76369 0
M  V30 6498 H 632.055 0.605205 -0.42059 0
M  V30 6499 H 634.697 1.06255 -1.57512 0
M  V30 6500 H 632.847 3.54365 -1.59242 0
M  V30 6501 H 634.519 2.40118 -3.9388 0
M  V30 6502 H 632.762 2.19848 -3.73964 0
M  V30 6503 H 633.433 3.8127 -3.99171 0
M  V30 6504 H 635.909 3.60617 -2.07593 0
M  V30 6505 H 634.785 4.96306 -2.34459 0
M  V30 6506 H 635.046 4.36288 -0.71452 0
M  V30 6507 N 634.105 1.10431 1.1244 0
M  V30 6508 C 635.068 0.756542 2.16354 0
M  V30 6509 C 636.068 -0.21899 1.59302 0
M  V30 6510 O 637.258 0.00415969 1.742 0
M  V30 6511 C 634.39 0.120612 3.40687 0
M  V30 6512 H 635.583 1.67696 2.48632 0
M  V30 6513 H 633.136 0.904832 1.27446 0
M  V30 6514 H 633.871 -0.810536 3.14008 0
M  V30 6515 H 633.656 0.822693 3.83372 0
M  V30 6516 H 635.146 -0.106945 4.17463 0
M  V30 6517 N 635.583 -1.29855 0.893053 0
M  V30 6518 C 636.86 -1.90694 0.435336 0
M  V30 6519 C 637.24 -1.8111 -1.08454 0
M  V30 6520 O 636.588 -1.23352 -1.92345 0
M  V30 6521 C 636.798 -3.36033 0.942472 0
M  V30 6522 C 638.146 -4.13083 0.982226 0
M  V30 6523 O 639.17 -3.4491 0.889686 0
M  V30 6524 O 638.029 -5.34896 1.12022 0
M  V30 6525 H 635.123 -0.815978 0.134567 0
M  V30 6526 H 637.669 -1.38367 0.982484 0
M  V30 6527 H 636.441 -3.37132 1.9864 0
M  V30 6528 H 636.064 -3.95828 0.374952 0
M  V30 6529 N 637.061 -0.65484 -1.43351 0
M  V30 6530 C 638.307 -0.169142 -2.02093 0
M  V30 6531 C 638.64 1.21431 -1.51553 0
M  V30 6532 O 637.915 1.81105 -0.709317 0
M  V30 6533 C 638.198 -0.181775 -3.59641 0
M  V30 6534 C 638.051 -1.59926 -4.20409 0
M  V30 6535 C 639.37 0.480945 -4.37464 0
M  V30 6536 H 636.489 -0.0629371 -0.734308 0
M  V30 6537 H 639.131 -0.835833 -1.70628 0
M  V30 6538 H 637.281 0.385918 -3.86578 0
M  V30 6539 H 638.953 -2.21766 -4.04497 0
M  V30 6540 H 637.196 -2.14605 -3.76998 0
M  V30 6541 H 637.867 -1.55994 -5.295 0
M  V30 6542 H 640.343 -0.00208273 -4.161 0
M  V30 6543 H 639.219 0.441384 -5.47122 0
M  V30 6544 H 639.48 1.55533 -4.13838 0
M  V30 6545 N 638.539 1.52521 -0.396863 0
M  V30 6546 C 639.469 2.29582 0.425941 0
M  V30 6547 C 640.45 1.33281 1.05689 0
M  V30 6548 O 641.635 1.62181 1.06823 0
M  V30 6549 C 638.765 3.10821 1.54943 0
M  V30 6550 C 637.719 4.15069 1.04413 0
M  V30 6551 C 637.045 4.84578 2.26028 0
M  V30 6552 C 638.345 5.22191 0.106767 0
M  V30 6553 H 640.039 2.98612 -0.217045 0
M  V30 6554 H 637.585 1.43611 -0.105826 0
M  V30 6555 H 639.538 3.63492 2.13193 0
M  V30 6556 H 638.262 2.39538 2.22011 0
M  V30 6557 H 636.921 3.63389 0.484118 0
M  V30 6558 H 636.569 4.09835 2.91623 0
M  V30 6559 H 636.269 5.55043 1.92876 0
M  V30 6560 H 637.793 5.40056 2.84906 0
M  V30 6561 H 639.207 5.70176 0.597685 0
M  V30 6562 H 637.604 5.99947 -0.135352 0
M  V30 6563 H 638.674 4.77531 -0.842134 0
M  V30 6564 N 640.017 0.126909 1.57088 0
M  V30 6565 C 641.294 -0.573152 1.87014 0
M  V30 6566 C 641.674 -1.84297 1.02945 0
M  V30 6567 O 641.022 -2.28232 0.110573 0
M  V30 6568 C 641.232 -0.857984 3.38289 0
M  V30 6569 C 642.58 -1.20759 4.07066 0
M  V30 6570 O 643.604 -0.947992 3.43353 0
M  V30 6571 O 642.463 -1.69516 5.19545 0
M  V30 6572 H 639.557 -0.290082 0.774456 0
M  V30 6573 H 642.103 0.162008 1.68925 0
M  V30 6574 H 640.875 0.0415286 3.91278 0
M  V30 6575 H 640.498 -1.64803 3.61837 0
M  V30 6576 N 641.495 -1.56914 -0.146875 0
M  V30 6577 C 642.442 -1.98275 -1.18134 0
M  V30 6578 C 643.412 -0.850367 -1.42681 0
M  V30 6579 O 644.597 -1.11244 -1.55014 0
M  V30 6580 C 641.737 -2.36861 -2.5098 0
M  V30 6581 C 640.85 -3.63391 -2.33605 0
M  V30 6582 C 639.985 -3.91079 -3.59486 0
M  V30 6583 C 639.024 -5.10879 -3.37149 0
M  V30 6584 N 638.161 -5.34577 -4.55161 0
M  V30 6585 H 643.001 -2.8645 -0.821622 0
M  V30 6586 H 640.538 -1.41718 -0.394248 0
M  V30 6587 H 642.496 -2.57262 -3.28439 0
M  V30 6588 H 641.126 -1.51766 -2.84898 0
M  V30 6589 H 640.178 -3.50766 -1.47199 0
M  V30 6590 H 641.49 -4.51007 -2.13059 0
M  V30 6591 H 640.644 -4.11979 -4.45374 0
M  V30 6592 H 639.383 -3.01885 -3.83036 0
M  V30 6593 H 638.388 -4.89853 -2.49649 0
M  V30 6594 H 639.613 -6.01626 -3.14997 0
M  V30 6595 H 637.559 -4.48337 -4.78884 0
M  V30 6596 H 637.476 -6.16463 -4.37618 0
M  V30 6597 H 638.744 -5.59975 -5.42263 0
M  V30 6598 N 642.974 0.416227 -1.52004 0
M  V30 6599 C 644.222 1.16153 -1.65387 0
M  V30 6600 C 644.543 1.91208 -0.382669 0
M  V30 6601 O 643.813 1.86413 0.602231 0
M  V30 6602 H 642.393 0.431765 -0.60958 0
M  V30 6603 H 645.055 0.475151 -1.89019 0
M  V30 6604 H 644.151 1.87952 -2.4916 0
M  V30 6605 N 644.452 1.42507 0.673017 0
M  V30 6606 C 645.677 1.4668 1.46627 0
M  V30 6607 C 646.102 0.080066 1.8793 0
M  V30 6608 O 645.46 -0.921879 1.56112 0
M  V30 6609 C 645.508 2.40091 2.69051 0
M  V30 6610 O 644.612 1.8735 3.67387 0
M  V30 6611 H 643.953 0.496908 0.44043 0
M  V30 6612 H 646.483 1.87215 0.825334 0
M  V30 6613 H 646.493 2.56731 3.17101 0
M  V30 6614 H 645.168 3.4084 2.3833 0
M  V30 6615 H 643.745 1.80274 3.26429 0
M  V30 6616 N 645.93 -0.909495 1.28709 0
M  V30 6617 C 647.178 -1.65577 1.15882 0
M  V30 6618 C 647.499 -1.928 -0.292108 0
M  V30 6619 O 646.769 -1.54716 -1.20166 0
M  V30 6620 H 645.349 -0.613714 0.425869 0
M  V30 6621 H 648.011 -1.09108 1.61498 0
M  V30 6622 H 647.107 -2.61634 1.70159 0
M  V30 6623 N 647.408 -1.11026 -1.11852 0
M  V30 6624 C 648.654 -0.857729 -1.83768 0
M  V30 6625 C 648.987 0.615143 -1.842 0
M  V30 6626 O 648.262 1.45391 -1.29196 0
M  V30 6627 C 648.545 -1.41453 -3.31154 0
M  V30 6628 C 648.398 -2.95471 -3.39142 0
M  V30 6629 C 649.717 -1.0619 -4.27097 0
M  V30 6630 H 646.836 -0.313044 -0.667212 0
M  V30 6631 H 649.478 -1.37443 -1.31185 0
M  V30 6632 H 647.628 -0.975052 -3.76065 0
M  V30 6633 H 649.3 -3.4799 -3.02821 0
M  V30 6634 H 647.543 -3.31759 -2.79497 0
M  V30 6635 H 648.214 -3.29515 -4.42859 0
M  V30 6636 H 650.69 -1.44122 -3.90344 0
M  V30 6637 H 649.566 -1.47832 -5.28618 0
M  V30 6638 H 649.827 0.0278912 -4.42091 0
M  V30 6639 N 648.886 1.2938 -0.899927 0
M  V30 6640 C 650.132 1.9584 -0.526742 0
M  V30 6641 C 650.465 1.70774 0.924651 0
M  V30 6642 O 649.74 1.02084 1.65557 0
M  V30 6643 C 650.023 3.50638 -0.820062 0
M  V30 6644 C 649.876 3.85161 -2.32317 0
M  V30 6645 C 651.195 4.3903 -0.30671 0
M  V30 6646 H 648.314 0.711322 -0.192848 0
M  V30 6647 H 650.956 1.52992 -1.12665 0
M  V30 6648 H 649.106 3.87265 -0.309491 0
M  V30 6649 H 650.778 3.58477 -2.9033 0
M  V30 6650 H 649.021 3.32696 -2.78381 0
M  V30 6651 H 649.692 4.93204 -2.47898 0
M  V30 6652 H 652.168 4.09396 -0.743908 0
M  V30 6653 H 651.044 5.46226 -0.541144 0
M  V30 6654 H 651.305 4.34937 0.792588 0
M  V30 6655 N 650.364 0.662433 1.43002 0
M  V30 6656 C 651.613 0.176873 2.00923 0
M  V30 6657 C 651.926 -1.21954 1.52927 0
M  V30 6658 O 653.132 -1.80081 2.03182 0
M  V30 6659 C 651.588 0.265379 3.5892 0
M  V30 6660 C 651.196 1.66507 4.15908 0
M  V30 6661 C 652.94 -0.162103 4.2419 0
M  V30 6662 C 650.847 1.707 5.66229 0
M  V30 6663 H 649.777 0.0623627 0.751417 0
M  V30 6664 H 652.428 0.825813 1.63868 0
M  V30 6665 H 650.81 -0.451235 3.93421 0
M  V30 6666 H 651.984 2.40777 3.92891 0
M  V30 6667 H 650.299 2.03932 3.63044 0
M  V30 6668 H 652.896 -0.150745 5.34487 0
M  V30 6669 H 653.239 -1.19519 3.98774 0
M  V30 6670 H 653.772 0.503075 3.94606 0
M  V30 6671 H 650.511 2.7195 5.96426 0
M  V30 6672 H 650.031 1.00768 5.91275 0
M  V30 6673 H 651.71 1.45487 6.3043 0
M  V30 6674 N 651.842 -1.52309 0.404946 0
M  V30 6675 C 653.091 -2.00952 -0.173529 0
M  V30 6676 C 653.404 -1.29512 -1.46581 0
M  V30 6677 O 654.61 -1.6895 -2.12528 0
M  V30 6678 C 653.066 -3.58097 -0.359801 0
M  V30 6679 C 652.674 -4.38449 0.920138 0
M  V30 6680 C 654.418 -4.14984 -0.893794 0
M  V30 6681 C 652.325 -5.87227 0.701285 0
M  V30 6682 H 651.255 -0.750871 -0.0686244 0
M  V30 6683 H 653.906 -1.75687 0.529749 0
M  V30 6684 H 652.288 -3.79675 -1.12531 0
M  V30 6685 H 653.462 -4.28633 1.69147 0
M  V30 6686 H 651.777 -3.92859 1.38024 0
M  V30 6687 H 654.374 -5.23813 -1.0735 0
M  V30 6688 H 654.717 -3.72072 -1.8673 0
M  V30 6689 H 655.25 -3.97358 -0.187453 0
M  V30 6690 H 651.989 -6.34491 1.64624 0
M  V30 6691 H 651.509 -5.99792 -0.0308288 0
M  V30 6692 H 653.188 -6.46096 0.341846 0
M  V30 6693 N 653.32 -0.135238 -1.57019 0
M  V30 6694 C 654.253 0.846618 -2.11914 0
M  V30 6695 C 655.231 1.25019 -1.03966 0
M  V30 6696 O 656.415 1.34838 -1.31723 0
M  V30 6697 C 653.542 2.1352 -2.6292 0
M  V30 6698 C 652.588 1.87846 -3.82905 0
M  V30 6699 S 653.421 1.08005 -5.24495 0
M  V30 6700 C 654.577 2.38008 -5.78881 0
M  V30 6701 H 654.81 0.379752 -2.94865 0
M  V30 6702 H 652.343 0.0788387 -1.54199 0
M  V30 6703 H 654.301 2.87551 -2.92958 0
M  V30 6704 H 652.962 2.57323 -1.80121 0
M  V30 6705 H 652.155 2.83365 -4.16797 0
M  V30 6706 H 651.757 1.21929 -3.53567 0
M  V30 6707 H 654.049 3.33742 -5.89595 0
M  V30 6708 H 654.992 2.08638 -6.76665 0
M  V30 6709 H 655.4 2.48119 -5.07048 0
M  V30 6710 N 654.798 1.5699 0.138552 0
M  V30 6711 C 656.075 1.74741 0.87891 0
M  V30 6712 C 656.455 0.705522 1.98961 0
M  V30 6713 O 655.803 -0.274066 2.2685 0
M  V30 6714 C 656.013 3.1909 1.4136 0
M  V30 6715 C 657.361 3.81023 1.87368 0
M  V30 6716 O 658.385 3.22571 1.51084 0
M  V30 6717 O 657.244 4.83722 2.54312 0
M  V30 6718 H 654.338 0.714781 0.415953 0
M  V30 6719 H 656.884 1.69248 0.123817 0
M  V30 6720 H 655.656 3.86424 0.61579 0
M  V30 6721 H 655.279 3.29043 2.23196 0
M  V30 6722 N 656.276 -0.40816 1.52223 0
M  V30 6723 C 657.522 -1.15673 1.66576 0
M  V30 6724 C 657.855 -1.90141 0.394996 0
M  V30 6725 O 657.13 -1.84798 -0.606613 0
M  V30 6726 C 657.413 -2.15042 2.88841 0
M  V30 6727 C 657.266 -1.44465 4.25969 0
M  V30 6728 C 658.585 -3.15699 3.0663 0
M  V30 6729 H 655.704 -0.41916 0.606196 0
M  V30 6730 H 658.346 -0.442348 1.84779 0
M  V30 6731 H 656.496 -2.75964 2.73452 0
M  V30 6732 H 658.168 -0.866544 4.53088 0
M  V30 6733 H 656.411 -0.746612 4.27327 0
M  V30 6734 H 657.082 -2.16976 5.07568 0
M  V30 6735 H 659.558 -2.64854 3.20923 0
M  V30 6736 H 658.434 -3.82491 3.9369 0
M  V30 6737 H 658.695 -3.83481 2.19987 0
M  V30 6738 N 657.755 -1.42862 -0.66545 0
M  V30 6739 C 658.985 -1.47032 -1.45138 0
M  V30 6740 C 659.393 -0.0829977 -1.89018 0
M  V30 6741 O 658.736 0.914551 -1.59316 0
M  V30 6742 C 658.798 -2.34302 -2.72659 0
M  V30 6743 C 658.462 -3.82034 -2.50796 0
M  V30 6744 C 659.459 -4.73453 -2.14799 0
M  V30 6745 C 657.144 -4.26397 -2.655 0
M  V30 6746 C 659.138 -6.07228 -1.93785 0
M  V30 6747 C 656.825 -5.6023 -2.44103 0
M  V30 6748 C 657.823 -6.50462 -2.08299 0
M  V30 6749 O 657.511 -7.8182 -1.87116 0
M  V30 6750 H 657.243 -0.501969 -0.452772 0
M  V30 6751 H 659.797 -1.88137 -0.82423 0
M  V30 6752 H 658.027 -1.88063 -3.37889 0
M  V30 6753 H 659.716 -2.29818 -3.34572 0
M  V30 6754 H 660.482 -4.4046 -2.03026 0
M  V30 6755 H 656.361 -3.56448 -2.92345 0
M  V30 6756 H 659.905 -6.7762 -1.65763 0
M  V30 6757 H 655.802 -5.92793 -2.55475 0
M  V30 6758 H 656.57 -7.93274 -2.01639 0
M  V30 6759 N 659.233 0.902656 -1.29189 0
M  V30 6760 C 660.458 1.69167 -1.19989 0
M  V30 6761 C 660.883 1.86607 0.236495 0
M  V30 6762 O 660.241 1.38425 1.17082 0
M  V30 6763 C 660.289 3.05532 -1.91527 0
M  V30 6764 O 659.393 3.93621 -1.2303 0
M  V30 6765 H 658.734 0.517584 -0.415936 0
M  V30 6766 H 661.264 1.12785 -1.70706 0
M  V30 6767 H 661.274 3.55693 -1.99866 0
M  V30 6768 H 659.949 2.92156 -2.96003 0
M  V30 6769 H 658.526 3.52055 -1.22928 0
M  V30 6770 N 660.711 1.11618 1.11262 0
M  V30 6771 C 661.941 0.88745 1.86569 0
M  V30 6772 C 662.349 -0.56636 1.80524 0
M  V30 6773 O 661.692 -1.40289 1.18594 0
M  V30 6774 C 661.754 1.27313 3.36202 0
M  V30 6775 C 661.418 2.73649 3.66013 0
M  V30 6776 C 662.415 3.71863 3.63337 0
M  V30 6777 C 660.1 3.10342 3.9496 0
M  V30 6778 C 662.094 5.04788 3.89188 0
M  V30 6779 C 659.781 4.43451 4.20469 0
M  V30 6780 C 660.779 5.40484 4.17572 0
M  V30 6781 O 660.467 6.71195 4.42439 0
M  V30 6782 H 660.199 0.317543 0.596777 0
M  V30 6783 H 662.753 1.48768 1.41624 0
M  V30 6784 H 660.983 0.616062 3.81761 0
M  V30 6785 H 662.672 1.01991 3.92877 0
M  V30 6786 H 663.438 3.44861 3.41022 0
M  V30 6787 H 659.317 2.35431 3.9635 0
M  V30 6788 H 662.861 5.80516 3.86842 0
M  V30 6789 H 658.758 4.70187 4.42261 0
M  V30 6790 H 659.526 6.77012 4.59997 0
M  V30 6791 N 662.189 -1.289 0.906776 0
M  V30 6792 C 663.414 -1.99939 0.551303 0
M  V30 6793 C 663.839 -1.67366 -0.858496 0
M  V30 6794 O 663.197 -0.902176 -1.57259 0
M  V30 6795 C 663.245 -3.52523 0.758937 0
M  V30 6796 O 662.349 -4.11983 -0.185308 0
M  V30 6797 H 661.69 -0.628376 0.214568 0
M  V30 6798 H 664.22 -1.64225 1.2203 0
M  V30 6799 H 664.23 -4.02522 0.666329 0
M  V30 6800 H 662.905 -3.75566 1.78671 0
M  V30 6801 H 661.482 -3.72873 -0.0445577 0
M  V30 6802 N 663.667 -0.670007 -1.42649 0
M  V30 6803 C 664.577 0.0114788 -2.34597 0
M  V30 6804 C 665.593 0.794055 -1.54825 0
M  V30 6805 O 666.769 0.737472 -1.87412 0
M  V30 6806 C 663.834 0.954436 -3.33304 0
M  V30 6807 C 662.895 0.166925 -4.28975 0
M  V30 6808 C 662.128 1.06497 -5.22967 0
M  V30 6809 O 662.351 2.30446 -5.21777 0
M  V30 6810 O 661.285 0.528347 -5.99577 0
M  V30 6811 H 665.111 -0.745794 -2.944 0
M  V30 6812 H 662.696 -0.430228 -1.43071 0
M  V30 6813 H 664.578 1.49589 -3.93956 0
M  V30 6814 H 663.253 1.69164 -2.7598 0
M  V30 6815 H 662.16 -0.418515 -3.71752 0
M  V30 6816 H 663.493 -0.531067 -4.89327 0
M  V30 6817 N 665.145 1.52092 -0.413018 0
M  V30 6818 C 666.092 2.27119 0.410558 0
M  V30 6819 C 667.062 1.29692 1.03774 0
M  V30 6820 O 668.247 1.58561 1.06128 0
M  V30 6821 C 665.387 3.09863 1.51918 0
M  V30 6822 C 664.5 4.22252 0.912528 0
M  V30 6823 C 663.635 4.92348 1.99417 0
M  V30 6824 C 662.674 5.96694 1.36466 0
M  V30 6825 N 661.811 6.60292 2.38661 0
M  V30 6826 H 666.651 2.97067 -0.235661 0
M  V30 6827 H 664.188 1.46542 -0.128055 0
M  V30 6828 H 666.146 3.56144 2.17295 0
M  V30 6829 H 664.776 2.42078 2.13537 0
M  V30 6830 H 663.828 3.80113 0.147697 0
M  V30 6831 H 665.14 4.9709 0.412717 0
M  V30 6832 H 664.294 5.42054 2.72512 0
M  V30 6833 H 663.033 4.17087 2.52764 0
M  V30 6834 H 662.038 5.46304 0.61906 0
M  V30 6835 H 663.263 6.73899 0.838827 0
M  V30 6836 H 661.209 5.87858 2.91134 0
M  V30 6837 H 661.126 7.30816 1.93503 0
M  V30 6838 H 662.394 7.14635 3.11314 0
M  V30 6839 N 666.623 0.143563 1.56945 0
M  V30 6840 C 667.533 -0.810562 2.20152 0
M  V30 6841 C 668.549 -1.27431 1.1848 0
M  V30 6842 O 669.725 -1.33221 1.51044 0
M  V30 6843 C 666.79 -2.03353 2.80799 0
M  V30 6844 C 665.851 -1.61936 3.97587 0
M  V30 6845 C 665.084 -2.78403 4.55332 0
M  V30 6846 O 665.307 -3.94521 4.11958 0
M  V30 6847 O 664.241 -2.54073 5.45647 0
M  V30 6848 H 668.067 -0.30253 3.02189 0
M  V30 6849 H 665.652 -0.0832925 1.49168 0
M  V30 6850 H 667.534 -2.74932 3.19359 0
M  V30 6851 H 666.209 -2.53116 2.01777 0
M  V30 6852 H 665.116 -0.873904 3.6375 0
M  V30 6853 H 666.449 -1.16892 4.78118 0
M  V30 6854 N 668.101 -1.57061 -0.130224 0
M  V30 6855 C 669.031 -2.02552 -1.16168 0
M  V30 6856 C 670.012 -0.907971 -1.4384 0
M  V30 6857 O 671.197 -1.17693 -1.54473 0
M  V30 6858 C 668.327 -2.42035 -2.49071 0
M  V30 6859 C 667.281 -3.5713 -2.35886 0
M  V30 6860 C 666.607 -3.82478 -3.7365 0
M  V30 6861 C 667.907 -4.89236 -1.8288 0
M  V30 6862 H 669.601 -2.8897 -0.783359 0
M  V30 6863 H 667.147 -1.39021 -0.375376 0
M  V30 6864 H 669.1 -2.72462 -3.21469 0
M  V30 6865 H 667.824 -1.52573 -2.88771 0
M  V30 6866 H 666.483 -3.26895 -1.65938 0
M  V30 6867 H 666.131 -2.9024 -4.10816 0
M  V30 6868 H 665.831 -4.59944 -3.65685 0
M  V30 6869 H 667.355 -4.15347 -4.47571 0
M  V30 6870 H 668.769 -5.18272 -2.45085 0
M  V30 6871 H 667.166 -5.70624 -1.85763 0
M  V30 6872 H 668.236 -4.78494 -0.785571 0
M  V30 6873 N 669.579 0.400081 -1.52437 0
M  V30 6874 C 670.828 1.14332 -1.66166 0
M  V30 6875 C 671.141 1.91419 -0.402253 0
M  V30 6876 O 672.347 2.6824 -0.419487 0
M  V30 6877 C 670.803 2.08137 -2.9361 0
M  V30 6878 C 670.411 1.36524 -4.26691 0
M  V30 6879 C 672.155 2.82664 -3.16703 0
M  V30 6880 C 670.062 2.29031 -5.45251 0
M  V30 6881 H 668.992 0.430499 -0.61902 0
M  V30 6882 H 671.643 0.407017 -1.78929 0
M  V30 6883 H 670.025 2.85358 -2.74567 0
M  V30 6884 H 671.199 0.646061 -4.56249 0
M  V30 6885 H 669.514 0.74002 -4.09771 0
M  V30 6886 H 672.111 3.52037 -4.0246 0
M  V30 6887 H 672.454 3.46122 -2.31312 0
M  V30 6888 H 672.987 2.12541 -3.36261 0
M  V30 6889 H 669.726 1.70206 -6.33017 0
M  V30 6890 H 669.246 2.98896 -5.2002 0
M  V30 6891 H 670.925 2.89359 -5.78689 0
M  V30 6892 N 671.057 1.43213 0.657864 0
M  V30 6893 C 672.297 1.46083 1.42965 0
M  V30 6894 C 672.661 0.0809712 1.91829 0
M  V30 6895 O 673.862 -0.0156305 2.68795 0
M  V30 6896 C 672.133 2.47044 2.58271 0
M  V30 6897 S 673.692 2.68753 3.46868 0
M  V30 6898 H 670.51 0.517015 0.488074 0
M  V30 6899 H 673.112 1.79945 0.764213 0
M  V30 6900 H 671.816 3.46044 2.20639 0
M  V30 6901 H 671.347 2.14665 3.2967 0
M  V30 6902 H 673.362 1.98329 4.54841 0
M  V30 6903 N 672.536 -0.895792 1.29666 0
M  V30 6904 C 673.486 -1.98736 1.1175 0
M  V30 6905 C 674.47 -1.6086 0.0357834 0
M  V30 6906 O 675.662 -1.75111 0.257926 0
M  V30 6907 C 672.791 -3.33845 0.800156 0
M  V30 6908 C 671.877 -3.78068 1.9216 0
M  V30 6909 N 672.268 -3.94489 3.16563 0
M  V30 6910 C 670.566 -4.07376 1.81552 0
M  V30 6911 C 671.267 -4.31819 3.89753 0
M  V30 6912 N 670.243 -4.41081 3.17724 0
M  V30 6913 H 674.045 -2.09507 2.06117 0
M  V30 6914 H 671.559 -1.08488 1.20848 0
M  V30 6915 H 673.556 -4.11757 0.652841 0
M  V30 6916 H 672.216 -3.24417 -0.135551 0
M  V30 6917 H 673.227 -3.79914 3.51974 0
M  V30 6918 H 669.904 -4.06483 0.952787 0
M  V30 6919 H 671.294 -4.52337 4.96831 0
M  V30 6920 N 674.014 -1.12206 -1.10668 0
M  V30 6921 C 674.962 -0.782918 -2.19028 0
M  V30 6922 C 675.956 0.229175 -1.67843 0
M  V30 6923 O 677.162 0.0876295 -1.79787 0
M  V30 6924 H 673.537 -0.235339 -0.714227 0
M  V30 6925 H 675.508 -1.70527 -2.44874 0
M  V30 6926 C 674.257 -0.25116 -3.46792 0
M  V30 6927 H 673.58 -1.02123 -3.86537 0
M  V30 6928 H 675.02 -0.0521409 -4.23968 0
M  V30 6929 C 673.479 1.02037 -3.21076 0
M  V30 6930 O 674.009 2.09862 -3.42522 0
M  V30 6931 N 672.215 0.946348 -2.74759 0
M  V30 6932 H 671.762 0.068777 -2.57508 0
M  V30 6933 H 671.72 1.79775 -2.57931 0
M  V30 6934 N 675.492 1.28418 -0.913599 0
M  V30 6935 C 676.424 2.26368 -0.359169 0
M  V30 6936 C 677.437 1.54858 0.502285 0
M  V30 6937 O 678.626 1.75659 0.31719 0
M  V30 6938 C 675.726 3.35112 0.50526 0
M  V30 6939 C 674.899 4.36126 -0.333648 0
M  V30 6940 C 673.958 5.24134 0.465845 0
M  V30 6941 O 672.984 5.6907 -0.121538 0
M  V30 6942 N 674.186 5.52892 1.76891 0
M  V30 6943 H 676.951 2.74579 -1.2011 0
M  V30 6944 H 674.512 1.41898 -0.779532 0
M  V30 6945 H 676.504 3.90926 1.04684 0
M  V30 6946 H 675.074 2.86611 1.2479 0
M  V30 6947 H 674.294 3.79776 -1.0566 0
M  V30 6948 H 675.582 5.00638 -0.907669 0
M  V30 6949 H 674.98 5.18217 2.26865 0
M  V30 6950 H 673.537 6.11464 2.25732 0
M  V30 6951 N 676.97 0.677563 1.42291 0
M  V30 6952 C 678.217 0.200975 2.015 0
M  V30 6953 C 678.545 -1.19342 1.53583 0
M  V30 6954 O 677.8 -1.81579 0.7299 0
M  V30 6955 C 678.099 0.187229 3.56909 0
M  V30 6956 C 677.765 1.52667 4.24268 0
M  V30 6957 C 676.427 1.89341 4.42384 0
M  V30 6958 C 678.779 2.40869 4.62203 0
M  V30 6959 C 676.107 3.13836 4.95705 0
M  V30 6960 C 678.459 3.64679 5.16906 0
M  V30 6961 C 677.123 4.01519 5.33234 0
M  V30 6962 H 676.393 0.0735418 0.737342 0
M  V30 6963 H 679.04 0.873095 1.70439 0
M  V30 6964 H 677.345 -0.568407 3.87655 0
M  V30 6965 H 679.042 -0.198773 4.00507 0
M  V30 6966 H 675.632 1.23138 4.1053 0
M  V30 6967 H 679.816 2.1382 4.47878 0
M  V30 6968 H 675.072 3.42396 5.06532 0
M  V30 6969 H 679.246 4.33224 5.45243 0
M  V30 6970 H 676.873 4.98062 5.74316 0
M  V30 6971 N 678.448 -1.51871 0.421078 0
M  V30 6972 C 679.673 -2.0684 -0.152371 0
M  V30 6973 C 680.098 -1.28802 -1.37083 0
M  V30 6974 O 679.456 -0.321482 -1.78427 0
M  V30 6975 C 679.504 -3.57532 -0.469368 0
M  V30 6976 O 678.608 -3.81818 -1.55848 0
M  V30 6977 H 677.949 -0.663939 -0.00898586 0
M  V30 6978 H 680.479 -1.95674 0.597724 0
M  V30 6979 H 680.489 -4.01515 -0.724553 0
M  V30 6980 H 679.164 -4.13761 0.421276 0
M  V30 6981 H 677.741 -3.49709 -1.29453 0
M  V30 6982 N 679.926 -0.151884 -1.56866 0
M  V30 6983 C 680.856 0.781943 -2.20018 0
M  V30 6984 C 681.837 1.25347 -1.14987 0
M  V30 6985 O 683.022 1.31015 -1.43348 0
M  V30 6986 C 680.152 2.01928 -2.82564 0
M  V30 6987 C 679.106 1.68434 -3.93464 0
M  V30 6988 C 678.432 2.99472 -4.42968 0
M  V30 6989 C 679.732 0.927244 -5.14003 0
M  V30 6990 H 681.426 0.255607 -2.98307 0
M  V30 6991 H 678.972 0.121502 -1.43486 0
M  V30 6992 H 680.925 2.67741 -3.25411 0
M  V30 6993 H 679.649 2.56943 -2.01614 0
M  V30 6994 H 678.308 1.04998 -3.51242 0
M  V30 6995 H 677.956 3.52488 -3.58834 0
M  V30 6996 H 677.656 2.77823 -5.17772 0
M  V30 6997 H 679.18 3.66348 -4.88489 0
M  V30 6998 H 680.594 1.48756 -5.53665 0
M  V30 6999 H 678.991 0.810513 -5.94601 0
M  V30 7000 H 680.061 -0.0801163 -4.84834 0
M  V30 7001 N 681.404 1.57128 0.121893 0
M  V30 7002 C 682.651 1.847 0.830188 0
M  V30 7003 C 682.979 0.736543 1.80015 0
M  V30 7004 O 682.234 -0.272358 1.93796 0
M  V30 7005 C 682.533 3.1874 1.61677 0
M  V30 7006 C 682.199 4.43901 0.791361 0
M  V30 7007 C 680.861 4.77887 0.563731 0
M  V30 7008 C 683.213 5.20753 0.215823 0
M  V30 7009 C 680.541 5.86168 -0.249737 0
M  V30 7010 C 682.893 6.29891 -0.584821 0
M  V30 7011 C 681.557 6.6241 -0.822794 0
M  V30 7012 H 680.827 0.675866 0.303787 0
M  V30 7013 H 683.474 1.91276 0.0926894 0
M  V30 7014 H 681.779 3.07728 2.42509 0
M  V30 7015 H 683.476 3.37295 2.16872 0
M  V30 7016 H 680.066 4.17272 0.978867 0
M  V30 7017 H 684.25 4.94851 0.378907 0
M  V30 7018 H 679.506 6.0979 -0.44336 0
M  V30 7019 H 683.68 6.88624 -1.03779 0
M  V30 7020 H 681.307 7.46147 -1.45496 0
M  V30 7021 N 682.882 -0.391992 1.52647 0
M  V30 7022 C 683.812 -1.48517 1.8018 0
M  V30 7023 C 684.793 -1.57039 0.653667 0
M  V30 7024 O 685.978 -1.72036 0.900962 0
M  V30 7025 C 683.108 -2.86161 1.96797 0
M  V30 7026 C 682.062 -2.92481 3.12472 0
M  V30 7027 C 681.388 -4.32546 3.14338 0
M  V30 7028 C 682.688 -2.624 4.51601 0
M  V30 7029 H 684.382 -1.25726 2.71723 0
M  V30 7030 H 681.928 -0.603387 1.30749 0
M  V30 7031 H 683.881 -3.62639 2.14641 0
M  V30 7032 H 682.605 -3.10283 1.01941 0
M  V30 7033 H 681.264 -2.18451 2.94406 0
M  V30 7034 H 680.912 -4.53703 2.1717 0
M  V30 7035 H 680.612 -4.37695 3.92042 0
M  V30 7036 H 682.136 -5.10934 3.34333 0
M  V30 7037 H 683.55 -3.28596 4.69785 0
M  V30 7038 H 681.947 -2.78903 5.3135 0
M  V30 7039 H 683.017 -1.57754 4.58521 0
M  V30 7040 N 684.36 -1.4356 -0.65026 0
M  V30 7041 C 685.606 -1.45549 -1.41221 0
M  V30 7042 C 685.939 -0.0805472 -1.94033 0
M  V30 7043 O 685.214 0.899043 -1.72475 0
M  V30 7044 C 685.497 -2.50028 -2.59148 0
M  V30 7045 C 685.35 -3.96808 -2.1181 0
M  V30 7046 C 686.669 -2.51212 -3.61359 0
M  V30 7047 H 683.788 -0.529967 -0.512156 0
M  V30 7048 H 686.43 -1.75127 -0.736933 0
M  V30 7049 H 684.58 -2.24937 -3.16758 0
M  V30 7050 H 686.252 -4.32966 -1.59178 0
M  V30 7051 H 684.495 -4.09498 -1.43156 0
M  V30 7052 H 685.166 -4.6553 -2.96625 0
M  V30 7053 H 687.642 -2.73583 -3.13515 0
M  V30 7054 H 686.518 -3.26252 -4.41419 0
M  V30 7055 H 686.779 -1.54701 -4.1415 0
M  V30 7056 N 685.838 0.888903 -1.30139 0
M  V30 7057 C 687.086 1.63713 -1.18501 0
M  V30 7058 C 687.407 1.9324 0.261399 0
M  V30 7059 O 686.677 1.56608 1.17689 0
M  V30 7060 H 685.257 0.606861 -0.435579 0
M  V30 7061 H 687.919 1.06525 -1.63213 0
M  V30 7062 H 687.015 2.58894 -1.743 0
M  V30 7063 N 687.317 1.12792 1.10072 0
M  V30 7064 C 688.542 0.908838 1.86427 0
M  V30 7065 C 688.967 -0.536793 1.80278 0
M  V30 7066 O 688.325 -1.38033 1.17543 0
M  V30 7067 C 688.373 1.39295 3.3261 0
M  V30 7068 O 687.477 0.573846 4.08388 0
M  V30 7069 H 686.818 0.326234 0.578331 0
M  V30 7070 H 689.348 1.50094 1.39043 0
M  V30 7071 H 689.358 1.39366 3.83459 0
M  V30 7072 H 688.033 2.44555 3.36401 0
M  V30 7073 H 686.61 0.640438 3.67359 0
M  V30 7074 N 688.795 -1.27931 0.920396 0
M  V30 7075 C 690.043 -1.94304 0.555906 0
M  V30 7076 C 690.364 -1.72753 -0.904519 0
M  V30 7077 O 689.634 -1.07104 -1.64029 0
M  V30 7078 H 688.214 -0.719001 0.202599 0
M  V30 7079 H 690.876 -1.55785 1.1712 0
M  V30 7080 H 689.972 -3.02806 0.755981 0
M  V30 7081 N 690.273 -0.685099 -1.4193 0
M  V30 7082 C 691.521 -0.21124 -2.00993 0
M  V30 7083 C 691.842 1.18985 -1.54491 0
M  V30 7084 O 691.112 1.8009 -0.771 0
M  V30 7085 H 689.692 -0.0751059 -0.743215 0
M  V30 7086 H 692.354 -0.883915 -1.73704 0
M  V30 7087 H 691.45 -0.220513 -3.1132 0
M  V30 7088 N 691.751 1.51645 -0.429126 0
M  V30 7089 C 692.998 2.02015 0.140079 0
M  V30 7090 C 693.326 1.31374 1.43427 0
M  V30 7091 O 692.581 0.414779 1.91254 0
M  V30 7092 C 692.88 3.54989 0.414472 0
M  V30 7093 C 692.546 4.43874 -0.792911 0
M  V30 7094 C 691.208 4.67887 -1.12404 0
M  V30 7095 C 693.56 4.96074 -1.59875 0
M  V30 7096 C 690.888 5.41348 -2.26184 0
M  V30 7097 C 693.24 5.70782 -2.72747 0
M  V30 7098 C 691.904 5.93062 -3.06324 0
M  V30 7099 H 691.174 0.739225 0.0512585 0
M  V30 7100 H 693.821 1.82675 -0.574641 0
M  V30 7101 H 692.126 3.72615 1.21099 0
M  V30 7102 H 693.823 3.91489 0.868173 0
M  V30 7103 H 690.413 4.25374 -0.524871 0
M  V30 7104 H 694.597 4.77412 -1.35614 0
M  V30 7105 H 689.853 5.56815 -2.52522 0
M  V30 7106 H 694.027 6.10221 -3.35564 0
M  V30 7107 H 691.654 6.49764 -3.94602 0
M  V30 7108 N 693.229 0.160201 1.56784 0
M  V30 7109 C 694.477 -0.486625 1.96154 0
M  V30 7110 C 694.798 -1.64525 1.04673 0
M  V30 7111 O 694.068 -1.95586 0.110864 0
M  V30 7112 H 692.648 -0.182764 0.724297 0
M  V30 7113 H 695.31 0.238787 1.93432 0
M  V30 7114 H 694.406 -0.854025 3.00188 0
M  V30 7115 N 694.707 -1.5719 -0.113559 0
M  V30 7116 C 695.955 -1.84772 -0.818761 0
M  V30 7117 C 696.276 -0.746196 -1.80158 0
M  V30 7118 O 695.546 0.229305 -1.94553 0
M  V30 7119 H 694.126 -0.681737 -0.305359 0
M  V30 7120 H 696.788 -1.94645 -0.0995845 0
M  V30 7121 H 695.884 -2.80878 -1.36067 0
M  V30 7122 N 696.185 0.383891 -1.52853 0
M  V30 7123 C 697.132 1.46924 -1.77995 0
M  V30 7124 C 698.102 1.53958 -0.623396 0
M  V30 7125 O 699.287 1.70134 -0.863657 0
M  V30 7126 C 696.427 2.84093 -1.95921 0
M  V30 7127 C 695.54 2.86171 -3.23621 0
M  V30 7128 C 694.675 4.14799 -3.31836 0
M  V30 7129 C 693.714 4.10948 -4.53639 0
M  V30 7130 N 692.851 5.31192 -4.59107 0
M  V30 7131 H 697.691 1.24786 -2.70615 0
M  V30 7132 H 695.228 0.605265 -1.34071 0
M  V30 7133 H 697.186 3.63755 -2.04299 0
M  V30 7134 H 695.816 3.04671 -1.06656 0
M  V30 7135 H 694.868 1.9885 -3.24288 0
M  V30 7136 H 696.18 2.79194 -4.13343 0
M  V30 7137 H 695.334 5.02867 -3.39425 0
M  V30 7138 H 694.073 4.24505 -2.40097 0
M  V30 7139 H 693.078 3.21268 -4.46169 0
M  V30 7140 H 694.303 4.0286 -5.467 0
M  V30 7141 H 692.249 5.41518 -3.70262 0
M  V30 7142 H 692.166 5.26311 -5.42708 0
M  V30 7143 H 693.434 6.21143 -4.70958 0
M  V30 7144 N 697.663 1.43903 0.642637 0
M  V30 7145 C 699.079 1.27536 0.959519 0
M  V30 7146 C 699.279 0.202751 2.00477 0
M  V30 7147 O 698.335 -0.415256 2.49062 0
M  V30 7148 C 699.648 2.6432 1.43372 0
M  V30 7149 C 701.196 2.71937 1.54981 0
M  V30 7150 C 701.671 4.09164 2.05789 0
M  V30 7151 N 703.162 4.11282 2.13076 0
M  V30 7152 C 703.897 5.14303 2.53534 0
M  V30 7153 N 703.393 6.27693 2.93212 0
M  V30 7154 N 705.186 5.01657 2.53567 0
M  V30 7155 H 697.337 2.12344 -0.0488376 0
M  V30 7156 H 699.6 0.947124 0.0407559 0
M  V30 7157 H 699.306 3.43826 0.740048 0
M  V30 7158 H 699.18 2.90432 2.40685 0
M  V30 7159 H 701.567 1.92757 2.23448 0
M  V30 7160 H 701.648 2.49578 0.560739 0
M  V30 7161 H 701.292 4.88815 1.37921 0
M  V30 7162 H 701.222 4.28893 3.05546 0
M  V30 7163 H 703.713 3.2944 1.85143 0
M  V30 7164 H 704.026 7.02125 3.22863 0
M  V30 7165 H 702.371 6.31149 2.90991 0
M  V30 7166 H 705.562 4.12134 2.21952 0
M  V30 7167 H 705.735 5.82072 2.84774 0
M  V30 7168 N 699.141 -0.881989 1.30609 0
M  V30 7169 C 700.369 -1.66711 1.22536 0
M  V30 7170 C 700.784 -1.87614 -0.2113 0
M  V30 7171 O 700.141 -1.42576 -1.13923 0
M  V30 7172 C 700.192 -3.04182 1.95335 0
M  V30 7173 O 699.913 -2.8422 3.33393 0
M  V30 7174 C 701.414 -3.98617 1.93956 0
M  V30 7175 H 698.634 -0.520124 0.423925 0
M  V30 7176 H 701.178 -1.10174 1.72285 0
M  V30 7177 H 699.333 -3.57442 1.49378 0
M  V30 7178 H 699.747 -3.71452 3.70302 0
M  V30 7179 H 701.221 -4.92433 2.49426 0
M  V30 7180 H 701.698 -4.29473 0.919198 0
M  V30 7181 H 702.304 -3.51292 2.39738 0
M  V30 7182 N 700.619 -1.13374 -1.09472 0
M  V30 7183 C 701.844 -0.918711 -1.85942 0
M  V30 7184 C 702.269 0.527225 -1.8056 0
M  V30 7185 O 701.627 1.37408 -1.18274 0
M  V30 7186 C 701.675 -1.41056 -3.31867 0
M  V30 7187 O 700.779 -0.595496 -4.08078 0
M  V30 7188 H 700.12 -0.329297 -0.576593 0
M  V30 7189 H 702.65 -1.50829 -1.38245 0
M  V30 7190 H 702.66 -1.41398 -3.82715 0
M  V30 7191 H 701.335 -2.46335 -3.35099 0
M  V30 7192 H 699.912 -0.659911 -3.67014 0
M  V30 7193 N 702.098 1.27442 -0.927168 0
M  V30 7194 C 703.375 1.89473 -0.485742 0
M  V30 7195 C 703.755 1.83922 1.03614 0
M  V30 7196 O 703.103 1.28409 1.89007 0
M  V30 7197 C 703.313 3.33417 -1.03123 0
M  V30 7198 C 704.661 4.10333 -1.0914 0
M  V30 7199 O 705.685 3.4243 -0.98082 0
M  V30 7200 O 704.544 5.31737 -1.26165 0
M  V30 7201 H 701.638 0.812124 -0.156154 0
M  V30 7202 H 704.184 1.35713 -1.01882 0
M  V30 7203 H 702.956 3.31747 -2.07508 0
M  V30 7204 H 702.579 3.94695 -0.479767 0
M  V30 7205 N 703.576 0.692616 1.41565 0
M  V30 7206 C 704.523 0.0254264 2.30786 0
M  V30 7207 C 705.493 -0.774347 1.46946 0
M  V30 7208 O 706.678 -0.742981 1.7574 0
M  V30 7209 C 703.818 -0.907123 3.32964 0
M  V30 7210 C 702.931 -0.0992784 4.31886 0
M  V30 7211 C 702.066 -1.0292 5.21134 0
M  V30 7212 C 701.105 -0.214088 6.11725 0
M  V30 7213 N 700.242 -1.09766 6.93467 0
M  V30 7214 H 705.082 0.792036 2.87282 0
M  V30 7215 H 702.619 0.4023 1.41492 0
M  V30 7216 H 704.577 -1.46181 3.90752 0
M  V30 7217 H 703.207 -1.64016 2.78026 0
M  V30 7218 H 702.259 0.572287 3.76071 0
M  V30 7219 H 703.571 0.532782 4.95946 0
M  V30 7220 H 702.725 -1.65321 5.83741 0
M  V30 7221 H 701.464 -1.69512 4.57293 0
M  V30 7222 H 700.469 0.42302 5.4817 0
M  V30 7223 H 701.694 0.447995 6.77621 0
M  V30 7224 H 699.64 -1.74965 6.32237 0
M  V30 7225 H 699.557 -0.521099 7.54202 0
M  V30 7226 H 700.825 -1.70858 7.60544 0
M  V30 7227 N 705.054 -1.51416 0.437162 0
M  V30 7228 C 706.3 -2.02386 -0.129555 0
M  V30 7229 C 706.633 -1.32071 -1.42376 0
M  V30 7230 O 705.908 -0.43559 -1.8956 0
M  V30 7231 C 706.191 -3.5841 -0.348487 0
M  V30 7232 C 706.044 -4.39341 0.964352 0
M  V30 7233 C 707.363 -4.25654 -1.11834 0
M  V30 7234 H 704.482 -0.735587 -0.0456109 0
M  V30 7235 H 707.124 -1.81055 0.576124 0
M  V30 7236 H 705.274 -3.76716 -0.949592 0
M  V30 7237 H 706.946 -4.32685 1.59942 0
M  V30 7238 H 705.189 -4.04432 1.56898 0
M  V30 7239 H 705.86 -5.4667 0.765212 0
M  V30 7240 H 708.336 -4.11617 -0.609165 0
M  V30 7241 H 707.212 -5.34704 -1.24029 0
M  V30 7242 H 707.473 -3.86502 -2.14636 0
M  V30 7243 N 706.532 -0.168513 -1.56696 0
M  V30 7244 C 707.479 0.762875 -2.17828 0
M  V30 7245 C 708.449 1.22892 -1.11745 0
M  V30 7246 O 709.634 1.29759 -1.39883 0
M  V30 7247 C 706.774 1.9879 -2.82093 0
M  V30 7248 C 705.887 1.56568 -4.02629 0
M  V30 7249 C 705.022 2.74416 -4.54829 0
M  V30 7250 C 704.061 2.28671 -5.67782 0
M  V30 7251 N 703.198 3.39602 -6.14504 0
M  V30 7252 H 708.038 0.23479 -2.97074 0
M  V30 7253 H 705.575 0.104163 -1.46731 0
M  V30 7254 H 707.533 2.70636 -3.17509 0
M  V30 7255 H 706.163 2.48973 -2.05456 0
M  V30 7256 H 705.215 0.744067 -3.73052 0
M  V30 7257 H 706.527 1.18988 -4.844 0
M  V30 7258 H 705.681 3.54423 -4.92412 0
M  V30 7259 H 704.42 3.15254 -3.7211 0
M  V30 7260 H 703.425 1.4711 -5.29753 0
M  V30 7261 H 704.65 1.88894 -6.52301 0
M  V30 7262 H 702.596 3.80021 -5.34715 0
M  V30 7263 H 702.513 3.06105 -6.91257 0
M  V30 7264 H 703.781 4.19902 -6.56737 0
M  V30 7265 N 708.01 1.57248 0.105221 0
M  V30 7266 C 709.256 1.85845 0.811753 0
M  V30 7267 C 709.589 0.756219 1.78871 0
M  V30 7268 O 708.864 -0.236736 1.93054 0
M  V30 7269 C 709.147 3.25059 1.54947 0
M  V30 7270 C 709 4.45898 0.591185 0
M  V30 7271 C 710.319 3.6203 2.50245 0
M  V30 7272 H 707.438 0.675973 0.293649 0
M  V30 7273 H 710.08 1.89849 0.0756269 0
M  V30 7274 H 708.23 3.21776 2.17698 0
M  V30 7275 H 709.902 4.61291 -0.0285352 0
M  V30 7276 H 708.145 4.33693 -0.0962343 0
M  V30 7277 H 708.816 5.40009 1.1443 0
M  V30 7278 H 711.292 3.66192 1.97593 0
M  V30 7279 H 710.168 4.60389 2.98886 0
M  V30 7280 H 710.429 2.90176 3.33542 0
M  V30 7281 N 709.488 -0.375779 1.53054 0
M  V30 7282 C 710.451 -1.44254 1.7811 0
M  V30 7283 C 711.451 -1.47018 0.651328 0
M  V30 7284 O 712.641 -1.47957 0.919472 0
M  V30 7285 C 709.773 -2.8345 1.89391 0
M  V30 7286 H 710.966 -1.23316 2.73374 0
M  V30 7287 H 708.519 -0.608312 1.43977 0
M  V30 7288 H 709.254 -3.09716 0.961589 0
M  V30 7289 H 709.039 -2.82844 2.71555 0
M  V30 7290 H 710.529 -3.60722 2.10404 0
M  V30 7291 N 710.966 -1.44241 -0.634997 0
M  V30 7292 C 712.212 -1.47038 -1.39669 0
M  V30 7293 C 712.545 -0.101122 -1.93937 0
M  V30 7294 O 711.82 0.880699 -1.73418 0
M  V30 7295 C 712.103 -2.52763 -2.56482 0
M  V30 7296 C 711.956 -3.99032 -2.07589 0
M  V30 7297 C 713.275 -2.55031 -3.58674 0
M  V30 7298 H 710.394 -0.53537 -0.506506 0
M  V30 7299 H 713.036 -1.75898 -0.718317 0
M  V30 7300 H 711.186 -2.28284 -3.14354 0
M  V30 7301 H 712.858 -4.3463 -1.54577 0
M  V30 7302 H 711.101 -4.10994 -1.38804 0
M  V30 7303 H 711.772 -4.68649 -2.91671 0
M  V30 7304 H 714.248 -2.76893 -3.10595 0
M  V30 7305 H 713.124 -3.30916 -4.37934 0
M  V30 7306 H 713.385 -1.59085 -4.12486 0
M  V30 7307 N 712.444 0.87505 -1.31075 0
M  V30 7308 C 713.407 1.96333 -1.18263 0
M  V30 7309 C 714.407 1.60416 -0.111106 0
M  V30 7310 O 715.597 1.7044 -0.359987 0
M  V30 7311 C 712.729 3.31036 -0.81414 0
M  V30 7312 H 713.922 2.09125 -2.14958 0
M  V30 7313 H 711.475 1.06271 -1.14614 0
M  V30 7314 H 712.21 3.23944 0.151875 0
M  V30 7315 H 711.995 3.58476 -1.58862 0
M  V30 7316 H 713.485 4.10842 -0.748249 0
M  V30 7317 N 713.922 1.13953 1.08869 0
M  V30 7318 C 715.171 0.899431 1.80536 0
M  V30 7319 C 715.484 -0.575781 1.86933 0
M  V30 7320 O 716.69 -0.932988 2.54966 0
M  V30 7321 C 715.146 1.55963 3.24351 0
M  V30 7322 C 714.754 3.07077 3.26202 0
M  V30 7323 C 716.498 1.40046 4.00733 0
M  V30 7324 C 714.405 3.65955 4.64576 0
M  V30 7325 H 713.335 0.332849 0.676556 0
M  V30 7326 H 715.986 1.3679 1.22314 0
M  V30 7327 H 714.368 1.01883 3.82669 0
M  V30 7328 H 715.542 3.67785 2.77617 0
M  V30 7329 H 713.857 3.22576 2.63312 0
M  V30 7330 H 716.454 1.81441 5.02974 0
M  V30 7331 H 716.797 0.345993 4.1486 0
M  V30 7332 H 717.33 1.91137 3.48872 0
M  V30 7333 H 714.069 4.71234 4.55652 0
M  V30 7334 H 713.589 3.10027 5.13462 0
M  V30 7335 H 715.268 3.65968 5.33551 0
M  V30 7336 N 715.4 -1.26948 0.933913 0
M  V30 7337 C 716.811 -1.76058 0.621324 0
M  V30 7338 C 717.162 -1.76175 -0.863522 0
M  V30 7339 O 716.287 -1.36921 -1.67576 0
M  V30 7340 C 716.882 -3.19713 1.12111 0
M  V30 7341 C 715.441 -3.66465 0.859074 0
M  V30 7342 C 714.588 -2.46186 1.27624 0
M  V30 7343 H 717.539 -1.13127 1.11301 0
M  V30 7344 H 717.56 -3.77566 0.471608 0
M  V30 7345 H 717.072 -3.19596 2.20182 0
M  V30 7346 H 715.173 -3.72021 -0.207566 0
M  V30 7347 H 715.286 -4.55636 1.48098 0
M  V30 7348 H 713.65 -2.45042 0.694727 0
M  V30 7349 H 714.433 -2.48774 2.36572 0
M  V30 7350 N 716.879 -0.700114 -1.41195 0
M  V30 7351 C 717.827 -0.0263301 -2.32585 0
M  V30 7352 C 718.821 0.763683 -1.51209 0
M  V30 7353 O 720.027 0.668793 -1.67114 0
M  V30 7354 H 716.402 0.0102869 -0.75193 0
M  V30 7355 H 718.373 -0.814087 -2.8708 0
M  V30 7356 C 717.122 0.892793 -3.36042 0
M  V30 7357 H 716.445 0.294306 -3.98715 0
M  V30 7358 H 717.885 1.33247 -4.02518 0
M  V30 7359 C 716.344 2.01109 -2.7029 0
M  V30 7360 O 716.874 3.10035 -2.55423 0
M  V30 7361 N 715.08 1.79015 -2.28915 0
M  V30 7362 H 714.627 0.904275 -2.41207 0
M  V30 7363 H 714.585 2.54022 -1.85257 0
M  V30 7364 N 718.357 1.51182 -0.445186 0
M  V30 7365 C 719.773 1.59299 -0.0978954 0
M  V30 7366 C 719.973 1.4555 1.39346 0
M  V30 7367 O 719.029 1.30073 2.16419 0
M  V30 7368 C 720.342 2.94133 -0.625005 0
M  V30 7369 C 721.89 3.07463 -0.586137 0
M  V30 7370 C 722.365 4.44832 -1.09035 0
M  V30 7371 N 723.856 4.51173 -1.04867 0
M  V30 7372 C 724.591 5.55804 -1.40959 0
M  V30 7373 N 724.087 6.67816 -1.84375 0
M  V30 7374 N 725.88 5.46205 -1.32726 0
M  V30 7375 H 718.031 1.58363 -1.41544 0
M  V30 7376 H 720.294 0.746946 -0.58376 0
M  V30 7377 H 720 3.09589 -1.66876 0
M  V30 7378 H 719.874 3.77161 -0.0542262 0
M  V30 7379 H 722.261 2.9167 0.448646 0
M  V30 7380 H 722.342 2.26255 -1.19341 0
M  V30 7381 H 721.986 4.61372 -2.12364 0
M  V30 7382 H 721.916 5.24591 -0.459539 0
M  V30 7383 H 724.407 3.70783 -0.729932 0
M  V30 7384 H 724.72 7.43683 -2.10131 0
M  V30 7385 H 723.065 6.69003 -1.88308 0
M  V30 7386 H 726.256 4.57583 -0.986678 0
M  V30 7387 H 726.429 6.27634 -1.61182 0
M  V30 7388 N 719.835 0.176821 1.56605 0
M  V30 7389 C 721.246 -0.338963 1.83597 0
M  V30 7390 C 721.597 -1.62677 1.09684 0
M  V30 7391 O 720.722 -2.13524 0.351661 0
M  V30 7392 C 721.317 -0.62177 3.33046 0
M  V30 7393 C 719.876 -1.08198 3.60514 0
M  V30 7394 C 719.023 -0.120774 2.77037 0
M  V30 7395 H 721.974 0.400978 1.53551 0
M  V30 7396 H 721.995 -1.47321 3.50823 0
M  V30 7397 H 721.507 0.315692 3.86814 0
M  V30 7398 H 719.608 -2.03435 3.12162 0
M  V30 7399 H 719.721 -0.987329 4.68816 0
M  V30 7400 H 718.085 -0.619192 2.47059 0
M  V30 7401 H 718.868 0.810806 3.33588 0
M  V30 7402 N 721.313 -1.57302 -0.09688 0
M  V30 7403 C 722.724 -1.7496 -0.651595 0
M  V30 7404 C 723.075 -0.798746 -1.79205 0
M  V30 7405 O 722.2 0.0231858 -2.16388 0
M  V30 7406 C 722.795 -3.17259 -1.18878 0
M  V30 7407 C 721.354 -3.36348 -1.68958 0
M  V30 7408 C 720.501 -2.70766 -0.598413 0
M  V30 7409 H 723.452 -1.58173 0.12918 0
M  V30 7410 H 723.473 -3.20033 -2.05814 0
M  V30 7411 H 722.985 -3.8644 -0.358523 0
M  V30 7412 H 721.086 -2.72243 -2.5439 0
M  V30 7413 H 721.199 -4.44654 -1.7838 0
M  V30 7414 H 719.563 -2.32615 -1.03743 0
M  V30 7415 H 720.346 -3.42586 0.221238 0
M  V30 7416 N 722.791 0.367657 -1.53252 0
M  V30 7417 C 724.068 1.12606 -1.59935 0
M  V30 7418 C 724.448 2.07167 -0.405606 0
M  V30 7419 O 723.796 2.20364 0.604323 0
M  V30 7420 C 724.006 1.86699 -2.94863 0
M  V30 7421 C 725.354 2.41306 -3.49366 0
M  V30 7422 O 726.378 1.96828 -2.96879 0
M  V30 7423 O 725.237 3.2261 -4.41118 0
M  V30 7424 H 722.331 0.516438 -0.645926 0
M  V30 7425 H 724.877 0.371088 -1.65593 0
M  V30 7426 H 723.649 1.17674 -3.73187 0
M  V30 7427 H 723.272 2.6911 -2.92687 0
M  V30 7428 N 724.269 1.44576 0.627338 0
M  V30 7429 C 725.232 1.51372 1.72102 0
M  V30 7430 C 726.232 0.395329 1.55865 0
M  V30 7431 O 727.422 0.658094 1.61291 0
M  V30 7432 C 724.554 1.39129 3.11217 0
M  V30 7433 H 725.747 2.48798 1.6745 0
M  V30 7434 H 723.3 1.31724 0.841336 0
M  V30 7435 H 724.035 0.428114 3.21462 0
M  V30 7436 H 723.82 2.20229 3.24409 0
M  V30 7437 H 725.31 1.46874 3.90919 0
M  V30 7438 N 725.747 -0.868086 1.31537 0
M  V30 7439 C 726.993 -1.62367 1.2151 0
M  V30 7440 C 727.326 -1.92883 -0.225819 0
M  V30 7441 O 726.601 -1.56176 -1.15927 0
M  V30 7442 C 726.884 -2.95268 2.06129 0
M  V30 7443 C 726.737 -2.71619 3.58529 0
M  V30 7444 C 728.056 -3.96391 1.91212 0
M  V30 7445 H 725.175 -0.589178 0.442762 0
M  V30 7446 H 727.817 -1.00336 1.61347 0
M  V30 7447 H 725.967 -3.4821 1.72284 0
M  V30 7448 H 727.639 -2.25334 4.0252 0
M  V30 7449 H 725.882 -2.05817 3.81866 0
M  V30 7450 H 726.553 -3.66192 4.13047 0
M  V30 7451 H 729.029 -3.52663 2.20834 0
M  V30 7452 H 727.905 -4.87263 2.52718 0
M  V30 7453 H 728.166 -4.33335 0.875953 0
M  V30 7454 N 727.225 -1.14528 -1.08264 0
M  V30 7455 C 728.155 -0.856356 -2.1723 0
M  V30 7456 C 729.136 0.189251 -1.69044 0
M  V30 7457 O 730.321 0.0456119 -1.94146 0
M  V30 7458 C 727.451 -0.334662 -3.45684 0
M  V30 7459 C 726.405 -1.31588 -4.0727 0
M  V30 7460 C 725.731 -0.653428 -5.30692 0
M  V30 7461 C 727.031 -2.67866 -4.48381 0
M  V30 7462 H 728.725 -1.76755 -2.41657 0
M  V30 7463 H 726.271 -0.851287 -1.16143 0
M  V30 7464 H 728.224 -0.120128 -4.21229 0
M  V30 7465 H 726.948 0.611967 -3.20815 0
M  V30 7466 H 725.607 -1.51661 -3.33758 0
M  V30 7467 H 725.255 0.299054 -5.0211 0
M  V30 7468 H 724.955 -1.30817 -5.72853 0
M  V30 7469 H 726.479 -0.448453 -6.08951 0
M  V30 7470 H 727.893 -2.51692 -5.15096 0
M  V30 7471 H 726.29 -3.29627 -5.01464 0
M  V30 7472 H 727.36 -3.24632 -3.60198 0
M  V30 7473 N 728.703 1.26451 -0.940633 0
M  V30 7474 C 729.931 1.97868 -0.604642 0
M  V30 7475 C 730.346 1.70051 0.820251 0
M  V30 7476 O 729.703 0.96843 1.54686 0
M  V30 7477 C 729.754 3.51684 -0.836689 0
M  V30 7478 O 729.475 3.78533 -2.20554 0
M  V30 7479 C 730.976 4.40343 -0.511169 0
M  V30 7480 H 728.196 0.631105 -0.227919 0
M  V30 7481 H 730.74 1.60979 -1.26119 0
M  V30 7482 H 728.895 3.86736 -0.226759 0
M  V30 7483 H 729.309 4.73065 -2.26517 0
M  V30 7484 H 730.783 5.47229 -0.724157 0
M  V30 7485 H 731.26 4.35694 0.553815 0
M  V30 7486 H 731.866 4.10834 -1.0998 0
M  V30 7487 N 730.181 0.707592 1.40822 0
M  V30 7488 C 731.458 0.171172 1.9485 0
M  V30 7489 C 731.838 -1.32143 1.64625 0
M  V30 7490 O 731.186 -2.07372 0.959647 0
M  V30 7491 C 731.396 0.475334 3.45748 0
M  V30 7492 C 732.744 0.409625 4.22619 0
M  V30 7493 O 733.768 0.410934 3.53822 0
M  V30 7494 O 732.627 0.380185 5.45176 0
M  V30 7495 H 729.721 0.022015 0.826707 0
M  V30 7496 H 732.267 0.784577 1.50474 0
M  V30 7497 H 731.039 1.50801 3.61075 0
M  V30 7498 H 730.662 -0.168439 3.97243 0
M  V30 7499 N 731.66 -1.50943 0.453197 0
M  V30 7500 C 732.888 -2.06628 -0.106135 0
M  V30 7501 C 733.303 -1.31901 -1.35084 0
M  V30 7502 O 732.66 -0.383074 -1.78434 0
M  V30 7503 C 732.711 -3.5914 -0.412368 0
M  V30 7504 O 732.432 -4.31047 0.782948 0
M  V30 7505 C 733.933 -4.31391 -1.02064 0
M  V30 7506 H 731.153 -0.670999 -0.000885896 0
M  V30 7507 H 733.697 -1.94331 0.63684 0
M  V30 7508 H 731.852 -3.71299 -1.10526 0
M  V30 7509 H 732.266 -5.21948 0.516736 0
M  V30 7510 H 733.74 -5.39135 -1.1848 0
M  V30 7511 H 734.217 -3.90714 -2.00598 0
M  V30 7512 H 734.823 -4.23716 -0.366664 0
M  V30 7513 N 733.138 -0.185124 -1.56509 0
M  V30 7514 C 734.366 0.462139 -2.01673 0
M  V30 7515 C 734.781 1.55873 -1.06532 0
M  V30 7516 O 734.138 1.82371 -0.0684805 0
M  V30 7517 C 734.189 1.0277 -3.46584 0
M  V30 7518 O 733.91 -0.0251296 -4.38093 0
M  V30 7519 C 735.411 1.75183 -4.07217 0
M  V30 7520 H 732.631 0.117001 -0.660721 0
M  V30 7521 H 735.175 -0.290905 -2.0242 0
M  V30 7522 H 733.33 1.73118 -3.46568 0
M  V30 7523 H 733.744 0.394387 -5.23015 0
M  V30 7524 H 735.218 2.09999 -5.10494 0
M  V30 7525 H 735.695 2.6519 -3.50101 0
M  V30 7526 H 736.301 1.09445 -4.10977 0
M  V30 7527 N 734.616 1.57351 0.0885366 0
M  V30 7528 C 735.841 1.91011 0.80805 0
M  V30 7529 C 736.266 0.780009 1.71165 0
M  V30 7530 O 735.624 -0.268083 1.79307 0
M  V30 7531 C 735.672 3.23562 1.59185 0
M  V30 7532 O 734.776 3.11615 2.7013 0
M  V30 7533 H 734.117 0.625943 0.221565 0
M  V30 7534 H 736.647 2.04507 0.0617954 0
M  V30 7535 H 736.657 3.5703 1.97468 0
M  V30 7536 H 735.332 4.05398 0.928741 0
M  V30 7537 H 733.909 2.89673 2.34827 0
M  V30 7538 N 736.094 -0.359525 1.53444 0
M  V30 7539 C 737.024 -1.44662 1.8329 0
M  V30 7540 C 738.005 -1.55617 0.68683 0
M  V30 7541 O 739.19 -1.70086 0.93725 0
M  V30 7542 C 736.32 -2.81923 2.02822 0
M  V30 7543 C 735.274 -2.85787 3.18606 0
M  V30 7544 C 734.6 -4.25781 3.23442 0
M  V30 7545 C 735.9 -2.52762 4.57065 0
M  V30 7546 H 737.594 -1.19934 2.74329 0
M  V30 7547 H 735.14 -0.575517 1.31999 0
M  V30 7548 H 737.093 -3.58005 2.22285 0
M  V30 7549 H 735.817 -3.08051 1.085 0
M  V30 7550 H 734.476 -2.12157 2.98973 0
M  V30 7551 H 734.124 -4.48994 2.26745 0
M  V30 7552 H 733.824 -4.29281 4.01238 0
M  V30 7553 H 735.348 -5.03727 3.45096 0
M  V30 7554 H 736.762 -3.18557 4.76649 0
M  V30 7555 H 735.159 -2.67569 5.37147 0
M  V30 7556 H 736.229 -1.47993 4.61764 0
M  V30 7557 N 737.572 -1.44907 -0.619662 0
M  V30 7558 C 738.52 -1.52971 -1.75222 0
M  V30 7559 C 739.514 -0.400531 -1.64597 0
M  V30 7560 O 740.72 -0.575952 -1.70537 0
M  V30 7561 H 737.095 -0.480241 -0.578682 0
M  V30 7562 H 739.066 -2.48269 -1.65545 0
M  V30 7563 C 737.815 -1.50204 -3.13583 0
M  V30 7564 H 737.138 -2.36412 -3.22412 0
M  V30 7565 H 738.578 -1.59905 -3.92691 0
M  V30 7566 C 737.037 -0.22455 -3.36151 0
M  V30 7567 O 737.567 0.700574 -3.95544 0
M  V30 7568 N 735.773 -0.124052 -2.90335 0
M  V30 7569 H 735.32 -0.87774 -2.42185 0
M  V30 7570 H 735.278 0.729914 -3.0581 0
M  V30 7571 N 739.05 0.861098 -1.31996 0
M  V30 7572 C 739.982 1.97551 -1.16216 0
M  V30 7573 C 740.995 1.625 -0.0988527 0
M  V30 7574 O 742.184 1.75091 -0.3472 0
M  V30 7575 C 739.284 3.30376 -0.755307 0
M  V30 7576 C 738.457 3.93711 -1.90552 0
M  V30 7577 C 737.516 5.04862 -1.48328 0
M  V30 7578 O 736.542 5.25204 -2.19431 0
M  V30 7579 N 737.744 5.79283 -0.375656 0
M  V30 7580 H 740.509 2.11632 -2.12208 0
M  V30 7581 H 738.07 1.03559 -1.24448 0
M  V30 7582 H 740.062 4.0213 -0.455364 0
M  V30 7583 H 738.632 3.12395 0.113269 0
M  V30 7584 H 737.852 3.14825 -2.37231 0
M  V30 7585 H 739.14 4.32762 -2.67571 0
M  V30 7586 H 738.538 5.65286 0.216284 0
M  V30 7587 H 737.095 6.5166 -0.135289 0
M  V30 7588 N 740.528 1.15101 1.07655 0
M  V30 7589 C 741.491 0.847625 2.12951 0
M  V30 7590 C 742.491 -0.151227 1.60087 0
M  V30 7591 O 743.681 0.0780399 1.74025 0
M  V30 7592 C 740.813 0.265 3.39868 0
M  V30 7593 H 742.006 1.7809 2.41296 0
M  V30 7594 H 739.559 0.958072 1.23494 0
M  V30 7595 H 740.294 -0.676625 3.17163 0
M  V30 7596 H 740.079 0.984554 3.79538 0
M  V30 7597 H 741.569 0.0702121 4.17541 0
M  V30 7598 N 742.006 -1.2595 0.947325 0
M  V30 7599 C 742.969 -2.24407 0.466285 0
M  V30 7600 C 743.969 -1.55054 -0.426005 0
M  V30 7601 O 745.159 -1.7275 -0.224319 0
M  V30 7602 C 742.291 -3.39326 -0.327201 0
M  V30 7603 H 743.484 -2.68477 1.33642 0
M  V30 7604 H 741.037 -1.38211 0.729887 0
M  V30 7605 H 741.772 -3.00667 -1.21532 0
M  V30 7606 H 741.557 -3.9085 0.312839 0
M  V30 7607 H 743.047 -4.12455 -0.653477 0
M  V30 7608 N 743.484 -0.715051 -1.40445 0
M  V30 7609 C 744.414 -0.0768699 -2.33373 0
M  V30 7610 C 745.395 0.746109 -1.52863 0
M  V30 7611 O 746.58 0.695142 -1.81332 0
M  V30 7612 C 743.71 0.846014 -3.36838 0
M  V30 7613 C 742.664 0.128694 -4.27806 0
M  V30 7614 C 741.99 1.16726 -5.21804 0
M  V30 7615 C 743.29 -1.01679 -5.12307 0
M  V30 7616 H 744.984 -0.853061 -2.8699 0
M  V30 7617 H 742.53 -0.41167 -1.3799 0
M  V30 7618 H 744.483 1.30185 -4.00786 0
M  V30 7619 H 743.207 1.6541 -2.81615 0
M  V30 7620 H 741.866 -0.307314 -3.6531 0
M  V30 7621 H 741.514 1.96838 -4.62887 0
M  V30 7622 H 741.214 0.692188 -5.83509 0
M  V30 7623 H 742.738 1.62321 -5.88629 0
M  V30 7624 H 744.152 -0.640337 -5.69713 0
M  V30 7625 H 742.549 -1.4202 -5.83053 0
M  V30 7626 H 743.619 -1.84769 -4.48317 0
M  V30 7627 N 744.962 1.50701 -0.461195 0
M  V30 7628 C 746.192 2.06381 0.0950376 0
M  V30 7629 C 746.6 1.32627 1.34933 0
M  V30 7630 O 745.943 0.386137 1.79596 0
M  V30 7631 C 746.005 3.56558 0.458965 0
M  V30 7632 C 745.669 4.51732 -0.691891 0
M  V30 7633 C 746.666 4.95594 -1.57105 0
M  V30 7634 C 744.351 4.94542 -0.879407 0
M  V30 7635 C 746.345 5.80963 -2.62223 0
M  V30 7636 C 744.032 5.79695 -1.93382 0
M  V30 7637 C 745.03 6.22806 -2.80359 0
M  V30 7638 O 744.718 7.06265 -3.83986 0
M  V30 7639 H 744.45 0.676 0.000687488 0
M  V30 7640 H 747.004 1.94974 -0.646087 0
M  V30 7641 H 745.234 3.65832 1.25314 0
M  V30 7642 H 746.923 3.94647 0.949124 0
M  V30 7643 H 747.689 4.63197 -1.43783 0
M  V30 7644 H 743.568 4.60513 -0.211907 0
M  V30 7645 H 747.112 6.14533 -3.30143 0
M  V30 7646 H 743.009 6.11506 -2.06715 0
M  V30 7647 H 743.777 7.24494 -3.80855 0
M  V30 7648 N 746.441 0.193421 1.56409 0
M  V30 7649 C 747.857 -0.162447 1.58771 0
M  V30 7650 C 748.057 -1.6116 1.20954 0
M  V30 7651 O 747.113 -2.3469 0.931497 0
M  V30 7652 C 748.426 0.138391 3.00381 0
M  V30 7653 C 749.974 0.0783649 3.12902 0
M  V30 7654 C 750.449 0.352491 4.56642 0
M  V30 7655 N 751.94 0.30105 4.62221 0
M  V30 7656 C 752.675 0.487028 5.71328 0
M  V30 7657 N 752.171 0.733265 6.88909 0
M  V30 7658 N 753.964 0.4214 5.60518 0
M  V30 7659 H 746.115 1.13909 1.79272 0
M  V30 7660 H 748.378 0.454528 0.83193 0
M  V30 7661 H 748.084 1.14312 3.32604 0
M  V30 7662 H 747.958 -0.559804 3.73023 0
M  V30 7663 H 750.345 -0.916963 2.80492 0
M  V30 7664 H 750.426 0.809611 2.4265 0
M  V30 7665 H 750.07 1.34513 4.89764 0
M  V30 7666 H 750 -0.399624 5.25081 0
M  V30 7667 H 752.491 0.117279 3.77718 0
M  V30 7668 H 752.804 0.86403 7.67955 0
M  V30 7669 H 751.149 0.770138 6.9072 0
M  V30 7670 H 754.34 0.229461 4.67537 0
M  V30 7671 H 754.513 0.569758 6.4549 0
M  V30 7672 N 747.919 -1.57396 -0.0801906 0
M  V30 7673 C 748.849 -2.06145 -1.09665 0
M  V30 7674 C 749.83 -0.953273 -1.40878 0
M  V30 7675 O 751.015 -1.22548 -1.50651 0
M  V30 7676 C 748.145 -2.49836 -2.41245 0
M  V30 7677 C 747.099 -3.64454 -2.24405 0
M  V30 7678 C 746.425 -3.94172 -3.61293 0
M  V30 7679 C 747.725 -4.94807 -1.67223 0
M  V30 7680 H 749.419 -2.91316 -0.691028 0
M  V30 7681 H 746.965 -1.40145 -0.330957 0
M  V30 7682 H 748.918 -2.82552 -3.12638 0
M  V30 7683 H 747.642 -1.61683 -2.83771 0
M  V30 7684 H 746.301 -3.32008 -1.55454 0
M  V30 7685 H 745.949 -3.03163 -4.01374 0
M  V30 7686 H 745.649 -4.71345 -3.50867 0
M  V30 7687 H 747.173 -4.29376 -4.3413 0
M  V30 7688 H 748.587 -5.25807 -2.28472 0
M  V30 7689 H 746.984 -5.76245 -1.67515 0
M  V30 7690 H 748.054 -4.80751 -0.632944 0
M  V30 7691 N 749.397 0.351382 -1.53633 0
M  V30 7692 C 750.622 1.11718 -1.74739 0
M  V30 7693 C 751.047 1.81829 -0.481657 0
M  V30 7694 O 750.405 1.72264 0.565233 0
M  V30 7695 C 750.453 2.11234 -2.92254 0
M  V30 7696 O 749.557 3.186 -2.61855 0
M  V30 7697 H 748.898 0.323482 -0.579875 0
M  V30 7698 H 751.428 0.404167 -2.00568 0
M  V30 7699 H 751.438 2.54591 -3.18822 0
M  V30 7700 H 750.113 1.59599 -3.84058 0
M  V30 7701 H 748.69 2.80115 -2.4615 0
M  V30 7702 N 750.875 1.45233 0.611969 0
M  V30 7703 C 752.123 1.48727 1.36838 0
M  V30 7704 C 752.444 0.128616 1.94575 0
M  V30 7705 O 751.714 -0.84149 1.76906 0
M  V30 7706 H 750.294 0.547695 0.507976 0
M  V30 7707 H 752.956 1.81156 0.718925 0
M  V30 7708 H 752.052 2.2236 2.19003 0
M  V30 7709 N 752.353 -0.854086 1.3245 0
M  V30 7710 C 753.63 -1.59188 1.1366 0
M  V30 7711 C 754.01 -2.08917 -0.302807 0
M  V30 7712 O 753.358 -1.8795 -1.29951 0
M  V30 7713 C 753.568 -2.73757 2.16467 0
M  V30 7714 C 754.916 -3.43323 2.49829 0
M  V30 7715 O 755.94 -2.83983 2.15017 0
M  V30 7716 O 754.799 -4.50409 3.09506 0
M  V30 7717 H 751.893 -0.701092 0.438633 0
M  V30 7718 H 754.439 -0.898165 1.43983 0
M  V30 7719 H 753.211 -2.3454 3.1322 0
M  V30 7720 H 752.834 -3.50804 1.87142 0
M  V30 7721 N 753.831 -1.1567 -1.07043 0
M  V30 7722 C 755.077 -0.944878 -1.80121 0
M  V30 7723 C 755.432 0.522239 -1.85177 0
M  V30 7724 O 754.725 1.38228 -1.32678 0
M  V30 7725 C 754.919 -1.49677 -3.24548 0
M  V30 7726 C 754.748 -3.01602 -3.33566 0
M  V30 7727 C 753.518 -3.70177 -3.43943 0
M  V30 7728 C 755.716 -3.99362 -3.24059 0
M  V30 7729 N 753.698 -5.09882 -3.41896 0
M  V30 7730 C 755.069 -5.25404 -3.29167 0
M  V30 7731 C 757.124 -3.91289 -3.07891 0
M  V30 7732 C 755.827 -6.44314 -3.19769 0
M  V30 7733 C 757.853 -5.09761 -2.99829 0
M  V30 7734 C 757.215 -6.34679 -3.05552 0
M  V30 7735 H 753.314 -0.399447 -0.672284 0
M  V30 7736 H 755.898 -1.4693 -1.27749 0
M  V30 7737 H 754.069 -0.998941 -3.75334 0
M  V30 7738 H 755.801 -1.22346 -3.85764 0
M  V30 7739 H 752.556 -3.2078 -3.48421 0
M  V30 7740 H 752.98 -5.82857 -3.44393 0
M  V30 7741 H 757.622 -2.95573 -3.02318 0
M  V30 7742 H 755.34 -7.4026 -3.24101 0
M  V30 7743 H 758.926 -5.05279 -2.88418 0
M  V30 7744 H 757.806 -7.24812 -2.99361 0
M  V30 7745 N 755.309 1.25446 -0.953992 0
M  V30 7746 C 756.257 2.27909 -0.46478 0
M  V30 7747 C 757.251 1.62904 0.464607 0
M  V30 7748 O 758.457 1.76733 0.341407 0
M  V30 7749 H 754.832 0.74036 -0.131798 0
M  V30 7750 H 756.803 2.66559 -1.34122 0
M  V30 7751 C 755.552 3.46853 0.242589 0
M  V30 7752 H 754.875 3.97105 -0.463418 0
M  V30 7753 H 756.315 4.20432 0.548919 0
M  V30 7754 C 754.774 3.03386 1.46487 0
M  V30 7755 O 755.304 3.09342 2.56262 0
M  V30 7756 N 753.51 2.58584 1.32599 0
M  V30 7757 H 753.057 2.53938 0.432834 0
M  V30 7758 H 753.015 2.29866 2.14497 0
M  V30 7759 N 756.787 0.722489 1.40064 0
M  V30 7760 C 758.198 0.336507 1.83642 0
M  V30 7761 C 758.549 -1.13002 1.6039 0
M  V30 7762 O 757.674 -1.87036 1.08842 0
M  V30 7763 C 758.269 0.603985 3.33373 0
M  V30 7764 C 756.828 0.271637 3.75419 0
M  V30 7765 C 755.975 0.872898 2.63203 0
M  V30 7766 H 758.926 0.921108 1.29233 0
M  V30 7767 H 758.947 -0.128471 3.80283 0
M  V30 7768 H 758.459 1.67141 3.50265 0
M  V30 7769 H 756.56 -0.790455 3.64119 0
M  V30 7770 H 756.673 0.745457 4.73265 0
M  V30 7771 H 755.037 0.300431 2.52922 0
M  V30 7772 H 755.82 1.94473 2.82905 0
M  V30 7773 N 758.265 -1.50454 0.469181 0
M  V30 7774 C 759.195 -2.31353 -0.31592 0
M  V30 7775 C 760.176 -1.38172 -0.992094 0
M  V30 7776 O 761.361 -1.67093 -0.989633 0
M  V30 7777 C 758.491 -3.1786 -1.39937 0
M  V30 7778 C 757.445 -4.19578 -0.844909 0
M  V30 7779 C 756.771 -4.9481 -2.0265 0
M  V30 7780 C 758.071 -5.22106 0.142499 0
M  V30 7781 H 759.765 -2.97237 0.359269 0
M  V30 7782 H 757.311 -1.42942 0.174224 0
M  V30 7783 H 759.264 -3.7325 -1.95607 0
M  V30 7784 H 757.988 -2.49858 -2.1033 0
M  V30 7785 H 756.647 -3.65285 -0.310189 0
M  V30 7786 H 756.295 -4.23282 -2.71737 0
M  V30 7787 H 755.995 -5.63613 -1.66174 0
M  V30 7788 H 757.519 -5.53035 -2.58815 0
M  V30 7789 H 758.933 -5.72378 -0.324966 0
M  V30 7790 H 757.33 -5.98618 0.421441 0
M  V30 7791 H 758.4 -4.7297 1.06901 0
M  V30 7792 N 759.743 -0.201713 -1.56304 0
M  V30 7793 C 760.693 0.729444 -2.16016 0
M  V30 7794 C 761.677 1.17164 -1.10279 0
M  V30 7795 O 762.869 1.12893 -1.36324 0
M  V30 7796 C 759.998 1.94594 -2.82822 0
M  V30 7797 C 759.084 1.52434 -3.95758 0
M  V30 7798 N 759.475 0.814106 -4.99205 0
M  V30 7799 C 757.773 1.81314 -4.07481 0
M  V30 7800 C 758.474 0.601896 -5.78578 0
M  V30 7801 N 757.45 1.15263 -5.3124 0
M  V30 7802 H 761.252 0.178163 -2.93359 0
M  V30 7803 H 758.766 -0.00218038 -1.624 0
M  V30 7804 H 760.763 2.62357 -3.23998 0
M  V30 7805 H 759.423 2.50188 -2.06969 0
M  V30 7806 H 760.434 0.468872 -5.15773 0
M  V30 7807 H 757.111 2.3837 -3.42762 0
M  V30 7808 H 758.501 0.0380119 -6.71889 0
M  V30 7809 N 761.222 1.57436 0.0718424 0
M  V30 7810 C 762.471 1.86431 0.769826 0
M  V30 7811 C 762.784 0.794355 1.78744 0
M  V30 7812 O 763.99 0.972148 2.53499 0
M  V30 7813 C 762.446 3.307 1.42006 0
M  V30 7814 C 762.054 4.45824 0.441017 0
M  V30 7815 C 763.798 3.68894 2.10041 0
M  V30 7816 C 761.705 5.81134 1.09717 0
M  V30 7817 H 760.635 0.695474 0.291259 0
M  V30 7818 H 763.286 1.83485 0.0231224 0
M  V30 7819 H 761.668 3.28257 2.21502 0
M  V30 7820 H 762.842 4.59659 -0.32413 0
M  V30 7821 H 761.157 4.16181 -0.134886 0
M  V30 7822 H 763.754 4.67281 2.59908 0
M  V30 7823 H 764.097 2.98692 2.89981 0
M  V30 7824 H 764.63 3.73326 1.37376 0
M  V30 7825 H 761.369 6.54628 0.338095 0
M  V30 7826 H 760.889 5.711 1.83317 0
M  V30 7827 H 762.568 6.26468 1.617 0
M  V30 7828 N 762.7 -0.34323 1.53817 0
M  V30 7829 C 763.977 -1.10047 1.61706 0
M  V30 7830 C 764.357 -2.06495 0.438514 0
M  V30 7831 O 763.705 -2.21297 -0.569188 0
M  V30 7832 C 763.915 -1.81985 2.97796 0
M  V30 7833 C 765.263 -2.35717 3.53161 0
M  V30 7834 O 766.287 -1.9208 2.99973 0
M  V30 7835 O 765.146 -3.15551 4.46195 0
M  V30 7836 H 762.24 -0.506096 0.654061 0
M  V30 7837 H 764.786 -0.344697 1.66162 0
M  V30 7838 H 763.558 -1.11722 3.75012 0
M  V30 7839 H 763.181 -2.64419 2.96931 0
M  V30 7840 N 764.178 -1.45556 -0.604258 0
M  V30 7841 C 765.589 -1.44171 -1.18624 0
M  V30 7842 C 765.94 -0.171081 -1.95453 0
M  V30 7843 O 765.065 0.727156 -2.03817 0
M  V30 7844 C 765.66 -2.61193 -2.15786 0
M  V30 7845 C 764.219 -2.62918 -2.69353 0
M  V30 7846 C 763.366 -2.36479 -1.4482 0
M  V30 7847 H 766.317 -1.53747 -0.393381 0
M  V30 7848 H 766.338 -2.35481 -2.98879 0
M  V30 7849 H 765.85 -3.53656 -1.59841 0
M  V30 7850 H 763.951 -1.7447 -3.29228 0
M  V30 7851 H 764.064 -3.6224 -3.13559 0
M  V30 7852 H 762.428 -1.86103 -1.73891 0
M  V30 7853 H 763.211 -3.31091 -0.907376 0
M  V30 7854 N 765.656 0.84705 -1.32902 0
M  V30 7855 C 766.604 1.97765 -1.22441 0
M  V30 7856 C 767.598 1.68919 -0.127546 0
M  V30 7857 O 768.804 1.77633 -0.290973 0
M  V30 7858 H 765.179 0.649072 -0.379748 0
M  V30 7859 H 767.15 2.03713 -2.18044 0
M  V30 7860 C 765.899 3.33834 -0.972125 0
M  V30 7861 H 765.222 3.56564 -1.80837 0
M  V30 7862 H 766.662 4.13467 -0.939209 0
M  V30 7863 C 765.121 3.35328 0.325059 0
M  V30 7864 O 765.651 3.78887 1.33445 0
M  V30 7865 N 763.857 2.88488 0.349718 0
M  V30 7866 H 763.404 2.53234 -0.472236 0
M  V30 7867 H 763.362 2.8987 1.21748 0
M  V30 7868 N 767.134 1.16236 1.06428 0
M  V30 7869 C 768.381 0.943034 1.79201 0
M  V30 7870 C 768.709 -0.529243 1.87161 0
M  V30 7871 O 767.964 -1.40874 1.35842 0
M  V30 7872 C 768.263 1.51396 3.2375 0
M  V30 7873 C 767.929 3.00833 3.35873 0
M  V30 7874 C 766.591 3.41626 3.38888 0
M  V30 7875 C 768.943 3.96825 3.37904 0
M  V30 7876 C 766.271 4.77033 3.4155 0
M  V30 7877 C 768.623 5.32116 3.42104 0
M  V30 7878 C 767.287 5.72392 3.43401 0
M  V30 7879 H 766.557 0.34508 0.655744 0
M  V30 7880 H 769.204 1.44929 1.25171 0
M  V30 7881 H 767.509 0.929114 3.80624 0
M  V30 7882 H 769.206 1.31996 3.78653 0
M  V30 7883 H 765.796 2.68306 3.3423 0
M  V30 7884 H 769.98 3.66376 3.34787 0
M  V30 7885 H 765.236 5.07569 3.40858 0
M  V30 7886 H 769.41 6.06286 3.42623 0
M  V30 7887 H 767.037 6.77296 3.45216 0
M  V30 7888 N 768.612 -1.24939 0.960631 0
M  V30 7889 C 769.575 -2.239 0.49006 0
M  V30 7890 C 770.575 -1.55497 -0.409535 0
M  V30 7891 O 771.765 -1.72978 -0.205984 0
M  V30 7892 C 768.897 -3.39654 -0.291193 0
M  V30 7893 H 770.09 -2.67044 1.36482 0
M  V30 7894 H 767.643 -1.37429 0.744505 0
M  V30 7895 H 768.378 -3.01939 -1.18336 0
M  V30 7896 H 768.163 -3.90496 0.354276 0
M  V30 7897 H 769.653 -4.13125 -0.609693 0
M  V30 7898 N 770.09 -0.729906 -1.39679 0
M  V30 7899 C 771.315 -0.284345 -2.05442 0
M  V30 7900 C 771.74 1.07056 -1.54663 0
M  V30 7901 O 771.098 1.67732 -0.688157 0
M  V30 7902 C 771.146 -0.290089 -3.59431 0
M  V30 7903 O 770.25 0.723978 -4.05995 0
M  V30 7904 H 769.591 -0.130311 -0.651088 0
M  V30 7905 H 772.121 -0.994403 -1.78809 0
M  V30 7906 H 772.131 -0.132712 -4.07784 0
M  V30 7907 H 770.806 -1.27877 -3.95753 0
M  V30 7908 H 769.383 0.533154 -3.69069 0
M  V30 7909 N 771.568 1.50203 -0.477153 0
M  V30 7910 C 772.498 2.31517 0.303646 0
M  V30 7911 C 773.479 1.38696 0.984753 0
M  V30 7912 O 774.664 1.67615 0.980758 0
M  V30 7913 C 771.794 3.18598 1.38249 0
M  V30 7914 C 770.748 4.2002 0.822645 0
M  V30 7915 C 770.074 4.95878 2.00024 0
M  V30 7916 C 771.374 5.22023 -0.170185 0
M  V30 7917 H 773.068 2.97042 -0.375027 0
M  V30 7918 H 770.614 1.42848 -0.181802 0
M  V30 7919 H 772.567 3.74282 1.93625 0
M  V30 7920 H 771.291 2.5097 2.09002 0
M  V30 7921 H 769.95 3.65445 0.290813 0
M  V30 7922 H 769.598 4.24717 2.69489 0
M  V30 7923 H 769.298 5.64487 1.63183 0
M  V30 7924 H 770.822 5.54399 2.55878 0
M  V30 7925 H 772.236 5.72543 0.294606 0
M  V30 7926 H 770.633 5.98386 -0.453181 0
M  V30 7927 H 771.703 4.72396 -1.09408 0
M  V30 7928 N 773.046 0.209999 1.56195 0
M  V30 7929 C 774.009 -0.691232 2.18528 0
M  V30 7930 C 775.009 -1.13013 1.14388 0
M  V30 7931 O 776.199 -1.04081 1.39688 0
M  V30 7932 C 773.331 -1.94551 2.79934 0
M  V30 7933 H 774.524 -0.147953 2.99535 0
M  V30 7934 H 772.077 -0.0396243 1.5625 0
M  V30 7935 H 772.812 -2.53094 2.02766 0
M  V30 7936 H 772.597 -1.63938 3.56184 0
M  V30 7937 H 774.087 -2.58785 3.2775 0
M  V30 7938 N 774.524 -1.57472 -0.0634922 0
M  V30 7939 C 775.772 -1.87283 -0.759563 0
M  V30 7940 C 776.093 -0.803135 -1.77693 0
M  V30 7941 O 775.363 0.167293 -1.95184 0
M  V30 7942 H 773.943 -0.691106 -0.283516 0
M  V30 7943 H 776.605 -1.94864 -0.0376091 0
M  V30 7944 H 775.701 -2.85064 -1.27062 0
M  V30 7945 N 776.003 0.335068 -1.53997 0
M  V30 7946 C 777.25 1.07435 -1.71651 0
M  V30 7947 C 777.578 1.88378 -0.48413 0
M  V30 7948 O 776.833 1.8827 0.534139 0
M  V30 7949 C 777.132 2.0364 -2.9371 0
M  V30 7950 C 776.798 1.38942 -4.28959 0
M  V30 7951 C 775.46 1.21027 -4.65732 0
M  V30 7952 C 777.812 0.924083 -5.12943 0
M  V30 7953 C 775.14 0.552097 -5.84097 0
M  V30 7954 C 777.492 0.27978 -6.31981 0
M  V30 7955 C 776.156 0.0883843 -6.67441 0
M  V30 7956 H 775.426 0.393133 -0.628114 0
M  V30 7957 H 778.073 0.352712 -1.88224 0
M  V30 7958 H 776.378 2.82215 -2.71775 0
M  V30 7959 H 778.075 2.6085 -3.04562 0
M  V30 7960 H 774.665 1.53885 -4.00022 0
M  V30 7961 H 778.849 1.05032 -4.85059 0
M  V30 7962 H 774.105 0.392502 -6.10139 0
M  V30 7963 H 778.279 -0.0888479 -6.96343 0
M  V30 7964 H 775.906 -0.423657 -7.59019 0
M  V30 7965 N 777.481 1.45874 0.596531 0
M  V30 7966 C 778.758 1.40942 1.35627 0
M  V30 7967 C 779.138 0.0857066 2.10926 0
M  V30 7968 O 778.486 -0.932544 2.08605 0
M  V30 7969 C 778.696 2.63027 2.29386 0
M  V30 7970 C 780.044 3.08588 2.91649 0
M  V30 7971 O 781.068 2.63478 2.39704 0
M  V30 7972 O 779.927 3.86902 3.85965 0
M  V30 7973 H 777.021 0.559838 0.608696 0
M  V30 7974 H 779.567 1.5802 0.618698 0
M  V30 7975 H 778.339 3.5094 1.7308 0
M  V30 7976 H 777.962 2.48338 3.10506 0
M  V30 7977 N 778.959 -0.83999 1.33349 0
M  V30 7978 C 779.906 -1.94972 1.23509 0
M  V30 7979 C 780.876 -1.65709 0.113967 0
M  V30 7980 O 782.061 -1.88552 0.292045 0
M  V30 7981 C 779.201 -3.30919 0.979105 0
M  V30 7982 C 778.314 -3.72587 2.18639 0
M  V30 7983 C 777.449 -4.97397 1.86465 0
M  V30 7984 C 776.488 -5.31597 3.03432 0
M  V30 7985 N 775.625 -6.47584 2.71254 0
M  V30 7986 H 780.465 -2.0272 2.18423 0
M  V30 7987 H 778.002 -0.992017 1.08616 0
M  V30 7988 H 779.96 -4.09239 0.811126 0
M  V30 7989 H 778.59 -3.22731 0.0667099 0
M  V30 7990 H 777.642 -2.89799 2.46416 0
M  V30 7991 H 778.954 -3.93844 3.06086 0
M  V30 7992 H 778.108 -5.83462 1.66305 0
M  V30 7993 H 776.847 -4.78107 0.96254 0
M  V30 7994 H 775.852 -4.44037 3.24208 0
M  V30 7995 H 777.077 -5.52836 3.94397 0
M  V30 7996 H 775.023 -6.29783 1.836 0
M  V30 7997 H 774.94 -6.68931 3.52231 0
M  V30 7998 H 776.208 -7.36764 2.54558 0
M  V30 7999 N 780.437 -1.16799 -1.0581 0
M  V30 8000 C 781.848 -0.95945 -1.60161 0
M  V30 8001 C 782.199 0.49543 -1.89842 0
M  V30 8002 O 781.324 1.36957 -1.67546 0
M  V30 8003 C 781.919 -1.73527 -2.90987 0
M  V30 8004 C 780.478 -1.57158 -3.42021 0
M  V30 8005 C 779.625 -1.74089 -2.15843 0
M  V30 8006 H 782.576 -1.31598 -0.886992 0
M  V30 8007 H 782.597 -1.21397 -3.60615 0
M  V30 8008 H 782.109 -2.79411 -2.69353 0
M  V30 8009 H 780.21 -0.537361 -3.68705 0
M  V30 8010 H 780.323 -2.35858 -4.17022 0
M  V30 8011 H 778.687 -1.16874 -2.26302 0
M  V30 8012 H 779.47 -2.81371 -1.96686 0
M  V30 8013 N 781.915 1.24427 -0.967243 0
M  V30 8014 C 783.164 1.91789 -0.624478 0
M  V30 8015 C 783.477 1.76448 0.844129 0
M  V30 8016 O 784.683 2.38495 1.2974 0
M  V30 8017 C 783.139 3.43743 -1.06626 0
M  V30 8018 C 782.747 3.67771 -2.55829 0
M  V30 8019 C 784.491 4.16958 -0.79662 0
M  V30 8020 C 782.398 5.13293 -2.93742 0
M  V30 8021 H 781.328 0.71811 -0.229856 0
M  V30 8022 H 783.979 1.41081 -1.17339 0
M  V30 8023 H 782.361 3.93484 -0.445663 0
M  V30 8024 H 783.535 3.28631 -3.23015 0
M  V30 8025 H 781.85 3.07841 -2.80398 0
M  V30 8026 H 784.447 5.24171 -1.05589 0
M  V30 8027 H 784.79 4.15442 0.267163 0
M  V30 8028 H 785.323 3.73164 -1.37816 0
M  V30 8029 H 782.062 5.19931 -3.9919 0
M  V30 8030 H 781.582 5.53433 -2.3124 0
M  V30 8031 H 783.261 5.81521 -2.83623 0
M  V30 8032 N 783.393 0.737304 1.3929 0
M  V30 8033 C 784.323 0.113988 2.33222 0
M  V30 8034 C 785.304 -0.721695 1.54031 0
M  V30 8035 O 786.489 -0.666206 1.82415 0
M  V30 8036 C 783.619 -0.792319 3.38141 0
M  V30 8037 C 782.573 -0.0606178 4.27957 0
M  V30 8038 C 781.899 -1.08409 5.23595 0
M  V30 8039 C 783.199 1.09817 5.10625 0
M  V30 8040 H 784.893 0.898611 2.85596 0
M  V30 8041 H 782.439 0.433571 1.37318 0
M  V30 8042 H 784.392 -1.23793 4.02807 0
M  V30 8043 H 783.116 -1.60908 2.84211 0
M  V30 8044 H 781.775 0.365393 3.64775 0
M  V30 8045 H 781.423 -1.89449 4.6596 0
M  V30 8046 H 781.123 -0.599269 5.84536 0
M  V30 8047 H 782.647 -1.52936 5.91137 0
M  V30 8048 H 784.061 0.730892 5.68622 0
M  V30 8049 H 782.458 1.51278 5.80719 0
M  V30 8050 H 783.528 1.91878 4.45321 0
M  V30 8051 N 784.871 -1.49948 0.485112 0
M  V30 8052 C 785.821 -2.25734 -0.320658 0
M  V30 8053 C 786.805 -1.29907 -0.949373 0
M  V30 8054 O 787.997 -1.54725 -0.859601 0
M  V30 8055 C 785.126 -3.13728 -1.39391 0
M  V30 8056 C 784.212 -4.1701 -0.772225 0
M  V30 8057 N 784.603 -5.05667 0.115782 0
M  V30 8058 C 782.901 -4.33834 -1.03461 0
M  V30 8059 C 783.602 -5.79798 0.47004 0
M  V30 8060 N 782.578 -5.4337 -0.158204 0
M  V30 8061 H 786.38 -2.91647 0.36319 0
M  V30 8062 H 783.894 -1.59602 0.300154 0
M  V30 8063 H 785.891 -3.66639 -1.98447 0
M  V30 8064 H 784.551 -2.49365 -2.0796 0
M  V30 8065 H 785.562 -5.15619 0.485557 0
M  V30 8066 H 782.239 -3.80684 -1.71424 0
M  V30 8067 H 783.629 -6.61177 1.19558 0
M  V30 8068 N 786.349 -0.21828 -1.56081 0
M  V30 8069 C 787.597 0.413488 -1.97825 0
M  V30 8070 C 787.918 1.60527 -1.10707 0
M  V30 8071 O 787.188 1.9504 -0.183378 0
M  V30 8072 H 785.768 0.155757 -0.730581 0
M  V30 8073 H 788.43 -0.310413 -1.92412 0
M  V30 8074 H 787.526 0.742024 -3.03151 0
M  V30 8075 N 787.827 1.57504 0.0551401 0
M  V30 8076 C 788.757 2.07864 1.06372 0
M  V30 8077 C 789.738 0.975565 1.39344 0
M  V30 8078 O 790.923 1.24929 1.48682 0
M  V30 8079 C 788.053 2.53643 2.3724 0
M  V30 8080 C 787.007 3.67978 2.18578 0
M  V30 8081 C 786.333 3.9987 3.54976 0
M  V30 8082 C 787.633 4.97405 1.59329 0
M  V30 8083 H 789.327 2.92379 0.644595 0
M  V30 8084 H 786.873 1.40654 0.308619 0
M  V30 8085 H 788.826 2.8749 3.08103 0
M  V30 8086 H 787.55 1.66177 2.81163 0
M  V30 8087 H 786.209 3.3444 1.50152 0
M  V30 8088 H 785.857 3.0951 3.965 0
M  V30 8089 H 785.557 4.76867 3.43324 0
M  V30 8090 H 787.081 4.36228 4.27244 0
M  V30 8091 H 788.495 5.29375 2.20078 0
M  V30 8092 H 786.892 5.78837 1.58327 0
M  V30 8093 H 787.962 4.81697 0.55638 0
M  V30 8094 N 789.305 -0.326896 1.54172 0
M  V30 8095 C 790.545 -1.07349 1.73941 0
M  V30 8096 C 790.909 -1.85355 0.50075 0
M  V30 8097 O 792.11 -2.62562 0.575731 0
M  V30 8098 C 790.381 -1.97636 2.97783 0
M  V30 8099 S 791.94 -2.79292 3.3844 0
M  V30 8100 H 788.758 -0.362459 0.611673 0
M  V30 8101 H 791.36 -0.349884 1.92344 0
M  V30 8102 H 790.064 -1.39158 3.86087 0
M  V30 8103 H 789.595 -2.74406 2.81895 0
M  V30 8104 H 791.61 -4.00106 2.93478 0
M  V30 8105 N 790.784 -1.46188 -0.588786 0
M  V30 8106 C 792.012 -1.54743 -1.37339 0
M  V30 8107 C 792.427 -0.186446 -1.87877 0
M  V30 8108 O 791.784 0.815247 -1.63279 0
M  V30 8109 C 791.835 -2.54727 -2.56508 0
M  V30 8110 O 791.556 -3.85539 -2.08066 0
M  V30 8111 C 793.057 -2.73163 -3.49137 0
M  V30 8112 H 790.277 -0.523484 -0.419768 0
M  V30 8113 H 792.821 -1.91543 -0.716345 0
M  V30 8114 H 790.976 -2.20948 -3.18215 0
M  V30 8115 H 791.39 -4.39905 -2.85629 0
M  V30 8116 H 792.864 -3.47057 -4.2925 0
M  V30 8117 H 793.341 -1.79856 -4.00685 0
M  V30 8118 H 793.947 -3.08014 -2.9327 0
M  V30 8119 N 792.262 0.832906 -1.33792 0
M  V30 8120 C 793.509 1.58853 -1.25586 0
M  V30 8121 C 793.837 1.93695 0.176807 0
M  V30 8122 O 793.092 1.59386 1.13554 0
M  V30 8123 C 793.391 2.9047 -2.08235 0
M  V30 8124 C 793.057 2.74965 -3.57358 0
M  V30 8125 C 791.719 2.70444 -3.98012 0
M  V30 8126 C 794.071 2.59347 -4.52093 0
M  V30 8127 C 791.399 2.48212 -5.31608 0
M  V30 8128 C 793.751 2.38649 -5.85858 0
M  V30 8129 C 792.415 2.32533 -6.25687 0
M  V30 8130 H 791.685 0.581285 -0.459553 0
M  V30 8131 H 794.332 0.964501 -1.65438 0
M  V30 8132 H 792.637 3.57111 -1.6118 0
M  V30 8133 H 794.334 3.48001 -1.99239 0
M  V30 8134 H 790.924 2.79319 -3.25083 0
M  V30 8135 H 795.108 2.6187 -4.2159 0
M  V30 8136 H 790.364 2.41929 -5.61498 0
M  V30 8137 H 794.538 2.25549 -6.58863 0
M  V30 8138 H 792.165 2.15067 -7.29143 0
M  V30 8139 N 793.74 1.17359 1.05189 0
M  V30 8140 C 794.988 0.960087 1.77839 0
M  V30 8141 C 795.309 -0.512554 1.88143 0
M  V30 8142 O 794.579 -1.3721 1.39822 0
M  V30 8143 H 793.159 0.352234 0.658741 0
M  V30 8144 H 795.821 1.47834 1.27008 0
M  V30 8145 H 794.917 1.38843 2.79516 0
M  V30 8146 N 795.218 -1.23913 0.973828 0
M  V30 8147 C 796.465 -1.92151 0.639079 0
M  V30 8148 C 796.793 -1.76064 -0.826545 0
M  V30 8149 O 796.048 -1.11126 -1.61088 0
M  V30 8150 C 796.347 -3.4406 0.967356 0
M  V30 8151 C 796.013 -3.80321 2.42212 0
M  V30 8152 C 794.675 -3.8993 2.81971 0
M  V30 8153 C 797.027 -3.97935 3.36596 0
M  V30 8154 C 794.355 -4.14575 4.15144 0
M  V30 8155 C 796.707 -4.24079 4.69404 0
M  V30 8156 C 795.371 -4.31908 5.08932 0
M  V30 8157 H 794.641 -0.70313 0.233856 0
M  V30 8158 H 797.288 -1.47072 1.22646 0
M  V30 8159 H 795.593 -3.90667 0.297807 0
M  V30 8160 H 797.29 -3.95077 0.686654 0
M  V30 8161 H 793.88 -3.73411 2.10385 0
M  V30 8162 H 798.064 -3.89908 3.07059 0
M  V30 8163 H 793.32 -4.18858 4.45385 0
M  V30 8164 H 797.494 -4.36652 5.42502 0
M  V30 8165 H 795.121 -4.50758 6.12145 0
M  V30 8166 N 796.696 -0.74468 -1.38897 0
M  V30 8167 C 797.921 -0.306119 -2.05128 0
M  V30 8168 C 798.346 1.0541 -1.55789 0
M  V30 8169 O 797.704 1.66993 -0.705909 0
M  V30 8170 C 797.752 -0.328195 -3.59103 0
M  V30 8171 O 796.856 0.680876 -4.06741 0
M  V30 8172 H 796.197 -0.137209 -0.649669 0
M  V30 8173 H 798.727 -1.01331 -1.77745 0
M  V30 8174 H 798.737 -0.175956 -4.0762 0
M  V30 8175 H 797.412 -1.32067 -3.94374 0
M  V30 8176 H 795.989 0.49398 -3.69614 0
M  V30 8177 N 798.174 1.49689 -0.493057 0
M  V30 8178 C 799.137 2.27502 0.278485 0
M  V30 8179 C 800.137 1.33184 0.901037 0
M  V30 8180 O 801.327 1.56415 0.766801 0
M  V30 8181 C 798.459 3.10881 1.39878 0
M  V30 8182 H 799.652 2.97163 -0.404219 0
M  V30 8183 H 797.205 1.54324 -0.247774 0
M  V30 8184 H 797.94 2.45767 2.11587 0
M  V30 8185 H 797.725 3.80219 0.957924 0
M  V30 8186 H 799.215 3.69673 1.94247 0
M  V30 8187 N 799.652 0.226554 1.55963 0
M  V30 8188 C 801.068 -0.128733 1.5908 0
M  V30 8189 C 801.268 -1.58558 1.24345 0
M  V30 8190 O 800.324 -2.32661 0.981069 0
M  V30 8191 C 801.637 0.202076 3.0002 0
M  V30 8192 C 803.185 0.144718 3.12665 0
M  V30 8193 C 803.66 0.449272 4.55791 0
M  V30 8194 N 805.151 0.399026 4.61478 0
M  V30 8195 C 805.886 0.608106 5.70166 0
M  V30 8196 N 805.382 0.879227 6.87198 0
M  V30 8197 N 807.175 0.5402 5.59498 0
M  V30 8198 H 799.326 1.17686 1.76816 0
M  V30 8199 H 801.589 0.472072 0.822102 0
M  V30 8200 H 801.295 1.21341 3.30105 0
M  V30 8201 H 801.169 -0.480554 3.74126 0
M  V30 8202 H 803.556 -0.857261 2.82374 0
M  V30 8203 H 803.637 0.860899 2.40878 0
M  V30 8204 H 803.281 1.44871 4.86801 0
M  V30 8205 H 803.211 -0.288157 5.25811 0
M  V30 8206 H 805.702 0.197372 3.77384 0
M  V30 8207 H 806.015 1.02673 7.65949 0
M  V30 8208 H 804.36 0.916477 6.88931 0
M  V30 8209 H 807.551 0.328581 4.66945 0
M  V30 8210 H 807.724 0.706548 6.44137 0
M  V30 8211 N 801.13 -1.57531 -0.0467866 0
M  V30 8212 C 802.546 -1.54451 -0.402107 0
M  V30 8213 C 802.746 -0.950275 -1.77685 0
M  V30 8214 O 801.802 -0.563602 -2.4613 0
M  V30 8215 C 803.115 -2.9899 -0.320212 0
M  V30 8216 C 804.663 -3.10452 -0.398588 0
M  V30 8217 C 805.138 -4.56689 -0.346335 0
M  V30 8218 N 806.629 -4.6142 -0.405666 0
M  V30 8219 C 807.364 -5.72087 -0.387845 0
M  V30 8220 N 806.86 -6.92045 -0.32336 0
M  V30 8221 N 808.653 -5.60404 -0.436263 0
M  V30 8222 H 800.804 -1.94515 0.853087 0
M  V30 8223 H 803.067 -0.891397 0.322669 0
M  V30 8224 H 802.773 -3.46124 0.623794 0
M  V30 8225 H 802.647 -3.60164 -1.1208 0
M  V30 8226 H 805.034 -2.63276 -1.33302 0
M  V30 8227 H 805.115 -2.52142 0.431026 0
M  V30 8228 H 804.759 -5.04527 0.584356 0
M  V30 8229 H 804.689 -5.12889 -1.19382 0
M  V30 8230 H 807.18 -3.75105 -0.458737 0
M  V30 8231 H 807.493 -7.7216 -0.314375 0
M  V30 8232 H 805.838 -6.94396 -0.28967 0
M  V30 8233 H 809.029 -4.65586 -0.48451 0
M  V30 8234 H 809.202 -6.46645 -0.418907 0
M  V30 8235 N 802.608 0.318715 -1.54344 0
M  V30 8236 C 803.854 1.05765 -1.73037 0
M  V30 8237 C 804.187 1.87514 -0.505181 0
M  V30 8238 O 803.462 1.88021 0.497838 0
M  V30 8239 C 803.745 1.97836 -3.00887 0
M  V30 8240 C 803.598 1.19384 -4.33668 0
M  V30 8241 C 804.917 2.97285 -3.24514 0
M  V30 8242 H 802.036 0.383104 -0.629603 0
M  V30 8243 H 804.678 0.333864 -1.87044 0
M  V30 8244 H 802.828 2.59552 -2.89076 0
M  V30 8245 H 804.5 0.600906 -4.57369 0
M  V30 8246 H 802.743 0.496198 -4.30953 0
M  V30 8247 H 803.414 1.87014 -5.19355 0
M  V30 8248 H 805.89 2.45693 -3.35819 0
M  V30 8249 H 804.766 3.58887 -4.15321 0
M  V30 8250 H 805.027 3.70003 -2.41971 0
M  V30 8251 N 804.086 1.46499 0.581025 0
M  V30 8252 C 805.016 1.60052 1.70017 0
M  V30 8253 C 805.997 0.450788 1.64018 0
M  V30 8254 O 807.182 0.677237 1.82009 0
M  V30 8255 C 804.312 1.5921 3.08658 0
M  V30 8256 C 803.266 2.73169 3.29488 0
M  V30 8257 C 802.592 2.57389 4.68674 0
M  V30 8258 C 803.892 4.14978 3.1716 0
M  V30 8259 H 805.586 2.53735 1.5893 0
M  V30 8260 H 803.132 1.22113 0.763173 0
M  V30 8261 H 805.085 1.67285 3.86773 0
M  V30 8262 H 803.809 0.620718 3.20647 0
M  V30 8263 H 802.468 2.64566 2.53773 0
M  V30 8264 H 802.116 1.58331 4.77431 0
M  V30 8265 H 801.816 3.33826 4.83564 0
M  V30 8266 H 803.34 2.67358 5.48956 0
M  V30 8267 H 804.754 4.24684 3.85119 0
M  V30 8268 H 803.151 4.92016 3.4357 0
M  V30 8269 H 804.221 4.35016 2.14218 0
M  V30 8270 N 805.565 -0.825799 1.34232 0
M  V30 8271 C 806.497 -1.94401 1.21413 0
M  V30 8272 C 807.51 -1.6218 0.141902 0
M  V30 8273 O 808.699 -1.74109 0.3935 0
M  V30 8274 C 805.799 -3.28257 0.842635 0
M  V30 8275 C 804.972 -3.88521 2.00924 0
M  V30 8276 C 804.031 -5.00752 1.61661 0
M  V30 8277 O 803.057 -5.19201 2.33279 0
M  V30 8278 N 804.259 -5.78084 0.52911 0
M  V30 8279 H 807.024 -2.05931 2.17744 0
M  V30 8280 H 804.585 -1.00223 1.27149 0
M  V30 8281 H 806.577 -4.00781 0.561822 0
M  V30 8282 H 805.147 -3.12585 -0.0304029 0
M  V30 8283 H 804.367 -3.08425 2.45495 0
M  V30 8284 H 805.655 -4.25516 2.78951 0
M  V30 8285 H 805.053 -5.65661 -0.0663322 0
M  V30 8286 H 803.61 -6.51072 0.308017 0
M  V30 8287 N 807.043 -1.17915 -1.04565 0
M  V30 8288 C 807.975 -0.859359 -2.1248 0
M  V30 8289 C 808.988 0.140922 -1.62189 0
M  V30 8290 O 810.177 -0.0862361 -1.78292 0
M  V30 8291 C 807.277 -0.261811 -3.37887 0
M  V30 8292 C 806.45 -1.30651 -4.17431 0
M  V30 8293 C 805.509 -0.725575 -5.21174 0
M  V30 8294 O 804.535 -1.39901 -5.51739 0
M  V30 8295 N 805.737 0.479351 -5.78517 0
M  V30 8296 H 808.502 -1.78818 -2.40508 0
M  V30 8297 H 806.063 -1.07885 -1.20716 0
M  V30 8298 H 808.055 0.14028 -4.04457 0
M  V30 8299 H 806.625 0.570929 -3.07342 0
M  V30 8300 H 805.845 -1.88412 -3.46258 0
M  V30 8301 H 807.133 -2.01099 -4.67372 0
M  V30 8302 H 806.531 1.04431 -5.55977 0
M  V30 8303 H 805.088 0.823427 -6.46578 0
M  V30 8304 N 808.521 1.23394 -0.980386 0
M  V30 8305 C 809.768 1.91809 -0.649261 0
M  V30 8306 C 810.096 1.765 0.817197 0
M  V30 8307 O 809.351 1.11979 1.60497 0
M  V30 8308 C 809.65 3.43542 -0.985588 0
M  V30 8309 C 809.316 3.79031 -2.44225 0
M  V30 8310 C 807.978 3.88429 -2.84035 0
M  V30 8311 C 810.33 3.96145 -3.38702 0
M  V30 8312 C 807.658 4.12368 -4.17336 0
M  V30 8313 C 810.01 4.21583 -4.71646 0
M  V30 8314 C 808.674 4.29203 -5.11215 0
M  V30 8315 H 807.944 0.70188 -0.237581 0
M  V30 8316 H 810.591 1.4642 -1.23424 0
M  V30 8317 H 808.896 3.90503 -0.318521 0
M  V30 8318 H 810.593 3.94708 -0.707596 0
M  V30 8319 H 807.183 3.7229 -2.12362 0
M  V30 8320 H 811.367 3.88274 -3.09123 0
M  V30 8321 H 806.623 4.1649 -4.47601 0
M  V30 8322 H 810.797 4.33769 -5.4481 0
M  V30 8323 H 808.424 4.47505 -6.14527 0
M  V30 8324 N 809.999 0.752036 1.385 0
M  V30 8325 C 810.962 0.131587 2.28822 0
M  V30 8326 C 811.962 -0.649149 1.47115 0
M  V30 8327 O 813.152 -0.475645 1.67581 0
M  V30 8328 C 810.284 -0.822101 3.30839 0
M  V30 8329 H 811.477 0.927551 2.85196 0
M  V30 8330 H 809.03 0.518945 1.47434 0
M  V30 8331 H 809.765 -1.6438 2.79553 0
M  V30 8332 H 809.55 -0.264689 3.91206 0
M  V30 8333 H 811.04 -1.25226 3.98382 0
M  V30 8334 N 811.477 -1.49425 0.500989 0
M  V30 8335 C 812.754 -1.9531 -0.106551 0
M  V30 8336 C 813.134 -1.44248 -1.54129 0
M  V30 8337 O 812.482 -0.656237 -2.18874 0
M  V30 8338 C 812.692 -3.48995 -0.0191972 0
M  V30 8339 C 814.04 -4.24161 -0.193129 0
M  V30 8340 O 815.064 -3.56075 -0.0943843 0
M  V30 8341 O 813.923 -5.45064 -0.395869 0
M  V30 8342 H 811.017 -0.82149 -0.0953068 0
M  V30 8343 H 813.563 -1.6007 0.563526 0
M  V30 8344 H 812.335 -3.78794 0.981353 0
M  V30 8345 H 811.958 -3.90852 -0.72942 0
M  V30 8346 N 812.955 -0.234822 -1.55841 0
M  V30 8347 C 813.903 0.686145 -2.22249 0
M  V30 8348 C 814.897 1.18948 -1.20614 0
M  V30 8349 O 816.103 1.14777 -1.38659 0
M  V30 8350 H 812.478 0.239724 -0.712767 0
M  V30 8351 H 814.449 0.102762 -2.98223 0
M  V30 8352 C 813.198 1.8776 -2.92646 0
M  V30 8353 H 812.521 1.49943 -3.70617 0
M  V30 8354 H 813.961 2.4995 -3.42493 0
M  V30 8355 C 812.42 2.74127 -1.95847 0
M  V30 8356 O 812.95 3.7329 -1.48384 0
M  V30 8357 N 811.156 2.4044 -1.63209 0
M  V30 8358 H 810.703 1.59854 -2.02001 0
M  V30 8359 H 810.661 2.98504 -0.987063 0
M  V30 8360 N 814.433 1.57553 0.0384317 0
M  V30 8361 C 815.71 1.79977 0.766002 0
M  V30 8362 C 816.09 0.830625 1.94072 0
M  V30 8363 O 815.438 -0.129243 2.28134 0
M  V30 8364 C 815.648 3.27434 1.20781 0
M  V30 8365 C 816.996 3.92167 1.62758 0
M  V30 8366 O 818.02 3.31527 1.30263 0
M  V30 8367 O 816.879 4.98917 2.23035 0
M  V30 8368 H 813.973 0.739787 0.369654 0
M  V30 8369 H 816.519 1.69693 0.0159312 0
M  V30 8370 H 815.291 3.89558 0.368792 0
M  V30 8371 H 814.914 3.42571 2.01819 0
M  V30 8372 N 815.911 -0.310526 1.54511 0
M  V30 8373 C 817.157 -1.04846 1.73595 0
M  V30 8374 C 817.49 -1.87244 0.515118 0
M  V30 8375 O 816.765 -1.88282 -0.48786 0
M  V30 8376 C 817.048 -1.96237 3.01932 0
M  V30 8377 C 816.901 -1.17082 4.34295 0
M  V30 8378 C 818.22 -2.9556 3.26086 0
M  V30 8379 H 815.339 -0.37976 0.631626 0
M  V30 8380 H 817.981 -0.32394 1.87218 0
M  V30 8381 H 816.131 -2.58015 2.90449 0
M  V30 8382 H 817.803 -0.576643 4.57682 0
M  V30 8383 H 816.046 -0.473336 4.3121 0
M  V30 8384 H 816.717 -1.84257 5.20339 0
M  V30 8385 H 819.193 -2.43908 3.37117 0
M  V30 8386 H 818.069 -3.5668 4.17218 0
M  V30 8387 H 818.33 -3.68715 2.4393 0
M  V30 8388 N 817.389 -1.46805 -0.573248 0
M  V30 8389 C 818.614 -1.56433 -1.36175 0
M  V30 8390 C 819.039 -0.209336 -1.86932 0
M  V30 8391 O 818.397 0.812146 -1.62092 0
M  V30 8392 C 818.445 -2.58055 -2.51873 0
M  V30 8393 O 817.549 -2.12214 -3.53609 0
M  V30 8394 H 816.89 -0.526068 -0.405153 0
M  V30 8395 H 819.42 -1.92456 -0.694405 0
M  V30 8396 H 819.43 -2.77966 -2.98662 0
M  V30 8397 H 818.105 -3.56448 -2.14284 0
M  V30 8398 H 816.682 -2.02333 -3.13234 0
M  V30 8399 N 818.867 0.818669 -1.34668 0
M  V30 8400 C 820.283 1.11243 -1.14443 0
M  V30 8401 C 820.483 2.01435 0.0512212 0
M  V30 8402 O 819.539 2.41854 0.725471 0
M  V30 8403 C 820.852 1.75504 -2.4417 0
M  V30 8404 C 822.4 1.8798 -2.50265 0
M  V30 8405 C 822.875 2.55657 -3.80004 0
M  V30 8406 N 824.366 2.63153 -3.81189 0
M  V30 8407 C 825.101 3.16258 -4.78298 0
M  V30 8408 N 824.597 3.69893 -5.85791 0
M  V30 8409 N 826.39 3.14698 -4.65748 0
M  V30 8410 H 818.541 0.218848 -2.1127 0
M  V30 8411 H 820.804 0.159655 -0.934459 0
M  V30 8412 H 820.51 1.16697 -3.31775 0
M  V30 8413 H 820.384 2.75329 -2.57825 0
M  V30 8414 H 822.771 2.45934 -1.63096 0
M  V30 8415 H 822.852 0.870447 -2.40535 0
M  V30 8416 H 822.496 1.98356 -4.67565 0
M  V30 8417 H 822.426 3.57105 -3.87019 0
M  V30 8418 H 824.917 2.2514 -3.03513 0
M  V30 8419 H 825.23 4.08678 -6.55898 0
M  V30 8420 H 823.575 3.68125 -5.89499 0
M  V30 8421 H 826.766 2.72066 -3.80917 0
M  V30 8422 H 826.939 3.5578 -5.41594 0
M  V30 8423 N 820.346 1.18468 1.03938 0
M  V30 8424 C 821.593 0.980833 1.77161 0
M  V30 8425 C 821.921 -0.489425 1.88242 0
M  V30 8426 O 821.176 -1.37961 1.388 0
M  V30 8427 C 821.475 1.58229 3.20466 0
M  V30 8428 C 821.141 3.07889 3.29416 0
M  V30 8429 C 819.803 3.48737 3.31566 0
M  V30 8430 C 822.155 4.03903 3.29411 0
M  V30 8431 C 819.483 4.84171 3.31355 0
M  V30 8432 C 821.835 5.39253 3.3074 0
M  V30 8433 C 820.499 5.79547 3.31182 0
M  V30 8434 H 819.769 0.358912 0.648277 0
M  V30 8435 H 822.416 1.47552 1.22069 0
M  V30 8436 H 820.721 1.00964 3.78568 0
M  V30 8437 H 822.418 1.39998 3.75768 0
M  V30 8438 H 819.008 2.75335 3.28464 0
M  V30 8439 H 823.192 3.73395 3.2694 0
M  V30 8440 H 818.448 5.14685 3.30015 0
M  V30 8441 H 822.622 6.13417 3.29686 0
M  V30 8442 H 820.249 6.84466 3.30772 0
M  V30 8443 N 821.824 -1.22873 0.986916 0
M  V30 8444 C 822.771 -2.2458 0.532215 0
M  V30 8445 C 823.741 -1.60375 -0.432322 0
M  V30 8446 O 824.926 -1.87775 -0.338416 0
M  V30 8447 C 822.066 -3.44761 -0.152864 0
M  V30 8448 C 821.179 -4.23501 0.852704 0
M  V30 8449 C 820.314 -5.31011 0.14176 0
M  V30 8450 C 819.353 -6.01464 1.1361 0
M  V30 8451 N 818.49 -7.00631 0.453871 0
M  V30 8452 H 823.33 -2.62838 1.40428 0
M  V30 8453 H 820.867 -1.29185 0.703543 0
M  V30 8454 H 822.825 -4.1333 -0.566926 0
M  V30 8455 H 821.455 -3.07284 -0.988756 0
M  V30 8456 H 820.507 -3.54286 1.38512 0
M  V30 8457 H 821.819 -4.72097 1.61014 0
M  V30 8458 H 820.973 -6.05805 -0.329337 0
M  V30 8459 H 819.712 -4.83373 -0.648229 0
M  V30 8460 H 818.717 -5.25456 1.61789 0
M  V30 8461 H 819.942 -6.5119 1.92686 0
M  V30 8462 H 817.888 -6.55235 -0.316791 0
M  V30 8463 H 817.805 -7.47204 1.14986 0
M  V30 8464 H 819.073 -7.795 0.00537823 0
M  V30 8465 N 823.302 -0.75937 -1.38099 0
M  V30 8466 C 824.265 -0.14372 -2.28749 0
M  V30 8467 C 825.265 0.641338 -1.47457 0
M  V30 8468 O 826.455 0.466751 -1.67831 0
M  V30 8469 C 823.587 0.804545 -3.3127 0
M  V30 8470 H 824.78 -0.942663 -2.847 0
M  V30 8471 H 822.333 -0.526757 -1.47156 0
M  V30 8472 H 823.068 1.62895 -2.80421 0
M  V30 8473 H 822.853 0.243939 -3.9134 0
M  V30 8474 H 824.343 1.23111 -3.99041 0
M  V30 8475 N 824.78 1.49157 -0.508906 0
M  V30 8476 C 826.029 2.0167 0.0346854 0
M  V30 8477 C 826.342 1.39302 1.37311 0
M  V30 8478 O 827.548 1.83189 2.00385 0
M  V30 8479 C 826.004 3.59725 0.112261 0
M  V30 8480 C 825.612 4.31069 -1.21999 0
M  V30 8481 C 827.356 4.20155 0.605798 0
M  V30 8482 C 825.263 5.81001 -1.10415 0
M  V30 8483 H 824.193 0.753814 0.0167355 0
M  V30 8484 H 826.844 1.7162 -0.649518 0
M  V30 8485 H 825.226 3.86525 0.861087 0
M  V30 8486 H 826.4 4.15962 -1.98273 0
M  V30 8487 H 824.715 3.82418 -1.64759 0
M  V30 8488 H 827.312 5.29964 0.710102 0
M  V30 8489 H 827.655 3.84051 1.60656 0
M  V30 8490 H 828.188 3.97705 -0.0867239 0
M  V30 8491 H 824.927 6.21643 -2.07941 0
M  V30 8492 H 824.447 5.9858 -0.382428 0
M  V30 8493 H 826.126 6.42207 -0.786116 0
M  V30 8494 N 826.258 0.243083 1.55714 0
M  V30 8495 C 827.205 -0.658078 2.21219 0
M  V30 8496 C 828.175 -1.1742 1.17481 0
M  V30 8497 O 829.36 -1.22937 1.45915 0
M  V30 8498 C 826.5 -1.85104 2.91257 0
M  V30 8499 C 825.613 -1.3718 4.09641 0
M  V30 8500 C 824.748 -2.52403 4.67404 0
M  V30 8501 C 823.787 -2.01321 5.78045 0
M  V30 8502 N 822.924 -3.09896 6.30007 0
M  V30 8503 H 827.764 -0.0927854 2.97856 0
M  V30 8504 H 825.301 -0.0340375 1.47061 0
M  V30 8505 H 827.259 -2.55179 3.3006 0
M  V30 8506 H 825.889 -2.38887 2.17101 0
M  V30 8507 H 824.941 -0.565232 3.76177 0
M  V30 8508 H 826.253 -0.957409 4.89525 0
M  V30 8509 H 825.407 -3.30525 5.08761 0
M  V30 8510 H 824.146 -2.97142 3.86728 0
M  V30 8511 H 823.151 -1.21667 5.36169 0
M  V30 8512 H 824.376 -1.57556 6.6057 0
M  V30 8513 H 822.322 -3.54077 5.52237 0
M  V30 8514 H 822.239 -2.72776 7.05074 0
M  V30 8515 H 823.507 -3.8809 6.76023 0
M  V30 8516 N 827.736 -1.57571 -0.0300757 0
M  V30 8517 C 828.699 -2.05468 -1.01565 0
M  V30 8518 C 829.699 -0.958628 -1.29101 0
M  V30 8519 O 830.889 -1.22228 -1.24121 0
M  V30 8520 C 828.021 -2.47077 -2.34874 0
M  V30 8521 H 829.214 -2.93797 -0.601936 0
M  V30 8522 H 826.767 -1.53828 -0.276878 0
M  V30 8523 H 827.502 -1.61901 -2.80996 0
M  V30 8524 H 827.287 -3.27097 -2.16218 0
M  V30 8525 H 828.777 -2.84564 -3.05635 0
M  V30 8526 N 829.214 0.302327 -1.54673 0
M  V30 8527 C 830.63 0.647911 -1.45857 0
M  V30 8528 C 830.83 1.90773 -0.64869 0
M  V30 8529 O 829.886 2.52018 -0.155865 0
M  V30 8530 C 831.199 0.802144 -2.89804 0
M  V30 8531 C 832.747 0.898114 -2.99838 0
M  V30 8532 C 833.222 1.08436 -4.44978 0
M  V30 8533 N 834.713 1.15059 -4.48682 0
M  V30 8534 C 835.448 1.31296 -5.58166 0
M  V30 8535 N 834.944 1.4444 -6.77576 0
M  V30 8536 N 836.737 1.34174 -5.45851 0
M  V30 8537 H 828.888 -0.525428 -2.05798 0
M  V30 8538 H 831.151 -0.173423 -0.932002 0
M  V30 8539 H 830.857 -0.0526531 -3.51661 0
M  V30 8540 H 830.731 1.69155 -3.37145 0
M  V30 8541 H 833.118 1.7434 -2.38096 0
M  V30 8542 H 833.199 -0.0152752 -2.55795 0
M  V30 8543 H 832.843 0.243843 -5.07314 0
M  V30 8544 H 832.773 2.01195 -4.8665 0
M  V30 8545 H 835.264 1.0626 -3.62653 0
M  V30 8546 H 835.577 1.56582 -7.56771 0
M  V30 8547 H 833.922 1.41499 -6.80443 0
M  V30 8548 H 837.113 1.23516 -4.5151 0
M  V30 8549 H 837.286 1.46485 -6.31226 0
M  V30 8550 N 830.692 1.47107 0.565454 0
M  V30 8551 C 831.939 1.53308 1.32299 0
M  V30 8552 C 832.267 0.1919 1.93551 0
M  V30 8553 O 831.522 -0.81435 1.77952 0
M  V30 8554 C 831.821 2.59309 2.45954 0
M  V30 8555 C 831.487 4.02827 2.02586 0
M  V30 8556 C 830.149 4.41897 1.90474 0
M  V30 8557 C 832.501 4.92913 1.6937 0
M  V30 8558 C 829.829 5.68898 1.4343 0
M  V30 8559 C 832.181 6.20368 1.238 0
M  V30 8560 C 830.845 6.58327 1.10278 0
M  V30 8561 H 830.115 0.560993 0.484116 0
M  V30 8562 H 832.762 1.80667 0.634965 0
M  V30 8563 H 831.067 2.25676 3.20277 0
M  V30 8564 H 832.764 2.61332 3.04149 0
M  V30 8565 H 829.354 3.71953 2.12952 0
M  V30 8566 H 833.538 4.63433 1.77605 0
M  V30 8567 H 828.794 5.97065 1.31618 0
M  V30 8568 H 832.968 6.89589 0.971586 0
M  V30 8569 H 830.595 7.56628 0.736027 0
M  V30 8570 N 832.17 -0.811516 1.35101 0
M  V30 8571 C 833.133 -1.90467 1.27495 0
M  V30 8572 C 834.133 -1.59703 0.187516 0
M  V30 8573 O 835.323 -1.68528 0.440896 0
M  V30 8574 C 832.455 -3.26774 0.971154 0
M  V30 8575 H 833.648 -1.98631 2.2469 0
M  V30 8576 H 831.201 -1.00681 1.19553 0
M  V30 8577 H 831.936 -3.243 0.0028557 0
M  V30 8578 H 831.721 -3.50488 1.75785 0
M  V30 8579 H 833.211 -4.06804 0.943414 0
M  V30 8580 N 833.648 -1.19017 -1.03309 0
M  V30 8581 C 834.595 -0.924088 -2.11493 0
M  V30 8582 C 835.565 0.139464 -1.65513 0
M  V30 8583 O 836.75 -0.00178761 -1.908 0
M  V30 8584 C 833.89 -0.464255 -3.41963 0
M  V30 8585 C 833.003 -1.5941 -4.01513 0
M  V30 8586 C 832.138 -1.08622 -5.19976 0
M  V30 8587 C 831.177 -2.19024 -5.71572 0
M  V30 8588 N 830.314 -1.69575 -6.81314 0
M  V30 8589 H 835.154 -1.85039 -2.33591 0
M  V30 8590 H 832.691 -0.922593 -1.14572 0
M  V30 8591 H 834.649 -0.179078 -4.16815 0
M  V30 8592 H 833.279 0.425062 -3.19989 0
M  V30 8593 H 832.331 -1.99458 -3.23915 0
M  V30 8594 H 833.643 -2.42604 -4.35826 0
M  V30 8595 H 832.797 -0.756022 -6.01971 0
M  V30 8596 H 831.536 -0.223955 -4.87186 0
M  V30 8597 H 830.541 -2.5288 -4.88193 0
M  V30 8598 H 831.766 -3.05699 -6.06403 0
M  V30 8599 H 829.712 -0.856494 -6.50385 0
M  V30 8600 H 829.629 -2.46361 -7.14732 0
M  V30 8601 H 830.897 -1.39505 -7.66915 0
M  V30 8602 N 835.127 1.22348 -0.993418 0
M  V30 8603 C 836.538 1.72893 -0.704616 0
M  V30 8604 C 836.889 1.80095 0.778483 0
M  V30 8605 O 836.014 1.4476 1.60853 0
M  V30 8606 C 836.609 3.14 -1.27237 0
M  V30 8607 C 835.168 3.61949 -1.03294 0
M  V30 8608 C 834.315 2.39816 -1.39225 0
M  V30 8609 H 837.266 1.07688 -1.16572 0
M  V30 8610 H 837.287 3.74886 -0.651212 0
M  V30 8611 H 836.799 3.08727 -2.3518 0
M  V30 8612 H 834.9 3.72588 0.0298329 0
M  V30 8613 H 835.013 4.48051 -1.69668 0
M  V30 8614 H 833.377 2.41448 -0.810849 0
M  V30 8615 H 834.16 2.37203 -2.48172 0
M  V30 8616 N 836.605 0.766683 1.37694 0
M  V30 8617 C 837.851 0.329201 2.0011 0
M  V30 8618 C 838.184 -1.09004 1.60723 0
M  V30 8619 O 837.459 -1.74895 0.850989 0
M  V30 8620 C 837.742 0.466989 3.57059 0
M  V30 8621 C 837.595 1.92828 4.06371 0
M  V30 8622 C 838.914 -0.131792 4.39903 0
M  V30 8623 H 836.033 0.12109 0.726984 0
M  V30 8624 H 838.675 0.968779 1.63446 0
M  V30 8625 H 836.825 -0.0775023 3.88423 0
M  V30 8626 H 838.497 2.53208 3.85595 0
M  V30 8627 H 836.74 2.43884 3.58752 0
M  V30 8628 H 837.411 1.97577 5.15429 0
M  V30 8629 H 839.887 0.332731 4.14768 0
M  V30 8630 H 838.763 -0.005217 5.489 0
M  V30 8631 H 839.024 -1.22156 4.24889 0
M  V30 8632 N 838.083 -1.48885 0.516809 0
M  V30 8633 C 839.313 -2.06592 -0.018375 0
M  V30 8634 C 839.721 -1.37543 -1.29917 0
M  V30 8635 O 839.064 -0.452527 -1.78039 0
M  V30 8636 C 839.126 -3.58016 -0.326315 0
M  V30 8637 C 838.79 -4.48853 0.859072 0
M  V30 8638 C 839.787 -4.89422 1.75391 0
M  V30 8639 C 837.472 -4.90937 1.06235 0
M  V30 8640 C 839.466 -5.70831 2.83604 0
M  V30 8641 C 837.153 -5.72119 2.14763 0
M  V30 8642 C 838.151 -6.11972 3.03281 0
M  V30 8643 O 837.839 -6.91527 4.09934 0
M  V30 8644 H 837.571 -0.675559 0.0244023 0
M  V30 8645 H 840.125 -1.92442 0.718005 0
M  V30 8646 H 838.355 -3.70231 -1.1165 0
M  V30 8647 H 840.044 -3.97898 -0.801999 0
M  V30 8648 H 840.81 -4.57542 1.60875 0
M  V30 8649 H 836.689 -4.59409 0.382677 0
M  V30 8650 H 840.233 -6.01857 3.52724 0
M  V30 8651 H 836.13 -6.03412 2.29268 0
M  V30 8652 H 836.898 -7.0986 4.07482 0
M  V30 8653 N 839.561 -0.251338 -1.55583 0
M  V30 8654 C 840.972 0.25098 -1.85005 0
M  V30 8655 C 841.323 1.57259 -1.17321 0
M  V30 8656 O 840.448 2.11603 -0.453136 0
M  V30 8657 C 841.043 0.462161 -3.35633 0
M  V30 8658 C 839.602 0.908737 -3.65266 0
M  V30 8659 C 838.749 -0.0115418 -2.77298 0
M  V30 8660 H 841.7 -0.473782 -1.51463 0
M  V30 8661 H 841.721 1.30415 -3.57452 0
M  V30 8662 H 841.233 -0.499886 -3.84867 0
M  V30 8663 H 839.334 1.8831 -3.21512 0
M  V30 8664 H 839.447 0.762526 -4.72993 0
M  V30 8665 H 837.811 0.500612 -2.49732 0
M  V30 8666 H 838.594 -0.969042 -3.29339 0
M  V30 8667 N 841.039 1.57585 0.0217189 0
M  V30 8668 C 842.287 1.89231 0.709641 0
M  V30 8669 C 842.608 0.849964 1.75501 0
M  V30 8670 O 841.878 -0.115485 1.95559 0
M  V30 8671 H 840.458 0.69838 0.265092 0
M  V30 8672 H 843.12 1.94895 -0.0140688 0
M  V30 8673 H 842.216 2.88333 1.19459 0
M  V30 8674 N 842.517 -0.29412 1.54831 0
M  V30 8675 C 843.449 -1.38476 1.82639 0
M  V30 8676 C 844.462 -1.46517 0.709694 0
M  V30 8677 O 845.651 -1.48712 0.987269 0
M  V30 8678 C 842.751 -2.76791 1.95551 0
M  V30 8679 C 841.924 -2.91599 3.26019 0
M  V30 8680 C 840.983 -4.10456 3.29261 0
M  V30 8681 O 840.009 -4.02214 4.02756 0
M  V30 8682 N 841.211 -5.21422 2.55145 0
M  V30 8683 H 843.976 -1.14974 2.76769 0
M  V30 8684 H 841.537 -0.484206 1.5449 0
M  V30 8685 H 843.529 -3.5456 1.95113 0
M  V30 8686 H 842.099 -2.93209 1.08384 0
M  V30 8687 H 841.319 -2.00886 3.39173 0
M  V30 8688 H 842.607 -2.98409 4.12104 0
M  V30 8689 H 842.005 -5.31 1.95078 0
M  V30 8690 H 840.562 -5.97501 2.60454 0
M  V30 8691 N 843.995 -1.47404 -0.557645 0
M  V30 8692 C 845.223 -1.57622 -1.34026 0
M  V30 8693 C 845.638 -0.226256 -1.87439 0
M  V30 8694 O 844.995 0.78043 -1.64971 0
M  V30 8695 C 845.046 -2.60111 -2.51047 0
M  V30 8696 O 844.767 -3.89866 -1.99841 0
M  V30 8697 C 846.268 -2.80508 -3.43264 0
M  V30 8698 H 843.488 -0.532271 -0.40857 0
M  V30 8699 H 846.032 -1.93019 -0.675555 0
M  V30 8700 H 844.187 -2.27648 -3.13457 0
M  V30 8701 H 844.601 -4.45864 -2.76234 0
M  V30 8702 H 846.075 -3.56084 -4.21792 0
M  V30 8703 H 846.552 -1.88314 -3.9678 0
M  V30 8704 H 847.158 -3.14166 -2.86671 0
M  V30 8705 N 845.473 0.80434 -1.35529 0
M  V30 8706 C 846.403 1.93086 -1.31301 0
M  V30 8707 C 847.384 1.69068 -0.187044 0
M  V30 8708 O 848.569 1.90399 -0.382359 0
M  V30 8709 C 845.699 3.29867 -1.0865 0
M  V30 8710 C 844.653 3.68373 -2.17911 0
M  V30 8711 C 843.979 5.0334 -1.80423 0
M  V30 8712 C 845.279 3.78516 -3.59893 0
M  V30 8713 H 846.973 1.96882 -2.25561 0
M  V30 8714 H 844.519 0.945841 -1.08581 0
M  V30 8715 H 846.472 4.08281 -1.04331 0
M  V30 8716 H 845.196 3.2642 -0.108359 0
M  V30 8717 H 843.855 2.92247 -2.21331 0
M  V30 8718 H 843.503 4.96399 -0.812213 0
M  V30 8719 H 843.203 5.30074 -2.53565 0
M  V30 8720 H 844.727 5.84191 -1.77633 0
M  V30 8721 H 846.141 4.47155 -3.58783 0
M  V30 8722 H 844.538 4.16721 -4.31814 0
M  V30 8723 H 845.608 2.8001 -3.95882 0
M  V30 8724 N 846.951 1.19563 1.02676 0
M  V30 8725 C 847.883 0.893054 2.11086 0
M  V30 8726 C 848.896 -0.115101 1.62393 0
M  V30 8727 O 850.085 0.11459 1.78132 0
M  V30 8728 C 847.185 0.315533 3.37428 0
M  V30 8729 C 846.358 1.37276 4.153 0
M  V30 8730 C 845.417 0.808398 5.19953 0
M  V30 8731 O 844.443 1.48661 5.49444 0
M  V30 8732 N 845.645 -0.387253 5.79207 0
M  V30 8733 H 848.41 1.82622 2.37633 0
M  V30 8734 H 845.971 1.09792 1.18984 0
M  V30 8735 H 847.963 -0.0759166 4.04629 0
M  V30 8736 H 846.533 -0.521961 3.08211 0
M  V30 8737 H 845.753 1.93897 3.43217 0
M  V30 8738 H 847.041 2.08509 4.64114 0
M  V30 8739 H 846.439 -0.955725 5.57568 0
M  V30 8740 H 844.996 -0.720457 6.47806 0
M  V30 8741 N 848.429 -1.21819 0.999893 0
M  V30 8742 C 849.657 -1.94758 0.698359 0
M  V30 8743 C 850.072 -1.73771 -0.738183 0
M  V30 8744 O 849.429 -1.04113 -1.49889 0
M  V30 8745 C 849.48 -3.47292 1.00353 0
M  V30 8746 O 849.201 -3.67579 2.38363 0
M  V30 8747 C 850.702 -4.37403 0.72068 0
M  V30 8748 H 847.922 -0.619512 0.257771 0
M  V30 8749 H 850.466 -1.54778 1.33656 0
M  V30 8750 H 848.621 -3.85213 0.411018 0
M  V30 8751 H 849.035 -4.61719 2.48829 0
M  V30 8752 H 850.509 -5.43151 0.984422 0
M  V30 8753 H 850.986 -4.3784 -0.345309 0
M  V30 8754 H 851.592 -4.05119 1.29456 0
M  V30 8755 N 849.908 -0.773975 -1.37286 0
M  V30 8756 C 850.818 -0.162571 -2.34036 0
M  V30 8757 C 851.834 0.677022 -1.60289 0
M  V30 8758 O 853.01 0.596423 -1.92366 0
M  V30 8759 C 850.075 0.70457 -3.39465 0
M  V30 8760 C 849.136 -0.151738 -4.29032 0
M  V30 8761 C 848.369 0.674111 -5.29426 0
M  V30 8762 O 848.592 1.91107 -5.37433 0
M  V30 8763 O 847.526 0.0821398 -6.01844 0
M  V30 8764 H 851.352 -0.962119 -2.88057 0
M  V30 8765 H 848.937 -0.53517 -1.39486 0
M  V30 8766 H 850.819 1.19954 -4.03967 0
M  V30 8767 H 849.494 1.48227 -2.87768 0
M  V30 8768 H 848.401 -0.693118 -3.67623 0
M  V30 8769 H 849.734 -0.892575 -4.84039 0
M  V30 8770 N 851.386 1.48609 -0.524698 0
M  V30 8771 C 852.319 2.26374 0.288109 0
M  V30 8772 C 853.297 1.31997 0.949509 0
M  V30 8773 O 854.481 1.61329 0.974946 0
M  V30 8774 C 851.608 3.08065 1.4076 0
M  V30 8775 C 850.654 4.17777 0.858152 0
M  V30 8776 S 851.487 5.3482 -0.269827 0
M  V30 8777 C 852.643 6.2007 0.852266 0
M  V30 8778 H 852.876 2.94965 -0.371865 0
M  V30 8779 H 850.409 1.51248 -0.31039 0
M  V30 8780 H 852.367 3.5571 2.04892 0
M  V30 8781 H 851.028 2.38898 2.03928 0
M  V30 8782 H 850.221 4.74542 1.69783 0
M  V30 8783 H 849.823 3.72846 0.293627 0
M  V30 8784 H 852.115 6.54451 1.75213 0
M  V30 8785 H 853.058 7.07364 0.322717 0
M  V30 8786 H 853.466 5.53068 1.13029 0
M  V30 8787 N 852.864 0.259585 1.55447 0
M  V30 8788 C 854.11 -0.355207 2.00274 0
M  V30 8789 C 854.465 -1.54637 1.14477 0
M  V30 8790 O 853.758 -1.90519 0.203215 0
M  V30 8791 C 853.952 -0.802727 3.48269 0
M  V30 8792 C 853.781 0.34353 4.48386 0
M  V30 8793 C 852.551 0.822317 4.98564 0
M  V30 8794 C 854.749 1.17482 5.00702 0
M  V30 8795 N 852.731 1.93966 5.82452 0
M  V30 8796 C 854.102 2.14032 5.81885 0
M  V30 8797 C 856.157 1.20994 4.82975 0
M  V30 8798 C 854.86 3.1382 6.47232 0
M  V30 8799 C 856.886 2.19618 5.4911 0
M  V30 8800 C 856.248 3.14903 6.30092 0
M  V30 8801 H 852.347 -0.0955824 0.776137 0
M  V30 8802 H 854.931 0.380062 1.90954 0
M  V30 8803 H 853.102 -1.50726 3.57961 0
M  V30 8804 H 854.834 -1.39354 3.79951 0
M  V30 8805 H 851.589 0.404272 4.71871 0
M  V30 8806 H 852.013 2.50148 6.29091 0
M  V30 8807 H 856.655 0.487104 4.19985 0
M  V30 8808 H 854.373 3.87045 7.09381 0
M  V30 8809 H 857.959 2.23057 5.37342 0
M  V30 8810 H 856.839 3.8997 6.80362 0
M  V30 8811 N 854.342 -1.57594 -0.0133615 0
M  V30 8812 C 855.289 -2.07574 -1.00905 0
M  V30 8813 C 856.259 -0.968231 -1.34961 0
M  V30 8814 O 857.444 -1.23981 -1.45028 0
M  V30 8815 C 854.584 -2.5728 -2.30002 0
M  V30 8816 C 853.697 -3.81881 -2.01967 0
M  V30 8817 C 852.832 -4.20139 -3.25049 0
M  V30 8818 C 851.871 -5.37614 -2.92639 0
M  V30 8819 N 851.008 -5.71229 -4.08218 0
M  V30 8820 H 855.848 -2.92382 -0.575899 0
M  V30 8821 H 853.385 -1.4455 -0.272722 0
M  V30 8822 H 855.343 -2.84171 -3.05454 0
M  V30 8823 H 853.973 -1.75365 -2.71011 0
M  V30 8824 H 853.025 -3.61979 -1.16942 0
M  V30 8825 H 854.337 -4.67441 -1.74069 0
M  V30 8826 H 853.491 -4.48242 -4.08857 0
M  V30 8827 H 852.23 -3.33262 -3.56073 0
M  V30 8828 H 851.235 -5.09248 -2.07235 0
M  V30 8829 H 852.46 -6.26157 -2.62876 0
M  V30 8830 H 850.406 -4.8731 -4.39164 0
M  V30 8831 H 850.323 -6.51333 -3.83799 0
M  V30 8832 H 851.591 -6.03917 -4.92854 0
M  V30 8833 N 855.82 0.285905 -1.54985 0
M  V30 8834 C 856.73 1.37534 -1.90057 0
M  V30 8835 C 857.746 1.54707 -0.796348 0
M  V30 8836 O 858.922 1.69082 -1.09423 0
M  V30 8837 C 855.987 2.7167 -2.15398 0
M  V30 8838 C 855.048 2.63354 -3.39033 0
M  V30 8839 C 854.281 3.91093 -3.63155 0
M  V30 8840 O 854.504 4.91169 -2.90015 0
M  V30 8841 O 853.438 3.92075 -4.56685 0
M  V30 8842 H 857.264 1.10791 -2.8277 0
M  V30 8843 H 854.849 0.483303 -1.41367 0
M  V30 8844 H 856.731 3.51006 -2.33179 0
M  V30 8845 H 855.406 2.98226 -1.25868 0
M  V30 8846 H 854.313 1.82438 -3.26599 0
M  V30 8847 H 855.646 2.41749 -4.2874 0
M  V30 8848 N 857.298 1.47698 0.54982 0
M  V30 8849 C 858.546 1.54397 1.30407 0
M  V30 8850 C 858.867 0.211026 1.93855 0
M  V30 8851 O 858.137 -0.765701 1.80316 0
M  V30 8852 H 856.717 0.568747 0.484289 0
M  V30 8853 H 859.379 1.84042 0.641444 0
M  V30 8854 H 858.475 2.31449 2.09375 0
M  V30 8855 N 858.776 -0.797141 1.35954 0
M  V30 8856 C 859.724 -1.93084 1.29697 0
M  V30 8857 C 860.718 -1.68329 0.190152 0
M  V30 8858 O 861.924 -1.7643 0.3567 0
M  V30 8859 H 858.299 -0.634531 0.403577 0
M  V30 8860 H 860.27 -1.95481 2.25455 0
M  V30 8861 C 859.019 -3.29996 1.09536 0
M  V30 8862 H 858.342 -3.49607 1.93946 0
M  V30 8863 H 859.782 -4.09696 1.09202 0
M  V30 8864 C 858.241 -3.36304 -0.200381 0
M  V30 8865 O 858.771 -3.83579 -1.19291 0
M  V30 8866 N 856.977 -2.89587 -0.242406 0
M  V30 8867 H 856.524 -2.51307 0.565897 0
M  V30 8868 H 856.482 -2.94189 -1.10906 0
M  V30 8869 N 860.254 -1.20106 -1.0204 0
M  V30 8870 C 861.67 -0.955099 -1.27867 0
M  V30 8871 C 861.87 0.367595 -1.98119 0
M  V30 8872 O 860.926 1.09705 -2.27423 0
M  V30 8873 C 862.239 -2.13507 -2.11744 0
M  V30 8874 C 863.787 -2.17563 -2.25023 0
M  V30 8875 C 864.262 -3.35035 -3.12275 0
M  V30 8876 N 865.753 -3.35024 -3.19864 0
M  V30 8877 C 866.488 -4.22566 -3.8759 0
M  V30 8878 N 865.984 -5.20278 -4.57474 0
M  V30 8879 N 867.777 -4.10418 -3.84075 0
M  V30 8880 H 859.928 -2.05193 -0.54861 0
M  V30 8881 H 862.191 -0.897689 -0.304728 0
M  V30 8882 H 861.897 -3.09275 -1.67456 0
M  V30 8883 H 861.771 -2.11281 -3.12474 0
M  V30 8884 H 864.158 -1.22359 -2.68537 0
M  V30 8885 H 864.239 -2.23838 -1.23815 0
M  V30 8886 H 863.883 -4.30522 -2.69468 0
M  V30 8887 H 863.813 -3.25996 -4.13563 0
M  V30 8888 H 866.304 -2.64299 -2.701 0
M  V30 8889 H 866.617 -5.83408 -5.06809 0
M  V30 8890 H 864.962 -5.24219 -4.56311 0
M  V30 8891 H 868.153 -3.33353 -3.28623 0
M  V30 8892 H 868.326 -4.78854 -4.36581 0
M  V30 8893 N 861.732 1.21287 -1.00634 0
M  V30 8894 C 862.981 1.89706 -0.685178 0
M  V30 8895 C 863.294 1.79044 0.787566 0
M  V30 8896 O 864.5 2.42502 1.22086 0
M  V30 8897 C 862.956 3.40176 -1.17508 0
M  V30 8898 C 862.564 3.59446 -2.674 0
M  V30 8899 C 864.308 4.14213 -0.928869 0
M  V30 8900 C 862.215 5.03688 -3.09923 0
M  V30 8901 H 861.145 0.710434 -0.252586 0
M  V30 8902 H 863.796 1.37277 -1.21768 0
M  V30 8903 H 862.178 3.91867 -0.570622 0
M  V30 8904 H 863.352 3.18188 -3.33306 0
M  V30 8905 H 861.667 2.98764 -2.9005 0
M  V30 8906 H 864.264 5.20546 -1.22212 0
M  V30 8907 H 864.607 4.16082 0.134859 0
M  V30 8908 H 865.14 3.68591 -1.49619 0
M  V30 8909 H 861.879 5.06968 -4.15529 0
M  V30 8910 H 861.399 5.45796 -2.4873 0
M  V30 8911 H 863.078 5.72204 -3.0198 0
M  V30 8912 N 863.21 0.781244 1.36873 0
M  V30 8913 C 864.16 0.147313 2.27524 0
M  V30 8914 C 865.144 -0.663928 1.46563 0
M  V30 8915 O 866.336 -0.525343 1.69024 0
M  V30 8916 C 863.465 -0.723511 3.35589 0
M  V30 8917 C 862.551 0.0960763 4.23991 0
M  V30 8918 N 862.942 1.14649 4.92635 0
M  V30 8919 C 861.24 -0.126397 4.45821 0
M  V30 8920 C 861.941 1.64474 5.57964 0
M  V30 8921 N 860.917 0.955316 5.3514 0
M  V30 8922 H 864.719 0.951406 2.78075 0
M  V30 8923 H 862.233 0.619913 1.50103 0
M  V30 8924 H 864.23 -1.19351 3.99451 0
M  V30 8925 H 862.89 -1.52624 2.86594 0
M  V30 8926 H 863.901 1.5288 4.94821 0
M  V30 8927 H 860.578 -0.900284 4.07678 0
M  V30 8928 H 861.968 2.52124 6.22803 0
M  V30 8929 N 864.689 -1.48329 0.532571 0
M  V30 8930 C 865.936 -2.025 -0.000582356 0
M  V30 8931 C 866.264 -1.40942 -1.34036 0
M  V30 8932 O 865.519 -0.545545 -1.87942 0
M  V30 8933 C 865.818 -3.57 -0.168943 0
M  V30 8934 C 865.484 -4.37357 1.0968 0
M  V30 8935 C 864.146 -4.59033 1.44369 0
M  V30 8936 C 866.498 -4.83882 1.93669 0
M  V30 8937 C 863.826 -5.24481 2.62939 0
M  V30 8938 C 866.178 -5.50637 3.11419 0
M  V30 8939 C 864.842 -5.70551 3.46451 0
M  V30 8940 H 864.112 -0.741 -0.000213099 0
M  V30 8941 H 866.759 -1.78282 0.699117 0
M  V30 8942 H 865.064 -3.80072 -0.951429 0
M  V30 8943 H 866.761 -3.9654 -0.596422 0
M  V30 8944 H 863.351 -4.20748 0.816655 0
M  V30 8945 H 867.535 -4.66936 1.6818 0
M  V30 8946 H 862.791 -5.38096 2.9028 0
M  V30 8947 H 866.965 -5.85655 3.76803 0
M  V30 8948 H 864.592 -6.21037 4.38425 0
M  V30 8949 N 866.167 -0.267825 -1.55308 0
M  V30 8950 C 867.099 0.65591 -2.19614 0
M  V30 8951 C 868.112 1.12302 -1.17865 0
M  V30 8952 O 869.301 1.04618 -1.44628 0
M  V30 8953 C 866.401 1.90582 -2.80235 0
M  V30 8954 C 865.574 1.58673 -4.07605 0
M  V30 8955 C 864.633 2.68836 -4.52343 0
M  V30 8956 O 863.659 2.35331 -5.18274 0
M  V30 8957 N 864.861 3.98752 -4.21873 0
M  V30 8958 H 867.626 0.105566 -2.99514 0
M  V30 8959 H 865.187 -0.0886263 -1.61657 0
M  V30 8960 H 867.179 2.63561 -3.07112 0
M  V30 8961 H 865.749 2.3654 -2.04371 0
M  V30 8962 H 864.969 0.691113 -3.88094 0
M  V30 8963 H 866.257 1.34845 -4.90606 0
M  V30 8964 H 865.655 4.28797 -3.68985 0
M  V30 8965 H 864.212 4.68131 -4.53537 0
M  V30 8966 N 867.645 1.57599 0.00500368 0
M  V30 8967 C 868.873 1.94626 0.702016 0
M  V30 8968 C 869.288 0.86953 1.67585 0
M  V30 8969 O 868.645 -0.15199 1.81866 0
M  V30 8970 C 868.696 3.31658 1.43824 0
M  V30 8971 O 868.417 4.35197 0.503467 0
M  V30 8972 C 869.918 3.83114 2.23021 0
M  V30 8973 H 867.138 0.641785 0.195841 0
M  V30 8974 H 869.682 2.04451 -0.0446287 0
M  V30 8975 H 867.837 3.23156 2.13655 0
M  V30 8976 H 868.251 5.1444 1.02235 0
M  V30 8977 H 869.725 4.81438 2.7004 0
M  V30 8978 H 870.202 3.15559 3.05482 0
M  V30 8979 H 870.808 3.94775 1.58216 0
M  V30 8980 N 869.123 -0.277682 1.55134 0
M  V30 8981 C 870.07 -1.34313 1.87693 0
M  V30 8982 C 871.04 -1.49298 0.727973 0
M  V30 8983 O 872.225 -1.6378 0.978807 0
M  V30 8984 C 869.365 -2.69922 2.15026 0
M  V30 8985 C 868.478 -2.63197 3.42565 0
M  V30 8986 C 867.613 -3.90955 3.59622 0
M  V30 8987 C 866.652 -3.78722 4.8087 0
M  V30 8988 N 865.789 -4.98303 4.94609 0
M  V30 8989 H 870.629 -1.05847 2.78569 0
M  V30 8990 H 868.166 -0.511469 1.37922 0
M  V30 8991 H 870.124 -3.48817 2.28872 0
M  V30 8992 H 868.754 -2.966 1.2739 0
M  V30 8993 H 867.806 -1.76038 3.37216 0
M  V30 8994 H 869.118 -2.50056 4.31594 0
M  V30 8995 H 868.272 -4.78291 3.7326 0
M  V30 8996 H 867.011 -4.06957 2.6877 0
M  V30 8997 H 866.016 -2.89769 4.67241 0
M  V30 8998 H 867.241 -3.64242 5.73153 0
M  V30 8999 H 865.187 -5.14725 4.06687 0
M  V30 9000 H 865.104 -4.87675 5.77676 0
M  V30 9001 H 866.372 -5.87225 5.12628 0
M  V30 9002 N 870.601 -1.47988 -0.541979 0
M  V30 9003 C 871.847 -1.55623 -1.30036 0
M  V30 9004 C 872.18 -0.224254 -1.92901 0
M  V30 9005 O 871.455 0.768629 -1.78668 0
M  V30 9006 C 871.738 -2.68562 -2.39888 0
M  V30 9007 C 871.591 -4.11426 -1.81792 0
M  V30 9008 C 872.91 -2.77325 -3.41729 0
M  V30 9009 H 870.029 -0.566498 -0.471433 0
M  V30 9010 H 872.671 -1.8011 -0.604998 0
M  V30 9011 H 870.821 -2.47814 -2.992 0
M  V30 9012 H 872.493 -4.43581 -1.26624 0
M  V30 9013 H 870.736 -4.18989 -1.12386 0
M  V30 9014 H 871.407 -4.8625 -2.61276 0
M  V30 9015 H 873.883 -2.96085 -2.92357 0
M  V30 9016 H 872.759 -3.58097 -4.16002 0
M  V30 9017 H 873.02 -1.84995 -4.01534 0
M  V30 9018 N 872.079 0.78992 -1.36375 0
M  V30 9019 C 873.011 1.91113 -1.26524 0
M  V30 9020 C 874.024 1.61747 -0.184851 0
M  V30 9021 O 875.213 1.73004 -0.439524 0
M  V30 9022 C 872.313 3.25908 -0.92937 0
M  V30 9023 C 871.486 3.83057 -2.11154 0
M  V30 9024 C 870.545 4.96289 -1.74881 0
M  V30 9025 O 869.571 5.12834 -2.46962 0
M  V30 9026 N 870.773 5.76478 -0.682193 0
M  V30 9027 H 873.538 2.00085 -2.23128 0
M  V30 9028 H 871.099 0.968165 -1.29762 0
M  V30 9029 H 873.091 3.99151 -0.667884 0
M  V30 9030 H 871.661 3.12556 -0.0524843 0
M  V30 9031 H 870.881 3.01808 -2.53586 0
M  V30 9032 H 872.169 4.1797 -2.90135 0
M  V30 9033 H 871.567 5.65638 -0.0836661 0
M  V30 9034 H 870.124 6.50026 -0.480529 0
M  V30 9035 N 873.557 1.20646 1.01402 0
M  V30 9036 C 874.467 0.973385 2.13453 0
M  V30 9037 C 875.483 -0.0715865 1.73853 0
M  V30 9038 O 876.659 0.116438 2.01063 0
M  V30 9039 C 873.724 0.531285 3.42605 0
M  V30 9040 C 872.785 1.64741 3.96433 0
M  V30 9041 C 872.018 1.22631 5.1942 0
M  V30 9042 O 872.241 0.0960891 5.70319 0
M  V30 9043 O 871.175 2.03474 5.66465 0
M  V30 9044 H 875.001 1.91164 2.35987 0
M  V30 9045 H 872.586 0.990553 1.11841 0
M  V30 9046 H 874.468 0.294095 4.20373 0
M  V30 9047 H 873.143 -0.378358 3.21481 0
M  V30 9048 H 872.05 1.93891 3.19933 0
M  V30 9049 H 873.383 2.53415 4.2195 0
M  V30 9050 N 875.035 -1.20752 1.01276 0
M  V30 9051 C 876.263 -1.94006 0.718976 0
M  V30 9052 C 876.678 -1.74544 -0.719711 0
M  V30 9053 O 876.035 -1.05697 -1.48776 0
M  V30 9054 C 876.086 -3.46208 1.04031 0
M  V30 9055 O 875.807 -3.65031 2.42248 0
M  V30 9056 C 877.308 -4.36614 0.767032 0
M  V30 9057 H 874.528 -0.616743 0.264327 0
M  V30 9058 H 877.072 -1.53352 1.3529 0
M  V30 9059 H 875.227 -3.84756 0.451852 0
M  V30 9060 H 875.641 -4.59054 2.53712 0
M  V30 9061 H 877.115 -5.42076 1.04198 0
M  V30 9062 H 877.592 -4.38182 -0.298851 0
M  V30 9063 H 878.198 -4.03723 1.33746 0
M  V30 9064 N 876.513 -0.788492 -1.36457 0
M  V30 9065 C 877.761 -0.359749 -1.98872 0
M  V30 9066 C 878.082 1.07197 -1.62892 0
M  V30 9067 O 877.352 1.73875 -0.902463 0
M  V30 9068 H 875.932 -0.130029 -0.735596 0
M  V30 9069 H 878.594 -1.01033 -1.66668 0
M  V30 9070 H 877.69 -0.450835 -3.08827 0
M  V30 9071 N 877.991 1.48044 -0.54043 0
M  V30 9072 C 879.268 1.95523 0.0547302 0
M  V30 9073 C 879.648 1.48284 1.5025 0
M  V30 9074 O 878.996 0.714037 2.17057 0
M  V30 9075 C 879.206 3.48923 -0.0733393 0
M  V30 9076 C 880.554 4.24523 0.0806026 0
M  V30 9077 O 881.578 3.562 -5.58687e-05 0
M  V30 9078 O 880.437 5.45922 0.251216 0
M  V30 9079 H 877.531 0.823728 0.073493 0
M  V30 9080 H 880.077 1.5852 -0.605768 0
M  V30 9081 H 878.849 3.76059 -1.08144 0
M  V30 9082 H 878.472 3.92648 0.625536 0
M  V30 9083 N 879.47 0.276058 1.55163 0
M  V30 9084 C 880.719 -0.341098 1.98795 0
M  V30 9085 C 881.032 -1.56905 1.16791 0
M  V30 9086 O 882.238 -2.25922 1.50571 0
M  V30 9087 C 880.694 -0.658231 3.5383 0
M  V30 9088 C 880.302 0.549972 4.44611 0
M  V30 9089 C 882.046 -1.23796 4.06048 0
M  V30 9090 C 879.953 0.207373 5.91036 0
M  V30 9091 H 878.883 -0.131224 0.742493 0
M  V30 9092 H 881.534 0.380858 1.79504 0
M  V30 9093 H 879.916 -1.43911 3.68925 0
M  V30 9094 H 881.09 1.32681 4.41285 0
M  V30 9095 H 879.405 1.04661 4.03032 0
M  V30 9096 H 882.002 -1.50811 5.12991 0
M  V30 9097 H 882.345 -2.17214 3.55139 0
M  V30 9098 H 882.878 -0.519345 3.94395 0
M  V30 9099 H 879.617 1.10946 6.46043 0
M  V30 9100 H 879.137 -0.532687 5.9743 0
M  V30 9101 H 880.816 -0.200072 6.46691 0
M  V30 9102 N 880.948 -1.576 0.00335426 0
M  V30 9103 C 882.194 -1.90996 -0.681799 0
M  V30 9104 C 882.527 -0.877643 -1.73237 0
M  V30 9105 O 881.802 0.103183 -1.94226 0
M  V30 9106 C 882.085 -3.34961 -1.32187 0
M  V30 9107 C 881.938 -4.48911 -0.28261 0
M  V30 9108 C 883.257 -3.78408 -2.24711 0
M  V30 9109 H 880.376 -0.694596 -0.246386 0
M  V30 9110 H 883.018 -1.89919 0.055336 0
M  V30 9111 H 881.168 -3.36008 -1.95014 0
M  V30 9112 H 882.84 -4.59999 0.346241 0
M  V30 9113 H 881.083 -4.32 0.394768 0
M  V30 9114 H 881.754 -5.46609 -0.769576 0
M  V30 9115 H 884.23 -3.78934 -1.71897 0
M  V30 9116 H 883.106 -4.79885 -2.66461 0
M  V30 9117 H 883.367 -3.12464 -3.1276 0
M  V30 9118 N 882.426 0.269451 -1.5528 0
M  V30 9119 C 883.675 0.998381 -1.75258 0
M  V30 9120 C 883.988 1.87321 -0.563034 0
M  V30 9121 O 885.194 2.63719 -0.645313 0
M  V30 9122 C 883.65 1.82505 -3.10193 0
M  V30 9123 C 883.258 0.99871 -4.36726 0
M  V30 9124 C 885.002 2.54807 -3.3952 0
M  V30 9125 C 882.909 1.81997 -5.627 0
M  V30 9126 H 881.839 0.376488 -0.653278 0
M  V30 9127 H 884.49 0.253909 -1.81735 0
M  V30 9128 H 882.872 2.61061 -2.97763 0
M  V30 9129 H 884.046 0.257064 -4.60082 0
M  V30 9130 H 882.361 0.390074 -4.14569 0
M  V30 9131 H 884.958 3.16662 -4.30847 0
M  V30 9132 H 885.301 3.25273 -2.59813 0
M  V30 9133 H 885.834 1.83278 -3.53064 0
M  V30 9134 H 882.573 1.15945 -6.45164 0
M  V30 9135 H 882.093 2.53749 -5.43481 0
M  V30 9136 H 883.772 2.39274 -6.0113 0
M  V30 9137 N 883.904 1.48273 0.534124 0
M  V30 9138 C 885.129 1.59988 1.31979 0
M  V30 9139 C 885.554 0.258824 1.86311 0
M  V30 9140 O 884.912 -0.768885 1.64188 0
M  V30 9141 C 884.96 2.64642 2.44943 0
M  V30 9142 O 884.064 2.21515 3.47858 0
M  V30 9143 H 883.405 0.536625 0.391063 0
M  V30 9144 H 885.935 1.94229 0.643135 0
M  V30 9145 H 885.945 2.85786 2.91187 0
M  V30 9146 H 884.62 3.62004 2.04758 0
M  V30 9147 H 883.197 2.10567 3.0776 0
M  V30 9148 N 885.382 -0.782676 1.36792 0
M  V30 9149 C 886.33 -1.91698 1.31737 0
M  V30 9150 C 887.324 -1.68118 0.207994 0
M  V30 9151 O 888.53 -1.76042 0.375393 0
M  V30 9152 H 884.905 -0.630215 0.410284 0
M  V30 9153 H 886.876 -1.93078 2.27516 0
M  V30 9154 C 885.625 -3.28816 1.13029 0
M  V30 9155 H 884.948 -3.4753 1.97643 0
M  V30 9156 H 886.388 -4.08515 1.13541 0
M  V30 9157 C 884.847 -3.36497 -0.1647 0
M  V30 9158 O 885.377 -3.84822 -1.15216 0
M  V30 9159 N 883.583 -2.89828 -0.211678 0
M  V30 9160 H 883.13 -2.50693 0.59252 0
M  V30 9161 H 883.088 -2.95349 -1.07779 0
M  V30 9162 N 886.86 -1.21182 -1.00761 0
M  V30 9163 C 887.823 -0.970339 -2.07646 0
M  V30 9164 C 888.823 0.0576345 -1.60697 0
M  V30 9165 O 890.013 -0.179369 -1.73274 0
M  V30 9166 C 887.145 -0.462703 -3.37745 0
M  V30 9167 H 888.338 -1.91856 -2.30502 0
M  V30 9168 H 885.891 -1.02844 -1.17698 0
M  V30 9169 H 886.626 0.490559 -3.20568 0
M  V30 9170 H 886.411 -1.20416 -3.73152 0
M  V30 9171 H 887.901 -0.313531 -4.16421 0
M  V30 9172 N 888.338 1.20213 -1.01915 0
M  V30 9173 C 889.568 1.93341 -0.728197 0
M  V30 9174 C 889.976 1.75151 0.715454 0
M  V30 9175 O 889.319 1.06437 1.49722 0
M  V30 9176 C 889.381 3.45677 -0.9873 0
M  V30 9177 C 889.045 3.8763 -2.42057 0
M  V30 9178 C 890.042 3.93184 -3.40151 0
M  V30 9179 C 887.727 4.19547 -2.76199 0
M  V30 9180 C 889.721 4.30069 -4.70446 0
M  V30 9181 C 887.408 4.56106 -4.06707 0
M  V30 9182 C 888.406 4.6134 -5.03641 0
M  V30 9183 O 888.094 4.97059 -6.31813 0
M  V30 9184 H 887.826 0.621258 -0.266485 0
M  V30 9185 H 890.38 1.53577 -1.36393 0
M  V30 9186 H 888.61 3.85578 -0.294405 0
M  V30 9187 H 890.299 4.00035 -0.687536 0
M  V30 9188 H 891.065 3.68687 -3.15111 0
M  V30 9189 H 886.944 4.14663 -2.01434 0
M  V30 9190 H 890.488 4.34069 -5.46105 0
M  V30 9191 H 886.385 4.80059 -4.31525 0
M  V30 9192 H 887.153 5.15043 -6.36139 0
M  V30 9193 N 889.816 0.795718 1.36037 0
M  V30 9194 C 891.062 0.371574 1.99367 0
M  V30 9195 C 891.395 -1.0557 1.62999 0
M  V30 9196 O 890.67 -1.73051 0.887895 0
M  V30 9197 C 890.953 0.542622 3.55988 0
M  V30 9198 C 890.806 2.01404 4.0219 0
M  V30 9199 C 892.125 -0.0384527 4.40083 0
M  V30 9200 H 889.244 0.136483 0.724252 0
M  V30 9201 H 891.886 1.00323 1.61355 0
M  V30 9202 H 890.036 0.0049053 3.885 0
M  V30 9203 H 891.708 2.6133 3.80137 0
M  V30 9204 H 889.951 2.51439 3.53498 0
M  V30 9205 H 890.622 2.08466 5.11122 0
M  V30 9206 H 893.098 0.420634 4.13968 0
M  V30 9207 H 891.974 0.111214 5.48787 0
M  V30 9208 H 892.235 -1.13116 4.27384 0
M  V30 9209 N 891.294 -1.47756 0.548274 0
M  V30 9210 C 892.571 -1.9555 -0.0443603 0
M  V30 9211 C 892.951 -1.49079 -1.49462 0
M  V30 9212 O 892.299 -0.725538 -2.16675 0
M  V30 9213 C 892.509 -3.48879 0.0918425 0
M  V30 9214 C 893.857 -4.2456 -0.0580879 0
M  V30 9215 O 894.881 -3.56195 0.018946 0
M  V30 9216 O 893.74 -5.46048 -0.222261 0
M  V30 9217 H 890.834 -0.824106 -0.0691235 0
M  V30 9218 H 893.38 -1.58196 0.614166 0
M  V30 9219 H 892.152 -3.7548 1.10137 0
M  V30 9220 H 891.775 -3.92975 -0.604704 0
M  V30 9221 N 892.772 -0.284283 -1.55015 0
M  V30 9222 C 893.702 0.592663 -2.25853 0
M  V30 9223 C 894.683 1.15151 -1.25197 0
M  V30 9224 O 895.868 1.18395 -1.53936 0
M  V30 9225 C 892.998 1.77254 -2.98661 0
M  V30 9226 C 891.952 1.34482 -4.06323 0
M  V30 9227 C 891.278 2.60853 -4.66754 0
M  V30 9228 C 892.578 0.488288 -5.20013 0
M  V30 9229 H 894.272 0.00187041 -2.994 0
M  V30 9230 H 891.818 -0.000540402 -1.44 0
M  V30 9231 H 893.771 2.39199 -3.46932 0
M  V30 9232 H 892.495 2.38931 -2.22664 0
M  V30 9233 H 891.154 0.748519 -3.58877 0
M  V30 9234 H 890.802 3.20808 -3.87416 0
M  V30 9235 H 890.502 2.32942 -5.39455 0
M  V30 9236 H 892.026 3.23631 -5.1778 0
M  V30 9237 H 893.44 1.01298 -5.6428 0
M  V30 9238 H 891.837 0.303669 -5.99331 0
M  V30 9239 H 892.907 -0.490727 -4.8241 0
M  V30 9240 N 894.251 1.57596 -0.0117121 0
M  V30 9241 C 895.214 2.08089 0.960816 0
M  V30 9242 C 896.214 0.992519 1.26514 0
M  V30 9243 O 897.404 1.25475 1.20837 0
M  V30 9244 C 894.536 2.53217 2.28241 0
M  V30 9245 H 895.729 2.9529 0.523829 0
M  V30 9246 H 893.282 1.54508 0.235995 0
M  V30 9247 H 894.017 1.69294 2.76604 0
M  V30 9248 H 893.802 3.32714 2.0747 0
M  V30 9249 H 895.292 2.92568 2.97983 0
M  V30 9250 N 895.729 -0.261212 1.5542 0
M  V30 9251 C 897.14 -0.83138 1.67167 0
M  V30 9252 C 897.491 -1.8659 0.606525 0
M  V30 9253 O 896.616 -2.14953 -0.24985 0
M  V30 9254 C 897.211 -1.51475 3.03052 0
M  V30 9255 C 895.77 -2.0328 3.16787 0
M  V30 9256 C 894.917 -0.878903 2.63003 0
M  V30 9257 H 897.868 -0.0373102 1.58656 0
M  V30 9258 H 897.889 -2.38222 2.96699 0
M  V30 9259 H 897.401 -0.76157 3.80554 0
M  V30 9260 H 895.502 -2.81523 2.44082 0
M  V30 9261 H 895.615 -2.24001 4.2351 0
M  V30 9262 H 893.979 -1.27551 2.2046 0
M  V30 9263 H 894.762 -0.13904 3.43018 0
M  V30 9264 N 897.207 -1.48554 -0.526253 0
M  V30 9265 C 898.435 -1.60429 -1.30652 0
M  V30 9266 C 898.85 -0.265963 -1.86917 0
M  V30 9267 O 898.207 0.745262 -1.6659 0
M  V30 9268 C 898.258 -2.65377 -2.45473 0
M  V30 9269 O 897.979 -3.94017 -1.91527 0
M  V30 9270 C 899.48 -2.87726 -3.37237 0
M  V30 9271 H 896.7 -0.540817 -0.397187 0
M  V30 9272 H 899.244 -1.94409 -0.634461 0
M  V30 9273 H 897.399 -2.34246 -3.08557 0
M  V30 9274 H 897.813 -4.51623 -2.66715 0
M  V30 9275 H 899.287 -3.64951 -4.14144 0
M  V30 9276 H 899.764 -1.96688 -3.92696 0
M  V30 9277 H 900.37 -3.20176 -2.79942 0
M  V30 9278 N 898.685 0.775411 -1.37205 0
M  V30 9279 C 899.91 1.5696 -1.35567 0
M  V30 9280 C 900.335 1.88012 0.0575554 0
M  V30 9281 O 899.693 1.48954 1.03355 0
M  V30 9282 C 899.741 2.85886 -2.19776 0
M  V30 9283 O 898.845 3.80103 -1.59987 0
M  V30 9284 H 898.186 0.475583 -0.463375 0
M  V30 9285 H 900.716 0.96001 -1.80679 0
M  V30 9286 H 900.726 3.35024 -2.32859 0
M  V30 9287 H 899.401 2.62613 -3.22502 0
M  V30 9288 H 897.978 3.38736 -1.55924 0
M  V30 9289 N 900.163 1.21714 1.00117 0
M  V30 9290 C 901.411 1.03465 1.73607 0
M  V30 9291 C 901.732 -0.432295 1.90148 0
M  V30 9292 O 901.002 -1.31157 1.45515 0
M  V30 9293 H 899.582 0.379857 0.643209 0
M  V30 9294 H 902.244 1.53088 1.20624 0
M  V30 9295 H 901.34 1.50574 2.73375 0
M  V30 9296 N 901.641 -1.19671 1.02551 0
M  V30 9297 C 902.869 -1.93233 0.739513 0
M  V30 9298 C 903.284 -1.75298 -0.701158 0
M  V30 9299 O 902.641 -1.07269 -1.47647 0
M  V30 9300 C 902.692 -3.45085 1.07697 0
M  V30 9301 O 902.413 -3.62441 2.46106 0
M  V30 9302 C 903.914 -4.35776 0.813298 0
M  V30 9303 H 901.134 -0.613905 0.270853 0
M  V30 9304 H 903.678 -1.51909 1.36909 0
M  V30 9305 H 901.833 -3.84255 0.492635 0
M  V30 9306 H 902.247 -4.56337 2.58567 0
M  V30 9307 H 903.721 -5.40941 1.09941 0
M  V30 9308 H 904.198 -4.38474 -0.252359 0
M  V30 9309 H 904.804 -4.02282 1.38021 0
M  V30 9310 N 903.119 -0.802921 -1.35613 0
M  V30 9311 C 904.344 -0.392846 -2.03645 0
M  V30 9312 C 904.769 0.987075 -1.6012 0
M  V30 9313 O 904.127 1.63849 -0.776101 0
M  V30 9314 C 904.175 -0.480208 -3.57388 0
M  V30 9315 O 903.279 0.507751 -4.09262 0
M  V30 9316 H 902.62 -0.16464 -0.643265 0
M  V30 9317 H 905.15 -1.08779 -1.73287 0
M  V30 9318 H 905.16 -0.348683 -4.06507 0
M  V30 9319 H 903.835 -1.48675 -3.88418 0
M  V30 9320 H 902.412 0.336769 -3.71376 0
M  V30 9321 N 904.597 1.47463 -0.556102 0
M  V30 9322 C 905.56 2.28478 0.181743 0
M  V30 9323 C 906.56 1.36886 0.843738 0
M  V30 9324 O 907.75 1.59527 0.69977 0
M  V30 9325 C 904.882 3.16534 1.26566 0
M  V30 9326 H 906.075 2.95182 -0.529892 0
M  V30 9327 H 903.628 1.53134 -0.313005 0
M  V30 9328 H 904.363 2.5452 2.00973 0
M  V30 9329 H 904.148 3.83939 0.795798 0
M  V30 9330 H 905.638 3.77579 1.78393 0
M  V30 9331 N 906.075 0.2925 1.54862 0
M  V30 9332 C 907.022 -0.587365 2.23201 0
M  V30 9333 C 907.992 -1.13623 1.21157 0
M  V30 9334 O 909.177 -1.18233 1.49752 0
M  V30 9335 C 906.317 -1.75745 2.96998 0
M  V30 9336 C 905.43 -1.24078 4.13798 0
M  V30 9337 C 904.565 -2.37405 4.75197 0
M  V30 9338 C 903.604 -1.82829 5.84157 0
M  V30 9339 N 902.741 -2.89696 6.39547 0
M  V30 9340 H 907.581 0.00202207 2.98 0
M  V30 9341 H 905.118 0.012766 1.47094 0
M  V30 9342 H 907.076 -2.44549 3.38011 0
M  V30 9343 H 905.706 -2.3186 2.24591 0
M  V30 9344 H 904.758 -0.445268 3.77785 0
M  V30 9345 H 906.07 -0.801186 4.92324 0
M  V30 9346 H 905.224 -3.14172 5.19019 0
M  V30 9347 H 903.963 -2.84688 3.95985 0
M  V30 9348 H 902.968 -1.04548 5.39768 0
M  V30 9349 H 904.193 -1.36461 6.65248 0
M  V30 9350 H 902.139 -3.36328 5.63222 0
M  V30 9351 H 902.056 -2.50206 7.13395 0
M  V30 9352 H 903.324 -3.66386 6.88027 0
M  V30 9353 N 907.553 -1.57587 0.0200696 0
M  V30 9354 C 908.781 -1.95718 -0.670964 0
M  V30 9355 C 909.196 -0.896081 -1.6618 0
M  V30 9356 O 908.553 0.123037 -1.82085 0
M  V30 9357 C 908.604 -3.33904 -1.38529 0
M  V30 9358 O 908.325 -4.35943 -0.434167 0
M  V30 9359 C 909.826 -3.86614 -2.16898 0
M  V30 9360 H 907.046 -0.644819 -0.185606 0
M  V30 9361 H 909.59 -2.04354 0.0771495 0
M  V30 9362 H 907.745 -3.26515 -2.08487 0
M  V30 9363 H 908.159 -5.16001 -0.940378 0
M  V30 9364 H 909.633 -4.85673 -2.62346 0
M  V30 9365 H 910.11 -3.20379 -3.00423 0
M  V30 9366 H 910.716 -3.97243 -1.51916 0
M  V30 9367 N 909.032 0.252966 -1.55557 0
M  V30 9368 C 910.443 0.822503 -1.67606 0
M  V30 9369 C 910.794 1.86265 -0.616411 0
M  V30 9370 O 909.919 2.15082 0.238447 0
M  V30 9371 C 910.514 1.49866 -3.03852 0
M  V30 9372 C 909.073 2.01597 -3.17861 0
M  V30 9373 C 908.22 0.864943 -2.63465 0
M  V30 9374 H 911.171 0.0288958 -1.58674 0
M  V30 9375 H 911.192 2.36646 -2.97958 0
M  V30 9376 H 910.704 0.741378 -3.80953 0
M  V30 9377 H 908.805 2.80224 -2.45571 0
M  V30 9378 H 908.918 2.21752 -4.24692 0
M  V30 9379 H 907.282 1.2638 -2.21134 0
M  V30 9380 H 908.065 0.120847 -3.43087 0
M  V30 9381 N 910.51 1.48831 0.518367 0
M  V30 9382 C 911.735 1.61379 1.30275 0
M  V30 9383 C 912.16 0.278571 1.86026 0
M  V30 9384 O 911.518 -0.751427 1.64995 0
M  V30 9385 C 911.566 2.67225 2.42122 0
M  V30 9386 O 910.67 2.25192 3.45489 0
M  V30 9387 H 910.011 0.540742 0.385349 0
M  V30 9388 H 912.541 1.949 0.622498 0
M  V30 9389 H 912.551 2.88859 2.8814 0
M  V30 9390 H 911.226 3.64155 2.00907 0
M  V30 9391 H 909.803 2.13819 3.05509 0
M  V30 9392 N 911.988 -0.768124 1.37614 0
M  V30 9393 C 912.898 -1.91249 1.35871 0
M  V30 9394 C 913.914 -1.7208 0.257786 0
M  V30 9395 O 915.09 -1.95253 0.493782 0
M  V30 9396 C 912.155 -3.26423 1.16829 0
M  V30 9397 C 911.216 -3.5822 2.36594 0
M  V30 9398 C 910.449 -4.86945 2.1845 0
M  V30 9399 O 910.672 -5.58258 1.17064 0
M  V30 9400 O 909.606 -5.17888 3.06718 0
M  V30 9401 H 913.432 -1.95671 2.32264 0
M  V30 9402 H 911.017 -0.911382 1.18382 0
M  V30 9403 H 912.899 -4.07269 1.08212 0
M  V30 9404 H 911.574 -3.22845 0.235123 0
M  V30 9405 H 910.481 -2.77594 2.50783 0
M  V30 9406 H 911.814 -3.66545 3.2849 0
M  V30 9407 N 913.466 -1.22244 -0.994698 0
M  V30 9408 C 914.714 -1.04384 -1.73056 0
M  V30 9409 C 915.035 0.422204 -1.90374 0
M  V30 9410 O 914.305 1.30383 -1.46209 0
M  V30 9411 H 912.885 -0.383263 -0.641185 0
M  V30 9412 H 915.547 -1.53725 -1.1981 0
M  V30 9413 H 914.643 -1.52021 -2.72573 0
M  V30 9414 N 914.944 1.19125 -1.03184 0
M  V30 9415 C 916.192 1.8851 -0.728587 0
M  V30 9416 C 916.513 1.80195 0.74531 0
M  V30 9417 O 915.783 1.21437 1.5372 0
M  V30 9418 H 914.363 0.69784 -0.266511 0
M  V30 9419 H 917.025 1.44607 -1.3067 0
M  V30 9420 H 916.121 2.9477 -1.02554 0
M  V30 9421 N 916.422 0.810101 1.35185 0
M  V30 9422 C 917.369 0.220927 2.2974 0
M  V30 9423 C 918.339 -0.647024 1.5298 0
M  V30 9424 O 919.524 -0.591367 1.81404 0
M  V30 9425 C 916.664 -0.62167 3.39454 0
M  V30 9426 C 915.777 0.267104 4.31173 0
M  V30 9427 C 914.912 -0.583833 5.27982 0
M  V30 9428 C 913.951 0.305123 6.11339 0
M  V30 9429 N 913.088 -0.505992 7.00274 0
M  V30 9430 H 917.928 1.03266 2.79536 0
M  V30 9431 H 915.465 0.520768 1.37573 0
M  V30 9432 H 917.423 -1.12539 4.01735 0
M  V30 9433 H 916.053 -1.39863 2.90926 0
M  V30 9434 H 915.105 0.88895 3.69867 0
M  V30 9435 H 916.417 0.951182 4.89647 0
M  V30 9436 H 915.571 -1.15254 5.95652 0
M  V30 9437 H 914.31 -1.30146 4.70014 0
M  V30 9438 H 913.315 0.886075 5.42613 0
M  V30 9439 H 914.54 1.02067 6.71386 0
M  V30 9440 H 912.486 -1.20753 6.4479 0
M  V30 9441 H 912.403 0.119966 7.55905 0
M  V30 9442 H 913.671 -1.05787 7.72288 0
M  V30 9443 N 917.9 -1.47166 0.563914 0
M  V30 9444 C 918.83 -2.32894 -0.168148 0
M  V30 9445 C 919.811 -1.44202 -0.902214 0
M  V30 9446 O 920.996 -1.73048 -0.881365 0
M  V30 9447 C 918.126 -3.26116 -1.19439 0
M  V30 9448 C 917.08 -4.24101 -0.576363 0
M  V30 9449 C 916.406 -5.06696 -1.70772 0
M  V30 9450 C 917.706 -5.20142 0.47425 0
M  V30 9451 H 919.4 -2.9435 0.547573 0
M  V30 9452 H 916.946 -1.41545 0.264778 0
M  V30 9453 H 918.899 -3.84935 -1.71474 0
M  V30 9454 H 917.623 -2.62728 -1.94014 0
M  V30 9455 H 916.282 -3.66519 -0.0772534 0
M  V30 9456 H 915.93 -4.39707 -2.44268 0
M  V30 9457 H 915.63 -5.7304 -1.29994 0
M  V30 9458 H 917.154 -5.68375 -2.2312 0
M  V30 9459 H 918.568 -5.73286 0.0397035 0
M  V30 9460 H 916.965 -5.94726 0.801287 0
M  V30 9461 H 918.035 -4.65214 1.36764 0
M  V30 9462 N 919.378 -0.300708 -1.54705 0
M  V30 9463 C 920.31 0.609179 -2.20956 0
M  V30 9464 C 921.323 1.09776 -1.20221 0
M  V30 9465 O 922.512 1.01527 -1.46815 0
M  V30 9466 C 919.612 1.84595 -2.84214 0
M  V30 9467 C 918.785 1.49991 -4.10879 0
M  V30 9468 C 917.844 2.5918 -4.57943 0
M  V30 9469 O 916.87 2.24285 -5.23149 0
M  V30 9470 N 918.072 3.89714 -4.30236 0
M  V30 9471 H 920.837 0.0420111 -2.99671 0
M  V30 9472 H 918.398 -0.122896 -1.61433 0
M  V30 9473 H 920.39 2.56988 -3.12633 0
M  V30 9474 H 918.96 2.32152 -2.09342 0
M  V30 9475 H 918.18 0.608637 -3.89473 0
M  V30 9476 H 919.468 1.24409 -4.93356 0
M  V30 9477 H 918.866 4.20874 -3.77997 0
M  V30 9478 H 917.423 4.58406 -4.63365 0
M  V30 9479 N 920.856 1.57574 -0.0284266 0
M  V30 9480 C 922.081 1.96479 0.664137 0
M  V30 9481 C 922.506 0.904826 1.64908 0
M  V30 9482 O 921.864 -0.134339 1.80802 0
M  V30 9483 C 921.912 3.34479 1.34745 0
M  V30 9484 O 921.016 3.30794 2.46271 0
M  V30 9485 H 920.357 0.640654 0.174524 0
M  V30 9486 H 922.887 2.04402 -0.0900729 0
M  V30 9487 H 922.897 3.70694 1.7044 0
M  V30 9488 H 921.572 4.1117 0.625468 0
M  V30 9489 H 920.149 3.06294 2.12693 0
M  V30 9490 N 922.334 -0.244713 1.55689 0
M  V30 9491 C 923.562 -0.989944 1.8168 0
M  V30 9492 C 923.977 -1.78863 0.604449 0
M  V30 9493 O 923.334 -1.77437 -0.426907 0
M  V30 9494 C 923.385 -1.92607 3.05916 0
M  V30 9495 O 923.106 -1.1597 4.22472 0
M  V30 9496 C 924.607 -2.78711 3.44724 0
M  V30 9497 H 921.827 -0.2912 0.604519 0
M  V30 9498 H 924.371 -0.266938 2.0275 0
M  V30 9499 H 922.526 -2.60333 2.8689 0
M  V30 9500 H 922.94 -1.79311 4.92898 0
M  V30 9501 H 924.414 -3.40141 4.34751 0
M  V30 9502 H 924.891 -3.49935 2.6541 0
M  V30 9503 H 925.497 -2.16435 3.66109 0
M  V30 9504 N 923.813 -1.49104 -0.510467 0
M  V30 9505 C 925.06 -1.58112 -1.26518 0
M  V30 9506 C 925.388 -0.263603 -1.92705 0
M  V30 9507 O 924.643 0.747743 -1.80852 0
M  V30 9508 C 924.942 -2.68259 -2.36161 0
M  V30 9509 C 924.608 -4.10069 -1.87495 0
M  V30 9510 C 923.27 -4.48662 -1.73942 0
M  V30 9511 C 925.622 -4.98859 -1.5096 0
M  V30 9512 C 922.95 -5.73829 -1.22217 0
M  V30 9513 C 925.302 -6.24535 -1.00691 0
M  V30 9514 C 923.966 -6.61967 -0.857691 0
M  V30 9515 H 923.236 -0.578574 -0.462962 0
M  V30 9516 H 925.883 -1.82899 -0.567475 0
M  V30 9517 H 924.188 -2.37407 -3.11681 0
M  V30 9518 H 925.885 -2.7244 -2.9424 0
M  V30 9519 H 922.475 -3.79601 -1.99001 0
M  V30 9520 H 926.659 -4.69706 -1.60282 0
M  V30 9521 H 921.915 -6.01539 -1.09368 0
M  V30 9522 H 926.089 -6.9272 -0.71498 0
M  V30 9523 H 923.716 -7.58839 -0.454702 0
M  V30 9524 N 925.291 0.760815 -1.38019 0
M  V30 9525 C 926.537 1.52198 -1.34028 0
M  V30 9526 C 926.87 1.94067 0.0718309 0
M  V30 9527 O 926.145 1.64895 1.0315 0
M  V30 9528 C 926.428 2.77954 -2.2894 0
M  V30 9529 C 926.281 2.42269 -3.7898 0
M  V30 9530 C 927.6 3.79943 -2.22107 0
M  V30 9531 H 924.719 0.552131 -0.488181 0
M  V30 9532 H 927.361 0.871971 -1.6881 0
M  V30 9533 H 925.511 3.33419 -1.9941 0
M  V30 9534 H 927.183 1.92635 -4.19153 0
M  V30 9535 H 925.426 1.74822 -3.97014 0
M  V30 9536 H 926.097 3.32211 -4.4084 0
M  V30 9537 H 928.573 3.34 -2.4816 0
M  V30 9538 H 927.449 4.6564 -2.90639 0
M  V30 9539 H 927.71 4.25004 -1.21753 0
M  V30 9540 N 926.769 1.22769 0.988202 0
M  V30 9541 C 928.016 1.05509 1.72841 0
M  V30 9542 C 928.344 -0.409145 1.90148 0
M  V30 9543 O 927.599 -1.3195 1.44526 0
M  V30 9544 C 927.898 1.71679 3.13466 0
M  V30 9545 C 927.564 3.21584 3.16061 0
M  V30 9546 C 926.226 3.62486 3.16476 0
M  V30 9547 C 928.578 4.17511 3.11984 0
M  V30 9548 C 925.906 4.97789 3.10521 0
M  V30 9549 C 928.258 5.52796 3.0757 0
M  V30 9550 C 926.922 5.93072 3.06304 0
M  V30 9551 H 926.192 0.386085 0.632471 0
M  V30 9552 H 928.839 1.52596 1.157 0
M  V30 9553 H 927.144 1.1693 3.73945 0
M  V30 9554 H 928.841 1.55809 3.69492 0
M  V30 9555 H 925.431 2.89019 3.1649 0
M  V30 9556 H 929.615 3.86926 3.10809 0
M  V30 9557 H 924.871 5.28218 3.07888 0
M  V30 9558 H 929.045 6.26848 3.03372 0
M  V30 9559 H 926.672 6.97879 3.01444 0
M  V30 9560 N 928.247 -1.18576 1.03814 0
M  V30 9561 C 929.157 -2.25778 0.637311 0
M  V30 9562 C 930.173 -1.7074 -0.335248 0
M  V30 9563 O 931.349 -2.00494 -0.19081 0
M  V30 9564 C 928.414 -3.467 0.00386953 0
M  V30 9565 C 927.475 -4.16881 1.02511 0
M  V30 9566 C 926.708 -5.32031 0.421802 0
M  V30 9567 O 926.931 -5.65142 -0.772699 0
M  V30 9568 O 925.865 -5.90826 1.14925 0
M  V30 9569 H 929.691 -2.62323 1.53037 0
M  V30 9570 H 927.276 -1.25609 0.80887 0
M  V30 9571 H 929.158 -4.19953 -0.348873 0
M  V30 9572 H 927.833 -3.11983 -0.863047 0
M  V30 9573 H 926.74 -3.45707 1.4296 0
M  V30 9574 H 928.073 -4.55592 1.86271 0
M  V30 9575 N 929.725 -0.817259 -1.34754 0
M  V30 9576 C 930.635 -0.236946 -2.334 0
M  V30 9577 C 931.651 0.625685 -1.62361 0
M  V30 9578 O 932.827 0.534921 -1.94166 0
M  V30 9579 C 929.892 0.596215 -3.41535 0
M  V30 9580 C 928.953 -0.288154 -4.28332 0
M  V30 9581 C 928.186 0.505337 -5.31302 0
M  V30 9582 O 928.409 1.73912 -5.43241 0
M  V30 9583 O 927.343 -0.109374 -6.01801 0
M  V30 9584 H 931.169 -1.05327 -2.84851 0
M  V30 9585 H 928.754 -0.579275 -1.37713 0
M  V30 9586 H 930.636 1.07041 -4.07578 0
M  V30 9587 H 929.311 1.38997 -2.92338 0
M  V30 9588 H 928.218 -0.809724 -3.65232 0
M  V30 9589 H 929.551 -1.04612 -4.80955 0
M  V30 9590 N 931.203 1.46865 -0.571711 0
M  V30 9591 C 932.452 2.01636 -0.050881 0
M  V30 9592 C 932.765 1.45001 1.31279 0
M  V30 9593 O 933.971 1.91523 1.92435 0
M  V30 9594 C 932.427 3.59877 -0.0404114 0
M  V30 9595 C 932.035 4.25506 -1.40172 0
M  V30 9596 C 933.779 4.22346 0.42705 0
M  V30 9597 C 931.686 5.75795 -1.34958 0
M  V30 9598 H 930.616 0.753846 -0.0152514 0
M  V30 9599 H 933.267 1.68711 -0.721723 0
M  V30 9600 H 931.649 3.89829 0.696374 0
M  V30 9601 H 932.823 4.07178 -2.15737 0
M  V30 9602 H 931.138 3.75086 -1.8083 0
M  V30 9603 H 933.735 5.32499 0.484688 0
M  V30 9604 H 934.078 3.9052 1.44222 0
M  V30 9605 H 934.611 3.9698 -0.255326 0
M  V30 9606 H 931.35 6.12265 -2.3412 0
M  V30 9607 H 930.87 5.96419 -0.635962 0
M  V30 9608 H 932.549 6.38294 -1.05779 0
M  V30 9609 N 932.681 0.308908 1.54543 0
M  V30 9610 C 933.929 -0.297447 1.99899 0
M  V30 9611 C 934.25 -1.53799 1.19878 0
M  V30 9612 O 933.52 -1.93639 0.29678 0
M  V30 9613 H 932.1 -0.112897 0.738419 0
M  V30 9614 H 934.762 0.422067 1.90275 0
M  V30 9615 H 933.858 -0.564016 3.06961 0
M  V30 9616 N 934.159 -1.57557 0.0367827 0
M  V30 9617 C 935.575 -1.56366 -0.31967 0
M  V30 9618 C 935.775 -1.04313 -1.72398 0
M  V30 9619 O 934.831 -0.693278 -2.42796 0
M  V30 9620 C 936.144 -3.00267 -0.161274 0
M  V30 9621 C 937.692 -3.12128 -0.233464 0
M  V30 9622 C 938.167 -4.57882 -0.103767 0
M  V30 9623 N 939.658 -4.62922 -0.160506 0
M  V30 9624 C 940.393 -5.73338 -0.0840493 0
M  V30 9625 N 939.889 -6.92786 0.043933 0
M  V30 9626 N 941.682 -5.61929 -0.138592 0
M  V30 9627 H 933.833 -1.8972 0.954996 0
M  V30 9628 H 936.096 -0.87304 0.369467 0
M  V30 9629 H 935.802 -3.42331 0.80639 0
M  V30 9630 H 935.676 -3.65599 -0.928304 0
M  V30 9631 H 938.063 -2.69972 -1.19159 0
M  V30 9632 H 938.144 -2.49503 0.564075 0
M  V30 9633 H 937.788 -5.0072 0.850973 0
M  V30 9634 H 937.718 -5.18496 -0.920268 0
M  V30 9635 H 940.209 -3.7701 -0.259257 0
M  V30 9636 H 940.522 -7.72741 0.095372 0
M  V30 9637 H 938.867 -6.94955 0.0788211 0
M  V30 9638 H 942.058 -4.67499 -0.237031 0
M  V30 9639 H 942.231 -6.47956 -0.075546 0
M  V30 9640 N 935.637 0.236453 -1.55816 0
M  V30 9641 C 937.053 0.585465 -1.48474 0
M  V30 9642 C 937.253 1.8785 -0.72902 0
M  V30 9643 O 936.309 2.51131 -0.262614 0
M  V30 9644 C 937.622 0.678506 -2.92945 0
M  V30 9645 C 939.17 0.770135 -3.03378 0
M  V30 9646 C 939.645 0.894649 -4.49177 0
M  V30 9647 N 941.136 0.959253 -4.53158 0
M  V30 9648 C 941.871 1.07505 -5.63232 0
M  V30 9649 N 941.367 1.15572 -6.83092 0
M  V30 9650 N 943.16 1.10902 -5.51051 0
M  V30 9651 H 935.311 -0.612241 -2.03385 0
M  V30 9652 H 937.574 -0.212796 -0.923808 0
M  V30 9653 H 937.28 -0.201757 -3.51121 0
M  V30 9654 H 937.154 1.54703 -3.44016 0
M  V30 9655 H 939.541 1.64085 -2.45276 0
M  V30 9656 H 939.622 -0.123753 -2.555 0
M  V30 9657 H 939.266 0.0284537 -5.07892 0
M  V30 9658 H 939.196 1.80373 -4.94745 0
M  V30 9659 H 941.687 0.907827 -3.66834 0
M  V30 9660 H 942 1.24343 -7.62731 0
M  V30 9661 H 940.345 1.12511 -6.85833 0
M  V30 9662 H 943.536 1.04255 -4.56343 0
M  V30 9663 H 943.709 1.19581 -6.36871 0
M  V30 9664 N 937.115 1.49373 0.502552 0
M  V30 9665 C 938.045 1.68839 1.61294 0
M  V30 9666 C 939.026 0.537096 1.61398 0
M  V30 9667 O 940.211 0.772764 1.78163 0
M  V30 9668 C 937.341 1.75347 2.99784 0
M  V30 9669 C 936.295 2.90251 3.14545 0
M  V30 9670 C 935.621 2.8187 4.54371 0
M  V30 9671 C 936.921 4.31207 2.94717 0
M  V30 9672 H 938.615 2.61803 1.45257 0
M  V30 9673 H 936.161 1.25987 0.697371 0
M  V30 9674 H 938.114 1.87552 3.77362 0
M  V30 9675 H 936.838 0.789814 3.16906 0
M  V30 9676 H 935.497 2.77646 2.39392 0
M  V30 9677 H 935.145 1.83416 4.68367 0
M  V30 9678 H 934.845 3.5899 4.65188 0
M  V30 9679 H 936.369 2.96081 5.34012 0
M  V30 9680 H 937.783 4.44501 3.62065 0
M  V30 9681 H 936.18 5.09536 3.17007 0
M  V30 9682 H 937.25 4.45759 1.90857 0
M  V30 9683 N 938.594 -0.753485 1.38421 0
M  V30 9684 C 939.541 -1.86723 1.35659 0
M  V30 9685 C 940.511 -1.64648 0.219121 0
M  V30 9686 O 941.696 -1.86313 0.411366 0
M  V30 9687 C 938.836 -3.24023 1.18758 0
M  V30 9688 C 937.949 -3.57928 2.41892 0
M  V30 9689 C 937.084 -4.84532 2.17721 0
M  V30 9690 C 936.123 -5.11224 3.36626 0
M  V30 9691 N 935.26 -6.29023 3.11889 0
M  V30 9692 H 940.1 -1.88419 2.30873 0
M  V30 9693 H 937.637 -0.920934 1.14705 0
M  V30 9694 H 939.595 -4.03252 1.06974 0
M  V30 9695 H 938.225 -3.21654 0.27182 0
M  V30 9696 H 937.277 -2.73541 2.64347 0
M  V30 9697 H 938.589 -3.73581 3.30513 0
M  V30 9698 H 937.743 -5.71704 2.03074 0
M  V30 9699 H 936.482 -4.71018 1.26465 0
M  V30 9700 H 935.487 -4.2252 3.51791 0
M  V30 9701 H 936.712 -5.26635 4.28757 0
M  V30 9702 H 934.658 -6.16832 2.2328 0
M  V30 9703 H 934.575 -6.45177 3.9406 0
M  V30 9704 H 935.843 -7.19083 3.00898 0
M  V30 9705 N 940.072 -1.23292 -0.981677 0
M  V30 9706 C 941.349 -0.972514 -1.6971 0
M  V30 9707 C 941.729 0.509244 -2.04866 0
M  V30 9708 O 941.077 1.48013 -1.74082 0
M  V30 9709 C 941.287 -1.88144 -2.93943 0
M  V30 9710 C 942.635 -2.14416 -3.66485 0
M  V30 9711 O 943.659 -1.85684 -3.03974 0
M  V30 9712 O 942.518 -2.63139 -4.78978 0
M  V30 9713 H 939.612 -0.366673 -0.741269 0
M  V30 9714 H 942.158 -1.34328 -1.03701 0
M  V30 9715 H 940.93 -2.8832 -2.64551 0
M  V30 9716 H 940.553 -1.51296 -3.67689 0
M  V30 9717 N 941.55 1.18024 -1.04442 0
M  V30 9718 C 942.799 1.8743 -0.745185 0
M  V30 9719 C 943.112 1.81459 0.730206 0
M  V30 9720 O 944.318 2.46263 1.1431 0
M  V30 9721 C 942.774 3.36266 -1.28271 0
M  V30 9722 C 942.382 3.50757 -2.787 0
M  V30 9723 C 944.126 4.11048 -1.06018 0
M  V30 9724 C 942.033 4.93573 -3.25791 0
M  V30 9725 H 940.963 0.702038 -0.27506 0
M  V30 9726 H 943.614 1.33333 -1.26073 0
M  V30 9727 H 941.996 3.89853 -0.695002 0
M  V30 9728 H 943.17 3.07423 -3.43261 0
M  V30 9729 H 941.485 2.89385 -2.99408 0
M  V30 9730 H 944.082 5.16395 -1.38711 0
M  V30 9731 H 944.425 4.163 0.00241716 0
M  V30 9732 H 944.958 3.63644 -1.61269 0
M  V30 9733 H 941.697 4.93491 -4.31447 0
M  V30 9734 H 941.217 5.37607 -2.65968 0
M  V30 9735 H 942.896 5.62307 -3.20031 0
M  V30 9736 N 943.028 0.824394 1.34319 0
M  V30 9737 C 944.276 0.41235 1.97849 0
M  V30 9738 C 944.597 -1.02841 1.65677 0
M  V30 9739 O 943.867 -1.71421 0.948245 0
M  V30 9740 H 942.447 0.149486 0.73189 0
M  V30 9741 H 945.109 1.05416 1.63931 0
M  V30 9742 H 944.205 0.532557 3.07523 0
M  V30 9743 N 944.506 -1.46559 0.579492 0
M  V30 9744 C 945.917 -1.8608 0.152052 0
M  V30 9745 C 946.268 -1.48346 -1.28405 0
M  V30 9746 O 945.393 -0.89685 -1.9694 0
M  V30 9747 C 945.988 -3.37729 0.269171 0
M  V30 9748 C 944.547 -3.76258 -0.103376 0
M  V30 9749 C 943.694 -2.70584 0.60659 0
M  V30 9750 H 946.645 -1.3776 0.787904 0
M  V30 9751 H 946.666 -3.77116 -0.506339 0
M  V30 9752 H 946.178 -3.65162 1.31448 0
M  V30 9753 H 944.279 -3.54443 -1.14895 0
M  V30 9754 H 944.392 -4.78335 0.270701 0
M  V30 9755 H 942.756 -2.54656 0.0471984 0
M  V30 9756 H 943.539 -3.00856 1.65349 0
M  V30 9757 N 945.984 -0.3171 -1.54377 0
M  V30 9758 C 946.894 0.560867 -2.27797 0
M  V30 9759 C 947.91 1.13473 -1.31908 0
M  V30 9760 O 949.086 1.15608 -1.64914 0
M  V30 9761 C 946.151 1.70886 -3.0166 0
M  V30 9762 C 945.212 1.16745 -4.13121 0
M  V30 9763 C 944.445 2.26073 -4.83453 0
M  V30 9764 O 944.668 3.46292 -4.53252 0
M  V30 9765 O 943.602 1.91856 -5.70504 0
M  V30 9766 H 947.428 -0.035193 -3.0368 0
M  V30 9767 H 945.013 -0.0830062 -1.49169 0
M  V30 9768 H 946.895 2.37736 -3.47936 0
M  V30 9769 H 945.57 2.29122 -2.28658 0
M  V30 9770 H 944.477 0.464224 -3.71209 0
M  V30 9771 H 945.81 0.630307 -4.88147 0
M  V30 9772 N 947.462 1.57535 -0.0451378 0
M  V30 9773 C 948.708 1.92736 0.630921 0
M  V30 9774 C 949.041 0.923265 1.70849 0
M  V30 9775 O 948.316 -0.0516512 1.94431 0
M  V30 9776 C 948.599 3.38348 1.23259 0
M  V30 9777 C 948.452 4.49503 0.16349 0
M  V30 9778 C 949.771 3.84233 2.14599 0
M  V30 9779 H 946.89 0.700884 0.227883 0
M  V30 9780 H 949.532 1.89706 -0.10567 0
M  V30 9781 H 947.682 3.41061 1.86037 0
M  V30 9782 H 949.354 4.58919 -0.46808 0
M  V30 9783 H 947.597 4.30802 -0.509166 0
M  V30 9784 H 948.268 5.48457 0.624382 0
M  V30 9785 H 950.744 3.83358 1.6179 0
M  V30 9786 H 949.62 4.86781 2.53644 0
M  V30 9787 H 949.881 3.20646 3.04366 0
M  V30 9788 N 948.94 -0.228186 1.55939 0
M  V30 9789 C 950.186 -0.954964 1.78909 0
M  V30 9790 C 950.519 -1.8425 0.613648 0
M  V30 9791 O 949.794 -1.90604 -0.38737 0
M  V30 9792 C 950.077 -1.79957 3.1191 0
M  V30 9793 C 949.93 -0.938968 4.3989 0
M  V30 9794 C 951.249 -2.77859 3.41295 0
M  V30 9795 H 948.368 -0.345745 0.650868 0
M  V30 9796 H 951.01 -0.224244 1.88672 0
M  V30 9797 H 949.16 -2.42256 3.03717 0
M  V30 9798 H 950.832 -0.333225 4.60095 0
M  V30 9799 H 949.075 -0.244096 4.33113 0
M  V30 9800 H 949.746 -1.56416 5.29375 0
M  V30 9801 H 952.222 -2.25695 3.49572 0
M  V30 9802 H 951.098 -3.34062 4.35538 0
M  V30 9803 H 951.359 -3.55266 2.63132 0
M  V30 9804 N 950.418 -1.49637 -0.494624 0
M  V30 9805 C 951.365 -1.66776 -1.59545 0
M  V30 9806 C 952.335 -0.509159 -1.58104 0
M  V30 9807 O 953.52 -0.736949 -1.75993 0
M  V30 9808 C 950.66 -1.74624 -2.97658 0
M  V30 9809 C 949.773 -3.01831 -3.09067 0
M  V30 9810 C 948.908 -3.00619 -4.37952 0
M  V30 9811 C 947.947 -4.22378 -4.43016 0
M  V30 9812 N 947.084 -4.1904 -5.63339 0
M  V30 9813 H 951.924 -2.60767 -1.44238 0
M  V30 9814 H 949.461 -1.29286 -0.701673 0
M  V30 9815 H 951.419 -1.77156 -3.77719 0
M  V30 9816 H 950.049 -0.840936 -3.11654 0
M  V30 9817 H 949.101 -3.08881 -2.22029 0
M  V30 9818 H 950.413 -3.91823 -3.08669 0
M  V30 9819 H 949.567 -3.01749 -5.26339 0
M  V30 9820 H 948.306 -2.08416 -4.40924 0
M  V30 9821 H 947.311 -4.21485 -3.5303 0
M  V30 9822 H 948.536 -5.15781 -4.41755 0
M  V30 9823 H 946.482 -3.29677 -5.67141 0
M  V30 9824 H 946.399 -5.02774 -5.64583 0
M  V30 9825 H 947.667 -4.24281 -6.53916 0
M  V30 9826 N 951.896 0.746133 -1.38819 0
M  V30 9827 C 952.843 1.86001 -1.36647 0
M  V30 9828 C 953.813 1.6453 -0.227849 0
M  V30 9829 O 954.998 1.86092 -0.421241 0
M  V30 9830 C 952.138 3.23388 -1.20474 0
M  V30 9831 C 951.251 3.5664 -2.43786 0
M  V30 9832 C 950.386 4.8337 -2.20287 0
M  V30 9833 C 949.425 5.09431 -3.39332 0
M  V30 9834 N 948.562 6.2736 -3.1522 0
M  V30 9835 H 953.402 1.87192 -2.31869 0
M  V30 9836 H 950.939 0.914838 -1.15192 0
M  V30 9837 H 952.897 4.02679 -1.09112 0
M  V30 9838 H 951.527 3.21505 -0.288874 0
M  V30 9839 H 950.579 2.72135 -2.65794 0
M  V30 9840 H 951.891 3.71823 -3.3249 0
M  V30 9841 H 951.045 5.70619 -2.06103 0
M  V30 9842 H 949.784 4.70341 -1.28961 0
M  V30 9843 H 948.789 4.20648 -3.54027 0
M  V30 9844 H 950.014 5.24354 -4.31544 0
M  V30 9845 H 947.96 6.15639 -2.26549 0
M  V30 9846 H 947.877 6.43078 -3.97476 0
M  V30 9847 H 949.145 7.17477 -3.04707 0
M  V30 9848 N 953.375 1.23811 0.975125 0
M  V30 9849 C 954.621 1.07495 1.71967 0
M  V30 9850 C 954.954 -0.386451 1.90316 0
M  V30 9851 O 954.229 -1.28591 1.45927 0
M  V30 9852 C 954.512 1.80694 3.11483 0
M  V30 9853 C 954.365 3.3454 3.00671 0
M  V30 9854 C 955.684 1.57367 4.11003 0
M  V30 9855 H 952.803 0.3919 0.624166 0
M  V30 9856 H 955.445 1.52383 1.13487 0
M  V30 9857 H 953.595 1.42538 3.61407 0
M  V30 9858 H 955.267 3.8225 2.5823 0
M  V30 9859 H 953.51 3.63301 2.37054 0
M  V30 9860 H 954.181 3.80951 3.99475 0
M  V30 9861 H 956.657 1.90545 3.69908 0
M  V30 9862 H 955.533 2.11052 5.06703 0
M  V30 9863 H 955.794 0.510221 4.39146 0
M  V30 9864 N 954.853 -1.17469 1.05066 0
M  V30 9865 C 955.801 -2.23495 0.644418 0
M  V30 9866 C 956.795 -1.66081 -0.333685 0
M  V30 9867 O 958.001 -1.78887 -0.199886 0
M  V30 9868 H 954.376 -0.727546 0.190214 0
M  V30 9869 H 956.347 -2.55058 1.5488 0
M  V30 9870 C 955.096 -3.47684 0.0338051 0
M  V30 9871 H 954.419 -3.92167 0.777513 0
M  V30 9872 H 955.859 -4.23464 -0.213086 0
M  V30 9873 C 954.318 -3.14067 -1.21915 0
M  V30 9874 O 954.848 -3.28728 -2.3087 0
M  V30 9875 N 953.054 -2.68304 -1.11631 0
M  V30 9876 H 952.601 -2.56574 -0.229673 0
M  V30 9877 H 952.559 -2.46184 -1.95553 0
M  V30 9878 N 956.331 -0.831506 -1.3388 0
M  V30 9879 C 957.294 -0.264773 -2.27666 0
M  V30 9880 C 958.294 0.562273 -1.50649 0
M  V30 9881 O 959.484 0.377131 -1.70069 0
M  V30 9882 C 956.616 0.627814 -3.35069 0
M  V30 9883 H 957.809 -1.09225 -2.79303 0
M  V30 9884 H 955.362 -0.604021 -1.44157 0
M  V30 9885 H 956.097 1.47802 -2.88661 0
M  V30 9886 H 955.882 0.0361552 -3.92083 0
M  V30 9887 H 957.372 1.01786 -4.05005 0
M  V30 9888 N 957.809 1.4625 -0.587256 0
M  V30 9889 C 959.055 2.02662 -0.0746851 0
M  V30 9890 C 959.388 1.45723 1.28368 0
M  V30 9891 O 958.663 0.624062 1.84216 0
M  V30 9892 C 958.946 3.60097 -0.0138109 0
M  V30 9893 C 958.799 4.27412 -1.4014 0
M  V30 9894 C 960.118 4.34744 0.684491 0
M  V30 9895 H 957.237 0.736444 -0.0286144 0
M  V30 9896 H 959.879 1.74341 -0.755328 0
M  V30 9897 H 958.029 3.84357 0.56583 0
M  V30 9898 H 959.701 4.14401 -2.02656 0
M  V30 9899 H 957.944 3.86598 -1.96785 0
M  V30 9900 H 958.615 5.362 -1.31124 0
M  V30 9901 H 961.091 4.15657 0.192023 0
M  V30 9902 H 959.967 5.44468 0.696127 0
M  V30 9903 H 960.228 4.06132 1.74669 0
M  V30 9904 N 959.287 0.325282 1.54207 0
M  V30 9905 C 960.534 -0.276775 2.006 0
M  V30 9906 C 960.862 -1.52007 1.21343 0
M  V30 9907 O 960.117 -1.93627 0.284104 0
M  V30 9908 C 960.416 -0.654292 3.5136 0
M  V30 9909 C 960.082 0.490023 4.48229 0
M  V30 9910 C 958.744 0.804104 4.74434 0
M  V30 9911 C 961.096 1.2586 5.05775 0
M  V30 9912 C 958.424 1.88945 5.55443 0
M  V30 9913 C 960.776 2.33405 5.87967 0
M  V30 9914 C 959.44 2.65393 6.12473 0
M  V30 9915 H 958.71 -0.101279 0.734046 0
M  V30 9916 H 961.357 0.449416 1.86152 0
M  V30 9917 H 959.662 -1.46093 3.63544 0
M  V30 9918 H 961.359 -1.13171 3.84699 0
M  V30 9919 H 957.949 0.235147 4.27954 0
M  V30 9920 H 962.133 1.02921 4.85511 0
M  V30 9921 H 957.389 2.14174 5.7266 0
M  V30 9922 H 961.563 2.93402 6.31576 0
M  V30 9923 H 959.19 3.49622 6.75032 0
M  V30 9924 N 960.765 -1.57509 0.0534917 0
M  V30 9925 C 961.675 -2.15152 -0.935249 0
M  V30 9926 C 962.691 -1.10991 -1.34003 0
M  V30 9927 O 963.867 -1.43171 -1.41648 0
M  V30 9928 C 960.932 -2.68699 -2.19093 0
M  V30 9929 C 959.993 -3.87666 -1.84428 0
M  V30 9930 C 959.226 -4.3865 -3.0401 0
M  V30 9931 O 959.449 -3.887 -4.17455 0
M  V30 9932 O 958.383 -5.30209 -2.84889 0
M  V30 9933 H 962.209 -2.99962 -0.475009 0
M  V30 9934 H 959.794 -1.48446 -0.16854 0
M  V30 9935 H 961.676 -3.03098 -2.92762 0
M  V30 9936 H 960.351 -1.86958 -2.6425 0
M  V30 9937 H 959.258 -3.58151 -1.08068 0
M  V30 9938 H 960.591 -4.70643 -1.44068 0
M  V30 9939 N 962.243 0.219913 -1.56058 0
M  V30 9940 C 963.489 0.941055 -1.80321 0
M  V30 9941 C 963.844 1.81906 -0.626735 0
M  V30 9942 O 963.137 1.87811 0.379147 0
M  V30 9943 C 963.331 1.81293 -3.08006 0
M  V30 9944 C 963.16 1.02082 -4.37961 0
M  V30 9945 C 961.93 0.715096 -5.00214 0
M  V30 9946 C 964.128 0.385342 -5.12854 0
M  V30 9947 N 962.11 -0.098246 -6.13821 0
M  V30 9948 C 963.481 -0.291319 -6.19315 0
M  V30 9949 C 965.536 0.29854 -4.97004 0
M  V30 9950 C 964.239 -1.04648 -7.11647 0
M  V30 9951 C 966.265 -0.443159 -5.89737 0
M  V30 9952 C 965.627 -1.10836 -6.95625 0
M  V30 9953 H 961.726 0.324568 -0.711463 0
M  V30 9954 H 964.31 0.211795 -1.93545 0
M  V30 9955 H 962.481 2.51399 -2.96063 0
M  V30 9956 H 964.213 2.47167 -3.20454 0
M  V30 9957 H 960.968 1.03352 -4.62185 0
M  V30 9958 H 961.392 -0.4938 -6.75197 0
M  V30 9959 H 966.034 0.798478 -4.15192 0
M  V30 9960 H 963.752 -1.55793 -7.9294 0
M  V30 9961 H 967.338 -0.511348 -5.79549 0
M  V30 9962 H 966.218 -1.6731 -7.66144 0
M  V30 9963 N 963.721 1.49897 0.486681 0
M  V30 9964 C 964.671 1.6401 1.58381 0
M  V30 9965 C 965.655 0.495215 1.5309 0
M  V30 9966 O 966.847 0.748876 1.60377 0
M  V30 9967 C 963.976 1.72321 2.96918 0
M  V30 9968 C 963.062 2.92435 3.07152 0
M  V30 9969 N 963.453 4.16326 2.87238 0
M  V30 9970 C 961.751 2.90669 3.38271 0
M  V30 9971 C 962.452 4.97144 3.02031 0
M  V30 9972 N 961.428 4.3079 3.31544 0
M  V30 9973 H 965.23 2.57506 1.41661 0
M  V30 9974 H 962.744 1.46867 0.693106 0
M  V30 9975 H 964.741 1.80532 3.75784 0
M  V30 9976 H 963.401 0.799724 3.14697 0
M  V30 9977 H 964.412 4.46076 2.63128 0
M  V30 9978 H 961.089 2.07758 3.62137 0
M  V30 9979 H 962.479 6.05611 2.91006 0
M  V30 9980 N 965.199 -0.738761 1.39212 0
M  V30 9981 C 966.448 -1.49368 1.35543 0
M  V30 9982 C 966.761 -1.95543 -0.0471091 0
M  V30 9983 O 967.967 -2.70714 -0.206376 0
M  V30 9984 C 966.423 -2.69882 2.381 0
M  V30 9985 C 966.031 -2.30672 3.8405 0
M  V30 9986 C 967.775 -3.47718 2.435 0
M  V30 9987 C 965.682 -3.47886 4.78256 0
M  V30 9988 H 964.612 -0.560898 0.503894 0
M  V30 9989 H 967.263 -0.806221 1.6484 0
M  V30 9990 H 965.645 -3.40684 2.01867 0
M  V30 9991 H 966.819 -1.67441 4.29302 0
M  V30 9992 H 965.134 -1.65936 3.81909 0
M  V30 9993 H 967.731 -4.34897 3.11077 0
M  V30 9994 H 968.074 -3.89919 1.45838 0
M  V30 9995 H 968.607 -2.83942 2.78606 0
M  V30 9996 H 965.346 -3.10739 5.77167 0
M  V30 9997 H 964.866 -4.10111 4.37686 0
M  V30 9998 H 966.545 -4.14271 4.96979 0
M  V30 9999 N 966.677 -1.24326 -0.968545 0
M  V30 10000 C 967.905 -1.10947 -1.74638 0
M  V30 10001 C 968.32 0.338064 -1.85749 0
M  V30 10002 O 967.677 1.23331 -1.3452 0
M  V30 10003 C 967.728 -1.74254 -3.1673 0
M  V30 10004 O 967.449 -3.13347 -3.06178 0
M  V30 10005 C 968.95 -1.66473 -4.10855 0
M  V30 10006 H 966.17 -0.38767 -0.547679 0
M  V30 10007 H 968.714 -1.64415 -1.21605 0
M  V30 10008 H 966.869 -1.2479 -3.66751 0
M  V30 10009 H 967.283 -3.44255 -3.95713 0
M  V30 10010 H 968.757 -2.15452 -5.08217 0
M  V30 10011 H 969.234 -0.625785 -4.34719 0
M  V30 10012 H 969.84 -2.15359 -3.66743 0
M  V30 10013 N 968.156 1.1691 -1.05688 0
M  V30 10014 C 969.103 2.21095 -0.662246 0
M  V30 10015 C 970.073 1.62623 0.338083 0
M  V30 10016 O 971.258 1.89428 0.228362 0
M  V30 10017 C 968.398 3.45066 -0.0484018 0
M  V30 10018 C 967.511 4.17809 -1.09817 0
M  V30 10019 C 966.646 5.29281 -0.451114 0
M  V30 10020 C 965.685 5.93817 -1.48484 0
M  V30 10021 N 964.822 6.96793 -0.861588 0
M  V30 10022 H 969.662 2.54204 -1.55513 0
M  V30 10023 H 967.199 1.24863 -0.777665 0
M  V30 10024 H 969.157 4.15932 0.324978 0
M  V30 10025 H 967.787 3.12526 0.807918 0
M  V30 10026 H 966.839 3.45608 -1.58932 0
M  V30 10027 H 968.151 4.61907 -1.88265 0
M  V30 10028 H 967.305 6.06695 -0.0244251 0
M  V30 10029 H 966.044 4.8633 0.365306 0
M  V30 10030 H 965.049 5.1513 -1.92149 0
M  V30 10031 H 966.274 6.38848 -2.30325 0
M  V30 10032 H 964.22 6.55967 -0.0657688 0
M  V30 10033 H 964.137 7.39229 -1.58354 0
M  V30 10034 H 965.405 7.78142 -0.45984 0
M  V30 10035 N 969.634 0.838594 1.33437 0
M  V30 10036 C 970.882 0.433312 1.974 0
M  V30 10037 C 971.203 -1.01078 1.66758 0
M  V30 10038 O 970.473 -1.70406 0.966373 0
M  V30 10039 H 969.053 0.15724 0.730263 0
M  V30 10040 H 971.715 1.07149 1.62804 0
M  V30 10041 H 970.811 0.565144 3.06941 0
M  V30 10042 N 971.112 -1.45937 0.595003 0
M  V30 10043 C 972.36 -2.01921 0.0851368 0
M  V30 10044 C 972.681 -1.46748 -1.28413 0
M  V30 10045 O 971.951 -0.656873 -1.84559 0
M  V30 10046 H 970.531 -0.746457 0.0284826 0
M  V30 10047 H 973.193 -1.78891 0.773561 0
M  V30 10048 H 972.289 -3.1209 0.0254002 0
M  V30 10049 N 972.59 -0.333456 -1.54032 0
M  V30 10050 C 973.538 0.543414 -2.26163 0
M  V30 10051 C 974.532 1.11037 -1.27934 0
M  V30 10052 O 975.738 1.05727 -1.45677 0
M  V30 10053 H 972.113 0.19391 -0.726569 0
M  V30 10054 H 974.084 -0.0871052 -2.98273 0
M  V30 10055 C 972.833 1.68769 -3.03994 0
M  V30 10056 H 972.156 1.26069 -3.79403 0
M  V30 10057 H 973.596 2.27662 -3.57695 0
M  V30 10058 C 972.055 2.61117 -2.12884 0
M  V30 10059 O 972.585 3.63097 -1.71823 0
M  V30 10060 N 970.791 2.29573 -1.7817 0
M  V30 10061 H 970.338 1.46684 -2.11759 0
M  V30 10062 H 970.296 2.91622 -1.1749 0
M  V30 10063 N 974.068 1.57479 -0.061844 0
M  V30 10064 C 975.317 1.92285 0.609055 0
M  V30 10065 C 975.63 0.942983 1.71369 0
M  V30 10066 O 976.836 1.18349 2.44348 0
M  V30 10067 C 975.292 3.41545 1.13468 0
M  V30 10068 C 974.9 4.47958 0.0615926 0
M  V30 10069 C 976.644 3.85368 1.78022 0
M  V30 10070 C 974.551 5.88341 0.600705 0
M  V30 10071 H 973.481 0.717656 0.23127 0
M  V30 10072 H 976.132 1.83021 -0.132466 0
M  V30 10073 H 974.514 3.45848 1.92886 0
M  V30 10074 H 975.688 4.55258 -0.712527 0
M  V30 10075 H 974.003 4.13541 -0.487116 0
M  V30 10076 H 976.6 4.87627 2.19371 0
M  V30 10077 H 976.943 3.22193 2.63623 0
M  V30 10078 H 977.476 3.83626 1.05242 0
M  V30 10079 H 974.215 6.55138 -0.217922 0
M  V30 10080 H 973.735 5.84581 1.34257 0
M  V30 10081 H 975.414 6.37918 1.08025 0
M  V30 10082 N 975.546 -0.211634 1.56173 0
M  V30 10083 C 976.794 -0.932704 1.7929 0
M  V30 10084 C 977.115 -1.84472 0.632076 0
M  V30 10085 O 976.385 -1.92739 -0.350519 0
M  V30 10086 H 974.965 -0.347393 0.661307 0
M  V30 10087 H 977.627 -0.22111 1.93642 0
M  V30 10088 H 976.723 -1.53365 2.71819 0
M  V30 10089 N 977.024 -1.50153 -0.478725 0
M  V30 10090 C 977.987 -1.67916 -1.56003 0
M  V30 10091 C 978.987 -0.550111 -1.51097 0
M  V30 10092 O 980.177 -0.817001 -1.53853 0
M  V30 10093 C 977.309 -1.6973 -2.95643 0
M  V30 10094 H 978.502 -2.6438 -1.41573 0
M  V30 10095 H 976.055 -1.39519 -0.704565 0
M  V30 10096 H 976.79 -0.749306 -3.15525 0
M  V30 10097 H 976.575 -2.51745 -3.00611 0
M  V30 10098 H 978.065 -1.85453 -3.74162 0
M  V30 10099 N 978.502 0.731368 -1.39602 0
M  V30 10100 C 979.449 1.84541 -1.38612 0
M  V30 10101 C 980.419 1.64279 -0.245287 0
M  V30 10102 O 981.604 1.85635 -0.440954 0
M  V30 10103 C 978.744 3.22092 -1.23897 0
M  V30 10104 C 977.857 3.54034 -2.47555 0
M  V30 10105 C 976.992 4.81007 -2.25402 0
M  V30 10106 C 976.031 5.05804 -3.44716 0
M  V30 10107 N 975.168 6.23981 -3.21857 0
M  V30 10108 H 980.008 1.84722 -2.33841 0
M  V30 10109 H 977.545 0.902569 -1.16156 0
M  V30 10110 H 979.503 4.01499 -1.13376 0
M  V30 10111 H 978.133 3.2118 -0.322958 0
M  V30 10112 H 977.185 2.69301 -2.68665 0
M  V30 10113 H 978.497 3.68275 -3.36415 0
M  V30 10114 H 977.651 5.68401 -2.12143 0
M  V30 10115 H 976.39 4.68946 -1.33943 0
M  V30 10116 H 975.395 4.1687 -3.58468 0
M  V30 10117 H 976.62 5.19747 -4.37081 0
M  V30 10118 H 974.566 6.13202 -2.33065 0
M  V30 10119 H 974.483 6.38826 -4.04274 0
M  V30 10120 H 975.751 7.14205 -3.123 0
M  V30 10121 N 979.98 1.24838 0.961938 0
M  V30 10122 C 981.226 1.10321 1.70883 0
M  V30 10123 C 981.581 -0.353397 1.89127 0
M  V30 10124 O 980.874 -1.25721 1.44584 0
M  V30 10125 C 981.068 1.78289 3.09754 0
M  V30 10126 C 980.897 3.30409 3.05057 0
M  V30 10127 C 979.667 3.9964 3.09218 0
M  V30 10128 C 981.865 4.26916 2.86787 0
M  V30 10129 N 979.847 5.38594 2.94601 0
M  V30 10130 C 981.218 5.52906 2.80526 0
M  V30 10131 C 983.273 4.17421 2.71412 0
M  V30 10132 C 981.976 6.70487 2.60461 0
M  V30 10133 C 984.002 5.34686 2.52715 0
M  V30 10134 C 983.364 6.59611 2.47168 0
M  V30 10135 H 979.463 0.458353 0.63359 0
M  V30 10136 H 982.047 1.57835 1.14001 0
M  V30 10137 H 980.218 1.33281 3.64816 0
M  V30 10138 H 981.95 1.5658 3.73182 0
M  V30 10139 H 978.705 3.50847 3.18125 0
M  V30 10140 H 979.129 6.11497 2.90517 0
M  V30 10141 H 983.771 3.21592 2.74479 0
M  V30 10142 H 981.489 7.66433 2.56136 0
M  V30 10143 H 985.075 5.29194 2.41754 0
M  V30 10144 H 983.955 7.48821 2.32888 0
M  V30 10145 N 981.458 -1.16348 1.06306 0
M  V30 10146 C 982.686 -1.90782 0.800614 0
M  V30 10147 C 983.101 -1.77439 -0.645033 0
M  V30 10148 O 982.458 -1.11912 -1.4416 0
M  V30 10149 C 982.509 -3.41484 1.18621 0
M  V30 10150 O 982.23 -3.54428 2.57512 0
M  V30 10151 C 983.731 -4.32968 0.951525 0
M  V30 10152 H 980.951 -0.604977 0.290247 0
M  V30 10153 H 983.495 -1.47476 1.41672 0
M  V30 10154 H 981.65 -3.82493 0.614633 0
M  V30 10155 H 982.064 -4.4788 2.72954 0
M  V30 10156 H 983.538 -5.37169 1.27095 0
M  V30 10157 H 984.015 -4.39055 -0.112734 0
M  V30 10158 H 984.621 -3.97687 1.50749 0
M  V30 10159 N 982.937 -0.845659 -1.3299 0
M  V30 10160 C 984.186 -0.440928 -1.96822 0
M  V30 10161 C 984.499 1.00668 -1.67706 0
M  V30 10162 O 985.705 1.51641 -2.25205 0
M  V30 10163 C 984.161 -0.73752 -3.52262 0
M  V30 10164 C 983.769 -2.20026 -3.90247 0
M  V30 10165 C 985.513 -0.400072 -4.22611 0
M  V30 10166 C 983.42 -2.44054 -5.38694 0
M  V30 10167 H 982.35 -0.161148 -0.736578 0
M  V30 10168 H 985.001 -1.03519 -1.51513 0
M  V30 10169 H 983.383 -0.0728025 -3.95933 0
M  V30 10170 H 984.557 -2.90602 -3.57613 0
M  V30 10171 H 982.872 -2.50135 -3.32899 0
M  V30 10172 H 985.469 -0.557136 -5.3179 0
M  V30 10173 H 985.812 0.657547 -4.11074 0
M  V30 10174 H 986.345 -1.0203 -3.84493 0
M  V30 10175 H 983.084 -3.48407 -5.55241 0
M  V30 10176 H 982.604 -1.78047 -5.72765 0
M  V30 10177 H 984.283 -2.27549 -6.05665 0
M  V30 10178 N 984.415 1.45619 -0.602734 0
M  V30 10179 C 985.692 1.9558 -0.0282472 0
M  V30 10180 C 986.072 1.54523 1.43826 0
M  V30 10181 O 985.42 0.805456 2.13833 0
M  V30 10182 C 985.63 3.48298 -0.221263 0
M  V30 10183 C 986.978 4.24483 -0.0995249 0
M  V30 10184 O 988.002 3.55879 -0.151132 0
M  V30 10185 O 986.861 5.46497 0.0194454 0
M  V30 10186 H 983.955 0.826104 0.0384897 0
M  V30 10187 H 986.501 1.55808 -0.672456 0
M  V30 10188 H 985.273 3.71134 -1.23997 0
M  V30 10189 H 984.896 3.94948 0.458437 0
M  V30 10190 N 985.893 0.34162 1.53853 0
M  V30 10191 C 986.823 -0.508431 2.27897 0
M  V30 10192 C 987.804 -1.10425 1.29384 0
M  V30 10193 O 988.989 -1.126 1.58224 0
M  V30 10194 C 986.119 -1.66048 3.05034 0
M  V30 10195 C 985.073 -1.19309 4.11035 0
M  V30 10196 C 984.399 -2.4335 4.76114 0
M  V30 10197 C 985.699 -0.294952 5.21467 0
M  V30 10198 H 987.393 0.109251 2.99201 0
M  V30 10199 H 984.939 0.0539847 1.43899 0
M  V30 10200 H 986.892 -2.26158 3.5557 0
M  V30 10201 H 985.616 -2.30503 2.31379 0
M  V30 10202 H 984.275 -0.614809 3.61408 0
M  V30 10203 H 983.923 -3.06208 3.99056 0
M  V30 10204 H 983.623 -2.1276 5.47729 0
M  V30 10205 H 985.147 -3.0419 5.29434 0
M  V30 10206 H 986.561 -0.80285 5.67651 0
M  V30 10207 H 984.958 -0.0810221 6.00045 0
M  V30 10208 H 986.028 0.669433 4.80257 0
M  V30 10209 N 987.371 -1.57444 0.0701946 0
M  V30 10210 C 988.318 -2.12631 -0.897599 0
M  V30 10211 C 989.288 -1.03841 -1.29639 0
M  V30 10212 O 990.473 -1.31495 -1.38253 0
M  V30 10213 C 987.613 -2.6911 -2.16041 0
M  V30 10214 C 986.726 -3.9205 -1.8144 0
M  V30 10215 C 985.861 -4.36778 -3.02321 0
M  V30 10216 C 984.9 -5.52371 -2.63729 0
M  V30 10217 N 984.037 -5.92065 -3.77364 0
M  V30 10218 H 988.877 -2.95024 -0.420104 0
M  V30 10219 H 986.414 -1.45792 -0.195716 0
M  V30 10220 H 988.372 -2.99963 -2.89962 0
M  V30 10221 H 987.002 -1.89484 -2.61334 0
M  V30 10222 H 986.054 -3.67669 -0.975896 0
M  V30 10223 H 987.366 -4.76011 -1.49046 0
M  V30 10224 H 986.52 -4.69285 -3.84521 0
M  V30 10225 H 985.259 -3.51668 -3.37907 0
M  V30 10226 H 984.264 -5.19517 -1.7995 0
M  V30 10227 H 985.489 -6.39212 -2.29315 0
M  V30 10228 H 983.435 -5.09904 -4.12715 0
M  V30 10229 H 983.352 -6.70762 -3.48733 0
M  V30 10230 H 984.62 -6.29193 -4.60148 0
M  V30 10231 N 988.849 0.203349 -1.56283 0
M  V30 10232 C 990.074 0.945548 -1.84592 0
M  V30 10233 C 990.499 1.7641 -0.652772 0
M  V30 10234 O 989.857 1.76867 0.398468 0
M  V30 10235 C 989.905 1.82416 -3.11057 0
M  V30 10236 O 989.009 2.92191 -2.9103 0
M  V30 10237 H 988.35 0.266739 -0.608068 0
M  V30 10238 H 990.88 0.211158 -2.03507 0
M  V30 10239 H 990.89 2.23044 -3.41636 0
M  V30 10240 H 989.565 1.22267 -3.97522 0
M  V30 10241 H 988.142 2.55378 -2.71728 0
M  V30 10242 N 990.327 1.50405 0.470755 0
M  V30 10243 C 991.575 1.61092 1.2204 0
M  V30 10244 C 991.896 0.313487 1.92464 0
M  V30 10245 O 991.166 -0.669043 1.84121 0
M  V30 10246 H 989.746 0.593618 0.45346 0
M  V30 10247 H 992.408 1.87184 0.542985 0
M  V30 10248 H 991.504 2.42222 1.96812 0
M  V30 10249 N 991.805 -0.723954 1.39988 0
M  V30 10250 C 993.03 -1.5182 1.41299 0
M  V30 10251 C 993.455 -1.88096 0.0122636 0
M  V30 10252 O 992.813 -1.52687 -0.977559 0
M  V30 10253 C 992.861 -2.77532 2.30235 0
M  V30 10254 O 991.965 -3.73903 1.73984 0
M  V30 10255 H 991.306 -0.458058 0.480707 0
M  V30 10256 H 993.836 -0.892291 1.84118 0
M  V30 10257 H 993.846 -3.2615 2.45132 0
M  V30 10258 H 992.521 -2.50462 3.32026 0
M  V30 10259 H 991.098 -3.32715 1.68389 0
M  V30 10260 N 993.283 -1.25346 -0.955304 0
M  V30 10261 C 994.531 -1.09837 -1.69647 0
M  V30 10262 C 994.852 0.361425 -1.91621 0
M  V30 10263 O 994.122 1.25666 -1.50283 0
M  V30 10264 H 992.702 -0.403467 -0.628668 0
M  V30 10265 H 995.364 -1.57459 -1.14859 0
M  V30 10266 H 994.46 -1.60616 -2.67598 0
M  V30 10267 N 994.761 1.15782 -1.06922 0
M  V30 10268 C 995.708 2.2038 -0.685659 0
M  V30 10269 C 996.678 1.62972 0.320816 0
M  V30 10270 O 997.863 1.8966 0.208258 0
M  V30 10271 C 995.003 3.44995 -0.084998 0
M  V30 10272 C 994.116 4.16621 -1.14242 0
M  V30 10273 C 993.251 5.28773 -0.507226 0
M  V30 10274 C 992.29 5.92209 -1.54774 0
M  V30 10275 N 991.427 6.9584 -0.935443 0
M  V30 10276 H 996.267 2.5254 -1.58201 0
M  V30 10277 H 993.804 1.24031 -0.790864 0
M  V30 10278 H 995.762 4.16254 0.280845 0
M  V30 10279 H 994.392 3.13365 0.774725 0
M  V30 10280 H 993.444 3.43903 -1.62589 0
M  V30 10281 H 994.756 4.59884 -1.93154 0
M  V30 10282 H 993.91 6.06635 -0.0887719 0
M  V30 10283 H 992.649 4.8669 0.313704 0
M  V30 10284 H 991.654 5.13063 -1.97602 0
M  V30 10285 H 992.879 6.3637 -2.37088 0
M  V30 10286 H 990.825 6.5586 -0.135339 0
M  V30 10287 H 990.742 7.37508 -1.66186 0
M  V30 10288 H 992.01 7.77611 -0.542346 0
M  V30 10289 N 996.239 0.8527 1.3254 0
M  V30 10290 C 997.485 0.455798 1.97612 0
M  V30 10291 C 997.818 -0.985616 1.6733 0
M  V30 10292 O 997.093 -1.69129 0.960493 0
M  V30 10293 C 997.376 0.69312 3.53366 0
M  V30 10294 C 997.229 2.18281 3.93285 0
M  V30 10295 C 998.548 0.148236 4.3985 0
M  V30 10296 H 995.667 0.167078 0.717812 0
M  V30 10297 H 998.309 1.07076 1.56954 0
M  V30 10298 H 996.459 0.169677 3.88129 0
M  V30 10299 H 998.131 2.77218 3.68711 0
M  V30 10300 H 996.374 2.66206 3.42515 0
M  V30 10301 H 997.045 2.29957 5.01821 0
M  V30 10302 H 999.521 0.595834 4.11812 0
M  V30 10303 H 998.397 0.343873 5.47822 0
M  V30 10304 H 998.658 -0.948872 4.31797 0
M  V30 10305 N 997.718 -1.45297 0.610449 0
M  V30 10306 C 998.948 -2.0629 0.113047 0
M  V30 10307 C 999.356 -1.45527 -1.20907 0
M  V30 10308 O 998.699 -0.564837 -1.74801 0
M  V30 10309 C 998.761 -3.59366 -0.0979692 0
M  V30 10310 C 998.425 -4.42481 1.14279 0
M  V30 10311 C 999.422 -4.77277 2.06161 0
M  V30 10312 C 997.107 -4.83187 1.37241 0
M  V30 10313 C 999.101 -5.51639 3.19333 0
M  V30 10314 C 996.788 -5.57303 2.50713 0
M  V30 10315 C 997.786 -5.91445 3.41587 0
M  V30 10316 O 997.474 -6.64056 4.53083 0
M  V30 10317 H 997.206 -0.67264 0.0673159 0
M  V30 10318 H 999.76 -1.87486 0.838937 0
M  V30 10319 H 997.99 -3.76582 -0.878783 0
M  V30 10320 H 999.679 -4.02193 -0.547327 0
M  V30 10321 H 1000.44 -4.46384 1.89647 0
M  V30 10322 H 996.324 -4.56045 0.67407 0
M  V30 10323 H 999.868 -5.78207 3.90286 0
M  V30 10324 H 995.765 -5.8761 2.67179 0
M  V30 10325 H 996.533 -6.82509 4.51801 0
M  V30 10326 N 999.196 -0.349774 -1.5367 0
M  V30 10327 C 1000.13 0.538575 -2.22782 0
M  V30 10328 C 1001.14 1.05896 -1.23652 0
M  V30 10329 O 1002.33 0.968045 -1.4997 0
M  V30 10330 C 999.43 1.7546 -2.89943 0
M  V30 10331 C 998.603 1.36843 -4.15443 0
M  V30 10332 C 997.662 2.4448 -4.65957 0
M  V30 10333 O 996.688 2.07528 -5.3002 0
M  V30 10334 N 997.89 3.75829 -4.42417 0
M  V30 10335 H 1000.65 -0.053348 -2.99653 0
M  V30 10336 H 998.216 -0.174193 -1.6096 0
M  V30 10337 H 1000.21 2.46911 -3.20651 0
M  V30 10338 H 998.778 2.25375 -2.16622 0
M  V30 10339 H 997.998 0.484421 -3.91212 0
M  V30 10340 H 999.286 1.0865 -4.97064 0
M  V30 10341 H 998.684 4.08635 -3.91196 0
M  V30 10342 H 997.241 4.43432 -4.77714 0
M  V30 10343 N 1000.67 1.57404 -0.0785433 0
M  V30 10344 C 1001.92 1.93361 0.58786 0
M  V30 10345 C 1002.24 0.959856 1.6974 0
M  V30 10346 O 1001.51 0.0091173 1.95898 0
M  V30 10347 H 1000.09 0.713825 0.220141 0
M  V30 10348 H 1002.75 1.94411 -0.137986 0
M  V30 10349 H 1001.85 2.95346 1.00881 0
M  V30 10350 N 1002.15 -0.195058 1.56388 0
M  V30 10351 C 1003.56 -0.75973 1.70543 0
M  V30 10352 C 1003.91 -1.83849 0.685118 0
M  V30 10353 O 1003.04 -2.15819 -0.158457 0
M  V30 10354 C 1003.63 -1.38485 3.09204 0
M  V30 10355 C 1002.19 -1.89661 3.25124 0
M  V30 10356 C 1001.34 -0.766563 2.66494 0
M  V30 10357 H 1004.29 0.0300148 1.58672 0
M  V30 10358 H 1004.31 -2.25424 3.06536 0
M  V30 10359 H 1003.82 -0.599479 3.83442 0
M  V30 10360 H 1001.92 -2.70917 2.55802 0
M  V30 10361 H 1002.04 -2.05837 4.32629 0
M  V30 10362 H 1000.4 -1.18086 2.25672 0
M  V30 10363 H 1001.18 0.00657102 3.43299 0
M  V30 10364 N 1003.63 -1.50653 -0.462772 0
M  V30 10365 C 1004.59 -1.69561 -1.54213 0
M  V30 10366 C 1005.59 -0.566106 -1.50505 0
M  V30 10367 O 1006.78 -0.833273 -1.52978 0
M  V30 10368 C 1003.91 -1.72856 -2.93826 0
M  V30 10369 H 1005.11 -2.65867 -1.38761 0
M  V30 10370 H 1002.66 -1.40259 -0.689728 0
M  V30 10371 H 1003.4 -0.78273 -3.14712 0
M  V30 10372 H 1003.18 -2.54919 -2.97924 0
M  V30 10373 H 1004.67 -1.89411 -3.72174 0
M  V30 10374 N 1005.11 0.71652 -1.4037 0
M  V30 10375 C 1006.06 1.8306 -1.40562 0
M  V30 10376 C 1007.03 1.64009 -0.262697 0
M  V30 10377 O 1008.21 1.85157 -0.460619 0
M  V30 10378 C 1005.35 3.2076 -1.27307 0
M  V30 10379 C 1004.46 3.51389 -2.51296 0
M  V30 10380 C 1003.6 4.78589 -2.30491 0
M  V30 10381 C 1002.64 5.02119 -3.50061 0
M  V30 10382 N 1001.77 6.20533 -3.28457 0
M  V30 10383 H 1006.61 1.82231 -2.35788 0
M  V30 10384 H 1004.15 0.890198 -1.17106 0
M  V30 10385 H 1006.11 4.00274 -1.17628 0
M  V30 10386 H 1004.74 3.2082 -0.357005 0
M  V30 10387 H 1003.79 2.66436 -2.71507 0
M  V30 10388 H 1005.1 3.64686 -3.40302 0
M  V30 10389 H 1004.26 5.66119 -2.1816 0
M  V30 10390 H 1003 4.67499 -1.38909 0
M  V30 10391 H 1002 4.13044 -3.6287 0
M  V30 10392 H 1003.23 5.15082 -4.42569 0
M  V30 10393 H 1001.17 6.10695 -2.39556 0
M  V30 10394 H 1001.09 6.34502 -4.11027 0
M  V30 10395 H 1002.36 7.10853 -3.19857 0
M  V30 10396 N 1006.59 1.25851 0.948643 0
M  V30 10397 C 1007.83 1.10735 1.69062 0
M  V30 10398 C 1008.16 -0.351257 1.9181 0
M  V30 10399 O 1007.43 -1.24867 1.50947 0
M  V30 10400 H 1006.01 0.406796 0.626519 0
M  V30 10401 H 1008.67 1.58066 1.14022 0
M  V30 10402 H 1007.76 1.62033 2.66743 0
M  V30 10403 N 1008.06 -1.15214 1.07534 0
M  V30 10404 C 1009.03 -2.18209 0.701237 0
M  V30 10405 C 1010.03 -1.58693 -0.25946 0
M  V30 10406 O 1011.22 -1.74154 -0.0401744 0
M  V30 10407 C 1008.35 -3.40883 0.0338703 0
M  V30 10408 H 1009.54 -2.5282 1.61314 0
M  V30 10409 H 1007.1 -1.29707 0.872105 0
M  V30 10410 H 1007.83 -3.11843 -0.890187 0
M  V30 10411 H 1007.62 -3.85342 0.72486 0
M  V30 10412 H 1009.11 -4.17056 -0.213152 0
M  V30 10413 N 1009.54 -0.859717 -1.32086 0
M  V30 10414 C 1010.51 -0.313005 -2.27053 0
M  V30 10415 C 1011.51 0.530191 -1.51808 0
M  V30 10416 O 1012.7 0.340972 -1.7083 0
M  V30 10417 C 1009.83 0.5566 -3.36325 0
M  V30 10418 H 1011.02 -1.15125 -2.76923 0
M  V30 10419 H 1008.57 -0.634463 -1.42843 0
M  V30 10420 H 1009.31 1.41645 -2.91731 0
M  V30 10421 H 1009.09 -0.0470197 -3.92072 0
M  V30 10422 H 1010.58 0.931725 -4.07073 0
M  V30 10423 N 1011.02 1.44971 -0.618145 0
M  V30 10424 C 1012.3 1.95539 -0.0489895 0
M  V30 10425 C 1012.68 1.5604 1.42179 0
M  V30 10426 O 1012.03 0.82809 2.12967 0
M  V30 10427 C 1012.24 3.48044 -0.258193 0
M  V30 10428 C 1013.58 4.24354 -0.144541 0
M  V30 10429 O 1014.61 3.55699 -0.18887 0
M  V30 10430 O 1013.47 5.46486 -0.038519 0
M  V30 10431 H 1010.56 0.826466 0.0297256 0
M  V30 10432 H 1013.11 1.55086 -0.688944 0
M  V30 10433 H 1011.88 3.69798 -1.27926 0
M  V30 10434 H 1011.5 3.95412 0.416522 0
M  V30 10435 N 1012.5 0.357919 1.53482 0
M  V30 10436 C 1013.73 -0.23514 2.05559 0
M  V30 10437 C 1014.14 -1.43068 1.23195 0
M  V30 10438 O 1013.5 -1.80481 0.270741 0
M  V30 10439 C 1013.55 -0.636147 3.55859 0
M  V30 10440 O 1013.27 0.511864 4.35099 0
M  V30 10441 C 1014.77 -1.28841 4.24164 0
M  V30 10442 H 1011.99 -0.0428446 0.669631 0
M  V30 10443 H 1014.54 0.51407 1.97933 0
M  V30 10444 H 1012.69 -1.33528 3.63661 0
M  V30 10445 H 1013.1 0.189328 5.24158 0
M  V30 10446 H 1014.58 -1.51962 5.30671 0
M  V30 10447 H 1015.06 -2.24638 3.77405 0
M  V30 10448 H 1015.66 -0.630914 4.20594 0
M  V30 10449 N 1013.98 -1.5736 0.0868897 0
M  V30 10450 C 1015.2 -1.98388 -0.587349 0
M  V30 10451 C 1015.62 -0.965757 -1.6223 0
M  V30 10452 O 1014.98 0.0456981 -1.82443 0
M  V30 10453 C 1015.03 -3.39479 -1.24242 0
M  V30 10454 O 1014.75 -4.37393 -0.248878 0
M  V30 10455 C 1016.25 -3.95465 -2.00305 0
M  V30 10456 H 1013.47 -0.652111 -0.15809 0
M  V30 10457 H 1016.01 -2.03843 0.163754 0
M  V30 10458 H 1014.17 -3.35063 -1.94451 0
M  V30 10459 H 1014.58 -5.19525 -0.720678 0
M  V30 10460 H 1016.06 -4.96363 -2.41511 0
M  V30 10461 H 1016.53 -3.32832 -2.86565 0
M  V30 10462 H 1017.14 -4.03328 -1.34931 0
M  V30 10463 N 1015.45 0.186762 -1.56489 0
M  V30 10464 C 1016.7 0.904077 -1.80303 0
M  V30 10465 C 1017.02 1.84073 -0.661538 0
M  V30 10466 O 1018.22 2.59928 -0.784197 0
M  V30 10467 C 1016.68 1.65806 -3.19432 0
M  V30 10468 C 1016.29 0.765807 -4.41406 0
M  V30 10469 C 1018.03 2.36451 -3.52549 0
M  V30 10470 C 1015.94 1.51913 -5.71556 0
M  V30 10471 H 1014.87 0.34133 -0.672317 0
M  V30 10472 H 1017.52 0.157218 -1.82825 0
M  V30 10473 H 1015.9 2.44911 -3.11183 0
M  V30 10474 H 1017.07 0.0128225 -4.60798 0
M  V30 10475 H 1015.39 0.169772 -4.16054 0
M  V30 10476 H 1017.99 2.93378 -4.47027 0
M  V30 10477 H 1018.33 3.11044 -2.7669 0
M  V30 10478 H 1018.86 1.64305 -3.62283 0
M  V30 10479 H 1015.6 0.815829 -6.50403 0
M  V30 10480 H 1015.12 2.24583 -5.56168 0
M  V30 10481 H 1016.8 2.07073 -6.12968 0
M  V30 10482 N 1016.93 1.50896 0.454776 0
M  V30 10483 C 1018.18 1.61936 1.20248 0
M  V30 10484 C 1018.49 0.332983 1.92745 0
M  V30 10485 O 1019.7 0.322512 2.69578 0
M  V30 10486 C 1018.16 2.85916 2.18587 0
M  V30 10487 C 1017.76 4.21492 1.51818 0
M  V30 10488 C 1019.51 3.06307 2.93898 0
M  V30 10489 C 1017.42 5.3664 2.48539 0
M  V30 10490 H 1016.35 0.603098 0.452536 0
M  V30 10491 H 1019 1.77345 0.471257 0
M  V30 10492 H 1017.38 2.64101 2.95071 0
M  V30 10493 H 1018.55 4.53623 0.810123 0
M  V30 10494 H 1016.87 4.06837 0.887265 0
M  V30 10495 H 1019.46 3.89507 3.66317 0
M  V30 10496 H 1019.81 2.18683 3.54236 0
M  V30 10497 H 1020.34 3.2838 2.24525 0
M  V30 10498 H 1017.08 6.26469 1.92916 0
M  V30 10499 H 1016.6 5.08907 3.17449 0
M  V30 10500 H 1018.28 5.67881 3.10033 0
M  V30 10501 N 1018.41 -0.709066 1.40748 0
M  V30 10502 C 1019.34 -1.83583 1.4429 0
M  V30 10503 C 1020.32 -1.67378 0.303067 0
M  V30 10504 O 1021.51 -1.87312 0.512612 0
M  V30 10505 C 1018.64 -3.21599 1.31116 0
M  V30 10506 C 1017.59 -3.52486 2.4277 0
M  V30 10507 C 1016.92 -4.89716 2.14668 0
M  V30 10508 C 1018.22 -3.52824 3.85113 0
M  V30 10509 H 1019.91 -1.80876 2.38588 0
M  V30 10510 H 1017.46 -0.868795 1.14839 0
M  V30 10511 H 1019.41 -4.00123 1.32209 0
M  V30 10512 H 1018.13 -3.24898 0.332965 0
M  V30 10513 H 1016.79 -2.76305 2.40937 0
M  V30 10514 H 1016.44 -4.89625 1.15224 0
M  V30 10515 H 1016.14 -5.11347 2.89478 0
M  V30 10516 H 1017.66 -5.70566 2.17455 0
M  V30 10517 H 1019.08 -4.21377 3.88734 0
M  V30 10518 H 1017.48 -3.85984 4.59496 0
M  V30 10519 H 1018.55 -2.52073 4.14231 0
M  V30 10520 N 1019.89 -1.26353 -0.941956 0
M  V30 10521 C 1021.11 -1.14731 -1.72776 0
M  V30 10522 C 1021.54 0.293766 -1.85792 0
M  V30 10523 O 1020.9 1.21284 -1.34759 0
M  V30 10524 C 1020.95 -1.82041 -3.11277 0
M  V30 10525 O 1020.05 -1.10867 -3.97218 0
M  V30 10526 H 1019.39 -0.399823 -0.53013 0
M  V30 10527 H 1021.92 -1.67157 -1.17981 0
M  V30 10528 H 1021.93 -1.88834 -3.61671 0
M  V30 10529 H 1020.61 -2.86879 -3.0112 0
M  V30 10530 H 1019.18 -1.12044 -3.55669 0
M  V30 10531 N 1021.37 1.14642 -1.08144 0
M  V30 10532 C 1022.64 1.81774 -0.72232 0
M  V30 10533 C 1023.02 1.95587 0.794294 0
M  V30 10534 O 1022.37 1.51361 1.71178 0
M  V30 10535 C 1022.58 3.1763 -1.44611 0
M  V30 10536 C 1023.93 3.93161 -1.60343 0
M  V30 10537 O 1024.95 3.2721 -1.40755 0
M  V30 10538 O 1023.81 5.11422 -1.9264 0
M  V30 10539 H 1020.91 0.785733 -0.257978 0
M  V30 10540 H 1023.45 1.21683 -1.18285 0
M  V30 10541 H 1022.23 3.02723 -2.4794 0
M  V30 10542 H 1021.85 3.85412 -0.976892 0
M  V30 10543 N 1022.85 0.866709 1.31628 0
M  V30 10544 C 1023.76 0.323408 2.3236 0
M  V30 10545 C 1024.77 -0.564995 1.64572 0
M  V30 10546 O 1025.95 -0.462489 1.96018 0
M  V30 10547 C 1023.01 -0.469045 3.43513 0
M  V30 10548 C 1022.07 0.446928 4.26967 0
M  V30 10549 C 1021.31 -0.307799 5.32812 0
M  V30 10550 O 1021.53 -1.5363 5.49321 0
M  V30 10551 O 1020.46 0.332653 6.0098 0
M  V30 10552 H 1024.29 1.15827 2.80745 0
M  V30 10553 H 1021.87 0.629987 1.35468 0
M  V30 10554 H 1023.76 -0.918405 4.1127 0
M  V30 10555 H 1022.43 -1.28051 2.97296 0
M  V30 10556 H 1021.34 0.944719 3.61975 0
M  V30 10557 H 1022.67 1.2239 4.76741 0
M  V30 10558 N 1024.32 -1.44642 0.625825 0
M  V30 10559 C 1025.6 -1.9551 0.0593587 0
M  V30 10560 C 1025.98 -1.56792 -1.41349 0
M  V30 10561 O 1025.33 -0.839373 -2.12525 0
M  V30 10562 C 1025.54 -3.47902 0.276647 0
M  V30 10563 C 1026.89 -4.24271 0.167044 0
M  V30 10564 O 1027.91 -3.55594 0.207731 0
M  V30 10565 O 1026.77 -5.46458 0.0675 0
M  V30 10566 H 1023.86 -0.826612 -0.0253422 0
M  V30 10567 H 1026.41 -1.54718 0.697159 0
M  V30 10568 H 1025.18 -3.69115 1.29885 0
M  V30 10569 H 1024.8 -3.95628 -0.395547 0
M  V30 10570 N 1025.8 -0.366053 -1.5329 0
M  V30 10571 C 1027.05 0.223493 -2.01263 0
M  V30 10572 C 1027.38 1.48736 -1.25331 0
M  V30 10573 O 1026.63 1.92805 -0.335341 0
M  V30 10574 C 1026.93 0.560906 -3.52971 0
M  V30 10575 C 1026.6 -0.60869 -4.46773 0
M  V30 10576 C 1025.26 -0.929609 -4.72135 0
M  V30 10577 C 1027.61 -1.39225 -5.02261 0
M  V30 10578 C 1024.94 -2.03606 -5.50238 0
M  V30 10579 C 1027.29 -2.48912 -5.81572 0
M  V30 10580 C 1025.95 -2.81538 -6.05221 0
M  V30 10581 H 1025.22 0.0817818 -0.736473 0
M  V30 10582 H 1027.87 -0.498613 -1.84895 0
M  V30 10583 H 1026.18 1.36403 -3.67289 0
M  V30 10584 H 1027.87 1.02931 -3.87564 0
M  V30 10585 H 1024.46 -0.348529 -4.27181 0
M  V30 10586 H 1028.65 -1.15757 -4.82612 0
M  V30 10587 H 1023.9 -2.29281 -5.6678 0
M  V30 10588 H 1028.08 -3.10044 -6.23575 0
M  V30 10589 H 1025.7 -3.67396 -6.65525 0
M  V30 10590 N 1027.28 1.57312 -0.0952337 0
M  V30 10591 C 1028.21 2.09691 0.900274 0
M  V30 10592 C 1029.19 1.0075 1.27625 0
M  V30 10593 O 1030.37 1.28249 1.38147 0
M  V30 10594 C 1027.5 2.574 2.20142 0
M  V30 10595 C 1026.55 3.78 1.9753 0
M  V30 10596 S 1027.38 5.21577 1.21318 0
M  V30 10597 C 1028.54 5.72636 2.52663 0
M  V30 10598 H 1028.77 2.93803 0.45467 0
M  V30 10599 H 1026.3 1.53948 0.118056 0
M  V30 10600 H 1028.26 2.85546 2.94914 0
M  V30 10601 H 1026.92 1.73514 2.61824 0
M  V30 10602 H 1026.11 4.09451 2.93881 0
M  V30 10603 H 1025.72 3.50349 1.30888 0
M  V30 10604 H 1028.01 5.80911 3.48638 0
M  V30 10605 H 1028.95 6.71136 2.25791 0
M  V30 10606 H 1029.36 5.00569 2.60943 0
M  V30 10607 N 1028.76 -0.17846 1.56586 0
M  V30 10608 C 1029.67 -1.24115 1.9908 0
M  V30 10609 C 1030.68 -1.48854 0.901031 0
M  V30 10610 O 1031.86 -1.61142 1.2081 0
M  V30 10611 C 1028.92 -2.56187 2.33601 0
M  V30 10612 C 1027.99 -2.39373 3.56369 0
M  V30 10613 C 1027.22 -3.65147 3.89234 0
M  V30 10614 O 1027.44 -4.70024 3.23162 0
M  V30 10615 O 1026.38 -3.59683 4.82609 0
M  V30 10616 H 1030.2 -0.910482 2.89731 0
M  V30 10617 H 1027.79 -0.38477 1.4436 0
M  V30 10618 H 1029.67 -3.34109 2.56806 0
M  V30 10619 H 1028.34 -2.88847 1.46113 0
M  V30 10620 H 1027.25 -1.59506 3.38391 0
M  V30 10621 H 1028.58 -2.1164 4.44375 0
M  V30 10622 N 1030.24 -1.51135 -0.446768 0
M  V30 10623 C 1031.48 -1.63578 -1.19875 0
M  V30 10624 C 1031.81 -0.346478 -1.91084 0
M  V30 10625 O 1031.09 0.653447 -1.83195 0
M  V30 10626 C 1031.37 -2.83275 -2.22323 0
M  V30 10627 C 1031.23 -4.22155 -1.55259 0
M  V30 10628 C 1032.54 -2.98496 -3.23401 0
M  V30 10629 H 1029.66 -0.595333 -0.434452 0
M  V30 10630 H 1032.31 -1.83593 -0.48923 0
M  V30 10631 H 1030.46 -2.6634 -2.82834 0
M  V30 10632 H 1032.13 -4.50736 -0.981571 0
M  V30 10633 H 1030.37 -4.25288 -0.855122 0
M  V30 10634 H 1031.04 -5.01882 -2.29823 0
M  V30 10635 H 1033.52 -3.14079 -2.72935 0
M  V30 10636 H 1032.39 -3.83828 -3.92386 0
M  V30 10637 H 1032.65 -2.10157 -3.88956 0
M  V30 10638 N 1031.71 0.701592 -1.41122 0
M  V30 10639 C 1032.96 1.46376 -1.40363 0
M  V30 10640 C 1033.29 1.94197 -0.0105442 0
M  V30 10641 O 1032.57 1.69121 0.960637 0
M  V30 10642 C 1032.85 2.67994 -2.40523 0
M  V30 10643 C 1032.7 2.25977 -3.88914 0
M  V30 10644 C 1034.02 3.70181 -2.38022 0
M  V30 10645 H 1031.14 0.530929 -0.511159 0
M  V30 10646 H 1033.78 0.799588 -1.72356 0
M  V30 10647 H 1031.93 3.24661 -2.13372 0
M  V30 10648 H 1033.61 1.74684 -4.26946 0
M  V30 10649 H 1031.85 1.57826 -4.04071 0
M  V30 10650 H 1032.52 3.13215 -4.54533 0
M  V30 10651 H 1035 3.23174 -2.62103 0
M  V30 10652 H 1033.87 4.52894 -3.10127 0
M  V30 10653 H 1034.13 4.19458 -1.3967 0
M  V30 10654 N 1033.19 1.2685 0.935242 0
M  V30 10655 C 1034.12 1.1143 2.05196 0
M  V30 10656 C 1035.1 0.0178362 1.70091 0
M  V30 10657 O 1036.29 0.190951 1.93259 0
M  V30 10658 C 1033.42 0.752779 3.39044 0
M  V30 10659 C 1032.37 1.80164 3.88233 0
M  V30 10660 C 1031.7 1.29428 5.18799 0
M  V30 10661 C 1033 3.20431 4.12457 0
M  V30 10662 H 1034.69 2.04845 2.18355 0
M  V30 10663 H 1032.24 0.986276 1.04922 0
M  V30 10664 H 1034.19 0.631757 4.16637 0
M  V30 10665 H 1032.91 -0.217075 3.25878 0
M  V30 10666 H 1031.57 1.91144 3.12825 0
M  V30 10667 H 1031.22 0.3141 5.02018 0
M  V30 10668 H 1030.92 1.99546 5.5268 0
M  V30 10669 H 1032.45 1.18605 5.9897 0
M  V30 10670 H 1033.86 3.12495 4.80645 0
M  V30 10671 H 1032.26 3.88193 4.57631 0
M  V30 10672 H 1033.33 3.66046 3.18023 0
M  V30 10673 N 1034.67 -1.14067 1.0875 0
M  V30 10674 C 1035.92 -1.84819 0.817698 0
M  V30 10675 C 1036.24 -1.83545 -0.658488 0
M  V30 10676 O 1035.51 -1.28633 -1.47751 0
M  V30 10677 H 1034.09 -0.68433 0.299502 0
M  V30 10678 H 1036.75 -1.38208 1.37421 0
M  V30 10679 H 1035.85 -2.89541 1.16501 0
M  V30 10680 N 1036.15 -0.873678 -1.31166 0
M  V30 10681 C 1037.1 -0.330288 -2.28424 0
M  V30 10682 C 1038.07 0.573299 -1.55893 0
M  V30 10683 O 1039.25 0.504143 -1.84019 0
M  V30 10684 C 1036.39 0.459004 -3.42034 0
M  V30 10685 C 1035.5 -0.472519 -4.29408 0
M  V30 10686 C 1034.64 0.331261 -5.30166 0
M  V30 10687 C 1033.68 -0.596453 -6.09187 0
M  V30 10688 N 1032.81 0.171305 -7.01891 0
M  V30 10689 H 1037.65 -1.16485 -2.7429 0
M  V30 10690 H 1035.19 -0.585813 -1.34932 0
M  V30 10691 H 1037.15 0.932432 -4.06647 0
M  V30 10692 H 1035.78 1.25824 -2.97268 0
M  V30 10693 H 1034.83 -1.06441 -3.65205 0
M  V30 10694 H 1036.14 -1.18372 -4.84551 0
M  V30 10695 H 1035.3 0.867038 -6.00473 0
M  V30 10696 H 1034.04 1.07573 -4.75688 0
M  V30 10697 H 1033.04 -1.14395 -5.37767 0
M  V30 10698 H 1034.27 -1.33983 -6.65752 0
M  V30 10699 H 1032.21 0.89852 -6.49817 0
M  V30 10700 H 1032.13 -0.480481 -7.54472 0
M  V30 10701 H 1033.4 0.688192 -7.76456 0
M  V30 10702 N 1037.63 1.44308 -0.633487 0
M  V30 10703 C 1038.56 2.33431 0.0568402 0
M  V30 10704 C 1039.54 1.48342 0.832386 0
M  V30 10705 O 1040.72 1.77056 0.797798 0
M  V30 10706 C 1037.85 3.31443 1.03743 0
M  V30 10707 C 1036.81 4.26368 0.373362 0
M  V30 10708 C 1036.13 5.14267 1.46403 0
M  V30 10709 C 1037.43 5.17287 -0.721876 0
M  V30 10710 H 1039.13 2.91402 -0.687388 0
M  V30 10711 H 1036.67 1.4012 -0.332009 0
M  V30 10712 H 1038.63 3.92677 1.52913 0
M  V30 10713 H 1037.35 2.71686 1.81258 0
M  V30 10714 H 1036.01 3.6647 -0.0977053 0
M  V30 10715 H 1035.66 4.50861 2.23011 0
M  V30 10716 H 1035.36 5.7859 1.02506 0
M  V30 10717 H 1036.88 5.78373 1.95748 0
M  V30 10718 H 1038.29 5.72444 -0.313181 0
M  V30 10719 H 1036.69 5.90226 -1.08413 0
M  V30 10720 H 1037.76 4.58159 -1.58804 0
M  V30 10721 N 1039.1 0.374177 1.53094 0
M  V30 10722 C 1040.38 -0.269632 1.93733 0
M  V30 10723 C 1040.76 -1.6566 1.30843 0
M  V30 10724 O 1040.11 -2.23598 0.470759 0
M  V30 10725 C 1040.32 -0.311204 3.4761 0
M  V30 10726 C 1041.67 -0.547432 4.21056 0
M  V30 10727 O 1042.69 -0.392053 3.54036 0
M  V30 10728 O 1041.55 -0.850645 5.39839 0
M  V30 10729 H 1038.64 -0.163723 0.810632 0
M  V30 10730 H 1041.19 0.427586 1.64225 0
M  V30 10731 H 1039.96 0.660897 3.85678 0
M  V30 10732 H 1039.59 -1.05397 3.83376 0
M  V30 10733 N 1040.58 -1.57259 0.103575 0
M  V30 10734 C 1041.99 -1.81816 -0.424239 0
M  V30 10735 C 1042.34 -1.01976 -1.67617 0
M  V30 10736 O 1041.47 -0.251673 -2.14932 0
M  V30 10737 C 1042.06 -3.29783 -0.776453 0
M  V30 10738 C 1040.62 -3.55074 -1.24897 0
M  V30 10739 C 1039.77 -2.76172 -0.249875 0
M  V30 10740 H 1042.72 -1.55254 0.328913 0
M  V30 10741 H 1042.74 -3.43569 -1.63526 0
M  V30 10742 H 1042.25 -3.87865 0.134906 0
M  V30 10743 H 1040.36 -3.02332 -2.17775 0
M  V30 10744 H 1040.47 -4.637 -1.20495 0
M  V30 10745 H 1038.83 -2.43902 -0.733767 0
M  V30 10746 H 1039.62 -3.37007 0.65431 0
M  V30 10747 N 1042.06 0.170153 -1.56679 0
M  V30 10748 C 1042.99 1.23525 -1.93066 0
M  V30 10749 C 1044.01 1.40414 -0.823879 0
M  V30 10750 O 1045.19 1.40396 -1.10232 0
M  V30 10751 C 1042.29 2.60376 -2.16928 0
M  V30 10752 C 1041.47 2.6477 -3.4816 0
M  V30 10753 C 1040.53 3.82993 -3.60837 0
M  V30 10754 O 1039.55 3.68937 -4.33444 0
M  V30 10755 N 1040.75 4.99498 -2.95773 0
M  V30 10756 H 1043.52 0.926172 -2.8503 0
M  V30 10757 H 1041.08 0.359909 -1.57849 0
M  V30 10758 H 1043.07 3.37934 -2.22672 0
M  V30 10759 H 1041.64 2.83669 -1.31342 0
M  V30 10760 H 1040.86 1.73298 -3.54064 0
M  V30 10761 H 1042.15 2.64717 -4.34514 0
M  V30 10762 H 1041.55 5.13819 -2.36657 0
M  V30 10763 H 1040.11 5.74914 -3.07111 0
M  V30 10764 N 1043.54 1.5137 0.438746 0
M  V30 10765 C 1044.49 1.72582 1.53245 0
M  V30 10766 C 1045.46 0.567488 1.56105 0
M  V30 10767 O 1046.64 0.80176 1.73137 0
M  V30 10768 C 1043.78 1.85551 2.90972 0
M  V30 10769 C 1042.89 3.13094 2.97652 0
M  V30 10770 C 1042.03 3.16666 4.26493 0
M  V30 10771 C 1041.07 4.38529 4.27035 0
M  V30 10772 N 1040.2 4.39659 5.47398 0
M  V30 10773 H 1045.04 2.65941 1.3446 0
M  V30 10774 H 1042.58 1.31801 0.653206 0
M  V30 10775 H 1044.54 1.91053 3.70884 0
M  V30 10776 H 1043.17 0.956025 3.08318 0
M  V30 10777 H 1042.22 3.16909 2.10412 0
M  V30 10778 H 1043.53 4.03009 2.93914 0
M  V30 10779 H 1042.69 3.21075 5.14777 0
M  V30 10780 H 1041.43 2.24637 4.32885 0
M  V30 10781 H 1040.43 4.34297 3.37144 0
M  V30 10782 H 1041.66 5.31821 4.22307 0
M  V30 10783 H 1039.6 3.50499 5.54514 0
M  V30 10784 H 1039.52 5.23382 5.45534 0
M  V30 10785 H 1040.79 4.48259 6.37718 0
M  V30 10786 N 1045.02 -0.694098 1.41492 0
M  V30 10787 C 1045.98 -1.78976 1.43179 0
M  V30 10788 C 1046.98 -1.57539 0.322191 0
M  V30 10789 O 1048.17 -1.64185 0.582138 0
M  V30 10790 C 1045.3 -3.17368 1.2446 0
M  V30 10791 H 1046.49 -1.78874 2.40716 0
M  V30 10792 H 1044.05 -0.901867 1.27656 0
M  V30 10793 H 1044.78 -3.23109 0.277691 0
M  V30 10794 H 1044.57 -3.3433 2.04856 0
M  V30 10795 H 1046.06 -3.97345 1.28479 0
M  V30 10796 N 1046.49 -1.27344 -0.928501 0
M  V30 10797 C 1047.74 -1.13635 -1.6761 0
M  V30 10798 C 1048.07 0.317957 -1.91884 0
M  V30 10799 O 1047.32 1.24904 -1.50657 0
M  V30 10800 C 1047.62 -1.86439 -3.04918 0
M  V30 10801 C 1047.29 -3.36298 -3.00358 0
M  V30 10802 C 1045.95 -3.77173 -2.98821 0
M  V30 10803 C 1048.3 -4.31921 -2.91708 0
M  V30 10804 C 1045.63 -5.12037 -2.86417 0
M  V30 10805 C 1047.98 -5.66841 -2.80846 0
M  V30 10806 C 1046.65 -6.07011 -2.77659 0
M  V30 10807 H 1045.92 -0.415821 -0.61333 0
M  V30 10808 H 1048.56 -1.57943 -1.08288 0
M  V30 10809 H 1046.87 -1.34638 -3.6794 0
M  V30 10810 H 1048.57 -1.73261 -3.61637 0
M  V30 10811 H 1045.16 -3.0379 -3.0234 0
M  V30 10812 H 1049.34 -4.01314 -2.91994 0
M  V30 10813 H 1044.6 -5.42307 -2.82336 0
M  V30 10814 H 1048.77 -6.40608 -2.73119 0
M  V30 10815 H 1046.4 -7.11467 -2.67804 0
M  V30 10816 N 1047.97 1.13488 -1.09353 0
M  V30 10817 C 1049.22 1.84748 -0.829126 0
M  V30 10818 C 1049.55 1.83485 0.645247 0
M  V30 10819 O 1048.8 1.26767 1.49093 0
M  V30 10820 C 1049.1 3.32584 -1.30854 0
M  V30 10821 C 1048.77 3.54028 -2.7924 0
M  V30 10822 C 1047.43 3.59588 -3.19765 0
M  V30 10823 C 1049.78 3.62058 -3.74918 0
M  V30 10824 C 1047.11 3.70712 -4.54741 0
M  V30 10825 C 1049.46 3.7471 -5.09682 0
M  V30 10826 C 1048.13 3.78523 -5.49797 0
M  V30 10827 H 1047.4 0.67604 -0.303399 0
M  V30 10828 H 1050.04 1.33989 -1.36818 0
M  V30 10829 H 1048.35 3.85689 -0.689275 0
M  V30 10830 H 1050.04 3.86166 -1.08059 0
M  V30 10831 H 1046.63 3.50354 -2.4688 0
M  V30 10832 H 1050.82 3.57043 -3.44723 0
M  V30 10833 H 1046.07 3.71931 -4.8526 0
M  V30 10834 H 1050.25 3.79866 -5.83674 0
M  V30 10835 H 1047.88 3.86895 -6.54382 0
M  V30 10836 N 1049.45 0.880621 1.30701 0
M  V30 10837 C 1050.68 0.510909 2.01009 0
M  V30 10838 C 1051.1 -0.892041 1.65603 0
M  V30 10839 O 1050.46 -1.59045 0.870309 0
M  V30 10840 C 1050.51 0.687759 3.53981 0
M  V30 10841 O 1049.61 -0.268275 4.11526 0
M  V30 10842 H 1048.95 0.201864 0.632572 0
M  V30 10843 H 1051.48 1.18697 1.6665 0
M  V30 10844 H 1051.49 0.585095 4.03783 0
M  V30 10845 H 1050.17 1.71068 3.79089 0
M  V30 10846 H 1048.74 -0.119673 3.72708 0
M  V30 10847 N 1050.93 -1.4397 0.641131 0
M  V30 10848 C 1052.18 -2.01548 0.149333 0
M  V30 10849 C 1052.5 -1.50759 -1.23679 0
M  V30 10850 O 1051.77 -0.715257 -1.82376 0
M  V30 10851 H 1050.35 -0.745173 0.0522161 0
M  V30 10852 H 1053.01 -1.7634 0.830082 0
M  V30 10853 H 1052.11 -3.11851 0.124676 0
M  V30 10854 N 1052.41 -0.382291 -1.52893 0
M  V30 10855 C 1053.82 -0.031941 -1.59568 0
M  V30 10856 C 1054.02 1.45245 -1.39664 0
M  V30 10857 O 1053.08 2.21612 -1.21013 0
M  V30 10858 C 1054.39 -0.502846 -2.96466 0
M  V30 10859 C 1055.94 -0.4585 -3.09624 0
M  V30 10860 C 1056.42 -0.905481 -4.4896 0
M  V30 10861 N 1057.91 -0.861211 -4.55124 0
M  V30 10862 C 1058.64 -1.17856 -5.61157 0
M  V30 10863 N 1058.14 -1.56603 -6.74868 0
M  V30 10864 N 1059.93 -1.10027 -5.51226 0
M  V30 10865 H 1052.08 -1.34875 -1.64081 0
M  V30 10866 H 1054.34 -0.552375 -0.770446 0
M  V30 10867 H 1054.05 -1.53931 -3.16225 0
M  V30 10868 H 1053.92 0.101777 -3.77063 0
M  V30 10869 H 1056.31 0.568868 -2.89565 0
M  V30 10870 H 1056.39 -1.09884 -2.30996 0
M  V30 10871 H 1056.04 -1.93105 -4.69759 0
M  V30 10872 H 1055.97 -0.242227 -5.26043 0
M  V30 10873 H 1058.46 -0.575988 -3.73485 0
M  V30 10874 H 1058.77 -1.792 -7.51736 0
M  V30 10875 H 1057.12 -1.60484 -6.76217 0
M  V30 10876 H 1060.31 -0.796623 -4.61272 0
M  V30 10877 H 1060.48 -1.35091 -6.33762 0
M  V30 10878 N 1053.89 1.57202 -0.111913 0
M  V30 10879 C 1054.82 2.17957 0.837683 0
M  V30 10880 C 1055.8 1.1176 1.28233 0
M  V30 10881 O 1056.98 1.39967 1.34621 0
M  V30 10882 C 1054.11 2.77333 2.09054 0
M  V30 10883 C 1053.07 3.8905 1.78393 0
M  V30 10884 C 1052.39 4.35203 3.10649 0
M  V30 10885 C 1053.69 5.11477 1.05775 0
M  V30 10886 H 1055.39 2.9756 0.331441 0
M  V30 10887 H 1052.93 1.43131 0.157979 0
M  V30 10888 H 1054.88 3.18492 2.75936 0
M  V30 10889 H 1053.61 1.95009 2.6199 0
M  V30 10890 H 1052.27 3.48456 1.13903 0
M  V30 10891 H 1051.92 3.49747 3.61506 0
M  V30 10892 H 1051.62 5.10534 2.9091 0
M  V30 10893 H 1053.14 4.79007 3.78661 0
M  V30 10894 H 1054.55 5.497 1.62798 0
M  V30 10895 H 1052.95 5.92346 0.961573 0
M  V30 10896 H 1054.02 4.84881 0.043297 0
M  V30 10897 N 1055.36 -0.161842 1.56767 0
M  V30 10898 C 1056.31 -1.2002 1.97139 0
M  V30 10899 C 1057.28 -1.43486 0.836713 0
M  V30 10900 O 1058.47 -1.56069 1.0976 0
M  V30 10901 C 1055.61 -2.53228 2.34456 0
M  V30 10902 C 1054.72 -2.37062 3.61145 0
M  V30 10903 C 1053.85 -3.63202 3.87631 0
M  V30 10904 C 1052.89 -3.42008 5.07638 0
M  V30 10905 N 1052.03 -4.60242 5.30209 0
M  V30 10906 H 1056.87 -0.848918 2.85653 0
M  V30 10907 H 1054.41 -0.407753 1.41336 0
M  V30 10908 H 1056.36 -3.30879 2.54116 0
M  V30 10909 H 1054.99 -2.86333 1.4904 0
M  V30 10910 H 1054.05 -1.50539 3.49345 0
M  V30 10911 H 1055.36 -2.17353 4.48953 0
M  V30 10912 H 1054.51 -4.49285 4.0771 0
M  V30 10913 H 1053.25 -3.85899 2.98216 0
M  V30 10914 H 1052.26 -2.54312 4.87448 0
M  V30 10915 H 1053.48 -3.20724 5.98593 0
M  V30 10916 H 1051.43 -4.8314 4.43747 0
M  V30 10917 H 1051.34 -4.43481 6.12259 0
M  V30 10918 H 1052.61 -5.47581 5.54775 0
M  V30 10919 N 1056.84 -1.516 -0.430713 0
M  V30 10920 C 1057.8 -1.72794 -1.50582 0
M  V30 10921 C 1058.8 -0.597903 -1.49271 0
M  V30 10922 O 1059.99 -0.865535 -1.51176 0
M  V30 10923 C 1057.13 -1.79049 -2.90093 0
M  V30 10924 H 1058.32 -2.68751 -1.33091 0
M  V30 10925 H 1055.87 -1.4169 -0.659822 0
M  V30 10926 H 1056.61 -0.849309 -3.12981 0
M  V30 10927 H 1056.39 -2.61181 -2.92449 0
M  V30 10928 H 1057.88 -1.97262 -3.68072 0
M  V30 10929 N 1058.32 0.686584 -1.41858 0
M  V30 10930 C 1059.74 0.998283 -1.24525 0
M  V30 10931 C 1059.94 2.01006 -0.141007 0
M  V30 10932 O 1058.99 2.47667 0.491648 0
M  V30 10933 C 1060.3 1.51432 -2.59786 0
M  V30 10934 C 1061.85 1.6327 -2.67043 0
M  V30 10935 C 1062.33 2.18274 -4.02642 0
M  V30 10936 N 1063.82 2.25622 -4.04535 0
M  V30 10937 C 1064.55 2.69229 -5.06264 0
M  V30 10938 N 1064.05 3.12375 -6.1838 0
M  V30 10939 N 1065.84 2.68873 -4.93623 0
M  V30 10940 H 1057.99 0.0164825 -2.12394 0
M  V30 10941 H 1060.26 0.0698613 -0.945422 0
M  V30 10942 H 1059.96 0.845426 -3.41388 0
M  V30 10943 H 1059.84 2.49502 -2.82894 0
M  V30 10944 H 1062.22 2.29269 -1.85794 0
M  V30 10945 H 1062.3 0.637221 -2.47736 0
M  V30 10946 H 1061.95 1.52887 -4.84343 0
M  V30 10947 H 1061.88 3.18591 -4.19294 0
M  V30 10948 H 1064.37 1.95186 -3.23591 0
M  V30 10949 H 1064.68 3.44301 -6.91864 0
M  V30 10950 H 1063.03 3.10262 -6.21902 0
M  V30 10951 H 1066.22 2.34521 -4.05114 0
M  V30 10952 H 1066.39 3.02539 -5.7304 0
M  V30 10953 N 1059.8 1.27835 0.921735 0
M  V30 10954 C 1061.05 1.14296 1.66676 0
M  V30 10955 C 1061.37 -0.310493 1.92512 0
M  V30 10956 O 1060.64 -1.21637 1.53562 0
M  V30 10957 H 1059.22 0.419994 0.617749 0
M  V30 10958 H 1061.88 1.60449 1.10644 0
M  V30 10959 H 1060.97 1.67654 2.63246 0
M  V30 10960 N 1061.28 -1.12907 1.09954 0
M  V30 10961 C 1062.22 -2.20561 0.73863 0
M  V30 10962 C 1063.22 -1.67347 -0.262944 0
M  V30 10963 O 1064.42 -1.79574 -0.123834 0
M  V30 10964 H 1060.8 -0.718823 0.220901 0
M  V30 10965 H 1062.77 -2.4826 1.65559 0
M  V30 10966 C 1061.52 -3.47227 0.181239 0
M  V30 10967 H 1060.84 -3.88516 0.943144 0
M  V30 10968 H 1062.28 -4.23987 -0.0332888 0
M  V30 10969 C 1060.74 -3.18956 -1.08485 0
M  V30 10970 O 1061.27 -3.38224 -2.1672 0
M  V30 10971 N 1059.48 -2.72797 -1.00151 0
M  V30 10972 H 1059.02 -2.57317 -0.120645 0
M  V30 10973 H 1058.98 -2.54256 -1.84935 0
M  V30 10974 N 1062.75 -0.88754 -1.30232 0
M  V30 10975 C 1064 -0.503322 -1.95319 0
M  V30 10976 C 1064.32 0.952817 -1.70824 0
M  V30 10977 O 1065.52 1.444 -2.29915 0
M  V30 10978 C 1063.98 -0.849216 -3.49738 0
M  V30 10979 C 1063.59 -2.3233 -3.83049 0
M  V30 10980 C 1065.33 -0.53432 -4.21124 0
M  V30 10981 C 1063.24 -2.61069 -5.30657 0
M  V30 10982 H 1062.17 -0.1845 -0.731078 0
M  V30 10983 H 1064.82 -1.08287 -1.48143 0
M  V30 10984 H 1063.2 -0.198729 -3.95501 0
M  V30 10985 H 1064.37 -3.01832 -3.48187 0
M  V30 10986 H 1062.69 -2.60599 -3.24773 0
M  V30 10987 H 1065.29 -0.726039 -5.29748 0
M  V30 10988 H 1065.63 0.526434 -4.12958 0
M  V30 10989 H 1066.16 -1.14211 -3.81052 0
M  V30 10990 H 1062.9 -3.65895 -5.43876 0
M  V30 10991 H 1062.42 -1.96179 -5.6681 0
M  V30 10992 H 1064.1 -2.46703 -5.98119 0
M  V30 10993 N 1064.23 1.43628 -0.648757 0
M  V30 10994 C 1065.17 2.28001 0.0952198 0
M  V30 10995 C 1066.14 1.39569 0.834225 0
M  V30 10996 O 1067.33 1.69011 0.834711 0
M  V30 10997 C 1064.45 3.18886 1.14145 0
M  V30 10998 C 1063.5 4.23547 0.500996 0
M  V30 10999 S 1064.33 5.30609 -0.722118 0
M  V30 11000 C 1065.49 6.25062 0.323687 0
M  V30 11001 H 1065.72 2.90752 -0.620511 0
M  V30 11002 H 1063.26 1.48073 -0.437457 0
M  V30 11003 H 1065.21 3.71795 1.74008 0
M  V30 11004 H 1063.87 2.55322 1.82947 0
M  V30 11005 H 1063.07 4.87224 1.28954 0
M  V30 11006 H 1062.67 3.73993 -0.0234176 0
M  V30 11007 H 1064.96 6.66946 1.19118 0
M  V30 11008 H 1065.9 7.07554 -0.277939 0
M  V30 11009 H 1066.31 5.60658 0.657493 0
M  V30 11010 N 1065.71 0.390394 1.52688 0
M  V30 11011 C 1066.64 -0.43567 2.294 0
M  V30 11012 C 1067.62 -1.06253 1.32832 0
M  V30 11013 O 1068.81 -1.07509 1.61726 0
M  V30 11014 C 1065.94 -1.56259 3.10162 0
M  V30 11015 C 1064.89 -1.06172 4.14622 0
M  V30 11016 C 1064.22 -2.2808 4.83615 0
M  V30 11017 C 1065.52 -0.128902 5.22141 0
M  V30 11018 H 1067.21 0.204384 2.98702 0
M  V30 11019 H 1064.76 0.0997377 1.43654 0
M  V30 11020 H 1066.71 -2.14732 3.62585 0
M  V30 11021 H 1065.43 -2.23025 2.38595 0
M  V30 11022 H 1064.09 -0.499518 3.63181 0
M  V30 11023 H 1063.74 -2.93358 4.08595 0
M  V30 11024 H 1063.44 -1.95227 5.5422 0
M  V30 11025 H 1064.96 -2.87193 5.38844 0
M  V30 11026 H 1066.38 -0.621849 5.69917 0
M  V30 11027 H 1064.78 0.109919 5.99999 0
M  V30 11028 H 1065.85 0.821884 4.77884 0
M  V30 11029 N 1067.19 -1.57141 0.120249 0
M  V30 11030 C 1068.41 -2.00017 -0.548454 0
M  V30 11031 C 1068.84 -0.999433 -1.59352 0
M  V30 11032 O 1068.2 0.0286978 -1.81277 0
M  V30 11033 C 1068.24 -3.41766 -1.15015 0
M  V30 11034 O 1067.35 -3.44589 -2.26566 0
M  V30 11035 H 1066.69 -0.649739 -0.136875 0
M  V30 11036 H 1069.22 -2.03529 0.209092 0
M  V30 11037 H 1069.23 -3.80001 -1.48537 0
M  V30 11038 H 1067.9 -4.14117 -0.384681 0
M  V30 11039 H 1066.48 -3.18174 -1.94473 0
M  V30 11040 N 1068.67 0.153526 -1.5685 0
M  V30 11041 C 1069.6 1.2147 -1.94365 0
M  V30 11042 C 1070.61 1.39532 -0.838726 0
M  V30 11043 O 1071.8 1.39219 -1.11715 0
M  V30 11044 C 1068.9 2.5806 -2.19677 0
M  V30 11045 C 1068.07 2.61062 -3.50949 0
M  V30 11046 C 1067.13 3.79144 -3.64878 0
M  V30 11047 O 1066.16 3.64319 -4.37333 0
M  V30 11048 N 1067.36 4.96333 -3.01054 0
M  V30 11049 H 1070.13 0.895889 -2.85996 0
M  V30 11050 H 1067.69 0.343147 -1.58222 0
M  V30 11051 H 1069.68 3.35553 -2.26243 0
M  V30 11052 H 1068.25 2.8226 -1.34343 0
M  V30 11053 H 1067.47 1.69533 -3.55882 0
M  V30 11054 H 1068.76 2.60094 -4.37297 0
M  V30 11055 H 1068.15 5.1128 -2.42093 0
M  V30 11056 H 1066.71 5.71625 -3.13191 0
M  V30 11057 N 1070.14 1.51827 0.422667 0
M  V30 11058 C 1071.09 1.74198 1.51406 0
M  V30 11059 C 1072.06 0.584013 1.55494 0
M  V30 11060 O 1073.25 0.820079 1.72277 0
M  V30 11061 C 1070.39 1.88627 2.88988 0
M  V30 11062 C 1069.5 3.16233 2.94314 0
M  V30 11063 C 1068.63 3.21172 4.2311 0
M  V30 11064 C 1067.67 4.43033 4.2236 0
M  V30 11065 N 1066.81 4.4544 5.42704 0
M  V30 11066 H 1071.65 2.67352 1.31632 0
M  V30 11067 H 1069.19 1.32487 0.63919 0
M  V30 11068 H 1071.15 1.94976 3.68837 0
M  V30 11069 H 1069.78 0.988673 3.07287 0
M  V30 11070 H 1068.83 3.19123 2.07039 0
M  V30 11071 H 1070.14 4.06104 2.89623 0
M  V30 11072 H 1069.29 3.26517 5.11343 0
M  V30 11073 H 1068.03 2.29216 4.30478 0
M  V30 11074 H 1067.04 4.37849 3.32518 0
M  V30 11075 H 1068.26 5.3627 4.16643 0
M  V30 11076 H 1066.21 3.56361 5.50766 0
M  V30 11077 H 1066.13 5.29138 5.39953 0
M  V30 11078 H 1067.39 4.54997 6.32928 0
M  V30 11079 N 1071.62 -0.679052 1.4222 0
M  V30 11080 C 1072.55 -1.80481 1.48152 0
M  V30 11081 C 1073.53 -1.66698 0.338502 0
M  V30 11082 O 1074.72 -1.86183 0.552228 0
M  V30 11083 C 1071.85 -3.18746 1.37908 0
M  V30 11084 C 1070.8 -3.47258 2.50192 0
M  V30 11085 C 1070.13 -4.85052 2.25008 0
M  V30 11086 C 1071.43 -3.44576 3.92511 0
M  V30 11087 H 1073.12 -1.75774 2.42371 0
M  V30 11088 H 1070.67 -0.844241 1.16656 0
M  V30 11089 H 1072.62 -3.97229 1.40666 0
M  V30 11090 H 1071.35 -3.24119 0.401806 0
M  V30 11091 H 1070 -2.71133 2.46744 0
M  V30 11092 H 1069.65 -4.8707 1.25584 0
M  V30 11093 H 1069.35 -5.05092 3.00259 0
M  V30 11094 H 1070.88 -5.65825 2.29508 0
M  V30 11095 H 1072.29 -4.13036 3.97585 0
M  V30 11096 H 1070.69 -3.76151 4.67579 0
M  V30 11097 H 1071.76 -2.4323 4.19484 0
M  V30 11098 N 1073.1 -1.28322 -0.914942 0
M  V30 11099 C 1074.03 -1.07947 -2.02188 0
M  V30 11100 C 1075.05 -0.0315743 -1.62769 0
M  V30 11101 O 1076.23 -0.274503 -1.76377 0
M  V30 11102 C 1073.33 -0.61805 -3.33217 0
M  V30 11103 C 1072.51 -1.74109 -4.01254 0
M  V30 11104 C 1071.57 -1.27325 -5.10563 0
M  V30 11105 O 1070.59 -1.97526 -5.33828 0
M  V30 11106 N 1071.79 -0.1358 -5.80341 0
M  V30 11107 H 1074.56 -2.03275 -2.20225 0
M  V30 11108 H 1072.12 -1.20059 -1.08616 0
M  V30 11109 H 1074.11 -0.288693 -4.03669 0
M  V30 11110 H 1072.68 0.242348 -3.11659 0
M  V30 11111 H 1071.9 -2.2401 -3.24366 0
M  V30 11112 H 1073.19 -2.49448 -4.43456 0
M  V30 11113 H 1072.59 0.449846 -5.63909 0
M  V30 11114 H 1071.15 0.134289 -6.51662 0
M  V30 11115 N 1074.58 1.12322 -1.10551 0
M  V30 11116 C 1075.51 2.17221 -0.699299 0
M  V30 11117 C 1076.49 1.59809 0.299973 0
M  V30 11118 O 1077.67 1.87451 0.198589 0
M  V30 11119 C 1074.8 3.38685 -0.0320136 0
M  V30 11120 C 1073.85 4.14732 -0.99495 0
M  V30 11121 S 1074.68 4.72879 -2.51288 0
M  V30 11122 C 1075.84 5.97676 -1.85834 0
M  V30 11123 H 1076.07 2.51342 -1.5879 0
M  V30 11124 H 1073.6 1.23802 -0.92263 0
M  V30 11125 H 1075.56 4.09034 0.346656 0
M  V30 11126 H 1074.22 3.02842 0.833407 0
M  V30 11127 H 1073.41 5.01754 -0.475331 0
M  V30 11128 H 1073.02 3.50098 -1.31559 0
M  V30 11129 H 1075.31 6.6698 -1.18927 0
M  V30 11130 H 1076.25 6.54266 -2.70817 0
M  V30 11131 H 1076.66 5.48793 -1.32237 0
M  V30 11132 N 1076.06 0.894434 1.2976 0
M  V30 11133 C 1077.31 0.513673 1.95049 0
M  V30 11134 C 1077.62 -0.943744 1.71327 0
M  V30 11135 O 1078.82 -1.43179 2.30678 0
M  V30 11136 C 1077.28 0.867751 3.49282 0
M  V30 11137 C 1076.89 2.34358 3.81812 0
M  V30 11138 C 1078.63 0.556645 4.20835 0
M  V30 11139 C 1076.54 2.63879 5.29265 0
M  V30 11140 H 1075.47 0.188375 0.73009 0
M  V30 11141 H 1078.12 1.09071 1.47566 0
M  V30 11142 H 1076.5 0.2197 3.9539 0
M  V30 11143 H 1077.68 3.03674 3.46581 0
M  V30 11144 H 1075.99 2.62318 3.23386 0
M  V30 11145 H 1078.59 0.754123 5.29355 0
M  V30 11146 H 1078.93 -0.504526 4.13231 0
M  V30 11147 H 1079.46 1.1623 3.80441 0
M  V30 11148 H 1076.2 3.68774 5.41928 0
M  V30 11149 H 1075.72 1.99182 5.65762 0
M  V30 11150 H 1077.4 2.49871 5.96803 0
M  V30 11151 N 1077.53 -1.43282 0.656365 0
M  V30 11152 C 1078.46 -2.33492 -0.0196962 0
M  V30 11153 C 1079.45 -1.49647 -0.80868 0
M  V30 11154 O 1080.63 -1.78303 -0.769529 0
M  V30 11155 C 1077.76 -3.33052 -0.984574 0
M  V30 11156 C 1076.71 -4.26908 -0.305483 0
M  V30 11157 C 1076.04 -5.16531 -1.38202 0
M  V30 11158 C 1077.34 -5.16073 0.804081 0
M  V30 11159 H 1079.03 -2.90272 0.733661 0
M  V30 11160 H 1076.58 -1.39574 0.354259 0
M  V30 11161 H 1078.53 -3.9506 -1.46647 0
M  V30 11162 H 1077.26 -2.74535 -1.76913 0
M  V30 11163 H 1075.92 -3.66268 0.155995 0
M  V30 11164 H 1075.56 -4.54351 -2.1581 0
M  V30 11165 H 1075.26 -5.80148 -0.932878 0
M  V30 11166 H 1076.79 -5.81414 -1.86522 0
M  V30 11167 H 1078.2 -5.71873 0.404212 0
M  V30 11168 H 1076.6 -5.88427 1.17789 0
M  V30 11169 H 1077.67 -4.55574 1.66073 0
M  V30 11170 N 1079.01 -0.398486 -1.52479 0
M  V30 11171 C 1079.96 0.432212 -2.26717 0
M  V30 11172 C 1080.93 1.05007 -1.28696 0
M  V30 11173 O 1082.12 1.07636 -1.57541 0
M  V30 11174 C 1079.26 1.54868 -3.08399 0
M  V30 11175 C 1078.37 0.952779 -4.21362 0
M  V30 11176 C 1077.5 2.04106 -4.90423 0
M  V30 11177 C 1076.54 1.42153 -5.95364 0
M  V30 11178 N 1075.68 2.44951 -6.57984 0
M  V30 11179 H 1080.52 -0.207303 -2.97278 0
M  V30 11180 H 1078.06 -0.114066 -1.46657 0
M  V30 11181 H 1080.01 2.20684 -3.54054 0
M  V30 11182 H 1078.64 2.15837 -2.4003 0
M  V30 11183 H 1077.7 0.183962 -3.79955 0
M  V30 11184 H 1079.01 0.460131 -4.96673 0
M  V30 11185 H 1078.16 2.77672 -5.39429 0
M  V30 11186 H 1076.9 2.56733 -4.14656 0
M  V30 11187 H 1075.91 0.671161 -5.45688 0
M  V30 11188 H 1077.13 0.903093 -6.73068 0
M  V30 11189 H 1075.08 2.9673 -5.85053 0
M  V30 11190 H 1074.99 2.00468 -7.28937 0
M  V30 11191 H 1076.26 3.18119 -7.11632 0
M  V30 11192 N 1080.49 1.57075 -0.12858 0
M  V30 11193 C 1081.77 1.87075 0.571162 0
M  V30 11194 C 1082.15 1.03141 1.84188 0
M  V30 11195 O 1081.5 0.113001 2.2822 0
M  V30 11196 C 1081.71 3.3838 0.854383 0
M  V30 11197 C 1083.05 4.07194 1.20326 0
M  V30 11198 O 1084.08 3.43454 0.944338 0
M  V30 11199 O 1082.94 5.19725 1.68963 0
M  V30 11200 H 1080.03 0.774764 0.289258 0
M  V30 11201 H 1082.58 1.68908 -0.163806 0
M  V30 11202 H 1081.35 3.91273 -0.0456925 0
M  V30 11203 H 1080.97 3.62012 1.64418 0
M  V30 11204 N 1081.97 -0.145205 1.5693 0
M  V30 11205 C 1083.2 -0.871133 1.87336 0
M  V30 11206 C 1083.61 -1.7517 0.714992 0
M  V30 11207 O 1082.95 -1.80815 -0.324304 0
M  V30 11208 C 1083.01 -1.77775 3.12468 0
M  V30 11209 C 1082.68 -1.07416 4.44197 0
M  V30 11210 C 1083.67 -0.42722 5.18142 0
M  V30 11211 C 1081.36 -1.06313 4.9092 0
M  V30 11212 C 1083.35 0.221348 6.37016 0
M  V30 11213 C 1081.04 -0.410755 6.09718 0
M  V30 11214 C 1082.04 0.230357 6.82611 0
M  V30 11215 O 1081.73 0.872389 7.99152 0
M  V30 11216 H 1081.46 -0.257174 0.62517 0
M  V30 11217 H 1084.01 -0.142159 2.04907 0
M  V30 11218 H 1082.24 -2.54771 2.9091 0
M  V30 11219 H 1083.93 -2.37579 3.29107 0
M  V30 11220 H 1084.7 -0.427536 4.83112 0
M  V30 11221 H 1080.58 -1.55156 4.34105 0
M  V30 11222 H 1084.12 0.722349 6.9385 0
M  V30 11223 H 1080.02 -0.408112 6.44209 0
M  V30 11224 H 1080.78 0.774236 8.1483 0
M  V30 11225 N 1083.45 -1.52049 -0.414609 0
M  V30 11226 C 1084.41 -1.74382 -1.4874 0
M  V30 11227 C 1085.41 -0.613701 -1.48628 0
M  V30 11228 O 1086.6 -0.88152 -1.50249 0
M  V30 11229 C 1083.73 -1.82116 -2.88178 0
M  V30 11230 H 1084.93 -2.70147 -1.30233 0
M  V30 11231 H 1082.48 -1.42382 -0.644756 0
M  V30 11232 H 1083.21 -0.882457 -3.12063 0
M  V30 11233 H 1083 -2.64268 -2.89663 0
M  V30 11234 H 1084.49 -2.01155 -3.65959 0
M  V30 11235 N 1084.93 0.6715 -1.42579 0
M  V30 11236 C 1085.87 1.78496 -1.46314 0
M  V30 11237 C 1086.84 1.63091 -0.314743 0
M  V30 11238 O 1088.03 1.83597 -0.519292 0
M  V30 11239 C 1085.17 3.16548 -1.37447 0
M  V30 11240 C 1084.28 3.43216 -2.62348 0
M  V30 11241 C 1083.42 4.71014 -2.456 0
M  V30 11242 C 1082.45 4.90728 -3.65859 0
M  V30 11243 N 1081.59 6.09769 -3.48032 0
M  V30 11244 H 1086.43 1.74638 -2.41466 0
M  V30 11245 H 1083.97 0.852491 -1.19879 0
M  V30 11246 H 1085.93 3.96329 -1.30303 0
M  V30 11247 H 1084.56 3.19522 -0.458891 0
M  V30 11248 H 1083.61 2.57664 -2.79846 0
M  V30 11249 H 1084.92 3.53675 -3.51732 0
M  V30 11250 H 1084.07 5.58892 -2.3606 0
M  V30 11251 H 1082.81 4.62843 -1.53712 0
M  V30 11252 H 1081.82 4.01291 -3.75827 0
M  V30 11253 H 1083.04 5.00741 -4.58732 0
M  V30 11254 H 1080.99 6.02765 -2.58864 0
M  V30 11255 H 1080.91 6.21104 -4.31005 0
M  V30 11256 H 1082.17 7.00317 -3.42311 0
M  V30 11257 N 1086.4 1.28806 0.908124 0
M  V30 11258 C 1087.33 1.15758 2.02787 0
M  V30 11259 C 1088.31 0.053911 1.70015 0
M  V30 11260 O 1089.5 0.231901 1.9281 0
M  V30 11261 C 1086.63 0.824526 3.37371 0
M  V30 11262 C 1085.58 1.88359 3.84324 0
M  V30 11263 C 1084.91 1.40404 5.15937 0
M  V30 11264 C 1086.21 3.29108 4.05568 0
M  V30 11265 H 1087.9 2.09431 2.13961 0
M  V30 11266 H 1085.45 1.00831 1.02806 0
M  V30 11267 H 1087.4 0.71999 4.15204 0
M  V30 11268 H 1086.13 -0.147902 3.26265 0
M  V30 11269 H 1084.79 1.97736 3.087 0
M  V30 11270 H 1084.43 0.420515 5.01239 0
M  V30 11271 H 1084.13 2.11224 5.48323 0
M  V30 11272 H 1085.66 1.31283 5.9632 0
M  V30 11273 H 1087.07 3.2262 4.73909 0
M  V30 11274 H 1085.47 3.97812 4.49294 0
M  V30 11275 H 1086.54 3.72709 3.10187 0
M  V30 11276 O 1087.92 -1.04325 1.23282 0
M  V30 11277 H 1088.61 -1.65689 1.00334 0
M  V30 END ATOM
M  V30 BEGIN BOND
M  V30 END BOND
M  V30 END CTAB
M  END
$$$$
