drugbank_target|P51681 C-C chemokine receptor type 5 (DB04835; DB05501; DB05906; DB05941; DB06497; DB06652; DB12698; DB12960)
 OpenBabel12092119433D

  0  0  0     0  0            999 V3000
M  V30 BEGIN CTAB
M  V30 COUNTS 5789 5865 0 0 0
M  V30 BEGIN ATOM
M  V30 1 H -0.908 1.98254 -0.117106 0
M  V30 2 N 0 1.576 0 0
M  V30 3 C 0.933 2.03868 1.02534 0
M  V30 4 C 1.911 0.928543 1.3348 0
M  V30 5 O 3.095 1.19667 1.45644 0
M  V30 6 C 0.222 2.43627 2.35294 0
M  V30 7 C -0.732 3.65373 2.2001 0
M  V30 8 S 0.101 5.13292 1.52614 0
M  V30 9 C 1.257 5.56322 2.86805 0
M  V30 10 H 1.49 2.90518 0.631377 0
M  V30 11 H -0.977 1.52953 0.210867 0
M  V30 12 H 0.981 2.67203 3.11629 0
M  V30 13 H -0.358 1.57376 2.7183 0
M  V30 14 H -1.165 3.90944 3.18086 0
M  V30 15 H -1.563 3.418 1.51819 0
M  V30 16 H 0.729 5.58782 3.83104 0
M  V30 17 H 1.672 6.56266 2.65933 0
M  V30 18 H 2.08 4.83886 2.90714 0
M  V30 19 N 1.4781 -0.272755 1.55222 0
M  V30 20 C 2.7551 -1.02562 1.66555 0
M  V30 21 C 3.1351 -2.04282 0.532189 0
M  V30 22 O 2.4831 -2.23662 -0.467717 0
M  V30 23 C 2.6931 -1.6822 3.05782 0
M  V30 24 C 4.0411 -2.19373 3.63539 0
M  V30 25 O 5.0651 -1.78206 3.08417 0
M  V30 26 O 3.9241 -2.94883 4.60115 0
M  V30 27 H 1.0181 -0.475755 0.676451 0
M  V30 28 H 3.5641 -0.268593 1.67561 0
M  V30 29 H 2.3361 -0.945112 3.79715 0
M  V30 30 H 1.9591 -2.50609 3.08676 0
M  V30 31 N 2.9562 -1.48159 -0.537278 0
M  V30 32 C 4.1862 -1.59223 -1.3165 0
M  V30 33 C 4.5942 -0.248849 -1.87556 0
M  V30 34 O 3.9372 0.770949 -1.6674 0
M  V30 35 C 3.9992 -2.57365 -2.51005 0
M  V30 36 C 3.6632 -4.02603 -2.16239 0
M  V30 37 C 4.6602 -4.90503 -1.72344 0
M  V30 38 C 2.3452 -4.48088 -2.26986 0
M  V30 39 C 4.3392 -6.21913 -1.39651 0
M  V30 40 C 2.0262 -5.7952 -1.93906 0
M  V30 41 C 3.0242 -6.66255 -1.50309 0
M  V30 42 O 2.7122 -7.95243 -1.17659 0
M  V30 43 H 2.4442 -0.539831 -0.406889 0
M  V30 44 H 4.9982 -1.94655 -0.655641 0
M  V30 45 H 3.2282 -2.1704 -3.20048 0
M  V30 46 H 4.9172 -2.58342 -3.13072 0
M  V30 47 H 5.6832 -4.56604 -1.63517 0
M  V30 48 H 1.5622 -3.80769 -2.59877 0
M  V30 49 H 5.1062 -6.89569 -1.0555 0
M  V30 50 H 1.0032 -6.12957 -2.02371 0
M  V30 51 H 1.7712 -8.0793 -1.31119 0
M  V30 52 N 4.4343 0.785586 -1.36625 0
M  V30 53 C 5.3663 1.90711 -1.2713 0
M  V30 54 C 6.3793 1.61688 -0.189986 0
M  V30 55 O 7.5683 1.72864 -0.445014 0
M  V30 56 C 4.6683 3.25611 -0.939713 0
M  V30 57 C 3.8413 3.82385 -2.12369 0
M  V30 58 C 2.9003 4.95732 -1.76456 0
M  V30 59 O 1.9263 5.12047 -2.48589 0
M  V30 60 N 3.1283 5.76258 -0.700492 0
M  V30 61 H 5.8933 1.99376 -2.23762 0
M  V30 62 H 3.4543 0.964041 -1.30069 0
M  V30 63 H 5.4463 3.98937 -0.680554 0
M  V30 64 H 4.0163 3.12538 -0.0624074 0
M  V30 65 H 3.2363 3.01001 -2.54543 0
M  V30 66 H 4.5243 4.17047 -2.9146 0
M  V30 67 H 3.9223 5.65609 -0.101624 0
M  V30 68 H 2.4793 6.4987 -0.501165 0
M  V30 69 N 5.9124 1.20967 1.01018 0
M  V30 70 C 7.1584 1.02526 1.74975 0
M  V30 71 C 7.4914 -0.4408 1.89131 0
M  V30 72 O 6.7664 -1.32718 1.42184 0
M  V30 73 C 7.0494 1.71699 3.1653 0
M  V30 74 C 6.9024 3.25791 3.10129 0
M  V30 75 C 8.2214 1.45531 4.15342 0
M  V30 76 H 5.3404 0.373863 0.635134 0
M  V30 77 H 7.9824 1.49071 1.17805 0
M  V30 78 H 6.1324 1.32128 3.65341 0
M  V30 79 H 7.8044 3.74697 2.69072 0
M  V30 80 H 6.0474 3.56363 2.47362 0
M  V30 81 H 6.7184 3.69353 4.10222 0
M  V30 82 H 9.1944 1.79872 3.75213 0
M  V30 83 H 8.0704 1.96453 5.1254 0
M  V30 84 H 8.3314 0.384237 4.40427 0
M  V30 85 N 7.3905 -1.2043 1.01659 0
M  V30 86 C 8.6155 -1.94318 0.724942 0
M  V30 87 C 9.0405 -1.74266 -0.708034 0
M  V30 88 O 8.3985 -1.03694 -1.48719 0
M  V30 89 C 8.4465 -3.44486 1.06591 0
M  V30 90 O 7.5505 -4.12017 0.177599 0
M  V30 91 H 6.8915 -0.60708 0.26898 0
M  V30 92 H 9.4215 -1.52861 1.35995 0
M  V30 93 H 9.4315 -3.95106 1.01762 0
M  V30 94 H 8.1065 -3.58404 2.10997 0
M  V30 95 H 6.6835 -3.71821 0.283421 0
M  V30 96 N 8.8686 -0.792821 -1.36206 0
M  V30 97 C 10.0936 -0.377701 -2.03932 0
M  V30 98 C 10.5186 0.998947 -1.59382 0
M  V30 99 O 9.8766 1.64421 -0.763903 0
M  V30 100 C 9.9246 -0.453635 -3.57735 0
M  V30 101 O 9.0286 0.538151 -4.08874 0
M  V30 102 H 8.3696 -0.159855 -0.644471 0
M  V30 103 H 10.8996 -1.07488 -1.7409 0
M  V30 104 H 10.9096 -0.318464 -4.06755 0
M  V30 105 H 9.5846 -1.45784 -3.89512 0
M  V30 106 H 8.1616 0.364359 -3.71116 0
M  V30 107 N 10.3467 1.47872 -0.545128 0
M  V30 108 C 11.7577 1.86384 -0.108581 0
M  V30 109 C 12.1087 1.45309 1.31832 0
M  V30 110 O 11.2337 0.850641 1.9898 0
M  V30 111 C 11.8287 3.38265 -0.190274 0
M  V30 112 C 10.3877 3.75914 0.191164 0
M  V30 113 C 9.5347 2.71926 -0.543273 0
M  V30 114 H 12.4857 1.39561 -0.755537 0
M  V30 115 H 12.5067 3.75831 0.594217 0
M  V30 116 H 12.0187 3.6813 -1.2289 0
M  V30 117 H 10.1197 3.51665 1.23136 0
M  V30 118 H 10.2327 4.78836 -0.158987 0
M  V30 119 H 8.5967 2.54697 0.0122495 0
M  V30 120 H 9.3797 3.04634 -1.58282 0
M  V30 121 N 11.8248 0.280983 1.55075 0
M  V30 122 C 13.0738 -0.334784 1.98902 0
M  V30 123 C 13.3868 -1.56534 1.17288 0
M  V30 124 O 14.5928 -2.25443 1.51287 0
M  V30 125 C 13.0488 -0.646994 3.54037 0
M  V30 126 C 12.6568 0.564085 4.44435 0
M  V30 127 C 14.4008 -1.22506 4.06439 0
M  V30 128 C 12.3078 0.226137 5.90967 0
M  V30 129 H 11.2378 -0.128866 0.742906 0
M  V30 130 H 13.8888 0.386556 1.79382 0
M  V30 131 H 12.2708 -1.42739 3.6938 0
M  V30 132 H 13.4448 1.34082 4.40861 0
M  V30 133 H 11.7598 1.0594 4.02698 0
M  V30 134 H 14.3568 -1.49182 5.13468 0
M  V30 135 H 14.6998 -2.16085 3.55827 0
M  V30 136 H 15.2328 -0.50682 3.94558 0
M  V30 137 H 11.9718 1.12996 6.45687 0
M  V30 138 H 11.4918 -0.513717 5.97596 0
M  V30 139 H 13.1708 -0.179539 6.46751 0
M  V30 140 N 13.3029 -1.57598 0.00835791 0
M  V30 141 C 14.5329 -1.94931 -0.684496 0
M  V30 142 C 14.9409 -0.882233 -1.67372 0
M  V30 143 O 14.2839 0.146621 -1.83114 0
M  V30 144 C 14.3459 -3.283 -1.4649 0
M  V30 145 C 14.0099 -4.52548 -0.63634 0
M  V30 146 C 15.0069 -5.19839 0.0795586 0
M  V30 147 C 12.6919 -4.98942 -0.579849 0
M  V30 148 C 14.6859 -6.3183 0.840843 0
M  V30 149 C 12.3729 -6.10819 0.185155 0
M  V30 150 C 13.3709 -6.77121 0.894227 0
M  V30 151 O 13.0589 -7.86853 1.64673 0
M  V30 152 H 12.7909 -0.647249 -0.19505 0
M  V30 153 H 15.3449 -2.05318 0.0581272 0
M  V30 154 H 13.5749 -3.14345 -2.2522 0
M  V30 155 H 15.2639 -3.50685 -2.04389 0
M  V30 156 H 16.0299 -4.84979 0.0451202 0
M  V30 157 H 11.9089 -4.47155 -1.1213 0
M  V30 158 H 15.4529 -6.83513 1.39483 0
M  V30 159 H 11.3499 -6.4512 0.221384 0
M  V30 160 H 12.1179 -8.03412 1.56432 0
M  V30 161 N 14.781 0.264519 -1.55364 0
M  V30 162 C 16.058 1.01677 -1.67096 0
M  V30 163 C 16.438 2.03996 -0.543015 0
M  V30 164 O 15.786 2.23907 0.45585 0
M  V30 165 C 15.996 1.66596 -3.0667 0
M  V30 166 C 17.344 2.17442 -3.64697 0
M  V30 167 O 18.368 1.76568 -3.09358 0
M  V30 168 O 17.227 2.92439 -4.61673 0
M  V30 169 H 14.321 0.472161 -0.678965 0
M  V30 170 H 16.867 0.259703 -1.67701 0
M  V30 171 H 15.639 0.924962 -3.80211 0
M  V30 172 H 15.262 2.48968 -3.10001 0
M  V30 173 N 16.2591 1.48442 0.529413 0
M  V30 174 C 17.5081 1.55742 1.28169 0
M  V30 175 C 17.8211 0.236511 1.94165 0
M  V30 176 O 19.0271 0.187761 2.7085 0
M  V30 177 C 17.4831 2.74667 2.32564 0
M  V30 178 C 17.0911 4.13402 1.72636 0
M  V30 179 C 18.8351 2.9128 3.08798 0
M  V30 180 C 16.7421 5.23587 2.74975 0
M  V30 181 H 15.6721 0.579796 0.48203 0
M  V30 182 H 18.3231 1.74776 0.559056 0
M  V30 183 H 16.7051 2.49067 3.07866 0
M  V30 184 H 17.8791 4.49022 1.03519 0
M  V30 185 H 16.1941 4.0191 1.08892 0
M  V30 186 H 18.7911 3.70767 3.85274 0
M  V30 187 H 19.1341 2.00757 3.64695 0
M  V30 188 H 19.6671 3.16782 2.40611 0
M  V30 189 H 16.4061 6.16076 2.23897 0
M  V30 190 H 15.9261 4.92454 3.42417 0
M  V30 191 H 17.6051 5.51724 3.37949 0
M  V30 192 N 17.7372 -0.778329 1.37039 0
M  V30 193 C 18.6852 -1.91278 1.32345 0
M  V30 194 C 19.6792 -1.68051 0.213331 0
M  V30 195 O 20.8852 -1.75922 0.38098 0
M  V30 196 H 17.2602 -0.628909 0.412283 0
M  V30 197 H 19.2312 -1.92355 2.28127 0
M  V30 198 C 17.9802 -3.28455 1.14073 0
M  V30 199 H 17.3032 -3.46901 1.98746 0
M  V30 200 H 18.7432 -4.08152 1.14837 0
M  V30 201 C 17.2022 -3.36548 -0.154015 0
M  V30 202 O 17.7322 -3.85186 -1.13993 0
M  V30 203 N 15.9382 -2.89894 -0.202475 0
M  V30 204 H 15.4852 -2.50504 0.600476 0
M  V30 205 H 15.4432 -2.9569 -1.06841 0
M  V30 206 N 19.2153 -1.21501 -1.00376 0
M  V30 207 C 20.4453 -1.05746 -1.77486 0
M  V30 208 C 20.8533 0.395655 -1.85017 0
M  V30 209 O 20.1963 1.28626 -1.31152 0
M  V30 210 C 20.2583 -1.58092 -3.22873 0
M  V30 211 C 19.9223 -3.06568 -3.38917 0
M  V30 212 C 20.9193 -4.04106 -3.271 0
M  V30 213 C 18.6043 -3.45799 -3.64319 0
M  V30 214 C 20.5983 -5.38862 -3.40451 0
M  V30 215 C 18.2853 -4.80707 -3.77311 0
M  V30 216 C 19.2833 -5.77047 -3.65384 0
M  V30 217 O 18.9713 -7.09507 -3.77961 0
M  V30 218 H 18.7033 -0.371778 -0.564586 0
M  V30 219 H 21.2573 -1.61319 -1.27143 0
M  V30 220 H 19.4873 -0.969163 -3.74358 0
M  V30 221 H 21.1763 -1.38162 -3.81662 0
M  V30 222 H 21.9423 -3.75141 -3.07399 0
M  V30 223 H 17.8213 -2.71344 -3.72684 0
M  V30 224 H 21.3653 -6.14041 -3.31058 0
M  V30 225 H 17.2623 -5.09357 -3.96517 0
M  V30 226 H 18.0303 -7.16935 -3.94901 0
M  V30 227 N 20.6934 1.19889 -1.02296 0
M  V30 228 C 21.9234 1.93109 -0.734332 0
M  V30 229 C 22.3314 1.75377 0.709889 0
M  V30 230 O 21.6744 1.06912 1.49384 0
M  V30 231 C 21.7364 3.45362 -0.99827 0
M  V30 232 C 21.4004 3.8686 -2.43287 0
M  V30 233 C 22.3974 3.92102 -3.41397 0
M  V30 234 C 20.0824 4.18668 -2.77529 0
M  V30 235 C 22.0764 4.28573 -4.71809 0
M  V30 236 C 19.7634 4.54813 -4.08153 0
M  V30 237 C 20.7614 4.59739 -5.05103 0
M  V30 238 O 20.4494 4.95051 -6.33388 0
M  V30 239 H 20.1814 0.620409 -0.268456 0
M  V30 240 H 22.7354 1.53144 -1.3688 0
M  V30 241 H 20.9654 3.85482 -0.306645 0
M  V30 242 H 22.6544 3.99814 -0.700234 0
M  V30 243 H 23.4204 3.67685 -3.1628 0
M  V30 244 H 19.2994 4.14021 -2.0275 0
M  V30 245 H 22.8434 4.32333 -5.4748 0
M  V30 246 H 18.7404 4.78687 -4.33047 0
M  V30 247 H 19.5084 5.1302 -6.37772 0
M  V30 248 N 22.1715 0.800033 1.35784 0
M  V30 249 C 23.3995 0.389606 2.03199 0
M  V30 250 C 23.8145 -0.997375 1.60306 0
M  V30 251 O 23.1715 -1.64154 0.797481 0
M  V30 252 C 23.2225 0.455855 3.58614 0
M  V30 253 O 22.9435 1.78815 3.99946 0
M  V30 254 C 24.4445 0.0374032 4.43284 0
M  V30 255 H 21.6645 0.159132 0.651857 0
M  V30 256 H 24.2085 1.08183 1.73541 0
M  V30 257 H 22.3635 -0.188057 3.86943 0
M  V30 258 H 22.7775 1.74636 4.94573 0
M  V30 259 H 24.2515 0.134882 5.51835 0
M  V30 260 H 24.7285 -1.01651 4.27275 0
M  V30 261 H 25.3345 0.654215 4.20238 0
M  V30 262 N 23.6496 -1.47581 0.552962 0
M  V30 263 C 24.8746 -2.07378 0.0300593 0
M  V30 264 C 25.2996 -1.40355 -1.25229 0
M  V30 265 O 24.6576 -0.477099 -1.7491 0
M  V30 266 C 24.7056 -3.60274 -0.153231 0
M  V30 267 O 23.8096 -3.94041 -1.21678 0
M  V30 268 H 23.1506 -0.662158 0.0494182 0
M  V30 269 H 25.6806 -1.89662 0.767434 0
M  V30 270 H 25.6906 -4.0633 -0.368761 0
M  V30 271 H 24.3656 -4.08455 0.783397 0
M  V30 272 H 22.9426 -3.59735 -0.982079 0
M  V30 273 N 25.1277 -0.289203 -1.54924 0
M  V30 274 C 26.0377 0.601863 -2.26748 0
M  V30 275 C 27.0537 1.15834 -1.2984 0
M  V30 276 O 28.2297 1.18564 -1.62802 0
M  V30 277 C 25.2947 1.76299 -2.98529 0
M  V30 278 C 24.3557 1.24178 -4.10948 0
M  V30 279 C 23.5887 2.34757 -4.79296 0
M  V30 280 O 23.8117 3.54411 -4.46933 0
M  V30 281 O 22.7457 2.02115 -5.66951 0
M  V30 282 H 26.5717 0.0195879 -3.03694 0
M  V30 283 H 24.1567 -0.0560868 -1.49295 0
M  V30 284 H 26.0387 2.43973 -3.43592 0
M  V30 285 H 24.7137 2.33209 -2.24488 0
M  V30 286 H 23.6207 0.531104 -3.70311 0
M  V30 287 H 24.9537 0.718252 -4.86931 0
M  V30 288 N 26.6058 1.57591 -0.0167156 0
M  V30 289 C 28.0168 1.79201 0.523834 0
M  V30 290 C 28.3678 0.925796 1.72984 0
M  V30 291 O 27.4928 0.132792 2.15992 0
M  V30 292 C 28.0878 3.25 0.957091 0
M  V30 293 C 26.6468 3.47648 1.44283 0
M  V30 294 C 25.7938 2.74374 0.401757 0
M  V30 295 H 28.7448 1.56831 -0.242816 0
M  V30 296 H 28.7658 3.34031 1.82219 0
M  V30 297 H 28.2778 3.88019 0.0791415 0
M  V30 298 H 26.3788 2.89866 2.34113 0
M  V30 299 H 26.4918 4.56352 1.45877 0
M  V30 300 H 24.8558 2.39485 0.867121 0
M  V30 301 H 25.6388 3.40102 -0.467513 0
M  V30 302 N 28.0839 -0.256276 1.55502 0
M  V30 303 C 29.3239 -0.993081 1.78654 0
M  V30 304 C 29.6879 -1.8288 0.584724 0
M  V30 305 O 30.8889 -2.59665 0.694822 0
M  V30 306 C 29.1599 -1.83856 3.06483 0
M  V30 307 S 30.7189 -2.63573 3.5082 0
M  V30 308 H 27.5369 -0.334199 0.62756 0
M  V30 309 H 30.1389 -0.26184 1.93739 0
M  V30 310 H 28.8429 -1.21414 3.92029 0
M  V30 311 H 28.3739 -2.61271 2.94111 0
M  V30 312 H 30.3889 -3.86312 3.11412 0
M  V30 313 N 29.562 -1.4872 -0.521534 0
M  V30 314 C 30.494 -1.59968 -1.64143 0
M  V30 315 C 31.507 -0.483463 -1.55456 0
M  V30 316 O 32.696 -0.75467 -1.61762 0
M  V30 317 C 29.796 -1.52127 -3.02838 0
M  V30 318 C 28.969 -2.78932 -3.36921 0
M  V30 319 C 28.028 -2.64428 -4.54933 0
M  V30 320 O 27.054 -3.38331 -4.57735 0
M  V30 321 N 28.256 -1.74606 -5.53618 0
M  V30 322 H 31.021 -2.56548 -1.54929 0
M  V30 323 H 28.582 -1.45551 -0.708988 0
M  V30 324 H 30.574 -1.40106 -3.79674 0
M  V30 325 H 29.144 -0.634868 -3.06085 0
M  V30 326 H 28.364 -3.05455 -2.4918 0
M  V30 327 H 29.652 -3.63041 -3.56481 0
M  V30 328 H 29.05 -1.13782 -5.54139 0
M  V30 329 H 27.607 -1.6852 -6.29638 0
M  V30 330 N 31.0401 0.771051 -1.3745 0
M  V30 331 C 31.9871 1.88435 -1.3327 0
M  V30 332 C 32.9571 1.64914 -0.198136 0
M  V30 333 O 34.1421 1.86821 -0.387606 0
M  V30 334 C 31.2821 3.25509 -1.14622 0
M  V30 335 C 30.3951 3.60979 -2.37314 0
M  V30 336 C 29.5301 4.87265 -2.11533 0
M  V30 337 C 28.5691 5.15469 -3.30088 0
M  V30 338 N 27.7061 6.32944 -3.03853 0
M  V30 339 H 32.5461 1.91344 -2.28455 0
M  V30 340 H 30.0831 0.935466 -1.13523 0
M  V30 341 H 32.0411 4.04582 -1.01831 0
M  V30 342 H 30.6711 3.21974 -0.230837 0
M  V30 343 H 29.7231 2.76885 -2.60842 0
M  V30 344 H 31.0351 3.77759 -3.25729 0
M  V30 345 H 30.1891 5.74244 -1.95777 0
M  V30 346 H 28.9281 4.7259 -1.20457 0
M  V30 347 H 27.9331 4.26966 -3.46382 0
M  V30 348 H 29.1581 5.32052 -4.22016 0
M  V30 349 H 27.1041 6.19625 -2.15407 0
M  V30 350 H 27.0211 6.50143 -3.85812 0
M  V30 351 H 28.2891 7.22857 -2.91716 0
M  V30 352 N 32.5182 1.22032 0.997298 0
M  V30 353 C 33.7672 1.03637 1.73038 0
M  V30 354 C 34.0802 -0.429475 1.90827 0
M  V30 355 O 35.2862 -0.732995 2.61418 0
M  V30 356 C 33.7422 1.80582 3.11317 0
M  V30 357 C 33.3502 3.31387 3.01474 0
M  V30 358 C 35.0942 1.70621 3.88701 0
M  V30 359 C 33.0012 4.00791 4.3488 0
M  V30 360 H 31.9312 0.384179 0.648785 0
M  V30 361 H 34.5822 1.4584 1.11368 0
M  V30 362 H 32.9642 1.31175 3.73643 0
M  V30 363 H 34.1382 3.88155 2.4834 0
M  V30 364 H 32.4532 3.41976 2.37575 0
M  V30 365 H 35.0502 2.19799 4.87434 0
M  V30 366 H 35.3932 0.665823 4.10941 0
M  V30 367 H 35.9262 2.17547 3.33044 0
M  V30 368 H 32.6652 5.05064 4.1784 0
M  V30 369 H 32.1852 3.48811 4.87945 0
M  V30 370 H 33.8642 4.06139 5.03647 0
M  V30 371 N 33.9963 -1.19345 1.0293 0
M  V30 372 C 34.9443 -2.24621 0.604001 0
M  V30 373 C 35.9383 -1.65452 -0.363587 0
M  V30 374 O 37.1443 -1.78497 -0.23212 0
M  V30 375 H 33.5193 -0.730858 0.177061 0
M  V30 376 H 35.4903 -2.5781 1.50255 0
M  V30 377 C 34.2393 -3.47688 -0.0289127 0
M  V30 378 H 33.5623 -3.93505 0.706651 0
M  V30 379 H 35.0023 -4.23011 -0.289432 0
M  V30 380 C 33.4613 -3.11817 -1.2756 0
M  V30 381 O 33.9913 -3.2451 -2.36762 0
M  V30 382 N 32.1973 -2.66246 -1.16453 0
M  V30 383 H 31.7443 -2.56118 -0.275914 0
M  V30 384 H 31.7023 -2.42617 -1.99961 0
M  V30 385 N 35.4744 -0.807222 -1.35358 0
M  V30 386 C 36.7204 -0.388463 -1.99045 0
M  V30 387 C 37.0534 1.04184 -1.63888 0
M  V30 388 O 36.3284 1.72292 -0.902535 0
M  V30 389 C 36.6114 -0.572783 -3.55515 0
M  V30 390 C 36.4644 -2.04807 -4.00468 0
M  V30 391 C 37.7834 0.00114064 -4.401 0
M  V30 392 H 34.9024 -0.142619 -0.723069 0
M  V30 393 H 37.5444 -1.01687 -1.60498 0
M  V30 394 H 35.6944 -0.0378425 -3.88482 0
M  V30 395 H 37.3664 -2.64544 -3.77908 0
M  V30 396 H 35.6094 -2.54427 -3.51353 0
M  V30 397 H 36.2804 -2.12792 -5.09337 0
M  V30 398 H 38.7564 -0.455716 -4.13597 0
M  V30 399 H 37.6324 -0.157737 -5.48673 0
M  V30 400 H 37.8934 1.09488 -4.28328 0
M  V30 401 N 36.9525 1.47285 -0.560781 0
M  V30 402 C 37.8995 2.30058 0.18491 0
M  V30 403 C 38.8695 1.39281 0.904986 0
M  V30 404 O 40.0545 1.68241 0.899979 0
M  V30 405 C 37.1945 3.23317 1.20666 0
M  V30 406 C 36.3075 4.29186 0.492285 0
M  V30 407 C 35.4425 5.09592 1.49964 0
M  V30 408 C 34.4815 6.07232 0.770439 0
M  V30 409 N 33.6185 6.80584 1.72479 0
M  V30 410 H 38.4585 2.93302 -0.527048 0
M  V30 411 H 35.9955 1.44568 -0.271738 0
M  V30 412 H 37.9535 3.75811 1.81168 0
M  V30 413 H 36.5835 2.61929 1.88661 0
M  V30 414 H 35.6355 3.7972 -0.227333 0
M  V30 415 H 36.9475 4.98738 -0.0787929 0
M  V30 416 H 36.1015 5.66254 2.17809 0
M  V30 417 H 34.8405 4.3995 2.10464 0
M  V30 418 H 33.8455 5.49745 0.0780846 0
M  V30 419 H 35.0705 6.78884 0.171134 0
M  V30 420 H 33.0165 6.1367 2.3183 0
M  V30 421 H 32.9335 7.46319 1.20596 0
M  V30 422 H 34.2015 7.41818 2.39428 0
M  V30 423 N 38.4306 0.297415 1.54768 0
M  V30 424 C 39.3626 -0.613881 2.20826 0
M  V30 425 C 40.3756 -1.10032 1.19987 0
M  V30 426 O 41.5646 -1.01839 1.46598 0
M  V30 427 C 38.6646 -1.852 2.83821 0
M  V30 428 C 37.8376 -1.50865 4.10559 0
M  V30 429 C 36.8966 -2.60154 4.57391 0
M  V30 430 O 35.9226 -2.25398 5.2267 0
M  V30 431 N 37.1246 -3.90629 4.29406 0
M  V30 432 H 39.8896 -0.048389 2.99661 0
M  V30 433 H 37.4506 0.11946 1.61459 0
M  V30 434 H 39.4426 -2.57652 3.12086 0
M  V30 435 H 38.0126 -2.32597 2.08847 0
M  V30 436 H 37.2326 -0.616925 3.89343 0
M  V30 437 H 38.5206 -1.25458 4.9309 0
M  V30 438 H 37.9186 -4.21677 3.77101 0
M  V30 439 H 36.4756 -4.59391 4.62388 0
M  V30 440 N 39.9087 -1.5758 0.0250728 0
M  V30 441 C 41.1577 -1.90811 -0.653767 0
M  V30 442 C 41.4707 -0.90273 -1.73523 0
M  V30 443 O 42.6767 -1.12614 -2.47043 0
M  V30 444 C 41.1327 -3.38804 -1.21409 0
M  V30 445 C 40.7407 -4.47692 -0.166126 0
M  V30 446 C 42.4847 -3.81108 -1.86967 0
M  V30 447 C 40.3917 -5.86779 -0.737856 0
M  V30 448 H 39.3217 -0.712063 -0.247956 0
M  V30 449 H 41.9727 -1.83281 0.0897137 0
M  V30 450 H 40.3547 -3.41252 -2.00905 0
M  V30 451 H 41.5287 -4.56797 0.606079 0
M  V30 452 H 39.8437 -4.14565 0.390466 0
M  V30 453 H 42.4407 -4.82375 -2.30692 0
M  V30 454 H 42.7837 -3.15953 -2.71071 0
M  V30 455 H 43.3167 -3.81065 -1.14167 0
M  V30 456 H 40.0557 -6.55468 0.0649577 0
M  V30 457 H 39.5757 -5.81288 -1.47864 0
M  V30 458 H 41.2547 -6.35223 -1.22884 0
M  V30 459 N 41.3868 0.248026 -1.55636 0
M  V30 460 C 42.3498 1.29044 -1.89421 0
M  V30 461 C 43.3498 1.41134 -0.770581 0
M  V30 462 O 44.5398 1.39854 -1.03858 0
M  V30 463 C 41.6718 2.66831 -2.12165 0
M  V30 464 H 42.8648 1.00305 -2.82629 0
M  V30 465 H 40.4178 0.487265 -1.48511 0
M  V30 466 H 41.1528 3.00711 -1.21422 0
M  V30 467 H 40.9378 2.59438 -2.93997 0
M  V30 468 H 42.4278 3.42103 -2.3949 0
M  V30 469 N 42.8649 1.48995 0.513639 0
M  V30 470 C 43.8279 1.64229 1.59879 0
M  V30 471 C 44.8279 0.514696 1.5234 0
M  V30 472 O 46.0179 0.78087 1.55718 0
M  V30 473 C 43.1499 1.62783 2.99524 0
M  V30 474 H 44.3429 2.61004 1.47705 0
M  V30 475 H 41.8959 1.37837 0.736936 0
M  V30 476 H 42.6309 0.675461 3.17188 0
M  V30 477 H 42.4159 2.4466 3.06404 0
M  V30 478 H 43.9059 1.76669 3.78388 0
M  V30 479 N 44.343 -0.763751 1.37857 0
M  V30 480 C 45.759 -1.06542 1.18832 0
M  V30 481 C 45.959 -2.01478 0.0299722 0
M  V30 482 O 45.015 -2.4458 -0.627447 0
M  V30 483 C 46.328 -1.65525 2.51042 0
M  V30 484 C 47.876 -1.77745 2.57635 0
M  V30 485 C 48.351 -2.4014 3.89996 0
M  V30 486 N 49.842 -2.47582 3.91481 0
M  V30 487 C 50.577 -2.96732 4.9065 0
M  V30 488 N 50.073 -3.45993 6.00217 0
M  V30 489 N 51.866 -2.95679 4.78048 0
M  V30 490 H 44.017 -0.133556 2.1198 0
M  V30 491 H 46.28 -0.121879 0.940133 0
M  V30 492 H 45.986 -1.03236 3.36207 0
M  V30 493 H 45.86 -2.64719 2.68707 0
M  V30 494 H 48.247 -2.39164 1.72872 0
M  V30 495 H 48.328 -0.772836 2.43846 0
M  V30 496 H 47.972 -1.79358 4.75177 0
M  V30 497 H 47.902 -3.41223 4.01092 0
M  V30 498 H 50.393 -2.1273 3.12337 0
M  V30 499 H 50.706 -3.81922 6.7183 0
M  V30 500 H 49.051 -3.44077 6.03851 0
M  V30 501 H 52.242 -2.56499 3.91568 0
M  V30 502 H 52.415 -3.33672 5.55488 0
M  V30 503 N 45.8211 -1.22559 -0.990812 0
M  V30 504 C 46.7511 -1.0218 -2.09956 0
M  V30 505 C 47.7321 0.0579394 -1.70001 0
M  V30 506 O 48.9171 -0.104684 -1.93918 0
M  V30 507 C 46.0471 -0.601023 -3.4206 0
M  V30 508 C 45.0011 -1.62694 -3.95872 0
M  V30 509 C 44.3271 -1.06193 -5.24049 0
M  V30 510 C 45.6271 -3.01743 -4.2632 0
M  V30 511 H 47.3211 -1.94916 -2.27262 0
M  V30 512 H 44.8671 -0.938566 -1.09211 0
M  V30 513 H 46.8201 -0.445561 -4.19038 0
M  V30 514 H 45.5441 0.362005 -3.24588 0
M  V30 515 H 44.2031 -1.77021 -3.21028 0
M  V30 516 H 43.8511 -0.0901903 -5.02919 0
M  V30 517 H 43.5511 -1.74732 -5.61019 0
M  V30 518 H 45.0751 -0.918092 -6.03658 0
M  V30 519 H 46.4891 -2.90777 -4.94087 0
M  V30 520 H 44.8861 -3.67425 -4.74467 0
M  V30 521 H 45.9561 -3.51518 -3.34011 0
M  V30 522 N 47.2992 1.18797 -1.03562 0
M  V30 523 C 48.2292 2.24472 -0.643019 0
M  V30 524 C 49.2102 1.66433 0.351283 0
M  V30 525 O 50.3952 1.92803 0.232505 0
M  V30 526 C 47.5252 3.473 4.24935e-05 0
M  V30 527 C 46.4792 4.18055 -0.917257 0
M  V30 528 C 45.8052 5.34519 -0.138941 0
M  V30 529 C 47.1052 4.72109 -2.23407 0
M  V30 530 H 48.7992 2.57566 -1.52643 0
M  V30 531 H 46.3452 1.23806 -0.735394 0
M  V30 532 H 48.2982 4.20426 0.286383 0
M  V30 533 H 47.0222 3.13424 0.918299 0
M  V30 534 H 45.6812 3.46821 -1.1879 0
M  V30 535 H 45.3292 4.96891 0.781562 0
M  V30 536 H 45.0292 5.82794 -0.750005 0
M  V30 537 H 46.5532 6.10438 0.1405 0
M  V30 538 H 47.9672 5.36955 -2.00879 0
M  V30 539 H 46.3642 5.30897 -2.79765 0
M  V30 540 H 47.4342 3.89807 -2.88407 0
M  V30 541 N 48.7773 0.814389 1.34928 0
M  V30 542 C 50.1883 0.458364 1.80986 0
M  V30 543 C 50.5393 -1.02042 1.67577 0
M  V30 544 O 49.6643 -1.79352 1.21086 0
M  V30 545 C 50.2593 0.825212 3.28597 0
M  V30 546 C 48.8183 0.521677 3.72767 0
M  V30 547 C 47.9653 1.04668 2.56788 0
M  V30 548 H 50.9163 1.00533 1.22795 0
M  V30 549 H 50.9373 0.12571 3.80292 0
M  V30 550 H 50.4493 1.90154 3.38324 0
M  V30 551 H 48.5503 -0.545589 3.68584 0
M  V30 552 H 48.6633 1.05977 4.67232 0
M  V30 553 H 47.0273 0.468622 2.50352 0
M  V30 554 H 47.8103 2.12927 2.6929 0
M  V30 555 N 50.2554 -1.46986 0.568584 0
M  V30 556 C 51.6664 -1.86188 0.138219 0
M  V30 557 C 52.0174 -1.47388 -1.29504 0
M  V30 558 O 51.1424 -0.88219 -1.97602 0
M  V30 559 C 51.7374 -3.3792 0.244065 0
M  V30 560 C 50.2964 -3.76171 -0.131335 0
M  V30 561 C 49.4434 -2.71027 0.586465 0
M  V30 562 H 52.3944 -1.38342 0.777645 0
M  V30 563 H 52.4154 -3.76729 -0.534351 0
M  V30 564 H 51.9274 -3.66128 1.28731 0
M  V30 565 H 50.0284 -3.5358 -1.17526 0
M  V30 566 H 50.1414 -4.78523 0.235146 0
M  V30 567 H 48.5054 -2.54684 0.0282722 0
M  V30 568 H 49.2884 -3.02077 1.63109 0
M  V30 569 N 51.7335 -0.305618 -1.54608 0
M  V30 570 C 52.6635 0.561482 -2.26649 0
M  V30 571 C 53.6445 1.13415 -1.26772 0
M  V30 572 O 54.8295 1.16262 -1.55553 0
M  V30 573 C 51.9595 1.73122 -3.01075 0
M  V30 574 C 50.9135 1.2887 -4.08138 0
M  V30 575 C 50.2395 2.54396 -4.70305 0
M  V30 576 C 51.5395 0.416578 -5.20636 0
M  V30 577 H 53.2335 -0.0393902 -2.99374 0
M  V30 578 H 50.7795 -0.020385 -1.43986 0
M  V30 579 H 52.7325 2.34396 -3.50195 0
M  V30 580 H 51.4565 2.3584 -2.25936 0
M  V30 581 H 50.1155 0.698991 -3.59875 0
M  V30 582 H 49.7635 3.15439 -3.918 0
M  V30 583 H 49.4635 2.25486 -5.42614 0
M  V30 584 H 50.9875 3.16464 -5.2219 0
M  V30 585 H 52.4015 0.935116 -5.65622 0
M  V30 586 H 50.7985 0.221046 -5.99693 0
M  V30 587 H 51.8685 -0.557162 -4.81688 0
M  V30 588 N 53.2116 1.57565 -0.0334293 0
M  V30 589 C 54.4416 1.95996 0.653398 0
M  V30 590 C 54.8496 0.908749 1.65947 0
M  V30 591 O 54.1926 -0.117471 1.83324 0
M  V30 592 C 54.2546 3.30589 1.41249 0
M  V30 593 C 53.9186 4.53503 0.564263 0
M  V30 594 C 54.9156 5.19647 -0.16225 0
M  V30 595 C 52.6006 4.99801 0.500398 0
M  V30 596 C 54.5946 6.30412 -0.941255 0
M  V30 597 C 52.2816 6.10448 -0.282308 0
M  V30 598 C 53.2796 6.75612 -1.00184 0
M  V30 599 O 52.9676 7.84134 -1.77171 0
M  V30 600 H 52.6996 0.65027 0.184728 0
M  V30 601 H 55.2536 2.05199 -0.0907841 0
M  V30 602 H 53.4836 3.17888 2.20191 0
M  V30 603 H 55.1726 3.53892 1.98784 0
M  V30 604 H 55.9386 4.84846 -0.12227 0
M  V30 605 H 51.8176 4.48883 1.05002 0
M  V30 606 H 55.3616 6.81208 -1.50339 0
M  V30 607 H 51.2586 6.44686 -0.323989 0
M  V30 608 H 52.0266 8.00822 -1.69194 0
M  V30 609 N 54.6897 -0.239769 1.55765 0
M  V30 610 C 55.9147 -0.988373 1.82335 0
M  V30 611 C 56.3397 -1.77886 0.611421 0
M  V30 612 O 55.6977 -1.75889 -0.439639 0
M  V30 613 C 55.7457 -1.89627 3.06715 0
M  V30 614 O 54.8497 -2.98904 2.84131 0
M  V30 615 H 54.1907 -0.280858 0.601677 0
M  V30 616 H 56.7207 -0.258597 2.02959 0
M  V30 617 H 56.7307 -2.30957 3.36338 0
M  V30 618 H 55.4057 -1.31511 3.9456 0
M  V30 619 H 53.9827 -2.61651 2.65694 0
M  V30 620 N 56.1678 -1.49265 -0.50573 0
M  V30 621 C 57.0978 -1.68495 -1.61653 0
M  V30 622 C 58.0788 -0.53366 -1.61512 0
M  V30 623 O 59.2638 -0.76897 -1.78327 0
M  V30 624 C 56.3938 -1.74709 -3.00157 0
M  V30 625 C 55.3478 -2.89581 -3.15162 0
M  V30 626 C 54.6738 -2.80903 -4.5497 0
M  V30 627 C 55.9738 -4.30578 -2.95634 0
M  V30 628 H 57.6678 -2.61493 -1.45814 0
M  V30 629 H 55.2138 -1.25838 -0.70005 0
M  V30 630 H 57.1668 -1.86748 -3.77761 0
M  V30 631 H 55.8908 -0.783067 -3.17074 0
M  V30 632 H 54.5498 -2.77136 -2.39982 0
M  V30 633 H 54.1978 -1.82419 -4.68756 0
M  V30 634 H 53.8978 -3.57999 -4.65951 0
M  V30 635 H 55.4218 -2.94944 -5.34641 0
M  V30 636 H 56.8358 -4.4373 -3.63011 0
M  V30 637 H 55.2328 -5.0886 -3.18091 0
M  V30 638 H 56.3028 -4.45352 -1.91806 0
M  V30 639 N 57.6459 0.756429 -1.3826 0
M  V30 640 C 58.8919 1.51772 -1.34511 0
M  V30 641 C 59.2249 1.94089 0.0656691 0
M  V30 642 O 58.4999 1.65221 1.02626 0
M  V30 643 C 58.7829 2.77226 -2.29821 0
M  V30 644 C 58.6359 2.41065 -3.79747 0
M  V30 645 C 59.9549 3.79236 -2.23312 0
M  V30 646 H 57.0739 0.550578 -0.489931 0
M  V30 647 H 59.7159 0.866607 -1.69086 0
M  V30 648 H 57.8659 3.32784 -2.00467 0
M  V30 649 H 59.5379 1.91303 -4.19763 0
M  V30 650 H 57.7809 1.7356 -3.97567 0
M  V30 651 H 58.4519 3.3081 -4.41892 0
M  V30 652 H 60.9279 3.3321 -2.49219 0
M  V30 653 H 59.8039 4.64714 -2.92116 0
M  V30 654 H 60.0649 4.24615 -1.23102 0
M  V30 655 N 59.124 1.23083 0.984299 0
M  V30 656 C 60.371 1.06057 1.72505 0
M  V30 657 C 60.699 -0.403105 1.90277 0
M  V30 658 O 59.954 -1.3149 1.44944 0
M  V30 659 C 60.253 1.72673 3.1292 0
M  V30 660 C 59.919 3.22586 3.15038 0
M  V30 661 C 58.581 3.63489 3.15324 0
M  V30 662 C 60.933 4.185 3.10657 0
M  V30 663 C 58.261 4.98772 3.08939 0
M  V30 664 C 60.613 5.53769 3.05814 0
M  V30 665 C 59.277 5.94041 3.04419 0
M  V30 666 H 58.547 0.388091 0.631242 0
M  V30 667 H 61.194 1.52963 1.15215 0
M  V30 668 H 59.499 1.18116 3.73572 0
M  V30 669 H 61.196 1.56982 3.68996 0
M  V30 670 H 57.786 2.90022 3.15571 0
M  V30 671 H 61.97 3.87911 3.09579 0
M  V30 672 H 57.226 5.29193 3.0621 0
M  V30 673 H 61.4 6.27808 3.0138 0
M  V30 674 H 59.027 6.98833 2.99227 0
M  V30 675 N 60.6021 -1.18246 1.0419 0
M  V30 676 C 61.8511 -1.87588 0.741194 0
M  V30 677 C 62.1641 -1.81303 -0.734066 0
M  V30 678 O 63.3701 -2.46019 -1.14834 0
M  V30 679 C 61.8261 -3.36538 1.27555 0
M  V30 680 C 61.4341 -3.51349 2.77953 0
M  V30 681 C 63.1781 -4.11273 1.05143 0
M  V30 682 C 61.0851 -4.94265 3.2474 0
M  V30 683 H 60.0151 -0.702622 0.273565 0
M  V30 684 H 62.6661 -1.33601 1.25789 0
M  V30 685 H 61.0481 -3.9 0.686703 0
M  V30 686 H 62.2221 -3.08153 3.42605 0
M  V30 687 H 60.5371 -2.90022 2.98791 0
M  V30 688 H 63.1341 -5.16689 1.37611 0
M  V30 689 H 63.4771 -4.16298 -0.0112774 0
M  V30 690 H 64.0101 -3.63987 1.60495 0
M  V30 691 H 60.7491 -4.94408 4.30396 0
M  V30 692 H 60.2691 -5.38172 2.64823 0
M  V30 693 H 61.9481 -5.62987 3.18834 0
M  V30 694 N 62.0802 -0.821533 -1.34494 0
M  V30 695 C 63.3272 -0.408946 -1.98328 0
M  V30 696 C 63.6552 1.02764 -1.65136 0
M  V30 697 O 62.9102 1.73026 -0.914349 0
M  V30 698 C 63.2092 -0.556512 -3.53041 0
M  V30 699 C 62.8752 -1.95861 -4.0614 0
M  V30 700 C 61.5372 -2.34217 -4.20352 0
M  V30 701 C 63.8892 -2.87523 -4.34718 0
M  V30 702 C 61.2172 -3.63572 -4.6047 0
M  V30 703 C 63.5692 -4.1634 -4.76281 0
M  V30 704 C 62.2332 -4.54675 -4.88699 0
M  V30 705 H 61.5032 -0.149644 -0.725732 0
M  V30 706 H 64.1502 -1.04521 -1.6046 0
M  V30 707 H 62.4552 0.163148 -3.9146 0
M  V30 708 H 64.1522 -0.217826 -4.00408 0
M  V30 709 H 60.7422 -1.65066 -3.95539 0
M  V30 710 H 64.9262 -2.59133 -4.23277 0
M  V30 711 H 60.1822 -3.93101 -4.68275 0
M  V30 712 H 64.3562 -4.87455 -4.97354 0
M  V30 713 H 61.9832 -5.54959 -5.19542 0
M  V30 714 N 63.5583 1.46682 -0.576371 0
M  V30 715 C 64.8063 2.02013 -0.0594163 0
M  V30 716 C 65.1273 1.45101 1.30271 0
M  V30 717 O 64.3973 0.633317 1.8538 0
M  V30 718 H 62.9773 0.746759 -0.0189745 0
M  V30 719 H 65.6393 1.79862 -0.750717 0
M  V30 720 H 64.7353 3.12097 0.014345 0
M  V30 721 N 65.0364 0.313813 1.54444 0
M  V30 722 C 66.2834 -0.291675 2.00388 0
M  V30 723 C 66.6114 -1.52904 1.2021 0
M  V30 724 O 65.8664 -1.93833 0.269707 0
M  V30 725 C 66.1654 -0.680386 3.50864 0
M  V30 726 C 65.8314 0.456699 4.48581 0
M  V30 727 C 64.4934 0.768824 4.75018 0
M  V30 728 C 66.8454 1.22098 5.06697 0
M  V30 729 C 64.1734 1.84812 5.56831 0
M  V30 730 C 66.5254 2.29029 5.89685 0
M  V30 731 C 65.1894 2.60834 6.14428 0
M  V30 732 H 64.4594 -0.106732 0.733273 0
M  V30 733 H 67.1064 0.43557 1.86481 0
M  V30 734 H 65.4114 -1.48791 3.62448 0
M  V30 735 H 67.1084 -1.16026 3.83847 0
M  V30 736 H 63.6984 0.203337 4.28117 0
M  V30 737 H 67.8824 0.993096 4.86263 0
M  V30 738 H 63.1384 2.09912 5.74236 0
M  V30 739 H 67.3124 2.887 6.33739 0
M  V30 740 H 64.9394 3.44596 6.77612 0
M  V30 741 N 66.5145 -1.57545 0.0417849 0
M  V30 742 C 67.7605 -1.92601 -0.635021 0
M  V30 743 C 68.0935 -0.919627 -1.71045 0
M  V30 744 O 67.3685 0.0557892 -1.9442 0
M  V30 745 C 67.6515 -3.38085 -1.23979 0
M  V30 746 C 67.5045 -4.49467 -0.173057 0
M  V30 747 C 68.8235 -3.83776 -2.15416 0
M  V30 748 H 65.9425 -0.700397 -0.229374 0
M  V30 749 H 68.5845 -1.89728 0.101633 0
M  V30 750 H 66.7345 -3.40664 -1.86762 0
M  V30 751 H 68.4065 -4.59018 0.458312 0
M  V30 752 H 66.6495 -4.30909 0.499996 0
M  V30 753 H 67.3205 -5.48323 -0.636054 0
M  V30 754 H 69.7965 -3.83013 -1.62605 0
M  V30 755 H 68.6725 -4.8624 -2.54679 0
M  V30 756 H 68.9335 -3.19998 -3.05047 0
M  V30 757 N 67.9926 0.231505 -1.5589 0
M  V30 758 C 69.2406 0.955461 -1.78088 0
M  V30 759 C 69.5616 1.85262 -0.608533 0
M  V30 760 O 68.8316 1.92277 0.375035 0
M  V30 761 H 67.4116 0.355787 -0.656829 0
M  V30 762 H 70.0736 0.245751 -1.93344 0
M  V30 763 H 69.1696 1.56814 -2.69844 0
M  V30 764 N 69.4707 1.49531 0.497807 0
M  V30 765 C 70.4187 1.66926 1.61983 0
M  V30 766 C 71.4127 0.535167 1.60724 0
M  V30 767 O 72.6187 0.714896 1.65195 0
M  V30 768 H 68.9937 0.526415 0.537021 0
M  V30 769 H 70.9647 2.61098 1.44465 0
M  V30 770 C 69.7137 1.75602 3.00099 0
M  V30 771 H 69.0367 2.62244 3.01775 0
M  V30 772 H 70.4767 1.91807 3.78135 0
M  V30 773 C 68.9357 0.501543 3.33146 0
M  V30 774 O 69.4657 -0.371342 3.9998 0
M  V30 775 N 67.6717 0.363531 2.88317 0
M  V30 776 H 67.2187 1.07485 2.34104 0
M  V30 777 H 67.1767 -0.474728 3.10795 0
M  V30 778 N 70.9488 -0.749086 1.3866 0
M  V30 779 C 71.8818 -1.87111 1.30631 0
M  V30 780 C 72.8598 -1.61572 0.18251 0
M  V30 781 O 74.0438 -1.85019 0.360592 0
M  V30 782 C 71.1708 -3.22815 1.02511 0
M  V30 783 C 70.2168 -3.67234 2.1689 0
M  V30 784 S 71.0498 -3.78245 3.79066 0
M  V30 785 C 72.2058 -5.16761 3.53142 0
M  V30 786 H 72.4388 -1.93636 2.25594 0
M  V30 787 H 69.9718 -0.912525 1.24549 0
M  V30 788 H 71.9298 -4.01181 0.869701 0
M  V30 789 H 70.5908 -3.13964 0.0925884 0
M  V30 790 H 69.7838 -4.65677 1.92771 0
M  V30 791 H 69.3858 -2.96034 2.28561 0
M  V30 792 H 71.6778 -6.02656 3.09534 0
M  V30 793 H 72.6208 -5.45902 4.50995 0
M  V30 794 H 73.0288 -4.85771 2.87554 0
M  V30 795 N 72.4269 -1.23603 -0.977757 0
M  V30 796 C 73.3569 -1.04401 -2.0886 0
M  V30 797 C 74.3379 0.0399052 -1.70053 0
M  V30 798 O 75.5229 -0.125246 -1.93796 0
M  V30 799 C 72.6529 -0.637269 -3.41403 0
M  V30 800 C 71.6069 -1.66883 -3.94124 0
M  V30 801 C 70.9329 -1.11745 -5.22893 0
M  V30 802 C 72.2329 -3.06247 -4.23096 0
M  V30 803 H 73.9269 -1.97316 -2.25182 0
M  V30 804 H 71.4729 -0.950096 -1.08209 0
M  V30 805 H 73.4259 -0.48998 -4.18542 0
M  V30 806 H 72.1499 0.327557 -3.24953 0
M  V30 807 H 70.8089 -1.80416 -3.19133 0
M  V30 808 H 70.4569 -0.143527 -5.02795 0
M  V30 809 H 70.1569 -1.80672 -5.59134 0
M  V30 810 H 71.6809 -0.982067 -6.02651 0
M  V30 811 H 73.0949 -2.96001 -4.90975 0
M  V30 812 H 71.4919 -3.72436 -4.70544 0
M  V30 813 H 72.5619 -3.55041 -3.30263 0
M  V30 814 N 73.905 1.17692 -1.04816 0
M  V30 815 C 75.151 1.88137 -0.75711 0
M  V30 816 C 75.484 1.80604 0.713841 0
M  V30 817 O 74.759 1.21146 1.52164 0
M  V30 818 C 75.042 3.38318 -1.2334 0
M  V30 819 C 74.895 3.54622 -2.76701 0
M  V30 820 C 76.214 4.32214 -0.829415 0
M  V30 821 H 73.333 0.683163 -0.27651 0
M  V30 822 H 75.975 1.38424 -1.30149 0
M  V30 823 H 74.125 3.80787 -0.770286 0
M  V30 824 H 75.797 3.21194 -3.31107 0
M  V30 825 H 74.04 2.97026 -3.16161 0
M  V30 826 H 74.711 4.60028 -3.05088 0
M  V30 827 H 77.187 3.97565 -1.22805 0
M  V30 828 H 76.063 5.35838 -1.19033 0
M  V30 829 H 76.324 4.41294 0.266891 0
M  V30 830 N 75.3831 0.828654 1.34056 0
M  V30 831 C 76.6321 0.415828 1.97367 0
M  V30 832 C 76.9451 -1.02796 1.6641 0
M  V30 833 O 78.1511 -1.54497 2.23255 0
M  V30 834 C 76.6071 0.692601 3.53173 0
M  V30 835 C 76.2151 2.15038 3.93017 0
M  V30 836 C 77.9591 0.346222 4.23086 0
M  V30 837 C 75.8661 2.37174 5.41758 0
M  V30 838 H 74.7961 0.151755 0.738571 0
M  V30 839 H 77.4471 1.01581 1.52819 0
M  V30 840 H 75.8291 0.0223764 3.95994 0
M  V30 841 H 77.0031 2.86024 3.61285 0
M  V30 842 H 75.3181 2.45875 3.36057 0
M  V30 843 H 77.9151 0.48937 5.32456 0
M  V30 844 H 78.2581 -0.709842 4.10204 0
M  V30 845 H 78.7911 0.971258 3.85761 0
M  V30 846 H 75.5301 3.41308 5.59633 0
M  V30 847 H 75.0501 1.70738 5.74986 0
M  V30 848 H 76.7291 2.19818 6.08514 0
M  V30 849 N 76.8612 -1.46375 0.584142 0
M  V30 850 C 77.7912 -2.33103 -0.136037 0
M  V30 851 C 78.7722 -1.45431 -0.882255 0
M  V30 852 O 79.9572 -1.74246 -0.857434 0
M  V30 853 C 77.0872 -3.27731 -1.14933 0
M  V30 854 C 76.0412 -4.24855 -0.517862 0
M  V30 855 C 75.3672 -5.09001 -1.63773 0
M  V30 856 C 76.6672 -5.19439 0.545886 0
M  V30 857 H 78.3612 -2.93568 0.588086 0
M  V30 858 H 75.9072 -1.41166 0.284259 0
M  V30 859 H 77.8602 -3.87261 -1.66153 0
M  V30 860 H 76.5842 -2.65377 -1.90375 0
M  V30 861 H 75.2432 -3.6659 -0.0267361 0
M  V30 862 H 74.8912 -4.43031 -2.38185 0
M  V30 863 H 74.5912 -5.74777 -1.22085 0
M  V30 864 H 76.1152 -5.71396 -2.15266 0
M  V30 865 H 77.5292 -5.73177 0.118704 0
M  V30 866 H 75.9262 -5.93566 0.88317 0
M  V30 867 H 76.9962 -4.63285 1.43162 0
M  V30 868 N 78.3393 -0.321999 -1.54275 0
M  V30 869 C 79.5883 0.281931 -1.9972 0
M  V30 870 C 79.9013 1.53369 -1.21397 0
M  V30 871 O 81.1073 2.21352 -1.57211 0
M  V30 872 C 79.5633 0.5529 -3.55628 0
M  V30 873 C 79.1713 -0.681721 -4.42783 0
M  V30 874 C 80.9153 1.11687 -4.09544 0
M  V30 875 C 78.8223 -0.382742 -5.9016 0
M  V30 876 H 77.7523 0.109124 -0.746062 0
M  V30 877 H 80.4033 -0.43398 -1.78294 0
M  V30 878 H 78.7853 1.32896 -3.73035 0
M  V30 879 H 79.9593 -1.45723 -4.37151 0
M  V30 880 H 78.2743 -1.1658 -3.99748 0
M  V30 881 H 80.8713 1.35515 -5.17242 0
M  V30 882 H 81.2143 2.06575 -3.61431 0
M  V30 883 H 81.7473 0.402032 -3.95763 0
M  V30 884 H 78.4863 -1.30076 -6.42464 0
M  V30 885 H 78.0063 0.355094 -5.98748 0
M  V30 886 H 79.6853 0.00800157 -6.47 0
M  V30 887 N 79.8174 1.5752 -0.0501392 0
M  V30 888 C 80.7474 2.14502 0.922566 0
M  V30 889 C 81.7284 1.06642 1.3252 0
M  V30 890 O 82.9134 1.34577 1.4001 0
M  V30 891 C 80.0434 2.68916 2.19776 0
M  V30 892 C 78.9974 3.8175 1.93523 0
M  V30 893 C 78.3234 4.22677 3.27487 0
M  V30 894 C 79.6234 5.06932 1.25765 0
M  V30 895 H 81.3174 2.9603 0.447952 0
M  V30 896 H 78.8634 1.42401 0.214024 0
M  V30 897 H 80.8164 3.07419 2.88222 0
M  V30 898 H 79.5404 1.84578 2.69441 0
M  V30 899 H 78.1994 3.43718 1.27489 0
M  V30 900 H 77.8474 3.35291 3.74952 0
M  V30 901 H 77.5474 4.98725 3.1072 0
M  V30 902 H 79.0714 4.63779 3.97166 0
M  V30 903 H 80.4854 5.42888 1.84244 0
M  V30 904 H 78.8824 5.88116 1.19328 0
M  V30 905 H 79.9524 4.84337 0.233536 0
M  V30 906 N 81.2955 -0.223234 1.56011 0
M  V30 907 C 82.5445 -0.945912 1.78144 0
M  V30 908 C 82.8575 -1.85567 0.618396 0
M  V30 909 O 84.0635 -2.61688 0.723318 0
M  V30 910 C 82.5195 -1.73216 3.15475 0
M  V30 911 C 82.1275 -0.868619 4.39499 0
M  V30 912 C 83.8715 -2.44615 3.46935 0
M  V30 913 C 81.7785 -1.65212 5.67855 0
M  V30 914 H 80.7085 -0.356929 0.664167 0
M  V30 915 H 83.3595 -0.199845 1.82409 0
M  V30 916 H 81.7415 -2.52107 3.05382 0
M  V30 917 H 82.9155 -0.120366 4.60643 0
M  V30 918 H 81.2305 -0.26683 4.15544 0
M  V30 919 H 83.8275 -3.03732 4.40058 0
M  V30 920 H 84.1705 -3.17417 2.69355 0
M  V30 921 H 84.7035 -1.72715 3.58349 0
M  V30 922 H 81.4425 -0.967407 6.48322 0
M  V30 923 H 80.9625 -2.37503 5.50774 0
M  V30 924 H 82.6415 -2.21322 6.07968 0
M  V30 925 N 82.7736 -1.49793 -0.48987 0
M  V30 926 C 83.7216 -1.67783 -1.61095 0
M  V30 927 C 84.7156 -0.543683 -1.60438 0
M  V30 928 O 85.9216 -0.723647 -1.64813 0
M  V30 929 H 82.2966 -0.529255 -0.534222 0
M  V30 930 H 84.2676 -2.61861 -1.43078 0
M  V30 931 C 83.0166 -1.77191 -2.99164 0
M  V30 932 H 82.3396 -2.63841 -3.0038 0
M  V30 933 H 83.7796 -1.93809 -3.77113 0
M  V30 934 C 82.2386 -0.519203 -3.32875 0
M  V30 935 O 82.7686 0.350124 -4.00171 0
M  V30 936 N 80.9746 -0.378816 -2.8812 0
M  V30 937 H 80.5216 -1.08725 -2.33531 0
M  V30 938 H 80.4796 0.458239 -3.11043 0
M  V30 939 N 84.2517 0.741722 -1.39055 0
M  V30 940 C 85.4917 1.51385 -1.37338 0
M  V30 941 C 85.8557 1.91972 0.0330513 0
M  V30 942 O 87.0567 2.68229 0.175174 0
M  V30 943 C 85.3277 2.72481 -2.31276 0
M  V30 944 S 86.8867 3.62211 -2.47687 0
M  V30 945 H 83.7047 0.517906 -0.487129 0
M  V30 946 H 86.3067 0.86969 -1.7509 0
M  V30 947 H 85.0107 2.40793 -3.32336 0
M  V30 948 H 84.5417 3.41832 -1.94716 0
M  V30 949 H 86.5567 4.65812 -1.70978 0
M  V30 950 N 85.7298 1.2412 0.971189 0
M  V30 951 C 86.6768 1.0305 2.06517 0
M  V30 952 C 87.6468 -0.0550666 1.66009 0
M  V30 953 O 88.8318 0.0988688 1.90544 0
M  V30 954 C 85.9718 0.637653 3.39158 0
M  V30 955 C 85.0848 1.79633 3.92882 0
M  V30 956 C 84.2198 1.34939 5.13775 0
M  V30 957 C 83.2588 2.47823 5.59687 0
M  V30 958 N 82.3958 2.04022 6.71803 0
M  V30 959 H 87.2358 1.96685 2.23873 0
M  V30 960 H 84.7728 0.979694 1.09729 0
M  V30 961 H 86.7308 0.390931 4.15364 0
M  V30 962 H 85.3608 -0.261693 3.21737 0
M  V30 963 H 84.4128 2.15681 3.13346 0
M  V30 964 H 85.7248 2.64466 4.22918 0
M  V30 965 H 84.8788 1.06134 5.97345 0
M  V30 966 H 83.6178 0.471557 4.85415 0
M  V30 967 H 82.6228 2.77392 4.74693 0
M  V30 968 H 83.8478 3.36158 5.90063 0
M  V30 969 H 81.7938 1.18632 6.45184 0
M  V30 970 H 81.7108 2.82409 7.01271 0
M  V30 971 H 82.9788 1.78347 7.58823 0
M  V30 972 N 87.2079 -1.17134 1.05439 0
M  V30 973 C 88.6239 -1.39454 0.776201 0
M  V30 974 C 88.8239 -1.91454 -0.628307 0
M  V30 975 O 87.8799 -2.10777 -1.39031 0
M  V30 976 C 89.1929 -2.38305 1.83388 0
M  V30 977 C 90.7409 -2.52006 1.85639 0
M  V30 978 C 91.2159 -3.54133 2.90437 0
M  V30 979 N 92.7069 -3.61653 2.89415 0
M  V30 980 C 93.4419 -4.4044 3.67152 0
M  V30 981 N 92.9379 -5.22721 4.54681 0
M  V30 982 N 94.7309 -4.35337 3.55581 0
M  V30 983 H 86.8819 -0.817134 1.96053 0
M  V30 984 H 89.1449 -0.421626 0.849079 0
M  V30 985 H 88.8509 -2.07173 2.84204 0
M  V30 986 H 88.7249 -3.37841 1.67761 0
M  V30 987 H 91.1119 -2.82447 0.85486 0
M  V30 988 H 91.1929 -1.52537 2.05344 0
M  V30 989 H 90.8369 -3.24431 3.90777 0
M  V30 990 H 90.7669 -4.53313 2.67983 0
M  V30 991 H 93.2579 -3.02909 2.25952 0
M  V30 992 H 93.5709 -5.80027 5.10674 0
M  V30 993 H 91.9159 -5.22093 4.58741 0
M  V30 994 H 95.1069 -3.70112 2.86592 0
M  V30 995 H 95.2799 -4.96494 4.1641 0
M  V30 996 N 88.686 -0.835752 -1.33615 0
M  V30 997 C 89.616 -0.281739 -2.31794 0
M  V30 998 C 90.597 0.608833 -1.58831 0
M  V30 999 O 91.782 0.533035 -1.86741 0
M  V30 1000 C 88.912 0.546612 -3.42971 0
M  V30 1001 C 87.866 -0.247904 -4.27281 0
M  V30 1002 C 87.192 0.704001 -5.30045 0
M  V30 1003 C 88.492 -1.46324 -5.01385 0
M  V30 1004 H 90.186 -1.10206 -2.78379 0
M  V30 1005 H 87.732 -0.531388 -1.33837 0
M  V30 1006 H 89.685 0.944467 -4.1068 0
M  V30 1007 H 88.409 1.40011 -2.95067 0
M  V30 1008 H 87.068 -0.627281 -3.61194 0
M  V30 1009 H 86.716 1.55381 -4.78399 0
M  V30 1010 H 86.416 0.176524 -5.87335 0
M  V30 1011 H 87.94 1.09944 -6.0062 0
M  V30 1012 H 89.354 -1.13871 -5.61877 0
M  V30 1013 H 87.751 -1.92728 -5.6831 0
M  V30 1014 H 88.821 -2.23467 -4.30338 0
M  V30 1015 N 90.1641 1.46063 -0.591896 0
M  V30 1016 C 91.1111 2.30399 0.136069 0
M  V30 1017 C 92.0811 1.41169 0.875238 0
M  V30 1018 O 93.2661 1.70112 0.86409 0
M  V30 1019 C 90.4061 3.25804 1.13781 0
M  V30 1020 C 89.5191 4.30134 0.401137 0
M  V30 1021 C 88.6541 5.12659 1.39121 0
M  V30 1022 C 87.6931 6.0873 0.641462 0
M  V30 1023 N 86.8301 6.8409 1.58004 0
M  V30 1024 H 91.6701 2.92118 -0.589144 0
M  V30 1025 H 89.2071 1.43959 -0.302342 0
M  V30 1026 H 91.1651 3.79569 1.73156 0
M  V30 1027 H 89.7951 2.65872 1.83062 0
M  V30 1028 H 88.8471 3.79152 -0.307826 0
M  V30 1029 H 90.1591 4.98458 -0.184565 0
M  V30 1030 H 89.3131 5.70747 2.05749 0
M  V30 1031 H 88.0521 4.44316 2.01084 0
M  V30 1032 H 87.0571 5.49786 -0.0385419 0
M  V30 1033 H 88.2821 6.79095 0.0270945 0
M  V30 1034 H 86.2281 6.18449 2.18761 0
M  V30 1035 H 86.1451 7.48709 1.04738 0
M  V30 1036 H 87.4131 7.4673 2.23639 0
M  V30 1037 N 91.6422 0.330177 1.54103 0
M  V30 1038 C 92.8672 -0.274893 2.0557 0
M  V30 1039 C 93.2922 -1.44487 1.20437 0
M  V30 1040 O 92.6502 -1.80021 0.214991 0
M  V30 1041 C 92.6982 -0.68079 3.54115 0
M  V30 1042 O 91.8022 -1.7824 3.71893 0
M  V30 1043 H 91.1432 -0.0483849 0.662235 0
M  V30 1044 H 93.6732 0.480508 1.98878 0
M  V30 1045 H 93.6832 -0.961635 3.96505 0
M  V30 1046 H 92.3582 0.174903 4.15532 0
M  V30 1047 H 90.9352 -1.49985 3.41407 0
M  V30 1048 N 93.1203 -1.57491 0.0584922 0
M  V30 1049 C 94.0533 -2.07533 -0.948969 0
M  V30 1050 C 95.0313 -0.977444 -1.29942 0
M  V30 1051 O 96.2153 -1.2499 -1.41102 0
M  V30 1052 C 93.3423 -2.52192 -2.2609 0
M  V30 1053 C 92.3883 -3.73287 -2.06298 0
M  V30 1054 S 93.2213 -5.18603 -1.33459 0
M  V30 1055 C 94.3773 -5.66583 -2.65959 0
M  V30 1056 H 94.6103 -2.92662 -0.523118 0
M  V30 1057 H 92.1433 -1.53631 -0.153954 0
M  V30 1058 H 94.1013 -2.78585 -3.01498 0
M  V30 1059 H 92.7623 -1.67356 -2.65802 0
M  V30 1060 H 91.9553 -4.0248 -3.03357 0
M  V30 1061 H 91.5573 -3.47199 -1.39029 0
M  V30 1062 H 93.8493 -5.72616 -3.62101 0
M  V30 1063 H 94.7923 -6.65684 -2.41393 0
M  V30 1064 H 95.2003 -4.94342 -2.72554 0
M  V30 1065 N 94.5984 0.214957 -1.56127 0
M  V30 1066 C 95.8264 0.955092 -1.83536 0
M  V30 1067 C 96.2414 1.77677 -0.638472 0
M  V30 1068 O 95.5984 1.78219 0.392968 0
M  V30 1069 C 95.6494 1.86734 -3.09536 0
M  V30 1070 O 95.3704 1.07887 -4.24608 0
M  V30 1071 C 96.8714 2.72082 -3.4998 0
M  V30 1072 H 94.0914 0.279611 -0.609966 0
M  V30 1073 H 96.6354 0.228197 -2.03223 0
M  V30 1074 H 94.7904 2.5481 -2.91806 0
M  V30 1075 H 95.2044 1.69872 -4.9623 0
M  V30 1076 H 96.6784 3.31782 -4.41163 0
M  V30 1077 H 97.1554 3.44806 -2.7204 0
M  V30 1078 H 97.7614 2.09409 -3.70173 0
M  V30 1079 N 96.0765 1.50051 0.48192 0
M  V30 1080 C 97.3535 1.51009 1.2432 0
M  V30 1081 C 97.7335 0.248587 2.09631 0
M  V30 1082 O 97.0815 -0.768409 2.15192 0
M  V30 1083 C 97.2915 2.79981 2.08355 0
M  V30 1084 C 98.6395 3.3022 2.66908 0
M  V30 1085 O 99.6635 2.81228 2.18607 0
M  V30 1086 O 98.5225 4.15595 3.54884 0
M  V30 1087 H 95.6165 0.605239 0.563573 0
M  V30 1088 H 98.1625 1.62332 0.494627 0
M  V30 1089 H 96.9345 3.63275 1.45419 0
M  V30 1090 H 96.5575 2.7161 2.90368 0
M  V30 1091 N 97.5546 -0.734337 1.39446 0
M  V30 1092 C 98.8036 -1.48937 1.36017 0
M  V30 1093 C 99.1166 -1.95557 -0.0409005 0
M  V30 1094 O 100.323 -2.70779 -0.19778 0
M  V30 1095 C 98.7786 -2.69125 2.38955 0
M  V30 1096 C 98.3866 -2.29452 3.8478 0
M  V30 1097 C 100.131 -3.46944 2.44603 0
M  V30 1098 C 98.0376 -3.46366 4.79358 0
M  V30 1099 H 96.9676 -0.559296 0.505672 0
M  V30 1100 H 99.6186 -0.800983 1.65095 0
M  V30 1101 H 98.0006 -3.40041 2.02948 0
M  V30 1102 H 99.1746 -1.66077 4.29831 0
M  V30 1103 H 97.4896 -1.64723 3.82433 0
M  V30 1104 H 100.087 -4.33907 3.12456 0
M  V30 1105 H 100.43 -3.89454 1.47076 0
M  V30 1106 H 100.963 -2.83056 2.79507 0
M  V30 1107 H 97.7016 -3.08905 5.78151 0
M  V30 1108 H 97.2216 -4.08719 4.38986 0
M  V30 1109 H 98.9006 -4.12691 4.98292 0
M  V30 1110 N 99.0327 -1.24633 -0.964593 0
M  V30 1111 C 100.263 -1.11339 -1.74032 0
M  V30 1112 C 100.671 0.336593 -1.86182 0
M  V30 1113 O 100.014 1.24389 -1.35178 0
M  V30 1114 C 100.076 -1.68284 -3.1768 0
M  V30 1115 C 99.7397 -3.17196 -3.28992 0
M  V30 1116 C 100.737 -4.14308 -3.14078 0
M  V30 1117 C 98.4217 -3.57215 -3.53133 0
M  V30 1118 C 100.416 -5.4942 -3.23135 0
M  V30 1119 C 98.1027 -4.92468 -3.61827 0
M  V30 1120 C 99.1007 -5.8838 -3.46841 0
M  V30 1121 O 98.7887 -7.21173 -3.55197 0
M  V30 1122 H 98.5207 -0.389551 -0.552472 0
M  V30 1123 H 101.075 -1.65282 -1.21946 0
M  V30 1124 H 99.3047 -1.08777 -3.71085 0
M  V30 1125 H 100.994 -1.50234 -3.77074 0
M  V30 1126 H 101.76 -3.84731 -2.95308 0
M  V30 1127 H 97.6387 -2.83063 -3.63863 0
M  V30 1128 H 101.183 -6.24263 -3.11355 0
M  V30 1129 H 97.0797 -5.21714 -3.80111 0
M  V30 1130 H 97.8477 -7.29135 -3.71892 0
M  V30 1131 N 100.511 1.16574 -1.06058 0
M  V30 1132 C 101.441 2.23057 -0.690488 0
M  V30 1133 C 102.422 1.67141 0.315901 0
M  V30 1134 O 103.607 1.93253 0.191556 0
M  V30 1135 C 100.737 3.47222 -0.073625 0
M  V30 1136 C 99.6908 4.16016 -1.00573 0
M  V30 1137 C 99.0168 5.34104 -0.252289 0
M  V30 1138 C 100.317 4.67264 -2.33371 0
M  V30 1139 H 102.011 2.54271 -1.58072 0
M  V30 1140 H 99.5568 1.22218 -0.76149 0
M  V30 1141 H 101.51 4.20939 0.19714 0
M  V30 1142 H 100.234 3.15302 0.85161 0
M  V30 1143 H 98.8928 3.44223 -1.2612 0
M  V30 1144 H 98.5408 4.98437 0.675988 0
M  V30 1145 H 98.2408 5.81072 -0.873455 0
M  V30 1146 H 99.7648 6.10599 0.0109857 0
M  V30 1147 H 101.179 5.32573 -2.12223 0
M  V30 1148 H 99.5758 5.24843 -2.90963 0
M  V30 1149 H 100.646 3.83602 -2.96611 0
M  V30 1150 N 101.989 0.842826 1.3317 0
M  V30 1151 C 102.919 0.294028 2.31641 0
M  V30 1152 C 103.9 -0.600401 1.59151 0
M  V30 1153 O 105.085 -0.523124 1.87022 0
M  V30 1154 C 102.215 -0.528416 3.43257 0
M  V30 1155 C 101.169 0.27056 4.27144 0
M  V30 1156 C 100.495 -0.675881 5.30411 0
M  V30 1157 C 101.795 1.48981 5.00602 0
M  V30 1158 H 103.489 1.11681 2.77791 0
M  V30 1159 H 101.035 0.538478 1.33553 0
M  V30 1160 H 102.988 -0.922674 4.11175 0
M  V30 1161 H 101.712 -1.38445 2.95805 0
M  V30 1162 H 100.371 0.646427 3.60856 0
M  V30 1163 H 100.019 -1.52842 4.79216 0
M  V30 1164 H 99.7189 -0.145374 5.8742 0
M  V30 1165 H 101.243 -1.06757 6.01195 0
M  V30 1166 H 102.657 1.16849 5.61266 0
M  V30 1167 H 101.054 1.95739 5.6728 0
M  V30 1168 H 102.124 2.25746 4.29147 0
M  V30 1169 N 103.467 -1.45747 0.599634 0
M  V30 1170 C 104.415 -2.322 -0.136426 0
M  V30 1171 C 105.409 -1.45497 -0.867583 0
M  V30 1172 O 106.615 -1.62027 -0.78405 0
M  V30 1173 H 102.99 -0.749368 -0.0628588 0
M  V30 1174 H 104.961 -2.92072 0.611281 0
M  V30 1175 C 103.71 -3.28974 -1.12567 0
M  V30 1176 H 103.033 -3.9568 -0.572484 0
M  V30 1177 H 104.473 -3.92212 -1.61077 0
M  V30 1178 C 102.932 -2.55561 -2.19523 0
M  V30 1179 O 103.462 -2.33111 -3.27143 0
M  V30 1180 N 101.668 -2.15832 -1.94589 0
M  V30 1181 H 101.215 -2.3429 -1.07078 0
M  V30 1182 H 101.173 -1.67034 -2.66359 0
M  V30 1183 N 104.945 -0.338344 -1.53925 0
M  V30 1184 C 105.875 0.51328 -2.27789 0
M  V30 1185 C 106.856 1.107 -1.29149 0
M  V30 1186 O 108.041 1.12937 -1.57984 0
M  V30 1187 C 105.171 1.66697 -3.04679 0
M  V30 1188 C 104.125 1.20183 -4.1078 0
M  V30 1189 C 103.451 2.44363 -4.75595 0
M  V30 1190 C 104.751 0.30605 -5.21403 0
M  V30 1191 H 106.445 -0.102883 -2.99223 0
M  V30 1192 H 103.991 -0.0509219 -1.4391 0
M  V30 1193 H 105.944 2.26915 -3.55088 0
M  V30 1194 H 104.668 2.30995 -2.30887 0
M  V30 1195 H 103.327 0.622499 -3.61276 0
M  V30 1196 H 102.975 3.07057 -3.98403 0
M  V30 1197 H 102.675 2.13925 -5.47275 0
M  V30 1198 H 104.199 3.05317 -5.28786 0
M  V30 1199 H 105.613 0.814929 -5.67478 0
M  V30 1200 H 104.01 0.0937929 -6.00027 0
M  V30 1201 H 105.08 -0.65921 -4.80398 0
M  V30 1202 N 106.423 1.57458 -0.0668435 0
M  V30 1203 C 107.386 2.11323 0.887422 0
M  V30 1204 C 108.386 1.03618 1.22964 0
M  V30 1205 O 109.576 1.29626 1.16373 0
M  V30 1206 C 106.708 2.61048 2.19242 0
M  V30 1207 H 107.901 2.96942 0.420194 0
M  V30 1208 H 105.454 1.55239 0.181793 0
M  V30 1209 H 106.189 1.78868 2.70512 0
M  V30 1210 H 105.974 3.39769 1.95702 0
M  V30 1211 H 107.464 3.02814 2.87565 0
M  V30 1212 N 107.901 -0.206675 1.56239 0
M  V30 1213 C 109.15 -0.926964 1.79138 0
M  V30 1214 C 109.463 -1.84901 0.638043 0
M  V30 1215 O 110.669 -2.60906 0.751033 0
M  V30 1216 C 109.125 -1.6986 3.17294 0
M  V30 1217 C 108.733 -0.821956 4.40395 0
M  V30 1218 C 110.477 -2.40922 3.4951 0
M  V30 1219 C 108.384 -1.59179 5.69575 0
M  V30 1220 H 107.314 -0.349864 0.667915 0
M  V30 1221 H 109.965 -0.180487 1.8261 0
M  V30 1222 H 108.347 -2.48853 3.08039 0
M  V30 1223 H 109.521 -0.0715019 4.60745 0
M  V30 1224 H 107.836 -0.222741 4.15804 0
M  V30 1225 H 110.433 -2.99047 4.43255 0
M  V30 1226 H 110.776 -3.14542 2.72707 0
M  V30 1227 H 111.309 -1.68905 3.60161 0
M  V30 1228 H 108.048 -0.898589 6.49312 0
M  V30 1229 H 107.568 -2.31648 5.53262 0
M  V30 1230 H 109.247 -2.14862 6.10281 0
M  V30 1231 N 109.379 -1.50304 -0.473955 0
M  V30 1232 C 110.604 -1.65175 -1.25427 0
M  V30 1233 C 111.029 -0.333673 -1.85117 0
M  V30 1234 O 110.387 0.702114 -1.67153 0
M  V30 1235 C 110.435 -2.74295 -2.34082 0
M  V30 1236 O 109.539 -2.35349 -3.38651 0
M  V30 1237 H 108.88 -0.551944 -0.369126 0
M  V30 1238 H 111.41 -1.96662 -0.564364 0
M  V30 1239 H 111.42 -2.97285 -2.79438 0
M  V30 1240 H 110.095 -3.69959 -1.90008 0
M  V30 1241 H 108.672 -2.22794 -2.99027 0
M  V30 1242 N 110.857 0.726932 -1.39834 0
M  V30 1243 C 112.134 1.47902 -1.28001 0
M  V30 1244 C 112.514 2.1083 0.106789 0
M  V30 1245 O 111.862 1.99242 1.11869 0
M  V30 1246 C 112.072 2.52392 -2.41038 0
M  V30 1247 C 113.42 3.18546 -2.80737 0
M  V30 1248 O 114.444 2.62708 -2.40547 0
M  V30 1249 O 113.303 4.19604 -3.50135 0
M  V30 1250 H 110.397 0.657163 -0.502062 0
M  V30 1251 H 112.943 0.760071 -1.51727 0
M  V30 1252 H 111.715 2.04329 -3.33715 0
M  V30 1253 H 111.338 3.31837 -2.19021 0
M  V30 1254 N 112.336 1.25143 0.95797 0
M  V30 1255 C 113.266 1.07711 2.07173 0
M  V30 1256 C 114.247 -0.0128462 1.70095 0
M  V30 1257 O 115.432 0.156061 1.93572 0
M  V30 1258 C 112.562 0.691503 3.40346 0
M  V30 1259 C 111.516 1.73132 3.9142 0
M  V30 1260 C 110.842 1.20049 5.21049 0
M  V30 1261 C 112.142 3.1294 4.1817 0
M  V30 1262 H 113.836 2.00873 2.22014 0
M  V30 1263 H 111.382 0.967191 1.06684 0
M  V30 1264 H 113.335 0.556505 4.17709 0
M  V30 1265 H 112.059 -0.275819 3.25433 0
M  V30 1266 H 110.718 1.8547 3.16222 0
M  V30 1267 H 110.366 0.223499 5.02503 0
M  V30 1268 H 110.066 1.89545 5.56189 0
M  V30 1269 H 111.59 1.07782 6.01012 0
M  V30 1270 H 113.004 3.03775 4.86203 0
M  V30 1271 H 111.401 3.79875 4.64559 0
M  V30 1272 H 112.471 3.6025 3.24573 0
M  V30 1273 N 113.814 -1.1601 1.06675 0
M  V30 1274 C 115.061 -1.86633 0.785781 0
M  V30 1275 C 115.389 -1.81929 -0.687896 0
M  V30 1276 O 114.644 -1.23253 -1.52011 0
M  V30 1277 C 114.943 -3.35547 1.23057 0
M  V30 1278 C 114.609 -3.60448 2.70902 0
M  V30 1279 C 113.271 -3.66954 3.11285 0
M  V30 1280 C 115.623 -3.7071 3.66365 0
M  V30 1281 C 112.951 -3.81225 4.45965 0
M  V30 1282 C 115.303 -3.86503 5.00797 0
M  V30 1283 C 113.967 -3.91252 5.40813 0
M  V30 1284 H 113.237 -0.682937 0.287538 0
M  V30 1285 H 115.884 -1.37146 1.33654 0
M  V30 1286 H 114.189 -3.87193 0.59907 0
M  V30 1287 H 115.886 -3.88583 0.990163 0
M  V30 1288 H 112.476 -3.56021 2.38636 0
M  V30 1289 H 116.66 -3.64991 3.36296 0
M  V30 1290 H 111.916 -3.83155 4.76447 0
M  V30 1291 H 116.09 -3.93385 5.74649 0
M  V30 1292 H 113.717 -4.02062 6.45174 0
M  V30 1293 N 115.292 -0.849877 -1.32721 0
M  V30 1294 C 116.539 -0.450923 -1.97416 0
M  V30 1295 C 116.867 0.992376 -1.67279 0
M  V30 1296 O 116.122 1.71048 -0.950845 0
M  V30 1297 C 116.421 -0.631272 -3.51781 0
M  V30 1298 C 116.087 -2.04432 -4.01894 0
M  V30 1299 C 114.749 -2.4308 -4.1529 0
M  V30 1300 C 117.101 -2.96679 -4.28522 0
M  V30 1301 C 114.429 -3.73257 -4.52654 0
M  V30 1302 C 116.781 -4.26349 -4.67343 0
M  V30 1303 C 115.445 -4.64939 -4.78945 0
M  V30 1304 H 114.715 -0.165004 -0.722395 0
M  V30 1305 H 117.362 -1.07901 -1.58207 0
M  V30 1306 H 115.667 0.0800767 -3.91718 0
M  V30 1307 H 117.364 -0.302709 -3.99856 0
M  V30 1308 H 113.954 -1.73419 -3.91949 0
M  V30 1309 H 118.138 -2.68054 -4.17685 0
M  V30 1310 H 113.394 -4.02946 -4.59831 0
M  V30 1311 H 117.568 -4.97895 -4.86902 0
M  V30 1312 H 115.195 -5.65855 -5.07654 0
M  V30 1313 N 116.77 1.45427 -0.607355 0
M  V30 1314 C 117.7 2.3329 0.0989352 0
M  V30 1315 C 118.681 1.46816 0.859007 0
M  V30 1316 O 119.866 1.75588 0.829604 0
M  V30 1317 C 116.996 3.29518 1.09705 0
M  V30 1318 C 115.95 4.25626 0.450206 0
M  V30 1319 C 115.276 5.11542 1.55655 0
M  V30 1320 C 116.576 5.18505 -0.628455 0
M  V30 1321 H 118.27 2.92595 -0.634716 0
M  V30 1322 H 115.816 1.40696 -0.306681 0
M  V30 1323 H 117.769 3.89855 1.59971 0
M  V30 1324 H 116.493 2.68372 1.86129 0
M  V30 1325 H 115.152 3.66586 -0.0315886 0
M  V30 1326 H 114.8 4.46765 2.31107 0
M  V30 1327 H 114.5 5.76647 1.12925 0
M  V30 1328 H 116.024 5.74748 2.06148 0
M  V30 1329 H 117.438 5.72916 -0.209877 0
M  V30 1330 H 115.835 5.92085 -0.977489 0
M  V30 1331 H 116.905 4.60948 -1.50514 0
M  V30 1332 N 118.248 0.346503 1.53744 0
M  V30 1333 C 119.178 -0.501193 2.28058 0
M  V30 1334 C 120.159 -1.10014 1.29734 0
M  V30 1335 O 121.344 -1.12097 1.58581 0
M  V30 1336 C 118.474 -1.65078 3.05559 0
M  V30 1337 C 117.428 -1.18003 4.11411 0
M  V30 1338 C 116.754 -2.41837 4.76884 0
M  V30 1339 C 118.054 -0.278394 5.21558 0
M  V30 1340 H 119.748 0.11875 2.99164 0
M  V30 1341 H 117.294 0.0585531 1.43881 0
M  V30 1342 H 119.247 -2.25028 3.56287 0
M  V30 1343 H 117.971 -2.29767 2.32109 0
M  V30 1344 H 116.63 -0.603331 3.61601 0
M  V30 1345 H 116.278 -3.0494 4.00026 0
M  V30 1346 H 115.978 -2.1102 5.48402 0
M  V30 1347 H 117.502 -3.02508 5.30397 0
M  V30 1348 H 118.916 -0.784823 5.67903 0
M  V30 1349 H 117.313 -0.0619707 6.00068 0
M  V30 1350 H 118.383 0.684677 4.80042 0
M  V30 1351 N 119.726 -1.57421 0.075193 0
M  V30 1352 C 120.954 -1.97946 -0.602076 0
M  V30 1353 C 121.369 -0.953674 -1.62943 0
M  V30 1354 O 120.726 0.0592551 -1.82404 0
M  V30 1355 C 120.777 -3.38546 -1.26762 0
M  V30 1356 O 120.498 -4.37195 -0.281376 0
M  V30 1357 C 121.999 -3.93966 -2.03239 0
M  V30 1358 H 119.219 -0.650918 -0.162931 0
M  V30 1359 H 121.763 -2.03959 0.148601 0
M  V30 1360 H 119.918 -3.33609 -1.96936 0
M  V30 1361 H 120.332 -5.18975 -0.759267 0
M  V30 1362 H 121.806 -4.94555 -2.45193 0
M  V30 1363 H 122.283 -3.30693 -2.8903 0
M  V30 1364 H 122.889 -4.02315 -1.37924 0
M  V30 1365 N 121.204 0.198386 -1.56346 0
M  V30 1366 C 122.45 0.920648 -1.80698 0
M  V30 1367 C 122.783 1.83045 -0.648697 0
M  V30 1368 O 122.058 1.91308 0.350925 0
M  V30 1369 C 122.341 1.73971 -3.15287 0
M  V30 1370 C 122.194 0.85485 -4.41602 0
M  V30 1371 C 123.513 2.71296 -3.46535 0
M  V30 1372 H 120.632 0.333261 -0.657348 0
M  V30 1373 H 123.274 0.188198 -1.89066 0
M  V30 1374 H 121.424 2.36416 -3.08285 0
M  V30 1375 H 123.096 0.245362 -4.60647 0
M  V30 1376 H 121.339 0.161398 -4.335 0
M  V30 1377 H 122.01 1.46286 -5.32264 0
M  V30 1378 H 124.486 2.18983 -3.53816 0
M  V30 1379 H 123.362 3.2569 -4.41834 0
M  V30 1380 H 123.623 3.5018 -2.69864 0
M  V30 1381 N 122.682 1.50554 0.465978 0
M  V30 1382 C 124.093 1.54599 1.04671 0
M  V30 1383 C 124.444 0.352488 1.93008 0
M  V30 1384 O 123.569 -0.534044 2.09707 0
M  V30 1385 C 124.164 2.80166 1.90505 0
M  V30 1386 C 122.723 2.86876 2.43678 0
M  V30 1387 C 121.87 2.48947 1.22151 0
M  V30 1388 H 124.821 1.56744 0.248384 0
M  V30 1389 H 124.842 2.62311 2.75633 0
M  V30 1390 H 124.354 3.67013 1.26186 0
M  V30 1391 H 122.455 2.04393 3.11536 0
M  V30 1392 H 122.568 3.89885 2.78436 0
M  V30 1393 H 120.932 2.01498 1.5579 0
M  V30 1394 H 121.715 3.38107 0.594866 0
M  V30 1395 N 124.16 -0.719506 1.40217 0
M  V30 1396 C 125.407 -1.47933 1.38283 0
M  V30 1397 C 125.735 -1.94493 -0.0161536 0
M  V30 1398 O 124.99 -1.68224 -0.999956 0
M  V30 1399 C 125.289 -2.72271 2.31524 0
M  V30 1400 C 124.955 -2.44496 3.78857 0
M  V30 1401 C 123.617 -2.36631 4.18998 0
M  V30 1402 C 125.969 -2.21104 4.71977 0
M  V30 1403 C 123.297 -2.03437 5.503 0
M  V30 1404 C 125.649 -1.89423 6.03574 0
M  V30 1405 C 124.313 -1.80038 6.42762 0
M  V30 1406 H 123.583 -0.541325 0.506012 0
M  V30 1407 H 126.23 -0.824502 1.72842 0
M  V30 1408 H 124.535 -3.42572 1.90137 0
M  V30 1409 H 126.232 -3.30348 2.27313 0
M  V30 1410 H 122.822 -2.51503 3.47051 0
M  V30 1411 H 127.006 -2.26139 4.41786 0
M  V30 1412 H 122.262 -1.94705 5.79569 0
M  V30 1413 H 126.436 -1.70336 6.75247 0
M  V30 1414 H 124.063 -1.54083 7.44421 0
M  V30 1415 N 125.638 -1.25649 -0.95132 0
M  V30 1416 C 126.884 -1.11766 -1.69941 0
M  V30 1417 C 127.239 0.33735 -1.89419 0
M  V30 1418 O 126.532 1.24491 -1.45645 0
M  V30 1419 C 126.726 -1.80909 -3.08231 0
M  V30 1420 C 126.555 -3.32984 -3.02245 0
M  V30 1421 C 125.325 -4.02247 -3.05819 0
M  V30 1422 C 127.523 -4.29332 -2.83157 0
M  V30 1423 N 125.505 -5.41072 -2.90024 0
M  V30 1424 C 126.876 -5.55265 -2.75828 0
M  V30 1425 C 128.931 -4.19707 -2.67863 0
M  V30 1426 C 127.634 -6.72671 -2.54767 0
M  V30 1427 C 129.66 -5.36809 -2.48173 0
M  V30 1428 C 129.022 -6.61683 -2.41567 0
M  V30 1429 H 125.121 -0.463708 -0.629682 0
M  V30 1430 H 127.705 -1.58796 -1.12659 0
M  V30 1431 H 125.876 -1.36369 -3.63673 0
M  V30 1432 H 127.608 -1.59739 -3.71841 0
M  V30 1433 H 124.363 -3.53531 -3.15139 0
M  V30 1434 H 124.787 -6.13938 -2.85323 0
M  V30 1435 H 129.429 -3.23907 -2.71743 0
M  V30 1436 H 127.147 -7.68577 -2.49629 0
M  V30 1437 H 130.733 -5.31224 -2.37259 0
M  V30 1438 H 129.613 -7.50768 -2.26531 0
M  V30 1439 N 127.117 1.15442 -1.07289 0
M  V30 1440 C 128.08 2.18358 -0.696591 0
M  V30 1441 C 129.08 1.58637 0.262837 0
M  V30 1442 O 130.27 1.74145 0.0438809 0
M  V30 1443 C 127.402 3.4089 -0.0266151 0
M  V30 1444 H 128.595 2.53162 -1.60776 0
M  V30 1445 H 126.148 1.29893 -0.869342 0
M  V30 1446 H 126.883 3.11653 0.896822 0
M  V30 1447 H 126.668 3.85495 -0.716657 0
M  V30 1448 H 128.158 4.17009 0.222028 0
M  V30 1449 N 128.595 0.856903 1.32268 0
M  V30 1450 C 129.545 0.274899 2.26337 0
M  V30 1451 C 130.529 -0.580543 1.50062 0
M  V30 1452 O 131.721 -0.429559 1.71708 0
M  V30 1453 C 128.85 -0.533841 3.39124 0
M  V30 1454 C 127.936 0.334114 4.22782 0
M  V30 1455 N 128.327 1.42143 4.85416 0
M  V30 1456 C 126.625 0.124256 4.45827 0
M  V30 1457 C 127.326 1.95559 5.47843 0
M  V30 1458 N 126.302 1.25444 5.28928 0
M  V30 1459 H 130.104 1.10612 2.72291 0
M  V30 1460 H 127.618 0.703258 1.46383 0
M  V30 1461 H 129.615 -0.96722 4.05525 0
M  V30 1462 H 128.275 -1.36283 2.94715 0
M  V30 1463 H 129.286 1.80436 4.85451 0
M  V30 1464 H 125.963 -0.669837 4.12092 0
M  V30 1465 H 127.353 2.86714 6.07655 0
M  V30 1466 N 130.073 -1.45103 0.615059 0
M  V30 1467 C 131.303 -2.06254 0.119596 0
M  V30 1468 C 131.711 -1.4591 -1.20445 0
M  V30 1469 O 131.054 -0.570384 -1.7462 0
M  V30 1470 C 131.116 -3.59396 -0.0865591 0
M  V30 1471 C 130.78 -4.42116 1.15683 0
M  V30 1472 C 131.777 -4.7662 2.07676 0
M  V30 1473 C 129.462 -4.82749 1.38775 0
M  V30 1474 C 131.456 -5.50622 3.21082 0
M  V30 1475 C 129.143 -5.56504 2.52481 0
M  V30 1476 C 130.141 -5.90358 3.43463 0
M  V30 1477 O 129.829 -6.62615 4.55189 0
M  V30 1478 H 129.561 -0.672423 0.0694512 0
M  V30 1479 H 132.115 -1.87219 0.844885 0
M  V30 1480 H 130.345 -3.76859 -0.866823 0
M  V30 1481 H 132.034 -4.02365 -0.534555 0
M  V30 1482 H 132.8 -4.4578 1.91063 0
M  V30 1483 H 128.679 -4.55829 0.688545 0
M  V30 1484 H 132.223 -5.76965 3.92119 0
M  V30 1485 H 128.12 -5.86759 2.69043 0
M  V30 1486 H 128.888 -6.81071 4.53966 0
M  V30 1487 N 131.551 -0.354651 -1.53558 0
M  V30 1488 C 132.514 0.484566 -2.24019 0
M  V30 1489 C 133.514 1.01861 -1.24422 0
M  V30 1490 O 134.704 0.906097 -1.4878 0
M  V30 1491 C 131.836 1.67615 -2.96847 0
M  V30 1492 H 133.029 -0.131843 -2.9961 0
M  V30 1493 H 130.582 -0.106165 -1.55939 0
M  V30 1494 H 131.317 2.33095 -2.25471 0
M  V30 1495 H 131.102 1.30029 -3.69912 0
M  V30 1496 H 132.592 2.27114 -3.50441 0
M  V30 1497 N 133.029 1.57378 -0.0835403 0
M  V30 1498 C 133.992 2.12252 0.864959 0
M  V30 1499 C 134.992 1.04916 1.21858 0
M  V30 1500 O 136.182 1.30853 1.14991 0
M  V30 1501 C 133.314 2.63358 2.16461 0
M  V30 1502 H 134.507 2.97371 0.388676 0
M  V30 1503 H 132.06 1.55423 0.165317 0
M  V30 1504 H 132.795 1.81727 2.686 0
M  V30 1505 H 132.58 3.41826 1.92087 0
M  V30 1506 H 134.07 3.05847 2.84337 0
M  V30 1507 N 134.507 -0.190092 1.56449 0
M  V30 1508 C 135.47 -1.21925 1.9408 0
M  V30 1509 C 136.47 -1.38176 0.822431 0
M  V30 1510 O 137.66 -1.35903 1.08977 0
M  V30 1511 C 134.792 -2.58773 2.21922 0
M  V30 1512 H 135.985 -0.897464 2.86157 0
M  V30 1513 H 133.538 -0.43181 1.50217 0
M  V30 1514 H 134.273 -2.95998 1.32499 0
M  V30 1515 H 134.058 -2.48348 3.03424 0
M  V30 1516 H 135.548 -3.32978 2.52022 0
M  V30 1517 N 135.985 -1.50799 -0.457987 0
M  V30 1518 C 136.917 -1.66786 -1.57211 0
M  V30 1519 C 137.93 -0.548962 -1.53265 0
M  V30 1520 O 139.119 -0.8226 -1.58416 0
M  V30 1521 C 136.219 -1.64834 -2.96113 0
M  V30 1522 C 135.392 -2.92971 -3.24787 0
M  V30 1523 C 134.451 -2.83485 -4.43309 0
M  V30 1524 O 133.477 -3.5744 -4.42973 0
M  V30 1525 N 134.679 -1.97929 -5.45714 0
M  V30 1526 H 137.444 -2.62889 -1.43909 0
M  V30 1527 H 135.005 -1.48427 -0.646617 0
M  V30 1528 H 136.997 -1.56084 -3.7339 0
M  V30 1529 H 135.567 -0.764118 -3.03117 0
M  V30 1530 H 134.787 -3.15749 -2.36 0
M  V30 1531 H 136.075 -3.77834 -3.40762 0
M  V30 1532 H 135.473 -1.37182 -5.48815 0
M  V30 1533 H 134.03 -1.95073 -6.21924 0
M  V30 1534 N 137.463 0.71206 -1.40597 0
M  V30 1535 C 138.709 1.47292 -1.40274 0
M  V30 1536 C 139.064 1.92399 -0.00576812 0
M  V30 1537 O 138.357 1.65507 0.965297 0
M  V30 1538 C 138.551 2.71039 -2.32965 0
M  V30 1539 C 138.38 2.38035 -3.81536 0
M  V30 1540 C 137.15 2.29203 -4.50327 0
M  V30 1541 C 139.348 2.02076 -4.72938 0
M  V30 1542 N 137.33 1.88911 -5.84111 0
M  V30 1543 C 138.701 1.72412 -5.95545 0
M  V30 1544 C 140.756 1.88742 -4.60739 0
M  V30 1545 C 139.459 1.30756 -7.07316 0
M  V30 1546 C 141.485 1.4849 -5.72455 0
M  V30 1547 C 140.847 1.19726 -6.94151 0
M  V30 1548 H 136.946 0.536919 -0.568544 0
M  V30 1549 H 139.53 0.825424 -1.76337 0
M  V30 1550 H 137.701 3.33533 -1.99023 0
M  V30 1551 H 139.433 3.37404 -2.23474 0
M  V30 1552 H 136.188 2.47059 -4.04053 0
M  V30 1553 H 136.612 1.71293 -6.54972 0
M  V30 1554 H 141.254 2.0964 -3.67166 0
M  V30 1555 H 138.972 1.08601 -8.00769 0
M  V30 1556 H 142.558 1.38747 -5.65014 0
M  V30 1557 H 141.438 0.890482 -7.79128 0
M  V30 1558 N 138.941 1.26152 0.944643 0
M  V30 1559 C 140.218 1.02247 1.66748 0
M  V30 1560 C 140.598 -0.448202 2.06287 0
M  V30 1561 O 139.946 -1.42779 1.78399 0
M  V30 1562 C 140.156 1.96788 2.88228 0
M  V30 1563 C 141.504 2.25201 3.59958 0
M  V30 1564 O 142.528 1.94626 2.98327 0
M  V30 1565 O 141.387 2.77242 4.70956 0
M  V30 1566 H 138.481 0.388517 0.730057 0
M  V30 1567 H 141.027 1.37348 0.99668 0
M  V30 1568 H 139.799 2.96047 2.55875 0
M  V30 1569 H 139.422 1.62145 3.63035 0
M  V30 1570 N 140.419 -1.14872 1.07899 0
M  V30 1571 C 141.666 -1.85789 0.805532 0
M  V30 1572 C 141.994 -1.82649 -0.668561 0
M  V30 1573 O 141.249 -1.24858 -1.50695 0
M  V30 1574 C 141.548 -3.34223 1.26609 0
M  V30 1575 C 141.214 -3.57555 2.74709 0
M  V30 1576 C 139.876 -3.63631 3.1516 0
M  V30 1577 C 142.228 -3.66803 3.70277 0
M  V30 1578 C 139.556 -3.76473 4.49983 0
M  V30 1579 C 141.908 -3.8117 5.04869 0
M  V30 1580 C 140.572 -3.85494 5.44932 0
M  V30 1581 H 139.842 -0.679849 0.294765 0
M  V30 1582 H 142.489 -1.3572 1.35101 0
M  V30 1583 H 140.794 -3.86536 0.640103 0
M  V30 1584 H 142.491 -3.87511 1.03132 0
M  V30 1585 H 139.081 -3.5347 2.42398 0
M  V30 1586 H 143.265 -3.61404 3.40149 0
M  V30 1587 H 138.521 -3.7808 4.80484 0
M  V30 1588 H 142.695 -3.87268 5.78789 0
M  V30 1589 H 140.322 -3.95197 6.49403 0
M  V30 1590 N 141.898 -0.863906 -1.31812 0
M  V30 1591 C 143.146 -0.470904 -1.96537 0
M  V30 1592 C 143.467 0.978771 -1.68657 0
M  V30 1593 O 142.737 1.6853 -0.998717 0
M  V30 1594 H 141.317 -0.171148 -0.72713 0
M  V30 1595 H 143.979 -1.10236 -1.60729 0
M  V30 1596 H 143.075 -0.623616 -3.05806 0
M  V30 1597 N 143.376 1.44774 -0.622745 0
M  V30 1598 C 144.324 2.32387 0.0994683 0
M  V30 1599 C 145.318 1.46859 0.844326 0
M  V30 1600 O 146.524 1.63254 0.758174 0
M  V30 1601 H 142.899 0.750273 0.0509291 0
M  V30 1602 H 144.87 2.91062 -0.65767 0
M  V30 1603 C 143.619 3.30723 1.07319 0
M  V30 1604 H 142.942 3.96541 0.509462 0
M  V30 1605 H 144.382 3.94725 1.54817 0
M  V30 1606 C 142.841 2.59021 2.15429 0
M  V30 1607 O 143.371 2.38286 3.23393 0
M  V30 1608 N 141.577 2.189 1.91131 0
M  V30 1609 H 141.124 2.35964 1.03337 0
M  V30 1610 H 141.082 1.71251 2.63668 0
M  V30 1611 N 144.854 0.36279 1.53368 0
M  V30 1612 C 146.082 -0.228613 2.05633 0
M  V30 1613 C 146.497 -1.42676 1.23649 0
M  V30 1614 O 145.854 -1.80394 0.27647 0
M  V30 1615 C 145.905 -0.624845 3.56059 0
M  V30 1616 O 145.626 0.525675 4.34935 0
M  V30 1617 C 147.127 -1.27493 4.24571 0
M  V30 1618 H 144.347 -0.0407183 0.669763 0
M  V30 1619 H 146.891 0.520352 1.97769 0
M  V30 1620 H 145.046 -1.32373 3.64083 0
M  V30 1621 H 145.46 0.205969 5.24095 0
M  V30 1622 H 146.934 -1.50277 5.31151 0
M  V30 1623 H 147.411 -2.23439 3.78116 0
M  V30 1624 H 148.017 -0.617558 4.20792 0
M  V30 1625 N 146.332 -1.57332 0.0918853 0
M  V30 1626 C 147.265 -2.09499 -0.904735 0
M  V30 1627 C 148.243 -1.00479 -1.27839 0
M  V30 1628 O 149.427 -1.27954 -1.38419 0
M  V30 1629 C 146.554 -2.56931 -2.2069 0
M  V30 1630 C 145.6 -3.77579 -1.98334 0
M  V30 1631 S 146.433 -5.21317 -1.22428 0
M  V30 1632 C 147.589 -5.72097 -2.53882 0
M  V30 1633 H 147.822 -2.93705 -0.460922 0
M  V30 1634 H 145.355 -1.53923 -0.121332 0
M  V30 1635 H 147.313 -2.84917 -2.95521 0
M  V30 1636 H 145.974 -1.72956 -2.62192 0
M  V30 1637 H 145.167 -4.08824 -2.94752 0
M  V30 1638 H 144.769 -3.5007 -1.31633 0
M  V30 1639 H 147.061 -5.80168 -3.49874 0
M  V30 1640 H 148.004 -6.70654 -2.27219 0
M  V30 1641 H 148.412 -5.00012 -2.62007 0
M  V30 1642 N 147.81 0.181792 -1.56548 0
M  V30 1643 C 149.05 0.906711 -1.83189 0
M  V30 1644 C 149.414 1.79882 -0.671312 0
M  V30 1645 O 150.615 2.56054 -0.81792 0
M  V30 1646 C 148.886 1.69023 -3.14906 0
M  V30 1647 S 150.445 2.46535 -3.62996 0
M  V30 1648 H 147.263 0.303877 -0.642791 0
M  V30 1649 H 149.865 0.169107 -1.94767 0
M  V30 1650 H 148.569 1.02571 -3.97376 0
M  V30 1651 H 148.1 2.46941 -3.06241 0
M  V30 1652 H 150.115 3.71014 -3.29489 0
M  V30 1653 N 149.288 1.51039 0.449983 0
M  V30 1654 C 150.22 1.67617 1.56324 0
M  V30 1655 C 151.233 0.557083 1.52972 0
M  V30 1656 O 152.422 0.830989 1.57977 0
M  V30 1657 C 149.522 1.66402 2.95235 0
M  V30 1658 C 148.695 2.9469 3.23229 0
M  V30 1659 C 147.754 2.85832 4.41799 0
M  V30 1660 O 146.78 3.59785 4.41071 0
M  V30 1661 N 147.982 2.00821 5.44657 0
M  V30 1662 H 150.747 2.63648 1.42512 0
M  V30 1663 H 148.308 1.48767 0.638737 0
M  V30 1664 H 150.3 1.58062 3.72557 0
M  V30 1665 H 148.87 0.780182 3.02708 0
M  V30 1666 H 148.09 3.16996 2.34323 0
M  V30 1667 H 149.378 3.79636 3.38754 0
M  V30 1668 H 148.776 1.40091 5.48079 0
M  V30 1669 H 147.333 1.98368 6.20881 0
M  V30 1670 N 150.766 -0.704594 1.40972 0
M  V30 1671 C 151.696 -1.83124 1.44872 0
M  V30 1672 C 152.677 -1.67281 0.30838 0
M  V30 1673 O 153.862 -1.87149 0.518556 0
M  V30 1674 C 150.992 -3.21181 1.32136 0
M  V30 1675 C 149.946 -3.51714 2.43888 0
M  V30 1676 C 149.272 -4.89032 2.16222 0
M  V30 1677 C 150.572 -3.516 3.86232 0
M  V30 1678 H 152.266 -1.80117 2.39161 0
M  V30 1679 H 149.812 -0.865145 1.15114 0
M  V30 1680 H 151.765 -3.99702 1.33479 0
M  V30 1681 H 150.489 -3.24791 0.343279 0
M  V30 1682 H 149.148 -2.75539 2.41813 0
M  V30 1683 H 148.796 -4.89256 1.16778 0
M  V30 1684 H 148.496 -5.10426 2.911 0
M  V30 1685 H 150.02 -5.69873 2.19265 0
M  V30 1686 H 151.434 -4.2014 3.9007 0
M  V30 1687 H 149.831 -3.84523 4.60719 0
M  V30 1688 H 150.901 -2.50757 4.15029 0
M  V30 1689 N 152.244 -1.26651 -0.937939 0
M  V30 1690 C 153.174 -1.10993 -2.05433 0
M  V30 1691 C 154.155 -0.0142161 -1.70094 0
M  V30 1692 O 155.34 -0.186837 -1.93299 0
M  V30 1693 C 152.47 -0.745561 -3.39203 0
M  V30 1694 C 151.424 -1.79337 -3.88616 0
M  V30 1695 C 150.75 -1.28324 -5.19073 0
M  V30 1696 C 152.05 -3.19553 -4.13138 0
M  V30 1697 H 153.744 -2.0438 -2.1879 0
M  V30 1698 H 151.29 -0.984041 -1.05131 0
M  V30 1699 H 153.243 -0.622888 -4.16771 0
M  V30 1700 H 151.967 0.22401 -3.25831 0
M  V30 1701 H 150.626 -1.90477 -3.13231 0
M  V30 1702 H 150.274 -0.303414 -5.02084 0
M  V30 1703 H 149.974 -1.98369 -5.53103 0
M  V30 1704 H 151.498 -1.1733 -5.99221 0
M  V30 1705 H 152.912 -3.11471 -4.81309 0
M  V30 1706 H 151.309 -3.87218 -4.58457 0
M  V30 1707 H 152.379 -3.65368 -3.18801 0
M  V30 1708 N 153.722 1.14298 -1.08507 0
M  V30 1709 C 154.95 1.89219 -0.836876 0
M  V30 1710 C 155.365 1.78638 0.611054 0
M  V30 1711 O 154.722 1.14643 1.41998 0
M  V30 1712 C 154.773 3.39158 -1.25116 0
M  V30 1713 O 154.494 3.49449 -2.64229 0
M  V30 1714 C 155.995 4.31073 -1.03398 0
M  V30 1715 H 153.215 0.599328 -0.301739 0
M  V30 1716 H 155.759 1.44746 -1.44461 0
M  V30 1717 H 153.914 3.81251 -0.687514 0
M  V30 1718 H 154.328 4.42589 -2.81452 0
M  V30 1719 H 155.802 5.34646 -1.37323 0
M  V30 1720 H 156.279 4.3919 0.0289259 0
M  V30 1721 H 156.885 3.94738 -1.58311 0
M  V30 1722 N 155.201 0.870884 1.31352 0
M  V30 1723 C 156.449 0.48132 1.96285 0
M  V30 1724 C 156.77 -0.969813 1.69173 0
M  V30 1725 O 156.04 -1.67998 1.00764 0
M  V30 1726 H 154.62 0.175002 0.726212 0
M  V30 1727 H 157.282 1.11087 1.60143 0
M  V30 1728 H 156.378 0.639825 3.05471 0
M  V30 1729 N 156.679 -1.44442 0.630414 0
M  V30 1730 C 157.609 -2.33418 -0.0618083 0
M  V30 1731 C 158.59 -1.48165 -0.835541 0
M  V30 1732 O 159.775 -1.76886 -0.801564 0
M  V30 1733 C 156.905 -3.31222 -1.04449 0
M  V30 1734 C 155.859 -4.26288 -0.382436 0
M  V30 1735 C 155.185 -5.13954 -1.47497 0
M  V30 1736 C 156.485 -5.1744 0.710865 0
M  V30 1737 H 158.179 -2.91548 0.681184 0
M  V30 1738 H 155.725 -1.40191 0.329026 0
M  V30 1739 H 157.678 -3.92351 -1.53748 0
M  V30 1740 H 156.402 -2.71299 -1.81836 0
M  V30 1741 H 155.061 -3.6649 0.0899054 0
M  V30 1742 H 154.709 -4.50385 -2.2397 0
M  V30 1743 H 154.409 -5.7837 -1.03737 0
M  V30 1744 H 155.933 -5.77955 -1.96979 0
M  V30 1745 H 157.347 -5.72509 0.300996 0
M  V30 1746 H 155.744 -5.90455 1.07156 0
M  V30 1747 H 156.814 -4.58496 1.57829 0
M  V30 1748 N 158.157 -0.370918 -1.53173 0
M  V30 1749 C 159.387 0.217389 -2.05453 0
M  V30 1750 C 159.795 1.42568 -1.24382 0
M  V30 1751 O 159.138 1.81571 -0.278839 0
M  V30 1752 C 159.2 0.669827 -3.53205 0
M  V30 1753 C 158.864 -0.4225 -4.55043 0
M  V30 1754 C 159.861 -1.27407 -5.04047 0
M  V30 1755 C 157.546 -0.58427 -4.9889 0
M  V30 1756 C 159.54 -2.27271 -5.95505 0
M  V30 1757 C 157.227 -1.58627 -5.90153 0
M  V30 1758 C 158.225 -2.42892 -6.38351 0
M  V30 1759 O 157.913 -3.41382 -7.27814 0
M  V30 1760 H 157.645 0.0408171 -0.674767 0
M  V30 1761 H 160.199 -0.5292 -1.98466 0
M  V30 1762 H 158.429 1.4681 -3.57748 0
M  V30 1763 H 160.118 1.18173 -3.88317 0
M  V30 1764 H 160.884 -1.16031 -4.70916 0
M  V30 1765 H 156.763 0.061851 -4.60959 0
M  V30 1766 H 160.307 -2.93079 -6.33049 0
M  V30 1767 H 156.204 -1.70048 -6.22699 0
M  V30 1768 H 156.972 -3.37173 -7.45826 0
M  V30 1769 N 159.635 1.57281 -0.100228 0
M  V30 1770 C 160.882 1.94537 0.562268 0
M  V30 1771 C 161.21 0.982315 1.67871 0
M  V30 1772 O 160.465 0.00280936 1.957 0
M  V30 1773 C 160.764 3.38305 1.15259 0
M  V30 1774 C 160.43 4.50618 0.159409 0
M  V30 1775 C 159.092 4.81066 -0.113741 0
M  V30 1776 C 161.444 5.18615 -0.518461 0
M  V30 1777 C 158.772 5.76835 -1.07137 0
M  V30 1778 C 161.124 6.15412 -1.46459 0
M  V30 1779 C 159.788 6.44262 -1.74592 0
M  V30 1780 H 159.058 0.711863 0.205748 0
M  V30 1781 H 161.705 1.90679 -0.17715 0
M  V30 1782 H 160.01 3.38766 1.96836 0
M  V30 1783 H 161.707 3.64435 1.67297 0
M  V30 1784 H 158.297 4.2689 0.382491 0
M  V30 1785 H 162.481 4.95264 -0.320581 0
M  V30 1786 H 157.737 5.975 -1.29628 0
M  V30 1787 H 161.911 6.67194 -1.99564 0
M  V30 1788 H 159.538 7.1828 -2.48953 0
M  V30 1789 N 161.113 -0.173488 1.56642 0
M  V30 1790 C 162.362 -0.888758 1.81063 0
M  V30 1791 C 162.675 -1.83506 0.67712 0
M  V30 1792 O 163.881 -2.59254 0.806206 0
M  V30 1793 C 162.337 -1.63091 3.20826 0
M  V30 1794 C 161.945 -0.728357 4.4204 0
M  V30 1795 C 163.689 -2.33454 3.54541 0
M  V30 1796 C 161.596 -1.47062 5.72823 0
M  V30 1797 H 160.526 -0.335618 0.675186 0
M  V30 1798 H 163.177 -0.141712 1.82952 0
M  V30 1799 H 161.559 -2.42263 3.13248 0
M  V30 1800 H 162.733 0.0262449 4.60793 0
M  V30 1801 H 161.048 -0.134492 4.16183 0
M  V30 1802 H 163.645 -2.89578 4.49498 0
M  V30 1803 H 163.988 -3.08687 2.79317 0
M  V30 1804 H 164.521 -1.61227 3.63663 0
M  V30 1805 H 161.26 -0.760658 6.51072 0
M  V30 1806 H 160.78 -2.1986 5.58052 0
M  V30 1807 H 162.459 -2.01868 6.14702 0
M  V30 1808 N 162.591 -1.51276 -0.441967 0
M  V30 1809 C 163.839 -1.63392 -1.18943 0
M  V30 1810 C 164.16 -0.350159 -1.9183 0
M  V30 1811 O 163.43 0.633784 -1.85364 0
M  V30 1812 H 162.01 -0.602164 -0.442049 0
M  V30 1813 H 164.672 -1.88186 -0.507165 0
M  V30 1814 H 163.768 -2.45934 -1.92154 0
M  V30 1815 N 164.069 0.697108 -1.41344 0
M  V30 1816 C 165.316 1.45714 -1.40619 0
M  V30 1817 C 165.644 1.94494 -0.0147907 0
M  V30 1818 O 164.899 1.69794 0.973066 0
M  V30 1819 C 165.198 2.68553 -2.35826 0
M  V30 1820 C 164.864 2.38438 -3.82698 0
M  V30 1821 C 163.526 2.29936 -4.22709 0
M  V30 1822 C 165.878 2.13567 -4.75435 0
M  V30 1823 C 163.206 1.94656 -5.53467 0
M  V30 1824 C 165.558 1.79797 -6.06511 0
M  V30 1825 C 164.222 1.69789 -6.45545 0
M  V30 1826 H 163.492 0.533206 -0.51456 0
M  V30 1827 H 166.139 0.796901 -1.74131 0
M  V30 1828 H 164.444 3.39503 -1.95563 0
M  V30 1829 H 166.141 3.2669 -2.32539 0
M  V30 1830 H 162.731 2.4595 -3.51008 0
M  V30 1831 H 166.915 2.19082 -4.45328 0
M  V30 1832 H 162.171 1.8546 -5.82593 0
M  V30 1833 H 166.345 1.59572 -6.77872 0
M  V30 1834 H 163.972 1.4222 -7.46778 0
M  V30 1835 N 165.547 1.27147 0.931209 0
M  V30 1836 C 166.794 1.13278 1.67852 0
M  V30 1837 C 167.122 -0.32204 1.91815 0
M  V30 1838 O 166.377 -1.25224 1.50391 0
M  V30 1839 C 166.676 1.8579 3.05314 0
M  V30 1840 C 166.342 3.35657 3.01073 0
M  V30 1841 C 165.004 3.76536 2.99623 0
M  V30 1842 C 167.356 4.31299 2.92627 0
M  V30 1843 C 164.684 5.11426 2.87506 0
M  V30 1844 C 167.036 5.66242 2.82051 0
M  V30 1845 C 165.7 6.06418 2.7895 0
M  V30 1846 H 164.97 0.414515 0.614214 0
M  V30 1847 H 167.617 1.57712 1.08624 0
M  V30 1848 H 165.922 1.33854 3.68226 0
M  V30 1849 H 167.619 1.72491 3.62005 0
M  V30 1850 H 164.209 3.03146 3.02986 0
M  V30 1851 H 168.393 4.00692 2.92848 0
M  V30 1852 H 163.649 5.41705 2.83489 0
M  V30 1853 H 167.823 6.40026 2.74481 0
M  V30 1854 H 165.45 7.10895 2.69318 0
M  V30 1855 N 167.025 -1.13721 1.09112 0
M  V30 1856 C 168.25 -1.89314 0.847053 0
M  V30 1857 C 168.675 -1.78416 -0.595774 0
M  V30 1858 O 168.033 -1.12942 -1.41823 0
M  V30 1859 C 168.081 -3.3701 1.28284 0
M  V30 1860 O 167.185 -4.10054 0.439267 0
M  V30 1861 H 166.526 -0.588745 0.307044 0
M  V30 1862 H 169.056 -1.43902 1.45442 0
M  V30 1863 H 169.066 -3.87834 1.26683 0
M  V30 1864 H 167.741 -3.4426 2.33363 0
M  V30 1865 H 166.318 -3.69266 0.519312 0
M  V30 1866 N 168.503 -0.877838 -1.30888 0
M  V30 1867 C 169.751 -0.491723 -1.96027 0
M  V30 1868 C 170.072 0.960827 -1.69685 0
M  V30 1869 O 169.342 1.67462 -1.01654 0
M  V30 1870 H 167.922 -0.17885 -0.725273 0
M  V30 1871 H 170.584 -1.11935 -1.59551 0
M  V30 1872 H 169.68 -0.656016 -3.05128 0
M  V30 1873 N 169.982 1.44106 -0.638065 0
M  V30 1874 C 171.231 2.01194 -0.142744 0
M  V30 1875 C 171.544 1.50835 1.24532 0
M  V30 1876 O 172.75 2.00096 1.83504 0
M  V30 1877 C 171.206 3.59319 -0.20442 0
M  V30 1878 C 170.814 4.18674 -1.59423 0
M  V30 1879 C 172.558 4.23854 0.234079 0
M  V30 1880 C 170.465 5.69045 -1.61065 0
M  V30 1881 H 169.395 0.752367 -0.0495998 0
M  V30 1882 H 172.046 1.65246 -0.797881 0
M  V30 1883 H 170.428 3.92598 0.517946 0
M  V30 1884 H 171.602 3.96921 -2.34074 0
M  V30 1885 H 169.917 3.66453 -1.97741 0
M  V30 1886 H 172.514 5.34155 0.241443 0
M  V30 1887 H 172.857 3.96688 1.2627 0
M  V30 1888 H 173.39 3.95403 -0.436025 0
M  V30 1889 H 170.129 6.00956 -2.61787 0
M  V30 1890 H 169.649 5.929 -0.90718 0
M  V30 1891 H 171.328 6.32809 -1.34766 0
M  V30 1892 N 171.46 0.379036 1.52974 0
M  V30 1893 C 172.707 -0.206421 2.01445 0
M  V30 1894 C 173.035 -1.47668 1.26587 0
M  V30 1895 O 172.29 -1.92514 0.351675 0
M  V30 1896 C 172.589 -0.53096 3.53434 0
M  V30 1897 C 172.255 0.646546 4.46241 0
M  V30 1898 C 170.917 0.969604 4.7133 0
M  V30 1899 C 173.269 1.43479 5.01062 0
M  V30 1900 C 170.597 2.08263 5.48492 0
M  V30 1901 C 172.949 2.53834 5.7944 0
M  V30 1902 C 171.613 2.86659 6.02812 0
M  V30 1903 H 170.883 -0.0755349 0.73714 0
M  V30 1904 H 173.53 0.514271 1.84465 0
M  V30 1905 H 171.835 -1.33285 3.68432 0
M  V30 1906 H 173.532 -0.996417 3.88423 0
M  V30 1907 H 170.122 0.384734 4.2687 0
M  V30 1908 H 174.306 1.19844 4.81613 0
M  V30 1909 H 169.562 2.34078 5.64816 0
M  V30 1910 H 173.736 3.15319 6.20924 0
M  V30 1911 H 171.363 3.73026 6.62387 0
M  V30 1912 N 172.938 -1.57226 0.108567 0
M  V30 1913 C 174.185 -1.94833 -0.551943 0
M  V30 1914 C 174.513 -0.991204 -1.67348 0
M  V30 1915 O 173.768 -0.0131878 -1.95696 0
M  V30 1916 C 174.067 -3.38911 -1.13463 0
M  V30 1917 C 173.733 -4.50696 -0.135509 0
M  V30 1918 C 172.395 -4.80998 0.139252 0
M  V30 1919 C 174.747 -5.18333 0.545957 0
M  V30 1920 C 172.075 -5.76259 1.10194 0
M  V30 1921 C 174.427 -6.14627 1.49721 0
M  V30 1922 C 173.091 -6.43327 1.78006 0
M  V30 1923 H 172.361 -0.712944 -0.20197 0
M  V30 1924 H 175.008 -1.90582 0.18726 0
M  V30 1925 H 173.313 -3.39805 -1.95037 0
M  V30 1926 H 175.01 -3.65317 -1.65362 0
M  V30 1927 H 171.6 -4.27087 -0.359846 0
M  V30 1928 H 175.784 -4.95087 0.346842 0
M  V30 1929 H 171.04 -5.96804 1.32795 0
M  V30 1930 H 175.214 -6.66126 2.03099 0
M  V30 1931 H 172.841 -7.1695 2.52759 0
M  V30 1932 N 174.416 0.165178 -1.56732 0
M  V30 1933 C 175.665 0.879143 -1.81532 0
M  V30 1934 C 175.978 1.83144 -0.686842 0
M  V30 1935 O 177.184 2.58823 -0.819944 0
M  V30 1936 C 175.64 1.61388 -3.21686 0
M  V30 1937 C 175.248 0.704904 -4.4242 0
M  V30 1938 C 176.992 2.3157 -3.55774 0
M  V30 1939 C 174.899 1.44022 -5.73595 0
M  V30 1940 H 173.829 0.332033 -0.676957 0
M  V30 1941 H 176.48 0.132008 -1.83025 0
M  V30 1942 H 174.862 2.40599 -3.14529 0
M  V30 1943 H 176.036 -0.0506815 -4.60772 0
M  V30 1944 H 174.351 0.112419 -4.16248 0
M  V30 1945 H 176.948 2.8719 -4.51028 0
M  V30 1946 H 177.291 3.07201 -2.8095 0
M  V30 1947 H 177.824 1.59297 -3.64513 0
M  V30 1948 H 174.563 0.72612 -6.51466 0
M  V30 1949 H 174.083 2.16898 -5.5921 0
M  V30 1950 H 175.762 1.98606 -6.15764 0
M  V30 1951 N 175.894 1.51508 0.433938 0
M  V30 1952 C 177.143 1.63578 1.18005 0
M  V30 1953 C 177.456 0.359514 1.92268 0
M  V30 1954 O 178.662 0.359632 2.69108 0
M  V30 1955 C 177.118 2.88901 2.14626 0
M  V30 1956 C 176.726 4.23544 1.45995 0
M  V30 1957 C 178.47 3.10328 2.89649 0
M  V30 1958 C 176.377 5.40014 2.4112 0
M  V30 1959 H 175.307 0.609277 0.444182 0
M  V30 1960 H 177.958 1.77978 0.446773 0
M  V30 1961 H 176.34 2.68142 2.91403 0
M  V30 1962 H 177.514 4.54696 0.747532 0
M  V30 1963 H 175.829 4.08021 0.831115 0
M  V30 1964 H 178.426 3.94518 3.60915 0
M  V30 1965 H 178.769 2.23544 3.51189 0
M  V30 1966 H 179.302 3.31443 2.19978 0
M  V30 1967 H 176.041 6.29068 1.84264 0
M  V30 1968 H 175.561 5.13233 3.10406 0
M  V30 1969 H 177.24 5.72099 3.02177 0
M  V30 1970 N 177.372 -0.689602 1.41712 0
M  V30 1971 C 178.302 -1.81577 1.46806 0
M  V30 1972 C 179.283 -1.66945 0.326105 0
M  V30 1973 O 180.468 -1.86588 0.538377 0
M  V30 1974 C 177.598 -3.19762 1.35535 0
M  V30 1975 C 176.552 -3.49107 2.47605 0
M  V30 1976 C 175.878 -4.86711 2.21397 0
M  V30 1977 C 177.178 -3.47483 3.89939 0
M  V30 1978 H 178.872 -1.7757 2.41058 0
M  V30 1979 H 176.418 -0.852887 1.16025 0
M  V30 1980 H 178.371 -3.98263 1.3771 0
M  V30 1981 H 177.095 -3.24409 0.377708 0
M  V30 1982 H 175.754 -2.72959 2.44722 0
M  V30 1983 H 175.402 -4.8799 1.21961 0
M  V30 1984 H 175.102 -5.0731 2.96497 0
M  V30 1985 H 176.626 -5.67515 2.25297 0
M  V30 1986 H 178.04 -4.1598 3.94505 0
M  V30 1987 H 176.437 -3.79615 4.64771 0
M  V30 1988 H 177.507 -2.46341 4.17665 0
M  V30 1989 N 178.85 -1.27639 -0.924453 0
M  V30 1990 C 179.78 -1.13166 -2.04244 0
M  V30 1991 C 180.761 -0.032256 -1.70069 0
M  V30 1992 O 181.946 -0.207328 -1.9309 0
M  V30 1993 C 179.076 -0.781496 -3.38393 0
M  V30 1994 C 178.03 -1.83449 -3.86692 0
M  V30 1995 C 177.356 -1.33822 -5.17683 0
M  V30 1996 C 178.656 -3.23917 -4.09726 0
M  V30 1997 H 180.35 -2.06689 -2.1661 0
M  V30 1998 H 177.896 -0.995136 -1.04082 0
M  V30 1999 H 179.849 -0.667057 -4.16087 0
M  V30 2000 H 178.573 0.189439 -3.2605 0
M  V30 2001 H 177.232 -1.93789 -3.11193 0
M  V30 2002 H 176.88 -0.35665 -5.01734 0
M  V30 2003 H 176.58 -2.04224 -5.50968 0
M  V30 2004 H 178.104 -1.23679 -5.97943 0
M  V30 2005 H 179.518 -3.16559 -4.77978 0
M  V30 2006 H 177.915 -3.92059 -4.54324 0
M  V30 2007 H 178.985 -3.68729 -3.14908 0
M  V30 2008 N 180.328 1.1314 -1.09713 0
M  V30 2009 C 181.556 1.88321 -0.856898 0
M  V30 2010 C 181.971 1.79276 0.592073 0
M  V30 2011 O 181.328 1.16142 1.40774 0
M  V30 2012 C 181.379 3.37812 -1.28706 0
M  V30 2013 O 181.1 3.46627 -2.67921 0
M  V30 2014 C 182.601 4.29952 -1.07964 0
M  V30 2015 H 179.821 0.596094 -0.308079 0
M  V30 2016 H 182.365 1.43205 -1.45988 0
M  V30 2017 H 180.52 3.805 -0.727912 0
M  V30 2018 H 180.934 4.39579 -2.8613 0
M  V30 2019 H 182.408 5.33159 -1.42986 0
M  V30 2020 H 182.885 4.39196 -0.0176577 0
M  V30 2021 H 183.491 3.93036 -1.62489 0
M  V30 2022 N 181.806 0.884767 1.30421 0
M  V30 2023 C 183.055 0.499164 1.95426 0
M  V30 2024 C 183.368 -0.95645 1.70621 0
M  V30 2025 O 184.574 -1.44889 2.29607 0
M  V30 2026 C 183.03 0.84177 3.49917 0
M  V30 2027 C 182.638 2.31514 3.83543 0
M  V30 2028 C 184.382 0.525355 4.21237 0
M  V30 2029 C 182.289 2.59939 5.31212 0
M  V30 2030 H 181.219 0.182944 0.73147 0
M  V30 2031 H 183.87 1.07971 1.48373 0
M  V30 2032 H 182.252 0.190311 3.95542 0
M  V30 2033 H 183.426 3.0109 3.48829 0
M  V30 2034 H 181.741 2.59907 3.25326 0
M  V30 2035 H 184.338 0.714762 5.29901 0
M  V30 2036 H 184.681 -0.535222 4.12845 0
M  V30 2037 H 185.214 1.134 3.81294 0
M  V30 2038 H 181.953 3.64736 5.44654 0
M  V30 2039 H 181.473 1.94972 5.67227 0
M  V30 2040 H 183.152 2.45429 5.98643 0
M  V30 2041 N 183.284 -1.43765 0.645699 0
M  V30 2042 C 184.561 -1.9541 0.0862963 0
M  V30 2043 C 184.941 -1.58725 -1.39175 0
M  V30 2044 O 184.289 -0.868581 -2.11348 0
M  V30 2045 C 184.499 -3.47488 0.324565 0
M  V30 2046 C 185.847 -4.24001 0.225497 0
M  V30 2047 O 186.871 -3.55274 0.256715 0
M  V30 2048 O 185.73 -5.46313 0.142801 0
M  V30 2049 H 182.824 -0.826882 -0.0139483 0
M  V30 2050 H 185.37 -1.53743 0.718415 0
M  V30 2051 H 184.142 -3.67289 1.3496 0
M  V30 2052 H 183.765 -3.96135 -0.340987 0
M  V30 2053 N 184.763 -0.387143 -1.52771 0
M  V30 2054 C 186.179 -0.037007 -1.59557 0
M  V30 2055 C 186.379 1.44801 -1.40124 0
M  V30 2056 O 185.435 2.21227 -1.21716 0
M  V30 2057 C 186.748 -0.512256 -2.96305 0
M  V30 2058 C 188.296 -0.468328 -3.09476 0
M  V30 2059 C 188.771 -0.919731 -4.4867 0
M  V30 2060 N 190.262 -0.875656 -4.54848 0
M  V30 2061 C 190.997 -1.19637 -5.6078 0
M  V30 2062 N 190.493 -1.58745 -6.74368 0
M  V30 2063 N 192.286 -1.11776 -5.50874 0
M  V30 2064 H 184.437 -1.35395 -1.63652 0
M  V30 2065 H 186.7 -0.554818 -0.768688 0
M  V30 2066 H 186.406 -1.54935 -3.15734 0
M  V30 2067 H 186.28 0.089805 -3.77093 0
M  V30 2068 H 188.667 0.559671 -2.89744 0
M  V30 2069 H 188.748 -1.10616 -2.30646 0
M  V30 2070 H 188.392 -1.94595 -4.69143 0
M  V30 2071 H 188.322 -0.258927 -5.25963 0
M  V30 2072 H 190.813 -0.587843 -3.733 0
M  V30 2073 H 191.126 -1.81586 -7.51163 0
M  V30 2074 H 189.471 -1.6263 -6.75705 0
M  V30 2075 H 192.662 -0.811264 -4.61016 0
M  V30 2076 H 192.835 -1.37103 -6.3333 0
M  V30 2077 N 186.241 1.57166 -0.116904 0
M  V30 2078 C 187.471 1.99184 0.548586 0
M  V30 2079 C 187.879 0.995436 1.60897 0
M  V30 2080 O 187.222 -0.0201293 1.83689 0
M  V30 2081 C 187.284 3.37611 1.23526 0
M  V30 2082 C 186.948 4.55857 0.323077 0
M  V30 2083 C 187.945 5.18056 -0.437476 0
M  V30 2084 C 185.63 5.01751 0.234761 0
M  V30 2085 C 187.624 6.24536 -1.2741 0
M  V30 2086 C 185.311 6.08093 -0.605496 0
M  V30 2087 C 186.309 6.69352 -1.35856 0
M  V30 2088 O 185.997 7.7364 -2.18487 0
M  V30 2089 H 185.729 0.659148 0.149999 0
M  V30 2090 H 188.283 2.0443 -0.199428 0
M  V30 2091 H 186.513 3.29113 2.0303 0
M  V30 2092 H 188.202 3.63932 1.79745 0
M  V30 2093 H 188.968 4.83516 -0.379105 0
M  V30 2094 H 184.847 4.53817 0.810601 0
M  V30 2095 H 188.391 6.72281 -1.86237 0
M  V30 2096 H 184.288 6.42063 -0.665268 0
M  V30 2097 H 185.056 7.90727 -2.11406 0
M  V30 2098 N 187.719 -0.156864 1.56817 0
M  V30 2099 C 188.649 -1.19589 2.00551 0
M  V30 2100 C 189.63 -1.4536 0.883426 0
M  V30 2101 O 190.815 -1.56449 1.15054 0
M  V30 2102 C 187.945 -2.53143 2.37773 0
M  V30 2103 C 186.899 -2.41913 3.53075 0
M  V30 2104 C 186.225 -3.80088 3.76081 0
M  V30 2105 C 187.525 -1.91157 4.86062 0
M  V30 2106 H 189.219 -0.832293 2.87599 0
M  V30 2107 H 186.765 -0.398918 1.38364 0
M  V30 2108 H 188.718 -3.26047 2.66967 0
M  V30 2109 H 187.442 -2.91319 1.4765 0
M  V30 2110 H 186.101 -1.71462 3.24031 0
M  V30 2111 H 185.749 -4.15683 2.83225 0
M  V30 2112 H 185.449 -3.73439 4.53671 0
M  V30 2113 H 186.973 -4.54556 4.0769 0
M  V30 2114 H 188.387 -2.53846 5.14038 0
M  V30 2115 H 186.784 -1.95422 5.67389 0
M  V30 2116 H 187.854 -0.866673 4.77092 0
M  V30 2117 N 189.197 -1.51736 -0.425897 0
M  V30 2118 C 190.16 -1.73271 -1.50032 0
M  V30 2119 C 191.16 -0.602639 -1.4908 0
M  V30 2120 O 192.35 -0.87033 -1.509 0
M  V30 2121 C 189.482 -1.79969 -2.89523 0
M  V30 2122 H 190.675 -2.69172 -1.32237 0
M  V30 2123 H 188.228 -1.41899 -0.65532 0
M  V30 2124 H 188.963 -0.859241 -3.1271 0
M  V30 2125 H 188.748 -2.62109 -2.91619 0
M  V30 2126 H 190.238 -1.9843 -3.67444 0
M  V30 2127 N 190.675 0.682077 -1.42076 0
M  V30 2128 C 191.921 1.44428 -1.42367 0
M  V30 2129 C 192.254 1.94164 -0.0373056 0
M  V30 2130 O 191.529 1.70429 0.937239 0
M  V30 2131 C 191.812 2.64654 -2.44194 0
M  V30 2132 C 191.665 2.20596 -3.91991 0
M  V30 2133 C 192.984 3.66865 -2.431 0
M  V30 2134 H 190.103 0.523834 -0.518428 0
M  V30 2135 H 192.745 0.77576 -1.73442 0
M  V30 2136 H 190.895 3.2169 -2.17826 0
M  V30 2137 H 192.567 1.68783 -4.29313 0
M  V30 2138 H 190.81 1.52242 -4.06208 0
M  V30 2139 H 191.481 3.06921 -4.58807 0
M  V30 2140 H 193.957 3.19531 -2.66532 0
M  V30 2141 H 192.833 4.48577 -3.16339 0
M  V30 2142 H 193.094 4.17493 -1.45437 0
M  V30 2143 N 192.153 1.28127 0.917671 0
M  V30 2144 C 193.399 1.15223 1.66888 0
M  V30 2145 C 193.732 -0.299293 1.9188 0
M  V30 2146 O 193.007 -1.21805 1.51637 0
M  V30 2147 C 193.29 1.94706 3.02922 0
M  V30 2148 C 193.143 3.47898 2.85109 0
M  V30 2149 C 194.462 1.75939 4.03402 0
M  V30 2150 H 191.581 0.419946 0.605652 0
M  V30 2151 H 194.223 1.57398 1.06423 0
M  V30 2152 H 192.373 1.58864 3.54534 0
M  V30 2153 H 194.045 3.93624 2.40537 0
M  V30 2154 H 192.288 3.7373 2.20246 0
M  V30 2155 H 192.959 3.98765 3.81694 0
M  V30 2156 H 195.435 2.07209 3.60837 0
M  V30 2157 H 194.311 2.33931 4.96556 0
M  V30 2158 H 194.572 0.709877 4.36364 0
M  V30 2159 N 193.631 -1.12557 1.10312 0
M  V30 2160 C 194.581 -2.16331 0.720076 0
M  V30 2161 C 195.565 -1.58616 -0.270115 0
M  V30 2162 O 196.757 -1.76823 -0.0790507 0
M  V30 2163 C 193.886 -3.42963 0.152113 0
M  V30 2164 C 192.972 -4.07663 1.16927 0
M  V30 2165 N 193.363 -4.47392 2.35953 0
M  V30 2166 C 191.661 -4.34425 1.0095 0
M  V30 2167 C 192.362 -4.97932 3.0073 0
M  V30 2168 N 191.338 -4.93358 2.28252 0
M  V30 2169 H 195.14 -2.44813 1.62616 0
M  V30 2170 H 192.654 -1.29449 0.980654 0
M  V30 2171 H 194.651 -4.16664 -0.14037 0
M  V30 2172 H 193.311 -3.1595 -0.748701 0
M  V30 2173 H 194.322 -4.39802 2.73486 0
M  V30 2174 H 190.999 -4.17177 0.164134 0
M  V30 2175 H 192.389 -5.38397 4.01969 0
M  V30 2176 N 195.109 -0.891671 -1.2995 0
M  V30 2177 C 196.072 -0.36828 -2.26222 0
M  V30 2178 C 197.072 0.493014 -1.53056 0
M  V30 2179 O 198.262 0.299213 -1.71611 0
M  V30 2180 C 195.394 0.47442 -3.37583 0
M  V30 2181 H 196.587 -1.21844 -2.74033 0
M  V30 2182 H 194.14 -0.669107 -1.41254 0
M  V30 2183 H 194.875 1.34489 -2.95099 0
M  V30 2184 H 194.66 -0.142615 -3.91841 0
M  V30 2185 H 196.15 0.83218 -4.09224 0
M  V30 2186 N 196.587 1.43421 -0.653314 0
M  V30 2187 C 197.833 2.02111 -0.166992 0
M  V30 2188 C 198.166 1.51423 1.21592 0
M  V30 2189 O 197.441 0.707389 1.8118 0
M  V30 2190 C 197.724 3.5966 -0.177948 0
M  V30 2191 C 197.577 4.20579 -1.59478 0
M  V30 2192 C 198.896 4.37413 0.4856 0
M  V30 2193 H 196.015 0.734374 -0.0621557 0
M  V30 2194 H 198.657 1.70717 -0.834016 0
M  V30 2195 H 196.807 3.86537 0.390032 0
M  V30 2196 H 198.479 4.04732 -2.21336 0
M  V30 2197 H 196.722 3.77226 -2.14204 0
M  V30 2198 H 197.393 5.29665 -1.5543 0
M  V30 2199 H 199.869 4.161 0.00234528 0
M  V30 2200 H 198.745 5.47075 0.447207 0
M  V30 2201 H 199.006 4.13672 1.55974 0
M  V30 2202 N 198.065 0.39524 1.52563 0
M  V30 2203 C 199.312 -0.185044 2.01653 0
M  V30 2204 C 199.64 -1.46317 1.28146 0
M  V30 2205 O 198.895 -1.9213 0.372074 0
M  V30 2206 C 199.194 -0.493444 3.53977 0
M  V30 2207 C 198.86 0.69384 4.4553 0
M  V30 2208 C 197.522 1.01954 4.70275 0
M  V30 2209 C 199.874 1.48785 4.99512 0
M  V30 2210 C 197.202 2.14069 5.46252 0
M  V30 2211 C 199.554 2.59965 5.76716 0
M  V30 2212 C 198.218 2.93037 5.99738 0
M  V30 2213 H 197.488 -0.0677123 0.7379 0
M  V30 2214 H 200.135 0.533807 1.8391 0
M  V30 2215 H 198.44 -1.29369 3.69825 0
M  V30 2216 H 200.137 -0.955163 3.89458 0
M  V30 2217 H 196.727 0.429987 4.26438 0
M  V30 2218 H 200.911 1.24946 4.80315 0
M  V30 2219 H 196.167 2.40056 5.62302 0
M  V30 2220 H 200.341 3.21887 6.17545 0
M  V30 2221 H 197.968 3.8003 6.58393 0
M  V30 2222 N 199.544 -1.57102 0.125237 0
M  V30 2223 C 200.507 -2.14471 -0.80838 0
M  V30 2224 C 201.507 -1.0811 -1.19033 0
M  V30 2225 O 202.697 -1.33856 -1.11482 0
M  V30 2226 C 199.829 -2.69005 -2.09402 0
M  V30 2227 H 201.022 -2.98297 -0.309696 0
M  V30 2228 H 198.575 -1.55807 -0.124051 0
M  V30 2229 H 199.31 -1.88785 -2.63687 0
M  V30 2230 H 199.095 -3.46799 -1.82957 0
M  V30 2231 H 200.585 -3.13278 -2.76128 0
M  V30 2232 N 201.022 0.148545 -1.56898 0
M  V30 2233 C 201.952 1.18524 -2.01182 0
M  V30 2234 C 202.933 1.4489 -0.891123 0
M  V30 2235 O 204.118 1.55836 -1.15882 0
M  V30 2236 C 201.248 2.51879 -2.39112 0
M  V30 2237 C 200.202 2.40038 -3.54353 0
M  V30 2238 C 199.528 3.78089 -3.78091 0
M  V30 2239 C 200.828 1.88577 -4.87069 0
M  V30 2240 H 202.522 0.817029 -2.88036 0
M  V30 2241 H 200.068 0.391575 -1.38574 0
M  V30 2242 H 202.021 3.24627 -2.68692 0
M  V30 2243 H 200.745 2.90532 -1.49193 0
M  V30 2244 H 199.404 1.69742 -3.24936 0
M  V30 2245 H 199.052 4.14175 -2.85426 0
M  V30 2246 H 198.752 3.71028 -4.55645 0
M  V30 2247 H 200.276 4.52387 -4.10095 0
M  V30 2248 H 201.69 2.51117 -5.15377 0
M  V30 2249 H 200.087 1.9241 -5.68417 0
M  V30 2250 H 201.157 0.84136 -4.77545 0
M  V30 2251 N 202.5 1.5196 0.417844 0
M  V30 2252 C 203.447 1.74678 1.50852 0
M  V30 2253 C 204.417 0.588947 1.55308 0
M  V30 2254 O 205.602 0.825544 1.72016 0
M  V30 2255 C 202.742 1.89544 2.88387 0
M  V30 2256 C 201.855 3.17166 2.93309 0
M  V30 2257 C 200.99 3.22513 4.22088 0
M  V30 2258 C 200.029 4.44372 4.20951 0
M  V30 2259 N 199.166 4.47161 5.41287 0
M  V30 2260 H 204.006 2.67768 1.30783 0
M  V30 2261 H 201.543 1.32689 0.63498 0
M  V30 2262 H 203.501 1.96146 3.68216 0
M  V30 2263 H 202.131 0.998424 3.06971 0
M  V30 2264 H 201.183 3.19778 2.06024 0
M  V30 2265 H 202.495 4.07021 2.88332 0
M  V30 2266 H 201.649 3.28139 5.10303 0
M  V30 2267 H 200.388 2.30581 4.29748 0
M  V30 2268 H 199.393 4.38902 3.31127 0
M  V30 2269 H 200.618 5.3759 4.14938 0
M  V30 2270 H 198.564 3.58108 5.49632 0
M  V30 2271 H 198.481 5.3085 5.3827 0
M  V30 2272 H 199.749 4.57005 6.3148 0
M  V30 2273 N 203.978 -0.674533 1.42435 0
M  V30 2274 C 204.941 -1.76986 1.45632 0
M  V30 2275 C 205.941 -1.5708 0.343871 0
M  V30 2276 O 207.131 -1.63367 0.604709 0
M  V30 2277 C 204.263 -3.15623 1.28822 0
M  V30 2278 H 205.456 -1.75539 2.43158 0
M  V30 2279 H 203.009 -0.884189 1.28887 0
M  V30 2280 H 203.744 -3.22696 0.322193 0
M  V30 2281 H 203.529 -3.31475 2.09444 0
M  V30 2282 H 205.019 -3.95537 1.33942 0
M  V30 2283 N 205.456 -1.28612 -0.910864 0
M  V30 2284 C 206.872 -1.06381 -1.18976 0
M  V30 2285 C 207.072 0.191998 -2.00583 0
M  V30 2286 O 206.128 0.892869 -2.36187 0
M  V30 2287 C 207.441 -2.31295 -1.92154 0
M  V30 2288 C 208.989 -2.36503 -2.05025 0
M  V30 2289 C 209.464 -3.61191 -2.81612 0
M  V30 2290 N 210.955 -3.61847 -2.89172 0
M  V30 2291 C 211.69 -4.55004 -3.4894 0
M  V30 2292 N 211.186 -5.58482 -4.09963 0
M  V30 2293 N 212.979 -4.42594 -3.46506 0
M  V30 2294 H 205.13 -2.09221 -0.366094 0
M  V30 2295 H 207.393 -0.921003 -0.224629 0
M  V30 2296 H 207.099 -3.228 -1.39618 0
M  V30 2297 H 206.973 -2.37934 -2.9269 0
M  V30 2298 H 209.36 -1.45494 -2.5674 0
M  V30 2299 H 209.441 -2.33857 -1.03657 0
M  V30 2300 H 209.085 -4.52545 -2.30576 0
M  V30 2301 H 209.015 -3.61092 -3.83302 0
M  V30 2302 H 211.506 -2.87022 -2.45819 0
M  V30 2303 H 211.819 -6.25704 -4.53557 0
M  V30 2304 H 210.164 -5.62305 -4.08459 0
M  V30 2305 H 213.355 -3.60953 -2.98045 0
M  V30 2306 H 213.528 -5.15381 -3.92793 0
M  V30 2307 N 206.934 1.1197 -1.10907 0
M  V30 2308 C 208.162 1.87402 -0.876824 0
M  V30 2309 C 208.577 1.79894 0.573025 0
M  V30 2310 O 207.934 1.17629 1.39534 0
M  V30 2311 C 207.985 3.36428 -1.32282 0
M  V30 2312 O 207.706 3.43765 -2.71582 0
M  V30 2313 C 209.207 4.28783 -1.12518 0
M  V30 2314 H 206.427 0.592793 -0.314384 0
M  V30 2315 H 208.971 1.41649 -1.47499 0
M  V30 2316 H 207.126 3.79706 -0.768229 0
M  V30 2317 H 207.54 4.3652 -2.90776 0
M  V30 2318 H 209.014 5.31613 -1.48633 0
M  V30 2319 H 209.491 4.39153 -0.0642394 0
M  V30 2320 H 210.097 3.91291 -1.66648 0
M  V30 2321 N 208.412 0.89855 1.29475 0
M  V30 2322 C 209.658 0.524658 1.95896 0
M  V30 2323 C 209.991 -0.926468 1.70676 0
M  V30 2324 O 209.266 -1.65665 1.01908 0
M  V30 2325 C 209.549 0.81633 3.50725 0
M  V30 2326 C 209.402 2.31907 3.85408 0
M  V30 2327 C 210.721 0.302038 4.39062 0
M  V30 2328 H 207.84 0.19209 0.711527 0
M  V30 2329 H 210.482 1.12502 1.53112 0
M  V30 2330 H 208.632 0.305369 3.87298 0
M  V30 2331 H 210.304 2.89949 3.58786 0
M  V30 2332 H 208.547 2.78027 3.32992 0
M  V30 2333 H 209.218 2.47373 4.93468 0
M  V30 2334 H 211.694 0.739551 4.09475 0
M  V30 2335 H 210.57 0.535331 5.46283 0
M  V30 2336 H 210.831 -0.797216 4.34853 0
M  V30 2337 N 209.89 -1.43072 0.660911 0
M  V30 2338 C 211.118 -2.06067 0.185422 0
M  V30 2339 C 211.533 -1.49582 -1.15198 0
M  V30 2340 O 210.89 -0.630134 -1.71276 0
M  V30 2341 C 210.941 -3.61371 0.0966523 0
M  V30 2342 O 210.662 -4.15758 1.38119 0
M  V30 2343 C 212.163 -4.41455 -0.403996 0
M  V30 2344 H 209.383 -0.664459 0.0934604 0
M  V30 2345 H 211.927 -1.83447 0.90373 0
M  V30 2346 H 210.082 -3.8315 -0.572259 0
M  V30 2347 H 210.496 -5.09499 1.24542 0
M  V30 2348 H 211.97 -5.50437 -0.415045 0
M  V30 2349 H 212.447 -4.15036 -1.43674 0
M  V30 2350 H 213.053 -4.24663 0.232691 0
M  V30 2351 N 211.368 -0.403325 -1.52352 0
M  V30 2352 C 212.615 0.174347 -2.01748 0
M  V30 2353 C 212.943 1.45636 -1.2892 0
M  V30 2354 O 212.198 1.9193 -0.382258 0
M  V30 2355 C 212.497 0.474665 -3.54234 0
M  V30 2356 C 212.163 -0.717458 -4.45155 0
M  V30 2357 C 210.825 -1.04447 -4.69728 0
M  V30 2358 C 213.177 -1.51432 -4.98716 0
M  V30 2359 C 210.505 -2.16963 -5.45109 0
M  V30 2360 C 212.857 -2.6302 -5.75329 0
M  V30 2361 C 211.521 -2.96213 -5.98175 0
M  V30 2362 H 210.791 0.0637981 -0.738248 0
M  V30 2363 H 213.438 -0.543553 -1.83624 0
M  V30 2364 H 211.743 1.27406 -3.70506 0
M  V30 2365 H 213.44 0.934496 -3.89959 0
M  V30 2366 H 210.03 -0.452596 -4.26204 0
M  V30 2367 H 214.214 -1.27491 -4.79645 0
M  V30 2368 H 209.47 -2.43034 -5.61021 0
M  V30 2369 H 213.644 -3.25158 -6.15829 0
M  V30 2370 H 211.271 -3.83516 -6.56368 0
M  V30 2371 N 212.846 1.57033 -0.133567 0
M  V30 2372 C 214.094 1.953 0.519848 0
M  V30 2373 C 214.415 1.01866 1.66278 0
M  V30 2374 O 213.685 0.0776513 1.95746 0
M  V30 2375 H 212.265 0.721091 0.195032 0
M  V30 2376 H 214.927 1.93809 -0.205921 0
M  V30 2377 H 214.023 2.98695 0.904854 0
M  V30 2378 N 214.325 -0.140222 1.56975 0
M  V30 2379 C 215.571 -0.852949 1.83991 0
M  V30 2380 C 215.904 -1.80512 0.716187 0
M  V30 2381 O 215.179 -1.92479 -0.279681 0
M  V30 2382 C 215.462 -1.6215 3.21527 0
M  V30 2383 C 215.315 -0.690363 4.4447 0
M  V30 2384 C 216.634 -2.58247 3.56366 0
M  V30 2385 H 213.753 -0.308634 0.669264 0
M  V30 2386 H 216.395 -0.117898 1.89634 0
M  V30 2387 H 214.545 -2.24812 3.16847 0
M  V30 2388 H 216.217 -0.0742264 4.6124 0
M  V30 2389 H 214.46 -0.000396433 4.338 0
M  V30 2390 H 215.131 -1.2643 5.37326 0
M  V30 2391 H 217.607 -2.05701 3.61699 0
M  V30 2392 H 216.483 -3.09067 4.53617 0
M  V30 2393 H 216.744 -3.39923 2.82674 0
M  V30 2394 N 215.803 -1.52179 -0.40978 0
M  V30 2395 C 217.049 -1.66453 -1.15851 0
M  V30 2396 C 217.382 -0.392972 -1.90182 0
M  V30 2397 O 216.657 0.608579 -1.84734 0
M  V30 2398 C 216.94 -2.88612 -2.15349 0
M  V30 2399 C 216.793 -4.25815 -1.44918 0
M  V30 2400 C 218.112 -3.06294 -3.16026 0
M  V30 2401 H 215.231 -0.60575 -0.419805 0
M  V30 2402 H 217.873 -1.84732 -0.444314 0
M  V30 2403 H 216.023 -2.73158 -2.76255 0
M  V30 2404 H 217.695 -4.52995 -0.871365 0
M  V30 2405 H 215.938 -4.27247 -0.751159 0
M  V30 2406 H 216.609 -5.07337 -2.17516 0
M  V30 2407 H 219.085 -3.20641 -2.65195 0
M  V30 2408 H 217.961 -3.93283 -3.8291 0
M  V30 2409 H 218.222 -2.19579 -3.83715 0
M  V30 2410 N 217.281 0.66697 -1.42791 0
M  V30 2411 C 218.509 1.45505 -1.47091 0
M  V30 2412 C 218.924 1.8861 -0.0845873 0
M  V30 2413 O 218.281 1.58632 0.90234 0
M  V30 2414 C 218.332 2.69906 -2.40485 0
M  V30 2415 O 218.053 2.28608 -3.73725 0
M  V30 2416 C 219.554 3.63396 -2.53886 0
M  V30 2417 H 216.774 0.447459 -0.500022 0
M  V30 2418 H 219.318 0.818866 -1.8739 0
M  V30 2419 H 217.473 3.29696 -2.03419 0
M  V30 2420 H 217.887 3.08997 -4.23817 0
M  V30 2421 H 219.361 4.47387 -3.2334 0
M  V30 2422 H 219.838 4.09824 -1.57927 0
M  V30 2423 H 220.444 3.09495 -2.91706 0
M  V30 2424 N 218.759 1.29093 0.90403 0
M  V30 2425 C 219.984 1.19809 1.69294 0
M  V30 2426 C 220.409 -0.238481 1.86582 0
M  V30 2427 O 219.767 -1.1723 1.383 0
M  V30 2428 C 219.815 1.91202 3.05736 0
M  V30 2429 O 218.919 1.22611 3.93752 0
M  V30 2430 H 218.26 0.415385 0.518027 0
M  V30 2431 H 220.79 1.70586 1.12967 0
M  V30 2432 H 220.8 1.99487 3.55906 0
M  V30 2433 H 219.475 2.95692 2.92471 0
M  V30 2434 H 218.052 1.22554 3.52186 0
M  V30 2435 N 220.237 -1.11381 1.11499 0
M  V30 2436 C 221.483 -1.83403 0.865512 0
M  V30 2437 C 221.816 -1.84459 -0.607329 0
M  V30 2438 O 221.091 -1.29811 -1.44842 0
M  V30 2439 C 221.374 -3.30552 1.42855 0
M  V30 2440 C 221.227 -3.37886 2.96906 0
M  V30 2441 C 222.546 -4.26643 1.08 0
M  V30 2442 H 219.665 -0.665879 0.31587 0
M  V30 2443 H 222.307 -1.30601 1.37998 0
M  V30 2444 H 220.457 -3.75648 0.990985 0
M  V30 2445 H 222.129 -3.01343 3.49271 0
M  V30 2446 H 220.372 -2.78088 3.32941 0
M  V30 2447 H 221.043 -4.41458 3.31389 0
M  V30 2448 H 223.519 -3.89729 1.45775 0
M  V30 2449 H 222.395 -5.27986 1.50072 0
M  V30 2450 H 222.656 -4.42099 -0.00915037 0
M  V30 2451 N 221.715 -0.905404 -1.28997 0
M  V30 2452 C 222.964 -0.530191 -1.94607 0
M  V30 2453 C 223.277 0.929185 -1.72121 0
M  V30 2454 O 224.483 1.41218 -2.31883 0
M  V30 2455 C 222.939 -0.897333 -3.48534 0
M  V30 2456 C 222.547 -2.37587 -3.79811 0
M  V30 2457 C 224.291 -0.592304 -4.20347 0
M  V30 2458 C 222.198 -2.68357 -5.27009 0
M  V30 2459 H 221.128 -0.194558 -0.728466 0
M  V30 2460 H 223.779 -1.10318 -1.46636 0
M  V30 2461 H 222.161 -0.253214 -3.9519 0
M  V30 2462 H 223.335 -3.06602 -3.43994 0
M  V30 2463 H 221.65 -2.6505 -3.2115 0
M  V30 2464 H 224.247 -0.798975 -5.28697 0
M  V30 2465 H 224.59 0.469474 -4.13644 0
M  V30 2466 H 225.123 -1.19452 -3.79442 0
M  V30 2467 H 221.862 -3.73355 -5.38782 0
M  V30 2468 H 221.382 -2.03971 -5.64053 0
M  V30 2469 H 223.061 -2.54922 -5.94663 0
M  V30 2470 N 223.193 1.4272 -0.668489 0
M  V30 2471 C 224.421 2.05966 -0.196348 0
M  V30 2472 C 224.836 1.50191 1.14403 0
M  V30 2473 O 224.193 0.639208 1.7094 0
M  V30 2474 C 224.244 3.61314 -0.115815 0
M  V30 2475 O 223.965 4.1502 -1.40322 0
M  V30 2476 C 225.466 4.41663 0.380579 0
M  V30 2477 H 222.686 0.663954 -0.0969829 0
M  V30 2478 H 225.23 1.82966 -0.913446 0
M  V30 2479 H 223.385 3.83448 0.551931 0
M  V30 2480 H 223.799 5.08832 -1.27243 0
M  V30 2481 H 225.273 5.5065 0.385848 0
M  V30 2482 H 225.75 4.15792 1.41471 0
M  V30 2483 H 226.356 4.24534 -0.255209 0
M  V30 2484 N 224.671 0.411399 1.52136 0
M  V30 2485 C 225.917 -0.156262 2.02799 0
M  V30 2486 C 226.272 -1.42613 1.29149 0
M  V30 2487 O 225.565 -1.87592 0.389839 0
M  V30 2488 C 225.759 -0.455872 3.54481 0
M  V30 2489 C 225.588 0.783404 4.42824 0
M  V30 2490 C 224.358 1.30928 4.88043 0
M  V30 2491 C 226.556 1.66217 4.86699 0
M  V30 2492 N 224.538 2.5038 5.6052 0
M  V30 2493 C 225.909 2.70292 5.5798 0
M  V30 2494 C 227.964 1.67966 4.68713 0
M  V30 2495 C 226.667 3.7603 6.13184 0
M  V30 2496 C 228.693 2.72624 5.24815 0
M  V30 2497 C 228.055 3.7542 5.9602 0
M  V30 2498 H 224.154 -0.0186886 0.781777 0
M  V30 2499 H 226.738 0.566255 1.86284 0
M  V30 2500 H 224.909 -1.14743 3.71064 0
M  V30 2501 H 226.641 -1.01261 3.91827 0
M  V30 2502 H 223.396 0.866977 4.65597 0
M  V30 2503 H 223.82 3.10881 6.014 0
M  V30 2504 H 228.462 0.898312 4.13147 0
M  V30 2505 H 226.18 4.55019 6.6782 0
M  V30 2506 H 229.766 2.74887 5.12765 0
M  V30 2507 H 228.646 4.55073 6.38654 0
M  V30 2508 N 226.149 -1.5696 0.141893 0
M  V30 2509 C 227.395 -1.9625 -0.511248 0
M  V30 2510 C 227.728 -1.02654 -1.64851 0
M  V30 2511 O 227.003 -0.0679676 -1.94381 0
M  V30 2512 C 227.286 -3.45285 -1.02227 0
M  V30 2513 C 227.139 -4.49658 0.113138 0
M  V30 2514 C 228.458 -3.96698 -1.90574 0
M  V30 2515 H 225.577 -0.713567 -0.184367 0
M  V30 2516 H 228.219 -1.88698 0.222087 0
M  V30 2517 H 226.369 -3.51852 -1.64719 0
M  V30 2518 H 228.041 -4.55174 0.749302 0
M  V30 2519 H 226.284 -4.26857 0.773026 0
M  V30 2520 H 226.955 -5.51258 -0.286053 0
M  V30 2521 H 229.431 -3.92578 -1.37918 0
M  V30 2522 H 228.307 -5.01453 -2.2324 0
M  V30 2523 H 228.568 -3.3875 -2.84079 0
M  V30 2524 N 227.627 0.131896 -1.57047 0
M  V30 2525 C 228.873 0.843179 -1.84441 0
M  V30 2526 C 229.206 1.80129 -0.725749 0
M  V30 2527 O 228.481 1.92624 0.269469 0
M  V30 2528 C 228.764 1.60442 -3.22382 0
M  V30 2529 C 228.617 0.666782 -4.4483 0
M  V30 2530 C 229.936 2.56354 -3.5773 0
M  V30 2531 H 227.055 0.305081 -0.670891 0
M  V30 2532 H 229.697 0.107839 -1.89694 0
M  V30 2533 H 227.847 2.23128 -3.18035 0
M  V30 2534 H 229.519 0.0497646 -4.61273 0
M  V30 2535 H 227.762 -0.022609 -4.33794 0
M  V30 2536 H 228.433 1.23579 -5.37989 0
M  V30 2537 H 230.909 2.0378 -3.62785 0
M  V30 2538 H 229.785 3.06657 -4.5525 0
M  V30 2539 H 230.046 3.38419 -2.84473 0
M  V30 2540 N 229.106 1.52395 0.401703 0
M  V30 2541 C 230.069 1.75636 1.47257 0
M  V30 2542 C 231.069 0.62628 1.48103 0
M  V30 2543 O 232.259 0.894227 1.49497 0
M  V30 2544 C 229.391 1.84553 2.86624 0
M  V30 2545 H 230.584 2.71241 1.27938 0
M  V30 2546 H 228.137 1.42923 0.632662 0
M  V30 2547 H 228.872 0.908882 3.11303 0
M  V30 2548 H 228.657 2.66715 2.87412 0
M  V30 2549 H 230.147 2.04251 3.64241 0
M  V30 2550 N 230.584 -0.659388 1.43143 0
M  V30 2551 C 231.83 -1.42145 1.44647 0
M  V30 2552 C 232.163 -1.9408 0.0681907 0
M  V30 2553 O 231.438 -1.71899 -0.910007 0
M  V30 2554 C 231.721 -2.60735 2.48373 0
M  V30 2555 C 231.574 -2.14332 3.95451 0
M  V30 2556 C 232.893 -3.62951 2.48906 0
M  V30 2557 H 230.012 -0.51552 0.526696 0
M  V30 2558 H 232.654 -0.748069 1.74654 0
M  V30 2559 H 230.804 -3.18184 2.22916 0
M  V30 2560 H 232.476 -1.61932 4.31944 0
M  V30 2561 H 230.719 -1.4576 4.08578 0
M  V30 2562 H 231.39 -2.99583 4.63631 0
M  V30 2563 H 233.866 -3.1525 2.71582 0
M  V30 2564 H 232.742 -4.43487 3.23435 0
M  V30 2565 H 233.003 -4.15126 1.52061 0
M  V30 2566 N 232.062 -1.29571 -0.897171 0
M  V30 2567 C 233.309 -1.17689 -1.6479 0
M  V30 2568 C 233.637 0.27107 -1.92602 0
M  V30 2569 O 232.892 1.21193 -1.53658 0
M  V30 2570 C 233.191 -1.9382 -3.00281 0
M  V30 2571 C 232.857 -3.43522 -2.92068 0
M  V30 2572 C 231.519 -3.84348 -2.89535 0
M  V30 2573 C 233.871 -4.38906 -2.81089 0
M  V30 2574 C 231.199 -5.18869 -2.73846 0
M  V30 2575 C 233.551 -5.73521 -2.66939 0
M  V30 2576 C 232.215 -6.13601 -2.62774 0
M  V30 2577 H 231.485 -0.430654 -0.603008 0
M  V30 2578 H 234.132 -1.60536 -1.04404 0
M  V30 2579 H 232.437 -1.4357 -3.64547 0
M  V30 2580 H 234.134 -1.82028 -3.57305 0
M  V30 2581 H 230.724 -3.11072 -2.94842 0
M  V30 2582 H 234.908 -4.08315 -2.82121 0
M  V30 2583 H 230.164 -5.4903 -2.69027 0
M  V30 2584 H 234.338 -6.47078 -2.57416 0
M  V30 2585 H 231.965 -7.17786 -2.50375 0
M  V30 2586 N 233.54 1.10788 -1.12088 0
M  V30 2587 C 234.503 2.15207 -0.788577 0
M  V30 2588 C 235.503 1.59609 0.195317 0
M  V30 2589 O 236.693 1.74174 -0.0300193 0
M  V30 2590 C 233.825 3.4047 -0.171174 0
M  V30 2591 H 235.018 2.46116 -1.71368 0
M  V30 2592 H 232.571 1.26089 -0.923652 0
M  V30 2593 H 233.306 3.15176 0.763832 0
M  V30 2594 H 233.091 3.82109 -0.879514 0
M  V30 2595 H 234.581 4.17576 0.04496 0
M  V30 2596 N 235.018 0.912232 1.28515 0
M  V30 2597 C 236.243 0.559774 1.99703 0
M  V30 2598 C 236.668 -0.851393 1.67729 0
M  V30 2599 O 236.026 -1.56875 0.908834 0
M  V30 2600 C 236.074 0.773874 3.52198 0
M  V30 2601 O 235.178 -0.167842 4.12058 0
M  V30 2602 H 234.519 0.21723 0.627461 0
M  V30 2603 H 237.049 1.22725 1.63706 0
M  V30 2604 H 237.059 0.683386 4.02236 0
M  V30 2605 H 235.734 1.80261 3.74805 0
M  V30 2606 H 234.311 -0.0287509 3.72889 0
M  V30 2607 N 236.496 -1.42363 0.676048 0
M  V30 2608 C 237.426 -2.33497 0.0124832 0
M  V30 2609 C 238.407 -1.50748 -0.787981 0
M  V30 2610 O 239.592 -1.79346 -0.744884 0
M  V30 2611 C 236.722 -3.34377 -0.938582 0
M  V30 2612 C 235.676 -4.27289 -0.246622 0
M  V30 2613 C 235.002 -5.18386 -1.31071 0
M  V30 2614 C 236.302 -5.14916 0.875125 0
M  V30 2615 H 237.996 -2.89233 0.773593 0
M  V30 2616 H 235.542 -1.39073 0.37346 0
M  V30 2617 H 237.495 -3.97044 -1.41188 0
M  V30 2618 H 236.219 -2.76947 -1.73113 0
M  V30 2619 H 234.878 -3.66018 0.206456 0
M  V30 2620 H 234.526 -4.57282 -2.09528 0
M  V30 2621 H 234.226 -5.81378 -0.852839 0
M  V30 2622 H 235.75 -5.83929 -1.78492 0
M  V30 2623 H 237.164 -5.71262 0.482983 0
M  V30 2624 H 235.561 -5.86747 1.25887 0
M  V30 2625 H 236.631 -4.53242 1.72335 0
M  V30 2626 N 237.974 -0.419461 -1.51915 0
M  V30 2627 C 239.385 0.0477853 -1.86639 0
M  V30 2628 C 239.736 1.43531 -1.33766 0
M  V30 2629 O 238.861 2.05401 -0.68113 0
M  V30 2630 C 239.456 0.0934885 -3.38671 0
M  V30 2631 C 238.015 0.505097 -3.72996 0
M  V30 2632 C 237.162 -0.313792 -2.75519 0
M  V30 2633 H 240.113 -0.636088 -1.45395 0
M  V30 2634 H 240.134 0.906667 -3.6954 0
M  V30 2635 H 239.646 -0.916501 -3.77123 0
M  V30 2636 H 237.747 1.52135 -3.40126 0
M  V30 2637 H 237.86 0.242309 -4.78487 0
M  V30 2638 H 236.224 0.225363 -2.53701 0
M  V30 2639 H 237.007 -1.32232 -3.16812 0
M  V30 2640 N 239.452 1.56882 -0.150215 0
M  V30 2641 C 240.7 1.9584 0.499105 0
M  V30 2642 C 241.021 1.03623 1.65188 0
M  V30 2643 O 240.291 0.0984084 1.95653 0
M  V30 2644 H 238.871 0.723119 0.187373 0
M  V30 2645 H 241.533 1.9358 -0.226466 0
M  V30 2646 H 240.629 2.99638 0.873122 0
M  V30 2647 N 240.93 -0.123565 1.57115 0
M  V30 2648 C 242.179 -0.830704 1.83799 0
M  V30 2649 C 242.492 -1.81259 0.735158 0
M  V30 2650 O 243.698 -2.56558 0.888278 0
M  V30 2651 C 242.154 -1.52802 3.25852 0
M  V30 2652 C 241.762 -0.587356 4.44133 0
M  V30 2653 C 243.506 -2.22056 3.61789 0
M  V30 2654 C 241.413 -1.28764 5.77212 0
M  V30 2655 H 240.343 -0.313967 0.685522 0
M  V30 2656 H 242.994 -0.0834359 1.8331 0
M  V30 2657 H 241.376 -2.32175 3.20797 0
M  V30 2658 H 242.55 0.172829 4.60476 0
M  V30 2659 H 240.865 -0.00201892 4.164 0
M  V30 2660 H 243.462 -2.75131 4.58483 0
M  V30 2661 H 243.805 -2.99644 2.88997 0
M  V30 2662 H 244.338 -1.49576 3.68608 0
M  V30 2663 H 241.077 -0.55314 6.53162 0
M  V30 2664 H 240.597 -2.01995 5.64764 0
M  V30 2665 H 242.276 -1.8221 6.20813 0
M  V30 2666 N 242.408 -1.52605 -0.393616 0
M  V30 2667 C 243.657 -1.66649 -1.13627 0
M  V30 2668 C 243.97 -0.410364 -1.91247 0
M  V30 2669 O 245.176 -0.430854 -2.68059 0
M  V30 2670 C 243.632 -2.9449 -2.06891 0
M  V30 2671 C 243.24 -4.27266 -1.34714 0
M  V30 2672 C 244.984 -3.17899 -2.81319 0
M  V30 2673 C 242.891 -5.46217 -2.26717 0
M  V30 2674 H 241.821 -0.62084 -0.427871 0
M  V30 2675 H 244.472 -1.791 -0.399428 0
M  V30 2676 H 242.854 -2.75774 -2.84191 0
M  V30 2677 H 244.028 -4.56518 -0.626714 0
M  V30 2678 H 242.343 -4.10081 -0.722643 0
M  V30 2679 H 244.94 -4.03949 -3.50328 0
M  V30 2680 H 245.283 -2.32777 -3.45139 0
M  V30 2681 H 245.816 -3.37159 -2.11113 0
M  V30 2682 H 242.555 -6.33733 -1.67521 0
M  V30 2683 H 242.075 -5.21283 -2.96689 0
M  V30 2684 H 243.754 -5.7991 -2.86903 0
M  V30 2685 N 243.887 0.651787 -1.4349 0
M  V30 2686 C 245.134 1.41167 -1.45183 0
M  V30 2687 C 245.462 1.94349 -0.0766601 0
M  V30 2688 O 244.717 1.72804 0.918555 0
M  V30 2689 C 245.016 2.60914 -2.44251 0
M  V30 2690 C 244.682 2.26142 -3.9009 0
M  V30 2691 C 243.344 2.16371 -4.2981 0
M  V30 2692 C 245.696 1.98334 -4.81989 0
M  V30 2693 C 243.024 1.7695 -5.5938 0
M  V30 2694 C 245.376 1.6041 -6.11924 0
M  V30 2695 C 244.04 1.49166 -6.5062 0
M  V30 2696 H 243.31 0.516566 -0.531263 0
M  V30 2697 H 245.957 0.741099 -1.76579 0
M  V30 2698 H 244.262 3.3311 -2.06265 0
M  V30 2699 H 245.959 3.19127 -2.42815 0
M  V30 2700 H 242.549 2.34658 -3.58655 0
M  V30 2701 H 246.733 2.04803 -4.52072 0
M  V30 2702 H 241.989 1.66831 -5.88198 0
M  V30 2703 H 246.163 1.37925 -6.82605 0
M  V30 2704 H 243.79 1.1839 -7.50925 0
M  V30 2705 N 245.365 1.30045 0.890287 0
M  V30 2706 C 246.593 1.21472 1.67487 0
M  V30 2707 C 247.008 -0.223241 1.87476 0
M  V30 2708 O 246.365 -1.14828 1.41847 0
M  V30 2709 C 246.416 1.93394 3.05419 0
M  V30 2710 O 246.137 3.31576 2.86337 0
M  V30 2711 C 247.638 1.91414 3.99844 0
M  V30 2712 H 244.858 0.420604 0.522813 0
M  V30 2713 H 247.402 1.7158 1.11268 0
M  V30 2714 H 245.557 1.47099 3.58386 0
M  V30 2715 H 245.971 3.67929 3.73802 0
M  V30 2716 H 247.445 2.46285 4.94012 0
M  V30 2717 H 247.922 0.891833 4.3005 0
M  V30 2718 H 248.528 2.37496 3.52811 0
M  V30 2719 N 246.843 -1.10192 1.12674 0
M  V30 2720 C 248.259 -1.34235 0.863317 0
M  V30 2721 C 248.459 -1.95062 -0.505277 0
M  V30 2722 O 247.515 -2.19192 -1.25345 0
M  V30 2723 C 248.828 -2.2616 1.98172 0
M  V30 2724 C 250.376 -2.3969 2.0129 0
M  V30 2725 C 250.851 -3.34946 3.1237 0
M  V30 2726 N 252.342 -3.42515 3.11829 0
M  V30 2727 C 253.077 -4.16199 3.94419 0
M  V30 2728 N 252.573 -4.92747 4.87004 0
M  V30 2729 N 254.366 -4.11843 3.82547 0
M  V30 2730 H 246.517 -0.690798 2.00853 0
M  V30 2731 H 248.78 -0.366774 0.874174 0
M  V30 2732 H 248.486 -1.8868 2.96804 0
M  V30 2733 H 248.36 -3.26488 1.88906 0
M  V30 2734 H 250.747 -2.76438 1.03276 0
M  V30 2735 H 250.828 -1.39169 2.14629 0
M  V30 2736 H 250.472 -2.98923 4.10619 0
M  V30 2737 H 250.402 -4.35353 2.96269 0
M  V30 2738 H 252.893 -2.87926 2.44759 0
M  V30 2739 H 253.206 -5.46376 5.46528 0
M  V30 2740 H 251.551 -4.91862 4.91016 0
M  V30 2741 H 254.742 -3.51136 3.0955 0
M  V30 2742 H 254.915 -4.69007 4.47142 0
M  V30 2743 N 248.321 -0.919034 -1.28029 0
M  V30 2744 C 249.546 -0.570357 -1.99403 0
M  V30 2745 C 249.971 0.842486 -1.68178 0
M  V30 2746 O 249.329 1.56391 -0.917141 0
M  V30 2747 C 249.377 -0.792541 -3.51783 0
M  V30 2748 O 248.481 0.145988 -4.12142 0
M  V30 2749 H 247.822 -0.220555 -0.6263 0
M  V30 2750 H 250.352 -1.23592 -1.63053 0
M  V30 2751 H 250.362 -0.704708 -4.01868 0
M  V30 2752 H 249.037 -1.82247 -3.73844 0
M  V30 2753 H 247.614 0.00897528 -3.72899 0
M  V30 2754 N 249.799 1.42003 -0.683588 0
M  V30 2755 C 250.731 2.29183 0.0283068 0
M  V30 2756 C 251.744 1.4415 0.756611 0
M  V30 2757 O 252.933 1.67779 0.609306 0
M  V30 2758 C 250.033 3.21765 1.06398 0
M  V30 2759 C 249.206 4.35496 0.407723 0
M  V30 2760 C 248.265 5.08737 1.34437 0
M  V30 2761 O 247.291 5.62948 0.841318 0
M  V30 2762 N 248.493 5.15075 2.67728 0
M  V30 2763 H 251.258 2.9092 -0.720105 0
M  V30 2764 H 248.819 1.53025 -0.528682 0
M  V30 2765 H 250.811 3.6763 1.69204 0
M  V30 2766 H 249.381 2.61418 1.71404 0
M  V30 2767 H 248.601 3.92165 -0.400012 0
M  V30 2768 H 249.889 5.08776 -0.0490956 0
M  V30 2769 H 249.287 4.72457 3.11129 0
M  V30 2770 H 247.844 5.64556 3.2576 0
M  V30 2771 N 251.277 0.427512 1.51691 0
M  V30 2772 C 252.224 -0.388867 2.275 0
M  V30 2773 C 253.194 -1.02532 1.30677 0
M  V30 2774 O 254.379 -1.0461 1.59566 0
M  V30 2775 C 251.519 -1.48954 3.11298 0
M  V30 2776 C 250.632 -0.872194 4.23104 0
M  V30 2777 C 249.767 -1.94709 4.94228 0
M  V30 2778 C 248.806 -1.30766 5.97969 0
M  V30 2779 N 247.943 -2.32349 6.62539 0
M  V30 2780 H 252.783 0.263997 2.96828 0
M  V30 2781 H 250.32 0.142033 1.46413 0
M  V30 2782 H 252.278 -2.13887 3.58201 0
M  V30 2783 H 250.908 -2.11217 2.44105 0
M  V30 2784 H 249.96 -0.111419 3.80237 0
M  V30 2785 H 251.272 -0.365264 4.97461 0
M  V30 2786 H 250.426 -2.67327 5.44629 0
M  V30 2787 H 249.165 -2.48773 4.1948 0
M  V30 2788 H 248.17 -0.566902 5.4687 0
M  V30 2789 H 249.395 -0.774483 6.74669 0
M  V30 2790 H 247.341 -2.85511 5.90609 0
M  V30 2791 H 247.258 -1.8652 7.3263 0
M  V30 2792 H 248.526 -3.04481 7.17574 0
M  V30 2793 N 252.755 -1.56801 0.158532 0
M  V30 2794 C 253.665 -2.20916 -0.789518 0
M  V30 2795 C 254.681 -1.1969 -1.26294 0
M  V30 2796 O 255.857 -1.52308 -1.31773 0
M  V30 2797 C 252.922 -2.82727 -2.00665 0
M  V30 2798 C 251.983 -3.99114 -1.58134 0
M  V30 2799 C 251.216 -4.57968 -2.74045 0
M  V30 2800 O 251.439 -4.15704 -3.90572 0
M  V30 2801 O 250.373 -5.48047 -2.48855 0
M  V30 2802 H 254.199 -3.02464 -0.273681 0
M  V30 2803 H 251.784 -1.4924 -0.0690548 0
M  V30 2804 H 253.666 -3.21968 -2.71872 0
M  V30 2805 H 252.341 -2.04184 -2.51179 0
M  V30 2806 H 251.248 -3.64567 -0.839155 0
M  V30 2807 H 252.581 -4.79212 -1.12325 0
M  V30 2808 N 254.233 0.115231 -1.57178 0
M  V30 2809 C 255.481 0.820727 -1.84685 0
M  V30 2810 C 255.802 1.80237 -0.744279 0
M  V30 2811 O 255.072 1.94529 0.231375 0
M  V30 2812 H 253.652 0.306084 -0.681411 0
M  V30 2813 H 256.314 0.101656 -1.94635 0
M  V30 2814 H 255.41 1.36366 -2.80733 0
M  V30 2815 N 255.711 1.52812 0.385517 0
M  V30 2816 C 256.641 1.80808 1.47752 0
M  V30 2817 C 257.622 0.660318 1.5676 0
M  V30 2818 O 258.807 0.908246 1.71652 0
M  V30 2819 C 255.937 1.98008 2.85324 0
M  V30 2820 C 254.891 3.13709 2.91154 0
M  V30 2821 C 254.217 3.16169 4.31209 0
M  V30 2822 C 255.517 4.52709 2.60483 0
M  V30 2823 H 257.211 2.72253 1.24573 0
M  V30 2824 H 254.757 1.31003 0.597839 0
M  V30 2825 H 256.71 2.16176 3.61726 0
M  V30 2826 H 255.434 1.03255 3.09848 0
M  V30 2827 H 254.093 2.95329 2.17201 0
M  V30 2828 H 253.741 2.19092 4.52778 0
M  V30 2829 H 253.441 3.93894 4.36029 0
M  V30 2830 H 254.965 3.36496 5.09512 0
M  V30 2831 H 256.379 4.71173 3.26602 0
M  V30 2832 H 254.776 5.32528 2.76648 0
M  V30 2833 H 255.846 4.59186 1.55809 0
M  V30 2834 N 257.189 -0.644168 1.43834 0
M  V30 2835 C 258.139 -1.7501 1.46135 0
M  V30 2836 C 259.123 -1.57507 0.328685 0
M  V30 2837 O 260.315 -1.67465 0.5731 0
M  V30 2838 C 257.444 -3.13641 1.39585 0
M  V30 2839 C 256.53 -3.3666 2.57916 0
M  V30 2840 N 256.921 -3.30107 3.83227 0
M  V30 2841 C 255.219 -3.67411 2.52834 0
M  V30 2842 C 255.92 -3.53456 4.61999 0
M  V30 2843 N 254.896 -3.75705 3.9287 0
M  V30 2844 H 258.698 -1.68382 2.40883 0
M  V30 2845 H 256.212 -0.846169 1.38614 0
M  V30 2846 H 258.209 -3.92933 1.39317 0
M  V30 2847 H 256.869 -3.21444 0.45865 0
M  V30 2848 H 257.88 -3.09316 4.15384 0
M  V30 2849 H 254.557 -3.82275 1.67845 0
M  V30 2850 H 255.947 -3.54093 5.71024 0
M  V30 2851 N 258.668 -1.30515 -0.883378 0
M  V30 2852 C 259.898 -1.22182 -1.66599 0
M  V30 2853 C 260.306 0.217507 -1.87946 0
M  V30 2854 O 259.649 1.1554 -1.42815 0
M  V30 2855 C 259.711 -1.88146 -3.06335 0
M  V30 2856 C 259.375 -3.37476 -3.08154 0
M  V30 2857 C 260.372 -4.33443 -2.87094 0
M  V30 2858 C 258.057 -3.7895 -3.29701 0
M  V30 2859 C 260.051 -5.68858 -2.8754 0
M  V30 2860 C 257.738 -5.14482 -3.29776 0
M  V30 2861 C 258.736 -6.09246 -3.0872 0
M  V30 2862 O 258.424 -7.42302 -3.08615 0
M  V30 2863 H 258.156 -0.423898 -0.52658 0
M  V30 2864 H 260.71 -1.72703 -1.11188 0
M  V30 2865 H 258.94 -1.32157 -3.63416 0
M  V30 2866 H 260.629 -1.7391 -3.66756 0
M  V30 2867 H 261.395 -4.02733 -2.70243 0
M  V30 2868 H 257.274 -3.05631 -3.45124 0
M  V30 2869 H 260.818 -6.428 -2.71024 0
M  V30 2870 H 256.715 -5.44832 -3.46163 0
M  V30 2871 H 257.483 -7.5131 -3.24769 0
M  V30 2872 N 260.146 1.09593 -1.13257 0
M  V30 2873 C 261.374 1.855 -0.916378 0
M  V30 2874 C 261.789 1.81069 0.534738 0
M  V30 2875 O 261.146 1.20562 1.37007 0
M  V30 2876 C 261.197 3.33546 -1.39388 0
M  V30 2877 O 260.918 3.37927 -2.78813 0
M  V30 2878 C 262.419 4.26299 -1.21588 0
M  V30 2879 H 259.639 0.585991 -0.326887 0
M  V30 2880 H 262.183 1.38488 -1.5047 0
M  V30 2881 H 260.338 3.77992 -0.848597 0
M  V30 2882 H 260.752 4.30254 -2.9997 0
M  V30 2883 H 262.226 5.28341 -1.59876 0
M  V30 2884 H 262.703 4.38918 -0.157376 0
M  V30 2885 H 263.309 3.87668 -1.7491 0
M  V30 2886 N 261.624 0.925811 1.2754 0
M  V30 2887 C 262.864 0.572521 1.96218 0
M  V30 2888 C 263.228 -0.869719 1.71172 0
M  V30 2889 O 264.429 -1.33119 2.33523 0
M  V30 2890 C 262.7 0.887325 3.4621 0
M  V30 2891 S 264.259 0.642266 4.34074 0
M  V30 2892 H 261.077 0.211403 0.678845 0
M  V30 2893 H 263.679 1.19384 1.54815 0
M  V30 2894 H 262.383 1.93469 3.61936 0
M  V30 2895 H 261.914 0.255123 3.92572 0
M  V30 2896 H 263.929 -0.500822 4.93666 0
M  V30 2897 N 263.102 -1.41638 0.69111 0
M  V30 2898 C 264.327 -2.06148 0.227583 0
M  V30 2899 C 264.752 -1.51652 -1.11281 0
M  V30 2900 O 264.11 -0.64164 -1.69566 0
M  V30 2901 C 264.158 -3.60095 0.190858 0
M  V30 2902 O 263.262 -4.03845 -0.835664 0
M  V30 2903 H 262.603 -0.654434 0.112306 0
M  V30 2904 H 265.133 -1.81484 0.944714 0
M  V30 2905 H 265.143 -4.07995 0.020207 0
M  V30 2906 H 263.818 -3.99129 1.16915 0
M  V30 2907 H 262.395 -3.67458 -0.63473 0
M  V30 2908 N 264.58 -0.43555 -1.51462 0
M  V30 2909 C 265.805 0.132627 -2.06976 0
M  V30 2910 C 266.23 1.35848 -1.30104 0
M  V30 2911 O 265.588 1.78112 -0.338493 0
M  V30 2912 C 265.636 0.43523 -3.57964 0
M  V30 2913 O 264.74 1.52198 -3.83288 0
M  V30 2914 H 264.081 0.00265 -0.663995 0
M  V30 2915 H 266.611 -0.616369 -1.95095 0
M  V30 2916 H 266.621 0.686206 -4.02188 0
M  V30 2917 H 265.296 -0.460739 -4.1334 0
M  V30 2918 H 263.873 1.2611 -3.50928 0
M  V30 2919 N 266.058 1.56714 -0.166846 0
M  V30 2920 C 267.008 2.14338 0.777382 0
M  V30 2921 C 267.992 1.07642 1.19591 0
M  V30 2922 O 269.184 1.33775 1.15902 0
M  V30 2923 C 266.313 2.78417 2.00846 0
M  V30 2924 C 265.399 3.92264 1.61212 0
M  V30 2925 N 265.79 4.97268 0.925104 0
M  V30 2926 C 264.088 4.03342 1.90346 0
M  V30 2927 C 264.789 5.77093 0.730627 0
M  V30 2928 N 263.765 5.2854 1.27067 0
M  V30 2929 H 267.567 2.9289 0.243466 0
M  V30 2930 H 265.081 1.62364 0.0339954 0
M  V30 2931 H 267.078 3.18073 2.69509 0
M  V30 2932 H 265.738 2.01344 2.54736 0
M  V30 2933 H 266.749 5.14601 0.583646 0
M  V30 2934 H 263.426 3.37368 2.45946 0
M  V30 2935 H 264.816 6.71638 0.187668 0
M  V30 2936 N 267.536 -0.106894 1.57237 0
M  V30 2937 C 268.783 -0.812526 1.85484 0
M  V30 2938 C 269.111 -1.79304 0.753687 0
M  V30 2939 O 268.366 -1.94047 -0.253853 0
M  V30 2940 C 268.665 -1.58628 3.20268 0
M  V30 2941 C 268.331 -0.748967 4.44636 0
M  V30 2942 C 266.993 -0.518104 4.78403 0
M  V30 2943 C 269.345 -0.166122 5.20935 0
M  V30 2944 C 266.673 0.305659 5.85903 0
M  V30 2945 C 269.025 0.644899 6.29304 0
M  V30 2946 C 267.689 0.885965 6.61594 0
M  V30 2947 H 266.959 -0.297324 0.678734 0
M  V30 2948 H 269.606 -0.0744332 1.91355 0
M  V30 2949 H 267.911 -2.39562 3.10028 0
M  V30 2950 H 269.608 -2.13643 3.39349 0
M  V30 2951 H 266.198 -0.939006 4.18187 0
M  V30 2952 H 270.382 -0.33167 4.95191 0
M  V30 2953 H 265.638 0.501528 6.0934 0
M  V30 2954 H 269.812 1.10345 6.87602 0
M  V30 2955 H 267.439 1.52609 7.44725 0
M  V30 2956 N 269.014 -1.53014 -0.377408 0
M  V30 2957 C 270.425 -1.60438 -0.954798 0
M  V30 2958 C 270.776 -0.464418 -1.90624 0
M  V30 2959 O 269.901 0.41087 -2.12464 0
M  V30 2960 C 270.496 -2.90797 -1.73847 0
M  V30 2961 C 269.055 -3.00595 -2.26538 0
M  V30 2962 C 268.202 -2.55645 -1.07429 0
M  V30 2963 H 271.153 -1.57926 -0.156575 0
M  V30 2964 H 271.174 -2.77935 -2.5987 0
M  V30 2965 H 270.686 -3.73746 -1.04574 0
M  V30 2966 H 268.787 -2.22208 -2.99089 0
M  V30 2967 H 268.9 -4.05456 -2.5523 0
M  V30 2968 H 267.264 -2.10239 -1.43777 0
M  V30 2969 H 268.047 -3.41 -0.396728 0
M  V30 2970 N 270.492 0.636531 -1.44174 0
M  V30 2971 C 271.722 1.42146 -1.49927 0
M  V30 2972 C 272.13 1.88812 -0.121063 0
M  V30 2973 O 271.473 1.61126 0.882267 0
M  V30 2974 C 271.535 2.67883 -2.39748 0
M  V30 2975 C 271.199 2.43048 -3.8701 0
M  V30 2976 C 272.196 2.05216 -4.77684 0
M  V30 2977 C 269.881 2.56856 -4.3166 0
M  V30 2978 C 271.875 1.81512 -6.11009 0
M  V30 2979 C 269.562 2.32766 -5.65034 0
M  V30 2980 C 270.56 1.95152 -6.54526 0
M  V30 2981 O 270.248 1.71326 -7.85431 0
M  V30 2982 H 269.98 0.442567 -0.51099 0
M  V30 2983 H 272.534 0.786158 -1.8976 0
M  V30 2984 H 270.764 3.34032 -1.94832 0
M  V30 2985 H 272.453 3.29874 -2.36513 0
M  V30 2986 H 273.219 1.94111 -4.44462 0
M  V30 2987 H 269.098 2.85104 -3.62266 0
M  V30 2988 H 272.642 1.52077 -6.80822 0
M  V30 2989 H 268.539 2.43479 -5.97819 0
M  V30 2990 H 269.307 1.85616 -7.97176 0
M  V30 2991 N 271.97 1.30982 0.876444 0
M  V30 2992 C 273.195 1.23373 1.66715 0
M  V30 2993 C 273.62 -0.19885 1.87046 0
M  V30 2994 O 272.978 -1.1427 1.40756 0
M  V30 2995 C 273.026 1.97644 3.01611 0
M  V30 2996 O 272.13 1.30935 3.91062 0
M  V30 2997 H 271.471 0.426279 0.509099 0
M  V30 2998 H 274.001 1.72944 1.09323 0
M  V30 2999 H 274.011 2.06992 3.51594 0
M  V30 3000 H 272.686 3.01829 2.86133 0
M  V30 3001 H 271.263 1.29996 3.49507 0
M  V30 3002 N 273.449 -1.08991 1.13837 0
M  V30 3003 C 274.381 -2.15606 0.777612 0
M  V30 3004 C 275.394 -1.61533 -0.202739 0
M  V30 3005 O 276.583 -1.78491 0.0181055 0
M  V30 3006 C 273.683 -3.3864 0.132623 0
M  V30 3007 C 272.856 -4.22115 1.1462 0
M  V30 3008 C 271.915 -5.23564 0.526074 0
M  V30 3009 O 270.941 -5.56678 1.18735 0
M  V30 3010 N 272.143 -5.76266 -0.699866 0
M  V30 3011 H 274.908 -2.47159 1.69506 0
M  V30 3012 H 272.469 -1.24747 1.03198 0
M  V30 3013 H 274.461 -4.03626 -0.29459 0
M  V30 3014 H 273.031 -3.04938 -0.687849 0
M  V30 3015 H 272.251 -3.53199 1.75055 0
M  V30 3016 H 273.539 -4.74709 1.83109 0
M  V30 3017 H 272.937 -5.51585 -1.25581 0
M  V30 3018 H 271.494 -6.42963 -1.06968 0
M  V30 3019 N 274.927 -0.932562 -1.27047 0
M  V30 3020 C 276.157 -0.591173 -1.97961 0
M  V30 3021 C 276.565 0.836219 -1.69717 0
M  V30 3022 O 275.908 1.56801 -0.957036 0
M  V30 3023 C 275.97 -0.743082 -3.51736 0
M  V30 3024 C 275.634 -2.1435 -4.03613 0
M  V30 3025 C 276.631 -3.11815 -4.16014 0
M  V30 3026 C 274.316 -2.46175 -4.37839 0
M  V30 3027 C 276.31 -4.39211 -4.61923 0
M  V30 3028 C 273.997 -3.73806 -4.83438 0
M  V30 3029 C 274.995 -4.70137 -4.95439 0
M  V30 3030 O 274.683 -5.95496 -5.40037 0
M  V30 3031 H 274.415 -0.222375 -0.638377 0
M  V30 3032 H 276.969 -1.25317 -1.62742 0
M  V30 3033 H 275.199 -0.0239739 -3.86693 0
M  V30 3034 H 276.888 -0.40603 -4.03864 0
M  V30 3035 H 277.654 -2.88549 -3.89826 0
M  V30 3036 H 273.533 -1.71936 -4.27737 0
M  V30 3037 H 277.077 -5.14404 -4.71205 0
M  V30 3038 H 272.974 -3.96888 -5.09068 0
M  V30 3039 H 273.742 -5.98554 -5.58279 0
M  V30 3040 N 276.405 1.4127 -0.698611 0
M  V30 3041 C 277.337 2.292 0.00399731 0
M  V30 3042 C 278.35 1.44944 0.741279 0
M  V30 3043 O 279.539 1.68416 0.591477 0
M  V30 3044 C 276.639 3.22875 1.02979 0
M  V30 3045 C 275.812 4.35904 0.36151 0
M  V30 3046 C 274.871 5.10134 1.29033 0
M  V30 3047 O 273.897 5.63809 0.781562 0
M  V30 3048 N 275.099 5.17885 2.6225 0
M  V30 3049 H 277.864 2.9014 -0.750921 0
M  V30 3050 H 275.425 1.52455 -0.544882 0
M  V30 3051 H 277.417 3.69404 1.65296 0
M  V30 3052 H 275.987 2.63221 1.68622 0
M  V30 3053 H 275.207 3.91719 -0.441584 0
M  V30 3054 H 276.495 5.08696 -0.103055 0
M  V30 3055 H 275.893 4.7573 3.061 0
M  V30 3056 H 274.45 5.6798 3.19754 0
M  V30 3057 N 277.883 0.443576 1.51229 0
M  V30 3058 C 279.13 -0.120796 2.02139 0
M  V30 3059 C 279.458 -1.42166 1.32736 0
M  V30 3060 O 278.713 -1.90849 0.43301 0
M  V30 3061 C 279.012 -0.380579 3.55368 0
M  V30 3062 C 278.678 0.83523 4.43097 0
M  V30 3063 C 277.34 1.16864 4.66794 0
M  V30 3064 C 279.692 1.64601 4.94526 0
M  V30 3065 C 277.02 2.31339 5.39165 0
M  V30 3066 C 279.372 2.78181 5.68153 0
M  V30 3067 C 278.036 3.11969 5.90112 0
M  V30 3068 H 277.306 -0.0442023 0.73968 0
M  V30 3069 H 279.953 0.592046 1.82118 0
M  V30 3070 H 278.258 -1.17538 3.73754 0
M  V30 3071 H 279.955 -0.830777 3.923 0
M  V30 3072 H 276.545 0.565437 4.24854 0
M  V30 3073 H 280.729 1.40163 4.76097 0
M  V30 3074 H 275.985 2.57823 5.5438 0
M  V30 3075 H 280.159 3.41371 6.06992 0
M  V30 3076 H 277.786 4.00784 6.45969 0
M  V30 3077 N 279.361 -1.56624 0.175154 0
M  V30 3078 C 280.607 -1.98061 -0.462976 0
M  V30 3079 C 280.962 -1.05949 -1.60601 0
M  V30 3080 O 280.255 -0.0999027 -1.91339 0
M  V30 3081 C 280.449 -3.43419 -0.989864 0
M  V30 3082 C 280.278 -4.49587 0.100583 0
M  V30 3083 C 279.048 -5.02281 0.551539 0
M  V30 3084 C 281.246 -5.06322 0.902369 0
M  V30 3085 N 279.228 -5.92088 1.62189 0
M  V30 3086 C 280.599 -5.92607 1.82256 0
M  V30 3087 C 282.654 -4.88811 0.947019 0
M  V30 3088 C 281.357 -6.63254 2.78364 0
M  V30 3089 C 283.383 -5.60182 1.89606 0
M  V30 3090 C 282.745 -6.46197 2.80372 0
M  V30 3091 H 278.844 -0.769833 -0.137409 0
M  V30 3092 H 281.428 -1.9273 0.276256 0
M  V30 3093 H 279.599 -3.49288 -1.6986 0
M  V30 3094 H 281.331 -3.7186 -1.59694 0
M  V30 3095 H 278.086 -4.73367 0.148537 0
M  V30 3096 H 278.51 -6.41696 2.15767 0
M  V30 3097 H 283.152 -4.22004 0.259304 0
M  V30 3098 H 280.87 -7.29271 3.48122 0
M  V30 3099 H 284.456 -5.48617 1.93676 0
M  V30 3100 H 283.336 -7.00453 3.52612 0
M  V30 3101 N 280.839 0.0985539 -1.57292 0
M  V30 3102 C 281.786 1.11981 -2.01814 0
M  V30 3103 C 282.756 1.39999 -0.89384 0
M  V30 3104 O 283.941 1.5152 -1.15958 0
M  V30 3105 C 281.081 2.43577 -2.44467 0
M  V30 3106 C 280.194 2.2232 -3.70402 0
M  V30 3107 C 279.329 3.4729 -4.01949 0
M  V30 3108 C 278.368 3.2128 -5.21005 0
M  V30 3109 N 277.505 4.38507 -5.48321 0
M  V30 3110 H 282.345 0.733149 -2.88841 0
M  V30 3111 H 279.882 0.350482 -1.42864 0
M  V30 3112 H 281.84 3.20373 -2.6724 0
M  V30 3113 H 280.47 2.80097 -1.60455 0
M  V30 3114 H 279.522 1.36343 -3.55126 0
M  V30 3115 H 280.834 1.99089 -4.57345 0
M  V30 3116 H 279.988 4.32495 -4.25479 0
M  V30 3117 H 278.727 3.73572 -3.13521 0
M  V30 3118 H 277.732 2.34468 -4.97298 0
M  V30 3119 H 278.957 2.96348 -6.11028 0
M  V30 3120 H 276.903 4.64871 -4.62851 0
M  V30 3121 H 276.82 4.18455 -6.29628 0
M  V30 3122 H 278.088 5.24787 -5.76385 0
M  V30 3123 N 282.317 1.53212 0.369288 0
M  V30 3124 C 283.265 1.80054 1.47253 0
M  V30 3125 C 284.259 0.669456 1.55611 0
M  V30 3126 O 285.465 0.852328 1.58541 0
M  V30 3127 H 281.84 0.570034 0.490475 0
M  V30 3128 H 283.811 2.72403 1.21817 0
M  V30 3129 C 282.56 2.00403 2.84137 0
M  V30 3130 H 281.883 2.86876 2.78464 0
M  V30 3131 H 283.323 2.23164 3.60519 0
M  V30 3132 C 281.782 0.782081 3.27697 0
M  V30 3133 O 282.312 -0.0310205 4.01688 0
M  V30 3134 N 280.518 0.606573 2.84199 0
M  V30 3135 H 280.065 1.26939 2.24152 0
M  V30 3136 H 280.023 -0.20962 3.137 0
M  V30 3137 N 283.795 -0.628877 1.44509 0
M  V30 3138 C 285.042 -1.38839 1.47411 0
M  V30 3139 C 285.37 -1.94202 0.10757 0
M  V30 3140 O 284.625 -1.74243 -0.890947 0
M  V30 3141 C 284.924 -2.56995 2.48371 0
M  V30 3142 C 284.59 -2.19908 3.93639 0
M  V30 3143 C 283.252 -2.09506 4.33198 0
M  V30 3144 C 285.604 -1.9064 4.85083 0
M  V30 3145 C 282.932 -1.68028 5.62124 0
M  V30 3146 C 285.284 -1.50655 6.14399 0
M  V30 3147 C 283.948 -1.38796 6.5291 0
M  V30 3148 H 283.218 -0.508048 0.539414 0
M  V30 3149 H 285.865 -0.712913 1.77735 0
M  V30 3150 H 284.17 -3.29786 2.11538 0
M  V30 3151 H 285.867 -3.15223 2.47861 0
M  V30 3152 H 282.457 -2.28922 3.62343 0
M  V30 3153 H 286.641 -1.97585 4.55273 0
M  V30 3154 H 281.897 -1.57452 5.90778 0
M  V30 3155 H 286.071 -1.27048 6.84713 0
M  V30 3156 H 283.698 -1.06429 7.52713 0
M  V30 3157 N 285.273 -1.31445 -0.869486 0
M  V30 3158 C 286.205 -1.14955 -1.98287 0
M  V30 3159 C 287.218 -0.0885037 -1.62559 0
M  V30 3160 O 288.407 -0.336044 -1.75308 0
M  V30 3161 C 285.507 -0.734255 -3.3085 0
M  V30 3162 C 284.68 -1.88042 -3.94917 0
M  V30 3163 C 283.739 -1.4511 -5.05796 0
M  V30 3164 O 282.765 -2.16082 -5.2659 0
M  V30 3165 N 283.967 -0.338763 -5.79511 0
M  V30 3166 H 286.732 -2.10856 -2.12979 0
M  V30 3167 H 284.293 -1.23786 -1.04349 0
M  V30 3168 H 286.285 -0.42975 -4.02412 0
M  V30 3169 H 284.855 0.133158 -3.12316 0
M  V30 3170 H 284.075 -2.35222 -3.1633 0
M  V30 3171 H 285.363 -2.6481 -4.34457 0
M  V30 3172 H 284.761 0.252274 -5.65137 0
M  V30 3173 H 283.318 -0.0937925 -6.51733 0
M  V30 3174 N 286.751 1.08385 -1.14413 0
M  V30 3175 C 287.979 1.84517 -0.936001 0
M  V30 3176 C 288.394 1.81626 0.515503 0
M  V30 3177 O 287.751 1.22008 1.35721 0
M  V30 3178 C 287.802 3.32049 -1.42918 0
M  V30 3179 O 287.523 3.34951 -2.82381 0
M  V30 3180 C 289.024 4.24986 -1.26103 0
M  V30 3181 H 286.244 0.582491 -0.333084 0
M  V30 3182 H 288.788 1.36885 -1.5193 0
M  V30 3183 H 286.943 3.7707 -0.888641 0
M  V30 3184 H 287.357 4.27048 -3.04517 0
M  V30 3185 H 288.831 5.26615 -1.6547 0
M  V30 3186 H 289.308 4.38726 -0.20392 0
M  V30 3187 H 289.914 3.85791 -1.79012 0
M  V30 3188 N 288.23 0.939286 1.26551 0
M  V30 3189 C 289.16 0.465044 2.28822 0
M  V30 3190 C 290.141 -0.480692 1.63167 0
M  V30 3191 O 291.326 -0.382955 1.90387 0
M  V30 3192 C 288.456 -0.27234 3.46231 0
M  V30 3193 C 287.41 0.58666 4.2396 0
M  V30 3194 C 286.736 -0.280573 5.33963 0
M  V30 3195 C 288.036 1.85704 4.88171 0
M  V30 3196 H 289.73 1.31979 2.68741 0
M  V30 3197 H 287.276 0.636061 1.29191 0
M  V30 3198 H 289.229 -0.615133 4.16886 0
M  V30 3199 H 287.953 -1.16121 3.0526 0
M  V30 3200 H 286.612 0.91232 3.55067 0
M  V30 3201 H 286.26 -1.16874 4.89234 0
M  V30 3202 H 285.96 0.29076 5.8688 0
M  V30 3203 H 287.484 -0.618678 6.07458 0
M  V30 3204 H 288.898 1.58161 5.51052 0
M  V30 3205 H 287.295 2.37279 5.51197 0
M  V30 3206 H 288.365 2.56957 4.11219 0
M  V30 3207 N 289.708 -1.40897 0.706093 0
M  V30 3208 C 290.655 -2.30751 0.0474474 0
M  V30 3209 C 291.625 -1.47678 -0.76029 0
M  V30 3210 O 292.81 -1.76441 -0.726177 0
M  V30 3211 C 289.95 -3.33815 -0.875309 0
M  V30 3212 C 289.063 -4.31961 -0.0580623 0
M  V30 3213 C 288.198 -5.22093 -0.979425 0
M  V30 3214 C 287.237 -6.11902 -0.155706 0
M  V30 3215 N 286.374 -6.94482 -1.03144 0
M  V30 3216 H 291.214 -2.86513 0.819413 0
M  V30 3217 H 288.751 -1.41102 0.415783 0
M  V30 3218 H 290.709 -3.92129 -1.42446 0
M  V30 3219 H 289.339 -2.79579 -1.61356 0
M  V30 3220 H 288.391 -3.75507 0.608147 0
M  V30 3221 H 289.703 -4.95415 0.580082 0
M  V30 3222 H 288.857 -5.85292 -1.59744 0
M  V30 3223 H 287.596 -4.5889 -1.65141 0
M  V30 3224 H 286.601 -5.47742 0.475309 0
M  V30 3225 H 287.826 -6.77162 0.512635 0
M  V30 3226 H 285.772 -6.33877 -1.68924 0
M  V30 3227 H 285.689 -7.54665 -0.449108 0
M  V30 3228 H 286.957 -7.6214 -1.63593 0
M  V30 3229 N 291.186 -0.45159 -1.50991 0
M  V30 3230 C 292.435 0.111653 -2.01391 0
M  V30 3231 C 292.748 1.42529 -1.33959 0
M  V30 3232 O 293.954 2.07232 -1.75405 0
M  V30 3233 C 292.41 0.249514 -3.59034 0
M  V30 3234 C 292.018 -1.05453 -4.35412 0
M  V30 3235 C 293.762 0.765762 -4.17536 0
M  V30 3236 C 291.669 -0.881529 -5.84793 0
M  V30 3237 H 290.599 0.0455022 -0.752626 0
M  V30 3238 H 293.25 -0.583524 -1.73975 0
M  V30 3239 H 291.632 1.00803 -3.82955 0
M  V30 3240 H 292.806 -1.82248 -4.23229 0
M  V30 3241 H 291.121 -1.50039 -3.88429 0
M  V30 3242 H 293.718 0.911913 -5.26866 0
M  V30 3243 H 294.061 1.75201 -3.77638 0
M  V30 3244 H 294.594 0.0651744 -3.97747 0
M  V30 3245 H 291.333 -1.84057 -6.29129 0
M  V30 3246 H 290.853 -0.153625 -5.99603 0
M  V30 3247 H 292.532 -0.540363 -6.4474 0
M  V30 3248 N 292.664 1.56529 -0.183458 0
M  V30 3249 C 293.91 1.97537 0.459036 0
M  V30 3250 C 294.243 1.06989 1.62071 0
M  V30 3251 O 293.518 0.11948 1.94133 0
M  V30 3252 C 293.801 3.47874 0.930368 0
M  V30 3253 C 293.654 4.492 -0.232317 0
M  V30 3254 C 294.973 4.01612 1.79989 0
M  V30 3255 H 292.092 0.718204 0.165383 0
M  V30 3256 H 294.734 1.88042 -0.272038 0
M  V30 3257 H 292.884 3.56095 1.55333 0
M  V30 3258 H 294.556 4.53027 -0.86972 0
M  V30 3259 H 292.799 4.24657 -0.885928 0
M  V30 3260 H 293.47 5.51823 0.139796 0
M  V30 3261 H 295.946 3.96097 1.27461 0
M  V30 3262 H 294.822 5.07195 2.09867 0
M  V30 3263 H 295.083 3.46163 2.74998 0
M  V30 3264 N 294.142 -0.090211 1.57342 0
M  V30 3265 C 295.391 -0.791531 1.8552 0
M  V30 3266 C 295.704 -1.79659 0.773441 0
M  V30 3267 O 296.91 -2.54616 0.942497 0
M  V30 3268 C 295.366 -1.45856 3.2902 0
M  V30 3269 C 294.974 -0.493017 4.45279 0
M  V30 3270 C 296.718 -2.14332 3.66418 0
M  V30 3271 C 294.625 -1.16491 5.79814 0
M  V30 3272 H 293.555 -0.299356 0.692027 0
M  V30 3273 H 296.206 -0.0445343 1.83446 0
M  V30 3274 H 294.588 -2.25318 3.2565 0
M  V30 3275 H 295.762 0.270464 4.60006 0
M  V30 3276 H 294.077 0.0863061 4.16311 0
M  V30 3277 H 296.674 -2.65344 4.64216 0
M  V30 3278 H 297.017 -2.93447 2.95287 0
M  V30 3279 H 297.55 -1.41724 3.71698 0
M  V30 3280 H 294.289 -0.41447 6.54188 0
M  V30 3281 H 293.809 -1.8997 5.68921 0
M  V30 3282 H 295.488 -1.69001 6.24538 0
M  V30 3283 N 295.62 -1.53406 -0.361157 0
M  V30 3284 C 296.55 -1.83136 -1.44857 0
M  V30 3285 C 297.531 -0.685174 -1.5569 0
M  V30 3286 O 298.716 -0.93544 -1.70186 0
M  V30 3287 C 295.846 -2.02522 -2.82138 0
M  V30 3288 C 294.8 -3.18302 -2.86126 0
M  V30 3289 C 294.126 -3.22989 -4.26125 0
M  V30 3290 C 295.426 -4.56796 -2.53248 0
M  V30 3291 H 297.12 -2.74201 -1.20226 0
M  V30 3292 H 294.666 -1.31938 -0.576922 0
M  V30 3293 H 296.619 -2.21904 -3.58241 0
M  V30 3294 H 295.343 -1.08172 -3.08166 0
M  V30 3295 H 294.002 -2.98747 -2.12475 0
M  V30 3296 H 293.65 -2.26267 -4.49235 0
M  V30 3297 H 293.35 -4.00781 -4.29708 0
M  V30 3298 H 294.874 -3.44559 -5.04094 0
M  V30 3299 H 296.288 -4.7631 -3.19064 0
M  V30 3300 H 294.685 -5.36862 -2.68141 0
M  V30 3301 H 295.755 -4.61606 -1.48484 0
M  V30 3302 N 297.098 0.621204 -1.44841 0
M  V30 3303 C 298.346 1.37783 -1.47852 0
M  V30 3304 C 298.667 1.94653 -0.116224 0
M  V30 3305 O 297.937 1.76367 0.852737 0
M  V30 3306 H 296.517 0.511453 -0.544449 0
M  V30 3307 H 299.179 0.730446 -1.80694 0
M  V30 3308 H 298.275 2.20414 -2.20961 0
M  V30 3309 N 298.576 1.31904 0.862503 0
M  V30 3310 C 299.506 1.22782 1.98612 0
M  V30 3311 C 300.487 0.113362 1.69722 0
M  V30 3312 O 301.672 0.299218 1.91881 0
M  V30 3313 C 298.802 0.942058 3.34279 0
M  V30 3314 C 297.756 2.0169 3.77499 0
M  V30 3315 C 297.082 1.58369 5.10709 0
M  V30 3316 C 298.382 3.43096 3.93805 0
M  V30 3317 H 300.076 2.16788 2.06502 0
M  V30 3318 H 297.622 1.04366 0.992154 0
M  V30 3319 H 299.575 0.864818 4.1243 0
M  V30 3320 H 298.299 -0.0336603 3.26583 0
M  V30 3321 H 296.958 2.08416 3.01593 0
M  V30 3322 H 296.606 0.595628 4.99461 0
M  V30 3323 H 296.306 2.30279 5.40597 0
M  V30 3324 H 297.83 1.52067 5.91361 0
M  V30 3325 H 299.244 3.39003 4.62331 0
M  V30 3326 H 297.641 4.13288 4.35101 0
M  V30 3327 H 298.711 3.83334 2.96957 0
M  V30 3328 N 300.054 -1.07777 1.14986 0
M  V30 3329 C 301.3 -1.80557 0.923422 0
M  V30 3330 C 301.633 -1.86298 -0.548337 0
M  V30 3331 O 300.908 -1.34354 -1.40639 0
M  V30 3332 C 301.191 -3.25839 1.53299 0
M  V30 3333 C 301.044 -3.28269 3.07505 0
M  V30 3334 C 302.363 -4.22991 1.21518 0
M  V30 3335 H 299.482 -0.655493 0.336894 0
M  V30 3336 H 302.124 -1.26144 1.42083 0
M  V30 3337 H 300.274 -3.72306 1.10999 0
M  V30 3338 H 301.946 -2.90079 3.58681 0
M  V30 3339 H 300.189 -2.67355 3.4162 0
M  V30 3340 H 300.86 -4.30691 3.45266 0
M  V30 3341 H 303.336 -3.84894 1.581 0
M  V30 3342 H 302.212 -5.22945 1.66793 0
M  V30 3343 H 302.473 -4.41904 0.131505 0
M  V30 3344 N 301.532 -0.945985 -1.26051 0
M  V30 3345 C 302.462 -0.477172 -2.28572 0
M  V30 3346 C 303.443 0.472032 -1.63419 0
M  V30 3347 O 304.628 0.372853 -1.90587 0
M  V30 3348 C 301.758 0.253975 -3.4637 0
M  V30 3349 C 300.712 -0.609135 -4.23643 0
M  V30 3350 C 300.038 0.252252 -5.34105 0
M  V30 3351 C 301.338 -1.8829 -4.8718 0
M  V30 3352 H 303.032 -1.33402 -2.68038 0
M  V30 3353 H 300.578 -0.642904 -1.28852 0
M  V30 3354 H 302.531 0.593016 -4.17207 0
M  V30 3355 H 301.255 1.145 -3.05871 0
M  V30 3356 H 299.914 -0.931138 -3.54578 0
M  V30 3357 H 299.562 1.14278 -4.89846 0
M  V30 3358 H 299.262 -0.32188 -5.86718 0
M  V30 3359 H 300.786 0.586454 -6.07777 0
M  V30 3360 H 302.2 -1.61081 -5.50205 0
M  V30 3361 H 300.597 -2.40199 -5.49931 0
M  V30 3362 H 301.667 -2.59134 -4.09851 0
M  V30 3363 N 303.011 1.40521 -0.713556 0
M  V30 3364 C 304.422 1.83853 -0.324807 0
M  V30 3365 C 304.773 1.59667 1.14021 0
M  V30 3366 O 303.898 1.07649 1.87725 0
M  V30 3367 C 304.493 3.33751 -0.582746 0
M  V30 3368 C 303.052 3.75584 -0.247727 0
M  V30 3369 C 302.199 2.63753 -0.856121 0
M  V30 3370 H 305.15 1.29817 -0.91286 0
M  V30 3371 H 305.171 3.80194 0.152682 0
M  V30 3372 H 304.683 3.51322 -1.64908 0
M  V30 3373 H 302.784 3.63608 0.813624 0
M  V30 3374 H 302.897 4.7373 -0.715307 0
M  V30 3375 H 301.261 2.53108 -0.28432 0
M  V30 3376 H 302.044 2.84137 -1.92668 0
M  V30 3377 N 304.489 0.459591 1.5075 0
M  V30 3378 C 305.419 -0.330644 2.31147 0
M  V30 3379 C 306.4 -1.00087 1.37538 0
M  V30 3380 O 307.585 -1.00025 1.66459 0
M  V30 3381 C 304.715 -1.41958 3.16962 0
M  V30 3382 C 303.669 -0.871608 4.19031 0
M  V30 3383 C 302.995 -2.05797 4.9351 0
M  V30 3384 C 304.295 0.109251 5.22186 0
M  V30 3385 H 305.989 0.340336 2.97459 0
M  V30 3386 H 303.535 0.165119 1.4305 0
M  V30 3387 H 305.488 -1.9798 3.71997 0
M  V30 3388 H 304.212 -2.11917 2.48513 0
M  V30 3389 H 302.871 -0.333442 3.6508 0
M  V30 3390 H 302.519 -2.74427 4.21544 0
M  V30 3391 H 302.219 -1.6976 5.62544 0
M  V30 3392 H 303.743 -2.62331 5.51375 0
M  V30 3393 H 305.157 -0.361405 5.7216 0
M  V30 3394 H 303.554 0.383316 5.98875 0
M  V30 3395 H 304.624 1.03887 4.73641 0
M  V30 3396 N 305.967 -1.56429 0.191757 0
M  V30 3397 C 306.897 -2.21937 -0.725696 0
M  V30 3398 C 307.878 -1.1814 -1.2238 0
M  V30 3399 O 309.063 -1.46636 -1.27325 0
M  V30 3400 C 306.193 -2.87611 -1.94672 0
M  V30 3401 C 305.147 -3.97623 -1.58366 0
M  V30 3402 C 304.473 -4.50446 -2.88102 0
M  V30 3403 C 305.773 -5.16197 -0.796133 0
M  V30 3404 H 307.467 -2.98861 -0.179606 0
M  V30 3405 H 305.013 -1.43749 -0.0849464 0
M  V30 3406 H 306.966 -3.3212 -2.59373 0
M  V30 3407 H 305.69 -2.08087 -2.51728 0
M  V30 3408 H 304.349 -3.53801 -0.960247 0
M  V30 3409 H 303.997 -3.67688 -3.43241 0
M  V30 3410 H 303.697 -5.24675 -2.64556 0
M  V30 3411 H 305.221 -4.97654 -3.53798 0
M  V30 3412 H 306.635 -5.57271 -1.34618 0
M  V30 3413 H 305.032 -5.96471 -0.658928 0
M  V30 3414 H 306.102 -4.84473 0.203478 0
M  V30 3415 N 307.445 0.0818655 -1.57387 0
M  V30 3416 C 308.691 0.784074 -1.8703 0
M  V30 3417 C 309.024 1.77729 -0.782689 0
M  V30 3418 O 308.299 1.93384 0.208051 0
M  V30 3419 C 308.582 1.50105 -3.27323 0
M  V30 3420 C 308.435 0.524925 -4.46727 0
M  V30 3421 C 309.754 2.44843 -3.65705 0
M  V30 3422 H 306.873 0.283582 -0.680257 0
M  V30 3423 H 309.515 0.0474352 -1.89941 0
M  V30 3424 H 307.665 2.12897 -3.24972 0
M  V30 3425 H 309.337 -0.0970111 -4.61198 0
M  V30 3426 H 307.58 -0.160606 -4.33503 0
M  V30 3427 H 308.251 1.064 -5.41648 0
M  V30 3428 H 310.727 1.92135 -3.69085 0
M  V30 3429 H 309.603 2.92018 -4.64776 0
M  V30 3430 H 309.864 3.29197 -2.95096 0
M  V30 3431 N 308.923 1.53595 0.353017 0
M  V30 3432 C 309.856 1.7572 1.45594 0
M  V30 3433 C 310.834 0.605961 1.50887 0
M  V30 3434 O 312.018 0.840023 1.68748 0
M  V30 3435 C 309.145 1.84732 2.83887 0
M  V30 3436 C 308.191 3.06808 2.96262 0
M  V30 3437 S 309.024 4.66065 2.63711 0
M  V30 3438 C 310.18 4.77943 4.04131 0
M  V30 3439 H 310.413 2.68994 1.26608 0
M  V30 3440 H 307.946 1.44343 0.548117 0
M  V30 3441 H 309.904 1.9061 3.63563 0
M  V30 3442 H 308.565 0.92488 3.00175 0
M  V30 3443 H 307.758 3.09761 3.97573 0
M  V30 3444 H 307.36 2.99108 2.24523 0
M  V30 3445 H 309.652 4.5877 4.98534 0
M  V30 3446 H 310.595 5.80022 4.06177 0
M  V30 3447 H 311.003 4.06472 3.91715 0
M  V30 3448 N 310.401 -0.613514 1.45168 0
M  V30 3449 C 311.647 -1.37471 1.49096 0
M  V30 3450 C 311.98 -1.93765 0.129901 0
M  V30 3451 O 311.255 -1.74707 -0.854858 0
M  V30 3452 C 311.538 -2.52701 2.56542 0
M  V30 3453 C 311.391 -2.01643 4.0207 0
M  V30 3454 C 312.71 -3.54849 2.60327 0
M  V30 3455 H 309.829 -0.498502 0.54283 0
M  V30 3456 H 312.471 -0.692125 1.76945 0
M  V30 3457 H 310.621 -3.10931 2.32926 0
M  V30 3458 H 312.293 -1.48108 4.36877 0
M  V30 3459 H 310.536 -1.32688 4.13009 0
M  V30 3460 H 311.207 -2.84681 4.72928 0
M  V30 3461 H 313.683 -3.0645 2.81474 0
M  V30 3462 H 312.559 -4.32973 3.37381 0
M  V30 3463 H 312.82 -4.10079 1.6519 0
M  V30 3464 N 311.879 -1.3236 -0.855495 0
M  V30 3465 C 313.128 -1.22226 -1.60448 0
M  V30 3466 C 313.441 0.214733 -1.94418 0
M  V30 3467 O 314.647 0.437917 -2.67945 0
M  V30 3468 C 313.103 -2.14063 -2.89318 0
M  V30 3469 C 312.711 -3.62839 -2.62777 0
M  V30 3470 C 314.455 -2.12764 -3.67331 0
M  V30 3471 C 312.362 -4.4664 -3.87643 0
M  V30 3472 H 311.292 -0.453904 -0.602069 0
M  V30 3473 H 313.943 -1.57314 -0.944698 0
M  V30 3474 H 312.325 -1.71889 -3.5675 0
M  V30 3475 H 313.499 -4.1335 -2.03662 0
M  V30 3476 H 311.814 -3.66261 -1.98096 0
M  V30 3477 H 314.411 -2.72611 -4.59987 0
M  V30 3478 H 314.754 -1.11841 -4.00995 0
M  V30 3479 H 315.287 -2.53214 -3.06802 0
M  V30 3480 H 312.026 -5.48373 -3.5912 0
M  V30 3481 H 311.546 -4.0088 -4.46156 0
M  V30 3482 H 313.225 -4.59597 -4.55389 0
M  V30 3483 N 313.357 1.07166 -1.15556 0
M  V30 3484 C 314.597 1.81391 -0.94216 0
M  V30 3485 C 314.961 1.84788 0.521272 0
M  V30 3486 O 316.162 2.54904 0.85307 0
M  V30 3487 C 314.433 3.22431 -1.54185 0
M  V30 3488 S 315.992 4.13379 -1.47183 0
M  V30 3489 H 312.81 0.624963 -0.339031 0
M  V30 3490 H 315.412 1.28725 -1.4714 0
M  V30 3491 H 314.116 3.17548 -2.59984 0
M  V30 3492 H 313.647 3.80172 -1.01156 0
M  V30 3493 H 315.662 4.94007 -0.466004 0
M  V30 3494 N 314.835 0.952656 1.25548 0
M  V30 3495 C 316.065 0.622592 1.96996 0
M  V30 3496 C 316.473 -0.809112 1.71026 0
M  V30 3497 O 315.816 -1.55258 0.981861 0
M  V30 3498 C 315.878 0.798946 3.5051 0
M  V30 3499 C 315.542 2.20744 4.00151 0
M  V30 3500 C 316.539 3.18394 4.11001 0
M  V30 3501 C 314.224 2.5311 4.33867 0
M  V30 3502 C 316.218 4.46504 4.54877 0
M  V30 3503 C 313.905 3.8145 4.7743 0
M  V30 3504 C 314.903 4.77959 4.87897 0
M  V30 3505 O 314.591 6.04012 5.30494 0
M  V30 3506 H 314.323 0.232503 0.634758 0
M  V30 3507 H 316.877 1.2789 1.60728 0
M  V30 3508 H 315.107 0.0854903 3.86605 0
M  V30 3509 H 316.796 0.47023 4.03167 0
M  V30 3510 H 317.562 2.94715 3.85186 0
M  V30 3511 H 313.441 1.78719 4.24948 0
M  V30 3512 H 316.985 5.21835 4.62962 0
M  V30 3513 H 312.882 4.04936 5.0269 0
M  V30 3514 H 313.65 6.0736 5.48685 0
M  V30 3515 N 316.313 -1.40141 0.720998 0
M  V30 3516 C 317.538 -2.05618 0.271258 0
M  V30 3517 C 317.963 -1.53978 -1.08039 0
M  V30 3518 O 317.321 -0.677463 -1.68167 0
M  V30 3519 C 317.369 -3.59609 0.267197 0
M  V30 3520 O 316.473 -4.05526 -0.749814 0
M  V30 3521 H 315.814 -0.651904 0.126162 0
M  V30 3522 H 318.344 -1.79439 0.982997 0
M  V30 3523 H 318.354 -4.0786 0.106744 0
M  V30 3524 H 317.029 -3.96559 1.25354 0
M  V30 3525 H 315.606 -3.68722 -0.556644 0
M  V30 3526 N 317.792 -0.46758 -1.50504 0
M  V30 3527 C 319.04 0.0884469 -2.01906 0
M  V30 3528 C 319.361 1.40532 -1.35188 0
M  V30 3529 O 318.631 1.89515 -0.496079 0
M  V30 3530 H 317.211 0.0356765 -0.746148 0
M  V30 3531 H 319.873 -0.6172 -1.84869 0
M  V30 3532 H 318.969 0.2425 -3.11156 0
M  V30 3533 N 319.27 1.56325 -0.20005 0
M  V30 3534 C 320.519 1.96895 0.437652 0
M  V30 3535 C 320.832 1.08999 1.62415 0
M  V30 3536 O 322.038 1.39372 2.32997 0
M  V30 3537 C 320.494 3.50198 0.830025 0
M  V30 3538 C 320.102 4.46765 -0.332461 0
M  V30 3539 C 321.846 3.99526 1.43453 0
M  V30 3540 C 319.753 5.91344 0.0811468 0
M  V30 3541 H 318.683 0.735209 0.167282 0
M  V30 3542 H 321.334 1.81148 -0.292853 0
M  V30 3543 H 319.716 3.61467 1.61734 0
M  V30 3544 H 320.89 4.47231 -1.11 0
M  V30 3545 H 319.205 4.07657 -0.848789 0
M  V30 3546 H 321.802 5.05025 1.75652 0
M  V30 3547 H 322.145 3.44122 2.34277 0
M  V30 3548 H 322.678 3.91393 0.71109 0
M  V30 3549 H 319.417 6.50685 -0.793033 0
M  V30 3550 H 318.937 5.94121 0.823445 0
M  V30 3551 H 320.616 6.44945 0.515252 0
M  V30 3552 N 320.748 -0.0735177 1.57428 0
M  V30 3553 C 321.678 -1.0879 2.06608 0
M  V30 3554 C 322.659 -1.40473 0.959237 0
M  V30 3555 O 323.844 -1.5013 1.23185 0
M  V30 3556 C 320.974 -2.40183 2.50857 0
M  V30 3557 C 319.928 -2.22858 3.65402 0
M  V30 3558 C 319.254 -3.59619 3.957 0
M  V30 3559 C 320.554 -1.65123 4.95511 0
M  V30 3560 H 322.248 -0.678673 2.91607 0
M  V30 3561 H 319.794 -0.325013 1.40284 0
M  V30 3562 H 321.747 -3.11437 2.83874 0
M  V30 3563 H 320.471 -2.83083 1.62885 0
M  V30 3564 H 319.13 -1.54045 3.32664 0
M  V30 3565 H 318.778 -4.00086 3.04861 0
M  V30 3566 H 318.478 -3.48866 4.72828 0
M  V30 3567 H 320.002 -4.32306 4.31212 0
M  V30 3568 H 321.416 -2.26241 5.26771 0
M  V30 3569 H 319.813 -1.65071 5.7695 0
M  V30 3570 H 320.883 -0.612559 4.81015 0
M  V30 3571 N 322.226 -1.5378 -0.344866 0
M  V30 3572 C 323.173 -1.81676 -1.42346 0
M  V30 3573 C 324.143 -0.662376 -1.52321 0
M  V30 3574 O 325.328 -0.906675 -1.67881 0
M  V30 3575 C 322.468 -2.03087 -2.79015 0
M  V30 3576 C 321.581 -3.30799 -2.77842 0
M  V30 3577 C 320.716 -3.42285 -4.0622 0
M  V30 3578 C 319.755 -4.6395 -3.9927 0
M  V30 3579 N 318.892 -4.72477 -5.19336 0
M  V30 3580 H 323.732 -2.73703 -1.17858 0
M  V30 3581 H 321.269 -1.35568 -0.570949 0
M  V30 3582 H 323.227 -2.1349 -3.58438 0
M  V30 3583 H 321.857 -1.14375 -3.01858 0
M  V30 3584 H 320.909 -3.29244 -1.90533 0
M  V30 3585 H 322.221 -4.20314 -2.68584 0
M  V30 3586 H 321.375 -3.52113 -4.94066 0
M  V30 3587 H 320.114 -2.50823 -4.18258 0
M  V30 3588 H 319.119 -4.54201 -3.09809 0
M  V30 3589 H 320.344 -5.56775 -3.88817 0
M  V30 3590 H 318.29 -3.83924 -5.3192 0
M  V30 3591 H 318.207 -5.55927 -5.12329 0
M  V30 3592 H 319.475 -4.86613 -6.08957 0
M  V30 3593 N 323.704 0.605807 -1.45491 0
M  V30 3594 C 324.932 1.39136 -1.5313 0
M  V30 3595 C 325.347 1.88082 -0.164507 0
M  V30 3596 O 324.704 1.62316 0.834247 0
M  V30 3597 C 324.755 2.59463 -2.51716 0
M  V30 3598 O 324.476 2.12551 -3.83084 0
M  V30 3599 C 325.977 3.52301 -2.6907 0
M  V30 3600 H 323.197 0.425849 -0.51855 0
M  V30 3601 H 325.741 0.73865 -1.90694 0
M  V30 3602 H 323.896 3.20772 -2.17219 0
M  V30 3603 H 324.31 2.90744 -4.36541 0
M  V30 3604 H 325.784 4.33271 -3.42024 0
M  V30 3605 H 326.261 4.02757 -1.75167 0
M  V30 3606 H 326.867 2.96845 -3.04571 0
M  V30 3607 N 325.182 1.32811 0.848464 0
M  V30 3608 C 326.112 1.24882 1.97299 0
M  V30 3609 C 327.093 0.131357 1.69592 0
M  V30 3610 O 328.278 0.319553 1.91553 0
M  V30 3611 C 325.408 0.97746 3.33261 0
M  V30 3612 C 324.362 2.05682 3.75338 0
M  V30 3613 C 323.688 1.63777 5.09 0
M  V30 3614 C 324.988 3.47254 3.90144 0
M  V30 3615 H 326.682 2.18966 2.04191 0
M  V30 3616 H 324.228 1.05413 0.981029 0
M  V30 3617 H 326.181 0.908513 4.1149 0
M  V30 3618 H 324.905 0.000980011 3.266 0
M  V30 3619 H 323.564 2.11603 2.99366 0
M  V30 3620 H 323.212 0.648569 4.98801 0
M  V30 3621 H 322.912 2.36 5.38124 0
M  V30 3622 H 324.436 1.5833 5.89715 0
M  V30 3623 H 325.85 3.43888 4.58709 0
M  V30 3624 H 324.247 4.1788 4.30693 0
M  V30 3625 H 325.317 3.86462 2.92874 0
M  V30 3626 N 326.66 -1.06551 1.16123 0
M  V30 3627 C 327.59 -2.15935 0.88851 0
M  V30 3628 C 328.571 -1.69306 -0.164135 0
M  V30 3629 O 329.756 -1.94193 -0.0167857 0
M  V30 3630 C 326.886 -3.45149 0.385942 0
M  V30 3631 C 325.84 -4.05271 1.3762 0
M  V30 3632 C 325.166 -5.29664 0.732137 0
M  V30 3633 C 326.466 -4.44355 2.74493 0
M  V30 3634 H 328.16 -2.39006 1.80323 0
M  V30 3635 H 325.706 -1.14866 0.868435 0
M  V30 3636 H 327.659 -4.21004 0.182647 0
M  V30 3637 H 326.383 -3.21689 -0.564274 0
M  V30 3638 H 325.042 -3.3147 1.56599 0
M  V30 3639 H 324.69 -5.02499 -0.224483 0
M  V30 3640 H 324.39 -5.70848 1.39307 0
M  V30 3641 H 325.914 -6.08218 0.538802 0
M  V30 3642 H 327.328 -5.11303 2.59311 0
M  V30 3643 H 325.725 -4.96515 3.37035 0
M  V30 3644 H 326.795 -3.55339 3.29943 0
M  V30 3645 N 328.138 -0.959301 -1.25041 0
M  V30 3646 C 329.554 -0.664474 -1.4511 0
M  V30 3647 C 329.754 0.776481 -1.85938 0
M  V30 3648 O 328.81 1.55128 -1.99227 0
M  V30 3649 C 330.123 -1.64139 -2.5195 0
M  V30 3650 C 331.671 -1.65309 -2.65786 0
M  V30 3651 C 332.146 -2.61777 -3.75815 0
M  V30 3652 N 333.637 -2.60169 -3.83231 0
M  V30 3653 C 334.372 -3.31489 -4.6787 0
M  V30 3654 N 333.868 -4.12298 -5.56761 0
M  V30 3655 N 335.661 -3.20354 -4.61876 0
M  V30 3656 H 327.812 -1.89043 -0.968332 0
M  V30 3657 H 330.075 -0.813408 -0.4869 0
M  V30 3658 H 329.781 -2.67086 -2.28819 0
M  V30 3659 H 329.655 -1.40756 -3.49954 0
M  V30 3660 H 332.042 -0.630778 -2.8828 0
M  V30 3661 H 332.123 -1.92753 -1.68167 0
M  V30 3662 H 331.767 -3.64137 -3.54071 0
M  V30 3663 H 331.697 -2.31616 -4.72929 0
M  V30 3664 H 334.188 -2.01507 -3.19692 0
M  V30 3665 H 334.501 -4.63625 -6.18281 0
M  V30 3666 H 332.846 -4.16395 -5.56454 0
M  V30 3667 H 336.037 -2.56692 -3.91442 0
M  V30 3668 H 336.21 -3.76201 -5.27614 0
M  V30 3669 N 329.616 1.39756 -0.72842 0
M  V30 3670 C 330.856 2.025 -0.278078 0
M  V30 3671 C 331.22 1.5654 1.11173 0
M  V30 3672 O 332.421 2.11435 1.65978 0
M  V30 3673 C 330.692 3.55489 -0.369139 0
M  V30 3674 S 332.251 4.388 0.00232983 0
M  V30 3675 H 329.069 0.702534 -0.109391 0
M  V30 3676 H 331.671 1.70672 -0.95348 0
M  V30 3677 H 330.375 3.86429 -1.38204 0
M  V30 3678 H 329.906 3.92061 0.324308 0
M  V30 3679 H 331.921 4.80954 1.22055 0
M  V30 3680 N 331.094 0.475555 1.50254 0
M  V30 3681 C 332.51 0.12997 1.5907 0
M  V30 3682 C 332.71 -1.36385 1.48328 0
M  V30 3683 O 331.766 -2.13754 1.34407 0
M  V30 3684 C 333.079 0.684139 2.92814 0
M  V30 3685 C 334.627 0.647965 3.0622 0
M  V30 3686 C 335.102 1.17975 4.42545 0
M  V30 3687 N 336.593 1.13936 4.48969 0
M  V30 3688 C 337.328 1.52129 5.52851 0
M  V30 3689 N 336.824 1.97793 6.63965 0
M  V30 3690 N 338.617 1.43704 5.4342 0
M  V30 3691 H 330.768 1.44706 1.55479 0
M  V30 3692 H 333.031 0.598691 0.735033 0
M  V30 3693 H 332.737 1.73079 3.06164 0
M  V30 3694 H 332.611 0.130204 3.76975 0
M  V30 3695 H 334.998 -0.38979 2.92514 0
M  V30 3696 H 335.079 1.23876 2.23805 0
M  V30 3697 H 334.723 2.21616 4.57 0
M  V30 3698 H 334.653 0.565138 5.23559 0
M  V30 3699 H 337.144 0.804488 3.69238 0
M  V30 3700 H 337.457 2.25072 7.39299 0
M  V30 3701 H 335.802 2.01749 6.65073 0
M  V30 3702 H 338.993 1.07867 4.55502 0
M  V30 3703 H 339.166 1.73794 6.24259 0
M  V30 3704 N 332.573 -1.56217 0.208337 0
M  V30 3705 C 333.521 -2.21053 -0.723769 0
M  V30 3706 C 334.515 -1.18578 -1.20978 0
M  V30 3707 O 335.721 -1.36691 -1.17114 0
M  V30 3708 H 332.096 -0.708595 -0.251788 0
M  V30 3709 H 334.067 -2.98006 -0.153365 0
M  V30 3710 C 332.816 -2.89417 -1.927 0
M  V30 3711 H 332.139 -3.68019 -1.56212 0
M  V30 3712 H 333.579 -3.38201 -2.55727 0
M  V30 3713 C 332.038 -1.91166 -2.77411 0
M  V30 3714 O 332.568 -1.42026 -3.75754 0
M  V30 3715 N 330.774 -1.59105 -2.43175 0
M  V30 3716 H 330.321 -1.99259 -1.63259 0
M  V30 3717 H 330.279 -0.936255 -3.00136 0
M  V30 3718 N 334.051 0.0651679 -1.57465 0
M  V30 3719 C 334.961 1.09448 -2.07505 0
M  V30 3720 C 335.977 1.41974 -1.00595 0
M  V30 3721 O 337.153 1.52018 -1.32107 0
M  V30 3722 C 334.218 2.38689 -2.51453 0
M  V30 3723 C 333.279 2.13073 -3.72691 0
M  V30 3724 C 332.512 3.36152 -4.14533 0
M  V30 3725 O 332.735 4.45517 -3.56189 0
M  V30 3726 O 331.669 3.23974 -5.07272 0
M  V30 3727 H 335.495 0.69935 -2.95538 0
M  V30 3728 H 333.08 0.279752 -1.46757 0
M  V30 3729 H 334.962 3.14736 -2.80212 0
M  V30 3730 H 333.637 2.77568 -1.66546 0
M  V30 3731 H 332.544 1.34709 -3.49005 0
M  V30 3732 H 333.877 1.79071 -4.5847 0
M  V30 3733 N 335.529 1.53961 0.336706 0
M  V30 3734 C 336.476 1.82428 1.41381 0
M  V30 3735 C 337.446 0.670444 1.51968 0
M  V30 3736 O 338.631 0.915565 1.67398 0
M  V30 3737 C 335.771 2.04564 2.77934 0
M  V30 3738 C 334.884 3.32267 2.76084 0
M  V30 3739 C 334.019 3.44434 4.04399 0
M  V30 3740 C 333.058 4.66061 3.96804 0
M  V30 3741 N 332.195 4.75224 5.16823 0
M  V30 3742 H 337.035 2.74324 1.16405 0
M  V30 3743 H 334.572 1.35869 0.563752 0
M  V30 3744 H 336.53 2.15388 3.57301 0
M  V30 3745 H 335.16 1.15974 3.01247 0
M  V30 3746 H 334.212 3.3025 1.88784 0
M  V30 3747 H 335.524 4.21733 2.66351 0
M  V30 3748 H 334.678 3.54728 4.92192 0
M  V30 3749 H 333.417 2.53037 4.16921 0
M  V30 3750 H 332.422 4.55838 3.07396 0
M  V30 3751 H 333.647 5.58829 3.85858 0
M  V30 3752 H 331.593 3.86739 5.29876 0
M  V30 3753 H 331.51 5.58636 5.09374 0
M  V30 3754 H 332.778 4.89835 6.06367 0
M  V30 3755 N 337.007 -0.598083 1.45811 0
M  V30 3756 C 337.954 -1.7082 1.55207 0
M  V30 3757 C 338.924 -1.61278 0.39732 0
M  V30 3758 O 340.109 -1.80717 0.612038 0
M  V30 3759 C 337.249 -3.09144 1.53376 0
M  V30 3760 C 336.362 -3.29423 2.79472 0
M  V30 3761 C 335.497 -4.57907 2.69248 0
M  V30 3762 C 334.536 -4.71476 3.90354 0
M  V30 3763 N 333.673 -5.9127 3.78608 0
M  V30 3764 H 338.513 -1.62125 2.50039 0
M  V30 3765 H 336.05 -0.790389 1.24062 0
M  V30 3766 H 338.008 -3.89186 1.50301 0
M  V30 3767 H 336.638 -3.16773 0.620876 0
M  V30 3768 H 335.69 -2.43091 2.92594 0
M  V30 3769 H 337.002 -3.3532 3.69272 0
M  V30 3770 H 336.156 -5.46157 2.64192 0
M  V30 3771 H 334.895 -4.54423 1.77063 0
M  V30 3772 H 333.9 -3.81648 3.95759 0
M  V30 3773 H 335.125 -4.76751 4.83617 0
M  V30 3774 H 333.071 -5.88813 2.89199 0
M  V30 3775 H 332.988 -5.98369 4.6205 0
M  V30 3776 H 334.256 -6.81992 3.77501 0
M  V30 3777 N 338.485 -1.33259 -0.841409 0
M  V30 3778 C 339.901 -1.12538 -1.13169 0
M  V30 3779 C 340.101 0.0854037 -2.01319 0
M  V30 3780 O 339.157 0.766417 -2.40587 0
M  V30 3781 C 340.47 -2.41156 -1.79623 0
M  V30 3782 C 342.018 -2.47038 -1.922 0
M  V30 3783 C 342.493 -3.7561 -2.6207 0
M  V30 3784 N 343.984 -3.76667 -2.69585 0
M  V30 3785 C 344.719 -4.72861 -3.2433 0
M  V30 3786 N 344.215 -5.79428 -3.79783 0
M  V30 3787 N 346.008 -4.6034 -3.22558 0
M  V30 3788 H 338.159 -2.10868 -0.254676 0
M  V30 3789 H 340.422 -0.931615 -0.175493 0
M  V30 3790 H 340.128 -3.29747 -1.22311 0
M  V30 3791 H 340.002 -2.53114 -2.79666 0
M  V30 3792 H 342.389 -1.58898 -2.48667 0
M  V30 3793 H 342.47 -2.39022 -0.911148 0
M  V30 3794 H 342.114 -4.64131 -2.06263 0
M  V30 3795 H 342.044 -3.80902 -3.63622 0
M  V30 3796 H 344.535 -2.99648 -2.30259 0
M  V30 3797 H 344.848 -6.48867 -4.19752 0
M  V30 3798 H 343.193 -5.83166 -3.78078 0
M  V30 3799 H 346.384 -3.76244 -2.78492 0
M  V30 3800 H 346.557 -5.35478 -3.64921 0
M  V30 3801 N 339.963 1.05934 -1.16686 0
M  V30 3802 C 340.913 2.11764 -0.844978 0
M  V30 3803 C 341.897 1.59922 0.177178 0
M  V30 3804 O 343.089 1.76983 -0.0241768 0
M  V30 3805 C 340.218 3.41493 -0.351812 0
M  V30 3806 C 339.304 4.00152 -1.40496 0
M  V30 3807 N 339.695 4.32874 -2.61636 0
M  V30 3808 C 337.993 4.278 -1.26106 0
M  V30 3809 C 338.694 4.79552 -3.29249 0
M  V30 3810 N 337.67 4.79211 -2.56628 0
M  V30 3811 H 341.472 2.34916 -1.76612 0
M  V30 3812 H 338.986 1.23511 -1.05446 0
M  V30 3813 H 340.983 4.16773 -0.102796 0
M  V30 3814 H 339.643 3.19778 0.56322 0
M  V30 3815 H 340.654 4.23109 -2.98663 0
M  V30 3816 H 337.331 4.15511 -0.407081 0
M  V30 3817 H 338.721 5.14045 -4.32675 0
M  V30 3818 N 341.441 0.965919 1.2453 0
M  V30 3819 C 342.857 0.67216 1.44756 0
M  V30 3820 C 343.057 -0.766609 1.86347 0
M  V30 3821 O 342.113 -1.5407 2.00047 0
M  V30 3822 C 343.426 1.65473 2.51076 0
M  V30 3823 C 344.974 1.66716 2.64905 0
M  V30 3824 C 345.449 2.63766 3.74421 0
M  V30 3825 N 346.94 2.62198 3.81846 0
M  V30 3826 C 347.675 3.33966 4.66106 0
M  V30 3827 N 347.171 4.15245 5.54566 0
M  V30 3828 N 348.964 3.22799 4.60171 0
M  V30 3829 H 341.115 1.89553 0.958293 0
M  V30 3830 H 343.378 0.815979 0.482579 0
M  V30 3831 H 343.084 2.68296 2.27399 0
M  V30 3832 H 342.958 1.4261 3.49202 0
M  V30 3833 H 345.345 0.646057 2.87941 0
M  V30 3834 H 345.426 1.93642 1.67142 0
M  V30 3835 H 345.07 3.6601 3.52135 0
M  V30 3836 H 345 2.34121 4.71694 0
M  V30 3837 H 347.491 2.032 3.18619 0
M  V30 3838 H 347.804 4.66898 6.15814 0
M  V30 3839 H 346.149 4.1934 5.54237 0
M  V30 3840 H 349.34 2.58764 3.90075 0
M  V30 3841 H 349.513 3.78994 5.25612 0
M  V30 3842 N 342.919 -1.39368 0.735821 0
M  V30 3843 C 343.882 -2.2896 0.104874 0
M  V30 3844 C 344.882 -1.46347 -0.666274 0
M  V30 3845 O 346.072 -1.67014 -0.49517 0
M  V30 3846 C 343.204 -3.29857 -0.860656 0
M  V30 3847 H 344.397 -2.86259 0.894205 0
M  V30 3848 H 341.95 -1.48029 0.501704 0
M  V30 3849 H 342.685 -2.77615 -1.67631 0
M  V30 3850 H 342.47 -3.9087 -0.310327 0
M  V30 3851 H 343.96 -3.96893 -1.29867 0
M  V30 3852 N 344.397 -0.483516 -1.5 0
M  V30 3853 C 345.643 0.0672592 -2.02688 0
M  V30 3854 C 345.976 1.38247 -1.36387 0
M  V30 3855 O 345.251 1.88131 -0.493675 0
M  V30 3856 C 345.534 0.238109 -3.59312 0
M  V30 3857 C 345.387 -1.099 -4.36168 0
M  V30 3858 C 346.706 0.986916 -4.28892 0
M  V30 3859 H 343.825 0.0229696 -0.736642 0
M  V30 3860 H 346.467 -0.631527 -1.79197 0
M  V30 3861 H 344.617 0.8333 -3.79458 0
M  V30 3862 H 346.289 -1.73172 -4.27562 0
M  V30 3863 H 344.532 -1.69261 -3.99416 0
M  V30 3864 H 345.203 -0.932954 -5.44059 0
M  V30 3865 H 347.679 0.482302 -4.13295 0
M  V30 3866 H 346.555 1.07527 -5.38265 0
M  V30 3867 H 346.816 2.0265 -3.92919 0
M  V30 3868 N 345.875 1.56104 -0.216619 0
M  V30 3869 C 347.291 1.58995 0.13886 0
M  V30 3870 C 347.491 1.23333 1.59346 0
M  V30 3871 O 346.547 0.966234 2.33281 0
M  V30 3872 C 347.86 3.00143 -0.182968 0
M  V30 3873 C 349.408 3.12751 -0.124807 0
M  V30 3874 C 349.883 4.56068 -0.420241 0
M  V30 3875 N 351.374 4.61723 -0.369634 0
M  V30 3876 C 352.109 5.70542 -0.571789 0
M  V30 3877 N 351.605 6.87744 -0.835453 0
M  V30 3878 N 353.398 5.59831 -0.504563 0
M  V30 3879 H 345.549 1.77562 -1.16557 0
M  V30 3880 H 347.812 0.825091 -0.466828 0
M  V30 3881 H 347.518 3.30871 -1.19237 0
M  V30 3882 H 347.392 3.73813 0.504367 0
M  V30 3883 H 349.779 2.81822 0.875223 0
M  V30 3884 H 349.86 2.41421 -0.845544 0
M  V30 3885 H 349.504 4.87713 -1.41769 0
M  V30 3886 H 349.434 5.25617 0.321631 0
M  V30 3887 H 351.925 3.77502 -0.173338 0
M  V30 3888 H 352.238 7.66587 -0.977938 0
M  V30 3889 H 350.583 6.895 -0.872592 0
M  V30 3890 H 353.774 4.67145 -0.298842 0
M  V30 3891 H 353.947 6.44573 -0.665519 0
M  V30 3892 N 347.353 -0.0568162 1.57498 0
M  V30 3893 C 348.283 -1.06593 2.0775 0
M  V30 3894 C 349.264 -1.39448 0.974082 0
M  V30 3895 O 350.449 -1.48815 1.24771 0
M  V30 3896 C 347.579 -2.37509 2.5339 0
M  V30 3897 C 346.533 -2.1897 3.67745 0
M  V30 3898 C 345.859 -3.55402 3.99492 0
M  V30 3899 C 347.159 -1.59859 4.97235 0
M  V30 3900 H 348.853 -0.647706 2.9231 0
M  V30 3901 H 346.399 -0.310116 1.40621 0
M  V30 3902 H 348.352 -3.08409 2.87162 0
M  V30 3903 H 347.076 -2.8134 1.65878 0
M  V30 3904 H 345.735 -1.50508 3.3428 0
M  V30 3905 H 345.383 -3.9683 3.09088 0
M  V30 3906 H 345.083 -3.43831 4.76502 0
M  V30 3907 H 346.607 -4.27708 4.35773 0
M  V30 3908 H 348.021 -2.20642 5.29141 0
M  V30 3909 H 346.418 -1.58942 5.78669 0
M  V30 3910 H 347.488 -0.561506 4.81638 0
M  V30 3911 N 348.832 -1.54138 -0.328536 0
M  V30 3912 C 350.081 -1.71318 -1.06456 0
M  V30 3913 C 350.394 -0.491109 -1.89334 0
M  V30 3914 O 351.6 -0.54416 -2.65991 0
M  V30 3915 C 350.056 -3.03 -1.94214 0
M  V30 3916 C 349.664 -4.32595 -1.16471 0
M  V30 3917 C 351.408 -3.29544 -2.67583 0
M  V30 3918 C 349.315 -5.55341 -2.03347 0
M  V30 3919 H 348.245 -0.638429 -0.401155 0
M  V30 3920 H 350.896 -1.80633 -0.323106 0
M  V30 3921 H 349.278 -2.87579 -2.72239 0
M  V30 3922 H 350.452 -4.58766 -0.432525 0
M  V30 3923 H 348.767 -4.12777 -0.548063 0
M  V30 3924 H 351.364 -4.18444 -3.3288 0
M  V30 3925 H 351.707 -2.47206 -3.34955 0
M  V30 3926 H 352.24 -3.45809 -1.96623 0
M  V30 3927 H 348.979 -6.40268 -1.40491 0
M  V30 3928 H 348.499 -5.33397 -2.74313 0
M  V30 3929 H 350.178 -5.91557 -2.62049 0
M  V30 3930 N 350.31 0.590341 -1.46126 0
M  V30 3931 C 351.557 1.34882 -1.5104 0
M  V30 3932 C 351.885 1.93849 -0.159021 0
M  V30 3933 O 351.14 1.76544 0.844436 0
M  V30 3934 C 351.439 2.5032 -2.55097 0
M  V30 3935 C 351.105 2.09394 -3.99331 0
M  V30 3936 C 349.767 1.97947 -4.38601 0
M  V30 3937 C 352.119 1.77712 -4.89967 0
M  V30 3938 C 349.447 1.53065 -5.66381 0
M  V30 3939 C 351.799 1.34312 -6.18177 0
M  V30 3940 C 350.463 1.21436 -6.56361 0
M  V30 3941 H 349.733 0.493568 -0.552695 0
M  V30 3942 H 352.38 0.665539 -1.79563 0
M  V30 3943 H 350.685 3.24062 -2.20207 0
M  V30 3944 H 352.382 3.08541 -2.56132 0
M  V30 3945 H 348.972 2.19235 -3.68285 0
M  V30 3946 H 353.156 1.85445 -4.60352 0
M  V30 3947 H 348.412 1.41733 -5.94745 0
M  V30 3948 H 352.586 1.08849 -6.87841 0
M  V30 3949 H 350.213 0.864345 -7.5527 0
M  V30 3950 N 351.788 1.33704 0.83433 0
M  V30 3951 C 353.016 1.28467 1.62185 0
M  V30 3952 C 353.431 -0.143526 1.88254 0
M  V30 3953 O 352.788 -1.08709 1.4659 0
M  V30 3954 C 352.839 2.06174 2.96942 0
M  V30 3955 O 352.56 3.43422 2.72016 0
M  V30 3956 C 354.061 2.08201 3.91366 0
M  V30 3957 H 351.281 0.4424 0.504503 0
M  V30 3958 H 353.825 1.76145 1.03891 0
M  V30 3959 H 351.98 1.62167 3.51825 0
M  V30 3960 H 352.394 3.83453 3.57861 0
M  V30 3961 H 353.868 2.67017 4.83121 0
M  V30 3962 H 354.345 1.07343 4.2588 0
M  V30 3963 H 354.951 2.52246 3.42421 0
M  V30 3964 N 353.266 -1.05314 1.17247 0
M  V30 3965 C 354.515 -1.77685 0.954521 0
M  V30 3966 C 354.828 -1.88616 -0.518025 0
M  V30 3967 O 356.034 -2.57714 -0.854144 0
M  V30 3968 C 354.49 -3.19402 1.65863 0
M  V30 3969 C 354.098 -3.16605 3.16963 0
M  V30 3970 C 355.842 -3.96237 1.52303 0
M  V30 3971 C 353.749 -4.53103 3.80068 0
M  V30 3972 H 352.679 -0.666 0.353496 0
M  V30 3973 H 355.33 -1.1805 1.40486 0
M  V30 3974 H 353.712 -3.79355 1.13602 0
M  V30 3975 H 354.886 -2.66176 3.76148 0
M  V30 3976 H 353.201 -2.53268 3.30521 0
M  V30 3977 H 355.798 -4.97157 1.96822 0
M  V30 3978 H 356.141 -4.136 0.473401 0
M  V30 3979 H 356.674 -3.42829 2.01775 0
M  V30 3980 H 353.413 -4.40946 4.85023 0
M  V30 3981 H 352.933 -5.03686 3.2567 0
M  V30 3982 H 354.612 -5.22045 3.82202 0
M  V30 3983 N 354.744 -0.972509 -1.24016 0
M  V30 3984 C 355.677 -0.45117 -2.23696 0
M  V30 3985 C 356.655 0.477378 -1.55434 0
M  V30 3986 O 357.839 0.407647 -1.84039 0
M  V30 3987 C 354.966 0.34818 -3.36906 0
M  V30 3988 C 354.012 -0.523355 -4.23277 0
M  V30 3989 S 354.845 -1.96647 -4.98087 0
M  V30 3990 C 356.001 -1.17604 -6.14752 0
M  V30 3991 H 356.234 -1.29588 -2.67571 0
M  V30 3992 H 353.767 -0.777903 -1.33372 0
M  V30 3993 H 355.725 0.803387 -4.02562 0
M  V30 3994 H 354.386 1.16792 -2.91579 0
M  V30 3995 H 353.579 0.0906181 -5.03919 0
M  V30 3996 H 353.181 -0.914485 -3.62647 0
M  V30 3997 H 355.473 -0.433434 -6.76112 0
M  V30 3998 H 356.416 -1.95701 -6.8052 0
M  V30 3999 H 356.824 -0.698295 -5.60164 0
M  V30 4000 N 356.222 1.38976 -0.743202 0
M  V30 4001 C 357.471 1.99581 -0.291592 0
M  V30 4002 C 357.784 1.59656 1.13001 0
M  V30 4003 O 358.99 2.13157 1.68156 0
M  V30 4004 C 357.446 3.56813 -0.470391 0
M  V30 4005 C 357.054 4.05695 -1.90041 0
M  V30 4006 C 358.798 4.24423 -0.0809709 0
M  V30 4007 C 356.705 5.5553 -2.02832 0
M  V30 4008 H 355.635 0.746615 -0.105272 0
M  V30 4009 H 358.286 1.58872 -0.918258 0
M  V30 4010 H 356.668 3.95359 0.225299 0
M  V30 4011 H 357.842 3.78464 -2.62872 0
M  V30 4012 H 356.157 3.50775 -2.24379 0
M  V30 4013 H 358.754 5.34474 -0.155445 0
M  V30 4014 H 359.097 4.04962 0.96497 0
M  V30 4015 H 359.63 3.9108 -0.728124 0
M  V30 4016 H 356.369 5.79881 -3.05643 0
M  V30 4017 H 355.889 5.84537 -1.34448 0
M  V30 4018 H 357.568 6.21069 -1.81335 0
M  V30 4019 N 357.7 0.491464 1.49741 0
M  V30 4020 C 358.946 -0.0565092 2.02721 0
M  V30 4021 C 359.279 -1.37522 1.37118 0
M  V30 4022 O 358.554 -1.87866 0.503645 0
M  V30 4023 C 358.837 -0.219051 3.59433 0
M  V30 4024 C 358.69 1.12211 4.35579 0
M  V30 4025 C 360.009 -0.964157 4.29409 0
M  V30 4026 H 357.128 -0.0190627 0.736753 0
M  V30 4027 H 359.77 0.641021 1.7886 0
M  V30 4028 H 357.92 -0.813165 3.79895 0
M  V30 4029 H 359.592 1.75437 4.26637 0
M  V30 4030 H 357.835 1.71377 3.98513 0
M  V30 4031 H 358.506 0.961794 5.43556 0
M  V30 4032 H 360.982 -0.460378 4.13545 0
M  V30 4033 H 359.858 -1.04671 5.38828 0
M  V30 4034 H 360.119 -2.00563 3.93988 0
M  V30 4035 N 359.178 -1.55987 0.224894 0
M  V30 4036 C 360.408 -2.02489 -0.41007 0
M  V30 4037 C 360.816 -1.10391 -1.53657 0
M  V30 4038 O 360.159 -0.106458 -1.83391 0
M  V30 4039 C 360.221 -3.45319 -0.999757 0
M  V30 4040 C 359.885 -4.56999 -0.00827976 0
M  V30 4041 C 360.882 -5.13812 0.793314 0
M  V30 4042 C 358.567 -5.02176 0.111442 0
M  V30 4043 C 360.561 -6.14276 1.7013 0
M  V30 4044 C 358.248 -6.02477 1.02296 0
M  V30 4045 C 359.246 -6.58403 1.81643 0
M  V30 4046 O 358.934 -7.56751 2.71262 0
M  V30 4047 H 358.666 -0.667915 -0.104235 0
M  V30 4048 H 361.22 -2.0257 0.339782 0
M  V30 4049 H 359.45 -3.42318 -1.79876 0
M  V30 4050 H 361.139 -3.7545 -1.54248 0
M  V30 4051 H 361.905 -4.79756 0.711288 0
M  V30 4052 H 357.784 -4.58323 -0.49605 0
M  V30 4053 H 361.328 -6.57854 2.32107 0
M  V30 4054 H 357.225 -6.35954 1.10599 0
M  V30 4055 H 357.993 -7.74286 2.65375 0
M  V30 4056 N 360.656 0.0484629 -1.57525 0
M  V30 4057 C 361.903 0.743125 -1.88372 0
M  V30 4058 C 362.231 1.76383 -0.819715 0
M  V30 4059 O 361.486 1.94855 0.181659 0
M  V30 4060 C 361.785 1.46632 -3.25935 0
M  V30 4061 C 361.451 0.583427 -4.4711 0
M  V30 4062 C 360.113 0.340191 -4.79996 0
M  V30 4063 C 362.465 -0.0273345 -5.21193 0
M  V30 4064 C 359.793 -0.522903 -5.84365 0
M  V30 4065 C 362.145 -0.878017 -6.26477 0
M  V30 4066 C 360.809 -1.1309 -6.5785 0
M  V30 4067 H 360.079 0.271929 -0.689301 0
M  V30 4068 H 362.726 0.00336166 -1.915 0
M  V30 4069 H 361.031 2.2789 -3.18706 0
M  V30 4070 H 362.728 2.00902 -3.47044 0
M  V30 4071 H 359.318 0.783151 -4.21384 0
M  V30 4072 H 363.502 0.147654 -4.9608 0
M  V30 4073 H 358.758 -0.727335 -6.07058 0
M  V30 4074 H 362.932 -1.35789 -6.83033 0
M  V30 4075 H 360.559 -1.80144 -7.38547 0
M  V30 4076 N 362.134 1.5431 0.320358 0
M  V30 4077 C 363.064 1.86912 1.3995 0
M  V30 4078 C 364.045 0.726211 1.53819 0
M  V30 4079 O 365.23 0.980233 1.67646 0
M  V30 4080 C 362.36 2.09932 2.7667 0
M  V30 4081 C 361.314 3.25776 2.77586 0
M  V30 4082 C 360.64 3.34173 4.17412 0
M  V30 4083 C 361.94 4.6335 2.41048 0
M  V30 4084 H 363.634 2.77292 1.12914 0
M  V30 4085 H 361.18 1.33421 0.541738 0
M  V30 4086 H 363.133 2.31324 3.52232 0
M  V30 4087 H 361.857 1.16304 3.0519 0
M  V30 4088 H 360.516 3.04276 2.04479 0
M  V30 4089 H 360.164 2.38098 4.43078 0
M  V30 4090 H 359.864 4.12033 4.18931 0
M  V30 4091 H 361.388 3.57803 4.94782 0
M  V30 4092 H 362.802 4.84602 3.06324 0
M  V30 4093 H 361.199 5.43782 2.53813 0
M  V30 4094 H 362.269 4.65381 1.36193 0
M  V30 4095 N 363.613 -0.582584 1.46437 0
M  V30 4096 C 364.86 -1.34079 1.51753 0
M  V30 4097 C 365.188 -1.93762 0.169299 0
M  V30 4098 O 364.443 -1.76989 -0.835062 0
M  V30 4099 C 364.742 -2.48964 2.56421 0
M  V30 4100 C 364.408 -2.07273 4.00436 0
M  V30 4101 C 363.07 -1.95618 4.39644 0
M  V30 4102 C 365.422 -1.75111 4.90903 0
M  V30 4103 C 362.75 -1.5006 5.67185 0
M  V30 4104 C 365.102 -1.31032 6.18881 0
M  V30 4105 C 363.766 -1.17954 6.56996 0
M  V30 4106 H 363.036 -0.49063 0.555304 0
M  V30 4107 H 365.683 -0.656007 1.79913 0
M  V30 4108 H 363.988 -3.22889 2.21923 0
M  V30 4109 H 365.685 -3.07178 2.57765 0
M  V30 4110 H 362.275 -2.17279 3.69443 0
M  V30 4111 H 366.459 -1.83001 4.61329 0
M  V30 4112 H 361.715 -1.38577 5.95488 0
M  V30 4113 H 365.889 -1.052 6.88408 0
M  V30 4114 H 363.516 -0.824279 7.55718 0
M  V30 4115 N 365.091 -1.34144 -0.827227 0
M  V30 4116 C 366.337 -1.27455 -1.58515 0
M  V30 4117 C 366.692 0.155271 -1.91772 0
M  V30 4118 O 365.985 1.10042 -1.56848 0
M  V30 4119 C 366.179 -2.09464 -2.89585 0
M  V30 4120 C 366.008 -3.60276 -2.69131 0
M  V30 4121 C 364.778 -4.29565 -2.66087 0
M  V30 4122 C 366.976 -4.54367 -2.40947 0
M  V30 4123 N 364.958 -5.66252 -2.37132 0
M  V30 4124 C 366.329 -5.79027 -2.21648 0
M  V30 4125 C 368.384 -4.43327 -2.26639 0
M  V30 4126 C 367.087 -6.93891 -1.89492 0
M  V30 4127 C 369.113 -5.58019 -1.95878 0
M  V30 4128 C 368.475 -6.81695 -1.774 0
M  V30 4129 H 364.574 -0.521614 -0.582617 0
M  V30 4130 H 367.158 -1.68811 -0.970105 0
M  V30 4131 H 365.329 -1.70411 -3.49019 0
M  V30 4132 H 367.061 -1.94453 -3.54923 0
M  V30 4133 H 363.816 -3.81959 -2.80008 0
M  V30 4134 H 364.24 -6.38338 -2.25507 0
M  V30 4135 H 368.882 -3.48333 -2.39633 0
M  V30 4136 H 366.6 -7.88871 -1.75236 0
M  V30 4137 H 370.186 -5.5142 -1.85546 0
M  V30 4138 H 369.066 -7.68942 -1.53941 0
M  V30 4139 N 366.569 1.04691 -1.17803 0
M  V30 4140 C 367.532 2.10724 -0.901545 0
M  V30 4141 C 368.532 1.6042 0.110437 0
M  V30 4142 O 369.722 1.7377 -0.122303 0
M  V30 4143 C 366.854 3.39084 -0.351409 0
M  V30 4144 H 368.047 2.36686 -1.84174 0
M  V30 4145 H 365.6 1.21015 -0.98919 0
M  V30 4146 H 366.335 3.18782 0.59569 0
M  V30 4147 H 366.12 3.76909 -1.08083 0
M  V30 4148 H 367.61 4.17227 -0.176451 0
M  V30 4149 N 368.047 0.979072 1.23499 0
M  V30 4150 C 369.458 0.684391 1.73704 0
M  V30 4151 C 369.809 -0.799448 1.79174 0
M  V30 4152 O 368.934 -1.62531 1.42873 0
M  V30 4153 C 369.529 1.23564 3.15464 0
M  V30 4154 C 368.088 0.99063 3.6313 0
M  V30 4155 C 367.235 1.36416 2.41425 0
M  V30 4156 H 370.186 1.15307 1.09041 0
M  V30 4157 H 370.207 0.607417 3.7562 0
M  V30 4158 H 369.719 2.31561 3.1145 0
M  V30 4159 H 367.82 -0.0733136 3.72528 0
M  V30 4160 H 367.933 1.64427 4.5 0
M  V30 4161 H 366.297 0.782616 2.42378 0
M  V30 4162 H 367.08 2.45387 2.40083 0
M  V30 4163 N 369.525 -1.3858 0.750561 0
M  V30 4164 C 370.755 -2.04175 0.31564 0
M  V30 4165 C 371.163 -1.56726 -1.05989 0
M  V30 4166 O 370.506 -0.734225 -1.68389 0
M  V30 4167 C 370.568 -3.58585 0.256389 0
M  V30 4168 C 370.232 -4.29077 1.57296 0
M  V30 4169 C 371.229 -4.54656 2.52159 0
M  V30 4170 C 368.914 -4.67324 1.84156 0
M  V30 4171 C 370.908 -5.17512 3.72103 0
M  V30 4172 C 368.595 -5.29905 3.04374 0
M  V30 4173 C 369.593 -5.54933 3.98168 0
M  V30 4174 O 369.281 -6.16212 5.16273 0
M  V30 4175 H 369.013 -0.662742 0.133226 0
M  V30 4176 H 371.567 -1.78313 1.01948 0
M  V30 4177 H 369.797 -3.83406 -0.503677 0
M  V30 4178 H 371.486 -4.05628 -0.148612 0
M  V30 4179 H 372.252 -4.25539 2.32683 0
M  V30 4180 H 368.131 -4.47191 1.11988 0
M  V30 4181 H 371.675 -5.36963 4.45327 0
M  V30 4182 H 367.572 -5.58444 3.23745 0
M  V30 4183 H 368.34 -6.34701 5.16815 0
M  V30 4184 N 371.003 -0.499398 -1.49478 0
M  V30 4185 C 371.951 0.293604 -2.3074 0
M  V30 4186 C 372.945 0.96427 -1.39277 0
M  V30 4187 O 374.151 0.892141 -1.56336 0
M  V30 4188 H 370.526 0.113541 -0.743379 0
M  V30 4189 H 372.497 -0.411772 -2.95545 0
M  V30 4190 C 371.246 1.3462 -3.20582 0
M  V30 4191 H 370.569 0.83954 -3.90886 0
M  V30 4192 H 372.009 1.87308 -3.80384 0
M  V30 4193 C 370.468 2.36351 -2.40083 0
M  V30 4194 O 370.998 3.422 -2.10385 0
M  V30 4195 N 369.204 2.0878 -2.02137 0
M  V30 4196 H 368.751 1.22723 -2.26488 0
M  V30 4197 H 368.709 2.77075 -1.48583 0
M  V30 4198 N 372.481 1.55866 -0.233164 0
M  V30 4199 C 373.73 1.97779 0.39579 0
M  V30 4200 C 374.043 1.12419 1.60066 0
M  V30 4201 O 375.249 1.44283 2.29988 0
M  V30 4202 C 373.705 3.5188 0.755556 0
M  V30 4203 C 373.313 4.45959 -0.427152 0
M  V30 4204 C 375.057 4.02479 1.34946 0
M  V30 4205 C 372.964 5.91383 -0.0443043 0
M  V30 4206 H 371.894 0.738592 0.15165 0
M  V30 4207 H 374.545 1.80486 -0.331212 0
M  V30 4208 H 372.927 3.64816 1.5403 0
M  V30 4209 H 374.101 4.44776 -1.20462 0
M  V30 4210 H 372.416 4.05765 -0.935068 0
M  V30 4211 H 375.013 5.08637 1.649 0
M  V30 4212 H 375.356 3.49014 2.26925 0
M  V30 4213 H 375.889 3.92813 0.62791 0
M  V30 4214 H 372.628 6.48857 -0.930874 0
M  V30 4215 H 372.148 5.95734 0.697238 0
M  V30 4216 H 373.827 6.45893 0.378334 0
M  V30 4217 N 373.959 -0.0401083 1.57549 0
M  V30 4218 C 375.205 -0.734211 1.89043 0
M  V30 4219 C 375.538 -1.75591 0.829535 0
M  V30 4220 O 374.813 -1.93868 -0.156706 0
M  V30 4221 C 375.096 -1.41374 3.31188 0
M  V30 4222 C 374.949 -0.406299 4.47961 0
M  V30 4223 C 376.268 -2.35061 3.72068 0
M  V30 4224 H 373.387 -0.265447 0.687537 0
M  V30 4225 H 376.029 0.00294087 1.9 0
M  V30 4226 H 374.179 -2.04206 3.30503 0
M  V30 4227 H 375.851 0.219255 4.60779 0
M  V30 4228 H 374.094 0.275485 4.32924 0
M  V30 4229 H 374.765 -0.920022 5.44279 0
M  V30 4230 H 377.241 -1.82282 3.74049 0
M  V30 4231 H 376.117 -2.79593 4.72355 0
M  V30 4232 H 376.378 -3.21258 3.0372 0
M  V30 4233 N 375.437 -1.54477 -0.31217 0
M  V30 4234 C 376.367 -1.87652 -1.38957 0
M  V30 4235 C 377.348 -0.734358 -1.53431 0
M  V30 4236 O 378.533 -0.98911 -1.67123 0
M  V30 4237 C 375.663 -2.11396 -2.75552 0
M  V30 4238 C 374.617 -3.27243 -2.75855 0
M  V30 4239 C 373.943 -3.36382 -4.15633 0
M  V30 4240 C 375.243 -4.64622 -2.38587 0
M  V30 4241 H 376.937 -2.77887 -1.11442 0
M  V30 4242 H 374.483 -1.33707 -0.534655 0
M  V30 4243 H 376.436 -2.33189 -3.51 0
M  V30 4244 H 375.16 -1.17921 -3.04569 0
M  V30 4245 H 373.819 -3.05356 -2.02863 0
M  V30 4246 H 373.467 -2.40445 -4.41809 0
M  V30 4247 H 373.167 -4.14249 -4.1674 0
M  V30 4248 H 374.691 -3.60422 -4.92877 0
M  V30 4249 H 376.105 -4.86219 -3.03749 0
M  V30 4250 H 374.502 -5.45121 -2.50925 0
M  V30 4251 H 375.572 -4.66097 -1.33723 0
M  V30 4252 N 376.915 0.57481 -1.46744 0
M  V30 4253 C 377.845 1.69337 -1.60771 0
M  V30 4254 C 378.826 1.63825 -0.457736 0
M  V30 4255 O 380.011 1.8172 -0.684947 0
M  V30 4256 C 377.141 3.0798 -1.60517 0
M  V30 4257 C 376.095 3.28327 -2.74564 0
M  V30 4258 C 375.421 4.67578 -2.59373 0
M  V30 4259 C 376.721 3.15398 -4.16319 0
M  V30 4260 H 378.415 1.57853 -2.54407 0
M  V30 4261 H 375.961 0.75799 -1.22436 0
M  V30 4262 H 377.914 3.86061 -1.68923 0
M  V30 4263 H 376.638 3.20381 -0.634305 0
M  V30 4264 H 375.297 2.52649 -2.65639 0
M  V30 4265 H 374.945 4.76755 -1.60353 0
M  V30 4266 H 374.645 4.82144 -3.35873 0
M  V30 4267 H 376.169 5.47817 -2.69682 0
M  V30 4268 H 377.583 3.83315 -4.26313 0
M  V30 4269 H 375.98 3.41482 -4.93468 0
M  V30 4270 H 377.05 2.12372 -4.3592 0
M  V30 4271 N 378.394 1.34581 0.820102 0
M  V30 4272 C 379.324 1.29038 1.94606 0
M  V30 4273 C 380.305 0.1673 1.69275 0
M  V30 4274 O 381.49 0.360112 1.90832 0
M  V30 4275 C 378.62 1.04793 3.31113 0
M  V30 4276 C 377.574 2.13597 3.70891 0
M  V30 4277 C 376.9 1.74537 5.05412 0
M  V30 4278 C 378.2 3.55451 3.8269 0
M  V30 4279 H 379.894 2.23248 1.99501 0
M  V30 4280 H 377.44 1.0747 0.958449 0
M  V30 4281 H 379.393 0.995592 4.0947 0
M  V30 4282 H 378.117 0.0702565 3.26524 0
M  V30 4283 H 376.776 2.17905 2.9481 0
M  V30 4284 H 376.424 0.754226 4.97313 0
M  V30 4285 H 376.124 2.47361 5.32997 0
M  V30 4286 H 377.648 1.70803 5.86224 0
M  V30 4287 H 379.062 3.5354 4.51312 0
M  V30 4288 H 377.459 4.26922 4.21732 0
M  V30 4289 H 378.529 3.92587 2.84611 0
M  V30 4290 N 379.872 -1.04064 1.18357 0
M  V30 4291 C 380.82 -2.14187 0.907007 0
M  V30 4292 C 381.814 -1.68879 -0.132725 0
M  V30 4293 O 383.02 -1.79993 0.0154248 0
M  V30 4294 H 379.395 -0.699585 0.275835 0
M  V30 4295 H 381.366 -2.34711 1.84264 0
M  V30 4296 C 380.115 -3.44785 0.449254 0
M  V30 4297 H 379.438 -3.80058 1.24081 0
M  V30 4298 H 380.878 -4.22974 0.294737 0
M  V30 4299 C 379.337 -3.26391 -0.834909 0
M  V30 4300 O 379.867 -3.53973 -1.89911 0
M  V30 4301 N 378.073 -2.79726 -0.787523 0
M  V30 4302 H 377.62 -2.5748 0.0787347 0
M  V30 4303 H 377.578 -2.67798 -1.64716 0
M  V30 4304 N 381.35 -0.985608 -1.22978 0
M  V30 4305 C 382.578 -0.675582 -1.95559 0
M  V30 4306 C 382.993 0.758413 -1.72897 0
M  V30 4307 O 382.35 1.51094 -1.02357 0
M  V30 4308 C 382.401 -0.96293 -3.48439 0
M  V30 4309 O 382.122 -2.34057 -3.70336 0
M  V30 4310 C 383.623 -0.669585 -4.38214 0
M  V30 4311 H 380.843 -0.250523 -0.622478 0
M  V30 4312 H 383.387 -1.3184 -1.56328 0
M  V30 4313 H 381.542 -0.366033 -3.85667 0
M  V30 4314 H 381.956 -2.43424 -4.64591 0
M  V30 4315 H 383.43 -0.920967 -5.44263 0
M  V30 4316 H 383.907 0.396383 -4.37408 0
M  V30 4317 H 384.513 -1.2472 -4.06602 0
M  V30 4318 N 382.828 1.3818 -0.7579 0
M  V30 4319 C 384.075 2.00019 -0.315985 0
M  V30 4320 C 384.403 1.60163 1.10355 0
M  V30 4321 O 383.658 0.83264 1.77103 0
M  V30 4322 C 383.957 3.55252 -0.391218 0
M  V30 4323 C 383.623 4.14834 -1.76702 0
M  V30 4324 C 382.285 4.30821 -2.14353 0
M  V30 4325 C 384.637 4.47658 -2.66931 0
M  V30 4326 C 381.965 4.76928 -3.41696 0
M  V30 4327 C 384.317 4.95184 -3.93669 0
M  V30 4328 C 382.981 5.09377 -4.31383 0
M  V30 4329 H 382.251 0.731923 -0.115627 0
M  V30 4330 H 384.898 1.65161 -0.969223 0
M  V30 4331 H 383.203 3.90273 0.34558 0
M  V30 4332 H 384.9 4.00988 -0.030805 0
M  V30 4333 H 381.49 4.02808 -1.46435 0
M  V30 4334 H 385.674 4.34904 -2.39106 0
M  V30 4335 H 380.93 4.86103 -3.70829 0
M  V30 4336 H 385.104 5.19551 -4.63724 0
M  V30 4337 H 382.731 5.44865 -5.30119 0
M  V30 4338 N 384.306 0.507319 1.49211 0
M  V30 4339 C 385.238 -0.304532 2.27168 0
M  V30 4340 C 386.251 -0.924956 1.33972 0
M  V30 4341 O 387.44 -0.807227 1.59205 0
M  V30 4342 C 384.54 -1.44431 3.06583 0
M  V30 4343 C 383.713 -0.930026 4.27398 0
M  V30 4344 C 382.772 -1.94817 4.88807 0
M  V30 4345 O 381.798 -1.51418 5.4869 0
M  V30 4346 N 383 -3.279 4.79022 0
M  V30 4347 H 385.765 0.36395 2.97482 0
M  V30 4348 H 383.326 0.340249 1.58284 0
M  V30 4349 H 385.318 -2.12311 3.44537 0
M  V30 4350 H 383.888 -2.01684 2.38835 0
M  V30 4351 H 383.108 -0.0759244 3.94127 0
M  V30 4352 H 384.396 -0.564932 5.05654 0
M  V30 4353 H 383.794 -3.65843 4.3148 0
M  V30 4354 H 382.351 -3.91476 5.21142 0
M  V30 4355 N 385.784 -1.5574 0.241426 0
M  V30 4356 C 386.694 -2.2479 -0.671305 0
M  V30 4357 C 387.71 -1.26217 -1.19772 0
M  V30 4358 O 388.886 -1.59079 -1.23514 0
M  V30 4359 C 385.951 -2.92966 -1.85396 0
M  V30 4360 C 385.012 -4.06935 -1.36756 0
M  V30 4361 C 384.245 -4.71851 -2.49384 0
M  V30 4362 O 384.468 -4.35823 -3.67987 0
M  V30 4363 O 383.402 -5.60467 -2.19454 0
M  V30 4364 H 387.228 -3.0349 -0.112966 0
M  V30 4365 H 384.813 -1.49397 0.0101513 0
M  V30 4366 H 386.695 -3.35927 -2.54423 0
M  V30 4367 H 385.37 -2.17211 -2.40002 0
M  V30 4368 H 384.277 -3.68503 -0.644726 0
M  V30 4369 H 385.61 -4.84492 -0.867647 0
M  V30 4370 N 387.262 0.0317525 -1.57568 0
M  V30 4371 C 388.509 0.723104 -1.89149 0
M  V30 4372 C 388.837 1.75504 -0.838377 0
M  V30 4373 O 388.092 1.95037 0.160982 0
M  V30 4374 C 388.391 1.43167 -3.27472 0
M  V30 4375 C 388.057 0.535972 -4.47703 0
M  V30 4376 C 386.719 0.289262 -4.8033 0
M  V30 4377 C 389.071 -0.0826125 -5.21135 0
M  V30 4378 C 386.399 -0.584853 -5.83778 0
M  V30 4379 C 388.751 -0.944414 -6.25511 0
M  V30 4380 C 387.415 -1.20061 -6.56614 0
M  V30 4381 H 386.685 0.264602 -0.692146 0
M  V30 4382 H 389.332 -0.0169496 -1.91492 0
M  V30 4383 H 387.637 2.24497 -3.21105 0
M  V30 4384 H 389.334 1.97209 -3.49155 0
M  V30 4385 H 385.924 0.738414 -4.22191 0
M  V30 4386 H 390.108 0.0950302 -4.96209 0
M  V30 4387 H 385.364 -0.79168 -6.06253 0
M  V30 4388 H 389.538 -1.43026 -6.81554 0
M  V30 4389 H 387.165 -1.87967 -7.36595 0
M  V30 4390 N 388.74 1.54641 0.303973 0
M  V30 4391 C 389.987 1.7378 1.03955 0
M  V30 4392 C 390.315 0.521986 1.87365 0
M  V30 4393 O 389.57 -0.496099 1.89308 0
M  V30 4394 C 389.869 2.97753 1.97681 0
M  V30 4395 C 389.535 4.31671 1.30271 0
M  V30 4396 C 388.197 4.68075 1.11619 0
M  V30 4397 C 390.549 5.147 0.82055 0
M  V30 4398 C 387.877 5.8509 0.434304 0
M  V30 4399 C 390.229 6.32416 0.152395 0
M  V30 4400 C 388.893 6.67484 -0.0461067 0
M  V30 4401 H 388.163 0.635908 0.380398 0
M  V30 4402 H 390.81 1.88896 0.314718 0
M  V30 4403 H 389.115 2.77406 2.76682 0
M  V30 4404 H 390.812 3.09756 2.54661 0
M  V30 4405 H 387.402 4.03041 1.45795 0
M  V30 4406 H 391.586 4.87077 0.952374 0
M  V30 4407 H 386.842 6.10806 0.269495 0
M  V30 4408 H 391.016 6.96023 -0.229126 0
M  V30 4409 H 388.643 7.58011 -0.576494 0
M  V30 4410 N 390.218 -0.567019 1.47046 0
M  V30 4411 C 391.466 -1.322 1.52864 0
M  V30 4412 C 391.787 -1.94088 0.188388 0
M  V30 4413 O 391.057 -1.7941 -0.786693 0
M  V30 4414 H 389.637 -0.490894 0.563056 0
M  V30 4415 H 392.299 -0.662879 1.83281 0
M  V30 4416 H 391.395 -2.12062 2.2899 0
M  V30 4417 N 391.696 -1.35014 -0.812953 0
M  V30 4418 C 392.626 -1.30069 -1.93919 0
M  V30 4419 C 393.607 -0.176275 -1.69184 0
M  V30 4420 O 394.792 -0.370227 -1.90638 0
M  V30 4421 C 391.922 -1.06547 -3.30552 0
M  V30 4422 C 390.876 -2.15561 -3.69753 0
M  V30 4423 C 390.202 -1.77214 -5.04479 0
M  V30 4424 C 391.502 -3.57476 -3.808 0
M  V30 4425 H 393.196 -2.24303 -1.98314 0
M  V30 4426 H 390.742 -1.07977 -0.952736 0
M  V30 4427 H 392.695 -1.01729 -4.08937 0
M  V30 4428 H 391.419 -0.0875719 -3.26483 0
M  V30 4429 H 390.078 -2.19466 -2.9365 0
M  V30 4430 H 389.726 -0.780589 -4.96906 0
M  V30 4431 H 389.426 -2.50184 -5.31678 0
M  V30 4432 H 390.95 -1.7391 -5.8531 0
M  V30 4433 H 392.364 -3.55929 -4.4943 0
M  V30 4434 H 390.761 -4.29152 -4.19462 0
M  V30 4435 H 391.831 -3.94091 -2.82525 0
M  V30 4436 N 393.175 1.03435 -1.18907 0
M  V30 4437 C 394.123 2.13703 -0.918353 0
M  V30 4438 C 395.117 1.68947 0.123767 0
M  V30 4439 O 396.323 1.79983 -0.0249701 0
M  V30 4440 H 392.698 0.698112 -0.279542 0
M  V30 4441 H 394.669 2.33731 -1.85506 0
M  V30 4442 C 393.418 3.44542 -0.467532 0
M  V30 4443 H 392.741 3.79394 -1.26095 0
M  V30 4444 H 394.181 4.22812 -0.317164 0
M  V30 4445 C 392.64 3.26829 0.817588 0
M  V30 4446 O 393.17 3.54975 1.88031 0
M  V30 4447 N 391.376 2.80139 0.772677 0
M  V30 4448 H 390.923 2.57434 -0.0923883 0
M  V30 4449 H 390.881 2.68668 1.63294 0
M  V30 4450 N 394.653 0.992116 1.22453 0
M  V30 4451 C 395.601 0.534644 2.26372 0
M  V30 4452 C 396.595 -0.414293 1.64256 0
M  V30 4453 O 397.801 -0.286899 1.77699 0
M  V30 4454 H 394.176 0.154502 0.735957 0
M  V30 4455 H 396.147 1.42256 2.62309 0
M  V30 4456 C 394.896 -0.135815 3.47435 0
M  V30 4457 H 394.219 0.585311 3.95492 0
M  V30 4458 H 395.659 -0.419374 4.21921 0
M  V30 4459 C 394.118 -1.37089 3.07747 0
M  V30 4460 O 394.648 -2.46629 3.17076 0
M  V30 4461 N 392.854 -1.24585 2.62539 0
M  V30 4462 H 392.401 -0.354542 2.55149 0
M  V30 4463 H 392.359 -2.07327 2.36353 0
M  V30 4464 N 396.131 -1.37776 0.765217 0
M  V30 4465 C 397.371 -2.01691 0.331669 0
M  V30 4466 C 397.735 -1.59432 -1.06983 0
M  V30 4467 O 398.936 -2.15761 -1.60314 0
M  V30 4468 C 397.207 -3.54385 0.463261 0
M  V30 4469 S 398.766 -4.38652 0.114011 0
M  V30 4470 H 395.584 -0.699387 0.127979 0
M  V30 4471 H 398.186 -1.68084 0.998396 0
M  V30 4472 H 396.89 -3.82629 1.48401 0
M  V30 4473 H 396.421 -3.92783 -0.220246 0
M  V30 4474 H 398.436 -4.84021 -1.09261 0
M  V30 4475 N 397.609 -0.515225 -1.4894 0
M  V30 4476 C 398.834 0.022727 -2.07388 0
M  V30 4477 C 399.259 1.2876 -1.37122 0
M  V30 4478 O 398.617 1.76067 -0.432431 0
M  V30 4479 C 398.665 0.244869 -3.59768 0
M  V30 4480 O 397.769 1.31667 -3.90817 0
M  V30 4481 H 397.11 -0.0325506 -0.663202 0
M  V30 4482 H 399.64 -0.718918 -1.91553 0
M  V30 4483 H 399.65 0.47205 -4.0526 0
M  V30 4484 H 398.325 -0.679194 -4.10317 0
M  V30 4485 H 396.902 1.07331 -3.5712 0
M  V30 4486 N 399.087 1.5561 -0.249682 0
M  V30 4487 C 400.312 2.03865 0.381305 0
M  V30 4488 C 400.737 1.12769 1.50548 0
M  V30 4489 O 400.095 0.121189 1.80895 0
M  V30 4490 C 400.143 3.50101 0.863816 0
M  V30 4491 O 399.247 3.62132 1.97318 0
M  V30 4492 H 398.588 0.658827 0.0827194 0
M  V30 4493 H 401.118 2.01105 -0.376552 0
M  V30 4494 H 401.128 3.90975 1.1663 0
M  V30 4495 H 399.803 4.1588 0.0411816 0
M  V30 4496 H 398.38 3.33155 1.67517 0
M  V30 4497 N 400.565 -0.0233959 1.57583 0
M  V30 4498 C 401.79 -0.728376 1.94189 0
M  V30 4499 C 402.215 -1.67793 0.850119 0
M  V30 4500 O 401.573 -1.80262 -0.19371 0
M  V30 4501 C 401.621 -1.45669 3.29868 0
M  V30 4502 O 400.725 -2.57013 3.22518 0
M  V30 4503 H 400.066 -0.195493 0.63457 0
M  V30 4504 H 402.596 0.0228214 2.04587 0
M  V30 4505 H 402.606 -1.82535 3.6489 0
M  V30 4506 H 401.281 -0.760314 4.08891 0
M  V30 4507 H 399.858 -2.22648 2.99136 0
M  V30 4508 N 402.043 -1.548 -0.295768 0
M  V30 4509 C 402.991 -1.86874 -1.38495 0
M  V30 4510 C 403.985 -0.742938 -1.52239 0
M  V30 4511 O 405.191 -0.926999 -1.54294 0
M  V30 4512 H 401.566 -0.592786 -0.462719 0
M  V30 4513 H 403.537 -2.77904 -1.08682 0
M  V30 4514 C 402.286 -2.13732 -2.74252 0
M  V30 4515 H 401.609 -2.99835 -2.64459 0
M  V30 4516 H 403.049 -2.4011 -3.49461 0
M  V30 4517 C 401.508 -0.937539 -3.23592 0
M  V30 4518 O 402.038 -0.160665 -4.01379 0
M  V30 4519 N 400.244 -0.741478 -2.80981 0
M  V30 4520 H 399.791 -1.37489 -2.1784 0
M  V30 4521 H 399.749 0.0597103 -3.14343 0
M  V30 4522 N 403.521 0.559213 -1.47345 0
M  V30 4523 C 404.937 0.884943 -1.32819 0
M  V30 4524 C 405.137 1.98988 -0.317173 0
M  V30 4525 O 404.193 2.51031 0.272011 0
M  V30 4526 C 405.506 1.28007 -2.72093 0
M  V30 4527 C 407.054 1.39161 -2.80363 0
M  V30 4528 C 407.529 1.82031 -4.20272 0
M  V30 4529 N 409.02 1.89185 -4.22804 0
M  V30 4530 C 409.755 2.2368 -5.27973 0
M  V30 4531 N 409.251 2.56802 -6.43447 0
M  V30 4532 N 411.044 2.24436 -5.15349 0
M  V30 4533 H 403.195 -0.170304 -2.11716 0
M  V30 4534 H 405.458 -0.0135247 -0.947904 0
M  V30 4535 H 405.164 0.542027 -3.47498 0
M  V30 4536 H 405.038 2.23665 -3.03733 0
M  V30 4537 H 407.425 2.12048 -2.05231 0
M  V30 4538 H 407.506 0.41696 -2.52379 0
M  V30 4539 H 407.15 1.09715 -4.95908 0
M  V30 4540 H 407.08 2.80495 -4.45679 0
M  V30 4541 H 409.571 1.65982 -3.39497 0
M  V30 4542 H 409.884 2.82144 -7.19454 0
M  V30 4543 H 408.229 2.54387 -6.46771 0
M  V30 4544 H 411.42 1.97998 -4.24163 0
M  V30 4545 H 411.593 2.50989 -5.97418 0
M  V30 4546 N 404.999 1.35443 0.805782 0
M  V30 4547 C 405.929 1.31095 1.93226 0
M  V30 4548 C 406.91 0.185244 1.69088 0
M  V30 4549 O 408.095 0.380332 1.90439 0
M  V30 4550 C 405.225 1.08299 3.29983 0
M  V30 4551 C 404.179 2.17519 3.68605 0
M  V30 4552 C 403.505 1.79887 5.03532 0
M  V30 4553 C 404.805 3.5949 3.78898 0
M  V30 4554 H 406.499 2.25352 1.97122 0
M  V30 4555 H 404.045 1.0848 0.946996 0
M  V30 4556 H 405.998 1.03897 4.08391 0
M  V30 4557 H 404.722 0.104885 3.26432 0
M  V30 4558 H 403.381 2.2102 2.92482 0
M  V30 4559 H 403.029 0.80693 4.96485 0
M  V30 4560 H 402.729 2.53001 5.30344 0
M  V30 4561 H 404.253 1.77011 5.84379 0
M  V30 4562 H 405.667 3.58307 4.47536 0
M  V30 4563 H 404.064 4.31371 4.1718 0
M  V30 4564 H 405.134 3.95584 2.80431 0
M  V30 4565 N 406.477 -1.02803 1.19454 0
M  V30 4566 C 407.754 -1.73299 0.907013 0
M  V30 4567 C 408.134 -2.02772 -0.587086 0
M  V30 4568 O 407.482 -1.68304 -1.54551 0
M  V30 4569 C 407.692 -3.00912 1.76785 0
M  V30 4570 C 409.04 -3.74403 2.00268 0
M  V30 4571 O 410.064 -3.10841 1.73943 0
M  V30 4572 O 408.923 -4.88675 2.4466 0
M  V30 4573 H 406.017 -0.754727 0.338106 0
M  V30 4574 H 408.563 -1.08754 1.30271 0
M  V30 4575 H 407.335 -2.75366 2.7801 0
M  V30 4576 H 406.958 -3.73197 1.37149 0
M  V30 4577 N 407.956 -0.998596 -1.21925 0
M  V30 4578 C 408.888 -0.511879 -2.23411 0
M  V30 4579 C 409.901 0.396094 -1.57908 0
M  V30 4580 O 411.09 0.197316 -1.77406 0
M  V30 4581 C 408.19 0.276802 -3.37768 0
M  V30 4582 C 407.363 -0.628687 -4.32858 0
M  V30 4583 C 406.422 0.109272 -5.26087 0
M  V30 4584 O 405.448 -0.507237 -5.66935 0
M  V30 4585 N 406.65 1.38983 -5.63617 0
M  V30 4586 H 409.415 -1.38457 -2.658 0
M  V30 4587 H 406.976 -0.873981 -1.36283 0
M  V30 4588 H 408.968 0.77928 -3.97126 0
M  V30 4589 H 407.538 1.05063 -2.94415 0
M  V30 4590 H 406.758 -1.31175 -3.71735 0
M  V30 4591 H 408.046 -1.24514 -4.93329 0
M  V30 4592 H 407.444 1.91194 -5.32411 0
M  V30 4593 H 406.001 1.83739 -6.25367 0
M  V30 4594 N 409.434 1.37368 -0.772513 0
M  V30 4595 C 410.397 2.28601 -0.165541 0
M  V30 4596 C 411.397 1.48062 0.627238 0
M  V30 4597 O 412.587 1.68268 0.450715 0
M  V30 4598 C 409.719 3.32023 0.772897 0
M  V30 4599 H 410.912 2.83787 -0.969787 0
M  V30 4600 H 408.465 1.46647 -0.540775 0
M  V30 4601 H 409.2 2.81962 1.60212 0
M  V30 4602 H 408.985 3.91555 0.206585 0
M  V30 4603 H 410.475 4.00197 1.19298 0
M  V30 4604 N 410.912 0.523116 1.48665 0
M  V30 4605 C 411.845 -0.290518 2.26343 0
M  V30 4606 C 412.823 -0.950913 1.31895 0
M  V30 4607 O 414.007 -0.976662 1.61225 0
M  V30 4608 C 411.134 -1.41088 3.07915 0
M  V30 4609 C 410.18 -0.862597 4.17686 0
M  V30 4610 S 411.013 0.264135 5.34848 0
M  V30 4611 C 412.169 -0.858864 6.19979 0
M  V30 4612 H 412.402 0.368726 2.95005 0
M  V30 4613 H 409.935 0.30878 1.51281 0
M  V30 4614 H 411.893 -2.0527 3.55492 0
M  V30 4615 H 410.554 -2.04182 2.38681 0
M  V30 4616 H 409.747 -1.70287 4.74361 0
M  V30 4617 H 409.349 -0.297595 3.72814 0
M  V30 4618 H 411.641 -1.7591 6.54264 0
M  V30 4619 H 412.584 -0.330244 7.07329 0
M  V30 4620 H 412.992 -1.13617 5.52948 0
M  V30 4621 N 412.39 -1.55475 0.257931 0
M  V30 4622 C 413.322 -2.19192 -0.669881 0
M  V30 4623 C 414.335 -1.17148 -1.1305 0
M  V30 4624 O 415.524 -1.43959 -1.05537 0
M  V30 4625 C 412.624 -2.79016 -1.92363 0
M  V30 4626 C 411.797 -4.06586 -1.61265 0
M  V30 4627 C 410.856 -4.50622 -2.7171 0
M  V30 4628 O 409.882 -5.16765 -2.38627 0
M  V30 4629 N 411.084 -4.19325 -4.01431 0
M  V30 4630 H 413.849 -2.99441 -0.124635 0
M  V30 4631 H 411.41 -1.6171 0.0783311 0
M  V30 4632 H 413.402 -3.05427 -2.65511 0
M  V30 4633 H 411.972 -2.0286 -2.37837 0
M  V30 4634 H 411.192 -3.87646 -0.715811 0
M  V30 4635 H 412.48 -4.89737 -1.37967 0
M  V30 4636 H 411.878 -3.66247 -4.31138 0
M  V30 4637 H 410.435 -4.50547 -4.7101 0
M  V30 4638 N 413.868 0.0150385 -1.57593 0
M  V30 4639 C 415.114 0.704043 -1.90187 0
M  V30 4640 C 415.447 1.74249 -0.857366 0
M  V30 4641 O 414.722 1.94092 0.125843 0
M  V30 4642 C 415.005 1.36087 -3.33395 0
M  V30 4643 C 414.858 0.334981 -4.48551 0
M  V30 4644 C 416.177 2.29112 -3.7576 0
M  V30 4645 H 413.296 0.254475 -0.691673 0
M  V30 4646 H 415.938 -0.0331678 -1.89971 0
M  V30 4647 H 414.088 1.98922 -3.3371 0
M  V30 4648 H 415.76 -0.292534 -4.60372 0
M  V30 4649 H 414.003 -0.344325 -4.32431 0
M  V30 4650 H 414.674 0.833316 -5.45674 0
M  V30 4651 H 417.15 1.76308 -3.76902 0
M  V30 4652 H 416.026 2.72043 -4.76743 0
M  V30 4653 H 416.287 3.16385 -3.08793 0
M  V30 4654 N 415.346 1.54954 0.287554 0
M  V30 4655 C 416.574 1.78881 1.03967 0
M  V30 4656 C 416.989 0.554894 1.80462 0
M  V30 4657 O 416.346 -0.475676 1.76192 0
M  V30 4658 C 416.397 3.00488 2.0097 0
M  V30 4659 O 416.118 4.19113 1.27577 0
M  V30 4660 C 417.619 3.36907 2.88112 0
M  V30 4661 H 414.839 0.596259 0.307761 0
M  V30 4662 H 417.383 2.01937 0.322749 0
M  V30 4663 H 415.538 2.79601 2.68145 0
M  V30 4664 H 415.952 4.87765 1.92835 0
M  V30 4665 H 417.426 4.25205 3.52001 0
M  V30 4666 H 417.903 2.55659 3.57121 0
M  V30 4667 H 418.509 3.60001 2.26449 0
M  V30 4668 N 416.824 -0.551391 1.4764 0
M  V30 4669 C 417.734 -1.68525 1.63207 0
M  V30 4670 C 418.75 -1.6621 0.514815 0
M  V30 4671 O 419.926 -1.85551 0.783113 0
M  V30 4672 C 416.991 -3.05025 1.64805 0
M  V30 4673 C 416.052 -3.18362 2.88 0
M  V30 4674 C 415.285 -4.4835 2.89513 0
M  V30 4675 O 415.508 -5.34163 2.00065 0
M  V30 4676 O 414.442 -4.65602 3.81443 0
M  V30 4677 H 418.268 -1.58333 2.59161 0
M  V30 4678 H 415.853 -0.722063 1.30792 0
M  V30 4679 H 417.735 -3.86245 1.68502 0
M  V30 4680 H 416.41 -3.15587 0.720197 0
M  V30 4681 H 415.317 -2.36518 2.89845 0
M  V30 4682 H 416.65 -3.12707 3.80099 0
M  V30 4683 N 418.302 -1.35869 -0.798587 0
M  V30 4684 C 419.53 -1.32722 -1.58722 0
M  V30 4685 C 419.945 0.0935631 -1.88568 0
M  V30 4686 O 419.302 1.04784 -1.49421 0
M  V30 4687 C 419.353 -2.13974 -2.91371 0
M  V30 4688 O 419.074 -3.50514 -2.62815 0
M  V30 4689 C 420.575 -2.18504 -3.85708 0
M  V30 4690 H 417.795 -0.45562 -0.492596 0
M  V30 4691 H 420.339 -1.78837 -0.991843 0
M  V30 4692 H 418.494 -1.71438 -3.47402 0
M  V30 4693 H 418.908 -3.92806 -3.47568 0
M  V30 4694 H 420.382 -2.79732 -4.75872 0
M  V30 4695 H 420.859 -1.18597 -4.22885 0
M  V30 4696 H 421.465 -2.61236 -3.35612 0
M  V30 4697 N 419.78 1.02168 -1.19998 0
M  V30 4698 C 420.71 2.12488 -0.96804 0
M  V30 4699 C 421.691 1.69799 0.101185 0
M  V30 4700 O 422.876 1.94121 -0.0552993 0
M  V30 4701 C 420.006 3.43479 -0.513776 0
M  V30 4702 C 418.96 3.99884 -1.52566 0
M  V30 4703 C 418.286 5.26582 -0.928214 0
M  V30 4704 C 419.586 4.33861 -2.90795 0
M  V30 4705 H 421.28 2.32149 -1.89069 0
M  V30 4706 H 418.826 1.11564 -0.910468 0
M  V30 4707 H 420.779 4.20036 -0.338774 0
M  V30 4708 H 419.503 3.23561 0.444493 0
M  V30 4709 H 418.162 3.25429 -1.68794 0
M  V30 4710 H 417.81 5.02986 0.0378289 0
M  V30 4711 H 417.51 5.65284 -1.60397 0
M  V30 4712 H 419.034 6.05799 -0.764167 0
M  V30 4713 H 420.448 5.01327 -2.78109 0
M  V30 4714 H 418.845 4.83664 -3.55231 0
M  V30 4715 H 419.915 3.42848 -3.42904 0
M  V30 4716 N 421.258 1.00505 1.21394 0
M  V30 4717 C 422.506 0.686415 1.90086 0
M  V30 4718 C 422.827 -0.785264 1.7849 0
M  V30 4719 O 422.097 -1.56387 1.17983 0
M  V30 4720 H 420.677 0.2509 0.703604 0
M  V30 4721 H 423.339 1.27417 1.47482 0
M  V30 4722 H 422.435 0.959621 2.96981 0
M  V30 4723 N 422.737 -1.36956 0.779787 0
M  V30 4724 C 423.67 -2.27896 0.117681 0
M  V30 4725 C 424.648 -1.46736 -0.700523 0
M  V30 4726 O 425.832 -1.76055 -0.673568 0
M  V30 4727 C 422.959 -3.28136 -0.839296 0
M  V30 4728 C 422.005 -4.26373 -0.10409 0
M  V30 4729 S 422.838 -5.2157 1.21348 0
M  V30 4730 C 423.994 -6.25359 0.260249 0
M  V30 4731 H 424.227 -2.83704 0.888778 0
M  V30 4732 H 421.76 -1.43352 0.57355 0
M  V30 4733 H 423.718 -3.86394 -1.38601 0
M  V30 4734 H 422.379 -2.7126 -1.58356 0
M  V30 4735 H 421.572 -4.97121 -0.82986 0
M  V30 4736 H 421.174 -3.72147 0.371858 0
M  V30 4737 H 423.466 -6.75145 -0.564435 0
M  V30 4738 H 424.409 -7.01885 0.936135 0
M  V30 4739 H 424.817 -5.64345 -0.132127 0
M  V30 4740 N 424.215 -0.530993 -1.48385 0
M  V30 4741 C 425.443 -0.00134122 -2.069 0
M  V30 4742 C 425.858 1.2805 -1.3874 0
M  V30 4743 O 425.215 1.76204 -0.475244 0
M  V30 4744 C 425.266 0.225256 -3.60798 0
M  V30 4745 O 424.987 -1.0058 -4.26398 0
M  V30 4746 C 426.488 0.795172 -4.3611 0
M  V30 4747 H 423.708 -0.0339704 -0.67014 0
M  V30 4748 H 426.252 -0.736926 -1.90761 0
M  V30 4749 H 424.407 0.910891 -3.76539 0
M  V30 4750 H 424.821 -0.787165 -5.1856 0
M  V30 4751 H 426.295 0.903143 -5.44562 0
M  V30 4752 H 426.772 1.80031 -4.00606 0
M  V30 4753 H 427.378 0.146069 -4.25049 0
M  V30 4754 N 425.693 1.55336 -0.266172 0
M  V30 4755 C 426.643 2.18848 0.639497 0
M  V30 4756 C 427.627 1.1503 1.12503 0
M  V30 4757 O 428.819 1.40875 1.0716 0
M  V30 4758 C 425.948 2.90626 1.82733 0
M  V30 4759 C 425.034 4.01723 1.35939 0
M  V30 4760 N 425.425 5.02145 0.606988 0
M  V30 4761 C 423.723 4.1463 1.6431 0
M  V30 4762 C 424.424 5.80572 0.362138 0
M  V30 4763 N 423.4 5.35551 0.931971 0
M  V30 4764 H 427.202 2.93845 0.0567057 0
M  V30 4765 H 424.716 1.62252 -0.0693312 0
M  V30 4766 H 426.713 3.34569 2.48735 0
M  V30 4767 H 425.373 2.17137 2.41416 0
M  V30 4768 H 426.384 5.17271 0.255198 0
M  V30 4769 H 423.061 3.52326 2.23993 0
M  V30 4770 H 424.451 6.71472 -0.239848 0
M  V30 4771 N 427.171 -0.0066808 1.57599 0
M  V30 4772 C 428.411 -0.697501 1.92131 0
M  V30 4773 C 428.775 -1.71306 0.867071 0
M  V30 4774 O 429.976 -2.45377 1.09743 0
M  V30 4775 C 428.247 -1.32978 3.3174 0
M  V30 4776 S 429.806 -2.04665 3.88146 0
M  V30 4777 H 426.624 -0.230555 0.672581 0
M  V30 4778 H 429.226 0.0484026 1.9544 0
M  V30 4779 H 427.93 -0.57772 4.06313 0
M  V30 4780 H 427.461 -2.11376 3.31789 0
M  V30 4781 H 429.476 -3.32097 3.68682 0
M  V30 4782 N 428.649 -1.55105 -0.279332 0
M  V30 4783 C 429.889 -1.7716 -1.01949 0
M  V30 4784 C 430.253 -0.557511 -1.83728 0
M  V30 4785 O 431.454 -0.656198 -2.60667 0
M  V30 4786 C 429.725 -3.0372 -1.88385 0
M  V30 4787 S 431.284 -3.46868 -2.68752 0
M  V30 4788 H 428.102 -0.62253 -0.343478 0
M  V30 4789 H 430.704 -1.93329 -0.290572 0
M  V30 4790 H 429.408 -3.90184 -1.2722 0
M  V30 4791 H 428.939 -2.902 -2.65608 0
M  V30 4792 H 430.954 -3.05643 -3.90892 0
M  V30 4793 N 430.127 0.543554 -1.4793 0
M  V30 4794 C 431.376 1.29649 -1.54512 0
M  V30 4795 C 431.689 1.94382 -0.217973 0
M  V30 4796 O 432.895 2.71017 -0.161908 0
M  V30 4797 C 431.351 2.35175 -2.72435 0
M  V30 4798 C 430.959 1.76572 -4.11736 0
M  V30 4799 C 432.703 3.11564 -2.8832 0
M  V30 4800 C 430.61 2.79958 -5.20939 0
M  V30 4801 H 429.54 0.487541 -0.57517 0
M  V30 4802 H 432.191 0.575708 -1.74235 0
M  V30 4803 H 430.573 3.10229 -2.46118 0
M  V30 4804 H 431.747 1.07799 -4.48013 0
M  V30 4805 H 430.062 1.12722 -4.00852 0
M  V30 4806 H 432.659 3.88794 -3.67074 0
M  V30 4807 H 433.002 3.66594 -1.97268 0
M  V30 4808 H 433.535 2.43623 -3.14472 0
M  V30 4809 H 430.274 2.29766 -6.13912 0
M  V30 4810 H 429.794 3.47101 -4.89164 0
M  V30 4811 H 431.473 3.43198 -5.48474 0
M  V30 4812 N 431.605 1.3629 0.791371 0
M  V30 4813 C 432.553 1.30514 1.92533 0
M  V30 4814 C 433.547 0.197285 1.68247 0
M  V30 4815 O 434.753 0.364176 1.76278 0
M  V30 4816 H 431.128 0.406263 0.632815 0
M  V30 4817 H 433.099 2.26282 1.94523 0
M  V30 4818 C 431.848 1.10933 3.29529 0
M  V30 4819 H 431.171 1.95427 3.48781 0
M  V30 4820 H 432.611 1.10937 4.0923 0
M  V30 4821 C 431.07 -0.186123 3.36385 0
M  V30 4822 O 431.6 -1.17664 3.84081 0
M  V30 4823 N 429.806 -0.230128 2.89687 0
M  V30 4824 H 429.353 0.576545 2.51065 0
M  V30 4825 H 429.311 -1.09658 2.94657 0
M  V30 4826 N 433.083 -1.0153 1.20538 0
M  V30 4827 C 434.494 -1.56598 1.01657 0
M  V30 4828 C 434.845 -1.91505 -0.426668 0
M  V30 4829 O 433.97 -1.72375 -1.30827 0
M  V30 4830 C 434.565 -2.84542 1.83905 0
M  V30 4831 C 433.124 -3.36133 1.69386 0
M  V30 4832 C 432.271 -2.09427 1.81757 0
M  V30 4833 H 435.222 -0.838974 1.34711 0
M  V30 4834 H 435.243 -3.56004 1.34319 0
M  V30 4835 H 434.755 -2.59105 2.8894 0
M  V30 4836 H 432.856 -3.66528 0.669933 0
M  V30 4837 H 432.969 -4.08248 2.50739 0
M  V30 4838 H 431.333 -2.21941 1.24957 0
M  V30 4839 H 432.116 -1.86414 2.88279 0
M  V30 4840 N 434.561 -1.01147 -1.20859 0
M  V30 4841 C 435.81 -0.693214 -1.89413 0
M  V30 4842 C 436.123 0.779969 -1.79376 0
M  V30 4843 O 437.329 1.21057 -2.43017 0
M  V30 4844 C 435.785 -1.18949 -3.39675 0
M  V30 4845 C 435.393 -2.68921 -3.58309 0
M  V30 4846 C 437.137 -0.94642 -4.13815 0
M  V30 4847 C 435.044 -3.12056 -5.0237 0
M  V30 4848 H 433.974 -0.255595 -0.709357 0
M  V30 4849 H 436.625 -1.22349 -1.36759 0
M  V30 4850 H 435.007 -0.587228 -3.91622 0
M  V30 4851 H 436.181 -3.34652 -3.16772 0
M  V30 4852 H 434.496 -2.91314 -2.97532 0
M  V30 4853 H 437.093 -1.24417 -5.20023 0
M  V30 4854 H 437.436 0.117219 -4.16135 0
M  V30 4855 H 437.969 -1.5118 -3.67953 0
M  V30 4856 H 434.708 -4.17674 -5.05202 0
M  V30 4857 H 434.228 -2.51041 -5.44737 0
M  V30 4858 H 435.907 -3.04403 -5.70918 0
M  V30 4859 N 436.039 1.36541 -0.78704 0
M  V30 4860 C 437.288 1.98552 -0.35494 0
M  V30 4861 C 437.601 1.63171 1.07864 0
M  V30 4862 O 438.807 2.18399 1.61289 0
M  V30 4863 C 437.263 3.55136 -0.583671 0
M  V30 4864 C 436.871 3.99444 -2.02851 0
M  V30 4865 C 438.615 4.2395 -0.215957 0
M  V30 4866 C 436.522 5.48796 -2.20403 0
M  V30 4867 H 435.452 0.742888 -0.128972 0
M  V30 4868 H 438.103 1.5587 -0.968337 0
M  V30 4869 H 436.485 3.95875 0.0994046 0
M  V30 4870 H 437.659 3.6991 -2.74779 0
M  V30 4871 H 435.974 3.43459 -2.35425 0
M  V30 4872 H 438.571 5.33709 -0.325405 0
M  V30 4873 H 438.914 4.07827 0.835646 0
M  V30 4874 H 439.447 3.88565 -0.852175 0
M  V30 4875 H 436.186 5.69864 -3.23937 0
M  V30 4876 H 435.706 5.79964 -1.52977 0
M  V30 4877 H 437.385 6.14986 -2.01002 0
M  V30 4878 N 437.518 0.538854 1.48102 0
M  V30 4879 C 438.748 0.0122958 2.06596 0
M  V30 4880 C 439.156 -1.27861 1.39457 0
M  V30 4881 O 438.499 -1.77348 0.478907 0
M  V30 4882 C 438.561 -0.273131 3.58461 0
M  V30 4883 C 438.225 0.92561 4.47528 0
M  V30 4884 C 439.222 1.82637 4.86765 0
M  V30 4885 C 436.907 1.13511 4.89306 0
M  V30 4886 C 438.901 2.92047 5.66558 0
M  V30 4887 C 436.588 2.23233 5.68868 0
M  V30 4888 C 437.586 3.12333 6.07402 0
M  V30 4889 O 437.274 4.20155 6.85365 0
M  V30 4890 H 437.006 0.0344283 0.675123 0
M  V30 4891 H 439.56 0.746494 1.91355 0
M  V30 4892 H 437.79 -1.06141 3.71848 0
M  V30 4893 H 439.479 -0.742842 3.99045 0
M  V30 4894 H 440.245 1.67649 4.55103 0
M  V30 4895 H 436.124 0.450835 4.5879 0
M  V30 4896 H 439.668 3.6162 5.96554 0
M  V30 4897 H 435.565 2.38201 5.99942 0
M  V30 4898 H 436.333 4.17975 7.03732 0
M  V30 4899 N 438.996 -1.55193 0.274407 0
M  V30 4900 C 439.959 -2.212 -0.600279 0
M  V30 4901 C 440.959 -1.18963 -1.08187 0
M  V30 4902 O 442.149 -1.43873 -0.982158 0
M  V30 4903 C 439.281 -2.87739 -1.82809 0
M  V30 4904 H 440.474 -2.9989 -0.0239682 0
M  V30 4905 H 438.027 -1.5628 0.0250192 0
M  V30 4906 H 438.762 -2.13058 -2.44493 0
M  V30 4907 H 438.547 -3.62658 -1.49069 0
M  V30 4908 H 440.037 -3.38171 -2.45011 0
M  V30 4909 N 440.474 -0.00167713 -1.576 0
M  V30 4910 C 441.721 0.68282 -1.90641 0
M  V30 4911 C 442.049 1.73686 -0.875415 0
M  V30 4912 O 441.304 1.95334 0.119575 0
M  V30 4913 C 441.603 1.36189 -3.30435 0
M  V30 4914 C 441.269 0.440887 -4.48739 0
M  V30 4915 C 439.931 0.187312 -4.80835 0
M  V30 4916 C 442.283 -0.193134 -5.20842 0
M  V30 4917 C 439.611 -0.70855 -5.82406 0
M  V30 4918 C 441.963 -1.07688 -6.23367 0
M  V30 4919 C 440.627 -1.33962 -6.53919 0
M  V30 4920 H 439.897 0.249862 -0.697603 0
M  V30 4921 H 442.544 -0.0575642 -1.91413 0
M  V30 4922 H 440.849 2.17636 -3.25794 0
M  V30 4923 H 442.546 1.89759 -3.5326 0
M  V30 4924 H 439.136 0.648694 -4.23663 0
M  V30 4925 H 443.32 -0.0102445 -4.96299 0
M  V30 4926 H 438.576 -0.920097 -6.04437 0
M  V30 4927 H 442.75 -1.57451 -6.78367 0
M  V30 4928 H 440.377 -2.03549 -7.32442 0
M  V30 4929 N 441.952 1.55251 0.271103 0
M  V30 4930 C 443.198 1.76207 1.00394 0
M  V30 4931 C 443.531 0.562604 1.85872 0
M  V30 4932 O 442.806 -0.439785 1.89463 0
M  V30 4933 C 443.089 3.06828 1.8849 0
M  V30 4934 C 442.942 4.37134 1.05992 0
M  V30 4935 C 444.261 3.33503 2.87165 0
M  V30 4936 H 441.38 0.641086 0.363562 0
M  V30 4937 H 444.022 1.87982 0.276189 0
M  V30 4938 H 442.172 2.96921 2.5054 0
M  V30 4939 H 443.844 4.59001 0.459978 0
M  V30 4940 H 442.087 4.32275 0.363443 0
M  V30 4941 H 442.758 5.2486 1.70955 0
M  V30 4942 H 445.234 3.43215 2.3525 0
M  V30 4943 H 444.11 4.2616 3.45946 0
M  V30 4944 H 444.371 2.53235 3.62387 0
M  V30 4945 N 443.43 -0.535701 1.48216 0
M  V30 4946 C 444.678 -1.28928 1.55634 0
M  V30 4947 C 444.999 -1.93645 0.229514 0
M  V30 4948 O 444.269 -1.81038 -0.74846 0
M  V30 4949 H 442.849 -0.47884 0.573342 0
M  V30 4950 H 445.511 -0.623853 1.84646 0
M  V30 4951 H 444.607 -2.07157 2.33436 0
M  V30 4952 N 444.908 -1.36708 -0.784132 0
M  V30 4953 C 445.818 -1.3363 -1.92822 0
M  V30 4954 C 446.834 -0.237686 -1.72369 0
M  V30 4955 O 448.01 -0.470962 -1.95816 0
M  V30 4956 C 445.075 -1.13011 -3.27764 0
M  V30 4957 C 444.136 -2.32397 -3.60957 0
M  V30 4958 C 443.369 -2.12752 -4.89461 0
M  V30 4959 O 443.592 -1.10541 -5.59586 0
M  V30 4960 O 442.526 -3.00653 -5.21432 0
M  V30 4961 H 446.352 -2.29964 -1.98369 0
M  V30 4962 H 443.937 -1.1731 -0.925136 0
M  V30 4963 H 445.819 -1.03451 -4.08504 0
M  V30 4964 H 444.494 -0.19743 -3.23097 0
M  V30 4965 H 443.401 -2.47527 -2.80502 0
M  V30 4966 H 444.734 -3.2419 -3.70354 0
M  V30 4967 N 446.386 1.0089 -1.21074 0
M  V30 4968 C 447.333 2.09588 -0.966512 0
M  V30 4969 C 448.303 1.65761 0.106089 0
M  V30 4970 O 449.488 1.90758 -0.0402287 0
M  V30 4971 C 446.628 3.40958 -0.533058 0
M  V30 4972 C 445.741 3.9822 -1.67467 0
M  V30 4973 C 444.876 5.17682 -1.19076 0
M  V30 4974 C 443.915 5.67043 -2.30496 0
M  V30 4975 N 443.052 6.77759 -1.83267 0
M  V30 4976 H 447.892 2.29815 -1.89708 0
M  V30 4977 H 445.429 1.12689 -0.945489 0
M  V30 4978 H 447.387 4.1637 -0.263019 0
M  V30 4979 H 446.017 3.20781 0.360505 0
M  V30 4980 H 445.069 3.1983 -2.05944 0
M  V30 4981 H 446.381 4.3085 -2.51336 0
M  V30 4982 H 445.535 6.00326 -0.877151 0
M  V30 4983 H 444.274 4.86635 -0.322066 0
M  V30 4984 H 443.279 4.82999 -2.62664 0
M  V30 4985 H 444.504 6.00121 -3.17855 0
M  V30 4986 H 442.45 6.48527 -0.987356 0
M  V30 4987 H 442.367 7.09624 -2.60711 0
M  V30 4988 H 443.635 7.63949 -1.54928 0
M  V30 4989 N 447.864 1.01787 1.20321 0
M  V30 4990 C 449.111 0.707936 1.89722 0
M  V30 4991 C 449.439 -0.762535 1.78929 0
M  V30 4992 O 448.694 -1.56977 1.16861 0
M  V30 4993 C 448.993 1.09076 3.40349 0
M  V30 4994 C 448.659 2.55765 3.71342 0
M  V30 4995 C 447.321 2.95845 3.79511 0
M  V30 4996 C 449.673 3.50723 3.85542 0
M  V30 4997 C 447.001 4.2982 3.99339 0
M  V30 4998 C 449.353 4.84387 4.06881 0
M  V30 4999 C 448.017 5.24172 4.1328 0
M  V30 5000 H 447.287 0.259052 0.694243 0
M  V30 5001 H 449.934 1.27868 1.42555 0
M  V30 5002 H 448.239 0.438453 3.89339 0
M  V30 5003 H 449.936 0.828636 3.92345 0
M  V30 5004 H 446.526 2.2371 3.65584 0
M  V30 5005 H 450.71 3.20916 3.78585 0
M  V30 5006 H 445.966 4.60196 4.02529 0
M  V30 5007 H 450.14 5.57891 4.1681 0
M  V30 5008 H 447.767 6.27997 4.28396 0
M  V30 5009 N 449.342 -1.36122 0.79427 0
M  V30 5010 C 450.758 -1.5232 0.476525 0
M  V30 5011 C 450.958 -1.74685 -1.00436 0
M  V30 5012 O 450.014 -1.78115 -1.78973 0
M  V30 5013 C 451.327 -2.70607 1.31119 0
M  V30 5014 C 452.875 -2.8448 1.30537 0
M  V30 5015 C 453.35 -4.05778 2.12387 0
M  V30 5016 N 454.841 -4.12933 2.09859 0
M  V30 5017 C 455.576 -5.05876 2.69957 0
M  V30 5018 N 455.072 -6.04232 3.38934 0
M  V30 5019 N 456.865 -4.98528 2.59665 0
M  V30 5020 H 449.016 -1.1986 1.75349 0
M  V30 5021 H 451.279 -0.585418 0.745647 0
M  V30 5022 H 450.985 -2.60619 2.36158 0
M  V30 5023 H 450.859 -3.64888 0.955843 0
M  V30 5024 H 453.246 -2.93927 0.262876 0
M  V30 5025 H 453.327 -1.91093 1.70051 0
M  V30 5026 H 452.971 -3.97092 3.1667 0
M  V30 5027 H 452.901 -4.98323 1.70242 0
M  V30 5028 H 455.392 -3.42515 1.59662 0
M  V30 5029 H 455.705 -6.71724 3.82109 0
M  V30 5030 H 454.05 -6.04443 3.43036 0
M  V30 5031 H 457.241 -4.20641 2.05375 0
M  V30 5032 H 457.414 -5.70773 3.06793 0
M  V30 5033 N 450.82 -0.546701 -1.47814 0
M  V30 5034 C 451.768 0.220048 -2.31557 0
M  V30 5035 C 452.762 0.919472 -1.42275 0
M  V30 5036 O 453.968 0.841953 -1.59095 0
M  V30 5037 H 450.343 0.0898334 -0.746615 0
M  V30 5038 H 452.314 -0.505589 -2.94086 0
M  V30 5039 C 451.063 1.24353 -3.24702 0
M  V30 5040 H 450.386 0.714758 -3.93359 0
M  V30 5041 H 451.826 1.75112 -3.8615 0
M  V30 5042 C 450.285 2.28593 -2.47481 0
M  V30 5043 O 450.815 3.35334 -2.21165 0
M  V30 5044 N 449.021 2.02244 -2.08676 0
M  V30 5045 H 448.568 1.15455 -2.30278 0
M  V30 5046 H 448.526 2.72207 -1.57323 0
M  V30 5047 N 452.299 1.55045 -0.282633 0
M  V30 5048 C 453.529 2.03872 0.334635 0
M  V30 5049 C 453.937 1.16018 1.49454 0
M  V30 5050 O 453.28 0.174449 1.8287 0
M  V30 5051 C 453.342 3.48791 0.870905 0
M  V30 5052 C 453.006 4.56715 -0.161338 0
M  V30 5053 C 454.003 5.10513 -0.983466 0
M  V30 5054 C 451.688 5.01417 -0.297745 0
M  V30 5055 C 453.682 6.07538 -1.92811 0
M  V30 5056 C 451.369 5.98265 -1.24586 0
M  V30 5057 C 452.367 6.51208 -2.05954 0
M  V30 5058 O 452.055 7.46162 -2.99162 0
M  V30 5059 H 451.787 0.671324 0.0793742 0
M  V30 5060 H 454.341 2.01169 -0.41473 0
M  V30 5061 H 452.571 3.48758 1.67047 0
M  V30 5062 H 454.26 3.80916 1.40207 0
M  V30 5063 H 455.026 4.76785 -0.888856 0
M  V30 5064 H 450.905 4.59849 0.325604 0
M  V30 5065 H 454.449 6.48787 -2.56363 0
M  V30 5066 H 450.346 6.31412 -1.34126 0
M  V30 5067 H 451.114 7.63903 -2.93929 0
M  V30 5068 N 453.777 0.010035 1.57597 0
M  V30 5069 C 454.707 -0.976857 2.12084 0
M  V30 5070 C 455.688 -1.35191 1.03235 0
M  V30 5071 O 456.873 -1.43389 1.3097 0
M  V30 5072 C 454.003 -2.26548 2.63236 0
M  V30 5073 C 452.957 -2.03175 3.76701 0
M  V30 5074 C 452.283 -3.38138 4.14206 0
M  V30 5075 C 453.583 -1.38625 5.03568 0
M  V30 5076 H 455.277 -0.523145 2.94794 0
M  V30 5077 H 452.823 -0.250195 1.4181 0
M  V30 5078 H 454.776 -2.95952 2.99984 0
M  V30 5079 H 453.5 -2.74051 1.77661 0
M  V30 5080 H 452.159 -1.36195 3.40362 0
M  V30 5081 H 451.807 -3.83363 3.25641 0
M  V30 5082 H 451.507 -3.23312 4.90656 0
M  V30 5083 H 453.031 -4.08841 4.53521 0
M  V30 5084 H 454.445 -1.98 5.38023 0
M  V30 5085 H 452.842 -1.34256 5.84889 0
M  V30 5086 H 453.912 -0.356722 4.83586 0
M  V30 5087 N 455.255 -1.55392 -0.262866 0
M  V30 5088 C 456.185 -1.91978 -1.32917 0
M  V30 5089 C 457.166 -0.7828 -1.51017 0
M  V30 5090 O 458.351 -1.04178 -1.63892 0
M  V30 5091 C 455.481 -2.20055 -2.68687 0
M  V30 5092 C 454.435 -3.35854 -2.65304 0
M  V30 5093 C 453.761 -3.49435 -4.04721 0
M  V30 5094 C 455.061 -4.71977 -2.23685 0
M  V30 5095 H 456.755 -2.81292 -1.02544 0
M  V30 5096 H 454.301 -1.3534 -0.491846 0
M  V30 5097 H 456.254 -2.44237 -3.43404 0
M  V30 5098 H 454.978 -1.27551 -3.00663 0
M  V30 5099 H 453.637 -3.11655 -1.93045 0
M  V30 5100 H 453.285 -2.54379 -4.33936 0
M  V30 5101 H 452.985 -4.27297 -4.0335 0
M  V30 5102 H 454.509 -3.7592 -4.81161 0
M  V30 5103 H 455.923 -4.95637 -2.88127 0
M  V30 5104 H 454.32 -5.52828 -2.33456 0
M  V30 5105 H 455.39 -4.70115 -1.18827 0
M  V30 5106 N 456.733 0.527833 -1.48498 0
M  V30 5107 C 457.979 1.28545 -1.56857 0
M  V30 5108 C 458.312 1.92678 -0.242651 0
M  V30 5109 O 457.587 1.79394 0.751545 0
M  V30 5110 C 457.87 2.37314 -2.70839 0
M  V30 5111 C 457.723 1.77858 -4.13142 0
M  V30 5112 C 459.042 3.39068 -2.80573 0
M  V30 5113 H 456.161 0.466006 -0.570971 0
M  V30 5114 H 458.803 0.587784 -1.8068 0
M  V30 5115 H 456.953 2.96821 -2.50658 0
M  V30 5116 H 458.625 1.22385 -4.44769 0
M  V30 5117 H 456.868 1.08383 -4.20042 0
M  V30 5118 H 457.539 2.56624 -4.88721 0
M  V30 5119 H 460.015 2.89518 -2.98862 0
M  V30 5120 H 458.891 4.12566 -3.6205 0
M  V30 5121 H 459.152 3.9975 -1.88818 0
M  V30 5122 N 458.211 1.37122 0.776871 0
M  V30 5123 C 459.458 1.32047 1.53524 0
M  V30 5124 C 459.786 -0.0965631 1.9426 0
M  V30 5125 O 459.041 -1.06866 1.63945 0
M  V30 5126 C 459.34 2.20068 2.81611 0
M  V30 5127 C 459.006 3.68423 2.59953 0
M  V30 5128 C 457.668 4.08854 2.53755 0
M  V30 5129 C 460.02 4.62431 2.40431 0
M  V30 5130 C 457.348 5.41417 2.26018 0
M  V30 5131 C 459.7 5.95225 2.14219 0
M  V30 5132 C 458.364 6.34767 2.06462 0
M  V30 5133 H 457.634 0.483196 0.561785 0
M  V30 5134 H 460.281 1.69284 0.895268 0
M  V30 5135 H 458.586 1.75809 3.50141 0
M  V30 5136 H 460.283 2.13458 3.39465 0
M  V30 5137 H 456.873 3.36354 2.65638 0
M  V30 5138 H 461.057 4.32057 2.44213 0
M  V30 5139 H 456.313 5.71022 2.18504 0
M  V30 5140 H 460.487 6.67626 1.98112 0
M  V30 5141 H 458.114 7.37413 1.84733 0
M  V30 5142 N 459.689 -1.00246 1.21608 0
M  V30 5143 C 460.936 -1.74061 1.03485 0
M  V30 5144 C 461.264 -1.89658 -0.431308 0
M  V30 5145 O 460.519 -1.42976 -1.33627 0
M  V30 5146 C 460.818 -3.15448 1.68009 0
M  V30 5147 C 460.484 -3.19792 3.17874 0
M  V30 5148 C 459.146 -3.20685 3.58768 0
M  V30 5149 C 461.498 -3.16835 4.13842 0
M  V30 5150 C 458.826 -3.16309 4.94131 0
M  V30 5151 C 461.178 -3.14001 5.49169 0
M  V30 5152 C 459.842 -3.13204 5.89457 0
M  V30 5153 H 459.112 -0.636934 0.378677 0
M  V30 5154 H 461.759 -1.17473 1.51236 0
M  V30 5155 H 460.064 -3.75284 1.12557 0
M  V30 5156 H 461.761 -3.71285 1.51487 0
M  V30 5157 H 458.351 -3.19842 2.85305 0
M  V30 5158 H 462.535 -3.15303 3.83272 0
M  V30 5159 H 457.791 -3.14032 5.24589 0
M  V30 5160 H 461.965 -3.10667 6.23265 0
M  V30 5161 H 459.592 -3.09568 6.94314 0
M  V30 5162 N 461.167 -1.02423 -1.1978 0
M  V30 5163 C 462.099 -0.559152 -2.22275 0
M  V30 5164 C 463.112 0.36251 -1.58713 0
M  V30 5165 O 464.301 0.159641 -1.77785 0
M  V30 5166 C 461.401 0.205094 -3.38279 0
M  V30 5167 C 460.574 -0.720361 -4.31427 0
M  V30 5168 C 459.633 -0.00234368 -5.262 0
M  V30 5169 O 458.659 -0.627378 -5.65732 0
M  V30 5170 N 459.861 1.26996 -5.66438 0
M  V30 5171 H 462.626 -1.44064 -2.62804 0
M  V30 5172 H 460.187 -0.902692 -1.34399 0
M  V30 5173 H 462.179 0.694868 -3.9869 0
M  V30 5174 H 460.749 0.987947 -2.96578 0
M  V30 5175 H 459.969 -1.39031 -3.68869 0
M  V30 5176 H 461.257 -1.3495 -4.90577 0
M  V30 5177 H 460.655 1.79858 -5.36347 0
M  V30 5178 H 459.212 1.70432 -6.29123 0
M  V30 5179 N 462.645 1.35699 -0.801477 0
M  V30 5180 C 463.592 2.29876 -0.206294 0
M  V30 5181 C 464.562 1.52565 0.656752 0
M  V30 5182 O 465.747 1.81024 0.602906 0
M  V30 5183 C 462.887 3.39052 0.643272 0
M  V30 5184 C 462 4.31335 -0.239644 0
M  V30 5185 C 461.135 5.27599 0.61744 0
M  V30 5186 C 460.174 6.11521 -0.26619 0
M  V30 5187 N 459.311 6.99938 0.550571 0
M  V30 5188 H 464.151 2.80187 -1.01484 0
M  V30 5189 H 461.688 1.37902 -0.511997 0
M  V30 5190 H 463.646 4.0101 1.15094 0
M  V30 5191 H 462.276 2.9003 1.41713 0
M  V30 5192 H 461.328 3.70426 -0.865381 0
M  V30 5193 H 462.64 4.90243 -0.919985 0
M  V30 5194 H 461.794 5.94906 1.19045 0
M  V30 5195 H 460.533 4.69176 1.33137 0
M  V30 5196 H 459.538 5.43166 -0.851507 0
M  V30 5197 H 460.763 6.72022 -0.9779 0
M  V30 5198 H 458.709 6.44008 1.24856 0
M  V30 5199 H 458.626 7.55966 -0.071832 0
M  V30 5200 H 459.894 7.71599 1.10702 0
M  V30 5201 N 464.123 0.554532 1.47522 0
M  V30 5202 C 465.073 -0.215008 2.26984 0
M  V30 5203 C 466.057 -0.88774 1.34194 0
M  V30 5204 O 467.249 -0.786489 1.58567 0
M  V30 5205 C 464.378 -1.24604 3.19889 0
M  V30 5206 C 463.464 -0.576857 4.20159 0
M  V30 5207 N 463.855 0.351541 5.04577 0
M  V30 5208 C 462.153 -0.831104 4.38188 0
M  V30 5209 C 462.854 0.739995 5.76974 0
M  V30 5210 N 461.83 0.0954407 5.43516 0
M  V30 5211 H 465.632 0.498843 2.89636 0
M  V30 5212 H 463.146 0.374279 1.58028 0
M  V30 5213 H 465.143 -1.81128 3.75498 0
M  V30 5214 H 463.803 -1.96101 2.58794 0
M  V30 5215 H 464.814 0.725556 5.12792 0
M  V30 5216 H 461.491 -1.53479 3.88266 0
M  V30 5217 H 462.881 1.50271 6.5488 0
M  V30 5218 N 465.601 -1.54893 0.290851 0
M  V30 5219 C 466.85 -1.99111 -0.322113 0
M  V30 5220 C 467.163 -1.18283 -1.55784 0
M  V30 5221 O 468.369 -1.5272 -2.24475 0
M  V30 5222 C 466.825 -3.54442 -0.624438 0
M  V30 5223 C 466.433 -4.44066 0.592373 0
M  V30 5224 C 468.177 -4.07211 -1.19916 0
M  V30 5225 C 466.084 -5.90812 0.263762 0
M  V30 5226 H 465.014 -0.743712 -0.124133 0
M  V30 5227 H 467.665 -1.79132 0.39797 0
M  V30 5228 H 466.047 -3.70281 -1.40384 0
M  V30 5229 H 467.221 -4.39999 1.36886 0
M  V30 5230 H 465.536 -4.02015 1.08502 0
M  V30 5231 H 468.133 -5.14407 -1.45909 0
M  V30 5232 H 468.476 -3.57196 -2.13815 0
M  V30 5233 H 469.009 -3.94873 -0.481687 0
M  V30 5234 H 465.748 -6.44955 1.17105 0
M  V30 5235 H 465.268 -5.97911 -0.475655 0
M  V30 5236 H 466.947 -6.46852 -0.138354 0
M  V30 5237 N 467.08 -0.0183926 -1.57589 0
M  V30 5238 C 468.043 0.951986 -2.08494 0
M  V30 5239 C 469.043 1.26092 -0.997874 0
M  V30 5240 O 470.233 1.20304 -1.25987 0
M  V30 5241 C 467.365 2.27165 -2.54182 0
M  V30 5242 H 468.558 0.511307 -2.95509 0
M  V30 5243 H 466.111 0.229444 -1.54607 0
M  V30 5244 H 466.846 2.75884 -1.70465 0
M  V30 5245 H 466.631 2.06057 -3.33591 0
M  V30 5246 H 468.121 2.9674 -2.93828 0
M  V30 5247 N 468.558 1.5553 0.254621 0
M  V30 5248 C 469.505 1.89666 1.31512 0
M  V30 5249 C 470.475 0.750057 1.482 0
M  V30 5250 O 471.66 1.00301 1.62309 0
M  V30 5251 C 468.8 2.19009 2.667 0
M  V30 5252 C 467.913 3.46435 2.58083 0
M  V30 5253 C 467.048 3.65386 3.85573 0
M  V30 5254 C 466.087 4.8644 3.71541 0
M  V30 5255 N 465.224 5.01952 4.90906 0
M  V30 5256 H 470.064 2.80109 1.017 0
M  V30 5257 H 467.601 1.38666 0.490938 0
M  V30 5258 H 469.559 2.34025 3.45381 0
M  V30 5259 H 468.189 1.31779 2.94676 0
M  V30 5260 H 467.241 3.39792 1.71013 0
M  V30 5261 H 468.553 4.35258 2.43622 0
M  V30 5262 H 467.707 3.80319 4.72697 0
M  V30 5263 H 466.446 2.74781 4.02922 0
M  V30 5264 H 465.451 4.71491 2.82801 0
M  V30 5265 H 466.676 5.78497 3.55694 0
M  V30 5266 H 464.622 4.14283 5.08631 0
M  V30 5267 H 464.539 5.84851 4.79046 0
M  V30 5268 H 465.807 5.21289 5.7955 0
M  V30 5269 N 470.036 -0.519951 1.48776 0
M  V30 5270 C 471.452 -0.849418 1.35119 0
M  V30 5271 C 471.652 -1.98077 0.36982 0
M  V30 5272 O 470.708 -2.51664 -0.205359 0
M  V30 5273 C 472.021 -1.20748 2.75391 0
M  V30 5274 C 473.569 -1.31679 2.83954 0
M  V30 5275 C 474.044 -1.70824 4.24951 0
M  V30 5276 N 475.535 -1.77908 4.27672 0
M  V30 5277 C 476.27 -2.09603 5.33717 0
M  V30 5278 N 475.766 -2.39652 6.5003 0
M  V30 5279 N 477.559 -2.10694 5.21119 0
M  V30 5280 H 469.71 0.226377 2.1119 0
M  V30 5281 H 471.973 0.0386519 0.947212 0
M  V30 5282 H 471.679 -0.449703 3.48813 0
M  V30 5283 H 471.553 -2.15534 3.09556 0
M  V30 5284 H 473.94 -2.06532 2.10781 0
M  V30 5285 H 474.021 -0.3499 2.53396 0
M  V30 5286 H 473.665 -0.965282 4.98643 0
M  V30 5287 H 473.595 -2.6858 4.52959 0
M  V30 5288 H 476.086 -1.56923 3.43779 0
M  V30 5289 H 476.399 -2.6297 7.26682 0
M  V30 5290 H 474.744 -2.37149 6.53288 0
M  V30 5291 H 477.935 -1.86682 4.29264 0
M  V30 5292 H 478.108 -2.35062 6.03863 0
M  V30 5293 N 471.514 -1.37532 -0.769588 0
M  V30 5294 C 472.761 -1.3286 -1.52822 0
M  V30 5295 C 473.089 0.0862597 -1.94309 0
M  V30 5296 O 472.344 1.05995 -1.6451 0
M  V30 5297 C 472.643 -2.21558 -2.8044 0
M  V30 5298 C 472.309 -3.69796 -2.57996 0
M  V30 5299 C 470.971 -4.10194 -2.51583 0
M  V30 5300 C 473.323 -4.63699 -2.37976 0
M  V30 5301 C 470.651 -5.42608 -2.23144 0
M  V30 5302 C 473.003 -5.96353 -2.1106 0
M  V30 5303 C 471.667 -6.35853 -2.03093 0
M  V30 5304 H 470.937 -0.486168 -0.559215 0
M  V30 5305 H 473.584 -1.69757 -0.886277 0
M  V30 5306 H 471.889 -1.77663 -3.49204 0
M  V30 5307 H 473.586 -2.15256 -3.38328 0
M  V30 5308 H 470.176 -3.37759 -2.63851 0
M  V30 5309 H 474.36 -4.33346 -2.41919 0
M  V30 5310 H 469.616 -5.72173 -2.15472 0
M  V30 5311 H 473.79 -6.68667 -1.94568 0
M  V30 5312 H 471.417 -7.38382 -1.8082 0
M  V30 5313 N 472.992 0.995999 -1.22138 0
M  V30 5314 C 474.232 1.75032 -1.05561 0
M  V30 5315 C 474.596 1.87729 0.402698 0
M  V30 5316 O 475.797 2.59813 0.689234 0
M  V30 5317 C 474.068 3.11973 -1.74379 0
M  V30 5318 S 475.627 4.03182 -1.73175 0
M  V30 5319 H 472.445 0.602137 -0.37809 0
M  V30 5320 H 475.047 1.19107 -1.55028 0
M  V30 5321 H 473.751 3.00371 -2.79652 0
M  V30 5322 H 473.282 3.7297 -1.25128 0
M  V30 5323 H 475.297 4.90043 -0.77923 0
M  V30 5324 N 474.47 1.03057 1.19235 0
M  V30 5325 C 475.417 0.612832 2.22515 0
M  V30 5326 C 476.387 -0.374224 1.61829 0
M  V30 5327 O 477.572 -0.270501 1.88873 0
M  V30 5328 C 474.712 -0.028475 3.45088 0
M  V30 5329 C 473.825 1.00483 4.20151 0
M  V30 5330 C 472.96 0.333102 5.30155 0
M  V30 5331 C 471.999 1.3522 5.96977 0
M  V30 5332 N 471.136 0.70616 6.9854 0
M  V30 5333 H 475.976 1.49812 2.57605 0
M  V30 5334 H 473.513 0.749658 1.26564 0
M  V30 5335 H 475.471 -0.417548 4.15105 0
M  V30 5336 H 474.101 -0.877334 3.10649 0
M  V30 5337 H 473.153 1.51194 3.49062 0
M  V30 5338 H 474.465 1.77929 4.65986 0
M  V30 5339 H 473.619 -0.110725 6.06599 0
M  V30 5340 H 472.358 -0.473547 4.85396 0
M  V30 5341 H 471.363 1.80627 5.19282 0
M  V30 5342 H 472.588 2.16037 6.4382 0
M  V30 5343 H 470.534 -0.0803667 6.55951 0
M  V30 5344 H 470.451 1.41848 7.42573 0
M  V30 5345 H 471.719 0.286391 7.78974 0
M  V30 5346 N 475.948 -1.35272 0.808662 0
M  V30 5347 C 477.188 -2.00534 0.395668 0
M  V30 5348 C 477.552 -1.62755 -1.01857 0
M  V30 5349 O 478.753 -2.20752 -1.53368 0
M  V30 5350 C 477.024 -3.52732 0.575771 0
M  V30 5351 S 478.583 -4.38067 0.253507 0
M  V30 5352 H 475.401 -0.694962 0.150165 0
M  V30 5353 H 478.003 -1.64823 1.05137 0
M  V30 5354 H 476.707 -3.77714 1.60499 0
M  V30 5355 H 476.238 -3.93285 -0.0951739 0
M  V30 5356 H 478.253 -4.87252 -0.938068 0
M  V30 5357 N 477.426 -0.562348 -1.47226 0
M  V30 5358 C 478.666 -0.0426374 -2.04356 0
M  V30 5359 C 479.03 1.28487 -1.42671 0
M  V30 5360 O 480.231 1.89259 -1.90878 0
M  V30 5361 C 478.502 0.0433826 -3.57374 0
M  V30 5362 S 480.061 0.508472 -4.35844 0
M  V30 5363 H 476.879 -0.0276234 -0.710463 0
M  V30 5364 H 479.481 -0.750245 -1.80531 0
M  V30 5365 H 478.185 -0.927072 -3.99792 0
M  V30 5366 H 477.716 0.774387 -3.85703 0
M  V30 5367 H 479.731 1.76719 -4.63665 0
M  V30 5368 N 478.904 1.54736 -0.299062 0
M  V30 5369 C 480.129 2.04975 0.316254 0
M  V30 5370 C 480.554 1.17501 1.46885 0
M  V30 5371 O 479.912 0.178678 1.80417 0
M  V30 5372 C 479.96 3.52672 0.751997 0
M  V30 5373 O 479.064 3.68226 1.85697 0
M  V30 5374 H 478.405 0.661126 0.0617175 0
M  V30 5375 H 480.935 1.99805 -0.440341 0
M  V30 5376 H 480.945 3.94488 1.04133 0
M  V30 5377 H 479.62 4.158 -0.0911482 0
M  V30 5378 H 478.197 3.38316 1.56834 0
M  V30 5379 N 480.382 0.0267497 1.57577 0
M  V30 5380 C 481.631 -0.651736 1.9088 0
M  V30 5381 C 481.944 -1.73427 0.904576 0
M  V30 5382 O 483.15 -2.46923 1.12877 0
M  V30 5383 C 481.606 -1.21048 3.38933 0
M  V30 5384 C 481.214 -0.161362 4.47709 0
M  V30 5385 C 482.958 -1.86562 3.81307 0
M  V30 5386 C 480.865 -0.731611 5.86857 0
M  V30 5387 H 479.795 -0.247198 0.712326 0
M  V30 5388 H 482.446 0.0916641 1.83271 0
M  V30 5389 H 480.828 -2.00542 3.41466 0
M  V30 5390 H 482.002 0.61094 4.56732 0
M  V30 5391 H 480.317 0.394877 4.14523 0
M  V30 5392 H 482.914 -2.30178 4.8262 0
M  V30 5393 H 483.257 -2.70735 3.16241 0
M  V30 5394 H 483.79 -1.13762 3.81186 0
M  V30 5395 H 480.529 0.0719329 6.55461 0
M  V30 5396 H 480.049 -1.47245 5.81445 0
M  V30 5397 H 481.728 -1.22208 6.35354 0
M  V30 5398 N 481.861 -1.55662 -0.24637 0
M  V30 5399 C 483.108 -1.77519 -0.974335 0
M  V30 5400 C 483.436 -0.591165 -1.85298 0
M  V30 5401 O 482.691 0.425497 -1.91018 0
M  V30 5402 C 482.99 -3.04885 -1.86494 0
M  V30 5403 C 482.656 -4.36209 -1.14161 0
M  V30 5404 C 481.318 -4.71896 -0.941701 0
M  V30 5405 C 483.67 -5.17391 -0.628957 0
M  V30 5406 C 480.998 -5.86299 -0.216852 0
M  V30 5407 C 483.35 -6.32546 0.0824273 0
M  V30 5408 C 482.014 -6.66853 0.293807 0
M  V30 5409 H 481.284 -0.649588 -0.356535 0
M  V30 5410 H 483.931 -1.89934 -0.244394 0
M  V30 5411 H 482.236 -2.87484 -2.66196 0
M  V30 5412 H 483.933 -3.18994 -2.42989 0
M  V30 5413 H 480.523 -4.08174 -1.30736 0
M  V30 5414 H 484.707 -4.90276 -0.770943 0
M  V30 5415 H 479.963 -6.11385 -0.0426124 0
M  V30 5416 H 484.137 -6.94693 0.487292 0
M  V30 5417 H 481.764 -7.55349 0.857428 0
M  V30 5418 N 483.339 0.512053 -1.4905 0
M  V30 5419 C 484.271 1.63121 -1.6101 0
M  V30 5420 C 485.284 1.55145 -0.493352 0
M  V30 5421 O 486.473 1.61278 -0.764955 0
M  V30 5422 C 483.573 3.01863 -1.54052 0
M  V30 5423 C 482.746 3.35138 -2.81072 0
M  V30 5424 C 481.805 4.5324 -2.67319 0
M  V30 5425 O 480.831 4.55571 -3.41238 0
M  V30 5426 N 482.033 5.52495 -1.78127 0
M  V30 5427 H 484.798 1.53292 -2.5753 0
M  V30 5428 H 482.359 0.699706 -1.45999 0
M  V30 5429 H 484.351 3.78774 -1.42521 0
M  V30 5430 H 482.921 3.05675 -0.654345 0
M  V30 5431 H 482.141 2.4723 -3.07036 0
M  V30 5432 H 483.429 3.54162 -3.65304 0
M  V30 5433 H 482.827 5.53403 -1.17308 0
M  V30 5434 H 481.384 6.28553 -1.72525 0
M  V30 5435 N 484.817 1.37938 0.762283 0
M  V30 5436 C 485.749 1.30349 1.88525 0
M  V30 5437 C 486.762 0.217402 1.61342 0
M  V30 5438 O 487.951 0.474291 1.72084 0
M  V30 5439 C 485.051 0.994844 3.23969 0
M  V30 5440 C 484.224 2.18829 3.78725 0
M  V30 5441 C 483.283 1.84844 4.92665 0
M  V30 5442 O 482.309 2.57244 5.07754 0
M  V30 5443 N 483.511 0.798201 5.74986 0
M  V30 5444 H 486.276 2.27114 1.95549 0
M  V30 5445 H 483.837 1.31686 0.941825 0
M  V30 5446 H 485.829 0.748168 3.97724 0
M  V30 5447 H 484.399 0.115446 3.12387 0
M  V30 5448 H 483.619 2.59615 2.96637 0
M  V30 5449 H 484.907 2.98497 4.1204 0
M  V30 5450 H 484.305 0.197611 5.65355 0
M  V30 5451 H 482.862 0.611396 6.48926 0
M  V30 5452 N 486.295 -0.989507 1.22664 0
M  V30 5453 C 487.205 -2.11449 1.01619 0
M  V30 5454 C 488.221 -1.73962 -0.036545 0
M  V30 5455 O 489.397 -2.00788 0.156924 0
M  V30 5456 C 486.462 -3.41465 0.600204 0
M  V30 5457 C 485.523 -3.93033 1.72695 0
M  V30 5458 C 484.756 -5.16844 1.33071 0
M  V30 5459 O 484.979 -5.7001 0.210975 0
M  V30 5460 O 483.913 -5.6225 2.14845 0
M  V30 5461 H 487.739 -2.32088 1.9588 0
M  V30 5462 H 485.324 -1.09823 1.01289 0
M  V30 5463 H 487.206 -4.19695 0.37873 0
M  V30 5464 H 485.881 -3.22178 -0.313511 0
M  V30 5465 H 484.788 -3.15961 2.00298 0
M  V30 5466 H 486.121 -4.16758 2.61865 0
M  V30 5467 N 487.773 -1.03688 -1.18687 0
M  V30 5468 C 488.736 -0.629115 -2.20397 0
M  V30 5469 C 489.736 0.311495 -1.57754 0
M  V30 5470 O 490.926 0.0974107 -1.73927 0
M  V30 5471 C 488.058 0.0782231 -3.4081 0
M  V30 5472 H 489.251 -1.52915 -2.57987 0
M  V30 5473 H 486.804 -0.828988 -1.32505 0
M  V30 5474 H 487.539 0.992233 -3.08748 0
M  V30 5475 H 487.324 -0.597776 -3.87517 0
M  V30 5476 H 488.814 0.350156 -4.16129 0
M  V30 5477 N 489.251 1.34841 -0.815825 0
M  V30 5478 C 490.662 1.80937 -0.46029 0
M  V30 5479 C 491.013 1.67685 1.01863 0
M  V30 5480 O 490.138 1.21277 1.79223 0
M  V30 5481 C 490.733 3.28509 -0.828708 0
M  V30 5482 C 489.292 3.72712 -0.525644 0
M  V30 5483 C 488.439 2.56676 -1.04941 0
M  V30 5484 H 491.39 1.22688 -1.00664 0
M  V30 5485 H 491.411 3.80279 -0.129757 0
M  V30 5486 H 490.923 3.38122 -1.90513 0
M  V30 5487 H 489.024 3.68642 0.541666 0
M  V30 5488 H 489.137 4.67119 -1.06474 0
M  V30 5489 H 487.501 2.50302 -0.471286 0
M  V30 5490 H 488.284 2.69063 -2.13214 0
M  V30 5491 N 490.729 0.570148 1.46925 0
M  V30 5492 C 491.639 -0.173061 2.33961 0
M  V30 5493 C 492.655 -0.898825 1.48987 0
M  V30 5494 O 493.831 -0.864825 1.81887 0
M  V30 5495 C 490.896 -1.18177 3.25937 0
M  V30 5496 C 489.957 -0.462041 4.26806 0
M  V30 5497 C 489.19 -1.4227 5.14388 0
M  V30 5498 O 489.413 -2.65842 5.04662 0
M  V30 5499 O 488.347 -0.940127 5.94513 0
M  V30 5500 H 492.173 0.541216 2.98839 0
M  V30 5501 H 489.758 0.330647 1.45695 0
M  V30 5502 H 491.64 -1.76372 3.82715 0
M  V30 5503 H 490.315 -1.87774 2.63671 0
M  V30 5504 H 489.222 0.161429 3.73752 0
M  V30 5505 H 490.555 0.192719 4.91823 0
M  V30 5506 N 492.207 -1.54576 0.307264 0
M  V30 5507 C 493.623 -1.59534 -0.0459251 0
M  V30 5508 C 493.823 -1.32414 -1.51884 0
M  V30 5509 O 492.879 -1.1006 -2.27251 0
M  V30 5510 C 494.192 -2.98566 0.357649 0
M  V30 5511 C 495.74 -3.11491 0.306937 0
M  V30 5512 C 496.215 -4.52842 0.685427 0
M  V30 5513 N 497.706 -4.58782 0.638203 0
M  V30 5514 C 498.441 -5.66238 0.903458 0
M  V30 5515 N 497.937 -6.81703 1.23501 0
M  V30 5516 N 499.73 -5.55937 0.830102 0
M  V30 5517 H 491.881 -1.70464 1.26712 0
M  V30 5518 H 494.144 -0.79647 0.514139 0
M  V30 5519 H 493.85 -3.23356 1.38325 0
M  V30 5520 H 493.724 -3.76117 -0.285565 0
M  V30 5521 H 496.111 -2.86446 -0.709424 0
M  V30 5522 H 496.192 -2.36081 0.984861 0
M  V30 5523 H 495.836 -4.78618 1.69963 0
M  V30 5524 H 495.766 -5.26598 -0.0146346 0
M  V30 5525 H 498.257 -3.75849 0.393138 0
M  V30 5526 H 498.57 -7.59582 1.42322 0
M  V30 5527 H 496.915 -6.8324 1.27311 0
M  V30 5528 H 500.106 -4.64608 0.570693 0
M  V30 5529 H 500.279 -6.39597 1.04019 0
M  V30 5530 N 493.685 -0.035106 -1.57561 0
M  V30 5531 C 494.648 0.929819 -2.09492 0
M  V30 5532 C 495.648 1.25026 -1.01119 0
M  V30 5533 O 496.838 1.18961 -1.27255 0
M  V30 5534 C 493.97 2.24457 -2.56577 0
M  V30 5535 H 495.163 0.479935 -2.96035 0
M  V30 5536 H 492.716 0.213033 -1.54841 0
M  V30 5537 H 493.451 2.74061 -1.73382 0
M  V30 5538 H 493.236 2.02508 -3.35757 0
M  V30 5539 H 494.726 2.93607 -2.96959 0
M  V30 5540 N 495.163 1.55791 0.238111 0
M  V30 5541 C 496.388 1.8244 0.986432 0
M  V30 5542 C 496.813 0.613314 1.7782 0
M  V30 5543 O 496.171 -0.437767 1.75935 0
M  V30 5544 C 496.219 3.06917 1.893 0
M  V30 5545 O 495.323 2.84449 2.98601 0
M  V30 5546 H 494.664 0.601975 0.280218 0
M  V30 5547 H 497.194 2.02987 0.256437 0
M  V30 5548 H 497.204 3.36583 2.30598 0
M  V30 5549 H 495.879 3.947 1.31091 0
M  V30 5550 H 494.456 2.65972 2.61368 0
M  V30 5551 N 496.642 -0.504142 1.49319 0
M  V30 5552 C 497.867 -1.28729 1.62615 0
M  V30 5553 C 498.292 -1.85752 0.296309 0
M  V30 5554 O 497.65 -1.65704 -0.735649 0
M  V30 5555 C 497.698 -2.39561 2.69524 0
M  V30 5556 O 496.802 -3.43324 2.28478 0
M  V30 5557 H 496.143 -0.380172 0.544395 0
M  V30 5558 H 498.673 -0.603872 1.95485 0
M  V30 5559 H 498.683 -2.8537 2.91595 0
M  V30 5560 H 497.358 -1.97423 3.66056 0
M  V30 5561 H 495.935 -3.03455 2.16725 0
M  V30 5562 N 498.12 -1.38341 -0.754957 0
M  V30 5563 C 499.366 -1.34672 -1.51628 0
M  V30 5564 C 499.699 0.0636036 -1.94096 0
M  V30 5565 O 498.974 1.0245 -1.6533 0
M  V30 5566 C 499.257 -2.30116 -2.76981 0
M  V30 5567 C 499.11 -3.80003 -2.4066 0
M  V30 5568 C 500.429 -2.23715 -3.78998 0
M  V30 5569 H 497.548 -0.490517 -0.550056 0
M  V30 5570 H 500.19 -1.69178 -0.864807 0
M  V30 5571 H 498.34 -2.00821 -3.3257 0
M  V30 5572 H 500.012 -4.19966 -1.90856 0
M  V30 5573 H 498.255 -3.97751 -1.73137 0
M  V30 5574 H 498.926 -4.42244 -3.30339 0
M  V30 5575 H 501.402 -2.49574 -3.32945 0
M  V30 5576 H 500.278 -2.9261 -4.64403 0
M  V30 5577 H 500.539 -1.23554 -4.24484 0
M  V30 5578 N 499.598 0.982988 -1.23187 0
M  V30 5579 C 500.828 1.75666 -1.08743 0
M  V30 5580 C 501.236 1.85662 0.364195 0
M  V30 5581 O 500.579 1.33317 1.26382 0
M  V30 5582 C 500.641 3.20144 -1.63549 0
M  V30 5583 C 500.305 3.33665 -3.12277 0
M  V30 5584 C 501.302 3.20194 -4.096 0
M  V30 5585 C 498.987 3.58397 -3.51933 0
M  V30 5586 C 500.981 3.31256 -5.44563 0
M  V30 5587 C 498.668 3.69098 -4.87042 0
M  V30 5588 C 499.666 3.55537 -5.83166 0
M  V30 5589 O 499.354 3.65864 -7.1582 0
M  V30 5590 H 499.086 0.558194 -0.381307 0
M  V30 5591 H 501.64 1.24387 -1.63454 0
M  V30 5592 H 499.87 3.72659 -1.03256 0
M  V30 5593 H 501.559 3.79262 -1.4462 0
M  V30 5594 H 502.325 3.00987 -3.80305 0
M  V30 5595 H 498.204 3.68025 -2.77631 0
M  V30 5596 H 501.748 3.20588 -6.19572 0
M  V30 5597 H 497.645 3.87814 -5.16014 0
M  V30 5598 H 498.413 3.82675 -7.23534 0
M  V30 5599 N 501.076 1.04316 1.18135 0
M  V30 5600 C 502.304 0.768117 1.92113 0
M  V30 5601 C 502.719 -0.675057 1.76319 0
M  V30 5602 O 502.076 -1.46038 1.09449 0
M  V30 5603 C 502.127 1.12808 3.43448 0
M  V30 5604 O 501.848 2.5146 3.58747 0
M  V30 5605 C 503.349 0.8779 4.3452 0
M  V30 5606 H 500.569 0.279937 0.609817 0
M  V30 5607 H 503.113 1.39149 1.49859 0
M  V30 5608 H 501.268 0.549623 3.83481 0
M  V30 5609 H 501.682 2.65313 4.52448 0
M  V30 5610 H 503.156 1.17959 5.39249 0
M  V30 5611 H 503.633 -0.187239 4.38801 0
M  V30 5612 H 504.239 1.43977 4.00188 0
M  V30 5613 N 502.554 -1.34406 0.822964 0
M  V30 5614 C 503.97 -1.51275 0.508727 0
M  V30 5615 C 504.17 -1.76776 -0.967083 0
M  V30 5616 O 503.226 -1.81871 -1.75155 0
M  V30 5617 C 504.539 -2.67765 1.36829 0
M  V30 5618 C 506.087 -2.81647 1.36542 0
M  V30 5619 C 506.562 -4.01181 2.20947 0
M  V30 5620 N 508.053 -4.08388 2.18571 0
M  V30 5621 C 508.788 -5.00036 2.80627 0
M  V30 5622 N 508.284 -5.96906 3.51674 0
M  V30 5623 N 510.077 -4.92908 2.70181 0
M  V30 5624 H 502.228 -1.16113 1.77852 0
M  V30 5625 H 504.491 -0.56947 0.757897 0
M  V30 5626 H 504.197 -2.55551 2.41633 0
M  V30 5627 H 504.071 -3.62779 1.03303 0
M  V30 5628 H 506.458 -2.93303 0.325163 0
M  V30 5629 H 506.539 -1.87443 1.74066 0
M  V30 5630 H 506.183 -3.90286 3.25022 0
M  V30 5631 H 506.113 -4.94599 1.80774 0
M  V30 5632 H 508.604 -3.39051 1.66891 0
M  V30 5633 H 508.917 -6.63468 3.96271 0
M  V30 5634 H 507.262 -5.9703 3.5578 0
M  V30 5635 H 510.453 -4.1619 2.14251 0
M  V30 5636 H 510.626 -5.64137 3.18831 0
M  V30 5637 N 504.032 -0.577932 -1.46621 0
M  V30 5638 C 505.257 -0.0652536 -2.07297 0
M  V30 5639 C 505.682 1.22828 -1.4246 0
M  V30 5640 O 505.04 1.74075 -0.506718 0
M  V30 5641 C 505.088 0.0920589 -3.60482 0
M  V30 5642 O 504.192 1.14972 -3.96049 0
M  V30 5643 H 503.533 -0.06065 -0.661224 0
M  V30 5644 H 506.063 -0.799515 -1.88332 0
M  V30 5645 H 506.073 0.299741 -4.06897 0
M  V30 5646 H 504.748 -0.852612 -4.07067 0
M  V30 5647 H 503.325 0.920879 -3.61351 0
M  V30 5648 N 505.51 1.54411 -0.315457 0
M  V30 5649 C 506.738 2.04833 0.291738 0
M  V30 5650 C 507.153 1.19203 1.46411 0
M  V30 5651 O 506.51 0.220867 1.81159 0
M  V30 5652 C 506.561 3.53969 0.73404 0
M  V30 5653 O 506.282 4.36346 -0.391682 0
M  V30 5654 C 507.783 4.2045 1.40489 0
M  V30 5655 H 505.003 0.668195 0.0612947 0
M  V30 5656 H 507.547 1.99276 -0.45929 0
M  V30 5657 H 505.702 3.5984 1.43506 0
M  V30 5658 H 506.116 5.24481 -0.0447088 0
M  V30 5659 H 507.59 5.26278 1.66539 0
M  V30 5660 H 508.067 3.71067 2.3496 0
M  V30 5661 H 508.673 4.18694 0.746662 0
M  V30 5662 N 506.988 0.0434614 1.5754 0
M  V30 5663 C 508.236 -0.630786 1.92004 0
M  V30 5664 C 508.557 -1.71836 0.921807 0
M  V30 5665 O 507.827 -1.9587 -0.034522 0
M  V30 5666 H 506.407 -0.235988 0.708745 0
M  V30 5667 H 509.069 0.0946462 1.9467 0
M  V30 5668 H 508.165 -1.07434 2.93026 0
M  V30 5669 N 508.466 -1.55915 -0.229846 0
M  V30 5670 C 509.376 -1.94891 -1.30593 0
M  V30 5671 C 510.392 -0.851604 -1.51736 0
M  V30 5672 O 511.568 -1.15447 -1.65027 0
M  V30 5673 C 508.633 -2.25052 -2.63728 0
M  V30 5674 C 507.694 -3.48306 -2.5096 0
M  V30 5675 C 506.927 -3.77019 -3.77747 0
M  V30 5676 O 507.15 -3.07534 -4.80395 0
M  V30 5677 O 506.084 -4.70523 -3.75356 0
M  V30 5678 H 509.91 -2.86581 -1.00525 0
M  V30 5679 H 507.495 -1.43017 -0.432025 0
M  V30 5680 H 509.377 -2.45682 -3.42372 0
M  V30 5681 H 508.052 -1.36538 -2.93495 0
M  V30 5682 H 506.959 -3.32964 -1.70546 0
M  V30 5683 H 508.292 -4.37177 -2.26136 0
M  V30 5684 N 509.944 0.496216 -1.49584 0
M  V30 5685 C 510.876 1.61404 -1.62731 0
M  V30 5686 C 511.889 1.54613 -0.50978 0
M  V30 5687 O 513.078 1.60458 -0.782017 0
M  V30 5688 C 510.178 3.00212 -1.57245 0
M  V30 5689 C 509.351 3.32138 -2.84611 0
M  V30 5690 C 508.41 4.5038 -2.72112 0
M  V30 5691 O 507.436 4.51926 -3.46051 0
M  V30 5692 N 508.638 5.50575 -1.83977 0
M  V30 5693 H 511.403 1.50552 -2.59141 0
M  V30 5694 H 508.964 0.684182 -1.46733 0
M  V30 5695 H 510.956 3.77241 -1.4653 0
M  V30 5696 H 509.526 3.04964 -0.686729 0
M  V30 5697 H 508.746 2.4396 -3.09641 0
M  V30 5698 H 510.034 3.50268 -3.69039 0
M  V30 5699 H 509.432 5.52128 -1.23171 0
M  V30 5700 H 507.989 6.26687 -1.79182 0
M  V30 5701 N 511.423 1.38739 0.74761 0
M  V30 5702 C 512.333 1.38696 1.89211 0
M  V30 5703 C 513.349 0.283303 1.71678 0
M  V30 5704 O 514.525 0.522713 1.94498 0
M  V30 5705 C 511.59 1.21662 3.24653 0
M  V30 5706 C 510.651 2.41886 3.54669 0
M  V30 5707 C 509.884 2.25655 4.83648 0
M  V30 5708 O 510.107 1.25339 5.56459 0
M  V30 5709 O 509.041 3.14372 5.13277 0
M  V30 5710 H 512.867 2.35143 1.92202 0
M  V30 5711 H 510.452 1.19721 0.893708 0
M  V30 5712 H 512.334 1.14246 4.05618 0
M  V30 5713 H 511.009 0.283024 3.2246 0
M  V30 5714 H 509.916 2.54877 2.73841 0
M  V30 5715 H 511.249 3.33895 3.61628 0
M  V30 5716 N 512.901 -0.976442 1.23707 0
M  V30 5717 C 514.15 -1.71254 1.06559 0
M  V30 5718 C 514.463 -1.91528 -0.397024 0
M  V30 5719 O 515.669 -2.62625 -0.688518 0
M  V30 5720 C 514.125 -3.08207 1.8584 0
M  V30 5721 C 513.733 -2.95806 3.36456 0
M  V30 5722 C 515.477 -3.85749 1.77194 0
M  V30 5723 C 513.384 -4.28015 4.08114 0
M  V30 5724 H 512.314 -0.642171 0.395136 0
M  V30 5725 H 514.965 -1.08877 1.4771 0
M  V30 5726 H 513.347 -3.71363 1.37498 0
M  V30 5727 H 514.521 -2.41716 3.92314 0
M  V30 5728 H 512.836 -2.31736 3.45959 0
M  V30 5729 H 515.433 -4.83633 2.28041 0
M  V30 5730 H 515.776 -4.09752 0.735477 0
M  V30 5731 H 516.309 -3.29303 2.23169 0
M  V30 5732 H 513.048 -4.09208 5.12083 0
M  V30 5733 H 512.568 -4.81955 3.57043 0
M  V30 5734 H 514.247 -4.96681 4.14629 0
M  V30 5735 N 514.379 -1.04941 -1.1758 0
M  V30 5736 C 515.604 -0.778253 -1.92245 0
M  V30 5737 C 516.029 0.659707 -1.76152 0
M  V30 5738 O 515.387 1.45803 -1.07755 0
M  V30 5739 C 515.435 -1.16051 -3.41416 0
M  V30 5740 O 514.539 -0.291153 -4.11371 0
M  V30 5741 H 513.88 -0.285619 -0.599431 0
M  V30 5742 H 516.41 -1.40159 -1.49052 0
M  V30 5743 H 516.42 -1.12619 -3.92149 0
M  V30 5744 H 515.095 -2.208 -3.52449 0
M  V30 5745 H 513.672 -0.385851 -3.70898 0
M  V30 5746 N 515.857 1.33968 -0.830081 0
M  V30 5747 C 517.103 1.98357 -0.422191 0
M  V30 5748 C 517.436 1.65633 1.01387 0
M  V30 5749 O 516.711 0.931648 1.70735 0
M  V30 5750 C 516.994 3.54492 -0.633043 0
M  V30 5751 C 516.847 3.96934 -2.11574 0
M  V30 5752 C 518.166 4.40039 -0.0735584 0
M  V30 5753 H 515.285 0.720544 -0.154871 0
M  V30 5754 H 517.927 1.58749 -1.04397 0
M  V30 5755 H 516.077 3.88361 -0.103775 0
M  V30 5756 H 517.749 3.73363 -2.7092 0
M  V30 5757 H 515.992 3.46984 -2.60354 0
M  V30 5758 H 516.663 5.05651 -2.21406 0
M  V30 5759 H 519.139 4.12764 -0.52585 0
M  V30 5760 H 518.015 5.48327 -0.250841 0
M  V30 5761 H 518.276 4.30124 1.02202 0
M  V30 5762 N 517.335 0.585699 1.46312 0
M  V30 5763 C 518.583 0.072278 2.01971 0
M  V30 5764 C 518.904 -1.29345 1.45928 0
M  V30 5765 O 518.174 -1.84973 0.645109 0
M  V30 5766 H 516.754 0.023729 0.746623 0
M  V30 5767 H 519.416 0.762155 1.7938 0
M  V30 5768 H 518.512 0.00552767 3.121 0
M  V30 5769 N 518.813 -1.54241 0.323641 0
M  V30 5770 C 519.743 -2.27289 -0.534993 0
M  V30 5771 C 520.724 -1.28087 -1.11927 0
M  V30 5772 O 521.909 -1.56899 -1.14439 0
M  V30 5773 C 519.039 -3.03075 -1.69596 0
M  V30 5774 C 517.993 -4.09614 -1.24098 0
M  V30 5775 C 517.319 -4.73242 -2.4889 0
M  V30 5776 C 518.619 -5.21087 -0.355789 0
M  V30 5777 H 520.313 -2.99308 0.0743257 0
M  V30 5778 H 517.859 -1.43952 0.0371874 0
M  V30 5779 H 519.812 -3.52907 -2.30293 0
M  V30 5780 H 518.536 -2.28673 -2.33187 0
M  V30 5781 H 517.195 -3.60666 -0.656945 0
M  V30 5782 H 516.843 -3.95455 -3.10845 0
M  V30 5783 H 516.543 -5.45209 -2.19138 0
M  V30 5784 H 518.067 -5.25848 -3.10348 0
M  V30 5785 H 519.481 -5.66675 -0.869042 0
M  V30 5786 H 517.878 -5.9991 -0.151045 0
M  V30 5787 H 518.948 -4.81005 0.613339 0
M  V30 5788 O 520.33 -0.191128 -1.60365 0
M  V30 5789 H 521.021 0.395023 -1.89629 0
M  V30 END ATOM
M  V30 BEGIN BOND
M  V30 END BOND
M  V30 END CTAB
M  END
$$$$
