drugbank_target|P51692 Signal transducer and activator of transcription 5B (DB01254)
 OpenBabel12092119423D

  0  0  0     0  0            999 V3000
M  V30 BEGIN CTAB
M  V30 COUNTS 12573 12711 0 0 0
M  V30 BEGIN ATOM
M  V30 1 H -0.908 1.98254 -0.117106 0
M  V30 2 N 0 1.576 0 0
M  V30 3 C 0.933 2.03868 1.02534 0
M  V30 4 C 1.911 0.928543 1.3348 0
M  V30 5 O 3.095 1.19667 1.45644 0
M  V30 6 C 0.222 2.43627 2.35294 0
M  V30 7 C -0.732 3.65373 2.2001 0
M  V30 8 S 0.101 5.13292 1.52614 0
M  V30 9 C 1.257 5.56322 2.86805 0
M  V30 10 H 1.49 2.90518 0.631377 0
M  V30 11 H -0.977 1.52953 0.210867 0
M  V30 12 H 0.981 2.67203 3.11629 0
M  V30 13 H -0.358 1.57376 2.7183 0
M  V30 14 H -1.165 3.90944 3.18086 0
M  V30 15 H -1.563 3.418 1.51819 0
M  V30 16 H 0.729 5.58782 3.83104 0
M  V30 17 H 1.672 6.56266 2.65933 0
M  V30 18 H 2.08 4.83886 2.90714 0
M  V30 19 N 1.4781 -0.272755 1.55222 0
M  V30 20 C 2.4411 -1.32041 1.87344 0
M  V30 21 C 3.4411 -1.42342 0.74803 0
M  V30 22 O 4.6311 -1.41488 1.0162 0
M  V30 23 C 1.7631 -2.70173 2.07893 0
M  V30 24 H 2.9561 -1.04789 2.80997 0
M  V30 25 H 0.5091 -0.51083 1.47717 0
M  V30 26 H 1.2441 -3.02605 1.16622 0
M  V30 27 H 1.0291 -2.64082 2.89833 0
M  V30 28 H 2.5191 -3.45869 2.34017 0
M  V30 29 N 2.9562 -1.48159 -0.537278 0
M  V30 30 C 4.2022 -1.56035 -1.29541 0
M  V30 31 C 4.5352 -0.230377 -1.92829 0
M  V30 32 O 3.8102 0.762952 -1.78911 0
M  V30 33 C 4.0932 -2.69323 -2.39034 0
M  V30 34 C 3.9462 -4.12002 -1.80485 0
M  V30 35 C 5.2652 -2.78408 -3.40847 0
M  V30 36 H 2.3842 -0.567992 -0.469632 0
M  V30 37 H 5.0262 -1.80302 -0.599277 0
M  V30 38 H 3.1762 -2.48763 -2.98412 0
M  V30 39 H 4.8482 -4.43981 -1.25215 0
M  V30 40 H 3.0912 -4.19344 -1.11055 0
M  V30 41 H 3.7622 -4.87077 -2.59731 0
M  V30 42 H 6.2382 -2.97012 -2.91416 0
M  V30 43 H 5.1142 -3.59416 -4.14863 0
M  V30 44 H 5.3752 -1.86269 -4.00944 0
M  V30 45 N 4.4343 0.785586 -1.36625 0
M  V30 46 C 5.6803 1.5452 -1.32269 0
M  V30 47 C 6.0353 1.92159 0.0962266 0
M  V30 48 O 5.3283 1.60158 1.05167 0
M  V30 49 C 5.5223 2.83007 -2.1827 0
M  V30 50 C 5.3513 2.57925 -3.68382 0
M  V30 51 C 4.1213 2.52752 -4.37544 0
M  V30 52 C 6.3193 2.26861 -4.61561 0
M  V30 53 N 4.3013 2.19608 -5.73276 0
M  V30 54 C 5.6723 2.03738 -5.85569 0
M  V30 55 C 7.7273 2.129 -4.50087 0
M  V30 56 C 6.4303 1.68065 -6.9939 0
M  V30 57 C 8.4563 1.78626 -5.63779 0
M  V30 58 C 7.8183 1.56353 -6.86828 0
M  V30 59 H 3.9173 0.566301 -0.539283 0
M  V30 60 H 6.5013 0.917736 -1.71714 0
M  V30 61 H 4.6723 3.43614 -1.81063 0
M  V30 62 H 6.4043 3.48775 -2.05275 0
M  V30 63 H 3.1593 2.6813 -3.90389 0
M  V30 64 H 3.5833 2.05771 -6.44971 0
M  V30 65 H 8.2253 2.28808 -3.55537 0
M  V30 66 H 5.9433 1.50895 -7.93887 0
M  V30 67 H 9.5293 1.68502 -5.56865 0
M  V30 68 H 8.4093 1.30223 -7.73312 0
M  V30 69 N 5.9124 1.20967 1.01018 0
M  V30 70 C 7.1614 1.01796 1.74128 0
M  V30 71 C 7.4744 -0.449691 1.90361 0
M  V30 72 O 8.6804 -0.76068 2.60626 0
M  V30 73 C 7.1364 1.7727 3.13215 0
M  V30 74 C 6.7444 3.28171 3.04972 0
M  V30 75 C 8.4884 1.66489 3.90489 0
M  V30 76 C 6.3954 3.96156 4.39107 0
M  V30 77 H 5.3254 0.377276 0.652824 0
M  V30 78 H 7.9764 1.44651 1.12909 0
M  V30 79 H 6.3584 1.27205 3.75013 0
M  V30 80 H 7.5324 3.85499 2.52443 0
M  V30 81 H 5.8474 3.39437 2.41188 0
M  V30 82 H 8.4444 2.14617 4.89738 0
M  V30 83 H 8.7874 0.6222 4.11624 0
M  V30 84 H 9.3204 2.14003 3.35332 0
M  V30 85 H 6.0594 5.00604 4.23174 0
M  V30 86 H 5.5794 3.43617 4.91617 0
M  V30 87 H 7.2584 4.00774 5.07926 0
M  V30 88 N 7.3905 -1.2043 1.01659 0
M  V30 89 C 8.3225 -2.22626 0.544988 0
M  V30 90 C 9.3355 -1.58479 -0.372609 0
M  V30 91 O 10.5245 -1.77679 -0.170958 0
M  V30 92 C 7.6245 -3.38141 -0.22663 0
M  V30 93 C 6.7975 -4.31877 0.692876 0
M  V30 94 C 5.8565 -5.26191 -0.0311616 0
M  V30 95 O 4.8825 -5.6612 0.591343 0
M  V30 96 N 6.0845 -5.65618 -1.30601 0
M  V30 97 H 8.8495 -2.63716 1.42388 0
M  V30 98 H 6.4105 -1.34971 0.894116 0
M  V30 99 H 8.4025 -3.98239 -0.72024 0
M  V30 100 H 6.9725 -2.95943 -1.00681 0
M  V30 101 H 6.1925 -3.69746 1.36679 0
M  V30 102 H 7.4805 -4.91426 1.31824 0
M  V30 103 H 6.8785 -5.3519 -1.83269 0
M  V30 104 H 5.4355 -6.28025 -1.74435 0
M  V30 105 N 8.8686 -0.792821 -1.36206 0
M  V30 106 C 9.8316 -0.199459 -2.2833 0
M  V30 107 C 10.8316 0.605189 -1.48977 0
M  V30 108 O 12.0216 0.425685 -1.68919 0
M  V30 109 C 9.1536 0.723523 -3.33134 0
M  V30 110 H 10.3466 -1.01181 -2.82316 0
M  V30 111 H 7.8996 -0.562485 -1.45828 0
M  V30 112 H 8.6346 1.56008 -2.84309 0
M  V30 113 H 8.4196 0.148436 -3.91819 0
M  V30 114 H 9.9096 1.13344 -4.01924 0
M  V30 115 N 10.3467 1.47872 -0.545128 0
M  V30 116 C 11.2787 2.27869 0.246621 0
M  V30 117 C 12.2917 1.36282 0.890561 0
M  V30 118 O 13.4807 1.61207 0.766449 0
M  V30 119 C 10.5807 3.10159 1.36582 0
M  V30 120 C 9.7537 4.29627 0.820954 0
M  V30 121 C 8.8127 4.93607 1.82314 0
M  V30 122 O 7.8387 5.52366 1.37406 0
M  V30 123 N 9.0407 4.87211 3.15603 0
M  V30 124 H 11.8057 2.96459 -0.439539 0
M  V30 125 H 9.3667 1.57367 -0.380421 0
M  V30 126 H 11.3587 3.49829 2.03474 0
M  V30 127 H 9.9287 2.43891 1.9554 0
M  V30 128 H 9.1487 3.94192 -0.0244032 0
M  V30 129 H 10.4367 5.06928 0.436063 0
M  V30 130 H 9.8347 4.40651 3.54744 0
M  V30 131 H 8.3917 5.30937 3.78087 0
M  V30 132 N 11.8248 0.280983 1.55075 0
M  V30 133 C 12.7568 -0.637268 2.20163 0
M  V30 134 C 13.7698 -1.11298 1.18813 0
M  V30 135 O 14.9588 -1.03388 1.4551 0
M  V30 136 C 12.0588 -1.88199 2.81841 0
M  V30 137 C 11.2318 -1.55211 4.08936 0
M  V30 138 C 10.2908 -2.64991 4.54606 0
M  V30 139 O 9.3168 -2.30929 5.2025 0
M  V30 140 N 10.5188 -3.95161 4.25238 0
M  V30 141 H 13.2838 -0.0801694 2.99593 0
M  V30 142 H 10.8448 0.102329 1.61576 0
M  V30 143 H 12.8368 -2.60948 3.09335 0
M  V30 144 H 11.4068 -2.34799 2.06369 0
M  V30 145 H 10.6268 -0.658185 3.88666 0
M  V30 146 H 11.9148 -1.30681 4.91732 0
M  V30 147 H 11.3128 -4.25653 3.72607 0
M  V30 148 H 9.8698 -4.6427 4.5749 0
M  V30 149 N 13.3029 -1.57598 0.00835791 0
M  V30 150 C 14.2329 -2.1198 -0.979113 0
M  V30 151 C 15.2139 -1.03091 -1.35301 0
M  V30 152 O 16.3989 -1.30818 -1.43528 0
M  V30 153 C 13.5289 -2.62995 -2.26828 0
M  V30 154 C 12.4829 -3.76485 -2.03576 0
M  V30 155 C 11.8089 -4.13846 -3.38579 0
M  V30 156 C 13.1089 -5.0342 -1.39161 0
M  V30 157 H 14.8029 -2.94738 -0.526281 0
M  V30 158 H 12.3489 -1.41783 -0.251704 0
M  V30 159 H 14.3019 -2.99669 -2.96271 0
M  V30 160 H 13.0259 -1.7737 -2.7424 0
M  V30 161 H 11.6849 -3.40217 -1.36557 0
M  V30 162 H 11.3329 -3.25232 -3.83709 0
M  V30 163 H 11.0329 -4.90312 -3.23834 0
M  V30 164 H 12.5569 -4.53086 -4.09323 0
M  V30 165 H 13.9709 -5.37812 -1.98573 0
M  V30 166 H 12.3679 -5.84746 -1.34878 0
M  V30 167 H 13.4379 -4.83548 -0.361868 0
M  V30 168 N 14.781 0.264519 -1.55364 0
M  V30 169 C 15.713 1.34965 -1.85248 0
M  V30 170 C 16.726 1.45136 -0.737525 0
M  V30 171 O 17.915 1.46801 -1.01547 0
M  V30 172 C 15.015 2.73008 -2.00797 0
M  V30 173 C 14.188 2.85324 -3.31525 0
M  V30 174 C 13.247 4.04097 -3.37034 0
M  V30 175 O 12.273 3.94455 -4.10358 0
M  V30 176 N 13.475 5.16458 -2.65049 0
M  V30 177 H 16.24 1.09672 -2.78913 0
M  V30 178 H 13.801 0.454635 -1.55386 0
M  V30 179 H 15.793 3.50772 -2.01844 0
M  V30 180 H 14.363 2.91087 -1.1396 0
M  V30 181 H 13.583 1.94377 -3.42945 0
M  V30 182 H 14.871 2.9049 -4.17724 0
M  V30 183 H 14.269 5.27181 -2.05175 0
M  V30 184 H 12.826 5.92422 -2.71809 0
M  V30 185 N 16.2591 1.48442 0.529413 0
M  V30 186 C 17.5071 1.56179 1.28267 0
M  V30 187 C 17.8281 0.237721 1.93546 0
M  V30 188 O 17.0981 -0.740779 1.81354 0
M  V30 189 H 15.6781 0.575367 0.476405 0
M  V30 190 H 18.3401 1.84909 0.61602 0
M  V30 191 H 17.4361 2.34312 2.06165 0
M  V30 192 N 17.7372 -0.778329 1.37039 0
M  V30 193 C 18.6472 -1.92253 1.34446 0
M  V30 194 C 19.6632 -1.72267 0.244991 0
M  V30 195 O 20.8392 -1.95615 0.479258 0
M  V30 196 C 17.9042 -3.27282 1.144 0
M  V30 197 C 16.9652 -3.59969 2.33925 0
M  V30 198 C 16.1982 -4.88555 2.14825 0
M  V30 199 O 16.4212 -5.59113 1.12912 0
M  V30 200 O 15.3552 -5.20153 3.02861 0
M  V30 201 H 19.1812 -1.97392 2.30803 0
M  V30 202 H 16.7662 -0.920154 1.17701 0
M  V30 203 H 18.6482 -4.08062 1.05182 0
M  V30 204 H 17.3232 -3.23011 0.211124 0
M  V30 205 H 16.2302 -2.7945 2.48714 0
M  V30 206 H 17.5632 -3.68976 3.25757 0
M  V30 207 N 19.2153 -1.21501 -1.00376 0
M  V30 208 C 20.1783 -0.976927 -2.07337 0
M  V30 209 C 21.1783 0.0525322 -1.60714 0
M  V30 210 O 22.3683 -0.184869 -1.73216 0
M  V30 211 C 19.5003 -0.473423 -3.37597 0
M  V30 212 H 20.6933 -1.92587 -2.29892 0
M  V30 213 H 18.2463 -1.03217 -1.17371 0
M  V30 214 H 18.9813 0.480379 -3.20722 0
M  V30 215 H 18.7663 -1.216 -3.72768 0
M  V30 216 H 20.2563 -0.32675 -4.1632 0
M  V30 217 N 20.6934 1.19889 -1.02296 0
M  V30 218 C 21.6234 2.25141 -0.619174 0
M  V30 219 C 22.6044 1.66051 0.368915 0
M  V30 220 O 23.7894 1.92546 0.252941 0
M  V30 221 C 20.9194 3.4728 0.0368783 0
M  V30 222 C 19.8734 4.19005 -0.872865 0
M  V30 223 C 19.1994 5.34637 -0.0822402 0
M  V30 224 C 20.4994 4.74452 -2.18387 0
M  V30 225 H 22.1934 2.59171 -1.49903 0
M  V30 226 H 19.7394 1.24579 -0.722222 0
M  V30 227 H 21.6924 4.20098 0.330958 0
M  V30 228 H 20.4164 3.12433 0.95149 0
M  V30 229 H 19.0754 3.48061 -1.15105 0
M  V30 230 H 18.7234 4.96034 0.83422 0
M  V30 231 H 18.4234 5.83557 -0.688149 0
M  V30 232 H 19.9474 6.10255 0.205238 0
M  V30 233 H 21.3614 5.39055 -1.95172 0
M  V30 234 H 19.7584 5.33834 -2.74119 0
M  V30 235 H 20.8284 3.92844 -2.84257 0
M  V30 236 N 22.1715 0.800033 1.35784 0
M  V30 237 C 23.1215 0.178654 2.27299 0
M  V30 238 C 24.1055 -0.643667 1.47464 0
M  V30 239 O 25.2975 -0.502 1.69732 0
M  V30 240 C 22.4265 -0.677194 3.36555 0
M  V30 241 C 21.5125 0.154497 4.23818 0
M  V30 242 N 21.9035 1.21427 4.91008 0
M  V30 243 C 20.2015 -0.0649462 4.45953 0
M  V30 244 C 20.9025 1.72147 5.55644 0
M  V30 245 N 19.8785 1.02897 5.33773 0
M  V30 246 H 23.6805 0.989637 2.76737 0
M  V30 247 H 21.1945 0.64054 1.49234 0
M  V30 248 H 23.1915 -1.13835 4.01058 0
M  V30 249 H 21.8515 -1.4866 2.8867 0
M  V30 250 H 22.8625 1.59684 4.92668 0
M  V30 251 H 19.5395 -0.844016 4.0888 0
M  V30 252 H 20.9295 2.60683 6.19269 0
M  V30 253 N 23.6496 -1.47581 0.552962 0
M  V30 254 C 24.5816 -2.27997 -0.234533 0
M  V30 255 C 25.5946 -1.36753 -0.883321 0
M  V30 256 O 26.7836 -1.61612 -0.757889 0
M  V30 257 C 23.8836 -3.10879 -1.34935 0
M  V30 258 C 23.0566 -4.30056 -0.798158 0
M  V30 259 C 22.1156 -4.94567 -1.79694 0
M  V30 260 O 21.1416 -5.53087 -1.34474 0
M  V30 261 N 22.3436 -4.88878 -3.13015 0
M  V30 262 H 25.1086 -2.96222 0.455255 0
M  V30 263 H 22.6696 -1.57163 0.388761 0
M  V30 264 H 24.6616 -3.50903 -2.01616 0
M  V30 265 H 23.2316 -2.44924 -1.94244 0
M  V30 266 H 22.4516 -3.94174 0.0453079 0
M  V30 267 H 23.7396 -5.07152 -0.409173 0
M  V30 268 H 23.1376 -4.42526 -3.52402 0
M  V30 269 H 21.6946 -5.32934 -3.75266 0
M  V30 270 N 25.1277 -0.289203 -1.54924 0
M  V30 271 C 26.0607 0.633823 -2.19221 0
M  V30 272 C 27.0387 1.14174 -1.15772 0
M  V30 273 O 28.2227 1.21211 -1.44361 0
M  V30 274 C 25.3497 1.86592 -2.82668 0
M  V30 275 C 24.3957 1.49227 -3.99542 0
M  V30 276 S 25.2287 0.558312 -5.32582 0
M  V30 277 C 26.3847 1.79847 -5.99505 0
M  V30 278 H 26.6177 0.0875416 -2.97171 0
M  V30 279 H 24.1507 -0.0733899 -1.54225 0
M  V30 280 H 26.1087 2.57305 -3.19851 0
M  V30 281 H 24.7697 2.38335 -2.04585 0
M  V30 282 H 23.9627 2.40945 -4.42676 0
M  V30 283 H 23.5647 0.865193 -3.63855 0
M  V30 284 H 25.8567 2.7406 -6.19595 0
M  V30 285 H 26.7997 1.4099 -6.93922 0
M  V30 286 H 27.2077 1.96982 -5.29016 0
M  V30 287 N 26.6058 1.57591 -0.0167156 0
M  V30 288 C 27.5378 2.06343 0.997753 0
M  V30 289 C 28.5508 0.984469 1.29661 0
M  V30 290 O 29.7398 1.26093 1.26344 0
M  V30 291 C 26.8398 2.46255 2.32834 0
M  V30 292 C 26.0128 3.77083 2.21646 0
M  V30 293 C 25.0718 4.0368 3.37534 0
M  V30 294 O 24.0978 4.7411 3.14973 0
M  V30 295 N 25.2998 3.52881 4.60929 0
M  V30 296 H 28.0648 2.93997 0.581875 0
M  V30 297 H 25.6258 1.61002 0.170316 0
M  V30 298 H 27.6178 2.61149 3.09166 0
M  V30 299 H 26.1878 1.64032 2.66106 0
M  V30 300 H 25.4078 3.72106 1.30119 0
M  V30 301 H 26.6958 4.62822 2.11361 0
M  V30 302 H 26.0938 2.95878 4.82154 0
M  V30 303 H 24.6508 3.73076 5.34469 0
M  V30 304 N 28.0839 -0.256276 1.55502 0
M  V30 305 C 29.0469 -1.30047 1.88734 0
M  V30 306 C 30.0469 -1.4154 0.763086 0
M  V30 307 O 31.2369 -1.40403 1.03115 0
M  V30 308 C 28.3689 -2.67953 2.10747 0
M  V30 309 H 29.5619 -1.01802 2.82093 0
M  V30 310 H 27.1149 -0.495134 1.4825 0
M  V30 311 H 27.8499 -3.01351 1.19825 0
M  V30 312 H 27.6349 -2.60993 2.92617 0
M  V30 313 H 29.1249 -3.43368 2.37673 0
M  V30 314 N 29.562 -1.4872 -0.521534 0
M  V30 315 C 30.492 -1.66771 -1.63431 0
M  V30 316 C 31.473 -0.516499 -1.62069 0
M  V30 317 O 32.658 -0.750013 -1.79132 0
M  V30 318 C 29.788 -1.71515 -3.01993 0
M  V30 319 C 28.742 -2.86222 -3.18216 0
M  V30 320 C 28.068 -2.76061 -4.57924 0
M  V30 321 C 29.368 -4.27419 -3.00184 0
M  V30 322 H 31.062 -2.59932 -1.48579 0
M  V30 323 H 28.608 -1.25089 -0.713358 0
M  V30 324 H 30.561 -1.82731 -3.7972 0
M  V30 325 H 29.285 -0.749393 -3.17886 0
M  V30 326 H 27.944 -2.74575 -2.42908 0
M  V30 327 H 27.592 -1.77437 -4.70665 0
M  V30 328 H 27.292 -3.53037 -4.69722 0
M  V30 329 H 28.816 -2.89256 -5.37739 0
M  V30 330 H 30.23 -4.39855 -3.67697 0
M  V30 331 H 28.627 -5.05458 -3.2347 0
M  V30 332 H 29.697 -4.43293 -1.96518 0
M  V30 333 N 31.0401 0.771051 -1.3745 0
M  V30 334 C 32.2701 1.55789 -1.35696 0
M  V30 335 C 32.6781 1.89107 0.0594523 0
M  V30 336 O 32.0211 1.51984 1.03183 0
M  V30 337 C 32.0831 2.89515 -2.13123 0
M  V30 338 C 31.7471 2.78829 -3.62082 0
M  V30 339 C 32.7441 2.49812 -4.5595 0
M  V30 340 C 30.4291 2.9683 -4.05213 0
M  V30 341 C 32.4231 2.38923 -5.90927 0
M  V30 342 C 30.1101 2.85562 -5.40276 0
M  V30 343 C 31.1081 2.56649 -6.32946 0
M  V30 344 O 30.7961 2.45408 -7.65526 0
M  V30 345 H 30.5281 0.489257 -0.466481 0
M  V30 346 H 33.0821 0.963446 -1.81403 0
M  V30 347 H 31.3121 3.51081 -1.62107 0
M  V30 348 H 33.0011 3.50915 -2.03994 0
M  V30 349 H 33.7671 2.3559 -4.23937 0
M  V30 350 H 29.6461 3.18335 -3.33442 0
M  V30 351 H 33.1901 2.16277 -6.63227 0
M  V30 352 H 29.0871 2.99351 -5.71891 0
M  V30 353 H 29.8551 2.60753 -7.75855 0
M  V30 354 N 32.5182 1.22032 0.997298 0
M  V30 355 C 33.7662 1.04016 1.73278 0
M  V30 356 C 34.0872 -0.426255 1.90284 0
M  V30 357 O 33.3572 -1.30694 1.45931 0
M  V30 358 H 31.9372 0.381897 0.642 0
M  V30 359 H 34.5992 1.5347 1.20137 0
M  V30 360 H 33.6952 1.51441 2.72896 0
M  V30 361 N 33.9963 -1.19345 1.0293 0
M  V30 362 C 34.9283 -2.22036 0.56857 0
M  V30 363 C 35.9413 -1.58865 -0.355779 0
M  V30 364 O 37.1303 -1.77851 -0.152103 0
M  V30 365 C 34.2303 -3.38363 -0.190752 0
M  V30 366 C 33.4033 -4.31118 0.738643 0
M  V30 367 C 32.4623 -5.26194 0.0246497 0
M  V30 368 O 31.4883 -5.65461 0.651354 0
M  V30 369 N 32.6903 -5.66971 -1.24594 0
M  V30 370 H 35.4553 -2.6219 1.45177 0
M  V30 371 H 33.0163 -1.34015 0.908381 0
M  V30 372 H 35.0083 -3.98981 -0.677961 0
M  V30 373 H 33.5783 -2.96994 -0.975366 0
M  V30 374 H 32.7983 -3.68276 1.40593 0
M  V30 375 H 34.0863 -4.90001 1.37029 0
M  V30 376 H 33.4843 -5.37104 -1.77583 0
M  V30 377 H 32.0413 -6.2984 -1.67764 0
M  V30 378 N 35.4744 -0.807222 -1.35358 0
M  V30 379 C 36.4244 -0.190706 -2.27201 0
M  V30 380 C 37.4084 0.635838 -1.47804 0
M  V30 381 O 38.6004 0.492991 -1.69996 0
M  V30 382 C 35.7294 0.659337 -3.36909 0
M  V30 383 C 34.8154 -0.176971 -4.23731 0
M  V30 384 N 35.2064 -1.24029 -4.90357 0
M  V30 385 C 33.5044 0.0412953 -4.45981 0
M  V30 386 C 34.2054 -1.75092 -5.54723 0
M  V30 387 N 33.1814 -1.05727 -5.33219 0
M  V30 388 H 36.9834 -1.0043 -2.76208 0
M  V30 389 H 34.4974 -0.648445 -1.48892 0
M  V30 390 H 36.4944 1.11706 -4.01656 0
M  V30 391 H 35.1544 1.47127 -2.89454 0
M  V30 392 H 36.1654 -1.62295 -4.91814 0
M  V30 393 H 32.8424 0.82232 -4.09322 0
M  V30 394 H 34.2324 -2.63963 -6.17878 0
M  V30 395 N 36.9525 1.47285 -0.560781 0
M  V30 396 C 38.1995 2.02464 -0.038062 0
M  V30 397 C 38.5275 1.43474 1.31322 0
M  V30 398 O 37.7825 0.581311 1.86867 0
M  V30 399 C 38.0815 3.57258 0.100784 0
M  V30 400 C 37.7475 4.35184 -1.18007 0
M  V30 401 C 36.4095 4.56194 -1.53103 0
M  V30 402 C 38.7615 4.80098 -2.02867 0
M  V30 403 C 36.0895 5.19367 -2.729 0
M  V30 404 C 38.4415 5.44593 -3.21871 0
M  V30 405 C 37.1055 5.63835 -3.57276 0
M  V30 406 H 36.3755 0.740869 -0.0139279 0
M  V30 407 H 39.0225 1.76916 -0.733012 0
M  V30 408 H 37.3275 3.81819 0.878724 0
M  V30 409 H 39.0245 3.97606 0.520639 0
M  V30 410 H 35.6145 4.19113 -0.8968 0
M  V30 411 H 39.7985 4.63642 -1.7706 0
M  V30 412 H 35.0545 5.32459 -3.00496 0
M  V30 413 H 39.2285 5.78358 -3.87911 0
M  V30 414 H 36.8555 6.12557 -4.50197 0
M  V30 415 N 38.4306 0.297415 1.54768 0
M  V30 416 C 39.8416 -0.195947 1.85669 0
M  V30 417 C 40.1926 -1.53707 1.21937 0
M  V30 418 O 39.3176 -2.10164 0.515754 0
M  V30 419 C 39.9126 -0.362318 3.36857 0
M  V30 420 C 38.4716 -0.799901 3.67802 0
M  V30 421 C 37.6186 0.0938578 2.77141 0
M  V30 422 H 40.5696 0.518538 1.4999 0
M  V30 423 H 40.5906 -1.19745 3.61167 0
M  V30 424 H 40.1026 0.613921 3.83214 0
M  V30 425 H 38.2036 -1.78682 3.26961 0
M  V30 426 H 38.3166 -0.621773 4.75048 0
M  V30 427 H 36.6806 -0.426254 2.51108 0
M  V30 428 H 37.4636 1.06639 3.26318 0
M  V30 429 N 39.9087 -1.5758 0.0250728 0
M  V30 430 C 41.1577 -1.90811 -0.653767 0
M  V30 431 C 41.4707 -0.90273 -1.73523 0
M  V30 432 O 42.6767 -1.12614 -2.47043 0
M  V30 433 C 41.1327 -3.38804 -1.21409 0
M  V30 434 C 40.7407 -4.47692 -0.166126 0
M  V30 435 C 42.4847 -3.81108 -1.86967 0
M  V30 436 C 40.3917 -5.86779 -0.737856 0
M  V30 437 H 39.3217 -0.712063 -0.247956 0
M  V30 438 H 41.9727 -1.83281 0.0897137 0
M  V30 439 H 40.3547 -3.41252 -2.00905 0
M  V30 440 H 41.5287 -4.56797 0.606079 0
M  V30 441 H 39.8437 -4.14565 0.390466 0
M  V30 442 H 42.4407 -4.82375 -2.30692 0
M  V30 443 H 42.7837 -3.15953 -2.71071 0
M  V30 444 H 43.3167 -3.81065 -1.14167 0
M  V30 445 H 40.0557 -6.55468 0.0649577 0
M  V30 446 H 39.5757 -5.81288 -1.47864 0
M  V30 447 H 41.2547 -6.35223 -1.22884 0
M  V30 448 N 41.3868 0.248026 -1.55636 0
M  V30 449 C 42.2968 1.32859 -1.93354 0
M  V30 450 C 43.3128 1.52719 -0.833838 0
M  V30 451 O 44.4888 1.66363 -1.13513 0
M  V30 452 C 41.5538 2.66337 -2.21958 0
M  V30 453 C 40.6148 2.55008 -3.45354 0
M  V30 454 C 39.8478 3.82121 -3.72584 0
M  V30 455 O 40.0708 4.83951 -3.01907 0
M  V30 456 O 39.0048 3.80822 -4.6611 0
M  V30 457 H 42.8308 1.03862 -2.85388 0
M  V30 458 H 40.4158 0.448686 -1.42503 0
M  V30 459 H 42.2978 3.45216 -2.4167 0
M  V30 460 H 40.9728 2.95068 -1.33103 0
M  V30 461 H 39.8798 1.7442 -3.30951 0
M  V30 462 H 41.2128 2.31222 -4.34508 0
M  V30 463 N 42.8649 1.48995 0.513639 0
M  V30 464 C 44.1109 1.58076 1.27042 0
M  V30 465 C 44.4439 0.261026 1.92438 0
M  V30 466 O 43.7189 -0.734393 1.80103 0
M  V30 467 C 44.0019 2.73091 2.34719 0
M  V30 468 C 43.8549 4.14821 1.73907 0
M  V30 469 C 45.1739 2.83796 3.36375 0
M  V30 470 H 42.2929 0.575391 0.460536 0
M  V30 471 H 44.9349 1.81232 0.570516 0
M  V30 472 H 43.0849 2.53479 2.94416 0
M  V30 473 H 44.7569 4.45917 1.18135 0
M  V30 474 H 42.9999 4.21058 1.0437 0
M  V30 475 H 43.6709 4.91147 2.51949 0
M  V30 476 H 46.1469 3.01611 2.86653 0
M  V30 477 H 45.0229 3.65971 4.09093 0
M  V30 478 H 45.2839 1.92624 3.9793 0
M  V30 479 N 44.343 -0.763751 1.37857 0
M  V30 480 C 45.759 -1.06542 1.18832 0
M  V30 481 C 45.959 -2.01478 0.0299722 0
M  V30 482 O 45.015 -2.4458 -0.627447 0
M  V30 483 C 46.328 -1.65525 2.51042 0
M  V30 484 C 47.876 -1.77745 2.57635 0
M  V30 485 C 48.351 -2.4014 3.89996 0
M  V30 486 N 49.842 -2.47582 3.91481 0
M  V30 487 C 50.577 -2.96732 4.9065 0
M  V30 488 N 50.073 -3.45993 6.00217 0
M  V30 489 N 51.866 -2.95679 4.78048 0
M  V30 490 H 44.017 -0.133556 2.1198 0
M  V30 491 H 46.28 -0.121879 0.940133 0
M  V30 492 H 45.986 -1.03236 3.36207 0
M  V30 493 H 45.86 -2.64719 2.68707 0
M  V30 494 H 48.247 -2.39164 1.72872 0
M  V30 495 H 48.328 -0.772836 2.43846 0
M  V30 496 H 47.972 -1.79358 4.75177 0
M  V30 497 H 47.902 -3.41223 4.01092 0
M  V30 498 H 50.393 -2.1273 3.12337 0
M  V30 499 H 50.706 -3.81922 6.7183 0
M  V30 500 H 49.051 -3.44077 6.03851 0
M  V30 501 H 52.242 -2.56499 3.91568 0
M  V30 502 H 52.415 -3.33672 5.55488 0
M  V30 503 N 45.8211 -1.22559 -0.990812 0
M  V30 504 C 46.7711 -0.964807 -2.0658 0
M  V30 505 C 47.7551 0.0853472 -1.60673 0
M  V30 506 O 48.9471 -0.125443 -1.76555 0
M  V30 507 C 46.0761 -0.546707 -3.38919 0
M  V30 508 C 45.1621 -1.6317 -3.91454 0
M  V30 509 N 45.5531 -2.85985 -4.17189 0
M  V30 510 C 43.8511 -1.50387 -4.19881 0
M  V30 511 C 44.5521 -3.56159 -4.59919 0
M  V30 512 N 43.5281 -2.83637 -4.63736 0
M  V30 513 H 47.3301 -1.89769 -2.24421 0
M  V30 514 H 44.8441 -1.12343 -1.17273 0
M  V30 515 H 46.8411 -0.34119 -4.15502 0
M  V30 516 H 45.5011 0.379254 -3.22478 0
M  V30 517 H 46.5121 -3.22392 -4.05319 0
M  V30 518 H 43.1891 -0.644254 -4.12499 0
M  V30 519 H 44.5791 -4.6139 -4.88435 0
M  V30 520 N 47.2992 1.18797 -1.03562 0
M  V30 521 C 48.5292 1.92319 -0.754773 0
M  V30 522 C 48.9372 1.7612 0.691248 0
M  V30 523 O 48.2802 1.08491 1.48241 0
M  V30 524 C 48.3422 3.44284 -1.03484 0
M  V30 525 C 48.0062 3.84258 -2.47376 0
M  V30 526 C 49.0032 3.88459 -3.45537 0
M  V30 527 C 46.6882 4.15701 -2.81954 0
M  V30 528 C 48.6822 4.23545 -4.76328 0
M  V30 529 C 46.3692 4.50458 -4.12954 0
M  V30 530 C 47.3672 4.54356 -5.09951 0
M  V30 531 O 47.0552 4.88305 -6.38603 0
M  V30 532 H 46.7872 0.617527 -0.275021 0
M  V30 533 H 49.3412 1.51683 -1.38497 0
M  V30 534 H 47.5712 3.85135 -0.347513 0
M  V30 535 H 49.2602 3.99049 -0.7426 0
M  V30 536 H 50.0262 3.6431 -3.20162 0
M  V30 537 H 45.9052 4.11847 -2.0713 0
M  V30 538 H 49.4492 4.26502 -5.52035 0
M  V30 539 H 45.3462 4.74067 -4.38099 0
M  V30 540 H 46.1142 5.06227 -6.43177 0
M  V30 541 N 48.7773 0.814389 1.34928 0
M  V30 542 C 49.7073 0.244827 2.32213 0
M  V30 543 C 50.6883 -0.634024 1.57842 0
M  V30 544 O 51.8733 -0.562676 1.8587 0
M  V30 545 C 49.0033 -0.601106 3.42058 0
M  V30 546 C 47.9573 0.179896 4.27622 0
M  V30 547 C 47.2833 -0.788237 5.28858 0
M  V30 548 C 48.5833 1.38329 5.03649 0
M  V30 549 H 50.2773 1.05763 2.80097 0
M  V30 550 H 47.8233 0.510029 1.34665 0
M  V30 551 H 49.7763 -1.00968 4.09125 0
M  V30 552 H 48.5003 -1.44688 2.92802 0
M  V30 553 H 47.1593 0.569739 3.62146 0
M  V30 554 H 46.8073 -1.62973 4.75866 0
M  V30 555 H 46.5073 -0.269942 5.8698 0
M  V30 556 H 48.0313 -1.19485 5.98795 0
M  V30 557 H 49.4453 1.04918 5.63618 0
M  V30 558 H 47.8423 1.83662 5.71304 0
M  V30 559 H 48.9123 2.16592 4.33839 0
M  V30 560 N 50.2554 -1.46986 0.568584 0
M  V30 561 C 51.4804 -2.07335 0.0520528 0
M  V30 562 C 51.9054 -1.41675 -1.23733 0
M  V30 563 O 51.2634 -0.495623 -1.74394 0
M  V30 564 C 51.3114 -3.60417 -0.11501 0
M  V30 565 O 50.4154 -3.95309 -1.17492 0
M  V30 566 H 49.7564 -0.661597 0.0564385 0
M  V30 567 H 52.2864 -1.88837 0.787507 0
M  V30 568 H 52.2964 -4.06698 -0.325644 0
M  V30 569 H 50.9714 -4.07601 0.826675 0
M  V30 570 H 49.5484 -3.60757 -0.943869 0
M  V30 571 N 51.7335 -0.305618 -1.54608 0
M  V30 572 C 52.6655 0.602161 -2.21149 0
M  V30 573 C 53.6785 1.09394 -1.20569 0
M  V30 574 O 54.8675 1.0106 -1.47136 0
M  V30 575 C 51.9675 1.83692 -2.84799 0
M  V30 576 C 51.1405 1.48686 -4.11353 0
M  V30 577 C 50.1995 2.57725 -4.58764 0
M  V30 578 O 49.2255 2.22623 -5.23858 0
M  V30 579 N 50.4275 3.88346 -4.31471 0
M  V30 580 H 53.1925 0.0324966 -2.99682 0
M  V30 581 H 50.7535 -0.128021 -1.61393 0
M  V30 582 H 52.7455 2.55994 -3.13448 0
M  V30 583 H 51.3155 2.31486 -2.10078 0
M  V30 584 H 50.5355 0.596269 -3.89664 0
M  V30 585 H 51.8235 1.22842 -4.93748 0
M  V30 586 H 51.2215 4.19671 -3.79331 0
M  V30 587 H 49.7785 4.56932 -4.64818 0
M  V30 588 N 53.2116 1.57565 -0.0334293 0
M  V30 589 C 54.4576 1.93088 0.639417 0
M  V30 590 C 54.8126 0.910589 1.69488 0
M  V30 591 O 54.1056 -0.0727725 1.91462 0
M  V30 592 C 54.2996 3.33112 1.29504 0
M  V30 593 C 54.1286 4.48667 0.304604 0
M  V30 594 C 52.8986 5.05207 -0.0970777 0
M  V30 595 C 55.0966 5.1239 -0.442845 0
M  V30 596 N 53.0786 6.04286 -1.08223 0
M  V30 597 C 54.4496 6.06609 -1.28161 0
M  V30 598 C 56.5046 4.95352 -0.50308 0
M  V30 599 C 55.2076 6.85622 -2.17519 0
M  V30 600 C 57.2336 5.74978 -1.38401 0
M  V30 601 C 56.5956 6.68816 -2.21054 0
M  V30 602 H 52.6946 0.754335 0.206161 0
M  V30 603 H 55.2786 1.94435 -0.101613 0
M  V30 604 H 53.4496 3.32576 2.00618 0
M  V30 605 H 55.1816 3.55972 1.92525 0
M  V30 606 H 51.9366 4.72782 0.278255 0
M  V30 607 H 52.3606 6.58516 -1.57117 0
M  V30 608 H 57.0026 4.22625 0.121694 0
M  V30 609 H 54.7206 7.57652 -2.81049 0
M  V30 610 H 58.3066 5.63826 -1.43496 0
M  V30 611 H 57.1866 7.29355 -2.88116 0
M  V30 612 N 54.6897 -0.239769 1.55765 0
M  V30 613 C 55.9387 -0.964754 1.77131 0
M  V30 614 C 56.2517 -1.86213 0.59868 0
M  V30 615 O 57.4577 -2.6244 0.695522 0
M  V30 616 C 55.9137 -1.76552 3.1362 0
M  V30 617 C 55.5217 -0.915185 4.38553 0
M  V30 618 C 57.2657 -2.48281 3.44321 0
M  V30 619 C 55.1727 -1.71225 5.66071 0
M  V30 620 H 54.1027 -0.363953 0.660344 0
M  V30 621 H 56.7537 -0.219181 1.82186 0
M  V30 622 H 55.1357 -2.55331 3.02691 0
M  V30 623 H 56.3097 -0.169217 4.60489 0
M  V30 624 H 54.6247 -0.310889 4.15238 0
M  V30 625 H 57.2217 -3.08382 4.36812 0
M  V30 626 H 57.5647 -3.20256 2.65973 0
M  V30 627 H 58.0977 -1.76507 3.56497 0
M  V30 628 H 54.8367 -1.03612 6.4726 0
M  V30 629 H 54.3567 -2.43331 5.48224 0
M  V30 630 H 56.0357 -2.27758 6.05587 0
M  V30 631 N 56.1678 -1.49265 -0.50573 0
M  V30 632 C 57.0778 -1.68312 -1.63427 0
M  V30 633 C 58.0938 -0.565682 -1.64548 0
M  V30 634 O 59.2698 -0.839801 -1.83055 0
M  V30 635 C 56.3348 -1.74107 -2.99813 0
M  V30 636 C 55.3958 -2.97653 -3.09356 0
M  V30 637 C 54.6288 -3.03163 -4.39236 0
M  V30 638 O 54.8518 -2.16396 -5.27758 0
M  V30 639 O 53.7858 -3.9558 -4.53652 0
M  V30 640 H 57.6118 -2.63907 -1.50289 0
M  V30 641 H 55.1968 -1.32951 -0.681502 0
M  V30 642 H 57.0788 -1.803 -3.80881 0
M  V30 643 H 55.7538 -0.816901 -3.13223 0
M  V30 644 H 54.6608 -2.96981 -2.27493 0
M  V30 645 H 55.9938 -3.89535 -3.00871 0
M  V30 646 N 57.6459 0.756429 -1.3826 0
M  V30 647 C 58.8709 1.55077 -1.37717 0
M  V30 648 C 59.2959 1.88073 0.03164 0
M  V30 649 O 58.6539 1.50364 1.01293 0
M  V30 650 C 58.7019 2.8283 -2.23695 0
M  V30 651 O 57.8059 3.77862 -1.6521 0
M  V30 652 H 57.1469 0.469152 -0.469885 0
M  V30 653 H 59.6769 0.935019 -1.81985 0
M  V30 654 H 59.6869 3.31783 -2.37453 0
M  V30 655 H 58.3619 2.58144 -3.2609 0
M  V30 656 H 56.9389 3.36555 -1.60578 0
M  V30 657 N 59.124 1.23083 0.984299 0
M  V30 658 C 60.056 0.96636 2.07832 0
M  V30 659 C 61.069 -0.0582135 1.62696 0
M  V30 660 O 62.258 0.176843 1.77622 0
M  V30 661 C 59.358 0.433397 3.36117 0
M  V30 662 C 58.531 1.51722 4.10243 0
M  V30 663 C 57.59 0.989821 5.16807 0
M  V30 664 O 56.616 1.67794 5.43906 0
M  V30 665 N 57.818 -0.184367 5.80207 0
M  V30 666 H 60.583 1.90824 2.31098 0
M  V30 667 H 58.144 1.13888 1.1507 0
M  V30 668 H 60.136 0.065699 4.04647 0
M  V30 669 H 58.706 -0.413806 3.09849 0
M  V30 670 H 57.926 2.05786 3.36223 0
M  V30 671 H 59.214 2.24619 4.56534 0
M  V30 672 H 58.612 -0.760062 5.60571 0
M  V30 673 H 57.169 -0.493366 6.4993 0
M  V30 674 N 60.6021 -1.18246 1.0419 0
M  V30 675 C 61.5651 -2.20128 0.638452 0
M  V30 676 C 62.5651 -1.57885 -0.304805 0
M  V30 677 O 63.7551 -1.73967 -0.0900369 0
M  V30 678 C 60.8871 -3.4084 -0.0637751 0
M  V30 679 H 62.0801 -2.57336 1.54007 0
M  V30 680 H 59.6331 -1.32152 0.834598 0
M  V30 681 H 60.3681 -3.09166 -0.979136 0
M  V30 682 H 60.1531 -3.8726 0.614198 0
M  V30 683 H 61.6431 -4.16274 -0.332512 0
M  V30 684 N 62.0802 -0.821533 -1.34494 0
M  V30 685 C 63.3262 -0.418729 -1.99043 0
M  V30 686 C 63.6812 1.00672 -1.6396 0
M  V30 687 O 62.9742 1.69132 -0.900271 0
M  V30 688 C 63.1682 -0.556512 -3.53041 0
M  V30 689 C 62.9972 -1.9938 -4.03085 0
M  V30 690 C 61.7672 -2.62539 -4.31742 0
M  V30 691 C 63.9652 -2.96035 -4.20556 0
M  V30 692 N 61.9472 -3.97523 -4.67813 0
M  V30 693 C 63.3182 -4.15924 -4.59791 0
M  V30 694 C 65.3732 -2.9267 -4.02801 0
M  V30 695 C 64.0762 -5.32899 -4.83126 0
M  V30 696 C 66.1022 -4.08861 -4.27302 0
M  V30 697 C 65.4642 -5.275 -4.66822 0
M  V30 698 H 61.5632 -0.201299 -0.755647 0
M  V30 699 H 64.1472 -1.06594 -1.62929 0
M  V30 700 H 62.3182 0.0607924 -3.88352 0
M  V30 701 H 64.0502 -0.126842 -4.04501 0
M  V30 702 H 60.8052 -2.13789 -4.22601 0
M  V30 703 H 61.2292 -4.67061 -4.90085 0
M  V30 704 H 65.8712 -2.02088 -3.71376 0
M  V30 705 H 63.5892 -6.24041 -5.13418 0
M  V30 706 H 67.1752 -4.07654 -4.15101 0
M  V30 707 H 66.0552 -6.15913 -4.85408 0
M  V30 708 N 63.5583 1.46682 -0.576371 0
M  V30 709 C 64.8353 1.95599 0.00703437 0
M  V30 710 C 65.2153 1.51904 1.46589 0
M  V30 711 O 64.5633 0.766755 2.15251 0
M  V30 712 C 64.7733 3.4864 -0.158404 0
M  V30 713 C 66.1213 4.24594 -0.0229439 0
M  V30 714 O 67.1453 3.56094 -0.0869173 0
M  V30 715 O 66.0043 5.46373 0.118015 0
M  V30 716 H 63.0983 0.825275 0.053384 0
M  V30 717 H 65.6443 1.56996 -0.644244 0
M  V30 718 H 64.4163 3.7331 -1.17282 0
M  V30 719 H 64.0393 3.94057 0.5296 0
M  V30 720 N 65.0364 0.313813 1.54444 0
M  V30 721 C 66.2614 -0.296681 2.05267 0
M  V30 722 C 66.6864 -1.45757 1.18897 0
M  V30 723 O 66.0444 -1.80239 0.195886 0
M  V30 724 C 66.0924 -0.71831 3.53373 0
M  V30 725 O 65.1964 -1.82175 3.69981 0
M  V30 726 H 64.5374 -0.0554061 0.661684 0
M  V30 727 H 67.0674 0.459387 1.99376 0
M  V30 728 H 67.0774 -1.00364 3.95463 0
M  V30 729 H 65.7524 0.130821 4.15694 0
M  V30 730 H 64.3294 -1.53598 3.39797 0
M  V30 731 N 66.5145 -1.57545 0.0417849 0
M  V30 732 C 67.7605 -1.92601 -0.635021 0
M  V30 733 C 68.0935 -0.919627 -1.71045 0
M  V30 734 O 67.3685 0.0557892 -1.9442 0
M  V30 735 C 67.6515 -3.38085 -1.23979 0
M  V30 736 C 67.5045 -4.49467 -0.173057 0
M  V30 737 C 68.8235 -3.83776 -2.15416 0
M  V30 738 H 65.9425 -0.700397 -0.229374 0
M  V30 739 H 68.5845 -1.89728 0.101633 0
M  V30 740 H 66.7345 -3.40664 -1.86762 0
M  V30 741 H 68.4065 -4.59018 0.458312 0
M  V30 742 H 66.6495 -4.30909 0.499996 0
M  V30 743 H 67.3205 -5.48323 -0.636054 0
M  V30 744 H 69.7965 -3.83013 -1.62605 0
M  V30 745 H 68.6725 -4.8624 -2.54679 0
M  V30 746 H 68.9335 -3.19998 -3.05047 0
M  V30 747 N 67.9926 0.231505 -1.5589 0
M  V30 748 C 69.2696 0.981096 -1.69215 0
M  V30 749 C 69.6496 2.02799 -0.586164 0
M  V30 750 O 68.9976 2.24823 0.408253 0
M  V30 751 C 69.2076 1.60054 -3.10135 0
M  V30 752 C 70.5556 2.09658 -3.69227 0
M  V30 753 O 71.5796 1.69967 -3.13033 0
M  V30 754 O 70.4386 2.8258 -4.67772 0
M  V30 755 H 67.5326 0.457653 -0.688827 0
M  V30 756 H 70.0786 0.224073 -1.68214 0
M  V30 757 H 68.8506 0.844105 -3.82087 0
M  V30 758 H 68.4736 2.42336 -3.15212 0
M  V30 759 N 69.4707 1.49531 0.497807 0
M  V30 760 C 70.4007 1.6935 1.60757 0
M  V30 761 C 71.3817 0.542218 1.61227 0
M  V30 762 O 72.5667 0.778417 1.77917 0
M  V30 763 C 69.6967 1.76298 2.99226 0
M  V30 764 C 68.6507 2.91248 3.13622 0
M  V30 765 C 67.9767 2.83312 4.53474 0
M  V30 766 C 69.2767 4.3214 2.93346 0
M  V30 767 H 70.9707 2.62263 1.44425 0
M  V30 768 H 68.5167 1.26208 0.693367 0
M  V30 769 H 70.4697 1.88749 3.76765 0
M  V30 770 H 69.1937 0.799871 3.16654 0
M  V30 771 H 67.8527 2.78404 2.38509 0
M  V30 772 H 67.5007 1.84902 4.67782 0
M  V30 773 H 67.2007 3.60465 4.64046 0
M  V30 774 H 68.7247 2.97775 5.33069 0
M  V30 775 H 70.1387 4.45649 3.60652 0
M  V30 776 H 68.5357 5.1054 3.15387 0
M  V30 777 H 69.6057 4.46363 1.89441 0
M  V30 778 N 70.9488 -0.749086 1.3866 0
M  V30 779 C 72.2258 -1.4992 1.25632 0
M  V30 780 C 72.6058 -2.10633 -0.140317 0
M  V30 781 O 71.9538 -1.97437 -1.15025 0
M  V30 782 C 72.1638 -2.56195 2.36992 0
M  V30 783 C 73.5118 -3.22972 2.75634 0
M  V30 784 O 74.5358 -2.66502 2.36337 0
M  V30 785 O 73.3948 -4.25122 3.43415 0
M  V30 786 H 70.4888 -0.665067 0.491544 0
M  V30 787 H 73.0348 -0.784113 1.50498 0
M  V30 788 H 71.8068 -2.09612 3.30422 0
M  V30 789 H 71.4298 -3.35279 2.13714 0
M  V30 790 N 72.4269 -1.23603 -0.977757 0
M  V30 791 C 73.3749 -1.01704 -2.09187 0
M  V30 792 C 74.3689 0.0448214 -1.69341 0
M  V30 793 O 75.5749 -0.108902 -1.7967 0
M  V30 794 H 71.9499 -0.311803 -0.684312 0
M  V30 795 H 73.9209 -1.96207 -2.24823 0
M  V30 796 C 72.6699 -0.627746 -3.41986 0
M  V30 797 H 71.9929 -1.43656 -3.73099 0
M  V30 798 H 73.4329 -0.514053 -4.20872 0
M  V30 799 C 71.8919 0.664238 -3.30287 0
M  V30 800 O 72.4219 1.71268 -3.6336 0
M  V30 801 N 70.6279 0.641156 -2.83439 0
M  V30 802 H 70.1749 -0.212376 -2.56723 0
M  V30 803 H 70.1329 1.50583 -2.75993 0
M  V30 804 N 73.905 1.17692 -1.04816 0
M  V30 805 C 75.316 1.69501 -0.782698 0
M  V30 806 C 75.667 1.83456 0.695577 0
M  V30 807 O 74.792 1.51942 1.54086 0
M  V30 808 C 75.387 3.07874 -1.41419 0
M  V30 809 C 73.946 3.56864 -1.19686 0
M  V30 810 C 73.093 2.3322 -1.50012 0
M  V30 811 H 76.044 1.02262 -1.2136 0
M  V30 812 H 76.065 3.71528 -0.821428 0
M  V30 813 H 75.577 2.97685 -2.49009 0
M  V30 814 H 73.678 3.72337 -0.140043 0
M  V30 815 H 73.791 4.39851 -1.89916 0
M  V30 816 H 72.155 2.37501 -0.920071 0
M  V30 817 H 72.938 2.25644 -2.58727 0
M  V30 818 N 75.3831 0.828654 1.34056 0
M  V30 819 C 76.3151 0.212052 2.28217 0
M  V30 820 C 77.3281 -0.601362 1.51286 0
M  V30 821 O 78.5171 -0.430104 1.73241 0
M  V30 822 C 75.6171 -0.72088 3.31144 0
M  V30 823 C 74.7901 0.0509587 4.3737 0
M  V30 824 C 73.8491 -0.803766 5.20025 0
M  V30 825 O 72.8751 -0.246667 5.68665 0
M  V30 826 N 74.0771 -2.1227 5.40298 0
M  V30 827 H 76.8421 1.02105 2.81771 0
M  V30 828 H 74.4031 0.686153 1.46641 0
M  V30 829 H 76.3951 -1.29742 3.8334 0
M  V30 830 H 74.9651 -1.43061 2.77943 0
M  V30 831 H 74.1851 0.808831 3.85813 0
M  V30 832 H 75.4731 0.582065 5.0546 0
M  V30 833 H 74.8711 -2.59898 5.02464 0
M  V30 834 H 73.4281 -2.64796 5.95589 0
M  V30 835 N 76.8612 -1.46375 0.584142 0
M  V30 836 C 77.7712 -2.34115 -0.150728 0
M  V30 837 C 78.7872 -1.49838 -0.884567 0
M  V30 838 O 79.9632 -1.82704 -0.847429 0
M  V30 839 C 77.0282 -3.2705 -1.15062 0
M  V30 840 C 76.0892 -4.27228 -0.421293 0
M  V30 841 C 75.3222 -5.15722 -1.37355 0
M  V30 842 O 75.5452 -5.07176 -2.61014 0
M  V30 843 O 74.4792 -5.95383 -0.883355 0
M  V30 844 H 78.3052 -2.98309 0.569708 0
M  V30 845 H 75.8902 -1.45373 0.344535 0
M  V30 846 H 77.7722 -3.84381 -1.72712 0
M  V30 847 H 76.4472 -2.65451 -1.8525 0
M  V30 848 H 75.3542 -3.7358 0.197085 0
M  V30 849 H 76.6872 -4.91616 0.239641 0
M  V30 850 N 78.3393 -0.321999 -1.54275 0
M  V30 851 C 79.2873 0.560206 -2.25753 0
M  V30 852 C 80.2813 1.11984 -1.27106 0
M  V30 853 O 81.4873 1.06806 -1.44888 0
M  V30 854 H 77.8623 0.199304 -0.725108 0
M  V30 855 H 79.8333 -0.0649365 -2.98329 0
M  V30 856 C 78.5823 1.71023 -3.02731 0
M  V30 857 H 77.9053 1.28885 -3.78456 0
M  V30 858 H 79.3453 2.30314 -3.55993 0
M  V30 859 C 77.8043 2.62692 -2.10938 0
M  V30 860 O 78.3343 3.64364 -1.6912 0
M  V30 861 N 76.5403 2.30891 -1.76459 0
M  V30 862 H 76.0873 1.48253 -2.10663 0
M  V30 863 H 76.0453 2.92487 -1.1532 0
M  V30 864 N 79.8174 1.5752 -0.0501392 0
M  V30 865 C 81.0664 1.91827 0.623328 0
M  V30 866 C 81.3794 0.930222 1.72065 0
M  V30 867 O 82.5854 1.1653 2.4522 0
M  V30 868 C 81.0414 3.40692 1.16003 0
M  V30 869 C 80.6494 4.479 0.0948811 0
M  V30 870 C 82.3934 3.84034 1.80881 0
M  V30 871 C 80.3004 5.87879 0.644411 0
M  V30 872 H 79.2304 0.715918 0.236596 0
M  V30 873 H 81.8814 1.83115 -0.118861 0
M  V30 874 H 80.2634 3.44405 1.9545 0
M  V30 875 H 81.4374 4.55775 -0.678675 0
M  V30 876 H 79.7524 4.13892 -0.45637 0
M  V30 877 H 82.3494 4.85984 2.22988 0
M  V30 878 H 82.6924 3.20225 2.6601 0
M  V30 879 H 83.2254 3.82833 1.0809 0
M  V30 880 H 79.9644 6.55282 -0.169229 0
M  V30 881 H 79.4844 5.83567 1.38598 0
M  V30 882 H 81.1634 6.37098 1.12763 0
M  V30 883 N 81.2955 -0.223234 1.56011 0
M  V30 884 C 82.2425 -1.27664 1.92277 0
M  V30 885 C 83.2125 -1.46659 0.779763 0
M  V30 886 O 84.3975 -1.60256 1.03551 0
M  V30 887 C 81.5375 -2.62234 2.24338 0
M  V30 888 C 80.6505 -2.51051 3.51564 0
M  V30 889 C 79.7855 -3.78133 3.7308 0
M  V30 890 C 78.8245 -3.61665 4.93827 0
M  V30 891 N 77.9615 -4.80693 5.11741 0
M  V30 892 H 82.8015 -0.960358 2.82101 0
M  V30 893 H 80.3385 -0.462901 1.39627 0
M  V30 894 H 82.2965 -3.40596 2.40936 0
M  V30 895 H 80.9265 -2.91961 1.3769 0
M  V30 896 H 79.9785 -1.64132 3.43169 0
M  V30 897 H 81.2905 -2.34803 4.40079 0
M  V30 898 H 80.4445 -4.64938 3.89766 0
M  V30 899 H 79.1835 -3.97304 2.82844 0
M  V30 900 H 78.1885 -2.73244 4.77093 0
M  V30 901 H 79.4135 -3.43966 5.85546 0
M  V30 902 H 77.3595 -5.00181 4.24446 0
M  V30 903 H 77.2765 -4.67165 5.94384 0
M  V30 904 H 78.5445 -5.6893 5.3286 0
M  V30 905 N 82.7736 -1.49793 -0.48987 0
M  V30 906 C 83.7366 -1.66752 -1.57246 0
M  V30 907 C 84.7366 -0.538867 -1.51502 0
M  V30 908 O 85.9266 -0.805545 -1.54456 0
M  V30 909 C 83.0586 -1.67528 -2.96896 0
M  V30 910 H 84.2516 -2.63321 -1.43534 0
M  V30 911 H 81.8046 -1.38992 -0.714914 0
M  V30 912 H 82.5396 -0.725837 -3.16073 0
M  V30 913 H 82.3246 -2.49504 -3.02473 0
M  V30 914 H 83.8146 -1.82667 -3.7553 0
M  V30 915 N 84.2517 0.741722 -1.39055 0
M  V30 916 C 85.4797 1.53098 -1.39171 0
M  V30 917 C 85.8947 1.88794 0.0155099 0
M  V30 918 O 85.2517 1.53626 0.985159 0
M  V30 919 C 85.3027 2.82274 -2.2584 0
M  V30 920 O 85.0237 2.48097 -3.61081 0
M  V30 921 C 86.5247 3.76343 -2.34266 0
M  V30 922 H 83.7447 0.473335 -0.4756 0
M  V30 923 H 86.2887 0.917045 -1.82785 0
M  V30 924 H 84.4437 3.40015 -1.85656 0
M  V30 925 H 84.8577 3.31029 -4.06842 0
M  V30 926 H 86.3317 4.63898 -2.9917 0
M  V30 927 H 86.8087 4.17619 -1.35982 0
M  V30 928 H 87.4147 3.24523 -2.74891 0
M  V30 929 N 85.7298 1.2412 0.971189 0
M  V30 930 C 86.6618 0.988349 2.06795 0
M  V30 931 C 87.6748 -0.0409541 1.62748 0
M  V30 932 O 88.8638 0.195673 1.77424 0
M  V30 933 C 85.9638 0.469023 3.35639 0
M  V30 934 C 85.1368 1.56065 4.08611 0
M  V30 935 C 84.1958 1.04458 5.15728 0
M  V30 936 O 83.2218 1.73553 5.42096 0
M  V30 937 N 84.4238 -0.122817 5.8037 0
M  V30 938 H 87.1888 1.93265 2.29061 0
M  V30 939 H 84.7498 1.15102 1.13856 0
M  V30 940 H 86.7418 0.108613 4.04554 0
M  V30 941 H 85.3118 -0.380919 3.1027 0
M  V30 942 H 84.5318 2.09341 3.34021 0
M  V30 943 H 85.8198 2.29449 4.54126 0
M  V30 944 H 85.2178 -0.700563 5.61345 0
M  V30 945 H 83.7748 -0.424404 6.50417 0
M  V30 946 N 87.2079 -1.17134 1.05439 0
M  V30 947 C 88.1379 -2.2342 0.678649 0
M  V30 948 C 89.1189 -1.66971 -0.32476 0
M  V30 949 O 90.3039 -1.93149 -0.201802 0
M  V30 950 C 87.4339 -3.47256 0.0552099 0
M  V30 951 C 86.3879 -4.16543 0.98365 0
M  V30 952 C 85.7139 -5.34231 0.223961 0
M  V30 953 C 87.0139 -4.68495 2.3089 0
M  V30 954 H 88.7079 -2.55105 1.56722 0
M  V30 955 H 86.2539 -1.2262 0.754998 0
M  V30 956 H 88.2069 -4.20828 -0.21946 0
M  V30 957 H 86.9309 -3.14846 -0.868319 0
M  V30 958 H 85.5899 -3.44887 1.24293 0
M  V30 959 H 85.2379 -4.98071 -0.702412 0
M  V30 960 H 84.9379 -5.81527 0.842627 0
M  V30 961 H 86.4619 -6.10585 -0.0433671 0
M  V30 962 H 87.8759 -5.33691 2.09396 0
M  V30 963 H 86.2729 -5.26379 2.88176 0
M  V30 964 H 87.3429 -3.85169 2.94572 0
M  V30 965 N 88.686 -0.835752 -1.33615 0
M  V30 966 C 89.616 -0.281739 -2.31794 0
M  V30 967 C 90.597 0.608833 -1.58831 0
M  V30 968 O 91.782 0.533035 -1.86741 0
M  V30 969 C 88.912 0.546612 -3.42971 0
M  V30 970 C 87.866 -0.247904 -4.27281 0
M  V30 971 C 87.192 0.704001 -5.30045 0
M  V30 972 C 88.492 -1.46324 -5.01385 0
M  V30 973 H 90.186 -1.10206 -2.78379 0
M  V30 974 H 87.732 -0.531388 -1.33837 0
M  V30 975 H 89.685 0.944467 -4.1068 0
M  V30 976 H 88.409 1.40011 -2.95067 0
M  V30 977 H 87.068 -0.627281 -3.61194 0
M  V30 978 H 86.716 1.55381 -4.78399 0
M  V30 979 H 86.416 0.176524 -5.87335 0
M  V30 980 H 87.94 1.09944 -6.0062 0
M  V30 981 H 89.354 -1.13871 -5.61877 0
M  V30 982 H 87.751 -1.92728 -5.6831 0
M  V30 983 H 88.821 -2.23467 -4.30338 0
M  V30 984 N 90.1641 1.46063 -0.591896 0
M  V30 985 C 91.0741 2.34192 0.13831 0
M  V30 986 C 92.0901 1.50305 0.876608 0
M  V30 987 O 93.2661 1.8315 0.837728 0
M  V30 988 C 90.3311 3.27656 1.13326 0
M  V30 989 C 89.3921 4.27445 0.39863 0
M  V30 990 C 88.6251 5.16443 1.34618 0
M  V30 991 O 88.8481 5.08553 2.58321 0
M  V30 992 O 87.7821 5.95843 0.851768 0
M  V30 993 H 91.6081 2.98002 -0.58552 0
M  V30 994 H 89.1931 1.45188 -0.352239 0
M  V30 995 H 91.0751 3.85291 1.70671 0
M  V30 996 H 89.7501 2.6643 1.83839 0
M  V30 997 H 88.6571 3.73471 -0.216895 0
M  V30 998 H 89.9901 4.91482 -0.265709 0
M  V30 999 N 91.6422 0.330177 1.54103 0
M  V30 1000 C 92.8902 -0.269871 2.0029 0
M  V30 1001 C 93.2112 -1.52133 1.21986 0
M  V30 1002 O 92.4812 -1.93212 0.323438 0
M  V30 1003 H 91.0612 -0.10271 0.739905 0
M  V30 1004 H 93.7232 0.448249 1.89675 0
M  V30 1005 H 92.8192 -0.52166 3.07709 0
M  V30 1006 N 93.1203 -1.57491 0.0584922 0
M  V30 1007 C 94.0503 -2.14988 -0.911178 0
M  V30 1008 C 95.0313 -1.07343 -1.31952 0
M  V30 1009 O 96.2163 -1.35318 -1.39294 0
M  V30 1010 C 93.3463 -2.70078 -2.18347 0
M  V30 1011 C 92.3003 -3.82771 -1.91495 0
M  V30 1012 C 91.6263 -4.24408 -3.25241 0
M  V30 1013 C 92.9263 -5.07592 -1.23075 0
M  V30 1014 H 94.6203 -2.96263 -0.432246 0
M  V30 1015 H 92.1663 -1.42512 -0.206469 0
M  V30 1016 H 94.1193 -3.08943 -2.86587 0
M  V30 1017 H 92.8433 -1.86005 -2.68458 0
M  V30 1018 H 91.5023 -3.44389 -1.25664 0
M  V30 1019 H 91.1503 -3.37275 -3.73168 0
M  V30 1020 H 90.8503 -5.00366 -3.08071 0
M  V30 1021 H 92.3743 -4.65879 -3.94701 0
M  V30 1022 H 93.7883 -5.43857 -1.81362 0
M  V30 1023 H 92.1853 -5.88741 -1.16207 0
M  V30 1024 H 93.2553 -4.84454 -0.207847 0
M  V30 1025 N 94.5984 0.214957 -1.56127 0
M  V30 1026 C 95.8444 0.939762 -1.79712 0
M  V30 1027 C 96.1774 1.83723 -0.629247 0
M  V30 1028 O 95.4524 1.90925 0.371197 0
M  V30 1029 C 95.7354 1.77306 -3.13424 0
M  V30 1030 C 95.5884 0.90164 -4.40671 0
M  V30 1031 C 96.9074 2.74956 -3.43638 0
M  V30 1032 H 94.0264 0.340214 -0.653776 0
M  V30 1033 H 96.6684 0.20824 -1.88855 0
M  V30 1034 H 94.8184 2.39673 -3.0576 0
M  V30 1035 H 96.4904 0.294206 -4.60361 0
M  V30 1036 H 94.7334 0.207368 -4.33304 0
M  V30 1037 H 95.4044 1.51923 -5.30682 0
M  V30 1038 H 97.8804 2.22724 -3.51473 0
M  V30 1039 H 96.7564 3.30358 -4.38355 0
M  V30 1040 H 97.0174 3.53023 -2.66134 0
M  V30 1041 N 96.0765 1.50051 0.48192 0
M  V30 1042 C 97.0085 1.64263 1.59844 0
M  V30 1043 C 98.0215 0.52451 1.54119 0
M  V30 1044 O 99.2105 0.797293 1.59704 0
M  V30 1045 C 96.3105 1.60102 2.98698 0
M  V30 1046 C 95.4835 2.87767 3.29407 0
M  V30 1047 C 94.5425 2.76397 4.47762 0
M  V30 1048 O 93.5685 3.50348 4.48603 0
M  V30 1049 N 94.7705 1.89222 5.48794 0
M  V30 1050 H 97.5355 2.60566 1.48073 0
M  V30 1051 H 95.0965 1.47379 0.670149 0
M  V30 1052 H 97.0885 1.50123 3.75826 0
M  V30 1053 H 95.6585 0.715798 3.04294 0
M  V30 1054 H 94.8785 3.11954 2.40994 0
M  V30 1055 H 96.1665 3.72365 3.4673 0
M  V30 1056 H 95.5645 1.28434 5.50928 0
M  V30 1057 H 94.1215 1.85154 6.24949 0
M  V30 1058 N 97.5546 -0.734337 1.39446 0
M  V30 1059 C 98.4646 -1.87879 1.40495 0
M  V30 1060 C 99.4806 -1.714 0.299672 0
M  V30 1061 O 100.657 -1.93991 0.541249 0
M  V30 1062 C 97.7216 -3.23477 1.24754 0
M  V30 1063 C 96.7826 -3.52344 2.45259 0
M  V30 1064 C 96.0156 -4.81473 2.30259 0
M  V30 1065 O 96.2386 -5.55237 1.30643 0
M  V30 1066 O 95.1726 -5.10254 3.19256 0
M  V30 1067 H 98.9986 -1.89949 2.36966 0
M  V30 1068 H 96.5836 -0.882243 1.20569 0
M  V30 1069 H 98.4656 -4.04509 1.18111 0
M  V30 1070 H 97.1406 -3.22176 0.313781 0
M  V30 1071 H 96.0476 -2.71396 2.57478 0
M  V30 1072 H 97.3806 -3.58426 3.37331 0
M  V30 1073 N 99.0327 -1.24633 -0.964593 0
M  V30 1074 C 99.9627 -1.06611 -2.07741 0
M  V30 1075 C 100.944 0.0218666 -1.70086 0
M  V30 1076 O 102.129 -0.145793 -1.93652 0
M  V30 1077 C 99.2587 -0.673444 -3.40708 0
M  V30 1078 C 98.2127 -1.71054 -3.92332 0
M  V30 1079 C 97.5387 -1.17285 -5.21678 0
M  V30 1080 C 98.8387 -3.10718 -4.19824 0
M  V30 1081 H 100.533 -1.99693 -2.23076 0
M  V30 1082 H 98.0787 -0.96152 -1.07195 0
M  V30 1083 H 100.032 -0.534345 -4.17998 0
M  V30 1084 H 98.7557 0.293073 -3.25282 0
M  V30 1085 H 97.4147 -1.83791 -3.17201 0
M  V30 1086 H 97.0627 -0.196847 -5.02615 0
M  V30 1087 H 96.7627 -1.86592 -5.57187 0
M  V30 1088 H 98.2867 -1.04593 -6.01575 0
M  V30 1089 H 99.7007 -3.01192 -4.87808 0
M  V30 1090 H 98.0977 -3.77406 -4.66567 0
M  V30 1091 H 99.1677 -3.58524 -3.26479 0
M  V30 1092 N 100.511 1.16574 -1.06058 0
M  V30 1093 C 101.443 2.2045 -0.627239 0
M  V30 1094 C 102.456 1.59752 0.313534 0
M  V30 1095 O 103.645 1.78192 0.104896 0
M  V30 1096 C 100.745 3.3875 0.100974 0
M  V30 1097 C 99.9178 4.29008 -0.852687 0
M  V30 1098 C 98.9768 5.25944 -0.164152 0
M  V30 1099 O 98.0028 5.63535 -0.801047 0
M  V30 1100 N 99.2048 5.70075 1.09518 0
M  V30 1101 H 101.97 2.58249 -1.52077 0
M  V30 1102 H 99.5308 1.3156 -0.943594 0
M  V30 1103 H 101.523 4.00638 0.57194 0
M  V30 1104 H 100.093 2.99476 0.89628 0
M  V30 1105 H 99.3128 3.64419 -1.50308 0
M  V30 1106 H 100.601 4.86195 -1.49972 0
M  V30 1107 H 99.9988 5.41624 1.6328 0
M  V30 1108 H 98.5558 6.34067 1.51006 0
M  V30 1109 N 101.989 0.842826 1.3317 0
M  V30 1110 C 102.936 0.276885 2.29133 0
M  V30 1111 C 103.906 -0.609527 1.54512 0
M  V30 1112 O 105.091 -0.546955 1.82792 0
M  V30 1113 C 102.231 -0.538707 3.40869 0
M  V30 1114 C 101.344 0.372169 4.30394 0
M  V30 1115 C 100.479 -0.454908 5.29249 0
M  V30 1116 C 99.5179 0.45411 6.10413 0
M  V30 1117 N 98.6549 -0.335075 7.013 0
M  V30 1118 H 103.495 1.10052 2.76934 0
M  V30 1119 H 101.032 0.554161 1.36262 0
M  V30 1120 H 102.99 -1.02709 4.0436 0
M  V30 1121 H 101.62 -1.32727 2.9425 0
M  V30 1122 H 100.672 0.97888 3.6759 0
M  V30 1123 H 101.984 1.0703 4.87182 0
M  V30 1124 H 101.138 -1.00695 5.98285 0
M  V30 1125 H 99.8769 -1.18646 4.73048 0
M  V30 1126 H 98.8819 1.01813 5.40291 0
M  V30 1127 H 100.107 1.18409 6.68697 0
M  V30 1128 H 98.0529 -1.04994 6.47543 0
M  V30 1129 H 97.9699 0.304262 7.55387 0
M  V30 1130 H 99.2379 -0.869224 7.74638 0
M  V30 1131 N 103.467 -1.45747 0.599634 0
M  V30 1132 C 104.414 -2.30467 -0.123849 0
M  V30 1133 C 105.384 -1.41632 -0.86774 0
M  V30 1134 O 106.569 -1.70568 -0.855056 0
M  V30 1135 C 103.709 -3.26402 -1.12051 0
M  V30 1136 C 102.822 -4.3034 -0.37832 0
M  V30 1137 C 101.957 -5.13389 -1.364 0
M  V30 1138 C 100.996 -6.09061 -0.609171 0
M  V30 1139 N 100.133 -6.84918 -1.54374 0
M  V30 1140 H 104.973 -2.91802 0.604627 0
M  V30 1141 H 102.51 -1.43797 0.309972 0
M  V30 1142 H 104.468 -3.80482 -1.7114 0
M  V30 1143 H 103.098 -2.66839 -1.8165 0
M  V30 1144 H 102.15 -3.78984 0.327929 0
M  V30 1145 H 103.462 -4.98354 0.210997 0
M  V30 1146 H 102.616 -5.7183 -2.02719 0
M  V30 1147 H 101.355 -4.45376 -1.98725 0
M  V30 1148 H 100.36 -5.49758 0.0676979 0
M  V30 1149 H 101.585 -6.79099 0.00891991 0
M  V30 1150 H 99.531 -6.19601 -2.15478 0
M  V30 1151 H 99.448 -7.49254 -1.00766 0
M  V30 1152 H 100.716 -7.47906 -2.19676 0
M  V30 1153 N 104.945 -0.338344 -1.53925 0
M  V30 1154 C 105.908 0.508299 -2.23493 0
M  V30 1155 C 106.908 1.03175 -1.23335 0
M  V30 1156 O 108.098 0.921826 -1.47811 0
M  V30 1157 C 105.23 1.70754 -2.95052 0
M  V30 1158 H 106.423 -0.100058 -2.99733 0
M  V30 1159 H 103.976 -0.0896198 -1.56043 0
M  V30 1160 H 104.711 2.35474 -2.22986 0
M  V30 1161 H 104.496 1.33946 -3.68512 0
M  V30 1162 H 105.986 2.30818 -3.48013 0
M  V30 1163 N 106.423 1.57458 -0.0668435 0
M  V30 1164 C 107.333 2.15937 0.916975 0
M  V30 1165 C 108.349 1.12123 1.33058 0
M  V30 1166 O 109.525 1.44366 1.40429 0
M  V30 1167 C 106.59 2.70547 2.16807 0
M  V30 1168 C 105.651 3.89215 1.81135 0
M  V30 1169 C 104.884 4.41211 3.0028 0
M  V30 1170 O 105.107 3.92225 4.14144 0
M  V30 1171 O 104.041 5.32605 2.80384 0
M  V30 1172 H 107.867 3.00354 0.449561 0
M  V30 1173 H 105.452 1.48584 0.155949 0
M  V30 1174 H 107.334 3.0557 2.90181 0
M  V30 1175 H 106.009 1.89192 2.62656 0
M  V30 1176 H 104.916 3.59054 1.05028 0
M  V30 1177 H 106.249 4.71848 1.40073 0
M  V30 1178 N 107.901 -0.206675 1.56239 0
M  V30 1179 C 108.851 -1.26 1.90021 0
M  V30 1180 C 109.835 -1.41566 0.764721 0
M  V30 1181 O 111.027 -1.44131 1.02739 0
M  V30 1182 C 108.156 -2.6073 2.23326 0
M  V30 1183 C 107.242 -2.49005 3.43304 0
M  V30 1184 N 107.633 -2.06946 4.61527 0
M  V30 1185 C 105.931 -2.79927 3.47213 0
M  V30 1186 C 106.632 -2.06832 5.43687 0
M  V30 1187 N 105.608 -2.47892 4.83788 0
M  V30 1188 H 109.41 -0.925955 2.78932 0
M  V30 1189 H 106.924 -0.415172 1.57003 0
M  V30 1190 H 108.921 -3.36798 2.45708 0
M  V30 1191 H 107.581 -2.94968 1.35735 0
M  V30 1192 H 108.592 -1.77839 4.86409 0
M  V30 1193 H 105.269 -3.18438 2.70006 0
M  V30 1194 H 106.659 -1.76312 6.48354 0
M  V30 1195 N 109.379 -1.50304 -0.473955 0
M  V30 1196 C 110.311 -1.65109 -1.58971 0
M  V30 1197 C 111.324 -0.532676 -1.53839 0
M  V30 1198 O 112.513 -0.805751 -1.59279 0
M  V30 1199 C 109.613 -1.61684 -2.97845 0
M  V30 1200 C 108.786 -2.8951 -3.27876 0
M  V30 1201 C 107.845 -2.78768 -4.4629 0
M  V30 1202 O 106.871 -3.52722 -4.46739 0
M  V30 1203 N 108.073 -1.9213 -5.47783 0
M  V30 1204 H 110.838 -2.61347 -1.46689 0
M  V30 1205 H 108.399 -1.47732 -0.662324 0
M  V30 1206 H 110.391 -1.52114 -3.75024 0
M  V30 1207 H 108.961 -0.731925 -3.03911 0
M  V30 1208 H 108.181 -3.13228 -2.39336 0
M  V30 1209 H 109.469 -3.74199 -3.4475 0
M  V30 1210 H 108.867 -1.31353 -5.50239 0
M  V30 1211 H 107.424 -1.88466 -6.23958 0
M  V30 1212 N 110.857 0.726932 -1.39834 0
M  V30 1213 C 112.103 1.48884 -1.377 0
M  V30 1214 C 112.436 1.94185 0.0244852 0
M  V30 1215 O 111.711 1.67361 0.990986 0
M  V30 1216 C 111.994 2.72288 -2.3565 0
M  V30 1217 C 111.847 2.32956 -3.84775 0
M  V30 1218 C 113.166 3.74414 -2.31306 0
M  V30 1219 H 110.285 0.540062 -0.5015 0
M  V30 1220 H 112.927 0.830547 -1.70886 0
M  V30 1221 H 111.077 3.28457 -2.07481 0
M  V30 1222 H 112.749 1.82356 -4.23726 0
M  V30 1223 H 110.992 1.65088 -4.01159 0
M  V30 1224 H 111.663 3.21362 -4.4881 0
M  V30 1225 H 114.139 3.27849 -2.56231 0
M  V30 1226 H 113.015 4.58414 -3.01907 0
M  V30 1227 H 113.276 4.21909 -1.32081 0
M  V30 1228 N 112.336 1.25143 0.95797 0
M  V30 1229 C 113.584 1.09476 1.69881 0
M  V30 1230 C 113.905 -0.365502 1.91544 0
M  V30 1231 O 113.175 -1.25985 1.50015 0
M  V30 1232 H 111.755 0.402128 0.629525 0
M  V30 1233 H 114.417 1.57214 1.15194 0
M  V30 1234 H 113.513 1.60046 2.6794 0
M  V30 1235 N 113.814 -1.1601 1.06675 0
M  V30 1236 C 114.724 -2.24156 0.692179 0
M  V30 1237 C 115.74 -1.71507 -0.293513 0
M  V30 1238 O 116.916 -2.009 -0.141861 0
M  V30 1239 C 113.981 -3.46587 0.0884131 0
M  V30 1240 C 113.042 -4.14257 1.12646 0
M  V30 1241 C 112.275 -5.30844 0.551416 0
M  V30 1242 O 112.498 -5.66858 -0.634656 0
M  V30 1243 O 111.432 -5.87848 1.29298 0
M  V30 1244 H 115.258 -2.58513 1.59388 0
M  V30 1245 H 112.843 -1.23599 0.83926 0
M  V30 1246 H 114.725 -4.20679 -0.246361 0
M  V30 1247 H 113.4 -3.13994 -0.786712 0
M  V30 1248 H 112.307 -3.42118 1.51348 0
M  V30 1249 H 113.64 -4.50914 1.97325 0
M  V30 1250 N 115.292 -0.849877 -1.32721 0
M  V30 1251 C 116.569 -0.372405 -1.92022 0
M  V30 1252 C 116.949 1.1435 -1.77447 0
M  V30 1253 O 116.297 1.96296 -1.16962 0
M  V30 1254 C 116.507 -0.831482 -3.3895 0
M  V30 1255 C 117.855 -0.845882 -4.16089 0
M  V30 1256 O 118.879 -0.775806 -3.47649 0
M  V30 1257 O 117.738 -0.943753 -5.38289 0
M  V30 1258 H 114.832 -0.107667 -0.819961 0
M  V30 1259 H 117.378 -0.93646 -1.41522 0
M  V30 1260 H 116.15 -1.87448 -3.4348 0
M  V30 1261 H 115.773 -0.24461 -3.96847 0
M  V30 1262 N 116.77 1.45427 -0.607355 0
M  V30 1263 C 118.018 2.01841 -0.102253 0
M  V30 1264 C 118.339 1.47832 1.27164 0
M  V30 1265 O 117.609 0.672497 1.83995 0
M  V30 1266 H 116.189 0.746188 -0.0348101 0
M  V30 1267 H 118.851 1.78229 -0.7887 0
M  V30 1268 H 117.947 3.12057 -0.0518585 0
M  V30 1269 N 118.248 0.346503 1.53744 0
M  V30 1270 C 119.495 -0.249104 2.00962 0
M  V30 1271 C 119.823 -1.5032 1.23426 0
M  V30 1272 O 119.078 -1.93217 0.310761 0
M  V30 1273 C 119.377 -0.605809 3.52228 0
M  V30 1274 C 119.043 0.551747 4.47512 0
M  V30 1275 C 117.705 0.86941 4.73281 0
M  V30 1276 C 120.057 1.32818 5.03993 0
M  V30 1277 C 117.385 1.96582 5.52786 0
M  V30 1278 C 119.737 2.41486 5.84694 0
M  V30 1279 C 118.401 2.73808 6.08757 0
M  V30 1280 H 117.671 -0.0911538 0.735372 0
M  V30 1281 H 120.318 0.475027 1.85515 0
M  V30 1282 H 118.623 -1.4107 3.65522 0
M  V30 1283 H 120.32 -1.07858 3.86222 0
M  V30 1284 H 116.91 0.294102 4.2759 0
M  V30 1285 H 121.094 1.09602 4.84047 0
M  V30 1286 H 116.35 2.22045 5.69654 0
M  V30 1287 H 120.524 3.02078 6.27473 0
M  V30 1288 H 118.151 3.58892 6.7015 0
M  V30 1289 N 119.726 -1.57421 0.075193 0
M  V30 1290 C 120.656 -2.15942 -0.888324 0
M  V30 1291 C 121.637 -1.08737 -1.30806 0
M  V30 1292 O 122.822 -1.36787 -1.37851 0
M  V30 1293 C 119.952 -2.72379 -2.1547 0
M  V30 1294 C 118.906 -3.8478 -1.87425 0
M  V30 1295 C 118.232 -4.27834 -3.20721 0
M  V30 1296 C 119.532 -5.08869 -1.17684 0
M  V30 1297 H 121.226 -2.96705 -0.400799 0
M  V30 1298 H 118.772 -1.42723 -0.191342 0
M  V30 1299 H 120.725 -3.11965 -2.83295 0
M  V30 1300 H 119.449 -1.88841 -2.6647 0
M  V30 1301 H 118.108 -3.45703 -1.22004 0
M  V30 1302 H 117.756 -3.41214 -3.6957 0
M  V30 1303 H 117.456 -5.03605 -3.02746 0
M  V30 1304 H 118.98 -4.70039 -3.89738 0
M  V30 1305 H 120.394 -5.4575 -1.75584 0
M  V30 1306 H 118.791 -5.8994 -1.09956 0
M  V30 1307 H 119.861 -4.84648 -0.156453 0
M  V30 1308 N 121.204 0.198386 -1.56346 0
M  V30 1309 C 122.134 1.24865 -1.9731 0
M  V30 1310 C 123.115 1.47651 -0.844576 0
M  V30 1311 O 124.3 1.59444 -1.10866 0
M  V30 1312 C 121.43 2.59358 -2.30977 0
M  V30 1313 C 120.384 2.5119 -3.46537 0
M  V30 1314 C 119.71 3.89926 -3.65871 0
M  V30 1315 C 121.01 2.03977 -4.80823 0
M  V30 1316 H 122.704 0.908252 -2.85291 0
M  V30 1317 H 120.25 0.435462 -1.37258 0
M  V30 1318 H 122.203 3.33011 -2.58228 0
M  V30 1319 H 120.927 2.95132 -1.39874 0
M  V30 1320 H 119.586 1.79993 -3.19371 0
M  V30 1321 H 119.234 4.23046 -2.72105 0
M  V30 1322 H 118.934 3.85336 -4.4361 0
M  V30 1323 H 120.458 4.65205 -3.95495 0
M  V30 1324 H 121.872 2.67386 -5.07127 0
M  V30 1325 H 120.269 2.10397 -5.62008 0
M  V30 1326 H 121.339 0.992861 -4.74626 0
M  V30 1327 N 122.682 1.50554 0.465978 0
M  V30 1328 C 123.629 1.6979 1.56333 0
M  V30 1329 C 124.599 0.539239 1.57103 0
M  V30 1330 O 125.784 0.770401 1.74555 0
M  V30 1331 C 122.924 1.80273 2.94271 0
M  V30 1332 C 122.037 3.07674 3.0325 0
M  V30 1333 C 121.172 3.08922 4.32135 0
M  V30 1334 C 120.211 4.30755 4.34875 0
M  V30 1335 N 119.348 4.29714 5.55239 0
M  V30 1336 H 124.188 2.63472 1.39235 0
M  V30 1337 H 121.725 1.30602 0.676873 0
M  V30 1338 H 123.683 1.84332 3.74269 0
M  V30 1339 H 122.313 0.900258 3.09992 0
M  V30 1340 H 121.365 3.13062 2.16094 0
M  V30 1341 H 122.677 3.97642 3.01135 0
M  V30 1342 H 121.831 3.11738 5.20485 0
M  V30 1343 H 120.57 2.16792 4.36866 0
M  V30 1344 H 119.575 4.28146 3.44922 0
M  V30 1345 H 120.8 5.24117 4.31831 0
M  V30 1346 H 118.746 3.4044 5.60746 0
M  V30 1347 H 118.663 5.13456 5.54886 0
M  V30 1348 H 119.931 4.36683 6.457 0
M  V30 1349 N 124.16 -0.719506 1.40217 0
M  V30 1350 C 125.409 -1.47486 1.37589 0
M  V30 1351 C 125.722 -1.9559 -0.0201568 0
M  V30 1352 O 126.928 -2.70973 -0.169049 0
M  V30 1353 C 125.384 -2.66575 2.41796 0
M  V30 1354 C 124.992 -2.25358 3.87192 0
M  V30 1355 C 126.736 -3.4433 2.48269 0
M  V30 1356 C 124.643 -3.41262 4.83005 0
M  V30 1357 H 123.573 -0.553901 0.511576 0
M  V30 1358 H 126.224 -0.783427 1.65936 0
M  V30 1359 H 124.606 -3.3787 2.06543 0
M  V30 1360 H 125.78 -1.61509 4.31569 0
M  V30 1361 H 124.095 -1.60657 3.84159 0
M  V30 1362 H 126.692 -4.30569 3.17041 0
M  V30 1363 H 127.035 -3.87872 1.51198 0
M  V30 1364 H 127.568 -2.80076 2.82493 0
M  V30 1365 H 124.307 -3.02755 5.81394 0
M  V30 1366 H 123.827 -4.0404 4.43297 0
M  V30 1367 H 125.506 -4.07383 5.02641 0
M  V30 1368 N 125.638 -1.25649 -0.95132 0
M  V30 1369 C 126.585 -1.06323 -2.04851 0
M  V30 1370 C 127.555 0.0286491 -1.66075 0
M  V30 1371 O 128.74 -0.12917 -1.90362 0
M  V30 1372 C 125.88 -0.691529 -3.381 0
M  V30 1373 C 124.993 -1.85861 -3.89974 0
M  V30 1374 C 124.128 -1.43096 -5.11563 0
M  V30 1375 C 123.167 -2.56696 -5.55674 0
M  V30 1376 N 122.304 -2.14684 -6.68472 0
M  V30 1377 H 127.144 -2.00222 -2.20715 0
M  V30 1378 H 124.681 -0.997027 -1.08156 0
M  V30 1379 H 126.639 -0.456963 -4.1469 0
M  V30 1380 H 125.269 0.210474 -3.22113 0
M  V30 1381 H 124.321 -2.20639 -3.09875 0
M  V30 1382 H 125.633 -2.71161 -4.18657 0
M  V30 1383 H 124.787 -1.15624 -5.9558 0
M  V30 1384 H 123.526 -0.548722 -4.84603 0
M  V30 1385 H 122.531 -2.84909 -4.7022 0
M  V30 1386 H 123.756 -3.45503 -5.8464 0
M  V30 1387 H 121.702 -1.28881 -6.43215 0
M  V30 1388 H 121.619 -2.9353 -6.96689 0
M  V30 1389 H 122.887 -1.90397 -7.5589 0
M  V30 1390 N 127.117 1.15442 -1.07289 0
M  V30 1391 C 128.047 2.22312 -0.714107 0
M  V30 1392 C 129.028 1.67467 0.298155 0
M  V30 1393 O 130.213 1.93445 0.171048 0
M  V30 1394 C 127.343 3.47124 -0.110448 0
M  V30 1395 C 126.297 4.14926 -1.04979 0
M  V30 1396 C 125.623 5.33807 -0.308924 0
M  V30 1397 C 126.923 4.64762 -2.38314 0
M  V30 1398 H 128.617 2.5258 -1.6076 0
M  V30 1399 H 126.163 1.21404 -0.77441 0
M  V30 1400 H 128.116 4.21124 0.152482 0
M  V30 1401 H 126.84 3.16187 0.81812 0
M  V30 1402 H 125.499 3.42866 -1.29764 0
M  V30 1403 H 125.147 4.99126 0.623084 0
M  V30 1404 H 124.847 5.80113 -0.935036 0
M  V30 1405 H 126.371 6.10576 -0.0537771 0
M  V30 1406 H 127.785 5.30292 -2.1786 0
M  V30 1407 H 126.182 5.21728 -2.96514 0
M  V30 1408 H 127.252 3.80434 -3.00663 0
M  V30 1409 N 128.595 0.856903 1.32268 0
M  V30 1410 C 129.843 0.460474 1.96784 0
M  V30 1411 C 130.164 -0.987701 1.68135 0
M  V30 1412 O 129.434 -1.69058 0.989765 0
M  V30 1413 H 128.014 0.167289 0.728027 0
M  V30 1414 H 130.676 1.09383 1.61312 0
M  V30 1415 H 129.772 0.60739 3.06133 0
M  V30 1416 N 130.073 -1.45103 0.615059 0
M  V30 1417 C 131.023 -2.27679 -0.120966 0
M  V30 1418 C 132.007 -1.3775 -0.831491 0
M  V30 1419 O 133.199 -1.61683 -0.720249 0
M  V30 1420 C 130.328 -3.24767 -1.1127 0
M  V30 1421 C 129.414 -4.22184 -0.402627 0
M  V30 1422 N 129.805 -5.02692 0.559884 0
M  V30 1423 C 128.103 -4.4125 -0.649202 0
M  V30 1424 C 128.804 -5.73421 0.977942 0
M  V30 1425 N 127.78 -5.42657 0.320104 0
M  V30 1426 H 131.582 -2.87325 0.618181 0
M  V30 1427 H 129.096 -1.56345 0.439304 0
M  V30 1428 H 131.093 -3.82666 -1.65446 0
M  V30 1429 H 129.753 -2.66682 -1.85232 0
M  V30 1430 H 130.764 -5.09354 0.936976 0
M  V30 1431 H 127.441 -3.9428 -1.37293 0
M  V30 1432 H 128.831 -6.48107 1.77222 0
M  V30 1433 N 131.551 -0.354651 -1.53558 0
M  V30 1434 C 132.781 0.239167 -2.05211 0
M  V30 1435 C 133.189 1.43879 -1.22863 0
M  V30 1436 O 132.532 1.81857 -0.259565 0
M  V30 1437 C 132.594 0.707251 -3.52474 0
M  V30 1438 C 132.258 -0.374212 -4.55465 0
M  V30 1439 C 133.255 -1.22054 -5.0537 0
M  V30 1440 C 130.94 -0.531323 -4.99482 0
M  V30 1441 C 132.934 -2.20942 -5.97882 0
M  V30 1442 C 130.621 -1.52358 -5.91802 0
M  V30 1443 C 131.619 -2.36108 -6.40892 0
M  V30 1444 O 131.307 -3.33643 -7.31394 0
M  V30 1445 H 131.039 0.0479716 -0.674296 0
M  V30 1446 H 133.593 -0.508121 -1.99016 0
M  V30 1447 H 131.823 1.50596 -3.56171 0
M  V30 1448 H 133.512 1.22285 -3.87042 0
M  V30 1449 H 134.278 -1.1103 -4.7212 0
M  V30 1450 H 130.157 0.110738 -4.60867 0
M  V30 1451 H 133.701 -2.86348 -6.36121 0
M  V30 1452 H 129.598 -1.63434 -6.24467 0
M  V30 1453 H 130.366 -3.29244 -7.4936 0
M  V30 1454 N 133.029 1.57378 -0.0835403 0
M  V30 1455 C 133.992 2.12252 0.864959 0
M  V30 1456 C 134.992 1.04916 1.21858 0
M  V30 1457 O 136.182 1.30853 1.14991 0
M  V30 1458 C 133.314 2.63358 2.16461 0
M  V30 1459 H 134.507 2.97371 0.388676 0
M  V30 1460 H 132.06 1.55423 0.165317 0
M  V30 1461 H 132.795 1.81727 2.686 0
M  V30 1462 H 132.58 3.41826 1.92087 0
M  V30 1463 H 134.07 3.05847 2.84337 0
M  V30 1464 N 134.507 -0.190092 1.56449 0
M  V30 1465 C 135.735 -0.925772 1.85033 0
M  V30 1466 C 136.15 -1.76638 0.666658 0
M  V30 1467 O 135.507 -1.78822 -0.364565 0
M  V30 1468 C 135.558 -1.81786 3.12468 0
M  V30 1469 O 135.279 -1.01118 4.26271 0
M  V30 1470 C 136.78 -2.6648 3.54265 0
M  V30 1471 H 134 -0.269872 0.614337 0
M  V30 1472 H 136.544 -0.195837 2.0356 0
M  V30 1473 H 134.699 -2.50136 2.95822 0
M  V30 1474 H 135.113 -1.61956 4.98869 0
M  V30 1475 H 136.587 -3.24722 4.46385 0
M  V30 1476 H 137.064 -3.40434 2.77491 0
M  V30 1477 H 137.67 -2.03493 3.73458 0
M  V30 1478 N 135.985 -1.50799 -0.457987 0
M  V30 1479 C 136.917 -1.66786 -1.57211 0
M  V30 1480 C 137.93 -0.548962 -1.53265 0
M  V30 1481 O 139.119 -0.8226 -1.58416 0
M  V30 1482 C 136.219 -1.64834 -2.96113 0
M  V30 1483 C 135.392 -2.92971 -3.24787 0
M  V30 1484 C 134.451 -2.83485 -4.43309 0
M  V30 1485 O 133.477 -3.5744 -4.42973 0
M  V30 1486 N 134.679 -1.97929 -5.45714 0
M  V30 1487 H 137.444 -2.62889 -1.43909 0
M  V30 1488 H 135.005 -1.48427 -0.646617 0
M  V30 1489 H 136.997 -1.56084 -3.7339 0
M  V30 1490 H 135.567 -0.764118 -3.03117 0
M  V30 1491 H 134.787 -3.15749 -2.36 0
M  V30 1492 H 136.075 -3.77834 -3.40762 0
M  V30 1493 H 135.473 -1.37182 -5.48815 0
M  V30 1494 H 134.03 -1.95073 -6.21924 0
M  V30 1495 N 137.463 0.71206 -1.40597 0
M  V30 1496 C 138.393 1.83889 -1.43899 0
M  V30 1497 C 139.374 1.67442 -0.299504 0
M  V30 1498 O 140.559 1.87421 -0.508624 0
M  V30 1499 C 137.689 3.21877 -1.30431 0
M  V30 1500 C 136.643 3.53002 -2.42019 0
M  V30 1501 C 135.969 4.90172 -2.13626 0
M  V30 1502 C 137.269 3.53643 -3.84362 0
M  V30 1503 H 138.963 1.81383 -2.38203 0
M  V30 1504 H 136.509 0.871237 -1.14654 0
M  V30 1505 H 138.462 4.00404 -1.31357 0
M  V30 1506 H 137.186 3.24968 -0.326049 0
M  V30 1507 H 135.845 2.76818 -2.40349 0
M  V30 1508 H 135.493 4.89869 -1.14182 0
M  V30 1509 H 135.193 5.11962 -2.88389 0
M  V30 1510 H 136.717 5.71028 -2.1624 0
M  V30 1511 H 138.131 4.22203 -3.87837 0
M  V30 1512 H 136.528 3.86961 -4.58673 0
M  V30 1513 H 137.598 2.52954 -4.13693 0
M  V30 1514 N 138.941 1.26152 0.944643 0
M  V30 1515 C 139.873 1.03199 2.04652 0
M  V30 1516 C 140.886 -0.00642356 1.62799 0
M  V30 1517 O 142.075 0.233263 1.76969 0
M  V30 1518 C 139.175 0.540111 3.34568 0
M  V30 1519 C 138.348 1.64697 4.05208 0
M  V30 1520 C 137.407 1.15374 5.13396 0
M  V30 1521 O 136.433 1.85013 5.38293 0
M  V30 1522 N 137.635 0.00031529 5.805 0
M  V30 1523 H 140.4 1.9808 2.2491 0
M  V30 1524 H 137.961 1.17491 1.11389 0
M  V30 1525 H 139.953 0.194401 4.04233 0
M  V30 1526 H 138.523 -0.315021 3.11009 0
M  V30 1527 H 137.743 2.16379 3.29506 0
M  V30 1528 H 139.031 2.3903 4.49157 0
M  V30 1529 H 138.429 -0.581336 5.62705 0
M  V30 1530 H 136.986 -0.286346 6.51171 0
M  V30 1531 N 140.419 -1.14872 1.07899 0
M  V30 1532 C 141.367 -2.21857 0.698727 0
M  V30 1533 C 142.361 -1.66845 -0.293086 0
M  V30 1534 O 143.567 -1.79321 -0.156204 0
M  V30 1535 H 139.942 -0.722691 0.207899 0
M  V30 1536 H 141.913 -2.51205 1.61054 0
M  V30 1537 C 140.662 -3.47498 0.11858 0
M  V30 1538 H 139.985 -3.90154 0.872914 0
M  V30 1539 H 141.425 -4.23858 -0.109759 0
M  V30 1540 C 139.884 -3.16947 -1.1422 0
M  V30 1541 O 140.414 -3.3426 -2.22785 0
M  V30 1542 N 138.62 -2.70946 -1.05055 0
M  V30 1543 H 138.167 -2.57058 -0.167038 0
M  V30 1544 H 138.125 -2.50879 -1.89491 0
M  V30 1545 N 141.898 -0.863906 -1.31812 0
M  V30 1546 C 143.126 -0.486111 -2.01108 0
M  V30 1547 C 143.541 0.919755 -1.64882 0
M  V30 1548 O 142.898 1.60162 -0.874893 0
M  V30 1549 C 142.949 -0.626435 -3.56031 0
M  V30 1550 O 142.67 -1.97693 -3.90959 0
M  V30 1551 C 144.171 -0.248857 -4.42601 0
M  V30 1552 H 141.391 -0.190052 -0.643523 0
M  V30 1553 H 143.935 -1.1634 -1.68182 0
M  V30 1554 H 142.09 0.00322717 -3.874 0
M  V30 1555 H 142.504 -1.98034 -4.85678 0
M  V30 1556 H 143.978 -0.398016 -5.50563 0
M  V30 1557 H 144.455 0.811489 -4.31638 0
M  V30 1558 H 145.061 -0.853971 -4.16638 0
M  V30 1559 N 143.376 1.44774 -0.622745 0
M  V30 1560 C 144.606 2.06187 -0.130532 0
M  V30 1561 C 145.014 1.46547 1.19669 0
M  V30 1562 O 144.357 0.579636 1.74316 0
M  V30 1563 C 144.419 3.59437 0.0674983 0
M  V30 1564 C 144.083 4.41496 -1.18026 0
M  V30 1565 C 145.08 4.75512 -2.102 0
M  V30 1566 C 142.765 4.82007 -1.41333 0
M  V30 1567 C 144.759 5.48912 -3.23998 0
M  V30 1568 C 142.446 5.55157 -2.55429 0
M  V30 1569 C 143.444 5.88528 -3.46589 0
M  V30 1570 O 143.132 6.60191 -4.58697 0
M  V30 1571 H 142.864 0.672045 -0.0730162 0
M  V30 1572 H 145.418 1.86768 -0.854802 0
M  V30 1573 H 143.648 3.77314 0.846825 0
M  V30 1574 H 145.337 4.02642 0.513209 0
M  V30 1575 H 146.103 4.4476 -1.93425 0
M  V30 1576 H 141.982 4.55457 -0.712709 0
M  V30 1577 H 145.526 5.74877 -3.95174 0
M  V30 1578 H 141.423 5.85324 -2.72151 0
M  V30 1579 H 142.191 6.78654 -4.57571 0
M  V30 1580 N 144.854 0.36279 1.53368 0
M  V30 1581 C 146.131 -0.284021 1.93527 0
M  V30 1582 C 146.511 -1.66628 1.29608 0
M  V30 1583 O 145.859 -2.23942 0.45413 0
M  V30 1584 C 146.069 -0.337028 3.47369 0
M  V30 1585 C 147.417 -0.578708 4.20638 0
M  V30 1586 O 148.441 -0.418352 3.53735 0
M  V30 1587 O 147.3 -0.89074 5.39192 0
M  V30 1588 H 144.394 -0.169743 0.809393 0
M  V30 1589 H 146.94 0.41537 1.64538 0
M  V30 1590 H 145.712 0.632217 3.86159 0
M  V30 1591 H 145.335 -1.08243 3.82582 0
M  V30 1592 N 146.332 -1.57332 0.0918853 0
M  V30 1593 C 147.748 -1.57389 -0.264766 0
M  V30 1594 C 147.948 -1.10281 -1.68643 0
M  V30 1595 O 147.004 -0.777801 -2.40222 0
M  V30 1596 C 148.317 -3.00648 -0.0561195 0
M  V30 1597 C 149.865 -3.12754 -0.124116 0
M  V30 1598 C 150.34 -4.57965 0.0564972 0
M  V30 1599 N 151.831 -4.632 0.00155611 0
M  V30 1600 C 152.566 -5.73281 0.116598 0
M  V30 1601 N 152.062 -6.92208 0.286294 0
M  V30 1602 N 153.855 -5.6207 0.0580973 0
M  V30 1603 H 146.006 -1.86262 1.02079 0
M  V30 1604 H 148.269 -0.859579 0.399786 0
M  V30 1605 H 147.975 -3.393 0.925669 0
M  V30 1606 H 147.849 -3.68623 -0.799823 0
M  V30 1607 H 150.236 -2.73976 -1.09641 0
M  V30 1608 H 150.317 -2.47377 0.651024 0
M  V30 1609 H 149.961 -4.97436 1.02564 0
M  V30 1610 H 149.891 -5.21399 -0.738297 0
M  V30 1611 H 152.382 -3.77686 -0.127192 0
M  V30 1612 H 152.695 -7.71934 0.365676 0
M  V30 1613 H 151.04 -6.94254 0.32192 0
M  V30 1614 H 154.231 -4.68043 -0.0733204 0
M  V30 1615 H 154.404 -6.47824 0.151203 0
M  V30 1616 N 147.81 0.181792 -1.56548 0
M  V30 1617 C 149.05 0.906711 -1.83189 0
M  V30 1618 C 149.414 1.79882 -0.671312 0
M  V30 1619 O 150.615 2.56054 -0.81792 0
M  V30 1620 C 148.886 1.69023 -3.14906 0
M  V30 1621 S 150.445 2.46535 -3.62996 0
M  V30 1622 H 147.263 0.303877 -0.642791 0
M  V30 1623 H 149.865 0.169107 -1.94767 0
M  V30 1624 H 148.569 1.02571 -3.97376 0
M  V30 1625 H 148.1 2.46941 -3.06241 0
M  V30 1626 H 150.115 3.71014 -3.29489 0
M  V30 1627 N 149.288 1.51039 0.449983 0
M  V30 1628 C 150.699 1.557 1.03026 0
M  V30 1629 C 151.05 0.372939 1.92623 0
M  V30 1630 O 150.175 -0.511771 2.10261 0
M  V30 1631 C 150.77 2.82171 1.87523 0
M  V30 1632 C 149.329 2.89444 2.40622 0
M  V30 1633 C 148.476 2.50228 1.19504 0
M  V30 1634 H 151.427 1.56999 0.231745 0
M  V30 1635 H 151.448 2.65219 2.72835 0
M  V30 1636 H 150.96 3.68331 1.22286 0
M  V30 1637 H 149.061 2.07685 3.0935 0
M  V30 1638 H 149.174 3.92816 2.74285 0
M  V30 1639 H 147.538 2.03139 1.53644 0
M  V30 1640 H 148.321 3.38719 0.558972 0
M  V30 1641 N 150.766 -0.704594 1.40972 0
M  V30 1642 C 151.699 -1.82861 1.36518 0
M  V30 1643 C 152.677 -1.6091 0.23382 0
M  V30 1644 O 153.861 -1.83778 0.419271 0
M  V30 1645 C 150.988 -3.1939 1.12729 0
M  V30 1646 C 150.034 -3.60148 2.28463 0
M  V30 1647 S 150.867 -3.65994 3.90907 0
M  V30 1648 C 152.023 -5.05264 3.69403 0
M  V30 1649 H 152.256 -1.86361 2.3164 0
M  V30 1650 H 149.789 -0.872439 1.27389 0
M  V30 1651 H 151.747 -3.98211 0.996893 0
M  V30 1652 H 150.408 -3.1351 0.192427 0
M  V30 1653 H 149.601 -4.59309 2.07489 0
M  V30 1654 H 149.203 -2.88612 2.37863 0
M  V30 1655 H 151.495 -5.92504 3.28551 0
M  V30 1656 H 152.438 -5.31278 4.68134 0
M  V30 1657 H 152.846 -4.76377 3.02862 0
M  V30 1658 N 152.244 -1.26651 -0.937939 0
M  V30 1659 C 153.154 -1.10276 -2.07066 0
M  V30 1660 C 154.17 -0.0354197 -1.73964 0
M  V30 1661 O 155.346 -0.239816 -1.99967 0
M  V30 1662 C 152.411 -0.740887 -3.38691 0
M  V30 1663 C 151.472 -1.88799 -3.85556 0
M  V30 1664 C 150.705 -1.54329 -5.10899 0
M  V30 1665 O 150.928 -0.446494 -5.6865 0
M  V30 1666 O 149.862 -2.37911 -5.52885 0
M  V30 1667 H 153.688 -2.05309 -2.23789 0
M  V30 1668 H 151.273 -1.05743 -1.0554 0
M  V30 1669 H 153.155 -0.55195 -4.1777 0
M  V30 1670 H 151.83 0.180022 -3.23199 0
M  V30 1671 H 150.737 -2.13191 -3.07409 0
M  V30 1672 H 152.07 -2.78874 -4.05574 0
M  V30 1673 N 153.722 1.14298 -1.08507 0
M  V30 1674 C 154.652 2.21542 -0.737646 0
M  V30 1675 C 155.633 1.67773 0.280377 0
M  V30 1676 O 156.818 1.93616 0.150521 0
M  V30 1677 C 153.948 3.46988 -0.147259 0
M  V30 1678 C 152.902 4.13789 -1.09374 0
M  V30 1679 C 152.228 5.33449 -0.365524 0
M  V30 1680 C 153.528 4.62208 -2.4323 0
M  V30 1681 H 155.222 2.5086 -1.6343 0
M  V30 1682 H 152.768 1.20576 -0.787243 0
M  V30 1683 H 154.721 4.21262 0.107808 0
M  V30 1684 H 153.445 3.17037 0.784538 0
M  V30 1685 H 152.104 3.4147 -1.33393 0
M  V30 1686 H 151.752 4.99759 0.57011 0
M  V30 1687 H 151.452 5.79088 -0.996512 0
M  V30 1688 H 152.976 6.10485 -0.118534 0
M  V30 1689 H 154.39 5.27952 -2.23472 0
M  V30 1690 H 152.787 5.18553 -3.02031 0
M  V30 1691 H 153.857 3.77224 -3.04681 0
M  V30 1692 N 155.201 0.870884 1.31352 0
M  V30 1693 C 156.447 0.482987 1.96965 0
M  V30 1694 C 156.78 -0.962462 1.68672 0
M  V30 1695 O 156.055 -1.6779 0.98371 0
M  V30 1696 C 156.338 0.741752 3.52378 0
M  V30 1697 C 156.191 2.2368 3.9024 0
M  V30 1698 C 157.51 0.208838 4.39604 0
M  V30 1699 H 154.629 0.176955 0.715441 0
M  V30 1700 H 157.271 1.09229 1.55464 0
M  V30 1701 H 155.421 0.223149 3.87859 0
M  V30 1702 H 157.093 2.82273 3.64856 0
M  V30 1703 H 155.336 2.70901 3.38814 0
M  V30 1704 H 156.007 2.3685 4.98604 0
M  V30 1705 H 158.483 0.652529 4.10952 0
M  V30 1706 H 157.359 0.419336 5.47296 0
M  V30 1707 H 157.62 -0.889275 4.33064 0
M  V30 1708 N 156.679 -1.44442 0.630414 0
M  V30 1709 C 158.095 -1.56832 0.295973 0
M  V30 1710 C 158.295 -1.61806 -1.20088 0
M  V30 1711 O 157.351 -1.5607 -1.9849 0
M  V30 1712 C 158.664 -2.84031 0.987264 0
M  V30 1713 C 160.212 -2.97742 0.96534 0
M  V30 1714 C 160.687 -4.27743 1.63708 0
M  V30 1715 N 162.178 -4.34555 1.60364 0
M  V30 1716 C 162.913 -5.33862 2.09234 0
M  V30 1717 N 162.409 -6.39578 2.66292 0
M  V30 1718 N 164.202 -5.25366 1.99867 0
M  V30 1719 H 156.353 -1.39457 1.60205 0
M  V30 1720 H 158.616 -0.668237 0.672431 0
M  V30 1721 H 158.322 -2.86338 2.04215 0
M  V30 1722 H 158.196 -3.73534 0.524588 0
M  V30 1723 H 160.583 -2.94989 -0.0810639 0
M  V30 1724 H 160.664 -2.09589 1.4665 0
M  V30 1725 H 160.308 -4.31255 2.68293 0
M  V30 1726 H 160.238 -5.14752 1.11076 0
M  V30 1727 H 162.729 -3.58772 1.18705 0
M  V30 1728 H 163.042 -7.11637 3.01317 0
M  V30 1729 H 161.387 -6.40265 2.70343 0
M  V30 1730 H 164.578 -4.41688 1.55013 0
M  V30 1731 H 164.751 -6.02606 2.38265 0
M  V30 1732 N 158.157 -0.370918 -1.53173 0
M  V30 1733 C 159.397 0.217106 -2.03244 0
M  V30 1734 C 159.761 1.45558 -1.25207 0
M  V30 1735 O 160.962 2.11957 -1.65311 0
M  V30 1736 C 159.233 0.496664 -3.53932 0
M  V30 1737 S 160.792 1.0576 -4.25864 0
M  V30 1738 H 157.61 0.0627827 -0.708223 0
M  V30 1739 H 160.212 -0.515019 -1.88594 0
M  V30 1740 H 158.916 -0.412096 -4.08326 0
M  V30 1741 H 158.447 1.25772 -3.72753 0
M  V30 1742 H 160.462 2.34145 -4.37482 0
M  V30 1743 N 159.635 1.57281 -0.100228 0
M  V30 1744 C 160.884 1.93713 0.561984 0
M  V30 1745 C 161.197 0.984492 1.69018 0
M  V30 1746 O 162.403 1.24273 2.41389 0
M  V30 1747 C 160.859 3.4421 1.05106 0
M  V30 1748 C 160.467 4.47975 -0.0476628 0
M  V30 1749 C 162.211 3.89595 1.68571 0
M  V30 1750 C 160.118 5.89631 0.457055 0
M  V30 1751 H 159.048 0.723082 0.2137 0
M  V30 1752 H 161.699 1.82644 -0.177057 0
M  V30 1753 H 160.081 3.50449 1.84395 0
M  V30 1754 H 161.255 4.53385 -0.823333 0
M  V30 1755 H 159.57 4.1223 -0.587816 0
M  V30 1756 H 162.167 4.92832 2.07414 0
M  V30 1757 H 162.51 3.28526 2.55688 0
M  V30 1758 H 163.043 3.86078 0.958562 0
M  V30 1759 H 159.782 6.54411 -0.377616 0
M  V30 1760 H 159.302 5.87681 1.19962 0
M  V30 1761 H 160.981 6.40363 0.92437 0
M  V30 1762 N 161.113 -0.173488 1.56642 0
M  V30 1763 C 162.529 -0.525174 1.50712 0
M  V30 1764 C 162.729 -1.8476 0.804107 0
M  V30 1765 O 161.785 -2.49869 0.363574 0
M  V30 1766 C 163.098 -0.559937 2.95441 0
M  V30 1767 C 164.646 -0.647288 3.06234 0
M  V30 1768 C 165.121 -0.712963 4.52417 0
M  V30 1769 N 166.612 -0.775911 4.56655 0
M  V30 1770 C 167.347 -0.847264 5.67106 0
M  V30 1771 N 166.843 -0.879585 6.87194 0
M  V30 1772 N 168.636 -0.886117 5.55071 0
M  V30 1773 H 160.787 0.693681 2.00753 0
M  V30 1774 H 163.05 0.249841 0.914485 0
M  V30 1775 H 162.756 0.343049 3.50023 0
M  V30 1776 H 162.63 -1.40718 3.49969 0
M  V30 1777 H 165.017 -1.5407 2.51687 0
M  V30 1778 H 165.098 0.226586 2.54794 0
M  V30 1779 H 164.742 0.176183 5.07594 0
M  V30 1780 H 164.672 -1.60295 5.0161 0
M  V30 1781 H 167.163 -0.759304 3.70193 0
M  V30 1782 H 167.476 -0.935144 7.67121 0
M  V30 1783 H 165.821 -0.847898 6.89808 0
M  V30 1784 H 169.012 -0.857853 4.60172 0
M  V30 1785 H 169.185 -0.938263 6.41171 0
M  V30 1786 N 162.591 -1.51276 -0.441967 0
M  V30 1787 C 163.541 -1.6864 -1.53442 0
M  V30 1788 C 164.525 -0.540444 -1.51552 0
M  V30 1789 O 165.717 -0.796157 -1.58083 0
M  V30 1790 C 162.846 -1.8106 -2.91672 0
M  V30 1791 C 161.932 -3.01424 -2.98336 0
M  V30 1792 N 162.323 -4.2467 -2.74752 0
M  V30 1793 C 160.621 -3.00584 -3.29493 0
M  V30 1794 C 161.322 -5.05891 -2.87139 0
M  V30 1795 N 160.298 -4.40442 -3.18609 0
M  V30 1796 H 164.1 -2.61598 -1.33954 0
M  V30 1797 H 161.614 -1.4886 -0.6492 0
M  V30 1798 H 163.611 -1.91609 -3.70259 0
M  V30 1799 H 162.271 -0.892795 -3.12185 0
M  V30 1800 H 163.282 -4.53691 -2.49769 0
M  V30 1801 H 159.959 -2.18417 -3.55809 0
M  V30 1802 H 161.349 -6.13983 -2.72899 0
M  V30 1803 N 164.069 0.697108 -1.41344 0
M  V30 1804 C 165.318 1.45279 -1.39918 0
M  V30 1805 C 165.631 1.95597 -0.0109624 0
M  V30 1806 O 166.837 2.71208 0.125919 0
M  V30 1807 C 165.293 2.62695 -2.46007 0
M  V30 1808 C 164.901 2.19169 -3.90729 0
M  V30 1809 C 166.645 3.40336 -2.53715 0
M  V30 1810 C 164.552 3.33535 -4.88373 0
M  V30 1811 H 163.482 0.545692 -0.520323 0
M  V30 1812 H 166.133 0.756929 -1.67161 0
M  V30 1813 H 164.515 3.34541 -2.11892 0
M  V30 1814 H 165.689 1.54623 -4.34083 0
M  V30 1815 H 164.004 1.54525 -3.86666 0
M  V30 1816 H 166.601 4.2547 -3.2385 0
M  V30 1817 H 166.944 3.85418 -1.5735 0
M  V30 1818 H 167.477 2.75546 -2.86913 0
M  V30 1819 H 164.216 2.93468 -5.86137 0
M  V30 1820 H 163.736 3.96936 -4.49668 0
M  V30 1821 H 165.415 3.99335 -5.09059 0
M  V30 1822 N 165.547 1.27147 0.931209 0
M  V30 1823 C 166.477 1.12081 2.04842 0
M  V30 1824 C 167.458 0.0232364 1.70084 0
M  V30 1825 O 168.643 0.197085 1.93197 0
M  V30 1826 C 165.773 0.76354 3.38803 0
M  V30 1827 C 164.727 1.81396 3.87659 0
M  V30 1828 C 164.053 1.31075 5.18385 0
M  V30 1829 C 165.353 3.21739 4.11438 0
M  V30 1830 H 167.047 2.05537 2.17703 0
M  V30 1831 H 164.593 0.989603 1.04608 0
M  V30 1832 H 166.546 0.644982 4.16435 0
M  V30 1833 H 165.27 -0.206727 3.25945 0
M  V30 1834 H 163.929 1.92136 3.12217 0
M  V30 1835 H 163.577 0.330037 5.01916 0
M  V30 1836 H 163.277 2.013 5.52044 0
M  V30 1837 H 164.801 1.20506 5.98591 0
M  V30 1838 H 166.215 3.14019 4.79651 0
M  V30 1839 H 164.612 3.89644 4.56397 0
M  V30 1840 H 165.682 3.67054 3.16859 0
M  V30 1841 N 167.025 -1.13721 1.09112 0
M  V30 1842 C 168.255 -1.88499 0.845671 0
M  V30 1843 C 168.663 -1.79218 -0.606432 0
M  V30 1844 O 168.006 -1.1544 -1.42896 0
M  V30 1845 C 168.068 -3.38954 1.19793 0
M  V30 1846 C 167.732 -3.72018 2.65428 0
M  V30 1847 C 168.729 -3.7153 3.63677 0
M  V30 1848 C 166.414 -4.01775 3.01467 0
M  V30 1849 C 168.408 -4.00336 4.95994 0
M  V30 1850 C 166.095 -4.30243 4.33975 0
M  V30 1851 C 167.093 -4.29508 5.31048 0
M  V30 1852 O 166.781 -4.5728 6.61173 0
M  V30 1853 H 166.513 -0.603702 0.304171 0
M  V30 1854 H 169.067 -1.44903 1.45576 0
M  V30 1855 H 167.297 -3.83039 0.530871 0
M  V30 1856 H 168.986 -3.95052 0.932146 0
M  V30 1857 H 169.752 -3.4862 3.37179 0
M  V30 1858 H 165.631 -4.01496 2.26544 0
M  V30 1859 H 169.175 -3.99678 5.71755 0
M  V30 1860 H 165.072 -4.52625 4.60219 0
M  V30 1861 H 165.84 -4.74964 6.66597 0
M  V30 1862 N 168.503 -0.877838 -1.30888 0
M  V30 1863 C 169.451 -0.328662 -2.30266 0
M  V30 1864 C 170.445 0.560496 -1.59859 0
M  V30 1865 O 171.651 0.445722 -1.74394 0
M  V30 1866 H 168.026 -0.0876142 -0.746879 0
M  V30 1867 H 169.997 -1.18061 -2.74051 0
M  V30 1868 C 168.746 0.448071 -3.44801 0
M  V30 1869 H 168.069 -0.226859 -3.99156 0
M  V30 1870 H 169.509 0.797541 -4.16432 0
M  V30 1871 C 167.968 1.64239 -2.94155 0
M  V30 1872 O 168.498 2.74175 -2.93583 0
M  V30 1873 N 166.704 1.47716 -2.50256 0
M  V30 1874 H 166.251 0.582821 -2.5092 0
M  V30 1875 H 166.209 2.27765 -2.16727 0
M  V30 1876 N 169.982 1.44106 -0.638065 0
M  V30 1877 C 170.892 2.34513 0.0637334 0
M  V30 1878 C 171.908 1.53018 0.828346 0
M  V30 1879 O 173.084 1.85723 0.779036 0
M  V30 1880 C 170.149 3.31095 1.02844 0
M  V30 1881 C 169.21 4.28497 0.26244 0
M  V30 1882 C 168.443 5.20465 1.1812 0
M  V30 1883 O 168.666 5.16514 2.42011 0
M  V30 1884 O 167.6 5.98251 0.661774 0
M  V30 1885 H 171.426 2.95989 -0.68003 0
M  V30 1886 H 169.011 1.43994 -0.398252 0
M  V30 1887 H 170.893 3.90526 1.58327 0
M  V30 1888 H 169.568 2.72144 1.7527 0
M  V30 1889 H 168.475 3.72592 -0.335602 0
M  V30 1890 H 169.808 4.90388 -0.421936 0
M  V30 1891 N 171.46 0.379036 1.52974 0
M  V30 1892 C 172.392 -0.495963 2.2377 0
M  V30 1893 C 173.405 -1.03517 1.25651 0
M  V30 1894 O 174.594 -0.939249 1.51791 0
M  V30 1895 C 171.694 -1.69894 2.93239 0
M  V30 1896 C 170.867 -1.2889 4.17979 0
M  V30 1897 C 169.926 -2.35543 4.70538 0
M  V30 1898 O 168.952 -1.97375 5.33883 0
M  V30 1899 N 170.154 -3.67318 4.49508 0
M  V30 1900 H 172.919 0.110523 2.99496 0
M  V30 1901 H 170.48 0.204878 1.60598 0
M  V30 1902 H 172.472 -2.40747 3.25304 0
M  V30 1903 H 171.042 -2.212 2.20883 0
M  V30 1904 H 170.262 -0.409676 3.92065 0
M  V30 1905 H 171.55 -0.991443 4.99047 0
M  V30 1906 H 170.948 -4.01095 3.98923 0
M  V30 1907 H 169.505 -4.34235 4.8609 0
M  V30 1908 N 172.938 -1.57226 0.108567 0
M  V30 1909 C 174.354 -1.5766 -0.248058 0
M  V30 1910 C 174.554 -1.12063 -1.67464 0
M  V30 1911 O 173.61 -0.803236 -2.39383 0
M  V30 1912 C 174.923 -3.0069 -0.0242287 0
M  V30 1913 C 176.471 -3.12868 -0.0909372 0
M  V30 1914 C 176.946 -4.57879 0.105067 0
M  V30 1915 N 178.437 -4.63172 0.0506846 0
M  V30 1916 C 179.172 -5.73126 0.177396 0
M  V30 1917 N 178.668 -6.91866 0.359696 0
M  V30 1918 N 180.461 -5.61977 0.117709 0
M  V30 1919 H 172.612 -1.85169 1.04049 0
M  V30 1920 H 174.875 -0.85529 0.40888 0
M  V30 1921 H 174.581 -3.38299 0.961604 0
M  V30 1922 H 174.455 -3.6945 -0.76068 0
M  V30 1923 H 176.842 -2.75124 -1.06729 0
M  V30 1924 H 176.923 -2.46672 0.677225 0
M  V30 1925 H 176.567 -4.96321 1.07834 0
M  V30 1926 H 176.497 -5.22153 -0.682954 0
M  V30 1927 H 178.988 -3.778 -0.0871266 0
M  V30 1928 H 179.301 -7.71503 0.447529 0
M  V30 1929 H 177.646 -6.93874 0.395536 0
M  V30 1930 H 180.837 -4.68094 -0.0236741 0
M  V30 1931 H 181.01 -6.47627 0.219905 0
M  V30 1932 N 174.416 0.165178 -1.56732 0
M  V30 1933 C 175.346 1.20651 -1.99914 0
M  V30 1934 C 176.327 1.45827 -0.875705 0
M  V30 1935 O 177.512 1.57057 -1.14223 0
M  V30 1936 C 174.642 2.54401 -2.36427 0
M  V30 1937 C 173.596 2.43782 -3.51787 0
M  V30 1938 C 172.922 3.82078 -3.7406 0
M  V30 1939 C 174.222 1.93732 -4.85041 0
M  V30 1940 H 175.916 0.847534 -2.87154 0
M  V30 1941 H 173.462 0.40625 -1.38151 0
M  V30 1942 H 175.415 3.27458 -2.65234 0
M  V30 1943 H 174.139 2.92098 -1.46103 0
M  V30 1944 H 172.798 1.73178 -3.23117 0
M  V30 1945 H 172.446 4.17179 -2.81017 0
M  V30 1946 H 172.146 3.7584 -4.51684 0
M  V30 1947 H 173.67 4.56712 -4.05274 0
M  V30 1948 H 175.084 2.56569 -5.12684 0
M  V30 1949 H 173.481 1.98428 -5.66345 0
M  V30 1950 H 174.551 0.891962 -4.76626 0
M  V30 1951 N 175.894 1.51508 0.433938 0
M  V30 1952 C 177.14 1.64588 1.18484 0
M  V30 1953 C 177.473 0.362666 1.90784 0
M  V30 1954 O 176.748 -0.637892 1.83742 0
M  V30 1955 C 177.031 2.85149 2.19913 0
M  V30 1956 C 176.884 4.23456 1.51674 0
M  V30 1957 C 178.203 3.01227 3.20858 0
M  V30 1958 H 175.322 0.598994 0.429389 0
M  V30 1959 H 177.964 1.84002 0.473647 0
M  V30 1960 H 176.114 2.68729 2.80566 0
M  V30 1961 H 177.786 4.51552 0.943322 0
M  V30 1962 H 176.029 4.25998 0.819035 0
M  V30 1963 H 176.7 5.03812 2.2556 0
M  V30 1964 H 179.176 3.16382 2.70263 0
M  V30 1965 H 178.052 3.87141 3.89118 0
M  V30 1966 H 178.313 2.13447 3.8716 0
M  V30 1967 N 177.372 -0.689602 1.41712 0
M  V30 1968 C 178.788 -1.00093 1.24312 0
M  V30 1969 C 178.988 -2.01036 0.136729 0
M  V30 1970 O 178.044 -2.47562 -0.496918 0
M  V30 1971 C 179.357 -1.51985 2.59463 0
M  V30 1972 C 180.905 -1.63838 2.66695 0
M  V30 1973 C 181.38 -2.1913 4.02177 0
M  V30 1974 N 182.871 -2.26483 4.04054 0
M  V30 1975 C 183.606 -2.70306 5.0569 0
M  V30 1976 N 183.102 -3.13691 6.17713 0
M  V30 1977 N 184.895 -2.69923 4.9305 0
M  V30 1978 H 177.046 -0.0210029 2.1239 0
M  V30 1979 H 179.309 -0.0718733 0.945272 0
M  V30 1980 H 179.015 -0.85269 3.41207 0
M  V30 1981 H 178.889 -2.50103 2.82362 0
M  V30 1982 H 181.276 -2.29664 1.85306 0
M  V30 1983 H 181.357 -0.642492 2.476 0
M  V30 1984 H 181.001 -1.53918 4.84016 0
M  V30 1985 H 180.931 -3.19482 4.18615 0
M  V30 1986 H 183.422 -1.95874 3.23174 0
M  V30 1987 H 183.735 -3.45773 6.9113 0
M  V30 1988 H 182.08 -3.11585 6.21241 0
M  V30 1989 H 185.271 -2.35382 4.04614 0
M  V30 1990 H 185.444 -3.03758 5.72394 0
M  V30 1991 N 178.85 -1.27639 -0.924453 0
M  V30 1992 C 179.76 -1.12466 -2.05885 0
M  V30 1993 C 180.776 -0.053869 -1.73917 0
M  V30 1994 O 181.952 -0.261012 -1.99702 0
M  V30 1995 C 179.017 -0.776768 -3.37886 0
M  V30 1996 C 178.078 -1.92878 -3.83532 0
M  V30 1997 C 177.311 -1.59739 -5.09234 0
M  V30 1998 O 177.534 -0.506782 -5.68144 0
M  V30 1999 O 176.468 -2.43761 -5.50331 0
M  V30 2000 H 180.294 -2.07671 -2.21599 0
M  V30 2001 H 177.879 -1.06857 -1.04413 0
M  V30 2002 H 179.761 -0.596229 -4.17161 0
M  V30 2003 H 178.436 0.145732 -3.23372 0
M  V30 2004 H 177.343 -2.1644 -3.0513 0
M  V30 2005 H 178.676 -2.8316 -4.02593 0
M  V30 2006 N 180.328 1.1314 -1.09713 0
M  V30 2007 C 181.291 2.16831 -0.742751 0
M  V30 2008 C 182.291 1.59159 0.229129 0
M  V30 2009 O 183.481 1.74199 0.00693237 0
M  V30 2010 C 180.613 3.40756 -0.0989168 0
M  V30 2011 H 181.806 2.49695 -1.66109 0
M  V30 2012 H 179.359 1.2802 -0.896699 0
M  V30 2013 H 180.094 3.13485 0.830514 0
M  V30 2014 H 179.879 3.83888 -0.798265 0
M  V30 2015 H 181.369 4.17386 0.133524 0
M  V30 2016 N 181.806 0.884767 1.30421 0
M  V30 2017 C 182.754 0.340869 2.30089 0
M  V30 2018 C 183.748 -0.55201 1.60154 0
M  V30 2019 O 184.954 -0.436467 1.74628 0
M  V30 2020 H 181.329 0.0915739 0.746404 0
M  V30 2021 H 183.3 1.19513 2.73421 0
M  V30 2022 C 182.049 -0.429779 3.45034 0
M  V30 2023 H 181.372 0.248024 3.9903 0
M  V30 2024 H 182.812 -0.775445 4.16849 0
M  V30 2025 C 181.271 -1.62677 2.95022 0
M  V30 2026 O 181.801 -2.72614 2.95033 0
M  V30 2027 N 180.007 -1.46387 2.51036 0
M  V30 2028 H 179.554 -0.569506 2.51226 0
M  V30 2029 H 179.512 -2.26612 2.17932 0
M  V30 2030 N 183.284 -1.43765 0.645699 0
M  V30 2031 C 184.232 -2.32516 -0.0624849 0
M  V30 2032 C 185.226 -1.48183 -0.820855 0
M  V30 2033 O 186.432 -1.64439 -0.732106 0
M  V30 2034 H 182.807 -0.750989 -0.0389864 0
M  V30 2035 H 184.778 -2.89979 0.703892 0
M  V30 2036 C 183.527 -3.32389 -1.02044 0
M  V30 2037 H 182.85 -3.97301 -0.446312 0
M  V30 2038 H 184.29 -3.97138 -1.48517 0
M  V30 2039 C 182.749 -2.62416 -2.11281 0
M  V30 2040 O 183.279 -2.434 -3.19561 0
M  V30 2041 N 181.485 -2.21913 -1.87624 0
M  V30 2042 H 181.032 -2.37578 -0.995703 0
M  V30 2043 H 180.99 -1.75424 -2.6091 0
M  V30 2044 N 184.763 -0.387143 -1.52771 0
M  V30 2045 C 186.011 0.195349 -2.01154 0
M  V30 2046 C 186.332 1.475 -1.27549 0
M  V30 2047 O 185.602 1.91878 -0.394924 0
M  V30 2048 H 184.182 0.075178 -0.743207 0
M  V30 2049 H 186.844 -0.518337 -1.87881 0
M  V30 2050 H 185.94 0.407096 -3.09434 0
M  V30 2051 N 186.241 1.57166 -0.116904 0
M  V30 2052 C 187.466 1.999 0.55271 0
M  V30 2053 C 187.891 0.996039 1.59564 0
M  V30 2054 O 187.249 -0.032556 1.81271 0
M  V30 2055 C 187.297 3.4152 1.15742 0
M  V30 2056 O 186.401 3.44106 2.27299 0
M  V30 2057 H 185.742 0.649447 0.138258 0
M  V30 2058 H 188.272 2.03573 -0.204759 0
M  V30 2059 H 188.282 3.79684 1.49346 0
M  V30 2060 H 186.957 4.14034 0.393493 0
M  V30 2061 H 185.534 3.17759 1.9515 0
M  V30 2062 N 187.719 -0.156864 1.56817 0
M  V30 2063 C 188.944 -0.890331 1.87318 0
M  V30 2064 C 189.369 -1.74394 0.704855 0
M  V30 2065 O 188.727 -1.77972 -0.345786 0
M  V30 2066 C 188.775 -1.73102 3.16336 0
M  V30 2067 O 187.879 -2.83422 2.99576 0
M  V30 2068 H 187.22 -0.24857 0.615718 0
M  V30 2069 H 189.75 -0.150649 2.04045 0
M  V30 2070 H 189.76 -2.12803 3.48107 0
M  V30 2071 H 188.435 -1.10412 4.00976 0
M  V30 2072 H 187.012 -2.47199 2.7919 0
M  V30 2073 N 189.197 -1.51736 -0.425897 0
M  V30 2074 C 190.608 -1.5732 -1.00536 0
M  V30 2075 C 190.959 -0.403537 -1.92005 0
M  V30 2076 O 190.084 0.478256 -2.11049 0
M  V30 2077 C 190.679 -2.85119 -1.8301 0
M  V30 2078 C 189.238 -2.93236 -2.35987 0
M  V30 2079 C 188.385 -2.52098 -1.15508 0
M  V30 2080 H 191.336 -1.57348 -0.206739 0
M  V30 2081 H 191.357 -2.69526 -2.68581 0
M  V30 2082 H 190.869 -3.7023 -1.16411 0
M  V30 2083 H 188.97 -2.12581 -3.06007 0
M  V30 2084 H 189.083 -3.9713 -2.68001 0
M  V30 2085 H 187.447 -2.05558 -1.50393 0
M  V30 2086 H 188.23 -3.39565 -0.505014 0
M  V30 2087 N 190.675 0.682077 -1.42076 0
M  V30 2088 C 191.638 1.77756 -1.44691 0
M  V30 2089 C 192.638 1.5726 -0.335535 0
M  V30 2090 O 193.828 1.63686 -0.596037 0
M  V30 2091 C 190.96 3.16301 -1.27146 0
M  V30 2092 H 192.153 1.76826 -2.42224 0
M  V30 2093 H 189.706 0.891012 -1.28416 0
M  V30 2094 H 190.441 3.22862 -0.305075 0
M  V30 2095 H 190.226 3.32581 -2.07683 0
M  V30 2096 H 191.716 3.96241 -1.31843 0
M  V30 2097 N 192.153 1.28127 0.917671 0
M  V30 2098 C 193.401 1.14825 1.66312 0
M  V30 2099 C 193.722 -0.304379 1.9261 0
M  V30 2100 O 192.992 -1.21149 1.53947 0
M  V30 2101 H 191.572 0.421953 0.616413 0
M  V30 2102 H 194.234 1.608 1.10134 0
M  V30 2103 H 193.33 1.68489 2.62712 0
M  V30 2104 N 193.631 -1.12557 1.10312 0
M  V30 2105 C 194.856 -1.88405 0.867085 0
M  V30 2106 C 195.281 -1.79038 -0.576817 0
M  V30 2107 O 194.639 -1.14439 -1.40618 0
M  V30 2108 C 194.687 -3.3563 1.31851 0
M  V30 2109 O 193.791 -4.09565 0.482734 0
M  V30 2110 H 193.132 -0.585455 0.313271 0
M  V30 2111 H 195.662 -1.42352 1.4696 0
M  V30 2112 H 195.672 -3.86469 1.3079 0
M  V30 2113 H 194.347 -3.41765 2.37001 0
M  V30 2114 H 192.924 -3.68695 0.558448 0
M  V30 2115 N 195.109 -0.891671 -1.2995 0
M  V30 2116 C 196.039 -0.379797 -2.30391 0
M  V30 2117 C 197.02 0.540919 -1.6127 0
M  V30 2118 O 198.205 0.453352 -1.88834 0
M  V30 2119 C 195.335 0.400654 -3.44981 0
M  V30 2120 C 194.289 -0.428905 -4.25846 0
M  V30 2121 C 193.615 0.478557 -5.32554 0
M  V30 2122 C 194.915 -1.67458 -4.94727 0
M  V30 2123 H 196.609 -1.21914 -2.73454 0
M  V30 2124 H 194.155 -0.587675 -1.31462 0
M  V30 2125 H 196.108 0.769434 -4.14316 0
M  V30 2126 H 194.832 1.27371 -3.0074 0
M  V30 2127 H 193.491 -0.779911 -3.58208 0
M  V30 2128 H 193.139 1.34951 -4.84559 0
M  V30 2129 H 192.839 -0.0727433 -5.87555 0
M  V30 2130 H 194.363 0.843705 -6.04743 0
M  V30 2131 H 195.777 -1.376 -5.56542 0
M  V30 2132 H 194.174 -2.16659 -5.59624 0
M  V30 2133 H 195.244 -2.41518 -4.20473 0
M  V30 2134 N 196.587 1.43421 -0.653314 0
M  V30 2135 C 197.55 2.29182 0.0287951 0
M  V30 2136 C 198.55 1.42213 0.750465 0
M  V30 2137 O 199.74 1.63843 0.591701 0
M  V30 2138 C 196.872 3.24278 1.05151 0
M  V30 2139 H 198.065 2.90985 -0.725786 0
M  V30 2140 H 195.618 1.50702 -0.414545 0
M  V30 2141 H 196.353 2.6737 1.83532 0
M  V30 2142 H 196.138 3.88396 0.537687 0
M  V30 2143 H 197.628 3.88647 1.52786 0
M  V30 2144 N 198.065 0.39524 1.52563 0
M  V30 2145 C 199.342 -0.242908 1.94086 0
M  V30 2146 C 199.722 -1.63841 1.33114 0
M  V30 2147 O 199.07 -2.22928 0.501529 0
M  V30 2148 C 199.28 -0.26327 3.48006 0
M  V30 2149 C 200.628 -0.489354 4.21771 0
M  V30 2150 O 201.652 -0.343226 3.54543 0
M  V30 2151 O 200.511 -0.776169 5.4096 0
M  V30 2152 H 197.605 -0.152536 0.812811 0
M  V30 2153 H 200.151 0.450178 1.6362 0
M  V30 2154 H 198.923 0.713985 3.84731 0
M  V30 2155 H 198.546 -1.00103 3.84792 0
M  V30 2156 N 199.544 -1.57102 0.125237 0
M  V30 2157 C 200.507 -2.14471 -0.80838 0
M  V30 2158 C 201.507 -1.0811 -1.19033 0
M  V30 2159 O 202.697 -1.33856 -1.11482 0
M  V30 2160 C 199.829 -2.69005 -2.09402 0
M  V30 2161 H 201.022 -2.98297 -0.309696 0
M  V30 2162 H 198.575 -1.55807 -0.124051 0
M  V30 2163 H 199.31 -1.88785 -2.63687 0
M  V30 2164 H 199.095 -3.46799 -1.82957 0
M  V30 2165 H 200.585 -3.13278 -2.76128 0
M  V30 2166 N 201.022 0.148545 -1.56898 0
M  V30 2167 C 201.955 1.21293 -1.93296 0
M  V30 2168 C 202.933 1.41637 -0.798599 0
M  V30 2169 O 204.117 1.56275 -1.05406 0
M  V30 2170 C 201.244 2.5721 -2.20365 0
M  V30 2171 C 200.29 2.53469 -3.4301 0
M  V30 2172 S 201.123 2.00315 -4.96623 0
M  V30 2173 C 202.279 3.37964 -5.26812 0
M  V30 2174 H 202.512 0.902393 -2.83274 0
M  V30 2175 H 200.045 0.354094 -1.50285 0
M  V30 2176 H 202.003 3.35427 -2.36641 0
M  V30 2177 H 200.664 2.85454 -1.31054 0
M  V30 2178 H 199.857 3.53518 -3.59223 0
M  V30 2179 H 199.459 1.83359 -3.25968 0
M  V30 2180 H 201.751 4.34066 -5.20185 0
M  V30 2181 H 202.694 3.26606 -6.28279 0
M  V30 2182 H 203.102 3.35028 -4.54331 0
M  V30 2183 N 202.5 1.5196 0.417844 0
M  V30 2184 C 203.725 1.69717 1.1921 0
M  V30 2185 C 204.15 0.402148 1.83751 0
M  V30 2186 O 203.508 -0.639593 1.69643 0
M  V30 2187 C 203.556 2.82794 2.2374 0
M  V30 2188 O 202.66 2.47756 3.29683 0
M  V30 2189 H 202.001 0.565263 0.348387 0
M  V30 2190 H 204.531 1.98621 0.490985 0
M  V30 2191 H 204.541 3.07452 2.68212 0
M  V30 2192 H 203.216 3.76756 1.76146 0
M  V30 2193 H 201.793 2.33739 2.90552 0
M  V30 2194 N 203.978 -0.674533 1.42435 0
M  V30 2195 C 204.91 -1.80005 1.41883 0
M  V30 2196 C 205.923 -1.59667 0.31787 0
M  V30 2197 O 207.112 -1.68781 0.580973 0
M  V30 2198 C 204.212 -3.17114 1.19549 0
M  V30 2199 C 203.385 -3.64299 2.42084 0
M  V30 2200 C 202.444 -4.80142 2.15291 0
M  V30 2201 O 201.47 -4.90673 2.88493 0
M  V30 2202 N 202.672 -5.68869 1.1562 0
M  V30 2203 H 205.437 -1.80964 2.38898 0
M  V30 2204 H 202.998 -0.857633 1.37318 0
M  V30 2205 H 204.99 -3.92267 0.995417 0
M  V30 2206 H 203.56 -3.11053 0.310569 0
M  V30 2207 H 202.78 -2.79822 2.77657 0
M  V30 2208 H 204.068 -3.92567 3.23679 0
M  V30 2209 H 203.466 -5.63012 0.550765 0
M  V30 2210 H 202.023 -6.43833 1.016 0
M  V30 2211 N 205.456 -1.28612 -0.910864 0
M  V30 2212 C 206.403 -1.12786 -2.01365 0
M  V30 2213 C 207.373 -0.024201 -1.66082 0
M  V30 2214 O 208.558 -0.189667 -1.89855 0
M  V30 2215 C 205.698 -0.798743 -3.35729 0
M  V30 2216 C 204.811 -1.98173 -3.83864 0
M  V30 2217 C 203.946 -1.59298 -5.06752 0
M  V30 2218 C 202.985 -2.74245 -5.47226 0
M  V30 2219 N 202.122 -2.35842 -6.61304 0
M  V30 2220 H 206.962 -2.07142 -2.14234 0
M  V30 2221 H 204.499 -1.03093 -1.0493 0
M  V30 2222 H 206.457 -0.588662 -4.13026 0
M  V30 2223 H 205.087 0.10789 -3.2262 0
M  V30 2224 H 204.139 -2.30386 -3.02699 0
M  V30 2225 H 205.451 -2.84343 -4.09818 0
M  V30 2226 H 204.605 -1.34513 -5.916 0
M  V30 2227 H 203.344 -0.702618 -4.82612 0
M  V30 2228 H 202.349 -2.99725 -4.60918 0
M  V30 2229 H 203.574 -3.63928 -5.73353 0
M  V30 2230 H 201.52 -1.49279 -6.38789 0
M  V30 2231 H 201.437 -3.15546 -6.86998 0
M  V30 2232 H 202.705 -2.14348 -7.4945 0
M  V30 2233 N 206.934 1.1197 -1.10907 0
M  V30 2234 C 207.884 2.15946 -0.731538 0
M  V30 2235 C 208.868 1.58758 0.261699 0
M  V30 2236 O 210.06 1.76863 0.0696722 0
M  V30 2237 C 207.189 3.42877 -0.170299 0
M  V30 2238 C 206.275 4.07037 -1.19087 0
M  V30 2239 N 206.666 4.46135 -2.38322 0
M  V30 2240 C 204.964 4.33884 -1.03252 0
M  V30 2241 C 205.665 4.96331 -3.03366 0
M  V30 2242 N 204.641 4.9214 -2.30865 0
M  V30 2243 H 208.443 2.43947 -1.63912 0
M  V30 2244 H 205.957 1.28927 -0.987505 0
M  V30 2245 H 207.954 4.16732 0.118271 0
M  V30 2246 H 206.614 3.16343 0.731935 0
M  V30 2247 H 207.625 4.38345 -2.75815 0
M  V30 2248 H 204.302 4.17084 -0.186256 0
M  V30 2249 H 205.692 5.36257 -4.04818 0
M  V30 2250 N 208.412 0.89855 1.29475 0
M  V30 2251 C 209.342 0.39201 2.30186 0
M  V30 2252 C 210.323 -0.532359 1.61555 0
M  V30 2253 O 211.508 -0.443331 1.89072 0
M  V30 2254 C 208.638 -0.382353 3.45189 0
M  V30 2255 C 207.592 0.451483 4.25612 0
M  V30 2256 C 206.918 -0.450307 5.328 0
M  V30 2257 C 208.218 1.70079 4.93832 0
M  V30 2258 H 209.912 1.23362 2.72804 0
M  V30 2259 H 207.458 0.594638 1.31149 0
M  V30 2260 H 209.411 -0.747451 4.14718 0
M  V30 2261 H 208.135 -1.25774 3.01411 0
M  V30 2262 H 206.794 0.798897 3.57789 0
M  V30 2263 H 206.442 -1.32379 4.85268 0
M  V30 2264 H 206.142 0.103902 5.87508 0
M  V30 2265 H 207.666 -0.811623 6.05182 0
M  V30 2266 H 209.08 1.40549 5.55805 0
M  V30 2267 H 207.477 2.19623 5.58467 0
M  V30 2268 H 208.547 2.43744 4.19186 0
M  V30 2269 N 209.89 -1.43072 0.660911 0
M  V30 2270 C 210.822 -2.29108 -0.0647641 0
M  V30 2271 C 211.835 -1.42928 -0.779448 0
M  V30 2272 O 213.024 -1.66788 -0.635921 0
M  V30 2273 C 210.124 -3.20032 -1.11503 0
M  V30 2274 C 209.297 -4.34792 -0.476955 0
M  V30 2275 C 208.356 -5.06534 -1.42513 0
M  V30 2276 O 207.382 -5.61538 -0.930771 0
M  V30 2277 N 208.584 -5.1075 -2.75889 0
M  V30 2278 H 211.349 -2.92029 0.673731 0
M  V30 2279 H 208.91 -1.53846 0.50427 0
M  V30 2280 H 210.902 -3.64892 -1.75032 0
M  V30 2281 H 209.472 -2.58658 -1.75541 0
M  V30 2282 H 208.692 -3.92752 0.337572 0
M  V30 2283 H 209.98 -5.0879 -0.0318525 0
M  V30 2284 H 209.378 -4.67447 -3.18606 0
M  V30 2285 H 207.935 -5.59302 -3.347 0
M  V30 2286 N 211.368 -0.403325 -1.52352 0
M  V30 2287 C 212.617 0.175668 -2.00934 0
M  V30 2288 C 212.93 1.46718 -1.29356 0
M  V30 2289 O 214.136 2.12708 -1.68724 0
M  V30 2290 C 212.592 0.363612 -3.58058 0
M  V30 2291 C 212.2 -0.915472 -4.38547 0
M  V30 2292 C 213.944 0.89821 -4.14888 0
M  V30 2293 C 211.851 -0.695035 -5.87302 0
M  V30 2294 H 210.781 0.0694234 -0.750797 0
M  V30 2295 H 213.432 -0.527879 -1.75743 0
M  V30 2296 H 211.814 1.12935 -3.79555 0
M  V30 2297 H 212.988 -1.68691 -4.28812 0
M  V30 2298 H 211.303 -1.37606 -3.93006 0
M  V30 2299 H 213.9 1.07907 -5.23699 0
M  V30 2300 H 214.243 1.87126 -3.71873 0
M  V30 2301 H 214.776 0.191681 -3.97338 0
M  V30 2302 H 211.515 -1.63948 -6.34666 0
M  V30 2303 H 211.035 0.0372116 -5.99788 0
M  V30 2304 H 212.714 -0.33497 -6.46132 0
M  V30 2305 N 212.846 1.57033 -0.133567 0
M  V30 2306 C 213.794 2.17348 0.828412 0
M  V30 2307 C 214.788 1.12671 1.26498 0
M  V30 2308 O 215.994 1.30947 1.23502 0
M  V30 2309 H 212.369 0.695775 0.285309 0
M  V30 2310 H 214.34 2.96935 0.295372 0
M  V30 2311 C 213.089 2.79893 2.06289 0
M  V30 2312 H 212.412 3.60147 1.73592 0
M  V30 2313 H 213.852 3.25615 2.71572 0
M  V30 2314 C 212.311 1.77713 2.86216 0
M  V30 2315 O 212.841 1.23937 3.82103 0
M  V30 2316 N 211.047 1.47321 2.50489 0
M  V30 2317 H 210.594 1.91243 1.7258 0
M  V30 2318 H 210.552 0.79199 3.04261 0
M  V30 2319 N 214.325 -0.140222 1.56975 0
M  V30 2320 C 215.257 -1.19818 1.95388 0
M  V30 2321 C 216.27 -1.38816 0.850525 0
M  V30 2322 O 217.459 -1.38267 1.12891 0
M  V30 2323 C 214.559 -2.56189 2.21857 0
M  V30 2324 C 213.732 -2.58077 3.5315 0
M  V30 2325 C 212.791 -3.76037 3.6808 0
M  V30 2326 O 211.817 -3.60598 4.40406 0
M  V30 2327 N 213.019 -4.93763 3.05251 0
M  V30 2328 H 215.784 -0.871609 2.86746 0
M  V30 2329 H 213.345 -0.32972 1.58507 0
M  V30 2330 H 215.337 -3.33623 2.2908 0
M  V30 2331 H 213.907 -2.81111 1.36731 0
M  V30 2332 H 213.127 -1.6651 3.57307 0
M  V30 2333 H 214.415 -2.56377 4.39486 0
M  V30 2334 H 213.813 -5.09209 2.46419 0
M  V30 2335 H 212.37 -5.68949 3.18026 0
M  V30 2336 N 215.803 -1.52179 -0.40978 0
M  V30 2337 C 217.031 -1.70054 -1.17853 0
M  V30 2338 C 217.446 -0.409735 -1.843 0
M  V30 2339 O 216.803 0.614183 -1.71855 0
M  V30 2340 C 216.854 -2.83568 -2.24213 0
M  V30 2341 O 216.575 -4.0765 -1.60478 0
M  V30 2342 C 218.076 -3.12947 -3.13973 0
M  V30 2343 H 215.296 -0.569917 -0.354169 0
M  V30 2344 H 217.84 -1.98734 -0.482198 0
M  V30 2345 H 215.995 -2.57409 -2.89516 0
M  V30 2346 H 216.409 -4.70899 -2.30986 0
M  V30 2347 H 217.883 -3.95889 -3.84677 0
M  V30 2348 H 218.36 -2.26472 -3.76307 0
M  V30 2349 H 218.966 -3.40868 -2.5434 0
M  V30 2350 N 217.281 0.66697 -1.42791 0
M  V30 2351 C 218.528 1.42699 -1.43678 0
M  V30 2352 C 218.856 1.94419 -0.0560425 0
M  V30 2353 O 218.111 1.7182 0.936831 0
M  V30 2354 C 218.41 2.6349 -2.4147 0
M  V30 2355 C 218.076 2.30267 -3.8767 0
M  V30 2356 C 216.738 2.20918 -4.27491 0
M  V30 2357 C 219.09 2.03435 -4.79858 0
M  V30 2358 C 216.418 1.82873 -5.57471 0
M  V30 2359 C 218.77 1.66892 -6.10188 0
M  V30 2360 C 217.434 1.56058 -6.49001 0
M  V30 2361 H 216.704 0.522171 -0.525755 0
M  V30 2362 H 219.351 0.759785 -1.75783 0
M  V30 2363 H 217.656 3.35279 -2.0272 0
M  V30 2364 H 219.353 3.21684 -2.39417 0
M  V30 2365 H 215.943 2.38449 -3.56146 0
M  V30 2366 H 220.127 2.09586 -4.49875 0
M  V30 2367 H 215.383 1.7306 -5.86396 0
M  V30 2368 H 219.557 1.45157 -6.81104 0
M  V30 2369 H 217.184 1.26348 -7.49627 0
M  V30 2370 N 218.759 1.29093 0.90403 0
M  V30 2371 C 219.669 1.15727 2.0407 0
M  V30 2372 C 220.685 0.0815308 1.73809 0
M  V30 2373 O 221.861 0.292749 1.99261 0
M  V30 2374 C 218.926 0.830424 3.36608 0
M  V30 2375 C 217.987 1.98955 3.80415 0
M  V30 2376 C 217.22 1.6782 5.06628 0
M  V30 2377 O 217.443 0.597105 5.67266 0
M  V30 2378 O 216.377 2.52486 5.46383 0
M  V30 2379 H 220.203 2.11171 2.18267 0
M  V30 2380 H 217.788 1.08504 1.027 0
M  V30 2381 H 219.67 0.662521 4.16159 0
M  V30 2382 H 218.345 -0.0942678 3.23563 0
M  V30 2383 H 217.252 2.21267 3.01648 0
M  V30 2384 H 218.585 2.89529 3.98037 0
M  V30 2385 N 220.237 -1.11381 1.11499 0
M  V30 2386 C 221.147 -2.21019 0.786628 0
M  V30 2387 C 222.163 -1.72597 -0.220507 0
M  V30 2388 O 223.339 -2.01321 -0.0565251 0
M  V30 2389 C 220.404 -3.459 0.235333 0
M  V30 2390 C 219.465 -4.09107 1.30115 0
M  V30 2391 C 218.698 -5.28027 0.776068 0
M  V30 2392 O 218.921 -5.6904 -0.393661 0
M  V30 2393 O 217.855 -5.81835 1.54114 0
M  V30 2394 H 221.681 -2.51521 1.70209 0
M  V30 2395 H 219.266 -1.19928 0.890928 0
M  V30 2396 H 221.148 -4.21346 -0.067715 0
M  V30 2397 H 219.823 -3.17049 -0.652828 0
M  V30 2398 H 218.73 -3.35391 1.65722 0
M  V30 2399 H 220.063 -4.42139 2.16273 0
M  V30 2400 N 221.715 -0.905404 -1.28997 0
M  V30 2401 C 222.645 -0.404212 -2.29975 0
M  V30 2402 C 223.626 0.523784 -1.61835 0
M  V30 2403 O 224.811 0.433298 -1.89304 0
M  V30 2404 C 221.941 0.364042 -3.45387 0
M  V30 2405 C 220.895 -0.474048 -4.25367 0
M  V30 2406 C 220.221 0.422045 -5.33032 0
M  V30 2407 C 221.521 -1.72696 -4.92923 0
M  V30 2408 H 223.215 -1.24807 -2.72146 0
M  V30 2409 H 220.761 -0.601585 -1.30832 0
M  V30 2410 H 222.714 0.725447 -4.15109 0
M  V30 2411 H 221.438 1.24174 -3.02074 0
M  V30 2412 H 220.097 -0.81786 -3.57361 0
M  V30 2413 H 219.745 1.29804 -4.85963 0
M  V30 2414 H 219.445 -0.135057 -5.87445 0
M  V30 2415 H 220.969 0.779517 -6.05604 0
M  V30 2416 H 222.383 -1.43495 -5.55051 0
M  V30 2417 H 220.78 -2.22582 -5.57295 0
M  V30 2418 H 221.85 -2.45964 -4.17887 0
M  V30 2419 N 223.193 1.4272 -0.668489 0
M  V30 2420 C 224.609 1.55992 -0.33745 0
M  V30 2421 C 224.809 1.64933 1.15756 0
M  V30 2422 O 223.865 1.61278 1.94282 0
M  V30 2423 C 225.178 2.81314 -1.06222 0
M  V30 2424 C 226.726 2.95078 -1.04394 0
M  V30 2425 C 227.201 4.23252 -1.74991 0
M  V30 2426 N 228.692 4.3015 -1.71829 0
M  V30 2427 C 229.427 5.28127 -2.23315 0
M  V30 2428 N 228.923 6.32293 -2.83156 0
M  V30 2429 N 230.716 5.19882 -2.13726 0
M  V30 2430 H 222.867 1.3516 -1.63846 0
M  V30 2431 H 225.13 0.650174 -0.689912 0
M  V30 2432 H 224.836 2.80823 -2.11734 0
M  V30 2433 H 224.71 3.72012 -0.62344 0
M  V30 2434 H 227.097 2.951 0.0028244 0
M  V30 2435 H 227.178 2.05627 -1.52155 0
M  V30 2436 H 226.822 4.2399 -2.79633 0
M  V30 2437 H 226.752 5.11626 -1.24685 0
M  V30 2438 H 229.243 3.55499 -1.28175 0
M  V30 2439 H 229.556 7.03398 -3.20079 0
M  V30 2440 H 227.901 6.32873 -2.87223 0
M  V30 2441 H 231.092 4.37423 -1.66669 0
M  V30 2442 H 231.265 5.96077 -2.54158 0
M  V30 2443 N 224.671 0.411399 1.52136 0
M  V30 2444 C 225.601 -0.404015 2.29978 0
M  V30 2445 C 226.582 -1.04412 1.34284 0
M  V30 2446 O 227.767 -1.0527 1.63192 0
M  V30 2447 C 224.897 -1.5197 3.12286 0
M  V30 2448 C 223.851 -1.00448 4.16046 0
M  V30 2449 C 223.177 -2.21393 4.86712 0
M  V30 2450 C 224.477 -0.0569336 5.22269 0
M  V30 2451 H 226.171 0.245529 2.98392 0
M  V30 2452 H 223.717 0.119525 1.43503 0
M  V30 2453 H 225.67 -2.09715 3.6551 0
M  V30 2454 H 224.394 -2.19716 2.41646 0
M  V30 2455 H 223.053 -0.449421 3.63835 0
M  V30 2456 H 222.701 -2.87699 4.12599 0
M  V30 2457 H 222.401 -1.87571 5.56858 0
M  V30 2458 H 223.925 -2.7974 5.4275 0
M  V30 2459 H 225.339 -0.54325 5.7072 0
M  V30 2460 H 223.736 0.192594 5.99791 0
M  V30 2461 H 224.806 0.887663 4.76706 0
M  V30 2462 N 226.149 -1.5696 0.141893 0
M  V30 2463 C 227.395 -1.9625 -0.511248 0
M  V30 2464 C 227.728 -1.02654 -1.64851 0
M  V30 2465 O 227.003 -0.0679676 -1.94381 0
M  V30 2466 C 227.286 -3.45285 -1.02227 0
M  V30 2467 C 227.139 -4.49658 0.113138 0
M  V30 2468 C 228.458 -3.96698 -1.90574 0
M  V30 2469 H 225.577 -0.713567 -0.184367 0
M  V30 2470 H 228.219 -1.88698 0.222087 0
M  V30 2471 H 226.369 -3.51852 -1.64719 0
M  V30 2472 H 228.041 -4.55174 0.749302 0
M  V30 2473 H 226.284 -4.26857 0.773026 0
M  V30 2474 H 226.955 -5.51258 -0.286053 0
M  V30 2475 H 229.431 -3.92578 -1.37918 0
M  V30 2476 H 228.307 -5.01453 -2.2324 0
M  V30 2477 H 228.568 -3.3875 -2.84079 0
M  V30 2478 N 227.627 0.131896 -1.57047 0
M  V30 2479 C 228.855 0.856461 -1.88341 0
M  V30 2480 C 229.27 1.74042 -0.731757 0
M  V30 2481 O 228.627 1.80051 0.297945 0
M  V30 2482 C 228.678 1.70064 -3.18999 0
M  V30 2483 O 228.399 0.852278 -4.2973 0
M  V30 2484 C 229.9 2.53148 -3.63911 0
M  V30 2485 H 227.12 0.246885 -0.62393 0
M  V30 2486 H 229.664 0.120152 -2.04147 0
M  V30 2487 H 227.819 2.38984 -3.04902 0
M  V30 2488 H 228.233 1.43329 -5.04537 0
M  V30 2489 H 229.707 3.07931 -4.58129 0
M  V30 2490 H 230.184 3.29901 -2.89935 0
M  V30 2491 H 230.79 1.89492 -3.80753 0
M  V30 2492 N 229.106 1.52395 0.401703 0
M  V30 2493 C 230.038 1.72505 1.50912 0
M  V30 2494 C 231.051 0.605468 1.51122 0
M  V30 2495 O 232.24 0.880828 1.55254 0
M  V30 2496 C 229.34 1.75711 2.89791 0
M  V30 2497 C 228.513 3.04824 3.1369 0
M  V30 2498 C 227.572 2.99743 4.32482 0
M  V30 2499 O 226.598 3.73635 4.29402 0
M  V30 2500 N 227.8 2.18047 5.37992 0
M  V30 2501 H 230.565 2.68049 1.34052 0
M  V30 2502 H 228.126 1.50724 0.591084 0
M  V30 2503 H 230.118 1.69834 3.6734 0
M  V30 2504 H 228.688 0.876092 3.00072 0
M  V30 2505 H 227.908 3.2429 2.24119 0
M  V30 2506 H 229.196 3.90221 3.26504 0
M  V30 2507 H 228.594 1.57456 5.43345 0
M  V30 2508 H 227.151 2.18021 6.14256 0
M  V30 2509 N 230.584 -0.659388 1.43143 0
M  V30 2510 C 231.861 -1.41627 1.34912 0
M  V30 2511 C 232.241 -2.11099 -0.00607785 0
M  V30 2512 O 231.589 -2.04353 -1.02236 0
M  V30 2513 C 231.799 -2.40604 2.52805 0
M  V30 2514 C 233.147 -3.04789 2.95616 0
M  V30 2515 O 234.171 -2.50932 2.52807 0
M  V30 2516 O 233.03 -4.02421 3.69756 0
M  V30 2517 H 230.124 -0.63246 0.532844 0
M  V30 2518 H 232.67 -0.686814 1.5518 0
M  V30 2519 H 231.442 -1.88174 3.43083 0
M  V30 2520 H 231.065 -3.21009 2.34604 0
M  V30 2521 N 232.062 -1.29571 -0.897171 0
M  V30 2522 C 233.29 -1.20583 -1.68129 0
M  V30 2523 C 233.705 0.233181 -1.87354 0
M  V30 2524 O 233.062 1.15579 -1.41236 0
M  V30 2525 C 233.113 -1.91772 -3.06441 0
M  V30 2526 O 232.834 -3.30053 -2.88091 0
M  V30 2527 C 234.335 -1.89291 -4.00854 0
M  V30 2528 H 231.555 -0.417826 -0.525036 0
M  V30 2529 H 234.099 -1.70987 -1.12177 0
M  V30 2530 H 232.254 -1.45196 -3.59161 0
M  V30 2531 H 232.668 -3.65942 -3.75748 0
M  V30 2532 H 234.142 -2.43662 -4.95311 0
M  V30 2533 H 234.619 -0.869014 -4.30517 0
M  V30 2534 H 235.225 -2.35622 -3.54066 0
M  V30 2535 N 233.54 1.10788 -1.12088 0
M  V30 2536 C 234.45 2.20599 -0.798338 0
M  V30 2537 C 235.466 1.72712 0.21135 0
M  V30 2538 O 236.642 2.01348 0.0458477 0
M  V30 2539 C 233.707 3.45771 -0.253674 0
M  V30 2540 C 232.768 4.08411 -1.32283 0
M  V30 2541 C 232.001 5.27608 -0.80406 0
M  V30 2542 O 232.224 5.69241 0.363478 0
M  V30 2543 O 231.158 5.8101 -1.57198 0
M  V30 2544 H 234.984 2.50614 -1.7154 0
M  V30 2545 H 232.569 1.19454 -0.897275 0
M  V30 2546 H 234.451 4.21376 0.0453691 0
M  V30 2547 H 233.126 3.1739 0.636005 0
M  V30 2548 H 232.033 3.34507 -1.67499 0
M  V30 2549 H 233.366 4.40986 -2.18614 0
M  V30 2550 N 235.018 0.912232 1.28515 0
M  V30 2551 C 235.966 0.389597 2.29314 0
M  V30 2552 C 236.96 -0.517915 1.61289 0
M  V30 2553 O 238.166 -0.399328 1.75515 0
M  V30 2554 H 234.541 0.107386 0.744293 0
M  V30 2555 H 236.512 1.25286 2.70825 0
M  V30 2556 C 235.261 -0.356496 3.45868 0
M  V30 2557 H 234.584 0.332608 3.98414 0
M  V30 2558 H 236.024 -0.686851 4.184 0
M  V30 2559 C 234.483 -1.56383 2.98406 0
M  V30 2560 O 235.013 -2.66294 3.00749 0
M  V30 2561 N 233.219 -1.41029 2.54085 0
M  V30 2562 H 232.766 -0.516089 2.52377 0
M  V30 2563 H 232.724 -2.21939 2.22689 0
M  V30 2564 N 236.496 -1.42363 0.676048 0
M  V30 2565 C 237.406 -2.346 -0.00153389 0
M  V30 2566 C 238.422 -1.5516 -0.787485 0
M  V30 2567 O 239.598 -1.87723 -0.729521 0
M  V30 2568 C 236.663 -3.33705 -0.940298 0
M  V30 2569 C 235.724 -4.29042 -0.148739 0
M  V30 2570 C 234.957 -5.23413 -1.04279 0
M  V30 2571 O 235.18 -5.22749 -2.28232 0
M  V30 2572 O 234.114 -5.99795 -0.502925 0
M  V30 2573 H 237.94 -2.94082 0.758268 0
M  V30 2574 H 235.525 -1.42888 0.436289 0
M  V30 2575 H 237.407 -3.94586 -1.47917 0
M  V30 2576 H 236.082 -2.76695 -1.67993 0
M  V30 2577 H 234.989 -3.71571 0.43427 0
M  V30 2578 H 236.322 -4.89097 0.551805 0
M  V30 2579 N 237.974 -0.419461 -1.51915 0
M  V30 2580 C 238.904 0.391813 -2.30189 0
M  V30 2581 C 239.885 1.03699 -1.34836 0
M  V30 2582 O 241.07 1.04403 -1.63748 0
M  V30 2583 C 238.2 1.50312 -3.13087 0
M  V30 2584 C 237.154 0.9824 -4.16573 0
M  V30 2585 C 236.48 2.18809 -4.8788 0
M  V30 2586 C 237.78 0.0292356 -5.22292 0
M  V30 2587 H 239.474 -0.26135 -2.98257 0
M  V30 2588 H 237.02 -0.127134 -1.43438 0
M  V30 2589 H 238.973 2.07773 -3.66617 0
M  V30 2590 H 237.697 2.18431 -2.42807 0
M  V30 2591 H 236.356 0.430119 -3.64068 0
M  V30 2592 H 236.004 2.85507 -4.14119 0
M  V30 2593 H 235.704 1.84615 -5.57845 0
M  V30 2594 H 237.228 2.76858 -5.44226 0
M  V30 2595 H 238.642 0.512976 -5.71 0
M  V30 2596 H 237.039 -0.2244 -5.9968 0
M  V30 2597 H 238.109 -0.912931 -4.76228 0
M  V30 2598 N 239.452 1.56882 -0.150215 0
M  V30 2599 C 240.399 2.16922 0.788244 0
M  V30 2600 C 241.369 1.10303 1.24187 0
M  V30 2601 O 242.554 1.38359 1.31383 0
M  V30 2602 C 239.694 2.79754 2.02068 0
M  V30 2603 C 238.807 4.00775 1.61257 0
M  V30 2604 C 237.942 4.51595 2.79705 0
M  V30 2605 C 236.981 5.65074 2.35282 0
M  V30 2606 N 236.118 6.10499 3.4675 0
M  V30 2607 H 240.958 2.96779 0.269444 0
M  V30 2608 H 238.495 1.46599 0.12128 0
M  V30 2609 H 240.453 3.14329 2.74323 0
M  V30 2610 H 239.083 2.02536 2.51354 0
M  V30 2611 H 238.135 3.72158 0.787553 0
M  V30 2612 H 239.447 4.82978 1.24633 0
M  V30 2613 H 238.601 4.88242 3.60145 0
M  V30 2614 H 237.34 3.68406 3.19576 0
M  V30 2615 H 236.345 5.28 1.53283 0
M  V30 2616 H 237.57 6.50052 1.96493 0
M  V30 2617 H 235.516 5.30243 3.86236 0
M  V30 2618 H 235.433 6.87637 3.14152 0
M  V30 2619 H 236.701 6.51791 4.27537 0
M  V30 2620 N 240.93 -0.123565 1.57115 0
M  V30 2621 C 241.877 -1.15177 2.00007 0
M  V30 2622 C 242.847 -1.41403 0.871454 0
M  V30 2623 O 244.032 -1.53346 1.13533 0
M  V30 2624 C 241.172 -2.47436 2.40561 0
M  V30 2625 C 240.285 -2.28184 3.66819 0
M  V30 2626 C 239.42 -3.53641 3.96373 0
M  V30 2627 C 238.459 -3.29528 5.15827 0
M  V30 2628 N 237.596 -4.47175 5.41275 0
M  V30 2629 H 242.436 -0.779008 2.87638 0
M  V30 2630 H 239.973 -0.373166 1.42288 0
M  V30 2631 H 241.931 -3.24584 2.62109 0
M  V30 2632 H 240.561 -2.82614 1.55978 0
M  V30 2633 H 239.613 -1.41976 3.52912 0
M  V30 2634 H 240.925 -2.0634 4.5412 0
M  V30 2635 H 240.079 -4.39209 4.18545 0
M  V30 2636 H 238.818 -3.78512 3.07538 0
M  V30 2637 H 237.823 -2.42349 4.93505 0
M  V30 2638 H 239.048 -3.06031 6.06236 0
M  V30 2639 H 236.994 -4.72175 4.55397 0
M  V30 2640 H 236.911 -4.28419 6.22891 0
M  V30 2641 H 238.179 -5.3389 5.67963 0
M  V30 2642 N 242.408 -1.52605 -0.393616 0
M  V30 2643 C 243.338 -1.80022 -1.48709 0
M  V30 2644 C 244.319 -0.651995 -1.57108 0
M  V30 2645 O 245.504 -0.89913 -1.72132 0
M  V30 2646 C 242.634 -1.96492 -2.86371 0
M  V30 2647 C 241.588 -3.12161 -2.92813 0
M  V30 2648 C 240.914 -3.13877 -4.3288 0
M  V30 2649 C 242.214 -4.51322 -2.6288 0
M  V30 2650 H 243.908 -2.71589 -1.26015 0
M  V30 2651 H 241.454 -1.30684 -0.604778 0
M  V30 2652 H 243.407 -2.14255 -3.62867 0
M  V30 2653 H 242.131 -1.01611 -3.10391 0
M  V30 2654 H 240.79 -2.94173 -2.18764 0
M  V30 2655 H 240.438 -2.16687 -4.53933 0
M  V30 2656 H 240.138 -3.91576 -4.38112 0
M  V30 2657 H 241.662 -3.33789 -5.1129 0
M  V30 2658 H 243.076 -4.69435 -3.29096 0
M  V30 2659 H 241.473 -5.31053 -2.79468 0
M  V30 2660 H 242.543 -4.58353 -1.58242 0
M  V30 2661 N 243.887 0.651787 -1.4349 0
M  V30 2662 C 244.819 1.77725 -1.44729 0
M  V30 2663 C 245.832 1.59141 -0.343231 0
M  V30 2664 O 247.021 1.67835 -0.607751 0
M  V30 2665 C 244.121 3.15172 -1.24579 0
M  V30 2666 C 243.294 3.60402 -2.47849 0
M  V30 2667 C 242.353 4.76656 -2.22902 0
M  V30 2668 O 241.379 4.86022 -2.96263 0
M  V30 2669 N 242.581 5.66958 -1.24656 0
M  V30 2670 H 245.346 1.77141 -2.41746 0
M  V30 2671 H 242.907 0.835678 -1.38665 0
M  V30 2672 H 244.899 3.90634 -1.0577 0
M  V30 2673 H 243.469 3.1052 -0.360015 0
M  V30 2674 H 242.689 2.75369 -2.82073 0
M  V30 2675 H 243.977 3.87368 -3.29884 0
M  V30 2676 H 243.375 5.62065 -0.640265 0
M  V30 2677 H 241.932 6.42135 -1.1183 0
M  V30 2678 N 245.365 1.30045 0.890287 0
M  V30 2679 C 246.297 1.11786 2.00091 0
M  V30 2680 C 247.31 0.0626307 1.62679 0
M  V30 2681 O 248.499 0.308112 1.75821 0
M  V30 2682 C 245.599 0.681527 3.31977 0
M  V30 2683 C 244.772 1.81735 3.97858 0
M  V30 2684 C 243.831 1.37045 5.08041 0
M  V30 2685 O 242.857 2.07677 5.29961 0
M  V30 2686 N 244.059 0.246525 5.79976 0
M  V30 2687 H 246.824 2.07441 2.16306 0
M  V30 2688 H 244.385 1.2211 1.06305 0
M  V30 2689 H 246.377 0.365675 4.03045 0
M  V30 2690 H 244.947 -0.182828 3.12065 0
M  V30 2691 H 244.167 2.30159 3.20032 0
M  V30 2692 H 245.455 2.57865 4.38615 0
M  V30 2693 H 244.853 -0.34215 5.64664 0
M  V30 2694 H 243.41 -0.00990438 6.51799 0
M  V30 2695 N 246.843 -1.10192 1.12674 0
M  V30 2696 C 248.071 -1.85983 0.906527 0
M  V30 2697 C 248.486 -1.80783 -0.544333 0
M  V30 2698 O 247.843 -1.19834 -1.37645 0
M  V30 2699 C 247.894 -3.34281 1.37618 0
M  V30 2700 O 247.615 -3.39401 2.77017 0
M  V30 2701 C 249.116 -4.26938 1.19325 0
M  V30 2702 H 246.336 -0.587716 0.323775 0
M  V30 2703 H 248.88 -1.39284 1.49734 0
M  V30 2704 H 247.035 -3.78436 0.828539 0
M  V30 2705 H 247.449 -4.31838 2.97684 0
M  V30 2706 H 248.923 -5.29181 1.57071 0
M  V30 2707 H 249.4 -4.38995 0.134097 0
M  V30 2708 H 250.006 -3.8859 1.72852 0
M  V30 2709 N 248.321 -0.919034 -1.28029 0
M  V30 2710 C 249.253 -0.368762 -2.26214 0
M  V30 2711 C 250.266 0.495716 -1.55069 0
M  V30 2712 O 251.455 0.30974 -1.75792 0
M  V30 2713 C 248.555 0.491049 -3.35324 0
M  V30 2714 C 247.728 -0.352133 -4.3598 0
M  V30 2715 C 246.787 0.443622 -5.24327 0
M  V30 2716 O 245.813 -0.14566 -5.69014 0
M  V30 2717 N 247.015 1.74545 -5.53637 0
M  V30 2718 H 249.78 -1.21273 -2.74068 0
M  V30 2719 H 247.341 -0.785541 -1.41566 0
M  V30 2720 H 249.333 1.03026 -3.91366 0
M  V30 2721 H 247.903 1.23574 -2.87138 0
M  V30 2722 H 247.123 -1.07269 -3.79324 0
M  V30 2723 H 248.411 -0.928883 -5.00249 0
M  V30 2724 H 247.809 2.24666 -5.19174 0
M  V30 2725 H 246.366 2.23138 -6.12416 0
M  V30 2726 N 249.799 1.42003 -0.683588 0
M  V30 2727 C 250.709 2.34597 -0.0109075 0
M  V30 2728 C 251.725 1.55576 0.779245 0
M  V30 2729 O 252.901 1.88107 0.719555 0
M  V30 2730 C 249.966 3.34199 0.922588 0
M  V30 2731 C 249.027 4.29115 0.125984 0
M  V30 2732 C 248.26 5.23959 1.01502 0
M  V30 2733 O 248.483 5.23952 2.25456 0
M  V30 2734 O 247.417 6.00053 0.47111 0
M  V30 2735 H 251.243 2.93675 -0.773853 0
M  V30 2736 H 248.828 1.42654 -0.443861 0
M  V30 2737 H 250.71 3.95365 1.45823 0
M  V30 2738 H 249.385 2.77582 1.66523 0
M  V30 2739 H 248.292 3.71335 -0.453969 0
M  V30 2740 H 249.625 4.88798 -0.577736 0
M  V30 2741 N 251.277 0.427512 1.51691 0
M  V30 2742 C 252.507 -0.140986 2.06118 0
M  V30 2743 C 252.915 -1.37854 1.29588 0
M  V30 2744 O 252.258 -1.80411 0.346036 0
M  V30 2745 C 252.32 -0.538276 3.55447 0
M  V30 2746 C 251.984 0.591095 4.53161 0
M  V30 2747 C 252.981 1.46027 4.98971 0
M  V30 2748 C 250.666 0.769028 4.96378 0
M  V30 2749 C 252.66 2.49216 5.8666 0
M  V30 2750 C 250.347 1.80421 5.83859 0
M  V30 2751 C 251.345 2.66417 6.28897 0
M  V30 2752 O 251.033 3.68159 7.14643 0
M  V30 2753 H 250.765 -0.0157455 0.675817 0
M  V30 2754 H 253.319 0.602495 1.96365 0
M  V30 2755 H 251.549 -1.33432 3.6295 0
M  V30 2756 H 253.238 -1.0368 3.92435 0
M  V30 2757 H 254.004 1.33429 4.66285 0
M  V30 2758 H 249.883 0.109273 4.6087 0
M  V30 2759 H 253.427 3.16372 6.21735 0
M  V30 2760 H 249.324 1.93042 6.15959 0
M  V30 2761 H 250.092 3.64622 7.32798 0
M  V30 2762 N 252.755 -1.56801 0.158532 0
M  V30 2763 C 254.002 -1.9649 -0.489679 0
M  V30 2764 C 254.33 -1.04394 -1.6411 0
M  V30 2765 O 253.585 -0.0754401 -1.95555 0
M  V30 2766 C 253.884 -3.4235 -1.02623 0
M  V30 2767 C 253.55 -4.50899 0.00794526 0
M  V30 2768 C 252.212 -4.80312 0.292207 0
M  V30 2769 C 254.564 -5.16333 0.710584 0
M  V30 2770 C 251.892 -5.72461 1.28472 0
M  V30 2771 C 254.244 -6.09553 1.69199 0
M  V30 2772 C 252.908 -6.37339 1.98383 0
M  V30 2773 H 252.178 -0.719009 -0.179186 0
M  V30 2774 H 254.825 -1.8989 0.247798 0
M  V30 2775 H 253.13 -3.45838 -1.84128 0
M  V30 2776 H 254.827 -3.70393 -1.53656 0
M  V30 2777 H 251.417 -4.28015 -0.22379 0
M  V30 2778 H 255.601 -4.93732 0.504174 0
M  V30 2779 H 250.857 -5.92278 1.51714 0
M  V30 2780 H 255.031 -6.59327 2.24189 0
M  V30 2781 H 252.658 -7.08546 2.7544 0
M  V30 2782 N 254.233 0.115231 -1.57178 0
M  V30 2783 C 255.482 0.820945 -1.84237 0
M  V30 2784 C 255.795 1.80866 -0.744761 0
M  V30 2785 O 257.001 2.56083 -0.901871 0
M  V30 2786 C 255.457 1.51072 -3.26658 0
M  V30 2787 C 255.065 0.563795 -4.44438 0
M  V30 2788 C 256.809 2.20134 -3.62962 0
M  V30 2789 C 254.716 1.25701 -5.77887 0
M  V30 2790 H 253.646 0.310328 -0.687177 0
M  V30 2791 H 256.297 0.0737134 -1.83352 0
M  V30 2792 H 254.679 2.30471 -3.22024 0
M  V30 2793 H 255.853 -0.197247 -4.60378 0
M  V30 2794 H 254.168 -0.0200638 -4.16395 0
M  V30 2795 H 256.765 2.72696 -4.59936 0
M  V30 2796 H 257.108 2.98107 -2.90582 0
M  V30 2797 H 257.641 1.47619 -3.69396 0
M  V30 2798 H 254.38 0.518493 -6.53446 0
M  V30 2799 H 253.9 1.98997 -5.65827 0
M  V30 2800 H 255.579 1.78915 -6.2177 0
M  V30 2801 N 255.711 1.52812 0.385517 0
M  V30 2802 C 256.96 1.67249 1.12741 0
M  V30 2803 C 257.273 0.4205 1.91027 0
M  V30 2804 O 258.479 0.445064 2.67827 0
M  V30 2805 C 256.935 2.95583 2.05326 0
M  V30 2806 C 256.543 4.27974 1.32447 0
M  V30 2807 C 258.287 3.19386 2.7963 0
M  V30 2808 C 256.194 5.47412 2.23818 0
M  V30 2809 H 255.124 0.6231 0.424573 0
M  V30 2810 H 257.775 1.79309 0.389924 0
M  V30 2811 H 256.157 2.77277 2.82725 0
M  V30 2812 H 257.331 4.56844 0.602495 0
M  V30 2813 H 255.646 4.10459 0.700885 0
M  V30 2814 H 258.243 4.05801 3.48181 0
M  V30 2815 H 258.586 2.34604 3.43899 0
M  V30 2816 H 259.119 3.38274 2.09322 0
M  V30 2817 H 255.858 6.34612 1.64157 0
M  V30 2818 H 255.378 5.22849 2.93921 0
M  V30 2819 H 257.057 5.81423 2.83824 0
M  V30 2820 N 257.189 -0.644168 1.43834 0
M  V30 2821 C 258.121 -1.76955 1.45669 0
M  V30 2822 C 259.134 -1.58956 0.351666 0
M  V30 2823 O 260.323 -1.6751 0.616644 0
M  V30 2824 C 257.423 -3.14507 1.26248 0
M  V30 2825 C 256.596 -3.59083 2.49757 0
M  V30 2826 C 255.655 -4.75467 2.25427 0
M  V30 2827 O 254.681 -4.84444 2.98836 0
M  V30 2828 N 255.883 -5.66289 1.27661 0
M  V30 2829 H 258.648 -1.75856 2.42682 0
M  V30 2830 H 256.209 -0.828312 1.39106 0
M  V30 2831 H 258.201 -3.90067 1.0784 0
M  V30 2832 H 256.771 -3.10325 0.376478 0
M  V30 2833 H 255.991 -2.7387 2.8353 0
M  V30 2834 H 257.279 -3.85613 3.31934 0
M  V30 2835 H 256.677 -5.61718 0.670064 0
M  V30 2836 H 255.234 -6.41533 1.15234 0
M  V30 2837 N 258.668 -1.30515 -0.883378 0
M  V30 2838 C 259.898 -1.22182 -1.66599 0
M  V30 2839 C 260.306 0.217507 -1.87946 0
M  V30 2840 O 259.649 1.1554 -1.42815 0
M  V30 2841 C 259.711 -1.88146 -3.06335 0
M  V30 2842 C 259.375 -3.37476 -3.08154 0
M  V30 2843 C 260.372 -4.33443 -2.87094 0
M  V30 2844 C 258.057 -3.7895 -3.29701 0
M  V30 2845 C 260.051 -5.68858 -2.8754 0
M  V30 2846 C 257.738 -5.14482 -3.29776 0
M  V30 2847 C 258.736 -6.09246 -3.0872 0
M  V30 2848 O 258.424 -7.42302 -3.08615 0
M  V30 2849 H 258.156 -0.423898 -0.52658 0
M  V30 2850 H 260.71 -1.72703 -1.11188 0
M  V30 2851 H 258.94 -1.32157 -3.63416 0
M  V30 2852 H 260.629 -1.7391 -3.66756 0
M  V30 2853 H 261.395 -4.02733 -2.70243 0
M  V30 2854 H 257.274 -3.05631 -3.45124 0
M  V30 2855 H 260.818 -6.428 -2.71024 0
M  V30 2856 H 256.715 -5.44832 -3.46163 0
M  V30 2857 H 257.483 -7.5131 -3.24769 0
M  V30 2858 N 260.146 1.09593 -1.13257 0
M  V30 2859 C 261.078 2.16015 -0.766167 0
M  V30 2860 C 262.091 1.61423 0.211303 0
M  V30 2861 O 263.28 1.78498 -0.00863946 0
M  V30 2862 C 260.38 3.38706 -0.114662 0
M  V30 2863 C 259.553 4.22717 -1.12379 0
M  V30 2864 C 258.612 5.23835 -0.498301 0
M  V30 2865 O 257.638 5.573 -1.15781 0
M  V30 2866 N 258.84 5.75886 0.730417 0
M  V30 2867 H 261.605 2.48055 -1.68193 0
M  V30 2868 H 259.166 1.25292 -1.02535 0
M  V30 2869 H 261.158 4.03464 0.315991 0
M  V30 2870 H 259.728 3.04569 0.704011 0
M  V30 2871 H 258.948 3.54122 -1.73179 0
M  V30 2872 H 260.236 4.75673 -1.80589 0
M  V30 2873 H 259.634 5.50911 1.28504 0
M  V30 2874 H 258.191 6.42387 1.10376 0
M  V30 2875 N 261.624 0.925811 1.2754 0
M  V30 2876 C 262.534 0.428993 2.30644 0
M  V30 2877 C 263.55 -0.489387 1.66976 0
M  V30 2878 O 264.726 -0.372653 1.97922 0
M  V30 2879 C 261.791 -0.311967 3.45294 0
M  V30 2880 C 260.852 0.641098 4.24486 0
M  V30 2881 C 260.085 -0.0645955 5.33661 0
M  V30 2882 O 260.308 -1.28429 5.55754 0
M  V30 2883 O 259.242 0.606265 5.98839 0
M  V30 2884 H 263.068 1.28504 2.75173 0
M  V30 2885 H 260.653 0.691086 1.32455 0
M  V30 2886 H 262.535 -0.729972 4.15029 0
M  V30 2887 H 261.21 -1.14365 3.02824 0
M  V30 2888 H 260.117 1.10874 3.57292 0
M  V30 2889 H 261.45 1.43995 4.70666 0
M  V30 2890 N 263.102 -1.41638 0.69111 0
M  V30 2891 C 264.327 -2.06148 0.227583 0
M  V30 2892 C 264.752 -1.51652 -1.11281 0
M  V30 2893 O 264.11 -0.64164 -1.69566 0
M  V30 2894 C 264.158 -3.60095 0.190858 0
M  V30 2895 O 263.262 -4.03845 -0.835664 0
M  V30 2896 H 262.603 -0.654434 0.112306 0
M  V30 2897 H 265.133 -1.81484 0.944714 0
M  V30 2898 H 265.143 -4.07995 0.020207 0
M  V30 2899 H 263.818 -3.99129 1.16915 0
M  V30 2900 H 262.395 -3.67458 -0.63473 0
M  V30 2901 N 264.58 -0.43555 -1.51462 0
M  V30 2902 C 265.51 0.367376 -2.30592 0
M  V30 2903 C 266.491 1.02263 -1.35928 0
M  V30 2904 O 267.676 1.02661 -1.64847 0
M  V30 2905 C 264.806 1.46983 -3.14664 0
M  V30 2906 C 263.76 0.938161 -4.17591 0
M  V30 2907 C 263.086 2.13622 -4.90173 0
M  V30 2908 C 264.386 -0.0261621 -5.22293 0
M  V30 2909 H 266.08 -0.292969 -2.97963 0
M  V30 2910 H 263.626 -0.14234 -1.43295 0
M  V30 2911 H 265.579 2.03873 -3.688 0
M  V30 2912 H 264.303 2.15843 -2.4511 0
M  V30 2913 H 262.962 0.391481 -3.64504 0
M  V30 2914 H 262.61 2.81098 -4.17124 0
M  V30 2915 H 262.31 1.78688 -5.59772 0
M  V30 2916 H 263.834 2.7107 -5.47132 0
M  V30 2917 H 265.248 0.452384 -5.71512 0
M  V30 2918 H 263.645 -0.287992 -5.99409 0
M  V30 2919 H 264.715 -0.963391 -4.75233 0
M  V30 2920 N 266.058 1.56714 -0.166846 0
M  V30 2921 C 267.474 1.58473 0.189372 0
M  V30 2922 C 267.674 1.18201 1.63189 0
M  V30 2923 O 266.73 0.891528 2.36237 0
M  V30 2924 C 268.043 3.00573 -0.0873872 0
M  V30 2925 C 269.591 3.1299 -0.0252443 0
M  V30 2926 C 270.066 4.57174 -0.274934 0
M  V30 2927 N 271.557 4.62665 -0.222553 0
M  V30 2928 C 272.292 5.72072 -0.389985 0
M  V30 2929 N 271.788 6.90054 -0.616229 0
M  V30 2930 N 273.581 5.61153 -0.326202 0
M  V30 2931 H 265.732 1.8118 -1.10849 0
M  V30 2932 H 267.995 0.839525 -0.440342 0
M  V30 2933 H 267.701 3.34497 -1.0865 0
M  V30 2934 H 267.575 3.72019 0.623037 0
M  V30 2935 H 269.962 2.78895 0.96444 0
M  V30 2936 H 270.043 2.43989 -0.768309 0
M  V30 2937 H 269.687 4.91976 -1.26181 0
M  V30 2938 H 269.617 5.24328 0.48869 0
M  V30 2939 H 272.108 3.77863 -0.0531512 0
M  V30 2940 H 272.421 7.69311 -0.733559 0
M  V30 2941 H 270.766 6.91927 -0.652791 0
M  V30 2942 H 273.957 4.67859 -0.150072 0
M  V30 2943 H 274.13 6.46364 -0.460116 0
M  V30 2944 N 267.536 -0.106894 1.57237 0
M  V30 2945 C 268.785 -0.811163 1.8467 0
M  V30 2946 C 269.098 -1.80469 0.754342 0
M  V30 2947 O 270.304 -2.55601 0.915439 0
M  V30 2948 C 268.76 -1.49337 3.27454 0
M  V30 2949 C 268.368 -0.540217 4.44731 0
M  V30 2950 C 270.112 -2.18206 3.64124 0
M  V30 2951 C 268.019 -1.22634 5.78545 0
M  V30 2952 H 266.949 -0.306679 0.688813 0
M  V30 2953 H 269.6 -0.0639887 1.83388 0
M  V30 2954 H 267.982 -2.2876 3.23241 0
M  V30 2955 H 269.156 0.221659 4.60267 0
M  V30 2956 H 267.471 0.042146 4.16379 0
M  V30 2957 H 270.068 -2.70253 4.61376 0
M  V30 2958 H 270.411 -2.96562 2.92158 0
M  V30 2959 H 270.944 -1.45658 3.70174 0
M  V30 2960 H 267.683 -0.483832 6.53712 0
M  V30 2961 H 267.203 -1.95993 5.66874 0
M  V30 2962 H 268.882 -1.75615 6.2271 0
M  V30 2963 N 269.014 -1.53014 -0.377408 0
M  V30 2964 C 269.946 -1.74884 -1.48149 0
M  V30 2965 C 270.959 -0.629433 -1.5014 0
M  V30 2966 O 272.148 -0.905416 -1.53833 0
M  V30 2967 C 269.248 -1.80299 -2.86959 0
M  V30 2968 C 268.421 -3.09776 -3.08801 0
M  V30 2969 C 267.48 -3.06586 -4.27658 0
M  V30 2970 O 266.506 -3.80419 -4.23403 0
M  V30 2971 N 267.708 -2.26578 -5.34455 0
M  V30 2972 H 270.473 -2.70147 -1.29771 0
M  V30 2973 H 268.034 -1.51646 -0.56703 0
M  V30 2974 H 270.026 -1.75657 -3.64591 0
M  V30 2975 H 268.596 -0.92372 -2.98641 0
M  V30 2976 H 267.816 -3.27815 -2.18931 0
M  V30 2977 H 269.104 -3.95366 -3.20255 0
M  V30 2978 H 268.502 -1.66081 -5.40771 0
M  V30 2979 H 267.059 -2.27766 -6.10709 0
M  V30 2980 N 270.492 0.636531 -1.44174 0
M  V30 2981 C 271.455 1.73063 -1.50273 0
M  V30 2982 C 272.455 1.56113 -0.385397 0
M  V30 2983 O 273.645 1.61707 -0.64781 0
M  V30 2984 C 270.777 3.12096 -1.37145 0
M  V30 2985 H 271.97 1.69031 -2.47727 0
M  V30 2986 H 269.523 0.849706 -1.31186 0
M  V30 2987 H 270.258 3.21728 -0.407636 0
M  V30 2988 H 270.043 3.25805 -2.18159 0
M  V30 2989 H 271.533 3.91846 -1.44382 0
M  V30 2990 N 271.97 1.30982 0.876444 0
M  V30 2991 C 272.902 1.13902 1.98894 0
M  V30 2992 C 273.915 0.0798815 1.62604 0
M  V30 2993 O 275.104 0.326743 1.75484 0
M  V30 2994 C 272.204 0.716699 3.31235 0
M  V30 2995 C 271.377 1.85945 3.95908 0
M  V30 2996 C 270.436 1.42426 5.06558 0
M  V30 2997 O 269.462 2.13287 5.27729 0
M  V30 2998 N 270.664 0.308025 5.79682 0
M  V30 2999 H 273.429 2.09724 2.14094 0
M  V30 3000 H 270.99 1.2323 1.05004 0
M  V30 3001 H 272.982 0.408403 4.02634 0
M  V30 3002 H 271.552 -0.149719 3.12241 0
M  V30 3003 H 270.772 2.33541 3.17573 0
M  V30 3004 H 272.06 2.62503 4.35855 0
M  V30 3005 H 271.458 -0.282241 5.64995 0
M  V30 3006 H 270.015 0.0592282 6.51773 0
M  V30 3007 N 273.449 -1.08991 1.13837 0
M  V30 3008 C 274.696 -1.81258 0.902882 0
M  V30 3009 C 275.024 -1.85936 -0.570803 0
M  V30 3010 O 274.279 -1.3267 -1.43865 0
M  V30 3011 C 274.578 -3.27042 1.44147 0
M  V30 3012 C 274.244 -3.4249 2.93276 0
M  V30 3013 C 272.906 -3.46414 3.33992 0
M  V30 3014 C 275.258 -3.4666 3.892 0
M  V30 3015 C 272.586 -3.52091 4.69307 0
M  V30 3016 C 274.938 -3.53872 5.24364 0
M  V30 3017 C 273.602 -3.56066 5.646 0
M  V30 3018 H 272.872 -0.663268 0.330388 0
M  V30 3019 H 275.519 -1.28368 1.42105 0
M  V30 3020 H 273.824 -3.82599 0.844097 0
M  V30 3021 H 275.521 -3.81499 1.23528 0
M  V30 3022 H 272.111 -3.40124 2.60794 0
M  V30 3023 H 276.295 -3.42865 3.58828 0
M  V30 3024 H 271.551 -3.52079 4.9985 0
M  V30 3025 H 275.725 -3.56043 5.98503 0
M  V30 3026 H 273.352 -3.60218 6.69438 0
M  V30 3027 N 274.927 -0.932562 -1.27047 0
M  V30 3028 C 276.175 -0.574422 -1.93765 0
M  V30 3029 C 276.496 0.887993 -1.73608 0
M  V30 3030 O 275.766 1.62999 -1.08665 0
M  V30 3031 H 274.346 -0.209451 -0.717035 0
M  V30 3032 H 277.008 -1.18601 -1.5466 0
M  V30 3033 H 276.104 -0.784841 -3.02071 0
M  V30 3034 N 276.405 1.4127 -0.698611 0
M  V30 3035 C 277.816 1.84187 -0.305289 0
M  V30 3036 C 278.167 1.58449 1.15708 0
M  V30 3037 O 277.292 1.05651 1.88856 0
M  V30 3038 C 277.887 3.3435 -0.547314 0
M  V30 3039 C 276.446 3.75826 -0.207878 0
M  V30 3040 C 275.593 2.64647 -0.828099 0
M  V30 3041 H 278.544 1.30778 -0.89904 0
M  V30 3042 H 278.565 3.8001 0.192998 0
M  V30 3043 H 278.077 3.53051 -1.61172 0
M  V30 3044 H 276.178 3.62725 0.852143 0
M  V30 3045 H 276.291 4.74462 -0.665021 0
M  V30 3046 H 274.655 2.53395 -0.257458 0
M  V30 3047 H 275.438 2.86165 -1.89643 0
M  V30 3048 N 277.883 0.443576 1.51229 0
M  V30 3049 C 278.813 -0.355142 2.30783 0
M  V30 3050 C 279.794 -1.0154 1.36468 0
M  V30 3051 O 280.979 -1.01785 1.65389 0
M  V30 3052 C 278.109 -1.45312 3.15439 0
M  V30 3053 C 277.063 -0.916002 4.18083 0
M  V30 3054 C 276.389 -2.1102 4.91299 0
M  V30 3055 C 277.689 0.0538602 5.22272 0
M  V30 3056 H 279.383 0.308767 2.97804 0
M  V30 3057 H 276.929 0.149937 1.43217 0
M  V30 3058 H 278.882 -2.01914 3.69876 0
M  V30 3059 H 277.606 -2.14541 2.46252 0
M  V30 3060 H 276.265 -0.372145 3.64706 0
M  V30 3061 H 275.913 -2.78882 4.18609 0
M  V30 3062 H 275.613 -1.75717 5.60712 0
M  V30 3063 H 277.137 -2.68164 5.48562 0
M  V30 3064 H 278.551 -0.422069 5.71744 0
M  V30 3065 H 276.948 0.319776 5.99247 0
M  V30 3066 H 278.018 0.98858 4.74716 0
M  V30 3067 N 279.361 -1.56624 0.175154 0
M  V30 3068 C 280.324 -2.16934 -0.739738 0
M  V30 3069 C 281.324 -1.11842 -1.15533 0
M  V30 3070 O 282.514 -1.37335 -1.07167 0
M  V30 3071 C 279.646 -2.75531 -2.00738 0
M  V30 3072 H 280.839 -2.99131 -0.214639 0
M  V30 3073 H 278.392 -1.56123 -0.0744197 0
M  V30 3074 H 279.127 -1.97078 -2.57548 0
M  V30 3075 H 278.912 -3.52444 -1.71831 0
M  V30 3076 H 280.402 -3.21904 -2.66021 0
M  V30 3077 N 280.839 0.0985539 -1.57292 0
M  V30 3078 C 281.771 1.14595 -1.98496 0
M  V30 3079 C 282.784 1.36512 -0.887031 0
M  V30 3080 O 283.973 1.35225 -1.16518 0
M  V30 3081 C 281.073 2.50216 -2.28572 0
M  V30 3082 C 280.246 2.48624 -3.59868 0
M  V30 3083 C 279.305 3.66146 -3.7792 0
M  V30 3084 O 278.331 3.48795 -4.49812 0
M  V30 3085 N 279.533 4.85496 -3.18235 0
M  V30 3086 H 282.298 0.795277 -2.88956 0
M  V30 3087 H 279.859 0.287579 -1.59325 0
M  V30 3088 H 281.851 3.27432 -2.37845 0
M  V30 3089 H 280.421 2.77387 -1.44136 0
M  V30 3090 H 279.641 1.56978 -3.61596 0
M  V30 3091 H 280.929 2.44635 -4.46129 0
M  V30 3092 H 280.327 5.02497 -2.59833 0
M  V30 3093 H 278.884 5.60317 -3.32999 0
M  V30 3094 N 282.317 1.53212 0.369288 0
M  V30 3095 C 283.247 1.82365 1.45826 0
M  V30 3096 C 284.228 0.676907 1.56051 0
M  V30 3097 O 285.413 0.926401 1.70679 0
M  V30 3098 C 282.543 2.01023 2.83208 0
M  V30 3099 C 281.497 3.1678 2.8781 0
M  V30 3100 C 280.823 3.20724 4.27832 0
M  V30 3101 C 282.123 4.55447 2.55667 0
M  V30 3102 H 283.817 2.73559 1.21678 0
M  V30 3103 H 281.363 1.3163 0.583911 0
M  V30 3104 H 283.316 2.20001 3.59413 0
M  V30 3105 H 282.04 1.06536 3.08736 0
M  V30 3106 H 280.699 2.97616 2.14056 0
M  V30 3107 H 280.347 2.23882 4.50429 0
M  V30 3108 H 280.047 3.98496 4.31827 0
M  V30 3109 H 281.571 3.41881 5.05915 0
M  V30 3110 H 282.985 4.74611 3.21586 0
M  V30 3111 H 281.382 5.35432 2.70984 0
M  V30 3112 H 282.452 4.60812 1.5093 0
M  V30 3113 N 283.795 -0.628877 1.44509 0
M  V30 3114 C 285.02 -1.42048 1.5112 0
M  V30 3115 C 285.445 -1.87594 0.137818 0
M  V30 3116 O 284.803 -1.58873 -0.873437 0
M  V30 3117 C 284.851 -2.61541 2.48251 0
M  V30 3118 O 283.955 -3.61453 1.98559 0
M  V30 3119 H 283.296 -0.424942 0.510216 0
M  V30 3120 H 285.826 -0.767374 1.89664 0
M  V30 3121 H 285.836 -3.09057 2.66361 0
M  V30 3122 H 284.511 -2.27736 3.48007 0
M  V30 3123 H 283.088 -3.20731 1.90227 0
M  V30 3124 N 285.273 -1.31445 -0.869486 0
M  V30 3125 C 286.684 -1.19042 -1.43826 0
M  V30 3126 C 287.035 0.202919 -1.95148 0
M  V30 3127 O 286.16 1.10071 -1.86315 0
M  V30 3128 C 286.755 -2.15499 -2.6143 0
M  V30 3129 C 285.314 -2.07028 -3.14351 0
M  V30 3130 C 284.461 -2.04701 -1.87063 0
M  V30 3131 H 287.412 -1.43489 -0.677984 0
M  V30 3132 H 287.433 -1.74488 -3.38134 0
M  V30 3133 H 286.945 -3.16899 -2.24046 0
M  V30 3134 H 285.046 -1.08825 -3.56354 0
M  V30 3135 H 285.159 -2.96157 -3.766 0
M  V30 3136 H 283.523 -1.49724 -2.06046 0
M  V30 3137 H 284.306 -3.07857 -1.51917 0
M  V30 3138 N 286.751 1.08385 -1.14413 0
M  V30 3139 C 287.683 2.1519 -0.789036 0
M  V30 3140 C 288.696 1.61638 0.19417 0
M  V30 3141 O 289.885 1.78479 -0.0275711 0
M  V30 3142 C 286.985 3.38565 -0.15058 0
M  V30 3143 C 286.158 4.21501 -1.16857 0
M  V30 3144 C 285.217 5.23277 -0.553832 0
M  V30 3145 O 284.243 5.56041 -1.21686 0
M  V30 3146 N 285.445 5.76629 0.669296 0
M  V30 3147 H 288.21 2.46257 -1.70814 0
M  V30 3148 H 285.771 1.24198 -1.03858 0
M  V30 3149 H 287.763 4.03777 0.273181 0
M  V30 3150 H 286.333 3.05299 0.671667 0
M  V30 3151 H 285.553 3.52265 -1.76926 0
M  V30 3152 H 286.841 4.73731 -1.85624 0
M  V30 3153 H 286.239 5.52243 1.22654 0
M  V30 3154 H 284.796 6.43521 1.03556 0
M  V30 3155 N 288.23 0.939286 1.26551 0
M  V30 3156 C 289.14 0.453432 2.30176 0
M  V30 3157 C 290.156 -0.471649 1.67486 0
M  V30 3158 O 291.332 -0.35164 1.98306 0
M  V30 3159 C 288.397 -0.275326 3.45605 0
M  V30 3160 C 287.458 0.686084 4.23782 0
M  V30 3161 C 286.691 -0.00798994 5.33699 0
M  V30 3162 O 286.914 -1.22528 5.57085 0
M  V30 3163 O 285.848 0.669746 5.98162 0
M  V30 3164 H 289.674 1.31416 2.73795 0
M  V30 3165 H 287.259 0.705095 1.31715 0
M  V30 3166 H 289.141 -0.685911 4.1578 0
M  V30 3167 H 287.816 -1.11147 3.0402 0
M  V30 3168 H 286.723 1.14658 3.56096 0
M  V30 3169 H 288.056 1.48979 4.69112 0
M  V30 3170 N 289.708 -1.40897 0.706093 0
M  V30 3171 C 291.124 -1.55042 0.37869 0
M  V30 3172 C 291.324 -1.67944 -1.11342 0
M  V30 3173 O 290.38 -1.66372 -1.89938 0
M  V30 3174 C 291.693 -2.78398 1.13643 0
M  V30 3175 C 293.241 -2.92206 1.12181 0
M  V30 3176 C 293.716 -4.18463 1.86152 0
M  V30 3177 N 295.207 -4.25443 1.83173 0
M  V30 3178 C 295.942 -5.2202 2.37239 0
M  V30 3179 N 295.438 -6.24563 2.99821 0
M  V30 3180 N 297.231 -5.14033 2.27435 0
M  V30 3181 H 289.382 -1.30769 1.67372 0
M  V30 3182 H 291.645 -0.631653 0.706907 0
M  V30 3183 H 291.351 -2.7511 2.19106 0
M  V30 3184 H 291.225 -3.70228 0.721853 0
M  V30 3185 H 293.612 -2.95004 0.0754171 0
M  V30 3186 H 293.693 -2.01521 1.57554 0
M  V30 3187 H 293.337 -4.16427 2.90776 0
M  V30 3188 H 293.267 -5.08141 1.38206 0
M  V30 3189 H 295.758 -3.51976 1.37556 0
M  V30 3190 H 296.071 -6.94665 3.38616 0
M  V30 3191 H 294.416 -6.25035 3.03902 0
M  V30 3192 H 297.607 -4.3285 1.78208 0
M  V30 3193 H 297.78 -5.89129 2.69873 0
M  V30 3194 N 291.186 -0.45159 -1.50991 0
M  V30 3195 C 292.116 0.342898 -2.30969 0
M  V30 3196 C 293.097 1.00815 -1.37005 0
M  V30 3197 O 294.282 1.00907 -1.65926 0
M  V30 3198 C 291.412 1.43637 -3.16205 0
M  V30 3199 C 290.366 0.893818 -4.18563 0
M  V30 3200 C 289.692 2.08411 -4.92411 0
M  V30 3201 C 290.992 -0.0815568 -5.22236 0
M  V30 3202 H 292.686 -0.324556 -2.97636 0
M  V30 3203 H 290.232 -0.157531 -1.43136 0
M  V30 3204 H 292.185 1.9995 -3.70942 0
M  V30 3205 H 290.909 2.13232 -2.47386 0
M  V30 3206 H 289.568 0.352798 -3.64898 0
M  V30 3207 H 289.216 2.76658 -4.20082 0
M  V30 3208 H 288.916 1.72741 -5.61636 0
M  V30 3209 H 290.44 2.65251 -5.49976 0
M  V30 3210 H 291.854 0.391742 -5.7196 0
M  V30 3211 H 290.251 -0.351551 -5.99069 0
M  V30 3212 H 291.321 -1.01374 -4.74185 0
M  V30 3213 N 292.664 1.56529 -0.183458 0
M  V30 3214 C 293.889 2.02064 0.467428 0
M  V30 3215 C 294.314 1.06282 1.55196 0
M  V30 3216 O 293.672 0.0443565 1.81246 0
M  V30 3217 C 293.72 3.46122 1.01153 0
M  V30 3218 O 292.824 3.53437 2.12499 0
M  V30 3219 H 292.165 0.654726 0.110588 0
M  V30 3220 H 294.695 2.02521 -0.290917 0
M  V30 3221 H 294.705 3.85676 1.33108 0
M  V30 3222 H 293.38 4.15331 0.217533 0
M  V30 3223 H 291.957 3.2575 1.81497 0
M  V30 3224 N 294.142 -0.090211 1.57342 0
M  V30 3225 C 295.558 -0.444547 1.53284 0
M  V30 3226 C 295.758 -1.80238 0.900914 0
M  V30 3227 O 294.814 -2.4759 0.495513 0
M  V30 3228 C 296.127 -0.402543 2.97993 0
M  V30 3229 C 297.675 -0.48405 3.09234 0
M  V30 3230 C 298.15 -0.472144 4.5556 0
M  V30 3231 N 299.641 -0.532757 4.60126 0
M  V30 3232 C 300.376 -0.545462 5.708 0
M  V30 3233 N 299.872 -0.514082 6.9089 0
M  V30 3234 N 301.665 -0.59064 5.58988 0
M  V30 3235 H 293.816 0.799121 1.96794 0
M  V30 3236 H 296.079 0.297965 0.899956 0
M  V30 3237 H 295.785 0.528106 3.47712 0
M  V30 3238 H 295.659 -1.21969 3.56936 0
M  V30 3239 H 298.046 -1.40512 2.595 0
M  V30 3240 H 298.127 0.361328 2.53235 0
M  V30 3241 H 297.771 0.445 5.05947 0
M  V30 3242 H 297.701 -1.3348 5.09402 0
M  V30 3243 H 300.192 -0.562006 3.73698 0
M  V30 3244 H 300.505 -0.527195 7.71 0
M  V30 3245 H 298.85 -0.481054 6.93333 0
M  V30 3246 H 302.041 -0.61272 4.64073 0
M  V30 3247 H 302.214 -0.597073 6.45243 0
M  V30 3248 N 295.62 -1.53406 -0.361157 0
M  V30 3249 C 296.53 -1.83122 -1.4664 0
M  V30 3250 C 297.546 -0.719943 -1.58407 0
M  V30 3251 O 298.722 -1.01046 -1.74218 0
M  V30 3252 C 295.787 -2.01891 -2.81853 0
M  V30 3253 C 294.848 -3.25784 -2.79577 0
M  V30 3254 C 294.081 -3.43648 -4.0834 0
M  V30 3255 O 294.304 -2.65714 -5.0473 0
M  V30 3256 O 293.238 -4.37018 -4.13883 0
M  V30 3257 H 297.064 -2.7703 -1.24451 0
M  V30 3258 H 294.649 -1.38841 -0.551678 0
M  V30 3259 H 296.531 -2.15782 -3.61962 0
M  V30 3260 H 295.206 -1.11173 -3.0401 0
M  V30 3261 H 294.113 -3.17312 -1.98151 0
M  V30 3262 H 295.446 -4.16439 -2.62373 0
M  V30 3263 N 297.098 0.621204 -1.44841 0
M  V30 3264 C 298.326 1.40752 -1.51646 0
M  V30 3265 C 298.741 1.88246 -0.144549 0
M  V30 3266 O 298.098 1.61422 0.851416 0
M  V30 3267 C 298.149 2.62119 -2.4895 0
M  V30 3268 O 297.87 2.16602 -3.80808 0
M  V30 3269 C 299.371 3.55135 -2.65319 0
M  V30 3270 H 296.591 0.431325 -0.514004 0
M  V30 3271 H 299.135 0.758835 -1.899 0
M  V30 3272 H 297.29 3.23058 -2.13805 0
M  V30 3273 H 297.704 2.95358 -4.33433 0
M  V30 3274 H 299.178 4.36874 -3.37409 0
M  V30 3275 H 299.655 4.04592 -1.70886 0
M  V30 3276 H 300.261 3.00058 -3.01405 0
M  V30 3277 N 298.576 1.31904 0.862503 0
M  V30 3278 C 299.539 1.20131 1.95195 0
M  V30 3279 C 300.539 0.126409 1.60302 0
M  V30 3280 O 301.729 0.376234 1.70089 0
M  V30 3281 C 298.861 0.845691 3.30244 0
M  V30 3282 H 300.054 2.16943 2.07064 0
M  V30 3283 H 297.607 1.15622 1.05172 0
M  V30 3284 H 298.342 -0.120957 3.24074 0
M  V30 3285 H 298.127 1.62276 3.56944 0
M  V30 3286 H 299.617 0.787418 4.10109 0
M  V30 3287 N 300.054 -1.07777 1.14986 0
M  V30 3288 C 300.984 -2.16865 0.865557 0
M  V30 3289 C 301.965 -1.69123 -0.182083 0
M  V30 3290 O 303.15 -1.94164 -0.0373815 0
M  V30 3291 C 300.28 -3.45539 0.349313 0
M  V30 3292 C 299.234 -4.06708 1.33313 0
M  V30 3293 C 298.56 -5.30411 0.675918 0
M  V30 3294 C 299.86 -4.47241 2.69764 0
M  V30 3295 H 301.554 -2.40905 1.77778 0
M  V30 3296 H 299.1 -1.15781 0.856203 0
M  V30 3297 H 301.053 -4.21174 0.137983 0
M  V30 3298 H 299.777 -3.21072 -0.598362 0
M  V30 3299 H 298.436 -3.33112 1.53075 0
M  V30 3300 H 298.084 -5.02232 -0.277767 0
M  V30 3301 H 297.784 -5.72293 1.33244 0
M  V30 3302 H 299.308 -6.08755 0.474262 0
M  V30 3303 H 300.722 -5.14025 2.53873 0
M  V30 3304 H 299.119 -5.00062 3.3175 0
M  V30 3305 H 300.189 -3.58818 3.26156 0
M  V30 3306 N 301.532 -0.945985 -1.26051 0
M  V30 3307 C 302.464 -0.416662 -2.25381 0
M  V30 3308 C 303.477 0.462712 -1.56086 0
M  V30 3309 O 304.666 0.272383 -1.7641 0
M  V30 3310 C 301.766 0.419812 -3.3629 0
M  V30 3311 C 300.939 -0.444531 -4.35135 0
M  V30 3312 C 299.998 0.332305 -5.2515 0
M  V30 3313 O 299.024 -0.266324 -5.68577 0
M  V30 3314 N 300.226 1.62763 -5.57215 0
M  V30 3315 H 302.991 -1.27059 -2.71433 0
M  V30 3316 H 300.552 -0.815392 -1.39868 0
M  V30 3317 H 302.544 0.947013 -3.93464 0
M  V30 3318 H 301.114 1.17456 -2.89694 0
M  V30 3319 H 300.334 -1.15291 -3.76964 0
M  V30 3320 H 301.622 -1.03478 -4.98166 0
M  V30 3321 H 301.02 2.13603 -5.23823 0
M  V30 3322 H 299.577 2.10097 -6.17011 0
M  V30 3323 N 303.011 1.40521 -0.713556 0
M  V30 3324 C 303.943 2.29191 -0.0203126 0
M  V30 3325 C 304.956 1.45723 0.725864 0
M  V30 3326 O 306.145 1.69033 0.573581 0
M  V30 3327 C 303.245 3.2395 0.995486 0
M  V30 3328 C 302.418 4.36262 0.315256 0
M  V30 3329 C 301.477 5.11474 1.23616 0
M  V30 3330 O 300.503 5.64606 0.721719 0
M  V30 3331 N 301.705 5.20638 2.56743 0
M  V30 3332 H 304.47 2.89327 -0.781652 0
M  V30 3333 H 302.031 1.51869 -0.561022 0
M  V30 3334 H 304.023 3.71137 1.61368 0
M  V30 3335 H 302.593 2.64995 1.6582 0
M  V30 3336 H 301.813 3.91228 -0.483106 0
M  V30 3337 H 303.101 5.08558 -0.157004 0
M  V30 3338 H 302.499 4.7895 3.01037 0
M  V30 3339 H 301.056 5.71339 3.13712 0
M  V30 3340 N 304.489 0.459591 1.5075 0
M  V30 3341 C 305.436 -0.340524 2.28274 0
M  V30 3342 C 306.406 -0.997371 1.32822 0
M  V30 3343 O 307.591 -1.01202 1.61749 0
M  V30 3344 C 304.731 -1.42317 3.14388 0
M  V30 3345 C 303.844 -0.782251 4.24859 0
M  V30 3346 C 302.979 -1.84182 4.98247 0
M  V30 3347 C 302.018 -1.18053 6.00608 0
M  V30 3348 N 301.155 -2.18244 6.67319 0
M  V30 3349 H 305.995 0.326899 2.96202 0
M  V30 3350 H 303.532 0.173057 1.46078 0
M  V30 3351 H 305.49 -2.06241 3.62658 0
M  V30 3352 H 304.12 -2.05992 2.4853 0
M  V30 3353 H 303.172 -0.0307404 3.80388 0
M  V30 3354 H 304.484 -0.259663 4.98124 0
M  V30 3355 H 303.638 -2.55714 5.50177 0
M  V30 3356 H 302.377 -2.39819 4.24662 0
M  V30 3357 H 301.382 -0.450776 5.47949 0
M  V30 3358 H 302.607 -0.631202 6.7616 0
M  V30 3359 H 300.553 -2.72919 5.96533 0
M  V30 3360 H 300.47 -1.70938 7.36421 0
M  V30 3361 H 301.738 -2.89191 7.23871 0
M  V30 3362 N 305.967 -1.56429 0.191757 0
M  V30 3363 C 306.899 -2.16154 -0.762245 0
M  V30 3364 C 307.912 -1.12247 -1.17917 0
M  V30 3365 O 309.101 -1.39353 -1.11548 0
M  V30 3366 C 306.201 -2.70606 -2.04024 0
M  V30 3367 C 305.374 -3.99381 -1.78364 0
M  V30 3368 C 304.433 -4.38692 -2.90578 0
M  V30 3369 O 303.459 -5.06179 -2.6033 0
M  V30 3370 N 304.661 -4.01922 -4.18854 0
M  V30 3371 H 307.426 -2.98643 -0.251526 0
M  V30 3372 H 304.987 -1.61897 0.00967373 0
M  V30 3373 H 306.979 -2.93891 -2.78227 0
M  V30 3374 H 305.549 -1.9259 -2.46227 0
M  V30 3375 H 304.769 -3.84262 -0.879581 0
M  V30 3376 H 306.057 -4.83445 -1.58614 0
M  V30 3377 H 305.455 -3.47631 -4.46283 0
M  V30 3378 H 304.012 -4.30165 -4.89695 0
M  V30 3379 N 307.445 0.0818655 -1.57387 0
M  V30 3380 C 308.691 0.784074 -1.8703 0
M  V30 3381 C 309.024 1.77729 -0.782689 0
M  V30 3382 O 308.299 1.93384 0.208051 0
M  V30 3383 C 308.582 1.50105 -3.27323 0
M  V30 3384 C 308.435 0.524925 -4.46727 0
M  V30 3385 C 309.754 2.44843 -3.65705 0
M  V30 3386 H 306.873 0.283582 -0.680257 0
M  V30 3387 H 309.515 0.0474352 -1.89941 0
M  V30 3388 H 307.665 2.12897 -3.24972 0
M  V30 3389 H 309.337 -0.0970111 -4.61198 0
M  V30 3390 H 307.58 -0.160606 -4.33503 0
M  V30 3391 H 308.251 1.064 -5.41648 0
M  V30 3392 H 310.727 1.92135 -3.69085 0
M  V30 3393 H 309.603 2.92018 -4.64776 0
M  V30 3394 H 309.864 3.29197 -2.95096 0
M  V30 3395 N 308.923 1.53595 0.353017 0
M  V30 3396 C 310.148 1.7462 1.11904 0
M  V30 3397 C 310.573 0.479721 1.8188 0
M  V30 3398 O 309.931 -0.567066 1.72204 0
M  V30 3399 C 309.979 2.92029 2.11545 0
M  V30 3400 O 309.083 2.61516 3.18878 0
M  V30 3401 H 308.424 0.579531 0.324099 0
M  V30 3402 H 310.954 2.00525 0.406301 0
M  V30 3403 H 310.964 3.18551 2.5493 0
M  V30 3404 H 309.639 3.83888 1.60008 0
M  V30 3405 H 308.216 2.45852 2.80377 0
M  V30 3406 N 310.401 -0.613514 1.45168 0
M  V30 3407 C 311.331 -1.7354 1.56225 0
M  V30 3408 C 312.312 -1.64981 0.41414 0
M  V30 3409 O 313.497 -1.83472 0.636526 0
M  V30 3410 C 310.627 -3.12128 1.52295 0
M  V30 3411 C 309.581 -3.35491 2.65762 0
M  V30 3412 C 308.907 -4.74291 2.46885 0
M  V30 3413 C 310.207 -3.26325 4.0781 0
M  V30 3414 H 311.901 -1.64543 2.50132 0
M  V30 3415 H 309.447 -0.790185 1.20383 0
M  V30 3416 H 311.4 -3.90404 1.58628 0
M  V30 3417 H 310.124 -3.2195 0.549139 0
M  V30 3418 H 308.783 -2.59603 2.58847 0
M  V30 3419 H 308.431 -4.80839 1.47657 0
M  V30 3420 H 308.131 -4.9088 3.22972 0
M  V30 3421 H 309.655 -5.54775 2.55063 0
M  V30 3422 H 311.069 -3.94483 4.16 0
M  V30 3423 H 309.466 -3.54445 4.8424 0
M  V30 3424 H 310.536 -2.23855 4.30136 0
M  V30 3425 N 311.879 -1.3236 -0.855495 0
M  V30 3426 C 312.789 -1.23221 -1.99634 0
M  V30 3427 C 313.805 -0.145983 -1.73387 0
M  V30 3428 O 314.981 -0.366502 -1.98037 0
M  V30 3429 C 312.046 -0.954782 -3.33294 0
M  V30 3430 C 311.107 -2.12937 -3.72769 0
M  V30 3431 C 310.34 -1.86508 -5.00051 0
M  V30 3432 O 310.563 -0.807231 -5.64659 0
M  V30 3433 O 309.497 -2.72591 -5.36636 0
M  V30 3434 H 313.323 -2.19126 -2.1028 0
M  V30 3435 H 310.908 -1.12241 -0.986018 0
M  V30 3436 H 312.79 -0.816519 -4.13414 0
M  V30 3437 H 311.465 -0.0258854 -3.2369 0
M  V30 3438 H 310.372 -2.3231 -2.93228 0
M  V30 3439 H 311.705 -3.04102 -3.87018 0
M  V30 3440 N 313.357 1.07166 -1.15556 0
M  V30 3441 C 314.32 2.12589 -0.856644 0
M  V30 3442 C 315.32 1.6015 0.14444 0
M  V30 3443 O 316.51 1.7399 -0.0854163 0
M  V30 3444 C 313.642 3.39753 -0.279405 0
M  V30 3445 H 314.835 2.40539 -1.79112 0
M  V30 3446 H 312.388 1.23086 -0.963298 0
M  V30 3447 H 313.123 3.17447 0.663174 0
M  V30 3448 H 312.908 3.79117 -1.00063 0
M  V30 3449 H 314.398 4.17507 -0.0879113 0
M  V30 3450 N 314.835 0.952656 1.25548 0
M  V30 3451 C 316.081 0.616826 1.93822 0
M  V30 3452 C 316.436 -0.836684 1.73255 0
M  V30 3453 O 315.729 -1.59218 1.06584 0
M  V30 3454 C 315.923 0.908818 3.45652 0
M  V30 3455 C 315.752 2.38916 3.80984 0
M  V30 3456 C 314.522 3.04637 4.03143 0
M  V30 3457 C 316.72 3.36838 3.88645 0
M  V30 3458 N 314.702 4.42565 4.25453 0
M  V30 3459 C 316.073 4.60065 4.1562 0
M  V30 3460 C 318.128 3.31704 3.71318 0
M  V30 3461 C 316.831 5.78795 4.2707 0
M  V30 3462 C 318.857 4.4977 3.84006 0
M  V30 3463 C 318.219 5.71783 4.11392 0
M  V30 3464 H 314.318 0.27629 0.731565 0
M  V30 3465 H 316.902 1.22443 1.5138 0
M  V30 3466 H 315.073 0.330166 3.86994 0
M  V30 3467 H 316.805 0.533093 4.01174 0
M  V30 3468 H 313.56 2.55215 3.98952 0
M  V30 3469 H 313.984 5.1399 4.40617 0
M  V30 3470 H 318.626 2.3842 3.49164 0
M  V30 3471 H 316.344 6.72521 4.48041 0
M  V30 3472 H 319.93 4.47342 3.71989 0
M  V30 3473 H 318.81 6.61617 4.2099 0
M  V30 3474 N 316.313 -1.40141 0.720998 0
M  V30 3475 C 317.243 -2.33339 0.0867621 0
M  V30 3476 C 318.224 -1.53178 -0.739622 0
M  V30 3477 O 319.409 -1.81625 -0.687449 0
M  V30 3478 C 316.539 -3.37194 -0.831728 0
M  V30 3479 C 315.493 -4.27857 -0.110558 0
M  V30 3480 C 314.819 -5.22294 -1.14513 0
M  V30 3481 C 316.119 -5.11872 1.0385 0
M  V30 3482 H 317.813 -2.86626 0.865219 0
M  V30 3483 H 315.359 -1.37814 0.417516 0
M  V30 3484 H 317.312 -4.01335 -1.28485 0
M  V30 3485 H 316.036 -2.82314 -1.64214 0
M  V30 3486 H 314.695 -3.65176 0.322797 0
M  V30 3487 H 314.343 -4.63717 -1.94874 0
M  V30 3488 H 314.043 -5.83797 -0.667446 0
M  V30 3489 H 315.567 -5.89312 -1.59824 0
M  V30 3490 H 316.981 -5.69436 0.664482 0
M  V30 3491 H 315.378 -5.82445 1.4449 0
M  V30 3492 H 316.448 -4.4753 1.86668 0
M  V30 3493 N 317.792 -0.46758 -1.50504 0
M  V30 3494 C 318.724 0.364655 -2.26281 0
M  V30 3495 C 319.737 0.960151 -1.31472 0
M  V30 3496 O 320.926 0.849153 -1.57008 0
M  V30 3497 C 318.026 1.52509 -3.02645 0
M  V30 3498 C 317.199 1.04302 -4.24782 0
M  V30 3499 C 316.258 2.07709 -4.8347 0
M  V30 3500 O 315.284 1.65913 -5.44483 0
M  V30 3501 N 316.486 3.40485 -4.70159 0
M  V30 3502 H 319.251 -0.28495 -2.98342 0
M  V30 3503 H 316.812 -0.298163 -1.59131 0
M  V30 3504 H 318.804 2.21371 -3.38787 0
M  V30 3505 H 317.374 2.07945 -2.33404 0
M  V30 3506 H 316.594 0.180393 -3.93787 0
M  V30 3507 H 317.882 0.698798 -5.03978 0
M  V30 3508 H 317.28 3.77155 -4.21629 0
M  V30 3509 H 315.837 4.05156 -5.1058 0
M  V30 3510 N 319.27 1.56325 -0.20005 0
M  V30 3511 C 320.686 1.58839 0.155716 0
M  V30 3512 C 320.886 1.21636 1.60645 0
M  V30 3513 O 319.942 0.941437 2.34293 0
M  V30 3514 C 321.255 3.0032 -0.151124 0
M  V30 3515 C 322.803 3.12866 -0.0916284 0
M  V30 3516 C 323.278 4.56488 -0.371845 0
M  V30 3517 N 324.769 4.62089 -0.320641 0
M  V30 3518 C 325.504 5.71116 -0.511243 0
M  V30 3519 N 325 6.88592 -0.762461 0
M  V30 3520 N 326.793 5.60335 -0.445157 0
M  V30 3521 H 318.944 1.78788 -1.14668 0
M  V30 3522 H 321.207 0.829996 -0.458051 0
M  V30 3523 H 320.913 3.32117 -1.15721 0
M  V30 3524 H 320.787 3.73257 0.543986 0
M  V30 3525 H 323.174 2.80878 0.905065 0
M  V30 3526 H 323.255 2.42304 -0.81989 0
M  V30 3527 H 322.899 4.89189 -1.36588 0
M  V30 3528 H 322.829 5.25246 0.377362 0
M  V30 3529 H 325.32 3.77665 -0.13329 0
M  V30 3530 H 325.633 7.67581 -0.896576 0
M  V30 3531 H 323.978 6.90387 -0.799412 0
M  V30 3532 H 327.169 4.67436 -0.249278 0
M  V30 3533 H 327.342 6.45243 -0.597116 0
M  V30 3534 N 320.748 -0.0735177 1.57428 0
M  V30 3535 C 321.658 -1.10547 2.06922 0
M  V30 3536 C 322.674 -1.42506 0.998402 0
M  V30 3537 O 323.85 -1.52717 1.31299 0
M  V30 3538 C 320.915 -2.40019 2.50184 0
M  V30 3539 C 319.976 -2.15046 3.71556 0
M  V30 3540 C 319.209 -3.38345 4.12745 0
M  V30 3541 O 319.432 -4.47399 3.53822 0
M  V30 3542 O 318.366 -3.2666 5.05546 0
M  V30 3543 H 322.192 -0.715013 2.95163 0
M  V30 3544 H 319.777 -0.287531 1.46607 0
M  V30 3545 H 321.659 -3.16218 2.78539 0
M  V30 3546 H 320.334 -2.78447 1.65072 0
M  V30 3547 H 319.241 -1.36558 3.48285 0
M  V30 3548 H 320.574 -1.81499 4.57514 0
M  V30 3549 N 322.226 -1.5378 -0.344866 0
M  V30 3550 C 323.189 -1.80981 -1.40637 0
M  V30 3551 C 324.189 -0.680816 -1.45676 0
M  V30 3552 O 325.379 -0.949095 -1.46075 0
M  V30 3553 C 322.511 -1.95063 -2.79577 0
M  V30 3554 H 323.704 -2.75803 -1.17783 0
M  V30 3555 H 321.257 -1.45173 -0.579181 0
M  V30 3556 H 321.992 -1.02379 -3.07716 0
M  V30 3557 H 321.777 -2.77198 -2.77315 0
M  V30 3558 H 323.267 -2.17629 -3.56409 0
M  V30 3559 N 323.704 0.605807 -1.45491 0
M  V30 3560 C 324.636 1.73031 -1.5031 0
M  V30 3561 C 325.649 1.57968 -0.393687 0
M  V30 3562 O 326.838 1.65817 -0.660839 0
M  V30 3563 C 323.938 3.11049 -1.34543 0
M  V30 3564 C 323.111 3.52334 -2.59189 0
M  V30 3565 C 322.17 4.69323 -2.37954 0
M  V30 3566 O 321.196 4.7635 -3.11575 0
M  V30 3567 N 322.398 5.62705 -1.4263 0
M  V30 3568 H 325.163 1.6936 -2.4726 0
M  V30 3569 H 322.724 0.79114 -1.41254 0
M  V30 3570 H 324.716 3.87071 -1.18144 0
M  V30 3571 H 323.286 3.09217 -0.458623 0
M  V30 3572 H 322.506 2.66256 -2.90691 0
M  V30 3573 H 323.794 3.76677 -3.42041 0
M  V30 3574 H 323.192 5.59744 -0.818758 0
M  V30 3575 H 321.749 6.38252 -1.32202 0
M  V30 3576 N 325.182 1.32811 0.848464 0
M  V30 3577 C 326.41 1.26739 1.63538 0
M  V30 3578 C 326.825 -0.163484 1.88091 0
M  V30 3579 O 326.182 -1.10258 1.45429 0
M  V30 3580 C 326.233 2.03013 2.99112 0
M  V30 3581 O 325.954 3.40518 2.75643 0
M  V30 3582 C 327.455 2.04038 3.93552 0
M  V30 3583 H 324.675 0.437024 0.509167 0
M  V30 3584 H 327.219 1.75033 1.05753 0
M  V30 3585 H 325.374 1.58426 3.53525 0
M  V30 3586 H 325.788 3.79635 3.61908 0
M  V30 3587 H 327.262 2.61877 4.85926 0
M  V30 3588 H 327.739 1.0282 4.26995 0
M  V30 3589 H 328.345 2.486 3.45077 0
M  V30 3590 N 326.66 -1.06551 1.16123 0
M  V30 3591 C 327.59 -2.15935 0.88851 0
M  V30 3592 C 328.571 -1.69306 -0.164135 0
M  V30 3593 O 329.756 -1.94193 -0.0167857 0
M  V30 3594 C 326.886 -3.45149 0.385942 0
M  V30 3595 C 325.84 -4.05271 1.3762 0
M  V30 3596 C 325.166 -5.29664 0.732137 0
M  V30 3597 C 326.466 -4.44355 2.74493 0
M  V30 3598 H 328.16 -2.39006 1.80323 0
M  V30 3599 H 325.706 -1.14866 0.868435 0
M  V30 3600 H 327.659 -4.21004 0.182647 0
M  V30 3601 H 326.383 -3.21689 -0.564274 0
M  V30 3602 H 325.042 -3.3147 1.56599 0
M  V30 3603 H 324.69 -5.02499 -0.224483 0
M  V30 3604 H 324.39 -5.70848 1.39307 0
M  V30 3605 H 325.914 -6.08218 0.538802 0
M  V30 3606 H 327.328 -5.11303 2.59311 0
M  V30 3607 H 325.725 -4.96515 3.37035 0
M  V30 3608 H 326.795 -3.55339 3.29943 0
M  V30 3609 N 328.138 -0.959301 -1.25041 0
M  V30 3610 C 329.07 -0.440543 -2.24926 0
M  V30 3611 C 330.083 0.446131 -1.56568 0
M  V30 3612 O 331.272 0.253657 -1.76689 0
M  V30 3613 C 328.372 0.38412 -3.36716 0
M  V30 3614 C 327.545 -0.490658 -4.34639 0
M  V30 3615 C 326.604 0.276587 -5.25473 0
M  V30 3616 O 325.63 -0.326614 -5.68262 0
M  V30 3617 N 326.832 1.56844 -5.5891 0
M  V30 3618 H 329.597 -1.29931 -2.70071 0
M  V30 3619 H 327.158 -0.830181 -1.38995 0
M  V30 3620 H 329.15 0.905228 -3.94446 0
M  V30 3621 H 327.72 1.14377 -2.90924 0
M  V30 3622 H 326.94 -1.19282 -3.7572 0
M  V30 3623 H 328.228 -1.08756 -4.97041 0
M  V30 3624 H 327.626 2.08036 -5.26059 0
M  V30 3625 H 326.183 2.03541 -6.19205 0
M  V30 3626 N 329.616 1.39756 -0.72842 0
M  V30 3627 C 330.548 2.29157 -0.0446202 0
M  V30 3628 C 331.561 1.46484 0.710367 0
M  V30 3629 O 332.75 1.69632 0.55562 0
M  V30 3630 C 329.85 3.24987 0.961071 0
M  V30 3631 C 329.023 4.36572 0.268967 0
M  V30 3632 C 328.082 5.12756 1.18184 0
M  V30 3633 O 327.108 5.6534 0.661794 0
M  V30 3634 N 328.31 5.23331 2.51206 0
M  V30 3635 H 331.075 2.88482 -0.812295 0
M  V30 3636 H 328.636 1.51265 -0.577098 0
M  V30 3637 H 330.628 3.72827 1.57423 0
M  V30 3638 H 329.198 2.66739 1.63 0
M  V30 3639 H 328.418 3.90694 -0.524574 0
M  V30 3640 H 329.706 5.08363 -0.210934 0
M  V30 3641 H 329.104 4.82116 2.9594 0
M  V30 3642 H 327.661 5.74634 3.07634 0
M  V30 3643 N 331.094 0.475555 1.50254 0
M  V30 3644 C 332.324 -0.0753399 2.06463 0
M  V30 3645 C 332.732 -1.33661 1.33908 0
M  V30 3646 O 332.075 -1.79219 0.403257 0
M  V30 3647 C 332.137 -0.424921 3.5698 0
M  V30 3648 C 331.801 0.734965 4.51051 0
M  V30 3649 C 332.798 1.61827 4.94073 0
M  V30 3650 C 330.483 0.926557 4.9368 0
M  V30 3651 C 332.477 2.67754 5.78434 0
M  V30 3652 C 330.164 1.98904 5.77824 0
M  V30 3653 C 331.162 2.8629 6.20103 0
M  V30 3654 O 330.85 3.90708 7.02568 0
M  V30 3655 H 330.582 0.00576308 0.675975 0
M  V30 3656 H 333.136 0.664662 1.94349 0
M  V30 3657 H 331.366 -1.21817 3.67012 0
M  V30 3658 H 333.055 -0.911422 3.95535 0
M  V30 3659 H 333.821 1.48196 4.61804 0
M  V30 3660 H 329.7 0.25584 4.6029 0
M  V30 3661 H 333.244 3.35992 6.11355 0
M  V30 3662 H 329.141 2.12541 6.09505 0
M  V30 3663 H 329.909 3.87751 7.20827 0
M  V30 3664 N 332.573 -1.56217 0.208337 0
M  V30 3665 C 333.989 -1.58919 -0.14729 0
M  V30 3666 C 334.189 -1.22486 -1.59998 0
M  V30 3667 O 333.245 -0.953849 -2.3379 0
M  V30 3668 C 334.558 -3.00236 0.167048 0
M  V30 3669 C 336.106 -3.12813 0.108219 0
M  V30 3670 C 336.581 -4.56284 0.396049 0
M  V30 3671 N 338.072 -4.61912 0.345142 0
M  V30 3672 C 338.807 -5.70837 0.541523 0
M  V30 3673 N 338.303 -6.88178 0.798968 0
M  V30 3674 N 340.096 -5.60091 0.474867 0
M  V30 3675 H 332.247 -1.78177 1.15614 0
M  V30 3676 H 334.51 -0.827555 0.462446 0
M  V30 3677 H 334.216 -3.31499 1.1748 0
M  V30 3678 H 334.09 -3.7354 -0.524184 0
M  V30 3679 H 336.477 -2.81354 -0.890157 0
M  V30 3680 H 336.558 -2.41866 0.832729 0
M  V30 3681 H 336.202 -4.88458 1.3918 0
M  V30 3682 H 336.132 -5.25439 -0.349502 0
M  V30 3683 H 338.623 -3.77589 0.153316 0
M  V30 3684 H 338.936 -7.67095 0.93727 0
M  V30 3685 H 337.281 -6.89953 0.836013 0
M  V30 3686 H 340.472 -4.67297 0.274064 0
M  V30 3687 H 340.645 -6.44917 0.631326 0
M  V30 3688 N 334.051 0.0651679 -1.57465 0
M  V30 3689 C 335.297 0.764193 -1.87851 0
M  V30 3690 C 335.63 1.76889 -0.801495 0
M  V30 3691 O 334.905 1.93594 0.187528 0
M  V30 3692 C 335.188 1.46625 -3.28897 0
M  V30 3693 C 335.041 0.477515 -4.47258 0
M  V30 3694 C 336.36 2.4095 -3.68281 0
M  V30 3695 H 333.479 0.276351 -0.683227 0
M  V30 3696 H 336.121 0.0272868 -1.8998 0
M  V30 3697 H 334.271 2.09438 -3.27212 0
M  V30 3698 H 335.943 -0.145922 -4.61069 0
M  V30 3699 H 334.186 -0.206576 -4.33308 0
M  V30 3700 H 334.857 1.0065 -5.42746 0
M  V30 3701 H 337.333 1.88209 -3.71102 0
M  V30 3702 H 336.209 2.87072 -4.67847 0
M  V30 3703 H 336.47 3.26049 -2.98571 0
M  V30 3704 N 335.529 1.53961 0.336706 0
M  V30 3705 C 336.439 1.85432 1.43708 0
M  V30 3706 C 337.455 0.745053 1.57242 0
M  V30 3707 O 338.631 1.03804 1.72588 0
M  V30 3708 C 335.696 2.06349 2.78605 0
M  V30 3709 C 334.757 3.30191 2.74358 0
M  V30 3710 C 333.99 3.50101 4.02822 0
M  V30 3711 O 334.213 2.7371 5.00439 0
M  V30 3712 O 333.147 4.43547 4.06878 0
M  V30 3713 H 336.973 2.78975 1.20028 0
M  V30 3714 H 334.558 1.39701 0.52952 0
M  V30 3715 H 336.44 2.21513 3.58483 0
M  V30 3716 H 335.115 1.15995 3.02203 0
M  V30 3717 H 334.022 3.20425 1.93078 0
M  V30 3718 H 335.355 4.2056 2.55715 0
M  V30 3719 N 337.007 -0.598083 1.45811 0
M  V30 3720 C 337.937 -1.71873 1.58057 0
M  V30 3721 C 338.918 -1.64533 0.431615 0
M  V30 3722 O 340.103 -1.82787 0.65595 0
M  V30 3723 C 337.233 -3.10495 1.55597 0
M  V30 3724 C 336.187 -3.32654 2.69305 0
M  V30 3725 C 335.513 -4.71646 2.51902 0
M  V30 3726 C 336.813 -3.21981 4.11248 0
M  V30 3727 H 338.507 -1.61881 2.51863 0
M  V30 3728 H 336.053 -0.777372 1.21214 0
M  V30 3729 H 338.006 -3.88699 1.6276 0
M  V30 3730 H 336.73 -3.2135 0.583255 0
M  V30 3731 H 335.389 -2.56843 2.61586 0
M  V30 3732 H 335.037 -4.79246 1.52748 0
M  V30 3733 H 334.737 -4.87426 3.2816 0
M  V30 3734 H 336.261 -5.52038 2.60933 0
M  V30 3735 H 337.675 -3.90049 4.20161 0
M  V30 3736 H 336.072 -3.49289 4.87972 0
M  V30 3737 H 337.142 -2.1928 4.32486 0
M  V30 3738 N 338.485 -1.33259 -0.841409 0
M  V30 3739 C 339.448 -1.23221 -1.9326 0
M  V30 3740 C 340.448 -0.151895 -1.60081 0
M  V30 3741 O 341.638 -0.403246 -1.69468 0
M  V30 3742 C 338.77 -0.898123 -3.28856 0
M  V30 3743 H 339.963 -2.2021 -2.03587 0
M  V30 3744 H 337.516 -1.17281 -1.03319 0
M  V30 3745 H 338.251 0.0693841 -3.24226 0
M  V30 3746 H 338.036 -1.67934 -3.54317 0
M  V30 3747 H 339.526 -0.852563 -4.08805 0
M  V30 3748 N 339.963 1.05934 -1.16686 0
M  V30 3749 C 340.873 2.17014 -0.891183 0
M  V30 3750 C 341.889 1.73453 0.137907 0
M  V30 3751 O 343.065 2.01361 -0.039592 0
M  V30 3752 C 340.13 3.44384 -0.400099 0
M  V30 3753 C 339.191 4.02433 -1.49486 0
M  V30 3754 C 338.424 5.23723 -1.02711 0
M  V30 3755 O 338.647 5.7027 0.121716 0
M  V30 3756 O 337.581 5.7382 -1.81699 0
M  V30 3757 H 341.407 2.43113 -1.82015 0
M  V30 3758 H 338.992 1.15541 -0.947132 0
M  V30 3759 H 340.874 4.21189 -0.133392 0
M  V30 3760 H 339.549 3.19802 0.500817 0
M  V30 3761 H 338.456 3.27102 -1.81535 0
M  V30 3762 H 339.789 4.31317 -2.37121 0
M  V30 3763 N 341.441 0.965919 1.2453 0
M  V30 3764 C 342.388 0.49402 2.25451 0
M  V30 3765 C 343.358 -0.45948 1.59618 0
M  V30 3766 O 344.543 -0.370238 1.87173 0
M  V30 3767 C 341.683 -0.211359 3.44452 0
M  V30 3768 C 340.796 0.7807 4.24887 0
M  V30 3769 C 339.931 0.0516105 5.31175 0
M  V30 3770 C 338.97 1.03385 6.03306 0
M  V30 3771 N 338.107 0.334887 7.01301 0
M  V30 3772 H 342.947 1.35946 2.65184 0
M  V30 3773 H 340.484 0.681515 1.3036 0
M  V30 3774 H 342.442 -0.637 4.12308 0
M  V30 3775 H 341.072 -1.04077 3.05562 0
M  V30 3776 H 340.124 1.32479 3.56586 0
M  V30 3777 H 341.436 1.52978 4.74762 0
M  V30 3778 H 340.59 -0.432114 6.05159 0
M  V30 3779 H 339.329 -0.730179 4.82203 0
M  V30 3780 H 338.334 1.52847 5.28127 0
M  V30 3781 H 339.559 1.81606 6.54367 0
M  V30 3782 H 337.505 -0.427959 6.54603 0
M  V30 3783 H 337.422 1.02287 7.49048 0
M  V30 3784 H 338.69 -0.126928 7.79397 0
M  V30 3785 N 342.919 -1.39368 0.735821 0
M  V30 3786 C 343.869 -2.27885 0.0724287 0
M  V30 3787 C 344.853 -1.44301 -0.711756 0
M  V30 3788 O 346.045 -1.67206 -0.58063 0
M  V30 3789 C 343.174 -3.33029 -0.833454 0
M  V30 3790 C 342.26 -4.24078 -0.0433749 0
M  V30 3791 N 342.651 -4.96138 0.983903 0
M  V30 3792 C 340.949 -4.45164 -0.272905 0
M  V30 3793 C 341.65 -5.63069 1.4604 0
M  V30 3794 N 340.626 -5.37991 0.778857 0
M  V30 3795 H 344.428 -2.81052 0.859467 0
M  V30 3796 H 341.942 -1.5206 0.570227 0
M  V30 3797 H 343.939 -3.95311 -1.32419 0
M  V30 3798 H 342.599 -2.81421 -1.61964 0
M  V30 3799 H 343.61 -4.9958 1.36528 0
M  V30 3800 H 340.287 -4.04497 -1.03383 0
M  V30 3801 H 341.677 -6.30755 2.31511 0
M  V30 3802 N 344.397 -0.483516 -1.5 0
M  V30 3803 C 345.329 0.340634 -2.26655 0
M  V30 3804 C 346.342 0.946152 -1.32483 0
M  V30 3805 O 347.531 0.832453 -1.579 0
M  V30 3806 C 344.631 1.4929 -3.04246 0
M  V30 3807 C 343.804 0.997903 -4.25865 0
M  V30 3808 C 342.863 2.02569 -4.85646 0
M  V30 3809 O 341.889 1.60128 -5.46212 0
M  V30 3810 N 343.091 3.3548 -4.73744 0
M  V30 3811 H 345.856 -0.316577 -2.98023 0
M  V30 3812 H 343.417 -0.315024 -1.58806 0
M  V30 3813 H 345.409 2.17766 -3.41116 0
M  V30 3814 H 343.979 2.05458 -2.35597 0
M  V30 3815 H 343.199 0.138617 -3.93956 0
M  V30 3816 H 344.487 0.645305 -5.04691 0
M  V30 3817 H 343.885 3.72661 -4.25605 0
M  V30 3818 H 342.442 3.99718 -5.14848 0
M  V30 3819 N 345.875 1.56104 -0.216619 0
M  V30 3820 C 346.822 2.2007 0.695531 0
M  V30 3821 C 347.792 1.15471 1.19397 0
M  V30 3822 O 348.977 1.43807 1.25396 0
M  V30 3823 C 346.117 2.88073 1.90021 0
M  V30 3824 C 345.23 4.07253 1.44113 0
M  V30 3825 C 344.365 4.63052 2.603 0
M  V30 3826 C 343.404 5.74545 2.11103 0
M  V30 3827 N 342.541 6.24656 3.20545 0
M  V30 3828 H 347.381 2.97655 0.143327 0
M  V30 3829 H 344.918 1.46982 0.0589934 0
M  V30 3830 H 346.876 3.25681 2.60745 0
M  V30 3831 H 345.506 2.13015 2.42538 0
M  V30 3832 H 344.558 3.75164 0.628999 0
M  V30 3833 H 345.87 4.8783 1.04036 0
M  V30 3834 H 345.024 5.03078 3.39113 0
M  V30 3835 H 343.763 3.81628 3.03663 0
M  V30 3836 H 342.768 5.34027 1.3075 0
M  V30 3837 H 343.993 6.57801 1.68746 0
M  V30 3838 H 341.939 5.46148 3.63399 0
M  V30 3839 H 341.856 7.00343 2.84704 0
M  V30 3840 H 343.124 6.69338 3.99508 0
M  V30 3841 N 347.353 -0.0568162 1.57498 0
M  V30 3842 C 348.581 -0.765626 1.92213 0
M  V30 3843 C 348.996 -1.70353 0.813961 0
M  V30 3844 O 348.353 -1.81268 -0.211701 0
M  V30 3845 C 348.404 -1.5465 3.2675 0
M  V30 3846 O 348.125 -0.646278 4.33307 0
M  V30 3847 C 349.626 -2.35497 3.75574 0
M  V30 3848 H 346.846 -0.216835 0.634999 0
M  V30 3849 H 349.39 -0.0226146 2.04487 0
M  V30 3850 H 347.545 -2.24165 3.15957 0
M  V30 3851 H 347.959 -1.19093 5.108 0
M  V30 3852 H 349.433 -2.85722 4.72299 0
M  V30 3853 H 349.91 -3.15692 3.05344 0
M  V30 3854 H 350.516 -1.7111 3.8936 0
M  V30 3855 N 348.832 -1.54138 -0.328536 0
M  V30 3856 C 349.762 -1.86167 -1.40939 0
M  V30 3857 C 350.743 -0.718044 -1.54202 0
M  V30 3858 O 351.928 -0.971328 -1.68163 0
M  V30 3859 C 349.058 -2.08461 -2.77779 0
M  V30 3860 C 348.012 -3.24299 -2.7931 0
M  V30 3861 C 347.338 -3.31955 -4.19178 0
M  V30 3862 C 348.638 -4.62065 -2.43502 0
M  V30 3863 H 350.332 -2.76689 -1.14383 0
M  V30 3864 H 347.878 -1.33132 -0.548806 0
M  V30 3865 H 349.831 -2.29453 -3.53454 0
M  V30 3866 H 348.555 -1.14684 -3.05802 0
M  V30 3867 H 347.214 -3.03187 -2.0609 0
M  V30 3868 H 346.862 -2.35745 -4.44335 0
M  V30 3869 H 346.562 -4.09805 -4.2111 0
M  V30 3870 H 348.086 -3.55175 -4.96672 0
M  V30 3871 H 349.5 -4.8297 -3.08889 0
M  V30 3872 H 347.897 -5.42429 -2.56693 0
M  V30 3873 H 348.967 -4.64652 -1.38659 0
M  V30 3874 N 350.31 0.590341 -1.46126 0
M  V30 3875 C 351.242 1.71427 -1.52136 0
M  V30 3876 C 352.255 1.57542 -0.41042 0
M  V30 3877 O 353.444 1.65106 -0.678389 0
M  V30 3878 C 350.544 3.09605 -1.37834 0
M  V30 3879 C 349.717 3.49566 -2.62912 0
M  V30 3880 C 348.776 4.66773 -2.42918 0
M  V30 3881 O 347.802 4.73019 -3.1661 0
M  V30 3882 N 349.004 5.61161 -1.4859 0
M  V30 3883 H 351.769 1.66728 -2.49042 0
M  V30 3884 H 349.33 0.776113 -1.42085 0
M  V30 3885 H 351.322 3.85796 -1.22243 0
M  V30 3886 H 349.892 3.08714 -0.491393 0
M  V30 3887 H 349.112 2.63158 -2.93499 0
M  V30 3888 H 350.4 3.73028 -3.46017 0
M  V30 3889 H 349.798 5.58844 -0.87808 0
M  V30 3890 H 348.355 6.36814 -1.38965 0
M  V30 3891 N 351.788 1.33704 0.83433 0
M  V30 3892 C 352.718 1.26967 1.95963 0
M  V30 3893 C 353.699 0.149337 1.69443 0
M  V30 3894 O 354.884 0.339852 1.91203 0
M  V30 3895 C 352.014 1.01275 3.32206 0
M  V30 3896 C 350.968 2.09652 3.73136 0
M  V30 3897 C 350.294 1.69166 5.07235 0
M  V30 3898 C 351.594 3.51372 3.86439 0
M  V30 3899 H 353.288 2.2112 2.01857 0
M  V30 3900 H 350.834 1.06447 0.969793 0
M  V30 3901 H 352.787 0.952106 4.10503 0
M  V30 3902 H 351.511 0.0356203 3.26581 0
M  V30 3903 H 350.17 2.14766 2.97104 0
M  V30 3904 H 349.818 0.701437 4.98085 0
M  V30 3905 H 349.518 2.41694 5.35591 0
M  V30 3906 H 351.042 1.64576 5.88003 0
M  V30 3907 H 352.456 3.48734 4.55036 0
M  V30 3908 H 350.853 4.22425 4.26236 0
M  V30 3909 H 351.923 3.89546 2.88759 0
M  V30 3910 N 353.266 -1.05314 1.17247 0
M  V30 3911 C 354.196 -2.1498 0.911362 0
M  V30 3912 C 355.177 -1.69471 -0.146169 0
M  V30 3913 O 356.362 -1.942 0.003812 0
M  V30 3914 C 353.492 -3.4472 0.422528 0
M  V30 3915 C 352.446 -4.03789 1.4191 0
M  V30 3916 C 351.772 -5.28858 0.788274 0
M  V30 3917 C 353.072 -4.41418 2.7919 0
M  V30 3918 H 354.766 -2.3708 1.82848 0
M  V30 3919 H 352.312 -1.13938 0.880569 0
M  V30 3920 H 354.265 -4.20787 0.227289 0
M  V30 3921 H 352.989 -3.22269 -0.530123 0
M  V30 3922 H 351.648 -3.2979 1.60106 0
M  V30 3923 H 351.296 -5.02709 -0.171173 0
M  V30 3924 H 350.996 -5.69338 1.45353 0
M  V30 3925 H 352.52 -6.07612 0.603282 0
M  V30 3926 H 353.934 -5.08524 2.64719 0
M  V30 3927 H 352.331 -4.92913 3.42282 0
M  V30 3928 H 353.401 -3.51819 3.33693 0
M  V30 3929 N 354.744 -0.972509 -1.24016 0
M  V30 3930 C 356.16 -0.679827 -1.44397 0
M  V30 3931 C 356.36 0.756716 -1.86751 0
M  V30 3932 O 355.416 1.53007 -2.00861 0
M  V30 3933 C 356.729 -1.66803 -2.50195 0
M  V30 3934 C 358.277 -1.68119 -2.64017 0
M  V30 3935 C 358.752 -2.65748 -3.73017 0
M  V30 3936 N 360.243 -2.64219 -3.8045 0
M  V30 3937 C 360.978 -3.36433 -4.64328 0
M  V30 3938 N 360.474 -4.1818 -5.52356 0
M  V30 3939 N 362.267 -3.25235 -4.58453 0
M  V30 3940 H 354.418 -1.90059 -0.948228 0
M  V30 3941 H 356.681 -0.818527 -0.478245 0
M  V30 3942 H 356.387 -2.69498 -2.25973 0
M  V30 3943 H 356.261 -1.4446 -3.48441 0
M  V30 3944 H 358.648 -0.661319 -2.87594 0
M  V30 3945 H 358.729 -1.94525 -1.66113 0
M  V30 3946 H 358.373 -3.67872 -3.50189 0
M  V30 3947 H 358.303 -2.36619 -4.70446 0
M  V30 3948 H 360.794 -2.04887 -3.17537 0
M  V30 3949 H 361.107 -4.70157 -6.13329 0
M  V30 3950 H 359.452 -4.22273 -5.52006 0
M  V30 3951 H 362.643 -2.60829 -3.88698 0
M  V30 3952 H 362.816 -3.81776 -5.23594 0
M  V30 3953 N 356.222 1.38976 -0.743202 0
M  V30 3954 C 357.169 2.30544 -0.10861 0
M  V30 3955 C 358.139 1.49642 0.720869 0
M  V30 3956 O 359.324 1.78304 0.679142 0
M  V30 3957 C 356.464 3.36018 0.786496 0
M  V30 3958 C 355.577 4.31963 -0.0564849 0
M  V30 3959 C 354.712 5.24506 0.840657 0
M  V30 3960 C 353.751 6.121 -0.00658363 0
M  V30 3961 N 352.888 6.96973 0.846943 0
M  V30 3962 H 357.728 2.8424 -0.895088 0
M  V30 3963 H 355.265 1.3995 -0.453048 0
M  V30 3964 H 357.223 3.95768 1.31999 0
M  V30 3965 H 355.853 2.83758 1.53887 0
M  V30 3966 H 354.905 3.73763 -0.707492 0
M  V30 3967 H 356.217 4.93703 -0.711229 0
M  V30 3968 H 355.371 5.89322 1.4417 0
M  V30 3969 H 354.11 4.63107 1.52916 0
M  V30 3970 H 353.115 5.46289 -0.620366 0
M  V30 3971 H 354.34 6.75565 -0.691992 0
M  V30 3972 H 352.286 6.38133 1.52059 0
M  V30 3973 H 352.203 7.5559 0.248864 0
M  V30 3974 H 353.471 7.6621 1.43328 0
M  V30 3975 N 357.7 0.491464 1.49741 0
M  V30 3976 C 358.632 -0.328609 2.26832 0
M  V30 3977 C 359.645 -0.939113 1.32983 0
M  V30 3978 O 360.834 -0.824067 1.58339 0
M  V30 3979 C 357.934 -1.47675 3.05033 0
M  V30 3980 C 357.107 -0.975305 4.26388 0
M  V30 3981 C 356.166 -1.99991 4.86714 0
M  V30 3982 O 355.192 -1.57229 5.47054 0
M  V30 3983 N 356.394 -3.32962 4.75517 0
M  V30 3984 H 359.159 0.332377 2.97851 0
M  V30 3985 H 356.72 0.323441 1.58636 0
M  V30 3986 H 358.712 -2.15954 3.42266 0
M  V30 3987 H 357.282 -2.04206 2.36683 0
M  V30 3988 H 356.502 -0.117723 3.94024 0
M  V30 3989 H 357.79 -0.618531 5.05026 0
M  V30 3990 H 357.188 -3.70399 4.27576 0
M  V30 3991 H 355.745 -3.96982 5.16961 0
M  V30 3992 N 359.178 -1.55987 0.224894 0
M  V30 3993 C 360.11 -2.17722 -0.716224 0
M  V30 3994 C 361.123 -1.14723 -1.15509 0
M  V30 3995 O 362.312 -1.41688 -1.08567 0
M  V30 3996 C 359.412 -2.74873 -1.98238 0
M  V30 3997 C 358.585 -4.03074 -1.69853 0
M  V30 3998 C 357.644 -4.44757 -2.81208 0
M  V30 3999 O 356.67 -5.11587 -2.49534 0
M  V30 4000 N 357.872 -4.10716 -4.10235 0
M  V30 4001 H 360.637 -2.99109 -0.188123 0
M  V30 4002 H 358.198 -1.6184 0.0440123 0
M  V30 4003 H 360.19 -2.99727 -2.7193 0
M  V30 4004 H 358.76 -1.9777 -2.42086 0
M  V30 4005 H 357.98 -3.86041 -0.797875 0
M  V30 4006 H 359.268 -4.86701 -1.48324 0
M  V30 4007 H 358.666 -3.57019 -4.38809 0
M  V30 4008 H 357.223 -4.40455 -4.80461 0
M  V30 4009 N 360.656 0.0484629 -1.57525 0
M  V30 4010 C 361.884 0.755421 -1.92616 0
M  V30 4011 C 362.299 1.69919 -0.822984 0
M  V30 4012 O 361.656 1.81378 0.202085 0
M  V30 4013 C 361.707 1.52915 -3.27566 0
M  V30 4014 O 361.428 0.62329 -4.33644 0
M  V30 4015 C 362.929 2.33502 -3.76818 0
M  V30 4016 H 360.149 0.213465 -0.63614 0
M  V30 4017 H 362.693 0.0117698 -2.04497 0
M  V30 4018 H 360.848 2.22486 -3.17142 0
M  V30 4019 H 361.262 1.16383 -5.11425 0
M  V30 4020 H 362.736 2.83214 -4.73808 0
M  V30 4021 H 363.213 3.14068 -3.07014 0
M  V30 4022 H 363.819 1.69043 -3.90262 0
M  V30 4023 N 362.134 1.5431 0.320358 0
M  V30 4024 C 363.383 1.7188 1.05546 0
M  V30 4025 C 363.696 0.501143 1.89071 0
M  V30 4026 O 364.902 0.558258 2.65699 0
M  V30 4027 C 363.358 3.04025 1.92605 0
M  V30 4028 C 362.966 4.33207 1.14176 0
M  V30 4029 C 364.71 3.30959 2.65832 0
M  V30 4030 C 362.617 5.56412 2.00399 0
M  V30 4031 H 361.547 0.640547 0.397763 0
M  V30 4032 H 364.198 1.80802 0.313522 0
M  V30 4033 H 362.58 2.89019 2.7071 0
M  V30 4034 H 363.754 4.58989 0.40819 0
M  V30 4035 H 362.069 4.13062 0.526165 0
M  V30 4036 H 364.666 4.20203 3.30656 0
M  V30 4037 H 365.009 2.48979 3.33639 0
M  V30 4038 H 365.542 3.46847 1.94787 0
M  V30 4039 H 362.281 6.41004 1.37094 0
M  V30 4040 H 361.801 5.34844 2.7148 0
M  V30 4041 H 363.48 5.92938 2.58908 0
M  V30 4042 N 363.613 -0.582584 1.46437 0
M  V30 4043 C 364.862 -1.337 1.5102 0
M  V30 4044 C 365.175 -1.94891 0.166359 0
M  V30 4045 O 366.381 -2.71351 0.0899954 0
M  V30 4046 C 364.837 -2.42315 2.66104 0
M  V30 4047 C 364.445 -1.87427 4.06909 0
M  V30 4048 C 366.189 -3.19099 2.79958 0
M  V30 4049 C 364.096 -2.93672 5.13333 0
M  V30 4050 H 363.026 -0.502619 0.562041 0
M  V30 4051 H 365.677 -0.621701 1.72647 0
M  V30 4052 H 364.059 -3.16645 2.37807 0
M  V30 4053 H 365.233 -1.19639 4.44998 0
M  V30 4054 H 363.548 -1.2331 3.97723 0
M  V30 4055 H 366.145 -3.9839 3.56636 0
M  V30 4056 H 366.488 -3.71695 1.87479 0
M  V30 4057 H 367.021 -2.51875 3.07902 0
M  V30 4058 H 363.76 -2.45962 6.07604 0
M  V30 4059 H 363.28 -3.59948 4.79789 0
M  V30 4060 H 364.959 -3.5762 5.39182 0
M  V30 4061 N 365.091 -1.34144 -0.827227 0
M  V30 4062 C 366.021 -1.28005 -1.95287 0
M  V30 4063 C 367.002 -0.158321 -1.69362 0
M  V30 4064 O 368.187 -0.349987 -1.9102 0
M  V30 4065 C 365.317 -1.03036 -3.31664 0
M  V30 4066 C 364.271 -2.11628 -3.72019 0
M  V30 4067 C 363.597 -1.71854 -5.0633 0
M  V30 4068 C 364.897 -3.53417 -3.8457 0
M  V30 4069 H 366.591 -2.22187 -2.00682 0
M  V30 4070 H 364.137 -1.0696 -0.964135 0
M  V30 4071 H 366.09 -0.973863 -4.09993 0
M  V30 4072 H 364.814 -0.0529391 -3.26557 0
M  V30 4073 H 363.473 -2.16339 -2.95961 0
M  V30 4074 H 363.121 -0.727841 -4.97706 0
M  V30 4075 H 362.821 -2.44531 -5.34302 0
M  V30 4076 H 364.345 -1.67692 -5.87122 0
M  V30 4077 H 365.759 -3.51142 -4.5318 0
M  V30 4078 H 364.156 -4.24679 -4.2399 0
M  V30 4079 H 365.226 -3.91072 -2.86689 0
M  V30 4080 N 366.569 1.04691 -1.17803 0
M  V30 4081 C 367.846 1.7472 -0.879328 0
M  V30 4082 C 368.226 2.01812 0.619271 0
M  V30 4083 O 367.574 1.65824 1.57209 0
M  V30 4084 C 367.784 3.03686 -1.71976 0
M  V30 4085 C 369.132 3.77542 -1.94286 0
M  V30 4086 O 370.156 3.13569 -1.68976 0
M  V30 4087 O 369.015 4.92506 -2.36855 0
M  V30 4088 H 366.109 0.760011 -0.326056 0
M  V30 4089 H 368.655 1.10813 -1.28525 0
M  V30 4090 H 367.427 2.79754 -2.73594 0
M  V30 4091 H 367.05 3.75332 -1.31194 0
M  V30 4092 N 368.047 0.979072 1.23499 0
M  V30 4093 C 369.324 0.563674 1.87302 0
M  V30 4094 C 369.704 -0.959199 1.88049 0
M  V30 4095 O 369.052 -1.83535 1.36114 0
M  V30 4096 C 369.262 1.16822 3.28867 0
M  V30 4097 C 370.61 1.26014 4.0547 0
M  V30 4098 O 371.634 1.12158 3.38082 0
M  V30 4099 O 370.493 1.48044 5.26066 0
M  V30 4100 H 367.587 0.189602 0.804972 0
M  V30 4101 H 370.133 1.07407 1.31384 0
M  V30 4102 H 368.905 2.21049 3.22883 0
M  V30 4103 H 368.528 0.642564 3.92373 0
M  V30 4104 N 369.525 -1.3858 0.750561 0
M  V30 4105 C 370.435 -2.34278 0.122825 0
M  V30 4106 C 371.451 -1.59116 -0.704131 0
M  V30 4107 O 372.627 -1.91326 -0.628987 0
M  V30 4108 C 369.692 -3.38221 -0.762086 0
M  V30 4109 C 368.753 -4.29227 0.078896 0
M  V30 4110 C 367.986 -5.28205 -0.763874 0
M  V30 4111 O 368.209 -5.34112 -2.00201 0
M  V30 4112 O 367.143 -6.01618 -0.18428 0
M  V30 4113 H 370.969 -2.89649 0.913088 0
M  V30 4114 H 368.554 -1.40374 0.511417 0
M  V30 4115 H 370.436 -4.01872 -1.26793 0
M  V30 4116 H 369.111 -2.85211 -1.5309 0
M  V30 4117 H 368.018 -3.68747 0.630621 0
M  V30 4118 H 369.351 -4.85484 0.810289 0
M  V30 4119 N 371.003 -0.499398 -1.49478 0
M  V30 4120 C 371.933 0.269244 -2.31943 0
M  V30 4121 C 372.914 0.964054 -1.40143 0
M  V30 4122 O 374.099 0.955767 -1.69052 0
M  V30 4123 C 371.229 1.33504 -3.20615 0
M  V30 4124 C 370.183 0.760202 -4.21195 0
M  V30 4125 C 369.509 1.9264 -4.98792 0
M  V30 4126 C 370.809 -0.247661 -5.21712 0
M  V30 4127 H 372.503 -0.419082 -2.96452 0
M  V30 4128 H 370.049 -0.202988 -1.42562 0
M  V30 4129 H 372.002 1.88048 -3.77115 0
M  V30 4130 H 370.726 2.05253 -2.54045 0
M  V30 4131 H 369.385 0.23653 -3.65836 0
M  V30 4132 H 369.033 2.63154 -4.28671 0
M  V30 4133 H 368.733 1.54785 -5.66847 0
M  V30 4134 H 370.257 2.4762 -5.58137 0
M  V30 4135 H 371.671 0.209579 -5.72917 0
M  V30 4136 H 370.068 -0.541962 -5.97648 0
M  V30 4137 H 371.138 -1.16409 -4.7072 0
M  V30 4138 N 372.481 1.55866 -0.233164 0
M  V30 4139 C 373.73 1.97779 0.39579 0
M  V30 4140 C 374.043 1.12419 1.60066 0
M  V30 4141 O 375.249 1.44283 2.29988 0
M  V30 4142 C 373.705 3.5188 0.755556 0
M  V30 4143 C 373.313 4.45959 -0.427152 0
M  V30 4144 C 375.057 4.02479 1.34946 0
M  V30 4145 C 372.964 5.91383 -0.0443043 0
M  V30 4146 H 371.894 0.738592 0.15165 0
M  V30 4147 H 374.545 1.80486 -0.331212 0
M  V30 4148 H 372.927 3.64816 1.5403 0
M  V30 4149 H 374.101 4.44776 -1.20462 0
M  V30 4150 H 372.416 4.05765 -0.935068 0
M  V30 4151 H 375.013 5.08637 1.649 0
M  V30 4152 H 375.356 3.49014 2.26925 0
M  V30 4153 H 375.889 3.92813 0.62791 0
M  V30 4154 H 372.628 6.48857 -0.930874 0
M  V30 4155 H 372.148 5.95734 0.697238 0
M  V30 4156 H 373.827 6.45893 0.378334 0
M  V30 4157 N 373.959 -0.0401083 1.57549 0
M  V30 4158 C 374.891 -1.07149 2.02612 0
M  V30 4159 C 375.904 -1.33126 0.937085 0
M  V30 4160 O 377.093 -1.30808 1.21456 0
M  V30 4161 C 374.193 -2.41561 2.37701 0
M  V30 4162 C 373.366 -2.35096 3.68848 0
M  V30 4163 C 372.425 -3.51867 3.91249 0
M  V30 4164 O 371.451 -3.3186 4.62447 0
M  V30 4165 N 372.653 -4.73351 3.36035 0
M  V30 4166 H 375.418 -0.687485 2.91708 0
M  V30 4167 H 372.979 -0.228248 1.60283 0
M  V30 4168 H 374.971 -3.18379 2.49833 0
M  V30 4169 H 373.541 -2.71846 1.54332 0
M  V30 4170 H 372.761 -1.4345 3.67173 0
M  V30 4171 H 374.049 -2.27908 4.54901 0
M  V30 4172 H 373.447 -4.92507 2.78304 0
M  V30 4173 H 372.004 -5.47572 3.53565 0
M  V30 4174 N 375.437 -1.54477 -0.31217 0
M  V30 4175 C 376.683 -1.74417 -1.04644 0
M  V30 4176 C 377.038 -0.517641 -1.85306 0
M  V30 4177 O 376.331 0.489973 -1.85229 0
M  V30 4178 C 376.525 -2.967 -1.99258 0
M  V30 4179 C 376.354 -4.31128 -1.27901 0
M  V30 4180 C 375.124 -4.95087 -1.01079 0
M  V30 4181 C 377.322 -5.09662 -0.689119 0
M  V30 4182 N 375.304 -6.13322 -0.266323 0
M  V30 4183 C 376.675 -6.19952 -0.0768523 0
M  V30 4184 C 378.73 -4.94355 -0.593061 0
M  V30 4185 C 377.433 -7.16604 0.622165 0
M  V30 4186 C 379.459 -5.91328 0.0922792 0
M  V30 4187 C 378.821 -7.00978 0.693443 0
M  V30 4188 H 374.92 -0.69094 -0.366231 0
M  V30 4189 H 377.504 -1.91946 -0.326319 0
M  V30 4190 H 375.675 -2.80616 -2.68532 0
M  V30 4191 H 377.407 -3.05216 -2.65755 0
M  V30 4192 H 374.162 -4.55235 -1.30607 0
M  V30 4193 H 374.586 -6.76937 0.0920973 0
M  V30 4194 H 379.228 -4.09719 -1.04355 0
M  V30 4195 H 376.946 -8.0079 1.08445 0
M  V30 4196 H 380.532 -5.81562 0.166396 0
M  V30 4197 H 379.412 -7.74725 1.21533 0
M  V30 4198 N 376.915 0.57481 -1.46744 0
M  V30 4199 C 377.862 1.68329 -1.57905 0
M  V30 4200 C 378.832 1.60625 -0.422927 0
M  V30 4201 O 380.017 1.79721 -0.640711 0
M  V30 4202 C 377.157 3.06665 -1.58274 0
M  V30 4203 C 376.27 3.24935 -2.84678 0
M  V30 4204 C 375.405 4.53566 -2.76499 0
M  V30 4205 C 374.444 4.65207 -3.97806 0
M  V30 4206 N 373.581 5.85172 -3.87967 0
M  V30 4207 H 378.421 1.58127 -2.52587 0
M  V30 4208 H 375.958 0.770552 -1.25303 0
M  V30 4209 H 377.916 3.86745 -1.56473 0
M  V30 4210 H 376.546 3.15745 -0.671194 0
M  V30 4211 H 375.598 2.38405 -2.96424 0
M  V30 4212 H 376.91 3.29403 -3.7456 0
M  V30 4213 H 376.064 5.41885 -2.72848 0
M  V30 4214 H 374.803 4.51548 -1.8427 0
M  V30 4215 H 373.808 3.75304 -4.0178 0
M  V30 4216 H 375.033 4.68997 -4.9114 0
M  V30 4217 H 372.979 5.84137 -2.98529 0
M  V30 4218 H 372.896 5.90943 -4.71511 0
M  V30 4219 H 374.164 6.759 -3.88303 0
M  V30 4220 N 378.394 1.34581 0.820102 0
M  V30 4221 C 379.81 1.14325 1.11364 0
M  V30 4222 C 380.01 -0.0533648 2.01429 0
M  V30 4223 O 379.066 -0.728044 2.41776 0
M  V30 4224 C 380.379 2.43983 1.75764 0
M  V30 4225 C 381.927 2.50065 1.88246 0
M  V30 4226 C 382.402 3.79732 2.56061 0
M  V30 4227 N 383.893 3.80908 2.63558 0
M  V30 4228 C 384.628 4.77961 3.16766 0
M  V30 4229 N 384.124 5.85397 3.70517 0
M  V30 4230 N 385.917 4.65413 3.15194 0
M  V30 4231 H 378.068 2.11246 0.221096 0
M  V30 4232 H 380.331 0.934289 0.160649 0
M  V30 4233 H 380.037 3.31651 1.1705 0
M  V30 4234 H 379.911 2.57531 2.75604 0
M  V30 4235 H 382.298 1.62834 2.46108 0
M  V30 4236 H 382.379 2.40442 0.873006 0
M  V30 4237 H 382.023 4.67354 1.98853 0
M  V30 4238 H 381.953 3.86639 3.57516 0
M  V30 4239 H 384.444 3.03274 2.25463 0
M  V30 4240 H 384.757 6.55463 4.09376 0
M  V30 4241 H 383.102 5.89107 3.68752 0
M  V30 4242 H 386.293 3.80627 2.72471 0
M  V30 4243 H 386.466 5.41216 3.56356 0
M  V30 4244 N 379.872 -1.04064 1.18357 0
M  V30 4245 C 381.288 -1.2947 0.933258 0
M  V30 4246 C 381.488 -1.97466 -0.401169 0
M  V30 4247 O 380.544 -2.25528 -1.13549 0
M  V30 4248 C 381.857 -2.15337 2.09882 0
M  V30 4249 C 383.405 -2.28683 2.13712 0
M  V30 4250 C 383.88 -3.17917 3.29686 0
M  V30 4251 N 385.371 -3.25504 3.29547 0
M  V30 4252 C 386.106 -3.94706 4.15926 0
M  V30 4253 N 385.602 -4.66239 5.12439 0
M  V30 4254 N 387.395 -3.90986 4.0384 0
M  V30 4255 H 379.546 -0.583359 2.04232 0
M  V30 4256 H 381.809 -0.319921 0.892387 0
M  V30 4257 H 381.515 -1.72682 3.06389 0
M  V30 4258 H 381.389 -3.16015 2.05947 0
M  V30 4259 H 383.776 -2.70575 1.17784 0
M  V30 4260 H 383.857 -1.27596 2.21705 0
M  V30 4261 H 383.501 -2.76736 4.25887 0
M  V30 4262 H 383.431 -4.19036 3.1893 0
M  V30 4263 H 385.922 -2.74547 2.59677 0
M  V30 4264 H 386.235 -5.16638 5.74722 0
M  V30 4265 H 384.58 -4.65143 5.16398 0
M  V30 4266 H 387.771 -3.34234 3.27727 0
M  V30 4267 H 387.944 -4.44646 4.71375 0
M  V30 4268 N 381.35 -0.985608 -1.22978 0
M  V30 4269 C 382.282 -0.488154 -2.23941 0
M  V30 4270 C 383.295 0.41282 -1.57479 0
M  V30 4271 O 384.484 0.216121 -1.77187 0
M  V30 4272 C 381.584 0.312611 -3.37455 0
M  V30 4273 C 380.757 -0.582741 -4.33501 0
M  V30 4274 C 379.816 0.165064 -5.25941 0
M  V30 4275 O 378.842 -0.447077 -5.67442 0
M  V30 4276 N 380.044 1.44953 -5.62111 0
M  V30 4277 H 382.809 -1.3563 -2.67254 0
M  V30 4278 H 380.37 -0.859477 -1.37203 0
M  V30 4279 H 382.362 0.821357 -3.96277 0
M  V30 4280 H 380.932 1.0818 -2.93285 0
M  V30 4281 H 380.152 -1.27225 -3.73105 0
M  V30 4282 H 381.44 -1.19275 -4.94622 0
M  V30 4283 H 380.838 1.9683 -5.30353 0
M  V30 4284 H 379.395 1.90361 -6.23383 0
M  V30 4285 N 382.828 1.3818 -0.7579 0
M  V30 4286 C 383.76 2.2901 -0.0932177 0
M  V30 4287 C 384.773 1.47958 0.679136 0
M  V30 4288 O 385.962 1.70773 0.519514 0
M  V30 4289 C 383.062 3.26953 0.89192 0
M  V30 4290 C 382.235 4.37045 0.176303 0
M  V30 4291 C 381.294 5.15148 1.07281 0
M  V30 4292 O 380.32 5.66616 0.541728 0
M  V30 4293 N 381.522 5.28542 2.40049 0
M  V30 4294 H 384.287 2.86694 -0.873303 0
M  V30 4295 H 381.848 1.50007 -0.609054 0
M  V30 4296 H 383.84 3.76083 1.49479 0
M  V30 4297 H 382.41 2.70136 1.57306 0
M  V30 4298 H 381.63 3.89493 -0.607328 0
M  V30 4299 H 382.918 5.07801 -0.318718 0
M  V30 4300 H 382.316 4.88285 2.85647 0
M  V30 4301 H 380.873 5.8103 2.95376 0
M  V30 4302 N 384.306 0.507319 1.49211 0
M  V30 4303 C 385.236 -0.256939 2.32082 0
M  V30 4304 C 386.217 -0.956609 1.40652 0
M  V30 4305 O 387.402 -0.946788 1.69557 0
M  V30 4306 C 384.532 -1.31802 3.21318 0
M  V30 4307 C 383.486 -0.737855 4.21592 0
M  V30 4308 C 382.812 -1.89992 4.99807 0
M  V30 4309 C 384.112 0.275325 5.21574 0
M  V30 4310 H 385.806 0.434798 2.96226 0
M  V30 4311 H 383.352 0.210546 1.42452 0
M  V30 4312 H 385.305 -1.86045 3.78107 0
M  V30 4313 H 384.029 -2.03903 2.5513 0
M  V30 4314 H 382.688 -0.217126 3.65956 0
M  V30 4315 H 382.336 -2.60877 4.30061 0
M  V30 4316 H 382.036 -1.51777 5.6766 0
M  V30 4317 H 383.56 -2.44657 5.59442 0
M  V30 4318 H 384.974 -0.179193 5.7302 0
M  V30 4319 H 383.371 0.573649 5.97352 0
M  V30 4320 H 384.441 1.18903 4.70096 0
M  V30 4321 N 385.784 -1.5574 0.241426 0
M  V30 4322 C 386.747 -2.19877 -0.647063 0
M  V30 4323 C 387.747 -1.16642 -1.10686 0
M  V30 4324 O 388.937 -1.41757 -1.01245 0
M  V30 4325 C 386.069 -2.83797 -1.88871 0
M  V30 4326 H 387.262 -2.99772 -0.087574 0
M  V30 4327 H 384.815 -1.56298 -0.00813574 0
M  V30 4328 H 385.55 -2.07824 -2.48957 0
M  V30 4329 H 385.335 -3.59414 -1.56728 0
M  V30 4330 H 386.825 -3.32898 -2.52129 0
M  V30 4331 N 387.262 0.0317525 -1.57568 0
M  V30 4332 C 388.51 0.721676 -1.88776 0
M  V30 4333 C 388.831 1.76039 -0.838772 0
M  V30 4334 O 388.101 1.95482 0.127935 0
M  V30 4335 H 386.681 0.269534 -0.696678 0
M  V30 4336 H 389.343 -0.00165879 -1.949 0
M  V30 4337 H 388.439 1.21293 -2.87566 0
M  V30 4338 N 388.74 1.54641 0.303973 0
M  V30 4339 C 389.688 1.86137 1.39484 0
M  V30 4340 C 390.682 0.734854 1.52631 0
M  V30 4341 O 391.888 0.918803 1.54784 0
M  V30 4342 H 388.263 0.590324 0.465856 0
M  V30 4343 H 390.234 2.77324 1.10154 0
M  V30 4344 C 388.983 2.12274 2.75382 0
M  V30 4345 H 388.306 2.98429 2.66046 0
M  V30 4346 H 389.746 2.38254 3.5073 0
M  V30 4347 C 388.205 0.920365 3.24085 0
M  V30 4348 O 388.735 0.139377 4.01458 0
M  V30 4349 N 386.941 0.726566 2.81371 0
M  V30 4350 H 386.488 1.36332 2.18567 0
M  V30 4351 H 386.446 -0.0763799 3.14307 0
M  V30 4352 N 390.218 -0.567019 1.47046 0
M  V30 4353 C 391.466 -1.322 1.52864 0
M  V30 4354 C 391.787 -1.94088 0.188388 0
M  V30 4355 O 391.057 -1.7941 -0.786693 0
M  V30 4356 H 389.637 -0.490894 0.563056 0
M  V30 4357 H 392.299 -0.662879 1.83281 0
M  V30 4358 H 391.395 -2.12062 2.2899 0
M  V30 4359 N 391.696 -1.35014 -0.812953 0
M  V30 4360 C 392.944 -1.27678 -1.56661 0
M  V30 4361 C 393.265 0.150359 -1.94419 0
M  V30 4362 O 392.535 1.08532 -1.63088 0
M  V30 4363 H 391.115 -0.469602 -0.580933 0
M  V30 4364 H 393.777 -1.69043 -0.970076 0
M  V30 4365 H 392.873 -1.88833 -2.48492 0
M  V30 4366 N 393.175 1.03435 -1.18907 0
M  V30 4367 C 394.586 1.58195 -0.991523 0
M  V30 4368 C 394.937 1.90801 0.457081 0
M  V30 4369 O 394.062 1.70272 1.33553 0
M  V30 4370 C 394.657 2.87432 -1.79355 0
M  V30 4371 C 393.216 3.38785 -1.64017 0
M  V30 4372 C 392.363 2.12292 -1.78402 0
M  V30 4373 H 395.314 0.860299 -1.33359 0
M  V30 4374 H 395.335 3.58096 -1.28638 0
M  V30 4375 H 394.847 2.63669 -2.84781 0
M  V30 4376 H 392.948 3.67547 -0.611536 0
M  V30 4377 H 393.061 4.12186 -2.44212 0
M  V30 4378 H 391.425 2.23901 -1.2141 0
M  V30 4379 H 392.208 1.90977 -2.85277 0
M  V30 4380 N 394.653 0.992116 1.22453 0
M  V30 4381 C 396.064 0.702776 1.72968 0
M  V30 4382 C 396.415 -0.780399 1.80012 0
M  V30 4383 O 395.54 -1.61007 1.44589 0
M  V30 4384 C 396.135 1.26903 3.14135 0
M  V30 4385 C 394.694 1.02909 3.62059 0
M  V30 4386 C 393.841 1.38969 2.39964 0
M  V30 4387 H 396.792 1.16457 1.07812 0
M  V30 4388 H 396.813 0.647223 3.74955 0
M  V30 4389 H 396.325 2.34851 3.08977 0
M  V30 4390 H 394.426 -0.0337979 3.72585 0
M  V30 4391 H 394.539 1.69191 4.48231 0
M  V30 4392 H 392.903 0.808279 2.41535 0
M  V30 4393 H 393.686 2.4792 2.37467 0
M  V30 4394 N 396.131 -1.37776 0.765217 0
M  V30 4395 C 397.041 -2.34135 0.147666 0
M  V30 4396 C 398.057 -1.59854 -0.687215 0
M  V30 4397 O 399.233 -1.91983 -0.608659 0
M  V30 4398 C 396.298 -3.3901 -0.72617 0
M  V30 4399 C 395.359 -4.2912 0.124417 0
M  V30 4400 C 394.592 -5.28986 -0.707807 0
M  V30 4401 O 394.815 -5.36205 -1.94525 0
M  V30 4402 O 393.749 -6.01779 -0.12046 0
M  V30 4403 H 397.575 -2.88664 0.943758 0
M  V30 4404 H 395.16 -1.39824 0.526277 0
M  V30 4405 H 397.042 -4.03195 -1.22524 0
M  V30 4406 H 395.717 -2.86819 -1.50056 0
M  V30 4407 H 394.624 -3.68057 0.669696 0
M  V30 4408 H 395.957 -4.84598 0.861736 0
M  V30 4409 N 397.609 -0.515225 -1.4894 0
M  V30 4410 C 398.857 0.0241671 -2.02086 0
M  V30 4411 C 399.178 1.3616 -1.3959 0
M  V30 4412 O 398.448 1.87841 -0.556121 0
M  V30 4413 H 397.028 0.0119203 -0.746905 0
M  V30 4414 H 399.69 -0.675702 -1.82812 0
M  V30 4415 H 398.786 0.143385 -3.1177 0
M  V30 4416 N 399.087 1.5561 -0.249682 0
M  V30 4417 C 400.312 2.03865 0.381305 0
M  V30 4418 C 400.737 1.12769 1.50548 0
M  V30 4419 O 400.095 0.121189 1.80895 0
M  V30 4420 C 400.143 3.50101 0.863816 0
M  V30 4421 O 399.247 3.62132 1.97318 0
M  V30 4422 H 398.588 0.658827 0.0827194 0
M  V30 4423 H 401.118 2.01105 -0.376552 0
M  V30 4424 H 401.128 3.90975 1.1663 0
M  V30 4425 H 399.803 4.1588 0.0411816 0
M  V30 4426 H 398.38 3.33155 1.67517 0
M  V30 4427 N 400.565 -0.0233959 1.57583 0
M  V30 4428 C 401.495 -1.02162 2.09965 0
M  V30 4429 C 402.476 -1.3735 1.00344 0
M  V30 4430 O 403.661 -1.46135 1.27899 0
M  V30 4431 C 400.791 -2.32081 2.58371 0
M  V30 4432 C 399.745 -2.1112 3.72307 0
M  V30 4433 C 399.071 -3.46848 4.06941 0
M  V30 4434 C 400.371 -1.49276 5.00514 0
M  V30 4435 H 402.065 -0.585557 2.93618 0
M  V30 4436 H 399.611 -0.280218 1.41247 0
M  V30 4437 H 401.564 -3.02249 2.93639 0
M  V30 4438 H 400.288 -2.77758 1.71808 0
M  V30 4439 H 398.947 -1.43384 3.37397 0
M  V30 4440 H 398.595 -3.90184 3.17436 0
M  V30 4441 H 398.295 -3.33646 4.83688 0
M  V30 4442 H 399.819 -4.18369 4.44747 0
M  V30 4443 H 401.233 -2.09368 5.33702 0
M  V30 4444 H 399.63 -1.46632 5.8191 0
M  V30 4445 H 400.7 -0.459217 4.82721 0
M  V30 4446 N 402.043 -1.548 -0.295768 0
M  V30 4447 C 403.32 -1.65014 -1.05023 0
M  V30 4448 C 403.7 -0.501805 -2.05049 0
M  V30 4449 O 403.048 0.500869 -2.22943 0
M  V30 4450 C 403.258 -3.03252 -1.72741 0
M  V30 4451 C 404.606 -3.60242 -2.24746 0
M  V30 4452 O 405.63 -3.05737 -1.82765 0
M  V30 4453 O 404.489 -4.55687 -3.01681 0
M  V30 4454 H 401.583 -0.669314 -0.485744 0
M  V30 4455 H 404.129 -1.67144 -0.293438 0
M  V30 4456 H 402.901 -3.7827 -1.00138 0
M  V30 4457 H 402.524 -3.04922 -2.55163 0
M  V30 4458 N 403.521 0.559213 -1.47345 0
M  V30 4459 C 404.767 1.31843 -1.54095 0
M  V30 4460 C 405.1 1.93149 -0.201726 0
M  V30 4461 O 404.375 1.77759 0.789428 0
M  V30 4462 C 404.658 2.43006 -2.65744 0
M  V30 4463 C 404.511 1.86581 -4.09277 0
M  V30 4464 C 405.83 3.44943 -2.73318 0
M  V30 4465 H 402.949 0.478012 -0.560957 0
M  V30 4466 H 405.591 0.625977 -1.79392 0
M  V30 4467 H 403.741 3.02072 -2.44305 0
M  V30 4468 H 405.413 1.31792 -4.42073 0
M  V30 4469 H 403.656 1.17268 -4.17649 0
M  V30 4470 H 404.327 2.66933 -4.83168 0
M  V30 4471 H 406.803 2.95793 -2.92653 0
M  V30 4472 H 405.679 4.20153 -3.53218 0
M  V30 4473 H 405.94 4.03665 -1.80296 0
M  V30 4474 N 404.999 1.35443 0.805782 0
M  V30 4475 C 405.929 1.31095 1.93226 0
M  V30 4476 C 406.91 0.185244 1.69088 0
M  V30 4477 O 408.095 0.380332 1.90439 0
M  V30 4478 C 405.225 1.08299 3.29983 0
M  V30 4479 C 404.179 2.17519 3.68605 0
M  V30 4480 C 403.505 1.79887 5.03532 0
M  V30 4481 C 404.805 3.5949 3.78898 0
M  V30 4482 H 406.499 2.25352 1.97122 0
M  V30 4483 H 404.045 1.0848 0.946996 0
M  V30 4484 H 405.998 1.03897 4.08391 0
M  V30 4485 H 404.722 0.104885 3.26432 0
M  V30 4486 H 403.381 2.2102 2.92482 0
M  V30 4487 H 403.029 0.80693 4.96485 0
M  V30 4488 H 402.729 2.53001 5.30344 0
M  V30 4489 H 404.253 1.77011 5.84379 0
M  V30 4490 H 405.667 3.58307 4.47536 0
M  V30 4491 H 404.064 4.31371 4.1718 0
M  V30 4492 H 405.134 3.95584 2.80431 0
M  V30 4493 N 406.477 -1.02803 1.19454 0
M  V30 4494 C 407.409 -2.11181 0.890807 0
M  V30 4495 C 408.422 -1.6238 -0.116829 0
M  V30 4496 O 409.611 -1.78144 0.112694 0
M  V30 4497 C 406.711 -3.37461 0.311942 0
M  V30 4498 C 405.884 -4.15446 1.36834 0
M  V30 4499 C 404.943 -5.20039 0.802864 0
M  V30 4500 O 403.969 -5.49602 1.48077 0
M  V30 4501 N 405.171 -5.79165 -0.393417 0
M  V30 4502 H 407.936 -2.37827 1.82369 0
M  V30 4503 H 405.497 -1.19101 1.09666 0
M  V30 4504 H 407.489 -4.0462 -0.0802225 0
M  V30 4505 H 406.059 -3.08156 -0.52524 0
M  V30 4506 H 405.279 -3.43423 1.93531 0
M  V30 4507 H 406.567 -4.64335 2.08015 0
M  V30 4508 H 405.965 -5.57466 -0.961658 0
M  V30 4509 H 404.522 -6.47729 -0.727351 0
M  V30 4510 N 407.956 -0.998596 -1.21925 0
M  V30 4511 C 409.181 -0.696015 -1.95372 0
M  V30 4512 C 409.606 0.733826 -1.73195 0
M  V30 4513 O 408.964 1.50242 -1.01474 0
M  V30 4514 C 409.012 -1.01466 -3.4603 0
M  V30 4515 O 408.116 -0.116415 -4.12236 0
M  V30 4516 H 407.457 -0.259938 -0.611006 0
M  V30 4517 H 409.987 -1.33711 -1.54863 0
M  V30 4518 H 409.997 -0.958855 -3.96573 0
M  V30 4519 H 408.672 -2.05653 -3.61497 0
M  V30 4520 H 407.249 -0.228193 -3.72201 0
M  V30 4521 N 409.434 1.37368 -0.772513 0
M  V30 4522 C 410.68 2.00423 -0.3467 0
M  V30 4523 C 411.035 1.60224 1.06518 0
M  V30 4524 O 410.328 0.838712 1.72268 0
M  V30 4525 C 410.522 3.54817 -0.428876 0
M  V30 4526 C 410.351 4.10011 -1.84719 0
M  V30 4527 C 409.121 4.40927 -2.46803 0
M  V30 4528 C 411.319 4.30955 -2.80681 0
M  V30 4529 N 409.301 4.8184 -3.80399 0
M  V30 4530 C 410.672 4.74486 -3.99078 0
M  V30 4531 C 412.727 4.1309 -2.77958 0
M  V30 4532 C 411.43 5.02023 -5.15136 0
M  V30 4533 C 413.456 4.41764 -3.9319 0
M  V30 4534 C 412.818 4.85535 -5.10328 0
M  V30 4535 H 408.917 0.762413 -0.173927 0
M  V30 4536 H 411.501 1.66666 -1.00651 0
M  V30 4537 H 409.672 3.87881 0.200757 0
M  V30 4538 H 411.404 4.04696 0.0190668 0
M  V30 4539 H 408.159 4.30033 -1.98415 0
M  V30 4540 H 408.583 5.06604 -4.49089 0
M  V30 4541 H 413.225 3.7842 -1.88568 0
M  V30 4542 H 410.943 5.35582 -6.05126 0
M  V30 4543 H 414.529 4.29528 -3.92425 0
M  V30 4544 H 413.409 5.07296 -5.98013 0
M  V30 4545 N 410.912 0.523116 1.48665 0
M  V30 4546 C 412.152 -0.0115588 2.04397 0
M  V30 4547 C 412.516 -1.32225 1.39214 0
M  V30 4548 O 413.717 -1.94253 1.85793 0
M  V30 4549 C 411.988 -0.138119 3.57133 0
M  V30 4550 S 413.547 -0.623849 4.34343 0
M  V30 4551 H 410.365 0.00877706 0.710946 0
M  V30 4552 H 412.967 0.702116 1.82457 0
M  V30 4553 H 411.671 0.820748 4.02109 0
M  V30 4554 H 411.202 -0.876377 3.83514 0
M  V30 4555 H 413.217 -1.8895 4.58816 0
M  V30 4556 N 412.39 -1.55475 0.257931 0
M  V30 4557 C 413.3 -2.2549 -0.647425 0
M  V30 4558 C 414.316 -1.2748 -1.18427 0
M  V30 4559 O 415.492 -1.6038 -1.2182 0
M  V30 4560 C 412.557 -2.94916 -1.82278 0
M  V30 4561 C 411.618 -4.08363 -1.32432 0
M  V30 4562 C 410.851 -4.74469 -2.44366 0
M  V30 4563 O 411.074 -4.39701 -3.63344 0
M  V30 4564 O 410.008 -5.62763 -2.13497 0
M  V30 4565 H 413.834 -3.03593 -0.0807707 0
M  V30 4566 H 411.419 -1.49377 0.0259962 0
M  V30 4567 H 413.301 -3.38606 -2.50846 0
M  V30 4568 H 411.976 -2.19744 -2.37685 0
M  V30 4569 H 410.883 -3.69166 -0.605605 0
M  V30 4570 H 412.216 -4.85385 -0.816211 0
M  V30 4571 N 413.868 0.0150385 -1.57593 0
M  V30 4572 C 414.815 1.01126 -2.07466 0
M  V30 4573 C 415.785 1.35064 -0.966794 0
M  V30 4574 O 416.97 1.4516 -1.23827 0
M  V30 4575 C 414.11 2.30276 -2.57035 0
M  V30 4576 C 413.223 2.02373 -3.81666 0
M  V30 4577 C 412.358 3.25496 -4.19793 0
M  V30 4578 C 411.397 2.93211 -5.37303 0
M  V30 4579 N 410.534 4.08826 -5.70794 0
M  V30 4580 H 415.374 0.57901 -2.92321 0
M  V30 4581 H 412.911 0.27426 -1.44521 0
M  V30 4582 H 414.869 3.05757 -2.83846 0
M  V30 4583 H 413.499 2.71197 -1.75077 0
M  V30 4584 H 412.551 1.17327 -3.61854 0
M  V30 4585 H 413.863 1.74567 -4.67256 0
M  V30 4586 H 413.017 4.09333 -4.47807 0
M  V30 4587 H 411.756 3.56428 -3.32882 0
M  V30 4588 H 410.761 2.07777 -5.09027 0
M  V30 4589 H 411.986 2.63542 -6.25877 0
M  V30 4590 H 409.932 4.39682 -4.86842 0
M  V30 4591 H 409.849 3.84491 -6.50924 0
M  V30 4592 H 411.117 4.93496 -6.03392 0
M  V30 4593 N 415.346 1.54954 0.287554 0
M  V30 4594 C 416.276 1.89839 1.35954 0
M  V30 4595 C 417.257 0.758675 1.52244 0
M  V30 4596 O 418.442 1.01557 1.65529 0
M  V30 4597 C 415.572 2.15753 2.72154 0
M  V30 4598 C 414.526 3.3159 2.70614 0
M  V30 4599 C 413.852 3.42952 4.10229 0
M  V30 4600 C 415.152 4.68359 2.31165 0
M  V30 4601 H 416.846 2.79625 1.07007 0
M  V30 4602 H 414.392 1.3454 0.513316 0
M  V30 4603 H 416.345 2.38743 3.47246 0
M  V30 4604 H 415.069 1.22752 3.02654 0
M  V30 4605 H 413.728 3.08545 1.97979 0
M  V30 4606 H 413.376 2.47443 4.37928 0
M  V30 4607 H 413.076 4.20826 4.10097 0
M  V30 4608 H 414.6 3.68218 4.87081 0
M  V30 4609 H 416.014 4.9099 2.95976 0
M  V30 4610 H 414.411 5.49044 2.42221 0
M  V30 4611 H 415.481 4.68165 1.26291 0
M  V30 4612 N 416.824 -0.551391 1.4764 0
M  V30 4613 C 417.787 -1.64007 1.60107 0
M  V30 4614 C 418.787 -1.53601 0.47576 0
M  V30 4615 O 419.977 -1.57655 0.740988 0
M  V30 4616 C 417.109 -3.03569 1.55108 0
M  V30 4617 H 418.302 -1.543 2.57161 0
M  V30 4618 H 415.855 -0.771776 1.35917 0
M  V30 4619 H 416.59 -3.18804 0.594519 0
M  V30 4620 H 416.375 -3.12532 2.36783 0
M  V30 4621 H 417.865 -3.82762 1.66982 0
M  V30 4622 N 418.302 -1.35869 -0.798587 0
M  V30 4623 C 419.212 -1.31578 -1.94228 0
M  V30 4624 C 420.228 -0.21939 -1.72611 0
M  V30 4625 O 421.404 -0.450167 -1.96305 0
M  V30 4626 C 418.469 -1.09528 -3.28944 0
M  V30 4627 C 417.53 -2.28556 -3.63402 0
M  V30 4628 C 416.763 -2.07549 -4.9169 0
M  V30 4629 O 416.986 -1.046 -5.60727 0
M  V30 4630 O 415.92 -2.95106 -5.24591 0
M  V30 4631 H 419.746 -2.27847 -2.00796 0
M  V30 4632 H 417.331 -1.16322 -0.937526 0
M  V30 4633 H 419.213 -0.991127 -4.09579 0
M  V30 4634 H 417.888 -0.16315 -3.23289 0
M  V30 4635 H 416.795 -2.44538 -2.83112 0
M  V30 4636 H 418.128 -3.20244 -3.73771 0
M  V30 4637 N 419.78 1.02168 -1.19998 0
M  V30 4638 C 421.029 1.75091 -1.0013 0
M  V30 4639 C 421.342 1.89923 0.467835 0
M  V30 4640 O 422.548 2.59888 0.785515 0
M  V30 4641 C 421.004 3.14892 -1.74273 0
M  V30 4642 C 420.612 3.0809 -3.25245 0
M  V30 4643 C 422.356 3.9206 -1.62755 0
M  V30 4644 C 420.263 4.42867 -3.91948 0
M  V30 4645 H 419.193 0.656394 -0.37103 0
M  V30 4646 H 421.844 1.14284 -1.43567 0
M  V30 4647 H 420.226 3.7621 -1.2362 0
M  V30 4648 H 421.4 2.5611 -3.83072 0
M  V30 4649 H 419.715 2.44416 -3.3712 0
M  V30 4650 H 422.312 4.91764 -2.09934 0
M  V30 4651 H 422.655 4.12199 -0.582894 0
M  V30 4652 H 423.188 3.37359 -2.10793 0
M  V30 4653 H 419.927 4.27931 -4.96543 0
M  V30 4654 H 419.447 4.94874 -3.3891 0
M  V30 4655 H 421.126 5.11728 -3.95909 0
M  V30 4656 N 421.258 1.00505 1.21394 0
M  V30 4657 C 422.507 0.683159 1.89778 0
M  V30 4658 C 422.82 -0.789471 1.7896 0
M  V30 4659 O 424.026 -1.22344 2.42372 0
M  V30 4660 C 422.482 1.17146 3.40301 0
M  V30 4661 C 422.09 2.67017 3.5973 0
M  V30 4662 C 423.834 0.924461 4.14311 0
M  V30 4663 C 421.741 3.09387 5.04017 0
M  V30 4664 H 420.671 0.25183 0.710702 0
M  V30 4665 H 423.322 1.21622 1.37406 0
M  V30 4666 H 421.704 0.566451 3.91928 0
M  V30 4667 H 422.878 3.32968 3.18542 0
M  V30 4668 H 421.193 2.89732 2.99073 0
M  V30 4669 H 423.79 1.21658 5.20676 0
M  V30 4670 H 424.133 -0.139286 4.16067 0
M  V30 4671 H 424.666 1.49226 3.6875 0
M  V30 4672 H 421.405 4.14989 5.07409 0
M  V30 4673 H 420.925 2.48149 5.46061 0
M  V30 4674 H 422.604 3.01371 5.72525 0
M  V30 4675 N 422.737 -1.36956 0.779787 0
M  V30 4676 C 423.983 -2.00237 0.357324 0
M  V30 4677 C 424.338 -1.60787 -1.05666 0
M  V30 4678 O 423.631 -0.847836 -1.71821 0
M  V30 4679 C 423.825 -3.54585 0.447686 0
M  V30 4680 C 423.654 -4.09025 1.86891 0
M  V30 4681 C 422.424 -4.39612 2.49138 0
M  V30 4682 C 424.622 -4.29461 2.82963 0
M  V30 4683 N 422.604 -4.79816 3.82949 0
M  V30 4684 C 423.975 -4.72363 4.01588 0
M  V30 4685 C 426.03 -4.1161 2.80145 0
M  V30 4686 C 424.733 -4.99284 5.17791 0
M  V30 4687 C 426.759 -4.39672 3.95528 0
M  V30 4688 C 426.121 -4.82822 5.12896 0
M  V30 4689 H 422.22 -0.76148 0.177968 0
M  V30 4690 H 424.804 -1.6613 1.01533 0
M  V30 4691 H 422.975 -3.87982 -0.180184 0
M  V30 4692 H 424.707 -4.047 0.0023955 0
M  V30 4693 H 421.462 -4.28975 2.00693 0
M  V30 4694 H 421.886 -5.04216 4.51769 0
M  V30 4695 H 426.528 -3.77415 1.90572 0
M  V30 4696 H 424.246 -5.32365 6.07958 0
M  V30 4697 H 427.832 -4.27441 3.94697 0
M  V30 4698 H 426.712 -5.04118 6.00695 0
M  V30 4699 N 424.215 -0.530993 -1.48385 0
M  V30 4700 C 425.147 0.268353 -2.27624 0
M  V30 4701 C 426.16 0.903525 -1.35426 0
M  V30 4702 O 427.349 0.781796 -1.60469 0
M  V30 4703 C 424.449 1.39535 -3.08842 0
M  V30 4704 C 423.622 0.861913 -4.28824 0
M  V30 4705 C 422.681 1.87016 -4.91845 0
M  V30 4706 O 421.707 1.4267 -5.5103 0
M  V30 4707 N 422.909 3.20238 -4.84178 0
M  V30 4708 H 425.674 -0.41123 -2.96865 0
M  V30 4709 H 423.235 -0.365387 -1.57723 0
M  V30 4710 H 425.227 2.06803 -3.47871 0
M  V30 4711 H 423.797 1.97859 -2.42014 0
M  V30 4712 H 423.017 0.0132126 -3.94198 0
M  V30 4713 H 424.305 0.484415 -5.06489 0
M  V30 4714 H 423.703 3.58932 -4.37246 0
M  V30 4715 H 422.26 3.83136 -5.27305 0
M  V30 4716 N 425.693 1.55336 -0.266172 0
M  V30 4717 C 426.641 2.23587 0.641228 0
M  V30 4718 C 427.635 1.22986 1.16494 0
M  V30 4719 O 428.841 1.40943 1.1196 0
M  V30 4720 H 425.216 0.717452 0.225315 0
M  V30 4721 H 427.187 2.9837 0.0426561 0
M  V30 4722 C 425.936 2.96369 1.81826 0
M  V30 4723 H 425.259 3.73563 1.42445 0
M  V30 4724 H 426.699 3.47459 2.42998 0
M  V30 4725 C 425.158 2.0133 2.70125 0
M  V30 4726 O 425.688 1.55875 3.70224 0
M  V30 4727 N 423.894 1.6802 2.37102 0
M  V30 4728 H 423.441 2.05181 1.55751 0
M  V30 4729 H 423.399 1.047 2.96454 0
M  V30 4730 N 427.171 -0.0066808 1.57599 0
M  V30 4731 C 428.587 -0.36267 1.55425 0
M  V30 4732 C 428.787 -1.75209 0.995187 0
M  V30 4733 O 427.843 -2.44616 0.626058 0
M  V30 4734 C 429.156 -0.244017 2.99708 0
M  V30 4735 C 430.704 -0.319451 3.11366 0
M  V30 4736 C 431.179 -0.229998 4.57422 0
M  V30 4737 N 432.67 -0.288105 4.62303 0
M  V30 4738 C 433.405 -0.242127 5.72889 0
M  V30 4739 N 432.901 -0.147133 6.92644 0
M  V30 4740 N 434.694 -0.293502 5.61333 0
M  V30 4741 H 426.845 0.902314 1.92281 0
M  V30 4742 H 429.108 0.34525 0.882896 0
M  V30 4743 H 428.814 0.711678 3.44424 0
M  V30 4744 H 428.688 -1.02877 3.629 0
M  V30 4745 H 431.075 -1.26559 2.66584 0
M  V30 4746 H 431.156 0.495055 2.50964 0
M  V30 4747 H 430.8 0.712566 5.02877 0
M  V30 4748 H 430.73 -1.0629 5.15761 0
M  V30 4749 H 433.221 -0.363126 3.76151 0
M  V30 4750 H 433.534 -0.117763 7.7271 0
M  V30 4751 H 431.879 -0.112857 6.94908 0
M  V30 4752 H 435.07 -0.365864 4.66668 0
M  V30 4753 H 435.243 -0.254204 6.47501 0
M  V30 4754 N 428.649 -1.55105 -0.279332 0
M  V30 4755 C 429.581 -1.83952 -1.36727 0
M  V30 4756 C 430.594 -0.723642 -1.45833 0
M  V30 4757 O 431.783 -1.00141 -1.47763 0
M  V30 4758 C 428.883 -1.98183 -2.74912 0
M  V30 4759 C 428.056 -3.28787 -2.88475 0
M  V30 4760 C 427.115 -3.33162 -4.07295 0
M  V30 4761 O 426.141 -4.06576 -3.98353 0
M  V30 4762 N 427.343 -2.60109 -5.18964 0
M  V30 4763 H 430.108 -2.77853 -1.12328 0
M  V30 4764 H 427.669 -1.54945 -0.469442 0
M  V30 4765 H 429.661 -1.98488 -3.52682 0
M  V30 4766 H 428.231 -1.11177 -2.92162 0
M  V30 4767 H 427.451 -3.41075 -1.97641 0
M  V30 4768 H 428.739 -4.14933 -2.94463 0
M  V30 4769 H 428.137 -2.00136 -5.29115 0
M  V30 4770 H 426.694 -2.66143 -5.94988 0
M  V30 4771 N 430.127 0.543554 -1.4793 0
M  V30 4772 C 431.059 1.665 -1.57513 0
M  V30 4773 C 432.072 1.56156 -0.460333 0
M  V30 4774 O 433.261 1.62865 -0.730573 0
M  V30 4775 C 430.361 3.05063 -1.47614 0
M  V30 4776 C 429.534 3.41024 -2.739 0
M  V30 4777 C 428.593 4.58809 -2.57645 0
M  V30 4778 O 427.619 4.62707 -3.31498 0
M  V30 4779 N 428.821 5.56149 -1.66368 0
M  V30 4780 H 431.586 1.5872 -2.5422 0
M  V30 4781 H 429.147 0.730517 -1.44482 0
M  V30 4782 H 431.139 3.81712 -1.34455 0
M  V30 4783 H 429.709 3.06994 -0.589359 0
M  V30 4784 H 428.929 2.53687 -3.01723 0
M  V30 4785 H 430.217 3.61831 -3.57709 0
M  V30 4786 H 429.615 5.55767 -1.05543 0
M  V30 4787 H 428.172 6.32071 -1.59154 0
M  V30 4788 N 431.605 1.3629 0.791371 0
M  V30 4789 C 432.854 1.29742 1.54434 0
M  V30 4790 C 433.167 -0.121729 1.95221 0
M  V30 4791 O 434.373 -0.309579 2.69729 0
M  V30 4792 C 432.829 2.27623 2.78776 0
M  V30 4793 C 432.437 3.74963 2.45166 0
M  V30 4794 C 434.181 2.30047 3.56761 0
M  V30 4795 C 432.088 4.64626 3.65891 0
M  V30 4796 H 431.018 0.482113 0.579727 0
M  V30 4797 H 433.669 1.61642 0.868565 0
M  V30 4798 H 432.051 1.88714 3.48142 0
M  V30 4799 H 433.225 4.22596 1.83709 0
M  V30 4800 H 431.54 3.75295 1.80396 0
M  V30 4801 H 434.137 2.94247 4.46456 0
M  V30 4802 H 434.48 1.30846 3.95203 0
M  V30 4803 H 435.013 2.67563 2.94372 0
M  V30 4804 H 431.752 5.64883 3.32547 0
M  V30 4805 H 431.272 4.2171 4.26521 0
M  V30 4806 H 432.951 4.80801 4.32943 0
M  V30 4807 N 433.083 -1.0153 1.20538 0
M  V30 4808 C 434.499 -1.27461 0.96051 0
M  V30 4809 C 434.699 -1.98273 -0.359193 0
M  V30 4810 O 433.755 -2.27886 -1.0874 0
M  V30 4811 C 435.068 -2.10837 2.14402 0
M  V30 4812 C 436.616 -2.24099 2.18515 0
M  V30 4813 C 437.091 -3.10852 3.36355 0
M  V30 4814 N 438.582 -3.18441 3.36377 0
M  V30 4815 C 439.317 -3.85795 4.24205 0
M  V30 4816 N 438.813 -4.55264 5.22213 0
M  V30 4817 N 440.606 -3.82331 4.12043 0
M  V30 4818 H 432.757 -0.539907 2.05423 0
M  V30 4819 H 435.02 -0.30092 0.898972 0
M  V30 4820 H 434.726 -1.66144 3.09983 0
M  V30 4821 H 434.6 -3.11576 2.12604 0
M  V30 4822 H 436.987 -2.68016 1.23497 0
M  V30 4823 H 437.068 -1.22865 2.24361 0
M  V30 4824 H 436.712 -2.6764 4.31661 0
M  V30 4825 H 436.642 -4.12177 3.27746 0
M  V30 4826 H 439.133 -2.68978 2.65442 0
M  V30 4827 H 439.446 -5.04331 5.85551 0
M  V30 4828 H 437.791 -4.54085 5.26148 0
M  V30 4829 H 440.982 -3.27207 3.34743 0
M  V30 4830 H 441.155 -4.34547 4.807 0
M  V30 4831 N 434.561 -1.01147 -1.20859 0
M  V30 4832 C 435.977 -0.725422 -1.42161 0
M  V30 4833 C 436.177 0.696919 -1.89064 0
M  V30 4834 O 435.233 1.46539 -2.05627 0
M  V30 4835 C 436.546 -1.74678 -2.44761 0
M  V30 4836 C 438.094 -1.76433 -2.58535 0
M  V30 4837 C 438.569 -2.77481 -3.64374 0
M  V30 4838 N 440.06 -2.76189 -3.71852 0
M  V30 4839 C 440.795 -3.51035 -4.53389 0
M  V30 4840 N 440.291 -4.35541 -5.38773 0
M  V30 4841 N 442.084 -3.39655 -4.47873 0
M  V30 4842 H 434.235 -1.92979 -0.887282 0
M  V30 4843 H 436.498 -0.833327 -0.451962 0
M  V30 4844 H 436.204 -2.76551 -2.17285 0
M  V30 4845 H 436.078 -1.55472 -3.43669 0
M  V30 4846 H 438.465 -0.75248 -2.85345 0
M  V30 4847 H 438.546 -1.99712 -1.5984 0
M  V30 4848 H 438.19 -3.78827 -3.38308 0
M  V30 4849 H 438.12 -2.51466 -4.6268 0
M  V30 4850 H 440.611 -2.14885 -3.10858 0
M  V30 4851 H 440.924 -4.89432 -5.98061 0
M  V30 4852 H 439.269 -4.39621 -5.38292 0
M  V30 4853 H 442.46 -2.73063 -3.80203 0
M  V30 4854 H 442.633 -3.9824 -5.11184 0
M  V30 4855 N 436.039 1.36541 -0.78704 0
M  V30 4856 C 437.002 2.28413 -0.189778 0
M  V30 4857 C 438.002 1.48719 0.611499 0
M  V30 4858 O 439.192 1.68737 0.432842 0
M  V30 4859 C 436.324 3.32824 0.737638 0
M  V30 4860 H 437.517 2.82743 -0.999831 0
M  V30 4861 H 435.07 1.46065 -0.556298 0
M  V30 4862 H 435.805 2.83646 1.57212 0
M  V30 4863 H 435.59 3.91752 0.165044 0
M  V30 4864 H 437.08 4.0144 1.15047 0
M  V30 4865 N 437.518 0.538854 1.48102 0
M  V30 4866 C 438.428 -0.222648 2.33541 0
M  V30 4867 C 439.444 -0.930225 1.47047 0
M  V30 4868 O 440.62 -0.903211 1.80011 0
M  V30 4869 C 437.685 -1.25064 3.23357 0
M  V30 4870 C 436.746 -0.552469 4.2573 0
M  V30 4871 C 435.979 -1.53149 5.11254 0
M  V30 4872 O 436.202 -2.76487 4.9891 0
M  V30 4873 O 435.136 -1.06602 5.92385 0
M  V30 4874 H 438.962 0.477707 2.99919 0
M  V30 4875 H 436.547 0.299669 1.46364 0
M  V30 4876 H 438.429 -1.8445 3.78888 0
M  V30 4877 H 437.104 -1.93325 2.59629 0
M  V30 4878 H 436.011 0.082114 3.7401 0
M  V30 4879 H 437.344 0.0883526 4.92121 0
M  V30 4880 N 438.996 -1.55193 0.274407 0
M  V30 4881 C 439.946 -2.19184 -0.627882 0
M  V30 4882 C 440.93 -1.15625 -1.11892 0
M  V30 4883 O 442.122 -1.41441 -1.06411 0
M  V30 4884 C 439.251 -2.91591 -1.81189 0
M  V30 4885 C 438.337 -4.02438 -1.33807 0
M  V30 4886 N 438.728 -5.0246 -0.580349 0
M  V30 4887 C 437.026 -4.15496 -1.62109 0
M  V30 4888 C 437.727 -5.80756 -0.331344 0
M  V30 4889 N 436.703 -5.36038 -0.903556 0
M  V30 4890 H 440.505 -2.93871 -0.0411216 0
M  V30 4891 H 438.019 -1.62213 0.0779348 0
M  V30 4892 H 440.016 -3.35883 -2.46957 0
M  V30 4893 H 438.676 -2.18414 -2.40261 0
M  V30 4894 H 439.687 -5.17399 -0.227762 0
M  V30 4895 H 436.364 -3.53509 -2.22121 0
M  V30 4896 H 437.754 -6.71335 0.275454 0
M  V30 4897 N 440.474 -0.00167713 -1.576 0
M  V30 4898 C 441.404 0.988091 -2.11563 0
M  V30 4899 C 442.385 1.35736 -1.02517 0
M  V30 4900 O 443.57 1.44082 -1.30208 0
M  V30 4901 C 440.7 2.27941 -2.62031 0
M  V30 4902 C 439.654 2.0517 -3.75619 0
M  V30 4903 C 438.98 3.4033 -4.12407 0
M  V30 4904 C 440.28 1.41294 -5.02825 0
M  V30 4905 H 441.974 0.538771 -2.94513 0
M  V30 4906 H 439.52 0.257712 -1.41675 0
M  V30 4907 H 441.473 2.97539 -2.9841 0
M  V30 4908 H 440.197 2.74989 -1.76205 0
M  V30 4909 H 438.856 1.37998 -3.39635 0
M  V30 4910 H 438.504 3.85085 -3.23603 0
M  V30 4911 H 438.204 3.25909 -4.88935 0
M  V30 4912 H 439.728 4.1124 -4.51347 0
M  V30 4913 H 441.142 2.00851 -5.36965 0
M  V30 4914 H 439.539 1.37356 -5.84169 0
M  V30 4915 H 440.609 0.382362 -4.8339 0
M  V30 4916 N 441.952 1.55251 0.271103 0
M  V30 4917 C 443.192 1.77698 1.01008 0
M  V30 4918 C 443.556 0.567246 1.83429 0
M  V30 4919 O 444.757 0.670013 2.60316 0
M  V30 4920 C 443.028 3.04715 1.86772 0
M  V30 4921 S 444.587 3.48289 2.66909 0
M  V30 4922 H 441.405 0.624343 0.340172 0
M  V30 4923 H 444.007 1.9348 0.280315 0
M  V30 4924 H 442.711 3.90853 1.25149 0
M  V30 4925 H 442.242 2.91604 2.64066 0
M  V30 4926 H 444.257 3.07712 3.89266 0
M  V30 4927 N 443.43 -0.535701 1.48216 0
M  V30 4928 C 444.362 -1.65662 1.58394 0
M  V30 4929 C 445.375 -1.5591 0.468607 0
M  V30 4930 O 446.564 -1.62475 0.7392 0
M  V30 4931 C 443.664 -3.04276 1.4923 0
M  V30 4932 C 442.837 -3.39567 2.75705 0
M  V30 4933 C 441.896 -4.57436 2.60075 0
M  V30 4934 O 440.922 -4.60942 3.33948 0
M  V30 4935 N 442.124 -5.55259 1.69315 0
M  V30 4936 H 444.889 -1.5737 2.55058 0
M  V30 4937 H 442.45 -0.722845 1.44867 0
M  V30 4938 H 444.442 -3.80994 1.36477 0
M  V30 4939 H 443.012 -3.06677 0.605632 0
M  V30 4940 H 442.232 -2.52083 3.03064 0
M  V30 4941 H 443.52 -3.59929 3.59623 0
M  V30 4942 H 442.918 -5.552 1.08489 0
M  V30 4943 H 441.475 -6.31218 1.62504 0
M  V30 4944 N 444.908 -1.36708 -0.784132 0
M  V30 4945 C 445.84 -1.27333 -1.90575 0
M  V30 4946 C 446.853 -0.191706 -1.61667 0
M  V30 4947 O 448.042 -0.446854 -1.72816 0
M  V30 4948 C 445.142 -0.943177 -3.25511 0
M  V30 4949 C 444.315 -2.12776 -3.82158 0
M  V30 4950 C 443.374 -1.76983 -4.95544 0
M  V30 4951 O 442.4 -2.49134 -5.11782 0
M  V30 4952 N 443.602 -0.706624 -5.76183 0
M  V30 4953 H 446.367 -2.23974 -1.99138 0
M  V30 4954 H 443.928 -1.30171 -0.962656 0
M  V30 4955 H 445.92 -0.684799 -3.98864 0
M  V30 4956 H 444.49 -0.0657333 -3.12531 0
M  V30 4957 H 443.71 -2.54863 -3.0073 0
M  V30 4958 H 444.998 -2.91904 -4.16737 0
M  V30 4959 H 444.396 -0.107643 -5.65598 0
M  V30 4960 H 442.953 -0.50808 -6.49817 0
M  V30 4961 N 446.386 1.0089 -1.21074 0
M  V30 4962 C 447.316 2.1145 -0.990523 0
M  V30 4963 C 448.297 1.69897 0.0831699 0
M  V30 4964 O 449.482 1.94052 -0.0758853 0
M  V30 4965 C 446.612 3.42914 -0.550177 0
M  V30 4966 C 445.566 3.98244 -1.56799 0
M  V30 4967 C 444.892 5.25568 -0.984013 0
M  V30 4968 C 446.192 4.30752 -2.95381 0
M  V30 4969 H 447.886 2.3013 -1.91521 0
M  V30 4970 H 445.432 1.10592 -0.92225 0
M  V30 4971 H 447.385 4.19653 -0.383305 0
M  V30 4972 H 446.109 3.24014 0.41015 0
M  V30 4973 H 444.768 3.23621 -1.72236 0
M  V30 4974 H 444.416 5.02998 -0.0155216 0
M  V30 4975 H 444.116 5.63551 -1.66384 0
M  V30 4976 H 445.64 6.04955 -0.828378 0
M  V30 4977 H 447.054 4.98349 -2.8341 0
M  V30 4978 H 445.451 4.79869 -3.60341 0
M  V30 4979 H 446.521 3.39192 -3.46521 0
M  V30 4980 N 447.864 1.01787 1.20321 0
M  V30 4981 C 449.275 0.739307 1.71438 0
M  V30 4982 C 449.626 -0.742041 1.81627 0
M  V30 4983 O 448.751 -1.57903 1.47971 0
M  V30 4984 C 449.346 1.33538 3.11373 0
M  V30 4985 C 447.905 1.10566 3.59795 0
M  V30 4986 C 447.052 1.44028 2.36962 0
M  V30 4987 H 450.003 1.18718 1.05317 0
M  V30 4988 H 450.024 0.726611 3.73498 0
M  V30 4989 H 449.536 2.41352 3.03926 0
M  V30 4990 H 447.637 0.0452405 3.72573 0
M  V30 4991 H 447.75 1.78661 4.44542 0
M  V30 4992 H 446.114 0.85933 2.39766 0
M  V30 4993 H 446.897 2.52901 2.32155 0
M  V30 4994 N 449.342 -1.36122 0.79427 0
M  V30 4995 C 450.591 -1.98361 0.365464 0
M  V30 4996 C 450.904 -1.6374 -1.06997 0
M  V30 4997 O 452.11 -2.19251 -1.60129 0
M  V30 4998 C 450.566 -3.54821 0.602496 0
M  V30 4999 C 450.174 -3.98362 2.04967 0
M  V30 5000 C 451.918 -4.2383 0.238437 0
M  V30 5001 C 449.825 -5.47619 2.2331 0
M  V30 5002 H 448.755 -0.742193 0.13291 0
M  V30 5003 H 451.406 -1.55354 0.976589 0
M  V30 5004 H 449.788 -3.95922 -0.078409 0
M  V30 5005 H 450.962 -3.68447 2.76737 0
M  V30 5006 H 449.277 -3.42206 2.37243 0
M  V30 5007 H 451.874 -5.33529 0.353705 0
M  V30 5008 H 452.217 -4.08264 -0.814006 0
M  V30 5009 H 452.75 -3.88108 0.872769 0
M  V30 5010 H 449.489 -5.68138 3.26955 0
M  V30 5011 H 449.009 -5.79145 1.5605 0
M  V30 5012 H 450.688 -6.13911 2.0426 0
M  V30 5013 N 450.82 -0.546701 -1.47814 0
M  V30 5014 C 452.231 -0.110564 -1.86372 0
M  V30 5015 C 452.582 1.31678 -1.45449 0
M  V30 5016 O 451.707 1.98889 -0.852758 0
M  V30 5017 C 452.302 -0.193873 -3.38245 0
M  V30 5018 C 450.861 0.187164 -3.75934 0
M  V30 5019 C 450.008 -0.546166 -2.71868 0
M  V30 5020 H 452.959 -0.757022 -1.39481 0
M  V30 5021 H 452.98 0.590218 -3.75895 0
M  V30 5022 H 452.492 -1.23282 -3.67999 0
M  V30 5023 H 450.593 1.22762 -3.51796 0
M  V30 5024 H 450.706 -0.164083 -4.78819 0
M  V30 5025 H 449.07 0.00953904 -2.54698 0
M  V30 5026 H 449.853 -1.58606 -3.04465 0
M  V30 5027 N 452.299 1.55045 -0.282633 0
M  V30 5028 C 453.547 1.99365 0.331334 0
M  V30 5029 C 453.868 1.1725 1.55812 0
M  V30 5030 O 453.138 0.263871 1.94115 0
M  V30 5031 H 451.718 0.736397 0.125414 0
M  V30 5032 H 454.38 1.90964 -0.389711 0
M  V30 5033 H 453.476 3.0596 0.616036 0
M  V30 5034 N 453.777 0.010035 1.57597 0
M  V30 5035 C 455.188 -0.531426 1.78977 0
M  V30 5036 C 455.539 -1.73375 0.918454 0
M  V30 5037 O 454.664 -2.16047 0.123635 0
M  V30 5038 C 455.259 -0.97086 3.24592 0
M  V30 5039 C 453.818 -1.45756 3.47033 0
M  V30 5040 C 452.965 -0.413384 2.74201 0
M  V30 5041 H 455.916 0.236166 1.56933 0
M  V30 5042 H 455.937 -1.83633 3.33255 0
M  V30 5043 H 455.449 -0.0955893 3.87982 0
M  V30 5044 H 453.55 -2.35339 2.88871 0
M  V30 5045 H 453.663 -1.4781 4.55729 0
M  V30 5046 H 452.027 -0.877266 2.39115 0
M  V30 5047 H 452.81 0.453092 3.40297 0
M  V30 5048 N 455.255 -1.55392 -0.262866 0
M  V30 5049 C 456.501 -1.76737 -0.99458 0
M  V30 5050 C 456.834 -0.572453 -1.85571 0
M  V30 5051 O 456.109 0.429732 -1.89693 0
M  V30 5052 C 456.392 -3.07824 -1.8686 0
M  V30 5053 C 456.245 -4.3769 -1.03672 0
M  V30 5054 C 457.564 -3.35021 -2.85393 0
M  V30 5055 H 454.683 -0.643005 -0.360157 0
M  V30 5056 H 457.325 -1.88126 -0.266216 0
M  V30 5057 H 455.475 -2.98245 -2.48962 0
M  V30 5058 H 457.147 -4.59238 -0.43563 0
M  V30 5059 H 455.39 -4.32461 -0.340513 0
M  V30 5060 H 456.061 -5.25759 -1.6817 0
M  V30 5061 H 458.537 -3.44458 -2.33426 0
M  V30 5062 H 457.413 -4.27989 -3.43681 0
M  V30 5063 H 457.674 -2.55153 -3.61039 0
M  V30 5064 N 456.733 0.527833 -1.48498 0
M  V30 5065 C 457.643 1.65907 -1.65867 0
M  V30 5066 C 458.659 1.6537 -0.541192 0
M  V30 5067 O 459.835 1.84282 -0.812534 0
M  V30 5068 C 456.9 3.02364 -1.69637 0
M  V30 5069 C 455.961 3.1374 -2.93028 0
M  V30 5070 C 455.194 4.43688 -2.96609 0
M  V30 5071 O 455.417 5.30913 -2.08538 0
M  V30 5072 O 454.351 4.59475 -3.88802 0
M  V30 5073 H 458.177 1.5419 -2.61647 0
M  V30 5074 H 455.762 0.701163 -1.31924 0
M  V30 5075 H 457.644 3.83515 -1.74625 0
M  V30 5076 H 456.319 3.14401 -0.770312 0
M  V30 5077 H 455.226 2.31877 -2.93571 0
M  V30 5078 H 456.559 3.06621 -3.85026 0
M  V30 5079 N 458.211 1.37122 0.776871 0
M  V30 5080 C 459.121 1.34651 1.9211 0
M  V30 5081 C 460.137 0.246824 1.7224 0
M  V30 5082 O 461.313 0.48134 1.95563 0
M  V30 5083 C 458.378 1.14748 3.2716 0
M  V30 5084 C 457.439 2.34308 3.5972 0
M  V30 5085 C 456.672 2.15345 4.88326 0
M  V30 5086 O 456.895 1.13507 5.58992 0
M  V30 5087 O 455.829 3.03414 5.1983 0
M  V30 5088 H 459.655 2.31013 1.97146 0
M  V30 5089 H 457.24 1.17799 0.918901 0
M  V30 5090 H 459.122 1.05616 4.0795 0
M  V30 5091 H 457.797 0.214562 3.22988 0
M  V30 5092 H 456.704 2.49011 2.79185 0
M  V30 5093 H 458.037 3.26149 3.68629 0
M  V30 5094 N 459.689 -1.00246 1.21608 0
M  V30 5095 C 460.622 -2.08794 0.920892 0
M  V30 5096 C 461.6 -1.62059 -0.132552 0
M  V30 5097 O 462.784 -1.885 -0.0030366 0
M  V30 5098 C 459.911 -3.36525 0.383226 0
M  V30 5099 C 458.957 -4.02172 1.41987 0
M  V30 5100 S 459.79 -4.44256 2.98994 0
M  V30 5101 C 460.946 -5.7517 2.4684 0
M  V30 5102 H 461.179 -2.33511 1.8401 0
M  V30 5103 H 458.712 -1.13562 1.04609 0
M  V30 5104 H 460.67 -4.10423 0.0795871 0
M  V30 5105 H 459.331 -3.09854 -0.514711 0
M  V30 5106 H 458.524 -4.94114 0.993335 0
M  V30 5107 H 458.126 -3.34559 1.67171 0
M  V30 5108 H 460.418 -6.51042 1.87484 0
M  V30 5109 H 461.361 -6.22638 3.37235 0
M  V30 5110 H 461.769 -5.32112 1.88461 0
M  V30 5111 N 461.167 -1.02423 -1.1978 0
M  V30 5112 C 462.097 -0.62157 -2.25075 0
M  V30 5113 C 463.078 0.367148 -1.6609 0
M  V30 5114 O 464.263 0.250892 -1.92573 0
M  V30 5115 C 461.393 0.0331826 -3.47284 0
M  V30 5116 C 460.347 -0.877323 -4.18912 0
M  V30 5117 C 459.673 -0.0879296 -5.34628 0
M  V30 5118 C 460.973 -2.18892 -4.74219 0
M  V30 5119 H 462.667 -1.50179 -2.59011 0
M  V30 5120 H 460.213 -0.723547 -1.24502 0
M  V30 5121 H 462.166 0.326488 -4.20133 0
M  V30 5122 H 460.89 0.948164 -3.12534 0
M  V30 5123 H 459.549 -1.15475 -3.47938 0
M  V30 5124 H 459.197 0.828941 -4.96123 0
M  V30 5125 H 458.897 -0.694359 -5.83483 0
M  V30 5126 H 460.421 0.198743 -6.10276 0
M  V30 5127 H 461.835 -1.95746 -5.38847 0
M  V30 5128 H 460.232 -2.74686 -5.33542 0
M  V30 5129 H 461.302 -2.84674 -3.92541 0
M  V30 5130 N 462.645 1.35699 -0.801477 0
M  V30 5131 C 463.608 2.28199 -0.213994 0
M  V30 5132 C 464.608 1.49359 0.595691 0
M  V30 5133 O 465.798 1.69186 0.414921 0
M  V30 5134 C 462.93 3.33587 0.702297 0
M  V30 5135 H 464.123 2.81666 -1.02976 0
M  V30 5136 H 461.676 1.45467 -0.571759 0
M  V30 5137 H 462.411 2.85297 1.54195 0
M  V30 5138 H 462.196 3.91906 0.123484 0
M  V30 5139 H 463.686 4.02638 1.10783 0
M  V30 5140 N 464.123 0.554532 1.47522 0
M  V30 5141 C 465.033 -0.197865 2.33764 0
M  V30 5142 C 466.049 -0.914576 1.48025 0
M  V30 5143 O 467.225 -0.884067 1.80959 0
M  V30 5144 C 464.29 -1.21628 3.24665 0
M  V30 5145 C 463.351 -0.507283 4.26292 0
M  V30 5146 C 462.584 -1.47718 5.1285 0
M  V30 5147 O 462.807 -2.7118 5.01814 0
M  V30 5148 O 461.741 -1.00313 5.93482 0
M  V30 5149 H 465.567 0.50949 2.99396 0
M  V30 5150 H 463.152 0.315176 1.46038 0
M  V30 5151 H 465.034 -1.80421 3.80823 0
M  V30 5152 H 463.709 -1.9056 2.61665 0
M  V30 5153 H 462.616 0.121778 3.73902 0
M  V30 5154 H 463.949 0.140544 4.91999 0
M  V30 5155 N 465.601 -1.54893 0.290851 0
M  V30 5156 C 466.847 -2.0023 -0.321867 0
M  V30 5157 C 467.18 -1.179 -1.54316 0
M  V30 5158 O 466.455 -0.25293 -1.92848 0
M  V30 5159 C 466.738 -3.53456 -0.688515 0
M  V30 5160 C 466.591 -4.46532 0.541209 0
M  V30 5161 C 467.91 -4.13057 -1.51895 0
M  V30 5162 H 465.029 -0.727891 -0.115515 0
M  V30 5163 H 467.671 -1.85722 0.400931 0
M  V30 5164 H 465.821 -3.6595 -1.30433 0
M  V30 5165 H 467.493 -4.4596 1.17973 0
M  V30 5166 H 465.736 -4.17545 1.17636 0
M  V30 5167 H 466.407 -5.51475 0.240675 0
M  V30 5168 H 468.883 -4.03937 -0.99872 0
M  V30 5169 H 467.759 -5.20448 -1.74429 0
M  V30 5170 H 468.02 -3.64284 -2.50498 0
M  V30 5171 N 467.08 -0.0183926 -1.57589 0
M  V30 5172 C 468.028 0.985111 -2.10709 0
M  V30 5173 C 469.022 1.34397 -1.0312 0
M  V30 5174 O 470.228 1.32746 -1.21567 0
M  V30 5175 H 466.603 0.335418 -0.673052 0
M  V30 5176 H 468.574 0.511689 -2.9398 0
M  V30 5177 C 467.323 2.26202 -2.64061 0
M  V30 5178 H 466.646 1.9946 -3.4649 0
M  V30 5179 H 468.086 2.94652 -3.04887 0
M  V30 5180 C 466.545 2.98444 -1.5631 0
M  V30 5181 O 467.075 3.90142 -0.956674 0
M  V30 5182 N 465.281 2.6059 -1.28612 0
M  V30 5183 H 464.828 1.86101 -1.78112 0
M  V30 5184 H 464.786 3.09238 -0.567406 0
M  V30 5185 N 468.558 1.5553 0.254621 0
M  V30 5186 C 469.521 1.88872 1.29846 0
M  V30 5187 C 470.521 0.764591 1.41459 0
M  V30 5188 O 471.711 1.03265 1.40293 0
M  V30 5189 C 468.843 2.11032 2.67728 0
M  V30 5190 H 470.036 2.82201 1.01502 0
M  V30 5191 H 467.589 1.48303 0.493556 0
M  V30 5192 H 468.324 1.20146 3.01223 0
M  V30 5193 H 468.109 2.92895 2.60682 0
M  V30 5194 H 469.599 2.38038 3.43115 0
M  V30 5195 N 470.036 -0.519951 1.48776 0
M  V30 5196 C 471.264 -1.29971 1.60982 0
M  V30 5197 C 471.679 -1.86803 0.273885 0
M  V30 5198 O 471.036 -1.66904 -0.738193 0
M  V30 5199 C 471.087 -2.44346 2.66415 0
M  V30 5200 O 470.808 -1.89855 3.94825 0
M  V30 5201 C 472.309 -3.36014 2.89153 0
M  V30 5202 H 469.529 -0.394891 0.542496 0
M  V30 5203 H 472.073 -0.626214 1.94676 0
M  V30 5204 H 470.228 -3.07562 2.35552 0
M  V30 5205 H 470.642 -2.64798 4.5275 0
M  V30 5206 H 472.116 -4.12593 3.66703 0
M  V30 5207 H 472.593 -3.91859 1.98351 0
M  V30 5208 H 473.199 -2.78582 3.21359 0
M  V30 5209 N 471.514 -1.37532 -0.769588 0
M  V30 5210 C 472.763 -1.32183 -1.5235 0
M  V30 5211 C 473.076 0.0906555 -1.9539 0
M  V30 5212 O 474.282 0.266628 -2.70188 0
M  V30 5213 C 472.738 -2.32029 -2.75119 0
M  V30 5214 C 472.346 -3.78816 -2.3917 0
M  V30 5215 C 474.09 -2.35694 -3.53056 0
M  V30 5216 C 471.997 -4.70388 -3.58453 0
M  V30 5217 H 470.927 -0.491275 -0.571984 0
M  V30 5218 H 473.578 -1.63004 -0.842739 0
M  V30 5219 H 471.96 -1.94229 -3.45096 0
M  V30 5220 H 473.134 -4.25466 -1.76962 0
M  V30 5221 H 471.449 -3.78117 -1.74402 0
M  V30 5222 H 474.046 -3.01312 -4.41718 0
M  V30 5223 H 474.389 -1.37117 -3.93071 0
M  V30 5224 H 474.922 -2.72212 -2.90078 0
M  V30 5225 H 471.661 -5.70102 -3.23518 0
M  V30 5226 H 471.181 -4.28442 -4.19758 0
M  V30 5227 H 472.86 -4.87628 -4.25239 0
M  V30 5228 N 472.992 0.995999 -1.22138 0
M  V30 5229 C 474.22 1.77066 -1.07029 0
M  V30 5230 C 474.635 1.8495 0.379357 0
M  V30 5231 O 473.992 1.3174 1.26297 0
M  V30 5232 C 474.043 3.20533 -1.67155 0
M  V30 5233 O 473.764 3.13082 -3.06449 0
M  V30 5234 C 475.265 4.14461 -1.5728 0
M  V30 5235 H 472.485 0.556179 -0.375374 0
M  V30 5236 H 475.029 1.25238 -1.61666 0
M  V30 5237 H 473.184 3.6944 -1.16589 0
M  V30 5238 H 473.598 4.03283 -3.35355 0
M  V30 5239 H 475.072 5.1289 -2.04078 0
M  V30 5240 H 475.549 4.36005 -0.528795 0
M  V30 5241 H 476.155 3.71449 -2.07136 0
M  V30 5242 N 474.47 1.03057 1.19235 0
M  V30 5243 C 475.747 0.642608 1.84743 0
M  V30 5244 C 476.127 -0.878577 1.91948 0
M  V30 5245 O 475.475 -1.77597 1.43776 0
M  V30 5246 C 475.685 1.30665 3.23616 0
M  V30 5247 C 477.033 1.43098 3.9976 0
M  V30 5248 O 478.057 1.26396 3.3302 0
M  V30 5249 O 476.916 1.70223 5.19313 0
M  V30 5250 H 474.01 0.223573 0.796206 0
M  V30 5251 H 476.556 1.12883 1.26711 0
M  V30 5252 H 475.328 2.34544 3.13217 0
M  V30 5253 H 474.951 0.808405 3.89295 0
M  V30 5254 N 475.948 -1.35272 0.808662 0
M  V30 5255 C 477.197 -1.97963 0.386483 0
M  V30 5256 C 477.51 -1.64866 -1.05255 0
M  V30 5257 O 478.716 -2.20937 -1.57794 0
M  V30 5258 C 477.172 -3.54162 0.640096 0
M  V30 5259 C 476.78 -3.96166 2.0918 0
M  V30 5260 C 478.524 -4.23553 0.283376 0
M  V30 5261 C 476.431 -5.4522 2.29106 0
M  V30 5262 H 475.361 -0.740742 0.140774 0
M  V30 5263 H 478.012 -1.5431 0.993012 0
M  V30 5264 H 476.394 -3.95983 -0.0364117 0
M  V30 5265 H 477.568 -3.65491 2.80629 0
M  V30 5266 H 475.883 -3.3967 2.40859 0
M  V30 5267 H 478.48 -5.33124 0.410273 0
M  V30 5268 H 478.823 -4.09105 -0.770659 0
M  V30 5269 H 479.356 -3.8716 0.913884 0
M  V30 5270 H 476.095 -5.64638 3.32962 0
M  V30 5271 H 475.615 -5.77457 1.62184 0
M  V30 5272 H 477.294 -6.1171 2.1076 0
M  V30 5273 N 477.426 -0.562348 -1.47226 0
M  V30 5274 C 478.675 -0.038041 -2.01664 0
M  V30 5275 C 478.988 1.32199 -1.44162 0
M  V30 5276 O 480.194 1.9365 -1.90294 0
M  V30 5277 C 478.65 -0.0174958 -3.59896 0
M  V30 5278 C 478.258 -1.3746 -4.2639 0
M  V30 5279 C 480.002 0.453934 -4.22066 0
M  V30 5280 C 477.909 -1.31289 -5.76643 0
M  V30 5281 H 476.839 -0.0104511 -0.753928 0
M  V30 5282 H 479.49 -0.710966 -1.69167 0
M  V30 5283 H 477.872 0.721182 -3.89378 0
M  V30 5284 H 479.046 -2.1314 -4.08544 0
M  V30 5285 H 477.361 -1.78438 -3.7623 0
M  V30 5286 H 479.958 0.518584 -5.32179 0
M  V30 5287 H 480.301 1.46706 -3.89594 0
M  V30 5288 H 480.834 -0.230044 -3.97134 0
M  V30 5289 H 477.573 -2.30217 -6.13743 0
M  V30 5290 H 477.093 -0.597973 -5.96812 0
M  V30 5291 H 478.772 -1.01713 -6.38955 0
M  V30 5292 N 478.904 1.54736 -0.299062 0
M  V30 5293 C 480.129 2.04975 0.316254 0
M  V30 5294 C 480.554 1.17501 1.46885 0
M  V30 5295 O 479.912 0.178678 1.80417 0
M  V30 5296 C 479.96 3.52672 0.751997 0
M  V30 5297 O 479.064 3.68226 1.85697 0
M  V30 5298 H 478.405 0.661126 0.0617175 0
M  V30 5299 H 480.935 1.99805 -0.440341 0
M  V30 5300 H 480.945 3.94488 1.04133 0
M  V30 5301 H 479.62 4.158 -0.0911482 0
M  V30 5302 H 478.197 3.38316 1.56834 0
M  V30 5303 N 480.382 0.0267497 1.57577 0
M  V30 5304 C 481.345 -0.940916 2.08996 0
M  V30 5305 C 482.345 -1.25561 1.00455 0
M  V30 5306 O 483.535 -1.19634 1.26623 0
M  V30 5307 C 480.667 -2.25814 2.55384 0
M  V30 5308 H 481.86 -0.495628 2.95776 0
M  V30 5309 H 479.413 -0.221241 1.54726 0
M  V30 5310 H 480.148 -2.74976 1.71926 0
M  V30 5311 H 479.933 -2.04285 3.34679 0
M  V30 5312 H 481.423 -2.95178 2.95398 0
M  V30 5313 N 481.861 -1.55662 -0.24637 0
M  V30 5314 C 482.791 -1.93377 -1.30873 0
M  V30 5315 C 483.772 -0.798773 -1.50179 0
M  V30 5316 O 484.957 -1.0591 -1.62778 0
M  V30 5317 C 482.087 -2.22893 -2.66338 0
M  V30 5318 C 481.041 -3.38649 -2.61727 0
M  V30 5319 C 480.367 -3.53708 -4.00992 0
M  V30 5320 C 481.667 -4.74323 -2.18666 0
M  V30 5321 H 483.361 -2.82363 -0.995552 0
M  V30 5322 H 480.907 -1.35854 -0.477464 0
M  V30 5323 H 482.86 -2.47866 -3.40794 0
M  V30 5324 H 481.584 -1.30733 -2.99293 0
M  V30 5325 H 480.243 -3.13685 -1.89729 0
M  V30 5326 H 479.891 -2.58967 -4.31214 0
M  V30 5327 H 479.591 -4.31551 -3.98795 0
M  V30 5328 H 481.115 -3.81003 -4.77147 0
M  V30 5329 H 482.529 -4.98665 -2.82854 0
M  V30 5330 H 480.926 -5.55273 -2.27579 0
M  V30 5331 H 481.996 -4.71349 -1.13834 0
M  V30 5332 N 483.339 0.512053 -1.4905 0
M  V30 5333 C 484.585 1.26874 -1.58212 0
M  V30 5334 C 484.918 1.9241 -0.263073 0
M  V30 5335 O 484.193 1.80181 0.732476 0
M  V30 5336 C 484.476 2.34428 -2.73341 0
M  V30 5337 C 484.329 1.73466 -4.15006 0
M  V30 5338 C 485.648 3.36073 -2.84154 0
M  V30 5339 H 482.767 0.459924 -0.575881 0
M  V30 5340 H 485.409 0.568587 -1.81293 0
M  V30 5341 H 483.559 2.94146 -2.53792 0
M  V30 5342 H 485.231 1.17661 -4.46042 0
M  V30 5343 H 483.474 1.03921 -4.21168 0
M  V30 5344 H 484.145 2.51426 -4.91415 0
M  V30 5345 H 486.621 2.86332 -3.01916 0
M  V30 5346 H 485.497 4.08703 -3.66406 0
M  V30 5347 H 485.758 3.97725 -1.93048 0
M  V30 5348 N 484.817 1.37938 0.762283 0
M  V30 5349 C 486.045 1.36883 1.55147 0
M  V30 5350 C 486.46 -0.0435348 1.8875 0
M  V30 5351 O 485.817 -1.00786 1.52146 0
M  V30 5352 C 485.868 2.21624 2.85596 0
M  V30 5353 O 485.589 3.57358 2.5343 0
M  V30 5354 C 487.09 2.28653 3.7978 0
M  V30 5355 H 484.31 0.468521 0.480343 0
M  V30 5356 H 486.854 1.81404 0.944079 0
M  V30 5357 H 485.009 1.80588 3.42734 0
M  V30 5358 H 485.423 4.01883 3.37032 0
M  V30 5359 H 486.897 2.9225 4.68288 0
M  V30 5360 H 487.374 1.29767 4.19592 0
M  V30 5361 H 487.98 2.70043 3.28568 0
M  V30 5362 N 486.295 -0.989507 1.22664 0
M  V30 5363 C 487.52 -1.77031 1.08051 0
M  V30 5364 C 487.945 -1.84535 -0.364483 0
M  V30 5365 O 487.303 -1.3003 -1.2634 0
M  V30 5366 C 487.351 -3.18 1.70024 0
M  V30 5367 O 486.455 -4.01161 0.956216 0
M  V30 5368 H 485.796 -0.545008 0.379292 0
M  V30 5369 H 488.326 -1.24277 1.62531 0
M  V30 5370 H 488.336 -3.68616 1.74888 0
M  V30 5371 H 487.011 -3.11853 2.75174 0
M  V30 5372 H 485.588 -3.59687 0.98384 0
M  V30 5373 N 487.773 -1.03688 -1.18687 0
M  V30 5374 C 489.001 -0.757918 -1.92518 0
M  V30 5375 C 489.416 0.684398 -1.75959 0
M  V30 5376 O 488.773 1.46617 -1.08673 0
M  V30 5377 C 488.824 -1.10985 -3.44042 0
M  V30 5378 O 488.545 -2.49554 -3.60076 0
M  V30 5379 C 490.046 -0.854844 -4.3498 0
M  V30 5380 H 487.266 -0.276699 -0.611293 0
M  V30 5381 H 489.81 -1.38352 -1.50595 0
M  V30 5382 H 487.965 -0.529279 -3.83767 0
M  V30 5383 H 488.379 -2.6291 -4.53849 0
M  V30 5384 H 489.853 -1.15098 -5.39867 0
M  V30 5385 H 490.33 0.210507 -4.38695 0
M  V30 5386 H 490.936 -1.41853 -4.00946 0
M  V30 5387 N 489.251 1.34841 -0.815825 0
M  V30 5388 C 490.498 1.98499 -0.400535 0
M  V30 5389 C 490.826 1.64699 1.03463 0
M  V30 5390 O 490.081 0.907006 1.73412 0
M  V30 5391 C 490.38 3.53273 -0.541541 0
M  V30 5392 C 490.046 4.06966 -1.94138 0
M  V30 5393 C 488.708 4.21341 -2.32433 0
M  V30 5394 C 491.06 4.35933 -2.85677 0
M  V30 5395 C 488.388 4.62007 -3.61617 0
M  V30 5396 C 490.74 4.78042 -4.14317 0
M  V30 5397 C 489.404 4.90622 -4.52599 0
M  V30 5398 H 488.674 0.72636 -0.146566 0
M  V30 5399 H 491.321 1.60902 -1.0384 0
M  V30 5400 H 489.626 3.91387 0.179741 0
M  V30 5401 H 491.323 4.00497 -0.20085 0
M  V30 5402 H 487.913 3.96235 -1.63388 0
M  V30 5403 H 492.097 4.24372 -2.57337 0
M  V30 5404 H 487.353 4.69937 -3.91113 0
M  V30 5405 H 491.527 4.99415 -4.85342 0
M  V30 5406 H 489.154 5.2189 -5.52752 0
M  V30 5407 N 490.729 0.570148 1.46925 0
M  V30 5408 C 491.978 0.0487352 2.01641 0
M  V30 5409 C 492.291 -1.31433 1.44861 0
M  V30 5410 O 493.497 -1.92638 1.91318 0
M  V30 5411 C 491.953 0.0365817 3.59881 0
M  V30 5412 C 491.561 1.39719 4.25655 0
M  V30 5413 C 493.305 -0.431545 4.22301 0
M  V30 5414 C 491.212 1.34345 5.75939 0
M  V30 5415 H 490.142 0.0144492 0.753862 0
M  V30 5416 H 492.793 0.719928 1.68788 0
M  V30 5417 H 491.175 -0.700522 3.89755 0
M  V30 5418 H 492.349 2.15303 4.07408 0
M  V30 5419 H 490.664 1.80431 3.75278 0
M  V30 5420 H 493.261 -0.490354 5.32447 0
M  V30 5421 H 493.604 -1.44638 3.90366 0
M  V30 5422 H 494.137 0.251102 3.97007 0
M  V30 5423 H 490.876 2.33469 6.12513 0
M  V30 5424 H 490.396 0.629615 5.96486 0
M  V30 5425 H 492.075 1.051 6.38407 0
M  V30 5426 N 492.207 -1.54576 0.307264 0
M  V30 5427 C 493.456 -1.99442 -0.300976 0
M  V30 5428 C 493.769 -1.19928 -1.5452 0
M  V30 5429 O 494.975 -1.55092 -2.22842 0
M  V30 5430 C 493.431 -3.55084 -0.586809 0
M  V30 5431 C 493.039 -4.43413 0.639438 0
M  V30 5432 C 494.783 -4.0846 -1.1559 0
M  V30 5433 C 492.69 -5.90499 0.326411 0
M  V30 5434 H 491.62 -0.744986 -0.116238 0
M  V30 5435 H 494.271 -1.787 0.416947 0
M  V30 5436 H 492.653 -3.71749 -1.36449 0
M  V30 5437 H 493.827 -4.38522 1.41545 0
M  V30 5438 H 492.142 -4.00842 1.1276 0
M  V30 5439 H 494.739 -5.15926 -1.40445 0
M  V30 5440 H 495.082 -3.59443 -2.10015 0
M  V30 5441 H 495.615 -3.95362 -0.439778 0
M  V30 5442 H 492.354 -6.43676 1.23939 0
M  V30 5443 H 491.874 -5.98382 -0.412212 0
M  V30 5444 H 493.553 -6.46962 -0.0697393 0
M  V30 5445 N 493.685 -0.035106 -1.57561 0
M  V30 5446 C 494.595 0.960295 -2.14046 0
M  V30 5447 C 495.611 1.3529 -1.0942 0
M  V30 5448 O 496.787 1.43309 -1.41508 0
M  V30 5449 C 493.852 2.22214 -2.66124 0
M  V30 5450 C 492.913 1.8894 -3.85487 0
M  V30 5451 C 492.146 3.09109 -4.35072 0
M  V30 5452 O 492.369 4.21963 -3.83802 0
M  V30 5453 O 491.303 2.91058 -5.26848 0
M  V30 5454 H 495.129 0.509983 -2.99387 0
M  V30 5455 H 492.714 0.185853 -1.48239 0
M  V30 5456 H 494.596 2.96279 -2.99661 0
M  V30 5457 H 493.271 2.66414 -1.83862 0
M  V30 5458 H 492.178 1.12241 -3.56865 0
M  V30 5459 H 493.511 1.49551 -4.6893 0
M  V30 5460 N 495.163 1.55791 0.238111 0
M  V30 5461 C 496.11 1.9105 1.29493 0
M  V30 5462 C 497.08 0.765733 1.47397 0
M  V30 5463 O 498.265 1.02017 1.61236 0
M  V30 5464 C 495.405 2.21826 2.64362 0
M  V30 5465 C 494.518 3.49153 2.54394 0
M  V30 5466 C 493.653 3.69455 3.81676 0
M  V30 5467 C 492.692 4.90353 3.66361 0
M  V30 5468 N 491.829 5.07131 4.85554 0
M  V30 5469 H 496.669 2.81172 0.987233 0
M  V30 5470 H 494.206 1.39179 0.476203 0
M  V30 5471 H 496.164 2.37675 3.4288 0
M  V30 5472 H 494.794 1.34897 2.93262 0
M  V30 5473 H 493.846 3.41587 1.67399 0
M  V30 5474 H 495.158 4.37818 2.38991 0
M  V30 5475 H 494.312 3.85311 4.68636 0
M  V30 5476 H 493.051 2.7904 3.99985 0
M  V30 5477 H 492.056 4.74464 2.77784 0
M  V30 5478 H 493.281 5.82237 3.49538 0
M  V30 5479 H 491.227 4.19654 5.04209 0
M  V30 5480 H 491.144 5.89899 4.72816 0
M  V30 5481 H 492.412 5.27407 5.73988 0
M  V30 5482 N 496.642 -0.504142 1.49319 0
M  V30 5483 C 497.574 -1.62265 1.61872 0
M  V30 5484 C 498.587 -1.54881 0.501573 0
M  V30 5485 O 499.776 -1.6087 0.773497 0
M  V30 5486 C 496.876 -3.01042 1.55651 0
M  V30 5487 C 496.049 -3.33642 2.82845 0
M  V30 5488 C 495.108 -4.51816 2.69719 0
M  V30 5489 O 494.134 -4.53755 3.4365 0
M  V30 5490 N 495.336 -5.51543 1.81055 0
M  V30 5491 H 498.101 -1.51924 2.58339 0
M  V30 5492 H 495.662 -0.691954 1.46368 0
M  V30 5493 H 497.654 -3.78013 1.44528 0
M  V30 5494 H 496.224 -3.05323 0.670546 0
M  V30 5495 H 495.444 -2.45598 3.08343 0
M  V30 5496 H 496.732 -3.5222 3.67177 0
M  V30 5497 H 496.13 -5.52774 1.20241 0
M  V30 5498 H 494.687 -6.27629 1.75856 0
M  V30 5499 N 498.12 -1.38341 -0.754957 0
M  V30 5500 C 499.531 -1.30803 -1.3322 0
M  V30 5501 C 499.882 0.0368 -1.96165 0
M  V30 5502 O 499.007 0.938844 -1.94974 0
M  V30 5503 C 499.602 -2.3688 -2.42225 0
M  V30 5504 C 498.161 -2.32925 -2.95674 0
M  V30 5505 C 497.308 -2.19819 -1.69042 0
M  V30 5506 H 500.259 -1.48719 -0.553937 0
M  V30 5507 H 500.28 -2.02517 -3.22129 0
M  V30 5508 H 499.792 -3.34747 -1.96383 0
M  V30 5509 H 497.893 -1.38635 -3.45848 0
M  V30 5510 H 498.006 -3.27008 -3.50146 0
M  V30 5511 H 496.37 -1.66648 -1.92615 0
M  V30 5512 H 497.153 -3.19625 -1.25279 0
M  V30 5513 N 499.598 0.982988 -1.23187 0
M  V30 5514 C 501.009 1.53847 -1.05773 0
M  V30 5515 C 501.36 1.92568 0.375744 0
M  V30 5516 O 500.485 1.75783 1.26211 0
M  V30 5517 C 501.08 2.79567 -1.91384 0
M  V30 5518 C 499.639 3.31524 -1.78238 0
M  V30 5519 C 498.786 2.04534 -1.87246 0
M  V30 5520 H 501.737 0.802962 -1.36888 0
M  V30 5521 H 501.758 3.52317 -1.43711 0
M  V30 5522 H 501.27 2.51353 -2.95708 0
M  V30 5523 H 499.371 3.64623 -0.766875 0
M  V30 5524 H 499.484 4.01457 -2.61475 0
M  V30 5525 H 497.848 2.1855 -1.30797 0
M  V30 5526 H 498.631 1.78706 -2.9312 0
M  V30 5527 N 501.076 1.04316 1.18135 0
M  V30 5528 C 502.008 0.594444 2.21357 0
M  V30 5529 C 503.021 -0.337215 1.59269 0
M  V30 5530 O 504.21 -0.131337 1.78016 0
M  V30 5531 C 501.31 -0.151251 3.38562 0
M  V30 5532 C 500.483 0.788907 4.30227 0
M  V30 5533 C 499.542 0.0860572 5.2613 0
M  V30 5534 O 498.568 0.717302 5.64662 0
M  V30 5535 N 499.77 -1.17969 5.68387 0
M  V30 5536 H 502.535 1.48227 2.60478 0
M  V30 5537 H 500.096 0.92396 1.32946 0
M  V30 5538 H 502.088 -0.631352 3.99745 0
M  V30 5539 H 500.658 -0.940639 2.98112 0
M  V30 5540 H 499.878 1.44882 3.6661 0
M  V30 5541 H 501.166 1.42738 4.88368 0
M  V30 5542 H 500.564 -1.71302 5.3914 0
M  V30 5543 H 499.121 -1.60402 6.31755 0
M  V30 5544 N 502.554 -1.34406 0.822964 0
M  V30 5545 C 503.8 -1.98578 0.411666 0
M  V30 5546 C 504.133 -1.65093 -1.02264 0
M  V30 5547 O 503.408 -0.92258 -1.71227 0
M  V30 5548 C 503.691 -3.54823 0.614235 0
M  V30 5549 C 503.544 -3.9805 2.09466 0
M  V30 5550 C 504.863 -4.40071 0.050221 0
M  V30 5551 H 501.982 -0.721355 0.151047 0
M  V30 5552 H 504.624 -1.59301 1.03554 0
M  V30 5553 H 502.774 -3.88411 0.0831774 0
M  V30 5554 H 504.446 -3.74795 2.68936 0
M  V30 5555 H 502.689 -3.4836 2.5851 0
M  V30 5556 H 503.36 -5.06819 2.18721 0
M  V30 5557 H 505.836 -4.13037 0.503953 0
M  V30 5558 H 504.712 -5.48452 0.221759 0
M  V30 5559 H 504.973 -4.29576 -1.04482 0
M  V30 5560 N 504.032 -0.577932 -1.46621 0
M  V30 5561 C 504.962 0.145917 -2.33044 0
M  V30 5562 C 505.943 0.888412 -1.45056 0
M  V30 5563 O 507.128 0.864812 -1.73881 0
M  V30 5564 C 504.258 1.16322 -3.27241 0
M  V30 5565 C 503.212 0.535868 -4.24632 0
M  V30 5566 C 502.538 1.65929 -5.08303 0
M  V30 5567 C 503.838 -0.523861 -5.19666 0
M  V30 5568 H 505.532 -0.575636 -2.93814 0
M  V30 5569 H 503.078 -0.278272 -1.41286 0
M  V30 5570 H 505.031 1.67793 -3.86553 0
M  V30 5571 H 503.755 1.91498 -2.64567 0
M  V30 5572 H 502.414 0.0422759 -3.66576 0
M  V30 5573 H 502.062 2.40061 -4.42018 0
M  V30 5574 H 501.762 1.2452 -5.74255 0
M  V30 5575 H 503.286 2.17686 -5.70478 0
M  V30 5576 H 504.7 -0.0944059 -5.73222 0
M  V30 5577 H 503.097 -0.858 -5.93935 0
M  V30 5578 H 504.167 -1.41197 -4.63887 0
M  V30 5579 N 505.51 1.54411 -0.315457 0
M  V30 5580 C 506.457 2.24048 0.554166 0
M  V30 5581 C 507.427 1.2283 1.11812 0
M  V30 5582 O 508.612 1.51491 1.15997 0
M  V30 5583 C 505.752 2.99574 1.71316 0
M  V30 5584 C 504.865 4.15594 1.17922 0
M  V30 5585 C 504 4.78669 2.30324 0
M  V30 5586 C 503.039 5.86807 1.74137 0
M  V30 5587 N 502.176 6.43777 2.8017 0
M  V30 5588 H 507.016 2.97964 -0.0462602 0
M  V30 5589 H 504.553 1.47059 -0.0346009 0
M  V30 5590 H 506.511 3.41604 2.39505 0
M  V30 5591 H 505.141 2.28008 2.285 0
M  V30 5592 H 504.193 3.78404 0.389136 0
M  V30 5593 H 505.505 4.93459 0.728012 0
M  V30 5594 H 504.659 5.23626 3.06433 0
M  V30 5595 H 503.398 4.00168 2.78778 0
M  V30 5596 H 502.403 5.41261 0.965236 0
M  V30 5597 H 503.628 6.67201 1.2657 0
M  V30 5598 H 501.574 5.68153 3.2793 0
M  V30 5599 H 501.491 7.17031 2.39588 0
M  V30 5600 H 502.759 6.9339 3.56132 0
M  V30 5601 N 506.988 0.0434614 1.5754 0
M  V30 5602 C 508.216 -0.641835 1.96693 0
M  V30 5603 C 508.631 -1.64832 0.920652 0
M  V30 5604 O 507.988 -1.82247 -0.095993 0
M  V30 5605 C 508.039 -1.33557 3.35924 0
M  V30 5606 O 507.76 -0.369403 4.3654 0
M  V30 5607 C 509.261 -2.11135 3.89791 0
M  V30 5608 H 506.481 -0.176013 0.647503 0
M  V30 5609 H 509.025 0.107478 2.04217 0
M  V30 5610 H 507.18 -2.03617 3.29574 0
M  V30 5611 H 507.594 -0.863674 5.1734 0
M  V30 5612 H 509.068 -2.55107 4.89514 0
M  V30 5613 H 509.545 -2.95634 3.24803 0
M  V30 5614 H 510.151 -1.46002 3.99454 0
M  V30 5615 N 508.466 -1.55915 -0.229846 0
M  V30 5616 C 509.398 -1.88209 -1.30805 0
M  V30 5617 C 510.411 -0.769672 -1.43457 0
M  V30 5618 O 511.6 -1.04792 -1.44502 0
M  V30 5619 C 508.7 -2.06829 -2.68468 0
M  V30 5620 C 507.873 -3.37798 -2.77869 0
M  V30 5621 C 506.932 -3.45952 -3.96489 0
M  V30 5622 O 505.958 -4.19043 -3.85216 0
M  V30 5623 N 507.16 -2.76488 -5.10426 0
M  V30 5624 H 509.925 -2.81286 -1.03431 0
M  V30 5625 H 507.486 -1.5636 -0.41991 0
M  V30 5626 H 509.478 -2.09608 -3.46189 0
M  V30 5627 H 508.048 -1.20416 -2.88477 0
M  V30 5628 H 507.268 -3.4719 -1.86689 0
M  V30 5629 H 508.556 -4.24091 -2.81113 0
M  V30 5630 H 507.954 -2.16868 -5.2248 0
M  V30 5631 H 506.511 -2.84938 -5.8622 0
M  V30 5632 N 509.944 0.496216 -1.49584 0
M  V30 5633 C 511.172 1.27394 -1.63029 0
M  V30 5634 C 511.587 1.86344 -0.303569 0
M  V30 5635 O 510.944 1.68057 0.711547 0
M  V30 5636 C 510.995 2.40077 -2.70269 0
M  V30 5637 O 510.716 1.83549 -3.97796 0
M  V30 5638 C 512.217 3.31372 -2.94462 0
M  V30 5639 H 509.437 0.386211 -0.54871 0
M  V30 5640 H 511.981 0.595163 -1.95648 0
M  V30 5641 H 510.136 3.03775 -2.40415 0
M  V30 5642 H 510.55 2.57561 -4.56905 0
M  V30 5643 H 512.024 4.06707 -3.73221 0
M  V30 5644 H 512.501 3.88654 -2.0456 0
M  V30 5645 H 513.107 2.73435 -3.25751 0
M  V30 5646 N 511.423 1.38739 0.74761 0
M  V30 5647 C 512.37 1.36449 1.86146 0
M  V30 5648 C 513.34 0.226098 1.64554 0
M  V30 5649 O 514.525 0.41926 1.86137 0
M  V30 5650 C 511.665 1.2013 3.23516 0
M  V30 5651 C 510.778 2.43407 3.56899 0
M  V30 5652 C 509.913 2.19773 4.83605 0
M  V30 5653 C 508.952 3.3879 5.09792 0
M  V30 5654 N 508.089 3.14553 6.27695 0
M  V30 5655 H 512.929 2.3167 1.87438 0
M  V30 5656 H 510.466 1.15094 0.916063 0
M  V30 5657 H 512.424 1.08683 4.02795 0
M  V30 5658 H 511.054 0.285453 3.21535 0
M  V30 5659 H 510.106 2.65504 2.72418 0
M  V30 5660 H 511.418 3.32094 3.72176 0
M  V30 5661 H 510.572 2.05496 5.70838 0
M  V30 5662 H 509.311 1.28461 4.70478 0
M  V30 5663 H 508.316 3.53579 4.21025 0
M  V30 5664 H 509.541 4.30986 5.24812 0
M  V30 5665 H 507.487 2.25893 6.1588 0
M  V30 5666 H 507.404 3.96791 6.435 0
M  V30 5667 H 508.672 3.03943 7.17801 0
M  V30 5668 N 512.901 -0.976442 1.23707 0
M  V30 5669 C 514.148 -1.71827 1.07153 0
M  V30 5670 C 514.476 -1.9053 -0.390982 0
M  V30 5671 O 513.731 -1.45779 -1.30564 0
M  V30 5672 C 514.03 -3.11814 1.74662 0
M  V30 5673 C 513.696 -3.12978 3.24585 0
M  V30 5674 C 512.358 -3.13003 3.6549 0
M  V30 5675 C 514.71 -3.07986 4.20469 0
M  V30 5676 C 512.038 -3.05757 5.00729 0
M  V30 5677 C 514.39 -3.02282 5.55705 0
M  V30 5678 C 513.054 -3.00631 5.95968 0
M  V30 5679 H 512.324 -0.628758 0.392102 0
M  V30 5680 H 514.971 -1.14239 1.53693 0
M  V30 5681 H 513.276 -3.72812 1.20492 0
M  V30 5682 H 514.973 -3.67989 1.59328 0
M  V30 5683 H 511.563 -3.13718 2.92026 0
M  V30 5684 H 515.747 -3.07103 3.89874 0
M  V30 5685 H 511.003 -3.02834 5.31132 0
M  V30 5686 H 515.177 -2.97376 6.29714 0
M  V30 5687 H 512.804 -2.94771 7.00724 0
M  V30 5688 N 514.379 -1.04941 -1.1758 0
M  V30 5689 C 515.342 -0.652456 -2.19717 0
M  V30 5690 C 516.342 0.294745 -1.58076 0
M  V30 5691 O 517.532 0.0789579 -1.74021 0
M  V30 5692 C 514.664 0.0420712 -3.40874 0
M  V30 5693 H 515.857 -1.55642 -2.5635 0
M  V30 5694 H 513.41 -0.842995 -1.31618 0
M  V30 5695 H 514.145 0.95943 -3.09783 0
M  V30 5696 H 513.93 -0.638844 -3.86861 0
M  V30 5697 H 515.42 0.306 -4.16477 0
M  V30 5698 N 515.857 1.33968 -0.830081 0
M  V30 5699 C 516.82 2.27694 -0.26235 0
M  V30 5700 C 517.82 1.50589 0.563876 0
M  V30 5701 O 519.01 1.70028 0.378941 0
M  V30 5702 C 516.142 3.35002 0.63138 0
M  V30 5703 H 517.335 2.79419 -1.08928 0
M  V30 5704 H 514.888 1.44221 -0.602486 0
M  V30 5705 H 515.623 2.88504 1.48109 0
M  V30 5706 H 515.408 3.92079 0.0403276 0
M  V30 5707 H 516.898 4.04897 1.02217 0
M  V30 5708 N 517.335 0.585699 1.46312 0
M  V30 5709 C 518.563 0.0781299 2.06752 0
M  V30 5710 C 518.978 -1.22812 1.43396 0
M  V30 5711 O 518.335 -1.74318 0.540314 0
M  V30 5712 C 518.386 -0.0911927 3.61385 0
M  V30 5713 O 518.107 1.16336 4.22371 0
M  V30 5714 C 519.608 -0.632765 4.38761 0
M  V30 5715 H 516.828 0.0588188 0.668417 0
M  V30 5716 H 519.372 0.807218 1.87894 0
M  V30 5717 H 517.527 -0.770514 3.7966 0
M  V30 5718 H 517.941 0.979082 5.15281 0
M  V30 5719 H 519.415 -0.70041 5.47538 0
M  V30 5720 H 519.892 -1.65039 4.07012 0
M  V30 5721 H 520.498 0.0117856 4.25298 0
M  V30 5722 N 518.813 -1.54241 0.323641 0
M  V30 5723 C 520.059 -2.00867 -0.279323 0
M  V30 5724 C 520.392 -1.21146 -1.5178 0
M  V30 5725 O 519.667 -0.29378 -1.92269 0
M  V30 5726 C 519.95 -3.54837 -0.613387 0
M  V30 5727 C 519.803 -4.45284 0.635803 0
M  V30 5728 C 521.122 -4.16186 -1.43099 0
M  V30 5729 H 518.241 -0.730177 -0.100049 0
M  V30 5730 H 520.883 -1.84829 0.440235 0
M  V30 5731 H 519.033 -3.68634 -1.22641 0
M  V30 5732 H 520.705 -4.43357 1.27406 0
M  V30 5733 H 518.948 -4.14956 1.26466 0
M  V30 5734 H 519.619 -5.5084 0.357597 0
M  V30 5735 H 522.095 -4.05964 -0.912814 0
M  V30 5736 H 520.971 -5.24031 -1.6335 0
M  V30 5737 H 521.232 -3.69516 -2.42715 0
M  V30 5738 N 520.291 -0.0518155 -1.57515 0
M  V30 5739 C 521.707 0.304735 -1.56664 0
M  V30 5740 C 521.907 1.71395 -1.05953 0
M  V30 5741 O 520.963 2.42123 -0.716414 0
M  V30 5742 C 522.276 0.132614 -3.00407 0
M  V30 5743 C 523.824 0.20367 -3.12337 0
M  V30 5744 C 524.299 0.0600706 -4.57961 0
M  V30 5745 N 525.79 0.116326 -4.63054 0
M  V30 5746 C 526.525 0.0293363 -5.73392 0
M  V30 5747 N 526.021 -0.110038 -6.92713 0
M  V30 5748 N 527.814 0.0849651 -5.62036 0
M  V30 5749 H 519.965 -0.973056 -1.888 0
M  V30 5750 H 522.228 -0.377781 -0.869474 0
M  V30 5751 H 521.934 -0.839019 -3.41546 0
M  V30 5752 H 521.808 0.893376 -3.66468 0
M  V30 5753 H 524.195 1.16578 -2.71097 0
M  V30 5754 H 524.276 -0.587857 -2.48954 0
M  V30 5755 H 523.92 -0.898715 -4.99886 0
M  V30 5756 H 523.85 0.87075 -5.19351 0
M  V30 5757 H 526.341 0.22327 -3.7724 0
M  V30 5758 H 526.654 -0.169104 -7.72615 0
M  V30 5759 H 524.999 -0.145132 -6.94848 0
M  V30 5760 H 528.19 0.192411 -4.67704 0
M  V30 5761 H 528.363 0.0137131 -6.47999 0
M  V30 5762 N 521.769 1.56035 0.221574 0
M  V30 5763 C 522.699 1.95434 1.2778 0
M  V30 5764 C 523.68 0.822564 1.48889 0
M  V30 5765 O 524.865 1.08486 1.61072 0
M  V30 5766 C 521.995 2.27102 2.62759 0
M  V30 5767 C 520.949 3.4277 2.56306 0
M  V30 5768 C 520.275 3.60043 3.95314 0
M  V30 5769 C 521.575 4.77742 2.11093 0
M  V30 5770 H 523.269 2.83912 0.950504 0
M  V30 5771 H 520.815 1.36596 0.455791 0
M  V30 5772 H 522.768 2.53256 3.36807 0
M  V30 5773 H 521.492 1.35478 2.97176 0
M  V30 5774 H 520.151 3.16664 1.84715 0
M  V30 5775 H 519.799 2.65794 4.27039 0
M  V30 5776 H 519.499 4.37841 3.91879 0
M  V30 5777 H 521.023 3.88545 4.71025 0
M  V30 5778 H 522.437 5.03102 2.74885 0
M  V30 5779 H 520.834 5.58823 2.18716 0
M  V30 5780 H 521.904 4.731 1.06321 0
M  V30 5781 N 523.247 -0.488276 1.49845 0
M  V30 5782 C 524.177 -1.59675 1.70371 0
M  V30 5783 C 525.158 -1.60878 0.552473 0
M  V30 5784 O 526.343 -1.77417 0.78973 0
M  V30 5785 C 523.473 -2.98098 1.782 0
M  V30 5786 C 522.427 -3.11761 2.93239 0
M  V30 5787 C 521.753 -4.51661 2.86193 0
M  V30 5788 C 523.053 -2.90589 4.33999 0
M  V30 5789 H 524.747 -1.42752 2.63177 0
M  V30 5790 H 522.293 -0.685317 1.26647 0
M  V30 5791 H 524.246 -3.75555 1.91144 0
M  V30 5792 H 522.97 -3.16138 0.820018 0
M  V30 5793 H 521.629 -2.36732 2.79917 0
M  V30 5794 H 521.277 -4.66595 1.87877 0
M  V30 5795 H 520.977 -4.61742 3.63412 0
M  V30 5796 H 522.501 -5.31162 3.01163 0
M  V30 5797 H 523.915 -3.57807 4.47936 0
M  V30 5798 H 522.312 -3.1213 5.12538 0
M  V30 5799 H 523.382 -1.86595 4.4756 0
M  V30 5800 N 524.725 -1.39134 -0.740242 0
M  V30 5801 C 525.971 -1.36273 -1.50192 0
M  V30 5802 C 526.304 0.0430136 -1.94152 0
M  V30 5803 O 525.579 1.00691 -1.66408 0
M  V30 5804 C 525.862 -2.33041 -2.74525 0
M  V30 5805 C 525.715 -3.82535 -2.36617 0
M  V30 5806 C 527.034 -2.27723 -3.76604 0
M  V30 5807 H 524.153 -0.496323 -0.544823 0
M  V30 5808 H 526.795 -1.70085 -0.846815 0
M  V30 5809 H 524.945 -2.04337 -3.30422 0
M  V30 5810 H 526.617 -4.21967 -1.86391 0
M  V30 5811 H 524.86 -3.99565 -1.68909 0
M  V30 5812 H 525.531 -4.45723 -3.2563 0
M  V30 5813 H 528.007 -2.53091 -3.30279 0
M  V30 5814 H 526.883 -2.97519 -4.61274 0
M  V30 5815 H 527.144 -1.28049 -4.2315 0
M  V30 5816 N 526.204 0.969867 -1.24223 0
M  V30 5817 C 527.452 1.70918 -1.0785 0
M  V30 5818 C 527.773 1.91186 0.383763 0
M  V30 5819 O 527.043 1.48806 1.27411 0
M  V30 5820 H 525.623 0.633334 -0.396103 0
M  V30 5821 H 528.285 1.16689 -1.56108 0
M  V30 5822 H 527.381 2.69455 -1.57482 0
M  V30 5823 N 527.682 1.05563 1.17022 0
M  V30 5824 C 528.93 0.76642 1.87004 0
M  V30 5825 C 529.251 -0.708854 1.8166 0
M  V30 5826 O 528.521 -1.51242 1.2451 0
M  V30 5827 H 527.101 0.280516 0.692329 0
M  V30 5828 H 529.763 1.33557 1.41945 0
M  V30 5829 H 528.859 1.08472 2.92644 0
M  V30 5830 N 529.16 -1.33526 0.837174 0
M  V30 5831 C 530.107 -2.29248 0.267169 0
M  V30 5832 C 531.077 -1.54252 -0.616071 0
M  V30 5833 O 532.262 -1.82559 -0.554699 0
M  V30 5834 C 529.402 -3.40638 -0.553152 0
M  V30 5835 C 528.515 -4.30548 0.353921 0
M  V30 5836 C 527.65 -5.29051 -0.477339 0
M  V30 5837 C 526.689 -6.106 0.42823 0
M  V30 5838 N 525.826 -7.01152 -0.364801 0
M  V30 5839 H 530.666 -2.77398 1.08877 0
M  V30 5840 H 528.203 -1.36496 0.54838 0
M  V30 5841 H 530.161 -4.03921 -1.04422 0
M  V30 5842 H 528.791 -2.93685 -1.33973 0
M  V30 5843 H 527.843 -3.68001 0.963289 0
M  V30 5844 H 529.155 -4.87631 1.04964 0
M  V30 5845 H 528.309 -5.97853 -1.0323 0
M  V30 5846 H 527.048 -4.72541 -1.2065 0
M  V30 5847 H 526.053 -5.40718 0.995219 0
M  V30 5848 H 527.278 -6.69193 1.15573 0
M  V30 5849 H 525.224 -6.47092 -1.07738 0
M  V30 5850 H 525.141 -7.5551 0.272238 0
M  V30 5851 H 526.409 -7.74263 -0.902054 0
M  V30 5852 N 530.638 -0.59345 -1.46 0
M  V30 5853 C 531.568 0.121192 -2.33185 0
M  V30 5854 C 532.549 0.872977 -1.4599 0
M  V30 5855 O 533.734 0.846321 -1.74789 0
M  V30 5856 C 530.864 1.12844 -3.28456 0
M  V30 5857 C 529.818 0.4908 -4.25177 0
M  V30 5858 C 529.144 1.60529 -5.10034 0
M  V30 5859 C 530.444 -0.578949 -5.19081 0
M  V30 5860 H 532.138 -0.606767 -2.93187 0
M  V30 5861 H 529.684 -0.293242 -1.40983 0
M  V30 5862 H 531.637 1.63684 -3.88311 0
M  V30 5863 H 530.361 1.88681 -2.66584 0
M  V30 5864 H 529.02 0.00339328 -3.666 0
M  V30 5865 H 528.668 2.35359 -4.44539 0
M  V30 5866 H 528.368 1.18422 -5.75543 0
M  V30 5867 H 529.892 2.11623 -5.72755 0
M  V30 5868 H 531.306 -0.155199 -5.7309 0
M  V30 5869 H 529.703 -0.920947 -5.92991 0
M  V30 5870 H 530.773 -1.46109 -4.62364 0
M  V30 5871 N 532.116 1.54067 -0.331816 0
M  V30 5872 C 533.064 2.26105 0.54582 0
M  V30 5873 C 534.058 1.27816 1.11173 0
M  V30 5874 O 535.264 1.45565 1.05882 0
M  V30 5875 H 531.639 0.726363 0.194683 0
M  V30 5876 H 533.61 2.98282 -0.083931 0
M  V30 5877 C 532.359 3.03814 1.69092 0
M  V30 5878 H 531.682 3.79269 1.26473 0
M  V30 5879 H 533.122 3.57453 2.28043 0
M  V30 5880 C 531.581 2.12606 2.61343 0
M  V30 5881 O 532.111 1.71437 3.6328 0
M  V30 5882 N 530.317 1.77925 2.29763 0
M  V30 5883 H 529.864 2.11602 1.46909 0
M  V30 5884 H 529.822 1.1718 2.91747 0
M  V30 5885 N 533.594 0.0601682 1.57485 0
M  V30 5886 C 534.84 -0.612501 1.93329 0
M  V30 5887 C 535.173 -1.6996 0.939526 0
M  V30 5888 O 534.448 -1.94472 -0.0330957 0
M  V30 5889 C 534.731 -1.20025 3.39508 0
M  V30 5890 C 534.584 -0.12059 4.49638 0
M  V30 5891 C 535.903 -2.10923 3.86264 0
M  V30 5892 H 533.022 -0.221185 0.703027 0
M  V30 5893 H 535.664 0.123768 1.89596 0
M  V30 5894 H 533.814 -1.82774 3.42821 0
M  V30 5895 H 535.486 0.51185 4.58452 0
M  V30 5896 H 533.729 0.550251 4.30296 0
M  V30 5897 H 534.4 -0.572019 5.49028 0
M  V30 5898 H 536.876 -1.58124 3.84884 0
M  V30 5899 H 535.752 -2.48987 4.8918 0
M  V30 5900 H 536.013 -3.01292 3.23536 0
M  V30 5901 N 535.072 -1.5615 -0.213296 0
M  V30 5902 C 536.022 -1.89485 -1.26804 0
M  V30 5903 C 537.006 -0.758713 -1.41889 0
M  V30 5904 O 538.198 -1.02127 -1.44565 0
M  V30 5905 C 535.327 -2.22219 -2.61675 0
M  V30 5906 C 534.413 -3.42245 -2.50458 0
M  V30 5907 N 534.804 -4.60645 -2.089 0
M  V30 5908 C 533.102 -3.46023 -2.81397 0
M  V30 5909 C 533.803 -5.42805 -2.09135 0
M  V30 5910 N 532.779 -4.82732 -2.49941 0
M  V30 5911 H 536.581 -2.78537 -0.937771 0
M  V30 5912 H 534.095 -1.56826 -0.421824 0
M  V30 5913 H 536.092 -2.44278 -3.37837 0
M  V30 5914 H 534.752 -1.34484 -2.95541 0
M  V30 5915 H 535.763 -4.85651 -1.79899 0
M  V30 5916 H 532.44 -2.68654 -3.1958 0
M  V30 5917 H 533.83 -6.47601 -1.79059 0
M  V30 5918 N 536.55 0.480323 -1.50102 0
M  V30 5919 C 537.483 1.59789 -1.62919 0
M  V30 5920 C 538.461 1.55429 -0.477557 0
M  V30 5921 O 539.645 1.75186 -0.695851 0
M  V30 5922 C 536.772 2.98351 -1.60325 0
M  V30 5923 C 535.818 3.20899 -2.80938 0
M  V30 5924 S 536.651 3.01791 -4.4236 0
M  V30 5925 C 537.807 4.42712 -4.42444 0
M  V30 5926 H 538.04 1.48676 -2.57454 0
M  V30 5927 H 535.573 0.666996 -1.3925 0
M  V30 5928 H 537.531 3.7824 -1.59514 0
M  V30 5929 H 536.192 3.06862 -0.670419 0
M  V30 5930 H 535.385 4.22102 -2.75401 0
M  V30 5931 H 534.987 2.48768 -2.79268 0
M  V30 5932 H 537.279 5.3518 -4.15438 0
M  V30 5933 H 538.222 4.53294 -5.43995 0
M  V30 5934 H 538.63 4.24359 -3.72263 0
M  V30 5935 N 538.028 1.39524 0.732853 0
M  V30 5936 C 538.976 1.38563 1.86824 0
M  V30 5937 C 539.97 0.268467 1.67259 0
M  V30 5938 O 541.176 0.438613 1.74574 0
M  V30 5939 H 537.551 0.432737 0.615014 0
M  V30 5940 H 539.522 2.34328 1.84751 0
M  V30 5941 C 538.271 1.2481 3.24527 0
M  V30 5942 H 537.594 2.10044 3.40179 0
M  V30 5943 H 539.034 1.28194 4.04156 0
M  V30 5944 C 537.493 -0.0432825 3.36872 0
M  V30 5945 O 538.023 -1.01268 3.88726 0
M  V30 5946 N 536.229 -0.107055 2.90403 0
M  V30 5947 H 535.776 0.682512 2.48394 0
M  V30 5948 H 535.734 -0.970618 2.99042 0
M  V30 5949 N 539.506 -0.963266 1.24736 0
M  V30 5950 C 540.917 -1.52145 1.08207 0
M  V30 5951 C 541.268 -1.93142 -0.345061 0
M  V30 5952 O 540.393 -1.77769 -1.23399 0
M  V30 5953 C 540.988 -2.76486 1.95808 0
M  V30 5954 C 539.547 -3.28646 1.8349 0
M  V30 5955 C 538.694 -2.01529 1.90476 0
M  V30 5956 H 541.645 -0.781083 1.38148 0
M  V30 5957 H 541.666 -3.49986 1.49297 0
M  V30 5958 H 541.178 -2.46617 2.99669 0
M  V30 5959 H 539.279 -3.63357 0.824787 0
M  V30 5960 H 539.392 -3.97246 2.67829 0
M  V30 5961 H 537.756 -2.16442 1.34258 0
M  V30 5962 H 538.539 -1.7402 2.95926 0
M  V30 5963 N 540.985 -1.06182 -1.16461 0
M  V30 5964 C 542.396 -0.802426 -1.68576 0
M  V30 5965 C 542.747 0.67412 -1.84255 0
M  V30 5966 O 541.872 1.52303 -1.5373 0
M  V30 5967 C 542.467 -1.45002 -3.06202 0
M  V30 5968 C 541.026 -1.23843 -3.55443 0
M  V30 5969 C 540.173 -1.52724 -2.31454 0
M  V30 5970 H 543.124 -1.22545 -1.00839 0
M  V30 5971 H 543.145 -0.864731 -3.70544 0
M  V30 5972 H 542.657 -2.52466 -2.94759 0
M  V30 5973 H 540.758 -0.183487 -3.72148 0
M  V30 5974 H 540.871 -1.95036 -4.37604 0
M  V30 5975 H 539.235 -0.947726 -2.36411 0
M  V30 5976 H 540.018 -2.61343 -2.22609 0
M  V30 5977 N 542.463 1.3308 -0.844243 0
M  V30 5978 C 543.395 2.27954 -0.238671 0
M  V30 5979 C 544.408 1.51978 0.583665 0
M  V30 5980 O 545.597 1.73731 0.409857 0
M  V30 5981 C 542.697 3.31963 0.682185 0
M  V30 5982 C 541.87 4.37281 -0.101998 0
M  V30 5983 C 540.929 5.20928 0.743022 0
M  V30 5984 O 539.955 5.68914 0.180285 0
M  V30 5985 N 541.157 5.42738 2.0595 0
M  V30 5986 H 543.922 2.8056 -1.05386 0
M  V30 5987 H 541.483 1.4583 -0.70322 0
M  V30 5988 H 543.475 3.84828 1.25259 0
M  V30 5989 H 542.045 2.79594 1.39808 0
M  V30 5990 H 541.265 3.84843 -0.853802 0
M  V30 5991 H 542.553 5.04746 -0.641015 0
M  V30 5992 H 541.951 5.05463 2.54016 0
M  V30 5993 H 540.508 5.98639 2.57827 0
M  V30 5994 N 543.941 0.601185 1.45683 0
M  V30 5995 C 545.187 0.0940202 2.02582 0
M  V30 5996 C 545.52 -1.26972 1.46941 0
M  V30 5997 O 544.795 -1.83613 0.641612 0
M  V30 5998 C 545.078 0.0481715 3.60068 0
M  V30 5999 C 544.931 1.44212 4.26055 0
M  V30 6000 C 546.25 -0.642975 4.35378 0
M  V30 6001 H 543.369 0.0356404 0.736138 0
M  V30 6002 H 546.011 0.771929 1.73612 0
M  V30 6003 H 544.161 -0.529128 3.8488 0
M  V30 6004 H 545.833 2.06601 4.12449 0
M  V30 6005 H 544.076 2.00465 3.84703 0
M  V30 6006 H 544.747 1.36234 5.34925 0
M  V30 6007 H 547.223 -0.152351 4.15821 0
M  V30 6008 H 546.099 -0.644141 5.45107 0
M  V30 6009 H 546.36 -1.70785 4.0778 0
M  V30 6010 N 545.419 -1.53889 0.339982 0
M  V30 6011 C 546.366 -2.24902 -0.518452 0
M  V30 6012 C 547.336 -1.24593 -1.09844 0
M  V30 6013 O 548.521 -1.53317 -1.13572 0
M  V30 6014 C 545.661 -3.02262 -1.66529 0
M  V30 6015 C 544.774 -4.17418 -1.11295 0
M  V30 6016 C 543.909 -4.82273 -2.2268 0
M  V30 6017 C 542.948 -5.89503 -1.6478 0
M  V30 6018 N 542.085 -6.48153 -2.69893 0
M  V30 6019 H 546.925 -2.97853 0.0936579 0
M  V30 6020 H 544.462 -1.46986 0.0579924 0
M  V30 6021 H 546.42 -3.45371 -2.3404 0
M  V30 6022 H 545.05 -2.31614 -2.24844 0
M  V30 6023 H 544.102 -3.78976 -0.328886 0
M  V30 6024 H 545.414 -4.94554 -0.649414 0
M  V30 6025 H 544.568 -5.28435 -2.98063 0
M  V30 6026 H 543.307 -4.04552 -2.72376 0
M  V30 6027 H 542.312 -5.42728 -0.879004 0
M  V30 6028 H 543.537 -6.6913 -1.1594 0
M  V30 6029 H 541.483 -5.73298 -3.1885 0
M  V30 6030 H 541.4 -7.20752 -2.28151 0
M  V30 6031 H 542.668 -6.98968 -3.45056 0
M  V30 6032 N 546.897 -0.0685191 -1.57451 0
M  V30 6033 C 547.86 0.885173 -2.11417 0
M  V30 6034 C 548.86 1.22853 -1.03748 0
M  V30 6035 O 550.05 1.16235 -1.2975 0
M  V30 6036 C 547.182 2.18964 -2.61281 0
M  V30 6037 H 548.375 0.417034 -2.96986 0
M  V30 6038 H 545.928 0.18014 -1.55258 0
M  V30 6039 H 546.663 2.70321 -1.79156 0
M  V30 6040 H 546.448 1.9534 -3.39977 0
M  V30 6041 H 547.938 2.87242 -3.0312 0
M  V30 6042 N 548.375 1.56261 0.205012 0
M  V30 6043 C 549.603 1.84141 0.943386 0
M  V30 6044 C 550.018 0.649772 1.77266 0
M  V30 6045 O 549.375 -0.381612 1.78466 0
M  V30 6046 C 549.426 3.10719 1.84759 0
M  V30 6047 O 549.147 4.25286 1.05181 0
M  V30 6048 C 550.648 3.51706 2.69848 0
M  V30 6049 H 547.868 0.611734 0.275721 0
M  V30 6050 H 550.412 2.03364 0.215253 0
M  V30 6051 H 548.567 2.93422 2.52947 0
M  V30 6052 H 548.981 4.97301 1.66709 0
M  V30 6053 H 550.455 4.43266 3.28967 0
M  V30 6054 H 550.932 2.7423 3.43067 0
M  V30 6055 H 551.538 3.71499 2.07047 0
M  V30 6056 N 549.853 -0.472356 1.50355 0
M  V30 6057 C 551.102 -1.2213 1.60522 0
M  V30 6058 C 551.415 -1.9312 0.310466 0
M  V30 6059 O 552.621 -2.69936 0.291029 0
M  V30 6060 C 551.077 -2.21909 2.83345 0
M  V30 6061 C 550.685 -1.56727 4.19691 0
M  V30 6062 C 552.429 -2.97453 3.02856 0
M  V30 6063 C 550.336 -2.54785 5.33703 0
M  V30 6064 H 549.266 -0.459543 0.597776 0
M  V30 6065 H 551.917 -0.491922 1.76783 0
M  V30 6066 H 550.299 -2.98133 2.60639 0
M  V30 6067 H 551.473 -0.863007 4.52646 0
M  V30 6068 H 549.788 -0.934685 4.05774 0
M  V30 6069 H 552.385 -3.70838 3.85205 0
M  V30 6070 H 552.728 -3.56764 2.14534 0
M  V30 6071 H 553.261 -2.28342 3.25737 0
M  V30 6072 H 550 -2.00214 6.24175 0
M  V30 6073 H 549.52 -3.23367 5.05167 0
M  V30 6074 H 551.199 -3.16639 5.64224 0
M  V30 6075 N 551.331 -1.39911 -0.725443 0
M  V30 6076 C 552.58 -1.36963 -1.48068 0
M  V30 6077 C 552.893 0.0284478 -1.95579 0
M  V30 6078 O 554.099 0.180535 -2.70899 0
M  V30 6079 C 552.555 -2.40664 -2.67598 0
M  V30 6080 C 552.163 -3.86234 -2.26997 0
M  V30 6081 C 553.907 -2.46807 -3.45379 0
M  V30 6082 C 551.814 -4.81554 -3.43307 0
M  V30 6083 H 550.744 -0.509223 -0.556065 0
M  V30 6084 H 553.395 -1.65602 -0.790454 0
M  V30 6085 H 551.777 -2.05109 -3.38742 0
M  V30 6086 H 552.951 -4.3088 -1.63337 0
M  V30 6087 H 551.266 -3.83475 -1.62284 0
M  V30 6088 H 553.863 -3.15213 -4.31909 0
M  V30 6089 H 554.206 -1.49552 -3.8851 0
M  V30 6090 H 554.739 -2.81303 -2.81271 0
M  V30 6091 H 551.478 -5.80106 -3.05217 0
M  V30 6092 H 550.998 -4.4158 -4.05915 0
M  V30 6093 H 552.677 -5.0091 -4.0951 0
M  V30 6094 N 552.809 0.956637 -1.25245 0
M  V30 6095 C 554.034 1.74104 -1.12706 0
M  V30 6096 C 554.459 1.85436 0.315429 0
M  V30 6097 O 553.817 1.33334 1.22848 0
M  V30 6098 C 553.865 3.1338 -1.78396 0
M  V30 6099 O 552.969 3.98485 -1.06224 0
M  V30 6100 H 552.31 0.53476 -0.393609 0
M  V30 6101 H 554.84 1.19924 -1.65769 0
M  V30 6102 H 554.85 3.6385 -1.846 0
M  V30 6103 H 553.525 3.04448 -2.83345 0
M  V30 6104 H 552.102 3.56952 -1.07886 0
M  V30 6105 N 554.287 1.06798 1.15896 0
M  V30 6106 C 555.197 0.694564 2.24083 0
M  V30 6107 C 556.213 -0.291687 1.71538 0
M  V30 6108 O 557.389 -0.139723 2.00915 0
M  V30 6109 C 554.454 0.0921014 3.46578 0
M  V30 6110 C 553.515 1.13087 4.14137 0
M  V30 6111 C 552.748 0.557064 5.30785 0
M  V30 6112 O 552.971 -0.628623 5.66925 0
M  V30 6113 O 551.905 1.29924 5.8771 0
M  V30 6114 H 555.731 1.59663 2.58344 0
M  V30 6115 H 553.316 0.840575 1.2351 0
M  V30 6116 H 555.198 -0.241884 4.20705 0
M  V30 6117 H 553.873 -0.78337 3.14078 0
M  V30 6118 H 552.78 1.51712 3.41957 0
M  V30 6119 H 554.113 1.97805 4.50704 0
M  V30 6120 N 555.766 -1.3263 0.851289 0
M  V30 6121 C 556.698 -2.27824 0.250757 0
M  V30 6122 C 557.711 -1.52285 -0.575598 0
M  V30 6123 O 558.9 -1.73946 -0.400638 0
M  V30 6124 C 556 -3.3232 -0.664571 0
M  V30 6125 C 555.173 -4.37221 0.125187 0
M  V30 6126 C 554.232 -5.21314 -0.715385 0
M  V30 6127 O 553.258 -5.69002 -0.150111 0
M  V30 6128 N 554.46 -5.43823 -2.03069 0
M  V30 6129 H 557.225 -2.79997 1.06873 0
M  V30 6130 H 554.786 -1.45455 0.710943 0
M  V30 6131 H 556.778 -3.85486 -1.23216 0
M  V30 6132 H 555.348 -2.80331 -1.38323 0
M  V30 6133 H 554.568 -3.84384 0.874199 0
M  V30 6134 H 555.856 -5.04399 0.667774 0
M  V30 6135 H 555.254 -5.06803 -2.51332 0
M  V30 6136 H 553.811 -5.99998 -2.54648 0
M  V30 6137 N 557.244 -0.608902 -1.45362 0
M  V30 6138 C 558.176 0.147318 -2.28726 0
M  V30 6139 C 559.189 0.830468 -1.40025 0
M  V30 6140 O 560.378 0.695636 -1.64387 0
M  V30 6141 C 557.478 1.22968 -3.15804 0
M  V30 6142 C 556.651 0.633391 -4.3279 0
M  V30 6143 C 555.71 1.60682 -5.01067 0
M  V30 6144 O 554.736 1.13261 -5.57818 0
M  V30 6145 N 555.938 2.94123 -5.00472 0
M  V30 6146 H 558.703 -0.568014 -2.94268 0
M  V30 6147 H 556.264 -0.448479 -1.55564 0
M  V30 6148 H 558.256 1.88072 -3.58345 0
M  V30 6149 H 556.826 1.84752 -2.52162 0
M  V30 6150 H 556.046 -0.195762 -3.93714 0
M  V30 6151 H 557.334 0.215255 -5.08344 0
M  V30 6152 H 556.732 3.3525 -4.55657 0
M  V30 6153 H 555.289 3.54646 -5.46872 0
M  V30 6154 N 558.722 1.53707 -0.348139 0
M  V30 6155 C 559.685 2.23812 0.494058 0
M  V30 6156 C 560.685 1.23989 1.02388 0
M  V30 6157 O 561.875 1.48395 0.912396 0
M  V30 6158 C 559.007 2.96133 1.68872 0
M  V30 6159 H 560.2 2.99663 -0.119141 0
M  V30 6160 H 557.753 1.55983 -0.0995539 0
M  V30 6161 H 558.488 2.24481 2.34049 0
M  V30 6162 H 558.273 3.69357 1.31596 0
M  V30 6163 H 559.763 3.49475 2.28597 0
M  V30 6164 N 560.2 0.0768682 1.57412 0
M  V30 6165 C 561.147 -0.888577 2.13009 0
M  V30 6166 C 562.117 -1.29198 1.0439 0
M  V30 6167 O 563.302 -1.37694 1.3208 0
M  V30 6168 C 560.442 -2.14899 2.70023 0
M  V30 6169 C 559.555 -1.79777 3.92816 0
M  V30 6170 C 558.69 -3.00467 4.38056 0
M  V30 6171 C 557.729 -2.61385 5.53484 0
M  V30 6172 N 556.866 -3.74851 5.93659 0
M  V30 6173 H 561.706 -0.407593 2.95199 0
M  V30 6174 H 559.243 -0.189534 1.45874 0
M  V30 6175 H 561.201 -2.88688 3.0119 0
M  V30 6176 H 559.831 -2.60529 1.9059 0
M  V30 6177 H 558.883 -0.960301 3.68079 0
M  V30 6178 H 560.195 -1.47027 4.76639 0
M  V30 6179 H 559.349 -3.82529 4.7091 0
M  V30 6180 H 558.088 -3.36413 3.53097 0
M  V30 6181 H 557.093 -1.77746 5.20275 0
M  V30 6182 H 558.318 -2.26603 6.40178 0
M  V30 6183 H 556.264 -4.1055 5.11649 0
M  V30 6184 H 556.181 -3.45887 6.72234 0
M  V30 6185 H 557.449 -4.57477 6.31138 0
M  V30 6186 N 561.678 -1.56367 -0.196722 0
M  V30 6187 C 562.903 -1.84991 -0.937714 0
M  V30 6188 C 563.328 -0.660244 -1.76132 0
M  V30 6189 O 562.686 0.390967 -1.77034 0
M  V30 6190 C 562.734 -3.11828 -1.81096 0
M  V30 6191 O 561.838 -2.92266 -2.90955 0
M  V30 6192 H 561.179 -0.609193 -0.264159 0
M  V30 6193 H 563.709 -2.03595 -0.202529 0
M  V30 6194 H 563.719 -3.42579 -2.21594 0
M  V30 6195 H 562.394 -3.98037 -1.2058 0
M  V30 6196 H 560.971 -2.72809 -2.54224 0
M  V30 6197 N 563.156 0.464375 -1.50603 0
M  V30 6198 C 564.086 1.56944 -1.72889 0
M  V30 6199 C 565.067 1.59979 -0.577997 0
M  V30 6200 O 566.252 1.76138 -0.817855 0
M  V30 6201 C 563.382 2.95225 -1.8292 0
M  V30 6202 C 562.336 3.07056 -2.98162 0
M  V30 6203 C 561.662 4.47051 -2.93343 0
M  V30 6204 C 562.962 2.83648 -4.38567 0
M  V30 6205 H 564.656 1.38547 -2.65415 0
M  V30 6206 H 562.202 0.665082 -1.27721 0
M  V30 6207 H 564.155 3.72467 -1.97095 0
M  V30 6208 H 562.879 3.14793 -0.870209 0
M  V30 6209 H 561.538 2.32248 -2.83648 0
M  V30 6210 H 561.186 4.63547 -1.95276 0
M  V30 6211 H 560.886 4.55902 -3.70712 0
M  V30 6212 H 562.41 5.26304 -3.09575 0
M  V30 6213 H 563.824 3.50636 -4.53572 0
M  V30 6214 H 562.221 3.03937 -5.17438 0
M  V30 6215 H 563.291 1.79451 -4.50472 0
M  V30 6216 N 564.634 1.40294 0.718013 0
M  V30 6217 C 565.564 1.43118 1.84498 0
M  V30 6218 C 566.545 0.292403 1.67568 0
M  V30 6219 O 567.73 0.500675 1.87635 0
M  V30 6220 C 564.86 1.29065 3.22427 0
M  V30 6221 C 563.814 2.40521 3.54025 0
M  V30 6222 C 563.14 2.11546 4.91073 0
M  V30 6223 C 564.44 3.82859 3.55269 0
M  V30 6224 H 566.134 2.37432 1.82391 0
M  V30 6225 H 563.68 1.14283 0.87609 0
M  V30 6226 H 565.633 1.29658 4.00957 0
M  V30 6227 H 564.357 0.312271 3.25104 0
M  V30 6228 H 563.016 2.39173 2.77834 0
M  V30 6229 H 562.664 1.12104 4.90348 0
M  V30 6230 H 562.364 2.86216 5.1318 0
M  V30 6231 H 563.888 2.13817 5.71939 0
M  V30 6232 H 565.302 3.86044 4.23843 0
M  V30 6233 H 563.699 4.57029 3.88902 0
M  V30 6234 H 564.769 4.12617 2.54706 0
M  V30 6235 N 566.112 -0.949982 1.2575 0
M  V30 6236 C 567.059 -2.04738 1.06541 0
M  V30 6237 C 568.029 -1.66078 -0.0268818 0
M  V30 6238 O 569.214 -1.90348 0.131196 0
M  V30 6239 C 566.354 -3.38027 0.695127 0
M  V30 6240 C 565.467 -3.89776 1.86276 0
M  V30 6241 C 564.602 -5.11411 1.4364 0
M  V30 6242 C 563.641 -5.554 2.57287 0
M  V30 6243 N 562.778 -6.68244 2.15395 0
M  V30 6244 H 567.618 -2.20502 2.00457 0
M  V30 6245 H 565.155 -1.0805 0.998178 0
M  V30 6246 H 567.113 -4.14641 0.461375 0
M  V30 6247 H 565.743 -3.22135 -0.207046 0
M  V30 6248 H 564.795 -3.0964 2.20969 0
M  V30 6249 H 566.107 -4.18368 2.71606 0
M  V30 6250 H 565.261 -5.95457 1.16257 0
M  V30 6251 H 564 -4.84545 0.553879 0
M  V30 6252 H 563.005 -4.69916 2.85409 0
M  V30 6253 H 564.23 -5.84272 3.46125 0
M  V30 6254 H 562.176 -6.43078 1.29565 0
M  V30 6255 H 562.093 -6.96377 2.94272 0
M  V30 6256 H 563.361 -7.55687 1.91201 0
M  V30 6257 N 567.59 -1.07411 -1.15328 0
M  V30 6258 C 568.538 -0.689316 -2.22151 0
M  V30 6259 C 569.532 0.300156 -1.6672 0
M  V30 6260 O 570.738 0.163804 -1.79253 0
M  V30 6261 H 567.113 -0.204834 -0.723566 0
M  V30 6262 H 569.084 -1.59988 -2.51886 0
M  V30 6263 C 567.833 -0.103848 -3.47545 0
M  V30 6264 H 567.156 -0.856367 -3.90521 0
M  V30 6265 H 568.596 0.127725 -4.23808 0
M  V30 6266 C 567.055 1.15563 -3.1646 0
M  V30 6267 O 567.585 2.242 -3.33312 0
M  V30 6268 N 565.791 1.06203 -2.70498 0
M  V30 6269 H 565.338 0.177933 -2.56985 0
M  V30 6270 H 565.296 1.90553 -2.50074 0
M  V30 6271 N 569.068 1.32177 -0.85831 0
M  V30 6272 C 569.978 2.32561 -0.308606 0
M  V30 6273 C 570.994 1.64209 0.575462 0
M  V30 6274 O 572.17 1.95719 0.474961 0
M  V30 6275 C 569.235 3.43207 0.490909 0
M  V30 6276 C 568.296 4.27243 -0.419733 0
M  V30 6277 C 567.529 5.32605 0.341719 0
M  V30 6278 O 567.752 5.48332 1.57125 0
M  V30 6279 O 566.686 6.0118 -0.294379 0
M  V30 6280 H 570.512 2.81477 -1.14037 0
M  V30 6281 H 568.097 1.35866 -0.621349 0
M  V30 6282 H 569.979 4.10677 0.944574 0
M  V30 6283 H 568.654 2.96474 1.29941 0
M  V30 6284 H 567.561 3.62569 -0.921652 0
M  V30 6285 H 568.894 4.7751 -1.19352 0
M  V30 6286 N 570.547 0.616602 1.45037 0
M  V30 6287 C 571.495 -0.109318 2.32343 0
M  V30 6288 C 572.489 -0.850543 1.465 0
M  V30 6289 O 573.695 -0.765088 1.62931 0
M  V30 6290 H 570.07 -0.0541091 0.750051 0
M  V30 6291 H 572.041 0.645326 2.91338 0
M  V30 6292 C 570.79 -1.0872 3.30266 0
M  V30 6293 H 570.113 -0.526267 3.96321 0
M  V30 6294 H 571.553 -1.56489 3.94065 0
M  V30 6295 C 570.012 -2.16525 2.58105 0
M  V30 6296 O 570.542 -3.244 2.36913 0
M  V30 6297 N 568.748 -1.92057 2.18088 0
M  V30 6298 H 568.295 -1.04337 2.35524 0
M  V30 6299 H 568.253 -2.64391 1.70131 0
M  V30 6300 N 572.025 -1.5352 0.356285 0
M  V30 6301 C 573.253 -2.05534 -0.237328 0
M  V30 6302 C 573.668 -1.23043 -1.43199 0
M  V30 6303 O 573.025 -0.268821 -1.80509 0
M  V30 6304 C 573.076 -3.55791 -0.639933 0
M  V30 6305 O 572.797 -4.35154 0.507233 0
M  V30 6306 C 574.298 -4.24027 -1.29292 0
M  V30 6307 H 571.518 -0.669585 -0.0435572 0
M  V30 6308 H 574.062 -1.97988 0.511963 0
M  V30 6309 H 572.217 -3.63518 -1.33915 0
M  V30 6310 H 572.631 -5.24178 0.18375 0
M  V30 6311 H 574.105 -5.30509 -1.52527 0
M  V30 6312 H 574.582 -3.77166 -2.25039 0
M  V30 6313 H 575.188 -4.20527 -0.63539 0
M  V30 6314 N 573.503 -0.0852151 -1.57369 0
M  V30 6315 C 574.919 0.271436 -1.57275 0
M  V30 6316 C 575.119 1.69109 -1.09565 0
M  V30 6317 O 574.175 2.40549 -0.767611 0
M  V30 6318 C 575.488 0.0688638 -3.00621 0
M  V30 6319 C 577.036 0.137373 -3.12698 0
M  V30 6320 C 577.511 -0.0370832 -4.57985 0
M  V30 6321 N 579.002 0.0180794 -4.63196 0
M  V30 6322 C 579.737 -0.0922953 -5.73326 0
M  V30 6323 N 579.233 -0.256948 -6.92323 0
M  V30 6324 N 581.026 -0.0342702 -5.6209 0
M  V30 6325 H 573.177 -1.01288 -1.86693 0
M  V30 6326 H 575.44 -0.396138 -0.861266 0
M  V30 6327 H 575.146 -0.911277 -3.39689 0
M  V30 6328 H 575.02 0.815442 -3.6828 0
M  V30 6329 H 577.407 1.10801 -2.73509 0
M  V30 6330 H 577.488 -0.640532 -2.47651 0
M  V30 6331 H 577.132 -1.00455 -4.97867 0
M  V30 6332 H 577.062 0.760392 -5.21081 0
M  V30 6333 H 579.553 0.143202 -3.77629 0
M  V30 6334 H 579.866 -0.332949 -7.72082 0
M  V30 6335 H 578.211 -0.292487 -6.94384 0
M  V30 6336 H 581.402 0.0931605 -4.68007 0
M  V30 6337 H 581.575 -0.12374 -6.47882 0
M  V30 6338 N 574.981 1.5647 0.188427 0
M  V30 6339 C 575.929 1.95971 1.25293 0
M  V30 6340 C 576.923 0.846047 1.4676 0
M  V30 6341 O 578.129 1.03109 1.47542 0
M  V30 6342 H 574.504 0.623253 0.420784 0
M  V30 6343 H 576.475 2.84731 0.892792 0
M  V30 6344 C 575.224 2.32116 2.58877 0
M  V30 6345 H 574.547 3.17341 2.43176 0
M  V30 6346 H 575.987 2.63613 3.3209 0
M  V30 6347 C 574.446 1.15823 3.16365 0
M  V30 6348 O 574.976 0.436785 3.99318 0
M  V30 6349 N 573.182 0.933278 2.75206 0
M  V30 6350 H 572.729 1.52169 2.07852 0
M  V30 6351 H 572.687 0.156976 3.14008 0
M  V30 6352 N 576.459 -0.456382 1.50847 0
M  V30 6353 C 577.736 -1.21739 1.53098 0
M  V30 6354 C 578.116 -2.09179 0.284132 0
M  V30 6355 O 577.464 -2.16466 -0.731773 0
M  V30 6356 C 577.674 -2.03573 2.83477 0
M  V30 6357 C 579.022 -2.61264 3.34703 0
M  V30 6358 O 580.046 -2.13802 2.84898 0
M  V30 6359 O 578.905 -3.47779 4.21559 0
M  V30 6360 H 575.999 -0.553219 0.614718 0
M  V30 6361 H 578.545 -0.467003 1.63148 0
M  V30 6362 H 577.317 -1.39232 3.65691 0
M  V30 6363 H 576.94 -2.85716 2.76499 0
M  V30 6364 N 577.937 -1.40673 -0.710563 0
M  V30 6365 C 579.167 -1.4234 -1.49742 0
M  V30 6366 C 579.575 -0.022821 -1.89186 0
M  V30 6367 O 578.918 0.964773 -1.56326 0
M  V30 6368 C 578.98 -2.25509 -2.79975 0
M  V30 6369 C 578.644 -3.73862 -2.62824 0
M  V30 6370 C 579.641 -4.66379 -2.29752 0
M  V30 6371 C 577.326 -4.17735 -2.78932 0
M  V30 6372 C 579.32 -6.00756 -2.13006 0
M  V30 6373 C 577.007 -5.5218 -2.61802 0
M  V30 6374 C 578.005 -6.43505 -2.28888 0
M  V30 6375 O 577.693 -7.75472 -2.11894 0
M  V30 6376 H 577.425 -0.487311 -0.468513 0
M  V30 6377 H 579.979 -1.8542 -0.883668 0
M  V30 6378 H 578.209 -1.77218 -3.43701 0
M  V30 6379 H 579.898 -2.19058 -3.41714 0
M  V30 6380 H 580.664 -4.33778 -2.16936 0
M  V30 6381 H 576.543 -3.46967 -3.03537 0
M  V30 6382 H 580.087 -6.72003 -1.87237 0
M  V30 6383 H 575.984 -5.84365 -2.74204 0
M  V30 6384 H 576.752 -7.86458 -2.26775 0
M  V30 6385 N 579.415 0.9433 -1.26252 0
M  V30 6386 C 580.64 1.72898 -1.14547 0
M  V30 6387 C 581.065 1.85761 0.295743 0
M  V30 6388 O 580.423 1.3463 1.21427 0
M  V30 6389 C 580.471 3.11471 -1.8171 0
M  V30 6390 O 579.575 3.97336 -1.10445 0
M  V30 6391 H 578.916 0.530555 -0.399259 0
M  V30 6392 H 581.446 1.18159 -1.67032 0
M  V30 6393 H 581.456 3.61872 -1.88449 0
M  V30 6394 H 580.131 3.01425 -2.86558 0
M  V30 6395 H 578.708 3.55788 -1.11666 0
M  V30 6396 N 580.893 1.08022 1.14757 0
M  V30 6397 C 582.141 0.805913 1.85336 0
M  V30 6398 C 582.462 -0.670162 1.83122 0
M  V30 6399 O 581.732 -1.48567 1.2769 0
M  V30 6400 H 580.312 0.295138 0.686223 0
M  V30 6401 H 582.974 1.36538 1.3908 0
M  V30 6402 H 582.07 1.14655 2.90277 0
M  V30 6403 N 582.371 -1.3172 0.865308 0
M  V30 6404 C 583.281 -2.32394 0.320935 0
M  V30 6405 C 584.297 -1.64511 -0.566746 0
M  V30 6406 O 585.473 -1.95969 -0.464575 0
M  V30 6407 C 582.538 -3.43462 -0.472701 0
M  V30 6408 C 581.599 -4.27015 0.442385 0
M  V30 6409 C 580.832 -5.32779 -0.313469 0
M  V30 6410 O 581.055 -5.49158 -1.54214 0
M  V30 6411 O 579.989 -6.01015 0.326257 0
M  V30 6412 H 583.815 -2.80868 1.15528 0
M  V30 6413 H 581.4 -1.35535 0.628545 0
M  V30 6414 H 583.282 -4.11172 -0.922781 0
M  V30 6415 H 581.957 -2.97159 -1.28367 0
M  V30 6416 H 580.864 -3.62075 0.940866 0
M  V30 6417 H 582.197 -4.76871 1.21882 0
M  V30 6418 N 583.85 -0.624285 -1.44708 0
M  V30 6419 C 585.099 -0.123539 -2.01321 0
M  V30 6420 C 585.412 1.25966 -1.49639 0
M  V30 6421 O 586.618 1.85405 -1.98336 0
M  V30 6422 C 585.074 -0.170124 -3.59498 0
M  V30 6423 C 584.682 -1.55421 -4.20176 0
M  V30 6424 C 586.426 0.274513 -4.23611 0
M  V30 6425 C 584.332 -1.55628 -5.70556 0
M  V30 6426 H 583.263 -0.0424183 -0.752806 0
M  V30 6427 H 585.913 -0.782076 -1.65999 0
M  V30 6428 H 584.296 0.555385 -3.92086 0
M  V30 6429 H 585.47 -2.30276 -3.99136 0
M  V30 6430 H 583.784 -1.94235 -3.68323 0
M  V30 6431 H 586.382 0.292402 -5.339 0
M  V30 6432 H 586.725 1.3005 -3.95465 0
M  V30 6433 H 587.258 -0.398275 -3.95801 0
M  V30 6434 H 583.997 -2.56041 -6.03426 0
M  V30 6435 H 583.517 -0.850563 -5.93739 0
M  V30 6436 H 585.196 -1.28721 -6.34066 0
M  V30 6437 N 585.328 1.53329 -0.364422 0
M  V30 6438 C 586.258 2.28627 0.474543 0
M  V30 6439 C 587.239 1.31009 1.08492 0
M  V30 6440 O 588.424 1.59878 1.10239 0
M  V30 6441 C 585.554 3.07465 1.61501 0
M  V30 6442 C 584.508 4.1276 1.13194 0
M  V30 6443 C 583.834 4.79674 2.36255 0
M  V30 6444 C 585.134 5.21847 0.217507 0
M  V30 6445 H 586.828 2.99005 -0.153656 0
M  V30 6446 H 584.374 1.43803 -0.0753406 0
M  V30 6447 H 586.327 3.58889 2.20855 0
M  V30 6448 H 585.051 2.34775 2.27042 0
M  V30 6449 H 583.71 3.62281 0.56109 0
M  V30 6450 H 583.358 4.03557 3.00251 0
M  V30 6451 H 583.058 5.50827 2.04606 0
M  V30 6452 H 584.582 5.33892 2.96297 0
M  V30 6453 H 585.996 5.6878 0.718493 0
M  V30 6454 H 584.393 6.00099 -0.00806408 0
M  V30 6455 H 585.463 4.7921 -0.740653 0
M  V30 6456 N 586.806 0.0935595 1.57322 0
M  V30 6457 C 587.754 -0.883457 2.15169 0
M  V30 6458 C 588.748 -1.29324 1.09415 0
M  V30 6459 O 589.954 -1.26795 1.27762 0
M  V30 6460 H 586.329 -0.302923 0.688289 0
M  V30 6461 H 588.3 -0.370845 2.96087 0
M  V30 6462 C 587.049 -2.13345 2.74552 0
M  V30 6463 H 586.372 -1.82702 3.55612 0
M  V30 6464 H 587.812 -2.7977 3.18598 0
M  V30 6465 C 586.271 -2.90646 1.70371 0
M  V30 6466 O 586.801 -3.85133 1.14173 0
M  V30 6467 N 585.007 -2.54157 1.40899 0
M  V30 6468 H 584.554 -1.77391 1.86789 0
M  V30 6469 H 584.512 -3.06178 0.714301 0
M  V30 6470 N 588.284 -1.56567 -0.180126 0
M  V30 6471 C 589.232 -1.96632 -1.24251 0
M  V30 6472 C 590.226 -0.853818 -1.46309 0
M  V30 6473 O 591.432 -1.0389 -1.46993 0
M  V30 6474 H 587.807 -0.625476 -0.417473 0
M  V30 6475 H 589.778 -2.85201 -0.877679 0
M  V30 6476 C 588.527 -2.33486 -2.57642 0
M  V30 6477 H 587.85 -3.18626 -2.4149 0
M  V30 6478 H 589.29 -2.65371 -3.30688 0
M  V30 6479 C 587.749 -1.17499 -3.15746 0
M  V30 6480 O 588.279 -0.457956 -3.99081 0
M  V30 6481 N 586.485 -0.94786 -2.74707 0
M  V30 6482 H 586.032 -1.53269 -2.07042 0
M  V30 6483 H 585.99 -0.173626 -3.1392 0
M  V30 6484 N 589.762 0.448376 -1.51087 0
M  V30 6485 C 591.002 1.20832 -1.64861 0
M  V30 6486 C 591.366 1.88748 -0.351873 0
M  V30 6487 O 592.567 2.66307 -0.365265 0
M  V30 6488 C 590.838 2.20674 -2.81137 0
M  V30 6489 S 592.397 3.05303 -3.15176 0
M  V30 6490 H 589.215 0.40992 -0.580936 0
M  V30 6491 H 591.817 0.501624 -1.88955 0
M  V30 6492 H 590.521 1.69399 -3.73808 0
M  V30 6493 H 590.052 2.9594 -2.59198 0
M  V30 6494 H 592.067 4.22162 -2.60756 0
M  V30 6495 N 591.24 1.41047 0.703093 0
M  V30 6496 C 592.48 1.41461 1.4754 0
M  V30 6497 C 592.844 0.0199013 1.9199 0
M  V30 6498 O 594.045 -0.101138 2.6861 0
M  V30 6499 C 592.316 2.38703 2.66 0
M  V30 6500 S 593.875 2.57582 3.55242 0
M  V30 6501 H 590.693 0.501226 0.504275 0
M  V30 6502 H 593.295 1.77422 0.821074 0
M  V30 6503 H 591.999 3.3885 2.31536 0
M  V30 6504 H 591.53 2.04069 3.36333 0
M  V30 6505 H 593.545 1.83758 4.6092 0
M  V30 6506 N 592.718 -0.936591 1.26751 0
M  V30 6507 C 593.964 -1.6858 1.12733 0
M  V30 6508 C 594.297 -1.91414 -0.327745 0
M  V30 6509 O 593.572 -1.49812 -1.24043 0
M  V30 6510 C 593.855 -3.05779 1.90187 0
M  V30 6511 C 593.708 -2.90242 3.43627 0
M  V30 6512 C 595.027 -4.0597 1.69931 0
M  V30 6513 H 592.146 -0.61182 0.410908 0
M  V30 6514 H 594.788 -1.08747 1.55801 0
M  V30 6515 H 592.938 -3.56853 1.53584 0
M  V30 6516 H 594.61 -2.46354 3.9001 0
M  V30 6517 H 592.853 -2.2577 3.70419 0
M  V30 6518 H 593.524 -3.87572 3.93055 0
M  V30 6519 H 596 -3.63874 2.0183 0
M  V30 6520 H 594.876 -4.99974 2.26534 0
M  V30 6521 H 595.137 -4.37369 0.64502 0
M  V30 6522 N 594.196 -1.08629 -1.14182 0
M  V30 6523 C 595.129 -0.662329 -2.18377 0
M  V30 6524 C 596.107 0.327054 -1.59277 0
M  V30 6525 O 597.291 0.230376 -1.87087 0
M  V30 6526 C 594.418 0.0254765 -3.3869 0
M  V30 6527 C 593.464 -0.924414 -4.16361 0
M  V30 6528 S 594.297 -2.43226 -4.77076 0
M  V30 6529 C 595.453 -1.75663 -6.00744 0
M  V30 6530 H 595.686 -1.54501 -2.54001 0
M  V30 6531 H 593.219 -0.901484 -1.2535 0
M  V30 6532 H 595.177 0.416032 -4.08386 0
M  V30 6533 H 593.838 0.884689 -3.01384 0
M  V30 6534 H 593.031 -0.390099 -5.02488 0
M  V30 6535 H 592.633 -1.25598 -3.5228 0
M  V30 6536 H 594.925 -1.07589 -6.68903 0
M  V30 6537 H 595.868 -2.59673 -6.58768 0
M  V30 6538 H 596.276 -1.22903 -5.50958 0
M  V30 6539 N 595.674 1.31259 -0.872281 0
M  V30 6540 C 596.584 2.32221 -0.333255 0
M  V30 6541 C 597.6 1.6481 0.558013 0
M  V30 6542 O 598.776 1.96212 0.454175 0
M  V30 6543 C 595.841 3.43708 0.454479 0
M  V30 6544 C 594.902 4.26774 -0.465024 0
M  V30 6545 C 594.135 5.32937 0.28521 0
M  V30 6546 O 594.358 5.49968 1.513 0
M  V30 6547 O 593.292 6.00834 -0.358126 0
M  V30 6548 H 597.118 2.80252 -1.17016 0
M  V30 6549 H 594.703 1.352 -0.635724 0
M  V30 6550 H 596.585 4.11656 0.900963 0
M  V30 6551 H 595.26 2.97836 1.26789 0
M  V30 6552 H 594.167 3.61571 -0.960055 0
M  V30 6553 H 595.5 4.76217 -1.2441 0
M  V30 6554 N 597.152 0.631951 1.44375 0
M  V30 6555 C 598.382 0.143658 2.061 0
M  V30 6556 C 598.79 -1.18733 1.47306 0
M  V30 6557 O 598.133 -1.73943 0.590724 0
M  V30 6558 C 598.195 -0.0446102 3.59472 0
M  V30 6559 C 597.859 1.20835 4.40736 0
M  V30 6560 C 598.856 2.13224 4.74164 0
M  V30 6561 C 596.541 1.44399 4.81097 0
M  V30 6562 C 598.535 3.27487 5.46838 0
M  V30 6563 C 596.222 2.58959 5.53519 0
M  V30 6564 C 597.22 3.50329 5.86309 0
M  V30 6565 O 596.908 4.62891 6.57257 0
M  V30 6566 H 596.64 0.0772939 0.671567 0
M  V30 6567 H 599.194 0.866677 1.8622 0
M  V30 6568 H 597.424 -0.822783 3.77845 0
M  V30 6569 H 599.113 -0.487561 4.02961 0
M  V30 6570 H 599.879 1.96253 4.4352 0
M  V30 6571 H 595.758 0.741696 4.54994 0
M  V30 6572 H 599.302 3.98826 5.72349 0
M  V30 6573 H 595.199 2.75873 5.83579 0
M  V30 6574 H 595.967 4.61883 6.75726 0
M  V30 6575 N 598.631 -1.53133 0.372548 0
M  V30 6576 C 599.581 -2.22733 -0.487218 0
M  V30 6577 C 600.565 -1.22506 -1.04312 0
M  V30 6578 O 601.757 -1.47923 -0.972005 0
M  V30 6579 C 598.886 -3.02524 -1.62278 0
M  V30 6580 C 597.972 -4.10133 -1.07943 0
M  V30 6581 N 598.363 -5.05133 -0.259629 0
M  V30 6582 C 596.661 -4.24964 -1.35356 0
M  V30 6583 C 597.362 -5.81687 0.0386656 0
M  V30 6584 N 596.338 -5.40699 -0.560827 0
M  V30 6585 H 600.14 -2.93538 0.145853 0
M  V30 6586 H 597.654 -1.61389 0.180938 0
M  V30 6587 H 599.651 -3.50909 -2.25096 0
M  V30 6588 H 598.311 -2.33252 -2.25884 0
M  V30 6589 H 599.322 -5.178 0.101746 0
M  V30 6590 H 595.999 -3.66919 -1.9919 0
M  V30 6591 H 597.389 -6.68224 0.701841 0
M  V30 6592 N 600.109 -0.101901 -1.5727 0
M  V30 6593 C 601.041 0.884723 -2.11436 0
M  V30 6594 C 602.054 1.24149 -1.05314 0
M  V30 6595 O 603.243 1.19341 -1.3274 0
M  V30 6596 C 600.343 2.19179 -2.58484 0
M  V30 6597 C 599.516 2.00933 -3.88516 0
M  V30 6598 C 598.575 3.15213 -4.2134 0
M  V30 6599 O 597.601 2.88877 -4.90448 0
M  V30 6600 N 598.803 4.41174 -3.77288 0
M  V30 6601 H 601.568 0.422058 -2.96713 0
M  V30 6602 H 599.129 0.0830128 -1.61687 0
M  V30 6603 H 601.121 2.94593 -2.77484 0
M  V30 6604 H 599.691 2.56847 -1.7818 0
M  V30 6605 H 598.911 1.09809 -3.78597 0
M  V30 6606 H 600.199 1.86026 -4.73573 0
M  V30 6607 H 599.597 4.6545 -3.21516 0
M  V30 6608 H 598.154 5.13515 -4.01429 0
M  V30 6609 N 601.587 1.56661 0.17182 0
M  V30 6610 C 602.55 1.9549 1.19651 0
M  V30 6611 C 603.55 0.838501 1.37207 0
M  V30 6612 O 604.74 1.10556 1.34622 0
M  V30 6613 C 601.872 2.24927 2.56166 0
M  V30 6614 H 603.065 2.87184 0.864007 0
M  V30 6615 H 600.618 1.50711 0.41425 0
M  V30 6616 H 601.353 1.35944 2.94431 0
M  V30 6617 H 601.138 3.06301 2.4479 0
M  V30 6618 H 602.628 2.55891 3.30014 0
M  V30 6619 N 603.065 -0.440357 1.51323 0
M  V30 6620 C 604.293 -1.21255 1.67645 0
M  V30 6621 C 604.708 -1.85088 0.37252 0
M  V30 6622 O 604.065 -1.70582 -0.648683 0
M  V30 6623 C 604.116 -2.29881 2.78993 0
M  V30 6624 O 603.837 -1.68659 4.04334 0
M  V30 6625 C 605.338 -3.20214 3.06558 0
M  V30 6626 H 602.558 -0.36558 0.562666 0
M  V30 6627 H 605.102 -0.52214 1.97722 0
M  V30 6628 H 603.257 -2.94643 2.51524 0
M  V30 6629 H 603.671 -2.40426 4.6615 0
M  V30 6630 H 605.145 -3.92575 3.88058 0
M  V30 6631 H 605.622 -3.80794 2.18844 0
M  V30 6632 H 606.228 -2.61156 3.35675 0
M  V30 6633 N 604.543 -1.41418 -0.695603 0
M  V30 6634 C 605.791 -1.40496 -1.45277 0
M  V30 6635 C 606.112 -0.0149538 -1.94994 0
M  V30 6636 O 605.382 0.9432 -1.71699 0
M  V30 6637 H 603.962 -0.517147 -0.539044 0
M  V30 6638 H 606.624 -1.76656 -0.823321 0
M  V30 6639 H 605.72 -2.09214 -2.31595 0
M  V30 6640 N 606.021 0.929856 -1.27246 0
M  V30 6641 C 607.249 1.71144 -1.16265 0
M  V30 6642 C 607.664 1.867 0.280786 0
M  V30 6643 O 607.021 1.38249 1.19136 0
M  V30 6644 C 607.072 3.11222 -1.83911 0
M  V30 6645 O 606.793 2.96398 -3.22614 0
M  V30 6646 C 608.294 4.05541 -1.79028 0
M  V30 6647 H 605.514 0.535499 -0.404328 0
M  V30 6648 H 608.058 1.16492 -1.68077 0
M  V30 6649 H 606.213 3.6274 -1.36009 0
M  V30 6650 H 606.627 3.8494 -3.56261 0
M  V30 6651 H 608.101 5.01351 -2.30978 0
M  V30 6652 H 608.578 4.32589 -0.759168 0
M  V30 6653 H 609.184 3.59947 -2.26535 0
M  V30 6654 N 607.499 1.09233 1.13605 0
M  V30 6655 C 608.429 0.751738 2.21068 0
M  V30 6656 C 609.41 -0.269688 1.67948 0
M  V30 6657 O 610.595 -0.13819 1.93708 0
M  V30 6658 C 607.725 0.16935 3.46887 0
M  V30 6659 C 606.679 1.12007 4.13084 0
M  V30 6660 C 606.005 0.399483 5.33206 0
M  V30 6661 C 607.305 2.46168 4.6065 0
M  V30 6662 H 608.999 1.65024 2.49815 0
M  V30 6663 H 606.545 0.794905 1.20072 0
M  V30 6664 H 608.498 -0.0809824 4.21322 0
M  V30 6665 H 607.222 -0.764335 3.1753 0
M  V30 6666 H 605.881 1.35564 3.40614 0
M  V30 6667 H 605.529 -0.538277 5.00112 0
M  V30 6668 H 605.229 1.03337 5.78442 0
M  V30 6669 H 606.753 0.157403 6.10397 0
M  V30 6670 H 608.167 2.26829 5.26518 0
M  V30 6671 H 606.564 3.05326 5.1662 0
M  V30 6672 H 607.634 3.07076 3.75276 0
M  V30 6673 N 608.977 -1.30795 0.87923 0
M  V30 6674 C 610.202 -2.01063 0.508769 0
M  V30 6675 C 610.627 -1.65508 -0.893803 0
M  V30 6676 O 609.985 -0.868616 -1.59138 0
M  V30 6677 C 610.033 -3.54054 0.683991 0
M  V30 6678 O 609.137 -4.11498 -0.272654 0
M  V30 6679 H 608.478 -0.632786 0.201191 0
M  V30 6680 H 611.008 -1.66776 1.18519 0
M  V30 6681 H 611.018 -4.03845 0.580798 0
M  V30 6682 H 609.693 -3.79271 1.70665 0
M  V30 6683 H 608.27 -3.72695 -0.12364 0
M  V30 6684 N 610.455 -0.639598 -1.44038 0
M  V30 6685 C 611.418 0.0506628 -2.29144 0
M  V30 6686 C 612.418 0.764001 -1.41491 0
M  V30 6687 O 613.608 0.607309 -1.63271 0
M  V30 6688 C 610.74 1.0824 -3.2326 0
M  V30 6689 H 611.933 -0.697987 -2.91664 0
M  V30 6690 H 609.486 -0.400146 -1.51091 0
M  V30 6691 H 610.221 1.86075 -2.65606 0
M  V30 6692 H 610.006 0.574725 -3.87865 0
M  V30 6693 H 611.496 1.56487 -3.87171 0
M  V30 6694 N 611.933 1.52934 -0.380664 0
M  V30 6695 C 612.883 2.22989 0.475399 0
M  V30 6696 C 613.867 1.23058 1.03661 0
M  V30 6697 O 615.059 1.48436 0.964146 0
M  V30 6698 C 612.188 3.0338 1.60671 0
M  V30 6699 C 611.274 4.107 1.05766 0
M  V30 6700 N 611.665 5.05264 0.232837 0
M  V30 6701 C 609.963 4.25676 1.33101 0
M  V30 6702 C 610.664 5.81658 -0.0695134 0
M  V30 6703 N 609.64 5.40989 0.532144 0
M  V30 6704 H 613.442 2.93456 -0.161418 0
M  V30 6705 H 610.956 1.61291 -0.189495 0
M  V30 6706 H 612.953 3.52098 2.23232 0
M  V30 6707 H 611.613 2.34446 2.24644 0
M  V30 6708 H 612.624 5.17739 -0.129204 0
M  V30 6709 H 609.301 3.6797 1.97241 0
M  V30 6710 H 610.691 6.67843 -0.737269 0
M  V30 6711 N 613.412 0.11024 1.57214 0
M  V30 6712 C 614.659 -0.54987 1.94891 0
M  V30 6713 C 614.987 -1.67243 0.992984 0
M  V30 6714 O 614.242 -1.95694 0.0152703 0
M  V30 6715 C 614.541 -1.13102 3.39032 0
M  V30 6716 C 614.207 -0.130713 4.5071 0
M  V30 6717 C 612.869 0.14437 4.80983 0
M  V30 6718 C 615.221 0.551472 5.18274 0
M  V30 6719 C 612.549 1.10807 5.76141 0
M  V30 6720 C 614.901 1.50375 6.14467 0
M  V30 6721 C 613.565 1.78691 6.43138 0
M  V30 6722 H 612.835 -0.201212 0.713158 0
M  V30 6723 H 615.482 0.189288 1.90562 0
M  V30 6724 H 613.787 -1.94675 3.40013 0
M  V30 6725 H 615.484 -1.64973 3.65493 0
M  V30 6726 H 612.074 -0.355301 4.27125 0
M  V30 6727 H 616.258 0.35211 4.95049 0
M  V30 6728 H 611.514 1.3343 5.96663 0
M  V30 6729 H 615.688 2.03808 6.65909 0
M  V30 6730 H 613.315 2.53522 7.1668 0
M  V30 6731 N 614.89 -1.56749 -0.16351 0
M  V30 6732 C 616.306 -1.51043 -0.515567 0
M  V30 6733 C 616.506 -0.815855 -1.84245 0
M  V30 6734 O 615.562 -0.379477 -2.49632 0
M  V30 6735 C 616.875 -2.95791 -0.541114 0
M  V30 6736 C 618.423 -3.0664 -0.627776 0
M  V30 6737 C 618.898 -4.52861 -0.684141 0
M  V30 6738 N 620.389 -4.5714 -0.746818 0
M  V30 6739 C 621.124 -5.67634 -0.811137 0
M  V30 6740 N 620.62 -6.8774 -0.835811 0
M  V30 6741 N 622.413 -5.55624 -0.850756 0
M  V30 6742 H 614.564 -2.00307 0.70645 0
M  V30 6743 H 616.827 -0.912876 0.255659 0
M  V30 6744 H 616.533 -3.49797 0.365329 0
M  V30 6745 H 616.407 -3.50858 -1.38487 0
M  V30 6746 H 618.794 -2.52663 -1.52464 0
M  V30 6747 H 618.875 -2.54645 0.242805 0
M  V30 6748 H 618.519 -5.07472 0.2085 0
M  V30 6749 H 618.449 -5.02621 -1.57098 0
M  V30 6750 H 620.94 -3.70669 -0.735717 0
M  V30 6751 H 621.253 -7.67701 -0.886279 0
M  V30 6752 H 619.598 -6.90334 -0.803958 0
M  V30 6753 H 622.789 -4.60709 -0.828535 0
M  V30 6754 H 622.962 -6.41756 -0.897418 0
M  V30 6755 N 616.368 0.432326 -1.51554 0
M  V30 6756 C 617.316 1.54572 -1.73811 0
M  V30 6757 C 618.31 1.58246 -0.604539 0
M  V30 6758 O 619.516 1.6193 -0.786041 0
M  V30 6759 H 615.891 0.513626 -0.549265 0
M  V30 6760 H 617.862 1.32977 -2.67132 0
M  V30 6761 C 616.611 2.92181 -1.88483 0
M  V30 6762 H 615.934 2.90088 -2.75116 0
M  V30 6763 H 617.374 3.69439 -2.08065 0
M  V30 6764 C 615.833 3.3065 -0.645909 0
M  V30 6765 O 616.363 4.01216 0.197093 0
M  V30 6766 N 614.569 2.86464 -0.488538 0
M  V30 6767 H 614.116 2.29209 -1.17562 0
M  V30 6768 H 614.074 3.12565 0.339156 0
M  V30 6769 N 617.846 1.41785 0.688094 0
M  V30 6770 C 618.779 1.38643 1.81255 0
M  V30 6771 C 619.757 0.252583 1.60626 0
M  V30 6772 O 620.941 0.440691 1.83276 0
M  V30 6773 C 618.068 1.16449 3.18053 0
M  V30 6774 C 617.114 2.32651 3.57457 0
M  V30 6775 S 617.947 3.95152 3.61407 0
M  V30 6776 C 619.103 3.75275 5.00919 0
M  V30 6777 H 619.336 2.33799 1.83644 0
M  V30 6778 H 616.869 1.28398 0.857513 0
M  V30 6779 H 618.827 1.0433 3.97021 0
M  V30 6780 H 617.488 0.229002 3.13264 0
M  V30 6781 H 616.681 2.12835 4.56856 0
M  V30 6782 H 616.283 2.41215 2.85817 0
M  V30 6783 H 618.575 3.35443 5.88629 0
M  V30 6784 H 619.518 4.74302 5.25778 0
M  V30 6785 H 619.926 3.08401 4.7281 0
M  V30 6786 N 619.324 -0.923095 1.27737 0
M  V30 6787 C 620.549 -1.71054 1.17283 0
M  V30 6788 C 620.974 -1.86208 -0.266153 0
M  V30 6789 O 620.332 -1.36545 -1.1927 0
M  V30 6790 C 620.38 -3.0854 1.86642 0
M  V30 6791 O 619.484 -3.95528 1.16752 0
M  V30 6792 H 618.825 -0.524136 0.407649 0
M  V30 6793 H 621.355 -1.15487 1.6889 0
M  V30 6794 H 621.365 -3.58828 1.94182 0
M  V30 6795 H 620.04 -2.96828 2.91317 0
M  V30 6796 H 618.617 -3.53967 1.17312 0
M  V30 6797 N 620.802 -1.09834 -1.13024 0
M  V30 6798 C 621.732 -0.763451 -2.20666 0
M  V30 6799 C 622.713 0.260778 -1.68089 0
M  V30 6800 O 623.898 0.127915 -1.93778 0
M  V30 6801 C 621.028 -0.187744 -3.46792 0
M  V30 6802 C 619.982 -1.14196 -4.12484 0
M  V30 6803 C 619.308 -0.427755 -5.32986 0
M  V30 6804 C 620.608 -2.48607 -4.59338 0
M  V30 6805 H 622.302 -1.66347 -2.48936 0
M  V30 6806 H 619.848 -0.801261 -1.19649 0
M  V30 6807 H 621.801 0.0586375 -4.21359 0
M  V30 6808 H 620.525 0.747485 -3.17931 0
M  V30 6809 H 619.184 -1.37369 -3.3989 0
M  V30 6810 H 618.832 0.511747 -5.0039 0
M  V30 6811 H 618.532 -1.06403 -5.77886 0
M  V30 6812 H 620.056 -0.189772 -6.10305 0
M  V30 6813 H 621.47 -2.29618 -5.25308 0
M  V30 6814 H 619.867 -3.08062 -5.14993 0
M  V30 6815 H 620.937 -3.09062 -3.73642 0
M  V30 6816 N 622.28 1.30327 -0.886154 0
M  V30 6817 C 623.227 2.28099 -0.352069 0
M  V30 6818 C 624.197 1.56433 0.558397 0
M  V30 6819 O 625.382 1.84492 0.486561 0
M  V30 6820 C 622.522 3.42456 0.426346 0
M  V30 6821 C 621.635 4.28938 -0.513472 0
M  V30 6822 C 620.77 5.30458 0.280657 0
M  V30 6823 C 619.809 6.0859 -0.654556 0
M  V30 6824 N 618.946 7.02022 0.104322 0
M  V30 6825 H 623.786 2.73166 -1.19097 0
M  V30 6826 H 621.323 1.34367 -0.598662 0
M  V30 6827 H 623.281 4.07518 0.893587 0
M  V30 6828 H 621.911 2.98455 1.22981 0
M  V30 6829 H 620.963 3.64173 -1.09921 0
M  V30 6830 H 622.275 4.83399 -1.2299 0
M  V30 6831 H 621.429 6.01273 0.8097 0
M  V30 6832 H 620.168 4.76693 1.03029 0
M  V30 6833 H 619.173 5.36651 -1.19522 0
M  V30 6834 H 620.398 6.64443 -1.4033 0
M  V30 6835 H 618.344 6.50645 0.836472 0
M  V30 6836 H 618.261 7.53979 -0.552453 0
M  V30 6837 H 619.529 7.77077 0.614069 0
M  V30 6838 N 623.758 0.647228 1.43697 0
M  V30 6839 C 625.174 0.314256 1.56476 0
M  V30 6840 C 625.374 -1.18191 1.63196 0
M  V30 6841 O 624.43 -1.96655 1.58376 0
M  V30 6842 C 625.743 1.02034 2.82859 0
M  V30 6843 C 627.291 1.00002 2.96595 0
M  V30 6844 C 627.766 1.68689 4.25803 0
M  V30 6845 N 629.257 1.65424 4.32654 0
M  V30 6846 C 629.992 2.1545 5.31384 0
M  V30 6847 N 629.488 2.73738 6.36427 0
M  V30 6848 N 631.281 2.05985 5.22998 0
M  V30 6849 H 623.432 1.61821 1.37578 0
M  V30 6850 H 625.695 0.680184 0.660344 0
M  V30 6851 H 625.401 2.07542 2.83935 0
M  V30 6852 H 625.275 0.568146 3.72897 0
M  V30 6853 H 627.662 -0.0466319 2.95063 0
M  V30 6854 H 627.743 1.49086 2.07863 0
M  V30 6855 H 627.387 2.73308 4.28095 0
M  V30 6856 H 627.317 1.17076 5.13421 0
M  V30 6857 H 629.808 1.22884 3.57363 0
M  V30 6858 H 630.121 3.09602 7.08072 0
M  V30 6859 H 628.466 2.77796 6.37067 0
M  V30 6860 H 631.657 1.60157 4.39849 0
M  V30 6861 H 631.83 2.45281 5.99784 0
M  V30 6862 N 625.236 -1.5273 0.388769 0
M  V30 6863 C 626.485 -2.00757 -0.194833 0
M  V30 6864 C 626.798 -1.27951 -1.47946 0
M  V30 6865 O 628.004 -1.66686 -2.14308 0
M  V30 6866 C 626.46 -3.57695 -0.397762 0
M  V30 6867 C 626.068 -4.394 0.873583 0
M  V30 6868 C 627.812 -4.14012 -0.937759 0
M  V30 6869 C 625.719 -5.87938 0.638962 0
M  V30 6870 H 624.649 -0.750101 -0.0765845 0
M  V30 6871 H 627.3 -1.76239 0.511086 0
M  V30 6872 H 625.682 -3.7846 -1.16552 0
M  V30 6873 H 626.856 -4.30403 1.64591 0
M  V30 6874 H 625.171 -3.94301 1.33849 0
M  V30 6875 H 627.768 -5.22645 -1.12899 0
M  V30 6876 H 628.111 -3.7007 -1.90666 0
M  V30 6877 H 628.644 -3.97137 -0.229588 0
M  V30 6878 H 625.383 -6.36202 1.57885 0
M  V30 6879 H 624.903 -5.99726 -0.094443 0
M  V30 6880 H 626.582 -6.46423 0.273299 0
M  V30 6881 N 626.714 -0.118576 -1.57153 0
M  V30 6882 C 627.661 0.831789 -2.1529 0
M  V30 6883 C 628.631 1.26385 -1.07778 0
M  V30 6884 O 629.816 1.34144 -1.35684 0
M  V30 6885 C 626.956 2.07664 -2.75626 0
M  V30 6886 C 626.069 1.69298 -3.97444 0
M  V30 6887 C 625.204 2.88747 -4.45868 0
M  V30 6888 C 624.243 2.46619 -5.60219 0
M  V30 6889 N 623.38 3.5898 -6.03389 0
M  V30 6890 H 628.22 0.329183 -2.96176 0
M  V30 6891 H 625.757 0.150792 -1.46325 0
M  V30 6892 H 627.715 2.80601 -3.08738 0
M  V30 6893 H 626.345 2.55384 -1.97431 0
M  V30 6894 H 625.397 0.862374 -3.70496 0
M  V30 6895 H 626.709 1.34338 -4.80369 0
M  V30 6896 H 625.863 3.69909 -4.80887 0
M  V30 6897 H 624.602 3.26933 -3.61892 0
M  V30 6898 H 623.607 1.63889 -5.24805 0
M  V30 6899 H 624.832 2.0955 -6.45961 0
M  V30 6900 H 622.778 3.9684 -5.22354 0
M  V30 6901 H 622.695 3.27942 -6.81168 0
M  V30 6902 H 623.963 4.40583 -6.43045 0
M  V30 6903 N 628.193 1.56834 0.155195 0
M  V30 6904 C 629.609 1.51315 0.50755 0
M  V30 6905 C 629.809 0.825614 1.83809 0
M  V30 6906 O 628.865 0.39271 2.49427 0
M  V30 6907 C 630.178 2.96074 0.52542 0
M  V30 6908 C 631.726 3.06968 0.611505 0
M  V30 6909 C 632.201 4.53218 0.660115 0
M  V30 6910 N 633.692 4.5753 0.722564 0
M  V30 6911 C 634.427 5.68056 0.781023 0
M  V30 6912 N 633.923 6.88173 0.799327 0
M  V30 6913 N 635.716 5.56068 0.821278 0
M  V30 6914 H 627.867 1.9993 -0.717063 0
M  V30 6915 H 630.13 0.911507 -0.260496 0
M  V30 6916 H 629.836 3.49599 -0.383875 0
M  V30 6917 H 629.71 3.51587 1.36624 0
M  V30 6918 H 632.097 2.53468 1.51122 0
M  V30 6919 H 632.178 2.54513 -0.256306 0
M  V30 6920 H 631.822 5.07354 -0.23541 0
M  V30 6921 H 631.752 5.03447 1.5443 0
M  V30 6922 H 634.243 3.71054 0.716049 0
M  V30 6923 H 634.556 7.6816 0.845553 0
M  V30 6924 H 632.901 6.90751 0.767337 0
M  V30 6925 H 636.092 4.61142 0.804091 0
M  V30 6926 H 636.265 6.42223 0.863372 0
M  V30 6927 N 629.671 -0.424282 1.51781 0
M  V30 6928 C 630.896 -1.19928 1.6921 0
M  V30 6929 C 631.321 -1.8392 0.394355 0
M  V30 6930 O 630.679 -1.69371 -0.646778 0
M  V30 6931 C 630.727 -2.24937 2.81843 0
M  V30 6932 O 629.831 -3.3073 2.46356 0
M  V30 6933 H 629.172 -0.35078 0.563781 0
M  V30 6934 H 631.702 -0.499401 1.98412 0
M  V30 6935 H 631.712 -2.69512 3.06312 0
M  V30 6936 H 630.387 -1.77742 3.76006 0
M  V30 6937 H 628.964 -2.9154 2.32505 0
M  V30 6938 N 631.149 -1.42148 -0.680565 0
M  V30 6939 C 632.426 -1.32795 -1.43614 0
M  V30 6940 C 632.806 0.037415 -2.11067 0
M  V30 6941 O 632.154 1.05258 -2.02813 0
M  V30 6942 C 632.364 -2.49206 -2.44331 0
M  V30 6943 C 633.712 -2.91059 -3.09144 0
M  V30 6944 O 634.736 -2.49054 -2.54657 0
M  V30 6945 O 633.595 -3.63741 -4.07866 0
M  V30 6946 H 630.689 -0.523397 -0.640301 0
M  V30 6947 H 633.235 -1.54144 -0.709775 0
M  V30 6948 H 632.007 -3.40252 -1.93247 0
M  V30 6949 H 631.63 -2.29813 -3.24456 0
M  V30 6950 N 632.627 0.916307 -1.28225 0
M  V30 6951 C 634.043 1.19425 -1.05876 0
M  V30 6952 C 634.243 2.005 0.2005 0
M  V30 6953 O 633.299 2.35806 0.902873 0
M  V30 6954 C 634.612 1.93133 -2.30478 0
M  V30 6955 C 636.16 2.06026 -2.35632 0
M  V30 6956 C 636.635 2.83141 -3.59994 0
M  V30 6957 N 638.126 2.90704 -3.60618 0
M  V30 6958 C 638.861 3.50865 -4.53521 0
M  V30 6959 N 638.357 4.12327 -5.56739 0
M  V30 6960 N 640.15 3.48379 -4.41122 0
M  V30 6961 H 632.301 0.37496 -2.09064 0
M  V30 6962 H 634.564 0.228531 -0.920042 0
M  V30 6963 H 634.27 1.40985 -3.22205 0
M  V30 6964 H 634.144 2.93696 -2.36691 0
M  V30 6965 H 636.531 2.57355 -1.44404 0
M  V30 6966 H 636.612 1.04647 -2.33415 0
M  V30 6967 H 636.256 2.32492 -4.51564 0
M  V30 6968 H 636.186 3.84829 -3.59464 0
M  V30 6969 H 638.677 2.47034 -2.85977 0
M  V30 6970 H 638.99 4.56205 -6.23776 0
M  V30 6971 H 637.335 4.10839 -5.60568 0
M  V30 6972 H 640.526 2.99572 -3.59686 0
M  V30 6973 H 640.699 3.94974 -5.13712 0
M  V30 6974 N 634.105 1.10431 1.1244 0
M  V30 6975 C 635.521 0.836096 1.35947 0
M  V30 6976 C 635.721 -0.544475 1.94004 0
M  V30 6977 O 634.777 -1.29735 2.16622 0
M  V30 6978 C 636.09 1.93575 2.30107 0
M  V30 6979 C 637.638 1.9642 2.43697 0
M  V30 6980 C 638.113 3.05559 3.41171 0
M  V30 6981 N 639.604 3.04865 3.48728 0
M  V30 6982 C 640.339 3.85954 4.24061 0
M  V30 6983 N 639.835 4.76977 5.02458 0
M  V30 6984 N 641.628 3.74172 4.19466 0
M  V30 6985 H 633.779 1.9942 0.731124 0
M  V30 6986 H 636.042 0.866607 0.384312 0
M  V30 6987 H 635.748 2.92943 1.94621 0
M  V30 6988 H 635.622 1.8229 3.30227 0
M  V30 6989 H 638.009 0.97685 2.78463 0
M  V30 6990 H 638.09 2.11782 1.43465 0
M  V30 6991 H 637.734 4.04513 3.07135 0
M  V30 6992 H 637.664 2.87438 4.41234 0
M  V30 6993 H 640.155 2.38908 2.92799 0
M  V30 6994 H 640.468 5.35409 5.57277 0
M  V30 6995 H 638.813 4.81006 5.01655 0
M  V30 6996 H 642.004 3.02412 3.57302 0
M  V30 6997 H 642.177 4.37602 4.77921 0
M  V30 6998 N 635.583 -1.29855 0.893053 0
M  V30 6999 C 636.831 -1.9544 0.514566 0
M  V30 7000 C 637.152 -1.70795 -0.940959 0
M  V30 7001 O 636.422 -1.03601 -1.66264 0
M  V30 7002 H 635.002 -0.723137 0.187302 0
M  V30 7003 H 637.664 -1.58234 1.13789 0
M  V30 7004 H 636.76 -3.04341 0.691581 0
M  V30 7005 N 637.061 -0.65484 -1.43351 0
M  V30 7006 C 638.024 0.0263562 -2.29185 0
M  V30 7007 C 639.024 0.748951 -1.42293 0
M  V30 7008 O 640.214 0.589957 -1.63906 0
M  V30 7009 C 637.346 1.04806 -3.2439 0
M  V30 7010 H 638.539 -0.728883 -2.90908 0
M  V30 7011 H 636.092 -0.416149 -1.50658 0
M  V30 7012 H 636.827 1.83247 -2.67565 0
M  V30 7013 H 636.612 0.533554 -3.88453 0
M  V30 7014 H 638.102 1.52372 -3.88809 0
M  V30 7015 N 638.539 1.52521 -0.396863 0
M  V30 7016 C 639.449 2.30403 0.44178 0
M  V30 7017 C 640.465 1.37625 1.06468 0
M  V30 7018 O 641.641 1.70697 1.06886 0
M  V30 7019 C 638.706 3.1013 1.54986 0
M  V30 7020 C 637.767 4.18628 0.951279 0
M  V30 7021 C 637 4.94543 2.00655 0
M  V30 7022 O 637.223 4.70629 3.22281 0
M  V30 7023 O 636.157 5.797 1.61962 0
M  V30 7024 H 639.983 3.03087 -0.192892 0
M  V30 7025 H 637.568 1.48537 -0.16038 0
M  V30 7026 H 639.45 3.59816 2.19341 0
M  V30 7027 H 638.125 2.40251 2.16935 0
M  V30 7028 H 637.032 3.73119 0.270773 0
M  V30 7029 H 638.365 4.90763 0.375887 0
M  V30 7030 N 640.017 0.126909 1.57088 0
M  V30 7031 C 641.242 -0.53997 2.00248 0
M  V30 7032 C 641.667 -1.58927 1.00618 0
M  V30 7033 O 641.025 -1.81288 -0.0210131 0
M  V30 7034 C 641.073 -1.13565 3.4225 0
M  V30 7035 O 640.177 -2.25103 3.45547 0
M  V30 7036 H 639.518 -0.13412 0.650314 0
M  V30 7037 H 642.048 0.217718 2.03438 0
M  V30 7038 H 642.058 -1.46925 3.80627 0
M  V30 7039 H 640.733 -0.367122 4.14277 0
M  V30 7040 H 639.31 -1.93123 3.18995 0
M  V30 7041 N 641.495 -1.56914 -0.146875 0
M  V30 7042 C 642.741 -1.83628 -0.860741 0
M  V30 7043 C 643.074 -0.708528 -1.80813 0
M  V30 7044 O 642.349 0.287838 -1.92358 0
M  V30 7045 C 642.632 -3.20836 -1.63511 0
M  V30 7046 C 642.485 -4.44174 -0.709199 0
M  V30 7047 C 643.804 -3.55268 -2.59756 0
M  V30 7048 H 640.923 -0.667949 -0.311468 0
M  V30 7049 H 643.565 -1.89582 -0.125936 0
M  V30 7050 H 641.715 -3.15891 -2.26153 0
M  V30 7051 H 643.387 -4.61205 -0.0937781 0
M  V30 7052 H 641.63 -4.33796 -0.0187856 0
M  V30 7053 H 642.301 -5.36785 -1.28707 0
M  V30 7054 H 644.777 -3.60824 -2.07232 0
M  V30 7055 H 643.653 -4.52303 -3.10987 0
M  V30 7056 H 643.914 -2.81231 -3.41118 0
M  V30 7057 N 642.974 0.416227 -1.52004 0
M  V30 7058 C 644.202 1.18573 -1.69553 0
M  V30 7059 C 644.617 1.84472 -0.401919 0
M  V30 7060 O 643.974 1.71593 0.621463 0
M  V30 7061 C 644.025 2.25413 -2.82615 0
M  V30 7062 O 643.746 1.62205 -4.06966 0
M  V30 7063 C 645.247 3.15297 -3.11613 0
M  V30 7064 H 642.467 0.356582 -0.56841 0
M  V30 7065 H 645.011 0.490618 -1.98528 0
M  V30 7066 H 643.166 2.90604 -2.56179 0
M  V30 7067 H 643.58 2.3298 -4.69916 0
M  V30 7068 H 645.054 3.86351 -3.94255 0
M  V30 7069 H 645.531 3.77264 -2.24874 0
M  V30 7070 H 646.137 2.55783 -3.39787 0
M  V30 7071 N 644.452 1.42507 0.673017 0
M  V30 7072 C 645.362 1.4853 1.81593 0
M  V30 7073 C 646.378 0.373907 1.69935 0
M  V30 7074 O 647.554 0.625078 1.91454 0
M  V30 7075 C 644.619 1.387 3.17747 0
M  V30 7076 C 643.68 2.60346 3.41348 0
M  V30 7077 C 642.913 2.50975 4.71007 0
M  V30 7078 O 643.136 1.54659 5.49033 0
M  V30 7079 O 642.07 3.41138 4.95892 0
M  V30 7080 H 645.896 2.45001 1.79467 0
M  V30 7081 H 643.481 1.2429 0.82899 0
M  V30 7082 H 645.363 1.35586 3.98992 0
M  V30 7083 H 644.038 0.453555 3.20507 0
M  V30 7084 H 642.945 2.69034 2.59945 0
M  V30 7085 H 644.278 3.52595 3.43421 0
M  V30 7086 N 645.93 -0.909495 1.28709 0
M  V30 7087 C 646.84 -2.04558 1.14861 0
M  V30 7088 C 647.856 -1.73842 0.0741621 0
M  V30 7089 O 649.032 -1.99383 0.2843 0
M  V30 7090 C 646.097 -3.36957 0.816148 0
M  V30 7091 C 645.158 -3.81255 1.97341 0
M  V30 7092 C 644.391 -5.07335 1.65671 0
M  V30 7093 O 644.614 -5.67514 0.573053 0
M  V30 7094 O 643.548 -5.47449 2.50167 0
M  V30 7095 H 647.374 -2.19161 2.10243 0
M  V30 7096 H 644.959 -1.03159 1.08068 0
M  V30 7097 H 646.841 -4.16436 0.644873 0
M  V30 7098 H 645.516 -3.2352 -0.107983 0
M  V30 7099 H 644.423 -3.02584 2.19986 0
M  V30 7100 H 645.756 -3.99261 2.87839 0
M  V30 7101 N 647.408 -1.11026 -1.11852 0
M  V30 7102 C 648.355 -0.764662 -2.17765 0
M  V30 7103 C 649.325 0.261854 -1.64023 0
M  V30 7104 O 650.51 0.139748 -1.90288 0
M  V30 7105 C 647.65 -0.209317 -3.44465 0
M  V30 7106 C 646.763 -1.29187 -4.12231 0
M  V30 7107 C 645.898 -0.697523 -5.266 0
M  V30 7108 C 644.937 -1.76023 -5.86244 0
M  V30 7109 N 644.074 -1.18569 -6.92016 0
M  V30 7110 H 648.914 -1.67202 -2.46673 0
M  V30 7111 H 646.451 -0.835065 -1.21099 0
M  V30 7112 H 648.409 0.130599 -4.16996 0
M  V30 7113 H 647.039 0.661251 -3.15955 0
M  V30 7114 H 646.091 -1.74881 -3.37818 0
M  V30 7115 H 647.403 -2.09607 -4.52622 0
M  V30 7116 H 646.557 -0.307412 -6.05921 0
M  V30 7117 H 645.296 0.138044 -4.87505 0
M  V30 7118 H 644.301 -2.1597 -5.05606 0
M  V30 7119 H 645.526 -2.59875 -6.27409 0
M  V30 7120 H 643.472 -0.371695 -6.54946 0
M  V30 7121 H 643.389 -1.92666 -7.31038 0
M  V30 7122 H 644.657 -0.82233 -7.7515 0
M  V30 7123 N 648.886 1.2938 -0.899927 0
M  V30 7124 C 650.133 1.9555 -0.525963 0
M  V30 7125 C 650.461 1.70945 0.927789 0
M  V30 7126 O 649.716 1.01545 1.67293 0
M  V30 7127 C 650.015 3.49114 -0.765113 0
M  V30 7128 C 649.681 3.93796 -2.19626 0
M  V30 7129 C 648.343 4.05707 -2.58758 0
M  V30 7130 C 650.695 4.16883 -3.12823 0
M  V30 7131 C 648.023 4.38074 -3.90267 0
M  V30 7132 C 650.375 4.50725 -4.4388 0
M  V30 7133 C 649.039 4.60845 -4.82885 0
M  V30 7134 H 648.309 0.715569 -0.192463 0
M  V30 7135 H 650.956 1.53972 -1.13863 0
M  V30 7136 H 649.261 3.91738 -0.069531 0
M  V30 7137 H 650.958 3.98409 -0.455144 0
M  V30 7138 H 647.548 3.85042 -1.88256 0
M  V30 7139 H 651.732 4.07147 -2.83804 0
M  V30 7140 H 646.988 4.44112 -4.20207 0
M  V30 7141 H 651.162 4.67538 -5.16121 0
M  V30 7142 H 648.789 4.85681 -5.84823 0
M  V30 7143 N 650.364 0.662433 1.43002 0
M  V30 7144 C 651.592 0.187615 2.06048 0
M  V30 7145 C 652.007 -1.15039 1.49705 0
M  V30 7146 O 651.364 -1.71209 0.631956 0
M  V30 7147 C 651.415 0.100498 3.6136 0
M  V30 7148 O 651.136 1.38562 4.15611 0
M  V30 7149 C 652.637 -0.399298 4.41498 0
M  V30 7150 H 649.857 0.0941675 0.664359 0
M  V30 7151 H 652.401 0.905681 1.83351 0
M  V30 7152 H 650.556 -0.568181 3.83211 0
M  V30 7153 H 650.97 1.25084 5.09366 0
M  V30 7154 H 652.444 -0.409187 5.50481 0
M  V30 7155 H 652.921 -1.43232 4.15188 0
M  V30 7156 H 653.527 0.23721 4.24638 0
M  V30 7157 N 651.842 -1.52309 0.404946 0
M  V30 7158 C 653.091 -2.00952 -0.173529 0
M  V30 7159 C 653.404 -1.29512 -1.46581 0
M  V30 7160 O 654.61 -1.6895 -2.12528 0
M  V30 7161 C 653.066 -3.58097 -0.359801 0
M  V30 7162 C 652.674 -4.38449 0.920138 0
M  V30 7163 C 654.418 -4.14984 -0.893794 0
M  V30 7164 C 652.325 -5.87227 0.701285 0
M  V30 7165 H 651.255 -0.750871 -0.0686244 0
M  V30 7166 H 653.906 -1.75687 0.529749 0
M  V30 7167 H 652.288 -3.79675 -1.12531 0
M  V30 7168 H 653.462 -4.28633 1.69147 0
M  V30 7169 H 651.777 -3.92859 1.38024 0
M  V30 7170 H 654.374 -5.23813 -1.0735 0
M  V30 7171 H 654.717 -3.72072 -1.8673 0
M  V30 7172 H 655.25 -3.97358 -0.187453 0
M  V30 7173 H 651.989 -6.34491 1.64624 0
M  V30 7174 H 651.509 -5.99792 -0.0308288 0
M  V30 7175 H 653.188 -6.46096 0.341846 0
M  V30 7176 N 653.32 -0.135238 -1.57019 0
M  V30 7177 C 654.25 0.805235 -2.19176 0
M  V30 7178 C 655.231 1.2656 -1.13651 0
M  V30 7179 O 656.416 1.32528 -1.4195 0
M  V30 7180 C 653.546 2.04914 -2.80406 0
M  V30 7181 C 652.5 1.72598 -3.91655 0
M  V30 7182 C 651.826 3.04154 -4.39766 0
M  V30 7183 C 653.126 0.981709 -5.12991 0
M  V30 7184 H 654.82 0.287232 -2.98019 0
M  V30 7185 H 652.366 0.136714 -1.4335 0
M  V30 7186 H 654.319 2.71178 -3.22553 0
M  V30 7187 H 653.043 2.59067 -1.98877 0
M  V30 7188 H 651.702 1.08717 -3.50109 0
M  V30 7189 H 651.35 3.56274 -3.55075 0
M  V30 7190 H 651.05 2.83299 -5.14796 0
M  V30 7191 H 652.574 3.71509 -4.84576 0
M  V30 7192 H 653.988 1.5462 -5.52056 0
M  V30 7193 H 652.385 0.873533 -5.93708 0
M  V30 7194 H 653.455 -0.0286887 -4.84892 0
M  V30 7195 N 654.798 1.5699 0.138552 0
M  V30 7196 C 656.045 1.83809 0.849732 0
M  V30 7197 C 656.373 0.717409 1.80786 0
M  V30 7198 O 655.628 -0.292897 1.93496 0
M  V30 7199 C 655.927 3.17007 1.65049 0
M  V30 7200 C 655.593 4.43037 0.838398 0
M  V30 7201 C 654.255 4.77262 0.614385 0
M  V30 7202 C 656.607 5.20495 0.271044 0
M  V30 7203 C 653.935 5.864 -0.187552 0
M  V30 7204 C 656.287 6.30476 -0.517979 0
M  V30 7205 C 654.951 6.63245 -0.75249 0
M  V30 7206 H 654.221 0.672605 0.310939 0
M  V30 7207 H 656.868 1.91166 0.112971 0
M  V30 7208 H 655.173 3.05138 2.4576 0
M  V30 7209 H 656.87 3.34975 2.20437 0
M  V30 7210 H 653.46 4.16211 1.02307 0
M  V30 7211 H 657.644 4.94422 0.431371 0
M  V30 7212 H 652.9 6.10226 -0.378659 0
M  V30 7213 H 657.074 6.89686 -0.964694 0
M  V30 7214 H 654.701 7.47648 -1.37573 0
M  V30 7215 N 656.276 -0.40816 1.52223 0
M  V30 7216 C 657.186 -1.52202 1.78526 0
M  V30 7217 C 658.202 -1.60546 0.670892 0
M  V30 7218 O 659.378 -1.77242 0.956404 0
M  V30 7219 C 656.443 -2.87928 1.93128 0
M  V30 7220 C 655.504 -2.89463 3.17033 0
M  V30 7221 C 654.737 -4.18715 3.30929 0
M  V30 7222 O 654.96 -5.12662 2.50067 0
M  V30 7223 O 653.894 -4.27125 4.24084 0
M  V30 7224 H 657.72 -1.32911 2.73072 0
M  V30 7225 H 655.305 -0.594112 1.37079 0
M  V30 7226 H 657.187 -3.68426 2.04549 0
M  V30 7227 H 655.862 -3.07285 1.01772 0
M  V30 7228 H 654.769 -2.07815 3.11069 0
M  V30 7229 H 656.102 -2.75055 4.08174 0
M  V30 7230 N 657.755 -1.42862 -0.66545 0
M  V30 7231 C 658.98 -1.47456 -1.45848 0
M  V30 7232 C 659.405 -0.0900312 -1.87884 0
M  V30 7233 O 658.763 0.913587 -1.56599 0
M  V30 7234 C 658.811 -2.41514 -2.67774 0
M  V30 7235 O 657.915 -1.89296 -3.66389 0
M  V30 7236 H 657.256 -0.499236 -0.437789 0
M  V30 7237 H 659.786 -1.8765 -0.815394 0
M  V30 7238 H 659.796 -2.58409 -3.15735 0
M  V30 7239 H 658.471 -3.42099 -2.36519 0
M  V30 7240 H 657.048 -1.82003 -3.25468 0
M  V30 7241 N 659.233 0.902656 -1.29189 0
M  V30 7242 C 660.165 2.01149 -1.09872 0
M  V30 7243 C 661.178 1.62732 -0.0471046 0
M  V30 7244 O 662.367 1.76107 -0.29132 0
M  V30 7245 C 659.467 3.32612 -0.649818 0
M  V30 7246 C 658.64 3.99574 -1.7793 0
M  V30 7247 C 657.699 5.09325 -1.32191 0
M  V30 7248 O 656.725 5.31919 -2.02611 0
M  V30 7249 N 657.927 5.80185 -0.191171 0
M  V30 7250 H 660.692 2.18276 -2.05368 0
M  V30 7251 H 658.253 1.07466 -1.2109 0
M  V30 7252 H 660.245 4.03375 -0.327199 0
M  V30 7253 H 658.815 3.11876 0.212597 0
M  V30 7254 H 658.035 3.22213 -2.27095 0
M  V30 7255 H 659.323 4.41056 -2.53668 0
M  V30 7256 H 658.721 5.64312 0.396016 0
M  V30 7257 H 657.278 6.5176 0.0721001 0
M  V30 7258 N 660.711 1.11618 1.11262 0
M  V30 7259 C 661.958 0.86618 1.8304 0
M  V30 7260 C 662.286 -0.608149 1.84748 0
M  V30 7261 O 661.541 -1.46508 1.29745 0
M  V30 7262 C 661.84 1.37529 3.2988 0
M  V30 7263 C 661.506 2.86317 3.4833 0
M  V30 7264 C 660.168 3.26945 3.53073 0
M  V30 7265 C 662.52 3.82136 3.54431 0
M  V30 7266 C 659.848 4.62117 3.61475 0
M  V30 7267 C 662.2 5.17128 3.64365 0
M  V30 7268 C 660.864 5.57312 3.67369 0
M  V30 7269 H 660.134 0.316958 0.66979 0
M  V30 7270 H 662.781 1.3949 1.31205 0
M  V30 7271 H 661.086 0.766842 3.84222 0
M  V30 7272 H 662.783 1.15817 3.83911 0
M  V30 7273 H 659.373 2.53889 3.45309 0
M  V30 7274 H 663.557 3.51847 3.50025 0
M  V30 7275 H 658.813 4.92655 3.62079 0
M  V30 7276 H 662.987 5.91208 3.68029 0
M  V30 7277 H 660.614 6.62045 3.73632 0
M  V30 7278 N 662.189 -1.289 0.906776 0
M  V30 7279 C 663.414 -1.99939 0.551303 0
M  V30 7280 C 663.839 -1.67366 -0.858496 0
M  V30 7281 O 663.197 -0.902176 -1.57259 0
M  V30 7282 C 663.245 -3.52523 0.758937 0
M  V30 7283 O 662.349 -4.11983 -0.185308 0
M  V30 7284 H 661.69 -0.628376 0.214568 0
M  V30 7285 H 664.22 -1.64225 1.2203 0
M  V30 7286 H 664.23 -4.02522 0.666329 0
M  V30 7287 H 662.905 -3.75566 1.78671 0
M  V30 7288 H 661.482 -3.72873 -0.0445577 0
M  V30 7289 N 663.667 -0.670007 -1.42649 0
M  V30 7290 C 664.913 -0.190568 -2.01903 0
M  V30 7291 C 665.246 1.19817 -1.52832 0
M  V30 7292 O 664.521 1.80342 -0.728485 0
M  V30 7293 C 664.804 -0.21991 -3.59428 0
M  V30 7294 C 664.657 -1.64376 -4.18689 0
M  V30 7295 C 665.976 0.434519 -4.3795 0
M  V30 7296 H 663.095 -0.0707219 -0.733599 0
M  V30 7297 H 665.737 -0.853883 -1.69732 0
M  V30 7298 H 663.887 0.344894 -3.86966 0
M  V30 7299 H 665.559 -2.26044 -4.02122 0
M  V30 7300 H 663.802 -2.18591 -3.747 0
M  V30 7301 H 664.473 -1.61601 -5.27815 0
M  V30 7302 H 666.949 -0.0462156 -4.16074 0
M  V30 7303 H 665.825 0.38333 -5.4756 0
M  V30 7304 H 666.086 1.51135 -4.15464 0
M  V30 7305 N 665.145 1.52092 -0.413018 0
M  V30 7306 C 666.393 2.01456 0.161178 0
M  V30 7307 C 666.714 1.30034 1.45314 0
M  V30 7308 O 665.984 0.427435 1.9118 0
M  V30 7309 H 664.564 0.744376 0.0625526 0
M  V30 7310 H 667.226 1.86974 -0.550151 0
M  V30 7311 H 666.322 3.1008 0.354517 0
M  V30 7312 N 666.623 0.143563 1.56945 0
M  V30 7313 C 667.871 -0.507402 1.95627 0
M  V30 7314 C 668.192 -1.65626 1.02922 0
M  V30 7315 O 667.462 -1.95693 0.0901136 0
M  V30 7316 H 666.042 -0.190436 0.722318 0
M  V30 7317 H 668.704 0.218257 1.93674 0
M  V30 7318 H 667.8 -0.885816 2.99265 0
M  V30 7319 N 668.101 -1.57061 -0.130224 0
M  V30 7320 C 669.049 -2.00486 -1.17933 0
M  V30 7321 C 670.043 -0.899933 -1.43519 0
M  V30 7322 O 671.249 -1.08514 -1.43613 0
M  V30 7323 H 667.624 -0.638441 -0.397363 0
M  V30 7324 H 669.595 -2.87848 -0.786501 0
M  V30 7325 C 668.344 -2.41565 -2.50084 0
M  V30 7326 H 667.667 -3.26148 -2.31231 0
M  V30 7327 H 669.107 -2.75757 -3.22078 0
M  V30 7328 C 667.566 -1.27485 -3.11848 0
M  V30 7329 O 668.096 -0.584688 -3.97422 0
M  V30 7330 N 666.302 -1.03478 -2.71552 0
M  V30 7331 H 665.849 -1.59779 -2.02061 0
M  V30 7332 H 665.807 -0.27341 -3.13209 0
M  V30 7333 N 669.579 0.400081 -1.52437 0
M  V30 7334 C 670.489 1.51253 -1.79331 0
M  V30 7335 C 671.505 1.60188 -0.679396 0
M  V30 7336 O 672.681 1.76733 -0.965791 0
M  V30 7337 C 669.746 2.869 -1.94652 0
M  V30 7338 C 668.807 2.87777 -3.18564 0
M  V30 7339 C 668.04 4.16954 -3.33145 0
M  V30 7340 O 668.263 5.11329 -2.52783 0
M  V30 7341 O 667.197 4.2487 -4.26343 0
M  V30 7342 H 671.023 1.31461 -2.73773 0
M  V30 7343 H 668.608 0.586834 -1.37392 0
M  V30 7344 H 670.49 3.67336 -2.065 0
M  V30 7345 H 669.165 3.06741 -1.034 0
M  V30 7346 H 668.072 2.06162 -3.12167 0
M  V30 7347 H 669.405 2.72886 -4.09627 0
M  V30 7348 N 671.057 1.43213 0.657864 0
M  V30 7349 C 671.987 1.50815 1.78262 0
M  V30 7350 C 672.968 0.363211 1.66177 0
M  V30 7351 O 674.153 0.579806 1.85343 0
M  V30 7352 C 671.283 1.42625 3.16663 0
M  V30 7353 C 670.237 2.5532 3.43505 0
M  V30 7354 C 669.563 2.32184 4.81658 0
M  V30 7355 C 670.863 3.97583 3.38711 0
M  V30 7356 H 672.557 2.44954 1.72157 0
M  V30 7357 H 670.103 1.17896 0.82683 0
M  V30 7358 H 672.056 1.46548 3.95097 0
M  V30 7359 H 670.78 0.449877 3.23487 0
M  V30 7360 H 669.439 2.50742 2.6744 0
M  V30 7361 H 669.087 1.32801 4.85153 0
M  V30 7362 H 668.787 3.07724 5.00579 0
M  V30 7363 H 670.311 2.37883 5.62356 0
M  V30 7364 H 671.725 4.03673 4.07089 0
M  V30 7365 H 670.122 4.73112 3.69168 0
M  V30 7366 H 671.192 4.23049 2.36976 0
M  V30 7367 N 672.536 -0.895792 1.29666 0
M  V30 7368 C 673.782 -1.64908 1.18039 0
M  V30 7369 C 674.115 -1.9236 -0.266682 0
M  V30 7370 O 673.39 -1.53682 -1.19214 0
M  V30 7371 C 673.673 -2.99574 1.99819 0
M  V30 7372 C 673.526 -2.79163 3.52687 0
M  V30 7373 C 674.845 -4.00358 1.82761 0
M  V30 7374 H 671.964 -0.598437 0.430165 0
M  V30 7375 H 674.606 -1.03736 1.59182 0
M  V30 7376 H 672.756 -3.51786 1.64859 0
M  V30 7377 H 674.428 -2.33821 3.9765 0
M  V30 7378 H 672.671 -2.13871 3.77414 0
M  V30 7379 H 673.342 -3.74871 4.05186 0
M  V30 7380 H 675.818 -3.57268 2.13304 0
M  V30 7381 H 674.694 -4.92514 2.42325 0
M  V30 7382 H 674.955 -4.35096 0.783839 0
M  V30 7383 N 674.014 -1.12206 -1.10668 0
M  V30 7384 C 675.261 -0.875875 -1.82578 0
M  V30 7385 C 675.589 0.598342 -1.85068 0
M  V30 7386 O 674.844 1.45818 -1.3052 0
M  V30 7387 C 675.143 -1.39276 -3.29146 0
M  V30 7388 C 674.809 -2.8816 -3.46806 0
M  V30 7389 C 673.471 -3.28813 -3.51334 0
M  V30 7390 C 675.823 -3.8401 -3.52399 0
M  V30 7391 C 673.151 -4.64028 -3.59019 0
M  V30 7392 C 675.503 -5.19053 -3.61617 0
M  V30 7393 C 674.167 -5.59252 -3.64408 0
M  V30 7394 H 673.437 -0.320505 -0.6681 0
M  V30 7395 H 676.084 -1.40184 -1.30464 0
M  V30 7396 H 674.389 -0.787207 -3.8381 0
M  V30 7397 H 676.086 -1.17851 -3.83291 0
M  V30 7398 H 672.676 -2.55716 -3.43958 0
M  V30 7399 H 676.86 -3.53698 -3.48154 0
M  V30 7400 H 672.116 -4.94568 -3.59461 0
M  V30 7401 H 676.29 -5.93152 -3.64889 0
M  V30 7402 H 673.917 -6.64017 -3.70116 0
M  V30 7403 N 675.492 1.28418 -0.913599 0
M  V30 7404 C 676.424 2.26368 -0.359169 0
M  V30 7405 C 677.437 1.54858 0.502285 0
M  V30 7406 O 678.626 1.75659 0.31719 0
M  V30 7407 C 675.726 3.35112 0.50526 0
M  V30 7408 C 674.899 4.36126 -0.333648 0
M  V30 7409 C 673.958 5.24134 0.465845 0
M  V30 7410 O 672.984 5.6907 -0.121538 0
M  V30 7411 N 674.186 5.52892 1.76891 0
M  V30 7412 H 676.951 2.74579 -1.2011 0
M  V30 7413 H 674.512 1.41898 -0.779532 0
M  V30 7414 H 676.504 3.90926 1.04684 0
M  V30 7415 H 675.074 2.86611 1.2479 0
M  V30 7416 H 674.294 3.79776 -1.0566 0
M  V30 7417 H 675.582 5.00638 -0.907669 0
M  V30 7418 H 674.98 5.18217 2.26865 0
M  V30 7419 H 673.537 6.11464 2.25732 0
M  V30 7420 N 676.97 0.677563 1.42291 0
M  V30 7421 C 678.216 0.201272 2.01799 0
M  V30 7422 C 678.549 -1.19004 1.53465 0
M  V30 7423 O 677.824 -1.79953 0.738039 0
M  V30 7424 C 678.107 0.238968 3.59306 0
M  V30 7425 C 677.96 1.66594 4.17812 0
M  V30 7426 C 679.279 -0.411287 4.38174 0
M  V30 7427 H 676.398 0.0746114 0.733214 0
M  V30 7428 H 679.04 0.862872 1.69276 0
M  V30 7429 H 677.19 -0.324368 3.87144 0
M  V30 7430 H 678.862 2.28173 4.00917 0
M  V30 7431 H 677.105 2.20576 3.73536 0
M  V30 7432 H 677.776 1.64398 5.26951 0
M  V30 7433 H 680.252 0.0682804 4.16044 0
M  V30 7434 H 679.128 -0.354286 5.47755 0
M  V30 7435 H 679.389 -1.4893 4.1626 0
M  V30 7436 N 678.448 -1.51871 0.421078 0
M  V30 7437 C 679.395 -2.27334 -0.398508 0
M  V30 7438 C 680.365 -1.30241 -1.03085 0
M  V30 7439 O 681.55 -1.59121 -1.05285 0
M  V30 7440 C 678.69 -3.10664 -1.50272 0
M  V30 7441 C 677.803 -4.2273 -0.890122 0
M  V30 7442 C 676.938 -4.93399 -1.96803 0
M  V30 7443 C 675.977 -5.97409 -1.333 0
M  V30 7444 N 675.114 -6.61548 -2.35156 0
M  V30 7445 H 679.954 -2.96938 0.251411 0
M  V30 7446 H 677.491 -1.46472 0.135825 0
M  V30 7447 H 679.449 -3.57292 -2.15403 0
M  V30 7448 H 678.079 -2.43207 -2.1225 0
M  V30 7449 H 677.131 -3.80186 -0.127537 0
M  V30 7450 H 678.443 -4.97302 -0.386349 0
M  V30 7451 H 677.597 -5.43491 -2.69633 0
M  V30 7452 H 676.336 -4.18421 -2.50549 0
M  V30 7453 H 675.341 -5.46624 -0.59008 0
M  V30 7454 H 676.566 -6.74335 -0.803076 0
M  V30 7455 H 674.512 -5.89394 -2.88012 0
M  V30 7456 H 674.429 -7.31832 -1.89624 0
M  V30 7457 H 675.697 -7.16276 -3.0752 0
M  V30 7458 N 679.926 -0.151884 -1.56866 0
M  V30 7459 C 681.154 0.504813 -2.00647 0
M  V30 7460 C 681.569 1.58098 -1.03201 0
M  V30 7461 O 680.926 1.82476 -0.0297814 0
M  V30 7462 C 680.977 1.10099 -3.44326 0
M  V30 7463 O 680.698 0.0678021 -4.38048 0
M  V30 7464 C 682.199 1.83782 -4.03409 0
M  V30 7465 H 679.419 0.130989 -0.65809 0
M  V30 7466 H 681.963 -0.247903 -2.02992 0
M  V30 7467 H 680.118 1.8043 -3.42817 0
M  V30 7468 H 680.532 0.505237 -5.22061 0
M  V30 7469 H 682.006 2.2078 -5.05925 0
M  V30 7470 H 682.483 2.72557 -3.44397 0
M  V30 7471 H 683.089 1.18138 -4.08563 0
M  V30 7472 N 681.404 1.57128 0.121893 0
M  V30 7473 C 682.334 2.03165 1.15092 0
M  V30 7474 C 683.315 0.915587 1.43356 0
M  V30 7475 O 684.5 1.1851 1.53847 0
M  V30 7476 C 681.63 2.43352 2.47784 0
M  V30 7477 C 680.584 3.58376 2.33989 0
M  V30 7478 C 679.91 3.84454 3.71617 0
M  V30 7479 C 681.21 4.90199 1.80283 0
M  V30 7480 H 682.904 2.89382 0.768023 0
M  V30 7481 H 680.45 1.39218 0.367998 0
M  V30 7482 H 682.403 2.74163 3.20019 0
M  V30 7483 H 681.127 1.54103 2.87958 0
M  V30 7484 H 679.786 3.2777 1.64202 0
M  V30 7485 H 679.434 2.92414 4.09271 0
M  V30 7486 H 679.134 4.61877 3.6324 0
M  V30 7487 H 680.658 4.17714 4.45362 0
M  V30 7488 H 682.072 5.19565 2.42333 0
M  V30 7489 H 680.469 5.71601 1.82735 0
M  V30 7490 H 681.539 4.78904 0.760184 0
M  V30 7491 N 682.882 -0.391992 1.52647 0
M  V30 7492 C 684.107 -1.16312 1.71716 0
M  V30 7493 C 684.532 -1.83042 0.433279 0
M  V30 7494 O 683.89 -1.70705 -0.610707 0
M  V30 7495 C 683.938 -2.18908 2.86551 0
M  V30 7496 O 683.042 -3.2543 2.53316 0
M  V30 7497 H 682.383 -0.338743 0.571095 0
M  V30 7498 H 684.913 -0.457202 1.99426 0
M  V30 7499 H 684.923 -2.62954 3.1196 0
M  V30 7500 H 683.598 -1.69726 3.79692 0
M  V30 7501 H 682.175 -2.86543 2.38637 0
M  V30 7502 N 684.36 -1.4356 -0.65026 0
M  V30 7503 C 685.29 -1.51758 -1.77459 0
M  V30 7504 C 686.271 -0.372019 -1.65982 0
M  V30 7505 O 687.456 -0.589627 -1.85033 0
M  V30 7506 C 684.586 -1.44302 -3.15902 0
M  V30 7507 C 683.54 -2.57138 -3.42146 0
M  V30 7508 C 682.866 -2.34735 -4.8042 0
M  V30 7509 C 684.166 -3.99373 -3.36598 0
M  V30 7510 H 685.86 -2.45863 -1.70855 0
M  V30 7511 H 683.406 -1.18333 -0.820566 0
M  V30 7512 H 685.359 -1.48641 -3.94314 0
M  V30 7513 H 684.083 -0.467026 -3.23244 0
M  V30 7514 H 682.742 -2.52157 -2.66106 0
M  V30 7515 H 682.39 -1.35372 -4.84441 0
M  V30 7516 H 682.09 -3.10375 -4.9894 0
M  V30 7517 H 683.614 -2.40862 -5.61086 0
M  V30 7518 H 685.028 -4.05826 -4.04942 0
M  V30 7519 H 683.425 -4.75063 -3.66654 0
M  V30 7520 H 684.495 -4.243 -2.34729 0
M  V30 7521 N 685.838 0.888903 -1.30139 0
M  V30 7522 C 687.249 1.45578 -1.16893 0
M  V30 7523 C 687.6 1.94825 0.231866 0
M  V30 7524 O 686.725 1.84661 1.12824 0
M  V30 7525 C 687.32 2.646 -2.11595 0
M  V30 7526 C 685.879 3.17389 -2.02339 0
M  V30 7527 C 685.026 1.90081 -2.01902 0
M  V30 7528 H 687.977 0.69921 -1.42467 0
M  V30 7529 H 687.998 3.40687 -1.69449 0
M  V30 7530 H 687.51 2.28726 -3.13538 0
M  V30 7531 H 685.611 3.5793 -1.03523 0
M  V30 7532 H 685.724 3.80955 -2.90534 0
M  V30 7533 H 684.088 2.08246 -1.46648 0
M  V30 7534 H 684.871 1.5647 -3.05568 0
M  V30 7535 N 687.317 1.12792 1.10072 0
M  V30 7536 C 688.563 0.886857 1.82381 0
M  V30 7537 C 688.896 -0.58576 1.85155 0
M  V30 7538 O 688.171 -1.43317 1.31493 0
M  V30 7539 C 688.454 1.46703 3.28862 0
M  V30 7540 C 688.307 3.00829 3.34398 0
M  V30 7541 C 689.626 1.12971 4.25353 0
M  V30 7542 H 686.745 0.32362 0.662148 0
M  V30 7543 H 689.387 1.39513 1.28982 0
M  V30 7544 H 687.537 1.03476 3.74466 0
M  V30 7545 H 689.209 3.52764 2.97247 0
M  V30 7546 H 687.452 3.36164 2.74183 0
M  V30 7547 H 688.123 3.36519 4.3756 0
M  V30 7548 H 690.599 1.50313 3.88001 0
M  V30 7549 H 689.475 1.56223 5.26199 0
M  V30 7550 H 689.736 0.0424452 4.4208 0
M  V30 7551 N 688.795 -1.27931 0.920396 0
M  V30 7552 C 690.041 -1.94977 0.557832 0
M  V30 7553 C 690.374 -1.72224 -0.897365 0
M  V30 7554 O 689.649 -1.04705 -1.63912 0
M  V30 7555 C 689.932 -3.49289 0.875741 0
M  V30 7556 C 689.785 -3.81416 2.38416 0
M  V30 7557 C 691.104 -4.38486 0.376517 0
M  V30 7558 H 688.223 -0.708164 0.20414 0
M  V30 7559 H 690.865 -1.5118 1.15085 0
M  V30 7560 H 689.015 -3.86724 0.371062 0
M  V30 7561 H 690.687 -3.53813 2.95997 0
M  V30 7562 H 688.93 -3.28225 2.83639 0
M  V30 7563 H 689.601 -4.89198 2.55713 0
M  V30 7564 H 692.077 -4.08161 0.808945 0
M  V30 7565 H 690.953 -5.45296 0.627976 0
M  V30 7566 H 691.214 -4.36143 -0.723293 0
M  V30 7567 N 690.273 -0.685099 -1.4193 0
M  V30 7568 C 691.519 -0.211971 -2.01689 0
M  V30 7569 C 691.852 1.18189 -1.54094 0
M  V30 7570 O 691.127 1.79559 -0.747572 0
M  V30 7571 C 691.41 -0.258019 -3.59174 0
M  V30 7572 C 691.263 -1.68807 -4.16922 0
M  V30 7573 C 692.582 0.388044 -4.38386 0
M  V30 7574 H 689.701 -0.0784987 -0.732808 0
M  V30 7575 H 692.343 -0.871837 -1.68816 0
M  V30 7576 H 690.493 0.303832 -3.8731 0
M  V30 7577 H 692.165 -2.30296 -3.99702 0
M  V30 7578 H 690.408 -2.22553 -3.72361 0
M  V30 7579 H 691.079 -1.6719 -5.26072 0
M  V30 7580 H 693.555 -0.0903432 -4.16002 0
M  V30 7581 H 692.431 0.325232 -5.47936 0
M  V30 7582 H 692.692 1.4672 -4.17044 0
M  V30 7583 N 691.751 1.51645 -0.429126 0
M  V30 7584 C 693 2.01203 0.141538 0
M  V30 7585 C 693.313 1.31828 1.44502 0
M  V30 7586 O 694.519 1.7231 2.09813 0
M  V30 7587 C 692.975 3.58624 0.302786 0
M  V30 7588 C 692.583 4.3693 -0.989775 0
M  V30 7589 C 694.327 4.16353 0.827661 0
M  V30 7590 C 692.234 5.86037 -0.794619 0
M  V30 7591 H 691.164 0.751867 0.05667 0
M  V30 7592 H 693.815 1.74822 -0.557633 0
M  V30 7593 H 692.197 3.81417 1.06476 0
M  V30 7594 H 693.371 4.25887 -1.75945 0
M  V30 7595 H 691.686 3.90614 -1.44256 0
M  V30 7596 H 694.283 5.25455 0.990026 0
M  V30 7597 H 694.626 3.74995 1.80787 0
M  V30 7598 H 695.159 3.97606 0.124213 0
M  V30 7599 H 691.898 6.31792 -1.74697 0
M  V30 7600 H 691.418 5.99765 -0.0645968 0
M  V30 7601 H 693.097 6.45471 -0.444591 0
M  V30 7602 N 693.229 0.160201 1.56784 0
M  V30 7603 C 694.475 -0.48831 1.96833 0
M  V30 7604 C 694.808 -1.63641 1.04571 0
M  V30 7605 O 694.083 -1.94289 0.0906481 0
M  V30 7606 C 694.366 -0.981908 3.46454 0
M  V30 7607 C 694.219 0.165607 4.49495 0
M  V30 7608 C 695.538 -1.85931 3.98896 0
M  V30 7609 H 692.657 -0.176027 0.71567 0
M  V30 7610 H 695.299 0.244093 1.88426 0
M  V30 7611 H 693.449 -1.60602 3.5375 0
M  V30 7612 H 695.121 0.802372 4.54268 0
M  V30 7613 H 693.364 0.822789 4.25926 0
M  V30 7614 H 694.035 -0.221699 5.51555 0
M  V30 7615 H 696.511 -1.33327 3.94161 0
M  V30 7616 H 695.387 -2.17373 5.04024 0
M  V30 7617 H 695.648 -2.80106 3.42042 0
M  V30 7618 N 694.707 -1.5719 -0.113559 0
M  V30 7619 C 695.657 -1.97166 -1.14497 0
M  V30 7620 C 696.641 -0.847413 -1.36776 0
M  V30 7621 O 697.833 -1.11114 -1.37777 0
M  V30 7622 C 694.962 -2.38411 -2.47013 0
M  V30 7623 C 694.048 -3.5748 -2.28185 0
M  V30 7624 N 694.439 -4.72998 -1.79182 0
M  V30 7625 C 692.737 -3.63218 -2.58821 0
M  V30 7626 C 693.438 -5.55007 -1.74191 0
M  V30 7627 N 692.414 -4.9765 -2.18735 0
M  V30 7628 H 696.216 -2.83937 -0.758733 0
M  V30 7629 H 693.73 -1.59191 -0.321234 0
M  V30 7630 H 695.727 -2.65269 -3.21618 0
M  V30 7631 H 694.387 -1.53007 -2.8639 0
M  V30 7632 H 695.398 -4.96109 -1.48649 0
M  V30 7633 H 692.075 -2.88434 -3.01847 0
M  V30 7634 H 693.465 -6.57678 -1.37512 0
M  V30 7635 N 696.185 0.383891 -1.52853 0
M  V30 7636 C 697.433 1.12619 -1.67814 0
M  V30 7637 C 697.754 1.90354 -0.423141 0
M  V30 7638 O 697.024 1.87649 0.562554 0
M  V30 7639 H 695.604 0.418738 -0.618601 0
M  V30 7640 H 698.266 0.43495 -1.89985 0
M  V30 7641 H 697.362 1.82624 -2.5309 0
M  V30 7642 N 697.663 1.43903 0.642637 0
M  V30 7643 C 698.888 1.49758 1.43483 0
M  V30 7644 C 699.313 0.119911 1.87717 0
M  V30 7645 O 698.671 -0.888558 1.58033 0
M  V30 7646 C 698.719 2.45744 2.63898 0
M  V30 7647 O 697.823 1.95101 3.63331 0
M  V30 7648 H 697.164 0.506138 0.429791 0
M  V30 7649 H 699.694 1.88923 0.785438 0
M  V30 7650 H 699.704 2.63399 3.11584 0
M  V30 7651 H 698.379 3.45818 2.31046 0
M  V30 7652 H 696.956 1.87158 3.22531 0
M  V30 7653 N 699.141 -0.881989 1.30609 0
M  V30 7654 C 700.073 -1.99375 1.13058 0
M  V30 7655 C 701.086 -1.62636 0.0729879 0
M  V30 7656 O 702.275 -1.75621 0.319301 0
M  V30 7657 C 699.375 -3.31536 0.702651 0
M  V30 7658 C 698.548 -3.96693 1.84265 0
M  V30 7659 C 697.607 -5.07158 1.40277 0
M  V30 7660 O 696.633 -5.28628 2.11048 0
M  V30 7661 N 697.835 -5.79808 0.283449 0
M  V30 7662 H 700.6 -2.14981 2.08814 0
M  V30 7663 H 698.161 -1.05526 1.22784 0
M  V30 7664 H 700.153 -4.02804 0.391331 0
M  V30 7665 H 698.723 -3.12175 -0.162954 0
M  V30 7666 H 697.943 -3.1856 2.32192 0
M  V30 7667 H 699.231 -4.36964 2.60653 0
M  V30 7668 H 698.629 -5.64871 -0.306189 0
M  V30 7669 H 697.186 -6.51792 0.0315985 0
M  V30 7670 N 700.619 -1.13374 -1.09472 0
M  V30 7671 C 701.896 -0.806329 -1.78207 0
M  V30 7672 C 702.276 0.702191 -1.99079 0
M  V30 7673 O 701.624 1.63931 -1.59182 0
M  V30 7674 C 701.834 -1.59271 -3.10538 0
M  V30 7675 C 703.182 -1.78509 -3.85253 0
M  V30 7676 O 704.206 -1.55866 -3.20288 0
M  V30 7677 O 703.065 -2.16287 -5.01879 0
M  V30 7678 H 700.159 -0.29435 -0.772843 0
M  V30 7679 H 702.705 -1.23833 -1.16033 0
M  V30 7680 H 701.477 -2.61792 -2.90828 0
M  V30 7681 H 701.1 -1.15562 -3.80436 0
M  V30 7682 N 702.098 1.27442 -0.927168 0
M  V30 7683 C 703.046 2.28844 -0.416333 0
M  V30 7684 C 704.04 1.61882 0.499057 0
M  V30 7685 O 705.246 1.75969 0.378817 0
M  V30 7686 H 701.621 0.742989 -0.116065 0
M  V30 7687 H 703.592 2.69344 -1.28438 0
M  V30 7688 C 702.341 3.4626 0.316107 0
M  V30 7689 H 701.664 3.97999 -0.379082 0
M  V30 7690 H 703.104 4.19173 0.637975 0
M  V30 7691 C 701.563 3.00211 1.5289 0
M  V30 7692 O 702.093 3.03837 2.62766 0
M  V30 7693 N 700.299 2.55713 1.38054 0
M  V30 7694 H 699.846 2.52962 0.4866 0
M  V30 7695 H 699.804 2.25264 2.19325 0
M  V30 7696 N 703.576 0.692616 1.41565 0
M  V30 7697 C 704.524 0.0139952 2.32596 0
M  V30 7698 C 705.518 -0.771691 1.50802 0
M  V30 7699 O 706.724 -0.677646 1.66757 0
M  V30 7700 H 703.099 -0.0142745 0.751865 0
M  V30 7701 H 705.07 0.798851 2.87508 0
M  V30 7702 C 703.819 -0.910602 3.35564 0
M  V30 7703 H 703.142 -0.315446 3.98554 0
M  V30 7704 H 704.582 -1.3538 4.01806 0
M  V30 7705 C 703.041 -2.02539 2.6922 0
M  V30 7706 O 703.571 -3.11386 2.53775 0
M  V30 7707 N 701.777 -1.80227 2.27962 0
M  V30 7708 H 701.324 -0.917054 2.40724 0
M  V30 7709 H 701.282 -2.55001 1.83907 0
M  V30 7710 N 705.054 -1.51416 0.437162 0
M  V30 7711 C 706.017 -2.26312 -0.362729 0
M  V30 7712 C 707.017 -1.29748 -0.949847 0
M  V30 7713 O 708.207 -1.53462 -0.824325 0
M  V30 7714 C 705.339 -3.05475 -1.5132 0
M  V30 7715 H 706.532 -2.98459 0.29365 0
M  V30 7716 H 704.085 -1.55137 0.190327 0
M  V30 7717 H 704.82 -2.37744 -2.20563 0
M  V30 7718 H 704.605 -3.76401 -1.09838 0
M  V30 7719 H 706.095 -3.62209 -2.07833 0
M  V30 7720 N 706.532 -0.168513 -1.56696 0
M  V30 7721 C 707.76 0.483503 -2.01171 0
M  V30 7722 C 708.175 1.56994 -1.04872 0
M  V30 7723 O 707.532 1.82434 -0.0491337 0
M  V30 7724 C 707.583 1.0644 -3.45475 0
M  V30 7725 O 707.304 0.0213375 -4.38095 0
M  V30 7726 C 708.805 1.79493 -4.05336 0
M  V30 7727 H 706.025 0.124002 -0.659443 0
M  V30 7728 H 708.569 -0.269419 -2.02717 0
M  V30 7729 H 706.724 1.76784 -3.44712 0
M  V30 7730 H 707.138 0.449837 -5.22567 0
M  V30 7731 H 708.612 2.15401 -5.08238 0
M  V30 7732 H 709.089 2.68889 -3.47269 0
M  V30 7733 H 709.695 1.13798 -4.09793 0
M  V30 7734 N 708.01 1.57248 0.105221 0
M  V30 7735 C 708.973 2.00388 1.11252 0
M  V30 7736 C 709.973 0.89594 1.33527 0
M  V30 7737 O 711.163 1.16166 1.29811 0
M  V30 7738 C 708.295 2.35589 2.46395 0
M  V30 7739 H 709.488 2.90591 0.741424 0
M  V30 7740 H 707.041 1.52332 0.349956 0
M  V30 7741 H 707.776 1.4831 2.884 0
M  V30 7742 H 707.561 3.16408 2.31578 0
M  V30 7743 H 709.051 2.69658 3.18864 0
M  V30 7744 N 709.488 -0.375779 1.53054 0
M  V30 7745 C 710.716 -1.14036 1.72637 0
M  V30 7746 C 711.131 -1.83342 0.450687 0
M  V30 7747 O 710.488 -1.7318 -0.575749 0
M  V30 7748 C 710.539 -2.17841 2.88492 0
M  V30 7749 O 710.26 -1.51358 4.11123 0
M  V30 7750 C 711.761 -3.06924 3.19863 0
M  V30 7751 H 708.981 -0.341386 0.577665 0
M  V30 7752 H 711.525 -0.437809 1.99759 0
M  V30 7753 H 709.68 -2.8371 2.63794 0
M  V30 7754 H 710.094 -2.20439 4.75928 0
M  V30 7755 H 711.568 -3.75763 4.04359 0
M  V30 7756 H 712.045 -3.71169 2.34798 0
M  V30 7757 H 712.651 -2.46684 3.46449 0
M  V30 7758 N 710.966 -1.44241 -0.634997 0
M  V30 7759 C 712.212 -1.47038 -1.39669 0
M  V30 7760 C 712.545 -0.101122 -1.93937 0
M  V30 7761 O 711.82 0.880699 -1.73418 0
M  V30 7762 C 712.103 -2.52763 -2.56482 0
M  V30 7763 C 711.956 -3.99032 -2.07589 0
M  V30 7764 C 713.275 -2.55031 -3.58674 0
M  V30 7765 H 710.394 -0.53537 -0.506506 0
M  V30 7766 H 713.036 -1.75898 -0.718317 0
M  V30 7767 H 711.186 -2.28284 -3.14354 0
M  V30 7768 H 712.858 -4.3463 -1.54577 0
M  V30 7769 H 711.101 -4.10994 -1.38804 0
M  V30 7770 H 711.772 -4.68649 -2.91671 0
M  V30 7771 H 714.248 -2.76893 -3.10595 0
M  V30 7772 H 713.124 -3.30916 -4.37934 0
M  V30 7773 H 713.385 -1.59085 -4.12486 0
M  V30 7774 N 712.444 0.87505 -1.31075 0
M  V30 7775 C 713.374 1.99775 -1.20881 0
M  V30 7776 C 714.355 1.69822 -0.0971612 0
M  V30 7777 O 715.54 1.92158 -0.280895 0
M  V30 7778 C 712.67 3.35163 -0.910118 0
M  V30 7779 C 711.624 3.79406 -1.98078 0
M  V30 7780 C 710.95 5.12197 -1.53488 0
M  V30 7781 C 712.25 3.97061 -3.39323 0
M  V30 7782 H 713.944 2.08562 -2.14808 0
M  V30 7783 H 711.49 1.00207 -1.03415 0
M  V30 7784 H 713.443 4.13237 -0.825423 0
M  V30 7785 H 712.167 3.26536 0.064822 0
M  V30 7786 H 710.826 3.03568 -2.05528 0
M  V30 7787 H 710.474 5.00007 -0.547941 0
M  V30 7788 H 710.174 5.4277 -2.2511 0
M  V30 7789 H 711.698 5.92785 -1.46417 0
M  V30 7790 H 713.112 4.65545 -3.34576 0
M  V30 7791 H 711.509 4.39025 -4.09118 0
M  V30 7792 H 712.579 3.00601 -3.80483 0
M  V30 7793 N 713.922 1.13953 1.08869 0
M  V30 7794 C 715.168 0.916103 1.81602 0
M  V30 7795 C 715.523 -0.551633 1.84322 0
M  V30 7796 O 714.816 -1.40322 1.30462 0
M  V30 7797 C 715.01 1.44495 3.26888 0
M  V30 7798 C 714.839 2.96257 3.38322 0
M  V30 7799 C 713.609 3.64658 3.49789 0
M  V30 7800 C 715.807 3.94156 3.30372 0
M  V30 7801 N 713.789 5.04379 3.49965 0
M  V30 7802 C 715.16 5.20101 3.37484 0
M  V30 7803 C 717.215 3.86342 3.14077 0
M  V30 7804 C 715.918 6.39145 3.29979 0
M  V30 7805 C 717.944 5.04927 3.07901 0
M  V30 7806 C 717.306 6.29738 3.1561 0
M  V30 7807 H 713.405 0.388701 0.678554 0
M  V30 7808 H 715.989 1.44879 1.3007 0
M  V30 7809 H 714.16 0.939102 3.76876 0
M  V30 7810 H 715.892 1.16193 3.87661 0
M  V30 7811 H 712.647 3.15196 3.5348 0
M  V30 7812 H 713.071 5.77305 3.53622 0
M  V30 7813 H 717.713 2.90726 3.06982 0
M  V30 7814 H 715.431 7.3501 3.35836 0
M  V30 7815 H 719.017 5.00626 2.9642 0
M  V30 7816 H 717.897 7.19958 3.10854 0
M  V30 7817 N 715.4 -1.26948 0.933913 0
M  V30 7818 C 716.677 -1.89212 0.495784 0
M  V30 7819 C 717.057 -1.84469 -1.02637 0
M  V30 7820 O 716.405 -1.29409 -1.88323 0
M  V30 7821 C 716.615 -3.32865 1.0489 0
M  V30 7822 C 717.963 -4.09749 1.11315 0
M  V30 7823 O 718.987 -3.41905 0.998966 0
M  V30 7824 O 717.846 -5.31061 1.28983 0
M  V30 7825 H 714.94 -0.811284 0.160459 0
M  V30 7826 H 717.486 -1.35171 1.02601 0
M  V30 7827 H 716.258 -3.30642 2.09265 0
M  V30 7828 H 715.881 -3.94435 0.500692 0
M  V30 7829 N 716.879 -0.700114 -1.41195 0
M  V30 7830 C 717.827 -0.0263301 -2.32585 0
M  V30 7831 C 718.821 0.763683 -1.51209 0
M  V30 7832 O 720.027 0.668793 -1.67114 0
M  V30 7833 H 716.402 0.0102869 -0.75193 0
M  V30 7834 H 718.373 -0.814087 -2.8708 0
M  V30 7835 C 717.122 0.892793 -3.36042 0
M  V30 7836 H 716.445 0.294306 -3.98715 0
M  V30 7837 H 717.885 1.33247 -4.02518 0
M  V30 7838 C 716.344 2.01109 -2.7029 0
M  V30 7839 O 716.874 3.10035 -2.55423 0
M  V30 7840 N 715.08 1.79015 -2.28915 0
M  V30 7841 H 714.627 0.904275 -2.41207 0
M  V30 7842 H 714.585 2.54022 -1.85257 0
M  V30 7843 N 718.357 1.51182 -0.445186 0
M  V30 7844 C 719.32 2.26501 0.350722 0
M  V30 7845 C 720.32 1.3025 0.942952 0
M  V30 7846 O 721.51 1.53897 0.816175 0
M  V30 7847 C 718.642 3.06274 1.49697 0
M  V30 7848 H 719.835 2.98299 -0.309474 0
M  V30 7849 H 717.388 1.55034 -0.198551 0
M  V30 7850 H 718.123 2.38911 2.19299 0
M  V30 7851 H 717.908 3.76979 1.0784 0
M  V30 7852 H 719.398 3.63306 2.05909 0
M  V30 7853 N 719.835 0.176821 1.56605 0
M  V30 7854 C 721.082 -0.466715 1.97048 0
M  V30 7855 C 721.41 -1.6288 1.06302 0
M  V30 7856 O 720.665 -1.95453 0.0982571 0
M  V30 7857 C 720.964 -0.986208 3.43524 0
M  V30 7858 C 720.63 0.0605667 4.50859 0
M  V30 7859 C 719.292 0.348242 4.79938 0
M  V30 7860 C 721.644 0.770794 5.15469 0
M  V30 7861 C 718.972 1.35144 5.70923 0
M  V30 7862 C 721.324 1.76301 6.07537 0
M  V30 7863 C 719.988 2.05808 6.3498 0
M  V30 7864 H 719.258 -0.170783 0.721051 0
M  V30 7865 H 721.905 0.269942 1.89588 0
M  V30 7866 H 720.21 -1.80079 3.47964 0
M  V30 7867 H 721.907 -1.49323 3.72161 0
M  V30 7868 H 718.497 -0.173823 4.28247 0
M  V30 7869 H 722.681 0.56176 4.9311 0
M  V30 7870 H 717.937 1.58616 5.90467 0
M  V30 7871 H 722.111 2.31868 6.56666 0
M  V30 7872 H 719.738 2.8369 7.05283 0
M  V30 7873 N 721.313 -1.57302 -0.09688 0
M  V30 7874 C 722.276 -2.00976 -1.10188 0
M  V30 7875 C 723.276 -0.903009 -1.3305 0
M  V30 7876 O 724.466 -1.16853 -1.29194 0
M  V30 7877 C 721.598 -2.36893 -2.45142 0
M  V30 7878 H 722.791 -2.9098 -0.726003 0
M  V30 7879 H 720.344 -1.52515 -0.341872 0
M  V30 7880 H 721.079 -1.49837 -2.8761 0
M  V30 7881 H 720.864 -3.17632 -2.29897 0
M  V30 7882 H 722.354 -2.71345 -3.1743 0
M  V30 7883 N 722.791 0.367657 -1.53252 0
M  V30 7884 C 723.701 1.47415 -1.82499 0
M  V30 7885 C 724.717 1.58711 -0.713222 0
M  V30 7886 O 725.893 1.74644 -1.00306 0
M  V30 7887 C 722.958 2.82706 -2.00694 0
M  V30 7888 C 722.019 2.80955 -3.24596 0
M  V30 7889 C 721.252 4.09793 -3.41914 0
M  V30 7890 O 721.475 5.05852 -2.63572 0
M  V30 7891 O 720.409 4.15731 -4.3526 0
M  V30 7892 H 724.235 1.25624 -2.765 0
M  V30 7893 H 721.82 0.557559 -1.38606 0
M  V30 7894 H 723.702 3.62873 -2.14246 0
M  V30 7895 H 722.377 3.04479 -1.09883 0
M  V30 7896 H 721.284 1.99494 -3.16469 0
M  V30 7897 H 722.617 2.64136 -4.15323 0
M  V30 7898 N 724.269 1.44576 0.627338 0
M  V30 7899 C 725.68 1.42266 1.20902 0
M  V30 7900 C 726.031 0.139964 1.957 0
M  V30 7901 O 725.156 -0.759489 2.02634 0
M  V30 7902 C 725.751 2.57727 2.19914 0
M  V30 7903 C 724.31 2.58599 2.73502 0
M  V30 7904 C 723.457 2.34145 1.48564 0
M  V30 7905 H 726.408 1.53102 0.417791 0
M  V30 7906 H 726.429 2.30697 3.02588 0
M  V30 7907 H 725.941 3.51068 1.65447 0
M  V30 7908 H 724.042 1.6921 3.31962 0
M  V30 7909 H 724.155 3.57205 3.19282 0
M  V30 7910 H 722.519 1.83313 1.76829 0
M  V30 7911 H 723.302 3.29606 0.959935 0
M  V30 7912 N 725.747 -0.868086 1.31537 0
M  V30 7913 C 726.995 -1.61807 1.21091 0
M  V30 7914 C 727.316 -1.93631 -0.230623 0
M  V30 7915 O 726.586 -1.5846 -1.15183 0
M  V30 7916 H 725.166 -0.599854 0.445178 0
M  V30 7917 H 727.828 -1.03915 1.64887 0
M  V30 7918 H 726.924 -2.56088 1.78396 0
M  V30 7919 N 727.225 -1.14528 -1.08264 0
M  V30 7920 C 728.641 -0.885976 -1.3275 0
M  V30 7921 C 728.841 0.472096 -1.95892 0
M  V30 7922 O 727.897 1.21606 -2.21288 0
M  V30 7923 C 729.21 -2.01982 -2.22764 0
M  V30 7924 C 730.758 -2.05329 -2.36239 0
M  V30 7925 C 731.233 -3.1801 -3.29596 0
M  V30 7926 N 732.724 -3.17598 -3.37173 0
M  V30 7927 C 733.459 -4.01426 -4.09444 0
M  V30 7928 N 732.955 -4.95297 -4.8441 0
M  V30 7929 N 734.748 -3.89482 -4.0529 0
M  V30 7930 H 726.899 -2.01996 -0.656607 0
M  V30 7931 H 729.162 -0.880274 -0.351884 0
M  V30 7932 H 728.868 -2.99964 -1.83615 0
M  V30 7933 H 728.742 -1.94421 -3.23234 0
M  V30 7934 H 731.129 -1.07953 -2.74646 0
M  V30 7935 H 731.21 -2.1696 -1.35506 0
M  V30 7936 H 730.854 -4.15633 -2.9191 0
M  V30 7937 H 730.784 -3.03616 -4.30261 0
M  V30 7938 H 733.275 -2.4961 -2.83731 0
M  V30 7939 H 733.588 -5.55723 -5.37021 0
M  V30 7940 H 731.933 -4.99293 -4.83457 0
M  V30 7941 H 735.124 -3.15465 -3.45832 0
M  V30 7942 H 735.297 -4.55039 -4.6135 0
M  V30 7943 N 728.703 1.26451 -0.940633 0
M  V30 7944 C 729.949 1.94065 -0.58878 0
M  V30 7945 C 730.282 1.7363 0.869853 0
M  V30 7946 O 729.557 1.073 1.62225 0
M  V30 7947 C 729.84 3.47852 -0.931199 0
M  V30 7948 C 729.693 3.77575 -2.44453 0
M  V30 7949 C 731.012 4.37832 -0.446229 0
M  V30 7950 H 728.131 0.704827 -0.21538 0
M  V30 7951 H 730.773 1.4933 -1.17475 0
M  V30 7952 H 728.923 3.86085 -0.432539 0
M  V30 7953 H 730.595 3.49059 -3.01588 0
M  V30 7954 H 728.838 3.23671 -2.88825 0
M  V30 7955 H 729.509 4.85068 -2.63464 0
M  V30 7956 H 731.985 4.06822 -0.873778 0
M  V30 7957 H 730.861 5.44228 -0.714648 0
M  V30 7958 H 731.122 4.37239 0.653815 0
M  V30 7959 N 730.181 0.707592 1.40822 0
M  V30 7960 C 731.592 0.317011 1.83989 0
M  V30 7961 C 731.943 -1.14697 1.59182 0
M  V30 7962 O 731.068 -1.8818 1.06852 0
M  V30 7963 C 731.663 0.568593 3.33995 0
M  V30 7964 C 730.222 0.231804 3.75686 0
M  V30 7965 C 729.369 0.844933 2.64114 0
M  V30 7966 H 732.32 0.907349 1.30203 0
M  V30 7967 H 732.341 -0.168798 3.80125 0
M  V30 7968 H 731.853 1.63417 3.52018 0
M  V30 7969 H 729.954 -0.82903 3.6326 0
M  V30 7970 H 730.067 0.695219 4.74029 0
M  V30 7971 H 728.431 0.273588 2.53226 0
M  V30 7972 H 729.214 1.91462 2.84951 0
M  V30 7973 N 731.66 -1.50943 0.453197 0
M  V30 7974 C 732.907 -2.02212 -0.107922 0
M  V30 7975 C 733.235 -1.33639 -1.41318 0
M  V30 7976 O 732.49 -0.445154 -1.9057 0
M  V30 7977 C 732.789 -3.55603 -0.357944 0
M  V30 7978 C 732.455 -4.42556 0.863427 0
M  V30 7979 C 731.117 -4.6604 1.19834 0
M  V30 7980 C 733.469 -4.93468 1.67747 0
M  V30 7981 C 730.797 -5.37681 2.34768 0
M  V30 7982 C 733.149 -5.6637 2.81793 0
M  V30 7983 C 731.813 -5.88113 3.1572 0
M  V30 7984 H 731.083 -0.739947 -0.0394916 0
M  V30 7985 H 733.73 -1.81738 0.60363 0
M  V30 7986 H 732.035 -3.74495 -1.15156 0
M  V30 7987 H 733.732 -3.92821 -0.805781 0
M  V30 7988 H 730.322 -4.24485 0.592478 0
M  V30 7989 H 734.506 -4.75194 1.43192 0
M  V30 7990 H 729.762 -5.52727 2.61348 0
M  V30 7991 H 733.936 -6.04806 3.45229 0
M  V30 7992 H 731.563 -6.43404 4.04889 0
M  V30 7993 N 733.138 -0.185124 -1.56509 0
M  V30 7994 C 734.101 0.72591 -2.17401 0
M  V30 7995 C 735.101 1.14819 -1.12575 0
M  V30 7996 O 736.291 1.0629 -1.38015 0
M  V30 7997 C 733.423 1.98979 -2.76803 0
M  V30 7998 H 734.616 0.195588 -2.99262 0
M  V30 7999 H 732.169 0.0644772 -1.56167 0
M  V30 8000 H 732.904 2.56287 -1.98714 0
M  V30 8001 H 732.689 1.69583 -3.53531 0
M  V30 8002 H 734.179 2.63966 -3.23592 0
M  V30 8003 N 734.616 1.57351 0.0885366 0
M  V30 8004 C 735.862 1.86696 0.791996 0
M  V30 8005 C 736.195 0.775148 1.78059 0
M  V30 8006 O 735.47 -0.216247 1.93294 0
M  V30 8007 C 735.753 3.26684 1.51491 0
M  V30 8008 C 735.606 4.465 0.543858 0
M  V30 8009 C 736.925 3.64664 2.46391 0
M  V30 8010 H 734.044 0.679049 0.286463 0
M  V30 8011 H 736.686 1.89919 0.0554866 0
M  V30 8012 H 734.836 3.24067 2.14273 0
M  V30 8013 H 736.508 4.61235 -0.0774597 0
M  V30 8014 H 734.751 4.33567 -0.142228 0
M  V30 8015 H 735.422 5.41192 1.08696 0
M  V30 8016 H 737.898 3.68267 1.93698 0
M  V30 8017 H 736.774 4.63534 2.93986 0
M  V30 8018 H 737.035 2.93698 3.30445 0
M  V30 8019 N 736.094 -0.359525 1.53444 0
M  V30 8020 C 737.505 -0.936009 1.61542 0
M  V30 8021 C 737.856 -1.90069 0.486633 0
M  V30 8022 O 736.981 -2.12929 -0.386047 0
M  V30 8023 C 737.576 -1.70441 2.92806 0
M  V30 8024 C 736.135 -2.23015 3.03218 0
M  V30 8025 C 735.282 -1.04438 2.56881 0
M  V30 8026 H 738.233 -0.138134 1.58098 0
M  V30 8027 H 738.254 -2.56609 2.80948 0
M  V30 8028 H 737.766 -1.00205 3.74941 0
M  V30 8029 H 735.867 -2.96475 2.25684 0
M  V30 8030 H 735.98 -2.50481 4.08407 0
M  V30 8031 H 734.344 -1.41314 2.11902 0
M  V30 8032 H 735.127 -0.356905 3.4144 0
M  V30 8033 N 737.572 -1.44907 -0.619662 0
M  V30 8034 C 738.849 -1.38766 -1.37852 0
M  V30 8035 C 739.229 -0.0521393 -2.11036 0
M  V30 8036 O 738.577 0.965613 -2.07095 0
M  V30 8037 C 738.787 -2.59344 -2.33541 0
M  V30 8038 C 740.135 -3.03909 -2.96521 0
M  V30 8039 O 741.159 -2.59631 -2.43865 0
M  V30 8040 O 740.018 -3.80713 -3.92071 0
M  V30 8041 H 737.112 -0.550083 -0.617525 0
M  V30 8042 H 739.658 -1.57015 -0.643759 0
M  V30 8043 H 738.43 -3.48142 -1.78642 0
M  V30 8044 H 738.053 -2.43367 -3.14417 0
M  V30 8045 N 739.05 0.861098 -1.31996 0
M  V30 8046 C 739.997 1.96912 -1.20392 0
M  V30 8047 C 740.967 1.65869 -0.0875899 0
M  V30 8048 O 742.152 1.88992 -0.262011 0
M  V30 8049 C 739.292 3.32435 -0.926335 0
M  V30 8050 C 738.405 3.76018 -2.12684 0
M  V30 8051 C 737.54 5.00301 -1.78529 0
M  V30 8052 C 736.579 5.36357 -2.94937 0
M  V30 8053 N 735.716 6.51818 -2.60917 0
M  V30 8054 H 740.556 2.06169 -2.1517 0
M  V30 8055 H 738.093 1.00917 -1.07024 0
M  V30 8056 H 740.051 4.10478 -0.745917 0
M  V30 8057 H 738.681 3.22796 -0.0153578 0
M  V30 8058 H 737.733 2.93683 -2.41774 0
M  V30 8059 H 739.045 3.98664 -2.99781 0
M  V30 8060 H 738.199 5.86034 -1.57001 0
M  V30 8061 H 736.938 4.79578 -0.886356 0
M  V30 8062 H 735.943 4.49139 -3.17103 0
M  V30 8063 H 737.168 5.59041 -3.85552 0
M  V30 8064 H 735.114 6.32624 -1.73558 0
M  V30 8065 H 735.031 6.7445 -3.41544 0
M  V30 8066 H 736.299 7.4072 -2.42804 0
M  V30 8067 N 740.528 1.15101 1.07655 0
M  V30 8068 C 741.774 0.925343 1.80458 0
M  V30 8069 C 742.107 -0.546354 1.86356 0
M  V30 8070 O 741.382 -1.40496 1.34503 0
M  V30 8071 C 741.665 1.53646 3.25676 0
M  V30 8072 C 741.518 3.07854 3.27942 0
M  V30 8073 C 742.837 1.21968 4.22861 0
M  V30 8074 H 739.956 0.337592 0.655134 0
M  V30 8075 H 742.598 1.42217 1.25993 0
M  V30 8076 H 740.748 1.11395 3.72187 0
M  V30 8077 H 742.42 3.58989 2.89697 0
M  V30 8078 H 740.663 3.41904 2.66991 0
M  V30 8079 H 741.334 3.45725 4.30324 0
M  V30 8080 H 743.81 1.5851 3.84726 0
M  V30 8081 H 742.686 1.67349 5.22767 0
M  V30 8082 H 742.947 0.136207 4.4189 0
M  V30 8083 N 742.006 -1.2595 0.947325 0
M  V30 8084 C 742.936 -2.28521 0.479604 0
M  V30 8085 C 743.917 -1.63469 -0.470293 0
M  V30 8086 O 745.102 -1.90627 -0.370824 0
M  V30 8087 C 742.232 -3.46397 -0.250289 0
M  V30 8088 C 741.186 -4.23578 0.613643 0
M  V30 8089 C 740.512 -5.34131 -0.246568 0
M  V30 8090 C 741.812 -4.86979 1.88809 0
M  V30 8091 H 743.506 -2.67895 1.33688 0
M  V30 8092 H 741.052 -1.28783 0.644274 0
M  V30 8093 H 743.005 -4.17269 -0.588576 0
M  V30 8094 H 741.729 -3.05993 -1.14175 0
M  V30 8095 H 740.388 -3.54478 0.93491 0
M  V30 8096 H 740.036 -4.89968 -1.13756 0
M  V30 8097 H 739.736 -5.86683 0.328123 0
M  V30 8098 H 741.26 -6.07839 -0.579986 0
M  V30 8099 H 742.674 -5.50034 1.61666 0
M  V30 8100 H 741.071 -5.49675 2.40784 0
M  V30 8101 H 742.141 -4.09575 2.5957 0
M  V30 8102 N 743.484 -0.715051 -1.40445 0
M  V30 8103 C 744.73 -0.263528 -2.01686 0
M  V30 8104 C 745.085 1.13052 -1.55683 0
M  V30 8105 O 744.378 1.75588 -0.766762 0
M  V30 8106 C 744.572 -0.281791 -3.56287 0
M  V30 8107 C 744.401 -1.67607 -4.17298 0
M  V30 8108 C 743.171 -2.2836 -4.50755 0
M  V30 8109 C 745.369 -2.62621 -4.42193 0
M  V30 8110 N 743.351 -3.6015 -4.97157 0
M  V30 8111 C 744.722 -3.79116 -4.90582 0
M  V30 8112 C 746.777 -2.60639 -4.24231 0
M  V30 8113 C 745.48 -4.93937 -5.22895 0
M  V30 8114 C 747.506 -3.74587 -4.57644 0
M  V30 8115 C 746.868 -4.89815 -5.06222 0
M  V30 8116 H 742.967 -0.142252 -0.768953 0
M  V30 8117 H 745.551 -0.936732 -1.70685 0
M  V30 8118 H 743.722 0.360975 -3.86719 0
M  V30 8119 H 745.454 0.186393 -4.04271 0
M  V30 8120 H 742.209 -1.80463 -4.3787 0
M  V30 8121 H 742.633 -4.27757 -5.24741 0
M  V30 8122 H 747.275 -1.72759 -3.85894 0
M  V30 8123 H 744.993 -5.82462 -5.60146 0
M  V30 8124 H 748.579 -3.74328 -4.45387 0
M  V30 8125 H 747.459 -5.76525 -5.3159 0
M  V30 8126 N 744.962 1.50701 -0.461195 0
M  V30 8127 C 746.373 1.867 -0.00370227 0
M  V30 8128 C 746.724 1.37673 1.39787 0
M  V30 8129 O 745.849 0.737515 2.03445 0
M  V30 8130 C 746.444 3.388 5.75786e-05 0
M  V30 8131 C 745.003 3.74247 0.402044 0
M  V30 8132 C 744.15 2.74549 -0.389652 0
M  V30 8133 H 747.101 1.43585 -0.675942 0
M  V30 8134 H 747.122 3.719 0.804414 0
M  V30 8135 H 746.634 3.74452 -1.02015 0
M  V30 8136 H 744.735 3.44192 1.42697 0
M  V30 8137 H 744.848 4.78973 0.110265 0
M  V30 8138 H 743.212 2.54226 0.155314 0
M  V30 8139 H 743.995 3.13044 -1.40919 0
M  V30 8140 N 746.441 0.193421 1.56409 0
M  V30 8141 C 747.373 -0.759944 2.16235 0
M  V30 8142 C 748.386 -1.17797 1.12373 0
M  V30 8143 O 749.575 -1.11399 1.39472 0
M  V30 8144 C 746.675 -2.03735 2.70823 0
M  V30 8145 C 745.848 -1.77939 3.9957 0
M  V30 8146 C 744.907 -2.90111 4.39001 0
M  V30 8147 O 743.933 -2.59791 5.06456 0
M  V30 8148 N 745.135 -4.18426 4.02368 0
M  V30 8149 H 747.9 -0.248348 2.98669 0
M  V30 8150 H 745.461 0.0113966 1.61896 0
M  V30 8151 H 747.453 -2.77914 2.94187 0
M  V30 8152 H 746.023 -2.46022 1.92852 0
M  V30 8153 H 745.243 -0.875491 3.84355 0
M  V30 8154 H 746.531 -1.58099 4.83614 0
M  V30 8155 H 745.929 -4.45913 3.48106 0
M  V30 8156 H 744.486 -4.89237 4.30686 0
M  V30 8157 N 747.919 -1.57396 -0.0801906 0
M  V30 8158 C 748.849 -2.06145 -1.09665 0
M  V30 8159 C 749.83 -0.953273 -1.40878 0
M  V30 8160 O 751.015 -1.22548 -1.50651 0
M  V30 8161 C 748.145 -2.49836 -2.41245 0
M  V30 8162 C 747.099 -3.64454 -2.24405 0
M  V30 8163 C 746.425 -3.94172 -3.61293 0
M  V30 8164 C 747.725 -4.94807 -1.67223 0
M  V30 8165 H 749.419 -2.91316 -0.691028 0
M  V30 8166 H 746.965 -1.40145 -0.330957 0
M  V30 8167 H 748.918 -2.82552 -3.12638 0
M  V30 8168 H 747.642 -1.61683 -2.83771 0
M  V30 8169 H 746.301 -3.32008 -1.55454 0
M  V30 8170 H 745.949 -3.03163 -4.01374 0
M  V30 8171 H 745.649 -4.71345 -3.50867 0
M  V30 8172 H 747.173 -4.29376 -4.3413 0
M  V30 8173 H 748.587 -5.25807 -2.28472 0
M  V30 8174 H 746.984 -5.76245 -1.67515 0
M  V30 8175 H 748.054 -4.80751 -0.632944 0
M  V30 8176 N 749.397 0.351382 -1.53633 0
M  V30 8177 C 750.637 1.10102 -1.72212 0
M  V30 8178 C 751.001 1.86128 -0.471198 0
M  V30 8179 O 752.202 2.63445 -0.533887 0
M  V30 8180 C 750.473 2.02348 -2.94602 0
M  V30 8181 S 752.032 2.84641 -3.33954 0
M  V30 8182 H 748.85 0.372145 -0.60583 0
M  V30 8183 H 751.452 0.38044 -1.91763 0
M  V30 8184 H 750.156 1.45283 -3.83824 0
M  V30 8185 H 749.687 2.78856 -2.77493 0
M  V30 8186 H 751.702 4.04724 -2.87076 0
M  V30 8187 N 750.875 1.45233 0.611969 0
M  V30 8188 C 751.785 1.56098 1.7513 0
M  V30 8189 C 752.801 0.445646 1.68196 0
M  V30 8190 O 753.977 0.705718 1.88631 0
M  V30 8191 C 751.042 1.52052 3.11579 0
M  V30 8192 C 750.103 2.74589 3.29999 0
M  V30 8193 C 749.336 2.70726 4.59938 0
M  V30 8194 O 749.559 1.77806 5.41979 0
M  V30 8195 O 748.493 3.61864 4.80976 0
M  V30 8196 H 752.319 2.52392 1.68914 0
M  V30 8197 H 749.904 1.27695 0.775528 0
M  V30 8198 H 751.786 1.52387 3.92882 0
M  V30 8199 H 750.461 0.589085 3.18295 0
M  V30 8200 H 749.368 2.79817 2.48301 0
M  V30 8201 H 750.701 3.66843 3.28157 0
M  V30 8202 N 752.353 -0.854086 1.3245 0
M  V30 8203 C 753.316 -1.94427 1.21371 0
M  V30 8204 C 754.316 -1.60219 0.136613 0
M  V30 8205 O 755.506 -1.69846 0.387057 0
M  V30 8206 C 752.638 -3.29698 0.866701 0
M  V30 8207 H 753.831 -2.05679 2.18257 0
M  V30 8208 H 751.384 -1.04434 1.1629 0
M  V30 8209 H 752.119 -3.24145 -0.100319 0
M  V30 8210 H 751.904 -3.55903 1.64545 0
M  V30 8211 H 753.394 -4.09599 0.813515 0
M  V30 8212 N 753.831 -1.1567 -1.07043 0
M  V30 8213 C 754.761 -0.879348 -2.16309 0
M  V30 8214 C 755.742 0.171311 -1.69235 0
M  V30 8215 O 756.927 0.0250175 -1.94184 0
M  V30 8216 C 754.057 -0.371307 -3.45309 0
M  V30 8217 C 753.011 -1.359 -4.05851 0
M  V30 8218 C 752.337 -0.709678 -5.29969 0
M  V30 8219 C 753.637 -2.72606 -4.45514 0
M  V30 8220 H 755.331 -1.79308 -2.39768 0
M  V30 8221 H 752.877 -0.863558 -1.15233 0
M  V30 8222 H 754.83 -0.164798 -4.21078 0
M  V30 8223 H 753.554 0.577906 -3.21446 0
M  V30 8224 H 752.213 -1.55193 -3.32131 0
M  V30 8225 H 751.861 0.245782 -5.02399 0
M  V30 8226 H 751.561 -1.36886 -5.71433 0
M  V30 8227 H 753.085 -0.513015 -6.08441 0
M  V30 8228 H 754.499 -2.57141 -5.12398 0
M  V30 8229 H 752.896 -3.34927 -4.97939 0
M  V30 8230 H 753.966 -3.28434 -3.56734 0
M  V30 8231 N 755.309 1.25446 -0.953992 0
M  V30 8232 C 756.257 2.27909 -0.46478 0
M  V30 8233 C 757.251 1.62904 0.464607 0
M  V30 8234 O 758.457 1.76733 0.341407 0
M  V30 8235 H 754.832 0.74036 -0.131798 0
M  V30 8236 H 756.803 2.66559 -1.34122 0
M  V30 8237 C 755.552 3.46853 0.242589 0
M  V30 8238 H 754.875 3.97105 -0.463418 0
M  V30 8239 H 756.315 4.20432 0.548919 0
M  V30 8240 C 754.774 3.03386 1.46487 0
M  V30 8241 O 755.304 3.09342 2.56262 0
M  V30 8242 N 753.51 2.58584 1.32599 0
M  V30 8243 H 753.057 2.53938 0.432834 0
M  V30 8244 H 753.015 2.29866 2.14497 0
M  V30 8245 N 756.787 0.722489 1.40064 0
M  V30 8246 C 757.72 0.0233443 2.28188 0
M  V30 8247 C 758.698 -0.7606 1.43714 0
M  V30 8248 O 759.882 -0.745791 1.73119 0
M  V30 8249 C 757.009 -0.974264 3.24385 0
M  V30 8250 C 756.055 -0.280307 4.25578 0
M  V30 8251 S 756.888 0.996769 5.26141 0
M  V30 8252 C 758.044 0.00143923 6.259 0
M  V30 8253 H 758.277 0.770705 2.87137 0
M  V30 8254 H 755.81 0.513783 1.45601 0
M  V30 8255 H 757.768 -1.5446 3.80332 0
M  V30 8256 H 756.429 -1.69438 2.6448 0
M  V30 8257 H 755.622 -1.03471 4.93264 0
M  V30 8258 H 755.224 0.217657 3.73366 0
M  V30 8259 H 757.516 -0.843126 6.72233 0
M  V30 8260 H 758.459 0.645104 7.05155 0
M  V30 8261 H 758.867 -0.365371 5.63316 0
M  V30 8262 N 758.265 -1.50454 0.469181 0
M  V30 8263 C 759.212 -2.28486 -0.325982 0
M  V30 8264 C 760.182 -1.33455 -0.988893 0
M  V30 8265 O 761.367 -1.6239 -1.0017 0
M  V30 8266 C 758.507 -3.15288 -1.40313 0
M  V30 8267 C 757.62 -4.25348 -0.755183 0
M  V30 8268 C 756.755 -4.9941 -1.81006 0
M  V30 8269 C 755.794 -6.01348 -1.14226 0
M  V30 8270 N 754.931 -6.68695 -2.1399 0
M  V30 8271 H 759.771 -2.95987 0.345753 0
M  V30 8272 H 757.308 -1.45965 0.182355 0
M  V30 8273 H 759.266 -3.63964 -2.03927 0
M  V30 8274 H 757.896 -2.49837 -2.04405 0
M  V30 8275 H 756.948 -3.80399 -0.00651901 0
M  V30 8276 H 758.26 -4.98279 -0.227941 0
M  V30 8277 H 757.414 -5.51794 -2.52206 0
M  V30 8278 H 756.153 -4.26181 -2.3711 0
M  V30 8279 H 755.158 -5.48225 -0.415876 0
M  V30 8280 H 756.383 -6.76548 -0.588135 0
M  V30 8281 H 754.329 -5.98258 -2.69115 0
M  V30 8282 H 754.246 -7.37495 -1.66246 0
M  V30 8283 H 755.514 -7.25697 -2.84576 0
M  V30 8284 N 759.743 -0.201713 -1.56304 0
M  V30 8285 C 760.99 0.435307 -1.97766 0
M  V30 8286 C 761.318 1.61169 -1.0888 0
M  V30 8287 O 760.573 1.95272 -0.12934 0
M  V30 8288 C 760.872 0.931432 -3.45049 0
M  V30 8289 C 760.538 -0.132287 -4.50706 0
M  V30 8290 C 759.2 -0.424552 -4.79323 0
M  V30 8291 C 761.552 -0.852703 -5.14177 0
M  V30 8292 C 758.88 -1.4421 -5.68701 0
M  V30 8293 C 761.232 -1.85944 -6.04655 0
M  V30 8294 C 759.896 -2.15884 -6.31625 0
M  V30 8295 H 759.166 0.15929 -0.723676 0
M  V30 8296 H 761.813 -0.300069 -1.89134 0
M  V30 8297 H 760.118 1.7452 -3.50785 0
M  V30 8298 H 761.815 1.43383 -3.74489 0
M  V30 8299 H 758.405 0.105671 -4.2847 0
M  V30 8300 H 762.589 -0.640139 -4.92154 0
M  V30 8301 H 757.845 -1.6799 -5.87869 0
M  V30 8302 H 762.019 -2.42286 -6.52894 0
M  V30 8303 H 759.646 -2.94875 -7.0068 0
M  V30 8304 N 761.222 1.57436 0.0718424 0
M  V30 8305 C 762.169 2.03686 1.08539 0
M  V30 8306 C 763.139 0.917474 1.38462 0
M  V30 8307 O 764.324 1.18513 1.4953 0
M  V30 8308 C 761.464 2.48566 2.39393 0
M  V30 8309 C 760.577 3.74122 2.16001 0
M  V30 8310 C 759.712 4.07786 3.40418 0
M  V30 8311 C 758.751 5.26383 3.1239 0
M  V30 8312 N 757.888 5.55685 4.29138 0
M  V30 8313 H 762.728 2.90043 0.684018 0
M  V30 8314 H 760.265 1.43438 0.326183 0
M  V30 8315 H 762.223 2.72639 3.15791 0
M  V30 8316 H 760.853 1.65186 2.77333 0
M  V30 8317 H 759.905 3.57389 1.30296 0
M  V30 8318 H 761.217 4.60659 1.91298 0
M  V30 8319 H 760.371 4.32759 4.25211 0
M  V30 8320 H 759.11 3.19817 3.68197 0
M  V30 8321 H 758.115 5.01206 2.25993 0
M  V30 8322 H 759.34 6.1597 2.85934 0
M  V30 8323 H 757.286 4.70675 4.56948 0
M  V30 8324 H 757.203 6.3664 4.07708 0
M  V30 8325 H 758.471 5.85209 5.14928 0
M  V30 8326 N 762.7 -0.34323 1.53817 0
M  V30 8327 C 763.663 -1.40444 1.8113 0
M  V30 8328 C 764.663 -1.45604 0.682366 0
M  V30 8329 O 765.853 -1.45974 0.950649 0
M  V30 8330 C 762.985 -2.79369 1.95361 0
M  V30 8331 H 764.178 -1.17489 2.75928 0
M  V30 8332 H 761.731 -0.577636 1.45234 0
M  V30 8333 H 762.466 -3.07607 1.02707 0
M  V30 8334 H 762.251 -2.7702 2.77493 0
M  V30 8335 H 763.741 -3.56178 2.18008 0
M  V30 8336 N 764.178 -1.45556 -0.604258 0
M  V30 8337 C 765.088 -1.57025 -1.74299 0
M  V30 8338 C 766.104 -0.45456 -1.67958 0
M  V30 8339 O 767.28 -0.715711 -1.88254 0
M  V30 8340 C 764.345 -1.53702 -3.10768 0
M  V30 8341 C 763.406 -2.76335 -3.28538 0
M  V30 8342 C 762.639 -2.73161 -4.58496 0
M  V30 8343 O 762.862 -1.80678 -5.41028 0
M  V30 8344 O 761.796 -3.64409 -4.79051 0
M  V30 8345 H 765.622 -2.53284 -1.67573 0
M  V30 8346 H 763.207 -1.28104 -0.768745 0
M  V30 8347 H 765.089 -1.54468 -3.92068 0
M  V30 8348 H 763.764 -0.605957 -3.17978 0
M  V30 8349 H 762.671 -2.8113 -2.46813 0
M  V30 8350 H 764.004 -3.68578 -3.26207 0
M  V30 8351 N 765.656 0.84705 -1.32902 0
M  V30 8352 C 766.902 1.60414 -1.24078 0
M  V30 8353 C 767.235 1.93217 0.195105 0
M  V30 8354 O 766.51 1.58001 1.13428 0
M  V30 8355 C 766.793 2.91951 -2.108 0
M  V30 8356 C 766.646 2.6588 -3.62805 0
M  V30 8357 C 767.965 3.93299 -1.97494 0
M  V30 8358 H 765.084 0.58206 -0.452079 0
M  V30 8359 H 767.726 0.977562 -1.62922 0
M  V30 8360 H 765.876 3.45425 -1.77802 0
M  V30 8361 H 767.548 2.18902 -4.06054 0
M  V30 8362 H 765.791 1.99716 -3.85092 0
M  V30 8363 H 766.462 3.59574 -4.1882 0
M  V30 8364 H 768.938 3.49105 -2.26417 0
M  V30 8365 H 767.814 4.8318 -2.60438 0
M  V30 8366 H 768.075 4.31887 -0.944782 0
M  V30 8367 N 767.134 1.16236 1.06428 0
M  V30 8368 C 768.066 0.825446 2.1382 0
M  V30 8369 C 769.079 -0.166707 1.61944 0
M  V30 8370 O 770.268 0.0578606 1.78406 0
M  V30 8371 C 767.368 0.208023 3.38261 0
M  V30 8372 C 766.541 1.23994 4.19457 0
M  V30 8373 C 765.6 0.642569 5.22262 0
M  V30 8374 O 764.626 1.31106 5.53895 0
M  V30 8375 N 765.828 -0.571327 5.77682 0
M  V30 8376 H 768.593 1.7497 2.43322 0
M  V30 8377 H 766.154 1.05951 1.22417 0
M  V30 8378 H 768.146 -0.204608 4.04182 0
M  V30 8379 H 766.716 -0.619752 3.06395 0
M  V30 8380 H 765.936 1.82879 3.49212 0
M  V30 8381 H 767.224 1.93638 4.70512 0
M  V30 8382 H 766.622 -1.13263 5.54245 0
M  V30 8383 H 765.179 -0.926187 6.45186 0
M  V30 8384 N 768.612 -1.24939 0.960631 0
M  V30 8385 C 769.837 -1.9742 0.635608 0
M  V30 8386 C 770.262 -1.70857 -0.786737 0
M  V30 8387 O 769.62 -0.968063 -1.53291 0
M  V30 8388 C 769.668 -3.48987 0.907771 0
M  V30 8389 O 768.772 -4.12399 -0.0104053 0
M  V30 8390 H 768.113 -0.61871 0.241027 0
M  V30 8391 H 770.643 -1.58901 1.28886 0
M  V30 8392 H 770.653 -3.99334 0.836453 0
M  V30 8393 H 769.328 -3.6765 1.94439 0
M  V30 8394 H 767.905 -3.72727 0.113631 0
M  V30 8395 N 770.09 -0.729906 -1.39679 0
M  V30 8396 C 771.038 -0.0756589 -2.32477 0
M  V30 8397 C 772.032 0.731438 -1.52795 0
M  V30 8398 O 773.238 0.633195 -1.68495 0
M  V30 8399 H 769.613 -0.00566492 -0.751979 0
M  V30 8400 H 771.584 -0.874797 -2.85289 0
M  V30 8401 C 770.333 0.821313 -3.37861 0
M  V30 8402 H 769.656 0.209666 -3.9925 0
M  V30 8403 H 771.096 1.24679 -4.05254 0
M  V30 8404 C 769.555 1.9533 -2.74495 0
M  V30 8405 O 770.085 3.04548 -2.61942 0
M  V30 8406 N 768.291 1.74119 -2.3266 0
M  V30 8407 H 767.838 0.852908 -2.4307 0
M  V30 8408 H 767.796 2.50036 -1.90603 0
M  V30 8409 N 771.568 1.50203 -0.477153 0
M  V30 8410 C 772.984 1.59056 -0.131663 0
M  V30 8411 C 773.184 1.48473 1.36227 0
M  V30 8412 O 772.24 1.34635 2.13611 0
M  V30 8413 C 773.553 2.92741 -0.687254 0
M  V30 8414 C 775.101 3.0615 -0.651223 0
M  V30 8415 C 775.576 4.42419 -1.18446 0
M  V30 8416 N 777.067 4.48847 -1.14413 0
M  V30 8417 C 777.802 5.52689 -1.52717 0
M  V30 8418 N 777.298 6.63754 -1.98499 0
M  V30 8419 N 779.091 5.43267 -1.44282 0
M  V30 8420 H 771.242 1.55325 -1.44872 0
M  V30 8421 H 773.505 0.734395 -0.599473 0
M  V30 8422 H 773.211 3.0598 -1.73405 0
M  V30 8423 H 773.085 3.76961 -0.134215 0
M  V30 8424 H 775.472 2.92556 0.386677 0
M  V30 8425 H 775.553 2.23673 -1.24114 0
M  V30 8426 H 775.197 4.56763 -2.22103 0
M  V30 8427 H 775.127 5.23498 -0.570709 0
M  V30 8428 H 777.618 3.69152 -0.808416 0
M  V30 8429 H 777.931 7.39059 -2.25859 0
M  V30 8430 H 776.276 6.64858 -2.02456 0
M  V30 8431 H 779.467 4.55387 -1.08352 0
M  V30 8432 H 779.64 6.24074 -1.74459 0
M  V30 8433 N 773.046 0.209999 1.56195 0
M  V30 8434 C 774.294 -0.423974 1.97603 0
M  V30 8435 C 774.615 -1.61112 1.09854 0
M  V30 8436 O 773.885 -1.95134 0.173032 0
M  V30 8437 H 772.465 -0.159629 0.729745 0
M  V30 8438 H 775.127 0.300205 1.92574 0
M  V30 8439 H 774.223 -0.75809 3.02753 0
M  V30 8440 N 774.524 -1.57472 -0.0634922 0
M  V30 8441 C 775.454 -2.07297 -1.07473 0
M  V30 8442 C 776.435 -0.968162 -1.39859 0
M  V30 8443 O 777.62 -1.24139 -1.49343 0
M  V30 8444 C 774.75 -2.52381 -2.38581 0
M  V30 8445 C 773.704 -3.66813 -2.20526 0
M  V30 8446 C 773.03 -3.97982 -3.57092 0
M  V30 8447 C 774.33 -4.96553 -1.61965 0
M  V30 8448 H 776.024 -2.92033 -0.660092 0
M  V30 8449 H 773.57 -1.40488 -0.316074 0
M  V30 8450 H 775.523 -2.85852 -3.09624 0
M  V30 8451 H 774.247 -1.64684 -2.8204 0
M  V30 8452 H 772.906 -3.33639 -1.51924 0
M  V30 8453 H 772.554 -3.07403 -3.98136 0
M  V30 8454 H 772.254 -4.7504 -3.45848 0
M  V30 8455 H 773.778 -4.33956 -4.29552 0
M  V30 8456 H 775.192 -5.28201 -2.22883 0
M  V30 8457 H 773.589 -5.7799 -1.61394 0
M  V30 8458 H 774.659 -4.81396 -0.581918 0
M  V30 8459 N 776.003 0.335068 -1.53997 0
M  V30 8460 C 777.231 1.09418 -1.756 0
M  V30 8461 C 777.646 1.82083 -0.499138 0
M  V30 8462 O 777.003 1.74646 0.529631 0
M  V30 8463 C 777.054 2.10115 -2.94166 0
M  V30 8464 O 776.775 1.40404 -4.14992 0
M  V30 8465 C 778.276 2.98336 -3.27888 0
M  V30 8466 H 775.496 0.32595 -0.586513 0
M  V30 8467 H 778.04 0.384693 -2.00849 0
M  V30 8468 H 776.195 2.76616 -2.71224 0
M  V30 8469 H 776.609 2.07743 -4.81605 0
M  V30 8470 H 778.083 3.6491 -4.1418 0
M  V30 8471 H 778.56 3.64814 -2.44556 0
M  V30 8472 H 779.166 2.37412 -3.52868 0
M  V30 8473 N 777.481 1.45874 0.596531 0
M  V30 8474 C 778.428 1.55389 1.70655 0
M  V30 8475 C 779.398 0.399036 1.61236 0
M  V30 8476 O 780.583 0.61396 1.80652 0
M  V30 8477 C 777.723 1.53705 3.0898 0
M  V30 8478 C 776.836 2.79823 3.29125 0
M  V30 8479 C 775.971 2.69735 4.5762 0
M  V30 8480 C 775.01 3.90856 4.71061 0
M  V30 8481 N 774.147 3.79237 5.90867 0
M  V30 8482 H 778.987 2.50211 1.61859 0
M  V30 8483 H 776.524 1.24146 0.789069 0
M  V30 8484 H 778.482 1.50715 3.89026 0
M  V30 8485 H 777.112 0.624247 3.16706 0
M  V30 8486 H 776.164 2.92852 2.42779 0
M  V30 8487 H 777.476 3.69628 3.34927 0
M  V30 8488 H 776.63 2.64773 5.45875 0
M  V30 8489 H 775.369 1.77547 4.54234 0
M  V30 8490 H 774.374 3.96164 3.81227 0
M  V30 8491 H 775.599 4.84124 4.76236 0
M  V30 8492 H 773.545 2.89825 5.88504 0
M  V30 8493 H 773.462 4.62686 5.97877 0
M  V30 8494 H 774.73 3.78227 6.8159 0
M  V30 8495 N 778.959 -0.83999 1.33349 0
M  V30 8496 C 779.869 -1.98182 1.25543 0
M  V30 8497 C 780.885 -1.73204 0.166208 0
M  V30 8498 O 782.061 -1.97596 0.389589 0
M  V30 8499 C 779.126 -3.32157 0.993614 0
M  V30 8500 C 778.187 -3.70258 2.17273 0
M  V30 8501 C 777.42 -4.9784 1.92331 0
M  V30 8502 O 777.643 -5.63679 0.873074 0
M  V30 8503 O 776.577 -5.33418 2.78835 0
M  V30 8504 H 780.403 -2.07708 2.21565 0
M  V30 8505 H 777.988 -0.972852 1.13384 0
M  V30 8506 H 779.87 -4.12433 0.864711 0
M  V30 8507 H 778.545 -3.23637 0.0636596 0
M  V30 8508 H 777.452 -2.90497 2.35716 0
M  V30 8509 H 778.785 -3.83442 3.08598 0
M  V30 8510 N 780.437 -1.16799 -1.0581 0
M  V30 8511 C 781.385 -0.875111 -2.1551 0
M  V30 8512 C 782.379 0.157781 -1.68664 0
M  V30 8513 O 783.585 0.011297 -1.79996 0
M  V30 8514 H 779.96 -0.26542 -0.703602 0
M  V30 8515 H 781.931 -1.8076 -2.37421 0
M  V30 8516 C 780.68 -0.39802 -3.45414 0
M  V30 8517 H 780.003 -1.18425 -3.81858 0
M  V30 8518 H 781.443 -0.231913 -4.23365 0
M  V30 8519 C 779.902 0.88327 -3.25115 0
M  V30 8520 O 780.432 1.95145 -3.51114 0
M  V30 8521 N 778.638 0.828961 -2.78526 0
M  V30 8522 H 778.185 -0.0405029 -2.57568 0
M  V30 8523 H 778.143 1.68673 -2.65324 0
M  V30 8524 N 781.915 1.24427 -0.967243 0
M  V30 8525 C 782.845 2.2773 -0.515899 0
M  V30 8526 C 783.826 1.64197 0.444227 0
M  V30 8527 O 785.011 1.91193 0.340451 0
M  V30 8528 C 782.141 3.46751 0.195149 0
M  V30 8529 C 781.095 4.22548 -0.680953 0
M  V30 8530 C 780.421 5.34456 0.161561 0
M  V30 8531 C 781.721 4.83914 -1.96532 0
M  V30 8532 H 783.415 2.65735 -1.37933 0
M  V30 8533 H 780.961 1.27742 -0.664681 0
M  V30 8534 H 782.914 4.18153 0.522117 0
M  V30 8535 H 781.638 3.07771 1.09292 0
M  V30 8536 H 780.297 3.52946 -0.991186 0
M  V30 8537 H 779.945 4.91716 1.05947 0
M  V30 8538 H 779.645 5.86087 -0.421418 0
M  V30 8539 H 781.169 6.08685 0.483211 0
M  V30 8540 H 782.583 5.47392 -1.70396 0
M  V30 8541 H 780.98 5.45775 -2.49499 0
M  V30 8542 H 782.05 4.05393 -2.66053 0
M  V30 8543 N 783.393 0.737304 1.3929 0
M  V30 8544 C 784.639 0.286681 2.00763 0
M  V30 8545 C 784.972 -1.12388 1.58375 0
M  V30 8546 O 784.247 -1.76661 0.813699 0
M  V30 8547 C 784.53 0.391147 3.57969 0
M  V30 8548 C 784.383 1.84165 4.1037 0
M  V30 8549 C 785.702 -0.225072 4.39524 0
M  V30 8550 H 782.821 0.105642 0.729389 0
M  V30 8551 H 785.463 0.933892 1.65464 0
M  V30 8552 H 783.613 -0.159875 3.88171 0
M  V30 8553 H 785.285 2.44972 3.90879 0
M  V30 8554 H 783.528 2.3622 3.63844 0
M  V30 8555 H 784.199 1.866 5.19504 0
M  V30 8556 H 786.675 0.244677 4.1538 0
M  V30 8557 H 785.551 -0.121646 5.48765 0
M  V30 8558 H 785.812 -1.31141 4.22202 0
M  V30 8559 N 784.871 -1.49948 0.485112 0
M  V30 8560 C 786.118 -2.02396 -0.0650059 0
M  V30 8561 C 786.446 -1.36606 -1.38452 0
M  V30 8562 O 785.701 -0.485476 -1.89583 0
M  V30 8563 C 786 -3.56282 -0.282434 0
M  V30 8564 C 785.666 -4.40625 0.957106 0
M  V30 8565 C 784.328 -4.63393 1.29692 0
M  V30 8566 C 786.68 -4.89799 1.78176 0
M  V30 8567 C 784.008 -5.3258 2.4612 0
M  V30 8568 C 786.36 -5.60266 2.93743 0
M  V30 8569 C 785.024 -5.81284 3.28124 0
M  V30 8570 H 784.294 -0.740618 -0.0237873 0
M  V30 8571 H 786.941 -1.80416 0.642044 0
M  V30 8572 H 785.246 -3.76853 -1.07186 0
M  V30 8573 H 786.943 -3.94442 -0.722276 0
M  V30 8574 H 783.533 -4.23133 0.682384 0
M  V30 8575 H 787.717 -4.7205 1.53239 0
M  V30 8576 H 782.973 -5.47059 2.73014 0
M  V30 8577 H 787.147 -5.97347 3.5798 0
M  V30 8578 H 784.774 -6.34671 4.18446 0
M  V30 8579 N 786.349 -0.21828 -1.56081 0
M  V30 8580 C 787.279 0.687922 -2.23136 0
M  V30 8581 C 788.26 1.20357 -1.202 0
M  V30 8582 O 789.445 1.24817 -1.48776 0
M  V30 8583 C 786.575 1.89762 -2.90874 0
M  V30 8584 C 785.529 1.51595 -4.00254 0
M  V30 8585 C 784.855 2.80415 -4.55271 0
M  V30 8586 C 786.155 0.708404 -5.17474 0
M  V30 8587 H 787.849 0.128854 -2.99123 0
M  V30 8588 H 785.395 0.0605354 -1.43873 0
M  V30 8589 H 787.348 2.53699 -3.36474 0
M  V30 8590 H 786.072 2.4816 -2.1233 0
M  V30 8591 H 784.731 0.900058 -3.55379 0
M  V30 8592 H 784.379 3.36951 -3.73461 0
M  V30 8593 H 784.079 2.55613 -5.2909 0
M  V30 8594 H 785.603 3.453 -5.03587 0
M  V30 8595 H 787.017 1.2514 -5.59476 0
M  V30 8596 H 785.414 0.557593 -5.97504 0
M  V30 8597 H 786.484 -0.285679 -4.84058 0
M  V30 8598 N 787.827 1.57504 0.0551401 0
M  V30 8599 C 788.79 2.03826 1.04821 0
M  V30 8600 C 789.79 0.937968 1.30609 0
M  V30 8601 O 790.98 1.20237 1.2605 0
M  V30 8602 C 788.112 2.43309 2.38775 0
M  V30 8603 H 789.305 2.92802 0.6486 0
M  V30 8604 H 786.858 1.53368 0.301315 0
M  V30 8605 H 787.593 1.5741 2.83536 0
M  V30 8606 H 787.378 3.23615 2.21395 0
M  V30 8607 H 788.868 2.79666 3.10124 0
M  V30 8608 N 789.305 -0.326896 1.54172 0
M  V30 8609 C 790.237 -1.42319 1.79661 0
M  V30 8610 C 791.25 -1.47989 0.678456 0
M  V30 8611 O 792.439 -1.50773 0.955503 0
M  V30 8612 C 789.539 -2.80876 1.89636 0
M  V30 8613 C 788.712 -2.98449 3.19761 0
M  V30 8614 C 787.771 -4.17347 3.2048 0
M  V30 8615 O 786.797 -4.10667 3.94134 0
M  V30 8616 N 787.999 -5.26717 2.44027 0
M  V30 8617 H 790.764 -1.20819 2.74268 0
M  V30 8618 H 788.325 -0.516866 1.53428 0
M  V30 8619 H 790.317 -3.58619 1.87549 0
M  V30 8620 H 788.887 -2.95442 1.02141 0
M  V30 8621 H 788.107 -2.08035 3.34836 0
M  V30 8622 H 789.395 -3.07083 4.05681 0
M  V30 8623 H 788.793 -5.35019 1.8377 0
M  V30 8624 H 787.35 -6.02891 2.47721 0
M  V30 8625 N 790.784 -1.46188 -0.588786 0
M  V30 8626 C 791.731 -1.56292 -1.69828 0
M  V30 8627 C 792.701 -0.407581 -1.61022 0
M  V30 8628 O 793.886 -0.623532 -1.80324 0
M  V30 8629 C 791.026 -1.55341 -3.08161 0
M  V30 8630 C 790.139 -2.81564 -3.27636 0
M  V30 8631 C 789.274 -2.72158 -4.56183 0
M  V30 8632 C 788.313 -3.93348 -4.68981 0
M  V30 8633 N 787.45 -3.82365 -5.88848 0
M  V30 8634 H 792.29 -2.51066 -1.6053 0
M  V30 8635 H 789.827 -1.24562 -0.782474 0
M  V30 8636 H 791.785 -1.52776 -3.88221 0
M  V30 8637 H 790.415 -0.641034 -3.16371 0
M  V30 8638 H 789.467 -2.94136 -2.41223 0
M  V30 8639 H 790.779 -3.714 -3.32962 0
M  V30 8640 H 789.933 -2.67665 -5.44464 0
M  V30 8641 H 788.672 -1.79953 -4.53286 0
M  V30 8642 H 787.677 -3.98181 -3.7912 0
M  V30 8643 H 788.902 -4.86643 -4.73662 0
M  V30 8644 H 786.848 -2.92942 -5.86959 0
M  V30 8645 H 786.765 -4.65851 -5.95415 0
M  V30 8646 H 788.033 -3.81836 -6.79575 0
M  V30 8647 N 792.262 0.832906 -1.33792 0
M  V30 8648 C 793.192 1.95828 -1.27176 0
M  V30 8649 C 794.173 1.69427 -0.15114 0
M  V30 8650 O 795.358 1.91167 -0.341886 0
M  V30 8651 C 792.488 3.32098 -1.01629 0
M  V30 8652 C 791.442 3.72912 -2.10049 0
M  V30 8653 C 790.768 5.07054 -1.69706 0
M  V30 8654 C 792.068 3.86064 -3.51783 0
M  V30 8655 H 793.762 2.01622 -2.21334 0
M  V30 8656 H 791.308 0.96866 -1.0655 0
M  V30 8657 H 793.261 4.10402 -0.956474 0
M  V30 8658 H 791.985 3.26577 -0.0390956 0
M  V30 8659 H 790.644 2.96876 -2.15082 0
M  V30 8660 H 790.292 4.9801 -0.706737 0
M  V30 8661 H 789.992 5.35333 -2.42264 0
M  V30 8662 H 791.516 5.87827 -1.65202 0
M  V30 8663 H 792.93 4.54665 -3.49218 0
M  V30 8664 H 791.327 4.25787 -4.22878 0
M  V30 8665 H 792.397 2.88344 -3.89854 0
M  V30 8666 N 793.74 1.17359 1.05189 0
M  V30 8667 C 794.987 0.961987 1.78191 0
M  V30 8668 C 795.315 -0.509363 1.87712 0
M  V30 8669 O 794.57 -1.39425 1.37329 0
M  V30 8670 C 794.869 1.54821 3.22126 0
M  V30 8671 C 794.535 3.04378 3.32663 0
M  V30 8672 C 793.197 3.45201 3.35246 0
M  V30 8673 C 795.549 4.00387 3.33677 0
M  V30 8674 C 792.877 4.80629 3.36471 0
M  V30 8675 C 795.229 5.35715 3.36441 0
M  V30 8676 C 793.893 5.76002 3.37311 0
M  V30 8677 H 793.163 0.352016 0.652047 0
M  V30 8678 H 795.81 1.46249 1.23627 0
M  V30 8679 H 794.115 0.969432 3.79617 0
M  V30 8680 H 795.812 1.36004 3.77232 0
M  V30 8681 H 792.402 2.71836 3.31366 0
M  V30 8682 H 796.586 3.69906 3.30882 0
M  V30 8683 H 791.842 5.11155 3.35455 0
M  V30 8684 H 796.016 6.09886 3.36173 0
M  V30 8685 H 793.643 6.80919 3.38013 0
M  V30 8686 N 795.218 -1.23913 0.973828 0
M  V30 8687 C 796.166 -2.27141 0.50098 0
M  V30 8688 C 797.16 -1.63623 -0.438631 0
M  V30 8689 O 798.366 -1.77253 -0.313247 0
M  V30 8690 H 794.741 -0.73817 0.14356 0
M  V30 8691 H 796.712 -2.64392 1.38346 0
M  V30 8692 C 795.461 -3.47195 -0.187377 0
M  V30 8693 H 794.784 -3.96318 0.526535 0
M  V30 8694 H 796.224 -4.21252 -0.481962 0
M  V30 8695 C 794.683 -3.05678 -1.41642 0
M  V30 8696 O 795.213 -3.1338 -2.51309 0
M  V30 8697 N 793.419 -2.60661 -1.28469 0
M  V30 8698 H 792.966 -2.54594 -0.39238 0
M  V30 8699 H 792.924 -2.33249 -2.10813 0
M  V30 8700 N 796.696 -0.74468 -1.38897 0
M  V30 8701 C 797.644 -0.100312 -2.32384 0
M  V30 8702 C 798.638 0.715191 -1.53562 0
M  V30 8703 O 799.844 0.615288 -1.69157 0
M  V30 8704 H 796.219 -0.0136403 -0.751876 0
M  V30 8705 H 798.19 -0.905007 -2.84345 0
M  V30 8706 C 796.939 0.785432 -3.38713 0
M  V30 8707 H 796.262 0.167308 -3.9945 0
M  V30 8708 H 797.702 1.20374 -4.06554 0
M  V30 8709 C 796.161 1.92408 -2.76552 0
M  V30 8710 O 796.691 3.01752 -2.65157 0
M  V30 8711 N 794.897 1.71642 -2.34494 0
M  V30 8712 H 794.444 0.827079 -2.43961 0
M  V30 8713 H 794.402 2.48 -1.93244 0
M  V30 8714 N 798.174 1.49689 -0.493057 0
M  V30 8715 C 799.399 2.07331 0.0535114 0
M  V30 8716 C 799.824 1.35196 1.30781 0
M  V30 8717 O 799.182 0.406246 1.7669 0
M  V30 8718 C 799.23 3.59364 0.29825 0
M  V30 8719 O 798.334 3.88819 1.37454 0
M  V30 8720 H 797.675 0.663612 -0.0227018 0
M  V30 8721 H 800.205 1.926 -0.690402 0
M  V30 8722 H 800.215 4.04515 0.532159 0
M  V30 8723 H 798.89 4.1128 -0.618207 0
M  V30 8724 H 797.467 3.55487 1.12621 0
M  V30 8725 N 799.652 0.226554 1.55963 0
M  V30 8726 C 800.877 -0.411527 2.03276 0
M  V30 8727 C 801.302 -1.52206 1.10521 0
M  V30 8728 O 800.66 -1.81054 0.0943217 0
M  V30 8729 C 800.708 -0.915694 3.4878 0
M  V30 8730 O 799.812 -2.02672 3.59163 0
M  V30 8731 H 799.153 -0.0924907 0.657527 0
M  V30 8732 H 801.683 0.346656 2.01642 0
M  V30 8733 H 801.693 -1.22421 3.892 0
M  V30 8734 H 800.368 -0.102915 4.15773 0
M  V30 8735 H 798.945 -1.72445 3.30632 0
M  V30 8736 N 801.13 -1.57531 -0.0467866 0
M  V30 8737 C 802.355 -1.93087 -0.757123 0
M  V30 8738 C 802.78 -0.825116 -1.69037 0
M  V30 8739 O 802.138 0.220449 -1.79955 0
M  V30 8740 C 802.186 -3.27669 -1.5055 0
M  V30 8741 O 801.29 -3.18667 -2.61773 0
M  V30 8742 H 800.631 -0.631597 -0.204892 0
M  V30 8743 H 803.161 -2.04599 -0.00755232 0
M  V30 8744 H 803.171 -3.6214 -1.87932 0
M  V30 8745 H 801.846 -4.07717 -0.820931 0
M  V30 8746 H 800.423 -2.95798 -2.27064 0
M  V30 8747 N 802.608 0.318715 -1.54344 0
M  V30 8748 C 803.558 1.39364 -1.80448 0
M  V30 8749 C 804.542 1.46708 -0.660728 0
M  V30 8750 O 805.734 1.51159 -0.920869 0
M  V30 8751 C 802.863 2.76144 -2.03959 0
M  V30 8752 C 801.949 2.73094 -3.24469 0
M  V30 8753 N 802.34 2.39663 -4.45416 0
M  V30 8754 C 800.638 3.04218 -3.2614 0
M  V30 8755 C 801.339 2.45469 -5.27371 0
M  V30 8756 N 800.315 2.82107 -4.64668 0
M  V30 8757 H 804.117 1.12453 -2.71535 0
M  V30 8758 H 801.631 0.527221 -1.53604 0
M  V30 8759 H 803.628 3.53627 -2.20802 0
M  V30 8760 H 802.288 3.03982 -1.14129 0
M  V30 8761 H 803.299 2.12424 -4.72331 0
M  V30 8762 H 799.976 3.37066 -2.4636 0
M  V30 8763 H 801.366 2.22571 -6.33965 0
M  V30 8764 N 804.086 1.46499 0.581025 0
M  V30 8765 C 805.016 1.60052 1.70017 0
M  V30 8766 C 805.997 0.450788 1.64018 0
M  V30 8767 O 807.182 0.677237 1.82009 0
M  V30 8768 C 804.312 1.5921 3.08658 0
M  V30 8769 C 803.266 2.73169 3.29488 0
M  V30 8770 C 802.592 2.57389 4.68674 0
M  V30 8771 C 803.892 4.14978 3.1716 0
M  V30 8772 H 805.586 2.53735 1.5893 0
M  V30 8773 H 803.132 1.22113 0.763173 0
M  V30 8774 H 805.085 1.67285 3.86773 0
M  V30 8775 H 803.809 0.620718 3.20647 0
M  V30 8776 H 802.468 2.64566 2.53773 0
M  V30 8777 H 802.116 1.58331 4.77431 0
M  V30 8778 H 801.816 3.33826 4.83564 0
M  V30 8779 H 803.34 2.67358 5.48956 0
M  V30 8780 H 804.754 4.24684 3.85119 0
M  V30 8781 H 803.151 4.92016 3.4357 0
M  V30 8782 H 804.221 4.35016 2.14218 0
M  V30 8783 N 805.565 -0.825799 1.34232 0
M  V30 8784 C 806.475 -1.9684 1.27638 0
M  V30 8785 C 807.491 -1.73018 0.184569 0
M  V30 8786 O 808.667 -1.97172 0.410525 0
M  V30 8787 C 805.732 -3.31084 1.02879 0
M  V30 8788 C 804.793 -3.67933 2.21188 0
M  V30 8789 C 804.026 -4.95772 1.976 0
M  V30 8790 O 804.249 -5.62721 0.93281 0
M  V30 8791 O 803.183 -5.30431 2.84477 0
M  V30 8792 H 807.009 -2.05346 2.23756 0
M  V30 8793 H 804.594 -0.960772 1.1441 0
M  V30 8794 H 806.476 -4.11492 0.908406 0
M  V30 8795 H 805.151 -3.23552 0.0979821 0
M  V30 8796 H 804.058 -2.87981 2.38784 0
M  V30 8797 H 805.391 -3.80147 3.12648 0
M  V30 8798 N 807.043 -1.17915 -1.04565 0
M  V30 8799 C 808.32 -0.881187 -1.74627 0
M  V30 8800 C 808.7 0.617123 -2.01878 0
M  V30 8801 O 808.048 1.57032 -1.65991 0
M  V30 8802 C 808.258 -1.72299 -3.03503 0
M  V30 8803 C 809.606 -1.94688 -3.77335 0
M  V30 8804 O 810.63 -1.6931 -3.13389 0
M  V30 8805 O 809.489 -2.37379 -4.92253 0
M  V30 8806 H 806.583 -0.326864 -0.759664 0
M  V30 8807 H 809.129 -1.28642 -1.10676 0
M  V30 8808 H 807.901 -2.73891 -2.79462 0
M  V30 8809 H 807.524 -1.31593 -3.75192 0
M  V30 8810 N 808.521 1.23394 -0.980386 0
M  V30 8811 C 809.751 1.9556 -0.666319 0
M  V30 8812 C 810.159 1.72786 0.770815 0
M  V30 8813 O 809.502 1.0162 1.53033 0
M  V30 8814 C 809.564 3.48643 -0.876825 0
M  V30 8815 C 809.228 3.95135 -2.29602 0
M  V30 8816 C 810.225 4.03806 -3.2747 0
M  V30 8817 C 807.91 4.28122 -2.62711 0
M  V30 8818 C 809.904 4.44818 -4.56526 0
M  V30 8819 C 807.591 4.68814 -3.9199 0
M  V30 8820 C 808.589 4.77129 -4.88709 0
M  V30 8821 O 808.277 5.16908 -6.15679 0
M  V30 8822 H 808.009 0.629422 -0.246585 0
M  V30 8823 H 810.563 1.57839 -1.31438 0
M  V30 8824 H 808.793 3.86319 -0.171587 0
M  V30 8825 H 810.482 4.0202 -0.55992 0
M  V30 8826 H 811.248 3.78526 -3.03222 0
M  V30 8827 H 807.127 4.20861 -1.8814 0
M  V30 8828 H 810.671 4.51223 -5.32018 0
M  V30 8829 H 806.568 4.93545 -4.16033 0
M  V30 8830 H 807.336 5.3502 -6.19432 0
M  V30 8831 N 809.999 0.752036 1.385 0
M  V30 8832 C 811.224 0.316993 2.04963 0
M  V30 8833 C 811.649 -1.04582 1.56346 0
M  V30 8834 O 811.007 -1.66616 0.714755 0
M  V30 8835 C 811.055 0.347235 3.58924 0
M  V30 8836 O 810.159 -0.659296 4.07096 0
M  V30 8837 H 809.5 0.140652 0.648932 0
M  V30 8838 H 812.03 1.02272 1.77205 0
M  V30 8839 H 812.04 0.19757 4.07521 0
M  V30 8840 H 810.715 1.34157 3.93668 0
M  V30 8841 H 809.292 -0.474371 3.6987 0
M  V30 8842 N 811.477 -1.49425 0.500989 0
M  V30 8843 C 812.725 -2.02053 -0.0434495 0
M  V30 8844 C 813.046 -1.38285 -1.37486 0
M  V30 8845 O 812.316 -0.538171 -1.88363 0
M  V30 8846 H 810.896 -0.746757 -0.0190469 0
M  V30 8847 H 813.558 -1.83449 0.658227 0
M  V30 8848 H 812.654 -3.11619 -0.173129 0
M  V30 8849 N 812.955 -0.234822 -1.55841 0
M  V30 8850 C 813.885 0.664217 -2.23854 0
M  V30 8851 C 814.866 1.19076 -1.2147 0
M  V30 8852 O 816.051 1.23232 -1.50091 0
M  V30 8853 C 813.181 1.86666 -2.9287 0
M  V30 8854 C 812.135 1.47341 -4.01839 0
M  V30 8855 C 811.461 2.75571 -4.58219 0
M  V30 8856 C 812.761 0.653479 -5.18196 0
M  V30 8857 H 814.455 0.0971213 -2.99242 0
M  V30 8858 H 812.001 0.0452724 -1.43929 0
M  V30 8859 H 813.954 2.50116 -3.39146 0
M  V30 8860 H 812.678 2.45894 -2.1495 0
M  V30 8861 H 811.337 0.862314 -3.56314 0
M  V30 8862 H 810.985 3.32971 -3.77014 0
M  V30 8863 H 810.685 2.49987 -5.31771 0
M  V30 8864 H 812.209 3.39939 -5.07221 0
M  V30 8865 H 813.623 1.19198 -5.60771 0
M  V30 8866 H 812.02 0.494188 -5.98062 0
M  V30 8867 H 813.09 -0.337004 -4.83728 0
M  V30 8868 N 814.433 1.57553 0.0384317 0
M  V30 8869 C 815.658 1.93485 0.746872 0
M  V30 8870 C 816.083 0.834069 1.68597 0
M  V30 8871 O 815.441 -0.210902 1.80069 0
M  V30 8872 C 815.489 3.28463 1.4881 0
M  V30 8873 O 814.593 3.20051 2.60079 0
M  V30 8874 H 813.934 0.632675 0.201539 0
M  V30 8875 H 816.464 2.046 -0.00329815 0
M  V30 8876 H 816.474 3.63132 1.86009 0
M  V30 8877 H 815.149 4.08147 0.799297 0
M  V30 8878 H 813.726 2.96998 2.25492 0
M  V30 8879 N 815.911 -0.310526 1.54511 0
M  V30 8880 C 817.157 -1.04846 1.73595 0
M  V30 8881 C 817.49 -1.87244 0.515118 0
M  V30 8882 O 816.765 -1.88282 -0.48786 0
M  V30 8883 C 817.048 -1.96237 3.01932 0
M  V30 8884 C 816.901 -1.17082 4.34295 0
M  V30 8885 C 818.22 -2.9556 3.26086 0
M  V30 8886 H 815.339 -0.37976 0.631626 0
M  V30 8887 H 817.981 -0.32394 1.87218 0
M  V30 8888 H 816.131 -2.58015 2.90449 0
M  V30 8889 H 817.803 -0.576643 4.57682 0
M  V30 8890 H 816.046 -0.473336 4.3121 0
M  V30 8891 H 816.717 -1.84257 5.20339 0
M  V30 8892 H 819.193 -2.43908 3.37117 0
M  V30 8893 H 818.069 -3.5668 4.17218 0
M  V30 8894 H 818.33 -3.68715 2.4393 0
M  V30 8895 N 817.389 -1.46805 -0.573248 0
M  V30 8896 C 818.614 -1.56433 -1.36175 0
M  V30 8897 C 819.039 -0.209336 -1.86932 0
M  V30 8898 O 818.397 0.812146 -1.62092 0
M  V30 8899 C 818.445 -2.58055 -2.51873 0
M  V30 8900 O 817.549 -2.12214 -3.53609 0
M  V30 8901 H 816.89 -0.526068 -0.405153 0
M  V30 8902 H 819.42 -1.92456 -0.694405 0
M  V30 8903 H 819.43 -2.77966 -2.98662 0
M  V30 8904 H 818.105 -3.56448 -2.14284 0
M  V30 8905 H 816.682 -2.02333 -3.13234 0
M  V30 8906 N 818.867 0.818669 -1.34668 0
M  V30 8907 C 820.113 1.577 -1.28461 0
M  V30 8908 C 820.468 1.91867 0.143057 0
M  V30 8909 O 819.761 1.57545 1.09041 0
M  V30 8910 C 819.955 2.88245 -2.11304 0
M  V30 8911 C 819.784 2.66831 -3.61982 0
M  V30 8912 C 818.554 2.63346 -4.3125 0
M  V30 8913 C 820.752 2.38049 -4.55892 0
M  V30 8914 N 818.734 2.33522 -5.67751 0
M  V30 8915 C 820.105 2.17957 -5.80426 0
M  V30 8916 C 822.16 2.23812 -4.44761 0
M  V30 8917 C 820.863 1.8507 -6.95084 0
M  V30 8918 C 822.889 1.92321 -5.59255 0
M  V30 8919 C 822.251 1.73056 -6.82811 0
M  V30 8920 H 818.35 0.579284 -0.525314 0
M  V30 8921 H 820.934 0.959336 -1.69425 0
M  V30 8922 H 819.105 3.47927 -1.7263 0
M  V30 8923 H 820.837 3.53677 -1.96709 0
M  V30 8924 H 817.592 2.7757 -3.83734 0
M  V30 8925 H 818.016 2.21438 -6.39761 0
M  V30 8926 H 822.658 2.3741 -3.49852 0
M  V30 8927 H 820.376 1.7021 -7.89971 0
M  V30 8928 H 823.962 1.82031 -5.5259 0
M  V30 8929 H 822.842 1.49042 -7.69907 0
M  V30 8930 N 820.346 1.18468 1.03938 0
M  V30 8931 C 821.571 1.00638 1.81347 0
M  V30 8932 C 821.996 -0.440477 1.8287 0
M  V30 8933 O 821.354 -1.31609 1.24695 0
M  V30 8934 C 821.402 1.5673 3.24759 0
M  V30 8935 O 820.506 0.789517 4.04772 0
M  V30 8936 H 819.847 0.356432 0.560225 0
M  V30 8937 H 822.377 1.57253 1.30891 0
M  V30 8938 H 822.387 1.59496 3.75533 0
M  V30 8939 H 821.062 2.62043 3.22965 0
M  V30 8940 H 819.639 0.834267 3.63448 0
M  V30 8941 N 821.824 -1.22873 0.986916 0
M  V30 8942 C 822.756 -2.23889 0.490537 0
M  V30 8943 C 823.769 -1.57523 -0.411144 0
M  V30 8944 O 824.958 -1.7721 -0.214236 0
M  V30 8945 C 822.058 -3.37488 -0.30902 0
M  V30 8946 C 821.231 -4.33438 0.587354 0
M  V30 8947 C 820.29 -5.25958 -0.159467 0
M  V30 8948 O 819.316 -5.67394 0.453115 0
M  V30 8949 N 820.518 -5.62265 -1.44355 0
M  V30 8950 H 823.283 -2.67109 1.35914 0
M  V30 8951 H 820.844 -1.37111 0.860937 0
M  V30 8952 H 822.836 -3.96365 -0.817139 0
M  V30 8953 H 821.406 -2.934 -1.07868 0
M  V30 8954 H 820.626 -3.72969 1.27622 0
M  V30 8955 H 821.914 -4.94495 1.19801 0
M  V30 8956 H 821.312 -5.30562 -1.96266 0
M  V30 8957 H 819.869 -6.23585 -1.89698 0
M  V30 8958 N 823.302 -0.75937 -1.38099 0
M  V30 8959 C 824.549 -0.318113 -1.99986 0
M  V30 8960 C 824.877 1.10184 -1.6028 0
M  V30 8961 O 824.132 1.77015 -0.834524 0
M  V30 8962 C 824.431 -0.394999 -3.55211 0
M  V30 8963 C 824.097 -1.77143 -4.14646 0
M  V30 8964 C 822.759 -2.14811 -4.30592 0
M  V30 8965 C 825.111 -2.67407 -4.47373 0
M  V30 8966 C 822.439 -3.42203 -4.76565 0
M  V30 8967 C 824.791 -3.94196 -4.94765 0
M  V30 8968 C 823.455 -4.31925 -5.08918 0
M  V30 8969 H 822.725 -0.116406 -0.7318 0
M  V30 8970 H 825.372 -0.97098 -1.65058 0
M  V30 8971 H 823.677 0.341426 -3.9031 0
M  V30 8972 H 825.374 -0.0350722 -4.00985 0
M  V30 8973 H 821.964 -1.46864 -4.02652 0
M  V30 8974 H 826.148 -2.39569 -4.3465 0
M  V30 8975 H 821.404 -3.71346 -4.85708 0
M  V30 8976 H 825.578 -4.64276 -5.19057 0
M  V30 8977 H 823.205 -5.30699 -5.443 0
M  V30 8978 N 824.78 1.49157 -0.508906 0
M  V30 8979 C 825.728 2.30922 0.278906 0
M  V30 8980 C 826.722 1.39889 0.955382 0
M  V30 8981 O 827.928 1.56901 0.882169 0
M  V30 8982 H 824.303 0.744087 0.108805 0
M  V30 8983 H 826.274 2.95277 -0.430583 0
M  V30 8984 C 825.023 3.21432 1.32576 0
M  V30 8985 H 824.346 3.91413 0.814634 0
M  V30 8986 H 825.786 3.81568 1.84882 0
M  V30 8987 C 824.245 2.41583 2.34817 0
M  V30 8988 O 824.775 2.1256 3.40854 0
M  V30 8989 N 822.981 2.03462 2.07489 0
M  V30 8990 H 822.528 2.27265 1.21278 0
M  V30 8991 H 822.486 1.50345 2.76123 0
M  V30 8992 N 826.258 0.243083 1.55714 0
M  V30 8993 C 827.674 -0.111853 1.59208 0
M  V30 8994 C 827.874 -1.5723 1.2602 0
M  V30 8995 O 826.93 -2.31608 1.00569 0
M  V30 8996 C 828.243 0.233885 2.99789 0
M  V30 8997 C 829.791 0.177873 3.12494 0
M  V30 8998 C 830.266 0.49759 4.55289 0
M  V30 8999 N 831.757 0.447949 4.61029 0
M  V30 9000 C 832.492 0.668545 5.69489 0
M  V30 9001 N 831.988 0.952064 6.86227 0
M  V30 9002 N 833.781 0.599512 5.58894 0
M  V30 9003 H 825.932 1.19554 1.75558 0
M  V30 9004 H 828.195 0.480765 0.817049 0
M  V30 9005 H 827.901 1.24835 3.28799 0
M  V30 9006 H 827.775 -0.440846 3.74615 0
M  V30 9007 H 830.162 -0.827263 2.83267 0
M  V30 9008 H 830.243 0.886399 2.39951 0
M  V30 9009 H 829.887 1.50026 4.85237 0
M  V30 9010 H 829.817 -0.232371 5.26087 0
M  V30 9011 H 832.308 0.237388 3.77154 0
M  V30 9012 H 832.621 1.10791 7.64817 0
M  V30 9013 H 830.966 0.989496 6.8792 0
M  V30 9014 H 834.157 0.378088 4.66571 0
M  V30 9015 H 834.33 0.774828 6.43351 0
M  V30 9016 N 827.736 -1.57571 -0.0300757 0
M  V30 9017 C 828.646 -2.09892 -1.04798 0
M  V30 9018 C 829.662 -1.03732 -1.39698 0
M  V30 9019 O 830.838 -1.35461 -1.49038 0
M  V30 9020 C 827.903 -2.56707 -2.33028 0
M  V30 9021 C 826.964 -3.77345 -2.04718 0
M  V30 9022 C 826.197 -4.21918 -3.26834 0
M  V30 9023 O 826.42 -3.66025 -4.37472 0
M  V30 9024 O 825.354 -5.14362 -3.12594 0
M  V30 9025 H 829.18 -2.97023 -0.633344 0
M  V30 9026 H 826.765 -1.47344 -0.246991 0
M  V30 9027 H 828.647 -2.87154 -3.08417 0
M  V30 9028 H 827.322 -1.72688 -2.73789 0
M  V30 9029 H 826.229 -3.51919 -1.26901 0
M  V30 9030 H 827.562 -4.62345 -1.68813 0
M  V30 9031 N 829.214 0.302327 -1.54673 0
M  V30 9032 C 830.162 1.39286 -1.86285 0
M  V30 9033 C 831.156 1.52553 -0.736478 0
M  V30 9034 O 832.362 1.54686 -0.92045 0
M  V30 9035 H 828.737 0.465228 -0.590819 0
M  V30 9036 H 830.708 1.09859 -2.77441 0
M  V30 9037 C 829.457 2.75155 -2.12567 0
M  V30 9038 H 828.78 2.65728 -2.98712 0
M  V30 9039 H 830.22 3.50476 -2.38627 0
M  V30 9040 C 828.679 3.23987 -0.923813 0
M  V30 9041 O 829.209 4.01443 -0.143649 0
M  V30 9042 N 827.415 2.81293 -0.72956 0
M  V30 9043 H 826.962 2.18421 -1.36565 0
M  V30 9044 H 826.92 3.14315 0.0730351 0
M  V30 9045 N 830.692 1.47107 0.565454 0
M  V30 9046 C 831.622 1.61846 1.68309 0
M  V30 9047 C 832.603 0.468159 1.63531 0
M  V30 9048 O 833.788 0.696504 1.8128 0
M  V30 9049 C 830.918 1.62474 3.06952 0
M  V30 9050 C 829.872 2.76649 3.26572 0
M  V30 9051 C 829.198 2.62345 4.65917 0
M  V30 9052 C 830.498 4.18319 3.12741 0
M  V30 9053 H 832.192 2.55407 1.5623 0
M  V30 9054 H 829.738 1.22916 0.750179 0
M  V30 9055 H 831.691 1.71378 3.84977 0
M  V30 9056 H 830.415 0.654692 3.19971 0
M  V30 9057 H 829.074 2.67242 2.50952 0
M  V30 9058 H 828.722 1.63386 4.75725 0
M  V30 9059 H 828.422 3.38936 4.79996 0
M  V30 9060 H 829.946 2.73165 5.46089 0
M  V30 9061 H 831.36 4.28745 3.80593 0
M  V30 9062 H 829.757 4.95632 3.38333 0
M  V30 9063 H 830.827 4.37263 2.09592 0
M  V30 9064 N 832.17 -0.811516 1.35101 0
M  V30 9065 C 833.581 -1.38515 1.25182 0
M  V30 9066 C 833.932 -1.95846 -0.117883 0
M  V30 9067 O 833.057 -1.90925 -1.01866 0
M  V30 9068 C 833.652 -2.51813 2.26662 0
M  V30 9069 C 832.211 -3.05052 2.20499 0
M  V30 9070 C 831.358 -1.77987 2.12641 0
M  V30 9071 H 834.309 -0.614959 1.46301 0
M  V30 9072 H 834.33 -3.30228 1.89023 0
M  V30 9073 H 833.842 -2.10057 3.2634 0
M  V30 9074 H 831.943 -3.51285 1.24215 0
M  V30 9075 H 832.056 -3.63368 3.1225 0
M  V30 9076 H 830.42 -1.99342 1.5854 0
M  V30 9077 H 831.203 -1.38389 3.14171 0
M  V30 9078 N 833.648 -1.19017 -1.03309 0
M  V30 9079 C 834.896 -0.988258 -1.76289 0
M  V30 9080 C 835.217 0.482557 -1.88935 0
M  V30 9081 O 834.487 1.34969 -1.41987 0
M  V30 9082 H 833.067 -0.36267 -0.653054 0
M  V30 9083 H 835.729 -1.49836 -1.2464 0
M  V30 9084 H 834.825 -1.43273 -2.77271 0
M  V30 9085 N 835.127 1.22348 -0.993418 0
M  V30 9086 C 836.543 1.43222 -0.704238 0
M  V30 9087 C 836.743 1.88009 0.724909 0
M  V30 9088 O 835.799 2.03429 1.49575 0
M  V30 9089 C 837.112 2.47328 -1.71025 0
M  V30 9090 C 838.66 2.61126 -1.72576 0
M  V30 9091 C 839.135 3.68453 -2.72041 0
M  V30 9092 N 840.626 3.75911 -2.70639 0
M  V30 9093 C 841.361 4.58551 -3.44266 0
M  V30 9094 N 840.857 5.45179 -4.27495 0
M  V30 9095 N 842.65 4.52866 -3.32969 0
M  V30 9096 H 834.801 0.915832 -1.91641 0
M  V30 9097 H 837.064 0.464283 -0.826526 0
M  V30 9098 H 836.77 2.21366 -2.73295 0
M  V30 9099 H 836.644 3.45939 -1.50353 0
M  V30 9100 H 839.031 2.86431 -0.710037 0
M  V30 9101 H 839.112 1.62787 -1.97317 0
M  V30 9102 H 838.756 3.43895 -3.73763 0
M  V30 9103 H 838.686 4.66362 -2.4457 0
M  V30 9104 H 841.177 3.14014 -2.10247 0
M  V30 9105 H 841.49 6.0526 -4.80499 0
M  V30 9106 H 839.835 5.44759 -4.31582 0
M  V30 9107 H 843.026 3.84215 -2.67389 0
M  V30 9108 H 843.199 5.17039 -3.90608 0
M  V30 9109 N 836.605 0.766683 1.37694 0
M  V30 9110 C 837.553 0.137269 2.32195 0
M  V30 9111 C 838.547 -0.69067 1.54681 0
M  V30 9112 O 839.753 -0.588299 1.70115 0
M  V30 9113 H 836.128 0.0256003 0.751564 0
M  V30 9114 H 838.099 0.950129 2.82869 0
M  V30 9115 C 836.848 -0.731446 3.39919 0
M  V30 9116 H 836.171 -0.103738 3.99665 0
M  V30 9117 H 837.611 -1.13891 4.08417 0
M  V30 9118 C 836.07 -1.87984 2.79578 0
M  V30 9119 O 836.6 -2.97496 2.69924 0
M  V30 9120 N 834.806 -1.6789 2.37195 0
M  V30 9121 H 834.353 -0.788162 2.45246 0
M  V30 9122 H 834.311 -2.44894 1.97165 0
M  V30 9123 N 838.083 -1.48885 0.516809 0
M  V30 9124 C 839.313 -2.06592 -0.018375 0
M  V30 9125 C 839.721 -1.37543 -1.29917 0
M  V30 9126 O 839.064 -0.452527 -1.78039 0
M  V30 9127 C 839.126 -3.58016 -0.326315 0
M  V30 9128 C 838.79 -4.48853 0.859072 0
M  V30 9129 C 839.787 -4.89422 1.75391 0
M  V30 9130 C 837.472 -4.90937 1.06235 0
M  V30 9131 C 839.466 -5.70831 2.83604 0
M  V30 9132 C 837.153 -5.72119 2.14763 0
M  V30 9133 C 838.151 -6.11972 3.03281 0
M  V30 9134 O 837.839 -6.91527 4.09934 0
M  V30 9135 H 837.571 -0.675559 0.0244023 0
M  V30 9136 H 840.125 -1.92442 0.718005 0
M  V30 9137 H 838.355 -3.70231 -1.1165 0
M  V30 9138 H 840.044 -3.97898 -0.801999 0
M  V30 9139 H 840.81 -4.57542 1.60875 0
M  V30 9140 H 836.689 -4.59409 0.382677 0
M  V30 9141 H 840.233 -6.01857 3.52724 0
M  V30 9142 H 836.13 -6.03412 2.29268 0
M  V30 9143 H 836.898 -7.0986 4.07482 0
M  V30 9144 N 839.561 -0.251338 -1.55583 0
M  V30 9145 C 840.789 0.376187 -2.03451 0
M  V30 9146 C 841.204 1.51215 -1.13047 0
M  V30 9147 O 840.561 1.81917 -0.145769 0
M  V30 9148 C 840.612 0.879779 -3.50631 0
M  V30 9149 O 840.333 -0.210917 -4.37592 0
M  V30 9150 C 841.834 1.57754 -4.14281 0
M  V30 9151 H 839.054 0.0888722 -0.665089 0
M  V30 9152 H 841.598 -0.376497 -2.01004 0
M  V30 9153 H 839.753 1.58263 -3.53598 0
M  V30 9154 H 840.167 0.172203 -5.24217 0
M  V30 9155 H 841.641 1.88158 -5.18942 0
M  V30 9156 H 842.118 2.50103 -3.61034 0
M  V30 9157 H 842.724 0.919154 -4.15249 0
M  V30 9158 N 841.039 1.57585 0.0217189 0
M  V30 9159 C 842.286 1.89606 0.711045 0
M  V30 9160 C 842.614 0.849535 1.74966 0
M  V30 9161 O 841.869 -0.14856 1.95135 0
M  V30 9162 C 842.168 3.28377 1.41079 0
M  V30 9163 C 841.834 4.48035 0.507454 0
M  V30 9164 C 840.496 4.80504 0.258672 0
M  V30 9165 C 842.848 5.21071 -0.115793 0
M  V30 9166 C 840.176 5.83393 -0.622013 0
M  V30 9167 C 842.528 6.24897 -0.984224 0
M  V30 9168 C 841.192 6.55836 -1.2424 0
M  V30 9169 H 840.462 0.693817 0.26019 0
M  V30 9170 H 843.109 1.91478 -0.0291424 0
M  V30 9171 H 841.414 3.22528 2.22448 0
M  V30 9172 H 843.111 3.50404 1.94982 0
M  V30 9173 H 839.701 4.22653 0.711516 0
M  V30 9174 H 843.885 4.96259 0.0634327 0
M  V30 9175 H 839.141 6.05736 -0.830267 0
M  V30 9176 H 843.315 6.8063 -1.47363 0
M  V30 9177 H 840.942 7.35383 -1.92653 0
M  V30 9178 N 842.517 -0.29412 1.54831 0
M  V30 9179 C 843.763 -1.02602 1.75626 0
M  V30 9180 C 844.118 -1.84689 0.539232 0
M  V30 9181 O 843.411 -1.85788 -0.468322 0
M  V30 9182 C 843.605 -1.95782 2.99006 0
M  V30 9183 C 843.434 -1.22861 4.32591 0
M  V30 9184 C 842.204 -0.95294 4.96233 0
M  V30 9185 C 844.402 -0.629592 5.10432 0
M  V30 9186 N 842.384 -0.194728 6.13591 0
M  V30 9187 C 843.755 -0.00449586 6.2 0
M  V30 9188 C 845.81 -0.535327 4.95014 0
M  V30 9189 C 844.513 0.705754 7.15829 0
M  V30 9190 C 846.539 0.161284 5.9118 0
M  V30 9191 C 845.901 0.775203 7.00121 0
M  V30 9192 H 842 -0.358143 0.695167 0
M  V30 9193 H 844.584 -0.303896 1.92314 0
M  V30 9194 H 842.755 -2.65238 2.83731 0
M  V30 9195 H 844.487 -2.62175 3.08296 0
M  V30 9196 H 841.242 -1.25285 4.56728 0
M  V30 9197 H 841.666 0.171093 6.76784 0
M  V30 9198 H 846.308 -0.995662 4.10909 0
M  V30 9199 H 844.026 1.17784 7.9947 0
M  V30 9200 H 847.612 0.234256 5.81328 0
M  V30 9201 H 846.492 1.30566 7.73254 0
M  V30 9202 N 843.995 -1.47404 -0.557645 0
M  V30 9203 C 844.927 -1.55917 -1.67995 0
M  V30 9204 C 845.94 -0.445411 -1.56588 0
M  V30 9205 O 847.129 -0.714999 -1.63554 0
M  V30 9206 C 844.229 -1.44697 -3.06457 0
M  V30 9207 C 843.402 -2.70633 -3.43622 0
M  V30 9208 C 842.461 -2.53256 -4.61246 0
M  V30 9209 O 841.487 -3.27068 -4.65849 0
M  V30 9210 N 842.689 -1.61053 -5.57711 0
M  V30 9211 H 845.454 -2.52694 -1.61139 0
M  V30 9212 H 843.015 -1.43778 -0.744271 0
M  V30 9213 H 845.007 -1.30806 -3.82978 0
M  V30 9214 H 843.577 -0.560039 -3.07542 0
M  V30 9215 H 842.797 -2.99288 -2.56555 0
M  V30 9216 H 844.085 -3.5424 -3.65228 0
M  V30 9217 H 843.483 -1.00235 -5.56749 0
M  V30 9218 H 842.04 -1.53115 -6.33561 0
M  V30 9219 N 845.473 0.80434 -1.35529 0
M  V30 9220 C 846.719 1.56328 -1.30127 0
M  V30 9221 C 847.074 1.92008 0.122699 0
M  V30 9222 O 846.367 1.58693 1.07364 0
M  V30 9223 C 846.561 2.85988 -2.14349 0
M  V30 9224 C 846.39 2.62977 -3.64792 0
M  V30 9225 C 845.16 2.58757 -4.34019 0
M  V30 9226 C 847.358 2.332 -4.58391 0
M  V30 9227 N 845.34 2.27487 -5.70195 0
M  V30 9228 C 846.711 2.11788 -5.82706 0
M  V30 9229 C 848.766 2.19082 -4.4711 0
M  V30 9230 C 847.469 1.77688 -6.97008 0
M  V30 9231 C 849.495 1.86378 -5.61264 0
M  V30 9232 C 848.857 1.65804 -6.84608 0
M  V30 9233 H 844.956 0.57368 -0.531428 0
M  V30 9234 H 847.54 0.941313 -1.70433 0
M  V30 9235 H 845.711 3.46077 -1.76311 0
M  V30 9236 H 847.443 3.51571 -2.00449 0
M  V30 9237 H 844.198 2.73484 -3.86656 0
M  V30 9238 H 844.622 2.1464 -6.42074 0
M  V30 9239 H 849.264 2.33686 -3.5235 0
M  V30 9240 H 846.982 1.61822 -7.91732 0
M  V30 9241 H 850.568 1.7616 -5.5449 0
M  V30 9242 H 849.448 1.40868 -7.71444 0
M  V30 9243 N 846.951 1.19563 1.02676 0
M  V30 9244 C 848.198 0.999568 1.7611 0
M  V30 9245 C 848.526 -0.469432 1.8875 0
M  V30 9246 O 847.781 -1.36481 1.40255 0
M  V30 9247 C 848.08 1.61619 3.18769 0
M  V30 9248 C 847.746 3.11366 3.26132 0
M  V30 9249 C 846.408 3.52234 3.27848 0
M  V30 9250 C 848.76 4.07374 3.25109 0
M  V30 9251 C 846.088 4.87658 3.26201 0
M  V30 9252 C 848.44 5.42731 3.25002 0
M  V30 9253 C 847.104 5.83027 3.25017 0
M  V30 9254 H 846.374 0.365768 0.644434 0
M  V30 9255 H 849.021 1.48838 1.20497 0
M  V30 9256 H 847.326 1.04974 3.77476 0
M  V30 9257 H 849.023 1.43975 3.74262 0
M  V30 9258 H 845.613 2.78804 3.25525 0
M  V30 9259 H 849.797 3.76842 3.22961 0
M  V30 9260 H 845.053 5.18156 3.24537 0
M  V30 9261 H 849.227 6.16879 3.23161 0
M  V30 9262 H 846.854 6.87936 3.23494 0
M  V30 9263 N 848.429 -1.21819 0.999893 0
M  V30 9264 C 849.706 -1.86318 0.595384 0
M  V30 9265 C 850.086 -1.8965 -0.927143 0
M  V30 9266 O 849.434 -1.3921 -1.81199 0
M  V30 9267 C 849.644 -3.26837 1.22387 0
M  V30 9268 C 850.992 -4.03272 1.32878 0
M  V30 9269 O 852.016 -3.36129 1.1788 0
M  V30 9270 O 850.875 -5.23477 1.56952 0
M  V30 9271 H 847.969 -0.801638 0.203238 0
M  V30 9272 H 850.515 -1.29542 1.09622 0
M  V30 9273 H 849.287 -3.19084 2.26497 0
M  V30 9274 H 848.91 -3.91226 0.709069 0
M  V30 9275 N 849.908 -0.773975 -1.37286 0
M  V30 9276 C 851.156 -0.338636 -1.99243 0
M  V30 9277 C 851.477 1.08919 -1.61746 0
M  V30 9278 O 850.747 1.74822 -0.88397 0
M  V30 9279 H 849.327 -0.12222 -0.736934 0
M  V30 9280 H 851.989 -0.992595 -1.67731 0
M  V30 9281 H 851.085 -0.418055 -3.09287 0
M  V30 9282 N 851.386 1.48609 -0.524698 0
M  V30 9283 C 852.632 2.02797 0.0113382 0
M  V30 9284 C 852.965 1.40147 1.34433 0
M  V30 9285 O 852.24 0.545368 1.86698 0
M  V30 9286 C 852.523 3.59832 0.138931 0
M  V30 9287 C 852.376 4.32971 -1.21886 0
M  V30 9288 C 853.695 4.3145 0.868265 0
M  V30 9289 H 850.814 0.736995 0.00264645 0
M  V30 9290 H 853.456 1.77388 -0.680704 0
M  V30 9291 H 851.606 3.81612 0.72834 0
M  V30 9292 H 853.278 4.22624 -1.84897 0
M  V30 9293 H 851.521 3.94597 -1.80211 0
M  V30 9294 H 852.192 5.41279 -1.08263 0
M  V30 9295 H 854.668 4.14468 0.368145 0
M  V30 9296 H 853.544 5.41025 0.926428 0
M  V30 9297 H 853.805 3.98358 1.91737 0
M  V30 9298 N 852.864 0.259585 1.55447 0
M  V30 9299 C 853.797 -0.675542 2.17972 0
M  V30 9300 C 854.775 -1.16362 1.13572 0
M  V30 9301 O 855.959 -1.23944 1.42021 0
M  V30 9302 C 853.086 -1.91952 2.79056 0
M  V30 9303 C 852.132 -1.56824 3.96621 0
M  V30 9304 S 852.965 -0.659846 5.31419 0
M  V30 9305 C 854.121 -1.91255 5.95963 0
M  V30 9306 H 854.354 -0.144236 2.9695 0
M  V30 9307 H 851.887 0.0439448 1.54337 0
M  V30 9308 H 853.845 -2.63362 3.14882 0
M  V30 9309 H 852.506 -2.42196 2 0
M  V30 9310 H 851.699 -2.49348 4.37997 0
M  V30 9311 H 851.301 -0.934472 3.62138 0
M  V30 9312 H 853.593 -2.85834 6.14252 0
M  V30 9313 H 854.536 -1.54207 6.91105 0
M  V30 9314 H 854.944 -2.07042 5.25161 0
M  V30 9315 N 854.342 -1.57594 -0.0133615 0
M  V30 9316 C 855.252 -2.10991 -1.02566 0
M  V30 9317 C 856.268 -1.05208 -1.3859 0
M  V30 9318 O 857.444 -1.37034 -1.47593 0
M  V30 9319 C 854.509 -2.59165 -2.30292 0
M  V30 9320 C 853.57 -3.79495 -2.00704 0
M  V30 9321 C 852.803 -4.25361 -3.22341 0
M  V30 9322 O 853.026 -3.70645 -4.33565 0
M  V30 9323 O 851.96 -5.17649 -3.07121 0
M  V30 9324 H 855.786 -2.97678 -0.601806 0
M  V30 9325 H 853.371 -1.47598 -0.23135 0
M  V30 9326 H 855.253 -2.90409 -3.05354 0
M  V30 9327 H 853.928 -1.75582 -2.71942 0
M  V30 9328 H 852.835 -3.53245 -1.23161 0
M  V30 9329 H 854.168 -4.64109 -1.639 0
M  V30 9330 N 855.82 0.285905 -1.54985 0
M  V30 9331 C 857.066 1.02071 -1.75241 0
M  V30 9332 C 857.399 1.864 -0.544842 0
M  V30 9333 O 856.674 1.89034 0.457844 0
M  V30 9334 C 856.957 1.91409 -3.05016 0
M  V30 9335 C 856.81 1.10158 -4.36102 0
M  V30 9336 C 858.129 2.90335 -3.30747 0
M  V30 9337 H 855.248 0.369663 -0.637588 0
M  V30 9338 H 857.89 0.294114 -1.8771 0
M  V30 9339 H 856.04 2.53362 -2.94517 0
M  V30 9340 H 857.712 0.503756 -4.58541 0
M  V30 9341 H 855.955 0.404675 -4.31908 0
M  V30 9342 H 856.626 1.75956 -5.23205 0
M  V30 9343 H 859.102 2.38514 -3.40955 0
M  V30 9344 H 857.978 3.49997 -4.2284 0
M  V30 9345 H 858.239 3.64787 -2.49765 0
M  V30 9346 N 857.298 1.47698 0.54982 0
M  V30 9347 C 858.228 1.63622 1.66583 0
M  V30 9348 C 859.209 0.485477 1.63025 0
M  V30 9349 O 860.394 0.715692 1.80531 0
M  V30 9350 C 857.524 1.65721 3.05211 0
M  V30 9351 C 856.478 2.80097 3.2362 0
M  V30 9352 C 855.804 2.67272 4.63109 0
M  V30 9353 C 857.104 4.21612 3.08286 0
M  V30 9354 H 858.798 2.57049 1.53512 0
M  V30 9355 H 856.344 1.23705 0.737099 0
M  V30 9356 H 858.297 1.75451 3.83138 0
M  V30 9357 H 857.021 0.688593 3.19258 0
M  V30 9358 H 855.68 2.69889 2.48104 0
M  V30 9359 H 855.328 1.68422 4.73965 0
M  V30 9360 H 855.028 3.44008 4.76374 0
M  V30 9361 H 856.552 2.78942 5.43161 0
M  V30 9362 H 857.966 4.32758 3.76024 0
M  V30 9363 H 856.363 4.99193 3.33057 0
M  V30 9364 H 857.433 4.39462 2.04942 0
M  V30 9365 N 858.776 -0.797141 1.35954 0
M  V30 9366 C 859.723 -1.90944 1.2965 0
M  V30 9367 C 860.693 -1.65262 0.166628 0
M  V30 9368 O 861.878 -1.87527 0.351883 0
M  V30 9369 C 859.018 -3.27637 1.08389 0
M  V30 9370 C 858.131 -3.65442 2.30382 0
M  V30 9371 C 857.266 -4.91213 2.02195 0
M  V30 9372 C 856.305 -5.21674 3.20191 0
M  V30 9373 N 855.442 -6.38627 2.91719 0
M  V30 9374 H 860.282 -1.95668 2.24762 0
M  V30 9375 H 857.819 -0.95696 1.11717 0
M  V30 9376 H 859.777 -4.06451 0.940912 0
M  V30 9377 H 858.407 -3.22355 0.169351 0
M  V30 9378 H 857.459 -2.81813 2.55511 0
M  V30 9379 H 858.771 -3.83907 3.18461 0
M  V30 9380 H 857.925 -5.77876 1.84783 0
M  V30 9381 H 856.664 -4.74803 1.11416 0
M  V30 9382 H 855.669 -4.33498 3.38171 0
M  V30 9383 H 856.894 -5.40009 4.11786 0
M  V30 9384 H 854.84 -6.23623 2.03543 0
M  V30 9385 H 854.757 -6.57387 3.73334 0
M  V30 9386 H 856.025 -7.28292 2.77868 0
M  V30 9387 N 860.254 -1.20106 -1.0204 0
M  V30 9388 C 861.201 -0.946468 -2.10501 0
M  V30 9389 C 862.171 0.121902 -1.65652 0
M  V30 9390 O 863.356 -0.0220244 -1.90787 0
M  V30 9391 C 860.496 -0.500499 -3.41451 0
M  V30 9392 C 859.609 -1.63659 -3.998 0
M  V30 9393 C 858.744 -1.14131 -5.18794 0
M  V30 9394 C 857.783 -2.25074 -5.69217 0
M  V30 9395 N 856.92 -1.76791 -6.79477 0
M  V30 9396 H 861.76 -1.87506 -2.31615 0
M  V30 9397 H 859.297 -0.934693 -1.13587 0
M  V30 9398 H 861.255 -0.223276 -4.16602 0
M  V30 9399 H 859.885 0.391099 -3.20422 0
M  V30 9400 H 858.937 -2.02882 -3.21781 0
M  V30 9401 H 860.249 -2.47213 -4.33229 0
M  V30 9402 H 859.403 -0.819826 -6.01135 0
M  V30 9403 H 858.142 -0.275615 -4.86921 0
M  V30 9404 H 857.147 -2.58043 -4.85483 0
M  V30 9405 H 858.372 -3.12114 -6.03127 0
M  V30 9406 H 856.318 -0.925428 -6.4944 0
M  V30 9407 H 856.235 -2.53928 -7.12079 0
M  V30 9408 H 857.503 -1.47631 -7.65392 0
M  V30 9409 N 861.732 1.21287 -1.00634 0
M  V30 9410 C 862.682 2.21541 -0.53886 0
M  V30 9411 C 863.666 1.55842 0.400256 0
M  V30 9412 O 864.858 1.75566 0.224889 0
M  V30 9413 C 861.987 3.43047 0.131796 0
M  V30 9414 C 861.073 4.1593 -0.828419 0
M  V30 9415 N 861.464 4.65359 -1.98178 0
M  V30 9416 C 859.762 4.41281 -0.647083 0
M  V30 9417 C 860.463 5.21079 -2.58557 0
M  V30 9418 N 859.439 5.10531 -1.86705 0
M  V30 9419 H 863.241 2.57413 -1.41831 0
M  V30 9420 H 860.755 1.37109 -0.870338 0
M  V30 9421 H 862.752 4.14079 0.484178 0
M  V30 9422 H 861.412 3.08683 1.00721 0
M  V30 9423 H 862.423 4.60896 -2.3621 0
M  V30 9424 H 859.1 4.17107 0.181139 0
M  V30 9425 H 860.49 5.6977 -3.56107 0
M  V30 9426 N 863.21 0.781244 1.36873 0
M  V30 9427 C 864.14 0.188128 2.32741 0
M  V30 9428 C 865.121 -0.672326 1.56249 0
M  V30 9429 O 866.306 -0.607835 1.84442 0
M  V30 9430 C 863.436 -0.684341 3.40491 0
M  V30 9431 C 862.39 0.0755641 4.27933 0
M  V30 9432 C 861.716 -0.916968 5.26779 0
M  V30 9433 C 863.016 1.26006 5.06873 0
M  V30 9434 H 864.71 0.989016 2.82593 0
M  V30 9435 H 862.256 0.477038 1.35869 0
M  V30 9436 H 864.209 -1.10915 4.06541 0
M  V30 9437 H 862.933 -1.51785 2.89187 0
M  V30 9438 H 861.592 0.481258 3.63427 0
M  V30 9439 H 861.24 -1.74528 4.71751 0
M  V30 9440 H 860.94 -0.413 5.86147 0
M  V30 9441 H 862.464 -1.34052 5.95703 0
M  V30 9442 H 863.878 0.911425 5.66009 0
M  V30 9443 H 862.275 1.69676 5.75613 0
M  V30 9444 H 863.345 2.05948 4.38991 0
M  V30 9445 N 864.689 -1.48329 0.532571 0
M  V30 9446 C 865.636 -2.29663 -0.228779 0
M  V30 9447 C 866.606 -1.37529 -0.931401 0
M  V30 9448 O 867.791 -1.66493 -0.931921 0
M  V30 9449 C 864.931 -3.20955 -1.26814 0
M  V30 9450 C 864.044 -4.28168 -0.574099 0
M  V30 9451 C 863.179 -5.06638 -1.59661 0
M  V30 9452 C 862.218 -6.05651 -0.88618 0
M  V30 9453 N 861.355 -6.77169 -1.85436 0
M  V30 9454 H 866.195 -2.94255 0.47098 0
M  V30 9455 H 863.732 -1.45061 0.2441 0
M  V30 9456 H 865.69 -3.72285 -1.88307 0
M  V30 9457 H 864.32 -2.58281 -1.93625 0
M  V30 9458 H 863.372 -3.80085 0.154827 0
M  V30 9459 H 864.684 -4.98797 -0.0163984 0
M  V30 9460 H 863.838 -5.61995 -2.28576 0
M  V30 9461 H 862.577 -4.35854 -2.18821 0
M  V30 9462 H 861.582 -5.49495 -0.182981 0
M  V30 9463 H 862.807 -6.78434 -0.300659 0
M  V30 9464 H 860.753 -6.09134 -2.43499 0
M  V30 9465 H 860.67 -7.43882 -1.34816 0
M  V30 9466 H 861.938 -7.37114 -2.53541 0
M  V30 9467 N 866.167 -0.267825 -1.55308 0
M  V30 9468 C 867.578 0.231344 -1.85261 0
M  V30 9469 C 867.929 1.56006 -1.18982 0
M  V30 9470 O 867.054 2.1111 -0.475554 0
M  V30 9471 C 867.649 0.426537 -3.36104 0
M  V30 9472 C 866.208 0.869945 -3.66209 0
M  V30 9473 C 865.355 -0.0409522 -2.7727 0
M  V30 9474 H 868.306 -0.489821 -1.50952 0
M  V30 9475 H 868.327 1.26616 -3.58816 0
M  V30 9476 H 867.839 -0.540678 -3.84315 0
M  V30 9477 H 865.94 1.84889 -3.23492 0
M  V30 9478 H 866.053 0.712316 -4.73775 0
M  V30 9479 H 864.417 0.474097 -2.50249 0
M  V30 9480 H 865.2 -1.00392 -3.28293 0
M  V30 9481 N 867.645 1.57599 0.00500368 0
M  V30 9482 C 868.595 2.04585 1.00643 0
M  V30 9483 C 869.579 0.939622 1.30614 0
M  V30 9484 O 870.771 1.20342 1.29796 0
M  V30 9485 C 867.9 2.5486 2.30002 0
M  V30 9486 C 866.986 3.7235 2.03017 0
M  V30 9487 N 867.377 4.84218 1.46173 0
M  V30 9488 C 865.675 3.80185 2.33185 0
M  V30 9489 C 866.376 5.65688 1.35544 0
M  V30 9490 N 865.352 5.11536 1.83933 0
M  V30 9491 H 869.154 2.8849 0.561332 0
M  V30 9492 H 866.668 1.61026 0.210808 0
M  V30 9493 H 868.665 2.86794 3.0258 0
M  V30 9494 H 867.325 1.72372 2.75169 0
M  V30 9495 H 868.336 5.0517 1.1412 0
M  V30 9496 H 865.013 3.08543 2.81261 0
M  V30 9497 H 866.403 6.65588 0.918791 0
M  V30 9498 N 869.123 -0.277682 1.55134 0
M  V30 9499 C 870.369 -1.00733 1.76704 0
M  V30 9500 C 870.724 -1.84107 0.55879 0
M  V30 9501 O 870.017 -1.86275 -0.448591 0
M  V30 9502 C 870.211 -1.92599 3.01065 0
M  V30 9503 C 870.04 -1.18266 4.3387 0
M  V30 9504 C 868.81 -0.900254 4.97216 0
M  V30 9505 C 871.008 -0.575419 5.11071 0
M  V30 9506 N 868.99 -0.129637 6.13763 0
M  V30 9507 C 870.361 0.0612637 6.1997 0
M  V30 9508 C 872.416 -0.482794 4.95554 0
M  V30 9509 C 871.119 0.781637 7.15041 0
M  V30 9510 C 873.145 0.223977 5.90976 0
M  V30 9511 C 872.507 0.849416 6.9926 0
M  V30 9512 H 868.606 -0.35075 0.698927 0
M  V30 9513 H 871.19 -0.283482 1.92625 0
M  V30 9514 H 869.361 -2.62214 2.86528 0
M  V30 9515 H 871.093 -2.5889 3.1106 0
M  V30 9516 H 867.848 -1.20434 4.58031 0
M  V30 9517 H 868.272 0.242865 6.76564 0
M  V30 9518 H 872.914 -0.952023 4.11942 0
M  V30 9519 H 870.632 1.26256 7.98176 0
M  V30 9520 H 874.218 0.2959 5.81047 0
M  V30 9521 H 873.098 1.3876 7.71826 0
M  V30 9522 N 870.601 -1.47988 -0.541979 0
M  V30 9523 C 871.549 -1.62044 -1.66867 0
M  V30 9524 C 872.543 -0.487217 -1.62242 0
M  V30 9525 O 873.749 -0.66554 -1.67244 0
M  V30 9526 H 870.124 -0.51024 -0.552412 0
M  V30 9527 H 872.095 -2.56695 -1.52153 0
M  V30 9528 C 870.844 -1.66615 -3.0518 0
M  V30 9529 H 870.167 -2.5317 -3.09427 0
M  V30 9530 H 871.607 -1.80496 -3.83663 0
M  V30 9531 C 870.066 -0.402421 -3.34488 0
M  V30 9532 O 870.596 0.48992 -3.98701 0
M  V30 9533 N 868.802 -0.277778 -2.89269 0
M  V30 9534 H 868.349 -1.00488 -2.37192 0
M  V30 9535 H 868.307 0.566784 -3.09249 0
M  V30 9536 N 872.079 0.78992 -1.36375 0
M  V30 9537 C 873.356 1.53584 -1.21126 0
M  V30 9538 C 873.736 2.10124 0.202785 0
M  V30 9539 O 873.084 1.93936 1.20835 0
M  V30 9540 C 873.294 2.63117 -2.29282 0
M  V30 9541 C 874.642 3.31013 -2.65924 0
M  V30 9542 O 875.666 2.734 -2.28321 0
M  V30 9543 O 874.525 4.35129 -3.30643 0
M  V30 9544 H 871.619 0.679366 -0.471583 0
M  V30 9545 H 874.165 0.828446 -1.48104 0
M  V30 9546 H 872.937 2.19329 -3.24053 0
M  V30 9547 H 872.56 3.41476 -2.03666 0
M  V30 9548 N 873.557 1.20646 1.01402 0
M  V30 9549 C 874.805 1.01618 1.74695 0
M  V30 9550 C 875.126 -0.452438 1.89679 0
M  V30 9551 O 874.396 -1.32693 1.44116 0
M  V30 9552 H 872.976 0.373013 0.647202 0
M  V30 9553 H 875.638 1.518 1.22241 0
M  V30 9554 H 874.734 1.47666 2.74957 0
M  V30 9555 N 875.035 -1.20752 1.01276 0
M  V30 9556 C 875.998 -2.2162 0.584583 0
M  V30 9557 C 876.998 -1.57094 -0.343215 0
M  V30 9558 O 878.188 -1.73696 -0.132433 0
M  V30 9559 C 875.32 -3.40583 -0.146872 0
M  V30 9560 H 876.513 -2.61015 1.47686 0
M  V30 9561 H 874.066 -1.34148 0.802123 0
M  V30 9562 H 874.801 -3.06686 -1.05424 0
M  V30 9563 H 874.586 -3.88642 0.51958 0
M  V30 9564 H 876.076 -4.15339 -0.433924 0
M  V30 9565 N 876.513 -0.788492 -1.36457 0
M  V30 9566 C 877.762 -0.357052 -1.98515 0
M  V30 9567 C 878.075 1.0769 -1.63285 0
M  V30 9568 O 879.281 1.61057 -2.1857 0
M  V30 9569 C 877.737 -0.587449 -3.55073 0
M  V30 9570 C 877.345 -2.03276 -3.99228 0
M  V30 9571 C 879.089 -0.220468 -4.23927 0
M  V30 9572 C 876.996 -2.20987 -5.48561 0
M  V30 9573 H 875.926 -0.129762 -0.74275 0
M  V30 9574 H 878.577 -0.969995 -1.55767 0
M  V30 9575 H 876.959 0.0951918 -3.95886 0
M  V30 9576 H 878.133 -2.75173 -3.69617 0
M  V30 9577 H 876.448 -2.3579 -3.43208 0
M  V30 9578 H 879.045 -0.331085 -5.33674 0
M  V30 9579 H 879.388 0.831306 -4.07915 0
M  V30 9580 H 879.921 -0.856309 -3.88474 0
M  V30 9581 H 876.66 -3.24543 -5.69519 0
M  V30 9582 H 876.18 -1.53594 -5.79801 0
M  V30 9583 H 877.859 -2.01656 -6.14771 0
M  V30 9584 N 877.991 1.48044 -0.54043 0
M  V30 9585 C 878.921 2.32597 0.205178 0
M  V30 9586 C 879.902 1.42748 0.925041 0
M  V30 9587 O 881.087 1.71624 0.908784 0
M  V30 9588 C 878.217 3.24175 1.24612 0
M  V30 9589 C 877.171 4.23131 0.64376 0
M  V30 9590 C 876.497 5.03915 1.78812 0
M  V30 9591 C 877.797 5.20831 -0.39144 0
M  V30 9592 H 879.491 2.95184 -0.500676 0
M  V30 9593 H 877.037 1.41948 -0.242225 0
M  V30 9594 H 878.99 3.82158 1.77576 0
M  V30 9595 H 877.714 2.59608 1.98169 0
M  V30 9596 H 876.373 3.66349 0.135554 0
M  V30 9597 H 876.021 4.35765 2.51232 0
M  V30 9598 H 875.721 5.709 1.39094 0
M  V30 9599 H 877.245 5.64753 2.32134 0
M  V30 9600 H 878.659 5.73277 0.0515064 0
M  V30 9601 H 877.056 5.95926 -0.706569 0
M  V30 9602 H 878.126 4.6733 -1.29345 0
M  V30 9603 N 879.47 0.276058 1.55163 0
M  V30 9604 C 880.718 -0.339782 1.99223 0
M  V30 9605 C 881.039 -1.56307 1.16589 0
M  V30 9606 O 880.309 -1.94225 0.25564 0
M  V30 9607 H 878.889 -0.128534 0.735859 0
M  V30 9608 H 881.551 0.381612 1.91128 0
M  V30 9609 H 880.647 -0.629 3.05696 0
M  V30 9610 N 880.948 -1.576 0.00335426 0
M  V30 9611 C 882.195 -1.90713 -0.680791 0
M  V30 9612 C 882.523 -0.877263 -1.73592 0
M  V30 9613 O 881.778 0.117497 -1.95347 0
M  V30 9614 C 882.077 -3.3058 -1.35837 0
M  V30 9615 C 881.743 -4.48786 -0.436111 0
M  V30 9616 C 880.405 -4.80855 -0.182195 0
M  V30 9617 C 882.757 -5.20821 0.198677 0
M  V30 9618 C 880.085 -5.8233 0.714747 0
M  V30 9619 C 882.437 -6.23252 1.08351 0
M  V30 9620 C 881.101 -6.53776 1.34658 0
M  V30 9621 H 880.371 -0.697869 -0.249119 0
M  V30 9622 H 883.018 -1.91407 0.0596011 0
M  V30 9623 H 881.323 -3.26026 -2.17289 0
M  V30 9624 H 883.02 -3.53462 -1.89383 0
M  V30 9625 H 879.61 -4.23731 -0.644186 0
M  V30 9626 H 883.794 -4.96298 0.0155259 0
M  V30 9627 H 879.05 -6.04339 0.926529 0
M  V30 9628 H 883.224 -6.78199 1.58172 0
M  V30 9629 H 880.851 -7.32225 2.04328 0
M  V30 9630 N 882.426 0.269451 -1.5528 0
M  V30 9631 C 883.672 1.00206 -1.76314 0
M  V30 9632 C 884.005 1.85812 -0.564581 0
M  V30 9633 O 883.28 1.89509 0.437769 0
M  V30 9634 C 883.563 1.88163 -3.07029 0
M  V30 9635 C 883.416 1.05527 -4.37246 0
M  V30 9636 C 884.735 2.8681 -3.33808 0
M  V30 9637 H 881.854 0.36288 -0.641473 0
M  V30 9638 H 884.496 0.274188 -1.88011 0
M  V30 9639 H 882.646 2.50224 -2.97187 0
M  V30 9640 H 884.318 0.455094 -4.5905 0
M  V30 9641 H 882.561 0.358842 -4.32313 0
M  V30 9642 H 883.232 1.70397 -5.25042 0
M  V30 9643 H 885.708 2.34884 -3.43466 0
M  V30 9644 H 884.584 3.45492 -4.26528 0
M  V30 9645 H 884.845 3.62118 -2.5362 0
M  V30 9646 N 883.904 1.48273 0.534124 0
M  V30 9647 C 884.852 1.62926 1.66005 0
M  V30 9648 C 885.846 0.495814 1.61982 0
M  V30 9649 O 887.052 0.6744 1.66889 0
M  V30 9650 H 883.427 0.513163 0.549698 0
M  V30 9651 H 885.398 2.57498 1.50789 0
M  V30 9652 C 884.147 1.68231 3.04292 0
M  V30 9653 H 883.47 2.54807 3.0808 0
M  V30 9654 H 884.91 1.82528 3.827 0
M  V30 9655 C 883.369 0.420154 3.3427 0
M  V30 9656 O 883.899 -0.468769 3.98955 0
M  V30 9657 N 882.105 0.293115 2.89118 0
M  V30 9658 H 881.652 1.01745 2.36655 0
M  V30 9659 H 881.61 -0.550376 3.09545 0
M  V30 9660 N 885.382 -0.782676 1.36792 0
M  V30 9661 C 886.329 -1.89558 1.31667 0
M  V30 9662 C 887.299 -1.65076 0.184147 0
M  V30 9663 O 888.484 -1.87143 0.371753 0
M  V30 9664 C 885.624 -3.26469 1.11858 0
M  V30 9665 C 884.737 -3.62978 2.34245 0
M  V30 9666 C 883.872 -4.89041 2.07394 0
M  V30 9667 C 882.911 -5.18249 3.25706 0
M  V30 9668 N 882.048 -6.35497 2.98476 0
M  V30 9669 H 886.888 -1.93274 2.26824 0
M  V30 9670 H 884.425 -0.945057 1.12726 0
M  V30 9671 H 886.383 -4.05431 0.983968 0
M  V30 9672 H 885.013 -3.22158 0.203531 0
M  V30 9673 H 884.065 -2.79087 2.58485 0
M  V30 9674 H 885.377 -3.80507 3.22514 0
M  V30 9675 H 884.531 -5.75883 1.90901 0
M  V30 9676 H 883.27 -4.73594 1.16446 0
M  V30 9677 H 882.275 -4.29887 3.4275 0
M  V30 9678 H 883.5 -5.35611 4.1749 0
M  V30 9679 H 881.446 -6.21429 2.10146 0
M  V30 9680 H 881.363 -6.5339 3.80286 0
M  V30 9681 H 882.631 -7.25304 2.85577 0
M  V30 9682 N 886.86 -1.21182 -1.00761 0
M  V30 9683 C 887.792 -0.926523 -2.09638 0
M  V30 9684 C 888.805 0.0892511 -1.62555 0
M  V30 9685 O 889.994 -0.142915 -1.77927 0
M  V30 9686 C 887.094 -0.369175 -3.36883 0
M  V30 9687 C 886.267 -1.43866 -4.13063 0
M  V30 9688 C 885.326 -0.891015 -5.18601 0
M  V30 9689 O 884.352 -1.57384 -5.47009 0
M  V30 9690 N 885.554 0.295057 -5.7975 0
M  V30 9691 H 888.319 -1.8638 -2.34697 0
M  V30 9692 H 885.88 -1.11671 -1.17223 0
M  V30 9693 H 887.872 0.011534 -4.04698 0
M  V30 9694 H 886.442 0.472861 -3.09003 0
M  V30 9695 H 885.662 -1.99332 -3.40089 0
M  V30 9696 H 886.95 -2.15866 -4.60738 0
M  V30 9697 H 886.348 0.8669 -5.59018 0
M  V30 9698 H 884.905 0.617306 -6.4887 0
M  V30 9699 N 888.338 1.20213 -1.01915 0
M  V30 9700 C 889.27 2.2251 -0.549725 0
M  V30 9701 C 890.283 1.58558 0.369235 0
M  V30 9702 O 891.472 1.77715 0.167176 0
M  V30 9703 C 888.572 3.38189 0.219432 0
M  V30 9704 C 887.745 4.31729 -0.702066 0
M  V30 9705 C 886.804 5.26196 0.0199624 0
M  V30 9706 O 885.83 5.65993 -0.60339 0
M  V30 9707 N 887.032 5.65895 1.29397 0
M  V30 9708 H 889.797 2.63412 -1.42948 0
M  V30 9709 H 887.358 1.3478 -0.896987 0
M  V30 9710 H 889.35 3.98392 0.711763 0
M  V30 9711 H 887.92 2.96156 1.00051 0
M  V30 9712 H 887.14 3.69455 -1.37466 0
M  V30 9713 H 888.428 4.91145 -1.3287 0
M  V30 9714 H 887.826 5.35579 1.8213 0
M  V30 9715 H 886.383 6.28395 1.73098 0
M  V30 9716 N 889.816 0.795718 1.36037 0
M  V30 9717 C 890.779 0.204318 2.28287 0
M  V30 9718 C 891.779 -0.602017 1.49105 0
M  V30 9719 O 892.969 -0.422089 1.69009 0
M  V30 9720 C 890.101 -0.716431 3.33287 0
M  V30 9721 H 891.294 1.01781 2.821 0
M  V30 9722 H 888.847 0.565588 1.45708 0
M  V30 9723 H 889.582 -1.55403 2.84641 0
M  V30 9724 H 889.367 -0.140096 3.9185 0
M  V30 9725 H 890.857 -1.12488 4.02164 0
M  V30 9726 N 891.294 -1.47756 0.548274 0
M  V30 9727 C 892.244 -2.26891 -0.224628 0
M  V30 9728 C 893.228 -1.33816 -0.893421 0
M  V30 9729 O 894.42 -1.58232 -0.793204 0
M  V30 9730 C 891.549 -3.19358 -1.25959 0
M  V30 9731 C 890.635 -4.1991 -0.594662 0
M  V30 9732 N 891.026 -5.04721 0.330148 0
M  V30 9733 C 889.324 -4.37832 -0.849672 0
M  V30 9734 C 890.025 -5.77282 0.71553 0
M  V30 9735 N 889.001 -5.43552 0.0723997 0
M  V30 9736 H 892.803 -2.89844 0.486561 0
M  V30 9737 H 890.317 -1.58185 0.367577 0
M  V30 9738 H 892.314 -3.74726 -1.82718 0
M  V30 9739 H 890.974 -2.57961 -1.97196 0
M  V30 9740 H 891.985 -5.13095 0.703811 0
M  V30 9741 H 888.662 -3.87612 -1.55123 0
M  V30 9742 H 890.052 -6.55512 1.47493 0
M  V30 9743 N 892.772 -0.284283 -1.55015 0
M  V30 9744 C 894.049 0.382125 -1.91831 0
M  V30 9745 C 894.429 1.73007 -1.20962 0
M  V30 9746 O 893.777 2.25962 -0.339594 0
M  V30 9747 C 893.987 0.513341 -3.45204 0
M  V30 9748 C 895.335 0.791989 -4.17148 0
M  V30 9749 O 896.359 0.597799 -3.51148 0
M  V30 9750 O 895.218 1.16394 -5.33961 0
M  V30 9751 H 892.312 0.210707 -0.799707 0
M  V30 9752 H 894.858 -0.331111 -1.66438 0
M  V30 9753 H 893.63 -0.434911 -3.88876 0
M  V30 9754 H 893.253 1.27569 -3.76579 0
M  V30 9755 N 894.251 1.57596 -0.0117121 0
M  V30 9756 C 895.181 2.12188 0.9746 0
M  V30 9757 C 896.162 1.03379 1.35081 0
M  V30 9758 O 897.347 1.31123 1.4325 0
M  V30 9759 C 894.477 2.63477 2.26268 0
M  V30 9760 C 893.431 3.76917 2.02774 0
M  V30 9761 C 892.757 4.14566 3.37697 0
M  V30 9762 C 894.057 5.03715 1.38089 0
M  V30 9763 H 895.751 2.9485 0.520007 0
M  V30 9764 H 893.297 1.41836 0.248685 0
M  V30 9765 H 895.25 3.00299 2.95633 0
M  V30 9766 H 893.974 1.77953 2.73862 0
M  V30 9767 H 892.633 3.40507 1.35832 0
M  V30 9768 H 892.281 3.26048 3.83016 0
M  V30 9769 H 891.981 4.91 3.22789 0
M  V30 9770 H 893.505 4.53956 4.08358 0
M  V30 9771 H 894.919 5.38233 1.97428 0
M  V30 9772 H 893.316 5.85032 1.33634 0
M  V30 9773 H 894.386 4.83624 0.351575 0
M  V30 9774 N 895.729 -0.261212 1.5542 0
M  V30 9775 C 896.659 -1.32712 1.92119 0
M  V30 9776 C 897.64 -1.50934 0.784406 0
M  V30 9777 O 898.825 -1.63781 1.04352 0
M  V30 9778 C 895.955 -2.68453 2.20341 0
M  V30 9779 C 894.909 -2.64947 3.36136 0
M  V30 9780 C 894.235 -4.04349 3.49865 0
M  V30 9781 C 895.535 -2.23182 4.72215 0
M  V30 9782 H 897.229 -1.02245 2.81401 0
M  V30 9783 H 894.775 -0.490406 1.35392 0
M  V30 9784 H 896.728 -3.43144 2.44603 0
M  V30 9785 H 895.452 -3.00527 1.27871 0
M  V30 9786 H 894.111 -1.92714 3.11861 0
M  V30 9787 H 893.759 -4.33665 2.5484 0
M  V30 9788 H 893.459 -4.02895 4.27726 0
M  V30 9789 H 894.983 -4.80761 3.76432 0
M  V30 9790 H 896.397 -2.87599 4.95943 0
M  V30 9791 H 894.794 -2.32867 5.53076 0
M  V30 9792 H 895.864 -1.18327 4.70241 0
M  V30 9793 N 897.207 -1.48554 -0.526253 0
M  V30 9794 C 898.456 -1.56014 -1.27837 0
M  V30 9795 C 898.769 -0.240643 -1.94114 0
M  V30 9796 O 899.975 -0.193525 -2.70809 0
M  V30 9797 C 898.431 -2.75161 -2.31979 0
M  V30 9798 C 898.039 -4.13768 -1.71755 0
M  V30 9799 C 899.783 -2.91936 -3.08178 0
M  V30 9800 C 897.69 -5.24171 -2.7386 0
M  V30 9801 H 896.62 -0.58082 -0.480795 0
M  V30 9802 H 899.271 -1.74895 -0.555335 0
M  V30 9803 H 897.653 -2.49722 -3.07335 0
M  V30 9804 H 898.827 -4.49241 -1.02563 0
M  V30 9805 H 897.142 -4.02141 -1.08036 0
M  V30 9806 H 899.739 -3.71586 -3.84484 0
M  V30 9807 H 900.082 -2.01533 -3.64267 0
M  V30 9808 H 900.615 -3.17294 -2.39937 0
M  V30 9809 H 897.354 -6.16552 -2.22586 0
M  V30 9810 H 896.874 -4.93181 -3.41368 0
M  V30 9811 H 898.553 -5.52442 -3.36774 0
M  V30 9812 N 898.685 0.775411 -1.37205 0
M  V30 9813 C 899.633 1.90996 -1.32752 0
M  V30 9814 C 900.627 1.68006 -0.216907 0
M  V30 9815 O 901.833 1.7584 -0.384723 0
M  V30 9816 H 898.208 0.62803 -0.413621 0
M  V30 9817 H 900.179 1.91869 -2.28536 0
M  V30 9818 C 898.928 3.28211 -1.14772 0
M  V30 9819 H 898.251 3.46477 -1.99484 0
M  V30 9820 H 899.691 4.07907 -1.15706 0
M  V30 9821 C 898.15 3.3658 0.146852 0
M  V30 9822 O 898.68 3.85428 1.13173 0
M  V30 9823 N 896.886 2.89936 0.196305 0
M  V30 9824 H 896.433 2.50375 -0.605807 0
M  V30 9825 H 896.391 2.95916 1.06212 0
M  V30 9826 N 900.163 1.21714 1.00117 0
M  V30 9827 C 901.11 0.979837 2.08968 0
M  V30 9828 C 902.08 -0.0955324 1.65825 0
M  V30 9829 O 903.265 0.0523742 1.90728 0
M  V30 9830 C 900.405 0.554758 3.40612 0
M  V30 9831 C 899.518 1.69999 3.97145 0
M  V30 9832 C 898.653 1.2237 5.16913 0
M  V30 9833 C 897.692 2.34101 5.65564 0
M  V30 9834 N 896.829 1.87579 6.76579 0
M  V30 9835 H 901.669 1.91167 2.28602 0
M  V30 9836 H 899.206 0.952645 1.12085 0
M  V30 9837 H 901.164 0.289526 4.16194 0
M  V30 9838 H 899.794 -0.340073 3.21004 0
M  V30 9839 H 898.846 2.07976 3.18512 0
M  V30 9840 H 900.158 2.54074 4.29241 0
M  V30 9841 H 899.312 0.915358 5.99755 0
M  V30 9842 H 898.051 0.353045 4.8642 0
M  V30 9843 H 897.056 2.65734 4.81316 0
M  V30 9844 H 898.281 3.21669 5.98085 0
M  V30 9845 H 896.227 1.02863 6.47885 0
M  V30 9846 H 896.144 2.65225 7.07949 0
M  V30 9847 H 897.412 1.5979 7.62947 0
M  V30 9848 N 901.641 -1.19671 1.02551 0
M  V30 9849 C 903.052 -1.70964 0.750208 0
M  V30 9850 C 903.403 -1.82095 -0.730461 0
M  V30 9851 O 902.528 -1.48974 -1.56958 0
M  V30 9852 C 903.123 -3.10516 1.35518 0
M  V30 9853 C 901.682 -3.59083 1.12854 0
M  V30 9854 C 900.829 -2.36041 1.45534 0
M  V30 9855 H 903.78 -1.04559 1.19386 0
M  V30 9856 H 903.801 -3.73028 0.750378 0
M  V30 9857 H 903.313 -3.02383 2.43282 0
M  V30 9858 H 901.414 -3.72536 0.0689627 0
M  V30 9859 H 901.527 -4.43395 1.81488 0
M  V30 9860 H 899.891 -2.39214 0.87458 0
M  V30 9861 H 900.674 -2.3054 2.54374 0
M  V30 9862 N 903.119 -0.802921 -1.35613 0
M  V30 9863 C 904.396 -0.304993 -1.93208 0
M  V30 9864 C 904.776 1.20488 -1.73337 0
M  V30 9865 O 904.124 2.00268 -1.10022 0
M  V30 9866 C 904.334 -0.712383 -3.41652 0
M  V30 9867 C 905.682 -0.699785 -4.18794 0
M  V30 9868 O 906.706 -0.653698 -3.5015 0
M  V30 9869 O 905.565 -0.754842 -5.41262 0
M  V30 9870 H 902.659 -0.0789127 -0.823226 0
M  V30 9871 H 905.205 -0.886372 -1.44712 0
M  V30 9872 H 903.977 -1.75316 -3.49829 0
M  V30 9873 H 903.6 -0.105614 -3.9746 0
M  V30 9874 N 904.597 1.47463 -0.556102 0
M  V30 9875 C 905.845 2.02075 -0.0315712 0
M  V30 9876 C 906.166 1.43292 1.32259 0
M  V30 9877 O 905.436 0.60771 1.86236 0
M  V30 9878 H 904.016 0.74695 -0.0086816 0
M  V30 9879 H 906.678 1.80879 -0.725859 0
M  V30 9880 H 905.774 3.12047 0.0573538 0
M  V30 9881 N 906.075 0.2925 1.54862 0
M  V30 9882 C 907.303 -0.322113 2.04377 0
M  V30 9883 C 907.718 -1.48164 1.17016 0
M  V30 9884 O 907.075 -1.81466 0.19395 0
M  V30 9885 C 907.126 -0.786506 3.5284 0
M  V30 9886 O 906.847 0.326863 4.36879 0
M  V30 9887 C 908.348 -1.46715 4.18318 0
M  V30 9888 H 905.568 -0.0712074 0.667211 0
M  V30 9889 H 908.112 0.429657 1.99935 0
M  V30 9890 H 906.267 -1.48832 3.5767 0
M  V30 9891 H 906.681 -0.0331558 5.2449 0
M  V30 9892 H 908.155 -1.74333 5.23748 0
M  V30 9893 H 908.632 -2.40443 3.67538 0
M  V30 9894 H 909.238 -0.808735 4.1754 0
M  V30 9895 N 907.553 -1.57587 0.0200696 0
M  V30 9896 C 908.8 -1.91424 -0.660525 0
M  V30 9897 C 909.128 -0.895626 -1.72652 0
M  V30 9898 O 908.383 0.096771 -1.95461 0
M  V30 9899 C 908.682 -3.32002 -1.32323 0
M  V30 9900 C 908.348 -4.49223 -0.388487 0
M  V30 9901 C 907.01 -4.81021 -0.131184 0
M  V30 9902 C 909.362 -5.20581 0.253906 0
M  V30 9903 C 906.69 -5.81539 0.776471 0
M  V30 9904 C 909.042 -6.22067 1.14956 0
M  V30 9905 C 907.706 -6.52311 1.41584 0
M  V30 9906 H 906.976 -0.700472 -0.241703 0
M  V30 9907 H 909.623 -1.91333 0.0798991 0
M  V30 9908 H 907.928 -3.28312 -2.13819 0
M  V30 9909 H 909.625 -3.5545 -1.85623 0
M  V30 9910 H 906.215 -4.24391 -0.599207 0
M  V30 9911 H 910.399 -4.96253 0.068164 0
M  V30 9912 H 905.655 -6.03322 0.990575 0
M  V30 9913 H 909.829 -6.76484 1.65357 0
M  V30 9914 H 907.456 -7.30017 2.12083 0
M  V30 9915 N 909.032 0.252966 -1.55557 0
M  V30 9916 C 909.962 1.31691 -1.9282 0
M  V30 9917 C 910.943 1.50516 -0.7924 0
M  V30 9918 O 912.128 1.63225 -1.05219 0
M  V30 9919 C 909.258 2.67281 -2.21762 0
M  V30 9920 C 908.212 2.6316 -3.37536 0
M  V30 9921 C 907.538 4.02488 -3.52005 0
M  V30 9922 C 908.838 2.20675 -4.73392 0
M  V30 9923 H 910.532 1.00751 -2.81939 0
M  V30 9924 H 908.078 0.483219 -1.3565 0
M  V30 9925 H 910.031 3.41842 -2.46419 0
M  V30 9926 H 908.755 2.99845 -1.29463 0
M  V30 9927 H 907.414 1.91057 -3.12878 0
M  V30 9928 H 907.062 4.32307 -2.57137 0
M  V30 9929 H 906.762 4.00621 -4.29857 0
M  V30 9930 H 908.286 4.78758 -3.78977 0
M  V30 9931 H 909.7 2.84965 -4.97461 0
M  V30 9932 H 908.097 2.29931 -5.54303 0
M  V30 9933 H 909.167 1.15831 -4.70862 0
M  V30 9934 N 910.51 1.48831 0.518367 0
M  V30 9935 C 911.44 1.67119 1.63075 0
M  V30 9936 C 912.421 0.519948 1.61958 0
M  V30 9937 O 913.606 0.753824 1.78972 0
M  V30 9938 C 910.736 1.72158 3.01627 0
M  V30 9939 C 909.69 2.86898 3.17606 0
M  V30 9940 C 909.016 2.77035 4.57335 0
M  V30 9941 C 910.316 4.28057 2.99274 0
M  V30 9942 H 912.01 2.60248 1.48025 0
M  V30 9943 H 909.556 1.2524 0.710694 0
M  V30 9944 H 911.509 1.83539 3.7933 0
M  V30 9945 H 910.233 0.756157 3.17726 0
M  V30 9946 H 908.892 2.75091 2.42323 0
M  V30 9947 H 908.54 1.78438 4.70286 0
M  V30 9948 H 908.24 3.54036 4.6897 0
M  V30 9949 H 909.764 2.904 5.37122 0
M  V30 9950 H 911.178 4.40636 3.6676 0
M  V30 9951 H 909.575 5.06145 3.22393 0
M  V30 9952 H 910.645 4.4371 1.95574 0
M  V30 9953 N 911.988 -0.768124 1.37614 0
M  V30 9954 C 913.404 -1.06919 1.18493 0
M  V30 9955 C 913.604 -2.01486 0.0235753 0
M  V30 9956 O 912.66 -2.4438 -0.635209 0
M  V30 9957 C 913.973 -1.66321 2.50515 0
M  V30 9958 C 915.521 -1.78562 2.57069 0
M  V30 9959 C 915.996 -2.41377 3.89231 0
M  V30 9960 N 917.487 -2.48824 3.90693 0
M  V30 9961 C 918.222 -2.98288 4.89706 0
M  V30 9962 N 917.718 -3.47897 5.99115 0
M  V30 9963 N 919.511 -2.97196 4.77107 0
M  V30 9964 H 911.662 -0.140286 2.11936 0
M  V30 9965 H 913.925 -0.124863 0.939741 0
M  V30 9966 H 913.631 -1.04303 3.35878 0
M  V30 9967 H 913.505 -2.65571 2.67866 0
M  V30 9968 H 915.892 -2.39712 1.72111 0
M  V30 9969 H 915.973 -0.780574 2.43599 0
M  V30 9970 H 915.617 -1.80866 4.74605 0
M  V30 9971 H 915.547 -3.42495 4.00006 0
M  V30 9972 H 918.038 -2.1372 3.1166 0
M  V30 9973 H 918.351 -3.84053 6.70614 0
M  V30 9974 H 916.696 -3.45993 6.02755 0
M  V30 9975 H 919.887 -2.57741 3.90752 0
M  V30 9976 H 920.06 -3.35434 5.54426 0
M  V30 9977 N 913.466 -1.22244 -0.994698 0
M  V30 9978 C 914.713 -1.04591 -1.73398 0
M  V30 9979 C 915.041 0.419223 -1.89928 0
M  V30 9980 O 914.296 1.32714 -1.43824 0
M  V30 9981 C 914.595 -1.70014 -3.14372 0
M  V30 9982 C 914.261 -3.19903 -3.17762 0
M  V30 9983 C 912.923 -3.60803 -3.18394 0
M  V30 9984 C 915.275 -4.15851 -3.14194 0
M  V30 9985 C 912.603 -4.96135 -3.13157 0
M  V30 9986 C 914.955 -5.51157 -3.10498 0
M  V30 9987 C 913.619 -5.91439 -3.09445 0
M  V30 9988 H 912.889 -0.382725 -0.63451 0
M  V30 9989 H 915.536 -1.51981 -1.16508 0
M  V30 9990 H 913.841 -1.14945 -3.7456 0
M  V30 9991 H 915.538 -1.53848 -3.70313 0
M  V30 9992 H 912.128 -2.87336 -3.18019 0
M  V30 9993 H 916.312 -3.85272 -3.12857 0
M  V30 9994 H 911.568 -5.26578 -3.10685 0
M  V30 9995 H 915.742 -6.2523 -3.06692 0
M  V30 9996 H 913.369 -6.96271 -3.05141 0
M  V30 9997 N 914.944 1.19125 -1.03184 0
M  V30 9998 C 916.169 1.93379 -0.749628 0
M  V30 9999 C 916.594 1.75153 0.685785 0
M  V30 10000 O 915.952 1.05579 1.47386 0
M  V30 10001 C 916 3.43101 -1.1097 0
M  V30 10002 O 915.104 4.11758 -0.230053 0
M  V30 10003 H 914.445 0.603605 -0.276689 0
M  V30 10004 H 916.975 1.51116 -1.37931 0
M  V30 10005 H 916.985 3.93778 -1.06785 0
M  V30 10006 H 915.66 3.55688 -2.15544 0
M  V30 10007 H 914.237 3.7143 -0.330748 0
M  V30 10008 N 916.422 0.810101 1.35185 0
M  V30 10009 C 917.699 0.315235 1.93043 0
M  V30 10010 C 918.079 -1.19567 1.73974 0
M  V30 10011 O 917.427 -1.99682 1.11083 0
M  V30 10012 C 917.637 0.730492 3.41269 0
M  V30 10013 C 918.985 0.721985 4.18417 0
M  V30 10014 O 920.009 0.672258 3.49799 0
M  V30 10015 O 918.868 0.783535 5.40854 0
M  V30 10016 H 915.962 0.0832774 0.822796 0
M  V30 10017 H 918.508 0.894034 1.4424 0
M  V30 10018 H 917.28 1.77169 3.48894 0
M  V30 10019 H 916.903 0.12669 3.97398 0
M  V30 10020 N 917.9 -1.47166 0.563914 0
M  V30 10021 C 919.125 -2.0735 0.0454698 0
M  V30 10022 C 919.55 -1.41281 -1.24182 0
M  V30 10023 O 918.908 -0.490084 -1.7455 0
M  V30 10024 C 918.956 -3.60378 -0.126453 0
M  V30 10025 O 918.06 -3.94934 -1.18746 0
M  V30 10026 H 917.401 -0.661773 0.0543377 0
M  V30 10027 H 919.931 -1.89086 0.781508 0
M  V30 10028 H 919.941 -4.06593 -0.338554 0
M  V30 10029 H 918.616 -4.07862 0.81373 0
M  V30 10030 H 917.193 -3.60455 -0.955318 0
M  V30 10031 N 919.378 -0.300708 -1.54705 0
M  V30 10032 C 920.288 0.584996 -2.27189 0
M  V30 10033 C 921.304 1.14866 -1.30697 0
M  V30 10034 O 922.48 1.17351 -1.63679 0
M  V30 10035 C 919.545 1.74076 -2.99831 0
M  V30 10036 C 918.606 1.2112 -4.1186 0
M  V30 10037 C 917.839 2.31188 -4.81028 0
M  V30 10038 O 918.062 3.5108 -4.49554 0
M  V30 10039 O 916.996 1.97897 -5.68437 0
M  V30 10040 H 920.822 -0.00298177 -3.037 0
M  V30 10041 H 918.407 -0.0671802 -1.49249 0
M  V30 10042 H 920.289 2.41413 -3.45395 0
M  V30 10043 H 918.964 2.31535 -2.26215 0
M  V30 10044 H 917.871 0.50357 -3.70695 0
M  V30 10045 H 919.204 0.682046 -4.87452 0
M  V30 10046 N 920.856 1.57574 -0.0284266 0
M  V30 10047 C 922.105 1.9095 0.649704 0
M  V30 10048 C 922.418 0.906421 1.7333 0
M  V30 10049 O 923.624 1.1314 2.46803 0
M  V30 10050 C 922.08 3.39061 1.20687 0
M  V30 10051 C 921.688 4.47726 0.156597 0
M  V30 10052 C 923.432 3.81505 1.86156 0
M  V30 10053 C 921.339 5.86935 0.725365 0
M  V30 10054 H 920.269 0.712589 0.24644 0
M  V30 10055 H 922.92 1.83261 -0.0936143 0
M  V30 10056 H 921.302 3.41679 2.00178 0
M  V30 10057 H 922.476 4.56667 -0.6158 0
M  V30 10058 H 920.791 4.14481 -0.399288 0
M  V30 10059 H 923.388 4.82865 2.29665 0
M  V30 10060 H 923.731 3.16529 2.70398 0
M  V30 10061 H 924.264 3.81307 1.13356 0
M  V30 10062 H 921.003 6.55453 -0.0789081 0
M  V30 10063 H 920.523 5.81602 1.46627 0
M  V30 10064 H 922.202 6.35483 1.21532 0
M  V30 10065 N 922.334 -0.244713 1.55689 0
M  V30 10066 C 923.582 -0.970525 1.77272 0
M  V30 10067 C 923.903 -1.85771 0.592804 0
M  V30 10068 O 923.173 -1.91952 -0.391323 0
M  V30 10069 H 921.753 -0.361342 0.653789 0
M  V30 10070 H 924.415 -0.262134 1.93129 0
M  V30 10071 H 923.511 -1.59096 2.68505 0
M  V30 10072 N 923.813 -1.49104 -0.510467 0
M  V30 10073 C 925.061 -1.578 -1.26268 0
M  V30 10074 C 925.382 -0.262349 -1.93227 0
M  V30 10075 O 924.652 0.717624 -1.82283 0
M  V30 10076 H 923.232 -0.581387 -0.46904 0
M  V30 10077 H 925.894 -1.85678 -0.592423 0
M  V30 10078 H 924.99 -2.36919 -2.03165 0
M  V30 10079 N 925.291 0.760815 -1.38019 0
M  V30 10080 C 926.54 1.51506 -1.3315 0
M  V30 10081 C 926.853 1.95444 0.0782124 0
M  V30 10082 O 928.059 2.70352 0.249418 0
M  V30 10083 C 926.515 2.73636 -2.33776 0
M  V30 10084 C 926.123 2.36753 -3.80332 0
M  V30 10085 C 927.867 3.51548 -2.37937 0
M  V30 10086 C 925.774 3.55451 -4.72661 0
M  V30 10087 H 924.704 0.568844 -0.494907 0
M  V30 10088 H 927.355 0.832343 -1.63537 0
M  V30 10089 H 925.737 3.43852 -1.96422 0
M  V30 10090 H 926.911 1.7425 -4.26584 0
M  V30 10091 H 925.226 1.71991 -3.7922 0
M  V30 10092 H 927.823 4.39791 -3.04119 0
M  V30 10093 H 928.166 3.9219 -1.39617 0
M  V30 10094 H 928.699 2.88339 -2.74054 0
M  V30 10095 H 925.438 3.19882 -5.7215 0
M  V30 10096 H 924.958 4.17022 -4.31107 0
M  V30 10097 H 926.637 4.22125 -4.90326 0
M  V30 10098 N 926.769 1.22769 0.988202 0
M  V30 10099 C 927.997 1.08155 1.76381 0
M  V30 10100 C 928.412 -0.367573 1.85187 0
M  V30 10101 O 927.769 -1.25455 1.32541 0
M  V30 10102 C 927.82 1.69193 3.19462 0
M  V30 10103 O 927.541 3.08437 3.11125 0
M  V30 10104 C 929.042 1.59915 4.13451 0
M  V30 10105 H 926.262 0.378908 0.553778 0
M  V30 10106 H 928.806 1.6246 1.24206 0
M  V30 10107 H 926.961 1.18939 3.6869 0
M  V30 10108 H 927.375 3.37916 4.0114 0
M  V30 10109 H 928.849 2.07339 5.1158 0
M  V30 10110 H 929.326 0.556546 4.3566 0
M  V30 10111 H 929.932 2.09497 3.70123 0
M  V30 10112 N 928.247 -1.18576 1.03814 0
M  V30 10113 C 929.496 -1.87822 0.735235 0
M  V30 10114 C 929.809 -1.81069 -0.739819 0
M  V30 10115 O 931.015 -2.45654 -1.15614 0
M  V30 10116 C 929.471 -3.36941 1.26486 0
M  V30 10117 C 929.079 -3.5223 2.76836 0
M  V30 10118 C 930.823 -4.11604 1.03836 0
M  V30 10119 C 928.73 -4.95294 3.23169 0
M  V30 10120 H 927.66 -0.703487 0.271333 0
M  V30 10121 H 930.311 -1.34 1.25365 0
M  V30 10122 H 928.693 -3.90217 0.674318 0
M  V30 10123 H 929.867 -3.09239 3.41625 0
M  V30 10124 H 928.182 -2.90969 2.97869 0
M  V30 10125 H 930.779 -5.17123 1.3597 0
M  V30 10126 H 931.122 -4.16293 -0.0244945 0
M  V30 10127 H 931.655 -3.64494 1.59338 0
M  V30 10128 H 928.394 -4.95772 4.28824 0
M  V30 10129 H 927.914 -5.3901 2.63113 0
M  V30 10130 H 929.593 -5.63996 3.17045 0
M  V30 10131 N 929.725 -0.817259 -1.34754 0
M  V30 10132 C 930.688 -0.240611 -2.27934 0
M  V30 10133 C 931.688 0.578219 -1.50044 0
M  V30 10134 O 932.878 0.395148 -1.69659 0
M  V30 10135 C 930.01 0.663318 -3.34384 0
M  V30 10136 H 931.203 -1.06257 -2.80445 0
M  V30 10137 H 928.756 -0.588697 -1.4479 0
M  V30 10138 H 929.491 1.50855 -2.87077 0
M  V30 10139 H 929.276 0.0777388 -3.92023 0
M  V30 10140 H 930.766 1.06076 -4.03903 0
M  V30 10141 N 931.203 1.46865 -0.571711 0
M  V30 10142 C 932.449 2.03307 -0.0614759 0
M  V30 10143 C 932.804 1.43657 1.27986 0
M  V30 10144 O 932.097 0.588186 1.82348 0
M  V30 10145 C 932.291 3.57323 0.0742311 0
M  V30 10146 C 932.12 4.31909 -1.2524 0
M  V30 10147 C 930.89 4.71246 -1.82361 0
M  V30 10148 C 933.088 4.66137 -2.17304 0
M  V30 10149 N 931.07 5.30535 -3.08878 0
M  V30 10150 C 932.441 5.25881 -3.28404 0
M  V30 10151 C 934.496 4.48066 -2.1712 0
M  V30 10152 C 933.199 5.69461 -4.39439 0
M  V30 10153 C 935.225 4.92656 -3.27176 0
M  V30 10154 C 934.587 5.52461 -4.36997 0
M  V30 10155 H 930.686 0.779293 -0.0650098 0
M  V30 10156 H 933.27 1.79161 -0.762192 0
M  V30 10157 H 931.441 3.81206 0.744095 0
M  V30 10158 H 933.173 4.00408 0.587849 0
M  V30 10159 H 929.928 4.53658 -1.35985 0
M  V30 10160 H 930.352 5.64711 -3.73404 0
M  V30 10161 H 934.994 4.01173 -1.33492 0
M  V30 10162 H 932.712 6.15338 -5.23817 0
M  V30 10163 H 936.298 4.80433 -3.28139 0
M  V30 10164 H 935.178 5.86334 -5.20752 0
M  V30 10165 N 932.681 0.308908 1.54543 0
M  V30 10166 C 933.628 -0.563659 2.23811 0
M  V30 10167 C 934.598 -1.12332 1.22355 0
M  V30 10168 O 935.783 -1.16638 1.50997 0
M  V30 10169 C 932.923 -1.72585 2.98845 0
M  V30 10170 C 932.036 -1.19682 4.1509 0
M  V30 10171 C 931.171 -2.32351 4.77688 0
M  V30 10172 C 930.21 -1.76623 5.86064 0
M  V30 10173 N 929.347 -2.82896 6.42584 0
M  V30 10174 H 934.187 0.0336288 2.97981 0
M  V30 10175 H 931.724 0.0283666 1.47073 0
M  V30 10176 H 933.682 -2.40951 3.40586 0
M  V30 10177 H 932.312 -2.29464 2.27037 0
M  V30 10178 H 931.364 -0.405173 3.78236 0
M  V30 10179 H 932.676 -0.748923 4.93146 0
M  V30 10180 H 931.83 -3.0865 5.22322 0
M  V30 10181 H 930.569 -2.80472 3.98982 0
M  V30 10182 H 929.574 -0.988171 5.40847 0
M  V30 10183 H 930.799 -1.29398 6.66658 0
M  V30 10184 H 928.745 -3.30336 5.66758 0
M  V30 10185 H 928.662 -2.42626 7.16009 0
M  V30 10186 H 929.93 -3.59068 6.91875 0
M  V30 10187 N 934.159 -1.57557 0.0367827 0
M  V30 10188 C 935.406 -1.92114 -0.640185 0
M  V30 10189 C 935.734 -0.913887 -1.71693 0
M  V30 10190 O 934.989 0.0760343 -1.95552 0
M  V30 10191 C 935.288 -3.33387 -1.28794 0
M  V30 10192 C 934.954 -4.4961 -0.340819 0
M  V30 10193 C 933.616 -4.81133 -0.0801574 0
M  V30 10194 C 935.968 -5.20283 0.309106 0
M  V30 10195 C 933.296 -5.80683 0.838107 0
M  V30 10196 C 935.648 -6.20813 1.21547 0
M  V30 10197 C 934.312 -6.50773 1.48495 0
M  V30 10198 H 933.582 -0.702996 -0.23426 0
M  V30 10199 H 936.229 -1.91238 0.100188 0
M  V30 10200 H 934.534 -3.30561 -2.10324 0
M  V30 10201 H 936.231 -3.57399 -1.81843 0
M  V30 10202 H 932.821 -4.25002 -0.554161 0
M  V30 10203 H 937.005 -4.96153 0.120794 0
M  V30 10204 H 932.261 -6.02238 1.05451 0
M  V30 10205 H 936.435 -6.74692 1.72522 0
M  V30 10206 H 934.062 -7.27727 2.19814 0
M  V30 10207 N 935.637 0.236453 -1.55816 0
M  V30 10208 C 936.914 0.986463 -1.68903 0
M  V30 10209 C 937.294 2.02984 -0.579722 0
M  V30 10210 O 936.642 2.24693 0.415389 0
M  V30 10211 C 936.852 1.61038 -3.09625 0
M  V30 10212 C 938.2 2.10829 -3.6856 0
M  V30 10213 O 939.224 1.7096 -3.12492 0
M  V30 10214 O 938.083 2.84064 -4.66873 0
M  V30 10215 H 935.177 0.459837 -0.687371 0
M  V30 10216 H 937.723 0.229412 -1.68142 0
M  V30 10217 H 936.495 0.856232 -3.81817 0
M  V30 10218 H 936.118 2.43336 -3.14441 0
M  V30 10219 N 937.115 1.49373 0.502552 0
M  V30 10220 C 938.34 1.62752 1.28556 0
M  V30 10221 C 938.765 0.298285 1.8572 0
M  V30 10222 O 938.123 -0.733885 1.65782 0
M  V30 10223 C 938.171 2.69778 2.39274 0
M  V30 10224 O 937.275 2.28843 3.43081 0
M  V30 10225 H 936.616 0.544799 0.379592 0
M  V30 10226 H 939.146 1.9555 0.601792 0
M  V30 10227 H 939.156 2.91899 2.8506 0
M  V30 10228 H 937.831 3.66266 1.97033 0
M  V30 10229 H 936.408 2.17047 3.03224 0
M  V30 10230 N 938.594 -0.753485 1.38421 0
M  V30 10231 C 939.526 -1.87692 1.31547 0
M  V30 10232 C 940.539 -1.612 0.227671 0
M  V30 10233 O 941.728 -1.71778 0.485238 0
M  V30 10234 C 938.828 -3.23329 1.01545 0
M  V30 10235 C 938.001 -3.77324 2.21236 0
M  V30 10236 C 937.06 -4.91478 1.87977 0
M  V30 10237 O 936.086 -5.06106 2.60472 0
M  V30 10238 N 937.288 -5.74466 0.834796 0
M  V30 10239 H 940.053 -1.94099 2.28354 0
M  V30 10240 H 937.614 -0.933421 1.32283 0
M  V30 10241 H 939.606 -3.9724 0.773477 0
M  V30 10242 H 938.176 -3.12307 0.135334 0
M  V30 10243 H 937.396 -2.94978 2.61498 0
M  V30 10244 H 938.684 -4.10131 3.01115 0
M  V30 10245 H 938.082 -5.65217 0.233606 0
M  V30 10246 H 936.639 -6.48524 0.652703 0
M  V30 10247 N 940.072 -1.23292 -0.981677 0
M  V30 10248 C 940.982 -1.02964 -2.10798 0
M  V30 10249 C 941.998 0.0254674 -1.73981 0
M  V30 10250 O 943.174 -0.169706 -2.00684 0
M  V30 10251 C 940.239 -0.621934 -3.41076 0
M  V30 10252 C 939.3 -1.75194 -3.91926 0
M  V30 10253 C 938.533 -1.36359 -5.15986 0
M  V30 10254 O 938.756 -0.247265 -5.69864 0
M  V30 10255 O 937.69 -2.18421 -5.60871 0
M  V30 10256 H 941.516 -1.97354 -2.30836 0
M  V30 10257 H 939.101 -1.01986 -1.09175 0
M  V30 10258 H 940.983 -0.405446 -4.19445 0
M  V30 10259 H 939.658 0.29299 -3.22371 0
M  V30 10260 H 938.565 -2.02305 -3.1468 0
M  V30 10261 H 939.898 -2.64513 -4.15083 0
M  V30 10262 N 941.55 1.18024 -1.04442 0
M  V30 10263 C 942.966 1.40107 -0.76435 0
M  V30 10264 C 943.166 1.90914 0.644516 0
M  V30 10265 O 942.222 2.0959 1.40813 0
M  V30 10266 C 943.535 2.39851 -1.81361 0
M  V30 10267 C 945.083 2.53571 -1.83496 0
M  V30 10268 C 945.558 3.56583 -2.87424 0
M  V30 10269 N 947.049 3.64094 -2.86339 0
M  V30 10270 C 947.784 4.43537 -3.63405 0
M  V30 10271 N 947.28 5.26557 -4.50233 0
M  V30 10272 N 949.073 4.38336 -3.51877 0
M  V30 10273 H 941.224 0.833726 -1.95353 0
M  V30 10274 H 943.487 0.42881 -0.845474 0
M  V30 10275 H 943.193 2.09576 -2.82438 0
M  V30 10276 H 943.067 3.39251 -1.6489 0
M  V30 10277 H 945.454 2.83161 -0.830883 0
M  V30 10278 H 945.535 1.54272 -2.04044 0
M  V30 10279 H 945.179 3.27733 -3.88012 0
M  V30 10280 H 945.109 4.55569 -2.6413 0
M  V30 10281 H 947.6 3.04814 -2.23376 0
M  V30 10282 H 947.913 5.84336 -5.05738 0
M  V30 10283 H 946.258 5.25964 -4.54298 0
M  V30 10284 H 949.449 3.72528 -2.83444 0
M  V30 10285 H 949.622 5.00007 -4.12186 0
M  V30 10286 N 943.028 0.824394 1.34319 0
M  V30 10287 C 943.961 0.192544 2.27386 0
M  V30 10288 C 944.939 -0.651901 1.4896 0
M  V30 10289 O 946.123 -0.615321 1.78174 0
M  V30 10290 C 943.25 -0.730958 3.30718 0
M  V30 10291 C 942.296 0.0361484 4.26485 0
M  V30 10292 S 943.129 1.3843 5.17298 0
M  V30 10293 C 944.285 0.465713 6.24165 0
M  V30 10294 H 944.518 0.981573 2.80629 0
M  V30 10295 H 942.051 0.620371 1.41389 0
M  V30 10296 H 944.009 -1.25822 3.90742 0
M  V30 10297 H 942.67 -1.49352 2.7632 0
M  V30 10298 H 941.863 -0.665969 4.99581 0
M  V30 10299 H 941.465 0.494011 3.70723 0
M  V30 10300 H 943.757 -0.342157 6.76635 0
M  V30 10301 H 944.7 1.16639 6.98427 0
M  V30 10302 H 945.108 0.0534895 5.64475 0
M  V30 10303 N 944.506 -1.46559 0.579492 0
M  V30 10304 C 945.753 -2.02399 0.0638418 0
M  V30 10305 C 946.081 -1.45135 -1.29484 0
M  V30 10306 O 945.336 -0.605061 -1.86112 0
M  V30 10307 C 945.635 -3.57357 -0.0552803 0
M  V30 10308 C 945.301 -4.33646 1.23539 0
M  V30 10309 C 943.963 -4.54207 1.589 0
M  V30 10310 C 946.315 -4.77476 2.08965 0
M  V30 10311 C 943.643 -5.1585 2.79492 0
M  V30 10312 C 945.995 -5.4045 3.2878 0
M  V30 10313 C 944.659 -5.5924 3.64427 0
M  V30 10314 H 943.929 -0.740632 0.0233614 0
M  V30 10315 H 946.576 -1.75968 0.755482 0
M  V30 10316 H 944.881 -3.82907 -0.83003 0
M  V30 10317 H 946.578 -3.98237 -0.469964 0
M  V30 10318 H 943.168 -4.17937 0.9501 0
M  V30 10319 H 947.352 -4.61349 1.8295 0
M  V30 10320 H 942.608 -5.28589 3.07252 0
M  V30 10321 H 946.782 -5.73371 3.95245 0
M  V30 10322 H 944.409 -6.06775 4.57961 0
M  V30 10323 N 945.984 -0.3171 -1.54377 0
M  V30 10324 C 947.23 0.280631 -2.01455 0
M  V30 10325 C 947.585 1.50282 -1.20138 0
M  V30 10326 O 946.878 1.89634 -0.273785 0
M  V30 10327 C 947.072 0.672917 -3.51008 0
M  V30 10328 C 946.901 -0.509709 -4.46802 0
M  V30 10329 C 945.671 -1.00679 -4.95168 0
M  V30 10330 C 947.869 -1.35984 -4.95997 0
M  V30 10331 N 945.851 -2.1545 -5.74852 0
M  V30 10332 C 947.222 -2.35481 -5.73541 0
M  V30 10333 C 949.277 -1.38836 -4.78152 0
M  V30 10334 C 947.98 -3.37625 -6.35139 0
M  V30 10335 C 950.006 -2.39847 -5.40581 0
M  V30 10336 C 949.368 -3.38071 -6.1797 0
M  V30 10337 H 945.467 0.0667107 -0.779149 0
M  V30 10338 H 948.051 -0.450672 -1.89412 0
M  V30 10339 H 946.222 1.37336 -3.63309 0
M  V30 10340 H 947.954 1.25156 -3.84861 0
M  V30 10341 H 944.709 -0.579125 -4.70046 0
M  V30 10342 H 945.133 -2.73324 -6.19373 0
M  V30 10343 H 949.775 -0.642643 -4.17887 0
M  V30 10344 H 947.493 -4.13106 -6.94528 0
M  V30 10345 H 951.079 -2.42847 -5.28693 0
M  V30 10346 H 949.959 -4.14953 -6.6542 0
M  V30 10347 N 947.462 1.57535 -0.0451378 0
M  V30 10348 C 948.41 2.12351 0.949205 0
M  V30 10349 C 949.404 1.05386 1.32628 0
M  V30 10350 O 950.61 1.23802 1.30664 0
M  V30 10351 H 946.985 0.678648 0.323945 0
M  V30 10352 H 948.956 2.94806 0.461718 0
M  V30 10353 C 947.705 2.67862 2.21687 0
M  V30 10354 H 947.028 3.49826 1.93551 0
M  V30 10355 H 948.468 3.09844 2.89435 0
M  V30 10356 C 946.927 1.61353 2.95748 0
M  V30 10357 O 947.457 1.02276 3.88462 0
M  V30 10358 N 945.663 1.33017 2.5837 0
M  V30 10359 H 945.21 1.81246 1.83051 0
M  V30 10360 H 945.168 0.619812 3.0823 0
M  V30 10361 N 948.94 -0.228186 1.55939 0
M  V30 10362 C 949.87 -1.28607 1.94891 0
M  V30 10363 C 950.851 -1.49236 0.816245 0
M  V30 10364 O 952.036 -1.61531 1.07803 0
M  V30 10365 C 949.166 -2.63719 2.25986 0
M  V30 10366 C 948.12 -2.57757 3.4168 0
M  V30 10367 C 947.446 -3.96837 3.58364 0
M  V30 10368 C 948.746 -2.13116 4.76843 0
M  V30 10369 H 950.44 -0.962531 2.83506 0
M  V30 10370 H 947.986 -0.461577 1.36402 0
M  V30 10371 H 949.939 -3.37878 2.51826 0
M  V30 10372 H 948.663 -2.97747 1.34217 0
M  V30 10373 H 947.322 -1.86055 3.15878 0
M  V30 10374 H 946.97 -4.28162 2.63982 0
M  V30 10375 H 946.67 -3.93731 4.36176 0
M  V30 10376 H 948.194 -4.72668 3.86545 0
M  V30 10377 H 949.608 -2.77015 5.01932 0
M  V30 10378 H 948.005 -2.21083 5.57891 0
M  V30 10379 H 949.075 -1.08326 4.72645 0
M  V30 10380 N 950.418 -1.49637 -0.494624 0
M  V30 10381 C 951.351 -1.61387 -1.61337 0
M  V30 10382 C 952.329 -0.462704 -1.55878 0
M  V30 10383 O 953.513 -0.679103 -1.75842 0
M  V30 10384 C 950.64 -1.57471 -2.99867 0
M  V30 10385 C 949.686 -2.77863 -3.23565 0
M  V30 10386 S 950.519 -4.3946 -3.05999 0
M  V30 10387 C 951.675 -4.382 -4.46914 0
M  V30 10388 H 951.908 -2.56024 -1.51126 0
M  V30 10389 H 949.441 -1.38607 -0.680253 0
M  V30 10390 H 951.399 -1.55898 -3.79745 0
M  V30 10391 H 950.06 -0.641107 -3.07488 0
M  V30 10392 H 949.253 -2.71361 -4.24711 0
M  V30 10393 H 948.855 -2.76882 -2.51421 0
M  V30 10394 H 951.147 -4.10312 -5.3912 0
M  V30 10395 H 952.09 -5.39645 -4.58464 0
M  V30 10396 H 952.498 -3.68197 -4.27891 0
M  V30 10397 N 951.896 0.746133 -1.38819 0
M  V30 10398 C 953.307 1.32384 -1.31648 0
M  V30 10399 C 953.658 1.96185 0.0243086 0
M  V30 10400 O 952.783 1.95567 0.92641 0
M  V30 10401 C 953.378 2.40712 -2.38418 0
M  V30 10402 C 951.937 2.94185 -2.34803 0
M  V30 10403 C 951.084 1.67639 -2.20891 0
M  V30 10404 H 954.035 0.544457 -1.49068 0
M  V30 10405 H 954.056 3.20833 -2.04564 0
M  V30 10406 H 953.568 1.94247 -3.3599 0
M  V30 10407 H 951.669 3.44959 -1.40834 0
M  V30 10408 H 951.782 3.48057 -3.29231 0
M  V30 10409 H 950.146 1.9155 -1.67871 0
M  V30 10410 H 950.929 1.23242 -3.20416 0
M  V30 10411 N 953.375 1.23811 0.975125 0
M  V30 10412 C 954.622 1.07336 1.71712 0
M  V30 10413 C 954.95 -0.388954 1.90571 0
M  V30 10414 O 954.205 -1.30409 1.45918 0
M  V30 10415 C 954.504 1.74994 3.11628 0
M  V30 10416 C 954.17 3.24918 3.12632 0
M  V30 10417 C 952.832 3.65822 3.12614 0
M  V30 10418 C 955.184 4.20797 3.07538 0
M  V30 10419 C 952.512 5.01054 3.05224 0
M  V30 10420 C 954.864 5.56027 3.0169 0
M  V30 10421 C 953.528 5.96287 2.99996 0
M  V30 10422 H 952.798 0.392771 0.62834 0
M  V30 10423 H 955.445 1.53815 1.14075 0
M  V30 10424 H 953.75 1.20889 3.72684 0
M  V30 10425 H 955.447 1.5972 3.67819 0
M  V30 10426 H 952.037 2.92359 3.13407 0
M  V30 10427 H 956.221 3.902 3.06688 0
M  V30 10428 H 951.477 5.31454 3.02268 0
M  V30 10429 H 955.651 6.3003 2.96706 0
M  V30 10430 H 953.278 7.01037 2.94025 0
M  V30 10431 N 954.853 -1.17469 1.05066 0
M  V30 10432 C 956.081 -1.9162 0.780334 0
M  V30 10433 C 956.496 -1.76745 -0.663817 0
M  V30 10434 O 955.853 -1.10377 -1.45338 0
M  V30 10435 C 955.904 -3.42723 1.14992 0
M  V30 10436 O 955.625 -3.57139 2.53739 0
M  V30 10437 C 957.126 -4.33952 0.905549 0
M  V30 10438 H 954.346 -0.608022 0.283814 0
M  V30 10439 H 956.89 -1.4897 1.401 0
M  V30 10440 H 955.045 -3.83124 0.57403 0
M  V30 10441 H 955.459 -4.5075 2.68189 0
M  V30 10442 H 956.933 -5.38487 1.21391 0
M  V30 10443 H 957.41 -4.38911 -0.159295 0
M  V30 10444 H 958.016 -3.99263 1.46522 0
M  V30 10445 N 956.331 -0.831506 -1.3388 0
M  V30 10446 C 957.559 -0.436925 -2.02234 0
M  V30 10447 C 957.974 0.959689 -1.6259 0
M  V30 10448 O 957.331 1.62248 -0.835576 0
M  V30 10449 C 957.382 -0.539429 -3.57453 0
M  V30 10450 O 957.103 -1.88101 -3.95664 0
M  V30 10451 C 958.604 -0.140852 -4.43076 0
M  V30 10452 H 955.824 -0.174302 -0.647966 0
M  V30 10453 H 958.368 -1.12204 -1.70969 0
M  V30 10454 H 956.523 0.0976959 -3.87277 0
M  V30 10455 H 956.937 -1.86131 -4.90363 0
M  V30 10456 H 958.411 -0.26364 -5.5137 0
M  V30 10457 H 958.888 0.916505 -4.29531 0
M  V30 10458 H 959.494 -0.752117 -4.18597 0
M  V30 10459 N 957.809 1.4625 -0.587256 0
M  V30 10460 C 959.225 1.57641 -0.249284 0
M  V30 10461 C 959.425 1.58169 1.24839 0
M  V30 10462 O 958.481 1.50109 2.03036 0
M  V30 10463 C 959.794 2.86837 -0.902509 0
M  V30 10464 C 961.342 3.00476 -0.876524 0
M  V30 10465 C 961.817 4.32414 -1.50938 0
M  V30 10466 N 963.308 4.39124 -1.47392 0
M  V30 10467 C 964.043 5.39838 -1.93293 0
M  V30 10468 N 963.539 6.47202 -2.47188 0
M  V30 10469 N 965.332 5.31068 -1.84183 0
M  V30 10470 H 957.483 1.44151 -1.55994 0
M  V30 10471 H 959.746 0.687905 -0.652297 0
M  V30 10472 H 959.452 2.92274 -1.95624 0
M  V30 10473 H 959.326 3.74927 -0.413466 0
M  V30 10474 H 961.713 2.94618 0.168601 0
M  V30 10475 H 961.794 2.1385 -1.40363 0
M  V30 10476 H 961.438 4.3903 -2.55372 0
M  V30 10477 H 961.368 5.17823 -0.957455 0
M  V30 10478 H 963.859 3.62138 -1.08002 0
M  V30 10479 H 964.172 7.20269 -2.80058 0
M  V30 10480 H 962.517 6.48009 -2.51216 0
M  V30 10481 H 965.708 4.46095 -1.41833 0
M  V30 10482 H 965.881 6.09414 -2.2027 0
M  V30 10483 N 959.287 0.325282 1.54207 0
M  V30 10484 C 960.564 -0.33113 1.92777 0
M  V30 10485 C 960.944 -1.69739 1.25506 0
M  V30 10486 O 960.292 -2.24983 0.399385 0
M  V30 10487 C 960.502 -0.421636 3.46444 0
M  V30 10488 C 961.85 -0.681111 4.19101 0
M  V30 10489 O 962.874 -0.504488 3.52609 0
M  V30 10490 O 961.733 -1.02196 5.3686 0
M  V30 10491 H 958.827 -0.18943 0.805013 0
M  V30 10492 H 961.373 0.375123 1.65502 0
M  V30 10493 H 960.145 0.537862 3.87586 0
M  V30 10494 H 959.768 -1.1754 3.79829 0
M  V30 10495 N 960.765 -1.57509 0.0534917 0
M  V30 10496 C 962.012 -1.92782 -0.619772 0
M  V30 10497 C 962.34 -0.932046 -1.70714 0
M  V30 10498 O 961.595 0.0552891 -1.95622 0
M  V30 10499 C 961.894 -3.34734 -1.25251 0
M  V30 10500 C 961.56 -4.49946 -0.293113 0
M  V30 10501 C 960.222 -4.81191 -0.0291223 0
M  V30 10502 C 962.574 -5.19925 0.364271 0
M  V30 10503 C 959.902 -5.79761 0.899649 0
M  V30 10504 C 962.254 -6.19489 1.28125 0
M  V30 10505 C 960.918 -6.49161 1.55389 0
M  V30 10506 H 960.188 -0.705441 -0.226791 0
M  V30 10507 H 962.835 -1.91121 0.120466 0
M  V30 10508 H 961.14 -3.32774 -2.06807 0
M  V30 10509 H 962.837 -3.59308 -1.78042 0
M  V30 10510 H 959.427 -4.25566 -0.509053 0
M  V30 10511 H 963.611 -4.95997 0.173411 0
M  V30 10512 H 958.867 -6.01085 1.11833 0
M  V30 10513 H 963.041 -6.72824 1.79669 0
M  V30 10514 H 960.668 -7.25354 2.2752 0
M  V30 10515 N 962.243 0.219913 -1.56058 0
M  V30 10516 C 963.468 0.965073 -1.83579 0
M  V30 10517 C 963.893 1.77092 -0.634024 0
M  V30 10518 O 963.251 1.76434 0.417205 0
M  V30 10519 C 963.299 1.85705 -3.09105 0
M  V30 10520 O 962.403 2.95261 -2.87914 0
M  V30 10521 H 961.744 0.273173 -0.605204 0
M  V30 10522 H 964.274 0.23273 -2.03272 0
M  V30 10523 H 964.284 2.26655 -3.39252 0
M  V30 10524 H 962.959 1.26476 -3.96203 0
M  V30 10525 H 961.536 2.58246 -2.69005 0
M  V30 10526 N 963.721 1.49897 0.486681 0
M  V30 10527 C 964.97 1.59349 1.23656 0
M  V30 10528 C 965.283 0.292024 1.93408 0
M  V30 10529 O 966.489 0.265258 2.70201 0
M  V30 10530 C 964.945 2.81215 2.24602 0
M  V30 10531 C 964.553 4.18177 1.60725 0
M  V30 10532 C 966.297 3.00004 3.00329 0
M  V30 10533 C 964.204 5.31247 2.59866 0
M  V30 10534 H 963.134 0.593363 0.465227 0
M  V30 10535 H 965.785 1.76306 0.508769 0
M  V30 10536 H 964.167 2.57783 3.00606 0
M  V30 10537 H 965.341 4.51802 0.90616 0
M  V30 10538 H 963.656 4.04864 0.973362 0
M  V30 10539 H 966.253 3.81649 3.74497 0
M  V30 10540 H 966.596 2.1112 3.58795 0
M  V30 10541 H 967.129 3.23544 2.3144 0
M  V30 10542 H 963.868 6.22236 2.06161 0
M  V30 10543 H 963.388 5.02059 3.28172 0
M  V30 10544 H 965.067 5.61177 3.22009 0
M  V30 10545 N 965.199 -0.738761 1.39212 0
M  V30 10546 C 966.615 -1.04381 1.20734 0
M  V30 10547 C 966.815 -2.01391 0.0663082 0
M  V30 10548 O 965.871 -2.45672 -0.583229 0
M  V30 10549 C 967.184 -1.6097 2.53987 0
M  V30 10550 C 968.732 -1.73069 2.60799 0
M  V30 10551 C 969.207 -2.33067 3.94264 0
M  V30 10552 N 970.698 -2.40481 3.95883 0
M  V30 10553 C 971.433 -2.87834 4.95923 0
M  V30 10554 N 970.929 -3.35111 6.0636 0
M  V30 10555 N 972.722 -2.87009 4.83304 0
M  V30 10556 H 964.873 -0.0952996 2.12186 0
M  V30 10557 H 967.136 -0.104902 0.942178 0
M  V30 10558 H 966.842 -0.971548 3.38015 0
M  V30 10559 H 966.716 -2.59829 2.73439 0
M  V30 10560 H 969.103 -2.36007 1.77157 0
M  V30 10561 H 969.184 -0.728728 2.452 0
M  V30 10562 H 968.828 -1.70758 4.78335 0
M  V30 10563 H 968.758 -3.33933 4.07181 0
M  V30 10564 H 971.249 -2.07061 3.16123 0
M  V30 10565 H 971.562 -3.69742 6.78609 0
M  V30 10566 H 969.907 -3.33129 6.09959 0
M  V30 10567 H 973.098 -2.49395 3.96131 0
M  V30 10568 H 973.271 -3.23598 5.61416 0
M  V30 10569 N 966.677 -1.24326 -0.968545 0
M  V30 10570 C 967.902 -1.1104 -1.75171 0
M  V30 10571 C 968.327 0.333109 -1.85127 0
M  V30 10572 O 967.685 1.24115 -1.32156 0
M  V30 10573 C 967.733 -1.75397 -3.15068 0
M  V30 10574 O 966.837 -1.02417 -3.9948 0
M  V30 10575 H 966.178 -0.388488 -0.538491 0
M  V30 10576 H 968.708 -1.64617 -1.215 0
M  V30 10577 H 968.718 -1.8112 -3.65595 0
M  V30 10578 H 967.393 -2.80427 -3.07138 0
M  V30 10579 H 965.97 -1.04475 -3.57966 0
M  V30 10580 N 968.156 1.1691 -1.05688 0
M  V30 10581 C 969.086 2.23275 -0.683402 0
M  V30 10582 C 970.067 1.6704 0.321206 0
M  V30 10583 O 971.252 1.93191 0.197691 0
M  V30 10584 C 968.382 3.47244 -0.0626006 0
M  V30 10585 C 967.336 4.16333 -0.992513 0
M  V30 10586 C 966.662 5.34182 -0.23533 0
M  V30 10587 C 967.962 4.68002 -2.31886 0
M  V30 10588 H 969.656 2.54771 -1.57264 0
M  V30 10589 H 967.202 1.2246 -0.757606 0
M  V30 10590 H 969.155 4.20874 0.210503 0
M  V30 10591 H 967.879 3.1503 0.861616 0
M  V30 10592 H 966.538 3.44622 -1.25026 0
M  V30 10593 H 966.186 4.9822 0.69181 0
M  V30 10594 H 965.886 5.81346 -0.855002 0
M  V30 10595 H 967.41 6.10592 0.0303717 0
M  V30 10596 H 968.824 5.33244 -2.10531 0
M  V30 10597 H 967.221 5.25764 -2.89296 0
M  V30 10598 H 968.291 3.84541 -2.95391 0
M  V30 10599 N 969.634 0.838594 1.33437 0
M  V30 10600 C 970.597 0.276843 2.27522 0
M  V30 10601 C 971.597 -0.554275 1.50945 0
M  V30 10602 O 972.787 -0.368107 1.70266 0
M  V30 10603 C 969.919 -0.610036 3.35397 0
M  V30 10604 H 971.112 1.10705 2.78719 0
M  V30 10605 H 968.665 0.611657 1.43835 0
M  V30 10606 H 969.4 -1.46269 2.89441 0
M  V30 10607 H 969.185 -0.0153615 3.92097 0
M  V30 10608 H 970.675 -0.996368 4.05539 0
M  V30 10609 N 971.112 -1.45937 0.595003 0
M  V30 10610 C 972.389 -1.95592 0.0178748 0
M  V30 10611 C 972.769 -1.53758 -1.44643 0
M  V30 10612 O 972.117 -0.794104 -2.14257 0
M  V30 10613 C 972.327 -3.4841 0.202789 0
M  V30 10614 C 973.675 -4.2453 0.0770121 0
M  V30 10615 O 974.699 -3.55954 0.132257 0
M  V30 10616 O 973.558 -5.46479 -0.0484271 0
M  V30 10617 H 970.652 -0.825888 -0.0428702 0
M  V30 10618 H 973.198 -1.56162 0.664184 0
M  V30 10619 H 971.97 -3.71787 1.22027 0
M  V30 10620 H 971.593 -3.947 -0.479376 0
M  V30 10621 N 972.59 -0.333456 -1.54032 0
M  V30 10622 C 974.006 0.0188405 -1.59589 0
M  V30 10623 C 974.206 1.49615 -1.34972 0
M  V30 10624 O 973.262 2.2535 -1.13901 0
M  V30 10625 C 974.575 -0.408273 -2.97915 0
M  V30 10626 C 976.123 -0.359763 -3.10926 0
M  V30 10627 C 976.598 -0.76219 -4.51613 0
M  V30 10628 N 978.089 -0.715981 -4.57633 0
M  V30 10629 C 978.824 -0.999436 -5.64623 0
M  V30 10630 N 978.32 -1.35053 -6.79509 0
M  V30 10631 N 980.113 -0.924343 -5.54448 0
M  V30 10632 H 972.264 -1.29587 -1.68289 0
M  V30 10633 H 974.527 -0.527584 -0.787629 0
M  V30 10634 H 974.233 -1.43793 -3.20962 0
M  V30 10635 H 974.107 0.221685 -3.76548 0
M  V30 10636 H 976.494 0.660703 -2.87609 0
M  V30 10637 H 976.575 -1.02479 -2.34375 0
M  V30 10638 H 976.219 -1.78062 -4.75664 0
M  V30 10639 H 976.149 -0.0747478 -5.26547 0
M  V30 10640 H 978.64 -0.456875 -3.75128 0
M  V30 10641 H 978.953 -1.55194 -7.57057 0
M  V30 10642 H 977.298 -1.38889 -6.80981 0
M  V30 10643 H 980.489 -0.649469 -4.63573 0
M  V30 10644 H 980.662 -1.1486 -6.37739 0
M  V30 10645 N 974.068 1.57479 -0.061844 0
M  V30 10646 C 974.998 2.15181 0.9066 0
M  V30 10647 C 975.979 1.07624 1.31724 0
M  V30 10648 O 977.164 1.35614 1.39006 0
M  V30 10649 C 974.294 2.70542 2.17771 0
M  V30 10650 C 973.248 3.83178 1.9068 0
M  V30 10651 C 972.574 4.25099 3.24337 0
M  V30 10652 C 973.874 5.07853 1.21994 0
M  V30 10653 H 975.568 2.96355 0.42594 0
M  V30 10654 H 973.114 1.42556 0.203435 0
M  V30 10655 H 975.067 3.09552 2.85929 0
M  V30 10656 H 973.791 1.86575 2.68062 0
M  V30 10657 H 972.45 3.44656 1.24931 0
M  V30 10658 H 972.098 3.38069 3.72449 0
M  V30 10659 H 971.798 5.01021 3.07005 0
M  V30 10660 H 973.322 4.66718 3.93709 0
M  V30 10661 H 974.736 5.44242 1.80204 0
M  V30 10662 H 973.133 5.88987 1.14954 0
M  V30 10663 H 974.203 4.84497 0.197536 0
M  V30 10664 N 975.546 -0.211634 1.56173 0
M  V30 10665 C 976.794 -0.932704 1.7929 0
M  V30 10666 C 977.115 -1.84472 0.632076 0
M  V30 10667 O 976.385 -1.92739 -0.350519 0
M  V30 10668 H 974.965 -0.347393 0.661307 0
M  V30 10669 H 977.627 -0.22111 1.93642 0
M  V30 10670 H 976.723 -1.53365 2.71819 0
M  V30 10671 N 977.024 -1.50153 -0.478725 0
M  V30 10672 C 978.301 -1.51274 -1.23999 0
M  V30 10673 C 978.681 -0.253048 -2.09578 0
M  V30 10674 O 978.029 0.763827 -2.15355 0
M  V30 10675 C 978.239 -2.80423 -2.07759 0
M  V30 10676 C 979.587 -3.30788 -2.66204 0
M  V30 10677 O 980.611 -2.81693 -2.18008 0
M  V30 10678 O 979.47 -4.1635 -3.53999 0
M  V30 10679 H 976.564 -0.606438 -0.562283 0
M  V30 10680 H 979.11 -1.62436 -0.491171 0
M  V30 10681 H 977.882 -3.63584 -1.44645 0
M  V30 10682 H 977.505 -2.72228 -2.89789 0
M  V30 10683 N 978.502 0.731368 -1.39602 0
M  V30 10684 C 979.432 1.85855 -1.41351 0
M  V30 10685 C 980.413 1.67839 -0.2764 0
M  V30 10686 O 981.598 1.88104 -0.482747 0
M  V30 10687 C 978.728 3.23644 -1.25983 0
M  V30 10688 C 977.682 3.56304 -2.37132 0
M  V30 10689 C 977.008 4.93069 -2.0685 0
M  V30 10690 C 978.308 3.58906 -3.79452 0
M  V30 10691 H 980.002 1.84648 -2.3568 0
M  V30 10692 H 977.548 0.886955 -1.13442 0
M  V30 10693 H 979.501 4.02176 -1.25826 0
M  V30 10694 H 978.225 3.25387 -0.281234 0
M  V30 10695 H 976.884 2.80104 -2.36511 0
M  V30 10696 H 976.532 4.91396 -1.0742 0
M  V30 10697 H 976.232 5.15888 -2.81306 0
M  V30 10698 H 977.756 5.73953 -2.0835 0
M  V30 10699 H 979.17 4.27508 -3.81982 0
M  V30 10700 H 977.567 3.93246 -4.53297 0
M  V30 10701 H 978.637 2.58631 -4.10168 0
M  V30 10702 N 979.98 1.24838 0.961938 0
M  V30 10703 C 980.928 1.0436 2.07874 0
M  V30 10704 C 981.922 -0.0232531 1.69384 0
M  V30 10705 O 983.128 0.131773 1.79517 0
M  V30 10706 H 979.503 0.320492 0.680286 0
M  V30 10707 H 981.474 1.99055 2.22306 0
M  V30 10708 C 980.223 0.671246 3.41159 0
M  V30 10709 H 979.546 1.48395 3.7124 0
M  V30 10710 H 980.986 0.567608 4.20184 0
M  V30 10711 C 979.445 -0.622124 3.31106 0
M  V30 10712 O 979.975 -1.66627 3.65511 0
M  V30 10713 N 978.181 -0.605009 2.84232 0
M  V30 10714 H 977.728 0.245052 2.56432 0
M  V30 10715 H 977.686 -1.47056 2.77888 0
M  V30 10716 N 981.458 -1.16348 1.06306 0
M  V30 10717 C 982.688 -1.90505 0.799453 0
M  V30 10718 C 983.096 -1.77686 -0.649955 0
M  V30 10719 O 982.439 -1.11921 -1.45669 0
M  V30 10720 C 982.501 -3.41775 1.11492 0
M  V30 10721 C 982.165 -3.7838 2.56277 0
M  V30 10722 C 983.162 -3.80288 3.54509 0
M  V30 10723 C 980.847 -4.09007 2.9158 0
M  V30 10724 C 982.841 -4.12312 4.86084 0
M  V30 10725 C 980.528 -4.40697 4.23354 0
M  V30 10726 C 981.526 -4.4233 5.20416 0
M  V30 10727 O 981.214 -4.73267 6.49826 0
M  V30 10728 H 980.946 -0.61094 0.289359 0
M  V30 10729 H 983.5 -1.48409 1.41999 0
M  V30 10730 H 981.73 -3.84219 0.437306 0
M  V30 10731 H 983.419 -3.97207 0.835533 0
M  V30 10732 H 984.185 -3.56738 3.28577 0
M  V30 10733 H 980.064 -4.06901 2.16686 0
M  V30 10734 H 983.608 -4.13501 5.61838 0
M  V30 10735 H 979.505 -4.63713 4.49044 0
M  V30 10736 H 980.273 -4.91078 6.54817 0
M  V30 10737 N 982.937 -0.845659 -1.3299 0
M  V30 10738 C 983.867 -0.298957 -2.31578 0
M  V30 10739 C 984.848 0.597012 -1.59279 0
M  V30 10740 O 986.033 0.519142 -1.87132 0
M  V30 10741 C 983.163 0.521109 -3.43368 0
M  V30 10742 C 982.117 -0.279651 -4.27085 0
M  V30 10743 C 981.443 0.664591 -5.30554 0
M  V30 10744 C 982.743 -1.50046 -5.00283 0
M  V30 10745 H 984.437 -1.12272 -2.77552 0
M  V30 10746 H 981.983 -0.54132 -1.33438 0
M  V30 10747 H 983.936 0.913921 -4.1137 0
M  V30 10748 H 982.66 1.37815 -2.96099 0
M  V30 10749 H 981.319 -0.654106 -3.60717 0
M  V30 10750 H 980.967 1.51822 -4.79541 0
M  V30 10751 H 980.667 0.132871 -5.8745 0
M  V30 10752 H 982.191 1.05477 -6.01421 0
M  V30 10753 H 983.605 -1.18044 -5.61016 0
M  V30 10754 H 982.002 -1.96946 -5.66862 0
M  V30 10755 H 983.072 -2.26659 -4.28665 0
M  V30 10756 N 984.415 1.45619 -0.602734 0
M  V30 10757 C 985.664 2.01483 -0.0936395 0
M  V30 10758 C 985.977 1.47753 1.28173 0
M  V30 10759 O 987.183 1.95562 1.88329 0
M  V30 10760 C 985.639 3.59711 -0.116738 0
M  V30 10761 C 985.247 4.22437 -1.49166 0
M  V30 10762 C 986.991 4.23157 0.337368 0
M  V30 10763 C 984.898 5.72803 -1.47141 0
M  V30 10764 H 983.828 0.753353 -0.0312382 0
M  V30 10765 H 986.479 1.67142 -0.757347 0
M  V30 10766 H 984.861 3.91218 0.613529 0
M  V30 10767 H 986.035 4.02511 -2.24325 0
M  V30 10768 H 984.35 3.71166 -1.88746 0
M  V30 10769 H 986.947 5.33407 0.371628 0
M  V30 10770 H 987.29 3.93491 1.35906 0
M  V30 10771 H 987.823 3.96349 -0.339474 0
M  V30 10772 H 984.562 6.07161 -2.47055 0
M  V30 10773 H 984.082 5.94936 -0.762329 0
M  V30 10774 H 985.761 6.35907 -1.19294 0
M  V30 10775 N 985.893 0.34162 1.53853 0
M  V30 10776 C 987.123 -0.256557 2.05001 0
M  V30 10777 C 987.531 -1.44916 1.21639 0
M  V30 10778 O 986.874 -1.8207 0.244138 0
M  V30 10779 C 986.936 -0.737109 3.51862 0
M  V30 10780 C 986.6 0.335584 4.55766 0
M  V30 10781 C 987.597 1.17765 5.06387 0
M  V30 10782 C 985.282 0.488958 4.99914 0
M  V30 10783 C 987.276 2.15865 5.99734 0
M  V30 10784 C 984.963 1.47336 5.93073 0
M  V30 10785 C 985.961 2.30666 6.4287 0
M  V30 10786 O 985.649 3.2743 7.34197 0
M  V30 10787 H 985.381 -0.0536867 0.673865 0
M  V30 10788 H 987.935 0.49123 1.99439 0
M  V30 10789 H 986.165 -1.53611 3.54881 0
M  V30 10790 H 987.854 -1.25562 3.85991 0
M  V30 10791 H 988.62 1.07023 4.73044 0
M  V30 10792 H 984.499 -0.149807 4.60757 0
M  V30 10793 H 988.043 2.80945 6.38526 0
M  V30 10794 H 983.94 1.58134 6.25831 0
M  V30 10795 H 984.708 3.22879 7.52125 0
M  V30 10796 N 987.371 -1.57444 0.0701946 0
M  V30 10797 C 988.617 -1.93716 -0.600178 0
M  V30 10798 C 988.95 -0.950329 -1.69359 0
M  V30 10799 O 988.225 0.0207123 -1.94489 0
M  V30 10800 C 988.508 -3.40266 -1.17861 0
M  V30 10801 C 988.361 -4.49706 -0.0919575 0
M  V30 10802 C 989.68 -3.87599 -2.08459 0
M  V30 10803 H 986.799 -0.704421 -0.216704 0
M  V30 10804 H 989.441 -1.89514 0.135838 0
M  V30 10805 H 987.591 -3.43977 -1.80587 0
M  V30 10806 H 989.263 -4.58116 0.541031 0
M  V30 10807 H 987.506 -4.29937 0.577639 0
M  V30 10808 H 988.177 -5.49381 -0.537048 0
M  V30 10809 H 990.653 -3.85883 -1.5567 0
M  V30 10810 H 989.529 -4.90755 -2.45867 0
M  V30 10811 H 989.79 -3.25448 -2.99226 0
M  V30 10812 N 988.849 0.203349 -1.56283 0
M  V30 10813 C 990.096 0.92501 -1.80138 0
M  V30 10814 C 990.424 1.83598 -0.64204 0
M  V30 10815 O 989.679 1.92119 0.372658 0
M  V30 10816 C 989.978 1.78016 -3.09912 0
M  V30 10817 C 989.644 1.02088 -4.39191 0
M  V30 10818 C 988.306 0.811208 -4.74313 0
M  V30 10819 C 990.658 0.486037 -5.18929 0
M  V30 10820 C 987.986 0.0550856 -5.86674 0
M  V30 10821 C 990.338 -0.256833 -6.32078 0
M  V30 10822 C 989.002 -0.477594 -6.65789 0
M  V30 10823 H 988.272 0.338485 -0.659173 0
M  V30 10824 H 990.919 0.191923 -1.90536 0
M  V30 10825 H 989.224 2.58167 -2.94715 0
M  V30 10826 H 990.921 2.341 -3.25574 0
M  V30 10827 H 987.511 1.1943 -4.11624 0
M  V30 10828 H 991.695 0.635446 -4.92215 0
M  V30 10829 H 986.951 -0.126006 -6.1127 0
M  V30 10830 H 991.125 -0.678683 -6.93085 0
M  V30 10831 H 988.752 -1.0654 -7.52697 0
M  V30 10832 N 990.327 1.50405 0.470755 0
M  V30 10833 C 991.738 1.54266 1.05162 0
M  V30 10834 C 992.089 0.346359 1.93119 0
M  V30 10835 O 991.214 -0.540699 2.09536 0
M  V30 10836 C 991.809 2.7956 1.91394 0
M  V30 10837 C 990.368 2.86101 2.44588 0
M  V30 10838 C 989.515 2.48557 1.22941 0
M  V30 10839 H 992.466 1.56665 0.253359 0
M  V30 10840 H 992.487 2.61434 2.76464 0
M  V30 10841 H 991.999 3.66611 1.27351 0
M  V30 10842 H 990.1 2.03403 3.12183 0
M  V30 10843 H 990.213 3.88999 2.79672 0
M  V30 10844 H 988.577 2.01003 1.56429 0
M  V30 10845 H 989.36 3.37916 0.605598 0
M  V30 10846 N 991.805 -0.723954 1.39988 0
M  V30 10847 C 993.082 -1.4763 1.28316 0
M  V30 10848 C 993.462 -2.10852 -0.102302 0
M  V30 10849 O 992.81 -1.9948 -1.11445 0
M  V30 10850 C 993.02 -2.51878 2.41574 0
M  V30 10851 C 994.368 -3.17948 2.81415 0
M  V30 10852 O 995.392 -2.62195 2.41106 0
M  V30 10853 O 994.251 -4.18858 3.51027 0
M  V30 10854 H 991.345 -0.656092 0.50346 0
M  V30 10855 H 993.891 -0.75684 1.51888 0
M  V30 10856 H 992.663 -2.03618 3.34149 0
M  V30 10857 H 992.286 -3.3137 2.19727 0
M  V30 10858 N 993.283 -1.25346 -0.955304 0
M  V30 10859 C 994.699 -1.02154 -1.22625 0
M  V30 10860 C 994.899 0.26206 -1.99789 0
M  V30 10861 O 993.955 0.974958 -2.32918 0
M  V30 10862 C 995.268 -2.2443 -2.00129 0
M  V30 10863 C 996.816 -2.29185 -2.13174 0
M  V30 10864 C 997.291 -3.51117 -2.94077 0
M  V30 10865 N 998.782 -3.51509 -3.01655 0
M  V30 10866 C 999.517 -4.42517 -3.64645 0
M  V30 10867 N 999.013 -5.43796 -4.29252 0
M  V30 10868 N 1000.81 -4.302 -3.61779 0
M  V30 10869 H 992.957 -2.07812 -0.439071 0
M  V30 10870 H 995.22 -0.91258 -0.256715 0
M  V30 10871 H 994.926 -3.17717 -1.50827 0
M  V30 10872 H 994.8 -2.27548 -3.00835 0
M  V30 10873 H 997.187 -1.36422 -2.61674 0
M  V30 10874 H 997.268 -2.30087 -1.11775 0
M  V30 10875 H 996.912 -4.44201 -2.46268 0
M  V30 10876 H 996.842 -3.4746 -3.95701 0
M  V30 10877 H 999.333 -2.78245 -2.55711 0
M  V30 10878 H 999.646 -6.09453 -4.75171 0
M  V30 10879 H 997.991 -5.4767 -4.27882 0
M  V30 10880 H 1001.18 -3.50304 -3.10491 0
M  V30 10881 H 1001.36 -5.01323 -4.10584 0
M  V30 10882 N 994.761 1.15782 -1.06922 0
M  V30 10883 C 996.172 1.68062 -0.813144 0
M  V30 10884 C 996.523 1.84681 0.662374 0
M  V30 10885 O 995.648 1.54696 1.51321 0
M  V30 10886 C 996.243 3.05273 -1.46949 0
M  V30 10887 C 994.802 3.54647 -1.26104 0
M  V30 10888 C 993.949 2.30477 -1.54194 0
M  V30 10889 H 996.9 1.00056 -1.23185 0
M  V30 10890 H 996.921 3.69986 -0.888308 0
M  V30 10891 H 996.433 2.93145 -2.54337 0
M  V30 10892 H 994.534 3.72024 -0.20718 0
M  V30 10893 H 994.647 4.36354 -1.97819 0
M  V30 10894 H 993.011 2.35803 -0.96276 0
M  V30 10895 H 993.794 2.2094 -2.62755 0
M  V30 10896 N 996.239 0.8527 1.3254 0
M  V30 10897 C 997.186 0.293905 2.28921 0
M  V30 10898 C 998.156 -0.598027 1.54961 0
M  V30 10899 O 999.341 -0.533355 1.83194 0
M  V30 10900 C 996.481 -0.513361 3.4126 0
M  V30 10901 C 995.594 0.404144 4.30105 0
M  V30 10902 C 994.729 -0.415564 5.29572 0
M  V30 10903 C 993.768 0.499461 6.10059 0
M  V30 10904 N 992.905 -0.282949 7.0153 0
M  V30 10905 H 997.745 1.12107 2.76109 0
M  V30 10906 H 995.282 0.564272 1.35847 0
M  V30 10907 H 997.24 -0.997008 4.05112 0
M  V30 10908 H 995.87 -1.30537 2.95229 0
M  V30 10909 H 994.922 1.00617 3.66852 0
M  V30 10910 H 996.234 1.10648 4.86373 0
M  V30 10911 H 995.388 -0.962458 5.99017 0
M  V30 10912 H 994.127 -1.15127 4.73917 0
M  V30 10913 H 993.132 1.05825 5.39519 0
M  V30 10914 H 994.357 1.23375 6.67799 0
M  V30 10915 H 992.303 -1.00179 6.48306 0
M  V30 10916 H 992.22 0.36039 7.55141 0
M  V30 10917 H 993.488 -0.811632 7.75263 0
M  V30 10918 N 997.718 -1.45297 0.610449 0
M  V30 10919 C 998.995 -1.95562 0.0386189 0
M  V30 10920 C 999.375 -1.55284 -1.43004 0
M  V30 10921 O 998.723 -0.816785 -2.13403 0
M  V30 10922 C 998.933 -3.48176 0.239731 0
M  V30 10923 C 1000.28 -4.24425 0.122035 0
M  V30 10924 O 1001.3 -3.55794 0.170003 0
M  V30 10925 O 1000.16 -5.46499 0.00953695 0
M  V30 10926 H 997.258 -0.826296 -0.0341081 0
M  V30 10927 H 999.804 -1.55449 0.68071 0
M  V30 10928 H 998.576 -3.70471 1.25963 0
M  V30 10929 H 998.199 -3.95186 -0.437486 0
M  V30 10930 N 999.196 -0.349774 -1.5367 0
M  V30 10931 C 1000.11 0.512421 -2.28935 0
M  V30 10932 C 1001.12 1.1065 -1.34286 0
M  V30 10933 O 1002.3 1.12084 -1.67329 0
M  V30 10934 C 999.363 1.64449 -3.05217 0
M  V30 10935 C 998.424 1.07956 -4.15505 0
M  V30 10936 C 997.657 2.15768 -4.88139 0
M  V30 10937 O 997.88 3.366 -4.60496 0
M  V30 10938 O 996.814 1.79712 -5.74445 0
M  V30 10939 H 1000.64 -0.0996001 -3.03537 0
M  V30 10940 H 998.225 -0.114629 -1.4896 0
M  V30 10941 H 1000.11 2.30302 -3.52901 0
M  V30 10942 H 998.782 2.24221 -2.33467 0
M  V30 10943 H 997.689 0.385381 -3.7211 0
M  V30 10944 H 999.022 0.526621 -4.89375 0
M  V30 10945 N 1000.67 1.57404 -0.0785433 0
M  V30 10946 C 1001.92 1.94031 0.589896 0
M  V30 10947 C 1002.25 0.959297 1.68852 0
M  V30 10948 O 1001.53 -0.0103978 1.94497 0
M  V30 10949 C 1001.81 3.40886 1.16055 0
M  V30 10950 C 1001.66 4.49748 0.0681072 0
M  V30 10951 C 1002.98 3.88699 2.06401 0
M  V30 10952 H 1000.1 0.70556 0.212965 0
M  V30 10953 H 1002.74 1.89439 -0.145886 0
M  V30 10954 H 1000.89 3.4493 1.78761 0
M  V30 10955 H 1002.57 4.57823 -0.565318 0
M  V30 10956 H 1000.81 4.29625 -0.600431 0
M  V30 10957 H 1001.48 5.49658 0.507906 0
M  V30 10958 H 1003.96 3.86703 1.53622 0
M  V30 10959 H 1002.83 4.92052 2.43261 0
M  V30 10960 H 1003.09 3.2703 2.97496 0
M  V30 10961 N 1002.15 -0.195058 1.56388 0
M  V30 10962 C 1003.38 -0.930291 1.8447 0
M  V30 10963 C 1003.79 -1.77356 0.658901 0
M  V30 10964 O 1003.13 -1.79691 -0.381664 0
M  V30 10965 C 1003.19 -1.87626 3.06654 0
M  V30 10966 C 1002.86 -1.21494 4.40555 0
M  V30 10967 C 1003.86 -0.591847 5.1652 0
M  V30 10968 C 1001.54 -1.21878 4.8729 0
M  V30 10969 C 1003.53 0.0185743 6.37397 0
M  V30 10970 C 1001.22 -0.604524 6.08103 0
M  V30 10971 C 1002.22 0.0130731 6.82999 0
M  V30 10972 O 1001.91 0.617703 8.01523 0
M  V30 10973 H 1001.64 -0.276933 0.616672 0
M  V30 10974 H 1004.19 -0.207277 2.04351 0
M  V30 10975 H 1002.42 -2.63897 2.82658 0
M  V30 10976 H 1004.11 -2.47929 3.21382 0
M  V30 10977 H 1004.88 -0.581018 4.81507 0
M  V30 10978 H 1000.76 -1.68888 4.2895 0
M  V30 10979 H 1004.3 0.50124 6.95797 0
M  V30 10980 H 1000.2 -0.612855 6.42584 0
M  V30 10981 H 1000.97 0.514612 8.16881 0
M  V30 10982 N 1003.63 -1.50653 -0.462772 0
M  V30 10983 C 1004.85 -1.66103 -1.24196 0
M  V30 10984 C 1005.28 -0.347421 -1.84864 0
M  V30 10985 O 1004.64 0.689673 -1.6767 0
M  V30 10986 C 1004.69 -2.76027 -2.32037 0
M  V30 10987 O 1003.79 -2.37859 -3.36893 0
M  V30 10988 H 1003.13 -0.554672 -0.365014 0
M  V30 10989 H 1005.66 -1.97076 -0.549734 0
M  V30 10990 H 1005.67 -2.99354 -2.77221 0
M  V30 10991 H 1004.35 -3.71361 -1.87253 0
M  V30 10992 H 1002.92 -2.2501 -2.97363 0
M  V30 10993 N 1005.11 0.71652 -1.4037 0
M  V30 10994 C 1006.06 1.8306 -1.40562 0
M  V30 10995 C 1007.03 1.64009 -0.262697 0
M  V30 10996 O 1008.21 1.85157 -0.460619 0
M  V30 10997 C 1005.35 3.2076 -1.27307 0
M  V30 10998 C 1004.46 3.51389 -2.51296 0
M  V30 10999 C 1003.6 4.78589 -2.30491 0
M  V30 11000 C 1002.64 5.02119 -3.50061 0
M  V30 11001 N 1001.77 6.20533 -3.28457 0
M  V30 11002 H 1006.61 1.82231 -2.35788 0
M  V30 11003 H 1004.15 0.890198 -1.17106 0
M  V30 11004 H 1006.11 4.00274 -1.17628 0
M  V30 11005 H 1004.74 3.2082 -0.357005 0
M  V30 11006 H 1003.79 2.66436 -2.71507 0
M  V30 11007 H 1005.1 3.64686 -3.40302 0
M  V30 11008 H 1004.26 5.66119 -2.1816 0
M  V30 11009 H 1003 4.67499 -1.38909 0
M  V30 11010 H 1002 4.13044 -3.6287 0
M  V30 11011 H 1003.23 5.15082 -4.42569 0
M  V30 11012 H 1001.17 6.10695 -2.39556 0
M  V30 11013 H 1001.09 6.34502 -4.11027 0
M  V30 11014 H 1002.36 7.10853 -3.19857 0
M  V30 11015 N 1006.59 1.25851 0.948643 0
M  V30 11016 C 1007.82 1.13546 1.726 0
M  V30 11017 C 1008.22 -0.312857 1.86595 0
M  V30 11018 O 1007.57 -1.22657 1.36751 0
M  V30 11019 C 1007.63 1.72315 3.15512 0
M  V30 11020 C 1007.29 3.2136 3.24926 0
M  V30 11021 C 1008.29 4.18274 3.08777 0
M  V30 11022 C 1005.98 3.61683 3.48555 0
M  V30 11023 C 1007.97 5.53491 3.16112 0
M  V30 11024 C 1005.66 4.97035 3.55526 0
M  V30 11025 C 1006.65 5.92749 3.3932 0
M  V30 11026 O 1006.34 7.25637 3.45985 0
M  V30 11027 H 1006.07 0.396555 0.547467 0
M  V30 11028 H 1008.63 1.66822 1.19832 0
M  V30 11029 H 1006.86 1.13494 3.6967 0
M  V30 11030 H 1008.55 1.55024 3.7513 0
M  V30 11031 H 1009.31 3.88461 2.90385 0
M  V30 11032 H 1005.19 2.87674 3.60229 0
M  V30 11033 H 1008.74 6.28177 3.0338 0
M  V30 11034 H 1004.63 5.26512 3.73437 0
M  V30 11035 H 1005.4 7.33812 3.62577 0
M  V30 11036 N 1008.06 -1.15214 1.07534 0
M  V30 11037 C 1009.29 -1.89647 0.819614 0
M  V30 11038 C 1009.7 -1.78365 -0.631072 0
M  V30 11039 O 1009.05 -1.1346 -1.44474 0
M  V30 11040 C 1009.11 -3.40573 1.1511 0
M  V30 11041 C 1008.77 -3.7564 2.60276 0
M  V30 11042 C 1009.77 -3.76507 3.58523 0
M  V30 11043 C 1007.45 -4.05891 2.95901 0
M  V30 11044 C 1009.45 -4.07133 4.9043 0
M  V30 11045 C 1007.13 -4.36182 4.28005 0
M  V30 11046 C 1008.13 -4.36785 5.25079 0
M  V30 11047 O 1007.82 -4.66348 6.54809 0
M  V30 11048 H 1007.55 -0.607836 0.295822 0
M  V30 11049 H 1010.11 -1.46895 1.43565 0
M  V30 11050 H 1008.34 -3.83734 0.478033 0
M  V30 11051 H 1010.03 -3.96299 0.877615 0
M  V30 11052 H 1010.79 -3.53233 3.32342 0
M  V30 11053 H 1006.67 -4.0458 2.20989 0
M  V30 11054 H 1010.21 -4.07519 5.66193 0
M  V30 11055 H 1006.11 -4.58924 4.53937 0
M  V30 11056 H 1006.88 -4.84105 6.59988 0
M  V30 11057 N 1009.54 -0.859717 -1.32086 0
M  V30 11058 C 1010.77 -0.479724 -2.01262 0
M  V30 11059 C 1011.19 0.924985 -1.64589 0
M  V30 11060 O 1010.54 1.60439 -0.869803 0
M  V30 11061 C 1010.59 -0.615128 -3.56228 0
M  V30 11062 O 1010.31 -1.96451 -3.91585 0
M  V30 11063 C 1011.82 -0.234804 -4.42678 0
M  V30 11064 H 1009.04 -0.188007 -0.644123 0
M  V30 11065 H 1011.58 -1.15805 -1.68551 0
M  V30 11066 H 1009.73 0.0155268 -3.87397 0
M  V30 11067 H 1010.15 -1.96491 -4.86304 0
M  V30 11068 H 1011.62 -0.380534 -5.50687 0
M  V30 11069 H 1012.1 0.825189 -4.31378 0
M  V30 11070 H 1012.71 -0.840739 -4.16907 0
M  V30 11071 N 1011.02 1.44971 -0.618145 0
M  V30 11072 C 1012.43 1.85611 -0.201334 0
M  V30 11073 C 1012.78 1.51698 1.24427 0
M  V30 11074 O 1011.91 0.94875 1.94493 0
M  V30 11075 C 1012.5 3.36897 -0.358619 0
M  V30 11076 C 1011.06 3.764 0.00358196 0
M  V30 11077 C 1010.21 2.68881 -0.678118 0
M  V30 11078 H 1013.16 1.35622 -0.824152 0
M  V30 11079 H 1013.18 3.78326 0.406176 0
M  V30 11080 H 1012.69 3.61548 -1.41084 0
M  V30 11081 H 1010.79 3.57365 1.05457 0
M  V30 11082 H 1010.91 4.77449 -0.397427 0
M  V30 11083 H 1009.27 2.54442 -0.114699 0
M  V30 11084 H 1010.05 2.96367 -1.73268 0
M  V30 11085 N 1012.5 0.357919 1.53482 0
M  V30 11086 C 1013.74 -0.23451 2.0144 0
M  V30 11087 C 1014.08 -1.49044 1.24497 0
M  V30 11088 O 1013.35 -1.91566 0.336535 0
M  V30 11089 C 1013.64 -0.534193 3.56116 0
M  V30 11090 C 1013.49 0.734834 4.43757 0
M  V30 11091 C 1014.81 -1.33793 4.1927 0
M  V30 11092 H 1011.93 -0.0837595 0.732225 0
M  V30 11093 H 1014.57 0.481297 1.83803 0
M  V30 11094 H 1012.72 -1.144 3.71275 0
M  V30 11095 H 1014.39 1.37251 4.40409 0
M  V30 11096 H 1012.63 1.35678 4.12036 0
M  V30 11097 H 1013.3 0.48021 5.49907 0
M  V30 11098 H 1015.78 -0.822158 4.07897 0
M  V30 11099 H 1014.66 -1.51636 5.27539 0
M  V30 11100 H 1014.92 -2.34423 3.74831 0
M  V30 11101 N 1013.98 -1.5736 0.0868897 0
M  V30 11102 C 1015.39 -1.81356 -0.443499 0
M  V30 11103 C 1015.74 -1.00192 -1.68689 0
M  V30 11104 O 1014.86 -0.228863 -2.15186 0
M  V30 11105 C 1015.46 -3.28941 -0.811387 0
M  V30 11106 C 1014.02 -3.53729 -1.28656 0
M  V30 11107 C 1013.16 -2.75891 -0.279153 0
M  V30 11108 H 1016.12 -1.55594 0.312427 0
M  V30 11109 H 1016.14 -3.41815 -1.6716 0
M  V30 11110 H 1015.65 -3.87987 0.0937598 0
M  V30 11111 H 1013.75 -3.00005 -2.2097 0
M  V30 11112 H 1013.86 -4.62396 -1.25406 0
M  V30 11113 H 1012.23 -2.4311 -0.759595 0
M  V30 11114 H 1013.01 -3.37682 0.618529 0
M  V30 11115 N 1015.45 0.186762 -1.56489 0
M  V30 11116 C 1016.69 0.912523 -1.829 0
M  V30 11117 C 1017.06 1.80094 -0.665598 0
M  V30 11118 O 1018.26 2.56312 -0.809787 0
M  V30 11119 C 1016.53 1.70022 -3.14368 0
M  V30 11120 S 1018.09 2.47686 -3.62211 0
M  V30 11121 H 1014.91 0.305916 -0.641823 0
M  V30 11122 H 1017.51 0.175289 -1.94713 0
M  V30 11123 H 1016.21 1.03832 -3.97048 0
M  V30 11124 H 1015.74 2.47912 -3.05456 0
M  V30 11125 H 1017.76 3.72058 -3.28309 0
M  V30 11126 N 1016.93 1.50896 0.454776 0
M  V30 11127 C 1017.84 1.73762 1.5762 0
M  V30 11128 C 1018.86 0.621206 1.62533 0
M  V30 11129 O 1020.03 0.901449 1.801 0
M  V30 11130 C 1017.1 1.84183 2.9373 0
M  V30 11131 C 1016.16 3.07982 2.99075 0
M  V30 11132 C 1015.39 3.17896 4.28693 0
M  V30 11133 O 1015.62 2.34184 5.20109 0
M  V30 11134 O 1014.55 4.10749 4.39964 0
M  V30 11135 H 1018.38 2.68856 1.41245 0
M  V30 11136 H 1015.96 1.35187 0.635984 0
M  V30 11137 H 1017.84 1.93123 3.74542 0
M  V30 11138 H 1016.52 0.922742 3.10269 0
M  V30 11139 H 1015.43 3.04531 2.17282 0
M  V30 11140 H 1016.76 3.99523 2.87476 0
M  V30 11141 N 1018.41 -0.709066 1.40748 0
M  V30 11142 C 1019.64 -1.50313 1.42901 0
M  V30 11143 C 1020.06 -1.88072 0.032213 0
M  V30 11144 O 1019.42 -1.53716 -0.96131 0
M  V30 11145 C 1019.47 -2.75074 2.33166 0
M  V30 11146 O 1018.57 -3.72036 1.7794 0
M  V30 11147 H 1017.91 -0.452934 0.485538 0
M  V30 11148 H 1020.44 -0.872712 1.85054 0
M  V30 11149 H 1020.45 -3.23532 2.48578 0
M  V30 11150 H 1019.13 -2.46927 3.34664 0
M  V30 11151 H 1017.7 -3.30911 1.71908 0
M  V30 11152 N 1019.89 -1.26353 -0.941956 0
M  V30 11153 C 1020.85 -1.07904 -2.02211 0
M  V30 11154 C 1021.85 -0.0276283 -1.60776 0
M  V30 11155 O 1023.04 -0.270965 -1.7208 0
M  V30 11156 C 1020.17 -0.641084 -3.34818 0
M  V30 11157 H 1021.37 -2.03804 -2.20009 0
M  V30 11158 H 1018.92 -1.08939 -1.12081 0
M  V30 11159 H 1019.66 0.319943 -3.22718 0
M  V30 11160 H 1019.44 -1.40027 -3.66244 0
M  V30 11161 H 1020.93 -0.533826 -4.14174 0
M  V30 11162 N 1021.37 1.14642 -1.08144 0
M  V30 11163 C 1022.6 1.89484 -0.830864 0
M  V30 11164 C 1023.01 1.78443 0.616722 0
M  V30 11165 O 1022.37 1.14191 1.42361 0
M  V30 11166 C 1022.42 3.39554 -1.24039 0
M  V30 11167 O 1022.14 3.50286 -2.63119 0
M  V30 11168 C 1023.64 4.31399 -1.02029 0
M  V30 11169 H 1020.86 0.600283 -0.299835 0
M  V30 11170 H 1023.4 1.45204 -1.44001 0
M  V30 11171 H 1021.56 3.81467 -0.675407 0
M  V30 11172 H 1021.97 4.43481 -2.80045 0
M  V30 11173 H 1023.45 5.35079 -1.35625 0
M  V30 11174 H 1023.92 4.39179 0.0428697 0
M  V30 11175 H 1024.53 3.95238 -1.57057 0
M  V30 11176 N 1022.85 0.866709 1.31628 0
M  V30 11177 C 1023.81 0.325041 2.26883 0
M  V30 11178 C 1024.81 -0.522133 1.52087 0
M  V30 11179 O 1026 -0.331908 1.71009 0
M  V30 11180 C 1023.13 -0.538756 3.36616 0
M  V30 11181 H 1024.32 1.16592 2.76308 0
M  V30 11182 H 1021.88 0.642029 1.42505 0
M  V30 11183 H 1022.61 -1.40096 2.92478 0
M  V30 11184 H 1022.4 0.0678115 3.92041 0
M  V30 11185 H 1023.89 -0.910123 4.07562 0
M  V30 11186 N 1024.32 -1.44642 0.625825 0
M  V30 11187 C 1025.27 -2.30653 -0.082259 0
M  V30 11188 C 1026.24 -1.43174 -0.842052 0
M  V30 11189 O 1027.43 -1.72082 -0.824151 0
M  V30 11190 C 1024.57 -3.2837 -1.06146 0
M  V30 11191 C 1023.68 -4.30953 -0.300638 0
M  V30 11192 C 1022.81 -5.15766 -1.27118 0
M  V30 11193 C 1021.85 -6.10061 -0.499215 0
M  V30 11194 N 1020.99 -6.87591 -1.41995 0
M  V30 11195 H 1025.83 -2.90664 0.657161 0
M  V30 11196 H 1023.37 -1.43215 0.335859 0
M  V30 11197 H 1025.32 -3.83507 -1.6425 0
M  V30 11198 H 1023.95 -2.70072 -1.76807 0
M  V30 11199 H 1023.01 -3.78331 0.396234 0
M  V30 11200 H 1024.32 -4.97892 0.300851 0
M  V30 11201 H 1023.47 -5.75394 -1.92372 0
M  V30 11202 H 1022.21 -4.48888 -1.9066 0
M  V30 11203 H 1021.22 -5.49547 0.166848 0
M  V30 11204 H 1022.44 -6.78973 0.131409 0
M  V30 11205 H 1020.39 -6.23387 -2.04267 0
M  V30 11206 H 1020.3 -7.5095 -0.872354 0
M  V30 11207 H 1021.57 -7.51746 -2.0615 0
M  V30 11208 N 1025.8 -0.366053 -1.5329 0
M  V30 11209 C 1026.76 0.467904 -2.24373 0
M  V30 11210 C 1027.76 1.00934 -1.25176 0
M  V30 11211 O 1028.95 0.895015 -1.49449 0
M  V30 11212 C 1026.09 1.65405 -2.98084 0
M  V30 11213 H 1027.28 -0.154105 -2.99504 0
M  V30 11214 H 1024.83 -0.117751 -1.55856 0
M  V30 11215 H 1025.57 2.31413 -2.27197 0
M  V30 11216 H 1025.35 1.27277 -3.70868 0
M  V30 11217 H 1026.84 2.24503 -3.52119 0
M  V30 11218 N 1027.28 1.57312 -0.0952337 0
M  V30 11219 C 1028.53 1.94646 0.569284 0
M  V30 11220 C 1028.86 0.977152 1.67825 0
M  V30 11221 O 1028.13 0.0102318 1.94497 0
M  V30 11222 C 1028.42 3.42098 1.12433 0
M  V30 11223 C 1028.27 4.49795 0.0204016 0
M  V30 11224 C 1029.59 3.90866 2.02266 0
M  V30 11225 H 1026.71 0.707779 0.205469 0
M  V30 11226 H 1029.35 1.89274 -0.16597 0
M  V30 11227 H 1027.5 3.46807 1.75092 0
M  V30 11228 H 1029.17 4.57198 -0.613845 0
M  V30 11229 H 1027.41 4.28964 -0.645965 0
M  V30 11230 H 1028.09 5.50166 0.449579 0
M  V30 11231 H 1030.56 3.88311 1.49512 0
M  V30 11232 H 1029.44 4.94604 2.38029 0
M  V30 11233 H 1029.7 3.30167 2.9401 0
M  V30 11234 N 1028.76 -0.17846 1.56586 0
M  V30 11235 C 1030.03 -0.923096 1.72448 0
M  V30 11236 C 1030.41 -2.00692 0.654659 0
M  V30 11237 O 1029.76 -2.26079 -0.33171 0
M  V30 11238 C 1029.97 -1.49435 3.15389 0
M  V30 11239 C 1031.32 -1.97005 3.76131 0
M  V30 11240 O 1032.34 -1.59244 3.18622 0
M  V30 11241 O 1031.2 -2.66541 4.77094 0
M  V30 11242 H 1028.3 -0.434009 0.703964 0
M  V30 11243 H 1030.84 -0.16685 1.68878 0
M  V30 11244 H 1029.62 -0.713933 3.84732 0
M  V30 11245 H 1029.24 -2.31498 3.23256 0
M  V30 11246 N 1030.24 -1.51135 -0.446768 0
M  V30 11247 C 1031.48 -1.63013 -1.19461 0
M  V30 11248 C 1031.8 -0.344067 -1.91941 0
M  V30 11249 O 1031.07 0.639666 -1.85162 0
M  V30 11250 H 1029.65 -0.600757 -0.443959 0
M  V30 11251 H 1032.32 -1.88024 -0.513137 0
M  V30 11252 H 1031.41 -2.45322 -1.92933 0
M  V30 11253 N 1031.71 0.701592 -1.41122 0
M  V30 11254 C 1032.94 1.48833 -1.43291 0
M  V30 11255 C 1033.35 1.89168 -0.0348668 0
M  V30 11256 O 1032.69 1.56937 0.9548 0
M  V30 11257 C 1032.76 2.78533 -2.27287 0
M  V30 11258 C 1032.42 2.60438 -3.75528 0
M  V30 11259 C 1033.42 2.26778 -4.67833 0
M  V30 11260 C 1031.1 2.76266 -4.19503 0
M  V30 11261 C 1033.1 2.09176 -6.021 0
M  V30 11262 C 1030.78 2.58281 -5.53836 0
M  V30 11263 C 1031.78 2.24786 -6.4495 0
M  V30 11264 O 1031.47 2.06952 -7.76805 0
M  V30 11265 H 1031.2 0.465401 -0.490284 0
M  V30 11266 H 1033.76 0.871843 -1.85979 0
M  V30 11267 H 1031.99 3.42566 -1.79403 0
M  V30 11268 H 1033.67 3.40312 -2.21229 0
M  V30 11269 H 1034.44 2.1417 -4.35151 0
M  V30 11270 H 1030.32 3.01322 -3.48893 0
M  V30 11271 H 1033.86 1.82955 -6.73181 0
M  V30 11272 H 1029.76 2.70478 -5.86099 0
M  V30 11273 H 1030.53 2.21762 -7.87886 0
M  V30 11274 N 1033.19 1.2685 0.935242 0
M  V30 11275 C 1034.44 1.12912 1.6846 0
M  V30 11276 C 1034.77 -0.325708 1.91449 0
M  V30 11277 O 1034.05 -1.23884 1.49944 0
M  V30 11278 C 1034.33 1.90513 3.05576 0
M  V30 11279 C 1034.18 3.43936 2.89876 0
M  V30 11280 C 1035.5 1.70363 4.05789 0
M  V30 11281 H 1032.62 0.411559 0.611382 0
M  V30 11282 H 1035.26 1.55917 1.08582 0
M  V30 11283 H 1033.41 1.53963 3.5669 0
M  V30 11284 H 1035.08 3.90272 2.45939 0
M  V30 11285 H 1033.33 3.70659 2.25376 0
M  V30 11286 H 1034 3.93467 3.87153 0
M  V30 11287 H 1036.47 2.02217 3.63659 0
M  V30 11288 H 1035.35 2.27066 4.99732 0
M  V30 11289 H 1035.61 0.649674 4.373 0
M  V30 11290 N 1034.67 -1.14067 1.0875 0
M  V30 11291 C 1035.62 -2.19261 0.720633 0
M  V30 11292 C 1036.59 -1.63462 -0.294847 0
M  V30 11293 O 1037.77 -1.89967 -0.178058 0
M  V30 11294 C 1034.91 -3.44816 0.139873 0
M  V30 11295 C 1034.03 -4.1475 1.20856 0
M  V30 11296 C 1033.16 -5.27899 0.591285 0
M  V30 11297 C 1032.2 -5.89672 1.64176 0
M  V30 11298 N 1031.34 -6.94264 1.04603 0
M  V30 11299 H 1036.18 -2.49991 1.62198 0
M  V30 11300 H 1033.71 -1.22757 0.810497 0
M  V30 11301 H 1035.67 -4.16648 -0.214587 0
M  V30 11302 H 1034.3 -3.14558 -0.724774 0
M  V30 11303 H 1033.35 -3.41272 1.6804 0
M  V30 11304 H 1034.67 -4.56753 2.00446 0
M  V30 11305 H 1033.82 -6.06417 0.185271 0
M  V30 11306 H 1032.56 -4.87128 -0.236236 0
M  V30 11307 H 1031.56 -5.09854 2.05739 0
M  V30 11308 H 1032.79 -6.32517 2.47182 0
M  V30 11309 H 1030.73 -6.55562 0.239664 0
M  V30 11310 H 1030.65 -7.34771 1.77898 0
M  V30 11311 H 1031.92 -7.7665 0.665989 0
M  V30 11312 N 1036.15 -0.873678 -1.31166 0
M  V30 11313 C 1037.56 -0.53852 -1.78765 0
M  V30 11314 C 1037.91 0.944765 -1.71955 0
M  V30 11315 O 1037.04 1.73781 -1.28954 0
M  V30 11316 C 1037.63 -0.970749 -3.24595 0
M  V30 11317 C 1036.19 -0.687189 -3.70074 0
M  V30 11318 C 1035.34 -1.16001 -2.51871 0
M  V30 11319 H 1038.29 -1.05903 -1.18196 0
M  V30 11320 H 1038.31 -0.294966 -3.79355 0
M  V30 11321 H 1037.82 -2.05034 -3.29519 0
M  V30 11322 H 1035.92 0.380881 -3.70648 0
M  V30 11323 H 1036.03 -1.26682 -4.62048 0
M  V30 11324 H 1034.4 -0.579663 -2.48016 0
M  V30 11325 H 1035.18 -2.2471 -2.59539 0
M  V30 11326 N 1037.63 1.44308 -0.633487 0
M  V30 11327 C 1038.56 2.28943 0.108474 0
M  V30 11328 C 1039.57 1.41415 0.806582 0
M  V30 11329 O 1040.76 1.65544 0.667634 0
M  V30 11330 C 1037.86 3.17845 1.1759 0
M  V30 11331 C 1037.03 4.33802 0.559842 0
M  V30 11332 C 1036.09 5.03722 1.52154 0
M  V30 11333 O 1035.12 5.5966 1.03776 0
M  V30 11334 N 1036.32 5.05392 2.85586 0
M  V30 11335 H 1039.09 2.93262 -0.617879 0
M  V30 11336 H 1036.65 1.54781 -0.474819 0
M  V30 11337 H 1038.64 3.61485 1.81963 0
M  V30 11338 H 1037.21 2.55261 1.80445 0
M  V30 11339 H 1036.43 3.93325 -0.262559 0
M  V30 11340 H 1037.72 5.08637 0.128942 0
M  V30 11341 H 1037.11 4.61282 3.27468 0
M  V30 11342 H 1035.67 5.52813 3.45313 0
M  V30 11343 N 1039.1 0.374177 1.53094 0
M  V30 11344 C 1040.35 -0.213981 2.00562 0
M  V30 11345 C 1040.67 -1.4916 1.26533 0
M  V30 11346 O 1041.87 -2.15889 1.64634 0
M  V30 11347 C 1040.33 -0.431876 3.57299 0
M  V30 11348 C 1039.94 0.831615 4.40214 0
M  V30 11349 C 1041.68 -0.977222 4.13099 0
M  V30 11350 C 1039.59 0.582831 5.88521 0
M  V30 11351 H 1038.52 -0.0837386 0.749336 0
M  V30 11352 H 1041.17 0.494245 1.76719 0
M  V30 11353 H 1039.55 -1.20158 3.7733 0
M  V30 11354 H 1040.72 1.60477 4.31953 0
M  V30 11355 H 1039.04 1.30081 3.9556 0
M  V30 11356 H 1041.64 -1.17881 5.21544 0
M  V30 11357 H 1041.98 -1.94189 3.68234 0
M  V30 11358 H 1042.51 -0.267473 3.969 0
M  V30 11359 H 1039.25 1.51807 6.37679 0
M  V30 11360 H 1038.77 -0.151666 5.99608 0
M  V30 11361 H 1040.45 0.211604 6.46654 0
M  V30 11362 N 1040.58 -1.57259 0.103575 0
M  V30 11363 C 1041.53 -2.14487 -0.852295 0
M  V30 11364 C 1042.5 -1.06567 -1.27407 0
M  V30 11365 O 1043.68 -1.34398 -1.35432 0
M  V30 11366 C 1040.82 -2.73632 -2.10284 0
M  V30 11367 C 1039.94 -3.95811 -1.73083 0
M  V30 11368 C 1039.07 -4.43093 -2.92988 0
M  V30 11369 C 1038.11 -5.5784 -2.51953 0
M  V30 11370 N 1037.25 -5.99936 -3.64721 0
M  V30 11371 H 1042.09 -2.95849 -0.35743 0
M  V30 11372 H 1039.63 -1.46175 -0.164748 0
M  V30 11373 H 1041.58 -3.06046 -2.83534 0
M  V30 11374 H 1040.21 -1.94985 -2.57256 0
M  V30 11375 H 1039.27 -3.69656 -0.897688 0
M  V30 11376 H 1040.58 -4.79066 -1.38916 0
M  V30 11377 H 1039.73 -4.77335 -3.74481 0
M  V30 11378 H 1038.47 -3.58756 -3.30372 0
M  V30 11379 H 1037.48 -5.23217 -1.6889 0
M  V30 11380 H 1038.7 -6.43932 -2.15705 0
M  V30 11381 H 1036.65 -5.18543 -4.01807 0
M  V30 11382 H 1036.56 -6.78008 -3.34427 0
M  V30 11383 H 1037.83 -6.38812 -4.46699 0
M  V30 11384 N 1042.06 0.170153 -1.56679 0
M  V30 11385 C 1042.99 1.23525 -1.93066 0
M  V30 11386 C 1044.01 1.40414 -0.823879 0
M  V30 11387 O 1045.19 1.40396 -1.10232 0
M  V30 11388 C 1042.29 2.60376 -2.16928 0
M  V30 11389 C 1041.47 2.6477 -3.4816 0
M  V30 11390 C 1040.53 3.82993 -3.60837 0
M  V30 11391 O 1039.55 3.68937 -4.33444 0
M  V30 11392 N 1040.75 4.99498 -2.95773 0
M  V30 11393 H 1043.52 0.926172 -2.8503 0
M  V30 11394 H 1041.08 0.359909 -1.57849 0
M  V30 11395 H 1043.07 3.37934 -2.22672 0
M  V30 11396 H 1041.64 2.83669 -1.31342 0
M  V30 11397 H 1040.86 1.73298 -3.54064 0
M  V30 11398 H 1042.15 2.64717 -4.34514 0
M  V30 11399 H 1041.55 5.13819 -2.36657 0
M  V30 11400 H 1040.11 5.74914 -3.07111 0
M  V30 11401 N 1043.54 1.5137 0.438746 0
M  V30 11402 C 1044.78 1.64211 1.19006 0
M  V30 11403 C 1045.12 0.356607 1.90898 0
M  V30 11404 O 1044.39 -0.643722 1.83539 0
M  V30 11405 C 1044.68 2.8445 2.20817 0
M  V30 11406 C 1044.53 4.22972 1.53018 0
M  V30 11407 C 1045.85 3.00207 3.21813 0
M  V30 11408 H 1042.97 0.597628 0.431288 0
M  V30 11409 H 1045.61 1.8385 0.479487 0
M  V30 11410 H 1043.76 2.67836 2.81418 0
M  V30 11411 H 1045.43 4.5125 0.957654 0
M  V30 11412 H 1043.67 4.25736 0.832556 0
M  V30 11413 H 1044.34 5.03094 2.27158 0
M  V30 11414 H 1046.82 3.15522 2.71266 0
M  V30 11415 H 1045.7 3.85904 3.90345 0
M  V30 11416 H 1045.96 2.12216 3.87836 0
M  V30 11417 N 1045.02 -0.694098 1.41492 0
M  V30 11418 C 1046.26 -1.4563 1.41137 0
M  V30 11419 C 1046.6 -1.94189 0.0208428 0
M  V30 11420 O 1045.87 -1.69628 -0.951655 0
M  V30 11421 C 1046.15 -2.66714 2.41941 0
M  V30 11422 C 1046.01 -2.23912 3.90107 0
M  V30 11423 C 1047.33 -3.68913 2.39981 0
M  V30 11424 H 1044.44 -0.52821 0.513968 0
M  V30 11425 H 1047.09 -0.790437 1.72778 0
M  V30 11426 H 1045.24 -3.23525 2.1509 0
M  V30 11427 H 1046.91 -1.72417 4.27867 0
M  V30 11428 H 1045.15 -1.5568 4.04903 0
M  V30 11429 H 1045.82 -3.108 4.56188 0
M  V30 11430 H 1048.3 -3.21779 2.63813 0
M  V30 11431 H 1047.17 -4.51242 3.12524 0
M  V30 11432 H 1047.44 -4.18711 1.41892 0
M  V30 11433 N 1046.49 -1.27344 -0.928501 0
M  V30 11434 C 1047.91 -1.12361 -1.49103 0
M  V30 11435 C 1048.26 0.291667 -1.9402 0
M  V30 11436 O 1047.38 1.18449 -1.81104 0
M  V30 11437 C 1047.98 -2.03358 -2.70981 0
M  V30 11438 C 1046.54 -1.92483 -3.23461 0
M  V30 11439 C 1045.68 -1.95961 -1.962 0
M  V30 11440 H 1048.63 -1.40249 -0.742689 0
M  V30 11441 H 1048.65 -1.58892 -3.45736 0
M  V30 11442 H 1048.17 -3.06356 -2.38259 0
M  V30 11443 H 1046.27 -0.924676 -3.60944 0
M  V30 11444 H 1046.38 -2.78682 -3.89709 0
M  V30 11445 H 1044.74 -1.40175 -2.12657 0
M  V30 11446 H 1045.53 -3.00612 -1.65793 0
M  V30 11447 N 1047.97 1.13488 -1.09353 0
M  V30 11448 C 1048.88 2.2248 -0.744307 0
M  V30 11449 C 1049.9 1.72145 0.253404 0
M  V30 11450 O 1051.07 2.01176 0.0949339 0
M  V30 11451 C 1048.14 3.46286 -0.16928 0
M  V30 11452 C 1047.2 4.11516 -1.22284 0
M  V30 11453 C 1046.43 5.29412 -0.675161 0
M  V30 11454 O 1046.66 5.68185 0.502182 0
M  V30 11455 O 1045.59 5.8467 -1.42983 0
M  V30 11456 H 1049.42 2.54723 -1.65378 0
M  V30 11457 H 1047 1.21607 -0.867879 0
M  V30 11458 H 1048.88 4.2114 0.14811 0
M  V30 11459 H 1047.56 3.15745 0.713214 0
M  V30 11460 H 1046.47 3.38492 -1.59292 0
M  V30 11461 H 1047.8 4.46186 -2.07796 0
M  V30 11462 N 1049.45 0.880621 1.30701 0
M  V30 11463 C 1050.7 0.496875 1.96309 0
M  V30 11464 C 1051.03 -0.953064 1.69549 0
M  V30 11465 O 1050.28 -1.68782 0.990507 0
M  V30 11466 C 1050.58 0.713203 3.50212 0
M  V30 11467 C 1050.25 2.13756 3.97013 0
M  V30 11468 C 1048.91 2.52706 4.09503 0
M  V30 11469 C 1051.26 3.066 4.21481 0
M  V30 11470 C 1048.59 3.8372 4.43819 0
M  V30 11471 C 1050.94 4.3714 4.57265 0
M  V30 11472 C 1049.6 4.7599 4.67963 0
M  V30 11473 H 1048.87 0.18182 0.718347 0
M  V30 11474 H 1051.52 1.11564 1.55646 0
M  V30 11475 H 1049.83 0.0113694 3.91798 0
M  V30 11476 H 1051.52 0.39595 3.9904 0
M  V30 11477 H 1048.11 1.8252 3.87794 0
M  V30 11478 H 1052.3 2.77729 4.11315 0
M  V30 11479 H 1047.55 4.13568 4.50301 0
M  V30 11480 H 1051.73 5.09123 4.75149 0
M  V30 11481 H 1049.35 5.77549 4.94309 0
M  V30 11482 N 1050.93 -1.4397 0.641131 0
M  V30 11483 C 1052.18 -2.02246 0.14985 0
M  V30 11484 C 1052.51 -1.50387 -1.22871 0
M  V30 11485 O 1051.78 -0.692003 -1.81773 0
M  V30 11486 C 1052.07 -3.59798 0.147449 0
M  V30 11487 C 1051.92 -4.21916 1.55907 0
M  V30 11488 C 1053.24 -4.36985 -0.522667 0
M  V30 11489 H 1050.36 -0.734875 0.0559274 0
M  V30 11490 H 1053 -1.71418 0.819513 0
M  V30 11491 H 1051.15 -3.86193 -0.422789 0
M  V30 11492 H 1052.82 -4.06594 2.17896 0
M  V30 11493 H 1051.06 -3.79028 2.10998 0
M  V30 11494 H 1051.74 -5.30964 1.50934 0
M  V30 11495 H 1054.21 -4.16083 -0.0376226 0
M  V30 11496 H 1053.09 -5.46676 -0.493572 0
M  V30 11497 H 1053.35 -4.12335 -1.59475 0
M  V30 11498 N 1052.41 -0.382291 -1.52893 0
M  V30 11499 C 1053.36 0.471187 -2.27778 0
M  V30 11500 C 1054.35 1.0691 -1.31402 0
M  V30 11501 O 1055.56 1.01038 -1.48967 0
M  V30 11502 H 1051.93 0.170696 -0.732371 0
M  V30 11503 H 1053.9 -0.181954 -2.97845 0
M  V30 11504 C 1052.65 1.59012 -3.09209 0
M  V30 11505 H 1051.97 1.13935 -3.83222 0
M  V30 11506 H 1053.41 2.16167 -3.64757 0
M  V30 11507 C 1051.87 2.54212 -2.21084 0
M  V30 11508 O 1052.4 3.57447 -1.83288 0
M  V30 11509 N 1050.61 2.23789 -1.85383 0
M  V30 11510 H 1050.16 1.39872 -2.16318 0
M  V30 11511 H 1050.11 2.87737 -1.26708 0
M  V30 11512 N 1053.89 1.57202 -0.111913 0
M  V30 11513 C 1054.85 2.13778 0.826534 0
M  V30 11514 C 1055.85 1.07097 1.19945 0
M  V30 11515 O 1057.04 1.32906 1.12613 0
M  V30 11516 C 1054.17 2.6722 2.11675 0
M  V30 11517 H 1055.36 2.98023 0.334975 0
M  V30 11518 H 1052.92 1.55696 0.137256 0
M  V30 11519 H 1053.65 1.86542 2.65278 0
M  V30 11520 H 1053.44 3.45235 1.8589 0
M  V30 11521 H 1054.93 3.10926 2.78774 0
M  V30 11522 N 1055.36 -0.161842 1.56767 0
M  V30 11523 C 1056.59 -0.896274 1.87034 0
M  V30 11524 C 1057.01 -1.74617 0.699314 0
M  V30 11525 O 1056.37 -1.77861 -0.351435 0
M  V30 11526 C 1056.42 -1.74105 3.15784 0
M  V30 11527 O 1055.52 -2.84372 2.98674 0
M  V30 11528 H 1054.86 -0.250523 0.614926 0
M  V30 11529 H 1057.39 -0.157127 2.03996 0
M  V30 11530 H 1057.4 -2.13907 3.4743 0
M  V30 11531 H 1056.08 -1.11684 4.00624 0
M  V30 11532 H 1054.66 -2.48084 2.78404 0
M  V30 11533 N 1056.84 -1.516 -0.430713 0
M  V30 11534 C 1057.8 -1.72794 -1.50582 0
M  V30 11535 C 1058.8 -0.597903 -1.49271 0
M  V30 11536 O 1059.99 -0.865535 -1.51176 0
M  V30 11537 C 1057.13 -1.79049 -2.90093 0
M  V30 11538 H 1058.32 -2.68751 -1.33091 0
M  V30 11539 H 1055.87 -1.4169 -0.659822 0
M  V30 11540 H 1056.61 -0.849309 -3.12981 0
M  V30 11541 H 1056.39 -2.61181 -2.92449 0
M  V30 11542 H 1057.88 -1.97262 -3.68072 0
M  V30 11543 N 1058.32 0.686584 -1.41858 0
M  V30 11544 C 1059.6 1.44176 -1.32185 0
M  V30 11545 C 1059.98 2.11049 0.046362 0
M  V30 11546 O 1059.32 2.02365 1.06117 0
M  V30 11547 C 1059.53 2.45385 -2.48168 0
M  V30 11548 C 1060.88 3.10375 -2.89746 0
M  V30 11549 O 1061.91 2.55711 -2.47973 0
M  V30 11550 O 1060.77 4.09404 -3.62009 0
M  V30 11551 H 1057.86 0.642513 -0.520678 0
M  V30 11552 H 1060.41 0.716303 -1.53841 0
M  V30 11553 H 1059.18 1.94687 -3.3943 0
M  V30 11554 H 1058.8 3.25428 -2.28435 0
M  V30 11555 N 1059.8 1.27835 0.921735 0
M  V30 11556 C 1060.76 1.11108 2.00469 0
M  V30 11557 C 1061.76 0.053203 1.60712 0
M  V30 11558 O 1062.95 0.298308 1.71627 0
M  V30 11559 C 1060.08 0.694269 3.33755 0
M  V30 11560 H 1061.28 2.07279 2.16738 0
M  V30 11561 H 1058.83 1.10708 1.10333 0
M  V30 11562 H 1059.56 -0.268561 3.23186 0
M  V30 11563 H 1059.35 1.45836 3.6397 0
M  V30 11564 H 1060.84 0.59965 4.13272 0
M  V30 11565 N 1061.28 -1.12907 1.09954 0
M  V30 11566 C 1062.52 -1.83941 0.837255 0
M  V30 11567 C 1062.84 -1.84234 -0.638984 0
M  V30 11568 O 1062.11 -1.30193 -1.46378 0
M  V30 11569 H 1060.69 -0.681115 0.306743 0
M  V30 11570 H 1063.36 -1.36743 1.38879 0
M  V30 11571 H 1062.45 -2.88289 1.19565 0
M  V30 11572 N 1062.75 -0.88754 -1.30232 0
M  V30 11573 C 1064 -0.506277 -1.95656 0
M  V30 11574 C 1064.32 0.948191 -1.70395 0
M  V30 11575 O 1063.59 1.66701 -1.02895 0
M  V30 11576 H 1062.17 -0.184235 -0.723924 0
M  V30 11577 H 1064.83 -1.13118 -1.58715 0
M  V30 11578 H 1063.93 -0.678673 -3.04632 0
M  V30 11579 N 1064.23 1.43628 -0.648757 0
M  V30 11580 C 1065.48 2.01465 -0.16002 0
M  V30 11581 C 1065.8 1.51413 1.22878 0
M  V30 11582 O 1065.07 0.724919 1.81994 0
M  V30 11583 H 1063.65 0.744885 -0.0561672 0
M  V30 11584 H 1066.31 1.75897 -0.839422 0
M  V30 11585 H 1065.41 3.1178 -0.141213 0
M  V30 11586 N 1065.71 0.390394 1.52688 0
M  V30 11587 C 1066.94 -0.194013 2.06491 0
M  V30 11588 C 1067.36 -1.3965 1.26014 0
M  V30 11589 O 1066.72 -1.79038 0.285468 0
M  V30 11590 C 1066.77 -0.541306 3.56514 0
M  V30 11591 O 1065.87 -1.63509 3.78601 0
M  V30 11592 H 1065.21 -0.0223608 0.663623 0
M  V30 11593 H 1067.74 0.558179 1.96839 0
M  V30 11594 H 1067.75 -0.805301 3.99974 0
M  V30 11595 H 1066.43 0.337828 4.14526 0
M  V30 11596 H 1065 -1.36473 3.4703 0
M  V30 11597 N 1067.19 -1.57141 0.120249 0
M  V30 11598 C 1068.15 -2.14213 -0.815185 0
M  V30 11599 C 1069.15 -1.07731 -1.19376 0
M  V30 11600 O 1070.34 -1.33502 -1.11906 0
M  V30 11601 C 1067.47 -2.68339 -2.10255 0
M  V30 11602 H 1068.67 -2.98197 -0.319166 0
M  V30 11603 H 1066.22 -1.55767 -0.128997 0
M  V30 11604 H 1066.95 -1.87946 -2.64285 0
M  V30 11605 H 1066.74 -3.46216 -1.84057 0
M  V30 11606 H 1068.23 -3.124 -2.77121 0
M  V30 11607 N 1068.67 0.153526 -1.5685 0
M  V30 11608 C 1069.89 0.882335 -1.87143 0
M  V30 11609 C 1070.31 1.75034 -0.707702 0
M  V30 11610 O 1069.67 1.79624 0.32273 0
M  V30 11611 C 1069.72 1.74444 -3.16625 0
M  V30 11612 O 1069.44 0.911419 -4.28515 0
M  V30 11613 C 1070.94 2.58139 -3.60388 0
M  V30 11614 H 1068.16 0.25546 -0.620469 0
M  V30 11615 H 1070.7 0.148275 -2.03962 0
M  V30 11616 H 1068.86 2.43163 -3.0158 0
M  V30 11617 H 1069.27 1.50268 -5.02513 0
M  V30 11618 H 1070.75 3.14215 -4.53842 0
M  V30 11619 H 1071.22 3.33865 -2.85361 0
M  V30 11620 H 1071.83 1.94721 -3.78105 0
M  V30 11621 N 1070.14 1.51827 0.422667 0
M  V30 11622 C 1071.37 1.68803 1.19117 0
M  V30 11623 C 1071.78 0.391228 1.85111 0
M  V30 11624 O 1071.13 -0.64148 1.72136 0
M  V30 11625 C 1071.19 2.75767 2.30636 0
M  V30 11626 C 1070.85 4.17929 1.8489 0
M  V30 11627 C 1071.85 5.02223 1.34416 0
M  V30 11628 C 1069.53 4.641 1.92136 0
M  V30 11629 C 1071.53 6.30756 0.917925 0
M  V30 11630 C 1069.21 5.92626 1.49123 0
M  V30 11631 C 1070.21 6.75782 0.990352 0
M  V30 11632 O 1069.9 8.01902 0.566386 0
M  V30 11633 H 1069.63 0.569303 0.364514 0
M  V30 11634 H 1072.19 1.9909 0.505208 0
M  V30 11635 H 1070.42 2.40827 3.02555 0
M  V30 11636 H 1072.11 2.81476 2.92448 0
M  V30 11637 H 1072.87 4.67749 1.28202 0
M  V30 11638 H 1068.75 3.99488 2.30066 0
M  V30 11639 H 1072.29 6.95612 0.52628 0
M  V30 11640 H 1068.19 6.26611 1.55012 0
M  V30 11641 H 1068.96 8.15579 0.690918 0
M  V30 11642 N 1071.62 -0.679052 1.4222 0
M  V30 11643 C 1072.56 -1.80369 1.39794 0
M  V30 11644 C 1073.53 -1.60462 0.262806 0
M  V30 11645 O 1074.72 -1.82992 0.452352 0
M  V30 11646 C 1071.84 -3.17305 1.18471 0
M  V30 11647 C 1070.89 -3.55969 2.34922 0
M  V30 11648 S 1071.72 -3.58884 3.97445 0
M  V30 11649 C 1072.88 -4.98519 3.78457 0
M  V30 11650 H 1073.11 -1.82152 2.34964 0
M  V30 11651 H 1070.65 -0.84932 1.28942 0
M  V30 11652 H 1072.6 -3.96348 1.06856 0
M  V30 11653 H 1071.26 -3.13112 0.248944 0
M  V30 11654 H 1070.46 -4.55491 2.1574 0
M  V30 11655 H 1070.06 -2.84275 2.4303 0
M  V30 11656 H 1072.35 -5.86481 3.39184 0
M  V30 11657 H 1073.29 -5.22748 4.77641 0
M  V30 11658 H 1073.7 -4.70836 3.11406 0
M  V30 11659 N 1073.1 -1.28322 -0.914942 0
M  V30 11660 C 1074.38 -1.06111 -1.64316 0
M  V30 11661 C 1074.76 0.399934 -2.07277 0
M  V30 11662 O 1074.11 1.38577 -1.81683 0
M  V30 11663 C 1074.32 -2.03461 -2.83557 0
M  V30 11664 C 1075.66 -2.33541 -3.54604 0
M  V30 11665 O 1076.69 -2.01536 -2.93704 0
M  V30 11666 O 1075.55 -2.88158 -4.64357 0
M  V30 11667 H 1072.64 -0.405451 -0.72079 0
M  V30 11668 H 1075.19 -1.39636 -0.964352 0
M  V30 11669 H 1073.96 -3.01938 -2.48896 0
M  V30 11670 H 1073.58 -1.70574 -3.59152 0
M  V30 11671 N 1074.58 1.12322 -1.10551 0
M  V30 11672 C 1075.51 2.17819 -0.713263 0
M  V30 11673 C 1076.52 1.6086 0.250604 0
M  V30 11674 O 1077.71 1.78466 0.0348909 0
M  V30 11675 C 1074.81 3.38885 -0.0320325 0
M  V30 11676 C 1073.99 4.25332 -1.02038 0
M  V30 11677 C 1073.04 5.24895 -0.370412 0
M  V30 11678 O 1072.07 5.59958 -1.02157 0
M  V30 11679 N 1073.27 5.73934 0.870633 0
M  V30 11680 H 1076.04 2.52083 -1.62094 0
M  V30 11681 H 1073.6 1.27755 -0.994492 0
M  V30 11682 H 1075.59 4.02574 0.414285 0
M  V30 11683 H 1074.16 3.02762 0.778072 0
M  V30 11684 H 1073.38 3.5824 -1.64492 0
M  V30 11685 H 1074.67 4.79936 -1.68936 0
M  V30 11686 H 1074.07 5.47614 1.419 0
M  V30 11687 H 1072.62 6.39504 1.26008 0
M  V30 11688 N 1076.06 0.894434 1.2976 0
M  V30 11689 C 1077.02 0.373094 2.26143 0
M  V30 11690 C 1078.02 -0.489756 1.5316 0
M  V30 11691 O 1079.21 -0.29556 1.71674 0
M  V30 11692 C 1076.34 -0.467234 3.37683 0
M  V30 11693 H 1077.53 1.22427 2.73773 0
M  V30 11694 H 1075.09 0.672112 1.41111 0
M  V30 11695 H 1075.82 -1.33861 2.95384 0
M  V30 11696 H 1075.61 0.150954 3.91809 0
M  V30 11697 H 1077.1 -0.823469 4.094 0
M  V30 11698 N 1077.53 -1.43282 0.656365 0
M  V30 11699 C 1078.95 -1.85012 0.250475 0
M  V30 11700 C 1079.3 -1.54944 -1.20361 0
M  V30 11701 O 1078.42 -0.999983 -1.9191 0
M  V30 11702 C 1079.02 -3.35827 0.447815 0
M  V30 11703 C 1077.58 -3.76277 0.0962151 0
M  V30 11704 C 1076.72 -2.66988 0.749168 0
M  V30 11705 H 1079.67 -1.3339 0.85982 0
M  V30 11706 H 1079.69 -3.7927 -0.305726 0
M  V30 11707 H 1079.21 -3.5768 1.5062 0
M  V30 11708 H 1077.31 -3.60035 -0.959449 0
M  V30 11709 H 1077.42 -4.76227 0.523875 0
M  V30 11710 H 1075.78 -2.54048 0.18212 0
M  V30 11711 H 1076.57 -2.91669 1.81064 0
M  V30 11712 N 1079.01 -0.398486 -1.52479 0
M  V30 11713 C 1080.24 0.183059 -2.06591 0
M  V30 11714 C 1080.66 1.3898 -1.26753 0
M  V30 11715 O 1080.02 1.78885 -0.294959 0
M  V30 11716 C 1080.07 0.522392 -3.56796 0
M  V30 11717 O 1079.17 1.61499 -3.79462 0
M  V30 11718 H 1078.51 0.0188411 -0.663733 0
M  V30 11719 H 1081.04 -0.56861 -1.9654 0
M  V30 11720 H 1081.05 0.784078 -4.00395 0
M  V30 11721 H 1079.73 -0.359807 -4.14341 0
M  V30 11722 H 1078.31 1.3463 -3.47749 0
M  V30 11723 N 1080.49 1.57075 -0.12858 0
M  V30 11724 C 1081.9 1.82468 0.39526 0
M  V30 11725 C 1082.25 1.0463 1.65973 0
M  V30 11726 O 1081.38 0.285835 2.14504 0
M  V30 11727 C 1081.97 3.30976 0.723889 0
M  V30 11728 C 1080.53 3.57016 1.19232 0
M  V30 11729 C 1079.68 2.76534 0.205907 0
M  V30 11730 H 1082.63 1.54711 -0.353571 0
M  V30 11731 H 1082.65 3.46127 1.58039 0
M  V30 11732 H 1082.16 3.87602 -0.196595 0
M  V30 11733 H 1080.26 3.05758 2.12938 0
M  V30 11734 H 1080.38 4.65558 1.13103 0
M  V30 11735 H 1078.74 2.45038 0.694872 0
M  V30 11736 H 1079.52 3.35923 -0.707842 0
M  V30 11737 N 1081.97 -0.145205 1.5693 0
M  V30 11738 C 1082.93 -1.16316 1.97492 0
M  V30 11739 C 1083.93 -1.35764 0.861668 0
M  V30 11740 O 1085.12 -1.32726 1.12825 0
M  V30 11741 C 1082.25 -2.52311 2.29242 0
M  V30 11742 H 1083.45 -0.815138 2.8861 0
M  V30 11743 H 1081 -0.38861 1.51392 0
M  V30 11744 H 1081.74 -2.92081 1.40922 0
M  V30 11745 H 1081.52 -2.39555 3.10412 0
M  V30 11746 H 1083.01 -3.25624 2.61456 0
M  V30 11747 N 1083.45 -1.52049 -0.414609 0
M  V30 11748 C 1084.69 -1.66084 -1.16379 0
M  V30 11749 C 1085.03 -0.386932 -1.90306 0
M  V30 11750 O 1084.3 0.614441 -1.8454 0
M  V30 11751 C 1084.58 -2.87927 -2.16264 0
M  V30 11752 C 1084.44 -4.25353 -1.46269 0
M  V30 11753 C 1085.76 -3.05289 -3.16996 0
M  V30 11754 H 1082.88 -0.604414 -0.421726 0
M  V30 11755 H 1085.52 -1.8459 -0.450177 0
M  V30 11756 H 1083.67 -2.7228 -2.77121 0
M  V30 11757 H 1085.34 -4.52717 -0.885743 0
M  V30 11758 H 1083.58 -4.27006 -0.76472 0
M  V30 11759 H 1084.25 -5.06644 -2.19126 0
M  V30 11760 H 1086.73 -3.19798 -2.66212 0
M  V30 11761 H 1085.61 -3.92065 -3.84156 0
M  V30 11762 H 1085.87 -2.1836 -3.84411 0
M  V30 11763 N 1084.93 0.6715 -1.42579 0
M  V30 11764 C 1086.17 1.44353 -1.44712 0
M  V30 11765 C 1086.53 1.91898 -0.0626628 0
M  V30 11766 O 1087.73 2.68768 0.0412789 0
M  V30 11767 C 1086 2.60616 -2.44569 0
M  V30 11768 S 1087.56 3.49416 -2.65431 0
M  V30 11769 H 1084.38 0.492985 -0.512334 0
M  V30 11770 H 1086.98 0.781349 -1.79207 0
M  V30 11771 H 1085.68 2.23931 -3.43923 0
M  V30 11772 H 1085.22 3.31703 -2.1151 0
M  V30 11773 H 1087.23 4.56712 -1.9398 0
M  V30 11774 N 1086.4 1.28806 0.908124 0
M  V30 11775 C 1087.81 1.14719 1.47297 0
M  V30 11776 C 1088.17 -0.260763 1.94459 0
M  V30 11777 O 1087.29 -1.15553 1.82966 0
M  V30 11778 C 1087.89 2.07643 2.67712 0
M  V30 11779 C 1086.44 1.97605 3.20358 0
M  V30 11780 C 1085.59 1.99058 1.93058 0
M  V30 11781 H 1088.54 1.41413 0.720283 0
M  V30 11782 H 1088.56 1.64372 3.43165 0
M  V30 11783 H 1088.08 3.10108 2.33355 0
M  V30 11784 H 1086.18 0.981982 3.59427 0
M  V30 11785 H 1086.29 2.84846 3.85226 0
M  V30 11786 H 1084.65 1.43541 2.104 0
M  V30 11787 H 1085.44 3.03212 1.60989 0
M  V30 11788 N 1087.88 -1.11734 1.11145 0
M  V30 11789 C 1088.81 -2.17438 0.724804 0
M  V30 11790 C 1089.83 -1.6099 -0.242069 0
M  V30 11791 O 1091.02 -1.78482 -0.0254259 0
M  V30 11792 C 1088.12 -3.38863 0.050004 0
M  V30 11793 C 1087.29 -4.24785 1.04292 0
M  V30 11794 C 1086.35 -5.24691 0.398243 0
M  V30 11795 O 1085.37 -5.59408 1.05125 0
M  V30 11796 N 1086.58 -5.74388 -0.840184 0
M  V30 11797 H 1089.34 -2.51219 1.63429 0
M  V30 11798 H 1086.9 -1.27226 1.00125 0
M  V30 11799 H 1088.89 -4.02788 -0.392929 0
M  V30 11800 H 1087.46 -3.0317 -0.762005 0
M  V30 11801 H 1086.68 -3.57363 1.6639 0
M  V30 11802 H 1087.97 -4.79033 1.71478 0
M  V30 11803 H 1087.37 -5.48359 -1.38994 0
M  V30 11804 H 1085.93 -6.40163 -1.22615 0
M  V30 11805 N 1089.36 -0.901303 -1.29284 0
M  V30 11806 C 1090.32 -0.385081 -2.25942 0
M  V30 11807 C 1091.32 0.481626 -1.53418 0
M  V30 11808 O 1092.51 0.286451 -1.71829 0
M  V30 11809 C 1089.64 0.449319 -3.37926 0
M  V30 11810 H 1090.84 -1.23877 -2.7312 0
M  V30 11811 H 1088.39 -0.679586 -1.40753 0
M  V30 11812 H 1089.13 1.32292 -2.9609 0
M  V30 11813 H 1088.91 -0.171731 -3.91724 0
M  V30 11814 H 1090.4 0.801746 -4.09831 0
M  V30 11815 N 1090.84 1.42931 -0.663954 0
M  V30 11816 C 1091.79 2.27958 0.0436184 0
M  V30 11817 C 1092.77 1.40493 0.784258 0
M  V30 11818 O 1093.96 1.64035 0.664956 0
M  V30 11819 C 1091.09 3.28357 1.00183 0
M  V30 11820 C 1090.18 4.23308 0.259099 0
M  V30 11821 N 1090.57 5.00502 -0.730182 0
M  V30 11822 C 1088.87 4.43199 0.499061 0
M  V30 11823 C 1089.57 5.69771 -1.17201 0
M  V30 11824 N 1088.54 5.41258 -0.504105 0
M  V30 11825 H 1092.35 2.85061 -0.715348 0
M  V30 11826 H 1089.86 1.54764 -0.492117 0
M  V30 11827 H 1091.86 3.88061 1.52362 0
M  V30 11828 H 1090.52 2.72815 1.76074 0
M  V30 11829 H 1091.53 5.0588 -1.10932 0
M  V30 11830 H 1088.21 3.98713 1.23831 0
M  V30 11831 H 1089.6 6.41718 -1.99117 0
M  V30 11832 N 1092.32 0.406567 1.52266 0
M  V30 11833 C 1093.55 -0.169378 2.05905 0
M  V30 11834 C 1093.95 -1.39626 1.27676 0
M  V30 11835 O 1093.3 -1.80871 0.32114 0
M  V30 11836 C 1093.36 -0.587209 3.54672 0
M  V30 11837 C 1093.02 0.528588 4.53933 0
M  V30 11838 C 1094.02 1.39137 5.00936 0
M  V30 11839 C 1091.7 0.700549 4.97391 0
M  V30 11840 C 1093.7 2.41108 5.90039 0
M  V30 11841 C 1091.39 1.72357 5.8629 0
M  V30 11842 C 1092.38 2.57725 6.32509 0
M  V30 11843 O 1092.07 3.58275 7.19649 0
M  V30 11844 H 1091.8 -0.0250574 0.675535 0
M  V30 11845 H 1094.36 0.575377 1.97177 0
M  V30 11846 H 1092.59 -1.38421 3.61077 0
M  V30 11847 H 1094.28 -1.09078 3.90969 0
M  V30 11848 H 1095.04 1.26991 4.68079 0
M  V30 11849 H 1090.92 0.0457503 4.60977 0
M  V30 11850 H 1094.47 3.07774 6.26036 0
M  V30 11851 H 1090.36 1.84535 6.1856 0
M  V30 11852 H 1091.13 3.54489 7.37753 0
M  V30 11853 N 1093.79 -1.57004 0.136909 0
M  V30 11854 C 1094.74 -2.17524 -0.823784 0
M  V30 11855 C 1095.74 -1.1294 -1.26258 0
M  V30 11856 O 1096.94 -1.3121 -1.23223 0
M  V30 11857 H 1093.32 -0.696381 -0.283827 0
M  V30 11858 H 1095.29 -2.96997 -0.289052 0
M  V30 11859 C 1094.04 -2.80331 -2.05693 0
M  V30 11860 H 1093.36 -3.60515 -1.72825 0
M  V30 11861 H 1094.8 -3.26192 -2.70878 0
M  V30 11862 C 1093.26 -1.78322 -2.85837 0
M  V30 11863 O 1093.79 -1.2475 -3.81838 0
M  V30 11864 N 1092 -1.47854 -2.50175 0
M  V30 11865 H 1091.54 -1.9161 -1.72173 0
M  V30 11866 H 1091.5 -0.798464 -3.04092 0
M  V30 11867 N 1095.27 0.136881 -1.57004 0
M  V30 11868 C 1096.21 1.19853 -1.94192 0
M  V30 11869 C 1097.18 1.4104 -0.809103 0
M  V30 11870 O 1098.37 1.55487 -1.06565 0
M  V30 11871 C 1095.49 2.55565 -2.22271 0
M  V30 11872 C 1094.54 2.50913 -3.44884 0
M  V30 11873 S 1095.37 1.96619 -4.98098 0
M  V30 11874 C 1096.53 3.34039 -5.2931 0
M  V30 11875 H 1096.76 0.881316 -2.83937 0
M  V30 11876 H 1094.3 0.342915 -1.50544 0
M  V30 11877 H 1096.25 3.33659 -2.39127 0
M  V30 11878 H 1094.91 2.84472 -1.33172 0
M  V30 11879 H 1094.11 3.50839 -3.6184 0
M  V30 11880 H 1093.71 1.80932 -3.27322 0
M  V30 11881 H 1096 4.30189 -5.23397 0
M  V30 11882 H 1096.94 3.21927 -6.30689 0
M  V30 11883 H 1097.35 3.31642 -4.56808 0
M  V30 11884 N 1096.75 1.52266 0.40654 0
M  V30 11885 C 1097.98 1.70057 1.1732 0
M  V30 11886 C 1098.39 0.41084 1.84686 0
M  V30 11887 O 1097.73 -0.623187 1.72806 0
M  V30 11888 C 1097.79 2.78197 2.27698 0
M  V30 11889 C 1097.46 4.19866 1.80447 0
M  V30 11890 C 1098.45 5.03621 1.29082 0
M  V30 11891 C 1096.14 4.66112 1.87202 0
M  V30 11892 C 1098.13 6.31694 0.850973 0
M  V30 11893 C 1095.82 5.94174 1.42829 0
M  V30 11894 C 1096.82 6.76794 0.918621 0
M  V30 11895 O 1096.51 8.02458 0.481302 0
M  V30 11896 H 1096.24 0.573137 0.358455 0
M  V30 11897 H 1098.79 1.99615 0.484064 0
M  V30 11898 H 1097.02 2.44022 2.99983 0
M  V30 11899 H 1098.71 2.84562 2.89446 0
M  V30 11900 H 1099.48 4.69083 1.23234 0
M  V30 11901 H 1095.36 4.01905 2.25816 0
M  V30 11902 H 1098.9 6.96131 0.452471 0
M  V30 11903 H 1094.8 6.2822 1.48358 0
M  V30 11904 H 1095.57 8.16266 0.604376 0
M  V30 11905 N 1098.23 -0.663929 1.42933 0
M  V30 11906 C 1099.64 -1.24484 1.39143 0
M  V30 11907 C 1099.99 -1.95993 0.0901142 0
M  V30 11908 O 1099.12 -2.00636 -0.810812 0
M  V30 11909 C 1099.71 -2.26402 2.52047 0
M  V30 11910 C 1098.27 -2.79995 2.51555 0
M  V30 11911 C 1097.42 -1.54475 2.30289 0
M  V30 11912 H 1100.37 -0.456619 1.51989 0
M  V30 11913 H 1100.39 -3.08361 2.22921 0
M  V30 11914 H 1099.9 -1.74328 3.46744 0
M  V30 11915 H 1098 -3.36161 1.60707 0
M  V30 11916 H 1098.11 -3.2827 3.48964 0
M  V30 11917 H 1096.48 -1.81437 1.78753 0
M  V30 11918 H 1097.26 -1.04351 3.27056 0
M  V30 11919 N 1099.71 -1.29285 -0.901281 0
M  V30 11920 C 1100.64 -1.10086 -2.01032 0
M  V30 11921 C 1101.65 -0.0488364 -1.62727 0
M  V30 11922 O 1102.84 -0.293194 -1.76076 0
M  V30 11923 C 1099.94 -0.653357 -3.32542 0
M  V30 11924 C 1099.11 -1.78355 -3.99385 0
M  V30 11925 C 1098.17 -1.32733 -5.09184 0
M  V30 11926 O 1097.2 -2.03177 -5.31703 0
M  V30 11927 N 1098.4 -0.197345 -5.80164 0
M  V30 11928 H 1101.17 -2.056 -2.18057 0
M  V30 11929 H 1098.73 -1.21204 -1.07337 0
M  V30 11930 H 1100.72 -0.331491 -4.0334 0
M  V30 11931 H 1099.29 0.209278 -3.11899 0
M  V30 11932 H 1098.51 -2.27438 -3.21972 0
M  V30 11933 H 1099.8 -2.54137 -4.40785 0
M  V30 11934 H 1099.19 0.390011 -5.64354 0
M  V30 11935 H 1097.75 0.0651642 -6.51767 0
M  V30 11936 N 1101.18 1.11143 -1.11736 0
M  V30 11937 C 1102.13 2.19358 -0.773626 0
M  V30 11938 C 1103.13 1.67744 0.236288 0
M  V30 11939 O 1104.33 1.79748 0.09525 0
M  V30 11940 H 1100.71 0.715218 -0.232309 0
M  V30 11941 H 1102.68 2.45594 -1.69487 0
M  V30 11942 C 1101.43 3.46895 -0.236457 0
M  V30 11943 H 1100.75 3.86967 -1.00483 0
M  V30 11944 H 1102.19 4.23986 -0.034168 0
M  V30 11945 C 1100.65 3.20641 1.03397 0
M  V30 11946 O 1101.18 3.41629 2.11312 0
M  V30 11947 N 1099.39 2.74356 0.957986 0
M  V30 11948 H 1098.93 2.57477 0.0796924 0
M  V30 11949 H 1098.89 2.57166 1.80867 0
M  V30 11950 N 1102.66 0.908147 1.28804 0
M  V30 11951 C 1104.07 0.585727 1.77274 0
M  V30 11952 C 1104.42 -0.898842 1.744 0
M  V30 11953 O 1103.55 -1.70301 1.33516 0
M  V30 11954 C 1104.14 1.05647 3.21907 0
M  V30 11955 C 1102.7 0.785066 3.68122 0
M  V30 11956 C 1101.85 1.22638 2.48707 0
M  V30 11957 H 1104.8 1.09 1.15346 0
M  V30 11958 H 1104.82 0.395442 3.7844 0
M  V30 11959 H 1104.33 2.13698 3.23967 0
M  V30 11960 H 1102.44 -0.282477 3.71528 0
M  V30 11961 H 1102.55 1.38888 4.58527 0
M  V30 11962 H 1100.91 0.645217 2.46392 0
M  V30 11963 H 1101.7 2.31512 2.5349 0
M  V30 11964 N 1104.14 -1.42577 0.671525 0
M  V30 11965 C 1105.42 -1.95222 0.121529 0
M  V30 11966 C 1105.8 -1.61209 -1.36289 0
M  V30 11967 O 1105.15 -0.906561 -2.09747 0
M  V30 11968 C 1105.36 -3.46846 0.387189 0
M  V30 11969 C 1106.7 -4.23525 0.301938 0
M  V30 11970 O 1107.73 -3.54753 0.320755 0
M  V30 11971 O 1106.59 -5.45967 0.241317 0
M  V30 11972 H 1103.68 -0.826999 0.000968615 0
M  V30 11973 H 1106.23 -1.52422 0.746029 0
M  V30 11974 H 1105 -3.64795 1.41563 0
M  V30 11975 H 1104.62 -3.96686 -0.26948 0
M  V30 11976 N 1105.62 -0.414636 -1.52048 0
M  V30 11977 C 1106.84 0.161137 -2.06773 0
M  V30 11978 C 1107.27 1.37628 -1.2822 0
M  V30 11979 O 1106.63 1.78562 -0.313915 0
M  V30 11980 C 1106.67 0.48452 -3.5733 0
M  V30 11981 O 1105.78 1.57466 -3.81154 0
M  V30 11982 H 1105.12 0.0118003 -0.663895 0
M  V30 11983 H 1107.65 -0.589424 -1.95926 0
M  V30 11984 H 1107.66 0.741567 -4.01204 0
M  V30 11985 H 1106.33 -0.403733 -4.13936 0
M  V30 11986 H 1104.91 1.30935 -3.49157 0
M  V30 11987 N 1107.1 1.56929 -0.145233 0
M  V30 11988 C 1108.34 1.96358 0.50707 0
M  V30 11989 C 1108.68 1.03005 1.64632 0
M  V30 11990 O 1107.95 0.0721045 1.94366 0
M  V30 11991 C 1108.23 3.45502 1.01492 0
M  V30 11992 C 1108.09 4.49633 -0.122708 0
M  V30 11993 C 1109.41 3.97103 1.89729 0
M  V30 11994 H 1106.52 0.713958 0.182848 0
M  V30 11995 H 1109.17 1.8865 -0.226102 0
M  V30 11996 H 1107.32 3.52202 1.6397 0
M  V30 11997 H 1108.99 4.55013 -0.758988 0
M  V30 11998 H 1107.23 4.26691 -0.782109 0
M  V30 11999 H 1107.9 5.51318 0.27432 0
M  V30 12000 H 1110.38 3.92871 1.37082 0
M  V30 12001 H 1109.25 5.01927 2.22173 0
M  V30 12002 H 1109.52 3.39354 2.83357 0
M  V30 12003 N 1108.58 -0.128553 1.57075 0
M  V30 12004 C 1109.51 -1.15953 2.02675 0
M  V30 12005 C 1110.49 -1.43743 0.909501 0
M  V30 12006 O 1111.67 -1.54348 1.17857 0
M  V30 12007 C 1108.8 -2.48813 2.423 0
M  V30 12008 C 1107.76 -2.35506 3.57381 0
M  V30 12009 C 1107.08 -3.73243 3.82875 0
M  V30 12010 C 1108.38 -1.82359 4.89431 0
M  V30 12011 H 1110.08 -0.780283 2.89054 0
M  V30 12012 H 1107.62 -0.373896 1.39061 0
M  V30 12013 H 1109.57 -3.21179 2.72804 0
M  V30 12014 H 1108.3 -2.88609 1.52881 0
M  V30 12015 H 1106.96 -1.6559 3.27071 0
M  V30 12016 H 1106.61 -4.10507 2.90677 0
M  V30 12017 H 1106.31 -3.65195 4.60333 0
M  V30 12018 H 1107.83 -4.47128 4.15823 0
M  V30 12019 H 1109.24 -2.44533 5.18533 0
M  V30 12020 H 1107.64 -1.85156 5.70822 0
M  V30 12021 H 1108.71 -0.780478 4.78578 0
M  V30 12022 N 1110.05 -1.5248 -0.398459 0
M  V30 12023 C 1111.33 -1.57634 -1.15805 0
M  V30 12024 C 1111.71 -0.363785 -2.07942 0
M  V30 12025 O 1111.06 0.648598 -2.19101 0
M  V30 12026 C 1111.27 -2.91042 -1.92602 0
M  V30 12027 C 1112.62 -3.44433 -2.48296 0
M  V30 12028 O 1113.64 -2.92853 -2.0277 0
M  V30 12029 O 1112.5 -4.34529 -3.31432 0
M  V30 12030 H 1109.59 -0.63539 -0.529347 0
M  V30 12031 H 1112.14 -1.64812 -0.404376 0
M  V30 12032 H 1110.91 -3.7074 -1.25169 0
M  V30 12033 H 1110.53 -2.87206 -2.74952 0
M  V30 12034 N 1111.53 0.65634 -1.43283 0
M  V30 12035 C 1112.76 1.44408 -1.48168 0
M  V30 12036 C 1113.17 1.88542 -0.0986016 0
M  V30 12037 O 1112.53 1.59298 0.890527 0
M  V30 12038 C 1112.58 2.68111 -2.42484 0
M  V30 12039 O 1112.3 2.25824 -3.75413 0
M  V30 12040 C 1113.8 3.61499 -2.56579 0
M  V30 12041 H 1111.02 0.443731 -0.503333 0
M  V30 12042 H 1113.57 0.804917 -1.87993 0
M  V30 12043 H 1111.72 3.28175 -2.05863 0
M  V30 12044 H 1112.14 3.05839 -4.26102 0
M  V30 12045 H 1113.61 4.44972 -3.26655 0
M  V30 12046 H 1114.09 4.08639 -1.60969 0
M  V30 12047 H 1114.69 3.07319 -2.93998 0
M  V30 12048 N 1113.01 1.29761 0.894412 0
M  V30 12049 C 1114.29 1.08711 1.62608 0
M  V30 12050 C 1114.67 -0.366907 2.07887 0
M  V30 12051 O 1114.01 -1.35669 1.83865 0
M  V30 12052 C 1114.22 2.07947 2.80284 0
M  V30 12053 C 1115.57 2.39153 3.50843 0
M  V30 12054 O 1116.6 2.06183 2.9046 0
M  V30 12055 O 1115.46 2.95509 4.59713 0
M  V30 12056 H 1112.55 0.416866 0.714249 0
M  V30 12057 H 1115.1 1.41153 0.942015 0
M  V30 12058 H 1113.87 3.05859 2.44061 0
M  V30 12059 H 1113.49 1.76266 3.56393 0
M  V30 12060 N 1114.49 -1.10549 1.12324 0
M  V30 12061 C 1115.74 -1.82124 0.876083 0
M  V30 12062 C 1116.06 -1.85547 -0.599761 0
M  V30 12063 O 1115.33 -1.33269 -1.43584 0
M  V30 12064 H 1113.91 -0.674455 0.321122 0
M  V30 12065 H 1116.57 -1.33766 1.41748 0
M  V30 12066 H 1115.66 -2.85688 1.25653 0
M  V30 12067 N 1115.97 -0.914965 -1.28321 0
M  V30 12068 C 1117.24 -0.46764 -1.89928 0
M  V30 12069 C 1117.62 1.05364 -1.82925 0
M  V30 12070 O 1116.97 1.90223 -1.26599 0
M  V30 12071 C 1117.18 -0.999372 -3.34385 0
M  V30 12072 C 1118.53 -1.0522 -4.11356 0
M  V30 12073 O 1119.55 -0.9481 -3.4335 0
M  V30 12074 O 1118.41 -1.21085 -5.32917 0
M  V30 12075 H 1115.51 -0.148398 -0.813577 0
M  V30 12076 H 1118.05 -1.00583 -1.36679 0
M  V30 12077 H 1116.82 -2.04333 -3.33712 0
M  V30 12078 H 1116.45 -0.442083 -3.95135 0
M  V30 12079 N 1117.44 1.42219 -0.679077 0
M  V30 12080 C 1118.69 2.01479 -0.203119 0
M  V30 12081 C 1119.02 1.5371 1.19178 0
M  V30 12082 O 1118.27 0.731832 1.81501 0
M  V30 12083 C 1118.57 3.56889 -0.191027 0
M  V30 12084 C 1118.24 4.24106 -1.53118 0
M  V30 12085 C 1116.9 4.42182 -1.89812 0
M  V30 12086 C 1119.25 4.61946 -2.41361 0
M  V30 12087 C 1116.58 4.95371 -3.14364 0
M  V30 12088 C 1118.93 5.16518 -3.65229 0
M  V30 12089 C 1117.6 5.32807 -4.02086 0
M  V30 12090 H 1116.87 0.737263 -0.0743264 0
M  V30 12091 H 1119.51 1.70346 -0.874908 0
M  V30 12092 H 1117.82 3.87715 0.564282 0
M  V30 12093 H 1119.52 4.00528 0.194511 0
M  V30 12094 H 1116.11 4.10399 -1.23575 0
M  V30 12095 H 1120.29 4.4765 -2.14297 0
M  V30 12096 H 1115.55 5.06167 -3.42935 0
M  V30 12097 H 1119.72 5.44782 -4.33804 0
M  V30 12098 H 1117.35 5.73785 -4.98673 0
M  V30 12099 N 1118.92 0.422693 1.51826 0
M  V30 12100 C 1120.2 -0.20786 1.94492 0
M  V30 12101 C 1120.58 -1.61414 1.36047 0
M  V30 12102 O 1119.93 -2.21987 0.541657 0
M  V30 12103 C 1120.14 -0.200457 3.48424 0
M  V30 12104 C 1121.48 -0.413199 4.22585 0
M  V30 12105 O 1122.51 -0.27922 3.55104 0
M  V30 12106 O 1121.37 -0.678469 5.42272 0
M  V30 12107 H 1118.46 -0.137851 0.81543 0
M  V30 12108 H 1121.01 0.479617 1.62781 0
M  V30 12109 H 1119.78 0.783263 3.83381 0
M  V30 12110 H 1119.4 -0.931464 3.86535 0
M  V30 12111 N 1120.4 -1.5685 0.153553 0
M  V30 12112 C 1121.33 -2.20101 -0.779601 0
M  V30 12113 C 1122.31 -1.15121 -1.25225 0
M  V30 12114 O 1123.5 -1.43487 -1.30862 0
M  V30 12115 C 1120.63 -2.82778 -2.01628 0
M  V30 12116 C 1119.58 -3.93643 -1.68015 0
M  V30 12117 C 1118.91 -4.43286 -2.99001 0
M  V30 12118 C 1120.21 -5.14102 -0.921774 0
M  V30 12119 H 1121.9 -2.98334 -0.252432 0
M  V30 12120 H 1119.45 -1.43499 -0.119975 0
M  V30 12121 H 1121.4 -3.25696 -2.67395 0
M  V30 12122 H 1120.12 -2.01887 -2.56728 0
M  V30 12123 H 1118.78 -3.51354 -1.04624 0
M  V30 12124 H 1118.43 -3.59208 -3.52106 0
M  V30 12125 H 1118.13 -5.18068 -2.77272 0
M  V30 12126 H 1119.65 -4.88878 -3.65828 0
M  V30 12127 H 1121.07 -5.53823 -1.48167 0
M  V30 12128 H 1119.46 -5.94687 -0.804185 0
M  V30 12129 H 1120.53 -4.84825 0.0852757 0
M  V30 12130 N 1121.88 0.120221 -1.57141 0
M  V30 12131 C 1122.79 1.16641 -2.03549 0
M  V30 12132 C 1123.8 1.45407 -0.955656 0
M  V30 12133 O 1124.98 1.56547 -1.26708 0
M  V30 12134 C 1122.04 2.4734 -2.42948 0
M  V30 12135 C 1121.11 2.25982 -3.65008 0
M  V30 12136 C 1120.34 3.50449 -4.02518 0
M  V30 12137 O 1120.56 4.57706 -3.40384 0
M  V30 12138 O 1119.5 3.41524 -4.95626 0
M  V30 12139 H 1123.32 0.802323 -2.9291 0
M  V30 12140 H 1120.91 0.330927 -1.45689 0
M  V30 12141 H 1122.79 3.24348 -2.69029 0
M  V30 12142 H 1121.46 2.83225 -1.56733 0
M  V30 12143 H 1120.37 1.46837 -3.44078 0
M  V30 12144 H 1121.7 1.95002 -4.51924 0
M  V30 12145 N 1123.36 1.52689 0.390367 0
M  V30 12146 C 1124.63 1.58246 1.14968 0
M  V30 12147 C 1125.01 0.374808 2.07746 0
M  V30 12148 O 1124.36 -0.636969 2.19442 0
M  V30 12149 C 1124.57 2.92059 1.91056 0
M  V30 12150 C 1125.92 3.45745 2.46466 0
M  V30 12151 O 1126.94 2.93924 2.01214 0
M  V30 12152 O 1125.8 4.3628 3.29122 0
M  V30 12153 H 1122.9 0.638189 0.52597 0
M  V30 12154 H 1125.44 1.65024 0.39563 0
M  V30 12155 H 1124.21 3.71399 1.23201 0
M  V30 12156 H 1123.84 2.8866 2.73425 0
M  V30 12157 N 1124.83 -0.648732 1.43629 0
M  V30 12158 C 1126.06 -1.4362 1.48932 0
M  V30 12159 C 1126.48 -1.88487 0.108599 0
M  V30 12160 O 1125.83 -1.59768 -0.882066 0
M  V30 12161 C 1125.89 -2.66822 2.43903 0
M  V30 12162 O 1125.61 -2.2383 3.76606 0
M  V30 12163 C 1127.11 -3.60134 2.58493 0
M  V30 12164 H 1124.33 -0.441055 0.505679 0
M  V30 12165 H 1126.87 -0.794936 1.88417 0
M  V30 12166 H 1125.03 -3.27079 2.07601 0
M  V30 12167 H 1125.44 -3.03575 4.27718 0
M  V30 12168 H 1126.91 -4.43234 3.29011 0
M  V30 12169 H 1127.39 -4.07779 1.63134 0
M  V30 12170 H 1128 -3.05756 2.95624 0
M  V30 12171 N 1126.31 -1.30234 -0.887518 0
M  V30 12172 C 1127.25 -1.10726 -1.99537 0
M  V30 12173 C 1128.22 -0.0156237 -1.62592 0
M  V30 12174 O 1129.41 -0.168687 -1.87744 0
M  V30 12175 C 1126.53 -0.688185 -3.31635 0
M  V30 12176 C 1125.58 -1.78031 -3.87566 0
M  V30 12177 S 1126.41 -3.38219 -4.15172 0
M  V30 12178 C 1127.57 -2.98208 -5.50293 0
M  V30 12179 H 1127.8 -2.04516 -2.15778 0
M  V30 12180 H 1125.34 -1.14519 -1.0356 0
M  V30 12181 H 1127.29 -0.453124 -4.07991 0
M  V30 12182 H 1125.95 0.230315 -3.13254 0
M  V30 12183 H 1125.15 -1.43931 -4.83011 0
M  V30 12184 H 1124.75 -1.96952 -3.1794 0
M  V30 12185 H 1127.04 -2.4601 -6.31257 0
M  V30 12186 H 1127.98 -3.92551 -5.89329 0
M  V30 12187 H 1128.39 -2.36149 -5.12732 0
M  V30 12188 N 1127.79 1.09952 -1.12909 0
M  V30 12189 C 1129.07 1.78547 -0.798767 0
M  V30 12190 C 1129.45 1.9878 0.710624 0
M  V30 12191 O 1128.8 1.58485 1.64604 0
M  V30 12192 C 1129.01 3.1121 -1.57953 0
M  V30 12193 C 1130.35 3.86006 -1.76874 0
M  V30 12194 O 1131.38 3.20946 -1.54506 0
M  V30 12195 O 1130.24 5.02791 -2.14158 0
M  V30 12196 H 1127.33 0.774084 -0.291072 0
M  V30 12197 H 1129.88 1.16557 -1.2334 0
M  V30 12198 H 1128.65 2.91935 -2.60557 0
M  V30 12199 H 1128.27 3.80922 -1.13948 0
M  V30 12200 N 1129.27 0.921757 1.27833 0
M  V30 12201 C 1130.51 0.559906 1.94918 0
M  V30 12202 C 1130.85 -0.895532 1.72319 0
M  V30 12203 O 1130.12 -1.638 1.04879 0
M  V30 12204 C 1130.41 0.879458 3.49196 0
M  V30 12205 C 1130.26 2.38821 3.81162 0
M  V30 12206 C 1131.58 0.381183 4.38446 0
M  V30 12207 H 1128.7 0.204893 0.707946 0
M  V30 12208 H 1131.34 1.15246 1.51058 0
M  V30 12209 H 1129.49 0.375177 3.86684 0
M  V30 12210 H 1131.16 2.96373 3.53498 0
M  V30 12211 H 1129.4 2.83988 3.27923 0
M  V30 12212 H 1130.07 2.56234 4.88926 0
M  V30 12213 H 1132.55 0.813289 4.08075 0
M  V30 12214 H 1131.43 0.633778 5.45229 0
M  V30 12215 H 1131.69 -0.718651 4.3622 0
M  V30 12216 N 1130.75 -1.41857 0.686609 0
M  V30 12217 C 1131.71 -2.29187 0.0247022 0
M  V30 12218 C 1132.71 -1.43926 -0.717069 0
M  V30 12219 O 1133.9 -1.65179 -0.5533 0
M  V30 12220 C 1131.03 -3.26644 -0.975537 0
M  V30 12221 H 1132.22 -2.89212 0.793503 0
M  V30 12222 H 1129.78 -1.49694 0.449605 0
M  V30 12223 H 1130.51 -2.7158 -1.77242 0
M  V30 12224 H 1130.3 -3.89545 -0.446892 0
M  V30 12225 H 1131.79 -3.92107 -1.43673 0
M  V30 12226 N 1132.22 -0.430739 -1.51599 0
M  V30 12227 C 1133.64 -0.0826902 -1.59386 0
M  V30 12228 C 1133.84 1.40729 -1.44214 0
M  V30 12229 O 1132.9 2.1765 -1.28002 0
M  V30 12230 C 1134.21 -0.59691 -2.94716 0
M  V30 12231 C 1135.76 -0.556772 -3.08008 0
M  V30 12232 C 1136.23 -1.04786 -4.45852 0
M  V30 12233 N 1137.72 -1.00557 -4.52153 0
M  V30 12234 C 1138.46 -1.35649 -5.57124 0
M  V30 12235 N 1137.95 -1.77994 -6.69545 0
M  V30 12236 N 1139.75 -1.27508 -5.47447 0
M  V30 12237 H 1131.9 -1.40027 -1.59707 0
M  V30 12238 H 1134.16 -0.576606 -0.752482 0
M  V30 12239 H 1133.87 -1.63914 -3.11167 0
M  V30 12240 H 1133.74 -0.0182342 -3.77196 0
M  V30 12241 H 1136.13 0.476457 -2.91228 0
M  V30 12242 H 1136.21 -1.17177 -2.27383 0
M  V30 12243 H 1135.85 -2.07952 -4.63377 0
M  V30 12244 H 1135.78 -0.409461 -5.25006 0
M  V30 12245 H 1138.27 -0.694518 -3.71463 0
M  V30 12246 H 1138.59 -2.03026 -7.45654 0
M  V30 12247 H 1136.93 -1.81916 -6.70769 0
M  V30 12248 H 1140.12 -0.942969 -4.58504 0
M  V30 12249 H 1140.3 -1.55185 -6.29143 0
M  V30 12250 N 1133.7 1.56767 -0.161869 0
M  V30 12251 C 1135.12 1.58412 0.194403 0
M  V30 12252 C 1135.32 1.17682 1.63564 0
M  V30 12253 O 1134.37 0.884024 2.36519 0
M  V30 12254 C 1135.69 3.00599 -0.0778438 0
M  V30 12255 C 1137.24 3.12996 -0.015307 0
M  V30 12256 C 1137.71 4.57259 -0.260418 0
M  V30 12257 N 1139.2 4.62733 -0.207863 0
M  V30 12258 C 1139.94 5.72193 -0.371821 0
M  V30 12259 N 1139.43 6.90246 -0.594318 0
M  V30 12260 N 1141.23 5.61253 -0.308384 0
M  V30 12261 H 1133.38 1.81531 -1.10274 0
M  V30 12262 H 1135.64 0.840919 -0.437675 0
M  V30 12263 H 1135.35 3.3484 -1.07587 0
M  V30 12264 H 1135.22 3.71819 0.634845 0
M  V30 12265 H 1137.61 2.78588 0.97329 0
M  V30 12266 H 1137.69 2.44232 -0.760559 0
M  V30 12267 H 1137.33 4.92375 -1.24618 0
M  V30 12268 H 1137.26 5.2417 0.505334 0
M  V30 12269 H 1139.75 3.77878 -0.0411541 0
M  V30 12270 H 1140.07 7.6954 -0.70913 0
M  V30 12271 H 1138.41 6.92131 -0.630819 0
M  V30 12272 H 1141.6 4.67905 -0.135217 0
M  V30 12273 H 1141.77 6.46507 -0.439592 0
M  V30 12274 N 1135.18 -0.111886 1.57202 0
M  V30 12275 C 1136.43 -0.819623 1.85499 0
M  V30 12276 C 1136.76 -1.7919 0.748629 0
M  V30 12277 O 1136.03 -1.92952 -0.244918 0
M  V30 12278 C 1136.32 -1.56324 3.24399 0
M  V30 12279 C 1136.17 -0.610081 4.45643 0
M  V30 12280 C 1137.49 -2.51777 3.60966 0
M  V30 12281 H 1134.61 -0.296512 0.674722 0
M  V30 12282 H 1137.25 -0.0836741 1.89816 0
M  V30 12283 H 1135.4 -2.1906 3.2085 0
M  V30 12284 H 1137.07 0.00898038 4.61299 0
M  V30 12285 H 1135.32 0.0778488 4.3373 0
M  V30 12286 H 1135.99 -1.16718 5.39519 0
M  V30 12287 H 1138.46 -1.99143 3.65351 0
M  V30 12288 H 1137.34 -3.00835 4.59118 0
M  V30 12289 H 1137.6 -3.34769 2.8876 0
M  V30 12290 N 1136.66 -1.52894 -0.382264 0
M  V30 12291 C 1137.57 -1.81084 -1.4915 0
M  V30 12292 C 1138.58 -0.698045 -1.59384 0
M  V30 12293 O 1139.76 -0.98635 -1.75594 0
M  V30 12294 C 1136.83 -1.97987 -2.84608 0
M  V30 12295 C 1135.89 -3.219 -2.8404 0
M  V30 12296 C 1135.12 -3.37988 -4.13037 0
M  V30 12297 O 1135.34 -2.58733 -5.08344 0
M  V30 12298 O 1134.28 -4.31273 -4.19866 0
M  V30 12299 H 1138.1 -2.75289 -1.28257 0
M  V30 12300 H 1135.69 -1.38068 -0.57076 0
M  V30 12301 H 1137.57 -2.10773 -3.64901 0
M  V30 12302 H 1136.24 -1.06972 -3.05514 0
M  V30 12303 H 1135.15 -3.14551 -2.02505 0
M  V30 12304 H 1136.48 -4.12783 -2.68087 0
M  V30 12305 N 1138.14 0.641106 -1.43971 0
M  V30 12306 C 1139.05 1.78239 -1.52538 0
M  V30 12307 C 1140.06 1.6906 -0.411668 0
M  V30 12308 O 1141.24 1.90014 -0.66757 0
M  V30 12309 C 1138.3 3.14579 -1.45743 0
M  V30 12310 C 1137.37 3.35464 -2.67885 0
M  V30 12311 C 1136.6 4.65299 -2.61404 0
M  V30 12312 O 1136.82 5.45451 -1.66851 0
M  V30 12313 O 1135.76 4.8817 -3.521 0
M  V30 12314 H 1139.58 1.73965 -2.48937 0
M  V30 12315 H 1137.17 0.801098 -1.26106 0
M  V30 12316 H 1139.05 3.95873 -1.4444 0
M  V30 12317 H 1137.72 3.19417 -0.524837 0
M  V30 12318 H 1136.63 2.53888 -2.74758 0
M  V30 12319 H 1137.96 3.35481 -3.60157 0
M  V30 12320 N 1139.62 1.30703 0.880598 0
M  V30 12321 C 1140.55 1.20033 2.00286 0
M  V30 12322 C 1141.53 0.0899614 1.69862 0
M  V30 12323 O 1142.71 0.272747 1.92275 0
M  V30 12324 C 1139.84 0.895902 3.35546 0
M  V30 12325 C 1138.8 1.96468 3.80242 0
M  V30 12326 C 1138.12 1.51316 5.12843 0
M  V30 12327 C 1139.42 3.37637 3.98496 0
M  V30 12328 H 1141.12 2.13922 2.0947 0
M  V30 12329 H 1138.66 1.02989 1.00644 0
M  V30 12330 H 1140.61 0.807899 4.13583 0
M  V30 12331 H 1139.34 -0.0786636 3.26505 0
M  V30 12332 H 1138 2.0424 3.04437 0
M  V30 12333 H 1137.65 0.52674 5.00234 0
M  V30 12334 H 1137.35 2.22807 5.43719 0
M  V30 12335 H 1138.87 1.43903 5.93401 0
M  V30 12336 H 1140.28 3.326 4.66959 0
M  V30 12337 H 1138.68 4.07253 4.40755 0
M  V30 12338 H 1139.75 3.79205 3.02211 0
M  V30 12339 N 1141.09 -1.09351 1.1349 0
M  V30 12340 C 1142.02 -2.18037 0.835588 0
M  V30 12341 C 1143 -1.68856 -0.205373 0
M  V30 12342 O 1144.19 -1.94094 -0.0641357 0
M  V30 12343 C 1141.32 -3.45987 0.301661 0
M  V30 12344 C 1140.27 -4.08507 1.27696 0
M  V30 12345 C 1139.6 -5.31292 0.602758 0
M  V30 12346 C 1140.9 -4.50916 2.63575 0
M  V30 12347 H 1142.59 -2.43332 1.74441 0
M  V30 12348 H 1140.14 -1.1695 0.840166 0
M  V30 12349 H 1142.09 -4.21324 0.079928 0
M  V30 12350 H 1140.82 -3.20217 -0.642552 0
M  V30 12351 H 1139.48 -3.3519 1.4847 0
M  V30 12352 H 1139.12 -5.01802 -0.346953 0
M  V30 12353 H 1138.82 -5.74075 1.25345 0
M  V30 12354 H 1140.35 -6.09351 0.390325 0
M  V30 12355 H 1141.76 -5.17474 2.46765 0
M  V30 12356 H 1140.16 -5.04586 3.24827 0
M  V30 12357 H 1141.23 -3.63279 3.2118 0
M  V30 12358 N 1142.57 -0.928524 -1.27343 0
M  V30 12359 C 1143.82 -0.568267 -1.93946 0
M  V30 12360 C 1144.14 0.893501 -1.73325 0
M  V30 12361 O 1143.41 1.63344 -1.08147 0
M  V30 12362 H 1141.99 -0.207173 -0.717696 0
M  V30 12363 H 1144.65 -1.1811 -1.55036 0
M  V30 12364 H 1143.75 -0.775246 -3.02318 0
M  V30 12365 N 1144.05 1.41491 -0.694123 0
M  V30 12366 C 1145.47 1.55358 -0.365532 0
M  V30 12367 C 1145.67 1.66994 1.12762 0
M  V30 12368 O 1144.72 1.64756 1.91342 0
M  V30 12369 C 1146.03 2.79352 -1.11279 0
M  V30 12370 C 1147.58 2.93147 -1.097 0
M  V30 12371 C 1148.06 4.20027 -1.82597 0
M  V30 12372 N 1149.55 4.26981 -1.7956 0
M  V30 12373 C 1150.28 5.24013 -2.32805 0
M  V30 12374 N 1149.78 6.27083 -2.94515 0
M  V30 12375 N 1151.57 5.15943 -2.23069 0
M  V30 12376 H 1143.72 1.32183 -1.66257 0
M  V30 12377 H 1145.99 0.637624 -0.701527 0
M  V30 12378 H 1145.69 2.76958 -2.16765 0
M  V30 12379 H 1145.57 3.70827 -0.690439 0
M  V30 12380 H 1147.95 2.95057 -0.0504037 0
M  V30 12381 H 1148.03 2.02849 -1.55839 0
M  V30 12382 H 1147.68 4.18878 -2.87235 0
M  V30 12383 H 1147.61 5.09294 -1.33893 0
M  V30 12384 H 1150.1 3.53129 -1.34567 0
M  V30 12385 H 1150.41 6.97511 -3.32714 0
M  V30 12386 H 1148.76 6.27589 -2.98592 0
M  V30 12387 H 1151.95 4.34346 -1.74532 0
M  V30 12388 H 1152.12 5.91396 -2.64868 0
M  V30 12389 N 1145.53 0.438773 1.51369 0
M  V30 12390 C 1146.94 -0.0240139 1.86685 0
M  V30 12391 C 1147.29 -1.41816 1.35583 0
M  V30 12392 O 1146.41 -2.04517 0.707232 0
M  V30 12393 C 1147.01 -0.0503527 3.38763 0
M  V30 12394 C 1145.57 -0.457556 3.73609 0
M  V30 12395 C 1144.72 0.348852 2.75097 0
M  V30 12396 H 1147.67 0.654552 1.44573 0
M  V30 12397 H 1147.69 -0.859534 3.70665 0
M  V30 12398 H 1147.2 0.964451 3.75925 0
M  V30 12399 H 1145.3 -1.47791 3.42036 0
M  V30 12400 H 1145.41 -0.181357 4.78757 0
M  V30 12401 H 1143.78 -0.193037 2.53967 0
M  V30 12402 H 1144.56 1.36256 3.15102 0
M  V30 12403 N 1147.01 -1.56678 0.170181 0
M  V30 12404 C 1147.94 -2.13747 -0.799203 0
M  V30 12405 C 1148.92 -1.06725 -1.22673 0
M  V30 12406 O 1150.1 -1.34694 -1.3187 0
M  V30 12407 C 1147.23 -2.67611 -2.07611 0
M  V30 12408 C 1146.27 -3.86994 -1.7927 0
M  V30 12409 S 1147.11 -5.26771 -0.962951 0
M  V30 12410 C 1148.26 -5.84039 -2.25054 0
M  V30 12411 H 1148.5 -2.95637 -0.313976 0
M  V30 12412 H 1146.03 -1.54336 -0.0444708 0
M  V30 12413 H 1147.99 -2.99291 -2.80954 0
M  V30 12414 H 1146.65 -1.85808 -2.53247 0
M  V30 12415 H 1145.84 -4.23006 -2.74011 0
M  V30 12416 H 1145.44 -3.56195 -1.14023 0
M  V30 12417 H 1147.73 -5.96883 -3.20525 0
M  V30 12418 H 1148.68 -6.81145 -1.93513 0
M  V30 12419 H 1149.09 -5.12449 -2.36763 0
M  V30 12420 N 1148.48 0.103547 -1.57259 0
M  V30 12421 C 1149.76 0.839768 -1.76656 0
M  V30 12422 C 1150.14 1.9734 -0.749666 0
M  V30 12423 O 1149.49 2.27405 0.223466 0
M  V30 12424 C 1149.7 1.34218 -3.22159 0
M  V30 12425 C 1151.05 1.78835 -3.85102 0
M  V30 12426 O 1152.07 1.43861 -3.25857 0
M  V30 12427 O 1150.93 2.43474 -4.89267 0
M  V30 12428 H 1148.02 0.399928 -0.723869 0
M  V30 12429 H 1150.57 0.0860857 -1.69482 0
M  V30 12430 H 1149.34 0.52956 -3.877 0
M  V30 12431 H 1148.96 2.15811 -3.33933 0
M  V30 12432 N 1149.96 1.53094 0.37415 0
M  V30 12433 C 1151.19 1.73061 1.143 0
M  V30 12434 C 1151.61 0.454611 1.82524 0
M  V30 12435 O 1150.97 -0.590743 1.71406 0
M  V30 12436 C 1151.02 2.89086 2.15549 0
M  V30 12437 O 1150.12 2.57096 3.22452 0
M  V30 12438 H 1149.46 0.575009 0.332055 0
M  V30 12439 H 1151.99 1.99946 0.433897 0
M  V30 12440 H 1152 3.15007 2.59296 0
M  V30 12441 H 1150.68 3.81647 1.65283 0
M  V30 12442 H 1149.25 2.41965 2.83738 0
M  V30 12443 N 1151.44 -0.633461 1.44309 0
M  V30 12444 C 1152.37 -1.75868 1.4698 0
M  V30 12445 C 1153.38 -1.58691 0.363469 0
M  V30 12446 O 1154.57 -1.67048 0.629075 0
M  V30 12447 C 1151.67 -3.1356 1.28582 0
M  V30 12448 C 1150.85 -3.57217 2.52418 0
M  V30 12449 C 1149.91 -4.73779 2.28954 0
M  V30 12450 O 1148.93 -4.8221 3.02428 0
M  V30 12451 N 1150.13 -5.65324 1.31866 0
M  V30 12452 H 1152.9 -1.74048 2.43983 0
M  V30 12453 H 1150.46 -0.817952 1.39718 0
M  V30 12454 H 1152.45 -3.89255 1.10736 0
M  V30 12455 H 1151.02 -3.10036 0.399529 0
M  V30 12456 H 1150.24 -2.71755 2.85557 0
M  V30 12457 H 1151.53 -3.83136 3.3479 0
M  V30 12458 H 1150.93 -5.61204 0.71179 0
M  V30 12459 H 1149.48 -6.40659 1.19998 0
M  V30 12460 N 1152.92 -1.31168 -0.873655 0
M  V30 12461 C 1154.16 -1.21831 -1.62877 0
M  V30 12462 C 1154.52 0.222272 -1.91112 0
M  V30 12463 O 1153.81 1.15463 -1.52902 0
M  V30 12464 C 1154.01 -1.99204 -2.96736 0
M  V30 12465 C 1153.84 -3.50639 -2.81571 0
M  V30 12466 C 1152.61 -4.19992 -2.80953 0
M  V30 12467 C 1154.8 -4.45658 -2.56697 0
M  V30 12468 N 1152.79 -5.57609 -2.56799 0
M  V30 12469 C 1154.16 -5.70917 -2.41771 0
M  V30 12470 C 1156.21 -4.35126 -2.42012 0
M  V30 12471 C 1154.91 -6.86837 -2.13654 0
M  V30 12472 C 1156.94 -5.50825 -2.15282 0
M  V30 12473 C 1156.3 -6.75071 -2.01142 0
M  V30 12474 H 1152.4 -0.500911 -0.60051 0
M  V30 12475 H 1154.99 -1.65313 -1.02857 0
M  V30 12476 H 1153.16 -1.58096 -3.54768 0
M  V30 12477 H 1154.89 -1.81916 -3.61509 0
M  V30 12478 H 1151.64 -3.71928 -2.932 0
M  V30 12479 H 1152.07 -6.30058 -2.47703 0
M  V30 12480 H 1156.71 -3.39736 -2.51673 0
M  V30 12481 H 1154.43 -7.82257 -2.0273 0
M  V30 12482 H 1158.01 -5.44591 -2.04725 0
M  V30 12483 H 1156.89 -7.63085 -1.8075 0
M  V30 12484 N 1154.4 1.08748 -1.14068 0
M  V30 12485 C 1155.65 1.8044 -0.901352 0
M  V30 12486 C 1155.96 1.86995 0.573791 0
M  V30 12487 O 1157.16 2.55065 0.930275 0
M  V30 12488 C 1155.62 3.24185 -1.56308 0
M  V30 12489 C 1155.23 3.25875 -3.07424 0
M  V30 12490 C 1156.97 4.00584 -1.40473 0
M  V30 12491 C 1154.88 4.64186 -3.66449 0
M  V30 12492 H 1153.81 0.676201 -0.333569 0
M  V30 12493 H 1156.46 1.22169 -1.3692 0
M  V30 12494 H 1154.84 3.82561 -1.0229 0
M  V30 12495 H 1156.02 2.77225 -3.6808 0
M  V30 12496 H 1154.33 2.62969 -3.22856 0
M  V30 12497 H 1156.93 5.02781 -1.81976 0
M  V30 12498 H 1157.27 4.14823 -0.350408 0
M  V30 12499 H 1157.8 3.48668 -1.91508 0
M  V30 12500 H 1154.54 4.5515 -4.71719 0
M  V30 12501 H 1154.06 5.13132 -3.10574 0
M  V30 12502 H 1155.74 5.33161 -3.66536 0
M  V30 12503 N 1155.87 0.935264 1.26849 0
M  V30 12504 C 1157.29 0.623198 1.75992 0
M  V30 12505 C 1157.64 -0.861647 1.76267 0
M  V30 12506 O 1156.76 -1.6743 1.37099 0
M  V30 12507 C 1157.36 1.12451 3.19594 0
M  V30 12508 C 1155.92 0.862974 3.66374 0
M  V30 12509 C 1155.06 1.27886 2.4605 0
M  V30 12510 H 1158.01 1.11422 1.13008 0
M  V30 12511 H 1158.03 0.475626 3.77516 0
M  V30 12512 H 1157.55 2.20522 3.19361 0
M  V30 12513 H 1155.65 -0.203606 3.72043 0
M  V30 12514 H 1155.76 1.48582 4.55478 0
M  V30 12515 H 1154.12 0.697335 2.44968 0
M  V30 12516 H 1154.91 2.36837 2.48522 0
M  V30 12517 N 1157.35 -1.41121 0.701616 0
M  V30 12518 C 1158.3 -2.27994 0.0168361 0
M  V30 12519 C 1159.29 -1.42523 -0.746733 0
M  V30 12520 O 1160.48 -1.6574 -0.621232 0
M  V30 12521 C 1157.61 -3.30898 -0.914417 0
M  V30 12522 C 1156.69 -4.23846 -0.146776 0
M  V30 12523 N 1157.08 -4.9839 0.862624 0
M  V30 12524 C 1155.38 -4.44366 -0.38138 0
M  V30 12525 C 1156.08 -5.66463 1.32266 0
M  V30 12526 N 1155.06 -5.39731 0.647433 0
M  V30 12527 H 1158.86 -2.83065 0.790675 0
M  V30 12528 H 1156.38 -1.53405 0.532977 0
M  V30 12529 H 1158.37 -3.91964 -1.4202 0
M  V30 12530 H 1157.03 -2.77387 -1.68779 0
M  V30 12531 H 1158.04 -5.02761 1.24305 0
M  V30 12532 H 1154.72 -4.01856 -1.13216 0
M  V30 12533 H 1156.11 -6.36213 2.16061 0
M  V30 12534 N 1158.83 -0.446794 -1.51134 0
M  V30 12535 C 1159.79 0.348311 -2.26538 0
M  V30 12536 C 1160.79 0.941566 -1.3035 0
M  V30 12537 O 1161.98 0.814537 -1.53984 0
M  V30 12538 C 1159.12 1.49371 -3.06433 0
M  V30 12539 H 1160.31 -0.312648 -2.98266 0
M  V30 12540 H 1157.86 -0.200201 -1.55013 0
M  V30 12541 H 1158.6 2.19045 -2.39144 0
M  V30 12542 H 1158.38 1.07439 -3.77093 0
M  V30 12543 H 1159.87 2.05522 -3.63525 0
M  V30 12544 N 1160.31 1.56586 -0.178487 0
M  V30 12545 C 1161.24 2.155 0.780543 0
M  V30 12546 C 1162.25 1.11244 1.18864 0
M  V30 12547 O 1163.44 1.38403 1.12725 0
M  V30 12548 C 1160.54 2.68867 2.0631 0
M  V30 12549 C 1159.72 3.97854 1.81744 0
M  V30 12550 C 1158.77 4.36213 2.94287 0
M  V30 12551 O 1157.8 5.03954 2.64612 0
M  V30 12552 N 1159 3.98356 4.22247 0
M  V30 12553 H 1161.77 2.98419 0.276836 0
M  V30 12554 H 1159.33 1.61899 0.00405241 0
M  V30 12555 H 1161.32 2.91522 2.80708 0
M  V30 12556 H 1159.89 1.90496 2.47851 0
M  V30 12557 H 1159.11 3.83502 0.912127 0
M  V30 12558 H 1160.4 4.82083 1.62707 0
M  V30 12559 H 1159.8 3.43835 4.49215 0
M  V30 12560 H 1158.35 4.25998 4.93325 0
M  V30 12561 N 1161.79 -0.095206 1.57312 0
M  V30 12562 C 1163.01 -0.81614 1.90667 0
M  V30 12563 C 1163.44 -1.71494 0.772746 0
M  V30 12564 O 1162.79 -1.79192 -0.275682 0
M  V30 12565 C 1162.84 -1.60555 3.22885 0
M  V30 12566 O 1161.95 -2.71448 3.10467 0
M  V30 12567 H 1161.29 -0.224217 0.624998 0
M  V30 12568 H 1163.82 -0.070464 2.04479 0
M  V30 12569 H 1163.83 -1.98979 3.5619 0
M  V30 12570 H 1162.5 -0.945918 4.05 0
M  V30 12571 H 1161.08 -2.36053 2.88675 0
M  V30 12572 O 1163.3 -1.59719 -0.239187 0
M  V30 12573 H 1163.99 -1.72464 -0.881815 0
M  V30 END ATOM
M  V30 BEGIN BOND
M  V30 END BOND
M  V30 END CTAB
M  END
$$$$
