drugbank_target|P51858 Hepatoma-derived growth factor (DB09130)
 OpenBabel12092121053D

  0  0  0     0  0            999 V3000
M  V30 BEGIN CTAB
M  V30 COUNTS 3662 3702 0 0 0
M  V30 BEGIN ATOM
M  V30 1 H -0.908 1.98254 -0.117106 0
M  V30 2 N 0 1.576 0 0
M  V30 3 C 0.933 2.03868 1.02534 0
M  V30 4 C 1.911 0.928543 1.3348 0
M  V30 5 O 3.095 1.19667 1.45644 0
M  V30 6 C 0.222 2.43627 2.35294 0
M  V30 7 C -0.732 3.65373 2.2001 0
M  V30 8 S 0.101 5.13292 1.52614 0
M  V30 9 C 1.257 5.56322 2.86805 0
M  V30 10 H 1.49 2.90518 0.631377 0
M  V30 11 H -0.977 1.52953 0.210867 0
M  V30 12 H 0.981 2.67203 3.11629 0
M  V30 13 H -0.358 1.57376 2.7183 0
M  V30 14 H -1.165 3.90944 3.18086 0
M  V30 15 H -1.563 3.418 1.51819 0
M  V30 16 H 0.729 5.58782 3.83104 0
M  V30 17 H 1.672 6.56266 2.65933 0
M  V30 18 H 2.08 4.83886 2.90714 0
M  V30 19 N 1.4781 -0.272755 1.55222 0
M  V30 20 C 2.7031 -1.02683 1.80197 0
M  V30 21 C 3.1281 -1.79142 0.573551 0
M  V30 22 O 2.4861 -1.74917 -0.476849 0
M  V30 23 C 2.5341 -1.9609 3.02624 0
M  V30 24 O 1.6381 -3.04863 2.77727 0
M  V30 25 H 0.9791 -0.293557 0.595584 0
M  V30 26 H 3.5091 -0.30159 2.02365 0
M  V30 27 H 3.5191 -2.38039 3.31363 0
M  V30 28 H 2.1941 -1.39851 3.91682 0
M  V30 29 H 0.7711 -2.67228 2.60084 0
M  V30 30 N 2.9562 -1.48159 -0.537278 0
M  V30 31 C 4.3722 -1.34118 -0.865129 0
M  V30 32 C 4.5722 -0.346678 -1.98495 0
M  V30 33 O 3.6282 0.234715 -2.51407 0
M  V30 34 C 4.9412 -2.73963 -1.23954 0
M  V30 35 C 6.4892 -2.82397 -1.34984 0
M  V30 36 C 6.9642 -4.22928 -1.75772 0
M  V30 37 N 8.4552 -4.25566 -1.82887 0
M  V30 38 C 9.1902 -5.31235 -2.15817 0
M  V30 39 N 8.6862 -6.47189 -2.47222 0
M  V30 40 N 10.4792 -5.18624 -2.16761 0
M  V30 41 H 2.6302 -2.1144 0.201715 0
M  V30 42 H 4.8932 -0.947598 0.0275949 0
M  V30 43 H 4.5992 -3.48264 -0.490381 0
M  V30 44 H 4.4732 -3.0702 -2.19132 0
M  V30 45 H 6.8602 -2.08356 -2.08978 0
M  V30 46 H 6.9412 -2.5297 -0.379448 0
M  V30 47 H 6.5852 -4.97482 -1.02341 0
M  V30 48 H 6.5152 -4.49794 -2.73848 0
M  V30 49 H 9.0062 -3.41924 -1.60924 0
M  V30 50 H 9.3192 -7.23564 -2.71433 0
M  V30 51 H 7.6642 -6.50476 -2.44757 0
M  V30 52 H 10.8552 -4.27056 -1.91679 0
M  V30 53 H 11.0282 -6.01078 -2.42093 0
M  V30 54 N 4.4343 0.785586 -1.36625 0
M  V30 55 C 5.6593 1.57963 -1.34397 0
M  V30 56 C 6.0843 1.87964 0.071526 0
M  V30 57 O 5.4423 1.48182 1.0446 0
M  V30 58 C 5.4903 2.87511 -2.17646 0
M  V30 59 O 4.5943 3.81281 -1.57158 0
M  V30 60 H 3.9353 0.479014 -0.459828 0
M  V30 61 H 6.4653 0.973411 -1.79961 0
M  V30 62 H 6.4753 3.36745 -2.30362 0
M  V30 63 H 5.1503 2.65002 -3.20541 0
M  V30 64 H 3.7273 3.39885 -1.53403 0
M  V30 65 N 5.9124 1.20967 1.01018 0
M  V30 66 C 6.8604 0.961223 2.1181 0
M  V30 67 C 7.8544 -0.0897034 1.69162 0
M  V30 68 O 9.0604 0.0612271 1.79896 0
M  V30 69 H 5.4354 0.29355 0.692338 0
M  V30 70 H 7.4064 1.90178 2.29946 0
M  V30 71 C 6.1554 0.536854 3.4353 0
M  V30 72 H 5.4784 1.33713 3.76777 0
M  V30 73 H 6.9184 0.402286 4.22087 0
M  V30 74 C 5.3774 -0.751574 3.2841 0
M  V30 75 O 5.9074 -1.80841 3.58691 0
M  V30 76 N 4.1134 -0.716079 2.81639 0
M  V30 77 H 3.6604 0.144236 2.57196 0
M  V30 78 H 3.6184 -1.57847 2.71904 0
M  V30 79 N 7.3905 -1.2043 1.01659 0
M  V30 80 C 8.8065 -1.41852 0.731442 0
M  V30 81 C 9.0065 -1.89358 -0.688898 0
M  V30 82 O 8.0625 -2.06247 -1.45666 0
M  V30 83 C 9.3755 -2.44019 1.75714 0
M  V30 84 C 10.9235 -2.57785 1.77527 0
M  V30 85 C 11.3985 -3.63194 2.79023 0
M  V30 86 N 12.8895 -3.70678 2.77763 0
M  V30 87 C 13.6245 -4.51897 3.52954 0
M  V30 88 N 13.1205 -5.36921 4.37821 0
M  V30 89 N 14.9135 -4.4643 3.41551 0
M  V30 90 H 7.0645 -0.879093 1.93354 0
M  V30 91 H 9.3275 -0.448425 0.835236 0
M  V30 92 H 9.0335 -2.1611 2.77469 0
M  V30 93 H 8.9075 -3.43007 1.56927 0
M  V30 94 H 11.2945 -2.85023 0.764569 0
M  V30 95 H 11.3755 -1.58992 2.00387 0
M  V30 96 H 11.0195 -3.36699 3.80258 0
M  V30 97 H 10.9495 -4.61609 2.53425 0
M  V30 98 H 13.4405 -3.09944 2.16201 0
M  V30 99 H 13.7535 -5.95981 4.91962 0
M  V30 100 H 12.0985 -5.36424 4.41899 0
M  V30 101 H 15.2895 -3.79042 2.74672 0
M  V30 102 H 15.4625 -5.09491 4.00404 0
M  V30 103 N 8.8686 -0.792821 -1.36206 0
M  V30 104 C 9.8006 -0.151469 -2.28699 0
M  V30 105 C 10.8136 0.641262 -1.49638 0
M  V30 106 O 12.0026 0.475885 -1.72039 0
M  V30 107 C 9.1026 0.808424 -3.29117 0
M  V30 108 C 8.2756 0.0650202 -4.37352 0
M  V30 109 C 7.3346 0.941358 -5.17711 0
M  V30 110 O 6.3606 0.397352 -5.67811 0
M  V30 111 N 7.5626 2.2652 -5.3448 0
M  V30 112 H 10.3276 -0.945982 -2.84379 0
M  V30 113 H 7.8886 -0.647032 -1.48409 0
M  V30 114 H 9.8806 1.3986 -3.79765 0
M  V30 115 H 8.4506 1.5038 -2.74052 0
M  V30 116 H 7.6706 -0.706255 -3.87822 0
M  V30 117 H 8.9586 -0.447847 -5.06825 0
M  V30 118 H 8.3566 2.73128 -4.95396 0
M  V30 119 H 6.9136 2.80493 -5.88359 0
M  V30 120 N 10.3467 1.47872 -0.545128 0
M  V30 121 C 11.2937 2.29849 0.2093 0
M  V30 122 C 12.2637 1.38313 0.919707 0
M  V30 123 O 13.4487 1.67277 0.917772 0
M  V30 124 C 10.5887 3.22019 1.24088 0
M  V30 125 C 9.7017 4.2864 0.537778 0
M  V30 126 C 8.8367 5.07973 1.5536 0
M  V30 127 C 7.8757 6.06381 0.8348 0
M  V30 128 N 7.0127 6.78717 1.79688 0
M  V30 129 H 11.8527 2.93845 -0.49591 0
M  V30 130 H 9.3897 1.44848 -0.256389 0
M  V30 131 H 11.3477 3.73868 1.85144 0
M  V30 132 H 9.9777 2.59914 1.91428 0
M  V30 133 H 9.0297 3.7994 -0.187046 0
M  V30 134 H 10.3417 4.98793 -0.0258907 0
M  V30 135 H 9.4957 5.63912 2.23803 0
M  V30 136 H 8.2347 4.37693 2.15118 0
M  V30 137 H 7.2397 5.49631 0.136388 0
M  V30 138 H 8.4647 6.78665 0.24313 0
M  V30 139 H 6.4107 6.11177 2.38326 0
M  V30 140 H 6.3277 7.44998 1.28505 0
M  V30 141 H 7.5957 7.39237 2.47282 0
M  V30 142 N 11.8248 0.280983 1.55075 0
M  V30 143 C 12.7348 -0.61388 2.26426 0
M  V30 144 C 13.7508 -1.16521 1.29224 0
M  V30 145 O 14.9268 -1.19426 1.62171 0
M  V30 146 C 11.9918 -1.7788 2.9759 0
M  V30 147 C 11.0528 -1.26355 4.10284 0
M  V30 148 C 10.2858 -2.37295 4.78045 0
M  V30 149 O 10.5088 -3.56777 4.45047 0
M  V30 150 O 9.4428 -2.05119 5.65871 0
M  V30 151 H 13.2688 -0.0356932 3.03679 0
M  V30 152 H 10.8538 0.0481686 1.49322 0
M  V30 153 H 12.7358 -2.45791 3.42293 0
M  V30 154 H 11.4108 -2.34397 2.23249 0
M  V30 155 H 10.3178 -0.550735 3.70024 0
M  V30 156 H 11.6508 -0.744065 4.86543 0
M  V30 157 N 13.3029 -1.57598 0.00835791 0
M  V30 158 C 14.5329 -1.94931 -0.684496 0
M  V30 159 C 14.9409 -0.882233 -1.67372 0
M  V30 160 O 14.2839 0.146621 -1.83114 0
M  V30 161 C 14.3459 -3.283 -1.4649 0
M  V30 162 C 14.0099 -4.52548 -0.63634 0
M  V30 163 C 15.0069 -5.19839 0.0795586 0
M  V30 164 C 12.6919 -4.98942 -0.579849 0
M  V30 165 C 14.6859 -6.3183 0.840843 0
M  V30 166 C 12.3729 -6.10819 0.185155 0
M  V30 167 C 13.3709 -6.77121 0.894227 0
M  V30 168 O 13.0589 -7.86853 1.64673 0
M  V30 169 H 12.7909 -0.647249 -0.19505 0
M  V30 170 H 15.3449 -2.05318 0.0581272 0
M  V30 171 H 13.5749 -3.14345 -2.2522 0
M  V30 172 H 15.2639 -3.50685 -2.04389 0
M  V30 173 H 16.0299 -4.84979 0.0451202 0
M  V30 174 H 11.9089 -4.47155 -1.1213 0
M  V30 175 H 15.4529 -6.83513 1.39483 0
M  V30 176 H 11.3499 -6.4512 0.221384 0
M  V30 177 H 12.1179 -8.03412 1.56432 0
M  V30 178 N 14.781 0.264519 -1.55364 0
M  V30 179 C 15.728 1.32717 -1.88825 0
M  V30 180 C 16.698 1.48675 -0.740605 0
M  V30 181 O 17.883 1.62945 -0.992657 0
M  V30 182 C 15.023 2.68089 -2.17307 0
M  V30 183 C 14.136 2.60284 -3.44785 0
M  V30 184 C 13.271 3.87892 -3.62924 0
M  V30 185 C 12.31 3.74631 -4.84064 0
M  V30 186 N 11.447 4.94092 -4.98816 0
M  V30 187 H 16.287 1.03481 -2.79456 0
M  V30 188 H 13.824 0.499757 -1.3835 0
M  V30 189 H 15.782 3.46864 -2.31821 0
M  V30 190 H 14.412 2.95509 -1.299 0
M  V30 191 H 13.464 1.73173 -3.38697 0
M  V30 192 H 14.776 2.46388 -4.33698 0
M  V30 193 H 13.93 4.75109 -3.77302 0
M  V30 194 H 12.669 4.04664 -2.7221 0
M  V30 195 H 11.674 2.85797 -4.69681 0
M  V30 196 H 12.899 3.5937 -5.76221 0
M  V30 197 H 10.845 5.11259 -4.11036 0
M  V30 198 H 10.762 4.8276 -5.81789 0
M  V30 199 H 12.03 5.82857 -5.17588 0
M  V30 200 N 16.2591 1.48442 0.529413 0
M  V30 201 C 17.4991 1.58086 1.29569 0
M  V30 202 C 17.8631 0.249302 1.90375 0
M  V30 203 O 19.0641 0.220738 2.67892 0
M  V30 204 C 17.3351 2.68793 2.35552 0
M  V30 205 S 18.8941 2.98207 3.21898 0
M  V30 206 H 15.7121 0.557922 0.440732 0
M  V30 207 H 18.3141 1.85966 0.603059 0
M  V30 208 H 17.0181 3.64102 1.89363 0
M  V30 209 H 16.5491 2.42817 3.09522 0
M  V30 210 H 18.5641 2.37548 4.35644 0
M  V30 211 N 17.7372 -0.778329 1.37039 0
M  V30 212 C 18.9852 -1.53361 1.31623 0
M  V30 213 C 19.3062 -1.94739 -0.100831 0
M  V30 214 O 18.5762 -1.65797 -1.04347 0
M  V30 215 H 17.1562 -0.568794 0.484234 0
M  V30 216 H 19.8182 -0.926742 1.71457 0
M  V30 217 H 18.9142 -2.43606 1.95096 0
M  V30 218 N 19.2153 -1.21501 -1.00376 0
M  V30 219 C 20.4923 -0.941745 -1.71437 0
M  V30 220 C 20.8723 0.546114 -2.03914 0
M  V30 221 O 20.2203 1.51128 -1.71384 0
M  V30 222 C 20.4303 -1.82812 -2.97289 0
M  V30 223 C 21.7783 -2.07771 -3.70292 0
M  V30 224 O 22.8023 -1.80171 -3.07273 0
M  V30 225 O 21.6613 -2.54456 -4.83647 0
M  V30 226 H 18.7553 -0.353243 -0.747762 0
M  V30 227 H 21.3013 -1.32436 -1.06108 0
M  V30 228 H 20.0733 -2.83501 -2.69709 0
M  V30 229 H 19.6963 -1.4464 -3.70358 0
M  V30 230 N 20.6934 1.19889 -1.02296 0
M  V30 231 C 21.6234 2.25141 -0.619174 0
M  V30 232 C 22.6044 1.66051 0.368915 0
M  V30 233 O 23.7894 1.92546 0.252941 0
M  V30 234 C 20.9194 3.4728 0.0368783 0
M  V30 235 C 19.8734 4.19005 -0.872865 0
M  V30 236 C 19.1994 5.34637 -0.0822402 0
M  V30 237 C 20.4994 4.74452 -2.18387 0
M  V30 238 H 22.1934 2.59171 -1.49903 0
M  V30 239 H 19.7394 1.24579 -0.722222 0
M  V30 240 H 21.6924 4.20098 0.330958 0
M  V30 241 H 20.4164 3.12433 0.95149 0
M  V30 242 H 19.0754 3.48061 -1.15105 0
M  V30 243 H 18.7234 4.96034 0.83422 0
M  V30 244 H 18.4234 5.83557 -0.688149 0
M  V30 245 H 19.9474 6.10255 0.205238 0
M  V30 246 H 21.3614 5.39055 -1.95172 0
M  V30 247 H 19.7584 5.33834 -2.74119 0
M  V30 248 H 20.8284 3.92844 -2.84257 0
M  V30 249 N 22.1715 0.800033 1.35784 0
M  V30 250 C 23.4175 0.377901 1.99248 0
M  V30 251 C 23.7505 -1.05052 1.63333 0
M  V30 252 O 23.0255 -1.72768 0.893385 0
M  V30 253 C 23.3085 0.553922 3.55814 0
M  V30 254 C 23.1615 2.0268 4.01548 0
M  V30 255 C 24.4805 -0.0244802 4.40093 0
M  V30 256 H 21.5995 0.138782 0.723815 0
M  V30 257 H 24.2415 1.00835 1.61035 0
M  V30 258 H 22.3915 0.0172398 3.88496 0
M  V30 259 H 24.0635 2.62536 3.79305 0
M  V30 260 H 22.3065 2.5256 3.52698 0
M  V30 261 H 22.9775 2.10087 5.10458 0
M  V30 262 H 25.4535 0.433775 4.13833 0
M  V30 263 H 24.3295 0.128637 5.48749 0
M  V30 264 H 24.5905 -1.11758 4.27741 0
M  V30 265 N 23.6496 -1.47581 0.552962 0
M  V30 266 C 24.8966 -2.02482 0.0273243 0
M  V30 267 C 25.2246 -1.42776 -1.32081 0
M  V30 268 O 24.4796 -0.571393 -1.87173 0
M  V30 269 C 24.7786 -3.57199 -0.119728 0
M  V30 270 C 24.4446 -4.35804 1.15697 0
M  V30 271 C 23.1066 -4.57 1.50681 0
M  V30 272 C 25.4586 -4.81167 2.00319 0
M  V30 273 C 22.7866 -5.20807 2.70142 0
M  V30 274 C 25.1386 -5.46293 3.18978 0
M  V30 275 C 23.8026 -5.65722 3.54281 0
M  V30 276 H 23.0726 -0.740933 0.00999866 0
M  V30 277 H 25.7196 -1.77302 0.72362 0
M  V30 278 H 24.0246 -3.81348 -0.89896 0
M  V30 279 H 25.7216 -3.97324 -0.541718 0
M  V30 280 H 22.3116 -4.19582 0.874561 0
M  V30 281 H 26.4956 -4.64574 1.74599 0
M  V30 282 H 21.7516 -5.34045 2.97668 0
M  V30 283 H 25.9256 -5.80407 3.84838 0
M  V30 284 H 23.5526 -6.14936 4.46942 0
M  V30 285 N 25.1277 -0.289203 -1.54924 0
M  V30 286 C 26.0907 0.579144 -2.21762 0
M  V30 287 C 27.0907 1.07047 -1.1999 0
M  V30 288 O 28.2807 0.968384 -1.44803 0
M  V30 289 C 25.4127 1.80055 -2.8947 0
M  V30 290 H 26.6057 -0.00464908 -2.999 0
M  V30 291 H 24.1587 -0.0399306 -1.56249 0
M  V30 292 H 24.8937 2.42449 -2.15381 0
M  V30 293 H 24.6787 1.45602 -3.64064 0
M  V30 294 H 26.1687 2.41773 -3.40493 0
M  V30 295 N 26.6058 1.57591 -0.0167156 0
M  V30 296 C 27.5528 2.09462 0.969251 0
M  V30 297 C 28.5228 0.99381 1.33089 0
M  V30 298 O 29.7078 1.26726 1.42636 0
M  V30 299 C 26.8478 2.61622 2.25051 0
M  V30 300 C 25.9608 3.85666 1.94642 0
M  V30 301 C 25.0958 4.26266 3.16972 0
M  V30 302 C 24.1348 5.43101 2.82326 0
M  V30 303 N 23.2718 5.78915 3.97243 0
M  V30 304 H 28.1118 2.93428 0.519997 0
M  V30 305 H 25.6488 1.45044 0.245087 0
M  V30 306 H 27.6068 2.89949 2.99976 0
M  V30 307 H 26.2368 1.80505 2.67615 0
M  V30 308 H 25.2888 3.64145 1.10013 0
M  V30 309 H 26.6008 4.70678 1.65117 0
M  V30 310 H 25.7548 4.55963 4.00228 0
M  V30 311 H 24.4938 3.39996 3.49648 0
M  V30 312 H 23.4988 5.1311 1.97479 0
M  V30 313 H 24.7238 6.3106 2.50879 0
M  V30 314 H 22.6698 4.95602 4.29785 0
M  V30 315 H 22.5868 6.58539 3.71299 0
M  V30 316 H 23.8548 6.13212 4.81239 0
M  V30 317 N 28.0839 -0.256276 1.55502 0
M  V30 318 C 29.0169 -1.34321 1.84481 0
M  V30 319 C 29.9949 -1.46802 0.699131 0
M  V30 320 O 31.1789 -1.63165 0.943904 0
M  V30 321 C 28.3059 -2.71779 2.02123 0
M  V30 322 C 27.3519 -2.76496 3.24734 0
M  V30 323 S 28.1849 -2.3405 4.81644 0
M  V30 324 C 29.3409 -3.73452 5.02279 0
M  V30 325 H 29.5739 -1.09539 2.76385 0
M  V30 326 H 27.1069 -0.45678 1.47489 0
M  V30 327 H 29.0649 -3.50932 2.12972 0
M  V30 328 H 27.7259 -2.93803 1.11078 0
M  V30 329 H 26.9189 -3.77424 3.34016 0
M  V30 330 H 26.5209 -2.05379 3.12563 0
M  V30 331 H 28.8129 -4.6887 4.89047 0
M  V30 332 H 29.7559 -3.6911 6.04287 0
M  V30 333 H 30.1639 -3.6553 4.30172 0
M  V30 334 N 29.562 -1.4872 -0.521534 0
M  V30 335 C 30.509 -1.63871 -1.62527 0
M  V30 336 C 31.479 -0.480559 -1.58996 0
M  V30 337 O 32.664 -0.705085 -1.77294 0
M  V30 338 C 29.804 -1.69227 -3.00759 0
M  V30 339 C 28.917 -2.96207 -3.14461 0
M  V30 340 C 28.052 -2.92671 -4.43303 0
M  V30 341 C 27.091 -4.14318 -4.50563 0
M  V30 342 N 26.228 -4.0881 -5.70805 0
M  V30 343 H 31.068 -2.58123 -1.48918 0
M  V30 344 H 28.605 -1.28 -0.724878 0
M  V30 345 H 30.563 -1.70314 -3.80853 0
M  V30 346 H 29.193 -0.784586 -3.1312 0
M  V30 347 H 28.245 -3.04826 -2.27564 0
M  V30 348 H 29.557 -3.86192 -3.15686 0
M  V30 349 H 28.711 -2.92206 -5.31696 0
M  V30 350 H 27.45 -2.00429 -4.44612 0
M  V30 351 H 26.455 -4.15049 -3.60575 0
M  V30 352 H 27.68 -5.07729 -4.50986 0
M  V30 353 H 25.626 -3.19394 -5.72995 0
M  V30 354 H 25.543 -4.92509 -5.7356 0
M  V30 355 H 26.811 -4.12418 -6.61462 0
M  V30 356 N 31.0401 0.771051 -1.3745 0
M  V30 357 C 32.2881 1.52661 -1.32435 0
M  V30 358 C 32.6091 1.9479 0.0905024 0
M  V30 359 O 31.8791 1.66348 1.03466 0
M  V30 360 H 30.4591 0.566218 -0.487244 0
M  V30 361 H 33.1211 0.917636 -1.71946 0
M  V30 362 H 32.2171 2.42568 -1.96385 0
M  V30 363 N 32.5182 1.22032 0.997298 0
M  V30 364 C 33.7482 1.06686 1.76923 0
M  V30 365 C 34.1562 -0.385838 1.85224 0
M  V30 366 O 33.4992 -1.27929 1.31833 0
M  V30 367 C 33.5612 1.59802 3.22031 0
M  V30 368 C 33.2252 3.08362 3.37286 0
M  V30 369 C 34.2222 4.05835 3.24952 0
M  V30 370 C 31.9072 3.47727 3.6248 0
M  V30 371 C 33.9012 5.4066 3.37588 0
M  V30 372 C 31.5882 4.82701 3.74757 0
M  V30 373 C 32.5862 5.78977 3.62319 0
M  V30 374 O 32.2742 7.11502 3.74193 0
M  V30 375 H 32.0062 0.374767 0.562606 0
M  V30 376 H 34.5602 1.61991 1.26286 0
M  V30 377 H 32.7902 0.989003 3.73839 0
M  V30 378 H 34.4792 1.40184 3.80924 0
M  V30 379 H 35.2452 3.76766 3.05405 0
M  V30 380 H 31.1242 2.73317 3.7124 0
M  V30 381 H 34.6682 6.15788 3.27796 0
M  V30 382 H 30.5652 5.11453 3.9381 0
M  V30 383 H 31.3332 7.19019 3.91093 0
M  V30 384 N 33.9963 -1.19345 1.0293 0
M  V30 385 C 35.4073 -1.70725 0.755633 0
M  V30 386 C 35.7583 -1.82326 -0.724676 0
M  V30 387 O 34.8833 -1.49471 -1.56484 0
M  V30 388 C 35.4783 -3.10084 1.36503 0
M  V30 389 C 34.0373 -3.58723 1.13994 0
M  V30 390 C 33.1843 -2.35577 1.46283 0
M  V30 391 H 36.1353 -1.0418 1.19718 0
M  V30 392 H 36.1563 -3.72787 0.762217 0
M  V30 393 H 35.6683 -3.01609 2.44241 0
M  V30 394 H 33.7693 -3.72512 0.0807901 0
M  V30 395 H 33.8823 -4.42816 1.82894 0
M  V30 396 H 32.2463 -2.38935 0.88217 0
M  V30 397 H 33.0293 -2.29731 2.55105 0
M  V30 398 N 35.4744 -0.807222 -1.35358 0
M  V30 399 C 36.4244 -0.190706 -2.27201 0
M  V30 400 C 37.4084 0.635838 -1.47804 0
M  V30 401 O 38.6004 0.492991 -1.69996 0
M  V30 402 C 35.7294 0.659337 -3.36909 0
M  V30 403 C 34.8154 -0.176971 -4.23731 0
M  V30 404 N 35.2064 -1.24029 -4.90357 0
M  V30 405 C 33.5044 0.0412953 -4.45981 0
M  V30 406 C 34.2054 -1.75092 -5.54723 0
M  V30 407 N 33.1814 -1.05727 -5.33219 0
M  V30 408 H 36.9834 -1.0043 -2.76208 0
M  V30 409 H 34.4974 -0.648445 -1.48892 0
M  V30 410 H 36.4944 1.11706 -4.01656 0
M  V30 411 H 35.1544 1.47127 -2.89454 0
M  V30 412 H 36.1654 -1.62295 -4.91814 0
M  V30 413 H 32.8424 0.82232 -4.09322 0
M  V30 414 H 34.2324 -2.63963 -6.17878 0
M  V30 415 N 36.9525 1.47285 -0.560781 0
M  V30 416 C 38.1985 2.03347 -0.0463654 0
M  V30 417 C 38.5535 1.42702 1.2905 0
M  V30 418 O 37.8465 0.574619 1.8278 0
M  V30 419 C 38.0405 3.57258 0.100784 0
M  V30 420 C 37.8695 4.32827 -1.22027 0
M  V30 421 C 36.6395 4.72588 -1.78854 0
M  V30 422 C 38.8375 4.67739 -2.13834 0
M  V30 423 N 36.8195 5.32816 -3.04927 0
M  V30 424 C 38.1905 5.28307 -3.24487 0
M  V30 425 C 40.2455 4.49667 -2.13784 0
M  V30 426 C 38.9485 5.72711 -4.35194 0
M  V30 427 C 40.9745 4.95073 -3.23506 0
M  V30 428 C 40.3365 5.55693 -4.32879 0
M  V30 429 H 36.4355 0.779755 -0.0592166 0
M  V30 430 H 39.0195 1.79723 -0.748857 0
M  V30 431 H 37.1905 3.80642 0.772404 0
M  V30 432 H 38.9225 3.9996 0.617589 0
M  V30 433 H 35.6775 4.54656 -1.32609 0
M  V30 434 H 36.1015 5.67471 -3.69197 0
M  V30 435 H 40.7435 4.02154 -1.30507 0
M  V30 436 H 38.4615 6.19214 -5.1923 0
M  V30 437 H 42.0475 4.82859 -3.24559 0
M  V30 438 H 40.9275 5.90188 -5.1638 0
M  V30 439 N 38.4306 0.297415 1.54768 0
M  V30 440 C 39.8416 -0.195947 1.85669 0
M  V30 441 C 40.1926 -1.53707 1.21937 0
M  V30 442 O 39.3176 -2.10164 0.515754 0
M  V30 443 C 39.9126 -0.362318 3.36857 0
M  V30 444 C 38.4716 -0.799901 3.67802 0
M  V30 445 C 37.6186 0.0938578 2.77141 0
M  V30 446 H 40.5696 0.518538 1.4999 0
M  V30 447 H 40.5906 -1.19745 3.61167 0
M  V30 448 H 40.1026 0.613921 3.83214 0
M  V30 449 H 38.2036 -1.78682 3.26961 0
M  V30 450 H 38.3166 -0.621773 4.75048 0
M  V30 451 H 36.6806 -0.426254 2.51108 0
M  V30 452 H 37.4636 1.06639 3.26318 0
M  V30 453 N 39.9087 -1.5758 0.0250728 0
M  V30 454 C 40.8717 -2.08896 -0.943139 0
M  V30 455 C 41.8717 -1.00321 -1.25668 0
M  V30 456 O 43.0617 -1.26495 -1.19769 0
M  V30 457 C 40.1937 -2.55143 -2.26086 0
M  V30 458 H 41.3867 -2.95723 -0.498775 0
M  V30 459 H 38.9397 -1.54703 -0.222888 0
M  V30 460 H 39.6747 -1.71633 -2.75159 0
M  V30 461 H 39.4597 -3.34461 -2.04641 0
M  V30 462 H 40.9497 -2.95083 -2.95492 0
M  V30 463 N 41.3868 0.248026 -1.55636 0
M  V30 464 C 42.8028 0.596483 -1.48035 0
M  V30 465 C 43.0028 1.88386 -0.715039 0
M  V30 466 O 42.0588 2.51319 -0.243944 0
M  V30 467 C 43.3718 0.700258 -2.92433 0
M  V30 468 C 44.9198 0.792659 -3.02797 0
M  V30 469 C 45.3948 0.928005 -4.485 0
M  V30 470 N 46.8858 0.992903 -4.52433 0
M  V30 471 C 47.6208 1.11687 -5.62418 0
M  V30 472 N 47.1168 1.20645 -6.82214 0
M  V30 473 N 48.9098 1.14994 -5.50212 0
M  V30 474 H 41.0608 -0.597109 -2.03834 0
M  V30 475 H 43.3238 -0.205925 -0.925364 0
M  V30 476 H 43.0298 -0.175658 -3.51261 0
M  V30 477 H 42.9038 1.57255 -3.42857 0
M  V30 478 H 45.2908 1.65903 -2.4405 0
M  V30 479 H 45.3718 -0.104762 -2.55585 0
M  V30 480 H 45.0158 0.0661971 -5.07857 0
M  V30 481 H 44.9458 1.84045 -4.93391 0
M  V30 482 H 47.4368 0.935064 -3.66149 0
M  V30 483 H 47.7498 1.30008 -7.61786 0
M  V30 484 H 46.0948 1.17605 -6.84977 0
M  V30 485 H 49.2858 1.07643 -4.55555 0
M  V30 486 H 49.4588 1.24311 -6.35965 0
M  V30 487 N 42.8649 1.48995 0.513639 0
M  V30 488 C 44.1139 1.57093 1.2651 0
M  V30 489 C 44.4269 0.257091 1.93903 0
M  V30 490 O 45.6329 0.216478 2.70636 0
M  V30 491 C 44.0889 2.77118 2.29638 0
M  V30 492 C 43.6969 4.15209 1.68241 0
M  V30 493 C 45.4409 2.94538 3.05692 0
M  V30 494 C 43.3479 5.26474 2.69406 0
M  V30 495 H 42.2779 0.584876 0.475854 0
M  V30 496 H 44.9289 1.7536 0.540487 0
M  V30 497 H 43.3109 2.52319 3.05207 0
M  V30 498 H 44.4849 4.50094 0.987505 0
M  V30 499 H 42.7999 4.03042 1.04623 0
M  V30 500 H 45.3969 3.74832 3.8132 0
M  V30 501 H 45.7399 2.04614 3.62545 0
M  V30 502 H 46.2729 3.19316 2.37238 0
M  V30 503 H 43.0119 6.18417 2.17351 0
M  V30 504 H 42.5319 4.96058 3.37175 0
M  V30 505 H 44.2109 5.55277 3.32078 0
M  V30 506 N 44.343 -0.763751 1.37857 0
M  V30 507 C 45.62 -1.51244 1.24035 0
M  V30 508 C 46 -2.10472 -0.162649 0
M  V30 509 O 45.348 -1.96206 -1.17112 0
M  V30 510 C 45.558 -2.58694 2.34261 0
M  V30 511 C 46.906 -3.25878 2.72193 0
M  V30 512 O 47.93 -2.68993 2.33497 0
M  V30 513 O 46.789 -4.2874 3.38887 0
M  V30 514 H 43.883 -0.670243 0.484462 0
M  V30 515 H 46.429 -0.800031 1.49658 0
M  V30 516 H 45.201 -2.13105 3.2818 0
M  V30 517 H 44.824 -3.37527 2.10146 0
M  V30 518 N 45.8211 -1.22559 -0.990812 0
M  V30 519 C 46.7311 -1.01394 -2.11557 0
M  V30 520 C 47.7471 0.0383962 -1.73958 0
M  V30 521 O 48.9231 -0.154787 -2.00804 0
M  V30 522 C 45.9881 -0.596569 -3.41529 0
M  V30 523 C 45.0491 -1.72276 -3.93217 0
M  V30 524 C 44.2821 -1.32521 -5.16985 0
M  V30 525 O 44.5051 -0.204909 -5.70032 0
M  V30 526 O 43.4391 -2.14247 -5.62478 0
M  V30 527 H 47.2651 -1.95633 -2.32296 0
M  V30 528 H 44.8501 -1.01172 -1.0993 0
M  V30 529 H 46.7321 -0.374263 -4.19735 0
M  V30 530 H 45.4071 0.316939 -3.22145 0
M  V30 531 H 44.3141 -1.99961 -3.16174 0
M  V30 532 H 45.6471 -2.61421 -4.17037 0
M  V30 533 N 47.2992 1.18797 -1.03562 0
M  V30 534 C 48.2322 2.2105 -0.56676 0
M  V30 535 C 49.2102 1.57704 0.395993 0
M  V30 536 O 50.3942 1.85908 0.311498 0
M  V30 537 C 47.5212 3.38259 0.172704 0
M  V30 538 C 46.5672 4.19987 -0.74252 0
M  V30 539 S 47.4002 4.87199 -2.22254 0
M  V30 540 C 48.5562 6.07813 -1.49379 0
M  V30 541 H 48.7892 2.60478 -1.43312 0
M  V30 542 H 46.3222 1.29151 -0.846133 0
M  V30 543 H 48.2802 4.06191 0.593191 0
M  V30 544 H 46.9412 2.97252 1.01488 0
M  V30 545 H 46.1342 5.03709 -0.171265 0
M  V30 546 H 45.7362 3.57408 -1.10163 0
M  V30 547 H 48.0282 6.72948 -0.784056 0
M  V30 548 H 48.9712 6.69435 -2.30786 0
M  V30 549 H 49.3792 5.55781 -0.988331 0
M  V30 550 N 48.7773 0.814389 1.34928 0
M  V30 551 C 50.1883 0.458364 1.80986 0
M  V30 552 C 50.5393 -1.02042 1.67577 0
M  V30 553 O 49.6643 -1.79352 1.21086 0
M  V30 554 C 50.2593 0.825212 3.28597 0
M  V30 555 C 48.8183 0.521677 3.72767 0
M  V30 556 C 47.9653 1.04668 2.56788 0
M  V30 557 H 50.9163 1.00533 1.22795 0
M  V30 558 H 50.9373 0.12571 3.80292 0
M  V30 559 H 50.4493 1.90154 3.38324 0
M  V30 560 H 48.5503 -0.545589 3.68584 0
M  V30 561 H 48.6633 1.05977 4.67232 0
M  V30 562 H 47.0273 0.468622 2.50352 0
M  V30 563 H 47.8103 2.12927 2.6929 0
M  V30 564 N 50.2554 -1.46986 0.568584 0
M  V30 565 C 51.1654 -2.33942 -0.17555 0
M  V30 566 C 52.1814 -1.48891 -0.90041 0
M  V30 567 O 53.3574 -1.81794 -0.86676 0
M  V30 568 C 50.4224 -3.25811 -1.18524 0
M  V30 569 C 49.4834 -4.26757 -0.466582 0
M  V30 570 C 48.7164 -5.14236 -1.42817 0
M  V30 571 O 48.9394 -5.04379 -2.66379 0
M  V30 572 O 47.8734 -5.94412 -0.946453 0
M  V30 573 H 51.6994 -2.98896 0.538036 0
M  V30 574 H 49.2844 -1.4573 0.329097 0
M  V30 575 H 51.1664 -3.82527 -1.76779 0
M  V30 576 H 49.8414 -2.63471 -1.88055 0
M  V30 577 H 48.7484 -3.73769 0.157451 0
M  V30 578 H 50.0814 -4.91843 0.187485 0
M  V30 579 N 51.7335 -0.305618 -1.54608 0
M  V30 580 C 52.6965 0.555591 -2.22364 0
M  V30 581 C 53.6965 1.05768 -1.21119 0
M  V30 582 O 54.8865 0.952972 -1.45822 0
M  V30 583 C 52.0185 1.76974 -2.91364 0
M  V30 584 H 53.2115 -0.0364572 -2.99878 0
M  V30 585 H 50.7645 -0.0565007 -1.56198 0
M  V30 586 H 51.4995 2.40151 -2.17941 0
M  V30 587 H 51.2845 1.41732 -3.65588 0
M  V30 588 H 52.7745 2.38148 -3.43038 0
M  V30 589 N 53.2116 1.57565 -0.0334293 0
M  V30 590 C 54.1746 2.09393 0.932048 0
M  V30 591 C 55.1746 1.00986 1.25134 0
M  V30 592 O 56.3646 1.27129 1.19096 0
M  V30 593 C 53.4966 2.56338 2.2473 0
M  V30 594 H 54.6896 2.95984 0.483085 0
M  V30 595 H 52.2426 1.54819 0.21468 0
M  V30 596 H 52.9776 1.7309 2.74245 0
M  V30 597 H 52.7626 3.35542 2.02865 0
M  V30 598 H 54.2526 2.96646 2.93923 0
M  V30 599 N 54.6897 -0.239769 1.55765 0
M  V30 600 C 55.9357 -0.968234 1.78194 0
M  V30 601 C 56.2687 -1.84701 0.599938 0
M  V30 602 O 55.5437 -1.9031 -0.401524 0
M  V30 603 C 55.8267 -1.8227 3.10564 0
M  V30 604 C 55.6797 -0.971633 4.3918 0
M  V30 605 C 56.9987 -2.80388 3.39221 0
M  V30 606 H 54.1177 -0.350572 0.648281 0
M  V30 607 H 56.7597 -0.238259 1.885 0
M  V30 608 H 54.9097 -2.44507 3.01908 0
M  V30 609 H 56.5817 -0.367408 4.59835 0
M  V30 610 H 54.8247 -0.276276 4.32919 0
M  V30 611 H 55.4957 -1.60346 5.28198 0
M  V30 612 H 57.9717 -2.28287 3.47885 0
M  V30 613 H 56.8477 -3.3729 4.33044 0
M  V30 614 H 57.1087 -3.57212 2.60484 0
M  V30 615 N 56.1678 -1.49265 -0.50573 0
M  V30 616 C 57.1148 -1.65585 -1.6078 0
M  V30 617 C 58.0848 -0.497396 -1.58478 0
M  V30 618 O 59.2698 -0.72385 -1.76536 0
M  V30 619 C 56.4098 -1.72408 -2.98948 0
M  V30 620 C 55.5228 -2.99525 -3.11301 0
M  V30 621 C 54.6578 -2.97356 -4.40174 0
M  V30 622 C 53.6968 -4.19074 -4.46143 0
M  V30 623 N 52.8338 -4.14841 -5.66437 0
M  V30 624 H 57.6738 -2.59688 -1.46172 0
M  V30 625 H 55.2108 -1.28761 -0.711261 0
M  V30 626 H 57.1688 -1.74344 -3.79025 0
M  V30 627 H 55.7988 -0.817753 -3.1227 0
M  V30 628 H 54.8508 -3.07222 -2.24318 0
M  V30 629 H 56.1628 -3.89518 -3.11572 0
M  V30 630 H 55.3168 -2.97829 -5.28567 0
M  V30 631 H 54.0558 -2.05133 -4.42461 0
M  V30 632 H 53.0608 -4.1885 -3.56153 0
M  V30 633 H 54.2858 -5.12483 -4.45575 0
M  V30 634 H 52.2318 -3.25453 -5.69575 0
M  V30 635 H 52.1488 -4.98564 -5.68304 0
M  V30 636 H 53.4168 -4.1941 -6.57051 0
M  V30 637 N 57.6459 0.756429 -1.3826 0
M  V30 638 C 58.8709 1.55077 -1.37717 0
M  V30 639 C 59.2959 1.88073 0.03164 0
M  V30 640 O 58.6539 1.50364 1.01293 0
M  V30 641 C 58.7019 2.8283 -2.23695 0
M  V30 642 O 57.8059 3.77862 -1.6521 0
M  V30 643 H 57.1469 0.469152 -0.469885 0
M  V30 644 H 59.6769 0.935019 -1.81985 0
M  V30 645 H 59.6869 3.31783 -2.37453 0
M  V30 646 H 58.3619 2.58144 -3.2609 0
M  V30 647 H 56.9389 3.36555 -1.60578 0
M  V30 648 N 59.124 1.23083 0.984299 0
M  V30 649 C 60.352 1.08714 1.76037 0
M  V30 650 C 60.767 -0.361691 1.85303 0
M  V30 651 O 60.124 -1.25034 1.32939 0
M  V30 652 C 60.175 1.70206 3.18923 0
M  V30 653 O 59.896 3.09423 3.10144 0
M  V30 654 C 61.397 1.61227 4.12941 0
M  V30 655 H 58.617 0.380664 0.552572 0
M  V30 656 H 61.161 1.62853 1.23689 0
M  V30 657 H 59.316 1.20109 3.6831 0
M  V30 658 H 59.73 3.39188 4.00065 0
M  V30 659 H 61.204 2.08962 5.10919 0
M  V30 660 H 61.681 0.570375 4.35481 0
M  V30 661 H 62.287 2.10671 3.69456 0
M  V30 662 N 60.6021 -1.18246 1.0419 0
M  V30 663 C 61.5651 -2.20128 0.638452 0
M  V30 664 C 62.5651 -1.57885 -0.304805 0
M  V30 665 O 63.7551 -1.73967 -0.0900369 0
M  V30 666 C 60.8871 -3.4084 -0.0637751 0
M  V30 667 H 62.0801 -2.57336 1.54007 0
M  V30 668 H 59.6331 -1.32152 0.834598 0
M  V30 669 H 60.3681 -3.09166 -0.979136 0
M  V30 670 H 60.1531 -3.8726 0.614198 0
M  V30 671 H 61.6431 -4.16274 -0.332512 0
M  V30 672 N 62.0802 -0.821533 -1.34494 0
M  V30 673 C 63.0282 -0.230702 -2.31453 0
M  V30 674 C 64.0222 0.627793 -1.57338 0
M  V30 675 O 65.2282 0.519288 -1.72347 0
M  V30 676 H 61.6032 -0.0558577 -0.749923 0
M  V30 677 H 63.5742 -1.06332 -2.78812 0
M  V30 678 C 62.3232 0.59391 -3.4259 0
M  V30 679 H 61.6462 -0.0573588 -3.99759 0
M  V30 680 H 63.0862 0.973446 -4.12674 0
M  V30 681 C 61.5452 1.76568 -2.86924 0
M  V30 682 O 62.0752 2.8638 -2.81691 0
M  V30 683 N 60.2812 1.58198 -2.43766 0
M  V30 684 H 59.8282 0.68872 -2.48222 0
M  V30 685 H 59.7862 2.36752 -2.06871 0
M  V30 686 N 63.5583 1.46682 -0.576371 0
M  V30 687 C 64.5053 2.30241 0.160499 0
M  V30 688 C 65.4753 1.40233 0.890162 0
M  V30 689 O 66.6603 1.69186 0.882084 0
M  V30 690 C 63.8003 3.24578 1.1723 0
M  V30 691 C 62.9133 4.29684 0.446736 0
M  V30 692 C 62.0483 5.11154 1.44551 0
M  V30 693 C 61.0873 6.08015 0.70599 0
M  V30 694 N 60.2243 6.82376 1.65251 0
M  V30 695 H 65.0643 2.92727 -0.558127 0
M  V30 696 H 62.6013 1.44272 -0.287056 0
M  V30 697 H 64.5593 3.77711 1.77172 0
M  V30 698 H 63.1893 2.63916 1.85872 0
M  V30 699 H 62.2413 3.79458 -0.267594 0
M  V30 700 H 63.5533 4.98626 -0.131686 0
M  V30 701 H 62.7073 5.68533 2.11791 0
M  V30 702 H 61.4463 4.42158 2.05786 0
M  V30 703 H 60.4513 5.49796 0.0197725 0
M  V30 704 H 61.6763 6.79028 0.09912 0
M  V30 705 H 59.6223 6.16094 2.25308 0
M  V30 706 H 59.5393 7.47556 1.12673 0
M  V30 707 H 60.8073 7.44316 2.31546 0
M  V30 708 N 65.0364 0.313813 1.54444 0
M  V30 709 C 66.2664 -0.293491 2.04505 0
M  V30 710 C 66.6744 -1.47086 1.19005 0
M  V30 711 O 66.0174 -1.82481 0.211257 0
M  V30 712 C 66.0794 -0.800455 3.50475 0
M  V30 713 C 65.7434 0.253322 4.56297 0
M  V30 714 C 66.7404 1.08612 5.08428 0
M  V30 715 C 64.4254 0.398708 5.00715 0
M  V30 716 C 66.4194 2.05013 6.0353 0
M  V30 717 C 64.1064 1.36614 5.95634 0
M  V30 718 C 65.1044 2.19033 6.46926 0
M  V30 719 O 64.7924 3.14134 7.39983 0
M  V30 720 H 64.5244 -0.0658325 0.672787 0
M  V30 721 H 67.0784 0.455177 2.00293 0
M  V30 722 H 65.3084 -1.59987 3.52053 0
M  V30 723 H 66.9974 -1.32504 3.83663 0
M  V30 724 H 67.7634 0.984736 4.74898 0
M  V30 725 H 63.6424 -0.23289 4.60411 0
M  V30 726 H 67.1864 2.69382 6.4349 0
M  V30 727 H 63.0834 1.4682 6.28581 0
M  V30 728 H 63.8514 3.0926 7.57826 0
M  V30 729 N 66.5145 -1.57545 0.0417849 0
M  V30 730 C 67.4465 -2.07904 -0.964799 0
M  V30 731 C 68.4595 -1.00497 -1.28079 0
M  V30 732 O 69.6485 -1.28087 -1.24322 0
M  V30 733 C 66.7485 -2.49928 -2.28887 0
M  V30 734 C 65.9215 -3.80562 -2.15619 0
M  V30 735 C 64.9805 -4.08999 -3.31069 0
M  V30 736 O 64.0065 -4.79061 -3.0739 0
M  V30 737 N 65.2085 -3.6017 -4.55256 0
M  V30 738 H 67.9735 -2.94886 -0.535029 0
M  V30 739 H 65.5345 -1.61252 -0.144681 0
M  V30 740 H 67.5265 -2.66034 -3.04972 0
M  V30 741 H 66.0965 -1.68245 -2.63463 0
M  V30 742 H 65.3165 -3.74129 -1.24183 0
M  V30 743 H 66.6045 -4.66126 -2.03971 0
M  V30 744 H 66.0025 -3.03512 -4.77386 0
M  V30 745 H 64.5595 -3.81532 -5.28466 0
M  V30 746 N 67.9926 0.231505 -1.5589 0
M  V30 747 C 69.2386 0.95877 -1.78705 0
M  V30 748 C 69.5716 1.8438 -0.609725 0
M  V30 749 O 68.8466 1.90521 0.391426 0
M  V30 750 C 69.1296 1.8062 -3.11526 0
M  V30 751 C 68.9826 0.948328 -4.39689 0
M  V30 752 C 70.3016 2.78585 -3.40703 0
M  V30 753 H 67.4206 0.347129 -0.650131 0
M  V30 754 H 70.0626 0.228259 -1.88624 0
M  V30 755 H 68.2126 2.42902 -3.03201 0
M  V30 756 H 69.8846 0.343016 -4.60023 0
M  V30 757 H 68.1276 0.253314 -4.3306 0
M  V30 758 H 68.7986 1.57543 -5.29041 0
M  V30 759 H 71.2746 2.26439 -3.49091 0
M  V30 760 H 70.1506 3.34988 -4.34826 0
M  V30 761 H 70.4116 3.55825 -2.62375 0
M  V30 762 N 69.4707 1.49531 0.497807 0
M  V30 763 C 70.7177 1.59179 1.25173 0
M  V30 764 C 71.0457 0.279932 1.92475 0
M  V30 765 O 70.3007 -0.732383 1.81479 0
M  V30 766 C 70.5997 2.70252 2.33878 0
M  V30 767 C 70.2657 4.11644 1.84012 0
M  V30 768 C 68.9277 4.50121 1.70132 0
M  V30 769 C 71.2797 5.00121 1.46725 0
M  V30 770 C 68.6077 5.74845 1.17348 0
M  V30 771 C 70.9597 6.25366 0.95392 0
M  V30 772 C 69.6237 6.6267 0.801538 0
M  V30 773 H 68.8937 0.582478 0.45804 0
M  V30 774 H 71.5407 1.83373 0.551948 0
M  V30 775 H 69.8457 2.40041 3.09657 0
M  V30 776 H 71.5427 2.74925 2.9192 0
M  V30 777 H 68.1327 3.81274 1.95775 0
M  V30 778 H 72.3167 4.71048 1.56294 0
M  V30 779 H 67.5727 6.02444 1.04264 0
M  V30 780 H 71.7467 6.93301 0.656225 0
M  V30 781 H 69.3737 7.59197 0.390351 0
M  V30 782 N 70.9488 -0.749086 1.3866 0
M  V30 783 C 72.1958 -1.50833 1.35114 0
M  V30 784 C 72.5238 -1.94415 -0.0574049 0
M  V30 785 O 71.7788 -1.66065 -1.03541 0
M  V30 786 C 72.0778 -2.7712 2.25697 0
M  V30 787 C 71.7438 -2.52477 3.73585 0
M  V30 788 C 70.4058 -2.45466 4.13884 0
M  V30 789 C 72.7578 -2.31066 4.67181 0
M  V30 790 C 70.0858 -2.15064 5.45861 0
M  V30 791 C 72.4378 -2.02183 5.9942 0
M  V30 792 C 71.1018 -1.93631 6.38798 0
M  V30 793 H 70.3718 -0.551936 0.494416 0
M  V30 794 H 73.0188 -0.860979 1.71054 0
M  V30 795 H 71.3238 -3.46528 1.82827 0
M  V30 796 H 73.0208 -3.35096 2.20254 0
M  V30 797 H 69.6108 -2.58807 3.41638 0
M  V30 798 H 73.7948 -2.35459 4.3689 0
M  V30 799 H 69.0508 -2.06954 5.75308 0
M  V30 800 H 73.2248 -1.8462 6.71482 0
M  V30 801 H 70.8518 -1.69839 7.40985 0
M  V30 802 N 72.4269 -1.23603 -0.977757 0
M  V30 803 C 73.6739 -1.06971 -1.71941 0
M  V30 804 C 74.0019 0.393009 -1.90488 0
M  V30 805 O 73.2569 1.30719 -1.4564 0
M  V30 806 C 73.5559 -1.7433 -3.11999 0
M  V30 807 C 73.2219 -3.24252 -3.13323 0
M  V30 808 C 71.8839 -3.65156 -3.13392 0
M  V30 809 C 74.2359 -4.20141 -3.08433 0
M  V30 810 C 71.5639 -5.00403 -3.0629 0
M  V30 811 C 73.9159 -5.55384 -3.02873 0
M  V30 812 C 72.5799 -5.95647 -3.01265 0
M  V30 813 H 71.8499 -0.391433 -0.629175 0
M  V30 814 H 74.4969 -1.53572 -1.14403 0
M  V30 815 H 72.8019 -1.20096 -3.7294 0
M  V30 816 H 74.4989 -1.58936 -3.68158 0
M  V30 817 H 71.0889 -2.91692 -3.14029 0
M  V30 818 H 75.2729 -3.89547 -3.07517 0
M  V30 819 H 70.5289 -5.3081 -3.03399 0
M  V30 820 H 74.7029 -6.29398 -2.98046 0
M  V30 821 H 72.3299 -7.0041 -2.95516 0
M  V30 822 N 73.905 1.17692 -1.04816 0
M  V30 823 C 75.153 1.87488 -0.754497 0
M  V30 824 C 75.474 1.81205 0.720407 0
M  V30 825 O 74.744 1.23544 1.52032 0
M  V30 826 H 73.324 0.694101 -0.276102 0
M  V30 827 H 75.986 1.42793 -1.32651 0
M  V30 828 H 75.082 2.93328 -1.06606 0
M  V30 829 N 75.3831 0.828654 1.34056 0
M  V30 830 C 76.6111 0.43262 2.02326 0
M  V30 831 C 77.0261 -0.963147 1.62385 0
M  V30 832 O 76.3831 -1.62425 0.832121 0
M  V30 833 C 76.4341 0.53182 3.57567 0
M  V30 834 O 76.1551 1.87258 3.96063 0
M  V30 835 C 77.6561 0.131422 4.43105 0
M  V30 836 H 74.8761 0.172923 0.648335 0
M  V30 837 H 77.4201 1.1184 1.71208 0
M  V30 838 H 75.5751 -0.105938 3.87255 0
M  V30 839 H 75.9891 1.85087 4.90758 0
M  V30 840 H 77.4631 0.251904 5.51425 0
M  V30 841 H 77.9401 -0.925645 4.29335 0
M  V30 842 H 78.5461 0.743207 4.18756 0
M  V30 843 N 76.8612 -1.46375 0.584142 0
M  V30 844 C 77.8112 -2.27371 -0.169232 0
M  V30 845 C 78.7952 -1.35955 -0.860523 0
M  V30 846 O 79.9872 -1.60119 -0.754382 0
M  V30 847 C 77.1162 -3.22334 -1.18134 0
M  V30 848 C 76.2022 -4.21235 -0.492088 0
M  V30 849 N 76.5932 -5.03766 0.453129 0
M  V30 850 C 74.8912 -4.39773 -0.742652 0
M  V30 851 C 75.5922 -5.75366 0.85609 0
M  V30 852 N 74.5682 -5.43214 0.204926 0
M  V30 853 H 78.3702 -2.88572 0.557097 0
M  V30 854 H 75.8842 -1.57242 0.406042 0
M  V30 855 H 77.8812 -3.79071 -1.73525 0
M  V30 856 H 76.5412 -2.62693 -1.90847 0
M  V30 857 H 77.5522 -5.11227 0.828723 0
M  V30 858 H 74.2292 -3.91279 -1.45625 0
M  V30 859 H 75.6192 -6.5172 1.63434 0
M  V30 860 N 78.3393 -0.321999 -1.54275 0
M  V30 861 C 79.2493 0.553631 -2.27974 0
M  V30 862 C 80.2653 1.13054 -1.32268 0
M  V30 863 O 81.4413 1.15084 -1.6528 0
M  V30 864 C 78.5063 1.69927 -3.02201 0
M  V30 865 C 77.5673 1.15433 -4.1349 0
M  V30 866 C 76.8003 2.24537 -4.84168 0
M  V30 867 O 77.0233 3.44852 -4.5435 0
M  V30 868 O 75.9573 1.90044 -5.7111 0
M  V30 869 H 79.7833 -0.0448345 -3.03667 0
M  V30 870 H 77.3683 -0.0877418 -1.49142 0
M  V30 871 H 79.2503 2.3663 -3.48689 0
M  V30 872 H 77.9253 2.28395 -2.29385 0
M  V30 873 H 76.8323 0.452436 -3.71354 0
M  V30 874 H 78.1653 0.614805 -4.88345 0
M  V30 875 N 79.8174 1.5752 -0.0501392 0
M  V30 876 C 81.0454 1.96963 0.633492 0
M  V30 877 C 81.4604 0.927631 1.6444 0
M  V30 878 O 80.8174 -0.0882665 1.82286 0
M  V30 879 C 80.8684 3.36487 1.32132 0
M  V30 880 O 80.5894 4.36693 0.350894 0
M  V30 881 C 82.0904 3.90682 2.09481 0
M  V30 882 H 79.3104 0.648244 0.173266 0
M  V30 883 H 81.8544 2.0417 -0.116134 0
M  V30 884 H 80.0094 3.30434 2.02218 0
M  V30 885 H 80.4234 5.17702 0.841735 0
M  V30 886 H 81.8974 4.90591 2.5303 0
M  V30 887 H 82.3744 3.26053 2.94255 0
M  V30 888 H 82.9804 4.00069 1.44307 0
M  V30 889 N 81.2955 -0.223234 1.56011 0
M  V30 890 C 82.2585 -1.26014 1.9145 0
M  V30 891 C 83.2585 -1.3989 0.792937 0
M  V30 892 O 84.4485 -1.38184 1.0607 0
M  V30 893 C 81.5805 -2.63422 2.16383 0
M  V30 894 H 82.7735 -0.95796 2.84189 0
M  V30 895 H 80.3265 -0.463576 1.49267 0
M  V30 896 H 81.0615 -2.98741 1.2619 0
M  V30 897 H 80.8465 -2.54728 2.98088 0
M  V30 898 H 82.3365 -3.38249 2.44903 0
M  V30 899 N 82.7736 -1.49793 -0.48987 0
M  V30 900 C 84.0206 -1.59841 -1.24327 0
M  V30 901 C 84.3486 -0.290135 -1.92324 0
M  V30 902 O 83.6036 0.722749 -1.81865 0
M  V30 903 C 83.9026 -2.71488 -2.32441 0
M  V30 904 C 83.5686 -4.12614 -1.81826 0
M  V30 905 C 82.2306 -4.51017 -1.67742 0
M  V30 906 C 84.5826 -5.00892 -1.4407 0
M  V30 907 C 81.9106 -5.75459 -1.14297 0
M  V30 908 C 84.2626 -6.25863 -0.920742 0
M  V30 909 C 82.9266 -6.63086 -0.766383 0
M  V30 910 H 82.1966 -0.584899 -0.454944 0
M  V30 911 H 84.8436 -1.83663 -0.542215 0
M  V30 912 H 83.1486 -2.4168 -3.0838 0
M  V30 913 H 84.8456 -2.76469 -2.90458 0
M  V30 914 H 81.4356 -3.82307 -1.93751 0
M  V30 915 H 85.6196 -4.7187 -1.53794 0
M  V30 916 H 80.8756 -6.02989 -1.01068 0
M  V30 917 H 85.0496 -6.9364 -0.619448 0
M  V30 918 H 82.6766 -7.59393 -0.350083 0
M  V30 919 N 84.2517 0.741722 -1.39055 0
M  V30 920 C 85.1817 1.869 -1.39966 0
M  V30 921 C 86.1627 1.6804 -0.26392 0
M  V30 922 O 87.3477 1.88458 -0.468755 0
M  V30 923 C 84.4777 3.24572 -1.23574 0
M  V30 924 C 83.4317 3.58056 -2.34477 0
M  V30 925 C 82.7577 4.94593 -2.0318 0
M  V30 926 C 84.0577 3.61716 -3.76774 0
M  V30 927 H 85.7517 1.86395 -2.34302 0
M  V30 928 H 83.2977 0.895361 -1.1278 0
M  V30 929 H 85.2507 4.031 -1.22834 0
M  V30 930 H 83.9747 3.25587 -0.257045 0
M  V30 931 H 82.6337 2.81854 -2.34423 0
M  V30 932 H 82.2817 4.92181 -1.03765 0
M  V30 933 H 81.9817 5.17964 -2.77465 0
M  V30 934 H 83.5057 5.75486 -2.04079 0
M  V30 935 H 84.9197 4.30335 -3.78794 0
M  V30 936 H 83.3167 3.96603 -4.50362 0
M  V30 937 H 84.3867 2.61672 -4.08235 0
M  V30 938 N 85.7298 1.2412 0.971189 0
M  V30 939 C 86.9778 1.07668 1.71032 0
M  V30 940 C 87.2988 -0.385797 1.91146 0
M  V30 941 O 86.5688 -1.27569 1.4867 0
M  V30 942 H 85.1488 0.395429 0.633755 0
M  V30 943 H 87.8108 1.55984 1.16855 0
M  V30 944 H 86.9068 1.57195 2.69622 0
M  V30 945 N 87.2079 -1.17134 1.05439 0
M  V30 946 C 88.6189 -1.69084 0.791676 0
M  V30 947 C 88.9699 -1.83822 -0.685839 0
M  V30 948 O 88.0949 -1.52757 -1.53278 0
M  V30 949 C 88.6899 -3.07119 1.4305 0
M  V30 950 C 87.2489 -3.56225 1.21577 0
M  V30 951 C 86.3959 -2.32421 1.51247 0
M  V30 952 H 89.3469 -1.01617 1.219 0
M  V30 953 H 89.3679 -3.71087 0.84112 0
M  V30 954 H 88.8799 -2.9636 2.50584 0
M  V30 955 H 86.9809 -3.72257 0.159787 0
M  V30 956 H 87.0939 -4.38837 1.92246 0
M  V30 957 H 85.4579 -2.3701 0.932653 0
M  V30 958 H 86.2409 -2.24268 2.5992 0
M  V30 959 N 88.686 -0.835752 -1.33615 0
M  V30 960 C 89.633 -0.26473 -2.29277 0
M  V30 961 C 90.603 0.617712 -1.54187 0
M  V30 962 O 91.788 0.556641 -1.825 0
M  V30 963 C 88.928 0.556777 -3.40579 0
M  V30 964 C 88.041 -0.349339 -4.30585 0
M  V30 965 C 87.176 0.482969 -5.29 0
M  V30 966 C 86.215 -0.421732 -6.10645 0
M  V30 967 N 85.352 0.372262 -7.01112 0
M  V30 968 H 90.192 -1.08582 -2.77514 0
M  V30 969 H 87.729 -0.546927 -1.36554 0
M  V30 970 H 89.687 1.04852 -4.03809 0
M  V30 971 H 88.317 1.34286 -2.93542 0
M  V30 972 H 87.369 -0.959372 -3.68104 0
M  V30 973 H 88.681 -1.04445 -4.87742 0
M  V30 974 H 87.835 1.03866 -5.97743 0
M  V30 975 H 86.574 1.21153 -4.72412 0
M  V30 976 H 85.579 -0.989464 -5.40823 0
M  V30 977 H 86.804 -1.14861 -6.69316 0
M  V30 978 H 84.75 1.08426 -6.46977 0
M  V30 979 H 84.667 -0.264198 -7.55538 0
M  V30 980 H 85.935 0.910293 -7.74167 0
M  V30 981 N 90.1641 1.46063 -0.591896 0
M  V30 982 C 91.4411 1.95595 -0.0137119 0
M  V30 983 C 91.8211 1.5345 1.4497 0
M  V30 984 O 91.1691 0.789543 2.14426 0
M  V30 985 C 91.3791 3.48453 -0.195373 0
M  V30 986 C 92.7271 4.24546 -0.0679765 0
M  V30 987 O 93.7511 3.55982 -0.124681 0
M  V30 988 O 92.6101 5.46467 0.0600579 0
M  V30 989 H 89.7041 0.825795 0.0446279 0
M  V30 990 H 92.2501 1.56303 -0.660859 0
M  V30 991 H 91.0221 3.72045 -1.21235 0
M  V30 992 H 90.6451 3.94597 0.487775 0
M  V30 993 N 91.6422 0.330177 1.54103 0
M  V30 994 C 92.5722 -0.525353 2.27513 0
M  V30 995 C 93.5532 -1.11383 1.2856 0
M  V30 996 O 94.7382 -1.13773 1.57383 0
M  V30 997 C 91.8682 -1.6831 3.03791 0
M  V30 998 C 90.8222 -1.2236 4.10137 0
M  V30 999 C 90.1482 -2.46882 4.74293 0
M  V30 1000 C 91.4482 -0.333697 5.21233 0
M  V30 1001 H 93.1422 0.087013 2.99274 0
M  V30 1002 H 90.6882 0.0432893 1.43935 0
M  V30 1003 H 92.6412 -2.28795 3.5388 0
M  V30 1004 H 91.3652 -2.32216 2.29659 0
M  V30 1005 H 90.0242 -0.64165 3.60941 0
M  V30 1006 H 89.6722 -3.09165 3.96769 0
M  V30 1007 H 89.3722 -2.16825 5.46133 0
M  V30 1008 H 90.8962 -3.08117 5.27159 0
M  V30 1009 H 92.3102 -0.845013 5.67038 0
M  V30 1010 H 90.7072 -0.125612 5.99969 0
M  V30 1011 H 91.7772 0.633724 4.80741 0
M  V30 1012 N 93.1203 -1.57491 0.0584922 0
M  V30 1013 C 94.3673 -1.92978 -0.613648 0
M  V30 1014 C 94.6953 -0.937461 -1.70417 0
M  V30 1015 O 93.9503 0.049078 -1.95638 0
M  V30 1016 C 94.2493 -3.3513 -1.24188 0
M  V30 1017 C 93.9153 -4.50037 -0.278826 0
M  V30 1018 C 92.5773 -4.81198 -0.0138447 0
M  V30 1019 C 94.9293 -5.19807 0.380777 0
M  V30 1020 C 92.2573 -5.79473 0.918052 0
M  V30 1021 C 94.6093 -6.19079 1.30091 0
M  V30 1022 C 93.2733 -6.48665 1.57449 0
M  V30 1023 H 92.5433 -0.706157 -0.22455 0
M  V30 1024 H 95.1903 -1.91082 0.126533 0
M  V30 1025 H 93.4953 -3.33429 -2.05749 0
M  V30 1026 H 95.1923 -3.59871 -1.769 0
M  V30 1027 H 91.7823 -4.25726 -0.495539 0
M  V30 1028 H 95.9663 -4.95939 0.189158 0
M  V30 1029 H 91.2223 -6.00727 1.1374 0
M  V30 1030 H 95.3963 -6.7225 1.81804 0
M  V30 1031 H 93.0233 -7.24628 2.29822 0
M  V30 1032 N 94.5984 0.214957 -1.56127 0
M  V30 1033 C 96.0094 0.781386 -1.69562 0
M  V30 1034 C 96.3604 1.84707 -0.66165 0
M  V30 1035 O 95.4854 2.156 0.185927 0
M  V30 1036 C 96.0804 1.42411 -3.07416 0
M  V30 1037 C 94.6394 1.93786 -3.22683 0
M  V30 1038 C 93.7864 0.800438 -2.65496 0
M  V30 1039 H 96.7374 -0.00980633 -1.58697 0
M  V30 1040 H 96.7584 2.29309 -3.0364 0
M  V30 1041 H 96.2704 0.64826 -3.82648 0
M  V30 1042 H 94.3714 2.74152 -2.52332 0
M  V30 1043 H 94.4844 2.1133 -4.29973 0
M  V30 1044 H 92.8484 1.2095 -2.2415 0
M  V30 1045 H 93.6314 0.0371471 -3.4328 0
M  V30 1046 N 96.0765 1.50051 0.48192 0
M  V30 1047 C 97.3065 1.63999 1.2565 0
M  V30 1048 C 97.7145 0.318288 1.86504 0
M  V30 1049 O 97.0575 -0.708534 1.69486 0
M  V30 1050 C 97.1195 2.66504 2.4128 0
M  V30 1051 C 96.7835 4.10352 2.01148 0
M  V30 1052 C 97.7805 4.96562 1.54021 0
M  V30 1053 C 95.4655 4.56203 2.10199 0
M  V30 1054 C 97.4595 6.26668 1.16473 0
M  V30 1055 C 95.1465 5.86318 1.72264 0
M  V30 1056 C 96.1445 6.71375 1.25477 0
M  V30 1057 O 95.8325 7.99062 0.880626 0
M  V30 1058 H 95.5645 0.55456 0.386574 0
M  V30 1059 H 98.1185 1.96954 0.582944 0
M  V30 1060 H 96.3485 2.28769 3.11772 0
M  V30 1061 H 98.0375 2.69783 3.03268 0
M  V30 1062 H 98.8035 4.62358 1.46458 0
M  V30 1063 H 94.6825 3.90152 2.45566 0
M  V30 1064 H 98.2265 6.93011 0.798841 0
M  V30 1065 H 94.1235 6.20046 1.79482 0
M  V30 1066 H 94.8915 8.12239 1.01043 0
M  V30 1067 N 97.5546 -0.734337 1.39446 0
M  V30 1068 C 98.4646 -1.87879 1.40495 0
M  V30 1069 C 99.4806 -1.714 0.299672 0
M  V30 1070 O 100.657 -1.93991 0.541249 0
M  V30 1071 C 97.7216 -3.23477 1.24754 0
M  V30 1072 C 96.7826 -3.52344 2.45259 0
M  V30 1073 C 96.0156 -4.81473 2.30259 0
M  V30 1074 O 96.2386 -5.55237 1.30643 0
M  V30 1075 O 95.1726 -5.10254 3.19256 0
M  V30 1076 H 98.9986 -1.89949 2.36966 0
M  V30 1077 H 96.5836 -0.882243 1.20569 0
M  V30 1078 H 98.4656 -4.04509 1.18111 0
M  V30 1079 H 97.1406 -3.22176 0.313781 0
M  V30 1080 H 96.0476 -2.71396 2.57478 0
M  V30 1081 H 97.3806 -3.58426 3.37331 0
M  V30 1082 N 99.0327 -1.24633 -0.964593 0
M  V30 1083 C 99.9427 -1.05859 -2.09359 0
M  V30 1084 C 100.959 0.00148855 -1.74 0
M  V30 1085 O 102.135 -0.197346 -2.00431 0
M  V30 1086 C 99.1997 -0.668879 -3.40187 0
M  V30 1087 C 98.2607 -1.80578 -3.89474 0
M  V30 1088 C 97.4937 -1.43457 -5.14058 0
M  V30 1089 O 97.7167 -0.325775 -5.69469 0
M  V30 1090 O 96.6507 -2.2613 -5.57807 0
M  V30 1091 H 100.477 -2.00516 -2.28094 0
M  V30 1092 H 98.0617 -1.03481 -1.0776 0
M  V30 1093 H 99.9437 -0.463211 -4.18846 0
M  V30 1094 H 98.6187 0.248536 -3.22744 0
M  V30 1095 H 97.5257 -2.06623 -3.11862 0
M  V30 1096 H 98.8587 -2.70208 -4.11398 0
M  V30 1097 N 100.511 1.16574 -1.06058 0
M  V30 1098 C 101.736 1.91493 -0.796562 0
M  V30 1099 C 102.161 1.76773 0.642868 0
M  V30 1100 O 101.519 1.09142 1.44768 0
M  V30 1101 C 101.567 3.40293 -1.19303 0
M  V30 1102 O 100.671 4.11074 -0.330394 0
M  V30 1103 H 100.012 0.596678 -0.291326 0
M  V30 1104 H 102.542 1.47708 -1.41575 0
M  V30 1105 H 102.552 3.91057 -1.16356 0
M  V30 1106 H 101.227 3.50326 -2.24153 0
M  V30 1107 H 99.8038 3.70513 -0.421225 0
M  V30 1108 N 101.989 0.842826 1.3317 0
M  V30 1109 C 102.936 0.276885 2.29133 0
M  V30 1110 C 103.906 -0.609527 1.54512 0
M  V30 1111 O 105.091 -0.546955 1.82792 0
M  V30 1112 C 102.231 -0.538707 3.40869 0
M  V30 1113 C 101.344 0.372169 4.30394 0
M  V30 1114 C 100.479 -0.454908 5.29249 0
M  V30 1115 C 99.5179 0.45411 6.10413 0
M  V30 1116 N 98.6549 -0.335075 7.013 0
M  V30 1117 H 103.495 1.10052 2.76934 0
M  V30 1118 H 101.032 0.554161 1.36262 0
M  V30 1119 H 102.99 -1.02709 4.0436 0
M  V30 1120 H 101.62 -1.32727 2.9425 0
M  V30 1121 H 100.672 0.97888 3.6759 0
M  V30 1122 H 101.984 1.0703 4.87182 0
M  V30 1123 H 101.138 -1.00695 5.98285 0
M  V30 1124 H 99.8769 -1.18646 4.73048 0
M  V30 1125 H 98.8819 1.01813 5.40291 0
M  V30 1126 H 100.107 1.18409 6.68697 0
M  V30 1127 H 98.0529 -1.04994 6.47543 0
M  V30 1128 H 97.9699 0.304262 7.55387 0
M  V30 1129 H 99.2379 -0.869224 7.74638 0
M  V30 1130 N 103.467 -1.45747 0.599634 0
M  V30 1131 C 104.377 -2.34262 -0.125888 0
M  V30 1132 C 105.393 -1.50768 -0.868625 0
M  V30 1133 O 106.569 -1.83592 -0.828003 0
M  V30 1134 C 103.634 -3.28252 -1.11587 0
M  V30 1135 C 102.695 -4.27651 -0.375956 0
M  V30 1136 C 101.928 -5.1715 -1.31877 0
M  V30 1137 O 102.151 -5.09916 -2.55621 0
M  V30 1138 O 101.085 -5.96286 -0.820157 0
M  V30 1139 H 104.911 -2.97688 0.601315 0
M  V30 1140 H 102.496 -1.44999 0.359934 0
M  V30 1141 H 104.378 -3.86191 -1.68626 0
M  V30 1142 H 103.053 -2.67401 -1.82424 0
M  V30 1143 H 101.96 -3.7335 0.236698 0
M  V30 1144 H 103.293 -4.91334 0.29177 0
M  V30 1145 N 104.945 -0.338344 -1.53925 0
M  V30 1146 C 105.892 0.520845 -2.24846 0
M  V30 1147 C 106.862 1.09976 -1.24477 0
M  V30 1148 O 108.047 1.13735 -1.53196 0
M  V30 1149 C 105.187 1.6685 -3.02084 0
M  V30 1150 C 104.3 1.11739 -4.17299 0
M  V30 1151 C 103.435 2.23193 -4.82036 0
M  V30 1152 C 102.474 1.65407 -5.89328 0
M  V30 1153 N 101.611 2.70582 -6.47866 0
M  V30 1154 H 106.451 -0.0904881 -2.97863 0
M  V30 1155 H 103.988 -0.0564282 -1.46992 0
M  V30 1156 H 105.946 2.34407 -3.45122 0
M  V30 1157 H 104.576 2.2509 -2.31375 0
M  V30 1158 H 103.628 0.332919 -3.7894 0
M  V30 1159 H 104.94 0.654677 -4.94485 0
M  V30 1160 H 104.094 2.98626 -5.28117 0
M  V30 1161 H 102.833 2.72807 -4.04262 0
M  V30 1162 H 101.838 0.884779 -5.42634 0
M  V30 1163 H 103.063 1.16652 -6.69006 0
M  V30 1164 H 101.009 3.1946 -5.72959 0
M  V30 1165 H 100.926 2.28917 -7.20509 0
M  V30 1166 H 102.194 3.45799 -6.98601 0
M  V30 1167 N 106.423 1.57458 -0.0668435 0
M  V30 1168 C 107.67 1.93301 0.603406 0
M  V30 1169 C 107.998 0.946486 1.69917 0
M  V30 1170 O 107.253 -0.0387021 1.95662 0
M  V30 1171 C 107.552 3.35784 1.22409 0
M  V30 1172 C 107.218 4.50179 0.254955 0
M  V30 1173 C 105.88 4.81199 -0.0116746 0
M  V30 1174 C 108.232 5.19598 -0.408338 0
M  V30 1175 C 105.56 5.78978 -0.94877 0
M  V30 1176 C 107.912 6.18381 -1.33372 0
M  V30 1177 C 106.576 6.47821 -1.60887 0
M  V30 1178 H 105.846 0.707338 0.220802 0
M  V30 1179 H 108.493 1.91012 -0.136665 0
M  V30 1180 H 106.798 3.34515 2.03978 0
M  V30 1181 H 108.495 3.60804 1.74989 0
M  V30 1182 H 105.085 4.25983 0.472954 0
M  V30 1183 H 109.269 4.95832 -0.215456 0
M  V30 1184 H 104.525 6.00115 -1.16925 0
M  V30 1185 H 108.699 6.71277 -1.85367 0
M  V30 1186 H 106.326 7.23399 -2.33661 0
M  V30 1187 N 107.901 -0.206675 1.56239 0
M  V30 1188 C 109.149 -0.927007 1.79586 0
M  V30 1189 C 109.47 -1.8427 0.637929 0
M  V30 1190 O 108.74 -1.92849 -0.344398 0
M  V30 1191 H 107.32 -0.345292 0.662407 0
M  V30 1192 H 109.982 -0.21496 1.93711 0
M  V30 1193 H 109.078 -1.52501 2.72305 0
M  V30 1194 N 109.379 -1.50304 -0.473955 0
M  V30 1195 C 110.326 -1.68959 -1.57231 0
M  V30 1196 C 111.296 -0.530899 -1.57387 0
M  V30 1197 O 112.481 -0.761133 -1.74961 0
M  V30 1198 C 109.621 -1.7871 -2.95223 0
M  V30 1199 C 108.734 -3.06061 -3.04878 0
M  V30 1200 C 107.869 -3.06626 -4.33767 0
M  V30 1201 C 106.908 -4.28443 -4.37154 0
M  V30 1202 N 106.045 -4.26763 -5.5751 0
M  V30 1203 H 110.885 -2.6273 -1.40631 0
M  V30 1204 H 108.422 -1.30241 -0.683789 0
M  V30 1205 H 110.38 -1.82344 -3.75242 0
M  V30 1206 H 109.01 -0.883806 -3.10465 0
M  V30 1207 H 108.062 -3.11911 -2.17751 0
M  V30 1208 H 109.374 -3.96039 -3.0324 0
M  V30 1209 H 108.528 -3.08973 -5.22131 0
M  V30 1210 H 107.267 -2.14473 -4.3801 0
M  V30 1211 H 106.272 -4.2631 -3.47188 0
M  V30 1212 H 107.497 -5.2182 -4.34605 0
M  V30 1213 H 105.443 -3.37462 -5.62544 0
M  V30 1214 H 105.36 -5.10507 -5.57601 0
M  V30 1215 H 106.628 -4.33253 -6.48006 0
M  V30 1216 N 110.857 0.726932 -1.39834 0
M  V30 1217 C 112.268 1.30558 -1.3346 0
M  V30 1218 C 112.619 1.962 -0.00273003 0
M  V30 1219 O 111.744 1.96826 0.899371 0
M  V30 1220 C 112.339 2.37404 -2.41713 0
M  V30 1221 C 110.898 2.90921 -2.38835 0
M  V30 1222 C 110.045 1.64578 -2.2318 0
M  V30 1223 H 112.996 0.523862 -1.49804 0
M  V30 1224 H 113.017 3.17984 -2.08966 0
M  V30 1225 H 112.529 1.89599 -3.38635 0
M  V30 1226 H 110.63 3.42985 -1.45575 0
M  V30 1227 H 110.743 3.43487 -3.33997 0
M  V30 1228 H 109.107 1.89219 -1.70494 0
M  V30 1229 H 109.89 1.18814 -3.22084 0
M  V30 1230 N 112.336 1.25143 0.95797 0
M  V30 1231 C 113.284 1.05019 2.07542 0
M  V30 1232 C 114.278 -0.0178751 1.69391 0
M  V30 1233 O 115.484 0.137472 1.79474 0
M  V30 1234 H 111.859 0.32265 0.679265 0
M  V30 1235 H 113.83 1.99759 2.21673 0
M  V30 1236 C 112.579 0.682074 3.40944 0
M  V30 1237 H 111.902 1.49573 3.70767 0
M  V30 1238 H 113.342 0.580945 4.20001 0
M  V30 1239 C 111.801 -0.611608 3.31302 0
M  V30 1240 O 112.331 -1.65465 3.66038 0
M  V30 1241 N 110.537 -0.595982 2.84423 0
M  V30 1242 H 110.084 0.253192 2.56353 0
M  V30 1243 H 110.042 -1.46173 2.78354 0
M  V30 1244 N 113.814 -1.1601 1.06675 0
M  V30 1245 C 114.761 -2.20525 0.680967 0
M  V30 1246 C 115.731 -1.62904 -0.324283 0
M  V30 1247 O 116.916 -1.89615 -0.212294 0
M  V30 1248 C 114.056 -3.45013 0.0776551 0
M  V30 1249 C 113.169 -4.16863 1.13355 0
M  V30 1250 C 112.304 -5.2888 0.49597 0
M  V30 1251 C 111.343 -5.92537 1.53513 0
M  V30 1252 N 110.48 -6.96038 0.920631 0
M  V30 1253 H 115.32 -2.52876 1.57663 0
M  V30 1254 H 112.857 -1.24199 0.788223 0
M  V30 1255 H 114.815 -4.16193 -0.289704 0
M  V30 1256 H 113.445 -3.132 -0.781393 0
M  V30 1257 H 112.497 -3.44248 1.61857 0
M  V30 1258 H 113.809 -4.60294 1.92174 0
M  V30 1259 H 112.963 -6.06653 0.0758604 0
M  V30 1260 H 111.702 -4.86622 -0.324062 0
M  V30 1261 H 110.707 -5.13482 1.9651 0
M  V30 1262 H 111.932 -6.36873 2.35733 0
M  V30 1263 H 109.878 -6.55888 0.12138 0
M  V30 1264 H 109.795 -7.3786 1.64616 0
M  V30 1265 H 111.063 -7.77725 0.525795 0
M  V30 1266 N 115.292 -0.849877 -1.32721 0
M  V30 1267 C 116.708 -0.539102 -1.50219 0
M  V30 1268 C 116.908 0.931271 -1.78689 0
M  V30 1269 O 115.964 1.71455 -1.85363 0
M  V30 1270 C 117.277 -1.42196 -2.64954 0
M  V30 1271 C 118.825 -1.42189 -2.78839 0
M  V30 1272 C 119.3 -2.28985 -3.96648 0
M  V30 1273 N 120.791 -2.26754 -4.03902 0
M  V30 1274 C 121.526 -2.90644 -4.94281 0
M  V30 1275 N 121.022 -3.63629 -5.897 0
M  V30 1276 N 122.815 -2.80057 -4.87365 0
M  V30 1277 H 114.966 -1.80156 -1.12506 0
M  V30 1278 H 117.229 -0.769217 -0.554085 0
M  V30 1279 H 116.935 -2.46733 -2.50631 0
M  V30 1280 H 116.809 -1.10591 -3.60624 0
M  V30 1281 H 119.196 -0.38419 -2.92588 0
M  V30 1282 H 119.277 -1.77807 -1.83898 0
M  V30 1283 H 118.921 -3.32819 -3.83658 0
M  V30 1284 H 118.851 -1.90702 -4.90857 0
M  V30 1285 H 121.342 -1.73688 -3.3562 0
M  V30 1286 H 121.655 -4.09558 -6.55349 0
M  V30 1287 H 120 -3.67737 -5.89741 0
M  V30 1288 H 123.191 -2.22593 -4.11789 0
M  V30 1289 H 123.364 -3.30132 -5.57599 0
M  V30 1290 N 116.77 1.45427 -0.607355 0
M  V30 1291 C 117.717 2.3053 0.111625 0
M  V30 1292 C 118.687 1.4209 0.860216 0
M  V30 1293 O 119.872 1.71019 0.845998 0
M  V30 1294 C 117.012 3.26992 1.10319 0
M  V30 1295 C 116.125 4.30535 0.355493 0
M  V30 1296 C 115.26 5.14105 1.33676 0
M  V30 1297 C 114.299 6.09376 0.576862 0
M  V30 1298 N 113.436 6.85727 1.5074 0
M  V30 1299 H 118.276 2.91477 -0.620093 0
M  V30 1300 H 115.813 1.43631 -0.317594 0
M  V30 1301 H 117.771 3.81385 1.6912 0
M  V30 1302 H 116.401 2.67799 1.80232 0
M  V30 1303 H 115.453 3.78805 -0.348023 0
M  V30 1304 H 116.765 4.98235 -0.237423 0
M  V30 1305 H 115.919 5.72897 1.99684 0
M  V30 1306 H 114.658 4.46423 1.9636 0
M  V30 1307 H 113.663 5.49715 -0.0968519 0
M  V30 1308 H 114.888 6.79085 -0.0449341 0
M  V30 1309 H 112.834 6.20735 2.12189 0
M  V30 1310 H 112.751 7.49778 0.967913 0
M  V30 1311 H 114.019 7.4906 2.15706 0
M  V30 1312 N 118.248 0.346503 1.53744 0
M  V30 1313 C 119.496 -0.248612 2.00565 0
M  V30 1314 C 119.817 -1.5083 1.23593 0
M  V30 1315 O 119.087 -1.92858 0.343912 0
M  V30 1316 H 117.667 -0.0948564 0.740953 0
M  V30 1317 H 120.329 0.468341 1.89189 0
M  V30 1318 H 119.425 -0.488994 3.08245 0
M  V30 1319 N 119.726 -1.57421 0.075193 0
M  V30 1320 C 120.973 -1.93618 -0.593146 0
M  V30 1321 C 121.301 -0.955484 -1.69413 0
M  V30 1322 O 120.556 0.0283251 -1.9568 0
M  V30 1323 C 120.855 -3.36428 -1.20626 0
M  V30 1324 C 120.521 -4.50307 -0.231078 0
M  V30 1325 C 119.183 -4.81186 0.0371936 0
M  V30 1326 C 121.535 -5.19374 0.435888 0
M  V30 1327 C 118.863 -5.78466 0.979461 0
M  V30 1328 C 121.215 -6.17665 1.3665 0
M  V30 1329 C 119.879 -6.46958 1.6432 0
M  V30 1330 H 119.149 -0.708499 -0.217047 0
M  V30 1331 H 121.796 -1.90937 0.146793 0
M  V30 1332 H 120.101 -3.35592 -2.02201 0
M  V30 1333 H 121.798 -3.61727 -1.73073 0
M  V30 1334 H 118.388 -4.26227 -0.450357 0
M  V30 1335 H 122.572 -4.95711 0.241748 0
M  V30 1336 H 117.828 -5.99487 1.20106 0
M  V30 1337 H 122.002 -6.70284 1.88924 0
M  V30 1338 H 119.629 -7.2215 2.37494 0
M  V30 1339 N 121.204 0.198386 -1.56346 0
M  V30 1340 C 122.429 0.939682 -1.84891 0
M  V30 1341 C 122.854 1.76202 -0.658369 0
M  V30 1342 O 122.212 1.76993 0.392851 0
M  V30 1343 C 122.26 1.81428 -3.11635 0
M  V30 1344 O 121.364 2.91265 -2.91956 0
M  V30 1345 H 120.705 0.264807 -0.608912 0
M  V30 1346 H 123.235 0.204695 -2.03573 0
M  V30 1347 H 123.245 2.21958 -3.42343 0
M  V30 1348 H 121.92 1.21004 -3.97908 0
M  V30 1349 H 120.497 2.54514 -2.72538 0
M  V30 1350 N 122.682 1.50554 0.465978 0
M  V30 1351 C 123.592 1.72585 1.58907 0
M  V30 1352 C 124.608 0.60911 1.6299 0
M  V30 1353 O 125.784 0.88804 1.80765 0
M  V30 1354 C 122.849 1.81995 2.95091 0
M  V30 1355 C 121.91 3.05751 3.01355 0
M  V30 1356 C 121.143 3.14702 4.31043 0
M  V30 1357 O 121.366 2.30313 5.21835 0
M  V30 1358 O 120.3 4.07468 4.43005 0
M  V30 1359 H 124.126 2.67799 1.43239 0
M  V30 1360 H 121.711 1.34711 0.646013 0
M  V30 1361 H 123.593 1.90335 3.75966 0
M  V30 1362 H 122.268 0.899659 3.10947 0
M  V30 1363 H 121.175 3.02908 2.19539 0
M  V30 1364 H 122.508 3.97375 2.90437 0
M  V30 1365 N 124.16 -0.719506 1.40217 0
M  V30 1366 C 125.408 -1.47641 1.3801 0
M  V30 1367 C 125.729 -1.94992 -0.018145 0
M  V30 1368 O 124.999 -1.70073 -0.972207 0
M  V30 1369 H 123.579 -0.547744 0.507923 0
M  V30 1370 H 126.241 -0.853187 1.75233 0
M  V30 1371 H 125.337 -2.35112 2.05253 0
M  V30 1372 N 125.638 -1.25649 -0.95132 0
M  V30 1373 C 126.568 -1.08808 -2.06599 0
M  V30 1374 C 127.549 0.00382547 -1.701 0
M  V30 1375 O 128.734 -0.166325 -1.93486 0
M  V30 1376 C 125.864 -0.709542 -3.39975 0
M  V30 1377 C 124.818 -1.75206 -3.90496 0
M  V30 1378 C 124.144 -1.22811 -5.20405 0
M  V30 1379 C 125.444 -3.15153 -4.16504 0
M  V30 1380 H 127.138 -2.02048 -2.20946 0
M  V30 1381 H 124.684 -0.972835 -1.06169 0
M  V30 1382 H 126.637 -0.578649 -4.17408 0
M  V30 1383 H 125.361 0.258556 -3.25575 0
M  V30 1384 H 124.02 -1.87145 -3.15234 0
M  V30 1385 H 123.668 -0.250145 -5.02378 0
M  V30 1386 H 123.368 -1.92492 -5.55176 0
M  V30 1387 H 124.892 -1.10968 -6.00432 0
M  V30 1388 H 126.306 -3.06349 -4.84586 0
M  V30 1389 H 124.703 -3.82333 -4.62538 0
M  V30 1390 H 125.773 -3.61966 -3.22658 0
M  V30 1391 N 127.117 1.15442 -1.07289 0
M  V30 1392 C 128.363 1.8672 -0.806679 0
M  V30 1393 C 128.718 1.80723 0.660084 0
M  V30 1394 O 128.011 1.21902 1.47819 0
M  V30 1395 C 128.205 3.3489 -1.24834 0
M  V30 1396 C 128.034 3.55313 -2.7565 0
M  V30 1397 C 126.804 3.7082 -3.4325 0
M  V30 1398 C 129.002 3.53188 -3.73848 0
M  V30 1399 N 126.984 3.7929 -4.82713 0
M  V30 1400 C 128.355 3.67765 -4.99149 0
M  V30 1401 C 130.41 3.36459 -3.67015 0
M  V30 1402 C 129.113 3.6734 -6.18428 0
M  V30 1403 C 131.139 3.37333 -4.85758 0
M  V30 1404 C 130.501 3.52438 -6.09891 0
M  V30 1405 H 126.6 0.700433 -0.347733 0
M  V30 1406 H 129.184 1.38441 -1.36902 0
M  V30 1407 H 127.355 3.81786 -0.713713 0
M  V30 1408 H 129.087 3.93875 -0.929745 0
M  V30 1409 H 125.842 3.71568 -2.93656 0
M  V30 1410 H 126.266 3.8727 -5.55294 0
M  V30 1411 H 130.908 3.237 -2.71989 0
M  V30 1412 H 128.626 3.78878 -7.13777 0
M  V30 1413 H 132.212 3.25617 -4.82146 0
M  V30 1414 H 131.092 3.53047 -7.00234 0
M  V30 1415 N 128.595 0.856903 1.32268 0
M  V30 1416 C 129.505 0.306131 2.32594 0
M  V30 1417 C 130.521 -0.577209 1.64147 0
M  V30 1418 O 131.697 -0.477043 1.95669 0
M  V30 1419 C 128.762 -0.494561 3.43154 0
M  V30 1420 C 127.823 0.415186 4.27288 0
M  V30 1421 C 127.056 -0.347387 5.32568 0
M  V30 1422 O 127.279 -1.57708 5.48165 0
M  V30 1423 O 126.213 0.287982 6.01211 0
M  V30 1424 H 130.039 1.13737 2.81598 0
M  V30 1425 H 127.624 0.619902 1.35932 0
M  V30 1426 H 129.506 -0.948944 4.10576 0
M  V30 1427 H 128.181 -1.30257 2.96336 0
M  V30 1428 H 127.088 0.917793 3.62667 0
M  V30 1429 H 128.421 1.18844 4.77637 0
M  V30 1430 N 130.073 -1.45103 0.615059 0
M  V30 1431 C 131.322 -2.01396 0.110718 0
M  V30 1432 C 131.635 -1.48834 -1.26916 0
M  V30 1433 O 132.841 -1.97152 -1.86664 0
M  V30 1434 C 131.297 -3.59599 0.14723 0
M  V30 1435 C 130.905 -4.21158 1.52743 0
M  V30 1436 C 132.649 -4.23428 -0.30148 0
M  V30 1437 C 130.556 -5.71535 1.51992 0
M  V30 1438 H 129.486 -0.753061 0.0376241 0
M  V30 1439 H 132.137 -1.66494 0.77149 0
M  V30 1440 H 130.519 -3.91724 -0.580339 0
M  V30 1441 H 131.693 -4.00594 2.2773 0
M  V30 1442 H 130.008 -3.69552 1.91886 0
M  V30 1443 H 132.605 -5.33703 -0.326392 0
M  V30 1444 H 132.948 -3.94629 -1.32565 0
M  V30 1445 H 133.481 -3.96047 0.373065 0
M  V30 1446 H 130.22 -6.05044 2.52193 0
M  V30 1447 H 129.74 -5.94268 0.81274 0
M  V30 1448 H 131.419 -6.34873 1.24681 0
M  V30 1449 N 131.551 -0.354651 -1.53558 0
M  V30 1450 C 132.461 0.50515 -2.29097 0
M  V30 1451 C 133.477 1.10223 -1.34636 0
M  V30 1452 O 134.653 1.11553 -1.67684 0
M  V30 1453 C 131.718 1.63479 -3.05738 0
M  V30 1454 C 130.779 1.06636 -4.15845 0
M  V30 1455 C 130.012 2.14217 -4.88822 0
M  V30 1456 O 130.235 3.35137 -4.61562 0
M  V30 1457 O 129.169 1.77887 -5.75013 0
M  V30 1458 H 132.995 -0.109237 -3.03503 0
M  V30 1459 H 130.58 -0.119357 -1.48922 0
M  V30 1460 H 132.462 2.2918 -3.5363 0
M  V30 1461 H 131.137 2.23478 -2.34178 0
M  V30 1462 H 130.044 0.373565 -3.7223 0
M  V30 1463 H 131.377 0.511081 -4.89539 0
M  V30 1464 N 133.029 1.57378 -0.0835403 0
M  V30 1465 C 133.977 2.14602 0.89714 0
M  V30 1466 C 134.971 1.08589 1.30018 0
M  V30 1467 O 136.177 1.26952 1.27606 0
M  V30 1468 H 132.552 0.686346 0.3073 0
M  V30 1469 H 134.523 2.95845 0.38969 0
M  V30 1470 C 133.272 2.73188 2.15089 0
M  V30 1471 H 132.595 3.54442 1.84962 0
M  V30 1472 H 134.035 3.1681 2.81793 0
M  V30 1473 C 132.494 1.68517 2.91725 0
M  V30 1474 O 133.024 1.11718 3.85852 0
M  V30 1475 N 131.23 1.39277 2.55049 0
M  V30 1476 H 130.777 1.85655 1.78577 0
M  V30 1477 H 130.735 0.694791 3.06627 0
M  V30 1478 N 134.507 -0.190092 1.56449 0
M  V30 1479 C 135.455 -1.25501 1.95837 0
M  V30 1480 C 136.449 -1.4685 0.844485 0
M  V30 1481 O 137.655 -1.47651 1.02952 0
M  V30 1482 H 134.03 -0.421447 0.622805 0
M  V30 1483 H 136.001 -0.895821 2.84636 0
M  V30 1484 C 134.75 -2.59124 2.31841 0
M  V30 1485 H 134.073 -2.43514 3.17082 0
M  V30 1486 H 135.513 -3.32371 2.6326 0
M  V30 1487 C 133.972 -3.16488 1.15486 0
M  V30 1488 O 134.502 -3.99365 0.432535 0
M  V30 1489 N 132.708 -2.75305 0.930349 0
M  V30 1490 H 132.255 -2.08013 1.51948 0
M  V30 1491 H 132.213 -3.14024 0.153634 0
M  V30 1492 N 135.985 -1.50799 -0.457987 0
M  V30 1493 C 137.396 -1.55152 -1.0385 0
M  V30 1494 C 137.747 -0.362719 -1.92818 0
M  V30 1495 O 136.872 0.522915 -2.09987 0
M  V30 1496 C 137.467 -2.81173 -1.89017 0
M  V30 1497 C 136.026 -2.88164 -2.42154 0
M  V30 1498 C 135.173 -2.49591 -1.20829 0
M  V30 1499 H 138.124 -1.56874 -0.240068 0
M  V30 1500 H 138.145 -2.63769 -2.74238 0
M  V30 1501 H 137.657 -3.67677 -1.24238 0
M  V30 1502 H 135.758 -2.06042 -3.10447 0
M  V30 1503 H 135.871 -3.91356 -2.76364 0
M  V30 1504 H 134.235 -2.02322 -1.54719 0
M  V30 1505 H 135.018 -3.38418 -0.576927 0
M  V30 1506 N 137.463 0.71206 -1.40597 0
M  V30 1507 C 138.691 1.50111 -1.42388 0
M  V30 1508 C 139.106 1.88784 -0.0245395 0
M  V30 1509 O 138.463 1.55681 0.952351 0
M  V30 1510 C 138.514 2.7742 -2.31776 0
M  V30 1511 O 138.235 2.40382 -3.66262 0
M  V30 1512 C 139.736 3.7129 -2.42196 0
M  V30 1513 H 136.956 0.46314 -0.485533 0
M  V30 1514 H 139.5 0.878068 -1.8469 0
M  V30 1515 H 137.655 3.36001 -1.92827 0
M  V30 1516 H 138.069 3.22324 -4.13772 0
M  V30 1517 H 139.543 4.57448 -3.08943 0
M  V30 1518 H 140.02 4.14641 -1.44809 0
M  V30 1519 H 140.626 3.18619 -2.81712 0
M  V30 1520 N 138.941 1.26152 0.944643 0
M  V30 1521 C 140.187 1.11657 1.69294 0
M  V30 1522 C 140.52 -0.339926 1.91202 0
M  V30 1523 O 139.795 -1.24994 1.49019 0
M  V30 1524 C 140.078 1.88236 3.06984 0
M  V30 1525 C 139.931 3.41772 2.92424 0
M  V30 1526 C 141.25 1.67343 4.07043 0
M  V30 1527 H 138.369 0.407004 0.614424 0
M  V30 1528 H 141.011 1.55106 1.09737 0
M  V30 1529 H 139.161 1.51308 3.57824 0
M  V30 1530 H 140.833 3.88433 2.48832 0
M  V30 1531 H 139.076 3.68974 2.28124 0
M  V30 1532 H 139.747 3.90579 3.90067 0
M  V30 1533 H 142.223 1.99509 3.65151 0
M  V30 1534 H 141.099 2.23346 5.01406 0
M  V30 1535 H 141.36 0.617158 4.37771 0
M  V30 1536 N 140.419 -1.14872 1.07899 0
M  V30 1537 C 141.366 -2.19791 0.704319 0
M  V30 1538 C 142.336 -1.63238 -0.306987 0
M  V30 1539 O 143.521 -1.8983 -0.192171 0
M  V30 1540 C 140.661 -3.44911 0.114244 0
M  V30 1541 C 139.774 -4.15637 1.1777 0
M  V30 1542 C 138.909 -5.28324 0.552037 0
M  V30 1543 C 137.948 -5.90875 1.59789 0
M  V30 1544 N 137.085 -6.95022 0.994404 0
M  V30 1545 H 141.925 -2.5119 1.60336 0
M  V30 1546 H 139.462 -1.23356 0.801352 0
M  V30 1547 H 141.42 -4.16477 -0.245544 0
M  V30 1548 H 140.05 -3.14011 -0.74813 0
M  V30 1549 H 139.102 -3.42512 1.65499 0
M  V30 1550 H 140.414 -4.5823 1.97046 0
M  V30 1551 H 139.568 -6.06538 0.1402 0
M  V30 1552 H 138.307 -4.86939 -0.272431 0
M  V30 1553 H 137.312 -5.11369 2.01945 0
M  V30 1554 H 138.537 -6.34337 2.42474 0
M  V30 1555 H 136.483 -6.55722 0.190939 0
M  V30 1556 H 136.4 -7.36073 1.72432 0
M  V30 1557 H 137.668 -7.77123 0.608253 0
M  V30 1558 N 141.898 -0.863906 -1.31812 0
M  V30 1559 C 142.861 -0.320212 -2.26952 0
M  V30 1560 C 143.861 0.525369 -1.51975 0
M  V30 1561 O 145.051 0.335547 -1.70938 0
M  V30 1562 C 142.183 0.545919 -3.365 0
M  V30 1563 H 143.376 -1.16004 -2.76556 0
M  V30 1564 H 140.929 -0.638995 -1.42641 0
M  V30 1565 H 141.664 1.40718 -2.92179 0
M  V30 1566 H 141.449 -0.0594674 -3.92055 0
M  V30 1567 H 142.939 0.918796 -4.07367 0
M  V30 1568 N 143.376 1.44774 -0.622745 0
M  V30 1569 C 144.601 2.06999 -0.128968 0
M  V30 1570 C 145.026 1.4617 1.1839 0
M  V30 1571 O 144.384 0.560007 1.72434 0
M  V30 1572 C 144.432 3.60595 -0.0188351 0
M  V30 1573 O 143.536 3.99398 1.02739 0
M  V30 1574 H 142.877 0.659047 -0.0809544 0
M  V30 1575 H 145.407 1.85784 -0.85705 0
M  V30 1576 H 145.417 4.07627 0.174476 0
M  V30 1577 H 144.092 4.04252 -0.977384 0
M  V30 1578 H 142.669 3.64011 0.809326 0
M  V30 1579 N 144.854 0.36279 1.53368 0
M  V30 1580 C 146.102 -0.227326 2.00817 0
M  V30 1581 C 146.423 -1.49511 1.25186 0
M  V30 1582 O 145.693 -1.92482 0.364348 0
M  V30 1583 H 144.273 -0.0869923 0.741917 0
M  V30 1584 H 146.935 0.488381 1.88682 0
M  V30 1585 H 146.031 -0.456273 3.08747 0
M  V30 1586 N 146.332 -1.57332 0.0918853 0
M  V30 1587 C 147.562 -1.98286 -0.580205 0
M  V30 1588 C 147.97 -0.969713 -1.6246 0
M  V30 1589 O 147.313 0.0493501 -1.83634 0
M  V30 1590 C 147.375 -3.35603 -1.28882 0
M  V30 1591 C 147.039 -4.55285 -0.395559 0
M  V30 1592 C 148.036 -5.18687 0.355002 0
M  V30 1593 C 145.721 -5.01314 -0.314556 0
M  V30 1594 C 147.715 -6.26484 1.17458 0
M  V30 1595 C 145.402 -6.08979 0.508677 0
M  V30 1596 C 146.4 -6.71429 1.2519 0
M  V30 1597 O 146.088 -7.77018 2.06151 0
M  V30 1598 H 145.82 -0.656678 -0.160466 0
M  V30 1599 H 148.374 -2.04721 0.16688 0
M  V30 1600 H 146.604 -3.25842 -2.08241 0
M  V30 1601 H 148.293 -3.61026 -1.85512 0
M  V30 1602 H 149.059 -4.84058 0.302134 0
M  V30 1603 H 144.938 -4.5247 -0.882697 0
M  V30 1604 H 148.482 -6.75159 1.75518 0
M  V30 1605 H 144.379 -6.4304 0.563037 0
M  V30 1606 H 145.147 -7.93991 1.98799 0
M  V30 1607 N 147.81 0.181792 -1.56548 0
M  V30 1608 C 148.742 1.24956 -1.92142 0
M  V30 1609 C 149.755 1.41022 -0.813422 0
M  V30 1610 O 150.944 1.41212 -1.09186 0
M  V30 1611 C 148.044 2.61981 -2.14987 0
M  V30 1612 C 147.217 2.6735 -3.46183 0
M  V30 1613 C 146.276 3.85664 -3.5798 0
M  V30 1614 O 145.302 3.72148 -4.30691 0
M  V30 1615 N 146.504 5.01683 -2.92053 0
M  V30 1616 H 149.269 0.947329 -2.84334 0
M  V30 1617 H 146.83 0.371629 -1.57577 0
M  V30 1618 H 148.822 3.3958 -2.20154 0
M  V30 1619 H 147.392 2.84637 -1.2923 0
M  V30 1620 H 146.612 1.75925 -3.52766 0
M  V30 1621 H 147.9 2.67939 -4.32534 0
M  V30 1622 H 147.298 5.15564 -2.32832 0
M  V30 1623 H 145.855 5.77181 -3.0283 0
M  V30 1624 N 149.288 1.51039 0.449983 0
M  V30 1625 C 150.513 1.6715 1.22783 0
M  V30 1626 C 150.938 0.363081 1.84563 0
M  V30 1627 O 150.296 -0.675433 1.68249 0
M  V30 1628 C 150.344 2.77985 2.29689 0
M  V30 1629 O 149.448 2.40707 3.34864 0
M  V30 1630 H 148.789 0.557746 0.360299 0
M  V30 1631 H 151.319 1.97535 0.533005 0
M  V30 1632 H 151.329 3.01693 2.74673 0
M  V30 1633 H 150.004 3.72935 1.84098 0
M  V30 1634 H 148.581 2.27523 2.95445 0
M  V30 1635 N 150.766 -0.704594 1.40972 0
M  V30 1636 C 151.991 -1.49858 1.43378 0
M  V30 1637 C 152.416 -1.88061 0.038184 0
M  V30 1638 O 151.774 -1.5402 -0.956425 0
M  V30 1639 C 151.822 -2.74333 2.34038 0
M  V30 1640 O 150.926 -3.7147 1.7912 0
M  V30 1641 H 150.267 -0.45139 0.486974 0
M  V30 1642 H 152.797 -0.866832 1.8533 0
M  V30 1643 H 152.807 -3.22741 2.49604 0
M  V30 1644 H 151.482 -2.45863 3.35446 0
M  V30 1645 H 150.059 -3.30363 1.72958 0
M  V30 1646 N 152.244 -1.26651 -0.937939 0
M  V30 1647 C 153.176 -1.04283 -2.04102 0
M  V30 1648 C 154.189 -0.00221014 -1.628 0
M  V30 1649 O 155.378 -0.242645 -1.76843 0
M  V30 1650 C 152.478 -0.557846 -3.34277 0
M  V30 1651 C 151.651 -1.66843 -4.04329 0
M  V30 1652 C 150.71 -1.18095 -5.12777 0
M  V30 1653 O 149.736 -1.87865 -5.37304 0
M  V30 1654 N 150.938 -0.0311006 -5.80492 0
M  V30 1655 H 153.703 -1.9927 -2.23856 0
M  V30 1656 H 151.264 -1.1808 -1.10764 0
M  V30 1657 H 153.256 -0.215836 -4.04124 0
M  V30 1658 H 151.826 0.298523 -3.11171 0
M  V30 1659 H 151.046 -2.18123 -3.28353 0
M  V30 1660 H 152.334 -2.41408 -4.47883 0
M  V30 1661 H 151.732 0.551486 -5.63005 0
M  V30 1662 H 150.289 0.251809 -6.51313 0
M  V30 1663 N 153.722 1.14298 -1.08507 0
M  V30 1664 C 154.669 2.19414 -0.715965 0
M  V30 1665 C 155.639 1.63399 0.298326 0
M  V30 1666 O 156.824 1.89929 0.182101 0
M  V30 1667 C 153.964 3.44845 -0.132534 0
M  V30 1668 C 153.077 4.15007 -1.19973 0
M  V30 1669 C 152.212 5.28024 -0.580048 0
M  V30 1670 C 151.251 5.9002 -1.62921 0
M  V30 1671 N 150.388 6.94485 -1.03125 0
M  V30 1672 H 155.228 2.50336 -1.61666 0
M  V30 1673 H 152.765 1.2293 -0.807882 0
M  V30 1674 H 154.723 4.16601 0.223454 0
M  V30 1675 H 153.353 3.14403 0.731467 0
M  V30 1676 H 152.405 3.41629 -1.67313 0
M  V30 1677 H 153.717 4.57178 -1.99473 0
M  V30 1678 H 152.871 6.06455 -0.172364 0
M  V30 1679 H 151.61 4.87076 0.246603 0
M  V30 1680 H 150.615 5.10291 -2.04654 0
M  V30 1681 H 151.84 6.33042 -2.45835 0
M  V30 1682 H 149.786 6.55612 -0.225711 0
M  V30 1683 H 149.703 7.35148 -1.76334 0
M  V30 1684 H 150.971 7.7679 -0.649458 0
M  V30 1685 N 155.201 0.870884 1.31352 0
M  V30 1686 C 156.148 0.325425 2.28494 0
M  V30 1687 C 157.118 -0.576615 1.5577 0
M  V30 1688 O 158.303 -0.508059 1.83911 0
M  V30 1689 C 155.443 -0.466283 3.41935 0
M  V30 1690 C 154.556 0.463378 4.29508 0
M  V30 1691 C 153.691 -0.342544 5.30094 0
M  V30 1692 C 152.73 0.583486 6.09313 0
M  V30 1693 N 151.867 -0.186244 7.01853 0
M  V30 1694 H 156.707 1.15901 2.74538 0
M  V30 1695 H 154.244 0.58294 1.35056 0
M  V30 1696 H 156.202 -0.941085 4.06447 0
M  V30 1697 H 154.832 -1.26456 2.97 0
M  V30 1698 H 153.884 1.05663 3.65431 0
M  V30 1699 H 155.196 1.1734 4.84802 0
M  V30 1700 H 154.35 -0.879816 6.00287 0
M  V30 1701 H 153.089 -1.08585 4.75458 0
M  V30 1702 H 152.094 1.13251 5.3801 0
M  V30 1703 H 153.319 1.32566 6.66035 0
M  V30 1704 H 151.265 -0.912348 6.49625 0
M  V30 1705 H 151.182 0.464422 7.54572 0
M  V30 1706 H 152.45 -0.704716 7.76308 0
M  V30 1707 N 156.679 -1.44442 0.630414 0
M  V30 1708 C 157.904 -2.06927 0.139944 0
M  V30 1709 C 158.329 -1.46795 -1.17613 0
M  V30 1710 O 157.687 -0.569144 -1.72135 0
M  V30 1711 C 157.735 -3.6058 0.0379581 0
M  V30 1712 O 156.839 -3.99937 -1.0062 0
M  V30 1713 H 156.18 -0.658608 0.0844483 0
M  V30 1714 H 158.71 -1.85327 0.866891 0
M  V30 1715 H 158.72 -4.07714 -0.152856 0
M  V30 1716 H 157.395 -4.03728 0.998809 0
M  V30 1717 H 155.972 -3.64436 -0.79001 0
M  V30 1718 N 158.157 -0.370918 -1.53173 0
M  V30 1719 C 159.397 0.217106 -2.03244 0
M  V30 1720 C 159.761 1.45558 -1.25207 0
M  V30 1721 O 160.962 2.11957 -1.65311 0
M  V30 1722 C 159.233 0.496664 -3.53932 0
M  V30 1723 S 160.792 1.0576 -4.25864 0
M  V30 1724 H 157.61 0.0627827 -0.708223 0
M  V30 1725 H 160.212 -0.515019 -1.88594 0
M  V30 1726 H 158.916 -0.412096 -4.08326 0
M  V30 1727 H 158.447 1.25772 -3.72753 0
M  V30 1728 H 160.462 2.34145 -4.37482 0
M  V30 1729 N 159.635 1.57281 -0.100228 0
M  V30 1730 C 160.881 1.94826 0.563101 0
M  V30 1731 C 161.214 0.982475 1.67514 0
M  V30 1732 O 160.489 0.0164069 1.94493 0
M  V30 1733 C 160.772 3.42453 1.11346 0
M  V30 1734 C 160.625 4.498 0.00612081 0
M  V30 1735 C 161.944 3.91506 2.01024 0
M  V30 1736 H 159.063 0.708428 0.203221 0
M  V30 1737 H 161.705 1.8922 -0.171979 0
M  V30 1738 H 159.855 3.47361 1.7399 0
M  V30 1739 H 161.527 4.57 -0.628357 0
M  V30 1740 H 159.77 4.28756 -0.659581 0
M  V30 1741 H 160.441 5.50306 0.432109 0
M  V30 1742 H 162.917 3.88784 1.48278 0
M  V30 1743 H 161.793 4.95358 2.36457 0
M  V30 1744 H 162.054 3.31099 2.92961 0
M  V30 1745 N 161.113 -0.173488 1.56642 0
M  V30 1746 C 162.023 -1.23482 1.99473 0
M  V30 1747 C 163.039 -1.48567 0.905752 0
M  V30 1748 O 164.215 -1.60758 1.21321 0
M  V30 1749 C 161.28 -2.55444 2.34413 0
M  V30 1750 C 160.341 -2.38241 3.57127 0
M  V30 1751 C 159.574 -3.63909 3.90392 0
M  V30 1752 O 159.797 -4.68996 3.24653 0
M  V30 1753 O 158.731 -3.58149 4.83749 0
M  V30 1754 H 162.557 -0.901279 2.90018 0
M  V30 1755 H 160.142 -0.380185 1.44482 0
M  V30 1756 H 162.024 -3.33292 2.57865 0
M  V30 1757 H 160.699 -2.88382 1.4703 0
M  V30 1758 H 159.606 -1.58431 3.38896 0
M  V30 1759 H 160.939 -2.10228 4.45045 0
M  V30 1760 N 162.591 -1.51276 -0.441967 0
M  V30 1761 C 163.501 -1.75092 -1.56141 0
M  V30 1762 C 164.517 -0.634963 -1.62001 0
M  V30 1763 O 165.693 -0.916686 -1.79329 0
M  V30 1764 C 162.758 -1.86666 -2.92158 0
M  V30 1765 C 161.819 -3.10506 -2.96453 0
M  V30 1766 C 161.052 -3.21519 -4.25982 0
M  V30 1767 O 161.275 -2.38586 -5.18105 0
M  V30 1768 O 160.209 -4.14465 -4.36466 0
M  V30 1769 H 164.035 -2.70044 -1.38961 0
M  V30 1770 H 161.62 -1.35722 -0.624499 0
M  V30 1771 H 163.502 -1.96292 -3.72891 0
M  V30 1772 H 162.177 -0.949014 -3.09476 0
M  V30 1773 H 161.084 -3.06363 -2.14692 0
M  V30 1774 H 162.417 -4.01945 -2.84079 0
M  V30 1775 N 164.069 0.697108 -1.41344 0
M  V30 1776 C 165.48 1.27697 -1.36199 0
M  V30 1777 C 165.831 1.9615 -0.0443463 0
M  V30 1778 O 164.956 1.98689 0.857419 0
M  V30 1779 C 165.551 2.32223 -2.46694 0
M  V30 1780 C 164.11 2.8579 -2.44952 0
M  V30 1781 C 163.257 1.59807 -2.26621 0
M  V30 1782 H 166.208 0.491968 -1.50882 0
M  V30 1783 H 166.229 3.1348 -2.15664 0
M  V30 1784 H 165.741 1.82373 -3.42581 0
M  V30 1785 H 163.842 3.3982 -1.52817 0
M  V30 1786 H 163.955 3.36325 -3.41207 0
M  V30 1787 H 162.319 1.8556 -1.7447 0
M  V30 1788 H 163.102 1.11956 -3.24532 0
M  V30 1789 N 165.547 1.27147 0.931209 0
M  V30 1790 C 166.457 1.11372 2.06478 0
M  V30 1791 C 167.473 0.044645 1.73943 0
M  V30 1792 O 168.649 0.250417 1.99837 0
M  V30 1793 C 165.714 0.758838 3.38294 0
M  V30 1794 C 164.775 1.90841 3.84549 0
M  V30 1795 C 164.008 1.57036 5.10074 0
M  V30 1796 O 164.231 0.476645 5.68405 0
M  V30 1797 O 163.165 2.40839 5.51616 0
M  V30 1798 H 166.991 2.06493 2.22698 0
M  V30 1799 H 164.576 1.06301 1.04978 0
M  V30 1800 H 166.458 0.574098 4.17471 0
M  V30 1801 H 165.133 -0.162879 3.2329 0
M  V30 1802 H 164.04 2.14819 3.06274 0
M  V30 1803 H 165.373 2.81021 4.04089 0
M  V30 1804 N 167.025 -1.13721 1.09112 0
M  V30 1805 C 168.436 -1.6648 0.845068 0
M  V30 1806 C 168.787 -1.85911 -0.62701 0
M  V30 1807 O 167.912 -1.57556 -1.48341 0
M  V30 1808 C 168.507 -3.02413 1.52748 0
M  V30 1809 C 167.066 -3.52176 1.32849 0
M  V30 1810 C 166.213 -2.27492 1.58564 0
M  V30 1811 H 169.164 -0.976872 1.25072 0
M  V30 1812 H 169.185 -3.68223 0.958752 0
M  V30 1813 H 168.697 -2.88238 2.59885 0
M  V30 1814 H 166.798 -3.7156 0.278137 0
M  V30 1815 H 166.911 -4.32499 2.0611 0
M  V30 1816 H 165.275 -2.33923 1.00758 0
M  V30 1817 H 166.058 -2.15886 2.66924 0
M  V30 1818 N 168.503 -0.877838 -1.30888 0
M  V30 1819 C 169.413 -0.343096 -2.32078 0
M  V30 1820 C 170.429 0.551022 -1.65045 0
M  V30 1821 O 171.605 0.445854 -1.96403 0
M  V30 1822 C 168.67 0.439905 -3.43898 0
M  V30 1823 C 167.731 -0.483111 -4.26573 0
M  V30 1824 C 166.964 0.262616 -5.33053 0
M  V30 1825 O 167.187 1.48967 -5.50604 0
M  V30 1826 O 166.121 -0.383593 -6.00676 0
M  V30 1827 H 169.947 -1.18203 -2.79753 0
M  V30 1828 H 167.532 -0.64145 -1.34929 0
M  V30 1829 H 169.414 0.883504 -4.12034 0
M  V30 1830 H 168.089 1.25526 -2.98371 0
M  V30 1831 H 166.996 -0.975374 -3.61161 0
M  V30 1832 H 168.329 -1.26427 -4.75686 0
M  V30 1833 N 169.982 1.44106 -0.638065 0
M  V30 1834 C 171.393 1.85316 -0.226894 0
M  V30 1835 C 171.744 1.53399 1.22324 0
M  V30 1836 O 170.869 0.975463 1.93167 0
M  V30 1837 C 171.464 3.3637 -0.405013 0
M  V30 1838 C 170.023 3.76369 -0.0482902 0
M  V30 1839 C 169.17 2.67921 -0.715108 0
M  V30 1840 H 172.121 1.34474 -0.842764 0
M  V30 1841 H 172.142 3.7885 0.354 0
M  V30 1842 H 171.654 3.59569 -1.46053 0
M  V30 1843 H 169.755 3.58784 1.00522 0
M  V30 1844 H 169.868 4.76856 -0.463187 0
M  V30 1845 H 168.232 2.54259 -0.149753 0
M  V30 1846 H 169.015 2.93951 -1.77335 0
M  V30 1847 N 171.46 0.379036 1.52974 0
M  V30 1848 C 172.37 -0.468639 2.29872 0
M  V30 1849 C 173.386 -1.08067 1.36373 0
M  V30 1850 O 174.562 -1.08871 1.69438 0
M  V30 1851 C 171.627 -1.58594 3.083 0
M  V30 1852 C 170.688 -1.00007 4.17489 0
M  V30 1853 C 169.921 -2.06413 4.92168 0
M  V30 1854 O 170.144 -3.27751 4.66835 0
M  V30 1855 O 169.078 -1.68717 5.7777 0
M  V30 1856 H 172.904 0.157508 3.03291 0
M  V30 1857 H 170.489 0.143035 1.48714 0
M  V30 1858 H 172.371 -2.23525 3.57232 0
M  V30 1859 H 171.046 -2.19724 2.37703 0
M  V30 1860 H 169.953 -0.314299 3.72777 0
M  V30 1861 H 171.286 -0.433135 4.90291 0
M  V30 1862 N 172.938 -1.57226 0.108567 0
M  V30 1863 C 173.901 -2.13602 -0.831082 0
M  V30 1864 C 174.901 -1.06841 -1.20173 0
M  V30 1865 O 176.091 -1.32666 -1.12895 0
M  V30 1866 C 173.223 -2.66769 -2.12243 0
M  V30 1867 H 174.416 -2.97951 -0.341317 0
M  V30 1868 H 171.969 -1.55667 -0.14057 0
M  V30 1869 H 172.704 -1.85977 -2.65675 0
M  V30 1870 H 172.489 -3.44839 -1.86625 0
M  V30 1871 H 173.979 -3.10332 -2.79435 0
M  V30 1872 N 174.416 0.165178 -1.56732 0
M  V30 1873 C 175.379 1.18822 -1.95995 0
M  V30 1874 C 176.379 1.3685 -0.84431 0
M  V30 1875 O 177.569 1.34152 -1.11126 0
M  V30 1876 C 174.701 2.5521 -2.26011 0
M  V30 1877 H 175.894 0.851825 -2.87548 0
M  V30 1878 H 173.447 0.407857 -1.50885 0
M  V30 1879 H 174.182 2.93852 -1.37191 0
M  V30 1880 H 173.967 2.43489 -3.07336 0
M  V30 1881 H 175.457 3.28927 -2.57288 0
M  V30 1882 N 175.894 1.51508 0.433938 0
M  V30 1883 C 176.804 1.75917 1.5521 0
M  V30 1884 C 177.82 0.643545 1.61662 0
M  V30 1885 O 178.996 0.926183 1.7884 0
M  V30 1886 C 176.061 1.88213 2.91164 0
M  V30 1887 C 175.122 3.12074 2.94802 0
M  V30 1888 C 174.355 3.23774 4.24271 0
M  V30 1889 O 174.578 2.4133 5.16833 0
M  V30 1890 O 173.512 4.16774 4.34262 0
M  V30 1891 H 177.338 2.70777 1.37527 0
M  V30 1892 H 174.923 1.36051 0.617293 0
M  V30 1893 H 176.805 1.98267 3.71845 0
M  V30 1894 H 175.48 0.965413 3.08968 0
M  V30 1895 H 174.387 3.07497 2.13065 0
M  V30 1896 H 175.72 4.03446 2.81943 0
M  V30 1897 N 177.372 -0.689602 1.41712 0
M  V30 1898 C 178.62 -1.4468 1.4111 0
M  V30 1899 C 178.941 -1.94986 0.0232196 0
M  V30 1900 O 178.211 -1.72097 -0.935913 0
M  V30 1901 H 176.791 -0.536847 0.519427 0
M  V30 1902 H 179.453 -0.815825 1.77004 0
M  V30 1903 H 178.549 -2.30706 2.10193 0
M  V30 1904 N 178.85 -1.27639 -0.924453 0
M  V30 1905 C 180.127 -1.04887 -1.651 0
M  V30 1906 C 180.507 0.415327 -2.06974 0
M  V30 1907 O 179.855 1.39923 -1.80648 0
M  V30 1908 C 180.065 -2.01348 -2.85061 0
M  V30 1909 C 181.413 -2.30899 -3.56329 0
M  V30 1910 O 182.437 -1.99348 -2.95193 0
M  V30 1911 O 181.296 -2.84699 -4.66485 0
M  V30 1912 H 178.39 -0.400083 -0.723784 0
M  V30 1913 H 180.936 -1.38916 -0.974703 0
M  V30 1914 H 179.708 -3.0008 -2.51133 0
M  V30 1915 H 179.331 -1.679 -3.6041 0
M  V30 1916 N 180.328 1.1314 -1.09713 0
M  V30 1917 C 181.576 1.84119 -0.833338 0
M  V30 1918 C 181.897 1.84097 0.642904 0
M  V30 1919 O 181.167 1.29881 1.46655 0
M  V30 1920 H 179.747 0.681766 -0.305293 0
M  V30 1921 H 182.409 1.37038 -1.38588 0
M  V30 1922 H 181.505 2.88543 -1.18951 0
M  V30 1923 N 181.806 0.884767 1.30421 0
M  V30 1924 C 183.083 0.423185 1.90967 0
M  V30 1925 C 183.463 -1.09605 1.80416 0
M  V30 1926 O 182.811 -1.93126 1.22125 0
M  V30 1927 C 183.021 0.921056 3.36627 0
M  V30 1928 C 184.369 0.955903 4.137 0
M  V30 1929 O 185.393 0.867706 3.4547 0
M  V30 1930 O 184.252 1.08614 5.35598 0
M  V30 1931 H 181.346 0.129369 0.816819 0
M  V30 1932 H 183.892 0.973653 1.3899 0
M  V30 1933 H 182.664 1.96489 3.3839 0
M  V30 1934 H 182.287 0.349741 3.96059 0
M  V30 1935 N 183.284 -1.43765 0.645699 0
M  V30 1936 C 184.231 -2.30745 -0.0504648 0
M  V30 1937 C 185.201 -1.4432 -0.822241 0
M  V30 1938 O 186.386 -1.73202 -0.800358 0
M  V30 1939 C 183.526 -3.29802 -1.0161 0
M  V30 1940 C 182.639 -4.31326 -0.241219 0
M  V30 1941 C 181.774 -5.17469 -1.19998 0
M  V30 1942 C 180.813 -6.10691 -0.415094 0
M  V30 1943 N 179.95 -6.89483 -1.32506 0
M  V30 1944 H 184.79 -2.8973 0.697155 0
M  V30 1945 H 182.327 -1.42738 0.355563 0
M  V30 1946 H 184.285 -3.85734 -1.58949 0
M  V30 1947 H 182.915 -2.72483 -1.73069 0
M  V30 1948 H 181.967 -3.77749 0.448334 0
M  V30 1949 H 183.279 -4.9743 0.369437 0
M  V30 1950 H 182.433 -5.7799 -1.84424 0
M  V30 1951 H 181.172 -4.51473 -1.84455 0
M  V30 1952 H 180.177 -5.49265 0.242565 0
M  V30 1953 H 181.402 -6.78727 0.224966 0
M  V30 1954 H 179.348 -6.26142 -1.95657 0
M  V30 1955 H 179.265 -7.52081 -0.768783 0
M  V30 1956 H 180.533 -7.54516 -1.9577 0
M  V30 1957 N 184.763 -0.387143 -1.52771 0
M  V30 1958 C 185.71 0.449048 -2.26389 0
M  V30 1959 C 186.68 1.05961 -1.27912 0
M  V30 1960 O 187.865 1.08804 -1.56737 0
M  V30 1961 C 185.005 1.57155 -3.0724 0
M  V30 1962 C 184.118 0.984066 -4.20643 0
M  V30 1963 C 183.253 2.07745 -4.88892 0
M  V30 1964 C 182.292 1.46574 -5.94292 0
M  V30 1965 N 181.429 2.49834 -6.56146 0
M  V30 1966 H 186.269 -0.185205 -2.97424 0
M  V30 1967 H 183.806 -0.103164 -1.46738 0
M  V30 1968 H 185.764 2.23309 -3.52405 0
M  V30 1969 H 184.394 2.17615 -2.38419 0
M  V30 1970 H 183.446 0.212193 -3.79808 0
M  V30 1971 H 184.758 0.497029 -4.96318 0
M  V30 1972 H 183.912 2.81673 -5.3735 0
M  V30 1973 H 182.651 2.59807 -4.12737 0
M  V30 1974 H 181.656 0.711696 -5.45174 0
M  V30 1975 H 182.881 0.953088 -6.72379 0
M  V30 1976 H 180.827 3.0107 -5.82832 0
M  V30 1977 H 180.744 2.05879 -7.27427 0
M  V30 1978 H 182.012 3.23399 -7.09249 0
M  V30 1979 N 186.241 1.57166 -0.116904 0
M  V30 1980 C 187.489 1.94737 0.540533 0
M  V30 1981 C 187.81 1.00096 1.67349 0
M  V30 1982 O 187.08 0.0568854 1.95817 0
M  V30 1983 H 185.66 0.718981 0.202669 0
M  V30 1984 H 188.322 1.94017 -0.185353 0
M  V30 1985 H 187.418 2.97719 0.936483 0
M  V30 1986 N 187.719 -0.156864 1.56817 0
M  V30 1987 C 188.667 -1.21319 1.98455 0
M  V30 1988 C 189.661 -1.45025 0.875444 0
M  V30 1989 O 190.867 -1.45435 1.0606 0
M  V30 1990 H 187.242 -0.408142 0.631605 0
M  V30 1991 H 189.213 -0.835244 2.86472 0
M  V30 1992 C 187.962 -2.54148 2.37285 0
M  V30 1993 H 187.285 -2.36733 3.22176 0
M  V30 1994 H 188.725 -3.26712 2.70251 0
M  V30 1995 C 187.184 -3.13967 1.22173 0
M  V30 1996 O 187.714 -3.98357 0.517149 0
M  V30 1997 N 185.92 -2.7327 0.988536 0
M  V30 1998 H 185.467 -2.04744 1.56326 0
M  V30 1999 H 185.425 -3.13628 0.220209 0
M  V30 2000 N 189.197 -1.51736 -0.425897 0
M  V30 2001 C 190.16 -1.73271 -1.50032 0
M  V30 2002 C 191.16 -0.602639 -1.4908 0
M  V30 2003 O 192.35 -0.87033 -1.509 0
M  V30 2004 C 189.482 -1.79969 -2.89523 0
M  V30 2005 H 190.675 -2.69172 -1.32237 0
M  V30 2006 H 188.228 -1.41899 -0.65532 0
M  V30 2007 H 188.963 -0.859241 -3.1271 0
M  V30 2008 H 188.748 -2.62109 -2.91619 0
M  V30 2009 H 190.238 -1.9843 -3.67444 0
M  V30 2010 N 190.675 0.682077 -1.42076 0
M  V30 2011 C 191.585 1.82535 -1.47371 0
M  V30 2012 C 192.601 1.7017 -0.363079 0
M  V30 2013 O 193.777 1.91848 -0.612875 0
M  V30 2014 C 190.842 3.18624 -1.36674 0
M  V30 2015 C 189.903 3.42999 -2.58167 0
M  V30 2016 C 189.136 4.72595 -2.4797 0
M  V30 2017 O 189.359 5.50006 -1.5116 0
M  V30 2018 O 188.293 4.98054 -3.37974 0
M  V30 2019 H 192.119 1.81023 -2.43853 0
M  V30 2020 H 189.704 0.836887 -1.2376 0
M  V30 2021 H 191.586 3.99847 -1.33043 0
M  V30 2022 H 190.261 3.20789 -0.433138 0
M  V30 2023 H 189.168 2.61653 -2.67373 0
M  V30 2024 H 190.501 3.45659 -3.50401 0
M  V30 2025 N 192.153 1.28127 0.917671 0
M  V30 2026 C 193.401 1.14825 1.66312 0
M  V30 2027 C 193.722 -0.304379 1.9261 0
M  V30 2028 O 192.992 -1.21149 1.53947 0
M  V30 2029 H 191.572 0.421953 0.616413 0
M  V30 2030 H 194.234 1.608 1.10134 0
M  V30 2031 H 193.33 1.68489 2.62712 0
M  V30 2032 N 193.631 -1.12557 1.10312 0
M  V30 2033 C 194.856 -1.88405 0.867085 0
M  V30 2034 C 195.281 -1.79038 -0.576817 0
M  V30 2035 O 194.639 -1.14439 -1.40618 0
M  V30 2036 C 194.687 -3.3563 1.31851 0
M  V30 2037 O 193.791 -4.09565 0.482734 0
M  V30 2038 H 193.132 -0.585455 0.313271 0
M  V30 2039 H 195.662 -1.42352 1.4696 0
M  V30 2040 H 195.672 -3.86469 1.3079 0
M  V30 2041 H 194.347 -3.41765 2.37001 0
M  V30 2042 H 192.924 -3.68695 0.558448 0
M  V30 2043 N 195.109 -0.891671 -1.2995 0
M  V30 2044 C 196.334 -0.527932 -2.00568 0
M  V30 2045 C 196.759 0.877969 -1.66353 0
M  V30 2046 O 196.117 1.58301 -0.883762 0
M  V30 2047 C 196.165 -0.717745 -3.53385 0
M  V30 2048 O 195.269 0.233376 -4.11739 0
M  V30 2049 H 194.61 -0.20722 -0.630837 0
M  V30 2050 H 197.14 -1.20105 -1.65638 0
M  V30 2051 H 197.15 -0.619307 -4.03272 0
M  V30 2052 H 195.825 -1.74276 -3.77625 0
M  V30 2053 H 194.402 0.0880706 -3.72796 0
M  V30 2054 N 196.587 1.43421 -0.653314 0
M  V30 2055 C 197.864 1.95361 -0.0966581 0
M  V30 2056 C 198.244 1.59461 1.38331 0
M  V30 2057 O 197.592 0.879777 2.10884 0
M  V30 2058 C 197.802 3.47311 -0.342988 0
M  V30 2059 C 199.15 4.23875 -0.24798 0
M  V30 2060 O 200.174 3.55133 -0.275553 0
M  V30 2061 O 199.033 5.4623 -0.171771 0
M  V30 2062 H 196.127 0.826945 0.00956291 0
M  V30 2063 H 198.673 1.5336 -0.726558 0
M  V30 2064 H 197.445 3.66569 -1.36906 0
M  V30 2065 H 197.068 3.9631 0.319975 0
M  V30 2066 N 198.065 0.39524 1.52563 0
M  V30 2067 C 198.975 -0.444232 2.30356 0
M  V30 2068 C 199.991 -1.06615 1.37511 0
M  V30 2069 O 201.167 -1.07067 1.70583 0
M  V30 2070 C 198.232 -1.55315 3.09964 0
M  V30 2071 C 197.293 -0.955734 4.18526 0
M  V30 2072 C 196.526 -2.01181 4.9433 0
M  V30 2073 O 196.749 -3.22781 4.70285 0
M  V30 2074 O 195.683 -1.62579 5.79527 0
M  V30 2075 H 199.509 0.189667 3.03107 0
M  V30 2076 H 197.094 0.1588 1.48554 0
M  V30 2077 H 198.976 -2.19724 3.59582 0
M  V30 2078 H 197.651 -2.17191 2.4002 0
M  V30 2079 H 196.558 -0.274743 3.7309 0
M  V30 2080 H 197.891 -0.381109 4.90722 0
M  V30 2081 N 199.544 -1.57102 0.125237 0
M  V30 2082 C 200.454 -2.19191 -0.8362 0
M  V30 2083 C 201.47 -1.16985 -1.28805 0
M  V30 2084 O 202.646 -1.49479 -1.34974 0
M  V30 2085 C 199.711 -2.78407 -2.06617 0
M  V30 2086 C 198.772 -3.9567 -1.66565 0
M  V30 2087 C 198.005 -4.52052 -2.83698 0
M  V30 2088 O 198.228 -4.07326 -3.99302 0
M  V30 2089 O 197.162 -5.42645 -2.60423 0
M  V30 2090 H 200.988 -3.01816 -0.337776 0
M  V30 2091 H 198.573 -1.4906 -0.100695 0
M  V30 2092 H 200.455 -3.16129 -2.7864 0
M  V30 2093 H 199.13 -1.9881 -2.55453 0
M  V30 2094 H 198.037 -3.62705 -0.916296 0
M  V30 2095 H 199.37 -4.76722 -1.22464 0
M  V30 2096 N 201.022 0.148545 -1.56898 0
M  V30 2097 C 202.27 0.859717 -1.82902 0
M  V30 2098 C 202.591 1.81775 -0.70588 0
M  V30 2099 O 201.861 1.93994 0.272586 0
M  V30 2100 H 200.441 0.320469 -0.674766 0
M  V30 2101 H 203.103 0.142918 -1.94375 0
M  V30 2102 H 202.199 1.4229 -2.77777 0
M  V30 2103 N 202.5 1.5196 0.417844 0
M  V30 2104 C 203.447 1.74678 1.50852 0
M  V30 2105 C 204.417 0.588947 1.55308 0
M  V30 2106 O 205.602 0.825544 1.72016 0
M  V30 2107 C 202.742 1.89544 2.88387 0
M  V30 2108 C 201.855 3.17166 2.93309 0
M  V30 2109 C 200.99 3.22513 4.22088 0
M  V30 2110 C 200.029 4.44372 4.20951 0
M  V30 2111 N 199.166 4.47161 5.41287 0
M  V30 2112 H 204.006 2.67768 1.30783 0
M  V30 2113 H 201.543 1.32689 0.63498 0
M  V30 2114 H 203.501 1.96146 3.68216 0
M  V30 2115 H 202.131 0.998424 3.06971 0
M  V30 2116 H 201.183 3.19778 2.06024 0
M  V30 2117 H 202.495 4.07021 2.88332 0
M  V30 2118 H 201.649 3.28139 5.10303 0
M  V30 2119 H 200.388 2.30581 4.29748 0
M  V30 2120 H 199.393 4.38902 3.31127 0
M  V30 2121 H 200.618 5.3759 4.14938 0
M  V30 2122 H 198.564 3.58108 5.49632 0
M  V30 2123 H 198.481 5.3085 5.3827 0
M  V30 2124 H 199.749 4.57005 6.3148 0
M  V30 2125 N 203.978 -0.674533 1.42435 0
M  V30 2126 C 204.908 -1.80009 1.48724 0
M  V30 2127 C 205.889 -1.6659 0.343793 0
M  V30 2128 O 207.074 -1.86007 0.558137 0
M  V30 2129 C 204.204 -3.18306 1.38919 0
M  V30 2130 C 203.158 -3.46461 2.51294 0
M  V30 2131 C 202.484 -4.84335 2.26547 0
M  V30 2132 C 203.784 -3.43328 3.93603 0
M  V30 2133 H 205.478 -1.75004 2.42928 0
M  V30 2134 H 203.024 -0.840533 1.16923 0
M  V30 2135 H 204.977 -3.9678 1.41927 0
M  V30 2136 H 203.701 -3.2399 0.412094 0
M  V30 2137 H 202.36 -2.70348 2.47604 0
M  V30 2138 H 202.008 -4.86669 1.2713 0
M  V30 2139 H 201.708 -5.04136 3.01861 0
M  V30 2140 H 203.232 -5.65094 2.31304 0
M  V30 2141 H 204.646 -4.11772 3.98894 0
M  V30 2142 H 203.043 -3.74664 4.68771 0
M  V30 2143 H 204.113 -2.41897 4.20255 0
M  V30 2144 N 205.456 -1.28612 -0.910864 0
M  V30 2145 C 206.702 -1.16106 -1.66274 0
M  V30 2146 C 207.035 0.289113 -1.92036 0
M  V30 2147 O 206.31 1.21 -1.52281 0
M  V30 2148 C 206.593 -1.96309 -3.01885 0
M  V30 2149 C 206.446 -3.49405 -2.8326 0
M  V30 2150 C 207.765 -1.78076 -4.02463 0
M  V30 2151 H 204.884 -0.423152 -0.603417 0
M  V30 2152 H 207.526 -1.57961 -1.05586 0
M  V30 2153 H 205.676 -1.60742 -3.53687 0
M  V30 2154 H 207.348 -3.94894 -2.38446 0
M  V30 2155 H 205.591 -3.74893 -2.18261 0
M  V30 2156 H 206.262 -4.00784 -3.79574 0
M  V30 2157 H 208.738 -2.0912 -3.59733 0
M  V30 2158 H 207.614 -2.36561 -4.95308 0
M  V30 2159 H 207.875 -0.733008 -4.35981 0
M  V30 2160 N 206.934 1.1197 -1.10907 0
M  V30 2161 C 208.183 1.82947 -0.849302 0
M  V30 2162 C 208.496 1.85275 0.627112 0
M  V30 2163 O 209.702 2.52296 1.00295 0
M  V30 2164 C 208.158 3.28529 -1.46959 0
M  V30 2165 C 207.766 3.34546 -2.97965 0
M  V30 2166 C 209.51 4.04443 -1.28942 0
M  V30 2167 C 207.417 4.74491 -3.53004 0
M  V30 2168 H 206.347 0.685477 -0.314065 0
M  V30 2169 H 208.998 1.2604 -1.33365 0
M  V30 2170 H 207.38 3.85333 -0.912917 0
M  V30 2171 H 208.554 2.87654 -3.59989 0
M  V30 2172 H 206.869 2.72108 -3.15192 0
M  V30 2173 H 209.466 5.07787 -1.67502 0
M  V30 2174 H 209.809 4.15656 -0.231456 0
M  V30 2175 H 210.342 3.5401 -1.81443 0
M  V30 2176 H 207.081 4.68474 -4.58489 0
M  V30 2177 H 206.601 5.21816 -2.9575 0
M  V30 2178 H 208.28 5.4344 -3.51115 0
M  V30 2179 N 208.412 0.89855 1.29475 0
M  V30 2180 C 209.689 0.443416 1.90508 0
M  V30 2181 C 210.069 -1.07685 1.81569 0
M  V30 2182 O 209.417 -1.9182 1.24166 0
M  V30 2183 C 209.627 0.956708 3.35631 0
M  V30 2184 C 210.975 0.999728 4.12663 0
M  V30 2185 O 211.999 0.904299 3.4453 0
M  V30 2186 O 210.858 1.14289 5.34416 0
M  V30 2187 H 207.952 0.138025 0.815401 0
M  V30 2188 H 210.498 0.98834 1.37949 0
M  V30 2189 H 209.27 2.00067 3.36287 0
M  V30 2190 H 208.893 0.391728 3.95666 0
M  V30 2191 N 209.89 -1.43072 0.660911 0
M  V30 2192 C 210.8 -2.34585 -0.0264163 0
M  V30 2193 C 211.816 -1.54316 -0.803898 0
M  V30 2194 O 212.992 -1.86939 -0.749391 0
M  V30 2195 C 210.057 -3.32689 -0.975639 0
M  V30 2196 C 209.118 -4.2886 -0.194236 0
M  V30 2197 C 208.351 -5.22278 -1.09825 0
M  V30 2198 O 208.574 -5.20299 -2.33763 0
M  V30 2199 O 207.508 -5.99228 -0.566513 0
M  V30 2200 H 211.334 -2.94869 0.727034 0
M  V30 2201 H 208.919 -1.43342 0.42111 0
M  V30 2202 H 210.801 -3.92995 -1.52094 0
M  V30 2203 H 209.476 -2.74898 -1.70918 0
M  V30 2204 H 208.383 -3.72011 0.394835 0
M  V30 2205 H 209.716 -4.89655 0.499899 0
M  V30 2206 N 211.368 -0.403325 -1.52352 0
M  V30 2207 C 212.779 0.0675782 -1.86578 0
M  V30 2208 C 213.13 1.44941 -1.32236 0
M  V30 2209 O 212.255 2.06112 -0.659307 0
M  V30 2210 C 212.85 0.129404 -3.38553 0
M  V30 2211 C 211.409 0.544629 -3.72439 0
M  V30 2212 C 210.556 -0.284551 -2.75836 0
M  V30 2213 H 213.507 -0.620631 -1.46061 0
M  V30 2214 H 213.528 0.94581 -3.68558 0
M  V30 2215 H 213.04 -0.87645 -3.78074 0
M  V30 2216 H 211.141 1.55734 -3.38493 0
M  V30 2217 H 211.254 0.293046 -4.78203 0
M  V30 2218 H 209.618 0.252258 -2.53448 0
M  V30 2219 H 210.401 -1.28865 -3.18196 0
M  V30 2220 N 212.846 1.57033 -0.133567 0
M  V30 2221 C 213.809 2.14897 0.796995 0
M  V30 2222 C 214.809 1.0874 1.18458 0
M  V30 2223 O 215.999 1.34446 1.1077 0
M  V30 2224 C 213.131 2.70112 2.07973 0
M  V30 2225 H 214.324 2.98457 0.293873 0
M  V30 2226 H 211.877 1.55871 0.115787 0
M  V30 2227 H 212.612 1.9018 2.62682 0
M  V30 2228 H 212.397 3.47764 1.81115 0
M  V30 2229 H 213.887 3.14738 2.74462 0
M  V30 2230 N 214.325 -0.140222 1.56975 0
M  V30 2231 C 215.272 -1.17292 1.98774 0
M  V30 2232 C 216.242 -1.4232 0.856408 0
M  V30 2233 O 217.427 -1.54541 1.119 0
M  V30 2234 C 214.567 -2.49973 2.37923 0
M  V30 2235 C 213.68 -2.32062 3.64378 0
M  V30 2236 C 212.815 -3.57825 3.926 0
M  V30 2237 C 211.854 -3.3498 5.12303 0
M  V30 2238 N 210.991 -4.52891 5.36502 0
M  V30 2239 H 215.831 -0.809472 2.86795 0
M  V30 2240 H 213.368 -0.388237 1.41884 0
M  V30 2241 H 215.326 -3.27346 2.58652 0
M  V30 2242 H 213.956 -2.84252 1.52972 0
M  V30 2243 H 213.008 -1.45711 3.51387 0
M  V30 2244 H 214.32 -2.11145 4.51906 0
M  V30 2245 H 213.474 -4.43624 4.13863 0
M  V30 2246 H 212.213 -3.81753 3.03506 0
M  V30 2247 H 211.218 -2.4757 4.90906 0
M  V30 2248 H 212.443 -3.12444 6.02956 0
M  V30 2249 H 210.389 -4.76979 4.50363 0
M  V30 2250 H 210.306 -4.35001 6.18312 0
M  V30 2251 H 211.574 -5.39884 5.62268 0
M  V30 2252 N 215.803 -1.52179 -0.40978 0
M  V30 2253 C 216.713 -1.78364 -1.52392 0
M  V30 2254 C 217.729 -0.669183 -1.60617 0
M  V30 2255 O 218.905 -0.954518 -1.77344 0
M  V30 2256 C 215.97 -1.92822 -2.88133 0
M  V30 2257 C 215.031 -3.16725 -2.898 0
M  V30 2258 C 214.264 -3.30483 -4.19067 0
M  V30 2259 O 214.487 -2.49522 -5.12928 0
M  V30 2260 O 213.421 -4.2363 -4.27576 0
M  V30 2261 H 217.247 -2.72931 -1.33201 0
M  V30 2262 H 214.832 -1.37016 -0.59557 0
M  V30 2263 H 216.714 -2.04157 -3.68643 0
M  V30 2264 H 215.389 -1.01444 -3.07393 0
M  V30 2265 H 214.296 -3.10848 -2.08146 0
M  V30 2266 H 215.629 -4.07881 -2.75489 0
M  V30 2267 N 217.281 0.66697 -1.42791 0
M  V30 2268 C 218.228 1.7803 -1.4688 0
M  V30 2269 C 219.198 1.6299 -0.319919 0
M  V30 2270 O 220.383 1.83432 -0.525118 0
M  V30 2271 C 217.523 3.1611 -1.38451 0
M  V30 2272 C 216.636 3.42381 -2.63437 0
M  V30 2273 C 215.771 4.70232 -2.47094 0
M  V30 2274 C 214.81 4.89564 -3.67415 0
M  V30 2275 N 213.947 6.08661 -3.49966 0
M  V30 2276 H 218.787 1.7387 -2.42019 0
M  V30 2277 H 216.324 0.84868 -1.20149 0
M  V30 2278 H 218.282 3.95914 -1.31561 0
M  V30 2279 H 216.912 3.19374 -0.469033 0
M  V30 2280 H 215.964 2.56774 -2.80662 0
M  V30 2281 H 217.276 3.52557 -3.52853 0
M  V30 2282 H 216.43 5.5814 -2.37834 0
M  V30 2283 H 215.169 4.62353 -1.5518 0
M  V30 2284 H 214.174 4.00096 -3.77099 0
M  V30 2285 H 215.399 4.99282 -4.6032 0
M  V30 2286 H 213.345 6.0194 -2.60776 0
M  V30 2287 H 213.262 6.19733 -4.32975 0
M  V30 2288 H 214.53 6.99226 -3.44532 0
M  V30 2289 N 218.759 1.29093 0.90403 0
M  V30 2290 C 219.707 1.13727 2.02901 0
M  V30 2291 C 220.701 0.0539853 1.69314 0
M  V30 2292 O 221.907 0.213469 1.7873 0
M  V30 2293 H 218.282 0.35117 0.664969 0
M  V30 2294 H 220.253 2.08982 2.13001 0
M  V30 2295 C 219.002 0.826066 3.37745 0
M  V30 2296 H 218.325 1.65164 3.64089 0
M  V30 2297 H 219.765 0.758559 4.17159 0
M  V30 2298 C 218.224 -0.470541 3.33598 0
M  V30 2299 O 218.754 -1.49792 3.72727 0
M  V30 2300 N 216.96 -0.474812 2.86695 0
M  V30 2301 H 216.507 0.361692 2.55048 0
M  V30 2302 H 216.465 -1.34236 2.84303 0
M  V30 2303 N 220.237 -1.11381 1.11499 0
M  V30 2304 C 221.147 -2.21019 0.786628 0
M  V30 2305 C 222.163 -1.72597 -0.220507 0
M  V30 2306 O 223.339 -2.01321 -0.0565251 0
M  V30 2307 C 220.404 -3.459 0.235333 0
M  V30 2308 C 219.465 -4.09107 1.30115 0
M  V30 2309 C 218.698 -5.28027 0.776068 0
M  V30 2310 O 218.921 -5.6904 -0.393661 0
M  V30 2311 O 217.855 -5.81835 1.54114 0
M  V30 2312 H 221.681 -2.51521 1.70209 0
M  V30 2313 H 219.266 -1.19928 0.890928 0
M  V30 2314 H 221.148 -4.21346 -0.067715 0
M  V30 2315 H 219.823 -3.17049 -0.652828 0
M  V30 2316 H 218.73 -3.35391 1.65722 0
M  V30 2317 H 220.063 -4.42139 2.16273 0
M  V30 2318 N 221.715 -0.905404 -1.28997 0
M  V30 2319 C 222.662 -0.385892 -2.27551 0
M  V30 2320 C 223.632 0.535113 -1.57244 0
M  V30 2321 O 224.817 0.459119 -1.85194 0
M  V30 2322 C 221.957 0.375461 -3.43051 0
M  V30 2323 C 221.07 -0.577092 -4.28128 0
M  V30 2324 C 220.205 0.201879 -5.30816 0
M  V30 2325 C 219.244 -0.744829 -6.07551 0
M  V30 2326 N 218.381 9.42587e-05 -7.021 0
M  V30 2327 H 223.221 -1.23139 -2.71368 0
M  V30 2328 H 220.758 -0.618542 -1.33463 0
M  V30 2329 H 222.716 0.832992 -4.088 0
M  V30 2330 H 221.346 1.18537 -3.00248 0
M  V30 2331 H 220.398 -1.15315 -3.62501 0
M  V30 2332 H 221.71 -1.30152 -4.8152 0
M  V30 2333 H 220.864 0.720351 -6.02408 0
M  V30 2334 H 219.603 0.959413 -4.7817 0
M  V30 2335 H 218.608 -1.27475 -5.34818 0
M  V30 2336 H 219.833 -1.50178 -6.62286 0
M  V30 2337 H 217.779 0.739791 -6.51815 0
M  V30 2338 H 217.696 -0.664321 -7.53076 0
M  V30 2339 H 218.964 0.498644 -7.77903 0
M  V30 2340 N 223.193 1.4272 -0.668489 0
M  V30 2341 C 224.441 2.01226 -0.187769 0
M  V30 2342 C 224.762 1.53092 1.2078 0
M  V30 2343 O 224.032 0.74993 1.80977 0
M  V30 2344 H 222.612 0.744041 -0.0664272 0
M  V30 2345 H 225.274 1.74723 -0.863583 0
M  V30 2346 H 224.37 3.11556 -0.184166 0
M  V30 2347 N 224.671 0.411399 1.52136 0
M  V30 2348 C 225.634 -0.401089 2.25663 0
M  V30 2349 C 226.634 -0.971732 1.28117 0
M  V30 2350 O 227.824 -0.850254 1.52041 0
M  V30 2351 C 224.956 -1.56483 3.02863 0
M  V30 2352 H 226.149 0.24295 2.98914 0
M  V30 2353 H 223.702 0.163968 1.55438 0
M  V30 2354 H 224.437 -2.24567 2.33967 0
M  V30 2355 H 224.222 -1.16211 3.74483 0
M  V30 2356 H 225.712 -2.13951 3.58629 0
M  V30 2357 N 226.149 -1.5696 0.141893 0
M  V30 2358 C 227.079 -2.19516 -0.795936 0
M  V30 2359 C 228.06 -1.14187 -1.26077 0
M  V30 2360 O 229.245 -1.42511 -1.31925 0
M  V30 2361 C 226.375 -2.81272 -2.03723 0
M  V30 2362 C 225.329 -3.92384 -1.70936 0
M  V30 2363 C 224.655 -4.41052 -3.02287 0
M  V30 2364 C 225.955 -5.13403 -0.959954 0
M  V30 2365 H 227.649 -2.98138 -0.274596 0
M  V30 2366 H 225.195 -1.43406 -0.130636 0
M  V30 2367 H 227.148 -3.237 -2.69808 0
M  V30 2368 H 225.872 -1.99973 -2.58221 0
M  V30 2369 H 224.531 -3.50566 -1.07232 0
M  V30 2370 H 224.179 -3.56582 -3.54765 0
M  V30 2371 H 223.879 -5.15993 -2.81114 0
M  V30 2372 H 225.403 -4.86146 -3.69451 0
M  V30 2373 H 226.817 -5.52706 -1.52279 0
M  V30 2374 H 225.214 -5.94073 -0.848357 0
M  V30 2375 H 226.284 -4.84875 0.0492434 0
M  V30 2376 N 227.627 0.131896 -1.57047 0
M  V30 2377 C 228.574 1.16236 -1.99393 0
M  V30 2378 C 229.544 1.41863 -0.863943 0
M  V30 2379 O 230.729 1.53946 -1.12718 0
M  V30 2380 C 227.869 2.48708 -2.39245 0
M  V30 2381 C 226.982 2.30127 -3.65603 0
M  V30 2382 C 226.117 3.55738 -3.94492 0
M  V30 2383 C 225.156 3.32259 -5.14073 0
M  V30 2384 N 224.293 4.50039 -5.38896 0
M  V30 2385 H 229.133 0.794251 -2.87221 0
M  V30 2386 H 226.67 0.380707 -1.42088 0
M  V30 2387 H 228.628 3.25969 -2.60384 0
M  V30 2388 H 227.258 2.83437 -1.54478 0
M  V30 2389 H 226.31 1.43845 -3.52154 0
M  V30 2390 H 227.622 2.08746 -4.5302 0
M  V30 2391 H 226.776 4.41423 -4.1621 0
M  V30 2392 H 225.515 3.80138 -3.05526 0
M  V30 2393 H 224.52 2.44963 -4.92212 0
M  V30 2394 H 225.745 3.09242 -6.04604 0
M  V30 2395 H 223.691 4.74584 -4.52886 0
M  V30 2396 H 223.608 4.31716 -6.2061 0
M  V30 2397 H 224.876 5.36895 -5.65123 0
M  V30 2398 N 229.106 1.52395 0.401703 0
M  V30 2399 C 230.522 1.41363 0.740864 0
M  V30 2400 C 230.722 0.523982 1.94568 0
M  V30 2401 O 229.778 -0.00741204 2.52499 0
M  V30 2402 C 231.091 2.84011 0.987847 0
M  V30 2403 C 232.639 2.93404 1.09011 0
M  V30 2404 C 233.114 4.37036 1.3698 0
M  V30 2405 N 234.605 4.40304 1.43829 0
M  V30 2406 C 235.34 5.48508 1.67112 0
M  V30 2407 N 234.836 6.66819 1.87949 0
M  V30 2408 N 236.629 5.36034 1.69187 0
M  V30 2409 H 228.78 2.08765 -0.391262 0
M  V30 2410 H 231.043 0.941265 -0.112798 0
M  V30 2411 H 230.749 3.51265 0.174835 0
M  V30 2412 H 230.623 3.25502 1.906 0
M  V30 2413 H 233.01 2.26325 1.8937 0
M  V30 2414 H 233.091 2.55359 0.15015 0
M  V30 2415 H 232.735 5.04676 0.571353 0
M  V30 2416 H 232.665 4.72623 2.3224 0
M  V30 2417 H 235.156 3.55024 1.29486 0
M  V30 2418 H 235.469 7.45063 2.05185 0
M  V30 2419 H 233.814 6.6987 1.85199 0
M  V30 2420 H 237.005 4.42579 1.52451 0
M  V30 2421 H 237.178 6.20434 1.86993 0
M  V30 2422 N 230.584 -0.659388 1.43143 0
M  V30 2423 C 232 -0.974337 1.26407 0
M  V30 2424 C 232.2 -2.007 0.179341 0
M  V30 2425 O 231.256 -2.4856 -0.444295 0
M  V30 2426 C 232.569 -1.46447 2.62628 0
M  V30 2427 C 234.117 -1.58144 2.7011 0
M  V30 2428 C 234.592 -2.1055 4.06734 0
M  V30 2429 N 236.083 -2.17861 4.08767 0
M  V30 2430 C 236.818 -2.59519 5.1131 0
M  V30 2431 N 236.314 -3.00518 6.24228 0
M  V30 2432 N 238.107 -2.59404 4.98664 0
M  V30 2433 H 230.258 0.0240528 2.12386 0
M  V30 2434 H 232.521 -0.0518065 0.946583 0
M  V30 2435 H 232.227 -0.780123 3.42939 0
M  V30 2436 H 232.101 -2.44058 2.87603 0
M  V30 2437 H 234.488 -2.25682 1.90136 0
M  V30 2438 H 234.569 -0.589828 2.48907 0
M  V30 2439 H 234.213 -1.43616 4.87172 0
M  V30 2440 H 234.143 -3.10531 4.25298 0
M  V30 2441 H 236.634 -1.88975 3.27257 0
M  V30 2442 H 236.947 -3.31036 6.98309 0
M  V30 2443 H 235.292 -2.98337 6.2771 0
M  V30 2444 H 238.483 -2.26747 4.09516 0
M  V30 2445 H 238.656 -2.91548 5.78709 0
M  V30 2446 N 232.062 -1.29571 -0.897171 0
M  V30 2447 C 233.025 -1.14913 -1.98312 0
M  V30 2448 C 234.025 -0.0838629 -1.60581 0
M  V30 2449 O 235.215 -0.331006 -1.71026 0
M  V30 2450 C 232.347 -0.757835 -3.3237 0
M  V30 2451 H 233.54 -2.11377 -2.12743 0
M  V30 2452 H 231.093 -1.12793 -1.08201 0
M  V30 2453 H 231.828 0.206837 -3.2364 0
M  V30 2454 H 231.613 -1.52755 -3.61121 0
M  V30 2455 H 233.103 -0.678408 -4.12053 0
M  V30 2456 N 233.54 1.10788 -1.12088 0
M  V30 2457 C 234.788 1.8231 -0.872205 0
M  V30 2458 C 235.109 1.85419 0.603709 0
M  V30 2459 O 234.379 1.32963 1.43867 0
M  V30 2460 H 232.959 0.675137 -0.319686 0
M  V30 2461 H 235.621 1.34068 -1.41463 0
M  V30 2462 H 234.717 2.85955 -1.25045 0
M  V30 2463 N 235.018 0.912232 1.28515 0
M  V30 2464 C 236.295 0.463597 1.90027 0
M  V30 2465 C 236.675 -1.05753 1.82701 0
M  V30 2466 O 236.023 -1.90492 1.26194 0
M  V30 2467 C 236.233 0.992253 3.34597 0
M  V30 2468 C 237.581 1.04344 4.11579 0
M  V30 2469 O 238.605 0.94079 3.43551 0
M  V30 2470 O 237.464 1.1995 5.33174 0
M  V30 2471 H 234.558 0.146666 0.813891 0
M  V30 2472 H 237.104 1.00292 1.36893 0
M  V30 2473 H 235.876 2.03623 3.34146 0
M  V30 2474 H 235.499 0.433672 3.95228 0
M  V30 2475 N 236.496 -1.42363 0.676048 0
M  V30 2476 C 237.426 -2.33497 0.0124832 0
M  V30 2477 C 238.407 -1.50748 -0.787981 0
M  V30 2478 O 239.592 -1.79346 -0.744884 0
M  V30 2479 C 236.722 -3.34377 -0.938582 0
M  V30 2480 C 235.676 -4.27289 -0.246622 0
M  V30 2481 C 235.002 -5.18386 -1.31071 0
M  V30 2482 C 236.302 -5.14916 0.875125 0
M  V30 2483 H 237.996 -2.89233 0.773593 0
M  V30 2484 H 235.542 -1.39073 0.37346 0
M  V30 2485 H 237.495 -3.97044 -1.41188 0
M  V30 2486 H 236.219 -2.76947 -1.73113 0
M  V30 2487 H 234.878 -3.66018 0.206456 0
M  V30 2488 H 234.526 -4.57282 -2.09528 0
M  V30 2489 H 234.226 -5.81378 -0.852839 0
M  V30 2490 H 235.75 -5.83929 -1.78492 0
M  V30 2491 H 237.164 -5.71262 0.482983 0
M  V30 2492 H 235.561 -5.86747 1.25887 0
M  V30 2493 H 236.631 -4.53242 1.72335 0
M  V30 2494 N 237.974 -0.419461 -1.51915 0
M  V30 2495 C 238.904 0.391813 -2.30189 0
M  V30 2496 C 239.885 1.03699 -1.34836 0
M  V30 2497 O 241.07 1.04403 -1.63748 0
M  V30 2498 C 238.2 1.50312 -3.13087 0
M  V30 2499 C 237.154 0.9824 -4.16573 0
M  V30 2500 C 236.48 2.18809 -4.8788 0
M  V30 2501 C 237.78 0.0292356 -5.22292 0
M  V30 2502 H 239.474 -0.26135 -2.98257 0
M  V30 2503 H 237.02 -0.127134 -1.43438 0
M  V30 2504 H 238.973 2.07773 -3.66617 0
M  V30 2505 H 237.697 2.18431 -2.42807 0
M  V30 2506 H 236.356 0.430119 -3.64068 0
M  V30 2507 H 236.004 2.85507 -4.14119 0
M  V30 2508 H 235.704 1.84615 -5.57845 0
M  V30 2509 H 237.228 2.76858 -5.44226 0
M  V30 2510 H 238.642 0.512976 -5.71 0
M  V30 2511 H 237.039 -0.2244 -5.9968 0
M  V30 2512 H 238.109 -0.912931 -4.76228 0
M  V30 2513 N 239.452 1.56882 -0.150215 0
M  V30 2514 C 240.362 2.20494 0.801222 0
M  V30 2515 C 241.378 1.19019 1.26927 0
M  V30 2516 O 242.554 1.51607 1.32579 0
M  V30 2517 C 239.619 2.81659 2.02161 0
M  V30 2518 C 238.68 3.9827 1.60249 0
M  V30 2519 C 237.913 4.56508 2.7647 0
M  V30 2520 O 238.136 4.13627 3.92771 0
M  V30 2521 O 237.07 5.46719 2.51757 0
M  V30 2522 H 240.896 3.02315 0.289717 0
M  V30 2523 H 238.481 1.49202 0.0769684 0
M  V30 2524 H 240.363 3.20522 2.73576 0
M  V30 2525 H 239.038 2.02849 2.52258 0
M  V30 2526 H 237.945 3.64117 0.858477 0
M  V30 2527 H 239.278 4.78609 1.14864 0
M  V30 2528 N 240.93 -0.123565 1.57115 0
M  V30 2529 C 242.207 -0.862196 1.75572 0
M  V30 2530 C 242.587 -1.98279 0.724475 0
M  V30 2531 O 241.935 -2.27102 -0.252407 0
M  V30 2532 C 242.145 -1.38309 3.20424 0
M  V30 2533 C 243.493 -1.83724 3.82793 0
M  V30 2534 O 244.517 -1.47999 3.23998 0
M  V30 2535 O 243.376 -2.49685 4.86127 0
M  V30 2536 H 240.47 -0.409113 0.718718 0
M  V30 2537 H 243.016 -0.107661 1.69358 0
M  V30 2538 H 241.788 -0.578889 3.86994 0
M  V30 2539 H 241.411 -2.20046 3.31158 0
M  V30 2540 N 242.408 -1.52605 -0.393616 0
M  V30 2541 C 243.633 -1.71592 -1.16495 0
M  V30 2542 C 244.058 -0.43133 -1.83088 0
M  V30 2543 O 243.416 0.612523 -1.7064 0
M  V30 2544 C 243.464 -2.86318 -2.19213 0
M  V30 2545 O 242.568 -2.52969 -3.257 0
M  V30 2546 H 241.909 -0.570734 -0.33935 0
M  V30 2547 H 244.439 -1.99377 -0.459324 0
M  V30 2548 H 244.449 -3.1168 -2.63286 0
M  V30 2549 H 243.124 -3.79511 -1.7013 0
M  V30 2550 H 241.701 -2.38332 -2.86797 0
M  V30 2551 N 243.887 0.651787 -1.4349 0
M  V30 2552 C 245.298 1.233 -1.40193 0
M  V30 2553 C 245.649 1.9591 -0.106727 0
M  V30 2554 O 244.774 2.01316 0.793773 0
M  V30 2555 C 245.369 2.24257 -2.53957 0
M  V30 2556 C 243.928 2.77852 -2.5392 0
M  V30 2557 C 243.075 1.52517 -2.3159 0
M  V30 2558 H 246.026 0.443717 -1.52371 0
M  V30 2559 H 246.047 3.0646 -2.25528 0
M  V30 2560 H 245.559 1.71382 -3.4821 0
M  V30 2561 H 243.66 3.34786 -1.63551 0
M  V30 2562 H 243.773 3.25299 -3.51735 0
M  V30 2563 H 242.137 1.79915 -1.80285 0
M  V30 2564 H 242.92 1.01574 -3.27929 0
M  V30 2565 N 245.365 1.30045 0.890287 0
M  V30 2566 C 246.312 1.15976 1.99545 0
M  V30 2567 C 247.282 0.0506202 1.66023 0
M  V30 2568 O 248.467 0.219847 1.89529 0
M  V30 2569 C 245.607 0.852054 3.34416 0
M  V30 2570 C 244.72 2.04255 3.80662 0
M  V30 2571 C 243.855 1.6734 5.04154 0
M  V30 2572 C 242.894 2.82916 5.42794 0
M  V30 2573 N 242.031 2.46333 6.57468 0
M  V30 2574 H 246.871 2.10524 2.10911 0
M  V30 2575 H 244.408 1.04749 1.03276 0
M  V30 2576 H 246.366 0.654296 4.12037 0
M  V30 2577 H 244.996 -0.0565502 3.2275 0
M  V30 2578 H 244.048 2.35172 2.98995 0
M  V30 2579 H 245.36 2.90826 4.05242 0
M  V30 2580 H 244.514 1.43908 5.89386 0
M  V30 2581 H 243.253 0.779308 4.81433 0
M  V30 2582 H 242.258 3.0702 4.56091 0
M  V30 2583 H 243.483 3.73004 5.6749 0
M  V30 2584 H 241.429 1.59423 6.36334 0
M  V30 2585 H 241.346 3.26436 6.81891 0
M  V30 2586 H 242.614 2.26244 7.45945 0
M  V30 2587 N 246.843 -1.10192 1.12674 0
M  V30 2588 C 248.259 -1.34235 0.863317 0
M  V30 2589 C 248.459 -1.95062 -0.505277 0
M  V30 2590 O 247.515 -2.19192 -1.25345 0
M  V30 2591 C 248.828 -2.2616 1.98172 0
M  V30 2592 C 250.376 -2.3969 2.0129 0
M  V30 2593 C 250.851 -3.34946 3.1237 0
M  V30 2594 N 252.342 -3.42515 3.11829 0
M  V30 2595 C 253.077 -4.16199 3.94419 0
M  V30 2596 N 252.573 -4.92747 4.87004 0
M  V30 2597 N 254.366 -4.11843 3.82547 0
M  V30 2598 H 246.517 -0.690798 2.00853 0
M  V30 2599 H 248.78 -0.366774 0.874174 0
M  V30 2600 H 248.486 -1.8868 2.96804 0
M  V30 2601 H 248.36 -3.26488 1.88906 0
M  V30 2602 H 250.747 -2.76438 1.03276 0
M  V30 2603 H 250.828 -1.39169 2.14629 0
M  V30 2604 H 250.472 -2.98923 4.10619 0
M  V30 2605 H 250.402 -4.35353 2.96269 0
M  V30 2606 H 252.893 -2.87926 2.44759 0
M  V30 2607 H 253.206 -5.46376 5.46528 0
M  V30 2608 H 251.551 -4.91862 4.91016 0
M  V30 2609 H 254.742 -3.51136 3.0955 0
M  V30 2610 H 254.915 -4.69007 4.47142 0
M  V30 2611 N 248.321 -0.919034 -1.28029 0
M  V30 2612 C 249.732 -0.600735 -1.76771 0
M  V30 2613 C 250.083 0.884024 -1.75156 0
M  V30 2614 O 249.208 1.69163 -1.34956 0
M  V30 2615 C 249.803 -1.08372 -3.21 0
M  V30 2616 C 248.362 -0.816248 -3.67443 0
M  V30 2617 C 247.509 -1.24742 -2.47658 0
M  V30 2618 H 250.46 -1.09974 -1.14418 0
M  V30 2619 H 250.481 -0.427512 -3.78091 0
M  V30 2620 H 249.993 -2.16437 -3.22144 0
M  V30 2621 H 248.094 0.250968 -3.71754 0
M  V30 2622 H 248.207 -1.4277 -4.57333 0
M  V30 2623 H 246.571 -0.666083 -2.45836 0
M  V30 2624 H 247.354 -2.33653 -2.51518 0
M  V30 2625 N 249.799 1.42003 -0.683588 0
M  V30 2626 C 250.746 2.30798 -0.0107309 0
M  V30 2627 C 251.716 1.4645 0.783688 0
M  V30 2628 O 252.901 1.75263 0.754156 0
M  V30 2629 C 250.041 3.3238 0.928306 0
M  V30 2630 C 249.154 4.31814 0.126776 0
M  V30 2631 C 248.289 5.20468 1.06236 0
M  V30 2632 C 247.328 6.11577 0.253035 0
M  V30 2633 N 246.465 6.92754 1.14179 0
M  V30 2634 H 251.305 2.8778 -0.773727 0
M  V30 2635 H 248.842 1.41745 -0.393283 0
M  V30 2636 H 250.8 3.89813 1.48666 0
M  V30 2637 H 249.43 2.76976 1.65783 0
M  V30 2638 H 248.482 3.76427 -0.54833 0
M  V30 2639 H 249.794 4.96276 -0.501192 0
M  V30 2640 H 248.948 5.82677 1.69035 0
M  V30 2641 H 247.687 4.56204 1.7242 0
M  V30 2642 H 246.692 5.48428 -0.388108 0
M  V30 2643 H 247.917 6.77892 -0.404839 0
M  V30 2644 H 245.863 6.3111 1.78987 0
M  V30 2645 H 245.78 7.53855 0.569111 0
M  V30 2646 H 247.048 7.59441 1.75697 0
M  V30 2647 N 251.277 0.427512 1.51691 0
M  V30 2648 C 252.187 -0.39527 2.31246 0
M  V30 2649 C 253.203 -1.03674 1.39742 0
M  V30 2650 O 254.379 -1.03425 1.72816 0
M  V30 2651 C 251.444 -1.48706 3.13189 0
M  V30 2652 C 250.505 -0.866743 4.20459 0
M  V30 2653 C 249.738 -1.90651 4.98486 0
M  V30 2654 O 249.961 -3.12733 4.77026 0
M  V30 2655 O 248.895 -1.5025 5.82845 0
M  V30 2656 H 252.721 0.253918 3.02637 0
M  V30 2657 H 250.306 0.190274 1.48183 0
M  V30 2658 H 252.188 -2.12047 3.64162 0
M  V30 2659 H 250.863 -2.12051 2.44573 0
M  V30 2660 H 249.77 -0.195544 3.73589 0
M  V30 2661 H 251.103 -0.276934 4.9142 0
M  V30 2662 N 252.755 -1.56801 0.158532 0
M  V30 2663 C 253.718 -2.16138 -0.762705 0
M  V30 2664 C 254.718 -1.1061 -1.16713 0
M  V30 2665 O 255.908 -1.36191 -1.08617 0
M  V30 2666 C 253.04 -2.73386 -2.03649 0
M  V30 2667 H 254.233 -2.98886 -0.246354 0
M  V30 2668 H 251.786 -1.56035 -0.0909744 0
M  V30 2669 H 252.521 -1.94335 -2.59623 0
M  V30 2670 H 252.306 -3.50601 -1.75559 0
M  V30 2671 H 253.796 -3.19065 -2.6942 0
M  V30 2672 N 254.233 0.115231 -1.57178 0
M  V30 2673 C 255.143 1.15994 -2.03918 0
M  V30 2674 C 256.159 1.45103 -0.960268 0
M  V30 2675 O 257.335 1.56144 -1.27204 0
M  V30 2676 C 254.4 2.46568 -2.43732 0
M  V30 2677 C 253.461 2.24822 -3.65723 0
M  V30 2678 C 252.694 3.4917 -4.03629 0
M  V30 2679 O 252.917 4.56623 -3.41835 0
M  V30 2680 O 251.851 3.39949 -4.96708 0
M  V30 2681 H 255.677 0.793019 -2.93164 0
M  V30 2682 H 253.262 0.3263 -1.45793 0
M  V30 2683 H 255.144 3.23492 -2.70057 0
M  V30 2684 H 253.819 2.82726 -1.57631 0
M  V30 2685 H 252.726 1.45744 -3.44542 0
M  V30 2686 H 254.059 1.93566 -4.52541 0
M  V30 2687 N 255.711 1.52812 0.385517 0
M  V30 2688 C 256.659 1.78482 1.49155 0
M  V30 2689 C 257.653 0.652914 1.56312 0
M  V30 2690 O 258.859 0.835464 1.59436 0
M  V30 2691 H 255.234 0.5648 0.496493 0
M  V30 2692 H 257.205 2.71095 1.24699 0
M  V30 2693 C 255.954 1.97378 2.86247 0
M  V30 2694 H 255.277 2.83907 2.81491 0
M  V30 2695 H 256.717 2.19327 3.62866 0
M  V30 2696 C 255.176 0.74728 3.28508 0
M  V30 2697 O 255.706 -0.0736232 4.01633 0
M  V30 2698 N 253.912 0.576396 2.84826 0
M  V30 2699 H 253.459 1.24555 2.25486 0
M  V30 2700 H 253.417 -0.24288 3.1346 0
M  V30 2701 N 257.189 -0.644168 1.43834 0
M  V30 2702 C 258.6 -1.22554 1.40845 0
M  V30 2703 C 258.951 -1.9585 0.117115 0
M  V30 2704 O 258.076 -2.01734 -0.783086 0
M  V30 2705 C 258.671 -2.22907 2.55143 0
M  V30 2706 C 257.23 -2.76501 2.5539 0
M  V30 2707 C 256.377 -1.51287 2.32396 0
M  V30 2708 H 259.328 -0.43563 1.52604 0
M  V30 2709 H 259.349 -3.05259 2.2715 0
M  V30 2710 H 258.861 -1.69533 3.49114 0
M  V30 2711 H 256.962 -3.33914 1.65324 0
M  V30 2712 H 257.075 -3.23429 3.53455 0
M  V30 2713 H 255.439 -1.78957 1.81236 0
M  V30 2714 H 256.222 -0.998336 3.28463 0
M  V30 2715 N 258.668 -1.30515 -0.883378 0
M  V30 2716 C 259.578 -1.18959 -2.02203 0
M  V30 2717 C 260.594 -0.109172 -1.73657 0
M  V30 2718 O 261.77 -0.324413 -1.9877 0
M  V30 2719 C 258.835 -0.883871 -3.35244 0
M  V30 2720 C 257.896 -2.04982 -3.77201 0
M  V30 2721 C 257.129 -1.75859 -5.03894 0
M  V30 2722 O 257.352 -0.687276 -5.66244 0
M  V30 2723 O 256.286 -2.61146 -5.42297 0
M  V30 2724 H 260.112 -2.14616 -2.1488 0
M  V30 2725 H 257.697 -1.10124 -1.0096 0
M  V30 2726 H 259.579 -0.728644 -4.15053 0
M  V30 2727 H 258.254 0.0427798 -3.23672 0
M  V30 2728 H 257.161 -2.26038 -2.9809 0
M  V30 2729 H 258.494 -2.95825 -3.93381 0
M  V30 2730 N 260.146 1.09593 -1.13257 0
M  V30 2731 C 261.394 1.81375 -0.891492 0
M  V30 2732 C 261.715 1.86049 0.584009 0
M  V30 2733 O 260.985 1.34481 1.42449 0
M  V30 2734 H 259.565 0.671708 -0.326828 0
M  V30 2735 H 262.227 1.3256 -1.42877 0
M  V30 2736 H 261.323 2.84612 -1.28071 0
M  V30 2737 N 261.624 0.925811 1.2754 0
M  V30 2738 C 262.534 0.428993 2.30644 0
M  V30 2739 C 263.55 -0.489387 1.66976 0
M  V30 2740 O 264.726 -0.372653 1.97922 0
M  V30 2741 C 261.791 -0.311967 3.45294 0
M  V30 2742 C 260.852 0.641098 4.24486 0
M  V30 2743 C 260.085 -0.0645955 5.33661 0
M  V30 2744 O 260.308 -1.28429 5.55754 0
M  V30 2745 O 259.242 0.606265 5.98839 0
M  V30 2746 H 263.068 1.28504 2.75173 0
M  V30 2747 H 260.653 0.691086 1.32455 0
M  V30 2748 H 262.535 -0.729972 4.15029 0
M  V30 2749 H 261.21 -1.14365 3.02824 0
M  V30 2750 H 260.117 1.10874 3.57292 0
M  V30 2751 H 261.45 1.43995 4.70666 0
M  V30 2752 N 263.102 -1.41638 0.69111 0
M  V30 2753 C 264.012 -2.34588 0.0233487 0
M  V30 2754 C 265.028 -1.55987 -0.770984 0
M  V30 2755 O 266.204 -1.88486 -0.709569 0
M  V30 2756 C 263.269 -3.34684 -0.904851 0
M  V30 2757 C 262.33 -4.29176 -0.103225 0
M  V30 2758 C 261.563 -5.2449 -0.987216 0
M  V30 2759 O 261.786 -5.2514 -2.22674 0
M  V30 2760 O 260.72 -6.00295 -0.439281 0
M  V30 2761 H 264.546 -2.93261 0.789416 0
M  V30 2762 H 262.131 -1.42417 0.45142 0
M  V30 2763 H 264.013 -3.96133 -1.43724 0
M  V30 2764 H 262.688 -2.78461 -1.65049 0
M  V30 2765 H 261.595 -3.71089 0.473655 0
M  V30 2766 H 262.928 -4.88484 0.60365 0
M  V30 2767 N 264.58 -0.43555 -1.51462 0
M  V30 2768 C 265.527 0.376797 -2.27703 0
M  V30 2769 C 266.497 1.01838 -1.31219 0
M  V30 2770 O 267.682 1.03762 -1.60119 0
M  V30 2771 C 264.822 1.47301 -3.12084 0
M  V30 2772 C 263.935 0.849744 -4.2356 0
M  V30 2773 C 263.07 1.92086 -4.95254 0
M  V30 2774 C 262.109 1.27593 -5.98654 0
M  V30 2775 N 261.246 2.28833 -6.63762 0
M  V30 2776 H 266.086 -0.279734 -2.96684 0
M  V30 2777 H 263.623 -0.149795 -1.46335 0
M  V30 2778 H 265.581 2.11984 -3.59331 0
M  V30 2779 H 264.211 2.0992 -2.45221 0
M  V30 2780 H 263.263 0.0912529 -3.80291 0
M  V30 2781 H 264.575 0.338878 -4.97648 0
M  V30 2782 H 263.729 2.64435 -5.46039 0
M  V30 2783 H 262.468 2.46545 -4.20793 0
M  V30 2784 H 261.473 0.537893 -5.47162 0
M  V30 2785 H 262.698 0.738693 -6.7507 0
M  V30 2786 H 260.644 2.82375 -5.92115 0
M  V30 2787 H 260.561 1.82632 -7.33608 0
M  V30 2788 H 261.829 3.00671 -7.19178 0
M  V30 2789 N 266.058 1.56714 -0.166846 0
M  V30 2790 C 266.968 2.21331 0.777791 0
M  V30 2791 C 267.984 1.20358 1.25658 0
M  V30 2792 O 269.16 1.53005 1.30964 0
M  V30 2793 C 266.225 2.83787 1.99163 0
M  V30 2794 C 265.286 3.99947 1.56016 0
M  V30 2795 C 264.519 4.59415 2.71613 0
M  V30 2796 O 264.742 4.17769 3.88362 0
M  V30 2797 O 263.676 5.49359 2.45945 0
M  V30 2798 H 267.502 3.02605 0.257636 0
M  V30 2799 H 265.087 1.49275 0.0611393 0
M  V30 2800 H 266.969 3.23405 2.70161 0
M  V30 2801 H 265.644 2.05513 2.50092 0
M  V30 2802 H 264.551 3.65007 0.819809 0
M  V30 2803 H 265.884 4.79801 1.09782 0
M  V30 2804 N 267.536 -0.106894 1.57237 0
M  V30 2805 C 268.499 -1.11466 2.0027 0
M  V30 2806 C 269.499 -1.33623 0.894519 0
M  V30 2807 O 270.689 -1.29935 1.16028 0
M  V30 2808 C 267.821 -2.46646 2.35327 0
M  V30 2809 H 269.014 -0.744516 2.90512 0
M  V30 2810 H 266.567 -0.351576 1.52295 0
M  V30 2811 H 267.302 -2.88558 1.48003 0
M  V30 2812 H 267.087 -2.31915 3.16161 0
M  V30 2813 H 268.577 -3.19151 2.69318 0
M  V30 2814 N 269.014 -1.53014 -0.377408 0
M  V30 2815 C 269.977 -1.77957 -1.44444 0
M  V30 2816 C 270.977 -0.649763 -1.47087 0
M  V30 2817 O 272.167 -0.917897 -1.48055 0
M  V30 2818 C 269.299 -1.89089 -2.83651 0
M  V30 2819 H 270.492 -2.73243 -1.23606 0
M  V30 2820 H 268.045 -1.43912 -0.609844 0
M  V30 2821 H 268.78 -0.958293 -3.09818 0
M  V30 2822 H 268.565 -2.71254 -2.83132 0
M  V30 2823 H 270.055 -2.1002 -3.60945 0
M  V30 2824 N 270.492 0.636531 -1.44174 0
M  V30 2825 C 271.72 1.42353 -1.50144 0
M  V30 2826 C 272.135 1.88389 -0.124575 0
M  V30 2827 O 271.492 1.6051 0.868489 0
M  V30 2828 C 271.543 2.64744 -2.46156 0
M  V30 2829 O 271.264 2.20629 -3.7849 0
M  V30 2830 C 272.765 3.57929 -2.61537 0
M  V30 2831 H 269.985 0.436752 -0.5094 0
M  V30 2832 H 272.529 0.778933 -1.89084 0
M  V30 2833 H 270.684 3.25307 -2.10366 0
M  V30 2834 H 271.098 2.99938 -4.30276 0
M  V30 2835 H 272.572 4.40428 -3.32757 0
M  V30 2836 H 273.049 4.06382 -1.66585 0
M  V30 2837 H 273.655 3.03238 -2.98206 0
M  V30 2838 N 271.97 1.30982 0.876444 0
M  V30 2839 C 272.9 1.20668 1.99903 0
M  V30 2840 C 273.881 0.095354 1.69833 0
M  V30 2841 O 275.066 0.27885 1.92188 0
M  V30 2842 C 272.196 0.90655 3.3526 0
M  V30 2843 C 271.15 1.97675 3.79617 0
M  V30 2844 C 270.476 1.52943 5.1236 0
M  V30 2845 C 271.776 3.389 3.97422 0
M  V30 2846 H 273.47 2.14586 2.0879 0
M  V30 2847 H 271.016 1.03308 1.00317 0
M  V30 2848 H 272.969 0.821025 4.13324 0
M  V30 2849 H 271.693 -0.0682969 3.26529 0
M  V30 2850 H 270.352 2.05205 3.03787 0
M  V30 2851 H 270 0.54262 5.00065 0
M  V30 2852 H 269.7 2.24532 5.43009 0
M  V30 2853 H 271.224 1.45786 5.92941 0
M  V30 2854 H 272.638 3.34081 4.659 0
M  V30 2855 H 271.035 4.0865 4.3946 0
M  V30 2856 H 272.105 3.80163 3.01006 0
M  V30 2857 N 273.449 -1.08991 1.13837 0
M  V30 2858 C 274.359 -2.19301 0.833333 0
M  V30 2859 C 275.375 -1.73026 -0.183847 0
M  V30 2860 O 276.551 -2.01395 -0.0138092 0
M  V30 2861 C 273.616 -3.45323 0.308651 0
M  V30 2862 C 272.677 -4.06255 1.38764 0
M  V30 2863 C 271.91 -5.26262 0.887896 0
M  V30 2864 O 272.133 -5.69747 -0.27287 0
M  V30 2865 O 271.067 -5.78435 1.66421 0
M  V30 2866 H 274.893 -2.47854 1.75506 0
M  V30 2867 H 272.478 -1.18012 0.916166 0
M  V30 2868 H 274.36 -4.21394 0.0216739 0
M  V30 2869 H 273.035 -3.18362 -0.585431 0
M  V30 2870 H 271.942 -3.318 1.72799 0
M  V30 2871 H 273.275 -4.37452 2.25602 0
M  V30 2872 N 274.927 -0.932562 -1.27047 0
M  V30 2873 C 276.173 -0.576412 -1.94436 0
M  V30 2874 C 276.506 0.880891 -1.73072 0
M  V30 2875 O 275.781 1.62905 -1.06264 0
M  V30 2876 C 276.064 -0.909031 -3.48437 0
M  V30 2877 C 275.917 -2.42044 -3.79123 0
M  V30 2878 C 277.236 -0.418341 -4.38107 0
M  V30 2879 H 274.355 -0.210888 -0.706184 0
M  V30 2880 H 276.997 -1.16522 -1.50075 0
M  V30 2881 H 275.147 -0.407947 -3.86352 0
M  V30 2882 H 276.819 -2.99359 -3.50973 0
M  V30 2883 H 275.062 -2.86758 -3.25503 0
M  V30 2884 H 275.733 -2.6037 -4.86736 0
M  V30 2885 H 278.209 -0.847856 -4.0737 0
M  V30 2886 H 277.085 -0.679981 -5.44672 0
M  V30 2887 H 277.346 0.681642 -4.36814 0
M  V30 2888 N 276.405 1.4127 -0.698611 0
M  V30 2889 C 277.315 2.34573 -0.0357891 0
M  V30 2890 C 278.331 1.56393 0.762701 0
M  V30 2891 O 279.507 1.8886 0.699564 0
M  V30 2892 C 276.572 3.35159 0.887089 0
M  V30 2893 C 275.633 4.29225 0.0804634 0
M  V30 2894 C 274.866 5.25006 0.959387 0
M  V30 2895 O 275.089 5.26314 2.19886 0
M  V30 2896 O 274.023 6.00519 0.407439 0
M  V30 2897 H 277.849 2.92838 -0.804957 0
M  V30 2898 H 275.434 1.42175 -0.458966 0
M  V30 2899 H 277.316 3.9689 1.41621 0
M  V30 2900 H 275.991 2.79333 1.6357 0
M  V30 2901 H 274.898 3.70833 -0.493328 0
M  V30 2902 H 276.231 4.88157 -0.629547 0
M  V30 2903 N 277.883 0.443576 1.51229 0
M  V30 2904 C 279.299 0.0962001 1.5931 0
M  V30 2905 C 279.499 -1.39501 1.45402 0
M  V30 2906 O 278.555 -2.16557 1.29843 0
M  V30 2907 C 279.868 0.621875 2.94199 0
M  V30 2908 C 281.416 0.582865 3.07525 0
M  V30 2909 C 281.891 1.08562 4.44948 0
M  V30 2910 N 283.382 1.04387 4.51284 0
M  V30 2911 C 284.117 1.40368 5.55954 0
M  V30 2912 N 283.613 1.83664 6.68011 0
M  V30 2913 N 285.406 1.32145 5.46346 0
M  V30 2914 H 277.557 1.41376 1.58514 0
M  V30 2915 H 279.82 0.582965 0.747567 0
M  V30 2916 H 279.526 1.66546 3.09767 0
M  V30 2917 H 279.4 0.0502125 3.77167 0
M  V30 2918 H 281.787 -0.451749 2.91622 0
M  V30 2919 H 281.868 1.191 2.26382 0
M  V30 2920 H 281.512 2.11873 4.61598 0
M  V30 2921 H 281.442 0.453956 5.2464 0
M  V30 2922 H 283.933 0.725986 3.70861 0
M  V30 2923 H 284.246 2.0934 7.43906 0
M  V30 2924 H 282.591 1.87596 6.69203 0
M  V30 2925 H 285.782 0.981808 4.57688 0
M  V30 2926 H 285.955 1.60514 6.27805 0
M  V30 2927 N 279.361 -1.56624 0.175154 0
M  V30 2928 C 280.772 -1.83561 -0.340916 0
M  V30 2929 C 281.123 -1.09511 -1.62794 0
M  V30 2930 O 280.248 -0.349389 -2.13561 0
M  V30 2931 C 280.843 -3.32979 -0.625313 0
M  V30 2932 C 279.402 -3.60399 -1.08581 0
M  V30 2933 C 278.549 -2.77024 -0.123722 0
M  V30 2934 H 281.5 -1.53593 0.399344 0
M  V30 2935 H 281.521 -3.50666 -1.47694 0
M  V30 2936 H 281.033 -3.86847 0.311575 0
M  V30 2937 H 279.134 -3.11945 -2.03767 0
M  V30 2938 H 279.247 -4.68711 -0.992317 0
M  V30 2939 H 277.611 -2.46993 -0.621821 0
M  V30 2940 H 278.394 -3.33674 0.807256 0
M  V30 2941 N 280.839 0.0985539 -1.57292 0
M  V30 2942 C 281.769 1.12064 -2.04851 0
M  V30 2943 C 282.75 1.41981 -0.936767 0
M  V30 2944 O 283.935 1.52071 -1.20781 0
M  V30 2945 C 281.065 2.44144 -2.47004 0
M  V30 2946 C 280.019 2.28643 -3.6181 0
M  V30 2947 C 279.345 3.65869 -3.89929 0
M  V30 2948 C 280.645 1.72986 -4.92822 0
M  V30 2949 H 282.339 0.724979 -2.9049 0
M  V30 2950 H 279.885 0.34729 -1.39749 0
M  V30 2951 H 281.838 3.15914 -2.78884 0
M  V30 2952 H 280.562 2.85639 -1.5836 0
M  V30 2953 H 279.221 1.59318 -3.30172 0
M  V30 2954 H 278.869 4.04885 -2.98458 0
M  V30 2955 H 278.569 3.56344 -4.67218 0
M  V30 2956 H 280.093 4.39112 -4.2428 0
M  V30 2957 H 281.507 2.34593 -5.23105 0
M  V30 2958 H 279.904 1.74229 -5.74251 0
M  V30 2959 H 280.974 0.689007 -4.7998 0
M  V30 2960 N 282.317 1.53212 0.369288 0
M  V30 2961 C 283.728 1.60943 0.946276 0
M  V30 2962 C 284.079 0.47452 1.90375 0
M  V30 2963 O 283.204 -0.399597 2.12679 0
M  V30 2964 C 283.799 2.91715 1.72302 0
M  V30 2965 C 282.358 3.01792 2.24941 0
M  V30 2966 C 281.505 2.56211 1.06072 0
M  V30 2967 H 284.456 1.58007 0.148198 0
M  V30 2968 H 284.477 2.79309 2.58393 0
M  V30 2969 H 283.989 3.74295 1.0259 0
M  V30 2970 H 282.09 2.23791 2.97906 0
M  V30 2971 H 282.203 4.06803 2.53077 0
M  V30 2972 H 280.567 2.10998 1.4266 0
M  V30 2973 H 281.35 3.41206 0.378639 0
M  V30 2974 N 283.795 -0.628877 1.44509 0
M  V30 2975 C 284.728 -1.75367 1.46019 0
M  V30 2976 C 285.706 -1.59444 0.318787 0
M  V30 2977 O 286.89 -1.81297 0.516099 0
M  V30 2978 C 284.017 -3.12965 1.29501 0
M  V30 2979 C 283.063 -3.47532 2.47233 0
M  V30 2980 S 283.896 -3.44758 4.09758 0
M  V30 2981 C 285.052 -4.84973 3.95667 0
M  V30 2982 H 285.285 -1.7382 2.41193 0
M  V30 2983 H 282.818 -0.803686 1.31834 0
M  V30 2984 H 284.776 -3.92367 1.20658 0
M  V30 2985 H 283.437 -3.12049 0.358341 0
M  V30 2986 H 282.63 -4.47664 2.31544 0
M  V30 2987 H 282.232 -2.75598 2.52828 0
M  V30 2988 H 284.524 -5.74255 3.59496 0
M  V30 2989 H 285.467 -5.05716 4.95638 0
M  V30 2990 H 285.875 -4.59653 3.27688 0
M  V30 2991 N 285.273 -1.31445 -0.869486 0
M  V30 2992 C 286.183 -1.21097 -2.0093 0
M  V30 2993 C 287.199 -0.127584 -1.73532 0
M  V30 2994 O 288.375 -0.345477 -1.98415 0
M  V30 2995 C 285.44 -0.919378 -3.34288 0
M  V30 2996 C 284.501 -2.08971 -3.75006 0
M  V30 2997 C 283.734 -1.81194 -5.02001 0
M  V30 2998 O 283.957 -0.747296 -5.65484 0
M  V30 2999 O 282.891 -2.66883 -5.39497 0
M  V30 3000 H 286.717 -2.16883 -2.12592 0
M  V30 3001 H 284.302 -1.11189 -0.997868 0
M  V30 3002 H 286.184 -0.772625 -4.14257 0
M  V30 3003 H 284.859 0.00844772 -3.23699 0
M  V30 3004 H 283.766 -2.29187 -2.95676 0
M  V30 3005 H 285.099 -2.9998 -3.90221 0
M  V30 3006 N 286.751 1.08385 -1.14413 0
M  V30 3007 C 287.997 1.81044 -0.913834 0
M  V30 3008 C 288.33 1.86004 0.558209 0
M  V30 3009 O 287.605 1.33606 1.4135 0
M  V30 3010 C 287.888 3.26648 -1.51569 0
M  V30 3011 C 287.741 3.29895 -3.0576 0
M  V30 3012 C 289.06 4.23629 -1.19273 0
M  V30 3013 H 286.179 0.65727 -0.333414 0
M  V30 3014 H 288.821 1.26896 -1.41412 0
M  V30 3015 H 286.971 3.72889 -1.09023 0
M  V30 3016 H 288.643 2.91977 -3.57137 0
M  V30 3017 H 286.886 2.69163 -3.40197 0
M  V30 3018 H 287.557 4.32516 -3.42977 0
M  V30 3019 H 290.033 3.85727 -1.56057 0
M  V30 3020 H 288.909 5.23822 -1.64017 0
M  V30 3021 H 289.17 4.41968 -0.108068 0
M  V30 3022 N 288.23 0.939286 1.26551 0
M  V30 3023 C 289.14 0.453432 2.30176 0
M  V30 3024 C 290.156 -0.471649 1.67486 0
M  V30 3025 O 291.332 -0.35164 1.98306 0
M  V30 3026 C 288.397 -0.275326 3.45605 0
M  V30 3027 C 287.458 0.686084 4.23782 0
M  V30 3028 C 286.691 -0.00798994 5.33699 0
M  V30 3029 O 286.914 -1.22528 5.57085 0
M  V30 3030 O 285.848 0.669746 5.98162 0
M  V30 3031 H 289.674 1.31416 2.73795 0
M  V30 3032 H 287.259 0.705095 1.31715 0
M  V30 3033 H 289.141 -0.685911 4.1578 0
M  V30 3034 H 287.816 -1.11147 3.0402 0
M  V30 3035 H 286.723 1.14658 3.56096 0
M  V30 3036 H 288.056 1.48979 4.69112 0
M  V30 3037 N 289.708 -1.40897 0.706093 0
M  V30 3038 C 290.655 -2.30751 0.0474474 0
M  V30 3039 C 291.625 -1.47678 -0.76029 0
M  V30 3040 O 292.81 -1.76441 -0.726177 0
M  V30 3041 C 289.95 -3.33815 -0.875309 0
M  V30 3042 C 289.063 -4.31961 -0.0580623 0
M  V30 3043 C 288.198 -5.22093 -0.979425 0
M  V30 3044 C 287.237 -6.11902 -0.155706 0
M  V30 3045 N 286.374 -6.94482 -1.03144 0
M  V30 3046 H 291.214 -2.86513 0.819413 0
M  V30 3047 H 288.751 -1.41102 0.415783 0
M  V30 3048 H 290.709 -3.92129 -1.42446 0
M  V30 3049 H 289.339 -2.79579 -1.61356 0
M  V30 3050 H 288.391 -3.75507 0.608147 0
M  V30 3051 H 289.703 -4.95415 0.580082 0
M  V30 3052 H 288.857 -5.85292 -1.59744 0
M  V30 3053 H 287.596 -4.5889 -1.65141 0
M  V30 3054 H 286.601 -5.47742 0.475309 0
M  V30 3055 H 287.826 -6.77162 0.512635 0
M  V30 3056 H 285.772 -6.33877 -1.68924 0
M  V30 3057 H 285.689 -7.54665 -0.449108 0
M  V30 3058 H 286.957 -7.6214 -1.63593 0
M  V30 3059 N 291.186 -0.45159 -1.50991 0
M  V30 3060 C 292.134 0.366864 -2.29689 0
M  V30 3061 C 293.128 1.00809 -1.36139 0
M  V30 3062 O 294.334 0.941427 -1.53418 0
M  V30 3063 H 290.709 0.137133 -0.739391 0
M  V30 3064 H 292.68 -0.317538 -2.96706 0
M  V30 3065 C 291.429 1.44751 -3.16137 0
M  V30 3066 H 290.752 0.963473 -3.88017 0
M  V30 3067 H 292.192 1.99315 -3.74232 0
M  V30 3068 C 290.651 2.43869 -2.32442 0
M  V30 3069 O 291.181 3.4872 -1.99392 0
M  V30 3070 N 289.387 2.15105 -1.95392 0
M  V30 3071 H 288.934 1.29866 -2.22469 0
M  V30 3072 H 288.892 2.81661 -1.39693 0
M  V30 3073 N 292.664 1.56529 -0.183458 0
M  V30 3074 C 293.889 2.02064 0.467428 0
M  V30 3075 C 294.314 1.06282 1.55196 0
M  V30 3076 O 293.672 0.0443565 1.81246 0
M  V30 3077 C 293.72 3.46122 1.01153 0
M  V30 3078 O 292.824 3.53437 2.12499 0
M  V30 3079 H 292.165 0.654726 0.110588 0
M  V30 3080 H 294.695 2.02521 -0.290917 0
M  V30 3081 H 294.705 3.85676 1.33108 0
M  V30 3082 H 293.38 4.15331 0.217533 0
M  V30 3083 H 291.957 3.2575 1.81497 0
M  V30 3084 N 294.142 -0.090211 1.57342 0
M  V30 3085 C 295.37 -0.806224 1.90546 0
M  V30 3086 C 295.785 -1.72041 0.777644 0
M  V30 3087 O 295.142 -1.80778 -0.250103 0
M  V30 3088 C 295.193 -1.61546 3.23396 0
M  V30 3089 O 294.914 -0.738043 4.31839 0
M  V30 3090 C 296.415 -2.4341 3.70495 0
M  V30 3091 H 293.635 -0.230256 0.630257 0
M  V30 3092 H 296.179 -0.0659843 2.04394 0
M  V30 3093 H 294.334 -2.30816 3.11131 0
M  V30 3094 H 294.748 -1.29901 5.08159 0
M  V30 3095 H 296.222 -2.95676 4.66133 0
M  V30 3096 H 296.699 -3.22098 2.98579 0
M  V30 3097 H 297.305 -1.79331 3.85643 0
M  V30 3098 N 295.62 -1.53406 -0.361157 0
M  V30 3099 C 297.031 -1.61442 -0.937728 0
M  V30 3100 C 297.382 -0.48461 -1.90121 0
M  V30 3101 O 296.507 0.388312 -2.12888 0
M  V30 3102 C 297.102 -2.92624 -1.70753 0
M  V30 3103 C 295.661 -3.02981 -2.23337 0
M  V30 3104 C 294.808 -2.5677 -1.04712 0
M  V30 3105 H 297.759 -1.58083 -0.139816 0
M  V30 3106 H 297.78 -2.80675 -2.56908 0
M  V30 3107 H 297.292 -3.74834 -1.00604 0
M  V30 3108 H 295.393 -2.25368 -2.96715 0
M  V30 3109 H 295.506 -4.0814 -2.50916 0
M  V30 3110 H 293.87 -2.11752 -1.41539 0
M  V30 3111 H 294.653 -3.41402 -0.360539 0
M  V30 3112 N 297.098 0.621204 -1.44841 0
M  V30 3113 C 298.323 1.41244 -1.51871 0
M  V30 3114 C 298.748 1.87519 -0.147764 0
M  V30 3115 O 298.106 1.59334 0.865 0
M  V30 3116 C 298.154 2.60221 -2.49634 0
M  V30 3117 O 297.258 3.60395 -2.00473 0
M  V30 3118 H 296.599 0.42223 -0.512463 0
M  V30 3119 H 299.129 0.757305 -1.90069 0
M  V30 3120 H 299.139 3.0764 -2.67996 0
M  V30 3121 H 297.814 2.25887 -3.4921 0
M  V30 3122 H 296.391 3.19717 -1.91925 0
M  V30 3123 N 298.576 1.31904 0.862503 0
M  V30 3124 C 299.486 1.22161 2.00285 0
M  V30 3125 C 300.502 0.136785 1.73462 0
M  V30 3126 O 301.678 0.355994 1.98229 0
M  V30 3127 C 298.743 0.937093 3.33796 0
M  V30 3128 C 297.804 2.10957 3.73893 0
M  V30 3129 C 297.037 1.83853 5.01033 0
M  V30 3130 O 297.26 0.777274 5.65079 0
M  V30 3131 O 296.194 2.69741 5.38074 0
M  V30 3132 H 300.02 2.18008 2.11439 0
M  V30 3133 H 297.605 1.11716 0.991957 0
M  V30 3134 H 299.487 0.794583 4.13841 0
M  V30 3135 H 298.162 0.00871894 3.23699 0
M  V30 3136 H 297.069 2.30752 2.94456 0
M  V30 3137 H 298.402 3.02046 3.88625 0
M  V30 3138 N 300.054 -1.07777 1.14986 0
M  V30 3139 C 301.465 -1.61766 0.932127 0
M  V30 3140 C 301.816 -1.88974 -0.527581 0
M  V30 3141 O 300.941 -1.65198 -1.39781 0
M  V30 3142 C 301.536 -2.93891 1.68563 0
M  V30 3143 C 300.095 -3.44639 1.5133 0
M  V30 3144 C 299.242 -2.18767 1.704 0
M  V30 3145 H 302.193 -0.909201 1.30074 0
M  V30 3146 H 302.214 -3.62623 1.15259 0
M  V30 3147 H 301.726 -2.74057 2.74799 0
M  V30 3148 H 299.827 -3.69564 0.474702 0
M  V30 3149 H 299.94 -4.20966 2.28746 0
M  V30 3150 H 298.304 -2.28253 1.13016 0
M  V30 3151 H 299.087 -2.01433 2.77992 0
M  V30 3152 N 301.532 -0.945985 -1.26051 0
M  V30 3153 C 302.78 -0.594941 -1.93145 0
M  V30 3154 C 303.101 0.86953 -1.7454 0
M  V30 3155 O 302.371 1.61838 -1.10387 0
M  V30 3156 H 300.951 -0.217044 -0.714773 0
M  V30 3157 H 303.613 -1.20235 -1.53393 0
M  V30 3158 H 302.709 -0.816835 -3.01221 0
M  V30 3159 N 303.011 1.40521 -0.713556 0
M  V30 3160 C 304.236 2.05759 -0.26035 0
M  V30 3161 C 304.661 1.53403 1.08854 0
M  V30 3162 O 304.019 0.668535 1.68524 0
M  V30 3163 C 304.067 3.59745 -0.248122 0
M  V30 3164 O 303.171 4.05123 0.77131 0
M  V30 3165 H 302.512 0.652564 -0.122703 0
M  V30 3166 H 305.042 1.79958 -0.973467 0
M  V30 3167 H 305.052 4.07911 -0.0851129 0
M  V30 3168 H 303.727 3.97218 -1.2325 0
M  V30 3169 H 302.304 3.68422 0.57619 0
M  V30 3170 N 304.489 0.459591 1.5075 0
M  V30 3171 C 305.737 -0.0991532 2.01857 0
M  V30 3172 C 306.058 -1.41247 1.34441 0
M  V30 3173 O 305.328 -1.89775 0.486022 0
M  V30 3174 H 303.908 -0.039633 0.745948 0
M  V30 3175 H 306.57 0.607387 1.85194 0
M  V30 3176 H 305.666 -0.258998 3.11023 0
M  V30 3177 N 305.967 -1.56429 0.191757 0
M  V30 3178 C 307.383 -1.58754 -0.164137 0
M  V30 3179 C 307.583 -1.20782 -1.61288 0
M  V30 3180 O 306.639 -0.928999 -2.34789 0
M  V30 3181 C 307.952 -3.00396 0.135195 0
M  V30 3182 C 309.5 -3.1291 0.0750351 0
M  V30 3183 C 309.975 -4.56679 0.347632 0
M  V30 3184 N 311.466 -4.62252 0.296131 0
M  V30 3185 C 312.201 -5.71379 0.480948 0
M  V30 3186 N 311.697 -6.88986 0.725933 0
M  V30 3187 N 313.49 -5.60563 0.415435 0
M  V30 3188 H 305.641 -1.79393 1.13718 0
M  V30 3189 H 307.904 -0.832414 0.453643 0
M  V30 3190 H 307.61 -3.32726 1.13958 0
M  V30 3191 H 307.484 -3.72963 -0.563773 0
M  V30 3192 H 309.871 -2.80394 -0.919948 0
M  V30 3193 H 309.952 -2.42736 0.807029 0
M  V30 3194 H 309.596 -4.89907 1.33992 0
M  V30 3195 H 309.526 -5.25039 -0.405212 0
M  V30 3196 H 312.017 -3.7773 0.113259 0
M  V30 3197 H 312.33 -7.68046 0.855857 0
M  V30 3198 H 310.675 -6.90801 0.762788 0
M  V30 3199 H 313.866 -4.67561 0.224486 0
M  V30 3200 H 314.039 -6.45551 0.562889 0
M  V30 3201 N 307.445 0.0818655 -1.57387 0
M  V30 3202 C 308.693 0.781368 -1.86384 0
M  V30 3203 C 309.014 1.78618 -0.782342 0
M  V30 3204 O 308.284 1.94976 0.190061 0
M  V30 3205 H 306.864 0.291562 -0.687751 0
M  V30 3206 H 309.526 0.060348 -1.94807 0
M  V30 3207 H 308.622 1.3038 -2.83562 0
M  V30 3208 N 308.923 1.53595 0.353017 0
M  V30 3209 C 310.334 1.61937 0.929153 0
M  V30 3210 C 310.685 0.494686 1.89861 0
M  V30 3211 O 309.81 -0.377017 2.1309 0
M  V30 3212 C 310.405 2.93526 1.69199 0
M  V30 3213 C 308.964 3.04161 2.21727 0
M  V30 3214 C 308.111 2.57322 1.03348 0
M  V30 3215 H 311.062 1.58155 0.131431 0
M  V30 3216 H 311.083 2.82034 2.55416 0
M  V30 3217 H 310.595 3.75362 0.986144 0
M  V30 3218 H 308.696 2.26938 2.95516 0
M  V30 3219 H 308.809 4.09465 2.48748 0
M  V30 3220 H 307.173 2.12499 1.40414 0
M  V30 3221 H 307.956 3.41588 0.342428 0
M  V30 3222 N 310.401 -0.613514 1.45168 0
M  V30 3223 C 311.812 -1.19539 1.43413 0
M  V30 3224 C 312.163 -1.95558 0.158632 0
M  V30 3225 O 311.288 -2.0335 -0.740119 0
M  V30 3226 C 311.883 -2.17445 2.59813 0
M  V30 3227 C 310.442 -2.71022 2.61197 0
M  V30 3228 C 309.589 -1.46323 2.35552 0
M  V30 3229 H 312.54 -0.403163 1.53494 0
M  V30 3230 H 312.561 -3.00373 2.33574 0
M  V30 3231 H 312.073 -1.62089 3.52631 0
M  V30 3232 H 310.174 -3.30332 1.7237 0
M  V30 3233 H 310.287 -3.15859 3.60236 0
M  V30 3234 H 308.651 -1.75072 1.84992 0
M  V30 3235 H 309.434 -0.92844 3.30507 0
M  V30 3236 N 311.879 -1.3236 -0.855495 0
M  V30 3237 C 312.811 -1.17052 -1.97057 0
M  V30 3238 C 313.824 -0.10574 -1.62456 0
M  V30 3239 O 315.013 -0.354619 -1.74942 0
M  V30 3240 C 312.113 -0.769305 -3.30053 0
M  V30 3241 C 311.286 -1.9222 -3.929 0
M  V30 3242 C 310.345 -1.50466 -5.04228 0
M  V30 3243 O 309.371 -2.21655 -5.24269 0
M  V30 3244 N 310.573 -0.400209 -5.79119 0
M  V30 3245 H 313.338 -2.13103 -2.1073 0
M  V30 3246 H 310.899 -1.24885 -1.0303 0
M  V30 3247 H 312.891 -0.472407 -4.01933 0
M  V30 3248 H 311.461 0.100025 -3.1244 0
M  V30 3249 H 310.681 -2.38563 -3.13817 0
M  V30 3250 H 311.969 -2.69403 -4.31624 0
M  V30 3251 H 311.367 0.192319 -5.65373 0
M  V30 3252 H 309.924 -0.162912 -6.51596 0
M  V30 3253 N 313.357 1.07166 -1.15556 0
M  V30 3254 C 314.267 2.17947 -0.868116 0
M  V30 3255 C 315.283 1.73297 0.156297 0
M  V30 3256 O 316.459 2.01392 -0.0182327 0
M  V30 3257 C 313.524 3.44789 -0.36355 0
M  V30 3258 C 312.585 4.03996 -1.45209 0
M  V30 3259 C 311.818 5.24783 -0.971508 0
M  V30 3260 O 312.041 5.70109 0.182194 0
M  V30 3261 O 310.975 5.75715 -1.75603 0
M  V30 3262 H 314.801 2.4503 -1.79427 0
M  V30 3263 H 312.386 1.16539 -0.934824 0
M  V30 3264 H 314.268 4.21307 -0.0887113 0
M  V30 3265 H 312.943 3.19253 0.534708 0
M  V30 3266 H 311.85 3.29009 -1.78056 0
M  V30 3267 H 313.183 4.33808 -2.32533 0
M  V30 3268 N 314.835 0.952656 1.25548 0
M  V30 3269 C 315.745 0.47782 2.29682 0
M  V30 3270 C 316.761 -0.453859 1.67977 0
M  V30 3271 O 317.937 -0.330587 1.98668 0
M  V30 3272 C 315.002 -0.238655 3.45878 0
M  V30 3273 C 314.063 0.730994 4.23031 0
M  V30 3274 C 313.296 0.0486165 5.33678 0
M  V30 3275 O 313.519 -1.16612 5.58353 0
M  V30 3276 O 312.453 0.733152 5.97418 0
M  V30 3277 H 316.279 1.34312 2.72386 0
M  V30 3278 H 313.864 0.719026 1.30959 0
M  V30 3279 H 315.746 -0.641774 4.16484 0
M  V30 3280 H 314.421 -1.07916 3.05181 0
M  V30 3281 H 313.328 1.18428 3.5486 0
M  V30 3282 H 314.661 1.53946 4.67506 0
M  V30 3283 N 316.313 -1.40141 0.720998 0
M  V30 3284 C 317.223 -2.34486 0.0731031 0
M  V30 3285 C 318.239 -1.57587 -0.737723 0
M  V30 3286 O 319.415 -1.89949 -0.669429 0
M  V30 3287 C 316.48 -3.36528 -0.833656 0
M  V30 3288 C 315.541 -4.29298 -0.0121673 0
M  V30 3289 C 314.774 -5.26466 -0.875742 0
M  V30 3290 O 314.997 -5.29745 -2.11485 0
M  V30 3291 O 313.931 -6.01092 -0.31185 0
M  V30 3292 H 317.757 -2.9152 0.851444 0
M  V30 3293 H 315.342 -1.41427 0.481527 0
M  V30 3294 H 317.224 -3.99093 -1.35289 0
M  V30 3295 H 315.899 -2.81899 -1.59105 0
M  V30 3296 H 314.806 -3.70001 0.552262 0
M  V30 3297 H 316.139 -4.87094 0.707129 0
M  V30 3298 N 317.792 -0.46758 -1.50504 0
M  V30 3299 C 318.702 0.33382 -2.32213 0
M  V30 3300 C 319.718 0.999323 -1.42441 0
M  V30 3301 O 320.894 0.988068 -1.75497 0
M  V30 3302 C 317.959 1.4035 -3.17022 0
M  V30 3303 C 317.02 0.754961 -4.2261 0
M  V30 3304 C 316.253 1.77367 -5.03365 0
M  V30 3305 O 316.476 2.99976 -4.8515 0
M  V30 3306 O 315.41 1.34744 -5.86624 0
M  V30 3307 H 319.236 -0.334067 -3.01857 0
M  V30 3308 H 316.821 -0.229496 -1.47627 0
M  V30 3309 H 318.703 2.02318 -3.69656 0
M  V30 3310 H 317.378 2.05492 -2.5011 0
M  V30 3311 H 316.285 0.0964244 -3.73976 0
M  V30 3312 H 317.618 0.146545 -4.91982 0
M  V30 3313 N 319.27 1.56325 -0.20005 0
M  V30 3314 C 320.18 2.22931 0.730668 0
M  V30 3315 C 321.196 1.22997 1.23076 0
M  V30 3316 O 322.372 1.55748 1.27689 0
M  V30 3317 C 319.437 2.87948 1.93098 0
M  V30 3318 C 318.498 4.03166 1.47497 0
M  V30 3319 C 317.731 4.65073 2.61807 0
M  V30 3320 O 317.954 4.25913 3.79413 0
M  V30 3321 O 316.888 5.54452 2.34237 0
M  V30 3322 H 320.714 3.03084 0.193391 0
M  V30 3323 H 318.299 1.49371 0.0294621 0
M  V30 3324 H 320.181 3.29063 2.6324 0
M  V30 3325 H 318.856 2.10771 2.45677 0
M  V30 3326 H 317.763 3.66664 0.742201 0
M  V30 3327 H 319.096 4.82022 0.995796 0
M  V30 3328 N 320.748 -0.0735177 1.57428 0
M  V30 3329 C 321.658 -1.10547 2.06922 0
M  V30 3330 C 322.674 -1.42506 0.998402 0
M  V30 3331 O 323.85 -1.52717 1.31299 0
M  V30 3332 C 320.915 -2.40019 2.50184 0
M  V30 3333 C 319.976 -2.15046 3.71556 0
M  V30 3334 C 319.209 -3.38345 4.12745 0
M  V30 3335 O 319.432 -4.47399 3.53822 0
M  V30 3336 O 318.366 -3.2666 5.05546 0
M  V30 3337 H 322.192 -0.715013 2.95163 0
M  V30 3338 H 319.777 -0.287531 1.46607 0
M  V30 3339 H 321.659 -3.16218 2.78539 0
M  V30 3340 H 320.334 -2.78447 1.65072 0
M  V30 3341 H 319.241 -1.36558 3.48285 0
M  V30 3342 H 320.574 -1.81499 4.57514 0
M  V30 3343 N 322.226 -1.5378 -0.344866 0
M  V30 3344 C 323.503 -1.61589 -1.10219 0
M  V30 3345 C 323.883 -0.436316 -2.06542 0
M  V30 3346 O 323.231 0.571543 -2.21237 0
M  V30 3347 C 323.441 -2.97602 -1.82301 0
M  V30 3348 C 324.789 -3.5291 -2.36093 0
M  V30 3349 O 325.813 -2.99768 -1.924 0
M  V30 3350 O 324.672 -4.45859 -3.16026 0
M  V30 3351 H 321.766 -0.653522 -0.506792 0
M  V30 3352 H 324.312 -1.66126 -0.346465 0
M  V30 3353 H 323.084 -3.74893 -1.12121 0
M  V30 3354 H 322.707 -2.9665 -2.64735 0
M  V30 3355 N 323.704 0.605807 -1.45491 0
M  V30 3356 C 324.614 1.74466 -1.56839 0
M  V30 3357 C 325.63 1.68006 -0.452772 0
M  V30 3358 O 326.806 1.8833 -0.713708 0
M  V30 3359 C 323.871 3.10931 -1.53371 0
M  V30 3360 C 322.932 3.28832 -2.75986 0
M  V30 3361 C 322.165 4.58787 -2.72673 0
M  V30 3362 O 322.388 5.4122 -1.80102 0
M  V30 3363 O 321.322 4.79438 -3.63899 0
M  V30 3364 H 325.148 1.67843 -2.53106 0
M  V30 3365 H 322.733 0.770108 -1.28022 0
M  V30 3366 H 324.615 3.92233 -1.54051 0
M  V30 3367 H 323.29 3.18042 -0.602572 0
M  V30 3368 H 322.197 2.47112 -2.80867 0
M  V30 3369 H 323.53 3.26599 -3.68231 0
M  V30 3370 N 325.182 1.32811 0.848464 0
M  V30 3371 C 326.092 1.24278 1.98978 0
M  V30 3372 C 327.108 0.155176 1.73307 0
M  V30 3373 O 328.284 0.376999 1.9784 0
M  V30 3374 C 325.349 0.972444 3.32783 0
M  V30 3375 C 324.41 2.14911 3.71634 0
M  V30 3376 C 323.643 1.89157 4.99054 0
M  V30 3377 O 323.866 0.837165 5.64223 0
M  V30 3378 O 322.8 2.75433 5.35183 0
M  V30 3379 H 326.626 2.20238 2.09115 0
M  V30 3380 H 324.211 1.12762 0.980052 0
M  V30 3381 H 326.093 0.838432 4.12975 0
M  V30 3382 H 324.768 0.043051 3.23671 0
M  V30 3383 H 323.675 2.33862 2.91992 0
M  V30 3384 H 325.008 3.06151 3.85399 0
M  V30 3385 N 326.66 -1.06551 1.16123 0
M  V30 3386 C 327.57 -2.17484 0.879662 0
M  V30 3387 C 328.586 -1.73377 -0.147104 0
M  V30 3388 O 329.762 -2.01379 0.0289128 0
M  V30 3389 C 326.827 -3.44591 0.381829 0
M  V30 3390 C 325.888 -4.0322 1.4735 0
M  V30 3391 C 325.121 -5.24261 0.999324 0
M  V30 3392 O 325.344 -5.70198 -0.151957 0
M  V30 3393 O 324.278 -5.74775 1.78653 0
M  V30 3394 H 328.104 -2.44075 1.80724 0
M  V30 3395 H 325.689 -1.16042 0.940992 0
M  V30 3396 H 327.571 -4.21254 0.111053 0
M  V30 3397 H 326.246 -3.19532 -0.51777 0
M  V30 3398 H 325.153 -3.2806 1.79798 0
M  V30 3399 H 326.486 -4.32568 2.34831 0
M  V30 3400 N 328.138 -0.959301 -1.25041 0
M  V30 3401 C 329.048 -0.489994 -2.29426 0
M  V30 3402 C 330.064 0.444944 -1.68215 0
M  V30 3403 O 331.24 0.320046 -1.98841 0
M  V30 3404 C 328.305 0.220309 -3.45999 0
M  V30 3405 C 327.366 -0.753418 -4.22637 0
M  V30 3406 C 326.599 -0.076918 -5.33645 0
M  V30 3407 O 326.822 1.13649 -5.58963 0
M  V30 3408 O 325.756 -0.764824 -5.97021 0
M  V30 3409 H 329.582 -1.35755 -2.71669 0
M  V30 3410 H 327.167 -0.725961 -1.30576 0
M  V30 3411 H 329.049 0.619677 -4.16819 0
M  V30 3412 H 327.724 1.06296 -3.0575 0
M  V30 3413 H 326.631 -1.20308 -3.54227 0
M  V30 3414 H 327.964 -1.56423 -4.66683 0
M  V30 3415 N 329.616 1.39756 -0.72842 0
M  V30 3416 C 330.579 2.29012 -0.0927297 0
M  V30 3417 C 331.579 1.45992 0.674025 0
M  V30 3418 O 332.769 1.66749 0.50402 0
M  V30 3419 C 329.901 3.29396 0.878137 0
M  V30 3420 H 331.094 2.86729 -0.879011 0
M  V30 3421 H 328.647 1.48293 -0.493847 0
M  V30 3422 H 329.382 2.76722 1.69101 0
M  V30 3423 H 329.167 3.907 0.331051 0
M  V30 3424 H 330.657 3.96199 1.3197 0
M  V30 3425 N 331.094 0.475555 1.50254 0
M  V30 3426 C 332.322 -0.0754493 2.06762 0
M  V30 3427 C 332.737 -1.33111 1.33891 0
M  V30 3428 O 332.094 -1.77846 0.40952 0
M  V30 3429 C 332.145 -0.359008 3.59713 0
M  V30 3430 O 331.866 0.846851 4.29837 0
M  V30 3431 C 333.367 -0.956484 4.32858 0
M  V30 3432 H 330.587 0.00907525 0.670939 0
M  V30 3433 H 333.131 0.665618 1.93364 0
M  V30 3434 H 331.286 -1.05001 3.72899 0
M  V30 3435 H 331.7 0.594162 5.21124 0
M  V30 3436 H 333.174 -1.10463 5.40834 0
M  V30 3437 H 333.651 -1.94775 3.93649 0
M  V30 3438 H 334.257 -0.303723 4.24214 0
M  V30 3439 N 332.573 -1.56217 0.208337 0
M  V30 3440 C 333.52 -2.19699 -0.707192 0
M  V30 3441 C 334.49 -1.14836 -1.20008 0
M  V30 3442 O 335.675 -1.4314 -1.26157 0
M  V30 3443 C 332.815 -2.87061 -1.91546 0
M  V30 3444 C 331.928 -4.06483 -1.46271 0
M  V30 3445 C 331.063 -4.61665 -2.62752 0
M  V30 3446 C 330.102 -5.73417 -2.14147 0
M  V30 3447 N 329.239 -6.22948 -3.23853 0
M  V30 3448 H 334.079 -2.97575 -0.159111 0
M  V30 3449 H 331.616 -1.46948 -0.0667874 0
M  V30 3450 H 333.574 -3.24294 -2.62468 0
M  V30 3451 H 332.204 -2.11725 -2.43664 0
M  V30 3452 H 331.256 -3.74825 -0.648886 0
M  V30 3453 H 332.568 -4.87271 -1.06622 0
M  V30 3454 H 331.722 -5.01272 -3.41776 0
M  V30 3455 H 330.461 -3.80013 -3.05682 0
M  V30 3456 H 329.466 -5.33326 -1.33581 0
M  V30 3457 H 330.691 -6.56897 -1.72232 0
M  V30 3458 H 328.637 -5.44213 -3.6629 0
M  V30 3459 H 328.554 -6.98823 -2.88414 0
M  V30 3460 H 329.822 -6.6721 -4.03052 0
M  V30 3461 N 334.051 0.0651679 -1.57465 0
M  V30 3462 C 334.961 1.09448 -2.07505 0
M  V30 3463 C 335.977 1.41974 -1.00595 0
M  V30 3464 O 337.153 1.52018 -1.32107 0
M  V30 3465 C 334.218 2.38689 -2.51453 0
M  V30 3466 C 333.279 2.13073 -3.72691 0
M  V30 3467 C 332.512 3.36152 -4.14533 0
M  V30 3468 O 332.735 4.45517 -3.56189 0
M  V30 3469 O 331.669 3.23974 -5.07272 0
M  V30 3470 H 335.495 0.69935 -2.95538 0
M  V30 3471 H 333.08 0.279752 -1.46757 0
M  V30 3472 H 334.962 3.14736 -2.80212 0
M  V30 3473 H 333.637 2.77568 -1.66546 0
M  V30 3474 H 332.544 1.34709 -3.49005 0
M  V30 3475 H 333.877 1.79071 -4.5847 0
M  V30 3476 N 335.529 1.53961 0.336706 0
M  V30 3477 C 336.806 1.62171 1.09361 0
M  V30 3478 C 337.186 0.447263 2.06307 0
M  V30 3479 O 336.534 -0.559802 2.21537 0
M  V30 3480 C 336.744 2.98565 1.80721 0
M  V30 3481 C 338.092 3.54157 2.34218 0
M  V30 3482 O 339.116 3.00784 1.90807 0
M  V30 3483 O 337.975 4.47528 3.13657 0
M  V30 3484 H 335.069 0.6562 0.503319 0
M  V30 3485 H 337.615 1.66307 0.33765 0
M  V30 3486 H 336.387 3.75482 1.10132 0
M  V30 3487 H 336.01 2.9805 2.63158 0
M  V30 3488 N 337.007 -0.598083 1.45811 0
M  V30 3489 C 337.97 -1.69018 1.54808 0
M  V30 3490 C 338.97 -1.55037 0.426652 0
M  V30 3491 O 340.16 -1.59932 0.690456 0
M  V30 3492 C 337.292 -3.0835 1.45371 0
M  V30 3493 H 338.485 -1.62403 2.52121 0
M  V30 3494 H 336.038 -0.814626 1.33392 0
M  V30 3495 H 336.773 -3.20534 0.492793 0
M  V30 3496 H 336.558 -3.19907 2.26721 0
M  V30 3497 H 338.048 -3.8788 1.54721 0
M  V30 3498 N 338.485 -1.33259 -0.841409 0
M  V30 3499 C 339.395 -1.25332 -1.98316 0
M  V30 3500 C 340.411 -0.164364 -1.73222 0
M  V30 3501 O 341.587 -0.387486 -1.97637 0
M  V30 3502 C 338.652 -0.990078 -3.32262 0
M  V30 3503 C 337.713 -2.16879 -3.70489 0
M  V30 3504 C 336.946 -1.91801 -4.98044 0
M  V30 3505 O 337.169 -0.867075 -5.63771 0
M  V30 3506 O 336.103 -2.78267 -5.33714 0
M  V30 3507 H 339.929 -2.21344 -2.07944 0
M  V30 3508 H 337.514 -1.1328 -0.974058 0
M  V30 3509 H 339.396 -0.860321 -4.12524 0
M  V30 3510 H 338.071 -0.0602155 -3.23644 0
M  V30 3511 H 336.978 -2.35407 -2.90748 0
M  V30 3512 H 338.311 -3.0819 -3.8377 0
M  V30 3513 N 339.963 1.05934 -1.16686 0
M  V30 3514 C 340.926 2.11669 -0.879144 0
M  V30 3515 C 341.926 1.60294 0.127445 0
M  V30 3516 O 343.116 1.7389 -0.103865 0
M  V30 3517 C 340.248 3.39438 -0.315425 0
M  V30 3518 H 341.441 2.38626 -1.81653 0
M  V30 3519 H 338.994 1.22058 -0.976299 0
M  V30 3520 H 339.729 3.18132 0.629468 0
M  V30 3521 H 339.514 3.78034 -1.04079 0
M  V30 3522 H 341.004 4.17391 -0.132189 0
M  V30 3523 N 341.441 0.965919 1.2453 0
M  V30 3524 C 342.852 0.665929 1.7442 0
M  V30 3525 C 343.203 -0.818407 1.78316 0
M  V30 3526 O 342.328 -1.64037 1.41141 0
M  V30 3527 C 342.923 1.20211 3.16757 0
M  V30 3528 C 341.482 0.952059 3.6416 0
M  V30 3529 C 340.629 1.33848 2.42858 0
M  V30 3530 H 343.58 1.14144 1.10258 0
M  V30 3531 H 343.601 0.567544 3.76244 0
M  V30 3532 H 343.113 2.28244 3.13889 0
M  V30 3533 H 341.214 -0.112821 3.72429 0
M  V30 3534 H 341.327 1.59645 4.51719 0
M  V30 3535 H 339.691 0.756864 2.43195 0
M  V30 3536 H 340.474 2.42827 2.42673 0
M  V30 3537 N 342.919 -1.39368 0.735821 0
M  V30 3538 C 344.167 -2.00101 0.283562 0
M  V30 3539 C 344.488 -1.5868 -1.13338 0
M  V30 3540 O 343.758 -0.835423 -1.77193 0
M  V30 3541 H 342.338 -0.740024 0.101851 0
M  V30 3542 H 345 -1.70404 0.945962 0
M  V30 3543 H 344.096 -3.10323 0.332604 0
M  V30 3544 N 344.397 -0.483516 -1.5 0
M  V30 3545 C 345.646 0.0689102 -2.01582 0
M  V30 3546 C 345.959 1.39655 -1.36952 0
M  V30 3547 O 347.165 2.03465 -1.79762 0
M  V30 3548 C 345.621 0.173302 -3.59483 0
M  V30 3549 C 345.229 -1.14665 -4.33077 0
M  V30 3550 C 346.973 0.677024 -4.19066 0
M  V30 3551 C 344.88 -1.00537 -5.82792 0
M  V30 3552 H 343.81 0.0295277 -0.753422 0
M  V30 3553 H 346.461 -0.620295 -1.72698 0
M  V30 3554 H 344.843 0.926569 -3.85007 0
M  V30 3555 H 346.017 -1.91184 -4.19268 0
M  V30 3556 H 344.332 -1.58244 -3.85159 0
M  V30 3557 H 346.929 0.799952 -5.28682 0
M  V30 3558 H 347.272 1.67151 -3.81269 0
M  V30 3559 H 347.805 -0.0192083 -3.97795 0
M  V30 3560 H 344.544 -1.9736 -6.25083 0
M  V30 3561 H 344.064 -0.280776 -5.99142 0
M  V30 3562 H 345.743 -0.677 -6.43448 0
M  V30 3563 N 345.875 1.56104 -0.216619 0
M  V30 3564 C 347.291 1.58995 0.13886 0
M  V30 3565 C 347.491 1.23333 1.59346 0
M  V30 3566 O 346.547 0.966234 2.33281 0
M  V30 3567 C 347.86 3.00143 -0.182968 0
M  V30 3568 C 349.408 3.12751 -0.124807 0
M  V30 3569 C 349.883 4.56068 -0.420241 0
M  V30 3570 N 351.374 4.61723 -0.369634 0
M  V30 3571 C 352.109 5.70542 -0.571789 0
M  V30 3572 N 351.605 6.87744 -0.835453 0
M  V30 3573 N 353.398 5.59831 -0.504563 0
M  V30 3574 H 345.549 1.77562 -1.16557 0
M  V30 3575 H 347.812 0.825091 -0.466828 0
M  V30 3576 H 347.518 3.30871 -1.19237 0
M  V30 3577 H 347.392 3.73813 0.504367 0
M  V30 3578 H 349.779 2.81822 0.875223 0
M  V30 3579 H 349.86 2.41421 -0.845544 0
M  V30 3580 H 349.504 4.87713 -1.41769 0
M  V30 3581 H 349.434 5.25617 0.321631 0
M  V30 3582 H 351.925 3.77502 -0.173338 0
M  V30 3583 H 352.238 7.66587 -0.977938 0
M  V30 3584 H 350.583 6.895 -0.872592 0
M  V30 3585 H 353.774 4.67145 -0.298842 0
M  V30 3586 H 353.947 6.44573 -0.665519 0
M  V30 3587 N 347.353 -0.0568162 1.57498 0
M  V30 3588 C 348.63 -0.786954 1.79071 0
M  V30 3589 C 349.01 -1.95028 0.80792 0
M  V30 3590 O 348.358 -2.27968 -0.155858 0
M  V30 3591 C 348.568 -1.24594 3.26002 0
M  V30 3592 C 349.916 -1.67323 3.90241 0
M  V30 3593 O 350.94 -1.34124 3.29984 0
M  V30 3594 O 349.799 -2.28842 4.9628 0
M  V30 3595 H 346.893 -0.378262 0.735423 0
M  V30 3596 H 349.439 -0.035734 1.69662 0
M  V30 3597 H 348.211 -0.41423 3.89101 0
M  V30 3598 H 347.834 -2.05803 3.40192 0
M  V30 3599 N 348.832 -1.54138 -0.328536 0
M  V30 3600 C 349.782 -1.79557 -1.4051 0
M  V30 3601 C 350.766 -0.651373 -1.47126 0
M  V30 3602 O 351.958 -0.911226 -1.51742 0
M  V30 3603 C 349.087 -2.02196 -2.77438 0
M  V30 3604 C 348.173 -3.22724 -2.75155 0
M  V30 3605 N 348.564 -4.43881 -2.42494 0
M  V30 3606 C 346.862 -3.24196 -3.06289 0
M  V30 3607 C 347.563 -5.25797 -2.48822 0
M  V30 3608 N 346.539 -4.62862 -2.8506 0
M  V30 3609 H 350.341 -2.70814 -1.1418 0
M  V30 3610 H 347.855 -1.53265 -0.536991 0
M  V30 3611 H 349.852 -2.18546 -3.55026 0
M  V30 3612 H 348.512 -1.12191 -3.04702 0
M  V30 3613 H 349.523 -4.70969 -2.15428 0
M  V30 3614 H 346.2 -2.44208 -3.38627 0
M  V30 3615 H 347.59 -6.32535 -2.26603 0
M  V30 3616 N 350.31 0.590341 -1.46126 0
M  V30 3617 C 351.22 1.72793 -1.58681 0
M  V30 3618 C 352.236 1.67516 -0.470566 0
M  V30 3619 O 353.412 1.87562 -0.733642 0
M  V30 3620 C 350.477 3.09287 -1.5666 0
M  V30 3621 C 349.538 3.25886 -2.79458 0
M  V30 3622 C 348.771 4.55869 -2.77524 0
M  V30 3623 O 348.994 5.3928 -1.85832 0
M  V30 3624 O 347.928 4.75552 -3.68964 0
M  V30 3625 H 351.754 1.65149 -2.54872 0
M  V30 3626 H 349.339 0.756486 -1.28832 0
M  V30 3627 H 351.221 3.90577 -1.58202 0
M  V30 3628 H 349.896 3.17385 -0.636271 0
M  V30 3629 H 348.803 2.44119 -2.83472 0
M  V30 3630 H 350.136 3.22675 -3.71674 0
M  V30 3631 N 351.788 1.33704 0.83433 0
M  V30 3632 C 353.013 1.28615 1.62705 0
M  V30 3633 C 353.438 -0.139242 1.87584 0
M  V30 3634 O 352.796 -1.09734 1.4432 0
M  V30 3635 C 352.844 2.07139 2.95171 0
M  V30 3636 O 351.948 1.4331 3.86699 0
M  V30 3637 H 351.289 0.44226 0.49528 0
M  V30 3638 H 353.819 1.76335 1.03766 0
M  V30 3639 H 353.829 2.18073 3.44831 0
M  V30 3640 H 352.504 3.10779 2.76386 0
M  V30 3641 H 351.081 1.4105 3.45195 0
M  V30 3642 N 353.266 -1.05314 1.17247 0
M  V30 3643 C 354.196 -2.1498 0.911362 0
M  V30 3644 C 355.177 -1.69471 -0.146169 0
M  V30 3645 O 356.362 -1.942 0.003812 0
M  V30 3646 C 353.492 -3.4472 0.422528 0
M  V30 3647 C 352.446 -4.03789 1.4191 0
M  V30 3648 C 351.772 -5.28858 0.788274 0
M  V30 3649 C 353.072 -4.41418 2.7919 0
M  V30 3650 H 354.766 -2.3708 1.82848 0
M  V30 3651 H 352.312 -1.13938 0.880569 0
M  V30 3652 H 354.265 -4.20787 0.227289 0
M  V30 3653 H 352.989 -3.22269 -0.530123 0
M  V30 3654 H 351.648 -3.2979 1.60106 0
M  V30 3655 H 351.296 -5.02709 -0.171173 0
M  V30 3656 H 350.996 -5.69338 1.45353 0
M  V30 3657 H 352.52 -6.07612 0.603282 0
M  V30 3658 H 353.934 -5.08524 2.64719 0
M  V30 3659 H 352.331 -4.92913 3.42282 0
M  V30 3660 H 353.401 -3.51819 3.33693 0
M  V30 3661 O 354.783 -1.10174 -1.18084 0
M  V30 3662 H 355.474 -0.801769 -1.76327 0
M  V30 END ATOM
M  V30 BEGIN BOND
M  V30 END BOND
M  V30 END CTAB
M  END
$$$$
