drugbank_target|P51884 Lumican (DB09130)
 OpenBabel12092121073D

  0  0  0     0  0            999 V3000
M  V30 BEGIN CTAB
M  V30 COUNTS 5428 5487 0 0 0
M  V30 BEGIN ATOM
M  V30 1 H -0.908 1.98254 -0.117106 0
M  V30 2 N 0 1.576 0 0
M  V30 3 C 0.933 2.03868 1.02534 0
M  V30 4 C 1.911 0.928543 1.3348 0
M  V30 5 O 3.095 1.19667 1.45644 0
M  V30 6 C 0.222 2.43627 2.35294 0
M  V30 7 C -0.732 3.65373 2.2001 0
M  V30 8 S 0.101 5.13292 1.52614 0
M  V30 9 C 1.257 5.56322 2.86805 0
M  V30 10 H 1.49 2.90518 0.631377 0
M  V30 11 H -0.977 1.52953 0.210867 0
M  V30 12 H 0.981 2.67203 3.11629 0
M  V30 13 H -0.358 1.57376 2.7183 0
M  V30 14 H -1.165 3.90944 3.18086 0
M  V30 15 H -1.563 3.418 1.51819 0
M  V30 16 H 0.729 5.58782 3.83104 0
M  V30 17 H 1.672 6.56266 2.65933 0
M  V30 18 H 2.08 4.83886 2.90714 0
M  V30 19 N 1.4781 -0.272755 1.55222 0
M  V30 20 C 2.7031 -1.02683 1.80197 0
M  V30 21 C 3.1281 -1.79142 0.573551 0
M  V30 22 O 2.4861 -1.74917 -0.476849 0
M  V30 23 C 2.5341 -1.9609 3.02624 0
M  V30 24 O 1.6381 -3.04863 2.77727 0
M  V30 25 H 0.9791 -0.293557 0.595584 0
M  V30 26 H 3.5091 -0.30159 2.02365 0
M  V30 27 H 3.5191 -2.38039 3.31363 0
M  V30 28 H 2.1941 -1.39851 3.91682 0
M  V30 29 H 0.7711 -2.67228 2.60084 0
M  V30 30 N 2.9562 -1.48159 -0.537278 0
M  V30 31 C 3.8862 -1.65029 -1.6519 0
M  V30 32 C 4.8672 -0.499281 -1.62607 0
M  V30 33 O 6.0522 -0.730972 -1.79918 0
M  V30 34 C 3.1822 -1.68303 -3.03795 0
M  V30 35 C 2.1362 -2.8283 -3.21234 0
M  V30 36 C 1.4622 -2.71189 -4.60826 0
M  V30 37 C 2.7622 -4.24211 -3.04701 0
M  V30 38 H 4.4562 -2.58341 -1.51328 0
M  V30 39 H 2.0022 -1.24325 -0.726585 0
M  V30 40 H 3.9552 -1.78693 -3.81637 0
M  V30 41 H 2.6792 -0.715635 -3.18663 0
M  V30 42 H 1.3382 -2.71983 -2.45807 0
M  V30 43 H 0.9862 -1.72435 -4.7252 0
M  V30 44 H 0.6862 -3.48035 -4.7344 0
M  V30 45 H 2.2102 -2.83537 -5.40777 0
M  V30 46 H 3.6242 -4.3593 -3.72341 0
M  V30 47 H 2.0212 -5.01998 -3.28813 0
M  V30 48 H 3.0912 -4.41184 -2.01209 0
M  V30 49 N 4.4343 0.785586 -1.36625 0
M  V30 50 C 5.6593 1.57963 -1.34397 0
M  V30 51 C 6.0843 1.87964 0.071526 0
M  V30 52 O 5.4423 1.48182 1.0446 0
M  V30 53 C 5.4903 2.87511 -2.17646 0
M  V30 54 O 4.5943 3.81281 -1.57158 0
M  V30 55 H 3.9353 0.479014 -0.459828 0
M  V30 56 H 6.4653 0.973411 -1.79961 0
M  V30 57 H 6.4753 3.36745 -2.30362 0
M  V30 58 H 5.1503 2.65002 -3.20541 0
M  V30 59 H 3.7273 3.39885 -1.53403 0
M  V30 60 N 5.9124 1.20967 1.01018 0
M  V30 61 C 6.8754 0.965918 2.07853 0
M  V30 62 C 7.8754 -0.0610545 1.60684 0
M  V30 63 O 9.0654 0.175681 1.73312 0
M  V30 64 C 6.1974 0.455513 3.37843 0
M  V30 65 H 7.3904 1.91365 2.3091 0
M  V30 66 H 4.9434 1.02594 1.17916 0
M  V30 67 H 5.6784 -0.497381 3.20463 0
M  V30 68 H 5.4634 1.19622 3.73407 0
M  V30 69 H 6.9534 0.304667 4.16487 0
M  V30 70 N 7.3905 -1.2043 1.01659 0
M  V30 71 C 8.6375 -1.89797 0.705917 0
M  V30 72 C 8.9655 -1.78848 -0.764439 0
M  V30 73 O 8.2205 -1.16694 -1.57102 0
M  V30 74 C 8.5195 -3.40464 1.08714 0
M  V30 75 C 8.1855 -3.71614 2.5537 0
M  V30 76 C 6.8475 -3.79826 2.95441 0
M  V30 77 C 9.1995 -3.85915 3.50313 0
M  V30 78 C 6.5275 -3.99797 4.29394 0
M  V30 79 C 8.8795 -4.07396 4.83954 0
M  V30 80 C 7.5435 -4.13837 5.23732 0
M  V30 81 H 6.8135 -0.694518 0.258313 0
M  V30 82 H 9.4605 -1.42691 1.27717 0
M  V30 83 H 7.7655 -3.89385 0.434309 0
M  V30 84 H 9.4625 -3.92433 0.824461 0
M  V30 85 H 6.0525 -3.65822 2.23321 0
M  V30 86 H 10.2365 -3.78926 3.20513 0
M  V30 87 H 5.4925 -4.03018 4.59768 0
M  V30 88 H 9.6665 -4.17404 5.57447 0
M  V30 89 H 7.2935 -4.29064 6.27541 0
M  V30 90 N 8.8686 -0.792821 -1.36206 0
M  V30 91 C 10.0966 -0.378825 -2.03402 0
M  V30 92 C 10.5116 1.00586 -1.59774 0
M  V30 93 O 9.8686 1.64574 -0.788764 0
M  V30 94 C 9.9196 -0.43683 -3.58851 0
M  V30 95 O 9.6406 -1.76691 -4.00889 0
M  V30 96 C 11.1416 -0.0138943 -4.43298 0
M  V30 97 H 8.3616 -0.155673 -0.652692 0
M  V30 98 H 10.9056 -1.07261 -1.74113 0
M  V30 99 H 9.0606 0.208575 -3.86838 0
M  V30 100 H 9.4746 -1.72011 -4.95492 0
M  V30 101 H 10.9486 -0.105615 -5.51899 0
M  V30 102 H 11.4256 1.03915 -4.2673 0
M  V30 103 H 12.0316 -0.63192 -4.20579 0
M  V30 104 N 10.3467 1.47872 -0.545128 0
M  V30 105 C 11.2767 2.32661 0.197793 0
M  V30 106 C 12.2577 1.43041 0.920504 0
M  V30 107 O 13.4427 1.71912 0.90333 0
M  V30 108 C 10.5727 3.24569 1.23582 0
M  V30 109 C 9.5267 4.23333 0.630323 0
M  V30 110 C 8.8527 5.0448 1.77211 0
M  V30 111 C 10.1527 5.20704 -0.407974 0
M  V30 112 H 11.8467 2.95024 -0.510045 0
M  V30 113 H 9.3927 1.4187 -0.246731 0
M  V30 114 H 11.3457 3.8272 1.76362 0
M  V30 115 H 10.0697 2.60236 1.97344 0
M  V30 116 H 8.7287 3.6639 0.123922 0
M  V30 117 H 8.3767 4.36561 2.49847 0
M  V30 118 H 8.0767 5.71339 1.37281 0
M  V30 119 H 9.6007 5.65487 2.3034 0
M  V30 120 H 11.0147 5.7329 0.033305 0
M  V30 121 H 9.4117 5.95699 -0.725486 0
M  V30 122 H 10.4817 4.66917 -1.30828 0
M  V30 123 N 11.8248 0.280983 1.55075 0
M  V30 124 C 13.0718 -0.334115 1.99725 0
M  V30 125 C 13.3998 -1.5542 1.1694 0
M  V30 126 O 12.6548 -1.94361 0.228531 0
M  V30 127 C 12.9538 -0.754656 3.49342 0
M  V30 128 C 12.6198 0.361445 4.49449 0
M  V30 129 C 11.2818 0.667893 4.76542 0
M  V30 130 C 13.6338 1.11322 5.09173 0
M  V30 131 C 10.9618 1.7296 5.60626 0
M  V30 132 C 13.3138 2.1647 5.9441 0
M  V30 133 C 11.9778 2.47742 6.19822 0
M  V30 134 H 11.2478 -0.122261 0.730844 0
M  V30 135 H 13.8948 0.395917 1.87363 0
M  V30 136 H 12.1998 -1.56446 3.5921 0
M  V30 137 H 13.8968 -1.24142 3.813 0
M  V30 138 H 10.4868 0.112481 4.28452 0
M  V30 139 H 14.6708 0.88973 4.8826 0
M  V30 140 H 9.9268 1.97684 5.78559 0
M  V30 141 H 14.1008 2.75193 6.3972 0
M  V30 142 H 11.7278 3.30145 6.84769 0
M  V30 143 N 13.3029 -1.57598 0.00835791 0
M  V30 144 C 14.2329 -2.1198 -0.979113 0
M  V30 145 C 15.2139 -1.03091 -1.35301 0
M  V30 146 O 16.3989 -1.30818 -1.43528 0
M  V30 147 C 13.5289 -2.62995 -2.26828 0
M  V30 148 C 12.4829 -3.76485 -2.03576 0
M  V30 149 C 11.8089 -4.13846 -3.38579 0
M  V30 150 C 13.1089 -5.0342 -1.39161 0
M  V30 151 H 14.8029 -2.94738 -0.526281 0
M  V30 152 H 12.3489 -1.41783 -0.251704 0
M  V30 153 H 14.3019 -2.99669 -2.96271 0
M  V30 154 H 13.0259 -1.7737 -2.7424 0
M  V30 155 H 11.6849 -3.40217 -1.36557 0
M  V30 156 H 11.3329 -3.25232 -3.83709 0
M  V30 157 H 11.0329 -4.90312 -3.23834 0
M  V30 158 H 12.5569 -4.53086 -4.09323 0
M  V30 159 H 13.9709 -5.37812 -1.98573 0
M  V30 160 H 12.3679 -5.84746 -1.34878 0
M  V30 161 H 13.4379 -4.83548 -0.361868 0
M  V30 162 N 14.781 0.264519 -1.55364 0
M  V30 163 C 15.744 1.31046 -1.88042 0
M  V30 164 C 16.744 1.41943 -0.755569 0
M  V30 165 O 17.934 1.40947 -1.02369 0
M  V30 166 C 15.066 2.69067 -2.09323 0
M  V30 167 H 16.259 1.03297 -2.81549 0
M  V30 168 H 13.812 0.502989 -1.47986 0
M  V30 169 H 14.547 3.01982 -1.18226 0
M  V30 170 H 14.332 2.62542 -2.91229 0
M  V30 171 H 15.822 3.44623 -2.35848 0
M  V30 172 N 16.2591 1.48442 0.529413 0
M  V30 173 C 17.1891 1.65902 1.64313 0
M  V30 174 C 18.1701 0.507897 1.6234 0
M  V30 175 O 19.3551 0.740503 1.79528 0
M  V30 176 C 16.4851 1.69911 3.02898 0
M  V30 177 C 15.4391 2.8453 3.19729 0
M  V30 178 C 14.7651 2.73629 4.59381 0
M  V30 179 C 16.0651 4.25821 3.02447 0
M  V30 180 H 17.7591 2.5914 1.49955 0
M  V30 181 H 15.3051 1.24709 0.719982 0
M  V30 182 H 17.2581 1.80715 3.80684 0
M  V30 183 H 15.9821 0.732524 3.18279 0
M  V30 184 H 14.6411 2.73283 2.44361 0
M  V30 185 H 14.2891 1.74938 4.71599 0
M  V30 186 H 13.9891 3.50541 4.71588 0
M  V30 187 H 15.5131 2.86401 5.39265 0
M  V30 188 H 16.9271 4.37898 3.70024 0
M  V30 189 H 15.3241 5.03735 3.26146 0
M  V30 190 H 16.3941 4.42244 1.98867 0
M  V30 191 N 17.7372 -0.778329 1.37039 0
M  V30 192 C 18.9862 -1.53189 1.3121 0
M  V30 193 C 19.2992 -1.95328 -0.103095 0
M  V30 194 O 20.5052 -2.70012 -0.283826 0
M  V30 195 C 18.9612 -2.76591 2.30272 0
M  V30 196 C 18.5692 -2.41577 3.77286 0
M  V30 197 C 20.3132 -3.5455 2.33441 0
M  V30 198 C 18.2202 -3.61441 4.68096 0
M  V30 199 H 17.1502 -0.5751 0.487622 0
M  V30 200 H 19.8012 -0.853101 1.62464 0
M  V30 201 H 18.1832 -3.46326 1.92027 0
M  V30 202 H 19.3572 -1.79668 4.2433 0
M  V30 203 H 17.6722 -1.76806 3.76999 0
M  V30 204 H 20.2692 -4.43628 2.98493 0
M  V30 205 H 20.6122 -3.93936 1.34611 0
M  V30 206 H 21.1452 -2.91805 2.7036 0
M  V30 207 H 17.8842 -3.27142 5.6803 0
M  V30 208 H 17.4042 -4.22478 4.25761 0
M  V30 209 H 19.0832 -4.28335 4.8491 0
M  V30 210 N 19.2153 -1.21501 -1.00376 0
M  V30 211 C 20.4633 -1.03095 -1.73827 0
M  V30 212 C 20.7843 0.436341 -1.90055 0
M  V30 213 O 20.0543 1.31466 -1.45236 0
M  V30 214 H 18.6343 -0.378487 -0.644016 0
M  V30 215 H 21.2963 -1.52831 -1.20949 0
M  V30 216 H 20.3923 -1.49991 -2.73695 0
M  V30 217 N 20.6934 1.19889 -1.02296 0
M  V30 218 C 21.9414 1.89046 -0.714558 0
M  V30 219 C 22.2624 1.79636 0.758681 0
M  V30 220 O 21.5324 1.20292 1.54618 0
M  V30 221 H 20.1124 0.699802 -0.261317 0
M  V30 222 H 22.7744 1.45574 -1.29592 0
M  V30 223 H 21.8704 2.95524 -1.0036 0
M  V30 224 N 22.1715 0.800033 1.35784 0
M  V30 225 C 23.3995 0.389606 2.03199 0
M  V30 226 C 23.8145 -0.997375 1.60306 0
M  V30 227 O 23.1715 -1.64154 0.797481 0
M  V30 228 C 23.2225 0.455855 3.58614 0
M  V30 229 O 22.9435 1.78815 3.99946 0
M  V30 230 C 24.4445 0.0374032 4.43284 0
M  V30 231 H 21.6645 0.159132 0.651857 0
M  V30 232 H 24.2085 1.08183 1.73541 0
M  V30 233 H 22.3635 -0.188057 3.86943 0
M  V30 234 H 22.7775 1.74636 4.94573 0
M  V30 235 H 24.2515 0.134882 5.51835 0
M  V30 236 H 24.7285 -1.01651 4.27275 0
M  V30 237 H 25.3345 0.654215 4.20238 0
M  V30 238 N 23.6496 -1.47581 0.552962 0
M  V30 239 C 24.8746 -2.07378 0.0300593 0
M  V30 240 C 25.2996 -1.40355 -1.25229 0
M  V30 241 O 24.6576 -0.477099 -1.7491 0
M  V30 242 C 24.7056 -3.60274 -0.153231 0
M  V30 243 O 23.8096 -3.94041 -1.21678 0
M  V30 244 H 23.1506 -0.662158 0.0494182 0
M  V30 245 H 25.6806 -1.89662 0.767434 0
M  V30 246 H 25.6906 -4.0633 -0.368761 0
M  V30 247 H 24.3656 -4.08455 0.783397 0
M  V30 248 H 22.9426 -3.59735 -0.982079 0
M  V30 249 N 25.1277 -0.289203 -1.54924 0
M  V30 250 C 26.3757 0.322879 -1.99504 0
M  V30 251 C 26.6967 1.55313 -1.1791 0
M  V30 252 O 25.9667 1.94001 -0.272097 0
M  V30 253 H 24.5467 0.122291 -0.736922 0
M  V30 254 H 27.2087 -0.397802 -1.90797 0
M  V30 255 H 26.3047 0.603061 -3.06218 0
M  V30 256 N 26.6058 1.57591 -0.0167156 0
M  V30 257 C 27.5378 2.06343 0.997753 0
M  V30 258 C 28.5508 0.984469 1.29661 0
M  V30 259 O 29.7398 1.26093 1.26344 0
M  V30 260 C 26.8398 2.46255 2.32834 0
M  V30 261 C 26.0128 3.77083 2.21646 0
M  V30 262 C 25.0718 4.0368 3.37534 0
M  V30 263 O 24.0978 4.7411 3.14973 0
M  V30 264 N 25.2998 3.52881 4.60929 0
M  V30 265 H 28.0648 2.93997 0.581875 0
M  V30 266 H 25.6258 1.61002 0.170316 0
M  V30 267 H 27.6178 2.61149 3.09166 0
M  V30 268 H 26.1878 1.64032 2.66106 0
M  V30 269 H 25.4078 3.72106 1.30119 0
M  V30 270 H 26.6958 4.62822 2.11361 0
M  V30 271 H 26.0938 2.95878 4.82154 0
M  V30 272 H 24.6508 3.73076 5.34469 0
M  V30 273 N 28.0839 -0.256276 1.55502 0
M  V30 274 C 29.3139 -1.00196 1.80677 0
M  V30 275 C 29.7219 -1.79805 0.588797 0
M  V30 276 O 29.0649 -1.78055 -0.451883 0
M  V30 277 C 29.1269 -1.99515 2.99055 0
M  V30 278 C 28.7909 -1.38688 4.35448 0
M  V30 279 C 29.7879 -0.794079 5.138 0
M  V30 280 C 27.4729 -1.40906 4.82132 0
M  V30 281 C 29.4669 -0.231562 6.36979 0
M  V30 282 C 27.1539 -0.842684 6.05262 0
M  V30 283 C 28.1519 -0.254953 6.82524 0
M  V30 284 O 27.8399 0.3027 8.0333 0
M  V30 285 H 27.5719 -0.300919 0.60533 0
M  V30 286 H 30.1259 -0.287307 2.03381 0
M  V30 287 H 28.3559 -2.74785 2.72084 0
M  V30 288 H 30.0449 -2.60349 3.11405 0
M  V30 289 H 30.8109 -0.769519 4.78856 0
M  V30 290 H 26.6899 -1.85591 4.21992 0
M  V30 291 H 30.2339 0.227816 6.97228 0
M  V30 292 H 26.1309 -0.86454 6.39684 0
M  V30 293 H 26.8989 0.193662 8.18271 0
M  V30 294 N 29.562 -1.4872 -0.521534 0
M  V30 295 C 30.792 -1.6061 -1.29954 0
M  V30 296 C 31.2 -0.268728 -1.87282 0
M  V30 297 O 30.543 0.753221 -1.67548 0
M  V30 298 C 30.605 -2.60013 -2.48261 0
M  V30 299 C 30.269 -4.04874 -2.11957 0
M  V30 300 C 31.266 -4.92304 -1.67132 0
M  V30 301 C 28.951 -4.5047 -2.22221 0
M  V30 302 C 30.945 -6.2336 -1.33047 0
M  V30 303 C 28.632 -5.81544 -1.87748 0
M  V30 304 C 29.63 -6.67812 -1.43234 0
M  V30 305 O 29.318 -7.96446 -1.09217 0
M  V30 306 H 29.05 -0.544116 -0.401141 0
M  V30 307 H 31.604 -1.95339 -0.634958 0
M  V30 308 H 29.834 -2.20422 -3.17728 0
M  V30 309 H 31.523 -2.61648 -3.10315 0
M  V30 310 H 32.289 -4.58312 -1.58665 0
M  V30 311 H 28.168 -3.83504 -2.55823 0
M  V30 312 H 31.712 -6.90649 -0.982299 0
M  V30 313 H 27.609 -6.15069 -1.95858 0
M  V30 314 H 28.377 -8.09275 -1.22542 0
M  V30 315 N 31.0401 0.771051 -1.3745 0
M  V30 316 C 32.3171 1.519 -1.23231 0
M  V30 317 C 32.6971 2.10383 0.173809 0
M  V30 318 O 32.0451 1.95583 1.18151 0
M  V30 319 C 32.2551 2.59933 -2.32886 0
M  V30 320 C 33.6031 3.27316 -2.70461 0
M  V30 321 O 34.6271 2.70228 -2.32068 0
M  V30 322 O 33.4861 4.30531 -3.36608 0
M  V30 323 H 30.5801 0.672803 -0.480901 0
M  V30 324 H 33.1261 0.807957 -1.49232 0
M  V30 325 H 31.8981 2.14842 -3.27045 0
M  V30 326 H 31.5211 3.38637 -2.08353 0
M  V30 327 N 32.5182 1.22032 0.997298 0
M  V30 328 C 33.7482 1.06686 1.76923 0
M  V30 329 C 34.1562 -0.385838 1.85224 0
M  V30 330 O 33.4992 -1.27929 1.31833 0
M  V30 331 C 33.5612 1.59802 3.22031 0
M  V30 332 C 33.2252 3.08362 3.37286 0
M  V30 333 C 34.2222 4.05835 3.24952 0
M  V30 334 C 31.9072 3.47727 3.6248 0
M  V30 335 C 33.9012 5.4066 3.37588 0
M  V30 336 C 31.5882 4.82701 3.74757 0
M  V30 337 C 32.5862 5.78977 3.62319 0
M  V30 338 O 32.2742 7.11502 3.74193 0
M  V30 339 H 32.0062 0.374767 0.562606 0
M  V30 340 H 34.5602 1.61991 1.26286 0
M  V30 341 H 32.7902 0.989003 3.73839 0
M  V30 342 H 34.4792 1.40184 3.80924 0
M  V30 343 H 35.2452 3.76766 3.05405 0
M  V30 344 H 31.1242 2.73317 3.7124 0
M  V30 345 H 34.6682 6.15788 3.27796 0
M  V30 346 H 30.5652 5.11453 3.9381 0
M  V30 347 H 31.3332 7.19019 3.91093 0
M  V30 348 N 33.9963 -1.19345 1.0293 0
M  V30 349 C 35.2733 -1.84811 0.640642 0
M  V30 350 C 35.6533 -1.91855 -0.88062 0
M  V30 351 O 35.0013 -1.43587 -1.7775 0
M  V30 352 C 35.2113 -3.23755 1.30321 0
M  V30 353 C 36.5593 -3.99912 1.42673 0
M  V30 354 O 37.5833 -3.33155 1.26041 0
M  V30 355 O 36.4423 -5.19494 1.6967 0
M  V30 356 H 33.5363 -0.796443 0.222726 0
M  V30 357 H 36.0823 -1.26831 1.12748 0
M  V30 358 H 34.8543 -3.13466 2.34211 0
M  V30 359 H 34.4773 -3.89381 0.804261 0
M  V30 360 N 35.4744 -0.807222 -1.35358 0
M  V30 361 C 36.7214 -0.387888 -1.9875 0
M  V30 362 C 37.0494 1.04509 -1.64037 0
M  V30 363 O 36.3044 1.73986 -0.895946 0
M  V30 364 C 36.6034 -0.519036 -3.53611 0
M  V30 365 C 36.2694 -1.91542 -4.08194 0
M  V30 366 C 34.9314 -2.29745 -4.22813 0
M  V30 367 C 37.2834 -2.82896 -4.37744 0
M  V30 368 C 34.6114 -3.58668 -4.643 0
M  V30 369 C 36.9634 -4.11265 -4.8067 0
M  V30 370 C 35.6274 -4.49466 -4.93494 0
M  V30 371 H 34.8974 -0.141938 -0.727279 0
M  V30 372 H 37.5444 -1.02814 -1.6156 0
M  V30 373 H 35.8494 0.204658 -3.91265 0
M  V30 374 H 37.5464 -0.175345 -4.00616 0
M  V30 375 H 34.1364 -1.60862 -3.97268 0
M  V30 376 H 38.3204 -2.54629 -4.26002 0
M  V30 377 H 33.5764 -3.88113 -4.72418 0
M  V30 378 H 37.7504 -4.82153 -5.02496 0
M  V30 379 H 35.3774 -5.49418 -5.25399 0
M  V30 380 N 36.9525 1.47285 -0.560781 0
M  V30 381 C 38.3635 1.86258 -0.128343 0
M  V30 382 C 38.7145 1.46699 1.30284 0
M  V30 383 O 37.8395 0.871698 1.98067 0
M  V30 384 C 38.4345 3.38044 -0.22614 0
M  V30 385 C 36.9935 3.76096 0.151283 0
M  V30 386 C 36.1405 2.71335 -0.572084 0
M  V30 387 H 39.0915 1.38752 -0.770297 0
M  V30 388 H 39.1125 3.76441 0.554322 0
M  V30 389 H 38.6245 3.66806 -1.26788 0
M  V30 390 H 36.7255 3.52951 1.19399 0
M  V30 391 H 36.8385 4.78641 -0.209765 0
M  V30 392 H 35.2025 2.54696 -0.0147653 0
M  V30 393 H 35.9855 3.02938 -1.61504 0
M  V30 394 N 38.4306 0.297415 1.54768 0
M  V30 395 C 39.3606 -0.573494 2.26348 0
M  V30 396 C 40.3416 -1.14085 1.26169 0
M  V30 397 O 41.5266 -1.17086 1.54934 0
M  V30 398 C 38.6566 -1.74716 3.00153 0
M  V30 399 C 37.6106 -1.31032 4.07449 0
M  V30 400 C 36.9366 -2.56887 4.68949 0
M  V30 401 C 38.2366 -0.444183 5.20408 0
M  V30 402 H 39.9306 0.0235131 2.99391 0
M  V30 403 H 37.4766 0.0127488 1.43994 0
M  V30 404 H 39.4296 -2.3625 3.48947 0
M  V30 405 H 38.1536 -2.37035 2.24682 0
M  V30 406 H 36.8126 -0.718066 3.59499 0
M  V30 407 H 36.4606 -3.17512 3.90122 0
M  V30 408 H 36.1606 -2.2836 5.41411 0
M  V30 409 H 37.6846 -3.19229 5.20505 0
M  V30 410 H 39.0986 -0.9651 5.65118 0
M  V30 411 H 37.4956 -0.252846 5.99567 0
M  V30 412 H 38.5656 0.531609 4.81977 0
M  V30 413 N 39.9087 -1.5758 0.0250728 0
M  V30 414 C 41.1337 -1.96337 -0.668317 0
M  V30 415 C 41.5587 -0.901314 -1.651 0
M  V30 416 O 40.9167 0.138187 -1.80773 0
M  V30 417 C 40.9647 -3.34191 -1.35457 0
M  V30 418 O 40.0687 -3.30269 -2.46974 0
M  V30 419 H 39.4097 -0.640281 -0.175887 0
M  V30 420 H 41.9397 -2.0442 0.0857224 0
M  V30 421 H 41.9497 -3.70331 -1.71228 0
M  V30 422 H 40.6247 -4.11036 -0.634218 0
M  V30 423 H 39.2017 -3.05841 -2.13344 0
M  V30 424 N 41.3868 0.248026 -1.55636 0
M  V30 425 C 42.6358 0.974134 -1.76617 0
M  V30 426 C 42.9488 1.86528 -0.588796 0
M  V30 427 O 44.1548 2.62805 -0.681594 0
M  V30 428 C 42.6108 1.78213 -3.12679 0
M  V30 429 C 42.2188 0.93843 -4.38061 0
M  V30 430 C 43.9628 2.50104 -3.42999 0
M  V30 431 C 41.8698 1.74225 -5.65155 0
M  V30 432 H 40.7998 0.36745 -0.658405 0
M  V30 433 H 43.4508 0.22884 -1.82067 0
M  V30 434 H 41.8328 2.56933 -3.01333 0
M  V30 435 H 43.0068 0.193635 -4.60393 0
M  V30 436 H 41.3218 0.332905 -4.15067 0
M  V30 437 H 43.9188 3.10694 -4.3517 0
M  V30 438 H 44.2618 3.21662 -2.64271 0
M  V30 439 H 44.7948 1.78395 -3.55556 0
M  V30 440 H 41.5338 1.07043 -6.46701 0
M  V30 441 H 41.0538 2.46235 -5.46926 0
M  V30 442 H 42.7328 2.30967 -6.0437 0
M  V30 443 N 42.8649 1.48995 0.513639 0
M  V30 444 C 44.0949 1.61297 1.291 0
M  V30 445 C 44.5029 0.278656 1.87137 0
M  V30 446 O 43.8459 -0.744325 1.67945 0
M  V30 447 C 43.9079 2.61326 2.46879 0
M  V30 448 C 43.5719 4.05993 2.09807 0
M  V30 449 C 44.5689 4.93183 1.64519 0
M  V30 450 C 42.2539 4.51642 2.19829 0
M  V30 451 C 44.2479 6.24056 1.2974 0
M  V30 452 C 41.9349 5.82532 1.84662 0
M  V30 453 C 42.9329 6.68562 1.3969 0
M  V30 454 O 42.6209 7.97014 1.04992 0
M  V30 455 H 42.3529 0.546236 0.39825 0
M  V30 456 H 44.9069 1.95673 0.62459 0
M  V30 457 H 43.1369 2.22104 3.16554 0
M  V30 458 H 44.8259 2.6329 3.08923 0
M  V30 459 H 45.5919 4.59147 1.56233 0
M  V30 460 H 41.4709 3.84855 2.53786 0
M  V30 461 H 45.0149 6.91161 0.945659 0
M  V30 462 H 40.9119 6.16099 1.92594 0
M  V30 463 H 41.6799 8.09913 1.18249 0
M  V30 464 N 44.343 -0.763751 1.37857 0
M  V30 465 C 45.591 -1.51957 1.33243 0
M  V30 466 C 45.912 -1.94835 -0.0801709 0
M  V30 467 O 45.182 -1.66894 -1.02582 0
M  V30 468 H 43.762 -0.563626 0.49024 0
M  V30 469 H 46.424 -0.908504 1.7243 0
M  V30 470 H 45.52 -2.41523 1.97669 0
M  V30 471 N 45.8211 -1.22559 -0.990812 0
M  V30 472 C 46.7531 -0.955325 -2.08342 0
M  V30 473 C 47.7661 0.0668408 -1.62663 0
M  V30 474 O 48.9551 -0.167421 -1.77713 0
M  V30 475 C 46.0551 -0.415566 -3.36342 0
M  V30 476 C 45.2281 -1.49544 -4.11042 0
M  V30 477 C 44.2871 -0.962399 -5.17324 0
M  V30 478 O 43.3131 -1.64907 -5.44788 0
M  V30 479 N 44.5151 0.215134 -5.80101 0
M  V30 480 H 47.2801 -1.89596 -2.32106 0
M  V30 481 H 44.8411 -1.13276 -1.15673 0
M  V30 482 H 46.8331 -0.0442386 -4.04676 0
M  V30 483 H 45.4031 0.430232 -3.09625 0
M  V30 484 H 44.6231 -2.04 -3.37309 0
M  V30 485 H 45.9111 -2.22195 -4.57719 0
M  V30 486 H 45.3091 0.789779 -5.6016 0
M  V30 487 H 43.8661 0.527826 -6.49659 0
M  V30 488 N 47.2992 1.18797 -1.03562 0
M  V30 489 C 48.5242 1.9314 -0.755764 0
M  V30 490 C 48.9492 1.7537 0.68022 0
M  V30 491 O 48.3072 1.06046 1.47051 0
M  V30 492 C 48.3552 3.42747 -1.12058 0
M  V30 493 O 47.4592 4.11683 -0.243124 0
M  V30 494 H 46.8002 0.602724 -0.278604 0
M  V30 495 H 49.3302 1.50678 -1.3841 0
M  V30 496 H 49.3402 3.93437 -1.08035 0
M  V30 497 H 48.0152 3.55002 -2.16672 0
M  V30 498 H 46.5922 3.71323 -0.342539 0
M  V30 499 N 48.7773 0.814389 1.34928 0
M  V30 500 C 50.0023 0.410097 2.03305 0
M  V30 501 C 50.4273 -0.973464 1.60951 0
M  V30 502 O 49.7853 -1.63185 0.789964 0
M  V30 503 C 49.8333 0.51049 3.56968 0
M  V30 504 O 48.9373 -0.473035 4.09678 0
M  V30 505 H 48.2783 0.170088 0.641846 0
M  V30 506 H 50.8083 1.10244 1.72358 0
M  V30 507 H 50.8183 0.383135 4.06197 0
M  V30 508 H 49.4933 1.51963 3.87144 0
M  V30 509 H 48.0703 -0.305272 3.71648 0
M  V30 510 N 50.2554 -1.46986 0.568584 0
M  V30 511 C 51.6664 -1.86188 0.138219 0
M  V30 512 C 52.0174 -1.47388 -1.29504 0
M  V30 513 O 51.1424 -0.88219 -1.97602 0
M  V30 514 C 51.7374 -3.3792 0.244065 0
M  V30 515 C 50.2964 -3.76171 -0.131335 0
M  V30 516 C 49.4434 -2.71027 0.586465 0
M  V30 517 H 52.3944 -1.38342 0.777645 0
M  V30 518 H 52.4154 -3.76729 -0.534351 0
M  V30 519 H 51.9274 -3.66128 1.28731 0
M  V30 520 H 50.0284 -3.5358 -1.17526 0
M  V30 521 H 50.1414 -4.78523 0.235146 0
M  V30 522 H 48.5054 -2.54684 0.0282722 0
M  V30 523 H 49.2884 -3.02077 1.63109 0
M  V30 524 N 51.7335 -0.305618 -1.54608 0
M  V30 525 C 52.6815 0.584119 -2.25146 0
M  V30 526 C 53.6755 1.13326 -1.25911 0
M  V30 527 O 54.8815 1.08337 -1.43747 0
M  V30 528 H 51.2565 0.206983 -0.722954 0
M  V30 529 H 53.2275 -0.033291 -2.98381 0
M  V30 530 C 51.9765 1.74225 -3.009 0
M  V30 531 H 51.2995 1.32892 -3.77067 0
M  V30 532 H 52.7395 2.34077 -3.53531 0
M  V30 533 C 51.1985 2.64914 -2.0814 0
M  V30 534 O 51.7285 3.66137 -1.65246 0
M  V30 535 N 49.9345 2.3275 -1.74 0
M  V30 536 H 49.4815 1.50479 -2.09078 0
M  V30 537 H 49.4395 2.93694 -1.12211 0
M  V30 538 N 53.2116 1.57565 -0.0334293 0
M  V30 539 C 54.4516 1.93844 0.648379 0
M  V30 540 C 54.8156 0.910387 1.69044 0
M  V30 541 O 56.0166 1.15952 2.42505 0
M  V30 542 C 54.2876 3.35017 1.24492 0
M  V30 543 S 55.8466 3.93229 1.94721 0
M  V30 544 H 52.6646 0.678231 0.213364 0
M  V30 545 H 55.2666 1.95254 -0.0981253 0
M  V30 546 H 53.9706 4.07652 0.474128 0
M  V30 547 H 53.5016 3.37061 2.02864 0
M  V30 548 H 55.5166 3.77014 3.22606 0
M  V30 549 N 54.6897 -0.239769 1.55765 0
M  V30 550 C 55.6527 -1.28038 1.90103 0
M  V30 551 C 56.6527 -1.40723 0.778055 0
M  V30 552 O 57.8427 -1.39301 1.04599 0
M  V30 553 C 54.9747 -2.65702 2.13577 0
M  V30 554 H 56.1677 -0.988048 2.83157 0
M  V30 555 H 53.7207 -0.479382 1.48767 0
M  V30 556 H 54.4557 -3.00063 1.23015 0
M  V30 557 H 54.2407 -2.57875 2.95369 0
M  V30 558 H 55.7307 -3.40828 2.41301 0
M  V30 559 N 56.1678 -1.49265 -0.50573 0
M  V30 560 C 57.5788 -1.51769 -1.08734 0
M  V30 561 C 57.9298 -0.301192 -1.93874 0
M  V30 562 O 57.0548 0.589456 -2.08217 0
M  V30 563 C 57.6498 -2.75017 -1.97867 0
M  V30 564 C 56.2088 -2.80314 -2.51199 0
M  V30 565 C 55.3558 -2.4562 -1.28709 0
M  V30 566 H 58.3068 -1.56031 -0.289855 0
M  V30 567 H 58.3278 -2.5491 -2.82491 0
M  V30 568 H 57.8398 -3.63539 -1.35873 0
M  V30 569 H 55.9408 -1.96061 -3.16845 0
M  V30 570 H 56.0538 -3.82366 -2.88675 0
M  V30 571 H 54.4178 -1.97297 -1.61078 0
M  V30 572 H 55.2008 -3.36411 -0.6843 0
M  V30 573 N 57.6459 0.756429 -1.3826 0
M  V30 574 C 58.5559 1.9009 -1.37488 0
M  V30 575 C 59.5719 1.71855 -0.272366 0
M  V30 576 O 60.7479 1.94827 -0.510318 0
M  V30 577 C 57.8129 3.25421 -1.19592 0
M  V30 578 C 56.8739 3.56202 -2.39622 0
M  V30 579 C 56.1069 4.85075 -2.2257 0
M  V30 580 O 56.3299 5.57246 -1.21793 0
M  V30 581 O 55.2639 5.15269 -3.11098 0
M  V30 582 H 59.0899 1.93695 -2.33914 0
M  V30 583 H 56.6749 0.901313 -1.1915 0
M  V30 584 H 58.5569 4.06337 -1.11661 0
M  V30 585 H 57.2319 3.22634 -0.262486 0
M  V30 586 H 56.1389 2.75458 -2.53128 0
M  V30 587 H 57.4719 3.63747 -3.31586 0
M  V30 588 N 59.124 1.23083 0.984299 0
M  V30 589 C 60.364 1.07226 1.74017 0
M  V30 590 C 60.728 -0.384766 1.88105 0
M  V30 591 O 61.929 -0.664411 2.60459 0
M  V30 592 C 60.2 1.77348 3.10294 0
M  V30 593 S 61.759 1.77014 4.01512 0
M  V30 594 H 58.577 0.383819 0.598502 0
M  V30 595 H 61.179 1.56158 1.17622 0
M  V30 596 H 59.883 2.82506 2.97689 0
M  V30 597 H 59.414 1.28682 3.71759 0
M  V30 598 H 61.429 0.825956 4.89277 0
M  V30 599 N 60.6021 -1.18246 1.0419 0
M  V30 600 C 61.5501 -2.23968 0.627792 0
M  V30 601 C 62.5441 -1.65828 -0.346019 0
M  V30 602 O 63.7501 -1.78733 -0.213175 0
M  V30 603 H 60.1251 -0.728939 0.184802 0
M  V30 604 H 62.0961 -2.56202 1.52981 0
M  V30 605 C 60.8451 -3.47699 0.00796591 0
M  V30 606 H 60.1681 -3.92734 0.748347 0
M  V30 607 H 61.6081 -4.23294 -0.24455 0
M  V30 608 C 60.0671 -3.13153 -1.24246 0
M  V30 609 O 60.5971 -3.27003 -2.33307 0
M  V30 610 N 58.8031 -2.67467 -1.13622 0
M  V30 611 H 58.3501 -2.56396 -0.248734 0
M  V30 612 H 58.3081 -2.44724 -1.97377 0
M  V30 613 N 62.0802 -0.821533 -1.34494 0
M  V30 614 C 63.3202 -0.414785 -2.00147 0
M  V30 615 C 63.6842 1.00299 -1.6372 0
M  V30 616 O 64.8852 1.51255 -2.22206 0
M  V30 617 C 63.1562 -0.609403 -3.52166 0
M  V30 618 S 64.7152 -0.295297 -4.37805 0
M  V30 619 H 61.5332 -0.15679 -0.693497 0
M  V30 620 H 64.1352 -1.06705 -1.63812 0
M  V30 621 H 62.8392 -1.64096 -3.76166 0
M  V30 622 H 62.3702 0.0576414 -3.93358 0
M  V30 623 H 64.3852 0.891531 -4.88125 0
M  V30 624 N 63.5583 1.46682 -0.576371 0
M  V30 625 C 64.9693 1.86112 -0.148091 0
M  V30 626 C 65.3203 1.48073 1.2872 0
M  V30 627 O 64.4453 0.892656 1.97131 0
M  V30 628 C 65.0403 3.37786 -0.261982 0
M  V30 629 C 63.5993 3.76235 0.111384 0
M  V30 630 C 62.7463 2.70713 -0.60083 0
M  V30 631 H 65.6973 1.37927 -0.78497 0
M  V30 632 H 65.7183 3.77007 0.514364 0
M  V30 633 H 65.2303 3.6544 -1.30671 0
M  V30 634 H 63.3313 3.54198 1.15649 0
M  V30 635 H 63.4443 4.78391 -0.26052 0
M  V30 636 H 61.8083 2.54666 -0.0417783 0
M  V30 637 H 62.5913 3.01208 -1.64708 0
M  V30 638 N 65.0364 0.313813 1.54444 0
M  V30 639 C 65.9464 -0.565714 2.27677 0
M  V30 640 C 66.9624 -1.13754 1.31666 0
M  V30 641 O 68.1384 -1.15959 1.64668 0
M  V30 642 C 65.2034 -1.71528 3.01296 0
M  V30 643 C 64.2644 -1.17624 4.12872 0
M  V30 644 C 63.4974 -2.27102 4.8297 0
M  V30 645 O 63.7204 -3.47256 4.52514 0
M  V30 646 O 62.6544 -1.9307 5.70094 0
M  V30 647 H 66.4804 0.0287296 3.03686 0
M  V30 648 H 64.0654 0.0798312 1.49187 0
M  V30 649 H 65.9474 -2.38476 3.4743 0
M  V30 650 H 64.6224 -2.29608 2.2817 0
M  V30 651 H 63.5294 -0.472124 3.71109 0
M  V30 652 H 64.8624 -0.640695 4.88012 0
M  V30 653 N 66.5145 -1.57545 0.0417849 0
M  V30 654 C 67.7395 -1.97035 -0.647455 0
M  V30 655 C 68.1645 -0.918775 -1.64135 0
M  V30 656 O 67.5225 0.119006 -1.80909 0
M  V30 657 C 67.5705 -3.35609 -1.31905 0
M  V30 658 O 66.6745 -3.3287 -2.43457 0
M  V30 659 H 66.0155 -0.64211 -0.169086 0
M  V30 660 H 68.5455 -2.04318 0.107399 0
M  V30 661 H 68.5555 -3.72126 -1.67291 0
M  V30 662 H 67.2305 -4.11685 -0.590586 0
M  V30 663 H 65.8075 -3.08087 -2.10088 0
M  V30 664 N 67.9926 0.231505 -1.5589 0
M  V30 665 C 69.2226 0.973092 -1.82248 0
M  V30 666 C 69.6306 1.78845 -0.617328 0
M  V30 667 O 68.9736 1.78752 0.423499 0
M  V30 668 C 69.0356 1.94732 -3.02192 0
M  V30 669 C 68.6996 1.31743 -4.37599 0
M  V30 670 C 69.6966 0.712238 -5.14998 0
M  V30 671 C 67.3816 1.33218 -4.84312 0
M  V30 672 C 69.3756 0.130195 -6.37267 0
M  V30 673 C 67.0626 0.746286 -6.06526 0
M  V30 674 C 68.0606 0.146337 -6.82843 0
M  V30 675 O 67.7486 -0.430465 -8.02747 0
M  V30 676 H 67.4806 0.29125 -0.61004 0
M  V30 677 H 70.0346 0.254915 -2.03812 0
M  V30 678 H 68.2646 2.70422 -2.76422 0
M  V30 679 H 69.9536 2.55362 -3.15508 0
M  V30 680 H 70.7196 0.69324 -4.8002 0
M  V30 681 H 66.5986 1.78854 -4.24891 0
M  V30 682 H 70.1426 -0.33871 -6.96777 0
M  V30 683 H 66.0396 0.762663 -6.40979 0
M  V30 684 H 66.8076 -0.323818 -8.17859 0
M  V30 685 N 69.4707 1.49531 0.497807 0
M  V30 686 C 70.8817 1.52344 1.07927 0
M  V30 687 C 71.2327 0.311469 1.93712 0
M  V30 688 O 70.3577 -0.578405 2.08527 0
M  V30 689 C 70.9527 2.76062 1.96405 0
M  V30 690 C 69.5117 2.81643 2.49709 0
M  V30 691 C 68.6587 2.46299 1.27404 0
M  V30 692 H 71.6097 1.56182 0.281576 0
M  V30 693 H 71.6307 2.56405 2.81135 0
M  V30 694 H 71.1427 3.64254 1.33943 0
M  V30 695 H 69.2437 1.97739 3.15801 0
M  V30 696 H 69.3567 3.83891 2.86643 0
M  V30 697 H 67.7207 1.98148 1.60029 0
M  V30 698 H 68.5037 3.36769 0.66645 0
M  V30 699 N 70.9488 -0.749086 1.3866 0
M  V30 700 C 72.1738 -1.54344 1.38538 0
M  V30 701 C 72.5988 -1.88088 -0.0216655 0
M  V30 702 O 71.9568 -1.50899 -1.00494 0
M  V30 703 C 72.0048 -2.8164 2.25192 0
M  V30 704 O 71.1088 -3.7698 1.67212 0
M  V30 705 H 70.4498 -0.466654 0.472367 0
M  V30 706 H 72.9798 -0.925355 1.82478 0
M  V30 707 H 72.9898 -3.30519 2.3921 0
M  V30 708 H 71.6648 -2.56411 3.27454 0
M  V30 709 H 70.2418 -3.35699 1.6236 0
M  V30 710 N 72.4269 -1.23603 -0.977757 0
M  V30 711 C 73.3899 -1.02069 -2.05218 0
M  V30 712 C 74.3899 0.0184305 -1.60789 0
M  V30 713 O 75.5799 -0.221569 -1.72785 0
M  V30 714 C 72.7119 -0.544926 -3.36517 0
M  V30 715 H 73.9049 -1.9742 -2.25755 0
M  V30 716 H 71.4579 -1.05684 -1.15155 0
M  V30 717 H 72.1929 0.412241 -3.21669 0
M  V30 718 H 71.9779 -1.2948 -3.70105 0
M  V30 719 H 73.4679 -0.414985 -4.15533 0
M  V30 720 N 73.905 1.17692 -1.04816 0
M  V30 721 C 74.838 2.20436 -0.590173 0
M  V30 722 C 75.816 1.58115 0.379244 0
M  V30 723 O 77 1.86228 0.291762 0
M  V30 724 C 74.127 3.38424 0.136817 0
M  V30 725 C 73.173 4.19176 -0.787023 0
M  V30 726 S 74.006 4.84815 -2.27409 0
M  V30 727 C 75.162 6.06195 -1.55817 0
M  V30 728 H 75.395 2.58944 -1.46067 0
M  V30 729 H 72.928 1.28246 -0.859784 0
M  V30 730 H 74.886 4.06798 0.550076 0
M  V30 731 H 73.547 2.98312 0.983299 0
M  V30 732 H 72.74 5.03499 -0.224681 0
M  V30 733 H 72.342 3.56219 -1.13947 0
M  V30 734 H 74.634 6.72078 -0.855387 0
M  V30 735 H 75.577 6.6695 -2.37873 0
M  V30 736 H 75.985 5.54701 -1.04722 0
M  V30 737 N 75.3831 0.828654 1.34056 0
M  V30 738 C 76.6131 0.431993 2.02033 0
M  V30 739 C 77.0211 -0.96844 1.62536 0
M  V30 740 O 76.3641 -1.6391 0.829408 0
M  V30 741 C 76.4261 0.461224 3.56529 0
M  V30 742 C 76.0901 1.81599 4.1937 0
M  V30 743 C 77.0871 2.7777 4.39477 0
M  V30 744 C 74.7721 2.10604 4.56017 0
M  V30 745 C 76.7661 4.01115 4.95364 0
M  V30 746 C 74.4531 3.34207 5.11614 0
M  V30 747 C 75.4511 4.2928 5.31232 0
M  V30 748 O 75.1391 5.50699 5.8565 0
M  V30 749 H 74.8711 0.170943 0.654029 0
M  V30 750 H 77.4251 1.11988 1.72185 0
M  V30 751 H 75.6551 -0.283388 3.8566 0
M  V30 752 H 77.3441 0.0838149 4.05813 0
M  V30 753 H 78.1101 2.56659 4.11523 0
M  V30 754 H 73.9891 1.37402 4.40047 0
M  V30 755 H 77.5331 4.75333 5.10592 0
M  V30 756 H 73.4301 3.55179 5.38997 0
M  V30 757 H 74.1981 5.52298 6.04077 0
M  V30 758 N 76.8612 -1.46375 0.584142 0
M  V30 759 C 78.1012 -2.0427 0.0729695 0
M  V30 760 C 78.4652 -1.44563 -1.26355 0
M  V30 761 O 79.6662 -1.93667 -1.86405 0
M  V30 762 C 77.9372 -3.57399 0.00967464 0
M  V30 763 S 79.4962 -4.36551 -0.443714 0
M  V30 764 H 76.3142 -0.709975 0.0381673 0
M  V30 765 H 78.9162 -1.79398 0.776962 0
M  V30 766 H 77.6202 -3.98372 0.986319 0
M  V30 767 H 77.1512 -3.8681 -0.717044 0
M  V30 768 H 79.1662 -4.66237 -1.69816 0
M  V30 769 N 78.3393 -0.321999 -1.54275 0
M  V30 770 C 79.6163 0.335232 -1.92706 0
M  V30 771 C 79.9963 1.70006 -1.25145 0
M  V30 772 O 79.3443 2.25067 -0.394596 0
M  V30 773 C 79.5543 0.429008 -3.46353 0
M  V30 774 C 80.9023 0.690029 -4.18956 0
M  V30 775 O 81.9263 0.511992 -3.52501 0
M  V30 776 O 80.7853 1.03338 -5.36641 0
M  V30 777 H 77.8793 0.191143 -0.804608 0
M  V30 778 H 80.4253 -0.3716 -1.65581 0
M  V30 779 H 79.1973 -0.529611 -3.87699 0
M  V30 780 H 78.8203 1.18348 -3.79578 0
M  V30 781 N 79.8174 1.5752 -0.0501392 0
M  V30 782 C 80.7274 2.14952 0.939827 0
M  V30 783 C 81.7434 1.10706 1.34239 0
M  V30 784 O 82.9194 1.42869 1.41952 0
M  V30 785 C 79.9844 2.68232 2.19665 0
M  V30 786 C 79.0454 3.87272 1.85253 0
M  V30 787 C 78.2784 4.38002 3.04943 0
M  V30 788 O 78.5014 3.87811 4.18281 0
M  V30 789 O 77.4354 5.29602 2.86017 0
M  V30 790 H 81.2614 2.9986 0.481392 0
M  V30 791 H 78.8464 1.4841 0.171699 0
M  V30 792 H 80.7284 3.02475 2.93406 0
M  V30 793 H 79.4034 1.86395 2.64648 0
M  V30 794 H 78.3104 3.5792 1.0883 0
M  V30 795 H 79.6434 4.70336 1.4507 0
M  V30 796 N 81.2955 -0.223234 1.56011 0
M  V30 797 C 82.2255 -1.27988 1.95298 0
M  V30 798 C 83.2065 -1.48976 0.820979 0
M  V30 799 O 84.3915 -1.61188 1.08315 0
M  V30 800 C 81.5215 -2.63 2.26822 0
M  V30 801 C 80.4755 -2.56671 3.42497 0
M  V30 802 C 79.8015 -3.95697 3.59622 0
M  V30 803 C 81.1015 -2.11601 4.77517 0
M  V30 804 H 82.7955 -0.953525 2.8381 0
M  V30 805 H 80.3415 -0.457244 1.36548 0
M  V30 806 H 82.2945 -3.37077 2.52898 0
M  V30 807 H 81.0185 -2.9732 1.35161 0
M  V30 808 H 79.6775 -1.85051 3.16467 0
M  V30 809 H 79.3255 -4.27322 2.6534 0
M  V30 810 H 79.0255 -3.92345 4.37424 0
M  V30 811 H 80.5495 -4.71438 3.88044 0
M  V30 812 H 81.9635 -2.7542 5.02809 0
M  V30 813 H 80.3605 -2.19311 5.5859 0
M  V30 814 H 81.4305 -1.06824 4.72987 0
M  V30 815 N 82.7736 -1.49793 -0.48987 0
M  V30 816 C 83.7206 -1.67281 -1.59014 0
M  V30 817 C 84.6906 -0.514177 -1.57941 0
M  V30 818 O 85.8756 -0.742533 -1.75759 0
M  V30 819 C 83.0156 -1.75569 -2.97102 0
M  V30 820 C 82.1286 -3.0281 -3.08107 0
M  V30 821 C 81.2636 -3.02008 -4.36995 0
M  V30 822 C 80.3026 -4.23782 -4.41673 0
M  V30 823 N 79.4396 -4.20826 -5.62005 0
M  V30 824 H 84.2796 -2.61224 -1.43409 0
M  V30 825 H 81.8166 -1.29508 -0.697565 0
M  V30 826 H 83.7746 -1.78354 -3.77155 0
M  V30 827 H 82.4046 -0.850827 -3.11385 0
M  V30 828 H 81.4566 -3.09584 -2.21047 0
M  V30 829 H 82.7686 -3.92801 -3.07423 0
M  V30 830 H 81.9226 -3.03418 -5.25378 0
M  V30 831 H 80.6616 -2.09815 -4.4026 0
M  V30 832 H 79.6666 -4.22604 -3.5169 0
M  V30 833 H 80.8916 -5.17181 -4.40115 0
M  V30 834 H 78.8376 -3.31476 -5.66091 0
M  V30 835 H 78.7546 -5.04564 -5.62984 0
M  V30 836 H 80.0226 -4.26355 -6.52565 0
M  V30 837 N 84.2517 0.741722 -1.39055 0
M  V30 838 C 85.1817 1.869 -1.39966 0
M  V30 839 C 86.1627 1.6804 -0.26392 0
M  V30 840 O 87.3477 1.88458 -0.468755 0
M  V30 841 C 84.4777 3.24572 -1.23574 0
M  V30 842 C 83.4317 3.58056 -2.34477 0
M  V30 843 C 82.7577 4.94593 -2.0318 0
M  V30 844 C 84.0577 3.61716 -3.76774 0
M  V30 845 H 85.7517 1.86395 -2.34302 0
M  V30 846 H 83.2977 0.895361 -1.1278 0
M  V30 847 H 85.2507 4.031 -1.22834 0
M  V30 848 H 83.9747 3.25587 -0.257045 0
M  V30 849 H 82.6337 2.81854 -2.34423 0
M  V30 850 H 82.2817 4.92181 -1.03765 0
M  V30 851 H 81.9817 5.17964 -2.77465 0
M  V30 852 H 83.5057 5.75486 -2.04079 0
M  V30 853 H 84.9197 4.30335 -3.78794 0
M  V30 854 H 83.3167 3.96603 -4.50362 0
M  V30 855 H 84.3867 2.61672 -4.08235 0
M  V30 856 N 85.7298 1.2412 0.971189 0
M  V30 857 C 86.6768 1.0305 2.06517 0
M  V30 858 C 87.6468 -0.0550666 1.66009 0
M  V30 859 O 88.8318 0.0988688 1.90544 0
M  V30 860 C 85.9718 0.637653 3.39158 0
M  V30 861 C 85.0848 1.79633 3.92882 0
M  V30 862 C 84.2198 1.34939 5.13775 0
M  V30 863 C 83.2588 2.47823 5.59687 0
M  V30 864 N 82.3958 2.04022 6.71803 0
M  V30 865 H 87.2358 1.96685 2.23873 0
M  V30 866 H 84.7728 0.979694 1.09729 0
M  V30 867 H 86.7308 0.390931 4.15364 0
M  V30 868 H 85.3608 -0.261693 3.21737 0
M  V30 869 H 84.4128 2.15681 3.13346 0
M  V30 870 H 85.7248 2.64466 4.22918 0
M  V30 871 H 84.8788 1.06134 5.97345 0
M  V30 872 H 83.6178 0.471557 4.85415 0
M  V30 873 H 82.6228 2.77392 4.74693 0
M  V30 874 H 83.8478 3.36158 5.90063 0
M  V30 875 H 81.7938 1.18632 6.45184 0
M  V30 876 H 81.7108 2.82409 7.01271 0
M  V30 877 H 82.9788 1.78347 7.58823 0
M  V30 878 N 87.2079 -1.17134 1.05439 0
M  V30 879 C 88.4329 -1.91913 0.786396 0
M  V30 880 C 88.8579 -1.7643 -0.652234 0
M  V30 881 O 88.2159 -1.08372 -1.45345 0
M  V30 882 C 88.2639 -3.40921 1.17497 0
M  V30 883 O 87.3679 -4.11244 0.308589 0
M  V30 884 H 86.7089 -0.598215 0.288158 0
M  V30 885 H 89.2389 -1.48457 1.4079 0
M  V30 886 H 89.2489 -3.91668 1.14281 0
M  V30 887 H 87.9239 -3.5151 2.22292 0
M  V30 888 H 86.5009 -3.70731 0.40157 0
M  V30 889 N 88.686 -0.835752 -1.33615 0
M  V30 890 C 89.932 -0.430596 -1.98176 0
M  V30 891 C 90.265 1.00684 -1.66061 0
M  V30 892 O 89.54 1.70339 -0.938877 0
M  V30 893 C 89.823 -0.648065 -3.5422 0
M  V30 894 C 89.676 -2.13255 -3.96033 0
M  V30 895 C 90.995 -0.0922113 -4.40003 0
M  V30 896 H 88.114 -0.157924 -0.719881 0
M  V30 897 H 90.756 -1.05069 -1.58305 0
M  V30 898 H 88.906 -0.120237 -3.88314 0
M  V30 899 H 90.578 -2.725 -3.72211 0
M  V30 900 H 88.821 -2.61823 -3.45878 0
M  V30 901 H 89.492 -2.23547 -5.04708 0
M  V30 902 H 91.968 -0.543343 -4.12537 0
M  V30 903 H 90.844 -0.274083 -5.48215 0
M  V30 904 H 91.105 1.00378 -4.30554 0
M  V30 905 N 90.1641 1.46063 -0.591896 0
M  V30 906 C 91.5751 1.85944 -0.167822 0
M  V30 907 C 91.9261 1.49429 1.27143 0
M  V30 908 O 91.0511 0.913515 1.96173 0
M  V30 909 C 91.6461 3.37489 -0.297794 0
M  V30 910 C 90.2051 3.76332 0.0714732 0
M  V30 911 C 89.3521 2.7006 -0.629509 0
M  V30 912 H 92.3031 1.37087 -0.799555 0
M  V30 913 H 92.3241 3.77532 0.474349 0
M  V30 914 H 91.8361 3.64034 -1.3454 0
M  V30 915 H 89.9371 3.55405 1.11886 0
M  V30 916 H 90.0501 4.78088 -0.311245 0
M  V30 917 H 88.4141 2.54607 -0.0687867 0
M  V30 918 H 89.1971 2.99444 -1.67894 0
M  V30 919 N 91.6422 0.330177 1.54103 0
M  V30 920 C 92.5752 -0.575477 2.20825 0
M  V30 921 C 93.5532 -1.11064 1.18758 0
M  V30 922 O 94.7372 -1.17341 1.47524 0
M  V30 923 C 91.8642 -1.79032 2.87516 0
M  V30 924 C 90.9102 -1.38581 4.03358 0
M  V30 925 S 91.7432 -0.416911 5.33875 0
M  V30 926 C 92.8992 -1.63889 6.04062 0
M  V30 927 H 93.1322 -0.00872114 2.97299 0
M  V30 928 H 90.6652 0.114254 1.53977 0
M  V30 929 H 92.6232 -2.48734 3.2656 0
M  V30 930 H 91.2842 -2.32827 2.10832 0
M  V30 931 H 90.4772 -2.29123 4.48908 0
M  V30 932 H 90.0792 -0.768419 3.66021 0
M  V30 933 H 92.3712 -2.57536 6.26643 0
M  V30 934 H 93.3142 -1.22542 6.97416 0
M  V30 935 H 93.7222 -1.82887 5.34053 0
M  V30 936 N 93.1203 -1.57491 0.0584922 0
M  V30 937 C 94.3663 -1.93264 -0.614558 0
M  V30 938 C 94.6993 -0.937717 -1.7006 0
M  V30 939 O 93.9743 0.0351652 -1.94468 0
M  V30 940 C 94.2573 -3.3938 -1.20386 0
M  V30 941 C 94.1103 -4.49625 -0.125375 0
M  V30 942 C 95.4293 -3.86039 -2.11334 0
M  V30 943 H 92.5483 -0.702791 -0.221933 0
M  V30 944 H 95.1903 -1.8961 0.12175 0
M  V30 945 H 93.3403 -3.42626 -1.83139 0
M  V30 946 H 95.0123 -4.58506 0.506971 0
M  V30 947 H 93.2553 -4.30354 0.545672 0
M  V30 948 H 93.9263 -5.48967 -0.577861 0
M  V30 949 H 96.4023 -3.84716 -1.58534 0
M  V30 950 H 95.2783 -4.88914 -2.49507 0
M  V30 951 H 95.5393 -3.23215 -3.01636 0
M  V30 952 N 94.5984 0.214957 -1.56127 0
M  V30 953 C 96.0094 0.781386 -1.69562 0
M  V30 954 C 96.3604 1.84707 -0.66165 0
M  V30 955 O 95.4854 2.156 0.185927 0
M  V30 956 C 96.0804 1.42411 -3.07416 0
M  V30 957 C 94.6394 1.93786 -3.22683 0
M  V30 958 C 93.7864 0.800438 -2.65496 0
M  V30 959 H 96.7374 -0.00980633 -1.58697 0
M  V30 960 H 96.7584 2.29309 -3.0364 0
M  V30 961 H 96.2704 0.64826 -3.82648 0
M  V30 962 H 94.3714 2.74152 -2.52332 0
M  V30 963 H 94.4844 2.1133 -4.29973 0
M  V30 964 H 92.8484 1.2095 -2.2415 0
M  V30 965 H 93.6314 0.0371471 -3.4328 0
M  V30 966 N 96.0765 1.50051 0.48192 0
M  V30 967 C 97.4875 1.5348 1.06305 0
M  V30 968 C 97.8385 0.331997 1.93371 0
M  V30 969 O 96.9635 -0.556256 2.09129 0
M  V30 970 C 97.5585 2.7813 1.93466 0
M  V30 971 C 96.1175 2.84275 2.46707 0
M  V30 972 C 95.2645 2.47637 1.24785 0
M  V30 973 H 98.2155 1.56472 0.264995 0
M  V30 974 H 98.2365 2.59372 2.78399 0
M  V30 975 H 97.7485 3.65654 1.30072 0
M  V30 976 H 95.8495 2.01077 3.13686 0
M  V30 977 H 95.9625 3.8691 2.82555 0
M  V30 978 H 94.3265 1.99835 1.57918 0
M  V30 979 H 95.1095 3.37457 0.630694 0
M  V30 980 N 97.5546 -0.734337 1.39446 0
M  V30 981 C 98.8026 -1.49096 1.36436 0
M  V30 982 C 99.1236 -1.94961 -0.0388255 0
M  V30 983 O 98.3936 -1.69033 -0.990191 0
M  V30 984 H 96.9736 -0.5531 0.502085 0
M  V30 985 H 99.6356 -0.871725 1.74319 0
M  V30 986 H 98.7316 -2.37276 2.02747 0
M  V30 987 N 99.0327 -1.24633 -0.964593 0
M  V30 988 C 100.282 -1.08188 -1.7023 0
M  V30 989 C 100.595 0.37873 -1.91898 0
M  V30 990 O 101.801 0.663427 -2.6327 0
M  V30 991 C 100.257 -1.88773 -3.06419 0
M  V30 992 C 99.8647 -3.39263 -2.92582 0
M  V30 993 C 101.609 -1.80867 -3.84041 0
M  V30 994 C 99.5157 -4.1218 -4.24101 0
M  V30 995 H 98.4457 -0.401245 -0.638372 0
M  V30 996 H 101.097 -1.48742 -1.07462 0
M  V30 997 H 99.4787 -1.41035 -3.70034 0
M  V30 998 H 100.653 -3.94603 -2.37961 0
M  V30 999 H 98.9677 -3.48154 -2.28424 0
M  V30 1000 H 101.565 -2.32646 -4.81435 0
M  V30 1001 H 101.908 -0.774543 -4.09031 0
M  V30 1002 H 102.441 -2.26301 -3.27159 0
M  V30 1003 H 99.1797 -5.15965 -4.04303 0
M  V30 1004 H 98.6997 -3.61626 -4.78526 0
M  V30 1005 H 100.379 -4.19349 -4.92702 0
M  V30 1006 N 100.511 1.16574 -1.06058 0
M  V30 1007 C 101.458 2.20883 -0.669263 0
M  V30 1008 C 102.428 1.62729 0.332918 0
M  V30 1009 O 103.613 1.895 0.222346 0
M  V30 1010 C 100.753 3.45049 -0.0593572 0
M  V30 1011 C 99.8658 4.17458 -1.11143 0
M  V30 1012 C 99.0008 5.29135 -0.467916 0
M  V30 1013 C 98.0398 5.93343 -1.50369 0
M  V30 1014 N 97.1768 6.96516 -0.883706 0
M  V30 1015 H 102.017 2.53709 -1.5632 0
M  V30 1016 H 99.5538 1.24616 -0.781625 0
M  V30 1017 H 101.512 4.16033 0.311771 0
M  V30 1018 H 100.142 3.12781 0.797992 0
M  V30 1019 H 99.1938 3.45101 -1.60029 0
M  V30 1020 H 100.506 4.61307 -1.89731 0
M  V30 1021 H 99.6598 6.06684 -0.0436871 0
M  V30 1022 H 98.3988 4.86443 0.349864 0
M  V30 1023 H 97.4038 5.14517 -1.93784 0
M  V30 1024 H 98.6288 6.38114 -2.32352 0
M  V30 1025 H 96.5748 6.55943 -0.086595 0
M  V30 1026 H 96.4918 7.38723 -1.607 0
M  V30 1027 H 97.7598 7.77993 -0.484543 0
M  V30 1028 N 101.989 0.842826 1.3317 0
M  V30 1029 C 103.219 0.453397 2.01564 0
M  V30 1030 C 103.627 -0.951147 1.63554 0
M  V30 1031 O 102.97 -1.63021 0.846746 0
M  V30 1032 C 103.032 0.499013 3.5602 0
M  V30 1033 C 102.696 1.86037 4.1742 0
M  V30 1034 C 103.693 2.82416 4.36506 0
M  V30 1035 C 101.378 2.15428 4.53757 0
M  V30 1036 C 103.372 4.06346 4.91082 0
M  V30 1037 C 101.059 3.39615 5.0804 0
M  V30 1038 C 102.057 4.3489 5.26649 0
M  V30 1039 O 101.745 5.5688 5.79776 0
M  V30 1040 H 101.477 0.177871 0.652179 0
M  V30 1041 H 104.031 1.13808 1.70988 0
M  V30 1042 H 102.261 -0.242467 3.85939 0
M  V30 1043 H 103.95 0.126852 4.05702 0
M  V30 1044 H 104.716 2.6101 4.08777 0
M  V30 1045 H 100.595 1.42061 4.38565 0
M  V30 1046 H 104.139 4.80722 5.05522 0
M  V30 1047 H 100.036 3.60876 5.352 0
M  V30 1048 H 100.804 5.58674 5.98185 0
M  V30 1049 N 103.467 -1.45747 0.599634 0
M  V30 1050 C 104.397 -2.33235 -0.111306 0
M  V30 1051 C 105.378 -1.46359 -0.866781 0
M  V30 1052 O 106.563 -1.75146 -0.838904 0
M  V30 1053 C 103.693 -3.28932 -1.11451 0
M  V30 1054 C 102.647 -4.25381 -0.472772 0
M  V30 1055 C 101.973 -5.1071 -1.58365 0
M  V30 1056 C 103.273 -5.18831 0.600948 0
M  V30 1057 H 104.967 -2.92927 0.61919 0
M  V30 1058 H 102.513 -1.40857 0.299215 0
M  V30 1059 H 104.466 -3.89002 -1.62036 0
M  V30 1060 H 103.19 -2.67381 -1.8755 0
M  V30 1061 H 101.849 -3.66598 0.0121472 0
M  V30 1062 H 101.497 -4.45533 -2.33473 0
M  V30 1063 H 101.197 -5.7604 -1.15982 0
M  V30 1064 H 102.721 -5.73647 -2.09194 0
M  V30 1065 H 104.135 -5.73019 0.179491 0
M  V30 1066 H 102.532 -5.92595 0.946076 0
M  V30 1067 H 103.602 -4.6174 1.48068 0
M  V30 1068 N 104.945 -0.338344 -1.53925 0
M  V30 1069 C 106.175 0.260919 -2.04946 0
M  V30 1070 C 106.583 1.45174 -1.2133 0
M  V30 1071 O 105.926 1.82122 -0.240262 0
M  V30 1072 C 105.988 0.744596 -3.51704 0
M  V30 1073 C 105.652 -0.325883 -4.55837 0
M  V30 1074 C 106.649 -1.16687 -5.06636 0
M  V30 1075 C 104.334 -0.478317 -5.00017 0
M  V30 1076 C 106.328 -2.14588 -6.00192 0
M  V30 1077 C 104.015 -1.46073 -5.93385 0
M  V30 1078 C 105.013 -2.29297 -6.4336 0
M  V30 1079 O 104.701 -3.25867 -7.34892 0
M  V30 1080 H 104.433 0.0551207 -0.673749 0
M  V30 1081 H 106.987 -0.486984 -1.99544 0
M  V30 1082 H 105.217 1.54366 -3.54553 0
M  V30 1083 H 106.906 1.26383 -3.85723 0
M  V30 1084 H 107.672 -1.06016 -4.73271 0
M  V30 1085 H 103.551 0.159613 -4.60724 0
M  V30 1086 H 107.095 -2.79585 -6.39123 0
M  V30 1087 H 102.992 -1.56802 -6.26166 0
M  V30 1088 H 103.76 -3.21278 -7.5281 0
M  V30 1089 N 106.423 1.57458 -0.0668435 0
M  V30 1090 C 107.353 2.15468 0.899764 0
M  V30 1091 C 108.334 1.08042 1.31381 0
M  V30 1092 O 109.519 1.36054 1.38574 0
M  V30 1093 C 106.649 2.71232 2.16911 0
M  V30 1094 C 105.603 3.83781 1.89463 0
M  V30 1095 C 104.929 4.26127 3.22986 0
M  V30 1096 C 106.229 5.08238 1.20381 0
M  V30 1097 H 107.923 2.96488 0.416529 0
M  V30 1098 H 105.469 1.4262 0.198908 0
M  V30 1099 H 107.422 3.10458 2.84945 0
M  V30 1100 H 106.146 1.87426 2.67468 0
M  V30 1101 H 104.805 3.45051 1.23836 0
M  V30 1102 H 104.453 3.39249 3.71374 0
M  V30 1103 H 104.153 5.01993 3.05413 0
M  V30 1104 H 105.677 4.67966 3.92225 0
M  V30 1105 H 107.091 5.44811 1.78475 0
M  V30 1106 H 105.488 5.89349 1.13083 0
M  V30 1107 H 106.558 4.84558 0.182153 0
M  V30 1108 N 107.901 -0.206675 1.56239 0
M  V30 1109 C 109.317 -0.557025 1.49564 0
M  V30 1110 C 109.517 -1.86424 0.764735 0
M  V30 1111 O 108.573 -2.50584 0.310491 0
M  V30 1112 C 109.886 -0.622478 2.94186 0
M  V30 1113 C 111.434 -0.712099 3.04792 0
M  V30 1114 C 111.909 -0.808767 4.50803 0
M  V30 1115 N 113.4 -0.8726 4.54907 0
M  V30 1116 C 114.135 -0.967365 5.65181 0
M  V30 1117 N 113.631 -1.02515 6.85173 0
M  V30 1118 N 115.424 -1.00366 5.53067 0
M  V30 1119 H 107.575 0.650943 2.02179 0
M  V30 1120 H 109.838 0.230387 0.919579 0
M  V30 1121 H 109.544 0.268727 3.50672 0
M  V30 1122 H 109.418 -1.4811 3.46905 0
M  V30 1123 H 111.805 -1.59374 2.48363 0
M  V30 1124 H 111.886 0.172489 2.55218 0
M  V30 1125 H 111.53 0.0684754 5.07854 0
M  V30 1126 H 111.46 -1.70899 4.98098 0
M  V30 1127 H 113.951 -0.837657 3.68499 0
M  V30 1128 H 114.264 -1.09765 7.64965 0
M  V30 1129 H 112.609 -0.994026 6.87855 0
M  V30 1130 H 115.8 -0.95527 4.58249 0
M  V30 1131 H 115.973 -1.07405 6.39037 0
M  V30 1132 N 109.379 -1.50304 -0.473955 0
M  V30 1133 C 110.327 -1.69482 -1.59307 0
M  V30 1134 C 111.321 -0.560669 -1.59853 0
M  V30 1135 O 112.527 -0.741087 -1.64036 0
M  V30 1136 H 108.902 -0.534892 -0.528578 0
M  V30 1137 H 110.873 -2.63364 -1.40293 0
M  V30 1138 C 109.622 -1.80354 -2.97267 0
M  V30 1139 H 108.945 -2.67012 -2.97564 0
M  V30 1140 H 110.385 -1.97798 -3.75036 0
M  V30 1141 C 108.844 -0.55448 -3.32306 0
M  V30 1142 O 109.374 0.307661 -4.0052 0
M  V30 1143 N 107.58 -0.409354 -2.87702 0
M  V30 1144 H 107.127 -1.11196 -2.32364 0
M  V30 1145 H 107.085 0.425223 -3.11511 0
M  V30 1146 N 110.857 0.726932 -1.39834 0
M  V30 1147 C 111.805 1.86235 -1.39353 0
M  V30 1148 C 112.799 1.67144 -0.275555 0
M  V30 1149 O 114.005 1.74387 -0.44601 0
M  V30 1150 H 110.38 0.613174 -0.43534 0
M  V30 1151 H 112.351 1.83756 -2.35109 0
M  V30 1152 C 111.1 3.23995 -1.26185 0
M  V30 1153 H 110.423 3.39285 -2.11484 0
M  V30 1154 H 111.863 4.03609 -1.29907 0
M  V30 1155 C 110.322 3.36888 0.0290018 0
M  V30 1156 O 110.852 3.89152 0.99619 0
M  V30 1157 N 109.058 2.90446 0.0947437 0
M  V30 1158 H 108.605 2.48102 -0.693035 0
M  V30 1159 H 108.563 2.99451 0.957932 0
M  V30 1160 N 112.336 1.25143 0.95797 0
M  V30 1161 C 113.268 1.01023 2.05735 0
M  V30 1162 C 114.281 -0.0236902 1.62783 0
M  V30 1163 O 115.47 0.21448 1.77207 0
M  V30 1164 C 112.57 0.504595 3.35122 0
M  V30 1165 C 111.743 1.6039 4.06932 0
M  V30 1166 C 110.802 1.09922 5.14591 0
M  V30 1167 O 109.828 1.79293 5.40225 0
M  V30 1168 N 111.03 -0.0612545 5.80468 0
M  V30 1169 H 113.795 1.95683 2.26998 0
M  V30 1170 H 111.356 1.16303 1.12629 0
M  V30 1171 H 113.348 0.151516 4.04416 0
M  V30 1172 H 111.918 -0.347989 3.10657 0
M  V30 1173 H 111.138 2.12872 3.31782 0
M  V30 1174 H 112.426 2.34252 4.51667 0
M  V30 1175 H 111.824 -0.640985 5.62057 0
M  V30 1176 H 110.381 -0.355395 6.5083 0
M  V30 1177 N 113.814 -1.1601 1.06675 0
M  V30 1178 C 115.063 -1.85973 0.780818 0
M  V30 1179 C 115.376 -1.82819 -0.695444 0
M  V30 1180 O 116.582 -2.484 -1.09589 0
M  V30 1181 C 115.038 -3.33757 1.34665 0
M  V30 1182 C 114.646 -3.45374 2.85343 0
M  V30 1183 C 116.39 -4.0895 1.13843 0
M  V30 1184 C 114.297 -4.87266 3.35151 0
M  V30 1185 H 113.227 -0.696661 0.288407 0
M  V30 1186 H 115.878 -1.30903 1.28595 0
M  V30 1187 H 114.26 -3.88456 0.769274 0
M  V30 1188 H 115.434 -3.00816 3.49065 0
M  V30 1189 H 113.749 -2.83619 3.04876 0
M  V30 1190 H 116.346 -5.13654 1.4854 0
M  V30 1191 H 116.689 -4.16229 0.0770282 0
M  V30 1192 H 117.222 -3.605 1.68179 0
M  V30 1193 H 113.961 -4.85168 4.40786 0
M  V30 1194 H 113.481 -5.32433 2.76179 0
M  V30 1195 H 115.16 -5.56097 3.30704 0
M  V30 1196 N 115.292 -0.849877 -1.32721 0
M  V30 1197 C 116.569 -0.372405 -1.92022 0
M  V30 1198 C 116.949 1.1435 -1.77447 0
M  V30 1199 O 116.297 1.96296 -1.16962 0
M  V30 1200 C 116.507 -0.831482 -3.3895 0
M  V30 1201 C 117.855 -0.845882 -4.16089 0
M  V30 1202 O 118.879 -0.775806 -3.47649 0
M  V30 1203 O 117.738 -0.943753 -5.38289 0
M  V30 1204 H 114.832 -0.107667 -0.819961 0
M  V30 1205 H 117.378 -0.93646 -1.41522 0
M  V30 1206 H 116.15 -1.87448 -3.4348 0
M  V30 1207 H 115.773 -0.24461 -3.96847 0
M  V30 1208 N 116.77 1.45427 -0.607355 0
M  V30 1209 C 117.72 2.27612 0.133038 0
M  V30 1210 C 118.704 1.37307 0.838785 0
M  V30 1211 O 119.896 1.61299 0.728813 0
M  V30 1212 C 117.025 3.24173 1.12991 0
M  V30 1213 C 116.111 4.21965 0.425011 0
M  V30 1214 N 116.502 5.02982 -0.533217 0
M  V30 1215 C 114.8 4.40899 0.672593 0
M  V30 1216 C 115.501 5.73931 -0.947518 0
M  V30 1217 N 114.477 5.42819 -0.291321 0
M  V30 1218 H 118.279 2.87649 -0.602935 0
M  V30 1219 H 115.793 1.56576 -0.431006 0
M  V30 1220 H 117.79 3.81783 1.67473 0
M  V30 1221 H 116.45 2.65696 1.86644 0
M  V30 1222 H 117.461 5.09843 -0.90995 0
M  V30 1223 H 114.138 3.93547 1.39382 0
M  V30 1224 H 115.528 6.49037 -1.73782 0
M  V30 1225 N 118.248 0.346503 1.53744 0
M  V30 1226 C 119.497 -0.250122 2.00143 0
M  V30 1227 C 119.81 -1.51418 1.23822 0
M  V30 1228 O 121.016 -2.18823 1.60713 0
M  V30 1229 C 119.472 -0.496252 3.56462 0
M  V30 1230 C 119.08 0.752077 4.41642 0
M  V30 1231 C 120.824 -1.05157 4.11269 0
M  V30 1232 C 118.731 0.476583 5.89477 0
M  V30 1233 H 117.661 -0.0972409 0.747703 0
M  V30 1234 H 120.312 0.46229 1.77581 0
M  V30 1235 H 118.694 -1.26944 3.75102 0
M  V30 1236 H 119.868 1.5266 4.34778 0
M  V30 1237 H 118.183 1.22925 3.97842 0
M  V30 1238 H 120.78 -1.27269 5.19333 0
M  V30 1239 H 121.123 -2.00799 3.64672 0
M  V30 1240 H 121.656 -0.339019 3.96353 0
M  V30 1241 H 118.395 1.4028 6.40314 0
M  V30 1242 H 117.915 -0.259794 5.99237 0
M  V30 1243 H 119.594 0.0949315 6.4693 0
M  V30 1244 N 119.726 -1.57421 0.075193 0
M  V30 1245 C 121.003 -1.85029 -0.634329 0
M  V30 1246 C 121.383 -0.968305 -1.87582 0
M  V30 1247 O 120.731 -0.0354749 -2.28472 0
M  V30 1248 C 120.941 -3.35286 -0.968742 0
M  V30 1249 C 122.289 -4.02875 -1.34077 0
M  V30 1250 O 123.313 -3.40051 -1.06037 0
M  V30 1251 O 122.172 -5.13691 -1.86506 0
M  V30 1252 H 119.266 -0.7645 -0.315387 0
M  V30 1253 H 121.812 -1.69366 0.106382 0
M  V30 1254 H 120.584 -3.91203 -0.0871376 0
M  V30 1255 H 120.207 -3.56223 -1.7661 0
M  V30 1256 N 121.204 0.198386 -1.56346 0
M  V30 1257 C 122.114 1.2664 -1.97483 0
M  V30 1258 C 123.13 1.49989 -0.882002 0
M  V30 1259 O 124.306 1.62668 -1.18748 0
M  V30 1260 C 121.371 2.59141 -2.30319 0
M  V30 1261 C 120.432 2.43892 -3.53292 0
M  V30 1262 C 119.665 3.70074 -3.84553 0
M  V30 1263 O 119.888 4.74101 -3.1715 0
M  V30 1264 O 118.822 3.658 -4.7799 0
M  V30 1265 H 122.648 0.947304 -2.88548 0
M  V30 1266 H 120.233 0.403123 -1.43859 0
M  V30 1267 H 122.115 3.37352 -2.5253 0
M  V30 1268 H 120.79 2.90684 -1.42423 0
M  V30 1269 H 119.697 1.63803 -3.36332 0
M  V30 1270 H 121.03 2.17282 -4.41644 0
M  V30 1271 N 122.682 1.50554 0.465978 0
M  V30 1272 C 123.629 1.6979 1.56333 0
M  V30 1273 C 124.599 0.539239 1.57103 0
M  V30 1274 O 125.784 0.770401 1.74555 0
M  V30 1275 C 122.924 1.80273 2.94271 0
M  V30 1276 C 122.037 3.07674 3.0325 0
M  V30 1277 C 121.172 3.08922 4.32135 0
M  V30 1278 C 120.211 4.30755 4.34875 0
M  V30 1279 N 119.348 4.29714 5.55239 0
M  V30 1280 H 124.188 2.63472 1.39235 0
M  V30 1281 H 121.725 1.30602 0.676873 0
M  V30 1282 H 123.683 1.84332 3.74269 0
M  V30 1283 H 122.313 0.900258 3.09992 0
M  V30 1284 H 121.365 3.13062 2.16094 0
M  V30 1285 H 122.677 3.97642 3.01135 0
M  V30 1286 H 121.831 3.11738 5.20485 0
M  V30 1287 H 120.57 2.16792 4.36866 0
M  V30 1288 H 119.575 4.28146 3.44922 0
M  V30 1289 H 120.8 5.24117 4.31831 0
M  V30 1290 H 118.746 3.4044 5.60746 0
M  V30 1291 H 118.663 5.13456 5.54886 0
M  V30 1292 H 119.931 4.36683 6.457 0
M  V30 1293 N 124.16 -0.719506 1.40217 0
M  V30 1294 C 125.123 -1.8153 1.39927 0
M  V30 1295 C 126.123 -1.58095 0.293723 0
M  V30 1296 O 127.313 -1.65209 0.552429 0
M  V30 1297 C 124.445 -3.19561 1.18716 0
M  V30 1298 H 125.638 -1.83186 2.37451 0
M  V30 1299 H 123.191 -0.924746 1.26008 0
M  V30 1300 H 123.926 -3.23557 0.219366 0
M  V30 1301 H 123.711 -3.3797 1.98793 0
M  V30 1302 H 125.201 -3.99598 1.21291 0
M  V30 1303 N 125.638 -1.25649 -0.95132 0
M  V30 1304 C 126.885 -1.10594 -1.69633 0
M  V30 1305 C 127.213 0.352515 -1.91279 0
M  V30 1306 O 126.468 1.27601 -1.4838 0
M  V30 1307 C 126.767 -1.80909 -3.08231 0
M  V30 1308 C 126.433 -3.30825 -3.06375 0
M  V30 1309 C 125.095 -3.71722 -3.05576 0
M  V30 1310 C 127.447 -4.26589 -2.99452 0
M  V30 1311 C 124.775 -5.06788 -2.95606 0
M  V30 1312 C 127.127 -5.61683 -2.91024 0
M  V30 1313 C 125.791 -6.01904 -2.88562 0
M  V30 1314 H 125.061 -0.404691 -0.620731 0
M  V30 1315 H 127.708 -1.55964 -1.11119 0
M  V30 1316 H 126.013 -1.27979 -3.70309 0
M  V30 1317 H 127.71 -1.6671 -3.64704 0
M  V30 1318 H 124.3 -2.98287 -3.07771 0
M  V30 1319 H 128.484 -3.95982 -2.99185 0
M  V30 1320 H 123.74 -5.37126 -2.92071 0
M  V30 1321 H 127.914 -6.35578 -2.84629 0
M  V30 1322 H 125.541 -7.06521 -2.80593 0
M  V30 1323 N 127.117 1.15442 -1.07289 0
M  V30 1324 C 128.027 2.23786 -0.704057 0
M  V30 1325 C 129.043 1.7166 0.284413 0
M  V30 1326 O 130.219 2.00972 0.131205 0
M  V30 1327 C 127.284 3.46535 -0.106792 0
M  V30 1328 C 126.345 4.13654 -1.14842 0
M  V30 1329 C 125.578 5.30544 -0.57956 0
M  V30 1330 O 125.801 5.67187 0.604585 0
M  V30 1331 O 124.735 5.87154 -1.32414 0
M  V30 1332 H 128.561 2.57664 -1.60757 0
M  V30 1333 H 126.146 1.23152 -0.845803 0
M  V30 1334 H 128.028 4.20804 0.224048 0
M  V30 1335 H 126.703 3.14407 0.770049 0
M  V30 1336 H 125.61 3.4131 -1.5316 0
M  V30 1337 H 126.943 4.49861 -1.99714 0
M  V30 1338 N 128.595 0.856903 1.32268 0
M  V30 1339 C 129.543 0.291987 2.3076 0
M  V30 1340 C 130.537 -0.585857 1.58947 0
M  V30 1341 O 131.743 -0.47341 1.73663 0
M  V30 1342 H 128.118 0.075721 0.748178 0
M  V30 1343 H 130.089 1.13687 2.75895 0
M  V30 1344 C 128.838 -0.502869 3.44044 0
M  V30 1345 H 128.161 0.163328 3.99466 0
M  V30 1346 H 129.601 -0.863691 4.1511 0
M  V30 1347 C 128.06 -1.68898 2.91505 0
M  V30 1348 O 128.59 -2.78811 2.89184 0
M  V30 1349 N 126.796 -1.51679 2.47875 0
M  V30 1350 H 126.343 -0.622666 2.49961 0
M  V30 1351 H 126.301 -2.31184 2.13076 0
M  V30 1352 N 130.073 -1.45103 0.615059 0
M  V30 1353 C 131.319 -2.02483 0.113347 0
M  V30 1354 C 131.652 -1.48146 -1.25564 0
M  V30 1355 O 130.927 -0.659104 -1.82992 0
M  V30 1356 C 131.21 -3.60005 0.0825278 0
M  V30 1357 C 131.063 -4.2466 1.48271 0
M  V30 1358 C 132.382 -4.35972 -0.601401 0
M  V30 1359 H 129.501 -0.735764 0.0426632 0
M  V30 1360 H 132.143 -1.72868 0.788461 0
M  V30 1361 H 130.293 -3.85367 -0.492378 0
M  V30 1362 H 131.965 -4.10458 2.10527 0
M  V30 1363 H 130.208 -3.82772 2.04127 0
M  V30 1364 H 130.879 -5.336 1.41332 0
M  V30 1365 H 133.355 -4.15947 -0.112666 0
M  V30 1366 H 132.231 -5.45697 -0.592097 0
M  V30 1367 H 132.492 -4.09391 -1.66887 0
M  V30 1368 N 131.551 -0.354651 -1.53558 0
M  V30 1369 C 132.779 0.239515 -2.05509 0
M  V30 1370 C 133.194 1.4333 -1.2289 0
M  V30 1371 O 132.551 1.80538 -0.266899 0
M  V30 1372 C 132.602 0.643719 -3.55723 0
M  V30 1373 O 132.323 -0.502602 -4.35207 0
M  V30 1374 C 133.824 1.29743 -4.23889 0
M  V30 1375 H 131.044 0.0442697 -0.669538 0
M  V30 1376 H 133.588 -0.509856 -1.98042 0
M  V30 1377 H 131.743 1.34302 -3.63376 0
M  V30 1378 H 132.157 -0.178172 -5.24197 0
M  V30 1379 H 133.631 1.53091 -5.30346 0
M  V30 1380 H 134.108 2.25441 -3.76926 0
M  V30 1381 H 134.714 0.639865 -4.20459 0
M  V30 1382 N 133.029 1.57378 -0.0835403 0
M  V30 1383 C 134.306 1.85363 0.624507 0
M  V30 1384 C 134.686 0.978239 1.87066 0
M  V30 1385 O 134.034 0.0475908 2.2845 0
M  V30 1386 C 134.244 3.35795 0.950947 0
M  V30 1387 C 135.592 4.03581 1.31939 0
M  V30 1388 O 136.616 3.40609 1.04232 0
M  V30 1389 O 135.475 5.14672 1.83779 0
M  V30 1390 H 132.569 0.766162 0.311329 0
M  V30 1391 H 135.115 1.69307 -0.115362 0
M  V30 1392 H 133.887 3.91244 0.0663899 0
M  V30 1393 H 133.51 3.57154 1.74719 0
M  V30 1394 N 134.507 -0.190092 1.56449 0
M  V30 1395 C 135.437 -1.23816 1.97969 0
M  V30 1396 C 136.418 -1.47201 0.852395 0
M  V30 1397 O 137.603 -1.58854 1.1171 0
M  V30 1398 C 134.733 -2.5813 2.3235 0
M  V30 1399 C 133.687 -2.49348 3.47864 0
M  V30 1400 C 133.013 -3.8798 3.67934 0
M  V30 1401 C 134.313 -2.01424 4.81898 0
M  V30 1402 H 136.007 -0.89311 2.85769 0
M  V30 1403 H 133.553 -0.428177 1.37487 0
M  V30 1404 H 135.506 -3.31637 2.59991 0
M  V30 1405 H 134.23 -2.94386 1.41438 0
M  V30 1406 H 132.889 -1.78297 3.20321 0
M  V30 1407 H 132.537 -4.21597 2.74344 0
M  V30 1408 H 132.237 -3.82978 4.45648 0
M  V30 1409 H 133.761 -4.63101 3.97957 0
M  V30 1410 H 135.175 -2.64693 5.08538 0
M  V30 1411 H 133.572 -2.07413 5.63116 0
M  V30 1412 H 134.642 -0.967677 4.75146 0
M  V30 1413 N 135.985 -1.50799 -0.457987 0
M  V30 1414 C 136.917 -1.66786 -1.57211 0
M  V30 1415 C 137.93 -0.548962 -1.53265 0
M  V30 1416 O 139.119 -0.8226 -1.58416 0
M  V30 1417 C 136.219 -1.64834 -2.96113 0
M  V30 1418 C 135.392 -2.92971 -3.24787 0
M  V30 1419 C 134.451 -2.83485 -4.43309 0
M  V30 1420 O 133.477 -3.5744 -4.42973 0
M  V30 1421 N 134.679 -1.97929 -5.45714 0
M  V30 1422 H 137.444 -2.62889 -1.43909 0
M  V30 1423 H 135.005 -1.48427 -0.646617 0
M  V30 1424 H 136.997 -1.56084 -3.7339 0
M  V30 1425 H 135.567 -0.764118 -3.03117 0
M  V30 1426 H 134.787 -3.15749 -2.36 0
M  V30 1427 H 136.075 -3.77834 -3.40762 0
M  V30 1428 H 135.473 -1.37182 -5.48815 0
M  V30 1429 H 134.03 -1.95073 -6.21924 0
M  V30 1430 N 137.463 0.71206 -1.40597 0
M  V30 1431 C 138.709 1.47292 -1.40274 0
M  V30 1432 C 139.064 1.92399 -0.00576812 0
M  V30 1433 O 138.357 1.65507 0.965297 0
M  V30 1434 C 138.551 2.71039 -2.32965 0
M  V30 1435 C 138.38 2.38035 -3.81536 0
M  V30 1436 C 137.15 2.29203 -4.50327 0
M  V30 1437 C 139.348 2.02076 -4.72938 0
M  V30 1438 N 137.33 1.88911 -5.84111 0
M  V30 1439 C 138.701 1.72412 -5.95545 0
M  V30 1440 C 140.756 1.88742 -4.60739 0
M  V30 1441 C 139.459 1.30756 -7.07316 0
M  V30 1442 C 141.485 1.4849 -5.72455 0
M  V30 1443 C 140.847 1.19726 -6.94151 0
M  V30 1444 H 136.946 0.536919 -0.568544 0
M  V30 1445 H 139.53 0.825424 -1.76337 0
M  V30 1446 H 137.701 3.33533 -1.99023 0
M  V30 1447 H 139.433 3.37404 -2.23474 0
M  V30 1448 H 136.188 2.47059 -4.04053 0
M  V30 1449 H 136.612 1.71293 -6.54972 0
M  V30 1450 H 141.254 2.0964 -3.67166 0
M  V30 1451 H 138.972 1.08601 -8.00769 0
M  V30 1452 H 142.558 1.38747 -5.65014 0
M  V30 1453 H 141.438 0.890482 -7.79128 0
M  V30 1454 N 138.941 1.26152 0.944643 0
M  V30 1455 C 139.871 1.09902 2.06019 0
M  V30 1456 C 140.852 0.00519538 1.70099 0
M  V30 1457 O 142.037 0.176583 1.93396 0
M  V30 1458 C 139.167 0.727562 3.39594 0
M  V30 1459 C 138.121 1.77274 3.89561 0
M  V30 1460 C 137.447 1.25569 5.19747 0
M  V30 1461 C 138.747 3.17357 4.14827 0
M  V30 1462 H 140.441 2.03217 2.19871 0
M  V30 1463 H 137.987 0.978452 1.05652 0
M  V30 1464 H 139.94 0.600777 4.17095 0
M  V30 1465 H 138.664 -0.241287 3.25707 0
M  V30 1466 H 137.323 1.88814 3.14237 0
M  V30 1467 H 136.971 0.276783 5.02238 0
M  V30 1468 H 136.671 1.95433 5.54148 0
M  V30 1469 H 138.195 1.1415 5.99835 0
M  V30 1470 H 139.609 3.08914 4.82954 0
M  V30 1471 H 138.006 3.84781 4.60504 0
M  V30 1472 H 139.076 3.63673 3.20734 0
M  V30 1473 N 140.419 -1.14872 1.07899 0
M  V30 1474 C 141.668 -1.85135 0.800499 0
M  V30 1475 C 141.981 -1.83547 -0.676014 0
M  V30 1476 O 143.187 -2.49548 -1.06948 0
M  V30 1477 C 141.643 -3.3231 1.38197 0
M  V30 1478 C 141.251 -3.42329 2.8899 0
M  V30 1479 C 142.995 -4.0772 1.18174 0
M  V30 1480 C 140.902 -4.83684 3.403 0
M  V30 1481 H 139.832 -0.693563 0.29578 0
M  V30 1482 H 142.483 -1.29532 1.29976 0
M  V30 1483 H 140.865 -3.87618 0.810431 0
M  V30 1484 H 142.039 -2.97097 3.52236 0
M  V30 1485 H 140.354 -2.80369 3.07867 0
M  V30 1486 H 142.951 -5.12049 1.5398 0
M  V30 1487 H 143.294 -4.16124 0.12117 0
M  V30 1488 H 143.827 -3.58696 1.71994 0
M  V30 1489 H 140.566 -4.80465 4.45907 0
M  V30 1490 H 140.086 -5.29474 2.81811 0
M  V30 1491 H 141.765 -5.52558 3.36584 0
M  V30 1492 N 141.898 -0.863906 -1.31812 0
M  V30 1493 C 142.828 -0.330843 -2.31144 0
M  V30 1494 C 143.809 0.575005 -1.60087 0
M  V30 1495 O 144.994 0.493304 -1.8783 0
M  V30 1496 C 142.124 0.47374 -3.44054 0
M  V30 1497 C 141.078 -0.338481 -4.26659 0
M  V30 1498 C 140.404 0.591412 -5.31419 0
M  V30 1499 C 141.704 -1.56926 -4.98168 0
M  V30 1500 H 143.398 -1.16086 -2.75979 0
M  V30 1501 H 140.944 -0.559657 -1.32679 0
M  V30 1502 H 142.897 0.857143 -4.12591 0
M  V30 1503 H 141.621 1.33721 -2.9797 0
M  V30 1504 H 140.28 -0.703754 -3.59782 0
M  V30 1505 H 139.928 1.45199 -4.81587 0
M  V30 1506 H 139.628 0.0519022 -5.87577 0
M  V30 1507 H 141.152 0.97179 -6.02817 0
M  V30 1508 H 142.566 -1.25764 -5.59336 0
M  V30 1509 H 140.963 -2.04739 -5.64094 0
M  V30 1510 H 142.033 -2.32544 -4.25501 0
M  V30 1511 N 143.376 1.44774 -0.622745 0
M  V30 1512 C 144.653 1.95522 -0.0551974 0
M  V30 1513 C 145.033 1.5649 1.41683 0
M  V30 1514 O 144.381 0.834848 2.12703 0
M  V30 1515 C 144.591 3.4796 -0.269242 0
M  V30 1516 C 145.939 4.24306 -0.158014 0
M  V30 1517 O 146.963 3.55637 -0.200162 0
M  V30 1518 O 145.822 5.46471 -0.0558693 0
M  V30 1519 H 142.916 0.826556 0.0271015 0
M  V30 1520 H 145.462 1.54866 -0.693864 0
M  V30 1521 H 144.234 3.6939 -1.29099 0
M  V30 1522 H 143.857 3.95543 0.403966 0
M  V30 1523 N 144.854 0.36279 1.53368 0
M  V30 1524 C 145.804 -0.501391 2.22419 0
M  V30 1525 C 146.788 -1.0509 1.2184 0
M  V30 1526 O 147.98 -0.981404 1.47301 0
M  V30 1527 C 145.109 -1.64201 3.01484 0
M  V30 1528 C 144.195 -1.10552 4.09438 0
M  V30 1529 N 144.586 -0.291788 5.04958 0
M  V30 1530 C 142.884 -1.3806 4.24094 0
M  V30 1531 C 143.585 0.00162655 5.817 0
M  V30 1532 N 142.561 -0.595244 5.40331 0
M  V30 1533 H 146.363 0.127159 2.93625 0
M  V30 1534 H 143.877 0.170658 1.61501 0
M  V30 1535 H 145.874 -2.27326 3.49469 0
M  V30 1536 H 144.534 -2.27365 2.31809 0
M  V30 1537 H 145.545 0.0687731 5.17854 0
M  V30 1538 H 142.222 -2.01522 3.65644 0
M  V30 1539 H 143.612 0.659278 6.68658 0
M  V30 1540 N 146.332 -1.57332 0.0918853 0
M  V30 1541 C 147.28 -2.15075 -0.885747 0
M  V30 1542 C 148.274 -1.09277 -1.29441 0
M  V30 1543 O 149.48 -1.27627 -1.26931 0
M  V30 1544 H 145.855 -0.687966 -0.303656 0
M  V30 1545 H 147.826 -2.96047 -0.373995 0
M  V30 1546 C 146.575 -2.74325 -2.13638 0
M  V30 1547 H 145.898 -3.55418 -1.8308 0
M  V30 1548 H 147.338 -3.183 -2.80109 0
M  V30 1549 C 145.797 -1.70062 -2.90827 0
M  V30 1550 O 146.327 -1.13763 -3.85254 0
M  V30 1551 N 144.533 -1.40628 -2.54307 0
M  V30 1552 H 144.08 -1.866 -1.7759 0
M  V30 1553 H 144.038 -0.711043 -3.06254 0
M  V30 1554 N 147.81 0.181792 -1.56548 0
M  V30 1555 C 148.74 1.22765 -1.98623 0
M  V30 1556 C 149.721 1.46747 -0.860189 0
M  V30 1557 O 150.906 1.58259 -1.12551 0
M  V30 1558 C 148.036 2.56894 -2.33715 0
M  V30 1559 C 146.99 2.475 -3.49182 0
M  V30 1560 C 146.316 3.86023 -3.69986 0
M  V30 1561 C 147.616 1.98866 -4.82959 0
M  V30 1562 H 149.31 0.877942 -2.86239 0
M  V30 1563 H 146.856 0.42088 -1.37712 0
M  V30 1564 H 148.809 3.30253 -2.61746 0
M  V30 1565 H 147.533 2.93632 -1.42997 0
M  V30 1566 H 146.192 1.76596 -3.21262 0
M  V30 1567 H 145.84 4.20136 -2.76576 0
M  V30 1568 H 145.54 3.80609 -4.47672 0
M  V30 1569 H 147.064 4.60984 -4.00407 0
M  V30 1570 H 148.478 2.61992 -5.09934 0
M  V30 1571 H 146.875 2.04424 -5.64208 0
M  V30 1572 H 147.945 0.942465 -4.75653 0
M  V30 1573 N 149.288 1.51039 0.449983 0
M  V30 1574 C 150.218 1.74379 1.55288 0
M  V30 1575 C 151.199 0.593236 1.5942 0
M  V30 1576 O 152.384 0.834625 1.7535 0
M  V30 1577 C 149.514 1.85728 2.93466 0
M  V30 1578 C 148.468 3.01078 3.04197 0
M  V30 1579 C 147.794 2.97595 4.44231 0
M  V30 1580 C 149.094 4.41254 2.7945 0
M  V30 1581 H 150.788 2.66725 1.36008 0
M  V30 1582 H 148.334 1.2835 0.652864 0
M  V30 1583 H 150.287 2.0064 3.70569 0
M  V30 1584 H 149.011 0.900207 3.13949 0
M  V30 1585 H 147.67 2.85851 2.29531 0
M  V30 1586 H 147.318 1.99691 4.61663 0
M  V30 1587 H 147.018 3.75046 4.52343 0
M  V30 1588 H 148.542 3.14583 5.23326 0
M  V30 1589 H 149.956 4.56897 3.46292 0
M  V30 1590 H 148.353 5.20315 2.98985 0
M  V30 1591 H 149.423 4.52164 1.75144 0
M  V30 1592 N 150.766 -0.704594 1.40972 0
M  V30 1593 C 151.676 -1.84856 1.44448 0
M  V30 1594 C 152.692 -1.70726 0.335961 0
M  V30 1595 O 153.868 -1.92799 0.582276 0
M  V30 1596 C 150.933 -3.20758 1.31587 0
M  V30 1597 C 149.994 -3.47063 2.52677 0
M  V30 1598 C 149.227 -4.76481 2.4042 0
M  V30 1599 O 149.45 -5.52341 1.42391 0
M  V30 1600 O 148.384 -5.03367 3.30007 0
M  V30 1601 H 152.21 -1.8488 2.40942 0
M  V30 1602 H 149.795 -0.85647 1.22413 0
M  V30 1603 H 151.677 -4.01913 1.26665 0
M  V30 1604 H 150.352 -3.21438 0.382049 0
M  V30 1605 H 149.259 -2.65873 2.63177 0
M  V30 1606 H 150.592 -3.5119 3.44858 0
M  V30 1607 N 152.244 -1.26651 -0.937939 0
M  V30 1608 C 153.192 -1.08308 -2.05845 0
M  V30 1609 C 154.186 -0.0090757 -1.69398 0
M  V30 1610 O 155.392 -0.166007 -1.79233 0
M  V30 1611 H 151.767 -0.333416 -0.674046 0
M  V30 1612 H 153.738 -2.03261 -2.18467 0
M  V30 1613 C 152.487 -0.736229 -3.39816 0
M  V30 1614 H 151.81 -1.55453 -3.6834 0
M  V30 1615 H 153.25 -0.64769 -4.19024 0
M  V30 1616 C 151.709 0.558824 -3.32233 0
M  V30 1617 O 152.239 1.59621 -3.68624 0
M  V30 1618 N 150.445 0.550657 -2.85335 0
M  V30 1619 H 149.992 -0.293943 -2.55917 0
M  V30 1620 H 149.95 1.41726 -2.80644 0
M  V30 1621 N 153.722 1.14298 -1.08507 0
M  V30 1622 C 154.947 1.8976 -0.837001 0
M  V30 1623 C 155.372 1.78097 0.605228 0
M  V30 1624 O 154.73 1.12188 1.4242 0
M  V30 1625 C 154.778 3.37685 -1.26495 0
M  V30 1626 O 153.882 4.10281 -0.417514 0
M  V30 1627 H 153.223 0.590365 -0.303917 0
M  V30 1628 H 155.753 1.44672 -1.44676 0
M  V30 1629 H 155.763 3.88501 -1.24625 0
M  V30 1630 H 154.438 3.45492 -2.31534 0
M  V30 1631 H 153.015 3.69536 -0.499722 0
M  V30 1632 N 155.201 0.870884 1.31352 0
M  V30 1633 C 156.148 0.325425 2.28494 0
M  V30 1634 C 157.118 -0.576615 1.5577 0
M  V30 1635 O 158.303 -0.508059 1.83911 0
M  V30 1636 C 155.443 -0.466283 3.41935 0
M  V30 1637 C 154.556 0.463378 4.29508 0
M  V30 1638 C 153.691 -0.342544 5.30094 0
M  V30 1639 C 152.73 0.583486 6.09313 0
M  V30 1640 N 151.867 -0.186244 7.01853 0
M  V30 1641 H 156.707 1.15901 2.74538 0
M  V30 1642 H 154.244 0.58294 1.35056 0
M  V30 1643 H 156.202 -0.941085 4.06447 0
M  V30 1644 H 154.832 -1.26456 2.97 0
M  V30 1645 H 153.884 1.05663 3.65431 0
M  V30 1646 H 155.196 1.1734 4.84802 0
M  V30 1647 H 154.35 -0.879816 6.00287 0
M  V30 1648 H 153.089 -1.08585 4.75458 0
M  V30 1649 H 152.094 1.13251 5.3801 0
M  V30 1650 H 153.319 1.32566 6.66035 0
M  V30 1651 H 151.265 -0.912348 6.49625 0
M  V30 1652 H 151.182 0.464422 7.54572 0
M  V30 1653 H 152.45 -0.704716 7.76308 0
M  V30 1654 N 156.679 -1.44442 0.630414 0
M  V30 1655 C 157.928 -2.01267 0.132073 0
M  V30 1656 C 158.241 -1.50172 -1.25331 0
M  V30 1657 O 159.447 -1.9912 -1.84562 0
M  V30 1658 C 157.903 -3.59422 0.185362 0
M  V30 1659 C 157.511 -4.19514 1.57201 0
M  V30 1660 C 159.255 -4.23724 -0.256553 0
M  V30 1661 C 157.162 -5.69891 1.58045 0
M  V30 1662 H 156.092 -0.752619 0.0456092 0
M  V30 1663 H 158.743 -1.65666 0.789106 0
M  V30 1664 H 157.125 -3.92318 -0.538759 0
M  V30 1665 H 158.299 -3.98156 2.31966 0
M  V30 1666 H 156.614 -3.67496 1.95795 0
M  V30 1667 H 159.211 -5.34019 -0.269767 0
M  V30 1668 H 159.554 -3.96013 -1.28372 0
M  V30 1669 H 160.087 -3.95629 0.41505 0
M  V30 1670 H 156.826 -6.02336 2.58597 0
M  V30 1671 H 156.346 -5.93373 0.875725 0
M  V30 1672 H 158.025 -6.33515 1.31408 0
M  V30 1673 N 158.157 -0.370918 -1.53173 0
M  V30 1674 C 159.104 0.473035 -2.259 0
M  V30 1675 C 160.074 1.07311 -1.26781 0
M  V30 1676 O 161.259 1.1046 -1.55574 0
M  V30 1677 C 158.399 1.60405 -3.05556 0
M  V30 1678 C 157.512 1.02863 -4.19575 0
M  V30 1679 C 156.647 2.12918 -4.86661 0
M  V30 1680 C 155.686 1.52869 -5.92704 0
M  V30 1681 N 154.823 2.56779 -6.53459 0
M  V30 1682 H 159.663 -0.153649 -2.97604 0
M  V30 1683 H 157.2 -0.0875946 -1.46839 0
M  V30 1684 H 159.158 2.27034 -3.50016 0
M  V30 1685 H 157.788 2.20131 -2.36097 0
M  V30 1686 H 156.84 0.252465 -3.79561 0
M  V30 1687 H 158.152 0.549642 -4.95762 0
M  V30 1688 H 157.306 2.87356 -5.34333 0
M  V30 1689 H 156.045 2.6417 -4.09958 0
M  V30 1690 H 155.05 0.769479 -5.44389 0
M  V30 1691 H 156.275 1.02435 -6.7133 0
M  V30 1692 H 154.221 3.07235 -5.79606 0
M  V30 1693 H 154.138 2.13583 -7.25202 0
M  V30 1694 H 155.406 3.30903 -7.05779 0
M  V30 1695 N 159.635 1.57281 -0.100228 0
M  V30 1696 C 160.883 1.94153 0.561157 0
M  V30 1697 C 161.204 0.983157 1.68401 0
M  V30 1698 O 160.474 0.0361132 1.95867 0
M  V30 1699 H 159.054 0.716791 0.210283 0
M  V30 1700 H 161.716 1.94202 -0.164765 0
M  V30 1701 H 160.812 2.96709 0.968008 0
M  V30 1702 N 161.113 -0.173488 1.56642 0
M  V30 1703 C 162.529 -0.525174 1.50712 0
M  V30 1704 C 162.729 -1.8476 0.804107 0
M  V30 1705 O 161.785 -2.49869 0.363574 0
M  V30 1706 C 163.098 -0.559937 2.95441 0
M  V30 1707 C 164.646 -0.647288 3.06234 0
M  V30 1708 C 165.121 -0.712963 4.52417 0
M  V30 1709 N 166.612 -0.775911 4.56655 0
M  V30 1710 C 167.347 -0.847264 5.67106 0
M  V30 1711 N 166.843 -0.879585 6.87194 0
M  V30 1712 N 168.636 -0.886117 5.55071 0
M  V30 1713 H 160.787 0.693681 2.00753 0
M  V30 1714 H 163.05 0.249841 0.914485 0
M  V30 1715 H 162.756 0.343049 3.50023 0
M  V30 1716 H 162.63 -1.40718 3.49969 0
M  V30 1717 H 165.017 -1.5407 2.51687 0
M  V30 1718 H 165.098 0.226586 2.54794 0
M  V30 1719 H 164.742 0.176183 5.07594 0
M  V30 1720 H 164.672 -1.60295 5.0161 0
M  V30 1721 H 167.163 -0.759304 3.70193 0
M  V30 1722 H 167.476 -0.935144 7.67121 0
M  V30 1723 H 165.821 -0.847898 6.89808 0
M  V30 1724 H 169.012 -0.857853 4.60172 0
M  V30 1725 H 169.185 -0.938263 6.41171 0
M  V30 1726 N 162.591 -1.51276 -0.441967 0
M  V30 1727 C 163.837 -1.63958 -1.19355 0
M  V30 1728 C 164.17 -0.352543 -1.90973 0
M  V30 1729 O 163.445 0.647627 -1.83401 0
M  V30 1730 C 163.728 -2.83979 -2.21422 0
M  V30 1731 C 163.581 -4.22646 -1.53918 0
M  V30 1732 C 164.9 -2.99521 -3.22451 0
M  V30 1733 H 162.019 -0.596709 -0.432559 0
M  V30 1734 H 164.661 -1.83748 -0.483398 0
M  V30 1735 H 162.811 -2.67237 -2.81987 0
M  V30 1736 H 164.483 -4.51045 -0.967256 0
M  V30 1737 H 162.726 -4.25558 -0.841615 0
M  V30 1738 H 163.397 -5.02609 -2.28229 0
M  V30 1739 H 165.873 -3.14944 -2.71937 0
M  V30 1740 H 164.749 -3.85072 -3.91166 0
M  V30 1741 H 165.01 -2.11391 -3.88287 0
M  V30 1742 N 164.069 0.697108 -1.41344 0
M  V30 1743 C 165.316 1.45714 -1.40619 0
M  V30 1744 C 165.644 1.94494 -0.0147907 0
M  V30 1745 O 164.899 1.69794 0.973066 0
M  V30 1746 C 165.198 2.68553 -2.35826 0
M  V30 1747 C 164.864 2.38438 -3.82698 0
M  V30 1748 C 163.526 2.29936 -4.22709 0
M  V30 1749 C 165.878 2.13567 -4.75435 0
M  V30 1750 C 163.206 1.94656 -5.53467 0
M  V30 1751 C 165.558 1.79797 -6.06511 0
M  V30 1752 C 164.222 1.69789 -6.45545 0
M  V30 1753 H 163.492 0.533206 -0.51456 0
M  V30 1754 H 166.139 0.796901 -1.74131 0
M  V30 1755 H 164.444 3.39503 -1.95563 0
M  V30 1756 H 166.141 3.2669 -2.32539 0
M  V30 1757 H 162.731 2.4595 -3.51008 0
M  V30 1758 H 166.915 2.19082 -4.45328 0
M  V30 1759 H 162.171 1.8546 -5.82593 0
M  V30 1760 H 166.345 1.59572 -6.77872 0
M  V30 1761 H 163.972 1.4222 -7.46778 0
M  V30 1762 N 165.547 1.27147 0.931209 0
M  V30 1763 C 166.772 1.16191 1.71797 0
M  V30 1764 C 167.197 -0.278004 1.86034 0
M  V30 1765 O 166.555 -1.20137 1.35782 0
M  V30 1766 C 166.603 1.84673 3.09723 0
M  V30 1767 O 165.707 1.14231 3.96264 0
M  V30 1768 H 165.048 0.404303 0.526721 0
M  V30 1769 H 167.578 1.68152 1.1656 0
M  V30 1770 H 167.588 1.91893 3.60057 0
M  V30 1771 H 166.263 2.89421 2.98677 0
M  V30 1772 H 164.84 1.15056 3.54706 0
M  V30 1773 N 167.025 -1.13721 1.09112 0
M  V30 1774 C 167.972 -2.19031 0.727591 0
M  V30 1775 C 168.942 -1.63555 -0.289656 0
M  V30 1776 O 170.127 -1.90023 -0.172026 0
M  V30 1777 C 167.267 -3.4477 0.15082 0
M  V30 1778 C 166.38 -4.14365 1.22172 0
M  V30 1779 C 165.515 -5.27709 0.608042 0
M  V30 1780 C 164.554 -5.89147 1.66047 0
M  V30 1781 N 163.691 -6.93929 1.06806 0
M  V30 1782 H 168.531 -2.49475 1.62991 0
M  V30 1783 H 166.068 -1.22499 0.81439 0
M  V30 1784 H 168.026 -4.16714 -0.201358 0
M  V30 1785 H 166.656 -3.14787 -0.714783 0
M  V30 1786 H 165.708 -3.40737 1.69122 0
M  V30 1787 H 167.02 -4.56114 2.01895 0
M  V30 1788 H 166.174 -6.06355 0.204523 0
M  V30 1789 H 164.913 -4.872 -0.220769 0
M  V30 1790 H 163.918 -5.09198 2.07357 0
M  V30 1791 H 165.143 -6.31729 2.49189 0
M  V30 1792 H 163.089 -6.55483 0.260476 0
M  V30 1793 H 163.006 -7.34202 1.8023 0
M  V30 1794 H 164.274 -7.76434 0.690644 0
M  V30 1795 N 168.503 -0.877838 -1.30888 0
M  V30 1796 C 169.433 -0.35534 -2.3078 0
M  V30 1797 C 170.414 0.557994 -1.60687 0
M  V30 1798 O 171.599 0.473355 -1.88343 0
M  V30 1799 C 168.729 0.437221 -3.44537 0
M  V30 1800 C 167.683 -0.383715 -4.26276 0
M  V30 1801 C 167.009 0.535014 -5.32017 0
M  V30 1802 C 168.309 -1.62201 -4.96476 0
M  V30 1803 H 170.003 -1.19007 -2.74732 0
M  V30 1804 H 167.549 -0.573698 -1.32078 0
M  V30 1805 H 169.502 0.813334 -4.13477 0
M  V30 1806 H 168.226 1.30553 -2.99372 0
M  V30 1807 H 166.885 -0.741874 -3.59015 0
M  V30 1808 H 166.533 1.40083 -4.831 0
M  V30 1809 H 166.233 -0.0104211 -5.87599 0
M  V30 1810 H 167.757 0.907799 -6.03814 0
M  V30 1811 H 169.171 -1.31689 -5.5797 0
M  V30 1812 H 167.568 -2.10711 -5.61891 0
M  V30 1813 H 168.638 -2.37044 -4.23011 0
M  V30 1814 N 169.982 1.44106 -0.638065 0
M  V30 1815 C 170.929 2.30715 0.062701 0
M  V30 1816 C 171.899 1.43882 0.829883 0
M  V30 1817 O 173.084 1.72775 0.809532 0
M  V30 1818 C 170.224 3.29258 1.03358 0
M  V30 1819 C 169.337 4.31192 0.26409 0
M  V30 1820 C 168.472 5.16825 1.22741 0
M  V30 1821 C 167.511 6.10462 0.447475 0
M  V30 1822 N 166.648 6.8877 1.36161 0
M  V30 1823 H 171.488 2.90096 -0.681781 0
M  V30 1824 H 169.025 1.42925 -0.347988 0
M  V30 1825 H 170.983 3.84886 1.60992 0
M  V30 1826 H 169.613 2.71562 1.74511 0
M  V30 1827 H 168.665 3.77981 -0.428295 0
M  V30 1828 H 169.977 4.97619 -0.343052 0
M  V30 1829 H 169.131 5.77004 1.87487 0
M  V30 1830 H 167.87 4.50488 1.86847 0
M  V30 1831 H 166.875 5.49386 -0.213433 0
M  V30 1832 H 168.1 6.78837 -0.188968 0
M  V30 1833 H 166.046 6.25096 1.98975 0
M  V30 1834 H 165.963 7.51663 0.808656 0
M  V30 1835 H 167.231 7.53467 1.99769 0
M  V30 1836 N 171.46 0.379036 1.52974 0
M  V30 1837 C 172.392 -0.495963 2.2377 0
M  V30 1838 C 173.405 -1.03517 1.25651 0
M  V30 1839 O 174.594 -0.939249 1.51791 0
M  V30 1840 C 171.694 -1.69894 2.93239 0
M  V30 1841 C 170.867 -1.2889 4.17979 0
M  V30 1842 C 169.926 -2.35543 4.70538 0
M  V30 1843 O 168.952 -1.97375 5.33883 0
M  V30 1844 N 170.154 -3.67318 4.49508 0
M  V30 1845 H 172.919 0.110523 2.99496 0
M  V30 1846 H 170.48 0.204878 1.60598 0
M  V30 1847 H 172.472 -2.40747 3.25304 0
M  V30 1848 H 171.042 -2.212 2.20883 0
M  V30 1849 H 170.262 -0.409676 3.92065 0
M  V30 1850 H 171.55 -0.991443 4.99047 0
M  V30 1851 H 170.948 -4.01095 3.98923 0
M  V30 1852 H 169.505 -4.34235 4.8609 0
M  V30 1853 N 172.938 -1.57226 0.108567 0
M  V30 1854 C 173.868 -2.17778 -0.84232 0
M  V30 1855 C 174.849 -1.11487 -1.2847 0
M  V30 1856 O 176.034 -1.39681 -1.34918 0
M  V30 1857 C 173.164 -2.76888 -2.09644 0
M  V30 1858 C 172.118 -3.88669 -1.79221 0
M  V30 1859 C 171.444 -4.34541 -3.11574 0
M  V30 1860 C 172.744 -5.11251 -1.06864 0
M  V30 1861 H 174.438 -2.97489 -0.337774 0
M  V30 1862 H 171.984 -1.43097 -0.161025 0
M  V30 1863 H 173.937 -3.17904 -2.76614 0
M  V30 1864 H 172.661 -1.94451 -2.62405 0
M  V30 1865 H 171.32 -3.48213 -1.14644 0
M  V30 1866 H 170.968 -3.48977 -3.62249 0
M  V30 1867 H 170.668 -5.09914 -2.91996 0
M  V30 1868 H 172.192 -4.782 -3.7968 0
M  V30 1869 H 173.606 -5.49352 -1.63968 0
M  V30 1870 H 172.003 -5.9214 -0.974178 0
M  V30 1871 H 173.073 -4.8487 -0.0536168 0
M  V30 1872 N 174.416 0.165178 -1.56732 0
M  V30 1873 C 175.363 1.2044 -1.96883 0
M  V30 1874 C 176.333 1.43664 -0.833657 0
M  V30 1875 O 177.518 1.56302 -1.09427 0
M  V30 1876 C 174.658 2.53727 -2.33916 0
M  V30 1877 C 173.771 2.3783 -3.6064 0
M  V30 1878 C 172.906 3.64026 -3.86857 0
M  V30 1879 C 171.945 3.43088 -5.06909 0
M  V30 1880 N 171.082 4.61369 -5.29229 0
M  V30 1881 H 175.922 0.854996 -2.85471 0
M  V30 1882 H 173.459 0.41076 -1.41249 0
M  V30 1883 H 175.417 3.31419 -2.53411 0
M  V30 1884 H 174.047 2.8665 -1.48431 0
M  V30 1885 H 173.099 1.51282 -3.49024 0
M  V30 1886 H 174.411 2.18308 -4.4849 0
M  V30 1887 H 173.565 4.50152 -4.06753 0
M  V30 1888 H 172.304 3.86533 -2.97394 0
M  V30 1889 H 171.309 2.55349 -4.86906 0
M  V30 1890 H 172.534 3.21997 -5.97909 0
M  V30 1891 H 170.48 4.84084 -4.42718 0
M  V30 1892 H 170.397 4.44783 -6.11313 0
M  V30 1893 H 171.665 5.48761 -5.53608 0
M  V30 1894 N 175.894 1.51508 0.433938 0
M  V30 1895 C 176.841 1.73068 1.52696 0
M  V30 1896 C 177.811 0.572441 1.55924 0
M  V30 1897 O 178.996 0.807253 1.72882 0
M  V30 1898 C 176.136 1.86474 2.90381 0
M  V30 1899 C 175.249 3.14037 2.96656 0
M  V30 1900 C 174.384 3.18019 4.25485 0
M  V30 1901 C 173.423 4.39882 4.2564 0
M  V30 1902 N 172.56 4.41394 5.45999 0
M  V30 1903 H 177.4 2.66366 1.33615 0
M  V30 1904 H 174.937 1.32008 0.649018 0
M  V30 1905 H 176.895 1.92229 3.70275 0
M  V30 1906 H 175.525 0.965809 3.08013 0
M  V30 1907 H 174.577 3.17575 2.09404 0
M  V30 1908 H 175.889 4.0394 2.92633 0
M  V30 1909 H 175.043 3.22708 5.13755 0
M  V30 1910 H 173.782 2.2601 4.3217 0
M  V30 1911 H 172.787 4.35366 3.35763 0
M  V30 1912 H 174.012 5.33159 4.20617 0
M  V30 1913 H 171.958 3.52258 5.53399 0
M  V30 1914 H 171.875 5.25111 5.4387 0
M  V30 1915 H 173.143 4.50281 6.36292 0
M  V30 1916 N 177.372 -0.689602 1.41712 0
M  V30 1917 C 178.302 -1.81577 1.46806 0
M  V30 1918 C 179.283 -1.66945 0.326105 0
M  V30 1919 O 180.468 -1.86588 0.538377 0
M  V30 1920 C 177.598 -3.19762 1.35535 0
M  V30 1921 C 176.552 -3.49107 2.47605 0
M  V30 1922 C 175.878 -4.86711 2.21397 0
M  V30 1923 C 177.178 -3.47483 3.89939 0
M  V30 1924 H 178.872 -1.7757 2.41058 0
M  V30 1925 H 176.418 -0.852887 1.16025 0
M  V30 1926 H 178.371 -3.98263 1.3771 0
M  V30 1927 H 177.095 -3.24409 0.377708 0
M  V30 1928 H 175.754 -2.72959 2.44722 0
M  V30 1929 H 175.402 -4.8799 1.21961 0
M  V30 1930 H 175.102 -5.0731 2.96497 0
M  V30 1931 H 176.626 -5.67515 2.25297 0
M  V30 1932 H 178.04 -4.1598 3.94505 0
M  V30 1933 H 176.437 -3.79615 4.64771 0
M  V30 1934 H 177.507 -2.46341 4.17665 0
M  V30 1935 N 178.85 -1.27639 -0.924453 0
M  V30 1936 C 179.8 -1.07295 -2.01176 0
M  V30 1937 C 180.784 5.77352e-05 -1.609 0
M  V30 1938 O 181.976 -0.218855 -1.75642 0
M  V30 1939 C 179.105 -0.725592 -3.35544 0
M  V30 1940 C 178.191 -1.83691 -3.82254 0
M  V30 1941 N 178.582 -3.07697 -4.01443 0
M  V30 1942 C 176.88 -1.72433 -4.11319 0
M  V30 1943 C 177.581 -3.80037 -4.40394 0
M  V30 1944 N 176.557 -3.0782 -4.48049 0
M  V30 1945 H 180.359 -2.01399 -2.14046 0
M  V30 1946 H 177.873 -1.18401 -1.11153 0
M  V30 1947 H 179.87 -0.560959 -4.13109 0
M  V30 1948 H 178.53 0.207782 -3.24034 0
M  V30 1949 H 179.541 -3.43424 -3.8766 0
M  V30 1950 H 176.218 -0.862005 -4.08504 0
M  V30 1951 H 177.608 -4.86632 -4.63291 0
M  V30 1952 N 180.328 1.1314 -1.09713 0
M  V30 1953 C 181.577 1.83838 -0.829851 0
M  V30 1954 C 181.89 1.84599 0.646728 0
M  V30 1955 O 183.096 2.51218 1.02965 0
M  V30 1956 C 181.552 3.30069 -1.43466 0
M  V30 1957 C 181.16 3.37688 -2.94399 0
M  V30 1958 C 182.904 4.05788 -1.24645 0
M  V30 1959 C 180.811 4.78209 -3.47952 0
M  V30 1960 H 179.741 0.68877 -0.306777 0
M  V30 1961 H 182.392 1.27448 -1.3202 0
M  V30 1962 H 180.774 3.8628 -0.871996 0
M  V30 1963 H 181.948 2.91456 -3.56918 0
M  V30 1964 H 180.263 2.75436 -3.12289 0
M  V30 1965 H 182.86 5.09535 -1.62107 0
M  V30 1966 H 183.203 4.15878 -0.187357 0
M  V30 1967 H 183.736 3.55915 -1.77678 0
M  V30 1968 H 180.475 4.73311 -4.53495 0
M  V30 1969 H 179.995 5.24924 -2.90198 0
M  V30 1970 H 181.674 5.47133 -3.45332 0
M  V30 1971 N 181.806 0.884767 1.30421 0
M  V30 1972 C 182.754 0.340869 2.30089 0
M  V30 1973 C 183.748 -0.55201 1.60154 0
M  V30 1974 O 184.954 -0.436467 1.74628 0
M  V30 1975 H 181.329 0.0915739 0.746404 0
M  V30 1976 H 183.3 1.19513 2.73421 0
M  V30 1977 C 182.049 -0.429779 3.45034 0
M  V30 1978 H 181.372 0.248024 3.9903 0
M  V30 1979 H 182.812 -0.775445 4.16849 0
M  V30 1980 C 181.271 -1.62677 2.95022 0
M  V30 1981 O 181.801 -2.72614 2.95033 0
M  V30 1982 N 180.007 -1.46387 2.51036 0
M  V30 1983 H 179.554 -0.569506 2.51226 0
M  V30 1984 H 179.512 -2.26612 2.17932 0
M  V30 1985 N 183.284 -1.43765 0.645699 0
M  V30 1986 C 184.234 -2.27884 -0.0726442 0
M  V30 1987 C 185.218 -1.39483 -0.802086 0
M  V30 1988 O 186.41 -1.63174 -0.685791 0
M  V30 1989 C 183.539 -3.27055 -1.04356 0
M  V30 1990 C 182.625 -4.22944 -0.312985 0
M  V30 1991 N 183.016 -5.01391 0.666386 0
M  V30 1992 C 181.314 -4.42528 -0.55546 0
M  V30 1993 C 182.015 -5.71217 1.09935 0
M  V30 1994 N 180.991 -5.41856 0.435137 0
M  V30 1995 H 184.793 -2.85949 0.678988 0
M  V30 1996 H 182.307 -1.55378 0.472368 0
M  V30 1997 H 184.304 -3.86089 -1.57292 0
M  V30 1998 H 182.964 -2.70551 -1.79534 0
M  V30 1999 H 183.975 -5.07252 1.04481 0
M  V30 2000 H 180.652 -3.97104 -1.28899 0
M  V30 2001 H 182.042 -6.44202 1.90929 0
M  V30 2002 N 184.763 -0.387143 -1.52771 0
M  V30 2003 C 185.711 0.463953 -2.27926 0
M  V30 2004 C 186.705 1.06493 -1.31741 0
M  V30 2005 O 187.911 1.00565 -1.49287 0
M  V30 2006 H 184.286 0.16837 -0.732909 0
M  V30 2007 H 186.257 -0.19141 -2.97785 0
M  V30 2008 C 185.006 1.5803 -3.09713 0
M  V30 2009 H 184.329 1.12718 -3.83581 0
M  V30 2010 H 185.769 2.15008 -3.65442 0
M  V30 2011 C 184.228 2.53509 -2.2189 0
M  V30 2012 O 184.758 3.56863 -1.84422 0
M  V30 2013 N 182.964 2.23199 -1.86093 0
M  V30 2014 H 182.511 1.39185 -2.16761 0
M  V30 2015 H 182.469 2.87333 -1.27621 0
M  V30 2016 N 186.241 1.57166 -0.116904 0
M  V30 2017 C 187.189 2.16457 0.851418 0
M  V30 2018 C 188.183 1.11323 1.27686 0
M  V30 2019 O 189.389 1.2963 1.24884 0
M  V30 2020 H 185.764 0.69271 0.292672 0
M  V30 2021 H 187.735 2.96605 0.32685 0
M  V30 2022 C 186.484 2.77689 2.09246 0
M  V30 2023 H 185.807 3.58285 1.77402 0
M  V30 2024 H 187.247 3.22716 2.7501 0
M  V30 2025 C 185.706 1.74667 2.88085 0
M  V30 2026 O 186.236 1.19877 3.83396 0
M  V30 2027 N 184.442 1.44656 2.52038 0
M  V30 2028 H 183.989 1.89402 1.74599 0
M  V30 2029 H 183.947 0.759675 3.05084 0
M  V30 2030 N 187.719 -0.156864 1.56817 0
M  V30 2031 C 188.649 -1.19589 2.00551 0
M  V30 2032 C 189.63 -1.4536 0.883426 0
M  V30 2033 O 190.815 -1.56449 1.15054 0
M  V30 2034 C 187.945 -2.53143 2.37773 0
M  V30 2035 C 186.899 -2.41913 3.53075 0
M  V30 2036 C 186.225 -3.80088 3.76081 0
M  V30 2037 C 187.525 -1.91157 4.86062 0
M  V30 2038 H 189.219 -0.832293 2.87599 0
M  V30 2039 H 186.765 -0.398918 1.38364 0
M  V30 2040 H 188.718 -3.26047 2.66967 0
M  V30 2041 H 187.442 -2.91319 1.4765 0
M  V30 2042 H 186.101 -1.71462 3.24031 0
M  V30 2043 H 185.749 -4.15683 2.83225 0
M  V30 2044 H 185.449 -3.73439 4.53671 0
M  V30 2045 H 186.973 -4.54556 4.0769 0
M  V30 2046 H 188.387 -2.53846 5.14038 0
M  V30 2047 H 186.784 -1.95422 5.67389 0
M  V30 2048 H 187.854 -0.866673 4.77092 0
M  V30 2049 N 189.197 -1.51736 -0.425897 0
M  V30 2050 C 190.425 -1.68794 -1.1965 0
M  V30 2051 C 190.84 -0.390164 -1.84725 0
M  V30 2052 O 190.197 0.632376 -1.71194 0
M  V30 2053 C 190.248 -2.81174 -2.27208 0
M  V30 2054 O 189.969 -4.05925 -1.64793 0
M  V30 2055 C 191.47 -3.09599 -3.17275 0
M  V30 2056 H 188.69 -0.566128 -0.360194 0
M  V30 2057 H 191.234 -1.98211 -0.503249 0
M  V30 2058 H 189.389 -2.54324 -2.9223 0
M  V30 2059 H 189.803 -4.68423 -2.35967 0
M  V30 2060 H 191.277 -3.91786 -3.88854 0
M  V30 2061 H 191.754 -2.22468 -3.78688 0
M  V30 2062 H 192.36 -3.38151 -2.57941 0
M  V30 2063 N 190.675 0.682077 -1.42076 0
M  V30 2064 C 191.585 1.82535 -1.47371 0
M  V30 2065 C 192.601 1.7017 -0.363079 0
M  V30 2066 O 193.777 1.91848 -0.612875 0
M  V30 2067 C 190.842 3.18624 -1.36674 0
M  V30 2068 C 189.903 3.42999 -2.58167 0
M  V30 2069 C 189.136 4.72595 -2.4797 0
M  V30 2070 O 189.359 5.50006 -1.5116 0
M  V30 2071 O 188.293 4.98054 -3.37974 0
M  V30 2072 H 192.119 1.81023 -2.43853 0
M  V30 2073 H 189.704 0.836887 -1.2376 0
M  V30 2074 H 191.586 3.99847 -1.33043 0
M  V30 2075 H 190.261 3.20789 -0.433138 0
M  V30 2076 H 189.168 2.61653 -2.67373 0
M  V30 2077 H 190.501 3.45659 -3.50401 0
M  V30 2078 N 192.153 1.28127 0.917671 0
M  V30 2079 C 193.378 1.18007 1.70555 0
M  V30 2080 C 193.803 -0.258257 1.86319 0
M  V30 2081 O 193.161 -1.1869 1.37049 0
M  V30 2082 C 193.209 1.87948 3.07746 0
M  V30 2083 O 192.313 1.18427 3.9503 0
M  V30 2084 H 191.654 0.409867 0.522403 0
M  V30 2085 H 194.184 1.69379 1.1477 0
M  V30 2086 H 194.194 1.95701 3.58001 0
M  V30 2087 H 192.869 2.92573 2.95591 0
M  V30 2088 H 191.446 1.18811 3.53466 0
M  V30 2089 N 193.631 -1.12557 1.10312 0
M  V30 2090 C 194.877 -1.84311 0.846011 0
M  V30 2091 C 195.21 -1.83805 -0.626859 0
M  V30 2092 O 194.485 -1.28268 -1.46211 0
M  V30 2093 C 194.768 -3.32048 1.39341 0
M  V30 2094 C 194.621 -3.41016 2.93305 0
M  V30 2095 C 195.94 -4.27764 1.03468 0
M  V30 2096 H 193.059 -0.669192 0.30879 0
M  V30 2097 H 195.701 -1.32057 1.36605 0
M  V30 2098 H 193.851 -3.76678 0.951087 0
M  V30 2099 H 195.523 -3.05031 3.46055 0
M  V30 2100 H 193.766 -2.81603 3.29973 0
M  V30 2101 H 194.437 -4.44948 3.26689 0
M  V30 2102 H 196.913 -3.91253 1.41633 0
M  V30 2103 H 195.789 -5.29549 1.44463 0
M  V30 2104 H 196.05 -4.42064 -0.0560404 0
M  V30 2105 N 195.109 -0.891671 -1.2995 0
M  V30 2106 C 196.357 -0.512486 -1.95494 0
M  V30 2107 C 196.678 0.942776 -1.70695 0
M  V30 2108 O 195.948 1.66374 -1.03424 0
M  V30 2109 H 194.528 -0.186533 -0.723336 0
M  V30 2110 H 197.19 -1.13621 -1.58355 0
M  V30 2111 H 196.286 -0.688342 -3.04415 0
M  V30 2112 N 196.587 1.43421 -0.653314 0
M  V30 2113 C 197.998 1.85065 -0.246537 0
M  V30 2114 C 198.349 1.54688 1.2069 0
M  V30 2115 O 197.474 0.995896 1.92122 0
M  V30 2116 C 198.069 3.35922 -0.440666 0
M  V30 2117 C 196.628 3.76297 -0.0882064 0
M  V30 2118 C 195.775 2.67147 -0.743484 0
M  V30 2119 H 198.726 1.33572 -0.856979 0
M  V30 2120 H 198.747 3.79204 0.313798 0
M  V30 2121 H 198.259 3.58 -1.49858 0
M  V30 2122 H 196.36 3.5983 0.96711 0
M  V30 2123 H 196.473 4.76338 -0.513738 0
M  V30 2124 H 194.837 2.54086 -0.176712 0
M  V30 2125 H 195.62 2.92053 -1.80443 0
M  V30 2126 N 198.065 0.39524 1.52563 0
M  V30 2127 C 198.995 -0.428384 2.29537 0
M  V30 2128 C 199.976 -1.05831 1.33169 0
M  V30 2129 O 201.161 -1.06995 1.62067 0
M  V30 2130 C 198.291 -1.55274 3.10656 0
M  V30 2131 C 197.245 -1.04855 4.14957 0
M  V30 2132 C 196.571 -2.26543 4.84337 0
M  V30 2133 C 197.871 -0.112324 5.22179 0
M  V30 2134 H 199.565 0.213867 2.98635 0
M  V30 2135 H 197.111 0.104298 1.43622 0
M  V30 2136 H 199.064 -2.1358 3.63265 0
M  V30 2137 H 197.788 -2.22266 2.39302 0
M  V30 2138 H 196.447 -0.487985 3.63338 0
M  V30 2139 H 196.095 -2.92059 4.09525 0
M  V30 2140 H 195.795 -1.93466 5.54837 0
M  V30 2141 H 197.319 -2.85481 5.39753 0
M  V30 2142 H 198.733 -0.603752 5.70112 0
M  V30 2143 H 197.13 0.128968 5.99961 0
M  V30 2144 H 198.2 0.837052 4.77621 0
M  V30 2145 N 199.544 -1.57102 0.125237 0
M  V30 2146 C 200.955 -1.82384 -0.399142 0
M  V30 2147 C 201.306 -1.04276 -1.66195 0
M  V30 2148 O 200.431 -0.281269 -2.14564 0
M  V30 2149 C 201.026 -3.30821 -0.730932 0
M  V30 2150 C 199.585 -3.56762 -1.19992 0
M  V30 2151 C 198.732 -2.7649 -0.211792 0
M  V30 2152 H 201.683 -1.54786 0.350277 0
M  V30 2153 H 201.704 -3.4579 -1.58775 0
M  V30 2154 H 201.216 -3.87643 0.188345 0
M  V30 2155 H 199.317 -3.05305 -2.13588 0
M  V30 2156 H 199.43 -4.65317 -1.14093 0
M  V30 2157 H 197.794 -2.4489 -0.700085 0
M  V30 2158 H 198.577 -3.36073 0.700691 0
M  V30 2159 N 201.022 0.148545 -1.56898 0
M  V30 2160 C 201.969 1.18345 -1.98149 0
M  V30 2161 C 202.939 1.42772 -0.848848 0
M  V30 2162 O 204.124 1.55132 -1.11079 0
M  V30 2163 C 201.264 2.51231 -2.36594 0
M  V30 2164 C 200.377 2.33991 -3.63142 0
M  V30 2165 C 199.512 3.59902 -3.90697 0
M  V30 2166 C 198.551 3.37692 -5.1052 0
M  V30 2167 N 197.688 4.5573 -5.34092 0
M  V30 2168 H 202.528 0.82467 -2.86362 0
M  V30 2169 H 200.065 0.395756 -1.41676 0
M  V30 2170 H 202.023 3.28713 -2.56912 0
M  V30 2171 H 200.653 2.85059 -1.51463 0
M  V30 2172 H 199.705 1.47572 -3.50609 0
M  V30 2173 H 201.017 2.13539 -4.5078 0
M  V30 2174 H 200.171 4.45813 -4.11505 0
M  V30 2175 H 198.91 3.83357 -3.01477 0
M  V30 2176 H 197.915 2.5017 -4.89587 0
M  V30 2177 H 199.14 3.15637 -6.0129 0
M  V30 2178 H 197.086 4.79361 -4.47827 0
M  V30 2179 H 197.003 4.38274 -6.15996 0
M  V30 2180 H 198.271 5.42858 -5.59397 0
M  V30 2181 N 202.5 1.5196 0.417844 0
M  V30 2182 C 203.725 1.69717 1.1921 0
M  V30 2183 C 204.15 0.402148 1.83751 0
M  V30 2184 O 203.508 -0.639593 1.69643 0
M  V30 2185 C 203.556 2.82794 2.2374 0
M  V30 2186 O 202.66 2.47756 3.29683 0
M  V30 2187 H 202.001 0.565263 0.348387 0
M  V30 2188 H 204.531 1.98621 0.490985 0
M  V30 2189 H 204.541 3.07452 2.68212 0
M  V30 2190 H 203.216 3.76756 1.76146 0
M  V30 2191 H 201.793 2.33739 2.90552 0
M  V30 2192 N 203.978 -0.674533 1.42435 0
M  V30 2193 C 204.908 -1.80009 1.48724 0
M  V30 2194 C 205.889 -1.6659 0.343793 0
M  V30 2195 O 207.074 -1.86007 0.558137 0
M  V30 2196 C 204.204 -3.18306 1.38919 0
M  V30 2197 C 203.158 -3.46461 2.51294 0
M  V30 2198 C 202.484 -4.84335 2.26547 0
M  V30 2199 C 203.784 -3.43328 3.93603 0
M  V30 2200 H 205.478 -1.75004 2.42928 0
M  V30 2201 H 203.024 -0.840533 1.16923 0
M  V30 2202 H 204.977 -3.9678 1.41927 0
M  V30 2203 H 203.701 -3.2399 0.412094 0
M  V30 2204 H 202.36 -2.70348 2.47604 0
M  V30 2205 H 202.008 -4.86669 1.2713 0
M  V30 2206 H 201.708 -5.04136 3.01861 0
M  V30 2207 H 203.232 -5.65094 2.31304 0
M  V30 2208 H 204.646 -4.11772 3.98894 0
M  V30 2209 H 203.043 -3.74664 4.68771 0
M  V30 2210 H 204.113 -2.41897 4.20255 0
M  V30 2211 N 205.456 -1.28612 -0.910864 0
M  V30 2212 C 206.366 -1.14643 -2.0468 0
M  V30 2213 C 207.382 -0.0723121 -1.7385 0
M  V30 2214 O 208.558 -0.282178 -1.99413 0
M  V30 2215 C 205.623 -0.812561 -3.37044 0
M  V30 2216 C 204.684 -1.96935 -3.81465 0
M  V30 2217 C 203.917 -1.65131 -5.07511 0
M  V30 2218 O 204.14 -0.567013 -5.67575 0
M  V30 2219 O 203.074 -2.49585 -5.47714 0
M  V30 2220 H 206.9 -2.1001 -2.19384 0
M  V30 2221 H 204.485 -1.07958 -1.03274 0
M  V30 2222 H 206.367 -0.640441 -4.16505 0
M  V30 2223 H 205.042 0.111426 -3.23508 0
M  V30 2224 H 203.949 -2.19664 -3.02818 0
M  V30 2225 H 205.282 -2.87414 -3.99567 0
M  V30 2226 N 206.934 1.1197 -1.10907 0
M  V30 2227 C 208.211 1.79959 -0.766432 0
M  V30 2228 C 208.591 1.97466 0.746363 0
M  V30 2229 O 207.939 1.55491 1.67436 0
M  V30 2230 C 208.149 3.14009 -1.52314 0
M  V30 2231 C 209.497 3.89134 -1.69883 0
M  V30 2232 O 210.521 3.2368 -1.48692 0
M  V30 2233 O 209.38 5.06572 -2.05054 0
M  V30 2234 H 206.474 0.779208 -0.277062 0
M  V30 2235 H 209.02 1.18762 -1.21217 0
M  V30 2236 H 207.792 2.96587 -2.55249 0
M  V30 2237 H 207.415 3.82915 -1.07059 0
M  V30 2238 N 208.412 0.89855 1.29475 0
M  V30 2239 C 209.342 0.39201 2.30186 0
M  V30 2240 C 210.323 -0.532359 1.61555 0
M  V30 2241 O 211.508 -0.443331 1.89072 0
M  V30 2242 C 208.638 -0.382353 3.45189 0
M  V30 2243 C 207.592 0.451483 4.25612 0
M  V30 2244 C 206.918 -0.450307 5.328 0
M  V30 2245 C 208.218 1.70079 4.93832 0
M  V30 2246 H 209.912 1.23362 2.72804 0
M  V30 2247 H 207.458 0.594638 1.31149 0
M  V30 2248 H 209.411 -0.747451 4.14718 0
M  V30 2249 H 208.135 -1.25774 3.01411 0
M  V30 2250 H 206.794 0.798897 3.57789 0
M  V30 2251 H 206.442 -1.32379 4.85268 0
M  V30 2252 H 206.142 0.103902 5.87508 0
M  V30 2253 H 207.666 -0.811623 6.05182 0
M  V30 2254 H 209.08 1.40549 5.55805 0
M  V30 2255 H 207.477 2.19623 5.58467 0
M  V30 2256 H 208.547 2.43744 4.19186 0
M  V30 2257 N 209.89 -1.43072 0.660911 0
M  V30 2258 C 210.822 -2.29108 -0.0647641 0
M  V30 2259 C 211.835 -1.42928 -0.779448 0
M  V30 2260 O 213.024 -1.66788 -0.635921 0
M  V30 2261 C 210.124 -3.20032 -1.11503 0
M  V30 2262 C 209.297 -4.34792 -0.476955 0
M  V30 2263 C 208.356 -5.06534 -1.42513 0
M  V30 2264 O 207.382 -5.61538 -0.930771 0
M  V30 2265 N 208.584 -5.1075 -2.75889 0
M  V30 2266 H 211.349 -2.92029 0.673731 0
M  V30 2267 H 208.91 -1.53846 0.50427 0
M  V30 2268 H 210.902 -3.64892 -1.75032 0
M  V30 2269 H 209.472 -2.58658 -1.75541 0
M  V30 2270 H 208.692 -3.92752 0.337572 0
M  V30 2271 H 209.98 -5.0879 -0.0318525 0
M  V30 2272 H 209.378 -4.67447 -3.18606 0
M  V30 2273 H 207.935 -5.59302 -3.347 0
M  V30 2274 N 211.368 -0.403325 -1.52352 0
M  V30 2275 C 212.298 0.416205 -2.29761 0
M  V30 2276 C 213.279 1.05123 -1.33728 0
M  V30 2277 O 214.464 1.06134 -1.62632 0
M  V30 2278 C 211.594 1.53624 -3.11475 0
M  V30 2279 C 210.548 1.02653 -4.15507 0
M  V30 2280 C 209.874 2.23971 -4.85532 0
M  V30 2281 C 211.174 0.08463 -5.22231 0
M  V30 2282 H 212.868 -0.229701 -2.98518 0
M  V30 2283 H 210.414 -0.111913 -1.43564 0
M  V30 2284 H 212.367 2.1165 -3.64393 0
M  V30 2285 H 211.091 2.20994 -2.40477 0
M  V30 2286 H 209.75 0.46871 -3.63591 0
M  V30 2287 H 209.398 2.89883 -4.11068 0
M  V30 2288 H 209.098 1.90521 -5.55856 0
M  V30 2289 H 210.622 2.82614 -5.41259 0
M  V30 2290 H 212.036 0.573509 -5.70424 0
M  V30 2291 H 210.433 -0.160783 -5.99885 0
M  V30 2292 H 211.503 -0.86237 -4.7717 0
M  V30 2293 N 212.846 1.57033 -0.133567 0
M  V30 2294 C 214.074 2.00044 0.528195 0
M  V30 2295 C 214.489 1.01349 1.59291 0
M  V30 2296 O 213.846 0.00848369 1.82498 0
M  V30 2297 C 213.897 3.43018 1.1411 0
M  V30 2298 O 213.618 4.37939 0.11892 0
M  V30 2299 C 215.119 4.01237 1.88477 0
M  V30 2300 H 212.339 0.656517 0.138661 0
M  V30 2301 H 214.883 2.03267 -0.224196 0
M  V30 2302 H 213.038 3.40688 1.84418 0
M  V30 2303 H 213.452 5.21436 0.56613 0
M  V30 2304 H 214.926 5.03314 2.26669 0
M  V30 2305 H 215.403 3.41193 2.76558 0
M  V30 2306 H 216.009 4.07156 1.22898 0
M  V30 2307 N 214.325 -0.140222 1.56975 0
M  V30 2308 C 215.275 -1.17827 1.95194 0
M  V30 2309 C 216.259 -1.38195 0.824075 0
M  V30 2310 O 217.451 -1.39643 1.0876 0
M  V30 2311 C 214.58 -2.51024 2.34184 0
M  V30 2312 C 213.666 -2.3422 3.53556 0
M  V30 2313 N 214.057 -1.87185 4.69889 0
M  V30 2314 C 212.355 -2.64949 3.58773 0
M  V30 2315 C 213.056 -1.83586 5.5197 0
M  V30 2316 N 212.032 -2.2715 4.93866 0
M  V30 2317 H 215.834 -0.806817 2.82609 0
M  V30 2318 H 213.348 -0.348208 1.58623 0
M  V30 2319 H 215.345 -3.26074 2.59772 0
M  V30 2320 H 214.005 -2.88945 1.48124 0
M  V30 2321 H 215.016 -1.57048 4.93514 0
M  V30 2322 H 211.693 -3.067 2.8327 0
M  V30 2323 H 213.083 -1.48655 6.55249 0
M  V30 2324 N 215.803 -1.52179 -0.40978 0
M  V30 2325 C 216.751 -1.76086 -1.51975 0
M  V30 2326 C 217.745 -0.627964 -1.57331 0
M  V30 2327 O 218.951 -0.809993 -1.60745 0
M  V30 2328 H 215.326 -0.556829 -0.505416 0
M  V30 2329 H 217.297 -2.69077 -1.28996 0
M  V30 2330 C 216.046 -1.92799 -2.8935 0
M  V30 2331 H 215.369 -2.79392 -2.85972 0
M  V30 2332 H 216.809 -2.13527 -3.66309 0
M  V30 2333 C 215.268 -0.694923 -3.29655 0
M  V30 2334 O 215.798 0.13751 -4.01465 0
M  V30 2335 N 214.004 -0.53101 -2.85707 0
M  V30 2336 H 213.551 -1.20952 -2.27439 0
M  V30 2337 H 213.509 0.292718 -3.13034 0
M  V30 2338 N 217.281 0.66697 -1.42791 0
M  V30 2339 C 218.228 1.7803 -1.4688 0
M  V30 2340 C 219.198 1.6299 -0.319919 0
M  V30 2341 O 220.383 1.83432 -0.525118 0
M  V30 2342 C 217.523 3.1611 -1.38451 0
M  V30 2343 C 216.636 3.42381 -2.63437 0
M  V30 2344 C 215.771 4.70232 -2.47094 0
M  V30 2345 C 214.81 4.89564 -3.67415 0
M  V30 2346 N 213.947 6.08661 -3.49966 0
M  V30 2347 H 218.787 1.7387 -2.42019 0
M  V30 2348 H 216.324 0.84868 -1.20149 0
M  V30 2349 H 218.282 3.95914 -1.31561 0
M  V30 2350 H 216.912 3.19374 -0.469033 0
M  V30 2351 H 215.964 2.56774 -2.80662 0
M  V30 2352 H 217.276 3.52557 -3.52853 0
M  V30 2353 H 216.43 5.5814 -2.37834 0
M  V30 2354 H 215.169 4.62353 -1.5518 0
M  V30 2355 H 214.174 4.00096 -3.77099 0
M  V30 2356 H 215.399 4.99282 -4.6032 0
M  V30 2357 H 213.345 6.0194 -2.60776 0
M  V30 2358 H 213.262 6.19733 -4.32975 0
M  V30 2359 H 214.53 6.99226 -3.44532 0
M  V30 2360 N 218.759 1.29093 0.90403 0
M  V30 2361 C 220.008 1.16187 1.64874 0
M  V30 2362 C 220.321 -0.286742 1.93487 0
M  V30 2363 O 221.527 -0.537062 2.66135 0
M  V30 2364 C 219.983 2.03177 2.97064 0
M  V30 2365 C 219.591 3.52836 2.76062 0
M  V30 2366 C 221.335 1.98984 3.74974 0
M  V30 2367 C 219.242 4.31945 4.03952 0
M  V30 2368 H 218.172 0.431246 0.618501 0
M  V30 2369 H 220.823 1.53699 1.00243 0
M  V30 2370 H 219.205 1.5853 3.62883 0
M  V30 2371 H 220.379 4.05507 2.18863 0
M  V30 2372 H 218.694 3.58656 2.11553 0
M  V30 2373 H 221.291 2.55351 4.69787 0
M  V30 2374 H 221.634 0.968815 4.0487 0
M  V30 2375 H 222.167 2.41652 3.15989 0
M  V30 2376 H 218.906 5.34667 3.79225 0
M  V30 2377 H 218.426 3.84045 4.60727 0
M  V30 2378 H 220.105 4.42379 4.72133 0
M  V30 2379 N 220.237 -1.11381 1.11499 0
M  V30 2380 C 221.465 -1.86934 0.88675 0
M  V30 2381 C 221.88 -1.80195 -0.563476 0
M  V30 2382 O 221.237 -1.18367 -1.38908 0
M  V30 2383 C 221.288 -3.35722 1.34064 0
M  V30 2384 O 221.009 -3.4232 2.73401 0
M  V30 2385 C 222.51 -4.2818 1.14791 0
M  V30 2386 H 219.73 -0.591117 0.317523 0
M  V30 2387 H 222.274 -1.40865 1.48248 0
M  V30 2388 H 220.429 -3.79294 0.788355 0
M  V30 2389 H 220.843 -4.34971 2.93087 0
M  V30 2390 H 222.317 -5.30817 1.5145 0
M  V30 2391 H 222.794 -4.39113 0.0875279 0
M  V30 2392 H 223.4 -3.90402 1.68721 0
M  V30 2393 N 221.715 -0.905404 -1.28997 0
M  V30 2394 C 222.662 -0.385892 -2.27551 0
M  V30 2395 C 223.632 0.535113 -1.57244 0
M  V30 2396 O 224.817 0.459119 -1.85194 0
M  V30 2397 C 221.957 0.375461 -3.43051 0
M  V30 2398 C 221.07 -0.577092 -4.28128 0
M  V30 2399 C 220.205 0.201879 -5.30816 0
M  V30 2400 C 219.244 -0.744829 -6.07551 0
M  V30 2401 N 218.381 9.42587e-05 -7.021 0
M  V30 2402 H 223.221 -1.23139 -2.71368 0
M  V30 2403 H 220.758 -0.618542 -1.33463 0
M  V30 2404 H 222.716 0.832992 -4.088 0
M  V30 2405 H 221.346 1.18537 -3.00248 0
M  V30 2406 H 220.398 -1.15315 -3.62501 0
M  V30 2407 H 221.71 -1.30152 -4.8152 0
M  V30 2408 H 220.864 0.720351 -6.02408 0
M  V30 2409 H 219.603 0.959413 -4.7817 0
M  V30 2410 H 218.608 -1.27475 -5.34818 0
M  V30 2411 H 219.833 -1.50178 -6.62286 0
M  V30 2412 H 217.779 0.739791 -6.51815 0
M  V30 2413 H 217.696 -0.664321 -7.53076 0
M  V30 2414 H 218.964 0.498644 -7.77903 0
M  V30 2415 N 223.193 1.4272 -0.668489 0
M  V30 2416 C 224.123 2.335 -0.000100175 0
M  V30 2417 C 225.104 1.50328 0.795964 0
M  V30 2418 O 226.289 1.78949 0.754385 0
M  V30 2419 C 223.419 3.33874 0.956302 0
M  V30 2420 C 222.373 4.27152 0.269278 0
M  V30 2421 C 221.699 5.17684 1.33818 0
M  V30 2422 C 222.999 5.15373 -0.847805 0
M  V30 2423 H 224.693 2.89639 -0.758244 0
M  V30 2424 H 222.239 1.39269 -0.366079 0
M  V30 2425 H 224.192 3.9629 1.43292 0
M  V30 2426 H 222.916 2.76025 1.74579 0
M  V30 2427 H 221.575 3.66123 -0.187042 0
M  V30 2428 H 221.223 4.56165 2.1195 0
M  V30 2429 H 220.923 5.80918 0.883659 0
M  V30 2430 H 222.447 5.82974 1.81586 0
M  V30 2431 H 223.861 5.7151 -0.452681 0
M  V30 2432 H 222.258 5.87407 -1.22773 0
M  V30 2433 H 223.328 4.5415 -1.69929 0
M  V30 2434 N 224.671 0.411399 1.52136 0
M  V30 2435 C 225.919 -0.163322 2.01439 0
M  V30 2436 C 226.24 -1.45453 1.29879 0
M  V30 2437 O 225.51 -1.91225 0.4254 0
M  V30 2438 H 224.09 -0.0633447 0.744309 0
M  V30 2439 H 226.752 0.548161 1.87033 0
M  V30 2440 H 225.848 -0.357817 3.10042 0
M  V30 2441 N 226.149 -1.5696 0.141893 0
M  V30 2442 C 227.374 -2.00754 -0.520838 0
M  V30 2443 C 227.799 -1.0213 -1.57959 0
M  V30 2444 O 227.157 0.00371324 -1.813 0
M  V30 2445 C 227.205 -3.43318 -1.10294 0
M  V30 2446 O 226.309 -3.47679 -2.21795 0
M  V30 2447 H 225.65 -0.651564 -0.127908 0
M  V30 2448 H 228.18 -2.03221 0.23712 0
M  V30 2449 H 228.19 -3.82012 -1.43287 0
M  V30 2450 H 226.865 -4.14608 -0.327574 0
M  V30 2451 H 225.442 -3.20824 -1.9007 0
M  V30 2452 N 227.627 0.131896 -1.57047 0
M  V30 2453 C 228.874 0.841932 -1.84168 0
M  V30 2454 C 229.202 1.8048 -0.725066 0
M  V30 2455 O 228.457 1.93618 0.284692 0
M  V30 2456 C 228.756 1.63703 -3.17704 0
M  V30 2457 C 228.422 0.81961 -4.43388 0
M  V30 2458 C 227.084 0.594148 -4.77518 0
M  V30 2459 C 229.436 0.248977 -5.20605 0
M  V30 2460 C 226.764 -0.212409 -5.86315 0
M  V30 2461 C 229.116 -0.544701 -6.30251 0
M  V30 2462 C 227.78 -0.780599 -6.6292 0
M  V30 2463 H 227.05 0.308085 -0.673917 0
M  V30 2464 H 229.697 0.104867 -1.91213 0
M  V30 2465 H 228.002 2.44464 -3.06177 0
M  V30 2466 H 229.699 2.19015 -3.35907 0
M  V30 2467 H 226.289 1.00542 -4.16641 0
M  V30 2468 H 230.473 0.410408 -4.946 0
M  V30 2469 H 225.729 -0.404524 -6.1006 0
M  V30 2470 H 229.903 -0.993922 -6.89271 0
M  V30 2471 H 227.53 -1.40742 -7.47058 0
M  V30 2472 N 229.106 1.52395 0.401703 0
M  V30 2473 C 230.016 1.7917 1.51444 0
M  V30 2474 C 231.032 0.677691 1.6026 0
M  V30 2475 O 232.208 0.963909 1.76835 0
M  V30 2476 C 229.273 1.94347 2.87107 0
M  V30 2477 C 228.334 3.18257 2.88116 0
M  V30 2478 C 227.567 3.32701 4.17308 0
M  V30 2479 O 227.79 2.52238 5.11598 0
M  V30 2480 O 226.724 4.25891 4.25324 0
M  V30 2481 H 230.55 2.73633 1.31752 0
M  V30 2482 H 228.135 1.3733 0.588296 0
M  V30 2483 H 230.017 2.06109 3.67555 0
M  V30 2484 H 228.692 1.03073 3.06851 0
M  V30 2485 H 227.599 3.11947 2.06494 0
M  V30 2486 H 228.932 4.09336 2.73322 0
M  V30 2487 N 230.584 -0.659388 1.43143 0
M  V30 2488 C 231.832 -1.41654 1.44147 0
M  V30 2489 C 232.153 -1.94893 0.0645739 0
M  V30 2490 O 231.423 -1.74044 -0.899198 0
M  V30 2491 H 230.003 -0.525708 0.530697 0
M  V30 2492 H 232.665 -0.778097 1.78694 0
M  V30 2493 H 231.761 -2.26195 2.1504 0
M  V30 2494 N 232.062 -1.29571 -0.897171 0
M  V30 2495 C 232.992 -1.17473 -2.01798 0
M  V30 2496 C 233.973 -0.068323 -1.69963 0
M  V30 2497 O 235.158 -0.248239 -1.92607 0
M  V30 2498 C 232.288 -0.853099 -3.36659 0
M  V30 2499 C 231.242 -1.9161 -3.82713 0
M  V30 2500 C 230.568 -1.44773 -5.14728 0
M  V30 2501 C 231.868 -3.32535 -4.02763 0
M  V30 2502 H 233.562 -2.11237 -2.12177 0
M  V30 2503 H 231.108 -1.01699 -1.01948 0
M  V30 2504 H 233.061 -0.755165 -4.14578 0
M  V30 2505 H 231.785 0.120236 -3.26379 0
M  V30 2506 H 230.444 -2.00346 -3.07013 0
M  V30 2507 H 230.092 -0.462995 -5.00865 0
M  V30 2508 H 229.792 -2.15865 -5.46513 0
M  V30 2509 H 231.316 -1.36334 -5.95185 0
M  V30 2510 H 232.73 -3.26626 -4.71156 0
M  V30 2511 H 231.127 -4.01607 -4.45905 0
M  V30 2512 H 232.197 -3.75326 -3.07016 0
M  V30 2513 N 233.54 1.10788 -1.12088 0
M  V30 2514 C 234.786 1.82942 -0.875226 0
M  V30 2515 C 235.119 1.84779 0.597538 0
M  V30 2516 O 234.394 1.30578 1.44152 0
M  V30 2517 C 234.677 3.29789 -1.44606 0
M  V30 2518 C 234.53 3.36307 -2.98693 0
M  V30 2519 C 235.849 4.26064 -1.10261 0
M  V30 2520 H 232.968 0.664195 -0.319397 0
M  V30 2521 H 235.61 1.29867 -1.38689 0
M  V30 2522 H 233.76 3.75118 -1.01089 0
M  V30 2523 H 235.432 2.99487 -3.50864 0
M  V30 2524 H 233.675 2.76318 -3.34411 0
M  V30 2525 H 234.346 4.39694 -3.33726 0
M  V30 2526 H 236.822 3.88951 -1.4784 0
M  V30 2527 H 235.698 5.27183 -1.52869 0
M  V30 2528 H 235.959 4.42098 -0.0142953 0
M  V30 2529 N 235.018 0.912232 1.28515 0
M  V30 2530 C 235.966 0.389597 2.29314 0
M  V30 2531 C 236.96 -0.517915 1.61289 0
M  V30 2532 O 238.166 -0.399328 1.75515 0
M  V30 2533 H 234.541 0.107386 0.744293 0
M  V30 2534 H 236.512 1.25286 2.70825 0
M  V30 2535 C 235.261 -0.356496 3.45868 0
M  V30 2536 H 234.584 0.332608 3.98414 0
M  V30 2537 H 236.024 -0.686851 4.184 0
M  V30 2538 C 234.483 -1.56383 2.98406 0
M  V30 2539 O 235.013 -2.66294 3.00749 0
M  V30 2540 N 233.219 -1.41029 2.54085 0
M  V30 2541 H 232.766 -0.516089 2.52377 0
M  V30 2542 H 232.724 -2.21939 2.22689 0
M  V30 2543 N 236.496 -1.42363 0.676048 0
M  V30 2544 C 237.426 -2.33497 0.0124832 0
M  V30 2545 C 238.407 -1.50748 -0.787981 0
M  V30 2546 O 239.592 -1.79346 -0.744884 0
M  V30 2547 C 236.722 -3.34377 -0.938582 0
M  V30 2548 C 235.676 -4.27289 -0.246622 0
M  V30 2549 C 235.002 -5.18386 -1.31071 0
M  V30 2550 C 236.302 -5.14916 0.875125 0
M  V30 2551 H 237.996 -2.89233 0.773593 0
M  V30 2552 H 235.542 -1.39073 0.37346 0
M  V30 2553 H 237.495 -3.97044 -1.41188 0
M  V30 2554 H 236.219 -2.76947 -1.73113 0
M  V30 2555 H 234.878 -3.66018 0.206456 0
M  V30 2556 H 234.526 -4.57282 -2.09528 0
M  V30 2557 H 234.226 -5.81378 -0.852839 0
M  V30 2558 H 235.75 -5.83929 -1.78492 0
M  V30 2559 H 237.164 -5.71262 0.482983 0
M  V30 2560 H 235.561 -5.86747 1.25887 0
M  V30 2561 H 236.631 -4.53242 1.72335 0
M  V30 2562 N 237.974 -0.419461 -1.51915 0
M  V30 2563 C 239.202 0.152136 -2.0634 0
M  V30 2564 C 239.617 1.37988 -1.28859 0
M  V30 2565 O 238.974 1.79243 -0.343232 0
M  V30 2566 C 239.025 0.492266 -3.58133 0
M  V30 2567 O 238.746 -0.686736 -4.32684 0
M  V30 2568 C 240.247 1.11648 -4.2901 0
M  V30 2569 H 237.467 0.0158325 -0.670813 0
M  V30 2570 H 240.011 -0.593394 -1.95702 0
M  V30 2571 H 238.166 1.18769 -3.68745 0
M  V30 2572 H 238.58 -0.400341 -5.2297 0
M  V30 2573 H 240.054 1.3046 -5.36362 0
M  V30 2574 H 240.531 2.09251 -3.86148 0
M  V30 2575 H 241.137 0.460958 -4.22795 0
M  V30 2576 N 239.452 1.56882 -0.150215 0
M  V30 2577 C 240.699 1.96228 0.500093 0
M  V30 2578 C 241.027 1.03522 1.64661 0
M  V30 2579 O 240.282 0.0650683 1.95592 0
M  V30 2580 C 240.581 3.41801 1.04437 0
M  V30 2581 C 240.247 4.50897 0.0159671 0
M  V30 2582 C 238.909 4.8046 -0.266731 0
M  V30 2583 C 241.261 5.16703 -0.683192 0
M  V30 2584 C 238.589 5.73135 -1.25434 0
M  V30 2585 C 240.941 6.10441 -1.65964 0
M  V30 2586 C 239.605 6.38382 -1.95 0
M  V30 2587 H 238.875 0.718048 0.182997 0
M  V30 2588 H 241.522 1.90019 -0.237724 0
M  V30 2589 H 239.827 3.44857 1.85959 0
M  V30 2590 H 241.524 3.69573 1.55618 0
M  V30 2591 H 238.114 4.27891 0.246485 0
M  V30 2592 H 242.298 4.93993 -0.477983 0
M  V30 2593 H 237.554 5.93074 -1.48571 0
M  V30 2594 H 241.728 6.60507 -2.20689 0
M  V30 2595 H 239.355 7.09996 -2.71679 0
M  V30 2596 N 240.93 -0.123565 1.57115 0
M  V30 2597 C 242.179 -0.830704 1.83799 0
M  V30 2598 C 242.492 -1.81259 0.735158 0
M  V30 2599 O 243.698 -2.56558 0.888278 0
M  V30 2600 C 242.154 -1.52802 3.25852 0
M  V30 2601 C 241.762 -0.587356 4.44133 0
M  V30 2602 C 243.506 -2.22056 3.61789 0
M  V30 2603 C 241.413 -1.28764 5.77212 0
M  V30 2604 H 240.343 -0.313967 0.685522 0
M  V30 2605 H 242.994 -0.0834359 1.8331 0
M  V30 2606 H 241.376 -2.32175 3.20797 0
M  V30 2607 H 242.55 0.172829 4.60476 0
M  V30 2608 H 240.865 -0.00201892 4.164 0
M  V30 2609 H 243.462 -2.75131 4.58483 0
M  V30 2610 H 243.805 -2.99644 2.88997 0
M  V30 2611 H 244.338 -1.49576 3.68608 0
M  V30 2612 H 241.077 -0.55314 6.53162 0
M  V30 2613 H 240.597 -2.01995 5.64764 0
M  V30 2614 H 242.276 -1.8221 6.20813 0
M  V30 2615 N 242.408 -1.52605 -0.393616 0
M  V30 2616 C 243.358 -1.73436 -1.48 0
M  V30 2617 C 244.342 -0.588386 -1.49756 0
M  V30 2618 O 245.534 -0.846047 -1.5547 0
M  V30 2619 C 242.663 -1.90247 -2.85764 0
M  V30 2620 C 241.749 -3.10763 -2.88595 0
M  V30 2621 N 242.14 -4.33196 -2.61103 0
M  V30 2622 C 240.438 -3.10914 -3.19763 0
M  V30 2623 C 241.139 -5.1477 -2.70899 0
M  V30 2624 N 240.115 -4.50356 -3.04435 0
M  V30 2625 H 243.917 -2.65727 -1.25563 0
M  V30 2626 H 241.431 -1.5085 -0.601513 0
M  V30 2627 H 243.428 -2.03291 -3.63976 0
M  V30 2628 H 242.088 -0.991663 -3.09186 0
M  V30 2629 H 243.099 -4.61408 -2.35209 0
M  V30 2630 H 239.776 -2.29626 -3.4868 0
M  V30 2631 H 241.166 -6.22355 -2.53227 0
M  V30 2632 N 243.887 0.651787 -1.4349 0
M  V30 2633 C 244.817 1.77621 -1.51569 0
M  V30 2634 C 245.798 1.66022 -0.370253 0
M  V30 2635 O 246.983 1.85095 -0.587658 0
M  V30 2636 C 244.113 3.16056 -1.43966 0
M  V30 2637 C 243.067 3.4242 -2.56774 0
M  V30 2638 C 242.393 4.8067 -2.34223 0
M  V30 2639 C 243.693 3.37023 -3.99015 0
M  V30 2640 H 245.387 1.71117 -2.45681 0
M  V30 2641 H 242.933 0.821825 -1.18246 0
M  V30 2642 H 244.886 3.94472 -1.48221 0
M  V30 2643 H 243.61 3.23293 -0.463586 0
M  V30 2644 H 242.269 2.66375 -2.51873 0
M  V30 2645 H 241.917 4.84585 -1.34856 0
M  V30 2646 H 241.617 4.9927 -3.09844 0
M  V30 2647 H 243.141 5.61342 -2.40265 0
M  V30 2648 H 244.555 4.05374 -4.05395 0
M  V30 2649 H 242.952 3.67159 -4.74673 0
M  V30 2650 H 244.022 2.3518 -4.2405 0
M  V30 2651 N 245.365 1.30045 0.890287 0
M  V30 2652 C 246.297 1.11786 2.00091 0
M  V30 2653 C 247.31 0.0626307 1.62679 0
M  V30 2654 O 248.499 0.308112 1.75821 0
M  V30 2655 C 245.599 0.681527 3.31977 0
M  V30 2656 C 244.772 1.81735 3.97858 0
M  V30 2657 C 243.831 1.37045 5.08041 0
M  V30 2658 O 242.857 2.07677 5.29961 0
M  V30 2659 N 244.059 0.246525 5.79976 0
M  V30 2660 H 246.824 2.07441 2.16306 0
M  V30 2661 H 244.385 1.2211 1.06305 0
M  V30 2662 H 246.377 0.365675 4.03045 0
M  V30 2663 H 244.947 -0.182828 3.12065 0
M  V30 2664 H 244.167 2.30159 3.20032 0
M  V30 2665 H 245.455 2.57865 4.38615 0
M  V30 2666 H 244.853 -0.34215 5.64664 0
M  V30 2667 H 243.41 -0.00990438 6.51799 0
M  V30 2668 N 246.843 -1.10192 1.12674 0
M  V30 2669 C 247.793 -2.14754 0.765801 0
M  V30 2670 C 248.777 -1.59154 -0.236409 0
M  V30 2671 O 249.969 -1.76951 -0.0415261 0
M  V30 2672 C 247.098 -3.42563 0.224827 0
M  V30 2673 C 246.184 -4.05091 1.25548 0
M  V30 2674 N 246.575 -4.42287 2.4539 0
M  V30 2675 C 244.873 -4.32186 1.10142 0
M  V30 2676 C 245.574 -4.91441 3.11224 0
M  V30 2677 N 244.55 -4.88405 2.38666 0
M  V30 2678 H 248.352 -2.41309 1.67772 0
M  V30 2679 H 245.866 -1.27339 1.00789 0
M  V30 2680 H 247.863 -4.16868 -0.0519578 0
M  V30 2681 H 246.523 -3.17467 -0.681515 0
M  V30 2682 H 247.534 -4.33902 2.82754 0
M  V30 2683 H 244.211 -4.16735 0.252587 0
M  V30 2684 H 245.601 -5.29749 4.13298 0
M  V30 2685 N 248.321 -0.919034 -1.28029 0
M  V30 2686 C 249.269 -0.401753 -2.29104 0
M  V30 2687 C 250.263 0.509354 -1.61561 0
M  V30 2688 O 251.469 0.390014 -1.75724 0
M  V30 2689 H 247.844 -0.111331 -0.743713 0
M  V30 2690 H 249.815 -1.2672 -2.70156 0
M  V30 2691 C 248.564 0.338148 -3.46052 0
M  V30 2692 H 247.887 -0.353732 -3.98232 0
M  V30 2693 H 249.327 0.664653 -4.18758 0
M  V30 2694 C 247.786 1.54798 -2.99231 0
M  V30 2695 O 248.316 2.64696 -3.02157 0
M  V30 2696 N 246.522 1.3968 -2.54829 0
M  V30 2697 H 246.069 0.502698 -2.52647 0
M  V30 2698 H 246.027 2.20755 -2.23863 0
M  V30 2699 N 249.799 1.42003 -0.683588 0
M  V30 2700 C 251.215 1.55625 -0.353976 0
M  V30 2701 C 251.415 1.66151 1.14 0
M  V30 2702 O 250.471 1.63329 1.92561 0
M  V30 2703 C 251.784 2.80171 -1.092 0
M  V30 2704 C 253.332 2.93954 -1.07518 0
M  V30 2705 C 253.807 4.21372 -1.79471 0
M  V30 2706 N 255.298 4.28303 -1.76381 0
M  V30 2707 C 256.033 5.25729 -2.28904 0
M  V30 2708 N 255.529 6.29254 -2.89846 0
M  V30 2709 N 257.322 5.17586 -2.19228 0
M  V30 2710 H 249.473 1.33415 -1.6527 0
M  V30 2711 H 251.736 0.64282 -0.696769 0
M  V30 2712 H 251.442 2.78561 -2.14701 0
M  V30 2713 H 251.316 3.7133 -0.662862 0
M  V30 2714 H 253.703 2.95086 -0.028475 0
M  V30 2715 H 253.784 2.04002 -1.54328 0
M  V30 2716 H 253.428 4.21001 -2.84114 0
M  V30 2717 H 253.358 5.10275 -1.30104 0
M  V30 2718 H 255.849 3.54119 -1.31939 0
M  V30 2719 H 256.162 6.99964 -3.27522 0
M  V30 2720 H 254.507 6.29791 -2.93919 0
M  V30 2721 H 257.698 4.35631 -1.71299 0
M  V30 2722 H 257.871 5.93348 -2.60466 0
M  V30 2723 N 251.277 0.427512 1.51691 0
M  V30 2724 C 252.207 -0.3796 2.30394 0
M  V30 2725 C 253.188 -1.02982 1.35384 0
M  V30 2726 O 254.373 -1.03534 1.643 0
M  V30 2727 C 251.503 -1.48649 3.1388 0
M  V30 2728 C 250.457 -0.960294 4.17088 0
M  V30 2729 C 249.783 -2.16219 4.89033 0
M  V30 2730 C 251.083 -0.00153679 5.223 0
M  V30 2731 H 252.777 0.277164 2.98114 0
M  V30 2732 H 250.323 0.134739 1.43368 0
M  V30 2733 H 252.276 -2.05826 3.67714 0
M  V30 2734 H 251 -2.1714 2.43962 0
M  V30 2735 H 249.659 -0.410806 3.64291 0
M  V30 2736 H 249.307 -2.83307 4.15628 0
M  V30 2737 H 249.007 -1.81654 5.58816 0
M  V30 2738 H 250.531 -2.73968 5.45687 0
M  V30 2739 H 251.945 -0.482687 5.71264 0
M  V30 2740 H 250.342 0.256199 5.99553 0
M  V30 2741 H 251.412 0.938174 4.75738 0
M  V30 2742 N 252.755 -1.56801 0.158532 0
M  V30 2743 C 253.702 -2.17337 -0.776729 0
M  V30 2744 C 254.672 -1.1096 -1.23601 0
M  V30 2745 O 255.857 -1.39054 -1.30647 0
M  V30 2746 C 252.997 -2.80822 -2.00582 0
M  V30 2747 C 252.11 -4.01624 -1.59129 0
M  V30 2748 C 251.245 -4.53072 -2.77306 0
M  V30 2749 C 250.284 -5.66314 -2.32282 0
M  V30 2750 N 249.421 -6.12329 -3.43508 0
M  V30 2751 H 254.261 -2.96918 -0.253701 0
M  V30 2752 H 251.798 -1.46661 -0.113504 0
M  V30 2753 H 253.756 -3.15779 -2.72652 0
M  V30 2754 H 252.386 -2.03866 -2.50277 0
M  V30 2755 H 251.438 -3.72571 -0.767806 0
M  V30 2756 H 252.75 -4.83633 -1.2207 0
M  V30 2757 H 251.904 -4.90145 -3.57551 0
M  V30 2758 H 250.643 -3.70095 -3.17617 0
M  V30 2759 H 249.648 -5.28806 -1.5048 0
M  V30 2760 H 250.873 -6.51085 -1.93043 0
M  V30 2761 H 248.819 -5.32284 -3.83418 0
M  V30 2762 H 248.736 -6.89293 -3.105 0
M  V30 2763 H 250.004 -6.5405 -4.24075 0
M  V30 2764 N 254.233 0.115231 -1.57178 0
M  V30 2765 C 255.143 1.15994 -2.03918 0
M  V30 2766 C 256.159 1.45103 -0.960268 0
M  V30 2767 O 257.335 1.56144 -1.27204 0
M  V30 2768 C 254.4 2.46568 -2.43732 0
M  V30 2769 C 253.461 2.24822 -3.65723 0
M  V30 2770 C 252.694 3.4917 -4.03629 0
M  V30 2771 O 252.917 4.56623 -3.41835 0
M  V30 2772 O 251.851 3.39949 -4.96708 0
M  V30 2773 H 255.677 0.793019 -2.93164 0
M  V30 2774 H 253.262 0.3263 -1.45793 0
M  V30 2775 H 255.144 3.23492 -2.70057 0
M  V30 2776 H 253.819 2.82726 -1.57631 0
M  V30 2777 H 252.726 1.45744 -3.44542 0
M  V30 2778 H 254.059 1.93566 -4.52541 0
M  V30 2779 N 255.711 1.52812 0.385517 0
M  V30 2780 C 256.988 1.5861 1.14465 0
M  V30 2781 C 257.368 0.381402 2.07626 0
M  V30 2782 O 256.716 -0.629999 2.19643 0
M  V30 2783 C 256.926 2.92664 1.90128 0
M  V30 2784 C 258.274 3.46526 2.45367 0
M  V30 2785 O 259.298 2.94562 2.0028 0
M  V30 2786 O 258.157 4.37323 3.27736 0
M  V30 2787 H 255.251 0.639855 0.523941 0
M  V30 2788 H 257.797 1.65149 0.390389 0
M  V30 2789 H 256.569 3.71788 1.22022 0
M  V30 2790 H 256.192 2.89527 2.72507 0
M  V30 2791 N 257.189 -0.644168 1.43834 0
M  V30 2792 C 258.152 -1.73857 1.49353 0
M  V30 2793 C 259.152 -1.56315 0.377112 0
M  V30 2794 O 260.342 -1.62048 0.639226 0
M  V30 2795 C 257.474 -3.12819 1.35488 0
M  V30 2796 H 258.667 -1.70342 2.46827 0
M  V30 2797 H 256.22 -0.856652 1.30733 0
M  V30 2798 H 256.955 -3.2194 0.390569 0
M  V30 2799 H 256.74 -3.26958 2.16428 0
M  V30 2800 H 258.23 -3.92606 1.42302 0
M  V30 2801 N 258.668 -1.30515 -0.883378 0
M  V30 2802 C 259.914 -1.19607 -1.63774 0
M  V30 2803 C 260.247 0.248314 -1.92606 0
M  V30 2804 O 259.522 1.17742 -1.54813 0
M  V30 2805 C 259.805 -2.02669 -2.97653 0
M  V30 2806 C 259.658 -3.55335 -2.75784 0
M  V30 2807 C 260.977 -1.86573 -3.98596 0
M  V30 2808 H 258.096 -0.435856 -0.594305 0
M  V30 2809 H 260.738 -1.60165 -1.02212 0
M  V30 2810 H 258.888 -1.68208 -3.50197 0
M  V30 2811 H 260.56 -3.99863 -2.30016 0
M  V30 2812 H 258.803 -3.79438 -2.1026 0
M  V30 2813 H 259.474 -4.08745 -3.70988 0
M  V30 2814 H 261.95 -2.16703 -3.55217 0
M  V30 2815 H 260.826 -2.47014 -4.90179 0
M  V30 2816 H 261.087 -0.825321 -4.34328 0
M  V30 2817 N 260.146 1.09593 -1.13257 0
M  V30 2818 C 261.371 1.8604 -0.916732 0
M  V30 2819 C 261.796 1.80504 0.529146 0
M  V30 2820 O 261.154 1.18127 1.37534 0
M  V30 2821 C 261.202 3.32017 -1.40703 0
M  V30 2822 O 260.306 4.08141 -0.591153 0
M  V30 2823 H 259.647 0.576943 -0.328683 0
M  V30 2824 H 262.177 1.38405 -1.50682 0
M  V30 2825 H 262.187 3.82865 -1.4099 0
M  V30 2826 H 260.862 3.35361 -2.45979 0
M  V30 2827 H 259.439 3.67084 -0.656005 0
M  V30 2828 N 261.624 0.925811 1.2754 0
M  V30 2829 C 262.587 0.428129 2.25166 0
M  V30 2830 C 263.587 -0.452261 1.54309 0
M  V30 2831 O 264.777 -0.253608 1.72344 0
M  V30 2832 C 261.909 -0.384749 3.38722 0
M  V30 2833 H 263.102 1.29066 2.70706 0
M  V30 2834 H 260.655 0.706323 1.3943 0
M  V30 2835 H 261.39 -1.26618 2.98561 0
M  V30 2836 H 261.175 0.246454 3.91325 0
M  V30 2837 H 262.665 -0.723389 4.11287 0
M  V30 2838 N 263.102 -1.41638 0.69111 0
M  V30 2839 C 264.065 -2.29178 0.0319786 0
M  V30 2840 C 265.065 -1.44153 -0.712496 0
M  V30 2841 O 266.255 -1.65354 -0.548053 0
M  V30 2842 C 263.387 -3.26952 -0.965161 0
M  V30 2843 H 264.58 -2.88959 0.802681 0
M  V30 2844 H 262.133 -1.4955 0.454356 0
M  V30 2845 H 262.868 -2.72142 -1.76378 0
M  V30 2846 H 262.653 -3.89685 -0.434522 0
M  V30 2847 H 264.143 -3.92561 -1.42428 0
M  V30 2848 N 264.58 -0.43555 -1.51462 0
M  V30 2849 C 265.827 0.131514 -2.02072 0
M  V30 2850 C 266.155 1.42868 -1.31981 0
M  V30 2851 O 265.41 1.91076 -0.422883 0
M  V30 2852 C 265.709 0.39942 -3.55161 0
M  V30 2853 C 265.375 -0.81172 -4.43533 0
M  V30 2854 C 264.037 -1.14387 -4.67407 0
M  V30 2855 C 266.389 -1.61976 -4.95392 0
M  V30 2856 C 263.717 -2.28477 -5.40384 0
M  V30 2857 C 266.069 -2.75164 -5.6962 0
M  V30 2858 C 264.733 -3.08835 -5.91758 0
M  V30 2859 H 264.003 0.0481244 -0.739436 0
M  V30 2860 H 266.65 -0.58238 -1.8243 0
M  V30 2861 H 264.955 1.19519 -3.73125 0
M  V30 2862 H 266.652 0.85157 -3.91854 0
M  V30 2863 H 263.242 -0.542898 -4.25148 0
M  V30 2864 H 267.426 -1.37637 -4.76833 0
M  V30 2865 H 262.682 -2.5488 -5.55739 0
M  V30 2866 H 266.856 -3.38147 -6.08793 0
M  V30 2867 H 264.483 -3.97353 -6.48086 0
M  V30 2868 N 266.058 1.56714 -0.166846 0
M  V30 2869 C 267.005 2.17746 0.765193 0
M  V30 2870 C 267.975 1.11614 1.23011 0
M  V30 2871 O 269.16 1.39745 1.29908 0
M  V30 2872 C 266.3 2.81882 1.9909 0
M  V30 2873 C 265.413 4.02462 1.56997 0
M  V30 2874 C 264.548 4.54537 2.749 0
M  V30 2875 C 263.587 5.67538 2.29275 0
M  V30 2876 N 262.724 6.14142 3.40255 0
M  V30 2877 H 267.564 2.97048 0.237952 0
M  V30 2878 H 265.101 1.4672 0.105725 0
M  V30 2879 H 267.059 3.17221 2.70974 0
M  V30 2880 H 265.689 2.05191 2.49192 0
M  V30 2881 H 264.741 3.72973 0.748037 0
M  V30 2882 H 266.053 4.84273 1.19503 0
M  V30 2883 H 265.207 4.92035 3.54946 0
M  V30 2884 H 263.946 3.71774 3.1565 0
M  V30 2885 H 262.951 5.29597 1.47674 0
M  V30 2886 H 264.176 6.52099 1.89588 0
M  V30 2887 H 262.122 5.3431 3.8059 0
M  V30 2888 H 262.039 6.9093 3.06841 0
M  V30 2889 H 263.307 6.56289 4.206 0
M  V30 2890 N 267.536 -0.106894 1.57237 0
M  V30 2891 C 268.784 -0.810921 1.85117 0
M  V30 2892 C 269.105 -1.7984 0.753827 0
M  V30 2893 O 268.375 -1.94649 -0.221056 0
M  V30 2894 H 266.955 -0.302466 0.683025 0
M  V30 2895 H 269.617 -0.0913324 1.94686 0
M  V30 2896 H 268.713 -1.34875 2.81452 0
M  V30 2897 N 269.014 -1.53014 -0.377408 0
M  V30 2898 C 269.944 -1.81589 -1.46791 0
M  V30 2899 C 270.925 -0.668622 -1.56408 0
M  V30 2900 O 272.11 -0.917337 -1.71168 0
M  V30 2901 C 269.24 -1.99519 -2.8427 0
M  V30 2902 C 268.194 -3.15249 -2.89486 0
M  V30 2903 C 267.52 -3.18451 -4.29527 0
M  V30 2904 C 268.82 -4.54084 -2.58079 0
M  V30 2905 H 270.514 -2.7291 -1.23127 0
M  V30 2906 H 268.06 -1.31319 -0.590883 0
M  V30 2907 H 270.013 -2.18092 -3.60575 0
M  V30 2908 H 268.737 -1.04897 -3.09296 0
M  V30 2909 H 267.396 -2.96477 -2.15631 0
M  V30 2910 H 267.044 -2.2149 -4.5161 0
M  V30 2911 H 266.744 -3.962 -4.33934 0
M  V30 2912 H 268.268 -3.39193 -5.07721 0
M  V30 2913 H 269.682 -4.72899 -3.24098 0
M  V30 2914 H 268.079 -5.33987 -2.7382 0
M  V30 2915 H 269.149 -4.60006 -1.53372 0
M  V30 2916 N 270.492 0.636531 -1.44174 0
M  V30 2917 C 271.439 1.74875 -1.50624 0
M  V30 2918 C 272.409 1.62275 -0.35442 0
M  V30 2919 O 273.594 1.82276 -0.563908 0
M  V30 2920 C 270.734 3.13102 -1.45125 0
M  V30 2921 C 269.847 3.36717 -2.7064 0
M  V30 2922 C 268.982 4.64885 -2.57013 0
M  V30 2923 C 268.021 4.8166 -3.77717 0
M  V30 2924 N 267.158 6.01101 -3.62798 0
M  V30 2925 H 271.998 1.68697 -2.45653 0
M  V30 2926 H 269.535 0.823004 -1.21922 0
M  V30 2927 H 271.493 3.93034 -1.39929 0
M  V30 2928 H 270.123 3.18308 -0.536671 0
M  V30 2929 H 269.175 2.50763 -2.86046 0
M  V30 2930 H 270.487 3.44993 -3.60252 0
M  V30 2931 H 269.641 5.52969 -2.49619 0
M  V30 2932 H 268.38 4.58957 -1.64953 0
M  V30 2933 H 267.385 3.92007 -3.85501 0
M  V30 2934 H 268.61 4.89406 -4.70807 0
M  V30 2935 H 266.556 5.96273 -2.73486 0
M  V30 2936 H 266.473 6.10409 -4.46023 0
M  V30 2937 H 267.741 6.91761 -3.59286 0
M  V30 2938 N 271.97 1.30982 0.876444 0
M  V30 2939 C 273.195 1.23373 1.66715 0
M  V30 2940 C 273.62 -0.19885 1.87046 0
M  V30 2941 O 272.978 -1.1427 1.40756 0
M  V30 2942 C 273.026 1.97644 3.01611 0
M  V30 2943 O 272.13 1.30935 3.91062 0
M  V30 2944 H 271.471 0.426279 0.509099 0
M  V30 2945 H 274.001 1.72944 1.09323 0
M  V30 2946 H 274.011 2.06992 3.51594 0
M  V30 2947 H 272.686 3.01829 2.86133 0
M  V30 2948 H 271.263 1.29996 3.49507 0
M  V30 2949 N 273.449 -1.08991 1.13837 0
M  V30 2950 C 274.379 -2.17771 0.842507 0
M  V30 2951 C 275.36 -1.6892 -0.20001 0
M  V30 2952 O 276.545 -1.94113 -0.0579731 0
M  V30 2953 C 273.675 -3.4589 0.312644 0
M  V30 2954 C 272.629 -4.08099 1.28992 0
M  V30 2955 C 271.955 -5.31098 0.619623 0
M  V30 2956 C 273.255 -4.50077 2.65005 0
M  V30 2957 H 274.949 -2.42777 1.75213 0
M  V30 2958 H 272.495 -1.16682 0.843875 0
M  V30 2959 H 274.448 -4.21297 0.0933043 0
M  V30 2960 H 273.172 -3.20419 -0.632382 0
M  V30 2961 H 271.831 -3.34717 1.49533 0
M  V30 2962 H 271.479 -5.0191 -0.33102 0
M  V30 2963 H 271.179 -5.73674 1.27167 0
M  V30 2964 H 272.703 -6.09224 0.409669 0
M  V30 2965 H 274.117 -5.16688 2.48407 0
M  V30 2966 H 272.514 -5.03553 3.26427 0
M  V30 2967 H 273.584 -3.62257 3.22332 0
M  V30 2968 N 274.927 -0.932562 -1.27047 0
M  V30 2969 C 275.837 -0.441219 -2.30414 0
M  V30 2970 C 276.853 0.480525 -1.67233 0
M  V30 2971 O 278.029 0.362151 -1.98117 0
M  V30 2972 C 275.094 0.293651 -3.45454 0
M  V30 2973 C 274.155 -0.663601 -4.2414 0
M  V30 2974 C 273.388 0.0362932 -5.33688 0
M  V30 2975 O 273.611 1.2548 -5.56427 0
M  V30 2976 O 272.545 -0.638015 -5.98509 0
M  V30 2977 H 276.371 -1.29962 -2.74488 0
M  V30 2978 H 273.956 -0.6981 -1.32087 0
M  V30 2979 H 275.838 0.707951 -4.15411 0
M  V30 2980 H 274.513 1.12758 -3.03426 0
M  V30 2981 H 273.42 -1.12768 -3.56699 0
M  V30 2982 H 274.753 -1.46489 -4.69896 0
M  V30 2983 N 276.405 1.4127 -0.698611 0
M  V30 2984 C 277.635 2.05205 -0.239644 0
M  V30 2985 C 278.043 1.52684 1.11733 0
M  V30 2986 O 277.386 0.671222 1.70998 0
M  V30 2987 C 277.448 3.59289 -0.123126 0
M  V30 2988 C 277.112 4.34619 -1.41263 0
M  V30 2989 C 278.109 4.63701 -2.35111 0
M  V30 2990 C 275.794 4.73837 -1.66684 0
M  V30 2991 C 277.788 5.30966 -3.52639 0
M  V30 2992 C 275.475 5.40837 -2.84498 0
M  V30 2993 C 276.473 5.69329 -3.77298 0
M  V30 2994 O 276.161 6.34949 -4.93047 0
M  V30 2995 H 275.893 0.66723 -0.108537 0
M  V30 2996 H 278.447 1.81974 -0.952602 0
M  V30 2997 H 276.677 3.81272 0.645628 0
M  V30 2998 H 278.366 4.04797 0.299056 0
M  V30 2999 H 279.132 4.33882 -2.16729 0
M  V30 3000 H 275.011 4.51039 -0.953135 0
M  V30 3001 H 278.555 5.53121 -4.25091 0
M  V30 3002 H 274.452 5.70075 -3.02795 0
M  V30 3003 H 275.22 6.53445 -4.92902 0
M  V30 3004 N 277.883 0.443576 1.51229 0
M  V30 3005 C 278.813 -0.355142 2.30783 0
M  V30 3006 C 279.794 -1.0154 1.36468 0
M  V30 3007 O 280.979 -1.01785 1.65389 0
M  V30 3008 C 278.109 -1.45312 3.15439 0
M  V30 3009 C 277.063 -0.916002 4.18083 0
M  V30 3010 C 276.389 -2.1102 4.91299 0
M  V30 3011 C 277.689 0.0538602 5.22272 0
M  V30 3012 H 279.383 0.308767 2.97804 0
M  V30 3013 H 276.929 0.149937 1.43217 0
M  V30 3014 H 278.882 -2.01914 3.69876 0
M  V30 3015 H 277.606 -2.14541 2.46252 0
M  V30 3016 H 276.265 -0.372145 3.64706 0
M  V30 3017 H 275.913 -2.78882 4.18609 0
M  V30 3018 H 275.613 -1.75717 5.60712 0
M  V30 3019 H 277.137 -2.68164 5.48562 0
M  V30 3020 H 278.551 -0.422069 5.71744 0
M  V30 3021 H 276.948 0.319776 5.99247 0
M  V30 3022 H 278.018 0.98858 4.74716 0
M  V30 3023 N 279.361 -1.56624 0.175154 0
M  V30 3024 C 280.638 -1.88688 -0.515373 0
M  V30 3025 C 281.018 -1.08564 -1.81044 0
M  V30 3026 O 280.366 -0.180703 -2.27784 0
M  V30 3027 C 280.576 -3.40768 -0.753552 0
M  V30 3028 C 281.924 -4.10587 -1.08184 0
M  V30 3029 O 282.948 -3.46106 -0.841961 0
M  V30 3030 O 281.807 -5.24512 -1.53459 0
M  V30 3031 H 278.901 -0.78301 -0.26613 0
M  V30 3032 H 281.447 -1.68347 0.213877 0
M  V30 3033 H 280.219 -3.90965 0.161829 0
M  V30 3034 H 279.842 -3.66733 -1.53598 0
M  V30 3035 N 280.839 0.0985539 -1.57292 0
M  V30 3036 C 281.769 1.12064 -2.04851 0
M  V30 3037 C 282.75 1.41981 -0.936767 0
M  V30 3038 O 283.935 1.52071 -1.20781 0
M  V30 3039 C 281.065 2.44144 -2.47004 0
M  V30 3040 C 280.019 2.28643 -3.6181 0
M  V30 3041 C 279.345 3.65869 -3.89929 0
M  V30 3042 C 280.645 1.72986 -4.92822 0
M  V30 3043 H 282.339 0.724979 -2.9049 0
M  V30 3044 H 279.885 0.34729 -1.39749 0
M  V30 3045 H 281.838 3.15914 -2.78884 0
M  V30 3046 H 280.562 2.85639 -1.5836 0
M  V30 3047 H 279.221 1.59318 -3.30172 0
M  V30 3048 H 278.869 4.04885 -2.98458 0
M  V30 3049 H 278.569 3.56344 -4.67218 0
M  V30 3050 H 280.093 4.39112 -4.2428 0
M  V30 3051 H 281.507 2.34593 -5.23105 0
M  V30 3052 H 279.904 1.74229 -5.74251 0
M  V30 3053 H 280.974 0.689007 -4.7998 0
M  V30 3054 N 282.317 1.53212 0.369288 0
M  V30 3055 C 283.542 1.73423 1.1375 0
M  V30 3056 C 283.967 0.460404 1.82378 0
M  V30 3057 O 283.325 -0.585298 1.71592 0
M  V30 3058 C 283.373 2.89769 2.1463 0
M  V30 3059 O 282.477 2.58119 3.21634 0
M  V30 3060 H 281.818 0.576061 0.330227 0
M  V30 3061 H 284.348 2.00083 0.427547 0
M  V30 3062 H 284.358 3.15829 2.58294 0
M  V30 3063 H 283.033 3.8217 1.64071 0
M  V30 3064 H 281.61 2.42864 2.82969 0
M  V30 3065 N 283.795 -0.628877 1.44509 0
M  V30 3066 C 285.042 -1.38839 1.47411 0
M  V30 3067 C 285.37 -1.94202 0.10757 0
M  V30 3068 O 284.625 -1.74243 -0.890947 0
M  V30 3069 C 284.924 -2.56995 2.48371 0
M  V30 3070 C 284.59 -2.19908 3.93639 0
M  V30 3071 C 283.252 -2.09506 4.33198 0
M  V30 3072 C 285.604 -1.9064 4.85083 0
M  V30 3073 C 282.932 -1.68028 5.62124 0
M  V30 3074 C 285.284 -1.50655 6.14399 0
M  V30 3075 C 283.948 -1.38796 6.5291 0
M  V30 3076 H 283.218 -0.508048 0.539414 0
M  V30 3077 H 285.865 -0.712913 1.77735 0
M  V30 3078 H 284.17 -3.29786 2.11538 0
M  V30 3079 H 285.867 -3.15223 2.47861 0
M  V30 3080 H 282.457 -2.28922 3.62343 0
M  V30 3081 H 286.641 -1.97585 4.55273 0
M  V30 3082 H 281.897 -1.57452 5.90778 0
M  V30 3083 H 286.071 -1.27048 6.84713 0
M  V30 3084 H 283.698 -1.06429 7.52713 0
M  V30 3085 N 285.273 -1.31445 -0.869486 0
M  V30 3086 C 286.221 -1.19067 -1.99814 0
M  V30 3087 C 287.215 -0.0988569 -1.69111 0
M  V30 3088 O 288.421 -0.260781 -1.78101 0
M  V30 3089 H 284.796 -0.368677 -0.655425 0
M  V30 3090 H 286.767 -2.14555 -2.07385 0
M  V30 3091 C 285.516 -0.915323 -3.35436 0
M  V30 3092 H 284.839 -1.74759 -3.59582 0
M  V30 3093 H 286.279 -0.868895 -4.15001 0
M  V30 3094 C 284.738 0.381928 -3.34728 0
M  V30 3095 O 285.268 1.39857 -3.76567 0
M  V30 3096 N 283.474 0.398633 -2.87853 0
M  V30 3097 H 283.021 -0.429186 -2.54 0
M  V30 3098 H 282.979 1.26651 -2.87762 0
M  V30 3099 N 286.751 1.08385 -1.14413 0
M  V30 3100 C 287.683 2.1519 -0.789036 0
M  V30 3101 C 288.696 1.61638 0.19417 0
M  V30 3102 O 289.885 1.78479 -0.0275711 0
M  V30 3103 C 286.985 3.38565 -0.15058 0
M  V30 3104 C 286.158 4.21501 -1.16857 0
M  V30 3105 C 285.217 5.23277 -0.553832 0
M  V30 3106 O 284.243 5.56041 -1.21686 0
M  V30 3107 N 285.445 5.76629 0.669296 0
M  V30 3108 H 288.21 2.46257 -1.70814 0
M  V30 3109 H 285.771 1.24198 -1.03858 0
M  V30 3110 H 287.763 4.03777 0.273181 0
M  V30 3111 H 286.333 3.05299 0.671667 0
M  V30 3112 H 285.553 3.52265 -1.76926 0
M  V30 3113 H 286.841 4.73731 -1.85624 0
M  V30 3114 H 286.239 5.52243 1.22654 0
M  V30 3115 H 284.796 6.43521 1.03556 0
M  V30 3116 N 288.23 0.939286 1.26551 0
M  V30 3117 C 289.479 0.581601 1.93133 0
M  V30 3118 C 289.792 -0.883224 1.74524 0
M  V30 3119 O 290.998 -1.3502 2.35546 0
M  V30 3120 C 289.454 0.989425 3.46032 0
M  V30 3121 C 289.062 2.47573 3.73379 0
M  V30 3122 C 290.806 0.703544 4.18629 0
M  V30 3123 C 288.713 2.82235 5.19709 0
M  V30 3124 H 287.643 0.213803 0.723052 0
M  V30 3125 H 290.294 1.14167 1.4366 0
M  V30 3126 H 288.676 0.357902 3.94379 0
M  V30 3127 H 289.85 3.15614 3.35744 0
M  V30 3128 H 288.165 2.73471 3.1401 0
M  V30 3129 H 290.762 0.938869 5.26393 0
M  V30 3130 H 291.105 -0.359639 4.14744 0
M  V30 3131 H 291.638 1.2947 3.76141 0
M  V30 3132 H 288.377 3.87509 5.28694 0
M  V30 3133 H 287.897 2.18854 5.58447 0
M  V30 3134 H 289.576 2.70599 5.87695 0
M  V30 3135 N 289.708 -1.40897 0.706093 0
M  V30 3136 C 290.671 -2.29131 0.0562841 0
M  V30 3137 C 291.671 -1.44901 -0.697166 0
M  V30 3138 O 292.861 -1.65926 -0.530484 0
M  V30 3139 C 289.993 -3.27957 -0.93043 0
M  V30 3140 H 291.186 -2.88091 0.833284 0
M  V30 3141 H 288.739 -1.4906 0.470192 0
M  V30 3142 H 289.474 -2.73997 -1.73482 0
M  V30 3143 H 289.259 -3.90124 -0.393166 0
M  V30 3144 H 290.749 -3.94049 -1.38256 0
M  V30 3145 N 291.186 -0.45159 -1.50991 0
M  V30 3146 C 292.602 -0.104647 -1.59257 0
M  V30 3147 C 292.802 1.38728 -1.4614 0
M  V30 3148 O 291.858 2.15866 -1.30989 0
M  V30 3149 C 293.171 -0.637468 -2.93865 0
M  V30 3150 C 294.719 -0.599166 -3.07212 0
M  V30 3151 C 295.194 -1.1092 -4.44366 0
M  V30 3152 N 296.685 -1.06778 -4.50725 0
M  V30 3153 C 297.42 -1.43314 -5.55201 0
M  V30 3154 N 296.916 -1.87204 -6.67028 0
M  V30 3155 N 298.709 -1.3504 -5.45638 0
M  V30 3156 H 290.86 -1.42214 -1.57762 0
M  V30 3157 H 293.123 -0.586921 -0.744465 0
M  V30 3158 H 292.829 -1.68187 -3.08879 0
M  V30 3159 H 292.703 -0.0702139 -3.77135 0
M  V30 3160 H 295.09 0.436277 -2.91857 0
M  V30 3161 H 295.171 -1.20299 -2.25747 0
M  V30 3162 H 294.815 -2.14318 -4.60467 0
M  V30 3163 H 294.745 -0.481773 -5.24392 0
M  V30 3164 H 297.236 -0.745643 -3.70471 0
M  V30 3165 H 297.549 -2.13282 -7.42786 0
M  V30 3166 H 295.894 -1.91142 -6.68199 0
M  V30 3167 H 299.085 -1.00607 -4.57161 0
M  V30 3168 H 299.258 -1.63841 -6.26945 0
M  V30 3169 N 292.664 1.56529 -0.183458 0
M  V30 3170 C 293.594 2.21549 0.737456 0
M  V30 3171 C 294.575 1.17489 1.23005 0
M  V30 3172 O 295.76 1.45959 1.281 0
M  V30 3173 C 292.89 2.86575 1.96194 0
M  V30 3174 C 291.844 3.96778 1.60473 0
M  V30 3175 C 291.17 4.48911 2.90487 0
M  V30 3176 C 292.47 5.15767 0.823497 0
M  V30 3177 H 294.164 2.98761 0.195453 0
M  V30 3178 H 291.71 1.43702 0.0925686 0
M  V30 3179 H 293.663 3.30739 2.61131 0
M  V30 3180 H 292.387 2.06749 2.52828 0
M  V30 3181 H 291.046 3.53286 0.978997 0
M  V30 3182 H 290.694 3.65862 3.45186 0
M  V30 3183 H 290.394 5.23265 2.67335 0
M  V30 3184 H 291.918 4.95771 3.56432 0
M  V30 3185 H 293.332 5.56549 1.37571 0
M  V30 3186 H 291.729 5.96114 0.690551 0
M  V30 3187 H 292.799 4.84574 -0.177782 0
M  V30 3188 N 294.142 -0.090211 1.57342 0
M  V30 3189 C 295.553 -0.644173 1.75235 0
M  V30 3190 C 295.904 -1.78865 0.806335 0
M  V30 3191 O 295.029 -2.16395 -0.0140128 0
M  V30 3192 C 295.624 -1.17532 3.1776 0
M  V30 3193 C 294.183 -1.67531 3.37061 0
M  V30 3194 C 293.33 -0.58693 2.71017 0
M  V30 3195 H 296.281 0.135884 1.58117 0
M  V30 3196 H 296.302 -2.04455 3.20902 0
M  V30 3197 H 295.814 -0.342138 3.86589 0
M  V30 3198 H 293.915 -2.53234 2.73319 0
M  V30 3199 H 294.028 -1.76493 4.45406 0
M  V30 3200 H 292.392 -1.02756 2.33052 0
M  V30 3201 H 293.175 0.235758 3.4249 0
M  V30 3202 N 295.62 -1.53406 -0.361157 0
M  V30 3203 C 296.845 -1.74024 -1.12829 0
M  V30 3204 C 297.27 -0.470069 -1.82132 0
M  V30 3205 O 296.628 0.57619 -1.719 0
M  V30 3206 C 296.676 -2.90903 -2.13091 0
M  V30 3207 O 295.78 -2.59821 -3.20261 0
M  V30 3208 H 295.121 -0.577804 -0.327168 0
M  V30 3209 H 297.651 -2.00307 -0.41693 0
M  V30 3210 H 297.661 -3.17194 -2.56616 0
M  V30 3211 H 296.336 -3.83034 -1.62042 0
M  V30 3212 H 294.913 -2.44362 -2.81677 0
M  V30 3213 N 297.098 0.621204 -1.44841 0
M  V30 3214 C 298.346 1.37783 -1.47852 0
M  V30 3215 C 298.667 1.94653 -0.116224 0
M  V30 3216 O 297.937 1.76367 0.852737 0
M  V30 3217 H 296.517 0.511453 -0.544449 0
M  V30 3218 H 299.179 0.730446 -1.80694 0
M  V30 3219 H 298.275 2.20414 -2.20961 0
M  V30 3220 N 298.576 1.31904 0.862503 0
M  V30 3221 C 299.506 1.22782 1.98612 0
M  V30 3222 C 300.487 0.113362 1.69722 0
M  V30 3223 O 301.672 0.299218 1.91881 0
M  V30 3224 C 298.802 0.942058 3.34279 0
M  V30 3225 C 297.756 2.0169 3.77499 0
M  V30 3226 C 297.082 1.58369 5.10709 0
M  V30 3227 C 298.382 3.43096 3.93805 0
M  V30 3228 H 300.076 2.16788 2.06502 0
M  V30 3229 H 297.622 1.04366 0.992154 0
M  V30 3230 H 299.575 0.864818 4.1243 0
M  V30 3231 H 298.299 -0.0336603 3.26583 0
M  V30 3232 H 296.958 2.08416 3.01593 0
M  V30 3233 H 296.606 0.595628 4.99461 0
M  V30 3234 H 296.306 2.30279 5.40597 0
M  V30 3235 H 297.83 1.52067 5.91361 0
M  V30 3236 H 299.244 3.39003 4.62331 0
M  V30 3237 H 297.641 4.13288 4.35101 0
M  V30 3238 H 298.711 3.83334 2.96957 0
M  V30 3239 N 300.054 -1.07777 1.14986 0
M  V30 3240 C 301.465 -1.61766 0.932127 0
M  V30 3241 C 301.816 -1.88974 -0.527581 0
M  V30 3242 O 300.941 -1.65198 -1.39781 0
M  V30 3243 C 301.536 -2.93891 1.68563 0
M  V30 3244 C 300.095 -3.44639 1.5133 0
M  V30 3245 C 299.242 -2.18767 1.704 0
M  V30 3246 H 302.193 -0.909201 1.30074 0
M  V30 3247 H 302.214 -3.62623 1.15259 0
M  V30 3248 H 301.726 -2.74057 2.74799 0
M  V30 3249 H 299.827 -3.69564 0.474702 0
M  V30 3250 H 299.94 -4.20966 2.28746 0
M  V30 3251 H 298.304 -2.28253 1.13016 0
M  V30 3252 H 299.087 -2.01433 2.77992 0
M  V30 3253 N 301.532 -0.945985 -1.26051 0
M  V30 3254 C 302.778 -0.597002 -1.93814 0
M  V30 3255 C 303.111 0.862484 -1.73997 0
M  V30 3256 O 302.386 1.61769 -1.07986 0
M  V30 3257 C 302.669 -0.945937 -3.47454 0
M  V30 3258 C 302.522 -2.46052 -3.76535 0
M  V30 3259 C 303.841 -0.464785 -4.37639 0
M  V30 3260 H 300.96 -0.218366 -0.703907 0
M  V30 3261 H 303.602 -1.18107 -1.48831 0
M  V30 3262 H 301.752 -0.448902 -3.85898 0
M  V30 3263 H 303.424 -3.03065 -3.47778 0
M  V30 3264 H 301.667 -2.90194 -3.22444 0
M  V30 3265 H 302.338 -2.65517 -4.83947 0
M  V30 3266 H 304.814 -0.891016 -4.06448 0
M  V30 3267 H 303.69 -0.737712 -5.4392 0
M  V30 3268 H 303.951 0.635274 -4.37512 0
M  V30 3269 N 303.011 1.40521 -0.713556 0
M  V30 3270 C 304.236 2.05759 -0.26035 0
M  V30 3271 C 304.661 1.53403 1.08854 0
M  V30 3272 O 304.019 0.668535 1.68524 0
M  V30 3273 C 304.067 3.59745 -0.248122 0
M  V30 3274 O 303.171 4.05123 0.77131 0
M  V30 3275 H 302.512 0.652564 -0.122703 0
M  V30 3276 H 305.042 1.79958 -0.973467 0
M  V30 3277 H 305.052 4.07911 -0.0851129 0
M  V30 3278 H 303.727 3.97218 -1.2325 0
M  V30 3279 H 302.304 3.68422 0.57619 0
M  V30 3280 N 304.489 0.459591 1.5075 0
M  V30 3281 C 305.419 -0.330644 2.31147 0
M  V30 3282 C 306.4 -1.00087 1.37538 0
M  V30 3283 O 307.585 -1.00025 1.66459 0
M  V30 3284 C 304.715 -1.41958 3.16962 0
M  V30 3285 C 303.669 -0.871608 4.19031 0
M  V30 3286 C 302.995 -2.05797 4.9351 0
M  V30 3287 C 304.295 0.109251 5.22186 0
M  V30 3288 H 305.989 0.340336 2.97459 0
M  V30 3289 H 303.535 0.165119 1.4305 0
M  V30 3290 H 305.488 -1.9798 3.71997 0
M  V30 3291 H 304.212 -2.11917 2.48513 0
M  V30 3292 H 302.871 -0.333442 3.6508 0
M  V30 3293 H 302.519 -2.74427 4.21544 0
M  V30 3294 H 302.219 -1.6976 5.62544 0
M  V30 3295 H 303.743 -2.62331 5.51375 0
M  V30 3296 H 305.157 -0.361405 5.7216 0
M  V30 3297 H 303.554 0.383316 5.98875 0
M  V30 3298 H 304.624 1.03887 4.73641 0
M  V30 3299 N 305.967 -1.56429 0.191757 0
M  V30 3300 C 306.897 -2.21937 -0.725696 0
M  V30 3301 C 307.878 -1.1814 -1.2238 0
M  V30 3302 O 309.063 -1.46636 -1.27325 0
M  V30 3303 C 306.193 -2.87611 -1.94672 0
M  V30 3304 C 305.147 -3.97623 -1.58366 0
M  V30 3305 C 304.473 -4.50446 -2.88102 0
M  V30 3306 C 305.773 -5.16197 -0.796133 0
M  V30 3307 H 307.467 -2.98861 -0.179606 0
M  V30 3308 H 305.013 -1.43749 -0.0849464 0
M  V30 3309 H 306.966 -3.3212 -2.59373 0
M  V30 3310 H 305.69 -2.08087 -2.51728 0
M  V30 3311 H 304.349 -3.53801 -0.960247 0
M  V30 3312 H 303.997 -3.67688 -3.43241 0
M  V30 3313 H 303.697 -5.24675 -2.64556 0
M  V30 3314 H 305.221 -4.97654 -3.53798 0
M  V30 3315 H 306.635 -5.57271 -1.34618 0
M  V30 3316 H 305.032 -5.96471 -0.658928 0
M  V30 3317 H 306.102 -4.84473 0.203478 0
M  V30 3318 N 307.445 0.0818655 -1.57387 0
M  V30 3319 C 308.673 0.796108 -1.9097 0
M  V30 3320 C 309.088 1.71626 -0.786757 0
M  V30 3321 O 308.445 1.80908 0.240513 0
M  V30 3322 C 308.496 1.59829 -3.24248 0
M  V30 3323 O 308.217 0.715131 -4.32224 0
M  V30 3324 C 309.718 2.41442 -3.7178 0
M  V30 3325 H 306.938 0.22691 -0.631469 0
M  V30 3326 H 309.482 0.0551439 -2.04426 0
M  V30 3327 H 307.637 2.29163 -3.12351 0
M  V30 3328 H 308.051 1.27205 -5.08841 0
M  V30 3329 H 309.525 2.932 -4.67694 0
M  V30 3330 H 310.002 3.2051 -3.00283 0
M  V30 3331 H 310.608 1.77283 -3.86589 0
M  V30 3332 N 308.923 1.53595 0.353017 0
M  V30 3333 C 309.853 1.83902 1.43883 0
M  V30 3334 C 310.834 0.693421 1.55324 0
M  V30 3335 O 312.019 0.944452 1.69687 0
M  V30 3336 C 309.149 2.04016 2.8106 0
M  V30 3337 C 308.103 3.19814 2.84434 0
M  V30 3338 C 307.429 3.25244 4.24406 0
M  V30 3339 C 308.729 4.58133 2.50822 0
M  V30 3340 H 310.423 2.74835 1.1877 0
M  V30 3341 H 307.969 1.32242 0.569917 0
M  V30 3342 H 309.922 2.238 3.57059 0
M  V30 3343 H 308.646 1.09804 3.07588 0
M  V30 3344 H 307.305 2.9987 2.10887 0
M  V30 3345 H 306.953 2.28646 4.48029 0
M  V30 3346 H 306.653 4.03054 4.27576 0
M  V30 3347 H 308.177 3.47228 5.0226 0
M  V30 3348 H 309.591 4.77995 3.16534 0
M  V30 3349 H 307.988 5.38276 2.6529 0
M  V30 3350 H 309.058 4.62387 1.46034 0
M  V30 3351 N 310.401 -0.613514 1.45168 0
M  V30 3352 C 311.631 -1.39743 1.52169 0
M  V30 3353 C 312.039 -1.88596 0.151086 0
M  V30 3354 O 311.382 -1.6251 -0.856521 0
M  V30 3355 C 311.444 -2.64035 2.43979 0
M  V30 3356 C 311.108 -2.36861 3.90827 0
M  V30 3357 C 312.105 -1.97591 4.80889 0
M  V30 3358 C 309.79 -2.49956 4.35692 0
M  V30 3359 C 311.784 -1.71768 6.1382 0
M  V30 3360 C 309.471 -2.23747 5.68665 0
M  V30 3361 C 310.469 -1.84714 6.57548 0
M  V30 3362 O 310.157 -1.58809 7.88058 0
M  V30 3363 H 309.889 -0.434382 0.517966 0
M  V30 3364 H 312.443 -0.75587 1.90986 0
M  V30 3365 H 310.673 -3.3089 2.00122 0
M  V30 3366 H 312.362 -3.26069 2.41731 0
M  V30 3367 H 313.128 -1.87015 4.47493 0
M  V30 3368 H 309.007 -2.79305 3.66756 0
M  V30 3369 H 312.551 -1.41227 6.83155 0
M  V30 3370 H 308.448 -2.33938 6.01617 0
M  V30 3371 H 309.216 -1.7291 8.00028 0
M  V30 3372 N 311.879 -1.3236 -0.855495 0
M  V30 3373 C 312.809 -1.23833 -1.97958 0
M  V30 3374 C 313.79 -0.122361 -1.69659 0
M  V30 3375 O 314.975 -0.30939 -1.9172 0
M  V30 3376 C 312.105 -0.959772 -3.33775 0
M  V30 3377 C 311.059 -2.03689 -3.76424 0
M  V30 3378 C 310.385 -1.61075 -5.09862 0
M  V30 3379 C 311.685 -3.4518 -3.9198 0
M  V30 3380 H 313.379 -2.1788 -2.0535 0
M  V30 3381 H 310.925 -1.04891 -0.986605 0
M  V30 3382 H 312.878 -0.886678 -4.11966 0
M  V30 3383 H 311.602 0.0163404 -3.26596 0
M  V30 3384 H 310.261 -2.10012 -3.00484 0
M  V30 3385 H 309.909 -0.622107 -4.99138 0
M  V30 3386 H 309.609 -2.33143 -5.39368 0
M  V30 3387 H 311.133 -1.55201 -5.90546 0
M  V30 3388 H 312.547 -3.4145 -4.60526 0
M  V30 3389 H 310.944 -4.1559 -4.32903 0
M  V30 3390 H 312.014 -3.84903 -2.94919 0
M  V30 3391 N 313.357 1.07166 -1.15556 0
M  V30 3392 C 314.634 1.76546 -0.842069 0
M  V30 3393 C 315.014 2.00453 0.661939 0
M  V30 3394 O 314.362 1.62452 1.60691 0
M  V30 3395 C 314.572 3.07266 -1.65495 0
M  V30 3396 C 315.92 3.81578 -1.86234 0
M  V30 3397 O 316.944 3.17083 -1.62287 0
M  V30 3398 O 315.803 4.97419 -2.26355 0
M  V30 3399 H 312.897 0.766756 -0.309862 0
M  V30 3400 H 315.443 1.13514 -1.26145 0
M  V30 3401 H 314.215 2.85494 -2.67598 0
M  V30 3402 H 313.838 3.7803 -1.23203 0
M  V30 3403 N 314.835 0.952656 1.25548 0
M  V30 3404 C 315.783 0.462354 2.27958 0
M  V30 3405 C 316.777 -0.46634 1.62855 0
M  V30 3406 O 317.983 -0.343287 1.76696 0
M  V30 3407 H 314.358 0.13101 0.7405 0
M  V30 3408 H 316.329 1.33839 2.66702 0
M  V30 3409 C 315.078 -0.24628 3.46827 0
M  V30 3410 H 314.401 0.459192 3.97154 0
M  V30 3411 H 315.841 -0.553393 4.20373 0
M  V30 3412 C 314.3 -1.4681 3.0323 0
M  V30 3413 O 314.83 -2.56591 3.09069 0
M  V30 3414 N 313.036 -1.32874 2.58443 0
M  V30 3415 H 312.583 -0.435536 2.53891 0
M  V30 3416 H 312.541 -2.14742 2.29637 0
M  V30 3417 N 316.313 -1.40141 0.720998 0
M  V30 3418 C 317.261 -2.3252 0.0608547 0
M  V30 3419 C 318.255 -1.52326 -0.741152 0
M  V30 3420 O 319.461 -1.68089 -0.643911 0
M  V30 3421 H 315.836 -0.751999 0.000876664 0
M  V30 3422 H 317.807 -2.8584 0.856614 0
M  V30 3423 C 316.556 -3.37331 -0.842809 0
M  V30 3424 H 315.879 -3.99108 -0.235084 0
M  V30 3425 H 317.319 -4.04452 -1.27257 0
M  V30 3426 C 315.778 -2.73246 -1.97074 0
M  V30 3427 O 316.308 -2.59998 -3.06209 0
M  V30 3428 N 314.514 -2.31547 -1.75597 0
M  V30 3429 H 314.061 -2.42522 -0.868368 0
M  V30 3430 H 314.019 -1.89007 -2.51244 0
M  V30 3431 N 317.792 -0.46758 -1.50504 0
M  V30 3432 C 318.739 0.328413 -2.28452 0
M  V30 3433 C 319.709 0.990313 -1.33349 0
M  V30 3434 O 320.894 1.00343 -1.62284 0
M  V30 3435 C 318.034 1.40648 -3.15138 0
M  V30 3436 C 317.147 0.759709 -4.25267 0
M  V30 3437 C 316.282 1.81537 -4.99217 0
M  V30 3438 C 315.321 1.14866 -6.01226 0
M  V30 3439 N 314.458 2.14702 -6.68467 0
M  V30 3440 H 319.298 -0.342603 -2.96024 0
M  V30 3441 H 316.835 -0.180801 -1.45985 0
M  V30 3442 H 318.793 2.04315 -3.63746 0
M  V30 3443 H 317.423 2.04671 -2.49619 0
M  V30 3444 H 316.475 0.0105671 -3.80399 0
M  V30 3445 H 317.787 0.233243 -4.98254 0
M  V30 3446 H 316.941 2.52793 -5.51526 0
M  V30 3447 H 315.68 2.37564 -4.25928 0
M  V30 3448 H 314.685 0.42171 -5.4818 0
M  V30 3449 H 315.91 0.595334 -6.76485 0
M  V30 3450 H 313.856 2.69752 -5.97972 0
M  V30 3451 H 313.773 1.6703 -7.37317 0
M  V30 3452 H 315.041 2.85348 -7.25394 0
M  V30 3453 N 319.27 1.56325 -0.20005 0
M  V30 3454 C 320.519 1.96895 0.437652 0
M  V30 3455 C 320.832 1.08999 1.62415 0
M  V30 3456 O 322.038 1.39372 2.32997 0
M  V30 3457 C 320.494 3.50198 0.830025 0
M  V30 3458 C 320.102 4.46765 -0.332461 0
M  V30 3459 C 321.846 3.99526 1.43453 0
M  V30 3460 C 319.753 5.91344 0.0811468 0
M  V30 3461 H 318.683 0.735209 0.167282 0
M  V30 3462 H 321.334 1.81148 -0.292853 0
M  V30 3463 H 319.716 3.61467 1.61734 0
M  V30 3464 H 320.89 4.47231 -1.11 0
M  V30 3465 H 319.205 4.07657 -0.848789 0
M  V30 3466 H 321.802 5.05025 1.75652 0
M  V30 3467 H 322.145 3.44122 2.34277 0
M  V30 3468 H 322.678 3.91393 0.71109 0
M  V30 3469 H 319.417 6.50685 -0.793033 0
M  V30 3470 H 318.937 5.94121 0.823445 0
M  V30 3471 H 320.616 6.44945 0.515252 0
M  V30 3472 N 320.748 -0.0735177 1.57428 0
M  V30 3473 C 321.973 -0.789787 1.91774 0
M  V30 3474 C 322.398 -1.70413 0.796306 0
M  V30 3475 O 321.756 -1.79555 -0.250961 0
M  V30 3476 C 321.804 -1.5609 3.25067 0
M  V30 3477 O 320.908 -2.67144 3.14178 0
M  V30 3478 H 320.249 -0.215582 0.628029 0
M  V30 3479 H 322.779 -0.0422781 2.04556 0
M  V30 3480 H 322.789 -1.94052 3.58898 0
M  V30 3481 H 321.464 -0.890015 4.06265 0
M  V30 3482 H 320.041 -2.32052 2.91901 0
M  V30 3483 N 322.226 -1.5378 -0.344866 0
M  V30 3484 C 323.174 -1.82373 -1.4437 0
M  V30 3485 C 324.168 -0.694128 -1.54526 0
M  V30 3486 O 325.374 -0.877442 -1.57165 0
M  V30 3487 H 321.749 -0.577765 -0.481344 0
M  V30 3488 H 323.72 -2.74306 -1.17468 0
M  V30 3489 C 322.469 -2.04898 -2.80913 0
M  V30 3490 H 321.792 -2.9127 -2.73865 0
M  V30 3491 H 323.232 -2.28871 -3.56923 0
M  V30 3492 C 321.691 -0.834116 -3.26411 0
M  V30 3493 O 322.221 -0.0328885 -4.01687 0
M  V30 3494 N 320.427 -0.65171 -2.83198 0
M  V30 3495 H 319.974 -1.30489 -2.22104 0
M  V30 3496 H 319.932 0.159686 -3.13994 0
M  V30 3497 N 323.704 0.605807 -1.45491 0
M  V30 3498 C 324.953 1.36086 -1.48874 0
M  V30 3499 C 325.266 1.95131 -0.135333 0
M  V30 3500 O 326.472 2.7146 -0.0468144 0
M  V30 3501 C 324.928 2.46518 -2.62215 0
M  V30 3502 C 324.536 1.93877 -4.03876 0
M  V30 3503 C 326.28 3.23512 -2.74846 0
M  V30 3504 C 324.187 3.01801 -5.08596 0
M  V30 3505 H 323.117 0.511497 -0.553974 0
M  V30 3506 H 325.768 0.649089 -1.71636 0
M  V30 3507 H 324.15 3.20388 -2.32739 0
M  V30 3508 H 325.324 1.26704 -4.43038 0
M  V30 3509 H 323.639 1.29622 -3.95711 0
M  V30 3510 H 326.236 4.04013 -3.50253 0
M  V30 3511 H 326.579 3.74631 -1.81542 0
M  V30 3512 H 327.112 2.56742 -3.03856 0
M  V30 3513 H 323.851 2.55597 -6.03614 0
M  V30 3514 H 323.371 3.67535 -4.74002 0
M  V30 3515 H 325.05 3.66152 -5.33424 0
M  V30 3516 N 325.182 1.32811 0.848464 0
M  V30 3517 C 326.593 1.21315 1.41914 0
M  V30 3518 C 326.944 -0.171847 1.95446 0
M  V30 3519 O 326.069 -1.07093 1.88043 0
M  V30 3520 C 326.664 2.19631 2.57968 0
M  V30 3521 C 325.223 2.12003 3.11017 0
M  V30 3522 C 324.37 2.07651 1.83783 0
M  V30 3523 H 327.321 1.44549 0.655071 0
M  V30 3524 H 327.342 1.79845 3.35315 0
M  V30 3525 H 326.854 3.20423 2.18976 0
M  V30 3526 H 324.955 1.14481 3.54577 0
M  V30 3527 H 325.068 3.02111 3.71841 0
M  V30 3528 H 323.432 1.52983 2.03638 0
M  V30 3529 H 324.215 3.10235 1.47 0
M  V30 3530 N 326.66 -1.06551 1.16123 0
M  V30 3531 C 327.937 -1.76097 0.85142 0
M  V30 3532 C 328.317 -2.00802 -0.6513 0
M  V30 3533 O 327.665 -1.63302 -1.59827 0
M  V30 3534 C 327.875 -3.06384 1.67122 0
M  V30 3535 C 329.223 -3.80585 1.88255 0
M  V30 3536 O 330.247 -3.16218 1.63966 0
M  V30 3537 O 329.106 -4.96212 2.2899 0
M  V30 3538 H 326.2 -0.765102 0.313923 0
M  V30 3539 H 328.746 -1.12844 1.26745 0
M  V30 3540 H 327.518 -2.84071 2.69108 0
M  V30 3541 H 327.141 -3.77371 1.25206 0
M  V30 3542 N 328.138 -0.959301 -1.25041 0
M  V30 3543 C 329.048 -0.489994 -2.29426 0
M  V30 3544 C 330.064 0.444944 -1.68215 0
M  V30 3545 O 331.24 0.320046 -1.98841 0
M  V30 3546 C 328.305 0.220309 -3.45999 0
M  V30 3547 C 327.366 -0.753418 -4.22637 0
M  V30 3548 C 326.599 -0.076918 -5.33645 0
M  V30 3549 O 326.822 1.13649 -5.58963 0
M  V30 3550 O 325.756 -0.764824 -5.97021 0
M  V30 3551 H 329.582 -1.35755 -2.71669 0
M  V30 3552 H 327.167 -0.725961 -1.30576 0
M  V30 3553 H 329.049 0.619677 -4.16819 0
M  V30 3554 H 327.724 1.06296 -3.0575 0
M  V30 3555 H 326.631 -1.20308 -3.54227 0
M  V30 3556 H 327.964 -1.56423 -4.66683 0
M  V30 3557 N 329.616 1.39756 -0.72842 0
M  V30 3558 C 330.846 2.04651 -0.283117 0
M  V30 3559 C 331.254 1.5502 1.08469 0
M  V30 3560 O 330.597 0.707343 1.69536 0
M  V30 3561 C 330.659 3.58947 -0.199309 0
M  V30 3562 C 330.323 4.31525 -1.5045 0
M  V30 3563 C 331.32 4.5861 -2.44894 0
M  V30 3564 C 329.005 4.70195 -1.76698 0
M  V30 3565 C 330.999 5.23366 -3.63822 0
M  V30 3566 C 328.686 5.3468 -2.95906 0
M  V30 3567 C 329.684 5.61198 -3.89289 0
M  V30 3568 O 329.372 6.24347 -5.06404 0
M  V30 3569 H 329.104 0.664777 -0.122666 0
M  V30 3570 H 331.658 1.79913 -0.990987 0
M  V30 3571 H 329.888 3.82556 0.56461 0
M  V30 3572 H 331.577 4.0534 0.213125 0
M  V30 3573 H 332.343 4.29187 -2.25883 0
M  V30 3574 H 328.222 4.48916 -1.04859 0
M  V30 3575 H 331.766 5.4398 -4.36728 0
M  V30 3576 H 327.663 5.63524 -3.14819 0
M  V30 3577 H 328.431 6.42842 -5.06652 0
M  V30 3578 N 331.094 0.475555 1.50254 0
M  V30 3579 C 332.341 -0.0778919 2.0235 0
M  V30 3580 C 332.669 -1.39319 1.35722 0
M  V30 3581 O 331.924 -1.89888 0.473395 0
M  V30 3582 C 332.223 -0.305114 3.56095 0
M  V30 3583 C 331.889 0.92903 4.41225 0
M  V30 3584 C 330.551 1.26739 4.6421 0
M  V30 3585 C 332.903 1.75054 4.90923 0
M  V30 3586 C 330.231 2.42724 5.34137 0
M  V30 3587 C 332.583 2.9017 5.62125 0
M  V30 3588 C 331.247 3.24416 5.83362 0
M  V30 3589 H 330.517 -0.0285027 0.740452 0
M  V30 3590 H 333.164 0.630543 1.80821 0
M  V30 3591 H 331.469 -1.09584 3.76163 0
M  V30 3592 H 333.166 -0.747377 3.93974 0
M  V30 3593 H 329.756 0.655428 4.23559 0
M  V30 3594 H 333.94 1.50231 4.73016 0
M  V30 3595 H 329.196 2.69525 5.48786 0
M  V30 3596 H 333.37 3.54169 5.99614 0
M  V30 3597 H 330.997 4.14396 6.37323 0
M  V30 3598 N 332.573 -1.56217 0.208337 0
M  V30 3599 C 333.52 -2.19699 -0.707192 0
M  V30 3600 C 334.49 -1.14836 -1.20008 0
M  V30 3601 O 335.675 -1.4314 -1.26157 0
M  V30 3602 C 332.815 -2.87061 -1.91546 0
M  V30 3603 C 331.928 -4.06483 -1.46271 0
M  V30 3604 C 331.063 -4.61665 -2.62752 0
M  V30 3605 C 330.102 -5.73417 -2.14147 0
M  V30 3606 N 329.239 -6.22948 -3.23853 0
M  V30 3607 H 334.079 -2.97575 -0.159111 0
M  V30 3608 H 331.616 -1.46948 -0.0667874 0
M  V30 3609 H 333.574 -3.24294 -2.62468 0
M  V30 3610 H 332.204 -2.11725 -2.43664 0
M  V30 3611 H 331.256 -3.74825 -0.648886 0
M  V30 3612 H 332.568 -4.87271 -1.06622 0
M  V30 3613 H 331.722 -5.01272 -3.41776 0
M  V30 3614 H 330.461 -3.80013 -3.05682 0
M  V30 3615 H 329.466 -5.33326 -1.33581 0
M  V30 3616 H 330.691 -6.56897 -1.72232 0
M  V30 3617 H 328.637 -5.44213 -3.6629 0
M  V30 3618 H 328.554 -6.98823 -2.88414 0
M  V30 3619 H 329.822 -6.6721 -4.03052 0
M  V30 3620 N 334.051 0.0651679 -1.57465 0
M  V30 3621 C 335.467 0.420105 -1.53972 0
M  V30 3622 C 335.667 1.78782 -0.929474 0
M  V30 3623 O 334.723 2.46771 -0.534839 0
M  V30 3624 C 336.036 0.355084 -2.98596 0
M  V30 3625 C 337.584 0.434792 -3.09965 0
M  V30 3626 C 338.059 0.399609 -4.56253 0
M  V30 3627 N 339.55 0.459488 -4.60915 0
M  V30 3628 C 340.285 0.454584 -5.71595 0
M  V30 3629 N 339.781 0.404102 -6.9162 0
M  V30 3630 N 341.574 0.501635 -5.59857 0
M  V30 3631 H 333.725 -0.830328 -1.95498 0
M  V30 3632 H 335.988 -0.312244 -0.895102 0
M  V30 3633 H 335.694 -0.583357 -3.46828 0
M  V30 3634 H 335.568 1.16275 -3.58831 0
M  V30 3635 H 337.955 1.36366 -2.61703 0
M  V30 3636 H 338.036 -0.40157 -2.52628 0
M  V30 3637 H 337.68 -0.525436 -5.05175 0
M  V30 3638 H 337.61 1.25359 -5.11461 0
M  V30 3639 H 340.101 0.502482 -3.74544 0
M  V30 3640 H 340.414 0.404468 -7.71741 0
M  V30 3641 H 338.759 0.37069 -6.94011 0
M  V30 3642 H 341.95 0.538812 -4.64989 0
M  V30 3643 H 342.123 0.494345 -6.46112 0
M  V30 3644 N 335.529 1.53961 0.336706 0
M  V30 3645 C 336.776 1.71536 1.07618 0
M  V30 3646 C 337.104 0.482125 1.8843 0
M  V30 3647 O 336.359 -0.536142 1.88213 0
M  V30 3648 C 336.658 2.93493 2.03953 0
M  V30 3649 C 336.324 4.28811 1.39399 0
M  V30 3650 C 334.986 4.65602 1.21523 0
M  V30 3651 C 337.338 5.12844 0.929541 0
M  V30 3652 C 334.666 5.84037 0.558312 0
M  V30 3653 C 337.018 6.31951 0.286505 0
M  V30 3654 C 335.682 6.67432 0.0954869 0
M  V30 3655 H 334.952 0.627696 0.393801 0
M  V30 3656 H 337.599 1.88186 0.354715 0
M  V30 3657 H 335.904 2.71475 2.82504 0
M  V30 3658 H 337.601 3.04285 2.61174 0
M  V30 3659 H 334.191 3.99858 1.54311 0
M  V30 3660 H 338.375 4.84947 1.05548 0
M  V30 3661 H 333.631 6.10097 0.398995 0
M  V30 3662 H 337.805 6.96352 -0.0814376 0
M  V30 3663 H 335.432 7.59063 -0.415579 0
M  V30 3664 N 337.007 -0.598083 1.45811 0
M  V30 3665 C 337.955 -1.72932 1.55555 0
M  V30 3666 C 338.949 -1.63984 0.424921 0
M  V30 3667 O 340.155 -1.69663 0.601205 0
M  V30 3668 H 336.53 -0.571489 0.488779 0
M  V30 3669 H 338.501 -1.61842 2.50699 0
M  V30 3670 C 337.25 -3.11318 1.54843 0
M  V30 3671 H 336.573 -3.18867 2.41172 0
M  V30 3672 H 338.013 -3.90274 1.65717 0
M  V30 3673 C 336.472 -3.3578 0.274427 0
M  V30 3674 O 337.002 -3.9654 -0.641778 0
M  V30 3675 N 335.208 -2.90119 0.167139 0
M  V30 3676 H 334.755 -2.40855 0.913596 0
M  V30 3677 H 334.713 -3.0686 -0.684435 0
M  V30 3678 N 338.485 -1.33259 -0.841409 0
M  V30 3679 C 339.448 -1.23221 -1.9326 0
M  V30 3680 C 340.448 -0.151895 -1.60081 0
M  V30 3681 O 341.638 -0.403246 -1.69468 0
M  V30 3682 C 338.77 -0.898123 -3.28856 0
M  V30 3683 H 339.963 -2.2021 -2.03587 0
M  V30 3684 H 337.516 -1.17281 -1.03319 0
M  V30 3685 H 338.251 0.0693841 -3.24226 0
M  V30 3686 H 338.036 -1.67934 -3.54317 0
M  V30 3687 H 339.526 -0.852563 -4.08805 0
M  V30 3688 N 339.963 1.05934 -1.16686 0
M  V30 3689 C 340.893 2.1546 -0.899949 0
M  V30 3690 C 341.874 1.69391 0.155154 0
M  V30 3691 O 343.059 1.94199 0.00648693 0
M  V30 3692 C 340.189 3.44939 -0.404241 0
M  V30 3693 C 339.143 4.04536 -1.39767 0
M  V30 3694 C 338.469 5.29268 -0.760216 0
M  V30 3695 C 339.769 4.42893 -2.76845 0
M  V30 3696 H 341.463 2.38046 -1.81588 0
M  V30 3697 H 339.009 1.14404 -0.874514 0
M  V30 3698 H 340.962 4.20901 -0.204971 0
M  V30 3699 H 339.686 3.21983 0.547206 0
M  V30 3700 H 338.345 3.30635 -1.58355 0
M  V30 3701 H 337.993 5.02611 0.197831 0
M  V30 3702 H 337.693 5.70101 -1.42332 0
M  V30 3703 H 339.217 6.07924 -0.57105 0
M  V30 3704 H 340.631 5.09921 -2.62019 0
M  V30 3705 H 339.028 4.94721 -3.39663 0
M  V30 3706 H 340.098 3.53584 -3.31823 0
M  V30 3707 N 341.441 0.965919 1.2453 0
M  V30 3708 C 342.373 0.452465 2.2469 0
M  V30 3709 C 343.386 -0.437821 1.56802 0
M  V30 3710 O 344.575 -0.244283 1.76821 0
M  V30 3711 C 341.675 -0.366258 3.36915 0
M  V30 3712 C 340.848 0.513701 4.34373 0
M  V30 3713 C 339.907 -0.248716 5.25612 0
M  V30 3714 O 338.933 0.356745 5.68081 0
M  V30 3715 N 340.135 -1.53877 5.59734 0
M  V30 3716 H 342.9 1.31361 2.69378 0
M  V30 3717 H 340.461 0.837541 1.38553 0
M  V30 3718 H 342.453 -0.884297 3.94921 0
M  V30 3719 H 341.023 -1.12832 2.91526 0
M  V30 3720 H 340.243 1.21273 3.75082 0
M  V30 3721 H 341.531 1.11391 4.96457 0
M  V30 3722 H 340.929 -2.05243 5.27154 0
M  V30 3723 H 339.486 -2.00254 6.20275 0
M  V30 3724 N 342.919 -1.39368 0.735821 0
M  V30 3725 C 344.149 -2.04498 0.293967 0
M  V30 3726 C 344.557 -1.55593 -1.07645 0
M  V30 3727 O 343.9 -0.716324 -1.69158 0
M  V30 3728 C 343.962 -3.58836 0.218342 0
M  V30 3729 C 343.626 -4.30721 1.52736 0
M  V30 3730 C 344.623 -4.57305 2.47322 0
M  V30 3731 C 342.308 -4.69251 1.79189 0
M  V30 3732 C 344.302 -5.21429 3.66593 0
M  V30 3733 C 341.989 -5.33104 2.98737 0
M  V30 3734 C 342.987 -5.59125 3.9226 0
M  V30 3735 O 342.675 -6.21653 5.09708 0
M  V30 3736 H 342.407 -0.664118 0.126189 0
M  V30 3737 H 344.961 -1.79385 1.00051 0
M  V30 3738 H 343.191 -3.8285 -0.544314 0
M  V30 3739 H 344.88 -4.05447 -0.191626 0
M  V30 3740 H 345.646 -4.27983 2.28156 0
M  V30 3741 H 341.525 -4.48354 1.07239 0
M  V30 3742 H 345.069 -5.41656 4.39607 0
M  V30 3743 H 340.966 -5.61846 3.17803 0
M  V30 3744 H 341.734 -6.40146 5.10054 0
M  V30 3745 N 344.397 -0.483516 -1.5 0
M  V30 3746 C 345.327 0.293829 -2.31644 0
M  V30 3747 C 346.308 0.978864 -1.39112 0
M  V30 3748 O 347.493 0.973644 -1.68029 0
M  V30 3749 C 344.623 1.36897 -3.19181 0
M  V30 3750 C 343.577 0.804833 -4.20365 0
M  V30 3751 C 342.903 1.9792 -4.96721 0
M  V30 3752 C 344.203 -0.192313 -5.21946 0
M  V30 3753 H 345.897 -0.387616 -2.9688 0
M  V30 3754 H 343.443 -0.187856 -1.42769 0
M  V30 3755 H 345.396 1.92037 -3.751 0
M  V30 3756 H 344.12 2.07936 -2.51853 0
M  V30 3757 H 342.779 0.275319 -3.65565 0
M  V30 3758 H 342.427 2.67686 -4.25856 0
M  V30 3759 H 342.127 1.60789 -5.65173 0
M  V30 3760 H 343.651 2.53526 -5.55479 0
M  V30 3761 H 345.065 0.270333 -5.72662 0
M  V30 3762 H 343.462 -0.478543 -5.98189 0
M  V30 3763 H 344.532 -1.11409 -4.71928 0
M  V30 3764 N 345.875 1.56104 -0.216619 0
M  V30 3765 C 347.291 1.58995 0.13886 0
M  V30 3766 C 347.491 1.23333 1.59346 0
M  V30 3767 O 346.547 0.966234 2.33281 0
M  V30 3768 C 347.86 3.00143 -0.182968 0
M  V30 3769 C 349.408 3.12751 -0.124807 0
M  V30 3770 C 349.883 4.56068 -0.420241 0
M  V30 3771 N 351.374 4.61723 -0.369634 0
M  V30 3772 C 352.109 5.70542 -0.571789 0
M  V30 3773 N 351.605 6.87744 -0.835453 0
M  V30 3774 N 353.398 5.59831 -0.504563 0
M  V30 3775 H 345.549 1.77562 -1.16557 0
M  V30 3776 H 347.812 0.825091 -0.466828 0
M  V30 3777 H 347.518 3.30871 -1.19237 0
M  V30 3778 H 347.392 3.73813 0.504367 0
M  V30 3779 H 349.779 2.81822 0.875223 0
M  V30 3780 H 349.86 2.41421 -0.845544 0
M  V30 3781 H 349.504 4.87713 -1.41769 0
M  V30 3782 H 349.434 5.25617 0.321631 0
M  V30 3783 H 351.925 3.77502 -0.173338 0
M  V30 3784 H 352.238 7.66587 -0.977938 0
M  V30 3785 H 350.583 6.895 -0.872592 0
M  V30 3786 H 353.774 4.67145 -0.298842 0
M  V30 3787 H 353.947 6.44573 -0.665519 0
M  V30 3788 N 347.353 -0.0568162 1.57498 0
M  V30 3789 C 348.283 -1.06593 2.0775 0
M  V30 3790 C 349.264 -1.39448 0.974082 0
M  V30 3791 O 350.449 -1.48815 1.24771 0
M  V30 3792 C 347.579 -2.37509 2.5339 0
M  V30 3793 C 346.533 -2.1897 3.67745 0
M  V30 3794 C 345.859 -3.55402 3.99492 0
M  V30 3795 C 347.159 -1.59859 4.97235 0
M  V30 3796 H 348.853 -0.647706 2.9231 0
M  V30 3797 H 346.399 -0.310116 1.40621 0
M  V30 3798 H 348.352 -3.08409 2.87162 0
M  V30 3799 H 347.076 -2.8134 1.65878 0
M  V30 3800 H 345.735 -1.50508 3.3428 0
M  V30 3801 H 345.383 -3.9683 3.09088 0
M  V30 3802 H 345.083 -3.43831 4.76502 0
M  V30 3803 H 346.607 -4.27708 4.35773 0
M  V30 3804 H 348.021 -2.20642 5.29141 0
M  V30 3805 H 346.418 -1.58942 5.78669 0
M  V30 3806 H 347.488 -0.561506 4.81638 0
M  V30 3807 N 348.832 -1.54138 -0.328536 0
M  V30 3808 C 350.057 -1.76378 -1.09112 0
M  V30 3809 C 350.482 -0.508596 -1.81094 0
M  V30 3810 O 349.84 0.539598 -1.73084 0
M  V30 3811 C 349.888 -2.95358 -2.06872 0
M  V30 3812 O 348.992 -2.66556 -3.14677 0
M  V30 3813 H 348.333 -0.584614 -0.314838 0
M  V30 3814 H 350.863 -2.01146 -0.374348 0
M  V30 3815 H 350.873 -3.22566 -2.4983 0
M  V30 3816 H 349.548 -3.86385 -1.5388 0
M  V30 3817 H 348.125 -2.50282 -2.7643 0
M  V30 3818 N 350.31 0.590341 -1.46126 0
M  V30 3819 C 351.26 1.69466 -1.5253 0
M  V30 3820 C 352.244 1.56179 -0.386917 0
M  V30 3821 O 353.436 1.65223 -0.634858 0
M  V30 3822 C 350.565 3.08245 -1.5113 0
M  V30 3823 C 349.651 3.26856 -2.70233 0
M  V30 3824 N 350.042 3.15657 -3.95214 0
M  V30 3825 C 348.34 3.57775 -2.66296 0
M  V30 3826 C 349.041 3.36066 -4.74799 0
M  V30 3827 N 348.017 3.60865 -4.06543 0
M  V30 3828 H 351.819 1.59326 -2.46966 0
M  V30 3829 H 349.333 0.79414 -1.41659 0
M  V30 3830 H 351.33 3.87492 -1.53804 0
M  V30 3831 H 349.99 3.19521 -0.577636 0
M  V30 3832 H 351.001 2.93686 -4.26578 0
M  V30 3833 H 347.678 3.75782 -1.81918 0
M  V30 3834 H 349.068 3.32655 -5.83772 0
M  V30 3835 N 351.788 1.33704 0.83433 0
M  V30 3836 C 352.736 1.24323 1.96587 0
M  V30 3837 C 353.73 0.143659 1.6879 0
M  V30 3838 O 354.936 0.30791 1.77347 0
M  V30 3839 H 351.311 0.385925 0.645419 0
M  V30 3840 H 353.282 2.19978 2.01624 0
M  V30 3841 C 352.031 1.00394 3.32891 0
M  V30 3842 H 351.354 1.84231 3.54822 0
M  V30 3843 H 352.794 0.97862 4.12552 0
M  V30 3844 C 351.253 -0.293047 3.35623 0
M  V30 3845 O 351.783 -1.29823 3.80143 0
M  V30 3846 N 349.989 -0.322174 2.88809 0
M  V30 3847 H 349.536 0.496379 2.52772 0
M  V30 3848 H 349.494 -1.18977 2.91019 0
M  V30 3849 N 353.266 -1.05314 1.17247 0
M  V30 3850 C 354.176 -2.16538 0.90268 0
M  V30 3851 C 355.192 -1.73523 -0.128707 0
M  V30 3852 O 356.368 -2.01337 0.0502701 0
M  V30 3853 C 353.433 -3.44167 0.418356 0
M  V30 3854 C 352.494 -4.01635 1.51618 0
M  V30 3855 C 351.727 -5.23171 1.05487 0
M  V30 3856 O 351.95 -5.70327 -0.0914715 0
M  V30 3857 O 350.884 -5.72848 1.8474 0
M  V30 3858 H 354.71 -2.42145 1.83302 0
M  V30 3859 H 352.295 -1.15037 0.953246 0
M  V30 3860 H 354.177 -4.21112 0.155726 0
M  V30 3861 H 352.852 -3.20063 -0.48385 0
M  V30 3862 H 351.759 -3.26135 1.83268 0
M  V30 3863 H 353.092 -4.30053 2.39405 0
M  V30 3864 N 354.744 -0.972509 -1.24016 0
M  V30 3865 C 355.674 -0.525548 -2.27509 0
M  V30 3866 C 356.655 0.437262 -1.64384 0
M  V30 3867 O 357.84 0.332343 -1.91335 0
M  V30 3868 C 354.97 0.180448 -3.46831 0
M  V30 3869 C 353.924 -0.698859 -4.22256 0
M  V30 3870 C 353.25 0.138903 -5.3452 0
M  V30 3871 C 354.55 -1.98582 -4.83076 0
M  V30 3872 H 356.244 -1.39058 -2.65148 0
M  V30 3873 H 353.79 -0.67009 -1.27459 0
M  V30 3874 H 355.743 0.504387 -4.18371 0
M  V30 3875 H 354.467 1.07987 -3.08231 0
M  V30 3876 H 353.126 -1.00614 -3.52523 0
M  V30 3877 H 352.774 1.03862 -4.9216 0
M  V30 3878 H 352.474 -0.446259 -5.85903 0
M  V30 3879 H 353.998 0.457404 -6.08884 0
M  V30 3880 H 355.412 -1.72715 -5.46665 0
M  V30 3881 H 353.809 -2.5181 -5.44713 0
M  V30 3882 H 354.879 -2.67769 -4.04262 0
M  V30 3883 N 356.222 1.38976 -0.743202 0
M  V30 3884 C 357.185 2.28901 -0.117014 0
M  V30 3885 C 358.185 1.46698 0.658503 0
M  V30 3886 O 359.375 1.67274 0.486305 0
M  V30 3887 C 356.507 3.30309 0.84315 0
M  V30 3888 H 357.7 2.8578 -0.909373 0
M  V30 3889 H 355.253 1.47761 -0.509547 0
M  V30 3890 H 355.988 2.785 1.66157 0
M  V30 3891 H 355.773 3.91029 0.289594 0
M  V30 3892 H 357.263 3.97577 1.2776 0
M  V30 3893 N 357.7 0.491464 1.49741 0
M  V30 3894 C 358.977 -0.118984 1.95238 0
M  V30 3895 C 359.357 -1.55044 1.43264 0
M  V30 3896 O 358.705 -2.19287 0.642287 0
M  V30 3897 C 358.915 -0.0414187 3.48975 0
M  V30 3898 C 360.263 -0.220133 4.24029 0
M  V30 3899 O 361.287 -0.117055 3.56008 0
M  V30 3900 O 360.146 -0.430567 5.44801 0
M  V30 3901 H 357.24 -0.100536 0.820866 0
M  V30 3902 H 359.786 0.553322 1.60426 0
M  V30 3903 H 358.558 0.957214 3.79412 0
M  V30 3904 H 358.181 -0.754292 3.9038 0
M  V30 3905 N 359.178 -1.55987 0.224894 0
M  V30 3906 C 360.403 -2.03232 -0.41369 0
M  V30 3907 C 360.828 -1.10359 -1.52323 0
M  V30 3908 O 360.186 -0.092395 -1.81064 0
M  V30 3909 C 360.234 -3.48682 -0.919405 0
M  V30 3910 O 359.338 -3.58947 -2.03054 0
M  V30 3911 H 358.679 -0.657428 -0.0931903 0
M  V30 3912 H 361.209 -2.01679 0.34451 0
M  V30 3913 H 361.219 -3.8907 -1.22835 0
M  V30 3914 H 359.894 -4.15761 -0.107339 0
M  V30 3915 H 358.471 -3.30448 -1.72796 0
M  V30 3916 N 360.656 0.0484629 -1.57525 0
M  V30 3917 C 361.904 0.741657 -1.88 0
M  V30 3918 C 362.225 1.76918 -0.820054 0
M  V30 3919 O 361.495 1.95335 0.148661 0
M  V30 3920 H 360.075 0.276908 -0.69378 0
M  V30 3921 H 362.737 0.019013 -1.94891 0
M  V30 3922 H 361.833 1.24336 -2.86264 0
M  V30 3923 N 362.134 1.5431 0.320358 0
M  V30 3924 C 363.383 1.7188 1.05546 0
M  V30 3925 C 363.696 0.501143 1.89071 0
M  V30 3926 O 364.902 0.558258 2.65699 0
M  V30 3927 C 363.358 3.04025 1.92605 0
M  V30 3928 C 362.966 4.33207 1.14176 0
M  V30 3929 C 364.71 3.30959 2.65832 0
M  V30 3930 C 362.617 5.56412 2.00399 0
M  V30 3931 H 361.547 0.640547 0.397763 0
M  V30 3932 H 364.198 1.80802 0.313522 0
M  V30 3933 H 362.58 2.89019 2.7071 0
M  V30 3934 H 363.754 4.58989 0.40819 0
M  V30 3935 H 362.069 4.13062 0.526165 0
M  V30 3936 H 364.666 4.20203 3.30656 0
M  V30 3937 H 365.009 2.48979 3.33639 0
M  V30 3938 H 365.542 3.46847 1.94787 0
M  V30 3939 H 362.281 6.41004 1.37094 0
M  V30 3940 H 361.801 5.34844 2.7148 0
M  V30 3941 H 363.48 5.92938 2.58908 0
M  V30 3942 N 363.613 -0.582584 1.46437 0
M  V30 3943 C 365.024 -1.1647 1.45916 0
M  V30 3944 C 365.375 -1.95177 0.200077 0
M  V30 3945 O 364.5 -2.04874 -0.696819 0
M  V30 3946 C 365.095 -2.11885 2.64367 0
M  V30 3947 C 363.654 -2.65421 2.66887 0
M  V30 3948 C 362.801 -1.41294 2.38603 0
M  V30 3949 H 365.752 -0.370514 1.54314 0
M  V30 3950 H 365.773 -2.9535 2.39892 0
M  V30 3951 H 365.285 -1.54573 3.5599 0
M  V30 3952 H 363.386 -3.26602 1.79338 0
M  V30 3953 H 363.499 -3.08147 3.66854 0
M  V30 3954 H 361.863 -1.71109 1.88663 0
M  V30 3955 H 362.646 -0.858125 3.32402 0
M  V30 3956 N 365.091 -1.34144 -0.827227 0
M  V30 3957 C 366.339 -1.26009 -1.58007 0
M  V30 3958 C 366.66 0.170971 -1.94249 0
M  V30 3959 O 365.93 1.10256 -1.61927 0
M  V30 3960 H 364.51 -0.463414 -0.585881 0
M  V30 3961 H 367.172 -1.68005 -0.987951 0
M  V30 3962 H 366.268 -1.86187 -2.50481 0
M  V30 3963 N 366.569 1.04691 -1.17803 0
M  V30 3964 C 367.517 2.14665 -0.895635 0
M  V30 3965 C 368.511 1.68806 0.141679 0
M  V30 3966 O 369.717 1.79999 -0.00587914 0
M  V30 3967 H 366.092 0.701038 -0.272121 0
M  V30 3968 H 368.063 2.35685 -1.83017 0
M  V30 3969 C 366.812 3.45019 -0.430962 0
M  V30 3970 H 366.135 3.8071 -1.22064 0
M  V30 3971 H 367.575 4.23125 -0.272301 0
M  V30 3972 C 366.034 3.25943 0.852207 0
M  V30 3973 O 366.564 3.5296 1.91786 0
M  V30 3974 N 364.77 2.79304 0.802346 0
M  V30 3975 H 364.317 2.57518 -0.0650788 0
M  V30 3976 H 364.275 2.66921 1.66134 0
M  V30 3977 N 368.047 0.979072 1.23499 0
M  V30 3978 C 369.272 0.664845 1.96455 0
M  V30 3979 C 369.697 -0.761287 1.72006 0
M  V30 3980 O 369.055 -1.51837 0.990713 0
M  V30 3981 C 369.103 0.959479 3.47601 0
M  V30 3982 O 368.207 0.0508168 4.12369 0
M  V30 3983 H 367.548 0.250185 0.615064 0
M  V30 3984 H 370.078 1.31231 1.5697 0
M  V30 3985 H 370.088 0.895642 3.98048 0
M  V30 3986 H 368.763 1.99876 3.64723 0
M  V30 3987 H 367.34 0.16895 3.72517 0
M  V30 3988 N 369.525 -1.3858 0.750561 0
M  V30 3989 C 370.772 -2.00184 0.305373 0
M  V30 3990 C 371.1 -1.59575 -1.11203 0
M  V30 3991 O 370.355 -0.823236 -1.77542 0
M  V30 3992 C 370.654 -3.55455 0.372373 0
M  V30 3993 C 370.32 -4.15765 1.745 0
M  V30 3994 C 368.982 -4.31951 2.12065 0
M  V30 3995 C 371.334 -4.49067 2.64553 0
M  V30 3996 C 368.662 -4.78734 3.39162 0
M  V30 3997 C 371.014 -4.97265 3.91038 0
M  V30 3998 C 369.678 -5.11658 4.28676 0
M  V30 3999 H 368.948 -0.732526 0.111744 0
M  V30 4000 H 371.595 -1.65673 0.960451 0
M  V30 4001 H 369.9 -3.90084 -0.366272 0
M  V30 4002 H 371.597 -4.00999 0.00953918 0
M  V30 4003 H 368.187 -4.03579 1.44297 0
M  V30 4004 H 372.371 -4.36166 2.36796 0
M  V30 4005 H 367.627 -4.88062 3.68246 0
M  V30 4006 H 371.801 -5.22003 4.60962 0
M  V30 4007 H 369.428 -5.47668 5.27222 0
M  V30 4008 N 371.003 -0.499398 -1.49478 0
M  V30 4009 C 371.951 0.293604 -2.3074 0
M  V30 4010 C 372.945 0.96427 -1.39277 0
M  V30 4011 O 374.151 0.892141 -1.56336 0
M  V30 4012 H 370.526 0.113541 -0.743379 0
M  V30 4013 H 372.497 -0.411772 -2.95545 0
M  V30 4014 C 371.246 1.3462 -3.20582 0
M  V30 4015 H 370.569 0.83954 -3.90886 0
M  V30 4016 H 372.009 1.87308 -3.80384 0
M  V30 4017 C 370.468 2.36351 -2.40083 0
M  V30 4018 O 370.998 3.422 -2.10385 0
M  V30 4019 N 369.204 2.0878 -2.02137 0
M  V30 4020 H 368.751 1.22723 -2.26488 0
M  V30 4021 H 368.709 2.77075 -1.48583 0
M  V30 4022 N 372.481 1.55866 -0.233164 0
M  V30 4023 C 373.727 1.98897 0.395959 0
M  V30 4024 C 374.06 1.12091 1.58585 0
M  V30 4025 O 373.335 0.181182 1.93654 0
M  V30 4026 C 373.618 3.50658 0.819224 0
M  V30 4027 C 373.471 4.48233 -0.375109 0
M  V30 4028 C 374.79 4.07135 1.67121 0
M  V30 4029 H 371.909 0.723102 0.142451 0
M  V30 4030 H 374.551 1.87082 -0.331725 0
M  V30 4031 H 372.701 3.60857 1.43925 0
M  V30 4032 H 374.373 4.50031 -1.01341 0
M  V30 4033 H 372.616 4.21624 -1.02058 0
M  V30 4034 H 373.287 5.51988 -0.0358328 0
M  V30 4035 H 375.763 3.99952 1.14795 0
M  V30 4036 H 374.639 5.13615 1.93625 0
M  V30 4037 H 374.9 3.54736 2.63846 0
M  V30 4038 N 373.959 -0.0401083 1.57549 0
M  V30 4039 C 375.184 -0.748931 1.93406 0
M  V30 4040 C 375.609 -1.68686 0.832274 0
M  V30 4041 O 374.967 -1.80047 -0.212818 0
M  V30 4042 C 375.015 -1.4916 3.28304 0
M  V30 4043 O 374.119 -2.6042 3.19774 0
M  V30 4044 H 373.46 -0.202212 0.63246 0
M  V30 4045 H 375.99 0.00112086 2.046 0
M  V30 4046 H 376 -1.86395 3.62934 0
M  V30 4047 H 374.675 -0.80364 4.08062 0
M  V30 4048 H 373.252 -2.25808 2.96758 0
M  V30 4049 N 375.437 -1.54477 -0.31217 0
M  V30 4050 C 376.662 -1.77526 -1.07235 0
M  V30 4051 C 377.087 -0.527775 -1.80544 0
M  V30 4052 O 376.445 0.52121 -1.73646 0
M  V30 4053 C 376.493 -2.97535 -2.03728 0
M  V30 4054 O 375.597 -2.69878 -3.11833 0
M  V30 4055 H 374.938 -0.58792 -0.30862 0
M  V30 4056 H 377.468 -2.01532 -0.352993 0
M  V30 4057 H 377.478 -3.25198 -2.46395 0
M  V30 4058 H 376.153 -3.87996 -1.49774 0
M  V30 4059 H 374.73 -2.53199 -2.7376 0
M  V30 4060 N 376.915 0.57481 -1.46744 0
M  V30 4061 C 377.845 1.69337 -1.60771 0
M  V30 4062 C 378.826 1.63825 -0.457736 0
M  V30 4063 O 380.011 1.8172 -0.684947 0
M  V30 4064 C 377.141 3.0798 -1.60517 0
M  V30 4065 C 376.095 3.28327 -2.74564 0
M  V30 4066 C 375.421 4.67578 -2.59373 0
M  V30 4067 C 376.721 3.15398 -4.16319 0
M  V30 4068 H 378.415 1.57853 -2.54407 0
M  V30 4069 H 375.961 0.75799 -1.22436 0
M  V30 4070 H 377.914 3.86061 -1.68923 0
M  V30 4071 H 376.638 3.20381 -0.634305 0
M  V30 4072 H 375.297 2.52649 -2.65639 0
M  V30 4073 H 374.945 4.76755 -1.60353 0
M  V30 4074 H 374.645 4.82144 -3.35873 0
M  V30 4075 H 376.169 5.47817 -2.69682 0
M  V30 4076 H 377.583 3.83315 -4.26313 0
M  V30 4077 H 375.98 3.41482 -4.93468 0
M  V30 4078 H 377.05 2.12372 -4.3592 0
M  V30 4079 N 378.394 1.34581 0.820102 0
M  V30 4080 C 379.64 1.27285 1.57881 0
M  V30 4081 C 379.973 -0.156137 1.93571 0
M  V30 4082 O 379.248 -1.10222 1.60254 0
M  V30 4083 C 379.531 2.16639 2.87645 0
M  V30 4084 C 379.384 3.68088 2.58517 0
M  V30 4085 C 380.703 2.05378 3.8924 0
M  V30 4086 H 377.822 0.463714 0.572833 0
M  V30 4087 H 380.464 1.64859 0.944539 0
M  V30 4088 H 378.614 1.84725 3.41773 0
M  V30 4089 H 380.286 4.10382 2.10676 0
M  V30 4090 H 378.529 3.89038 1.91917 0
M  V30 4091 H 379.2 4.2598 3.51063 0
M  V30 4092 H 381.676 2.33404 3.44473 0
M  V30 4093 H 380.552 2.7012 4.77835 0
M  V30 4094 H 380.813 1.0316 4.29896 0
M  V30 4095 N 379.872 -1.04064 1.18357 0
M  V30 4096 C 380.782 -2.15569 0.925596 0
M  V30 4097 C 381.798 -1.7365 -0.110295 0
M  V30 4098 O 382.974 -2.01273 0.0716218 0
M  V30 4099 C 380.039 -3.43704 0.454836 0
M  V30 4100 C 379.1 -4.00004 1.55869 0
M  V30 4101 C 378.333 -5.22023 1.1103 0
M  V30 4102 O 378.556 -5.70392 -0.0309756 0
M  V30 4103 O 377.49 -5.70856 1.90805 0
M  V30 4104 H 381.316 -2.40187 1.8586 0
M  V30 4105 H 378.901 -1.1402 0.965394 0
M  V30 4106 H 380.783 -4.20923 0.200382 0
M  V30 4107 H 379.458 -3.20559 -0.449876 0
M  V30 4108 H 378.365 -3.24172 1.86716 0
M  V30 4109 H 379.698 -4.2749 2.43953 0
M  V30 4110 N 381.35 -0.985608 -1.22978 0
M  V30 4111 C 382.28 -0.549649 -2.26939 0
M  V30 4112 C 383.261 0.419803 -1.64838 0
M  V30 4113 O 384.446 0.31203 -1.91677 0
M  V30 4114 C 381.576 0.143652 -3.47003 0
M  V30 4115 C 380.53 -0.743606 -4.21491 0
M  V30 4116 C 379.856 0.0822027 -5.34637 0
M  V30 4117 C 381.156 -2.03694 -4.80943 0
M  V30 4118 H 382.85 -1.41862 -2.63658 0
M  V30 4119 H 380.396 -0.683571 -1.26741 0
M  V30 4120 H 382.349 0.459985 -4.18882 0
M  V30 4121 H 381.073 1.04711 -3.09359 0
M  V30 4122 H 379.732 -1.04347 -3.51436 0
M  V30 4123 H 379.38 0.986359 -4.93234 0
M  V30 4124 H 379.08 -0.508377 -5.85397 0
M  V30 4125 H 380.604 0.392797 -6.09335 0
M  V30 4126 H 382.018 -1.78504 -5.44802 0
M  V30 4127 H 380.415 -2.57573 -5.42011 0
M  V30 4128 H 381.485 -2.72042 -4.01399 0
M  V30 4129 N 382.828 1.3818 -0.7579 0
M  V30 4130 C 384.105 1.94106 -0.241306 0
M  V30 4131 C 384.485 1.69282 1.26122 0
M  V30 4132 O 383.833 1.03378 2.03777 0
M  V30 4133 C 384.043 3.43809 -0.59967 0
M  V30 4134 C 385.391 4.20868 -0.561717 0
M  V30 4135 O 386.415 3.5211 -0.538222 0
M  V30 4136 O 385.274 5.43451 -0.576478 0
M  V30 4137 H 382.368 0.825376 -0.0518042 0
M  V30 4138 H 384.914 1.47548 -0.838315 0
M  V30 4139 H 383.686 3.55403 -1.6372 0
M  V30 4140 H 383.309 3.97592 0.0251197 0
M  V30 4141 N 384.306 0.507319 1.49211 0
M  V30 4142 C 385.236 -0.256939 2.32082 0
M  V30 4143 C 386.217 -0.956609 1.40652 0
M  V30 4144 O 387.402 -0.946788 1.69557 0
M  V30 4145 C 384.532 -1.31802 3.21318 0
M  V30 4146 C 383.486 -0.737855 4.21592 0
M  V30 4147 C 382.812 -1.89992 4.99807 0
M  V30 4148 C 384.112 0.275325 5.21574 0
M  V30 4149 H 385.806 0.434798 2.96226 0
M  V30 4150 H 383.352 0.210546 1.42452 0
M  V30 4151 H 385.305 -1.86045 3.78107 0
M  V30 4152 H 384.029 -2.03903 2.5513 0
M  V30 4153 H 382.688 -0.217126 3.65956 0
M  V30 4154 H 382.336 -2.60877 4.30061 0
M  V30 4155 H 382.036 -1.51777 5.6766 0
M  V30 4156 H 383.56 -2.44657 5.59442 0
M  V30 4157 H 384.974 -0.179193 5.7302 0
M  V30 4158 H 383.371 0.573649 5.97352 0
M  V30 4159 H 384.441 1.18903 4.70096 0
M  V30 4160 N 385.784 -1.5574 0.241426 0
M  V30 4161 C 387.009 -2.0366 -0.392111 0
M  V30 4162 C 387.434 -1.11969 -1.51144 0
M  V30 4163 O 386.792 -0.111594 -1.80956 0
M  V30 4164 C 386.84 -3.49638 -0.882371 0
M  V30 4165 O 385.944 -3.6108 -1.99235 0
M  V30 4166 H 385.285 -0.658379 -0.0862122 0
M  V30 4167 H 387.815 -2.01302 0.365881 0
M  V30 4168 H 387.825 -3.90351 -1.18702 0
M  V30 4169 H 386.5 -4.15852 -0.0632361 0
M  V30 4170 H 385.077 -3.32262 -1.69282 0
M  V30 4171 N 387.262 0.0317525 -1.57568 0
M  V30 4172 C 388.492 0.733884 -1.93126 0
M  V30 4173 C 388.9 1.69563 -0.839352 0
M  V30 4174 O 388.243 1.82681 0.193175 0
M  V30 4175 C 388.305 1.54798 -3.24465 0
M  V30 4176 C 387.969 0.751304 -4.50782 0
M  V30 4177 C 388.966 0.0527632 -5.19873 0
M  V30 4178 C 386.651 0.706639 -4.97305 0
M  V30 4179 C 388.645 -0.679774 -6.33765 0
M  V30 4180 C 386.332 -0.0296449 -6.11093 0
M  V30 4181 C 387.33 -0.721614 -6.79177 0
M  V30 4182 O 387.018 -1.44595 -7.90789 0
M  V30 4183 H 386.75 0.211459 -0.642076 0
M  V30 4184 H 389.304 -0.00585615 -2.05399 0
M  V30 4185 H 387.534 2.33147 -3.08512 0
M  V30 4186 H 389.223 2.13247 -3.4537 0
M  V30 4187 H 389.989 0.0783188 -4.84937 0
M  V30 4188 H 385.868 1.23474 -4.44157 0
M  V30 4189 H 389.412 -1.22042 -6.86842 0
M  V30 4190 H 385.309 -0.0571331 -6.45475 0
M  V30 4191 H 386.077 -1.35935 -8.07133 0
M  V30 4192 N 388.74 1.54641 0.303973 0
M  V30 4193 C 389.688 1.86137 1.39484 0
M  V30 4194 C 390.682 0.734854 1.52631 0
M  V30 4195 O 391.888 0.918803 1.54784 0
M  V30 4196 H 388.263 0.590324 0.465856 0
M  V30 4197 H 390.234 2.77324 1.10154 0
M  V30 4198 C 388.983 2.12274 2.75382 0
M  V30 4199 H 388.306 2.98429 2.66046 0
M  V30 4200 H 389.746 2.38254 3.5073 0
M  V30 4201 C 388.205 0.920365 3.24085 0
M  V30 4202 O 388.735 0.139377 4.01458 0
M  V30 4203 N 386.941 0.726566 2.81371 0
M  V30 4204 H 386.488 1.36332 2.18567 0
M  V30 4205 H 386.446 -0.0763799 3.14307 0
M  V30 4206 N 390.218 -0.567019 1.47046 0
M  V30 4207 C 391.165 -1.67489 1.58796 0
M  V30 4208 C 392.135 -1.60399 0.43144 0
M  V30 4209 O 393.32 -1.79378 0.650233 0
M  V30 4210 C 390.46 -3.05821 1.59899 0
M  V30 4211 C 389.573 -3.2342 2.86397 0
M  V30 4212 C 388.708 -4.52093 2.789 0
M  V30 4213 C 387.747 -4.6309 4.00267 0
M  V30 4214 N 386.884 -5.83106 3.91064 0
M  V30 4215 H 391.724 -1.56785 2.53422 0
M  V30 4216 H 389.261 -0.763896 1.2571 0
M  V30 4217 H 391.219 -3.8591 1.58522 0
M  V30 4218 H 389.849 -3.15384 0.687929 0
M  V30 4219 H 388.901 -2.3683 2.97684 0
M  V30 4220 H 390.213 -3.27412 3.76301 0
M  V30 4221 H 389.367 -5.4043 2.75718 0
M  V30 4222 H 388.106 -4.50565 1.86662 0
M  V30 4223 H 387.111 -3.73168 4.03765 0
M  V30 4224 H 388.336 -4.66386 4.93621 0
M  V30 4225 H 386.282 -5.82546 3.01623 0
M  V30 4226 H 386.199 -5.88434 4.74638 0
M  V30 4227 H 387.467 -6.73831 3.91882 0
M  V30 4228 N 391.696 -1.35014 -0.812953 0
M  V30 4229 C 392.626 -1.30069 -1.93919 0
M  V30 4230 C 393.607 -0.176275 -1.69184 0
M  V30 4231 O 394.792 -0.370227 -1.90638 0
M  V30 4232 C 391.922 -1.06547 -3.30552 0
M  V30 4233 C 390.876 -2.15561 -3.69753 0
M  V30 4234 C 390.202 -1.77214 -5.04479 0
M  V30 4235 C 391.502 -3.57476 -3.808 0
M  V30 4236 H 393.196 -2.24303 -1.98314 0
M  V30 4237 H 390.742 -1.07977 -0.952736 0
M  V30 4238 H 392.695 -1.01729 -4.08937 0
M  V30 4239 H 391.419 -0.0875719 -3.26483 0
M  V30 4240 H 390.078 -2.19466 -2.9365 0
M  V30 4241 H 389.726 -0.780589 -4.96906 0
M  V30 4242 H 389.426 -2.50184 -5.31678 0
M  V30 4243 H 390.95 -1.7391 -5.8531 0
M  V30 4244 H 392.364 -3.55929 -4.4943 0
M  V30 4245 H 390.761 -4.29152 -4.19462 0
M  V30 4246 H 391.831 -3.94091 -2.82525 0
M  V30 4247 N 393.175 1.03435 -1.18907 0
M  V30 4248 C 394.122 2.11591 -0.921837 0
M  V30 4249 C 395.092 1.65499 0.141226 0
M  V30 4250 O 396.277 1.908 0.000242829 0
M  V30 4251 C 393.417 3.42012 -0.460616 0
M  V30 4252 C 392.53 4.01682 -1.58982 0
M  V30 4253 C 391.665 5.20091 -1.08069 0
M  V30 4254 C 390.704 5.71805 -2.18416 0
M  V30 4255 N 389.841 6.81494 -1.68849 0
M  V30 4256 H 394.681 2.33787 -1.8479 0
M  V30 4257 H 392.218 1.1467 -0.921373 0
M  V30 4258 H 394.176 4.16834 -0.174642 0
M  V30 4259 H 392.806 3.19944 0.428467 0
M  V30 4260 H 391.858 3.24127 -1.99113 0
M  V30 4261 H 393.17 4.36084 -2.4214 0
M  V30 4262 H 392.324 6.02051 -0.749615 0
M  V30 4263 H 391.063 4.87209 -0.218771 0
M  V30 4264 H 390.068 4.88461 -2.5236 0
M  V30 4265 H 391.293 6.06728 -3.05054 0
M  V30 4266 H 389.239 6.50475 -0.849572 0
M  V30 4267 H 389.156 7.14994 -2.45601 0
M  V30 4268 H 390.424 7.67063 -1.38689 0
M  V30 4269 N 394.653 0.992116 1.22453 0
M  V30 4270 C 395.601 0.534644 2.26372 0
M  V30 4271 C 396.595 -0.414293 1.64256 0
M  V30 4272 O 397.801 -0.286899 1.77699 0
M  V30 4273 H 394.176 0.154502 0.735957 0
M  V30 4274 H 396.147 1.42256 2.62309 0
M  V30 4275 C 394.896 -0.135815 3.47435 0
M  V30 4276 H 394.219 0.585311 3.95492 0
M  V30 4277 H 395.659 -0.419374 4.21921 0
M  V30 4278 C 394.118 -1.37089 3.07747 0
M  V30 4279 O 394.648 -2.46629 3.17076 0
M  V30 4280 N 392.854 -1.24585 2.62539 0
M  V30 4281 H 392.401 -0.354542 2.55149 0
M  V30 4282 H 392.359 -2.07327 2.36353 0
M  V30 4283 N 396.131 -1.37776 0.765217 0
M  V30 4284 C 397.38 -1.99092 0.323307 0
M  V30 4285 C 397.693 -1.61434 -1.10446 0
M  V30 4286 O 398.899 -2.15805 -1.64743 0
M  V30 4287 C 397.355 -3.56019 0.527098 0
M  V30 4288 C 396.963 -4.0262 1.96471 0
M  V30 4289 C 398.707 -4.2424 0.148483 0
M  V30 4290 C 396.614 -5.52233 2.11644 0
M  V30 4291 H 395.544 -0.744846 0.117137 0
M  V30 4292 H 398.195 -1.57391 0.943417 0
M  V30 4293 H 396.577 -3.95667 -0.162372 0
M  V30 4294 H 397.751 -3.74234 2.68859 0
M  V30 4295 H 396.066 -3.47161 2.29931 0
M  V30 4296 H 398.663 -5.34159 0.240456 0
M  V30 4297 H 399.006 -4.06446 -0.900422 0
M  V30 4298 H 399.539 -3.89872 0.79025 0
M  V30 4299 H 396.278 -5.74945 3.1483 0
M  V30 4300 H 395.798 -5.82324 1.4373 0
M  V30 4301 H 397.477 -6.18106 1.91193 0
M  V30 4302 N 397.609 -0.515225 -1.4894 0
M  V30 4303 C 399.02 -0.0710067 -1.86565 0
M  V30 4304 C 399.371 1.34733 -1.42623 0
M  V30 4305 O 398.496 2.00653 -0.810379 0
M  V30 4306 C 399.091 -0.122083 -3.3858 0
M  V30 4307 C 397.65 0.266863 -3.75453 0
M  V30 4308 C 396.797 -0.488376 -2.72966 0
M  V30 4309 H 399.748 -0.727266 -1.41055 0
M  V30 4310 H 399.769 0.669818 -3.74558 0
M  V30 4311 H 399.281 -1.15448 -3.70531 0
M  V30 4312 H 397.382 1.30196 -3.49113 0
M  V30 4313 H 397.495 -0.0624811 -4.79059 0
M  V30 4314 H 395.859 0.0635622 -2.54621 0
M  V30 4315 H 396.642 -1.52113 -3.07761 0
M  V30 4316 N 399.087 1.5561 -0.249682 0
M  V30 4317 C 400.315 2.03411 0.378352 0
M  V30 4318 C 400.73 1.12886 1.51335 0
M  V30 4319 O 400.087 0.143833 1.81932 0
M  V30 4320 C 400.138 3.50537 0.88351 0
M  V30 4321 O 399.859 4.37614 -0.20626 0
M  V30 4322 C 401.36 4.14113 1.58195 0
M  V30 4323 H 398.58 0.664994 0.08958 0
M  V30 4324 H 401.124 2.01044 -0.374357 0
M  V30 4325 H 399.279 3.5343 1.58639 0
M  V30 4326 H 399.693 5.24199 0.177782 0
M  V30 4327 H 401.167 5.18741 1.8871 0
M  V30 4328 H 401.644 3.60767 2.50487 0
M  V30 4329 H 402.25 4.15151 0.923573 0
M  V30 4330 N 400.565 -0.0233959 1.57583 0
M  V30 4331 C 401.811 -0.714119 1.89811 0
M  V30 4332 C 402.144 -1.74702 0.848113 0
M  V30 4333 O 401.419 -1.94023 -0.136135 0
M  V30 4334 C 401.702 -1.37853 3.32669 0
M  V30 4335 C 401.555 -0.358764 4.48367 0
M  V30 4336 C 402.874 -2.31101 3.7454 0
M  V30 4337 H 399.993 -0.25814 0.690314 0
M  V30 4338 H 402.635 0.0230927 1.89986 0
M  V30 4339 H 400.785 -2.00689 3.3265 0
M  V30 4340 H 402.457 0.268115 4.6052 0
M  V30 4341 H 400.7 0.321387 4.32608 0
M  V30 4342 H 401.371 -0.862242 5.45224 0
M  V30 4343 H 403.847 -1.78304 3.75961 0
M  V30 4344 H 402.723 -2.74567 4.75294 0
M  V30 4345 H 402.984 -3.18018 3.0711 0
M  V30 4346 N 402.043 -1.548 -0.295768 0
M  V30 4347 C 402.991 -1.86874 -1.38495 0
M  V30 4348 C 403.985 -0.742938 -1.52239 0
M  V30 4349 O 405.191 -0.926999 -1.54294 0
M  V30 4350 H 401.566 -0.592786 -0.462719 0
M  V30 4351 H 403.537 -2.77904 -1.08682 0
M  V30 4352 C 402.286 -2.13732 -2.74252 0
M  V30 4353 H 401.609 -2.99835 -2.64459 0
M  V30 4354 H 403.049 -2.4011 -3.49461 0
M  V30 4355 C 401.508 -0.937539 -3.23592 0
M  V30 4356 O 402.038 -0.160665 -4.01379 0
M  V30 4357 N 400.244 -0.741478 -2.80981 0
M  V30 4358 H 399.791 -1.37489 -2.1784 0
M  V30 4359 H 399.749 0.0597103 -3.14343 0
M  V30 4360 N 403.521 0.559213 -1.47345 0
M  V30 4361 C 404.431 1.69388 -1.62311 0
M  V30 4362 C 405.447 1.6648 -0.505993 0
M  V30 4363 O 406.623 1.85964 -0.773262 0
M  V30 4364 C 403.688 3.05894 -1.63185 0
M  V30 4365 C 402.749 3.19885 -2.86307 0
M  V30 4366 C 401.982 4.49879 -2.87131 0
M  V30 4367 O 402.205 5.35217 -1.97229 0
M  V30 4368 O 401.139 4.67618 -3.78968 0
M  V30 4369 H 404.965 1.59706 -2.58317 0
M  V30 4370 H 402.55 0.728989 -1.30407 0
M  V30 4371 H 404.432 3.87133 -1.66451 0
M  V30 4372 H 403.107 3.15964 -0.70345 0
M  V30 4373 H 402.014 2.38052 -2.88587 0
M  V30 4374 H 403.347 3.14718 -3.78435 0
M  V30 4375 N 404.999 1.35443 0.805782 0
M  V30 4376 C 405.947 1.28465 1.93906 0
M  V30 4377 C 406.941 0.17943 1.68447 0
M  V30 4378 O 408.147 0.345459 1.76654 0
M  V30 4379 H 404.522 0.399528 0.637088 0
M  V30 4380 H 406.493 2.24206 1.96912 0
M  V30 4381 C 405.242 1.07432 3.30687 0
M  V30 4382 H 404.565 1.91716 3.50835 0
M  V30 4383 H 406.005 1.06591 4.10383 0
M  V30 4384 C 404.464 -0.22179 3.36169 0
M  V30 4385 O 404.994 -1.21731 3.82811 0
M  V30 4386 N 403.2 -0.260841 2.89427 0
M  V30 4387 H 402.747 0.549884 2.51663 0
M  V30 4388 H 402.705 -1.12777 2.93477 0
M  V30 4389 N 406.477 -1.02803 1.19454 0
M  V30 4390 C 407.407 -2.12999 0.956758 0
M  V30 4391 C 408.388 -1.69743 -0.110188 0
M  V30 4392 O 409.573 -1.94148 0.0450038 0
M  V30 4393 C 406.703 -3.43746 0.495553 0
M  V30 4394 C 405.657 -4.00688 1.50443 0
M  V30 4395 C 404.983 -5.27067 0.900275 0
M  V30 4396 C 406.283 -4.35397 2.8849 0
M  V30 4397 H 407.977 -2.33148 1.87836 0
M  V30 4398 H 405.523 -1.12045 0.904539 0
M  V30 4399 H 407.476 -4.2021 0.316493 0
M  V30 4400 H 406.2 -3.23321 -0.461646 0
M  V30 4401 H 404.859 -3.2632 1.67065 0
M  V30 4402 H 404.507 -5.02959 -0.064503 0
M  V30 4403 H 404.207 -5.66127 1.57397 0
M  V30 4404 H 405.731 -6.06196 0.73203 0
M  V30 4405 H 407.145 -5.02795 2.75446 0
M  V30 4406 H 405.542 -4.85541 3.52661 0
M  V30 4407 H 406.612 -3.44662 3.41081 0
M  V30 4408 N 407.956 -0.998596 -1.21925 0
M  V30 4409 C 408.866 -0.562736 -2.27751 0
M  V30 4410 C 409.882 0.391203 -1.69545 0
M  V30 4411 O 411.058 0.256625 -1.99758 0
M  V30 4412 C 408.123 0.11012 -3.46525 0
M  V30 4413 C 407.184 -0.887495 -4.20026 0
M  V30 4414 C 406.417 -0.246654 -5.3313 0
M  V30 4415 O 406.64 0.958088 -5.62296 0
M  V30 4416 O 405.574 -0.954374 -5.94286 0
M  V30 4417 H 409.4 -1.44329 -2.67213 0
M  V30 4418 H 406.985 -0.767135 -1.28201 0
M  V30 4419 H 408.867 0.486756 -4.18579 0
M  V30 4420 H 407.542 0.965154 -3.08976 0
M  V30 4421 H 406.449 -1.31517 -3.5022 0
M  V30 4422 H 407.782 -1.71191 -4.6147 0
M  V30 4423 N 409.434 1.37368 -0.772513 0
M  V30 4424 C 410.382 2.32134 -0.147111 0
M  V30 4425 C 411.376 1.54972 0.684106 0
M  V30 4426 O 412.582 1.70363 0.581083 0
M  V30 4427 H 408.957 0.751449 -0.028786 0
M  V30 4428 H 410.928 2.82464 -0.962112 0
M  V30 4429 C 409.677 3.40226 0.71703 0
M  V30 4430 H 409 3.99706 0.0867951 0
M  V30 4431 H 410.44 4.08897 1.12159 0
M  V30 4432 C 408.899 2.80372 1.86797 0
M  V30 4433 O 409.429 2.71183 2.96349 0
M  V30 4434 N 407.635 2.37904 1.66883 0
M  V30 4435 H 407.182 2.45578 0.777759 0
M  V30 4436 H 407.14 1.98202 2.44056 0
M  V30 4437 N 410.912 0.523116 1.48665 0
M  V30 4438 C 412.142 -0.00961724 2.06598 0
M  V30 4439 C 412.55 -1.29333 1.38093 0
M  V30 4440 O 411.893 -1.77846 0.46007 0
M  V30 4441 C 411.955 -0.311135 3.58151 0
M  V30 4442 C 411.619 0.878092 4.48485 0
M  V30 4443 C 412.616 1.77464 4.88674 0
M  V30 4444 C 410.301 1.08315 4.90483 0
M  V30 4445 C 412.295 2.86021 5.69623 0
M  V30 4446 C 409.982 2.17187 5.71203 0
M  V30 4447 C 410.98 3.05873 6.10681 0
M  V30 4448 O 410.668 4.12862 6.89783 0
M  V30 4449 H 410.4 0.0272658 0.67545 0
M  V30 4450 H 412.954 0.726156 1.92136 0
M  V30 4451 H 411.184 -1.10079 3.70701 0
M  V30 4452 H 412.873 -0.785125 3.98234 0
M  V30 4453 H 413.639 1.62813 4.56855 0
M  V30 4454 H 409.518 0.402149 4.59243 0
M  V30 4455 H 413.062 3.55272 6.00356 0
M  V30 4456 H 408.959 2.31824 6.02435 0
M  V30 4457 H 409.727 4.10487 7.08126 0
M  V30 4458 N 412.39 -1.55475 0.257931 0
M  V30 4459 C 413.62 -2.03314 -0.367026 0
M  V30 4460 C 414.028 -1.13625 -1.51281 0
M  V30 4461 O 413.371 -0.145334 -1.83124 0
M  V30 4462 C 413.433 -3.47362 -0.926284 0
M  V30 4463 C 413.097 -4.56914 0.0886584 0
M  V30 4464 C 414.094 -5.12013 0.902123 0
M  V30 4465 C 411.779 -5.01827 0.217936 0
M  V30 4466 C 413.773 -6.10529 1.83122 0
M  V30 4467 C 411.46 -6.00172 1.15052 0
M  V30 4468 C 412.458 -6.54402 1.95568 0
M  V30 4469 O 412.146 -7.50827 2.87253 0
M  V30 4470 H 411.878 -0.669976 -0.0900443 0
M  V30 4471 H 414.432 -2.01804 0.382673 0
M  V30 4472 H 412.662 -3.46056 -1.72575 0
M  V30 4473 H 414.351 -3.78637 -1.46249 0
M  V30 4474 H 415.117 -4.78139 0.812891 0
M  V30 4475 H 410.996 -4.59272 -0.398721 0
M  V30 4476 H 414.54 -6.52783 2.46008 0
M  V30 4477 H 410.437 -6.33465 1.24064 0
M  V30 4478 H 411.205 -7.68483 2.81739 0
M  V30 4479 N 413.868 0.0150385 -1.57593 0
M  V30 4480 C 414.798 1.01047 -2.10503 0
M  V30 4481 C 415.779 1.36816 -1.01071 0
M  V30 4482 O 416.964 1.45455 -1.28672 0
M  V30 4483 C 414.094 2.30708 -2.59598 0
M  V30 4484 C 413.048 2.09142 -3.73421 0
M  V30 4485 C 412.374 3.44685 -4.08774 0
M  V30 4486 C 413.674 1.46619 -5.01298 0
M  V30 4487 H 415.368 0.569978 -2.93925 0
M  V30 4488 H 412.914 0.272724 -1.41394 0
M  V30 4489 H 414.867 3.00687 -2.95238 0
M  V30 4490 H 413.591 2.76843 -1.73279 0
M  V30 4491 H 412.25 1.41592 -3.38153 0
M  V30 4492 H 411.898 3.88495 -3.195 0
M  V30 4493 H 411.598 3.31077 -4.8545 0
M  V30 4494 H 413.122 4.16004 -4.4696 0
M  V30 4495 H 414.536 2.06535 -5.34805 0
M  V30 4496 H 412.933 1.43544 -5.82679 0
M  V30 4497 H 414.003 0.433611 -4.82957 0
M  V30 4498 N 415.346 1.54954 0.287554 0
M  V30 4499 C 416.256 1.8991 1.37736 0
M  V30 4500 C 417.272 0.794701 1.54792 0
M  V30 4501 O 418.448 1.09243 1.69198 0
M  V30 4502 C 415.513 2.15108 2.71899 0
M  V30 4503 C 414.574 3.38752 2.63715 0
M  V30 4504 C 413.807 3.62739 3.91479 0
M  V30 4505 O 414.03 2.89492 4.91478 0
M  V30 4506 O 412.964 4.56267 3.92561 0
M  V30 4507 H 416.79 2.82652 1.11092 0
M  V30 4508 H 414.375 1.41315 0.484807 0
M  V30 4509 H 416.257 2.32806 3.51254 0
M  V30 4510 H 414.932 1.25551 2.9836 0
M  V30 4511 H 413.839 3.26405 1.82786 0
M  V30 4512 H 415.172 4.28483 2.42205 0
M  V30 4513 N 416.824 -0.551391 1.4764 0
M  V30 4514 C 418.07 -1.31024 1.54792 0
M  V30 4515 C 418.403 -1.9304 0.211967 0
M  V30 4516 O 417.678 -1.78175 -0.77999 0
M  V30 4517 C 417.961 -2.41593 2.67029 0
M  V30 4518 C 417.814 -1.84408 4.10261 0
M  V30 4519 C 419.133 -3.43488 2.75143 0
M  V30 4520 H 416.252 -0.475031 0.563485 0
M  V30 4521 H 418.894 -0.616454 1.79722 0
M  V30 4522 H 417.044 -3.00772 2.45904 0
M  V30 4523 H 418.716 -1.29445 4.42766 0
M  V30 4524 H 416.959 -1.15051 4.18265 0
M  V30 4525 H 417.63 -2.64367 4.84576 0
M  V30 4526 H 420.106 -2.94236 2.94218 0
M  V30 4527 H 418.982 -4.18274 3.55441 0
M  V30 4528 H 419.243 -4.02703 1.82435 0
M  V30 4529 N 418.302 -1.35869 -0.798587 0
M  V30 4530 C 419.25 -1.29491 -1.93222 0
M  V30 4531 C 420.244 -0.18836 -1.6835 0
M  V30 4532 O 421.45 -0.354822 -1.76468 0
M  V30 4533 H 417.825 -0.402901 -0.63496 0
M  V30 4534 H 419.796 -2.25247 -1.9572 0
M  V30 4535 C 418.545 -1.09184 -3.30112 0
M  V30 4536 H 417.868 -1.93574 -3.49813 0
M  V30 4537 H 419.308 -1.08766 -4.09812 0
M  V30 4538 C 417.767 0.203959 -3.36282 0
M  V30 4539 O 418.297 1.19699 -3.83451 0
M  V30 4540 N 416.503 0.245488 -2.89561 0
M  V30 4541 H 416.05 -0.563223 -2.51367 0
M  V30 4542 H 416.008 1.11219 -2.94071 0
M  V30 4543 N 419.78 1.02168 -1.19998 0
M  V30 4544 C 420.712 2.10705 -0.901994 0
M  V30 4545 C 421.725 1.6244 0.108216 0
M  V30 4546 O 422.914 1.78082 -0.12214 0
M  V30 4547 C 420.014 3.37291 -0.329834 0
M  V30 4548 C 419.187 4.14714 -1.39035 0
M  V30 4549 C 418.246 5.19606 -0.830432 0
M  V30 4550 O 417.272 5.48809 -1.50989 0
M  V30 4551 N 418.474 5.79366 0.362696 0
M  V30 4552 H 421.239 2.36856 -1.83628 0
M  V30 4553 H 418.8 1.18518 -1.10296 0
M  V30 4554 H 420.792 4.04657 0.0587633 0
M  V30 4555 H 419.362 3.0843 0.508891 0
M  V30 4556 H 418.582 3.42392 -1.9535 0
M  V30 4557 H 419.87 4.63226 -2.10474 0
M  V30 4558 H 419.268 5.57968 0.932081 0
M  V30 4559 H 417.825 6.48106 0.69299 0
M  V30 4560 N 421.258 1.00505 1.21394 0
M  V30 4561 C 422.188 0.585684 2.26035 0
M  V30 4562 C 423.169 -0.393525 1.65485 0
M  V30 4563 O 424.354 -0.281497 1.92149 0
M  V30 4564 C 421.484 -0.0884283 3.47187 0
M  V30 4565 C 420.438 0.810567 4.20254 0
M  V30 4566 C 419.764 0.00286382 5.347 0
M  V30 4567 C 421.064 2.1132 4.77641 0
M  V30 4568 H 422.758 1.46039 2.61368 0
M  V30 4569 H 420.304 0.703648 1.25638 0
M  V30 4570 H 422.257 -0.393286 4.19561 0
M  V30 4571 H 420.981 -0.997766 3.10986 0
M  V30 4572 H 419.64 1.09925 3.49731 0
M  V30 4573 H 419.288 -0.907765 4.94741 0
M  V30 4574 H 418.988 0.601444 5.84514 0
M  V30 4575 H 420.512 -0.295808 6.09883 0
M  V30 4576 H 421.926 1.87148 5.41893 0
M  V30 4577 H 420.323 2.66164 5.37845 0
M  V30 4578 H 421.393 2.78393 3.9702 0
M  V30 4579 N 422.737 -1.36956 0.779787 0
M  V30 4580 C 423.647 -2.33965 0.172491 0
M  V30 4581 C 424.663 -1.60574 -0.670222 0
M  V30 4582 O 425.839 -1.92617 -0.588263 0
M  V30 4583 C 422.904 -3.39761 -0.690173 0
M  V30 4584 C 421.965 -4.28964 0.169924 0
M  V30 4585 C 421.198 -5.29707 -0.651662 0
M  V30 4586 O 421.421 -5.38238 -1.88827 0
M  V30 4587 O 420.355 -6.01873 -0.0566264 0
M  V30 4588 H 424.181 -2.87647 0.974321 0
M  V30 4589 H 421.766 -1.39258 0.541078 0
M  V30 4590 H 423.648 -4.04471 -1.1824 0
M  V30 4591 H 422.323 -2.88394 -1.47006 0
M  V30 4592 H 421.23 -3.67326 0.708696 0
M  V30 4593 H 422.563 -4.83656 0.913085 0
M  V30 4594 N 424.215 -0.530993 -1.48385 0
M  V30 4595 C 425.162 0.231223 -2.29639 0
M  V30 4596 C 426.132 0.932864 -1.37429 0
M  V30 4597 O 427.317 0.933692 -1.66394 0
M  V30 4598 C 424.457 1.27155 -3.2082 0
M  V30 4599 C 423.57 0.578655 -4.28107 0
M  V30 4600 C 422.705 1.602 -5.06467 0
M  V30 4601 C 421.744 0.892625 -6.05556 0
M  V30 4602 N 420.881 1.86157 -6.76971 0
M  V30 4603 H 425.721 -0.467848 -2.94305 0
M  V30 4604 H 423.258 -0.242556 -1.45086 0
M  V30 4605 H 425.216 1.88703 -3.72085 0
M  V30 4606 H 423.846 1.939 -2.58075 0
M  V30 4607 H 422.898 -0.150782 -3.80101 0
M  V30 4608 H 424.21 0.0217065 -4.98795 0
M  V30 4609 H 423.364 2.29173 -5.61751 0
M  V30 4610 H 422.103 2.19285 -4.35621 0
M  V30 4611 H 421.108 0.188829 -5.49476 0
M  V30 4612 H 422.333 0.307878 -6.78402 0
M  V30 4613 H 420.279 2.44147 -6.08875 0
M  V30 4614 H 420.196 1.35608 -7.43738 0
M  V30 4615 H 421.464 2.54325 -7.36844 0
M  V30 4616 N 425.693 1.55336 -0.266172 0
M  V30 4617 C 426.94 1.99397 0.353158 0
M  V30 4618 C 427.268 1.15451 1.56529 0
M  V30 4619 O 426.523 0.209974 1.9457 0
M  V30 4620 C 426.822 3.48606 0.787957 0
M  V30 4621 C 426.488 4.49773 -0.318541 0
M  V30 4622 C 425.15 4.77158 -0.62239 0
M  V30 4623 C 427.502 5.10212 -1.06459 0
M  V30 4624 C 424.83 5.62251 -1.67602 0
M  V30 4625 C 427.182 5.96449 -2.10788 0
M  V30 4626 C 425.846 6.22158 -2.41817 0
M  V30 4627 H 425.116 0.729644 0.12923 0
M  V30 4628 H 427.763 1.87732 -0.37802 0
M  V30 4629 H 426.068 3.57701 1.59866 0
M  V30 4630 H 427.765 3.80098 1.27775 0
M  V30 4631 H 424.355 4.2854 -0.0715925 0
M  V30 4632 H 428.539 4.89086 -0.843098 0
M  V30 4633 H 423.795 5.80419 -1.92155 0
M  V30 4634 H 427.969 6.42317 -2.69076 0
M  V30 4635 H 425.596 6.87888 -3.23596 0
M  V30 4636 N 427.171 -0.0066808 1.57599 0
M  V30 4637 C 428.448 -0.729586 1.81484 0
M  V30 4638 C 428.828 -1.92359 0.869558 0
M  V30 4639 O 428.176 -2.28348 -0.0832533 0
M  V30 4640 C 428.386 -1.1416 3.29801 0
M  V30 4641 C 429.734 -1.54823 3.95367 0
M  V30 4642 O 430.758 -1.23558 3.34084 0
M  V30 4643 O 429.617 -2.12937 5.03309 0
M  V30 4644 H 426.711 -0.354674 0.747085 0
M  V30 4645 H 429.257 0.0182609 1.6969 0
M  V30 4646 H 428.029 -0.290231 3.90222 0
M  V30 4647 H 427.652 -1.94876 3.46568 0
M  V30 4648 N 428.649 -1.55105 -0.279332 0
M  V30 4649 C 429.898 -1.74618 -1.00952 0
M  V30 4650 C 430.211 -0.551096 -1.87676 0
M  V30 4651 O 431.417 -0.628507 -2.64125 0
M  V30 4652 C 429.873 -3.09025 -1.84476 0
M  V30 4653 C 429.481 -4.36081 -1.0265 0
M  V30 4654 C 431.225 -3.37891 -2.56963 0
M  V30 4655 C 429.132 -5.6153 -1.85576 0
M  V30 4656 H 428.062 -0.650868 -0.38064 0
M  V30 4657 H 430.713 -1.81569 -0.265475 0
M  V30 4658 H 429.095 -2.96095 -2.62952 0
M  V30 4659 H 430.269 -4.59909 -0.286354 0
M  V30 4660 H 428.584 -4.14312 -0.416464 0
M  V30 4661 H 431.181 -4.28822 -3.19399 0
M  V30 4662 H 431.524 -2.57737 -3.26921 0
M  V30 4663 H 432.057 -3.5189 -1.85522 0
M  V30 4664 H 428.796 -6.44413 -1.2005 0
M  V30 4665 H 428.316 -5.41854 -2.57204 0
M  V30 4666 H 429.995 -5.99594 -2.43096 0
M  V30 4667 N 430.127 0.543554 -1.4793 0
M  V30 4668 C 431.074 1.64942 -1.6144 0
M  V30 4669 C 432.044 1.59692 -0.456903 0
M  V30 4670 O 433.229 1.78321 -0.678688 0
M  V30 4671 C 430.369 3.03238 -1.64744 0
M  V30 4672 C 429.482 3.18823 -2.91506 0
M  V30 4673 C 428.617 4.47599 -2.86057 0
M  V30 4674 C 427.656 4.56664 -4.07584 0
M  V30 4675 N 426.793 5.76811 -4.00292 0
M  V30 4676 H 431.633 1.52733 -2.55884 0
M  V30 4677 H 429.17 0.7438 -1.2691 0
M  V30 4678 H 431.128 3.83339 -1.64641 0
M  V30 4679 H 429.758 3.1425 -0.738017 0
M  V30 4680 H 428.81 2.32064 -3.01414 0
M  V30 4681 H 430.122 3.21384 -3.81463 0
M  V30 4682 H 429.276 5.35975 -2.84281 0
M  V30 4683 H 428.015 4.47538 -1.93807 0
M  V30 4684 H 427.02 3.66697 -4.09651 0
M  V30 4685 H 428.245 4.58474 -5.00978 0
M  V30 4686 H 426.191 5.77673 -3.10853 0
M  V30 4687 H 426.108 5.80808 -4.8394 0
M  V30 4688 H 427.376 6.67512 -4.02553 0
M  V30 4689 N 431.605 1.3629 0.791371 0
M  V30 4690 C 432.83 1.33726 1.58531 0
M  V30 4691 C 433.255 -0.0794933 1.87932 0
M  V30 4692 O 432.613 -1.05087 1.47738 0
M  V30 4693 C 432.661 2.16425 2.88431 0
M  V30 4694 O 431.765 1.5554 3.81944 0
M  V30 4695 H 431.106 0.457793 0.480959 0
M  V30 4696 H 433.636 1.79547 0.981031 0
M  V30 4697 H 433.646 2.28933 3.37718 0
M  V30 4698 H 432.321 3.19415 2.66359 0
M  V30 4699 H 430.898 1.51961 3.40532 0
M  V30 4700 N 433.083 -1.0153 1.20538 0
M  V30 4701 C 434.33 -1.75149 1.01633 0
M  V30 4702 C 434.658 -1.89189 -0.451399 0
M  V30 4703 O 433.913 -1.41551 -1.35136 0
M  V30 4704 C 434.212 -3.17213 1.64654 0
M  V30 4705 C 433.878 -3.23146 3.14464 0
M  V30 4706 C 432.54 -3.24472 3.55347 0
M  V30 4707 C 434.892 -3.21207 4.10458 0
M  V30 4708 C 432.22 -3.21532 4.90748 0
M  V30 4709 C 434.572 -3.19808 5.45807 0
M  V30 4710 C 433.236 -3.19439 5.86102 0
M  V30 4711 H 432.506 -0.640914 0.3719 0
M  V30 4712 H 435.153 -1.19071 1.49981 0
M  V30 4713 H 433.458 -3.76457 1.08571 0
M  V30 4714 H 435.155 -3.72871 1.4754 0
M  V30 4715 H 431.745 -3.2285 2.81897 0
M  V30 4716 H 435.929 -3.19351 3.79906 0
M  V30 4717 H 431.185 -3.19578 5.21229 0
M  V30 4718 H 435.359 -3.1726 6.19935 0
M  V30 4719 H 432.986 -3.16915 6.90991 0
M  V30 4720 N 434.561 -1.01147 -1.20859 0
M  V30 4721 C 435.801 -0.706331 -1.91808 0
M  V30 4722 C 436.165 0.749736 -1.76757 0
M  V30 4723 O 437.366 1.16716 -2.42138 0
M  V30 4724 C 435.637 -1.12371 -3.39275 0
M  V30 4725 S 437.196 -0.939764 -4.28619 0
M  V30 4726 H 434.014 -0.257665 -0.662669 0
M  V30 4727 H 436.616 -1.29766 -1.46223 0
M  V30 4728 H 435.32 -2.17943 -3.47749 0
M  V30 4729 H 434.851 -0.524952 -3.89882 0
M  V30 4730 H 436.866 0.159556 -4.95943 0
M  V30 4731 N 436.039 1.36541 -0.78704 0
M  V30 4732 C 436.986 2.30082 -0.181901 0
M  V30 4733 C 437.956 1.5186 0.672896 0
M  V30 4734 O 439.141 1.80374 0.622072 0
M  V30 4735 C 436.281 3.3835 0.679197 0
M  V30 4736 C 435.394 4.31565 -0.193882 0
M  V30 4737 C 434.529 5.26915 0.673364 0
M  V30 4738 C 433.568 6.11769 -0.201315 0
M  V30 4739 N 432.705 6.99315 0.624777 0
M  V30 4740 H 437.545 2.81248 -0.985064 0
M  V30 4741 H 435.082 1.38437 -0.497342 0
M  V30 4742 H 437.04 3.99767 1.19341 0
M  V30 4743 H 435.67 2.8851 1.44781 0
M  V30 4744 H 434.722 3.71323 -0.826044 0
M  V30 4745 H 436.034 4.91191 -0.867937 0
M  V30 4746 H 435.188 5.9361 1.25348 0
M  V30 4747 H 433.927 4.67737 1.38105 0
M  V30 4748 H 432.932 5.44039 -0.793849 0
M  V30 4749 H 434.157 6.73022 -0.906568 0
M  V30 4750 H 432.103 6.42648 1.3168 0
M  V30 4751 H 432.02 7.56 0.00835237 0
M  V30 4752 H 433.288 7.70382 1.18879 0
M  V30 4753 N 437.518 0.538854 1.48102 0
M  V30 4754 C 438.767 0.0059532 2.01699 0
M  V30 4755 C 439.08 -1.34476 1.42041 0
M  V30 4756 O 440.286 -1.96653 1.87189 0
M  V30 4757 C 438.742 -0.0397627 3.59878 0
M  V30 4758 C 438.35 1.30659 4.28523 0
M  V30 4759 C 440.094 -0.521024 4.2129 0
M  V30 4760 C 438.001 1.22098 5.78659 0
M  V30 4761 H 436.931 -0.00154456 0.753998 0
M  V30 4762 H 439.582 0.683963 1.70277 0
M  V30 4763 H 437.964 -0.783037 3.88181 0
M  V30 4764 H 439.138 2.06613 4.11883 0
M  V30 4765 H 437.453 1.7243 3.79021 0
M  V30 4766 H 440.05 -0.603184 5.31287 0
M  V30 4767 H 440.393 -1.52885 3.8721 0
M  V30 4768 H 440.926 0.166834 3.9745 0
M  V30 4769 H 437.665 2.20424 6.17328 0
M  V30 4770 H 437.185 0.50295 5.97688 0
M  V30 4771 H 438.864 0.915345 6.40492 0
M  V30 4772 N 438.996 -1.55193 0.274407 0
M  V30 4773 C 439.926 -2.25471 -0.607032 0
M  V30 4774 C 440.907 -1.24461 -1.15946 0
M  V30 4775 O 442.092 -1.53179 -1.19373 0
M  V30 4776 C 439.222 -2.97526 -1.79153 0
M  V30 4777 C 438.176 -4.05459 -1.37067 0
M  V30 4778 C 437.502 -4.65084 -2.6382 0
M  V30 4779 C 438.802 -5.19691 -0.521389 0
M  V30 4780 H 440.496 -2.99393 -0.0209343 0
M  V30 4781 H 438.042 -1.43997 -0.00862866 0
M  V30 4782 H 439.995 -3.45402 -2.41404 0
M  V30 4783 H 438.719 -2.21138 -2.40344 0
M  V30 4784 H 437.378 -3.58393 -0.771355 0
M  V30 4785 H 437.026 -3.85365 -3.23268 0
M  V30 4786 H 436.726 -5.37961 -2.36372 0
M  V30 4787 H 438.25 -5.15708 -3.26921 0
M  V30 4788 H 439.664 -5.63623 -1.04889 0
M  V30 4789 H 438.061 -5.99126 -0.341825 0
M  V30 4790 H 439.131 -4.82713 0.46 0
M  V30 4791 N 440.474 -0.00167713 -1.576 0
M  V30 4792 C 441.722 0.681471 -1.90264 0
M  V30 4793 C 442.043 1.7422 -0.875924 0
M  V30 4794 O 441.313 1.95709 0.0864412 0
M  V30 4795 H 439.893 0.254696 -0.702239 0
M  V30 4796 H 442.555 -0.0429996 -1.94853 0
M  V30 4797 H 441.651 1.15166 -2.90075 0
M  V30 4798 N 441.952 1.55251 0.271103 0
M  V30 4799 C 443.363 1.66635 0.842007 0
M  V30 4800 C 443.714 0.594631 1.86972 0
M  V30 4801 O 442.839 -0.263532 2.14789 0
M  V30 4802 C 443.434 3.02082 1.53401 0
M  V30 4803 C 441.993 3.15487 2.05293 0
M  V30 4804 C 441.14 2.62438 0.895631 0
M  V30 4805 H 444.091 1.58629 0.0474117 0
M  V30 4806 H 444.112 2.95176 2.40107 0
M  V30 4807 H 443.624 3.80062 0.785786 0
M  V30 4808 H 441.725 2.42284 2.83071 0
M  V30 4809 H 441.838 4.22075 2.26693 0
M  V30 4810 H 440.202 2.19644 1.28953 0
M  V30 4811 H 440.985 3.42923 0.160878 0
M  V30 4812 N 443.43 -0.535701 1.48216 0
M  V30 4813 C 444.36 -1.65014 1.65204 0
M  V30 4814 C 445.341 -1.62554 0.501011 0
M  V30 4815 O 446.526 -1.7984 0.732886 0
M  V30 4816 C 443.656 -3.03616 1.68626 0
M  V30 4817 C 442.61 -3.20932 2.83172 0
M  V30 4818 C 441.936 -4.60537 2.71679 0
M  V30 4819 C 443.236 -3.04249 4.24535 0
M  V30 4820 H 444.93 -1.51053 2.58502 0
M  V30 4821 H 442.476 -0.725262 1.24402 0
M  V30 4822 H 444.429 -3.81446 1.79099 0
M  V30 4823 H 443.153 -3.18587 0.719026 0
M  V30 4824 H 441.812 -2.45517 2.72244 0
M  V30 4825 H 441.46 -4.72336 1.72937 0
M  V30 4826 H 441.16 -4.73069 3.48538 0
M  V30 4827 H 442.684 -5.40475 2.84112 0
M  V30 4828 H 444.098 -3.71877 4.36326 0
M  V30 4829 H 442.495 -3.28278 5.02348 0
M  V30 4830 H 443.565 -2.00739 4.41397 0
M  V30 4831 N 444.908 -1.36708 -0.784132 0
M  V30 4832 C 446.133 -1.34565 -1.5782 0
M  V30 4833 C 446.558 0.0695257 -1.87971 0
M  V30 4834 O 445.916 1.04302 -1.48293 0
M  V30 4835 C 445.964 -2.17952 -2.87279 0
M  V30 4836 O 445.068 -1.57563 -3.81114 0
M  V30 4837 H 444.409 -0.460337 -0.478524 0
M  V30 4838 H 446.939 -1.80064 -0.971495 0
M  V30 4839 H 446.949 -2.30721 -3.365 0
M  V30 4840 H 445.624 -3.20823 -2.64661 0
M  V30 4841 H 444.201 -1.53764 -3.39722 0
M  V30 4842 N 446.386 1.0089 -1.21074 0
M  V30 4843 C 447.616 1.77933 -1.04993 0
M  V30 4844 C 448.024 1.84847 0.403495 0
M  V30 4845 O 447.367 1.30606 1.29181 0
M  V30 4846 C 447.429 3.23541 -1.56722 0
M  V30 4847 C 447.093 3.40214 -3.05129 0
M  V30 4848 C 448.09 3.2881 -4.02716 0
M  V30 4849 C 445.775 3.65781 -3.44252 0
M  V30 4850 C 447.769 3.42732 -5.37414 0
M  V30 4851 C 445.456 3.79346 -4.79103 0
M  V30 4852 C 446.454 3.67827 -5.75493 0
M  V30 4853 O 446.142 3.80965 -7.07899 0
M  V30 4854 H 445.874 0.566157 -0.369381 0
M  V30 4855 H 448.428 1.27826 -1.60779 0
M  V30 4856 H 446.658 3.74766 -0.953285 0
M  V30 4857 H 448.347 3.82245 -1.36543 0
M  V30 4858 H 449.113 3.08986 -3.73835 0
M  V30 4859 H 444.992 3.73831 -2.69762 0
M  V30 4860 H 448.536 3.33658 -6.12632 0
M  V30 4861 H 444.433 3.98672 -5.07672 0
M  V30 4862 H 445.201 3.97937 -7.15254 0
M  V30 4863 N 447.864 1.01787 1.20321 0
M  V30 4864 C 449.089 0.727009 1.9424 0
M  V30 4865 C 449.514 -0.706179 1.74341 0
M  V30 4866 O 448.872 -1.48609 1.03852 0
M  V30 4867 C 448.92 1.06958 3.44372 0
M  V30 4868 O 448.024 0.181983 4.11998 0
M  V30 4869 H 447.365 0.269626 0.606793 0
M  V30 4870 H 449.895 1.36158 1.52716 0
M  V30 4871 H 449.905 1.02182 3.94997 0
M  V30 4872 H 448.58 2.11378 3.58179 0
M  V30 4873 H 447.157 0.287378 3.71791 0
M  V30 4874 N 449.342 -1.36122 0.79427 0
M  V30 4875 C 450.289 -2.29982 0.194101 0
M  V30 4876 C 451.259 -1.52214 -0.664833 0
M  V30 4877 O 452.444 -1.80702 -0.612498 0
M  V30 4878 C 449.584 -3.38706 -0.661244 0
M  V30 4879 C 448.697 -4.31456 0.216766 0
M  V30 4880 C 447.832 -5.27265 -0.645411 0
M  V30 4881 C 446.871 -6.11653 0.233756 0
M  V30 4882 N 446.008 -6.99636 -0.587682 0
M  V30 4883 H 450.848 -2.80722 0.999965 0
M  V30 4884 H 448.385 -1.38172 0.504677 0
M  V30 4885 H 450.343 -4.00394 -1.17219 0
M  V30 4886 H 448.973 -2.89274 -1.43249 0
M  V30 4887 H 448.025 -3.7088 0.845724 0
M  V30 4888 H 449.337 -4.90724 0.893973 0
M  V30 4889 H 448.491 -5.94266 -1.22198 0
M  V30 4890 H 447.23 -4.68463 -1.35623 0
M  V30 4891 H 446.235 -5.4361 0.82269 0
M  V30 4892 H 447.46 -6.72531 0.942247 0
M  V30 4893 H 445.406 -6.43337 -1.2827 0
M  V30 4894 H 445.323 -7.55993 0.0317402 0
M  V30 4895 H 446.591 -7.71001 -1.14792 0
M  V30 4896 N 450.82 -0.546701 -1.47814 0
M  V30 4897 C 452.069 -0.0166497 -2.01693 0
M  V30 4898 C 452.382 1.33721 -1.42752 0
M  V30 4899 O 453.588 1.95658 -1.8823 0
M  V30 4900 C 452.044 0.0206769 -3.59894 0
M  V30 4901 C 451.652 -1.3293 -4.27824 0
M  V30 4902 C 453.396 0.498674 -4.21561 0
M  V30 4903 C 451.303 -1.25165 -5.78003 0
M  V30 4904 H 450.233 -0.0024541 -0.753996 0
M  V30 4905 H 452.884 -0.692984 -1.69912 0
M  V30 4906 H 451.266 0.76244 -3.88591 0
M  V30 4907 H 452.44 -2.08795 -4.10781 0
M  V30 4908 H 450.755 -1.74438 -3.78101 0
M  V30 4909 H 453.352 0.575 -5.31599 0
M  V30 4910 H 453.695 1.5083 -3.88016 0
M  V30 4911 H 454.228 -0.18791 -3.97356 0
M  V30 4912 H 450.967 -2.23695 -6.1615 0
M  V30 4913 H 450.487 -0.53464 -5.97412 0
M  V30 4914 H 452.166 -0.949299 -6.39998 0
M  V30 4915 N 452.299 1.55045 -0.282633 0
M  V30 4916 C 453.246 2.22822 0.601566 0
M  V30 4917 C 454.216 1.20431 1.14392 0
M  V30 4918 O 455.401 1.48996 1.19184 0
M  V30 4919 C 452.541 2.95873 1.77632 0
M  V30 4920 C 451.654 4.12999 1.26711 0
M  V30 4921 C 450.789 4.73676 2.40426 0
M  V30 4922 C 449.828 5.82981 1.86545 0
M  V30 4923 N 448.965 6.3769 2.93762 0
M  V30 4924 H 453.805 2.97995 0.0169528 0
M  V30 4925 H 451.342 1.471 -0.00339964 0
M  V30 4926 H 453.3 3.36447 2.46697 0
M  V30 4927 H 451.93 2.2311 2.33285 0
M  V30 4928 H 450.982 3.77494 0.469314 0
M  V30 4929 H 452.294 4.91803 0.832518 0
M  V30 4930 H 451.448 5.17008 3.17471 0
M  V30 4931 H 450.187 3.94164 2.87203 0
M  V30 4932 H 449.192 5.39092 1.07983 0
M  V30 4933 H 450.417 6.64366 1.40694 0
M  V30 4934 H 448.363 5.61069 3.39908 0
M  V30 4935 H 448.28 7.11788 2.54744 0
M  V30 4936 H 449.548 6.8568 3.7076 0
M  V30 4937 N 453.777 0.010035 1.57597 0
M  V30 4938 C 454.727 -0.986858 2.05536 0
M  V30 4939 C 455.711 -1.29711 0.952042 0
M  V30 4940 O 456.903 -1.28641 1.21575 0
M  V30 4941 C 454.032 -2.2756 2.57043 0
M  V30 4942 C 453.118 -1.99455 3.74271 0
M  V30 4943 N 453.509 -1.41546 4.85591 0
M  V30 4944 C 451.807 -2.29547 3.82393 0
M  V30 4945 C 452.508 -1.3014 5.66956 0
M  V30 4946 N 451.484 -1.79044 5.13268 0
M  V30 4947 H 455.286 -0.533778 2.89012 0
M  V30 4948 H 452.8 -0.195432 1.6122 0
M  V30 4949 H 454.797 -2.99829 2.89669 0
M  V30 4950 H 453.457 -2.73512 1.7499 0
M  V30 4951 H 454.468 -1.09294 5.06236 0
M  V30 4952 H 451.145 -2.78304 3.11213 0
M  V30 4953 H 452.535 -0.855237 6.66435 0
M  V30 4954 N 455.255 -1.55392 -0.262866 0
M  V30 4955 C 456.185 -1.91978 -1.32917 0
M  V30 4956 C 457.166 -0.7828 -1.51017 0
M  V30 4957 O 458.351 -1.04178 -1.63892 0
M  V30 4958 C 455.481 -2.20055 -2.68687 0
M  V30 4959 C 454.435 -3.35854 -2.65304 0
M  V30 4960 C 453.761 -3.49435 -4.04721 0
M  V30 4961 C 455.061 -4.71977 -2.23685 0
M  V30 4962 H 456.755 -2.81292 -1.02544 0
M  V30 4963 H 454.301 -1.3534 -0.491846 0
M  V30 4964 H 456.254 -2.44237 -3.43404 0
M  V30 4965 H 454.978 -1.27551 -3.00663 0
M  V30 4966 H 453.637 -3.11655 -1.93045 0
M  V30 4967 H 453.285 -2.54379 -4.33936 0
M  V30 4968 H 452.985 -4.27297 -4.0335 0
M  V30 4969 H 454.509 -3.7592 -4.81161 0
M  V30 4970 H 455.923 -4.95637 -2.88127 0
M  V30 4971 H 454.32 -5.52828 -2.33456 0
M  V30 4972 H 455.39 -4.70115 -1.18827 0
M  V30 4973 N 456.733 0.527833 -1.48498 0
M  V30 4974 C 458.149 0.856571 -1.34666 0
M  V30 4975 C 458.349 1.98271 -0.35931 0
M  V30 4976 O 457.405 2.51551 0.218703 0
M  V30 4977 C 458.718 1.22207 -2.74747 0
M  V30 4978 C 460.266 1.33183 -2.83251 0
M  V30 4979 C 460.741 1.73075 -4.24039 0
M  V30 4980 N 462.232 1.80174 -4.26722 0
M  V30 4981 C 462.967 2.1243 -5.32598 0
M  V30 4982 N 462.463 2.43096 -6.4875 0
M  V30 4983 N 464.256 2.13454 -5.19994 0
M  V30 4984 H 456.407 -0.215174 -2.11307 0
M  V30 4985 H 458.67 -0.0336281 -0.947403 0
M  V30 4986 H 458.376 0.468195 -3.4857 0
M  V30 4987 H 458.25 2.17173 -3.08409 0
M  V30 4988 H 460.637 2.07647 -2.09683 0
M  V30 4989 H 460.718 0.363333 -2.53206 0
M  V30 4990 H 460.362 0.991712 -4.98124 0
M  V30 4991 H 460.292 2.70979 -4.51529 0
M  V30 4992 H 462.783 1.58744 -3.42942 0
M  V30 4993 H 463.096 2.6682 -7.25277 0
M  V30 4994 H 461.441 2.40611 -6.52021 0
M  V30 4995 H 464.632 1.88956 -4.28268 0
M  V30 4996 H 464.805 2.38261 -6.02608 0
M  V30 4997 N 458.211 1.37122 0.776871 0
M  V30 4998 C 459.141 1.35164 1.90402 0
M  V30 4999 C 460.122 0.221069 1.68657 0
M  V30 5000 O 461.307 0.420642 1.8959 0
M  V30 5001 C 458.437 1.15274 3.27611 0
M  V30 5002 C 457.391 2.25289 3.63908 0
M  V30 5003 C 456.717 1.90527 4.99603 0
M  V30 5004 C 458.017 3.67446 3.71188 0
M  V30 5005 H 459.711 2.29482 1.92297 0
M  V30 5006 H 457.257 1.10465 0.923773 0
M  V30 5007 H 459.21 1.12536 4.06096 0
M  V30 5008 H 457.934 0.174102 3.26136 0
M  V30 5009 H 456.593 2.27174 2.87728 0
M  V30 5010 H 456.241 0.91206 4.94662 0
M  V30 5011 H 455.941 2.64193 5.24858 0
M  V30 5012 H 457.465 1.89367 5.80493 0
M  V30 5013 H 458.879 3.67719 4.39836 0
M  V30 5014 H 457.276 4.40123 4.07936 0
M  V30 5015 H 458.346 4.01443 2.71977 0
M  V30 5016 N 459.689 -1.00246 1.21608 0
M  V30 5017 C 460.966 -1.71336 0.943568 0
M  V30 5018 C 461.346 -2.03972 -0.543943 0
M  V30 5019 O 460.694 -1.71545 -1.50946 0
M  V30 5020 C 460.904 -2.97094 1.83128 0
M  V30 5021 C 462.252 -3.70071 2.08165 0
M  V30 5022 O 463.276 -3.07081 1.80498 0
M  V30 5023 O 462.135 -4.83376 2.54971 0
M  V30 5024 H 459.229 -0.747386 0.354039 0
M  V30 5025 H 461.775 -1.05967 1.32549 0
M  V30 5026 H 460.547 -2.69407 2.83788 0
M  V30 5027 H 460.17 -3.70204 1.45034 0
M  V30 5028 N 461.167 -1.02423 -1.1978 0
M  V30 5029 C 462.415 -0.716569 -1.8897 0
M  V30 5030 C 462.736 0.756769 -1.79716 0
M  V30 5031 O 462.006 1.5449 -1.20456 0
M  V30 5032 H 460.586 -0.262062 -0.699523 0
M  V30 5033 H 463.248 -1.29747 -1.45436 0
M  V30 5034 H 462.344 -1.00675 -2.95417 0
M  V30 5035 N 462.645 1.35699 -0.801477 0
M  V30 5036 C 463.593 2.3177 -0.196317 0
M  V30 5037 C 464.587 1.56388 0.651081 0
M  V30 5038 O 465.793 1.71557 0.544815 0
M  V30 5039 H 462.168 0.750669 -0.0447189 0
M  V30 5040 H 464.139 2.8036 -1.02181 0
M  V30 5041 C 462.888 3.41671 0.644702 0
M  V30 5042 H 462.211 3.998 0.0019921 0
M  V30 5043 H 463.651 4.11184 1.0346 0
M  V30 5044 C 462.11 2.84271 1.80808 0
M  V30 5045 O 462.64 2.77408 2.9053 0
M  V30 5046 N 460.846 2.41391 1.61799 0
M  V30 5047 H 460.393 2.47173 0.725493 0
M  V30 5048 H 460.351 2.03334 2.39797 0
M  V30 5049 N 464.123 0.554532 1.47522 0
M  V30 5050 C 465.539 0.214107 1.58157 0
M  V30 5051 C 465.739 -1.28331 1.55349 0
M  V30 5052 O 464.795 -2.06329 1.45549 0
M  V30 5053 C 466.108 0.838391 2.88776 0
M  V30 5054 C 467.656 0.809374 3.02354 0
M  V30 5055 C 468.131 1.41268 4.35669 0
M  V30 5056 N 469.622 1.37574 4.42298 0
M  V30 5057 C 470.357 1.8122 5.4401 0
M  V30 5058 N 469.853 2.3271 6.52547 0
M  V30 5059 N 471.646 1.72307 5.35039 0
M  V30 5060 H 463.797 1.52744 1.4759 0
M  V30 5061 H 466.06 0.636812 0.702264 0
M  V30 5062 H 465.766 1.89065 2.96559 0
M  V30 5063 H 465.64 0.329847 3.75755 0
M  V30 5064 H 468.027 -0.234187 2.94169 0
M  V30 5065 H 468.108 1.35565 2.16924 0
M  V30 5066 H 467.752 2.45529 4.4461 0
M  V30 5067 H 467.682 0.841871 5.19827 0
M  V30 5068 H 470.173 0.999081 3.64454 0
M  V30 5069 H 470.486 2.63944 7.26329 0
M  V30 5070 H 468.831 2.36719 6.53444 0
M  V30 5071 H 472.022 1.3186 4.49144 0
M  V30 5072 H 472.195 2.06641 6.14169 0
M  V30 5073 N 465.601 -1.54893 0.290851 0
M  V30 5074 C 466.85 -1.99111 -0.322113 0
M  V30 5075 C 467.163 -1.18283 -1.55784 0
M  V30 5076 O 468.369 -1.5272 -2.24475 0
M  V30 5077 C 466.825 -3.54442 -0.624438 0
M  V30 5078 C 466.433 -4.44066 0.592373 0
M  V30 5079 C 468.177 -4.07211 -1.19916 0
M  V30 5080 C 466.084 -5.90812 0.263762 0
M  V30 5081 H 465.014 -0.743712 -0.124133 0
M  V30 5082 H 467.665 -1.79132 0.39797 0
M  V30 5083 H 466.047 -3.70281 -1.40384 0
M  V30 5084 H 467.221 -4.39999 1.36886 0
M  V30 5085 H 465.536 -4.02015 1.08502 0
M  V30 5086 H 468.133 -5.14407 -1.45909 0
M  V30 5087 H 468.476 -3.57196 -2.13815 0
M  V30 5088 H 469.009 -3.94873 -0.481687 0
M  V30 5089 H 465.748 -6.44955 1.17105 0
M  V30 5090 H 465.268 -5.97911 -0.475655 0
M  V30 5091 H 466.947 -6.46852 -0.138354 0
M  V30 5092 N 467.08 -0.0183926 -1.57589 0
M  V30 5093 C 468.305 0.676634 -1.96052 0
M  V30 5094 C 468.73 1.6548 -0.894307 0
M  V30 5095 O 468.088 1.80712 0.145849 0
M  V30 5096 C 468.136 1.36872 -3.33614 0
M  V30 5097 O 467.24 2.48372 -3.29219 0
M  V30 5098 H 466.581 0.1786 -0.63953 0
M  V30 5099 H 469.111 -0.077056 -2.04455 0
M  V30 5100 H 469.121 1.72797 -3.69601 0
M  V30 5101 H 467.796 0.651636 -4.10763 0
M  V30 5102 H 466.373 2.14639 -3.04934 0
M  V30 5103 N 468.558 1.5553 0.254621 0
M  V30 5104 C 469.468 1.92789 1.33677 0
M  V30 5105 C 470.484 0.827356 1.53071 0
M  V30 5106 O 471.66 1.12807 1.66843 0
M  V30 5107 C 468.725 2.20827 2.67275 0
M  V30 5108 C 467.786 3.4427 2.5647 0
M  V30 5109 C 467.019 3.70961 3.83697 0
M  V30 5110 O 467.242 2.99852 4.85227 0
M  V30 5111 O 466.176 4.64491 3.82794 0
M  V30 5112 H 470.002 2.84945 1.05071 0
M  V30 5113 H 467.587 1.42312 0.454723 0
M  V30 5114 H 469.469 2.40204 3.46237 0
M  V30 5115 H 468.144 1.31851 2.9563 0
M  V30 5116 H 467.051 3.30209 1.75821 0
M  V30 5117 H 468.384 4.33524 2.33062 0
M  V30 5118 N 470.036 -0.519951 1.48776 0
M  V30 5119 C 471.264 -1.29971 1.60982 0
M  V30 5120 C 471.679 -1.86803 0.273885 0
M  V30 5121 O 471.036 -1.66904 -0.738193 0
M  V30 5122 C 471.087 -2.44346 2.66415 0
M  V30 5123 O 470.808 -1.89855 3.94825 0
M  V30 5124 C 472.309 -3.36014 2.89153 0
M  V30 5125 H 469.529 -0.394891 0.542496 0
M  V30 5126 H 472.073 -0.626214 1.94676 0
M  V30 5127 H 470.228 -3.07562 2.35552 0
M  V30 5128 H 470.642 -2.64798 4.5275 0
M  V30 5129 H 472.116 -4.12593 3.66703 0
M  V30 5130 H 472.593 -3.91859 1.98351 0
M  V30 5131 H 473.199 -2.78582 3.21359 0
M  V30 5132 N 471.514 -1.37532 -0.769588 0
M  V30 5133 C 472.739 -1.36231 -1.56384 0
M  V30 5134 C 473.164 0.0495849 -1.88035 0
M  V30 5135 O 472.522 1.02723 -1.49391 0
M  V30 5136 C 472.57 -2.20986 -2.84952 0
M  V30 5137 O 471.674 -1.61597 -3.79421 0
M  V30 5138 H 471.015 -0.465387 -0.473615 0
M  V30 5139 H 473.545 -1.81085 -0.952342 0
M  V30 5140 H 473.555 -2.34277 -3.34034 0
M  V30 5141 H 472.23 -3.23612 -2.61243 0
M  V30 5142 H 470.807 -1.57359 -3.38072 0
M  V30 5143 N 472.992 0.995999 -1.22138 0
M  V30 5144 C 473.922 2.10387 -1.01289 0
M  V30 5145 C 474.903 1.69975 0.0651454 0
M  V30 5146 O 476.088 1.9396 -0.0964628 0
M  V30 5147 C 473.218 3.42312 -0.586517 0
M  V30 5148 C 472.172 3.96558 -1.61014 0
M  V30 5149 C 471.498 5.24494 -1.0397 0
M  V30 5150 C 472.798 4.27595 -2.99933 0
M  V30 5151 H 474.492 2.28086 -1.93951 0
M  V30 5152 H 472.038 1.09607 -0.933928 0
M  V30 5153 H 473.991 4.19223 -0.427793 0
M  V30 5154 H 472.715 3.24431 0.375761 0
M  V30 5155 H 471.374 3.21776 -1.75658 0
M  V30 5156 H 471.022 5.02953 -0.0688703 0
M  V30 5157 H 470.722 5.61755 -1.72352 0
M  V30 5158 H 472.246 6.04042 -0.892494 0
M  V30 5159 H 473.66 4.95315 -2.8868 0
M  V30 5160 H 472.057 4.76021 -3.6541 0
M  V30 5161 H 473.127 3.35498 -3.50099 0
M  V30 5162 N 474.47 1.03057 1.19235 0
M  V30 5163 C 475.881 0.757449 1.70645 0
M  V30 5164 C 476.232 -0.722735 1.82403 0
M  V30 5165 O 475.357 -1.56325 1.49638 0
M  V30 5166 C 475.952 1.36833 3.09939 0
M  V30 5167 C 474.511 1.14375 3.58602 0
M  V30 5168 C 473.658 1.46533 2.35422 0
M  V30 5169 H 476.609 1.19828 1.04052 0
M  V30 5170 H 476.63 0.766184 3.72706 0
M  V30 5171 H 476.142 2.44562 3.01349 0
M  V30 5172 H 474.243 0.0847542 3.72504 0
M  V30 5173 H 474.356 1.83366 4.42622 0
M  V30 5174 H 472.72 0.884712 2.38841 0
M  V30 5175 H 473.503 2.55349 2.2946 0
M  V30 5176 N 475.948 -1.35272 0.808662 0
M  V30 5177 C 477.359 -1.81179 0.450688 0
M  V30 5178 C 477.71 -1.67143 -1.02751 0
M  V30 5179 O 476.835 -1.20325 -1.79864 0
M  V30 5180 C 477.43 -3.28943 0.811275 0
M  V30 5181 C 475.989 -3.72985 0.505871 0
M  V30 5182 C 475.136 -2.57229 1.03578 0
M  V30 5183 H 478.087 -1.2322 1.00012 0
M  V30 5184 H 478.108 -3.80342 0.109588 0
M  V30 5185 H 477.62 -3.39127 1.88718 0
M  V30 5186 H 475.721 -3.68349 -0.561209 0
M  V30 5187 H 475.834 -4.67677 1.03995 0
M  V30 5188 H 474.198 -2.50548 0.458005 0
M  V30 5189 H 474.981 -2.7019 2.11784 0
M  V30 5190 N 477.426 -0.562348 -1.47226 0
M  V30 5191 C 478.703 0.0256985 -1.95583 0
M  V30 5192 C 479.083 1.48032 -1.50498 0
M  V30 5193 O 478.431 2.15973 -0.746181 0
M  V30 5194 C 478.641 -0.125129 -3.48776 0
M  V30 5195 C 479.989 0.0175728 -4.24596 0
M  V30 5196 O 481.013 -0.0529341 -3.56161 0
M  V30 5197 O 479.872 0.170145 -5.46235 0
M  V30 5198 H 476.966 0.0612565 -0.824728 0
M  V30 5199 H 479.512 -0.629233 -1.57603 0
M  V30 5200 H 478.284 -1.13715 -3.74412 0
M  V30 5201 H 477.907 0.567178 -3.93534 0
M  V30 5202 N 478.904 1.54736 -0.299062 0
M  V30 5203 C 479.837 2.1962 0.619851 0
M  V30 5204 C 480.815 1.16496 1.13434 0
M  V30 5205 O 481.999 1.4513 1.2029 0
M  V30 5206 C 479.126 2.8385 1.84788 0
M  V30 5207 C 478.172 4.00484 1.46679 0
M  V30 5208 S 479.005 5.32926 0.524389 0
M  V30 5209 C 480.161 6.00638 1.76026 0
M  V30 5210 H 480.394 2.97221 0.0686177 0
M  V30 5211 H 477.927 1.54176 -0.0832085 0
M  V30 5212 H 479.885 3.21483 2.55263 0
M  V30 5213 H 478.546 2.06099 2.37028 0
M  V30 5214 H 477.739 4.44201 2.38121 0
M  V30 5215 H 477.341 3.64398 0.842008 0
M  V30 5216 H 479.633 6.21327 2.70109 0
M  V30 5217 H 480.576 6.94805 1.36569 0
M  V30 5218 H 480.984 5.3026 1.93609 0
M  V30 5219 N 480.382 0.0267497 1.57577 0
M  V30 5220 C 481.612 -0.6617 1.95717 0
M  V30 5221 C 482.02 -1.66331 0.901706 0
M  V30 5222 O 481.363 -1.83273 -0.125241 0
M  V30 5223 C 481.425 -1.42649 3.29987 0
M  V30 5224 C 481.089 -0.583482 4.5326 0
M  V30 5225 C 482.086 0.140221 5.19711 0
M  V30 5226 C 479.771 -0.521581 4.99585 0
M  V30 5227 C 481.765 0.914523 6.30805 0
M  V30 5228 C 479.452 0.256428 6.10562 0
M  V30 5229 C 480.45 0.973189 6.76031 0
M  V30 5230 O 480.138 1.73845 7.84878 0
M  V30 5231 H 479.87 -0.187483 0.649481 0
M  V30 5232 H 482.424 0.0820847 2.05236 0
M  V30 5233 H 480.654 -2.21536 3.16952 0
M  V30 5234 H 482.343 -2.00282 3.53047 0
M  V30 5235 H 483.109 0.101716 4.84893 0
M  V30 5236 H 478.988 -1.06904 4.48433 0
M  V30 5237 H 482.532 1.4745 6.81839 0
M  V30 5238 H 478.429 0.296657 6.44818 0
M  V30 5239 H 479.197 1.65797 8.01532 0
M  V30 5240 N 481.861 -1.55662 -0.24637 0
M  V30 5241 C 482.771 -1.93495 -1.32653 0
M  V30 5242 C 483.787 -0.835462 -1.5263 0
M  V30 5243 O 484.963 -1.1369 -1.66242 0
M  V30 5244 C 482.028 -2.22242 -2.66101 0
M  V30 5245 C 481.089 -3.45625 -2.54641 0
M  V30 5246 C 480.322 -3.72991 -3.81724 0
M  V30 5247 O 480.545 -3.02421 -4.8363 0
M  V30 5248 O 479.479 -4.66515 -3.80325 0
M  V30 5249 H 483.305 -2.85498 -1.03559 0
M  V30 5250 H 480.89 -1.42551 -0.44717 0
M  V30 5251 H 482.772 -2.42037 -3.44958 0
M  V30 5252 H 481.447 -1.33417 -2.94926 0
M  V30 5253 H 480.354 -3.31136 -1.74067 0
M  V30 5254 H 481.687 -4.34754 -2.3076 0
M  V30 5255 N 483.339 0.512053 -1.4905 0
M  V30 5256 C 484.579 1.27715 -1.59588 0
M  V30 5257 C 484.943 1.90071 -0.271502 0
M  V30 5258 O 486.144 2.67616 -0.251987 0
M  V30 5259 C 484.415 2.32399 -2.71524 0
M  V30 5260 S 485.974 3.18396 -3.01943 0
M  V30 5261 H 482.792 0.43419 -0.563027 0
M  V30 5262 H 485.394 0.581315 -1.86657 0
M  V30 5263 H 484.098 1.85101 -3.66287 0
M  V30 5264 H 483.629 3.06667 -2.46412 0
M  V30 5265 H 485.644 4.32842 -2.42616 0
M  V30 5266 N 484.817 1.37938 0.762283 0
M  V30 5267 C 485.747 1.37176 1.88958 0
M  V30 5268 C 486.728 0.238945 1.68413 0
M  V30 5269 O 487.913 0.440726 1.89133 0
M  V30 5270 C 485.043 1.18742 3.2637 0
M  V30 5271 C 483.997 2.29136 3.61498 0
M  V30 5272 C 483.323 1.95816 4.97554 0
M  V30 5273 C 484.623 3.71363 3.6727 0
M  V30 5274 H 486.317 2.31509 1.89853 0
M  V30 5275 H 483.863 1.11438 0.912005 0
M  V30 5276 H 485.816 1.16837 4.04879 0
M  V30 5277 H 484.54 0.208683 3.25933 0
M  V30 5278 H 483.199 2.30213 2.85303 0
M  V30 5279 H 482.847 0.964475 4.93667 0
M  V30 5280 H 482.547 2.69745 5.22026 0
M  V30 5281 H 484.071 1.95513 5.78452 0
M  V30 5282 H 485.485 3.72364 4.35911 0
M  V30 5283 H 483.882 4.44425 4.03245 0
M  V30 5284 H 484.952 4.04305 2.67704 0
M  V30 5285 N 486.295 -0.989507 1.22664 0
M  V30 5286 C 487.711 -1.25395 0.987331 0
M  V30 5287 C 487.911 -1.9899 -0.317056 0
M  V30 5288 O 486.967 -2.30141 -1.03882 0
M  V30 5289 C 488.28 -2.06242 2.18826 0
M  V30 5290 C 489.828 -2.19413 2.23219 0
M  V30 5291 C 490.303 -3.03648 3.42873 0
M  V30 5292 N 491.794 -3.11234 3.43056 0
M  V30 5293 C 492.529 -3.7671 4.32293 0
M  V30 5294 N 492.025 -4.44085 5.31752 0
M  V30 5295 N 493.818 -3.73505 4.2006 0
M  V30 5296 H 485.969 -0.496212 2.06522 0
M  V30 5297 H 488.232 -0.281784 0.905153 0
M  V30 5298 H 487.938 -1.59531 3.13437 0
M  V30 5299 H 487.812 -3.06996 2.19165 0
M  V30 5300 H 490.199 -2.65336 1.29154 0
M  V30 5301 H 490.28 -1.18078 2.26917 0
M  V30 5302 H 489.924 -2.58424 4.37241 0
M  V30 5303 H 489.854 -4.05132 3.36416 0
M  V30 5304 H 492.345 -2.63287 2.71088 0
M  V30 5305 H 492.658 -4.91797 5.96117 0
M  V30 5306 H 491.003 -4.42822 5.35662 0
M  V30 5307 H 494.194 -3.20033 3.41609 0
M  V30 5308 H 494.367 -4.24253 4.8981 0
M  V30 5309 N 487.773 -1.03688 -1.18687 0
M  V30 5310 C 489.019 -0.739123 -1.88851 0
M  V30 5311 C 489.352 0.731042 -1.79915 0
M  V30 5312 O 488.627 1.53313 -1.19688 0
M  V30 5313 C 488.91 -1.20106 -3.3948 0
M  V30 5314 C 488.763 -2.73304 -3.57246 0
M  V30 5315 C 490.082 -0.788134 -4.32986 0
M  V30 5316 H 487.201 -0.269978 -0.68577 0
M  V30 5317 H 489.843 -1.28822 -1.3966 0
M  V30 5318 H 487.993 -0.733915 -3.81505 0
M  V30 5319 H 489.665 -3.28027 -3.24339 0
M  V30 5320 H 487.908 -3.13313 -3.00029 0
M  V30 5321 H 488.579 -3.00684 -4.62918 0
M  V30 5322 H 491.055 -1.19005 -3.98719 0
M  V30 5323 H 489.931 -1.13915 -5.36949 0
M  V30 5324 H 490.192 0.308988 -4.41019 0
M  V30 5325 N 489.251 1.34841 -0.815825 0
M  V30 5326 C 490.214 2.27959 -0.238185 0
M  V30 5327 C 491.214 1.49983 0.579816 0
M  V30 5328 O 492.404 1.69617 0.396953 0
M  V30 5329 C 489.536 3.34314 0.666876 0
M  V30 5330 H 490.729 2.80558 -1.05958 0
M  V30 5331 H 488.282 1.44852 -0.587156 0
M  V30 5332 H 489.017 2.86916 1.5116 0
M  V30 5333 H 488.802 3.92014 0.0819106 0
M  V30 5334 H 490.292 4.0379 1.06506 0
M  V30 5335 N 490.729 0.570148 1.46925 0
M  V30 5336 C 491.677 -0.183181 2.31878 0
M  V30 5337 C 492.671 -0.896721 1.43719 0
M  V30 5338 O 493.877 -0.816536 1.60414 0
M  V30 5339 H 490.252 -0.077944 0.74795 0
M  V30 5340 H 492.223 0.552312 2.93244 0
M  V30 5341 C 490.972 -1.19172 3.2664 0
M  V30 5342 H 490.295 -0.652088 3.94446 0
M  V30 5343 H 491.735 -1.68946 3.88887 0
M  V30 5344 C 490.194 -2.24627 2.51086 0
M  V30 5345 O 490.724 -3.31773 2.26472 0
M  V30 5346 N 488.93 -1.98898 2.11867 0
M  V30 5347 H 488.477 -1.11777 2.32086 0
M  V30 5348 H 488.435 -2.6967 1.61634 0
M  V30 5349 N 492.207 -1.54576 0.307264 0
M  V30 5350 C 493.117 -2.27435 -0.57536 0
M  V30 5351 C 494.133 -1.31183 -1.14311 0
M  V30 5352 O 495.309 -1.64175 -1.16656 0
M  V30 5353 C 492.374 -3.00566 -1.72803 0
M  V30 5354 C 491.435 -4.12369 -1.19373 0
M  V30 5355 C 490.668 -4.82003 -2.29147 0
M  V30 5356 O 490.891 -4.51038 -3.49171 0
M  V30 5357 O 489.825 -5.69271 -1.95485 0
M  V30 5358 H 493.651 -3.03696 0.0158558 0
M  V30 5359 H 491.236 -1.49219 0.0735064 0
M  V30 5360 H 493.118 -3.46416 -2.39946 0
M  V30 5361 H 491.793 -2.27195 -2.30574 0
M  V30 5362 H 490.7 -3.70905 -0.487851 0
M  V30 5363 H 492.033 -4.87736 -0.661376 0
M  V30 5364 N 493.685 -0.035106 -1.57561 0
M  V30 5365 C 494.931 0.64318 -1.92331 0
M  V30 5366 C 495.264 1.71434 -0.912368 0
M  V30 5367 O 494.539 1.94395 0.0640303 0
M  V30 5368 C 494.822 1.25411 -3.37556 0
M  V30 5369 C 494.675 0.192109 -4.4939 0
M  V30 5370 C 495.994 2.17041 -3.82859 0
M  V30 5371 H 493.113 0.232341 -0.699419 0
M  V30 5372 H 495.755 -0.0935889 -1.89769 0
M  V30 5373 H 493.905 1.88205 -3.39869 0
M  V30 5374 H 495.577 -0.438849 -4.59208 0
M  V30 5375 H 493.82 -0.481725 -4.31117 0
M  V30 5376 H 494.491 0.659292 -5.48049 0
M  V30 5377 H 496.967 1.64228 -3.8232 0
M  V30 5378 H 495.843 2.56738 -4.85157 0
M  V30 5379 H 496.104 3.06401 -3.18702 0
M  V30 5380 N 495.163 1.55791 0.238111 0
M  V30 5381 C 496.391 1.82098 0.982233 0
M  V30 5382 C 496.806 0.612025 1.78605 0
M  V30 5383 O 496.163 -0.419381 1.77616 0
M  V30 5384 C 496.214 3.0673 1.91309 0
M  V30 5385 O 495.935 4.2296 1.14179 0
M  V30 5386 C 497.436 3.45903 2.77248 0
M  V30 5387 H 494.656 0.605748 0.288635 0
M  V30 5388 H 497.2 2.02862 0.258341 0
M  V30 5389 H 495.355 2.87991 2.59114 0
M  V30 5390 H 495.769 4.93653 1.7722 0
M  V30 5391 H 497.243 4.36189 3.38295 0
M  V30 5392 H 497.72 2.66891 3.48806 0
M  V30 5393 H 498.326 3.67024 2.14881 0
M  V30 5394 N 496.642 -0.504142 1.49319 0
M  V30 5395 C 497.572 -1.61473 1.68667 0
M  V30 5396 C 498.553 -1.61455 0.535378 0
M  V30 5397 O 499.738 -1.78245 0.770868 0
M  V30 5398 C 496.868 -2.99971 1.75028 0
M  V30 5399 C 495.822 -3.14854 2.89916 0
M  V30 5400 C 495.148 -4.54671 2.81387 0
M  V30 5401 C 496.448 -2.95176 4.30893 0
M  V30 5402 H 498.142 -1.45535 2.61648 0
M  V30 5403 H 495.688 -0.698711 1.25913 0
M  V30 5404 H 497.641 -3.77562 1.8715 0
M  V30 5405 H 496.365 -3.1699 0.786441 0
M  V30 5406 H 495.024 -2.39687 2.77391 0
M  V30 5407 H 494.672 -4.68562 1.82917 0
M  V30 5408 H 494.372 -4.6557 3.58494 0
M  V30 5409 H 495.896 -5.34327 2.95512 0
M  V30 5410 H 497.31 -3.62538 4.44116 0
M  V30 5411 H 495.707 -3.17549 5.09198 0
M  V30 5412 H 496.777 -1.91332 4.45556 0
M  V30 5413 N 498.12 -1.38341 -0.754957 0
M  V30 5414 C 499.068 -1.35573 -1.89005 0
M  V30 5415 C 500.062 -0.241824 -1.67665 0
M  V30 5416 O 501.268 -0.410785 -1.7525 0
M  V30 5417 H 497.643 -0.422898 -0.621821 0
M  V30 5418 H 499.614 -2.31359 -1.88455 0
M  V30 5419 C 498.363 -1.19631 -3.26471 0
M  V30 5420 H 497.686 -2.04605 -3.43477 0
M  V30 5421 H 499.126 -1.21748 -4.06144 0
M  V30 5422 C 497.585 0.0968705 -3.36761 0
M  V30 5423 O 498.115 1.07439 -3.87066 0
M  V30 5424 N 496.321 0.153242 -2.90196 0
M  V30 5425 H 495.868 -0.642908 -2.49448 0
M  V30 5426 H 495.826 1.01807 -2.9746 0
M  V30 5427 O 499.637 0.895511 -1.34398 0
M  V30 5428 H 500.328 1.53136 -1.18614 0
M  V30 END ATOM
M  V30 BEGIN BOND
M  V30 END BOND
M  V30 END CTAB
M  END
$$$$
