drugbank_target|P51852 Indole-3-pyruvate decarboxylase (DB03884; DB08050)
 OpenBabel12092120473D

  0  0  0     0  0            999 V3000
M  V30 BEGIN CTAB
M  V30 COUNTS 8160 8240 0 0 0
M  V30 BEGIN ATOM
M  V30 1 H -0.908 1.98254 -0.117106 0
M  V30 2 N 0 1.576 0 0
M  V30 3 C 0.933 2.03868 1.02534 0
M  V30 4 C 1.911 0.928543 1.3348 0
M  V30 5 O 3.095 1.19667 1.45644 0
M  V30 6 C 0.222 2.43627 2.35294 0
M  V30 7 C -0.732 3.65373 2.2001 0
M  V30 8 S 0.101 5.13292 1.52614 0
M  V30 9 C 1.257 5.56322 2.86805 0
M  V30 10 H 1.49 2.90518 0.631377 0
M  V30 11 H -0.977 1.52953 0.210867 0
M  V30 12 H 0.981 2.67203 3.11629 0
M  V30 13 H -0.358 1.57376 2.7183 0
M  V30 14 H -1.165 3.90944 3.18086 0
M  V30 15 H -1.563 3.418 1.51819 0
M  V30 16 H 0.729 5.58782 3.83104 0
M  V30 17 H 1.672 6.56266 2.65933 0
M  V30 18 H 2.08 4.83886 2.90714 0
M  V30 19 N 1.4781 -0.272755 1.55222 0
M  V30 20 C 2.4251 -1.33716 1.88119 0
M  V30 21 C 3.3951 -1.49066 0.73271 0
M  V30 22 O 4.5801 -1.63469 0.984002 0
M  V30 23 C 1.7201 -2.69238 2.15882 0
M  V30 24 C 0.8331 -2.62108 3.43399 0
M  V30 25 C -0.0319 -3.89811 3.60861 0
M  V30 26 C -0.9929 -3.77193 4.8207 0
M  V30 27 N -1.8559 -4.9673 4.96189 0
M  V30 28 H 2.9841 -1.04962 2.78903 0
M  V30 29 H 0.5211 -0.507088 1.38083 0
M  V30 30 H 2.4791 -3.48089 2.29978 0
M  V30 31 H 1.1091 -2.96194 1.28331 0
M  V30 32 H 0.1611 -1.74967 3.37773 0
M  V30 33 H 1.4731 -2.48685 4.32386 0
M  V30 34 H 0.6271 -4.77103 3.74777 0
M  V30 35 H -0.6339 -4.06102 2.7006 0
M  V30 36 H -1.6289 -2.88284 4.68159 0
M  V30 37 H -0.4039 -3.62421 5.74307 0
M  V30 38 H -2.4579 -5.13431 4.08319 0
M  V30 39 H -2.5409 -4.85839 5.79221 0
M  V30 40 H -1.2729 -5.85594 5.1449 0
M  V30 41 N 2.9562 -1.48159 -0.537278 0
M  V30 42 C 3.8862 -1.65029 -1.6519 0
M  V30 43 C 4.8672 -0.499281 -1.62607 0
M  V30 44 O 6.0522 -0.730972 -1.79918 0
M  V30 45 C 3.1822 -1.68303 -3.03795 0
M  V30 46 C 2.1362 -2.8283 -3.21234 0
M  V30 47 C 1.4622 -2.71189 -4.60826 0
M  V30 48 C 2.7622 -4.24211 -3.04701 0
M  V30 49 H 4.4562 -2.58341 -1.51328 0
M  V30 50 H 2.0022 -1.24325 -0.726585 0
M  V30 51 H 3.9552 -1.78693 -3.81637 0
M  V30 52 H 2.6792 -0.715635 -3.18663 0
M  V30 53 H 1.3382 -2.71983 -2.45807 0
M  V30 54 H 0.9862 -1.72435 -4.7252 0
M  V30 55 H 0.6862 -3.48035 -4.7344 0
M  V30 56 H 2.2102 -2.83537 -5.40777 0
M  V30 57 H 3.6242 -4.3593 -3.72341 0
M  V30 58 H 2.0212 -5.01998 -3.28813 0
M  V30 59 H 3.0912 -4.41184 -2.01209 0
M  V30 60 N 4.4343 0.785586 -1.36625 0
M  V30 61 C 5.3973 1.87999 -1.31107 0
M  V30 62 C 6.3973 1.59316 -0.217959 0
M  V30 63 O 7.5873 1.67656 -0.472977 0
M  V30 64 C 4.7193 3.24861 -1.03334 0
M  V30 65 H 5.9123 1.94307 -2.2844 0
M  V30 66 H 3.4653 0.983813 -1.21453 0
M  V30 67 H 4.2003 3.24235 -0.0647432 0
M  V30 68 H 3.9853 3.4707 -1.82441 0
M  V30 69 H 5.4753 4.04929 -1.02088 0
M  V30 70 N 5.9124 1.20967 1.01018 0
M  V30 71 C 6.8224 0.980157 2.13143 0
M  V30 72 C 7.8384 -0.0660665 1.73875 0
M  V30 73 O 9.0144 0.122821 2.01025 0
M  V30 74 C 6.0794 0.54216 3.42435 0
M  V30 75 C 5.1404 1.65999 3.95908 0
M  V30 76 C 4.3734 1.2428 5.19028 0
M  V30 77 O 4.5964 0.114196 5.70286 0
M  V30 78 O 3.5304 2.05271 5.65816 0
M  V30 79 H 7.3564 1.91913 2.35379 0
M  V30 80 H 4.9414 0.994099 1.11526 0
M  V30 81 H 6.8234 0.30744 4.20277 0
M  V30 82 H 5.4984 -0.36815 3.216 0
M  V30 83 H 4.4054 1.94906 3.19316 0
M  V30 84 H 5.7384 2.54753 4.21143 0
M  V30 85 N 7.3905 -1.2043 1.01659 0
M  V30 86 C 8.3535 -2.21433 0.591616 0
M  V30 87 C 9.3535 -1.57203 -0.338226 0
M  V30 88 O 10.5435 -1.73737 -0.126918 0
M  V30 89 C 7.6755 -3.40628 -0.136058 0
M  V30 90 H 8.8685 -2.60545 1.48514 0
M  V30 91 H 6.4215 -1.33893 0.806379 0
M  V30 92 H 7.1565 -3.07019 -1.04449 0
M  V30 93 H 6.9415 -3.88475 0.531917 0
M  V30 94 H 8.4315 -4.15475 -0.420735 0
M  V30 95 N 8.8686 -0.792821 -1.36206 0
M  V30 96 C 9.7986 -0.207853 -2.32573 0
M  V30 97 C 10.7796 0.659055 -1.56813 0
M  V30 98 O 11.9646 0.592176 -1.84951 0
M  V30 99 C 9.0946 0.655449 -3.41059 0
M  V30 100 C 8.0486 -0.111842 -4.27854 0
M  V30 101 C 7.3746 0.872274 -5.27537 0
M  V30 102 C 8.6746 -1.30299 -5.05786 0
M  V30 103 H 10.3686 -1.01294 -2.81744 0
M  V30 104 H 7.9146 -0.48854 -1.3546 0
M  V30 105 H 9.8676 1.07464 -4.07467 0
M  V30 106 H 8.5916 1.49328 -2.90463 0
M  V30 107 H 7.2506 -0.512053 -3.63006 0
M  V30 108 H 6.8986 1.70523 -4.73214 0
M  V30 109 H 6.5986 0.363291 -5.86476 0
M  V30 110 H 8.1226 1.28996 -5.96818 0
M  V30 111 H 9.5366 -0.959379 -5.65216 0
M  V30 112 H 7.9336 -1.7455 -5.74154 0
M  V30 113 H 9.0036 -2.09663 -4.37229 0
M  V30 114 N 10.3467 1.47872 -0.545128 0
M  V30 115 C 11.2767 2.32661 0.197793 0
M  V30 116 C 12.2577 1.43041 0.920504 0
M  V30 117 O 13.4427 1.71912 0.90333 0
M  V30 118 C 10.5727 3.24569 1.23582 0
M  V30 119 C 9.5267 4.23333 0.630323 0
M  V30 120 C 8.8527 5.0448 1.77211 0
M  V30 121 C 10.1527 5.20704 -0.407974 0
M  V30 122 H 11.8467 2.95024 -0.510045 0
M  V30 123 H 9.3927 1.4187 -0.246731 0
M  V30 124 H 11.3457 3.8272 1.76362 0
M  V30 125 H 10.0697 2.60236 1.97344 0
M  V30 126 H 8.7287 3.6639 0.123922 0
M  V30 127 H 8.3767 4.36561 2.49847 0
M  V30 128 H 8.0767 5.71339 1.37281 0
M  V30 129 H 9.6007 5.65487 2.3034 0
M  V30 130 H 11.0147 5.7329 0.033305 0
M  V30 131 H 9.4117 5.95699 -0.725486 0
M  V30 132 H 10.4817 4.66917 -1.30828 0
M  V30 133 N 11.8248 0.280983 1.55075 0
M  V30 134 C 13.2408 -0.0729964 1.59433 0
M  V30 135 C 13.4408 -1.5411 1.29817 0
M  V30 136 O 12.4968 -2.29086 1.06187 0
M  V30 137 C 13.8098 0.306921 2.9913 0
M  V30 138 C 15.3578 0.254023 3.11968 0
M  V30 139 C 15.8328 0.608467 4.5394 0
M  V30 140 N 17.3238 0.560241 4.59799 0
M  V30 141 C 18.0588 0.80722 5.6769 0
M  V30 142 N 17.5548 1.11912 6.83701 0
M  V30 143 N 19.3478 0.735623 5.57266 0
M  V30 144 H 11.4988 1.238 1.7259 0
M  V30 145 H 13.7618 0.500547 0.805082 0
M  V30 146 H 13.4678 1.32816 3.25657 0
M  V30 147 H 13.3418 -0.349363 3.75579 0
M  V30 148 H 15.7288 -0.75794 2.852 0
M  V30 149 H 15.8098 0.944649 2.37718 0
M  V30 150 H 15.4538 1.61814 4.81434 0
M  V30 151 H 15.3838 -0.104013 5.26497 0
M  V30 152 H 17.8748 0.329288 3.76463 0
M  V30 153 H 18.1878 1.29409 7.61888 0
M  V30 154 H 16.5328 1.15695 6.85303 0
M  V30 155 H 19.7238 0.491752 4.6551 0
M  V30 156 H 19.8968 0.931482 6.4127 0
M  V30 157 N 13.3029 -1.57598 0.00835791 0
M  V30 158 C 14.2659 -2.07884 -0.965242 0
M  V30 159 C 15.2659 -0.989825 -1.26725 0
M  V30 160 O 16.4559 -1.25218 -1.21104 0
M  V30 161 C 13.5879 -2.52731 -2.28779 0
M  V30 162 H 14.7809 -2.95178 -0.530112 0
M  V30 163 H 12.3339 -1.54458 -0.239283 0
M  V30 164 H 13.0689 -1.68705 -2.76964 0
M  V30 165 H 12.8539 -3.32272 -2.08177 0
M  V30 166 H 14.3439 -2.91933 -2.98605 0
M  V30 167 N 14.781 0.264519 -1.55364 0
M  V30 168 C 15.711 1.33121 -1.91836 0
M  V30 169 C 16.692 1.51101 -0.781192 0
M  V30 170 O 17.877 1.64003 -1.04003 0
M  V30 171 C 15.007 2.68921 -2.19769 0
M  V30 172 C 13.961 2.65661 -3.35571 0
M  V30 173 C 13.287 4.05093 -3.49004 0
M  V30 174 C 14.587 2.24187 -4.71739 0
M  V30 175 H 16.281 1.02844 -2.81182 0
M  V30 176 H 13.827 0.493286 -1.35287 0
M  V30 177 H 15.78 3.43663 -2.43872 0
M  V30 178 H 14.504 3.00799 -1.27231 0
M  V30 179 H 13.163 1.93377 -3.1145 0
M  V30 180 H 12.811 4.34206 -2.53917 0
M  V30 181 H 12.511 4.03804 -4.26868 0
M  V30 182 H 14.035 4.81561 -3.75408 0
M  V30 183 H 15.449 2.88654 -4.9533 0
M  V30 184 H 13.846 2.34044 -5.52579 0
M  V30 185 H 14.916 1.19327 -4.69988 0
M  V30 186 N 16.2591 1.48442 0.529413 0
M  V30 187 C 17.2061 1.63007 1.63394 0
M  V30 188 C 18.1761 0.47212 1.59249 0
M  V30 189 O 19.3611 0.695673 1.77666 0
M  V30 190 C 16.5011 1.6763 3.01653 0
M  V30 191 C 15.6141 2.94535 3.16027 0
M  V30 192 C 14.7491 2.90316 4.44849 0
M  V30 193 C 13.7881 4.11923 4.52754 0
M  V30 194 N 12.9251 4.05777 5.72965 0
M  V30 195 H 17.7651 2.5733 1.50285 0
M  V30 196 H 15.3021 1.27613 0.731656 0
M  V30 197 H 17.2601 1.68292 3.81751 0
M  V30 198 H 15.8901 0.76797 3.13532 0
M  V30 199 H 14.9421 3.03615 2.29177 0
M  V30 200 H 16.2541 3.84512 3.17729 0
M  V30 201 H 15.4081 2.89382 5.33238 0
M  V30 202 H 14.1471 1.98068 4.45668 0
M  V30 203 H 13.1521 4.13131 3.62771 0
M  V30 204 H 14.3771 5.0533 4.53672 0
M  V30 205 H 12.3231 3.16351 5.74681 0
M  V30 206 H 12.2401 4.8946 5.76164 0
M  V30 207 H 13.5081 4.08904 6.6364 0
M  V30 208 N 17.7372 -0.778329 1.37039 0
M  V30 209 C 19.0142 -1.52551 1.22424 0
M  V30 210 C 19.3942 -2.10288 -0.184964 0
M  V30 211 O 18.7422 -1.94953 -1.19187 0
M  V30 212 C 18.9522 -2.61164 2.31504 0
M  V30 213 C 20.3002 -3.28746 2.68721 0
M  V30 214 O 21.3242 -2.71455 2.30631 0
M  V30 215 O 20.1832 -4.3231 3.3432 0
M  V30 216 H 17.2772 -0.675343 0.477326 0
M  V30 217 H 19.8232 -0.815859 1.48801 0
M  V30 218 H 18.5952 -2.16574 3.25901 0
M  V30 219 H 18.2182 -3.39737 2.06554 0
M  V30 220 N 19.2153 -1.21501 -1.00376 0
M  V30 221 C 20.6313 -0.972629 -1.26539 0
M  V30 222 C 20.8313 0.340257 -1.98606 0
M  V30 223 O 19.8873 1.06561 -2.28913 0
M  V30 224 C 21.2003 -2.16404 -2.08781 0
M  V30 225 C 22.7483 -2.20643 -2.22004 0
M  V30 226 C 23.2233 -3.39306 -3.07629 0
M  V30 227 N 24.7143 -3.39401 -3.15217 0
M  V30 228 C 25.4493 -4.27867 -3.81729 0
M  V30 229 N 24.9453 -5.26533 -4.5026 0
M  V30 230 N 26.7383 -4.15672 -3.78382 0
M  V30 231 H 18.8893 -2.05929 -0.520281 0
M  V30 232 H 21.1523 -0.901803 -0.292328 0
M  V30 233 H 20.8583 -3.11554 -1.63178 0
M  V30 234 H 20.7323 -2.15567 -3.09533 0
M  V30 235 H 23.1193 -1.26048 -2.66825 0
M  V30 236 H 23.2003 -2.25523 -1.20718 0
M  V30 237 H 22.8443 -4.34195 -2.63509 0
M  V30 238 H 22.7743 -3.31665 -4.09031 0
M  V30 239 H 25.2653 -2.67997 -2.66432 0
M  V30 240 H 25.5783 -5.90337 -4.98721 0
M  V30 241 H 23.9233 -5.30457 -4.49044 0
M  V30 242 H 27.1143 -3.3785 -3.23998 0
M  V30 243 H 27.2873 -4.84825 -4.2994 0
M  V30 244 N 20.6934 1.19889 -1.02296 0
M  V30 245 C 21.9414 1.89046 -0.714558 0
M  V30 246 C 22.2624 1.79636 0.758681 0
M  V30 247 O 21.5324 1.20292 1.54618 0
M  V30 248 H 20.1124 0.699802 -0.261317 0
M  V30 249 H 22.7744 1.45574 -1.29592 0
M  V30 250 H 21.8704 2.95524 -1.0036 0
M  V30 251 N 22.1715 0.800033 1.35784 0
M  V30 252 C 23.1345 0.211565 2.28221 0
M  V30 253 C 24.1345 -0.59728 1.49296 0
M  V30 254 O 25.3245 -0.416721 1.69142 0
M  V30 255 C 22.4565 -0.705846 3.33513 0
M  V30 256 H 23.6495 1.02677 2.81776 0
M  V30 257 H 21.2025 0.570211 1.45528 0
M  V30 258 H 21.9375 -1.54498 2.85133 0
M  V30 259 H 21.7225 -0.127655 3.91892 0
M  V30 260 H 23.2125 -1.11211 4.02519 0
M  V30 261 N 23.6496 -1.47581 0.552962 0
M  V30 262 C 24.5816 -2.27997 -0.234533 0
M  V30 263 C 25.5946 -1.36753 -0.883321 0
M  V30 264 O 26.7836 -1.61612 -0.757889 0
M  V30 265 C 23.8836 -3.10879 -1.34935 0
M  V30 266 C 23.0566 -4.30056 -0.798158 0
M  V30 267 C 22.1156 -4.94567 -1.79694 0
M  V30 268 O 21.1416 -5.53087 -1.34474 0
M  V30 269 N 22.3436 -4.88878 -3.13015 0
M  V30 270 H 25.1086 -2.96222 0.455255 0
M  V30 271 H 22.6696 -1.57163 0.388761 0
M  V30 272 H 24.6616 -3.50903 -2.01616 0
M  V30 273 H 23.2316 -2.44924 -1.94244 0
M  V30 274 H 22.4516 -3.94174 0.0453079 0
M  V30 275 H 23.7396 -5.07152 -0.409173 0
M  V30 276 H 23.1376 -4.42526 -3.52402 0
M  V30 277 H 21.6946 -5.32934 -3.75266 0
M  V30 278 N 25.1277 -0.289203 -1.54924 0
M  V30 279 C 26.0907 0.579144 -2.21762 0
M  V30 280 C 27.0907 1.07047 -1.1999 0
M  V30 281 O 28.2807 0.968384 -1.44803 0
M  V30 282 C 25.4127 1.80055 -2.8947 0
M  V30 283 H 26.6057 -0.00464908 -2.999 0
M  V30 284 H 24.1587 -0.0399306 -1.56249 0
M  V30 285 H 24.8937 2.42449 -2.15381 0
M  V30 286 H 24.6787 1.45602 -3.64064 0
M  V30 287 H 26.1687 2.41773 -3.40493 0
M  V30 288 N 26.6058 1.57591 -0.0167156 0
M  V30 289 C 27.5388 2.04944 1.00366 0
M  V30 290 C 28.5168 0.942648 1.32487 0
M  V30 291 O 29.7008 1.21205 1.44367 0
M  V30 292 C 26.8278 2.46109 2.32697 0
M  V30 293 C 25.8738 3.67686 2.16123 0
M  V30 294 S 26.7068 5.14882 1.47161 0
M  V30 295 C 27.8628 5.59332 2.80888 0
M  V30 296 H 28.0958 2.91172 0.600528 0
M  V30 297 H 25.6288 1.53168 0.194632 0
M  V30 298 H 27.5868 2.70493 3.08778 0
M  V30 299 H 26.2478 1.6025 2.70146 0
M  V30 300 H 25.4408 3.94296 3.13922 0
M  V30 301 H 25.0428 3.43391 1.48185 0
M  V30 302 H 27.3348 5.62814 3.77156 0
M  V30 303 H 28.2778 6.5905 2.58958 0
M  V30 304 H 28.6858 4.86942 2.85565 0
M  V30 305 N 28.0839 -0.256276 1.55502 0
M  V30 306 C 29.3309 -0.985619 1.76895 0
M  V30 307 C 29.6589 -1.85671 0.579355 0
M  V30 308 O 28.9139 -1.90744 -0.437651 0
M  V30 309 C 29.2129 -1.88432 3.03691 0
M  V30 310 C 28.8789 -1.16936 4.35473 0
M  V30 311 C 27.5409 -0.97173 4.71286 0
M  V30 312 C 29.8929 -0.661889 5.1698 0
M  V30 313 C 27.2209 -0.254179 5.86149 0
M  V30 314 C 29.5729 0.042149 6.32586 0
M  V30 315 C 28.2369 0.25134 6.67027 0
M  V30 316 H 27.5069 -0.360663 0.647304 0
M  V30 317 H 30.1539 -0.256483 1.89775 0
M  V30 318 H 28.4589 -2.68021 2.85783 0
M  V30 319 H 30.1559 -2.45015 3.1744 0
M  V30 320 H 26.7459 -1.33332 4.07333 0
M  V30 321 H 30.9299 -0.802145 4.89775 0
M  V30 322 H 26.1859 -0.0815408 6.11346 0
M  V30 323 H 30.3599 0.443049 6.94989 0
M  V30 324 H 27.9869 0.809314 7.5588 0
M  V30 325 N 29.562 -1.4872 -0.521534 0
M  V30 326 C 30.81 -1.56857 -1.27437 0
M  V30 327 C 31.131 -0.247982 -1.93417 0
M  V30 328 O 30.401 0.731151 -1.81744 0
M  V30 329 H 28.981 -0.577885 -0.473347 0
M  V30 330 H 31.643 -1.85233 -0.606205 0
M  V30 331 H 30.739 -2.35402 -2.0492 0
M  V30 332 N 31.0401 0.771051 -1.3745 0
M  V30 333 C 32.2891 1.52491 -1.3202 0
M  V30 334 C 32.6021 1.9538 0.0927347 0
M  V30 335 O 33.8081 2.70159 0.269503 0
M  V30 336 C 32.2641 2.75366 -2.31736 0
M  V30 337 C 31.8721 2.39573 -3.78562 0
M  V30 338 C 33.6161 3.53307 -2.35318 0
M  V30 339 C 31.5231 3.58954 -4.70007 0
M  V30 340 H 30.4531 0.572506 -0.490666 0
M  V30 341 H 33.1041 0.844474 -1.62914 0
M  V30 342 H 31.4861 3.45303 -1.93861 0
M  V30 343 H 32.6601 1.77415 -4.25277 0
M  V30 344 H 30.9751 1.74805 -3.77932 0
M  V30 345 H 33.5721 4.42039 -3.00842 0
M  V30 346 H 33.9151 3.93217 -1.36698 0
M  V30 347 H 34.4481 2.90367 -2.71904 0
M  V30 348 H 31.1871 3.24125 -5.69757 0
M  V30 349 H 30.7071 4.20214 -4.27996 0
M  V30 350 H 32.3861 4.25758 -4.87175 0
M  V30 351 N 32.5182 1.22032 0.997298 0
M  V30 352 C 33.9292 1.0397 1.55071 0
M  V30 353 C 34.2802 -0.398192 1.92117 0
M  V30 354 O 33.4052 -1.28254 1.74298 0
M  V30 355 C 34.0002 1.88109 2.81781 0
M  V30 356 C 32.5592 1.74357 3.33581 0
M  V30 357 C 31.7062 1.84846 2.06706 0
M  V30 358 H 34.6572 1.35941 0.818883 0
M  V30 359 H 34.6782 1.39589 3.53971 0
M  V30 360 H 34.1902 2.92754 2.54787 0
M  V30 361 H 32.2912 0.72427 3.65493 0
M  V30 362 H 32.4042 2.56772 4.04481 0
M  V30 363 H 30.7682 1.28238 2.20062 0
M  V30 364 H 31.5512 2.91014 1.82114 0
M  V30 365 N 33.9963 -1.19345 1.0293 0
M  V30 366 C 35.2443 -1.88665 0.724574 0
M  V30 367 C 35.5653 -1.80036 -0.749144 0
M  V30 368 O 34.8353 -1.2111 -1.53978 0
M  V30 369 H 33.4153 -0.698406 0.265025 0
M  V30 370 H 36.0773 -1.44885 1.30362 0
M  V30 371 H 35.1733 -2.94987 1.01926 0
M  V30 372 N 35.4744 -0.807222 -1.35358 0
M  V30 373 C 36.7514 -0.311126 -1.9311 0
M  V30 374 C 37.1314 1.19937 -1.73719 0
M  V30 375 O 36.4794 1.99918 -1.10657 0
M  V30 376 C 36.6894 -0.723226 -3.41424 0
M  V30 377 C 38.0374 -0.713078 -4.18569 0
M  V30 378 O 39.0614 -0.664811 -3.49941 0
M  V30 379 O 37.9204 -0.772022 -5.41019 0
M  V30 380 H 35.0144 -0.081526 -0.822972 0
M  V30 381 H 37.5604 -0.890962 -1.4443 0
M  V30 382 H 36.3324 -1.76426 -3.4927 0
M  V30 383 H 35.9554 -0.118232 -3.97424 0
M  V30 384 N 36.9525 1.47285 -0.560781 0
M  V30 385 C 38.1995 2.02464 -0.038062 0
M  V30 386 C 38.5275 1.43474 1.31322 0
M  V30 387 O 37.7825 0.581311 1.86867 0
M  V30 388 C 38.0815 3.57258 0.100784 0
M  V30 389 C 37.7475 4.35184 -1.18007 0
M  V30 390 C 36.4095 4.56194 -1.53103 0
M  V30 391 C 38.7615 4.80098 -2.02867 0
M  V30 392 C 36.0895 5.19367 -2.729 0
M  V30 393 C 38.4415 5.44593 -3.21871 0
M  V30 394 C 37.1055 5.63835 -3.57276 0
M  V30 395 H 36.3755 0.740869 -0.0139279 0
M  V30 396 H 39.0225 1.76916 -0.733012 0
M  V30 397 H 37.3275 3.81819 0.878724 0
M  V30 398 H 39.0245 3.97606 0.520639 0
M  V30 399 H 35.6145 4.19113 -0.8968 0
M  V30 400 H 39.7985 4.63642 -1.7706 0
M  V30 401 H 35.0545 5.32459 -3.00496 0
M  V30 402 H 39.2285 5.78358 -3.87911 0
M  V30 403 H 36.8555 6.12557 -4.50197 0
M  V30 404 N 38.4306 0.297415 1.54768 0
M  V30 405 C 39.3936 -0.567375 2.22066 0
M  V30 406 C 40.3936 -1.06409 1.20556 0
M  V30 407 O 41.5836 -0.960691 1.45315 0
M  V30 408 C 38.7156 -1.78517 2.90421 0
M  V30 409 H 39.9086 0.0205534 2.99893 0
M  V30 410 H 37.4616 0.0482163 1.56226 0
M  V30 411 H 38.1966 -2.41303 2.16664 0
M  V30 412 H 37.9816 -1.43669 3.64831 0
M  V30 413 H 39.4716 -2.39964 3.41771 0
M  V30 414 N 39.9087 -1.5758 0.0250728 0
M  V30 415 C 40.8387 -2.13007 -0.956575 0
M  V30 416 C 41.8197 -1.0452 -1.342 0
M  V30 417 O 43.0047 -1.32332 -1.42133 0
M  V30 418 C 40.1347 -2.65386 -2.24026 0
M  V30 419 C 39.0887 -3.78623 -1.99571 0
M  V30 420 C 38.4147 -4.17414 -3.3417 0
M  V30 421 C 39.7147 -5.04867 -1.33814 0
M  V30 422 H 41.4087 -2.9528 -0.494991 0
M  V30 423 H 38.9547 -1.42042 -0.236651 0
M  V30 424 H 40.9077 -3.02794 -2.93076 0
M  V30 425 H 39.6317 -1.80268 -2.72343 0
M  V30 426 H 38.2907 -3.41646 -1.32941 0
M  V30 427 H 37.9387 -3.29284 -3.80238 0
M  V30 428 H 37.6387 -4.93719 -3.18615 0
M  V30 429 H 39.1627 -4.57402 -4.04495 0
M  V30 430 H 40.5767 -5.39888 -1.92857 0
M  V30 431 H 38.9737 -5.86144 -1.28669 0
M  V30 432 H 40.0437 -4.83904 -0.310561 0
M  V30 433 N 41.3868 0.248026 -1.55636 0
M  V30 434 C 42.7978 0.817177 -1.67866 0
M  V30 435 C 43.1488 1.86069 -0.622322 0
M  V30 436 O 42.2738 2.15157 0.231618 0
M  V30 437 C 42.8688 1.489 -3.04326 0
M  V30 438 C 41.4278 2.00587 -3.185 0
M  V30 439 C 40.5748 0.856573 -2.63739 0
M  V30 440 H 43.5258 0.0238579 -1.58682 0
M  V30 441 H 43.5468 2.35698 -2.98708 0
M  V30 442 H 43.0588 0.729279 -3.81186 0
M  V30 443 H 41.1598 2.79443 -2.4646 0
M  V30 444 H 41.2728 2.20402 -4.25393 0
M  V30 445 H 39.6368 1.25678 -2.21534 0
M  V30 446 H 40.4198 0.109953 -3.43124 0
M  V30 447 N 42.8649 1.48995 0.513639 0
M  V30 448 C 44.1119 1.57843 1.26854 0
M  V30 449 C 44.4399 0.259501 1.92761 0
M  V30 450 O 43.6949 -0.75159 1.80692 0
M  V30 451 C 43.9939 2.67756 2.36731 0
M  V30 452 C 43.6599 4.09669 1.88368 0
M  V30 453 C 42.3219 4.48291 1.74896 0
M  V30 454 C 44.6739 4.98537 1.52021 0
M  V30 455 C 42.0019 5.73568 1.23438 0
M  V30 456 C 44.3539 6.24319 1.0202 0
M  V30 457 C 43.0179 6.61783 0.871778 0
M  V30 458 H 42.2879 0.577587 0.464192 0
M  V30 459 H 44.9349 1.82778 0.571366 0
M  V30 460 H 43.2399 2.36743 3.12185 0
M  V30 461 H 44.9369 2.71813 2.9482 0
M  V30 462 H 41.5269 3.79176 1.99808 0
M  V30 463 H 45.7109 4.69363 1.61281 0
M  V30 464 H 40.9669 6.01304 1.10648 0
M  V30 465 H 45.1409 6.92566 0.729722 0
M  V30 466 H 42.7679 7.5874 0.470852 0
M  V30 467 N 44.343 -0.763751 1.37857 0
M  V30 468 C 45.59 -1.52257 1.33506 0
M  V30 469 C 45.918 -1.94343 -0.078022 0
M  V30 470 O 45.173 -1.64958 -1.05297 0
M  V30 471 C 45.472 -2.79499 2.22745 0
M  V30 472 C 45.138 -2.56426 3.70886 0
M  V30 473 C 43.8 -2.49842 4.11257 0
M  V30 474 C 46.152 -2.36008 4.64704 0
M  V30 475 C 43.48 -2.20841 5.43549 0
M  V30 476 C 45.832 -2.0853 5.97242 0
M  V30 477 C 44.496 -2.00396 6.36709 0
M  V30 478 H 43.766 -0.557149 0.488534 0
M  V30 479 H 46.413 -0.879073 1.70131 0
M  V30 480 H 44.718 -3.48447 1.79142 0
M  V30 481 H 46.415 -3.37413 2.16688 0
M  V30 482 H 43.005 -2.62416 3.38874 0
M  V30 483 H 47.189 -2.40079 4.34368 0
M  V30 484 H 42.445 -2.13045 5.73081 0
M  V30 485 H 46.619 -1.91732 6.69486 0
M  V30 486 H 44.246 -1.77688 7.39142 0
M  V30 487 N 45.8211 -1.22559 -0.990812 0
M  V30 488 C 46.7681 -0.997519 -2.0813 0
M  V30 489 C 47.7381 0.0814702 -1.659 0
M  V30 490 O 48.9231 -0.0685424 -1.90677 0
M  V30 491 C 46.0631 -0.583615 -3.40129 0
M  V30 492 C 45.1761 -1.7336 -3.9569 0
M  V30 493 C 44.3111 -1.26748 -5.15857 0
M  V30 494 C 43.3501 -2.38888 -5.63559 0
M  V30 495 N 42.4871 -1.93308 -6.74964 0
M  V30 496 H 47.3271 -1.93099 -2.26973 0
M  V30 497 H 44.8641 -0.962114 -1.11273 0
M  V30 498 H 46.8221 -0.324801 -4.15934 0
M  V30 499 H 45.4521 0.312845 -3.2128 0
M  V30 500 H 44.5041 -2.10669 -3.16738 0
M  V30 501 H 45.8161 -2.57704 -4.27071 0
M  V30 502 H 44.9701 -0.966173 -5.98957 0
M  V30 503 H 43.7091 -0.394272 -4.86104 0
M  V30 504 H 42.7141 -2.69805 -4.79046 0
M  V30 505 H 43.9391 -3.26728 -5.95336 0
M  V30 506 H 41.8851 -1.08352 -6.4699 0
M  V30 507 H 41.8021 -2.71217 -7.05675 0
M  V30 508 H 43.0701 -1.66252 -7.61564 0
M  V30 509 N 47.2992 1.18797 -1.03562 0
M  V30 510 C 48.5452 1.8893 -0.737113 0
M  V30 511 C 48.8782 1.79837 0.732956 0
M  V30 512 O 48.1532 1.19525 1.5344 0
M  V30 513 C 48.4362 3.39607 -1.19745 0
M  V30 514 C 48.2892 3.57537 -2.72924 0
M  V30 515 C 49.6082 4.33069 -0.783526 0
M  V30 516 H 46.7272 0.686057 -0.269249 0
M  V30 517 H 49.3692 1.39797 -1.28673 0
M  V30 518 H 47.5192 3.81583 -0.729855 0
M  V30 519 H 49.1912 3.24688 -3.27682 0
M  V30 520 H 47.4342 3.00363 -3.12993 0
M  V30 521 H 48.1052 4.63238 -3.00191 0
M  V30 522 H 50.5812 3.98846 -1.18581 0
M  V30 523 H 49.4572 5.3707 -1.13343 0
M  V30 524 H 49.7182 4.40986 0.313681 0
M  V30 525 N 48.7773 0.814389 1.34928 0
M  V30 526 C 49.7403 0.235759 2.27984 0
M  V30 527 C 50.7403 -0.581412 1.49921 0
M  V30 528 O 51.9303 -0.398758 1.69575 0
M  V30 529 C 49.0623 -0.670433 3.34242 0
M  V30 530 H 50.2553 1.05659 2.80671 0
M  V30 531 H 47.8083 0.585614 1.44915 0
M  V30 532 H 48.5433 -1.51466 2.86755 0
M  V30 533 H 48.3283 -0.0860822 3.92005 0
M  V30 534 H 49.8183 -1.06935 4.03676 0
M  V30 535 N 50.2554 -1.46986 0.568584 0
M  V30 536 C 51.1654 -2.33942 -0.17555 0
M  V30 537 C 52.1814 -1.48891 -0.90041 0
M  V30 538 O 53.3574 -1.81794 -0.86676 0
M  V30 539 C 50.4224 -3.25811 -1.18524 0
M  V30 540 C 49.4834 -4.26757 -0.466582 0
M  V30 541 C 48.7164 -5.14236 -1.42817 0
M  V30 542 O 48.9394 -5.04379 -2.66379 0
M  V30 543 O 47.8734 -5.94412 -0.946453 0
M  V30 544 H 51.6994 -2.98896 0.538036 0
M  V30 545 H 49.2844 -1.4573 0.329097 0
M  V30 546 H 51.1664 -3.82527 -1.76779 0
M  V30 547 H 49.8414 -2.63471 -1.88055 0
M  V30 548 H 48.7484 -3.73769 0.157451 0
M  V30 549 H 50.0814 -4.91843 0.187485 0
M  V30 550 N 51.7335 -0.305618 -1.54608 0
M  V30 551 C 52.6435 0.57778 -2.27374 0
M  V30 552 C 53.6595 1.14451 -1.31061 0
M  V30 553 O 54.8355 1.16831 -1.6405 0
M  V30 554 C 51.9005 1.73123 -3.00382 0
M  V30 555 C 50.9615 1.19812 -4.12242 0
M  V30 556 C 50.1945 2.2966 -4.81759 0
M  V30 557 O 50.4175 3.49651 -4.50666 0
M  V30 558 O 49.3515 1.96091 -5.69062 0
M  V30 559 H 53.1775 -0.012624 -3.03697 0
M  V30 560 H 50.7625 -0.0719184 -1.49227 0
M  V30 561 H 52.6445 2.40315 -3.4616 0
M  V30 562 H 51.3195 2.30815 -2.26949 0
M  V30 563 H 50.2265 0.491798 -3.70853 0
M  V30 564 H 51.5595 0.666566 -4.87666 0
M  V30 565 N 53.2116 1.57565 -0.0334293 0
M  V30 566 C 54.4396 1.9628 0.654347 0
M  V30 567 C 54.8546 0.910138 1.65414 0
M  V30 568 O 54.2116 -0.107595 1.82183 0
M  V30 569 C 54.2626 3.35067 1.35693 0
M  V30 570 O 53.9836 4.36296 0.397191 0
M  V30 571 C 55.4846 3.88439 2.13613 0
M  V30 572 H 52.7046 0.646369 0.180132 0
M  V30 573 H 55.2486 2.04282 -0.0944721 0
M  V30 574 H 53.4036 3.2827 2.05712 0
M  V30 575 H 53.8176 5.1678 0.896597 0
M  V30 576 H 55.2916 4.8788 2.58219 0
M  V30 577 H 55.7686 3.22914 2.97696 0
M  V30 578 H 56.3746 3.98516 1.48543 0
M  V30 579 N 54.6897 -0.239769 1.55765 0
M  V30 580 C 55.6217 -1.32001 1.87372 0
M  V30 581 C 56.6347 -1.43944 0.760522 0
M  V30 582 O 57.8237 -1.45167 1.0387 0
M  V30 583 C 54.9237 -2.69779 2.05115 0
M  V30 584 C 54.0967 -2.80014 3.36022 0
M  V30 585 C 53.1557 -3.98684 3.4342 0
M  V30 586 O 52.1817 -3.87877 4.16582 0
M  V30 587 N 53.3837 -5.12176 2.73232 0
M  V30 588 H 56.1487 -1.0522 2.80622 0
M  V30 589 H 53.7097 -0.429857 1.56089 0
M  V30 590 H 55.7017 -3.47517 2.07399 0
M  V30 591 H 54.2717 -2.89237 1.18577 0
M  V30 592 H 53.4917 -1.88896 3.45994 0
M  V30 593 H 54.7797 -2.83808 4.22292 0
M  V30 594 H 54.1777 -5.2385 2.13536 0
M  V30 595 H 52.7347 -5.88022 2.81199 0
M  V30 596 N 56.1678 -1.49265 -0.50573 0
M  V30 597 C 57.4168 -1.57761 -1.25675 0
M  V30 598 C 57.7298 -0.267371 -1.93764 0
M  V30 599 O 58.9358 -0.230827 -2.70517 0
M  V30 600 C 57.3918 -2.78332 -2.28165 0
M  V30 601 C 56.9998 -4.16096 -1.66037 0
M  V30 602 C 58.7438 -2.96155 -3.04125 0
M  V30 603 C 56.6508 -5.27895 -2.6661 0
M  V30 604 H 55.5808 -0.587391 -0.472745 0
M  V30 605 H 58.2318 -1.75644 -0.53118 0
M  V30 606 H 56.6138 -2.53934 -3.03865 0
M  V30 607 H 57.7878 -4.50612 -0.963622 0
M  V30 608 H 56.1028 -4.03591 -1.02484 0
M  V30 609 H 58.6998 -3.76849 -3.79327 0
M  V30 610 H 59.0428 -2.06534 -3.61455 0
M  V30 611 H 59.5758 -3.2057 -2.35541 0
M  V30 612 H 56.3148 -6.1956 -2.14068 0
M  V30 613 H 55.8348 -4.97839 -3.34539 0
M  V30 614 H 57.5138 -5.57031 -3.29129 0
M  V30 615 N 57.6459 0.756429 -1.3826 0
M  V30 616 C 58.5759 1.88374 -1.37976 0
M  V30 617 C 59.5569 1.68311 -0.246082 0
M  V30 618 O 60.7419 1.88944 -0.44874 0
M  V30 619 C 57.8719 3.25864 -1.20125 0
M  V30 620 C 56.8259 3.60523 -2.30666 0
M  V30 621 C 56.1519 4.9672 -1.97923 0
M  V30 622 C 57.4519 3.65692 -3.72916 0
M  V30 623 H 59.1459 1.88869 -2.32312 0
M  V30 624 H 56.6919 0.907272 -1.11824 0
M  V30 625 H 58.6449 4.0438 -1.18552 0
M  V30 626 H 57.3689 3.25841 -0.222498 0
M  V30 627 H 56.0279 2.84324 -2.3142 0
M  V30 628 H 55.6759 4.93253 -0.985393 0
M  V30 629 H 55.3759 5.20878 -2.71955 0
M  V30 630 H 56.8999 5.77618 -1.97964 0
M  V30 631 H 58.3139 4.34328 -3.74208 0
M  V30 632 H 56.7109 4.01358 -4.4613 0
M  V30 633 H 57.7809 2.65987 -4.05436 0
M  V30 634 N 59.124 1.23083 0.984299 0
M  V30 635 C 60.535 1.05609 1.5396 0
M  V30 636 C 60.886 -0.377793 1.92528 0
M  V30 637 O 60.011 -1.26398 1.75649 0
M  V30 638 C 60.606 1.91087 2.7977 0
M  V30 639 C 59.165 1.77885 3.31713 0
M  V30 640 C 58.312 1.87028 2.04733 0
M  V30 641 H 61.263 1.36802 0.804419 0
M  V30 642 H 61.284 1.43336 3.5247 0
M  V30 643 H 60.796 2.9544 2.51668 0
M  V30 644 H 58.897 0.762995 3.64704 0
M  V30 645 H 59.01 2.61047 4.01735 0
M  V30 646 H 57.374 1.30565 2.18689 0
M  V30 647 H 58.157 2.92929 1.79017 0
M  V30 648 N 60.6021 -1.18246 1.0419 0
M  V30 649 C 61.5321 -2.24127 0.654914 0
M  V30 650 C 62.5131 -1.66617 -0.342451 0
M  V30 651 O 63.6981 -1.92924 -0.222277 0
M  V30 652 C 60.8281 -3.47295 0.0183757 0
M  V30 653 C 59.7821 -4.17563 0.939414 0
M  V30 654 C 59.1081 -5.34438 0.167286 0
M  V30 655 C 60.4081 -4.70917 2.25908 0
M  V30 656 H 62.1021 -2.56753 1.54007 0
M  V30 657 H 59.6481 -1.23414 0.74195 0
M  V30 658 H 61.6011 -4.20572 -0.264082 0
M  V30 659 H 60.3251 -3.13907 -0.901664 0
M  V30 660 H 58.9841 -3.46186 1.20628 0
M  V30 661 H 58.6321 -4.97298 -0.7552 0
M  V30 662 H 58.3321 -5.82388 0.780901 0
M  V30 663 H 59.8561 -6.10504 -0.108125 0
M  V30 664 H 61.2701 -5.35882 2.03724 0
M  V30 665 H 59.6671 -5.29406 2.82577 0
M  V30 666 H 60.7371 -3.88272 2.9047 0
M  V30 667 N 62.0802 -0.821533 -1.34494 0
M  V30 668 C 63.0302 -0.214793 -2.26986 0
M  V30 669 C 64.0142 0.620125 -1.4847 0
M  V30 670 O 65.2062 0.474933 -1.70509 0
M  V30 671 C 62.3352 0.623566 -3.37589 0
M  V30 672 C 61.4212 -0.221904 -4.23519 0
M  V30 673 N 61.8122 -1.29223 -4.89014 0
M  V30 674 C 60.1102 -0.00600922 -4.46 0
M  V30 675 C 60.8112 -1.80965 -5.52835 0
M  V30 676 N 59.7872 -1.11376 -5.32068 0
M  V30 677 H 63.5892 -1.03354 -2.75128 0
M  V30 678 H 61.1032 -0.6642 -1.48196 0
M  V30 679 H 63.1002 1.0744 -4.02818 0
M  V30 680 H 61.7602 1.44049 -2.90998 0
M  V30 681 H 62.7712 -1.67502 -4.90065 0
M  V30 682 H 59.4482 0.77886 -4.10171 0
M  V30 683 H 60.8382 -2.70502 -6.15043 0
M  V30 684 N 63.5583 1.46682 -0.576371 0
M  V30 685 C 64.7863 2.06798 -0.0649635 0
M  V30 686 C 65.2013 1.42612 1.23723 0
M  V30 687 O 64.5583 0.529203 1.74659 0
M  V30 688 C 64.6093 3.6132 0.114202 0
M  V30 689 O 64.3303 4.23104 -1.13644 0
M  V30 690 C 65.8313 4.38349 0.66069 0
M  V30 691 H 63.0513 0.668778 -0.0545616 0
M  V30 692 H 65.5953 1.88404 -0.795237 0
M  V30 693 H 63.7503 3.79162 0.794673 0
M  V30 694 H 64.1643 5.15894 -0.946253 0
M  V30 695 H 65.6383 5.47081 0.73526 0
M  V30 696 H 66.1153 4.05953 1.67627 0
M  V30 697 H 66.7213 4.25297 0.0152951 0
M  V30 698 N 65.0364 0.313813 1.54444 0
M  V30 699 C 65.9664 -0.549454 2.26943 0
M  V30 700 C 66.9474 -1.12741 1.27372 0
M  V30 701 O 68.1324 -1.15436 1.56167 0
M  V30 702 C 65.2624 -1.71523 3.01989 0
M  V30 703 C 64.2164 -1.26703 4.08816 0
M  V30 704 C 63.5424 -2.51898 4.71647 0
M  V30 705 C 64.8424 -0.388962 5.2085 0
M  V30 706 H 66.5364 0.0552661 2.99349 0
M  V30 707 H 64.0824 0.0280207 1.43973 0
M  V30 708 H 66.0354 -2.32535 3.51433 0
M  V30 709 H 64.7594 -2.34639 2.27183 0
M  V30 710 H 63.4184 -0.679896 3.6024 0
M  V30 711 H 63.0664 -3.13356 3.93468 0
M  V30 712 H 62.7664 -2.22605 5.43802 0
M  V30 713 H 64.2904 -3.1369 5.23861 0
M  V30 714 H 65.7044 -0.905107 5.6611 0
M  V30 715 H 64.1014 -0.18924 5.99802 0
M  V30 716 H 65.1714 0.582699 4.81386 0
M  V30 717 N 66.5145 -1.57545 0.0417849 0
M  V30 718 C 67.7395 -1.97035 -0.647455 0
M  V30 719 C 68.1645 -0.918775 -1.64135 0
M  V30 720 O 67.5225 0.119006 -1.80909 0
M  V30 721 C 67.5705 -3.35609 -1.31905 0
M  V30 722 O 66.6745 -3.3287 -2.43457 0
M  V30 723 H 66.0155 -0.64211 -0.169086 0
M  V30 724 H 68.5455 -2.04318 0.107399 0
M  V30 725 H 68.5555 -3.72126 -1.67291 0
M  V30 726 H 67.2305 -4.11685 -0.590586 0
M  V30 727 H 65.8075 -3.08087 -2.10088 0
M  V30 728 N 67.9926 0.231505 -1.5589 0
M  V30 729 C 68.9426 1.29007 -1.87993 0
M  V30 730 C 69.9266 1.42764 -0.742102 0
M  V30 731 O 71.1186 1.45747 -1.00433 0
M  V30 732 C 68.2476 2.6425 -2.1915 0
M  V30 733 C 67.3336 2.54435 -3.39299 0
M  V30 734 N 67.7246 2.14262 -4.58176 0
M  V30 735 C 66.0226 2.85416 -3.42715 0
M  V30 736 C 66.7236 2.15455 -5.40328 0
M  V30 737 N 65.6996 2.55558 -4.79783 0
M  V30 738 H 69.5016 0.970213 -2.77424 0
M  V30 739 H 67.0156 0.440097 -1.56323 0
M  V30 740 H 69.0126 3.40665 -2.40319 0
M  V30 741 H 67.6726 2.9709 -1.31025 0
M  V30 742 H 68.6836 1.85554 -4.83518 0
M  V30 743 H 65.3606 3.22693 -2.64906 0
M  V30 744 H 66.7506 1.86605 -6.45467 0
M  V30 745 N 69.4707 1.49531 0.497807 0
M  V30 746 C 70.3807 1.69176 1.62532 0
M  V30 747 C 71.3967 0.5744 1.64246 0
M  V30 748 O 72.5727 0.849497 1.82608 0
M  V30 749 C 69.6377 1.75695 2.98885 0
M  V30 750 C 68.6987 2.9929 3.07773 0
M  V30 751 C 67.9317 3.05488 4.37622 0
M  V30 752 O 68.1547 2.19192 5.26603 0
M  V30 753 O 67.0887 3.9798 4.51548 0
M  V30 754 H 70.9147 2.647 1.48887 0
M  V30 755 H 68.4997 1.3331 0.674441 0
M  V30 756 H 70.3817 1.82317 3.79919 0
M  V30 757 H 69.0567 0.8335 3.12785 0
M  V30 758 H 67.9637 2.98183 2.25915 0
M  V30 759 H 69.2967 3.91125 2.98801 0
M  V30 760 N 70.9488 -0.749086 1.3866 0
M  V30 761 C 72.3598 -1.32664 1.31366 0
M  V30 762 C 72.7108 -1.96179 -0.028484 0
M  V30 763 O 71.8358 -1.9537 -0.93057 0
M  V30 764 C 72.4308 -2.41219 2.37905 0
M  V30 765 C 70.9898 -2.94684 2.34176 0
M  V30 766 C 70.1368 -1.68108 2.20533 0
M  V30 767 H 73.0878 -0.547628 1.48952 0
M  V30 768 H 73.1088 -3.21268 2.0388 0
M  V30 769 H 72.6208 -1.94962 3.35576 0
M  V30 770 H 70.7218 -3.45258 1.401 0
M  V30 771 H 70.8348 -3.48757 3.2849 0
M  V30 772 H 69.1988 -1.91907 1.67463 0
M  V30 773 H 69.9818 -1.23923 3.20153 0
M  V30 774 N 72.4269 -1.23603 -0.977757 0
M  V30 775 C 73.3899 -1.02069 -2.05218 0
M  V30 776 C 74.3899 0.0184305 -1.60789 0
M  V30 777 O 75.5799 -0.221569 -1.72785 0
M  V30 778 C 72.7119 -0.544926 -3.36517 0
M  V30 779 H 73.9049 -1.9742 -2.25755 0
M  V30 780 H 71.4579 -1.05684 -1.15155 0
M  V30 781 H 72.1929 0.412241 -3.21669 0
M  V30 782 H 71.9779 -1.2948 -3.70105 0
M  V30 783 H 73.4679 -0.414985 -4.15533 0
M  V30 784 N 73.905 1.17692 -1.04816 0
M  V30 785 C 75.151 1.88137 -0.75711 0
M  V30 786 C 75.484 1.80604 0.713841 0
M  V30 787 O 74.759 1.21146 1.52164 0
M  V30 788 C 75.042 3.38318 -1.2334 0
M  V30 789 C 74.895 3.54622 -2.76701 0
M  V30 790 C 76.214 4.32214 -0.829415 0
M  V30 791 H 73.333 0.683163 -0.27651 0
M  V30 792 H 75.975 1.38424 -1.30149 0
M  V30 793 H 74.125 3.80787 -0.770286 0
M  V30 794 H 75.797 3.21194 -3.31107 0
M  V30 795 H 74.04 2.97026 -3.16161 0
M  V30 796 H 74.711 4.60028 -3.05088 0
M  V30 797 H 77.187 3.97565 -1.22805 0
M  V30 798 H 76.063 5.35838 -1.19033 0
M  V30 799 H 76.324 4.41294 0.266891 0
M  V30 800 N 75.3831 0.828654 1.34056 0
M  V30 801 C 76.6311 0.41863 1.97717 0
M  V30 802 C 76.9521 -1.02314 1.66002 0
M  V30 803 O 76.2221 -1.71119 0.953683 0
M  V30 804 H 74.8021 0.151809 0.731412 0
M  V30 805 H 77.4641 1.05936 1.63596 0
M  V30 806 H 76.5601 0.542318 3.07352 0
M  V30 807 N 76.8612 -1.46375 0.584142 0
M  V30 808 C 78.1082 -2.02378 0.0702675 0
M  V30 809 C 78.4362 -1.45545 -1.29023 0
M  V30 810 O 77.6912 -0.610967 -1.85918 0
M  V30 811 C 77.9902 -3.57373 -0.0439342 0
M  V30 812 C 77.6562 -4.33252 1.24915 0
M  V30 813 C 76.3182 -4.53701 1.60341 0
M  V30 814 C 78.6702 -4.7681 2.1048 0
M  V30 815 C 75.9982 -5.1496 2.81128 0
M  V30 816 C 78.3502 -5.39404 3.30494 0
M  V30 817 C 77.0142 -5.5808 3.66201 0
M  V30 818 H 76.2842 -0.740554 0.0257127 0
M  V30 819 H 78.9312 -1.75727 0.761065 0
M  V30 820 H 77.2362 -3.83169 -0.817869 0
M  V30 821 H 78.9332 -3.98384 -0.457318 0
M  V30 822 H 75.5232 -4.17633 0.963364 0
M  V30 823 H 79.7072 -4.60766 1.84414 0
M  V30 824 H 74.9632 -5.27611 3.08928 0
M  V30 825 H 79.1372 -5.72114 3.97063 0
M  V30 826 H 76.7642 -6.05318 4.59885 0
M  V30 827 N 78.3393 -0.321999 -1.54275 0
M  V30 828 C 79.3023 0.531975 -2.22941 0
M  V30 829 C 80.3023 1.04478 -1.22234 0
M  V30 830 O 81.4923 0.937452 -1.46825 0
M  V30 831 C 78.6243 1.73874 -2.93224 0
M  V30 832 H 79.8173 -0.0682612 -2.99822 0
M  V30 833 H 77.3703 -0.0730644 -1.56129 0
M  V30 834 H 78.1053 2.37825 -2.20476 0
M  V30 835 H 77.8903 1.37847 -3.6707 0
M  V30 836 H 79.3803 2.34496 -3.45545 0
M  V30 837 N 79.8174 1.5752 -0.0501392 0
M  V30 838 C 80.7804 2.1037 0.909786 0
M  V30 839 C 81.7804 1.02308 1.24056 0
M  V30 840 O 82.9704 1.28385 1.17741 0
M  V30 841 C 80.1024 2.58708 2.21998 0
M  V30 842 H 81.2954 2.96479 0.451665 0
M  V30 843 H 78.8484 1.55038 0.198248 0
M  V30 844 H 79.5834 1.75989 2.72394 0
M  V30 845 H 79.3684 3.37675 1.99295 0
M  V30 846 H 80.8584 2.99747 2.9076 0
M  V30 847 N 81.2955 -0.223234 1.56011 0
M  V30 848 C 82.5725 -0.972108 1.69733 0
M  V30 849 C 82.9525 -2.02485 0.59691 0
M  V30 850 O 82.3005 -2.25037 -0.396324 0
M  V30 851 C 82.5105 -1.58407 3.10979 0
M  V30 852 C 83.8585 -2.07696 3.70334 0
M  V30 853 O 84.8825 -1.68304 3.1393 0
M  V30 854 O 83.7415 -2.80096 4.69264 0
M  V30 855 H 80.8355 -0.453993 0.691245 0
M  V30 856 H 83.3815 -0.215149 1.68331 0
M  V30 857 H 82.1535 -0.823831 3.82529 0
M  V30 858 H 81.7765 -2.40661 3.16493 0
M  V30 859 N 82.7736 -1.49793 -0.48987 0
M  V30 860 C 83.7366 -1.66752 -1.57246 0
M  V30 861 C 84.7366 -0.538867 -1.51502 0
M  V30 862 O 85.9266 -0.805545 -1.54456 0
M  V30 863 C 83.0586 -1.67528 -2.96896 0
M  V30 864 H 84.2516 -2.63321 -1.43534 0
M  V30 865 H 81.8046 -1.38992 -0.714914 0
M  V30 866 H 82.5396 -0.725837 -3.16073 0
M  V30 867 H 82.3246 -2.49504 -3.02473 0
M  V30 868 H 83.8146 -1.82667 -3.7553 0
M  V30 869 N 84.2517 0.741722 -1.39055 0
M  V30 870 C 85.2147 1.83733 -1.37021 0
M  V30 871 C 86.2147 1.58542 -0.268534 0
M  V30 872 O 87.4047 1.66067 -0.526076 0
M  V30 873 C 84.5367 3.2141 -1.13617 0
M  V30 874 H 85.7297 1.86941 -2.34506 0
M  V30 875 H 83.2827 0.944676 -1.24521 0
M  V30 876 H 84.0177 3.23865 -0.167863 0
M  V30 877 H 83.8027 3.4109 -1.93391 0
M  V30 878 H 85.2927 4.01477 -1.14918 0
M  V30 879 N 85.7298 1.2412 0.971189 0
M  V30 880 C 86.6928 1.03156 2.04674 0
M  V30 881 C 87.6928 -0.00990322 1.60797 0
M  V30 882 O 88.8828 0.230729 1.72665 0
M  V30 883 C 86.0148 0.562765 3.36223 0
M  V30 884 H 87.2078 1.98614 2.24705 0
M  V30 885 H 84.7608 1.06293 1.14593 0
M  V30 886 H 85.4958 -0.395176 3.21883 0
M  V30 887 H 85.2808 1.31441 3.69413 0
M  V30 888 H 86.7708 0.437015 4.15307 0
M  V30 889 N 87.2079 -1.17134 1.05439 0
M  V30 890 C 88.6239 -1.39454 0.776201 0
M  V30 891 C 88.8239 -1.91454 -0.628307 0
M  V30 892 O 87.8799 -2.10777 -1.39031 0
M  V30 893 C 89.1929 -2.38305 1.83388 0
M  V30 894 C 90.7409 -2.52006 1.85639 0
M  V30 895 C 91.2159 -3.54133 2.90437 0
M  V30 896 N 92.7069 -3.61653 2.89415 0
M  V30 897 C 93.4419 -4.4044 3.67152 0
M  V30 898 N 92.9379 -5.22721 4.54681 0
M  V30 899 N 94.7309 -4.35337 3.55581 0
M  V30 900 H 86.8819 -0.817134 1.96053 0
M  V30 901 H 89.1449 -0.421626 0.849079 0
M  V30 902 H 88.8509 -2.07173 2.84204 0
M  V30 903 H 88.7249 -3.37841 1.67761 0
M  V30 904 H 91.1119 -2.82447 0.85486 0
M  V30 905 H 91.1929 -1.52537 2.05344 0
M  V30 906 H 90.8369 -3.24431 3.90777 0
M  V30 907 H 90.7669 -4.53313 2.67983 0
M  V30 908 H 93.2579 -3.02909 2.25952 0
M  V30 909 H 93.5709 -5.80027 5.10674 0
M  V30 910 H 91.9159 -5.22093 4.58741 0
M  V30 911 H 95.1069 -3.70112 2.86592 0
M  V30 912 H 95.2799 -4.96494 4.1641 0
M  V30 913 N 88.686 -0.835752 -1.33615 0
M  V30 914 C 89.916 -0.442701 -2.01801 0
M  V30 915 C 90.324 0.959807 -1.63047 0
M  V30 916 O 89.667 1.63468 -0.838088 0
M  V30 917 C 89.729 -0.480125 -3.56279 0
M  V30 918 C 89.393 -1.8382 -4.18401 0
M  V30 919 C 90.39 -2.80097 -4.37998 0
M  V30 920 C 88.075 -2.13019 -4.54894 0
M  V30 921 C 90.069 -4.03736 -4.9323 0
M  V30 922 C 87.756 -3.36916 -5.09834 0
M  V30 923 C 88.754 -4.32091 -5.28948 0
M  V30 924 O 88.442 -5.53797 -5.82721 0
M  V30 925 H 88.174 -0.17441 -0.653114 0
M  V30 926 H 90.728 -1.129 -1.71589 0
M  V30 927 H 88.958 0.262931 -3.85805 0
M  V30 928 H 90.647 -0.105335 -4.05763 0
M  V30 929 H 91.413 -2.58838 -4.10156 0
M  V30 930 H 87.292 -1.39733 -4.39313 0
M  V30 931 H 90.836 -4.78034 -5.08064 0
M  V30 932 H 86.733 -3.58033 -5.37106 0
M  V30 933 H 87.501 -5.55494 -6.0114 0
M  V30 934 N 90.1641 1.46063 -0.591896 0
M  V30 935 C 91.3891 2.07226 -0.0850314 0
M  V30 936 C 91.8141 1.43625 1.21463 0
M  V30 937 O 91.1721 0.523305 1.73583 0
M  V30 938 C 91.2201 3.60554 0.0576567 0
M  V30 939 O 90.3241 3.97128 1.11188 0
M  V30 940 H 89.6651 0.660615 -0.0669568 0
M  V30 941 H 92.1951 1.8756 -0.81745 0
M  V30 942 H 92.2051 4.07165 0.2609 0
M  V30 943 H 90.8801 4.06235 -0.891416 0
M  V30 944 H 89.4571 3.62213 0.886356 0
M  V30 945 N 91.6422 0.330177 1.54103 0
M  V30 946 C 92.8672 -0.274893 2.0557 0
M  V30 947 C 93.2922 -1.44487 1.20437 0
M  V30 948 O 92.6502 -1.80021 0.214991 0
M  V30 949 C 92.6982 -0.68079 3.54115 0
M  V30 950 O 91.8022 -1.7824 3.71893 0
M  V30 951 H 91.1432 -0.0483849 0.662235 0
M  V30 952 H 93.6732 0.480508 1.98878 0
M  V30 953 H 93.6832 -0.961635 3.96505 0
M  V30 954 H 92.3582 0.174903 4.15532 0
M  V30 955 H 90.9352 -1.49985 3.41407 0
M  V30 956 N 93.1203 -1.57491 0.0584922 0
M  V30 957 C 94.3483 -1.97296 -0.623037 0
M  V30 958 C 94.7633 -0.936338 -1.63946 0
M  V30 959 O 94.1203 0.0785981 -1.82331 0
M  V30 960 C 94.1713 -3.37183 -1.30345 0
M  V30 961 O 93.8923 -4.36872 -0.32773 0
M  V30 962 C 95.3933 -3.91788 -2.07406 0
M  V30 963 H 92.6133 -0.649153 -0.169826 0
M  V30 964 H 95.1573 -2.04106 0.12696 0
M  V30 965 H 93.3123 -3.31502 -2.00463 0
M  V30 966 H 93.7263 -5.18141 -0.814269 0
M  V30 967 H 95.2003 -4.91926 -2.50425 0
M  V30 968 H 95.6773 -3.27609 -2.92521 0
M  V30 969 H 96.2833 -4.00829 -1.42184 0
M  V30 970 N 94.5984 0.214957 -1.56127 0
M  V30 971 C 95.5284 1.2695 -1.95974 0
M  V30 972 C 96.5094 1.48539 -0.828868 0
M  V30 973 O 97.6944 1.60611 -1.09168 0
M  V30 974 C 94.8244 2.61794 -2.28214 0
M  V30 975 C 93.7784 2.54851 -3.43853 0
M  V30 976 C 93.1044 3.93785 -3.61715 0
M  V30 977 C 94.4044 2.09065 -4.78632 0
M  V30 978 H 96.0984 0.93846 -2.84312 0
M  V30 979 H 93.6444 0.449996 -1.36788 0
M  V30 980 H 95.5974 3.35731 -2.54682 0
M  V30 981 H 94.3214 2.96599 -1.36736 0
M  V30 982 H 92.9804 1.8337 -3.17444 0
M  V30 983 H 92.6284 4.25908 -2.67602 0
M  V30 984 H 92.3284 3.90019 -4.39498 0
M  V30 985 H 93.8524 4.69374 -3.90539 0
M  V30 986 H 95.2664 2.7275 -5.04262 0
M  V30 987 H 93.6634 2.16346 -5.59745 0
M  V30 988 H 94.7334 1.04315 -4.73547 0
M  V30 989 N 96.0765 1.50051 0.48192 0
M  V30 990 C 97.3245 1.60181 1.23234 0
M  V30 991 C 97.6455 0.299176 1.92691 0
M  V30 992 O 96.9155 -0.682708 1.83619 0
M  V30 993 H 95.4955 0.590232 0.457859 0
M  V30 994 H 98.1575 1.86775 0.556881 0
M  V30 995 H 97.2535 2.40753 1.98607 0
M  V30 996 N 97.5546 -0.734337 1.39446 0
M  V30 997 C 98.8006 -1.49613 1.36908 0
M  V30 998 C 99.1336 -1.94169 -0.0347829 0
M  V30 999 O 98.4086 -1.66833 -0.999847 0
M  V30 1000 C 98.6916 -2.73534 2.34203 0
M  V30 1001 C 98.5446 -2.34993 3.83534 0
M  V30 1002 C 99.8636 -3.75635 2.29317 0
M  V30 1003 H 96.9826 -0.542714 0.498629 0
M  V30 1004 H 99.6246 -0.839597 1.70443 0
M  V30 1005 H 97.7746 -3.29553 2.05736 0
M  V30 1006 H 99.4466 -1.84601 4.22753 0
M  V30 1007 H 97.6896 -1.67213 4.00278 0
M  V30 1008 H 98.3606 -3.23738 4.47099 0
M  V30 1009 H 100.837 -3.29203 2.54489 0
M  V30 1010 H 99.7126 -4.60008 2.99472 0
M  V30 1011 H 99.9736 -4.22603 1.29842 0
M  V30 1012 N 99.0327 -1.24633 -0.964593 0
M  V30 1013 C 99.9957 -1.0424 -2.04124 0
M  V30 1014 C 100.996 0.00137563 -1.608 0
M  V30 1015 O 102.186 -0.239883 -1.7254 0
M  V30 1016 C 99.3177 -0.580588 -3.3592 0
M  V30 1017 H 100.511 -1.99803 -2.23649 0
M  V30 1018 H 98.0637 -1.06899 -1.14027 0
M  V30 1019 H 98.7987 0.3781 -3.22088 0
M  V30 1020 H 98.5837 -1.33398 -3.6871 0
M  V30 1021 H 100.074 -0.459034 -4.15069 0
M  V30 1022 N 100.511 1.16574 -1.06058 0
M  V30 1023 C 101.474 2.19085 -0.673392 0
M  V30 1024 C 102.474 1.5835 0.279648 0
M  V30 1025 O 103.664 1.74088 0.0623488 0
M  V30 1026 C 100.796 3.40899 0.00954234 0
M  V30 1027 H 101.989 2.54853 -1.58081 0
M  V30 1028 H 99.5418 1.30808 -0.855516 0
M  V30 1029 H 100.277 3.10684 0.929826 0
M  V30 1030 H 100.062 3.86233 -0.67573 0
M  V30 1031 H 101.552 4.1675 0.266245 0
M  V30 1032 N 101.989 0.842826 1.3317 0
M  V30 1033 C 103.235 0.441099 1.97945 0
M  V30 1034 C 103.568 -0.998024 1.66593 0
M  V30 1035 O 102.843 -1.69839 0.947898 0
M  V30 1036 C 103.126 0.666841 3.53872 0
M  V30 1037 C 102.979 2.15352 3.94897 0
M  V30 1038 C 104.298 0.115544 4.39948 0
M  V30 1039 H 101.417 0.161739 0.719034 0
M  V30 1040 H 104.059 1.05907 1.57746 0
M  V30 1041 H 102.209 0.140828 3.88245 0
M  V30 1042 H 103.881 2.7447 3.70761 0
M  V30 1043 H 102.124 2.63653 3.44484 0
M  V30 1044 H 102.795 2.26221 5.03516 0
M  V30 1045 H 105.271 0.565213 4.12243 0
M  V30 1046 H 104.147 0.303152 5.48062 0
M  V30 1047 H 104.408 -0.980935 4.3108 0
M  V30 1048 N 103.467 -1.45747 0.599634 0
M  V30 1049 C 104.695 -2.06668 0.0978551 0
M  V30 1050 C 105.11 -1.44562 -1.21439 0
M  V30 1051 O 104.467 -0.556923 -1.73795 0
M  V30 1052 C 104.518 -3.61456 -0.0567044 0
M  V30 1053 O 104.239 -4.21242 1.20361 0
M  V30 1054 C 105.74 -4.39345 -0.590869 0
M  V30 1055 H 102.96 -0.667825 0.0651943 0
M  V30 1056 H 105.504 -1.87115 0.82511 0
M  V30 1057 H 103.659 -3.80378 -0.734251 0
M  V30 1058 H 104.073 -5.14323 1.02821 0
M  V30 1059 H 105.547 -5.48182 -0.648131 0
M  V30 1060 H 106.024 -4.08568 -1.61147 0
M  V30 1061 H 106.63 -4.25268 0.0523679 0
M  V30 1062 N 104.945 -0.338344 -1.53925 0
M  V30 1063 C 106.175 0.260919 -2.04946 0
M  V30 1064 C 106.583 1.45174 -1.2133 0
M  V30 1065 O 105.926 1.82122 -0.240262 0
M  V30 1066 C 105.988 0.744596 -3.51704 0
M  V30 1067 C 105.652 -0.325883 -4.55837 0
M  V30 1068 C 106.649 -1.16687 -5.06636 0
M  V30 1069 C 104.334 -0.478317 -5.00017 0
M  V30 1070 C 106.328 -2.14588 -6.00192 0
M  V30 1071 C 104.015 -1.46073 -5.93385 0
M  V30 1072 C 105.013 -2.29297 -6.4336 0
M  V30 1073 O 104.701 -3.25867 -7.34892 0
M  V30 1074 H 104.433 0.0551207 -0.673749 0
M  V30 1075 H 106.987 -0.486984 -1.99544 0
M  V30 1076 H 105.217 1.54366 -3.54553 0
M  V30 1077 H 106.906 1.26383 -3.85723 0
M  V30 1078 H 107.672 -1.06016 -4.73271 0
M  V30 1079 H 103.551 0.159613 -4.60724 0
M  V30 1080 H 107.095 -2.79585 -6.39123 0
M  V30 1081 H 102.992 -1.56802 -6.26166 0
M  V30 1082 H 103.76 -3.21278 -7.5281 0
M  V30 1083 N 106.423 1.57458 -0.0668435 0
M  V30 1084 C 107.671 1.92919 0.602214 0
M  V30 1085 C 107.992 0.947215 1.70449 0
M  V30 1086 O 107.262 -0.00544117 1.95899 0
M  V30 1087 H 105.842 0.71217 0.22544 0
M  V30 1088 H 108.504 1.94508 -0.123535 0
M  V30 1089 H 107.6 2.94589 1.03073 0
M  V30 1090 N 107.901 -0.206675 1.56239 0
M  V30 1091 C 108.864 -1.23976 1.92776 0
M  V30 1092 C 109.864 -1.39041 0.807729 0
M  V30 1093 O 111.054 -1.37051 1.0753 0
M  V30 1094 C 108.186 -2.61112 2.19165 0
M  V30 1095 H 109.379 -0.927764 2.85189 0
M  V30 1096 H 106.932 -0.447718 1.4975 0
M  V30 1097 H 107.667 -2.97386 1.29352 0
M  V30 1098 H 107.452 -2.51552 3.00772 0
M  V30 1099 H 108.942 -3.35633 2.48476 0
M  V30 1100 N 109.379 -1.50304 -0.473955 0
M  V30 1101 C 110.627 -1.60832 -1.22382 0
M  V30 1102 C 110.948 -0.30939 -1.9253 0
M  V30 1103 O 110.218 0.67296 -1.83978 0
M  V30 1104 H 108.798 -0.592652 -0.454723 0
M  V30 1105 H 111.46 -1.87068 -0.546968 0
M  V30 1106 H 110.556 -2.41803 -1.97327 0
M  V30 1107 N 110.857 0.726932 -1.39834 0
M  V30 1108 C 111.82 1.82269 -1.38962 0
M  V30 1109 C 112.82 1.58248 -0.285334 0
M  V30 1110 O 114.01 1.65499 -0.54366 0
M  V30 1111 C 111.142 3.20186 -1.17019 0
M  V30 1112 H 112.335 1.84443 -2.36476 0
M  V30 1113 H 109.888 0.931416 -1.25516 0
M  V30 1114 H 110.623 3.23669 -0.202204 0
M  V30 1115 H 110.408 3.3902 -1.96998 0
M  V30 1116 H 111.898 4.00235 -1.1917 0
M  V30 1117 N 112.336 1.25143 0.95797 0
M  V30 1118 C 113.583 1.09692 1.70217 0
M  V30 1119 C 113.911 -0.362654 1.91089 0
M  V30 1120 O 113.166 -1.28386 1.47701 0
M  V30 1121 C 113.465 1.79272 3.09187 0
M  V30 1122 C 113.131 3.29196 3.08125 0
M  V30 1123 C 111.793 3.70096 3.07543 0
M  V30 1124 C 114.145 4.24995 3.0171 0
M  V30 1125 C 111.473 5.05213 2.9829 0
M  V30 1126 C 113.825 5.60132 2.93999 0
M  V30 1127 C 112.489 6.00365 2.9175 0
M  V30 1128 H 111.759 0.401393 0.622868 0
M  V30 1129 H 114.406 1.55372 1.11945 0
M  V30 1130 H 112.711 1.26014 3.70982 0
M  V30 1131 H 114.408 1.64773 3.65583 0
M  V30 1132 H 110.998 2.96651 3.09348 0
M  V30 1133 H 115.182 3.9439 3.01281 0
M  V30 1134 H 110.438 5.35569 2.94916 0
M  V30 1135 H 114.612 6.3406 2.87996 0
M  V30 1136 H 112.239 7.05023 2.84336 0
M  V30 1137 N 113.814 -1.1601 1.06675 0
M  V30 1138 C 114.762 -2.22586 0.675157 0
M  V30 1139 C 115.756 -1.66525 -0.310766 0
M  V30 1140 O 116.962 -1.79145 -0.175215 0
M  V30 1141 H 113.337 -0.724855 0.200223 0
M  V30 1142 H 115.308 -2.52899 1.58381 0
M  V30 1143 C 114.057 -3.47604 0.0817162 0
M  V30 1144 H 113.38 -3.91058 0.831484 0
M  V30 1145 H 114.82 -4.23718 -0.154708 0
M  V30 1146 C 113.279 -3.15718 -1.17576 0
M  V30 1147 O 113.809 -3.31878 -2.26318 0
M  V30 1148 N 112.015 -2.69816 -1.07923 0
M  V30 1149 H 111.562 -2.56866 -0.194293 0
M  V30 1150 H 111.52 -2.48855 -1.92141 0
M  V30 1151 N 115.292 -0.849877 -1.32721 0
M  V30 1152 C 116.225 -0.235903 -2.26977 0
M  V30 1153 C 117.203 0.623355 -1.50177 0
M  V30 1154 O 118.387 0.581207 -1.79316 0
M  V30 1155 C 115.514 0.667712 -3.32053 0
M  V30 1156 C 114.56 -0.11753 -4.26338 0
M  V30 1157 S 115.393 -1.48277 -5.14562 0
M  V30 1158 C 116.549 -0.584741 -6.23163 0
M  V30 1159 H 116.782 -1.03495 -2.78704 0
M  V30 1160 H 114.315 -0.64724 -1.40179 0
M  V30 1161 H 116.273 1.18343 -3.93072 0
M  V30 1162 H 114.934 1.44052 -2.7912 0
M  V30 1163 H 114.127 0.57051 -5.00761 0
M  V30 1164 H 113.729 -0.564668 -3.69713 0
M  V30 1165 H 116.021 0.212968 -6.77165 0
M  V30 1166 H 116.964 -1.29947 -6.96074 0
M  V30 1167 H 117.372 -0.161202 -5.6427 0
M  V30 1168 N 116.77 1.45427 -0.607355 0
M  V30 1169 C 118.016 2.0254 -0.102607 0
M  V30 1170 C 118.349 1.47478 1.26348 0
M  V30 1171 O 117.624 0.64939 1.83339 0
M  V30 1172 C 117.907 3.60044 -0.0634347 0
M  V30 1173 C 117.76 4.2544 -1.46017 0
M  V30 1174 C 119.079 4.35646 0.624514 0
M  V30 1175 H 116.198 0.73598 -0.0387607 0
M  V30 1176 H 118.84 1.73284 -0.779282 0
M  V30 1177 H 116.99 3.85101 0.512808 0
M  V30 1178 H 118.662 4.11569 -2.08347 0
M  V30 1179 H 116.905 3.83849 -2.02094 0
M  V30 1180 H 117.576 5.34342 -1.385 0
M  V30 1181 H 120.052 4.15882 0.134723 0
M  V30 1182 H 118.928 5.45376 0.621028 0
M  V30 1183 H 119.189 4.08501 1.69055 0
M  V30 1184 N 118.248 0.346503 1.53744 0
M  V30 1185 C 119.196 -0.52422 2.26616 0
M  V30 1186 C 120.19 -1.09948 1.28871 0
M  V30 1187 O 121.396 -1.04488 1.46568 0
M  V30 1188 H 117.771 -0.187743 0.728187 0
M  V30 1189 H 119.742 0.11239 2.98188 0
M  V30 1190 C 118.491 -1.66186 3.05414 0
M  V30 1191 H 117.814 -1.22848 3.80458 0
M  V30 1192 H 119.254 -2.24622 3.59612 0
M  V30 1193 C 117.713 -2.59302 2.1509 0
M  V30 1194 O 118.243 -3.61628 1.74895 0
M  V30 1195 N 116.449 -2.28055 1.8011 0
M  V30 1196 H 115.996 -1.44883 2.12994 0
M  V30 1197 H 115.954 -2.90615 1.19958 0
M  V30 1198 N 119.726 -1.57421 0.075193 0
M  V30 1199 C 120.689 -2.11791 -0.876203 0
M  V30 1200 C 121.689 -1.04268 -1.22412 0
M  V30 1201 O 122.879 -1.30242 -1.15684 0
M  V30 1202 C 120.011 -2.62207 -2.17854 0
M  V30 1203 H 121.204 -2.9716 -0.40444 0
M  V30 1204 H 118.757 -1.55333 -0.173557 0
M  V30 1205 H 119.492 -1.803 -2.6956 0
M  V30 1206 H 119.277 -3.40802 -1.93897 0
M  V30 1207 H 120.767 -3.04335 -2.85955 0
M  V30 1208 N 121.204 0.198386 -1.56346 0
M  V30 1209 C 122.45 0.920648 -1.80698 0
M  V30 1210 C 122.783 1.83045 -0.648697 0
M  V30 1211 O 122.058 1.91308 0.350925 0
M  V30 1212 C 122.341 1.73971 -3.15287 0
M  V30 1213 C 122.194 0.85485 -4.41602 0
M  V30 1214 C 123.513 2.71296 -3.46535 0
M  V30 1215 H 120.632 0.333261 -0.657348 0
M  V30 1216 H 123.274 0.188198 -1.89066 0
M  V30 1217 H 121.424 2.36416 -3.08285 0
M  V30 1218 H 123.096 0.245362 -4.60647 0
M  V30 1219 H 121.339 0.161398 -4.335 0
M  V30 1220 H 122.01 1.46286 -5.32264 0
M  V30 1221 H 124.486 2.18983 -3.53816 0
M  V30 1222 H 123.362 3.2569 -4.41834 0
M  V30 1223 H 123.623 3.5018 -2.69864 0
M  V30 1224 N 122.682 1.50554 0.465978 0
M  V30 1225 C 123.645 1.69233 1.54574 0
M  V30 1226 C 124.645 0.562901 1.50626 0
M  V30 1227 O 125.835 0.830016 1.53155 0
M  V30 1228 C 122.967 1.7223 2.94193 0
M  V30 1229 H 124.16 2.65571 1.39327 0
M  V30 1230 H 121.713 1.40111 0.692711 0
M  V30 1231 H 122.448 0.77603 3.14878 0
M  V30 1232 H 122.233 2.54285 2.98466 0
M  V30 1233 H 123.723 1.88618 3.72576 0
M  V30 1234 N 124.16 -0.719506 1.40217 0
M  V30 1235 C 125.408 -1.47641 1.3801 0
M  V30 1236 C 125.729 -1.94992 -0.018145 0
M  V30 1237 O 124.999 -1.70073 -0.972207 0
M  V30 1238 H 123.579 -0.547744 0.507923 0
M  V30 1239 H 126.241 -0.853187 1.75233 0
M  V30 1240 H 125.337 -2.35112 2.05253 0
M  V30 1241 N 125.638 -1.25649 -0.95132 0
M  V30 1242 C 126.601 -1.06399 -2.03007 0
M  V30 1243 C 127.601 -0.0156794 -1.60792 0
M  V30 1244 O 128.791 -0.25817 -1.72276 0
M  V30 1245 C 125.923 -0.616184 -3.35285 0
M  V30 1246 H 127.116 -2.02164 -2.21517 0
M  V30 1247 H 124.669 -1.08103 -1.12887 0
M  V30 1248 H 125.404 0.343917 -3.22471 0
M  V30 1249 H 125.189 -1.37301 -3.67275 0
M  V30 1250 H 126.679 -0.503032 -4.14559 0
M  V30 1251 N 127.117 1.15442 -1.07289 0
M  V30 1252 C 128.347 1.89821 -0.815576 0
M  V30 1253 C 128.755 1.7823 0.634867 0
M  V30 1254 O 128.098 1.13152 1.44715 0
M  V30 1255 C 128.16 3.40817 -1.14385 0
M  V30 1256 C 127.824 3.76193 -2.59476 0
M  V30 1257 C 128.821 3.77269 -3.57721 0
M  V30 1258 C 126.506 4.0652 -2.95037 0
M  V30 1259 C 128.5 4.08176 -4.89562 0
M  V30 1260 C 126.187 4.37092 -4.27076 0
M  V30 1261 C 127.185 4.37902 -5.24148 0
M  V30 1262 O 126.873 4.67741 -6.53815 0
M  V30 1263 H 126.605 0.608465 -0.294528 0
M  V30 1264 H 129.159 1.472 -1.43252 0
M  V30 1265 H 127.389 3.83835 -0.469865 0
M  V30 1266 H 129.078 3.96485 -0.869179 0
M  V30 1267 H 129.844 3.5394 -3.3159 0
M  V30 1268 H 125.723 4.05049 -2.20128 0
M  V30 1269 H 129.267 4.08723 -5.65324 0
M  V30 1270 H 125.164 4.59889 -4.5296 0
M  V30 1271 H 125.932 4.85509 -6.58957 0
M  V30 1272 N 128.595 0.856903 1.32268 0
M  V30 1273 C 129.558 0.308171 2.27119 0
M  V30 1274 C 130.558 -0.533421 1.51695 0
M  V30 1275 O 131.748 -0.344607 1.70757 0
M  V30 1276 C 128.88 -0.563757 3.36206 0
M  V30 1277 H 130.073 1.14535 2.77167 0
M  V30 1278 H 127.626 0.631421 1.42978 0
M  V30 1279 H 128.361 -1.42266 2.91429 0
M  V30 1280 H 128.146 0.0386749 3.92081 0
M  V30 1281 H 129.636 -0.940386 4.06874 0
M  V30 1282 N 130.073 -1.45103 0.615059 0
M  V30 1283 C 130.983 -2.34382 -0.101034 0
M  V30 1284 C 131.999 -1.51681 -0.852585 0
M  V30 1285 O 133.175 -1.8446 -0.808484 0
M  V30 1286 C 130.24 -3.29417 -1.08099 0
M  V30 1287 C 129.301 -4.28025 -0.330577 0
M  V30 1288 C 128.534 -5.1852 -1.26385 0
M  V30 1289 O 128.757 -5.12598 -2.50198 0
M  V30 1290 O 127.691 -5.97122 -0.756866 0
M  V30 1291 H 131.517 -2.97033 0.632855 0
M  V30 1292 H 129.102 -1.4461 0.375293 0
M  V30 1293 H 130.984 -3.87958 -1.6452 0
M  V30 1294 H 129.659 -2.69321 -1.79577 0
M  V30 1295 H 128.566 -3.73078 0.276283 0
M  V30 1296 H 129.899 -4.90997 0.343866 0
M  V30 1297 N 131.551 -0.354651 -1.53558 0
M  V30 1298 C 132.498 0.496968 -2.25386 0
M  V30 1299 C 133.468 1.0865 -1.25636 0
M  V30 1300 O 134.653 1.12104 -1.54394 0
M  V30 1301 C 131.793 1.63637 -3.03837 0
M  V30 1302 C 130.906 1.07307 -4.18461 0
M  V30 1303 C 130.041 2.18068 -4.84376 0
M  V30 1304 C 129.08 1.59147 -5.91049 0
M  V30 1305 N 128.217 2.63695 -6.50699 0
M  V30 1306 H 133.057 -0.122075 -2.9775 0
M  V30 1307 H 130.594 -0.0720154 -1.46924 0
M  V30 1308 H 132.552 2.30734 -3.47589 0
M  V30 1309 H 131.182 2.22623 -2.33749 0
M  V30 1310 H 130.234 0.292708 -3.79272 0
M  V30 1311 H 131.546 0.602193 -4.95152 0
M  V30 1312 H 130.7 2.93007 -5.31255 0
M  V30 1313 H 129.439 2.68504 -4.07133 0
M  V30 1314 H 128.444 0.827175 -5.43542 0
M  V30 1315 H 129.669 1.09549 -6.70206 0
M  V30 1316 H 127.615 3.13365 -5.76315 0
M  V30 1317 H 127.532 2.21263 -7.22896 0
M  V30 1318 H 128.8 3.3837 -7.02229 0
M  V30 1319 N 133.029 1.57378 -0.0835403 0
M  V30 1320 C 134.254 1.98682 0.594987 0
M  V30 1321 C 134.679 0.961969 1.61641 0
M  V30 1322 O 134.037 -0.0709989 1.81161 0
M  V30 1323 C 134.085 3.38988 1.2296 0
M  V30 1324 O 133.189 3.39208 2.34546 0
M  V30 1325 H 132.53 0.646368 0.152002 0
M  V30 1326 H 135.06 2.03961 -0.161533 0
M  V30 1327 H 135.07 3.76431 1.57366 0
M  V30 1328 H 133.745 4.13107 0.481228 0
M  V30 1329 H 132.322 3.13548 2.01846 0
M  V30 1330 N 134.507 -0.190092 1.56449 0
M  V30 1331 C 135.918 -0.754312 1.70784 0
M  V30 1332 C 136.269 -1.83631 0.690951 0
M  V30 1333 O 135.394 -2.15868 -0.151604 0
M  V30 1334 C 135.989 -1.37503 3.09642 0
M  V30 1335 C 134.548 -1.88628 3.25725 0
M  V30 1336 C 133.695 -0.758098 2.66736 0
M  V30 1337 H 136.646 0.0350524 1.58661 0
M  V30 1338 H 136.667 -2.2445 3.0725 0
M  V30 1339 H 136.179 -0.587302 3.83631 0
M  V30 1340 H 134.28 -2.70103 2.56661 0
M  V30 1341 H 134.393 -2.04462 4.3328 0
M  V30 1342 H 132.757 -1.17369 2.26046 0
M  V30 1343 H 133.54 0.0174705 3.43296 0
M  V30 1344 N 135.985 -1.50799 -0.457987 0
M  V30 1345 C 137.231 -1.62683 -1.21088 0
M  V30 1346 C 137.564 -0.332268 -1.91336 0
M  V30 1347 O 136.839 0.667043 -1.82704 0
M  V30 1348 C 137.122 -2.81615 -2.24422 0
M  V30 1349 C 136.975 -4.20989 -1.58392 0
M  V30 1350 C 138.294 -2.96085 -3.2561 0
M  V30 1351 H 135.413 -0.592087 -0.438864 0
M  V30 1352 H 138.055 -1.83225 -0.50286 0
M  V30 1353 H 136.205 -2.64231 -2.84806 0
M  V30 1354 H 137.877 -4.49994 -1.01504 0
M  V30 1355 H 136.12 -4.24641 -0.886704 0
M  V30 1356 H 136.791 -5.0016 -2.33547 0
M  V30 1357 H 139.267 -3.12042 -2.75262 0
M  V30 1358 H 138.143 -3.80902 -3.95228 0
M  V30 1359 H 138.404 -2.0726 -3.90507 0
M  V30 1360 N 137.463 0.71206 -1.40597 0
M  V30 1361 C 138.709 1.47416 -1.39271 0
M  V30 1362 C 139.042 1.942 0.00388791 0
M  V30 1363 O 138.317 1.68403 0.973179 0
M  V30 1364 C 138.6 2.69774 -2.38525 0
M  V30 1365 C 138.453 2.28861 -3.87224 0
M  V30 1366 C 139.772 3.71939 -2.35264 0
M  V30 1367 H 136.891 0.534713 -0.5072 0
M  V30 1368 H 139.533 0.812375 -1.71757 0
M  V30 1369 H 137.683 3.26238 -2.10953 0
M  V30 1370 H 139.355 1.77852 -4.25636 0
M  V30 1371 H 137.598 1.60824 -4.02887 0
M  V30 1372 H 138.269 3.16584 -4.52193 0
M  V30 1373 H 140.745 3.25113 -2.59694 0
M  V30 1374 H 139.621 4.55186 -3.06753 0
M  V30 1375 H 139.882 4.20484 -1.36549 0
M  V30 1376 N 138.941 1.26152 0.944643 0
M  V30 1377 C 140.187 1.11657 1.69294 0
M  V30 1378 C 140.52 -0.339926 1.91202 0
M  V30 1379 O 139.795 -1.24994 1.49019 0
M  V30 1380 C 140.078 1.88236 3.06984 0
M  V30 1381 C 139.931 3.41772 2.92424 0
M  V30 1382 C 141.25 1.67343 4.07043 0
M  V30 1383 H 138.369 0.407004 0.614424 0
M  V30 1384 H 141.011 1.55106 1.09737 0
M  V30 1385 H 139.161 1.51308 3.57824 0
M  V30 1386 H 140.833 3.88433 2.48832 0
M  V30 1387 H 139.076 3.68974 2.28124 0
M  V30 1388 H 139.747 3.90579 3.90067 0
M  V30 1389 H 142.223 1.99509 3.65151 0
M  V30 1390 H 141.099 2.23346 5.01406 0
M  V30 1391 H 141.36 0.617158 4.37771 0
M  V30 1392 N 140.419 -1.14872 1.07899 0
M  V30 1393 C 141.668 -1.85135 0.800499 0
M  V30 1394 C 141.981 -1.83547 -0.676014 0
M  V30 1395 O 143.187 -2.49548 -1.06948 0
M  V30 1396 C 141.643 -3.3231 1.38197 0
M  V30 1397 C 141.251 -3.42329 2.8899 0
M  V30 1398 C 142.995 -4.0772 1.18174 0
M  V30 1399 C 140.902 -4.83684 3.403 0
M  V30 1400 H 139.832 -0.693563 0.29578 0
M  V30 1401 H 142.483 -1.29532 1.29976 0
M  V30 1402 H 140.865 -3.87618 0.810431 0
M  V30 1403 H 142.039 -2.97097 3.52236 0
M  V30 1404 H 140.354 -2.80369 3.07867 0
M  V30 1405 H 142.951 -5.12049 1.5398 0
M  V30 1406 H 143.294 -4.16124 0.12117 0
M  V30 1407 H 143.827 -3.58696 1.71994 0
M  V30 1408 H 140.566 -4.80465 4.45907 0
M  V30 1409 H 140.086 -5.29474 2.81811 0
M  V30 1410 H 141.765 -5.52558 3.36584 0
M  V30 1411 N 141.898 -0.863906 -1.31812 0
M  V30 1412 C 143.123 -0.48527 -2.01643 0
M  V30 1413 C 143.548 0.913058 -1.64453 0
M  V30 1414 O 142.906 1.6014 -0.849985 0
M  V30 1415 C 142.954 -0.642625 -3.54828 0
M  V30 1416 O 142.058 0.320659 -4.11151 0
M  V30 1417 H 141.399 -0.193793 -0.635091 0
M  V30 1418 H 143.929 -1.16565 -1.68148 0
M  V30 1419 H 143.939 -0.533628 -4.04495 0
M  V30 1420 H 142.614 -1.66227 -3.81237 0
M  V30 1421 H 141.191 0.167126 -3.72525 0
M  V30 1422 N 143.376 1.44774 -0.622745 0
M  V30 1423 C 144.624 2.01721 -0.123655 0
M  V30 1424 C 144.945 1.49172 1.25589 0
M  V30 1425 O 144.215 0.691974 1.83272 0
M  V30 1426 H 142.795 0.745777 -0.0427225 0
M  V30 1427 H 145.457 1.77382 -0.807559 0
M  V30 1428 H 144.553 3.11984 -0.0849534 0
M  V30 1429 N 144.854 0.36279 1.53368 0
M  V30 1430 C 145.817 -0.472679 2.24273 0
M  V30 1431 C 146.817 -1.012 1.24961 0
M  V30 1432 O 148.007 -0.898194 1.49259 0
M  V30 1433 C 145.139 -1.66039 2.97731 0
M  V30 1434 H 146.332 0.14773 2.99536 0
M  V30 1435 H 143.885 0.114434 1.55881 0
M  V30 1436 H 144.62 -2.31896 2.26704 0
M  V30 1437 H 144.405 -1.28066 3.70596 0
M  V30 1438 H 145.895 -2.25252 3.51641 0
M  V30 1439 N 146.332 -1.57332 0.0918853 0
M  V30 1440 C 147.743 -1.81496 -0.437739 0
M  V30 1441 C 148.094 -1.00727 -1.6837 0
M  V30 1442 O 147.219 -0.235694 -2.15113 0
M  V30 1443 C 147.814 -3.29197 -0.800939 0
M  V30 1444 C 146.373 -3.54136 -1.27532 0
M  V30 1445 C 145.52 -2.75979 -0.270392 0
M  V30 1446 H 148.471 -1.55494 0.317366 0
M  V30 1447 H 148.492 -3.42344 -1.66074 0
M  V30 1448 H 148.004 -3.87955 0.106078 0
M  V30 1449 H 146.105 -3.00705 -2.20016 0
M  V30 1450 H 146.218 -4.62792 -1.23938 0
M  V30 1451 H 144.582 -2.43349 -0.751872 0
M  V30 1452 H 145.365 -3.37484 0.629248 0
M  V30 1453 N 147.81 0.181792 -1.56548 0
M  V30 1454 C 149.058 0.89832 -1.81038 0
M  V30 1455 C 149.379 1.83232 -0.667164 0
M  V30 1456 O 148.649 1.93372 0.313673 0
M  V30 1457 H 147.229 0.33471 -0.667816 0
M  V30 1458 H 149.891 0.184116 -1.94028 0
M  V30 1459 H 148.987 1.4815 -2.74696 0
M  V30 1460 N 149.288 1.51039 0.449983 0
M  V30 1461 C 150.516 1.66869 1.2232 0
M  V30 1462 C 150.931 0.360727 1.85322 0
M  V30 1463 O 150.288 -0.659531 1.70166 0
M  V30 1464 C 150.339 2.77524 2.31652 0
M  V30 1465 O 150.06 4.03252 1.7123 0
M  V30 1466 C 151.561 3.04512 3.2216 0
M  V30 1467 H 148.781 0.560326 0.369155 0
M  V30 1468 H 151.325 1.97385 0.534719 0
M  V30 1469 H 149.48 2.49642 2.96239 0
M  V30 1470 H 149.894 4.64609 2.43389 0
M  V30 1471 H 151.368 3.85551 3.95038 0
M  V30 1472 H 151.845 2.16415 3.8218 0
M  V30 1473 H 152.451 3.34005 2.63288 0
M  V30 1474 N 150.766 -0.704594 1.40972 0
M  V30 1475 C 151.994 -1.49354 1.43182 0
M  V30 1476 C 152.409 -1.88768 0.0345508 0
M  V30 1477 O 151.766 -1.56184 -0.944081 0
M  V30 1478 C 151.817 -2.76187 2.33244 0
M  V30 1479 O 151.538 -2.38436 3.67532 0
M  V30 1480 C 153.039 -3.7 2.44162 0
M  V30 1481 H 150.259 -0.460559 0.487982 0
M  V30 1482 H 152.803 -0.868261 1.85153 0
M  V30 1483 H 150.958 -3.34974 1.94606 0
M  V30 1484 H 151.372 -3.20126 4.15475 0
M  V30 1485 H 152.846 -4.55803 3.11364 0
M  V30 1486 H 153.323 -4.13867 1.47006 0
M  V30 1487 H 153.929 -3.17121 2.83398 0
M  V30 1488 N 152.244 -1.26651 -0.937939 0
M  V30 1489 C 153.154 -1.10276 -2.07066 0
M  V30 1490 C 154.17 -0.0354197 -1.73964 0
M  V30 1491 O 155.346 -0.239816 -1.99967 0
M  V30 1492 C 152.411 -0.740887 -3.38691 0
M  V30 1493 C 151.472 -1.88799 -3.85556 0
M  V30 1494 C 150.705 -1.54329 -5.10899 0
M  V30 1495 O 150.928 -0.446494 -5.6865 0
M  V30 1496 O 149.862 -2.37911 -5.52885 0
M  V30 1497 H 153.688 -2.05309 -2.23789 0
M  V30 1498 H 151.273 -1.05743 -1.0554 0
M  V30 1499 H 153.155 -0.55195 -4.1777 0
M  V30 1500 H 151.83 0.180022 -3.23199 0
M  V30 1501 H 150.737 -2.13191 -3.07409 0
M  V30 1502 H 152.07 -2.78874 -4.05574 0
M  V30 1503 N 153.722 1.14298 -1.08507 0
M  V30 1504 C 154.97 1.84993 -0.813763 0
M  V30 1505 C 155.291 1.83405 0.662393 0
M  V30 1506 O 154.561 1.28319 1.48024 0
M  V30 1507 H 153.141 0.684966 -0.298045 0
M  V30 1508 H 155.803 1.385 -1.37126 0
M  V30 1509 H 154.899 2.89788 -1.15884 0
M  V30 1510 N 155.201 0.870884 1.31352 0
M  V30 1511 C 156.149 0.316445 2.30437 0
M  V30 1512 C 157.143 -0.568965 1.59559 0
M  V30 1513 O 158.349 -0.454964 1.74155 0
M  V30 1514 H 154.724 0.0836521 0.747333 0
M  V30 1515 H 156.695 1.16606 2.74673 0
M  V30 1516 C 155.444 -0.46635 3.44558 0
M  V30 1517 H 154.767 0.205687 3.99271 0
M  V30 1518 H 156.207 -0.819614 4.16003 0
M  V30 1519 C 154.666 -1.65797 2.9328 0
M  V30 1520 O 155.196 -2.75728 2.92125 0
M  V30 1521 N 153.402 -1.49041 2.4947 0
M  V30 1522 H 152.949 -0.59612 2.50608 0
M  V30 1523 H 152.907 -2.28911 2.15516 0
M  V30 1524 N 156.679 -1.44442 0.630414 0
M  V30 1525 C 157.642 -2.29107 -0.0652523 0
M  V30 1526 C 158.642 -1.41002 -0.772995 0
M  V30 1527 O 159.832 -1.62881 -0.617692 0
M  V30 1528 C 156.964 -3.22564 -1.10296 0
M  V30 1529 H 158.157 -2.92103 0.679401 0
M  V30 1530 H 155.71 -1.51343 0.390517 0
M  V30 1531 H 156.445 -2.64416 -1.87762 0
M  V30 1532 H 156.23 -3.87491 -0.59941 0
M  V30 1533 H 157.72 -3.86167 -1.5895 0
M  V30 1534 N 158.157 -0.370918 -1.53173 0
M  V30 1535 C 159.405 0.216673 -2.00935 0
M  V30 1536 C 159.726 1.48845 -1.25977 0
M  V30 1537 O 158.996 1.92286 -0.374551 0
M  V30 1538 H 157.576 0.0830565 -0.742368 0
M  V30 1539 H 160.238 -0.49838 -1.8842 0
M  V30 1540 H 159.334 0.439893 -3.08984 0
M  V30 1541 N 159.635 1.57281 -0.100228 0
M  V30 1542 C 160.565 2.17328 0.853857 0
M  V30 1543 C 161.546 1.10804 1.2906 0
M  V30 1544 O 162.731 1.38963 1.35657 0
M  V30 1545 C 159.861 2.75772 2.11109 0
M  V30 1546 C 158.815 3.87713 1.81279 0
M  V30 1547 C 158.141 4.32882 3.13874 0
M  V30 1548 C 159.441 5.10677 1.09574 0
M  V30 1549 H 161.135 2.97305 0.353545 0
M  V30 1550 H 158.681 1.43009 0.168612 0
M  V30 1551 H 160.634 3.16433 2.78296 0
M  V30 1552 H 159.358 1.93057 2.63432 0
M  V30 1553 H 158.017 3.476 1.16489 0
M  V30 1554 H 157.665 3.47051 3.64095 0
M  V30 1555 H 157.365 5.08358 2.94696 0
M  V30 1556 H 158.889 4.7618 3.82211 0
M  V30 1557 H 160.303 5.48474 1.66879 0
M  V30 1558 H 158.7 5.91615 1.00557 0
M  V30 1559 H 159.77 4.84835 0.0793299 0
M  V30 1560 N 161.113 -0.173488 1.56642 0
M  V30 1561 C 162.043 -1.2171 1.99271 0
M  V30 1562 C 163.024 -1.46289 0.867959 0
M  V30 1563 O 164.209 -1.5766 1.13388 0
M  V30 1564 C 161.339 -2.55651 2.35074 0
M  V30 1565 C 160.293 -2.45645 3.50489 0
M  V30 1566 C 159.619 -3.84056 3.72028 0
M  V30 1567 C 160.919 -1.96302 4.84007 0
M  V30 1568 H 162.613 -0.86275 2.867 0
M  V30 1569 H 160.159 -0.413571 1.37933 0
M  V30 1570 H 162.112 -3.2886 2.63494 0
M  V30 1571 H 160.836 -2.92869 1.44552 0
M  V30 1572 H 159.495 -1.7489 3.22194 0
M  V30 1573 H 159.143 -4.18664 2.788 0
M  V30 1574 H 158.843 -3.7823 4.49684 0
M  V30 1575 H 160.367 -4.58854 4.02846 0
M  V30 1576 H 161.781 -2.59284 5.11317 0
M  V30 1577 H 160.178 -2.01429 5.65284 0
M  V30 1578 H 161.248 -0.917226 4.76146 0
M  V30 1579 N 162.591 -1.51276 -0.441967 0
M  V30 1580 C 163.521 -1.752 -1.54361 0
M  V30 1581 C 164.502 -0.601682 -1.59103 0
M  V30 1582 O 165.687 -0.843913 -1.74905 0
M  V30 1583 C 162.817 -1.87282 -2.92477 0
M  V30 1584 C 161.771 -3.02687 -3.02596 0
M  V30 1585 C 161.097 -2.99947 -4.42647 0
M  V30 1586 C 162.397 -4.4273 -2.77106 0
M  V30 1587 H 164.091 -2.67442 -1.34592 0
M  V30 1588 H 161.637 -1.28694 -0.646048 0
M  V30 1589 H 163.59 -2.02602 -3.695 0
M  V30 1590 H 162.314 -0.916844 -3.13467 0
M  V30 1591 H 160.973 -2.87065 -2.28012 0
M  V30 1592 H 160.621 -2.02136 -4.60597 0
M  V30 1593 H 160.321 -3.77439 -4.50348 0
M  V30 1594 H 161.845 -3.17354 -5.2165 0
M  V30 1595 H 163.259 -4.58727 -3.43864 0
M  V30 1596 H 161.656 -5.21893 -2.96222 0
M  V30 1597 H 162.726 -4.53087 -1.72744 0
M  V30 1598 N 164.069 0.697108 -1.41344 0
M  V30 1599 C 165.019 1.80313 -1.39539 0
M  V30 1600 C 166.003 1.58618 -0.270001 0
M  V30 1601 O 167.195 1.69477 -0.510551 0
M  V30 1602 C 164.324 3.18606 -1.27848 0
M  V30 1603 C 163.41 3.46001 -2.45244 0
M  V30 1604 N 163.801 3.44103 -3.70711 0
M  V30 1605 C 162.099 3.76542 -2.39023 0
M  V30 1606 C 162.8 3.7036 -4.48563 0
M  V30 1607 N 161.776 3.90027 -3.78655 0
M  V30 1608 H 165.578 1.77207 -2.34468 0
M  V30 1609 H 163.092 0.897031 -1.35378 0
M  V30 1610 H 165.089 3.97833 -1.24637 0
M  V30 1611 H 163.749 3.22925 -0.339032 0
M  V30 1612 H 164.76 3.2452 -4.03618 0
M  V30 1613 H 161.437 3.88241 -1.53542 0
M  V30 1614 H 162.827 3.75042 -5.57488 0
M  V30 1615 N 165.547 1.27147 0.931209 0
M  V30 1616 C 166.497 1.06227 2.01742 0
M  V30 1617 C 167.481 -0.00859065 1.60898 0
M  V30 1618 O 168.673 0.209537 1.75755 0
M  V30 1619 C 165.802 0.707787 3.35924 0
M  V30 1620 C 164.888 1.81661 3.83223 0
M  V30 1621 N 165.279 3.05564 4.03069 0
M  V30 1622 C 163.577 1.70249 4.12227 0
M  V30 1623 C 164.278 3.77697 4.42403 0
M  V30 1624 N 163.254 3.0544 4.49675 0
M  V30 1625 H 167.056 2.00261 2.15111 0
M  V30 1626 H 164.57 1.1781 1.11779 0
M  V30 1627 H 166.567 0.539043 4.134 0
M  V30 1628 H 165.227 -0.224964 3.2392 0
M  V30 1629 H 166.238 3.41363 3.89476 0
M  V30 1630 H 162.915 0.840329 4.08956 0
M  V30 1631 H 164.305 4.84168 4.65866 0
M  V30 1632 N 167.025 -1.13721 1.09112 0
M  V30 1633 C 167.957 -2.1871 0.685467 0
M  V30 1634 C 168.97 -1.60527 -0.271068 0
M  V30 1635 O 170.159 -1.78407 -0.0576148 0
M  V30 1636 C 167.259 -3.38898 -0.0111255 0
M  V30 1637 C 166.432 -4.26597 0.966131 0
M  V30 1638 C 165.491 -5.25324 0.303539 0
M  V30 1639 O 164.517 -5.61213 0.950177 0
M  V30 1640 N 165.719 -5.72779 -0.943651 0
M  V30 1641 H 168.484 -2.54126 1.58871 0
M  V30 1642 H 166.045 -1.29012 0.978143 0
M  V30 1643 H 168.037 -4.02014 -0.465517 0
M  V30 1644 H 166.607 -3.01747 -0.816565 0
M  V30 1645 H 165.827 -3.60306 1.59917 0
M  V30 1646 H 167.115 -4.82048 1.6281 0
M  V30 1647 H 166.513 -5.45762 -1.48862 0
M  V30 1648 H 165.07 -6.37847 -1.34142 0
M  V30 1649 N 168.503 -0.877838 -1.30888 0
M  V30 1650 C 169.751 -0.491723 -1.96027 0
M  V30 1651 C 170.072 0.960827 -1.69685 0
M  V30 1652 O 169.342 1.67462 -1.01654 0
M  V30 1653 H 167.922 -0.17885 -0.725273 0
M  V30 1654 H 170.584 -1.11935 -1.59551 0
M  V30 1655 H 169.68 -0.656016 -3.05128 0
M  V30 1656 N 169.982 1.44106 -0.638065 0
M  V30 1657 C 171.398 1.56672 -0.304286 0
M  V30 1658 C 171.598 1.6244 1.19228 0
M  V30 1659 O 170.654 1.57121 1.9766 0
M  V30 1660 C 171.967 2.83503 -1.00231 0
M  V30 1661 C 173.515 2.97226 -0.981116 0
M  V30 1662 C 173.99 4.26868 -1.65974 0
M  V30 1663 N 175.481 4.33698 -1.62666 0
M  V30 1664 C 176.216 5.32745 -2.12063 0
M  V30 1665 N 175.712 6.38157 -2.6968 0
M  V30 1666 N 177.505 5.24299 -2.02651 0
M  V30 1667 H 169.656 1.38605 -1.60942 0
M  V30 1668 H 171.919 0.664661 -0.675965 0
M  V30 1669 H 171.625 2.85251 -2.0573 0
M  V30 1670 H 171.499 3.73251 -0.54439 0
M  V30 1671 H 173.886 2.95027 0.0654188 0
M  V30 1672 H 173.967 2.08808 -1.47759 0
M  V30 1673 H 173.611 4.29826 -2.70576 0
M  V30 1674 H 173.541 5.14156 -1.13804 0
M  V30 1675 H 176.032 3.58138 -1.20606 0
M  V30 1676 H 176.345 7.10029 -3.05087 0
M  V30 1677 H 174.69 6.38823 -2.73734 0
M  V30 1678 H 177.881 4.4086 -1.57353 0
M  V30 1679 H 178.054 6.01334 -2.41457 0
M  V30 1680 N 171.46 0.379036 1.52974 0
M  V30 1681 C 172.688 -0.20679 2.05864 0
M  V30 1682 C 173.103 -1.41356 1.25155 0
M  V30 1683 O 172.46 -1.8009 0.295588 0
M  V30 1684 C 172.511 -0.587045 3.56702 0
M  V30 1685 O 172.232 0.571776 4.34353 0
M  V30 1686 C 173.733 -1.22983 4.25899 0
M  V30 1687 H 170.953 -0.0336123 0.670158 0
M  V30 1688 H 173.497 0.541298 1.97206 0
M  V30 1689 H 171.652 -1.28504 3.65466 0
M  V30 1690 H 172.066 0.261544 5.23847 0
M  V30 1691 H 173.54 -1.44635 5.32715 0
M  V30 1692 H 174.017 -2.19416 3.80465 0
M  V30 1693 H 174.623 -0.572892 4.21424 0
M  V30 1694 N 172.938 -1.57226 0.108567 0
M  V30 1695 C 173.868 -2.17778 -0.84232 0
M  V30 1696 C 174.849 -1.11487 -1.2847 0
M  V30 1697 O 176.034 -1.39681 -1.34918 0
M  V30 1698 C 173.164 -2.76888 -2.09644 0
M  V30 1699 C 172.118 -3.88669 -1.79221 0
M  V30 1700 C 171.444 -4.34541 -3.11574 0
M  V30 1701 C 172.744 -5.11251 -1.06864 0
M  V30 1702 H 174.438 -2.97489 -0.337774 0
M  V30 1703 H 171.984 -1.43097 -0.161025 0
M  V30 1704 H 173.937 -3.17904 -2.76614 0
M  V30 1705 H 172.661 -1.94451 -2.62405 0
M  V30 1706 H 171.32 -3.48213 -1.14644 0
M  V30 1707 H 170.968 -3.48977 -3.62249 0
M  V30 1708 H 170.668 -5.09914 -2.91996 0
M  V30 1709 H 172.192 -4.782 -3.7968 0
M  V30 1710 H 173.606 -5.49352 -1.63968 0
M  V30 1711 H 172.003 -5.9214 -0.974178 0
M  V30 1712 H 173.073 -4.8487 -0.0536168 0
M  V30 1713 N 174.416 0.165178 -1.56732 0
M  V30 1714 C 175.693 0.908443 -1.73224 0
M  V30 1715 C 176.073 2.0013 -0.67165 0
M  V30 1716 O 175.421 2.26353 0.31253 0
M  V30 1717 C 175.631 1.46756 -3.16644 0
M  V30 1718 C 176.979 1.93809 -3.77787 0
M  V30 1719 O 178.003 1.56537 -3.1996 0
M  V30 1720 O 176.862 2.62486 -4.79336 0
M  V30 1721 H 173.956 0.428025 -0.707618 0
M  V30 1722 H 176.502 0.152526 -1.69013 0
M  V30 1723 H 175.274 0.68129 -3.85323 0
M  V30 1724 H 174.897 2.28749 -3.25207 0
M  V30 1725 N 175.894 1.51508 0.433938 0
M  V30 1726 C 177.122 1.68157 1.20543 0
M  V30 1727 C 177.537 0.380362 1.84929 0
M  V30 1728 O 176.894 -0.641446 1.70856 0
M  V30 1729 C 176.945 2.79965 2.28696 0
M  V30 1730 O 176.666 4.05045 1.66943 0
M  V30 1731 C 178.167 3.07912 3.18912 0
M  V30 1732 H 175.387 0.56421 0.363191 0
M  V30 1733 H 177.931 1.97941 0.513754 0
M  V30 1734 H 176.086 2.5277 2.93574 0
M  V30 1735 H 176.5 4.67165 2.38448 0
M  V30 1736 H 177.974 3.89719 3.90926 0
M  V30 1737 H 178.451 2.20456 3.79863 0
M  V30 1738 H 179.057 3.36779 2.59731 0
M  V30 1739 N 177.372 -0.689602 1.41712 0
M  V30 1740 C 178.304 -1.815 1.39966 0
M  V30 1741 C 179.317 -1.59995 0.300917 0
M  V30 1742 O 180.506 -1.69387 0.563039 0
M  V30 1743 C 177.606 -3.18364 1.16179 0
M  V30 1744 C 176.779 -3.66847 2.38206 0
M  V30 1745 C 175.838 -4.82398 2.10186 0
M  V30 1746 O 174.864 -4.93706 2.83272 0
M  V30 1747 N 176.066 -5.70064 1.0958 0
M  V30 1748 H 178.831 -1.83488 2.36965 0
M  V30 1749 H 176.392 -0.872149 1.36401 0
M  V30 1750 H 178.384 -3.93301 0.953756 0
M  V30 1751 H 176.954 -3.11365 0.27756 0
M  V30 1752 H 176.174 -2.82751 2.74673 0
M  V30 1753 H 177.462 -3.95978 3.19498 0
M  V30 1754 H 176.86 -5.63565 0.491019 0
M  V30 1755 H 175.417 -6.44874 0.947656 0
M  V30 1756 N 178.85 -1.27639 -0.924453 0
M  V30 1757 C 180.097 -1.14167 -1.67249 0
M  V30 1758 C 180.425 0.311863 -1.91984 0
M  V30 1759 O 179.68 1.24425 -1.51053 0
M  V30 1760 C 179.979 -1.87407 -3.04325 0
M  V30 1761 C 179.645 -3.37249 -2.99289 0
M  V30 1762 C 178.307 -3.7812 -2.97622 0
M  V30 1763 C 180.659 -4.32845 -2.90336 0
M  V30 1764 C 177.987 -5.12944 -2.8479 0
M  V30 1765 C 180.339 -5.6773 -2.79045 0
M  V30 1766 C 179.003 -6.07889 -2.7573 0
M  V30 1767 H 178.273 -0.417766 -0.612007 0
M  V30 1768 H 180.92 -1.58286 -1.07786 0
M  V30 1769 H 179.225 -1.35805 -3.67511 0
M  V30 1770 H 180.922 -1.74408 -3.61086 0
M  V30 1771 H 177.512 -3.04748 -3.01374 0
M  V30 1772 H 181.696 -4.02239 -2.90719 0
M  V30 1773 H 176.952 -5.432 -2.80612 0
M  V30 1774 H 181.126 -6.41472 -2.71083 0
M  V30 1775 H 178.753 -7.12314 -2.65544 0
M  V30 1776 N 180.328 1.1314 -1.09713 0
M  V30 1777 C 181.26 2.18343 -0.697056 0
M  V30 1778 C 182.273 1.60669 0.262551 0
M  V30 1779 O 183.462 1.78435 0.0481527 0
M  V30 1780 C 180.562 3.38899 -0.00684728 0
M  V30 1781 C 179.735 4.26078 -0.988741 0
M  V30 1782 C 178.794 5.25155 -0.331394 0
M  V30 1783 O 177.82 5.60701 -0.979926 0
M  V30 1784 N 179.022 5.73271 0.913261 0
M  V30 1785 H 181.787 2.5328 -1.60216 0
M  V30 1786 H 179.348 1.28491 -0.984971 0
M  V30 1787 H 181.34 4.02255 0.444191 0
M  V30 1788 H 179.91 3.02175 0.800551 0
M  V30 1789 H 179.13 3.59453 -1.61826 0
M  V30 1790 H 180.418 4.81178 -1.65364 0
M  V30 1791 H 179.816 5.46544 1.45966 0
M  V30 1792 H 178.373 6.3855 1.30757 0
M  V30 1793 N 181.806 0.884767 1.30421 0
M  V30 1794 C 183.052 0.503851 1.96441 0
M  V30 1795 C 183.385 -0.944518 1.69684 0
M  V30 1796 O 182.66 -1.66737 1.00145 0
M  V30 1797 C 182.943 0.779085 3.51571 0
M  V30 1798 C 182.796 2.27807 3.87846 0
M  V30 1799 C 184.115 0.255452 4.39358 0
M  V30 1800 H 181.234 0.184533 0.713524 0
M  V30 1801 H 183.876 1.10872 1.54297 0
M  V30 1802 H 182.026 0.264274 3.876 0
M  V30 1803 H 183.698 2.86127 3.61841 0
M  V30 1804 H 181.941 2.74479 3.35922 0
M  V30 1805 H 182.612 2.42125 4.96064 0
M  V30 1806 H 185.088 0.696079 4.10236 0
M  V30 1807 H 183.964 0.477361 5.4682 0
M  V30 1808 H 184.225 -0.843293 4.33983 0
M  V30 1809 N 183.284 -1.43765 0.645699 0
M  V30 1810 C 184.531 -2.01898 0.15604 0
M  V30 1811 C 184.859 -1.50887 -1.22733 0
M  V30 1812 O 184.114 -0.689271 -1.8316 0
M  V30 1813 C 184.413 -3.57238 0.107679 0
M  V30 1814 C 184.079 -4.27564 1.43178 0
M  V30 1815 C 182.741 -4.46492 1.7944 0
M  V30 1816 C 185.093 -4.67454 2.30513 0
M  V30 1817 C 182.421 -5.02573 3.02716 0
M  V30 1818 C 184.773 -5.24901 3.53074 0
M  V30 1819 C 183.437 -5.42046 3.89541 0
M  V30 1820 H 182.707 -0.738797 0.057099 0
M  V30 1821 H 185.354 -1.72341 0.834912 0
M  V30 1822 H 183.659 -3.86293 -0.654618 0
M  V30 1823 H 185.356 -3.99965 -0.287938 0
M  V30 1824 H 181.946 -4.13171 1.13963 0
M  V30 1825 H 186.13 -4.5253 2.0379 0
M  V30 1826 H 181.386 -5.14033 3.31028 0
M  V30 1827 H 185.56 -5.54758 4.20971 0
M  V30 1828 H 183.187 -5.85268 4.85145 0
M  V30 1829 N 184.763 -0.387143 -1.52771 0
M  V30 1830 C 185.71 0.449048 -2.26389 0
M  V30 1831 C 186.68 1.05961 -1.27912 0
M  V30 1832 O 187.865 1.08804 -1.56737 0
M  V30 1833 C 185.005 1.57155 -3.0724 0
M  V30 1834 C 184.118 0.984066 -4.20643 0
M  V30 1835 C 183.253 2.07745 -4.88892 0
M  V30 1836 C 182.292 1.46574 -5.94292 0
M  V30 1837 N 181.429 2.49834 -6.56146 0
M  V30 1838 H 186.269 -0.185205 -2.97424 0
M  V30 1839 H 183.806 -0.103164 -1.46738 0
M  V30 1840 H 185.764 2.23309 -3.52405 0
M  V30 1841 H 184.394 2.17615 -2.38419 0
M  V30 1842 H 183.446 0.212193 -3.79808 0
M  V30 1843 H 184.758 0.497029 -4.96318 0
M  V30 1844 H 183.912 2.81673 -5.3735 0
M  V30 1845 H 182.651 2.59807 -4.12737 0
M  V30 1846 H 181.656 0.711696 -5.45174 0
M  V30 1847 H 182.881 0.953088 -6.72379 0
M  V30 1848 H 180.827 3.0107 -5.82832 0
M  V30 1849 H 180.744 2.05879 -7.27427 0
M  V30 1850 H 182.012 3.23399 -7.09249 0
M  V30 1851 N 186.241 1.57166 -0.116904 0
M  V30 1852 C 187.151 2.18745 0.847812 0
M  V30 1853 C 188.167 1.163 1.29423 0
M  V30 1854 O 189.343 1.48761 1.35765 0
M  V30 1855 C 186.408 2.77307 2.0809 0
M  V30 1856 C 185.469 3.94781 1.68661 0
M  V30 1857 C 184.702 4.50541 2.86091 0
M  V30 1858 O 184.925 4.05202 4.01456 0
M  V30 1859 O 183.859 5.41256 2.63298 0
M  V30 1860 H 187.685 3.01632 0.353778 0
M  V30 1861 H 185.27 1.49005 0.108599 0
M  V30 1862 H 187.152 3.14647 2.80313 0
M  V30 1863 H 185.827 1.97452 2.56504 0
M  V30 1864 H 184.734 3.62214 0.935518 0
M  V30 1865 H 186.067 4.76065 1.24991 0
M  V30 1866 N 187.719 -0.156864 1.56817 0
M  V30 1867 C 188.968 -0.869504 1.81996 0
M  V30 1868 C 189.281 -1.82777 0.696545 0
M  V30 1869 O 190.487 -2.58384 0.833658 0
M  V30 1870 C 188.943 -1.59679 3.22538 0
M  V30 1871 C 188.551 -0.681431 4.42787 0
M  V30 1872 C 190.295 -2.2968 3.56997 0
M  V30 1873 C 188.202 -1.40978 5.74351 0
M  V30 1874 H 187.132 -0.328438 0.678708 0
M  V30 1875 H 189.783 -0.1223 1.83092 0
M  V30 1876 H 188.165 -2.38927 3.158 0
M  V30 1877 H 189.339 0.0751166 4.60739 0
M  V30 1878 H 187.654 -0.0903431 4.16302 0
M  V30 1879 H 190.251 -2.84794 4.52544 0
M  V30 1880 H 190.594 -3.05707 2.82576 0
M  V30 1881 H 191.127 -1.57361 3.65352 0
M  V30 1882 H 187.866 -0.691561 6.51842 0
M  V30 1883 H 187.386 -2.13929 5.60352 0
M  V30 1884 H 189.065 -1.95337 6.16808 0
M  V30 1885 N 189.197 -1.51736 -0.425897 0
M  V30 1886 C 190.425 -1.68794 -1.1965 0
M  V30 1887 C 190.84 -0.390164 -1.84725 0
M  V30 1888 O 190.197 0.632376 -1.71194 0
M  V30 1889 C 190.248 -2.81174 -2.27208 0
M  V30 1890 O 189.969 -4.05925 -1.64793 0
M  V30 1891 C 191.47 -3.09599 -3.17275 0
M  V30 1892 H 188.69 -0.566128 -0.360194 0
M  V30 1893 H 191.234 -1.98211 -0.503249 0
M  V30 1894 H 189.389 -2.54324 -2.9223 0
M  V30 1895 H 189.803 -4.68423 -2.35967 0
M  V30 1896 H 191.277 -3.91786 -3.88854 0
M  V30 1897 H 191.754 -2.22468 -3.78688 0
M  V30 1898 H 192.36 -3.38151 -2.57941 0
M  V30 1899 N 190.675 0.682077 -1.42076 0
M  V30 1900 C 191.921 1.44428 -1.42367 0
M  V30 1901 C 192.254 1.94164 -0.0373056 0
M  V30 1902 O 191.529 1.70429 0.937239 0
M  V30 1903 C 191.812 2.64654 -2.44194 0
M  V30 1904 C 191.665 2.20596 -3.91991 0
M  V30 1905 C 192.984 3.66865 -2.431 0
M  V30 1906 H 190.103 0.523834 -0.518428 0
M  V30 1907 H 192.745 0.77576 -1.73442 0
M  V30 1908 H 190.895 3.2169 -2.17826 0
M  V30 1909 H 192.567 1.68783 -4.29313 0
M  V30 1910 H 190.81 1.52242 -4.06208 0
M  V30 1911 H 191.481 3.06921 -4.58807 0
M  V30 1912 H 193.957 3.19531 -2.66532 0
M  V30 1913 H 192.833 4.48577 -3.16339 0
M  V30 1914 H 193.094 4.17493 -1.45437 0
M  V30 1915 N 192.153 1.28127 0.917671 0
M  V30 1916 C 193.116 1.11744 2.00115 0
M  V30 1917 C 194.116 0.0583052 1.60694 0
M  V30 1918 O 195.306 0.303755 1.71531 0
M  V30 1919 C 192.438 0.704862 3.33533 0
M  V30 1920 H 193.631 2.07966 2.16079 0
M  V30 1921 H 191.184 1.11058 1.09981 0
M  V30 1922 H 191.919 -0.258299 3.2327 0
M  V30 1923 H 191.704 1.4699 3.63505 0
M  V30 1924 H 193.194 0.612768 4.1308 0
M  V30 1925 N 193.631 -1.12557 1.10312 0
M  V30 1926 C 194.563 -2.17971 0.708625 0
M  V30 1927 C 195.576 -1.60806 -0.254027 0
M  V30 1928 O 196.765 -1.78458 -0.0386891 0
M  V30 1929 C 193.865 -3.38891 0.0248198 0
M  V30 1930 C 193.038 -4.25548 1.01132 0
M  V30 1931 C 192.097 -5.24972 0.35924 0
M  V30 1932 O 191.123 -5.60174 1.00965 0
M  V30 1933 N 192.325 -5.73747 -0.882847 0
M  V30 1934 H 195.09 -2.52427 1.61557 0
M  V30 1935 H 192.651 -1.27967 0.991771 0
M  V30 1936 H 194.643 -4.02485 -0.422852 0
M  V30 1937 H 193.213 -3.02596 -0.784514 0
M  V30 1938 H 192.433 -3.58589 1.6373 0
M  V30 1939 H 193.721 -4.80294 1.67914 0
M  V30 1940 H 193.119 -5.4731 -1.43065 0
M  V30 1941 H 191.676 -6.39234 -1.27369 0
M  V30 1942 N 195.109 -0.891671 -1.2995 0
M  V30 1943 C 196.072 -0.36828 -2.26222 0
M  V30 1944 C 197.072 0.493014 -1.53056 0
M  V30 1945 O 198.262 0.299213 -1.71611 0
M  V30 1946 C 195.394 0.47442 -3.37583 0
M  V30 1947 H 196.587 -1.21844 -2.74033 0
M  V30 1948 H 194.14 -0.669107 -1.41254 0
M  V30 1949 H 194.875 1.34489 -2.95099 0
M  V30 1950 H 194.66 -0.142615 -3.91841 0
M  V30 1951 H 196.15 0.83218 -4.09224 0
M  V30 1952 N 196.587 1.43421 -0.653314 0
M  V30 1953 C 198.003 1.56341 -0.320886 0
M  V30 1954 C 198.203 1.63696 1.17499 0
M  V30 1955 O 197.259 1.59208 1.95982 0
M  V30 1956 C 198.572 2.82424 -1.03233 0
M  V30 1957 C 200.12 2.96168 -1.01259 0
M  V30 1958 C 200.595 4.25084 -1.70492 0
M  V30 1959 N 202.086 4.31948 -1.67257 0
M  V30 1960 C 202.821 5.30466 -2.17701 0
M  V30 1961 N 202.317 6.35261 -2.76434 0
M  V30 1962 N 204.11 5.2212 -2.082 0
M  V30 1963 H 196.261 1.3689 -1.62403 0
M  V30 1964 H 198.524 0.657455 -0.682977 0
M  V30 1965 H 198.23 2.83053 -2.08744 0
M  V30 1966 H 198.104 3.72653 -0.583948 0
M  V30 1967 H 200.491 2.9508 0.0341235 0
M  V30 1968 H 200.572 2.07229 -1.49966 0
M  V30 1969 H 200.216 4.26932 -2.7512 0
M  V30 1970 H 200.146 5.1292 -1.19251 0
M  V30 1971 H 202.637 3.56838 -1.24398 0
M  V30 1972 H 202.95 7.06754 -3.12601 0
M  V30 1973 H 201.295 6.35884 -2.80495 0
M  V30 1974 H 204.486 4.39166 -1.62021 0
M  V30 1975 H 204.659 5.98739 -2.47822 0
M  V30 1976 N 198.065 0.39524 1.52563 0
M  V30 1977 C 198.995 -0.428384 2.29537 0
M  V30 1978 C 199.976 -1.05831 1.33169 0
M  V30 1979 O 201.161 -1.06995 1.62067 0
M  V30 1980 C 198.291 -1.55274 3.10656 0
M  V30 1981 C 197.245 -1.04855 4.14957 0
M  V30 1982 C 196.571 -2.26543 4.84337 0
M  V30 1983 C 197.871 -0.112324 5.22179 0
M  V30 1984 H 199.565 0.213867 2.98635 0
M  V30 1985 H 197.111 0.104298 1.43622 0
M  V30 1986 H 199.064 -2.1358 3.63265 0
M  V30 1987 H 197.788 -2.22266 2.39302 0
M  V30 1988 H 196.447 -0.487985 3.63338 0
M  V30 1989 H 196.095 -2.92059 4.09525 0
M  V30 1990 H 195.795 -1.93466 5.54837 0
M  V30 1991 H 197.319 -2.85481 5.39753 0
M  V30 1992 H 198.733 -0.603752 5.70112 0
M  V30 1993 H 197.13 0.128968 5.99961 0
M  V30 1994 H 198.2 0.837052 4.77621 0
M  V30 1995 N 199.544 -1.57102 0.125237 0
M  V30 1996 C 200.821 -1.86953 -0.575142 0
M  V30 1997 C 201.201 -1.02749 -1.84407 0
M  V30 1998 O 200.549 -0.108144 -2.28244 0
M  V30 1999 C 200.759 -3.38198 -0.861583 0
M  V30 2000 C 202.107 -4.06937 -1.21192 0
M  V30 2001 O 203.131 -3.43252 -0.951645 0
M  V30 2002 O 201.99 -5.19364 -1.70068 0
M  V30 2003 H 199.084 -0.774147 -0.290906 0
M  V30 2004 H 201.63 -1.68942 0.160211 0
M  V30 2005 H 200.402 -3.91282 0.0373647 0
M  V30 2006 H 200.025 -3.61661 -1.65188 0
M  V30 2007 N 201.022 0.148545 -1.56898 0
M  V30 2008 C 202.299 0.890019 -1.74178 0
M  V30 2009 C 202.679 1.99407 -0.692839 0
M  V30 2010 O 202.027 2.26671 0.288505 0
M  V30 2011 C 202.237 1.43389 -3.18183 0
M  V30 2012 C 203.585 1.89791 -3.79822 0
M  V30 2013 O 204.609 1.53134 -3.21603 0
M  V30 2014 O 203.468 2.57387 -4.82093 0
M  V30 2015 H 200.562 0.420496 -0.712118 0
M  V30 2016 H 203.108 0.134591 -1.69165 0
M  V30 2017 H 201.88 0.640383 -3.86024 0
M  V30 2018 H 201.503 2.25287 -3.27615 0
M  V30 2019 N 202.5 1.5196 0.417844 0
M  V30 2020 C 203.911 1.57851 0.997 0
M  V30 2021 C 204.262 0.413714 1.91789 0
M  V30 2022 O 203.387 -0.467057 2.113 0
M  V30 2023 C 203.982 2.86085 1.81496 0
M  V30 2024 C 202.541 2.94483 2.34428 0
M  V30 2025 C 201.688 2.52707 1.14169 0
M  V30 2026 H 204.639 1.57455 0.198392 0
M  V30 2027 H 204.66 2.70947 2.67148 0
M  V30 2028 H 204.172 3.70842 1.14446 0
M  V30 2029 H 202.273 2.142 3.04875 0
M  V30 2030 H 202.386 3.98546 2.65891 0
M  V30 2031 H 200.75 2.06353 1.49301 0
M  V30 2032 H 201.533 3.39828 0.486999 0
M  V30 2033 N 203.978 -0.674533 1.42435 0
M  V30 2034 C 204.941 -1.76986 1.45632 0
M  V30 2035 C 205.941 -1.5708 0.343871 0
M  V30 2036 O 207.131 -1.63367 0.604709 0
M  V30 2037 C 204.263 -3.15623 1.28822 0
M  V30 2038 H 205.456 -1.75539 2.43158 0
M  V30 2039 H 203.009 -0.884189 1.28887 0
M  V30 2040 H 203.744 -3.22696 0.322193 0
M  V30 2041 H 203.529 -3.31475 2.09444 0
M  V30 2042 H 205.019 -3.95537 1.33942 0
M  V30 2043 N 205.456 -1.28612 -0.910864 0
M  V30 2044 C 206.403 -1.12786 -2.01365 0
M  V30 2045 C 207.373 -0.024201 -1.66082 0
M  V30 2046 O 208.558 -0.189667 -1.89855 0
M  V30 2047 C 205.698 -0.798743 -3.35729 0
M  V30 2048 C 204.811 -1.98173 -3.83864 0
M  V30 2049 C 203.946 -1.59298 -5.06752 0
M  V30 2050 C 202.985 -2.74245 -5.47226 0
M  V30 2051 N 202.122 -2.35842 -6.61304 0
M  V30 2052 H 206.962 -2.07142 -2.14234 0
M  V30 2053 H 204.499 -1.03093 -1.0493 0
M  V30 2054 H 206.457 -0.588662 -4.13026 0
M  V30 2055 H 205.087 0.10789 -3.2262 0
M  V30 2056 H 204.139 -2.30386 -3.02699 0
M  V30 2057 H 205.451 -2.84343 -4.09818 0
M  V30 2058 H 204.605 -1.34513 -5.916 0
M  V30 2059 H 203.344 -0.702618 -4.82612 0
M  V30 2060 H 202.349 -2.99725 -4.60918 0
M  V30 2061 H 203.574 -3.63928 -5.73353 0
M  V30 2062 H 201.52 -1.49279 -6.38789 0
M  V30 2063 H 201.437 -3.15546 -6.86998 0
M  V30 2064 H 202.705 -2.14348 -7.4945 0
M  V30 2065 N 206.934 1.1197 -1.10907 0
M  V30 2066 C 207.897 2.16031 -0.765707 0
M  V30 2067 C 208.897 1.59393 0.212235 0
M  V30 2068 O 210.087 1.74196 -0.0115441 0
M  V30 2069 C 207.219 3.40632 -0.135053 0
M  V30 2070 H 208.412 2.47919 -1.68748 0
M  V30 2071 H 205.965 1.27061 -0.910226 0
M  V30 2072 H 206.7 3.14348 0.797218 0
M  V30 2073 H 206.485 3.8302 -0.838937 0
M  V30 2074 H 207.975 4.17505 0.0892469 0
M  V30 2075 N 208.412 0.89855 1.29475 0
M  V30 2076 C 209.823 0.572537 1.77705 0
M  V30 2077 C 210.174 -0.911778 1.73727 0
M  V30 2078 O 209.299 -1.71288 1.32247 0
M  V30 2079 C 209.894 1.03252 3.22683 0
M  V30 2080 C 208.453 0.757687 3.68695 0
M  V30 2081 C 207.6 1.20787 2.49612 0
M  V30 2082 H 210.551 1.08139 1.16153 0
M  V30 2083 H 210.572 0.367307 3.78723 0
M  V30 2084 H 210.084 2.11285 3.25546 0
M  V30 2085 H 208.185 -0.310079 3.71308 0
M  V30 2086 H 208.298 1.35476 4.59547 0
M  V30 2087 H 206.662 0.626888 2.46865 0
M  V30 2088 H 207.445 2.29622 2.55203 0
M  V30 2089 N 209.89 -1.43072 0.660911 0
M  V30 2090 C 210.853 -2.29194 -0.0166406 0
M  V30 2091 C 211.853 -1.42609 -0.742912 0
M  V30 2092 O 213.043 -1.64155 -0.583004 0
M  V30 2093 C 210.175 -3.24831 -1.0343 0
M  V30 2094 H 211.368 -2.90596 0.741208 0
M  V30 2095 H 208.921 -1.5048 0.422532 0
M  V30 2096 H 209.656 -2.68339 -1.82111 0
M  V30 2097 H 209.441 -3.88676 -0.517082 0
M  V30 2098 H 210.931 -3.89451 -1.50723 0
M  V30 2099 N 211.368 -0.403325 -1.52352 0
M  V30 2100 C 212.278 0.432009 -2.30588 0
M  V30 2101 C 213.294 1.05884 -1.38075 0
M  V30 2102 O 214.47 1.06161 -1.71148 0
M  V30 2103 C 211.535 1.53669 -3.10784 0
M  V30 2104 C 210.596 0.933525 -4.19027 0
M  V30 2105 C 209.829 1.98557 -4.9539 0
M  V30 2106 O 210.052 3.20283 -4.71991 0
M  V30 2107 O 208.986 1.59504 -5.80381 0
M  V30 2108 H 212.812 -0.205739 -3.03002 0
M  V30 2109 H 210.397 -0.166675 -1.48467 0
M  V30 2110 H 212.279 2.17814 -3.60742 0
M  V30 2111 H 210.954 2.15915 -2.41169 0
M  V30 2112 H 209.861 0.254954 -3.7323 0
M  V30 2113 H 211.194 0.35508 -4.90918 0
M  V30 2114 N 212.846 1.57033 -0.133567 0
M  V30 2115 C 214.095 1.94861 0.520768 0
M  V30 2116 C 214.408 1.02012 1.66892 0
M  V30 2117 O 215.614 1.29365 2.38699 0
M  V30 2118 C 214.07 3.46362 0.977809 0
M  V30 2119 C 213.678 4.47773 -0.142674 0
M  V30 2120 C 215.422 3.93083 1.60269 0
M  V30 2121 C 213.329 5.90468 0.331883 0
M  V30 2122 H 212.259 0.727453 0.198315 0
M  V30 2123 H 214.91 1.82227 -0.215759 0
M  V30 2124 H 213.292 3.54282 1.7692 0
M  V30 2125 H 214.466 4.51536 -0.919317 0
M  V30 2126 H 212.781 4.10891 -0.675124 0
M  V30 2127 H 215.378 4.97121 1.96914 0
M  V30 2128 H 215.721 3.33876 2.48662 0
M  V30 2129 H 216.254 3.88025 0.876453 0
M  V30 2130 H 212.993 6.53463 -0.516341 0
M  V30 2131 H 212.513 5.90094 1.07469 0
M  V30 2132 H 214.192 6.42179 0.788332 0
M  V30 2133 N 214.325 -0.140222 1.56975 0
M  V30 2134 C 215.288 -1.15689 1.97861 0
M  V30 2135 C 216.288 -1.3549 0.865974 0
M  V30 2136 O 217.478 -1.32367 1.13246 0
M  V30 2137 C 214.61 -2.51582 2.30042 0
M  V30 2138 H 215.803 -0.805971 2.88867 0
M  V30 2139 H 213.356 -0.383801 1.51515 0
M  V30 2140 H 214.091 -2.91632 1.41849 0
M  V30 2141 H 213.876 -2.38569 3.11171 0
M  V30 2142 H 215.366 -3.24792 2.62488 0
M  V30 2143 N 215.803 -1.52179 -0.40978 0
M  V30 2144 C 217.219 -1.40968 -0.74835 0
M  V30 2145 C 217.419 -0.513657 -1.94843 0
M  V30 2146 O 216.475 0.0208026 -2.52491 0
M  V30 2147 C 217.788 -2.83483 -1.0029 0
M  V30 2148 C 219.336 -2.92821 -1.10565 0
M  V30 2149 C 219.811 -4.36303 -1.39296 0
M  V30 2150 N 221.302 -4.39535 -1.46162 0
M  V30 2151 C 222.037 -5.47614 -1.70018 0
M  V30 2152 N 221.533 -6.65812 -1.91483 0
M  V30 2153 N 223.326 -5.35129 -1.72027 0
M  V30 2154 H 215.477 -2.0897 0.380186 0
M  V30 2155 H 217.74 -0.94185 0.107805 0
M  V30 2156 H 217.446 -3.51168 -0.193461 0
M  V30 2157 H 217.32 -3.24487 -1.92323 0
M  V30 2158 H 219.707 -2.25318 -1.90568 0
M  V30 2159 H 219.788 -2.55276 -0.16369 0
M  V30 2160 H 219.432 -5.04366 -0.598109 0
M  V30 2161 H 219.362 -4.71385 -2.34743 0
M  V30 2162 H 221.853 -3.54332 -1.31367 0
M  V30 2163 H 222.166 -7.43964 -2.09134 0
M  V30 2164 H 220.511 -6.68879 -1.88749 0
M  V30 2165 H 223.702 -4.41764 -1.54796 0
M  V30 2166 H 223.875 -6.19433 -1.9028 0
M  V30 2167 N 217.281 0.66697 -1.42791 0
M  V30 2168 C 218.527 1.4291 -1.43891 0
M  V30 2169 C 218.86 1.94114 -0.0578972 0
M  V30 2170 O 218.135 1.71414 0.91911 0
M  V30 2171 C 218.418 2.62049 -2.46987 0
M  V30 2172 C 218.271 2.16426 -3.94309 0
M  V30 2173 C 219.59 3.64266 -2.46978 0
M  V30 2174 H 216.709 0.518306 -0.523954 0
M  V30 2175 H 219.351 0.757321 -1.74255 0
M  V30 2176 H 217.501 3.19361 -2.21225 0
M  V30 2177 H 219.173 1.64221 -4.31079 0
M  V30 2178 H 217.416 1.47925 -4.078 0
M  V30 2179 H 218.087 3.02038 -4.62036 0
M  V30 2180 H 220.563 3.16686 -2.69906 0
M  V30 2181 H 219.439 4.45196 -3.21079 0
M  V30 2182 H 219.7 4.15927 -1.49857 0
M  V30 2183 N 218.759 1.29093 0.90403 0
M  V30 2184 C 219.689 1.16401 2.02418 0
M  V30 2185 C 220.67 0.0593085 1.69997 0
M  V30 2186 O 221.855 0.238021 1.92736 0
M  V30 2187 C 218.985 0.835233 3.37107 0
M  V30 2188 C 217.939 1.89578 3.83724 0
M  V30 2189 C 217.265 1.42041 5.15489 0
M  V30 2190 C 218.565 3.30394 4.04521 0
M  V30 2191 H 220.259 2.10109 2.13295 0
M  V30 2192 H 217.805 1.01157 1.02486 0
M  V30 2193 H 219.758 0.733169 4.14973 0
M  V30 2194 H 218.482 -0.137543 3.2631 0
M  V30 2195 H 217.141 1.98715 3.08071 0
M  V30 2196 H 216.789 0.436426 5.01103 0
M  V30 2197 H 216.489 2.12964 5.4765 0
M  V30 2198 H 218.013 1.33176 5.959 0
M  V30 2199 H 219.427 3.24123 4.72882 0
M  V30 2200 H 217.824 3.99237 4.48029 0
M  V30 2201 H 218.894 3.73692 3.09002 0
M  V30 2202 N 220.237 -1.11381 1.11499 0
M  V30 2203 C 221.485 -1.8277 0.862524 0
M  V30 2204 C 221.806 -1.85097 -0.613534 0
M  V30 2205 O 221.076 -1.32198 -1.4457 0
M  V30 2206 H 219.656 -0.676823 0.316101 0
M  V30 2207 H 222.318 -1.34816 1.4075 0
M  V30 2208 H 221.414 -2.86614 1.23527 0
M  V30 2209 N 221.715 -0.905404 -1.28997 0
M  V30 2210 C 222.678 -0.392253 -2.25819 0
M  V30 2211 C 223.678 0.476753 -1.5357 0
M  V30 2212 O 224.868 0.280994 -1.71919 0
M  V30 2213 C 222 0.438588 -3.38067 0
M  V30 2214 H 223.193 -1.24743 -2.72725 0
M  V30 2215 H 220.746 -0.684051 -1.40536 0
M  V30 2216 H 221.481 1.31352 -2.96508 0
M  V30 2217 H 221.266 -0.184167 -3.91667 0
M  V30 2218 H 222.756 0.78873 -4.10084 0
M  V30 2219 N 223.193 1.4272 -0.668489 0
M  V30 2220 C 224.156 2.292 0.00448567 0
M  V30 2221 C 225.156 1.43001 0.735339 0
M  V30 2222 O 226.346 1.64461 0.57429 0
M  V30 2223 C 223.478 3.25375 1.01705 0
M  V30 2224 H 224.671 2.90199 -0.756608 0
M  V30 2225 H 222.224 1.50254 -0.430506 0
M  V30 2226 H 222.959 2.69301 1.80686 0
M  V30 2227 H 222.744 3.88944 0.496463 0
M  V30 2228 H 224.234 3.90245 1.48655 0
M  V30 2229 N 224.671 0.411399 1.52136 0
M  V30 2230 C 226.087 0.0623865 1.59478 0
M  V30 2231 C 226.287 -1.42554 1.4241 0
M  V30 2232 O 225.343 -2.19263 1.2522 0
M  V30 2233 C 226.656 0.559331 2.95452 0
M  V30 2234 C 228.204 0.517503 3.08692 0
M  V30 2235 C 228.679 0.990994 4.4715 0
M  V30 2236 N 230.17 0.947908 4.53397 0
M  V30 2237 C 230.905 1.28544 5.58806 0
M  V30 2238 N 230.401 1.69454 6.71757 0
M  V30 2239 N 232.194 1.20526 5.49026 0
M  V30 2240 H 224.345 1.37982 1.61477 0
M  V30 2241 H 226.608 0.566977 0.759764 0
M  V30 2242 H 226.314 1.59938 3.1323 0
M  V30 2243 H 226.188 -0.0298014 3.77188 0
M  V30 2244 H 228.575 -0.513505 2.90598 0
M  V30 2245 H 228.656 1.14272 2.28857 0
M  V30 2246 H 228.3 2.02034 4.65988 0
M  V30 2247 H 228.23 0.34257 5.25485 0
M  V30 2248 H 230.721 0.647157 3.72317 0
M  V30 2249 H 231.034 1.93513 7.48179 0
M  V30 2250 H 229.379 1.73359 6.73032 0
M  V30 2251 H 232.57 0.884505 4.59667 0
M  V30 2252 H 232.743 1.47161 6.31069 0
M  V30 2253 N 226.149 -1.5696 0.141893 0
M  V30 2254 C 227.112 -2.15316 -0.785587 0
M  V30 2255 C 228.112 -1.09366 -1.1788 0
M  V30 2256 O 229.302 -1.35031 -1.10056 0
M  V30 2257 C 226.434 -2.71211 -2.06537 0
M  V30 2258 H 227.627 -2.98608 -0.278041 0
M  V30 2259 H 225.18 -1.5593 -0.107519 0
M  V30 2260 H 225.915 -1.91571 -2.6167 0
M  V30 2261 H 225.7 -3.4872 -1.79268 0
M  V30 2262 H 227.19 -3.16189 -2.72789 0
M  V30 2263 N 227.627 0.131896 -1.57047 0
M  V30 2264 C 228.557 1.16384 -2.02428 0
M  V30 2265 C 229.538 1.43936 -0.90644 0
M  V30 2266 O 230.723 1.54599 -1.17528 0
M  V30 2267 C 227.853 2.49328 -2.4177 0
M  V30 2268 C 226.807 2.36266 -3.56879 0
M  V30 2269 C 226.133 3.74057 -3.8208 0
M  V30 2270 C 227.433 1.834 -4.89042 0
M  V30 2271 H 229.127 0.786433 -2.88887 0
M  V30 2272 H 226.673 0.376855 -1.38981 0
M  V30 2273 H 228.626 3.21759 -2.7212 0
M  V30 2274 H 227.35 2.88934 -1.52266 0
M  V30 2275 H 226.009 1.66286 -3.26718 0
M  V30 2276 H 225.657 4.11125 -2.89803 0
M  V30 2277 H 225.357 3.66174 -4.59554 0
M  V30 2278 H 226.881 4.48012 -4.1487 0
M  V30 2279 H 228.295 2.45636 -5.18011 0
M  V30 2280 H 226.692 1.8637 -5.70426 0
M  V30 2281 H 227.762 0.790662 -4.7841 0
M  V30 2282 N 229.106 1.52395 0.401703 0
M  V30 2283 C 230.331 1.70972 1.17403 0
M  V30 2284 C 230.756 0.421615 1.83314 0
M  V30 2285 O 230.114 -0.621564 1.70312 0
M  V30 2286 C 230.162 2.85151 2.20728 0
M  V30 2287 O 229.266 2.51238 3.27037 0
M  V30 2288 H 228.607 0.568927 0.342372 0
M  V30 2289 H 231.137 1.99131 0.469891 0
M  V30 2290 H 231.147 3.10279 2.64936 0
M  V30 2291 H 229.822 3.78603 1.7214 0
M  V30 2292 H 228.399 2.36808 2.88057 0
M  V30 2293 N 230.584 -0.659388 1.43143 0
M  V30 2294 C 232 -0.974337 1.26407 0
M  V30 2295 C 232.2 -2.007 0.179341 0
M  V30 2296 O 231.256 -2.4856 -0.444295 0
M  V30 2297 C 232.569 -1.46447 2.62628 0
M  V30 2298 C 234.117 -1.58144 2.7011 0
M  V30 2299 C 234.592 -2.1055 4.06734 0
M  V30 2300 N 236.083 -2.17861 4.08767 0
M  V30 2301 C 236.818 -2.59519 5.1131 0
M  V30 2302 N 236.314 -3.00518 6.24228 0
M  V30 2303 N 238.107 -2.59404 4.98664 0
M  V30 2304 H 230.258 0.0240528 2.12386 0
M  V30 2305 H 232.521 -0.0518065 0.946583 0
M  V30 2306 H 232.227 -0.780123 3.42939 0
M  V30 2307 H 232.101 -2.44058 2.87603 0
M  V30 2308 H 234.488 -2.25682 1.90136 0
M  V30 2309 H 234.569 -0.589828 2.48907 0
M  V30 2310 H 234.213 -1.43616 4.87172 0
M  V30 2311 H 234.143 -3.10531 4.25298 0
M  V30 2312 H 236.634 -1.88975 3.27257 0
M  V30 2313 H 236.947 -3.31036 6.98309 0
M  V30 2314 H 235.292 -2.98337 6.2771 0
M  V30 2315 H 238.483 -2.26747 4.09516 0
M  V30 2316 H 238.656 -2.91548 5.78709 0
M  V30 2317 N 232.062 -1.29571 -0.897171 0
M  V30 2318 C 233.473 -1.15964 -1.46319 0
M  V30 2319 C 233.824 0.244267 -1.94674 0
M  V30 2320 O 232.949 1.13998 -1.83939 0
M  V30 2321 C 233.544 -2.09906 -2.65942 0
M  V30 2322 C 232.103 -2.00314 -3.18671 0
M  V30 2323 C 231.25 -2.00687 -1.91363 0
M  V30 2324 H 234.201 -1.42019 -0.708268 0
M  V30 2325 H 234.222 -1.67276 -3.41759 0
M  V30 2326 H 233.734 -3.12075 -2.30718 0
M  V30 2327 H 231.835 -1.01242 -3.58582 0
M  V30 2328 H 231.948 -2.88102 -3.82798 0
M  V30 2329 H 230.312 -1.45319 -2.09175 0
M  V30 2330 H 231.095 -3.04566 -1.58413 0
M  V30 2331 N 233.54 1.10788 -1.12088 0
M  V30 2332 C 234.786 1.82942 -0.875226 0
M  V30 2333 C 235.119 1.84779 0.597538 0
M  V30 2334 O 234.394 1.30578 1.44152 0
M  V30 2335 C 234.677 3.29789 -1.44606 0
M  V30 2336 C 234.53 3.36307 -2.98693 0
M  V30 2337 C 235.849 4.26064 -1.10261 0
M  V30 2338 H 232.968 0.664195 -0.319397 0
M  V30 2339 H 235.61 1.29867 -1.38689 0
M  V30 2340 H 233.76 3.75118 -1.01089 0
M  V30 2341 H 235.432 2.99487 -3.50864 0
M  V30 2342 H 233.675 2.76318 -3.34411 0
M  V30 2343 H 234.346 4.39694 -3.33726 0
M  V30 2344 H 236.822 3.88951 -1.4784 0
M  V30 2345 H 235.698 5.27183 -1.52869 0
M  V30 2346 H 235.959 4.42098 -0.0142953 0
M  V30 2347 N 235.018 0.912232 1.28515 0
M  V30 2348 C 236.248 0.559604 1.98877 0
M  V30 2349 C 236.656 -0.863113 1.68366 0
M  V30 2350 O 235.999 -1.58304 0.931969 0
M  V30 2351 C 236.061 0.68703 3.52874 0
M  V30 2352 C 235.725 2.07901 4.06972 0
M  V30 2353 C 236.722 3.05157 4.20922 0
M  V30 2354 C 234.407 2.39178 4.417 0
M  V30 2355 C 236.401 4.31806 4.68852 0
M  V30 2356 C 234.088 3.66068 4.89324 0
M  V30 2357 C 235.086 4.62195 5.02856 0
M  V30 2358 O 234.774 5.86829 5.49442 0
M  V30 2359 H 234.506 0.212191 0.641834 0
M  V30 2360 H 237.06 1.22712 1.64715 0
M  V30 2361 H 235.29 -0.0375486 3.86682 0
M  V30 2362 H 236.979 0.341727 4.04459 0
M  V30 2363 H 237.745 2.82311 3.94367 0
M  V30 2364 H 233.624 1.65109 4.30418 0
M  V30 2365 H 237.168 5.06842 4.79329 0
M  V30 2366 H 233.065 3.88739 5.15318 0
M  V30 2367 H 233.833 5.89597 5.6773 0
M  V30 2368 N 236.496 -1.42363 0.676048 0
M  V30 2369 C 237.426 -2.33497 0.0124832 0
M  V30 2370 C 238.407 -1.50748 -0.787981 0
M  V30 2371 O 239.592 -1.79346 -0.744884 0
M  V30 2372 C 236.722 -3.34377 -0.938582 0
M  V30 2373 C 235.676 -4.27289 -0.246622 0
M  V30 2374 C 235.002 -5.18386 -1.31071 0
M  V30 2375 C 236.302 -5.14916 0.875125 0
M  V30 2376 H 237.996 -2.89233 0.773593 0
M  V30 2377 H 235.542 -1.39073 0.37346 0
M  V30 2378 H 237.495 -3.97044 -1.41188 0
M  V30 2379 H 236.219 -2.76947 -1.73113 0
M  V30 2380 H 234.878 -3.66018 0.206456 0
M  V30 2381 H 234.526 -4.57282 -2.09528 0
M  V30 2382 H 234.226 -5.81378 -0.852839 0
M  V30 2383 H 235.75 -5.83929 -1.78492 0
M  V30 2384 H 237.164 -5.71262 0.482983 0
M  V30 2385 H 235.561 -5.86747 1.25887 0
M  V30 2386 H 236.631 -4.53242 1.72335 0
M  V30 2387 N 237.974 -0.419461 -1.51915 0
M  V30 2388 C 238.884 0.407528 -2.31033 0
M  V30 2389 C 239.9 1.04413 -1.3919 0
M  V30 2390 O 241.076 1.0434 -1.72265 0
M  V30 2391 C 238.141 1.50365 -3.12396 0
M  V30 2392 C 237.202 0.889029 -4.19994 0
M  V30 2393 C 236.435 1.93291 -4.97468 0
M  V30 2394 O 236.658 3.15259 -4.75361 0
M  V30 2395 O 235.592 1.53339 -5.8204 0
M  V30 2396 H 239.418 -0.237865 -3.02767 0
M  V30 2397 H 237.003 -0.182413 -1.48282 0
M  V30 2398 H 238.885 2.13975 -3.63032 0
M  V30 2399 H 237.56 2.13345 -2.43445 0
M  V30 2400 H 236.467 0.215353 -3.7348 0
M  V30 2401 H 237.8 0.302991 -4.91267 0
M  V30 2402 N 239.452 1.56882 -0.150215 0
M  V30 2403 C 240.701 1.95403 0.500071 0
M  V30 2404 C 241.014 1.03777 1.658 0
M  V30 2405 O 242.22 1.31889 2.37313 0
M  V30 2406 C 240.676 3.4738 0.941018 0
M  V30 2407 C 240.284 4.47596 -0.190158 0
M  V30 2408 C 242.028 3.9476 1.56091 0
M  V30 2409 C 239.935 5.90787 0.269237 0
M  V30 2410 H 238.865 0.729515 0.190588 0
M  V30 2411 H 241.516 1.81988 -0.235074 0
M  V30 2412 H 239.898 3.56138 1.73152 0
M  V30 2413 H 241.072 4.50536 -0.967157 0
M  V30 2414 H 239.387 4.10151 -0.718666 0
M  V30 2415 H 241.984 4.99181 1.9163 0
M  V30 2416 H 242.327 3.36494 2.45107 0
M  V30 2417 H 242.86 3.88932 0.835249 0
M  V30 2418 H 239.599 6.52879 -0.585621 0
M  V30 2419 H 239.119 5.912 1.01204 0
M  V30 2420 H 240.798 6.42979 0.720176 0
M  V30 2421 N 240.93 -0.123565 1.57115 0
M  V30 2422 C 242.341 -0.681198 1.73829 0
M  V30 2423 C 242.692 -1.80535 0.768214 0
M  V30 2424 O 241.817 -2.16317 -0.0599103 0
M  V30 2425 C 242.412 -1.24246 3.15196 0
M  V30 2426 C 240.971 -1.74643 3.33432 0
M  V30 2427 C 240.118 -0.644284 2.69711 0
M  V30 2428 H 243.069 0.102315 1.5837 0
M  V30 2429 H 243.09 -2.11216 3.16493 0
M  V30 2430 H 242.602 -0.424062 3.85776 0
M  V30 2431 H 240.703 -2.58974 2.67886 0
M  V30 2432 H 240.816 -1.85902 4.41562 0
M  V30 2433 H 239.18 -1.07676 2.3082 0
M  V30 2434 H 239.963 0.163058 3.42913 0
M  V30 2435 N 242.408 -1.52605 -0.393616 0
M  V30 2436 C 243.824 -1.41753 -0.733357 0
M  V30 2437 C 244.024 -0.534293 -1.94287 0
M  V30 2438 O 243.08 -0.0059787 -2.52499 0
M  V30 2439 C 244.393 -2.84531 -0.972772 0
M  V30 2440 C 245.941 -2.93978 -1.07453 0
M  V30 2441 C 246.416 -4.37756 -1.3466 0
M  V30 2442 N 247.907 -4.4106 -1.41492 0
M  V30 2443 C 248.642 -5.49387 -1.642 0
M  V30 2444 N 248.138 -6.67806 -1.8441 0
M  V30 2445 N 249.931 -5.36923 -1.66342 0
M  V30 2446 H 242.082 -2.08555 0.402328 0
M  V30 2447 H 244.345 -0.940654 0.117789 0
M  V30 2448 H 244.051 -3.51353 -0.156204 0
M  V30 2449 H 243.925 -3.26508 -1.88871 0
M  V30 2450 H 246.312 -2.27326 -1.88167 0
M  V30 2451 H 246.393 -2.55435 -0.136605 0
M  V30 2452 H 246.037 -5.04972 -0.544581 0
M  V30 2453 H 245.967 -4.73848 -2.2973 0
M  V30 2454 H 248.458 -3.55705 -1.27601 0
M  V30 2455 H 248.771 -7.46141 -2.01231 0
M  V30 2456 H 247.116 -6.70843 -1.81644 0
M  V30 2457 H 250.307 -4.43381 -1.50102 0
M  V30 2458 H 250.48 -6.21416 -1.837 0
M  V30 2459 N 243.887 0.651787 -1.4349 0
M  V30 2460 C 244.835 1.78586 -1.49029 0
M  V30 2461 C 245.829 1.65448 -0.363767 0
M  V30 2462 O 247.035 1.71777 -0.537821 0
M  V30 2463 H 243.41 0.589236 -0.467231 0
M  V30 2464 H 245.381 1.71035 -2.44519 0
M  V30 2465 C 244.13 3.16851 -1.43181 0
M  V30 2466 H 243.453 3.27598 -2.29171 0
M  V30 2467 H 244.893 3.96156 -1.51118 0
M  V30 2468 C 243.352 3.36568 -0.149616 0
M  V30 2469 O 243.882 3.93885 0.788509 0
M  V30 2470 N 242.088 2.90539 -0.0593484 0
M  V30 2471 H 241.635 2.4408 -0.823575 0
M  V30 2472 H 241.593 3.04108 0.797853 0
M  V30 2473 N 245.365 1.30045 0.890287 0
M  V30 2474 C 246.298 1.10301 1.99772 0
M  V30 2475 C 247.276 0.0121631 1.62595 0
M  V30 2476 O 248.46 0.16469 1.87779 0
M  V30 2477 C 245.587 0.681125 3.31781 0
M  V30 2478 C 244.633 1.77206 3.87944 0
M  V30 2479 S 245.466 3.37335 4.15891 0
M  V30 2480 C 246.622 2.97036 5.50927 0
M  V30 2481 H 246.855 2.04057 2.16213 0
M  V30 2482 H 244.388 1.14299 1.03804 0
M  V30 2483 H 246.346 0.444439 4.08087 0
M  V30 2484 H 245.007 -0.236981 3.13205 0
M  V30 2485 H 244.2 1.42903 4.83316 0
M  V30 2486 H 243.802 1.96275 3.18358 0
M  V30 2487 H 246.094 2.44666 6.31779 0
M  V30 2488 H 247.037 3.91296 5.90164 0
M  V30 2489 H 247.445 2.35057 5.13233 0
M  V30 2490 N 246.843 -1.10192 1.12674 0
M  V30 2491 C 248.089 -1.82475 0.884915 0
M  V30 2492 C 248.422 -1.85093 -0.58773 0
M  V30 2493 O 247.697 -1.3134 -1.43457 0
M  V30 2494 C 247.98 -3.29018 1.46353 0
M  V30 2495 C 247.833 -3.34718 3.00473 0
M  V30 2496 C 249.152 -4.25473 1.12519 0
M  V30 2497 H 246.271 -0.662492 0.322915 0
M  V30 2498 H 248.913 -1.2913 1.39375 0
M  V30 2499 H 247.063 -3.74576 1.03077 0
M  V30 2500 H 248.735 -2.97622 3.52447 0
M  V30 2501 H 246.978 -2.74541 3.35872 0
M  V30 2502 H 247.649 -4.37918 3.36053 0
M  V30 2503 H 250.125 -3.88161 1.499 0
M  V30 2504 H 249.001 -5.26365 1.55663 0
M  V30 2505 H 249.262 -4.42084 0.0377407 0
M  V30 2506 N 248.321 -0.919034 -1.28029 0
M  V30 2507 C 249.269 -0.401753 -2.29104 0
M  V30 2508 C 250.263 0.509354 -1.61561 0
M  V30 2509 O 251.469 0.390014 -1.75724 0
M  V30 2510 H 247.844 -0.111331 -0.743713 0
M  V30 2511 H 249.815 -1.2672 -2.70156 0
M  V30 2512 C 248.564 0.338148 -3.46052 0
M  V30 2513 H 247.887 -0.353732 -3.98232 0
M  V30 2514 H 249.327 0.664653 -4.18758 0
M  V30 2515 C 247.786 1.54798 -2.99231 0
M  V30 2516 O 248.316 2.64696 -3.02157 0
M  V30 2517 N 246.522 1.3968 -2.54829 0
M  V30 2518 H 246.069 0.502698 -2.52647 0
M  V30 2519 H 246.027 2.20755 -2.23863 0
M  V30 2520 N 249.799 1.42003 -0.683588 0
M  V30 2521 C 250.762 2.29191 -0.0198243 0
M  V30 2522 C 251.762 1.43773 0.72013 0
M  V30 2523 O 252.952 1.65061 0.556815 0
M  V30 2524 C 250.084 3.26435 0.982487 0
M  V30 2525 H 251.277 2.8938 -0.787345 0
M  V30 2526 H 248.83 1.49789 -0.446418 0
M  V30 2527 H 249.565 2.71203 1.77819 0
M  V30 2528 H 249.35 3.89449 0.455182 0
M  V30 2529 H 250.84 3.918 1.44508 0
M  V30 2530 N 251.277 0.427512 1.51691 0
M  V30 2531 C 252.187 -0.39527 2.31246 0
M  V30 2532 C 253.203 -1.03674 1.39742 0
M  V30 2533 O 254.379 -1.03425 1.72816 0
M  V30 2534 C 251.444 -1.48706 3.13189 0
M  V30 2535 C 250.505 -0.866743 4.20459 0
M  V30 2536 C 249.738 -1.90651 4.98486 0
M  V30 2537 O 249.961 -3.12733 4.77026 0
M  V30 2538 O 248.895 -1.5025 5.82845 0
M  V30 2539 H 252.721 0.253918 3.02637 0
M  V30 2540 H 250.306 0.190274 1.48183 0
M  V30 2541 H 252.188 -2.12047 3.64162 0
M  V30 2542 H 250.863 -2.12051 2.44573 0
M  V30 2543 H 249.77 -0.195544 3.73589 0
M  V30 2544 H 251.103 -0.276934 4.9142 0
M  V30 2545 N 252.755 -1.56801 0.158532 0
M  V30 2546 C 254.001 -1.96781 -0.490405 0
M  V30 2547 C 254.334 -1.04397 -1.63753 0
M  V30 2548 O 253.609 -0.0885805 -1.94298 0
M  V30 2549 C 253.892 -3.4635 -0.985594 0
M  V30 2550 C 253.745 -4.49512 0.160824 0
M  V30 2551 C 255.064 -3.98697 -1.86355 0
M  V30 2552 H 252.183 -0.715482 -0.176788 0
M  V30 2553 H 254.825 -1.88451 0.242088 0
M  V30 2554 H 252.975 -3.53579 -1.60978 0
M  V30 2555 H 254.647 -4.54353 0.797537 0
M  V30 2556 H 252.89 -4.26013 0.818256 0
M  V30 2557 H 253.561 -5.51531 -0.227569 0
M  V30 2558 H 256.037 -3.94019 -1.33746 0
M  V30 2559 H 254.913 -5.03792 -2.17909 0
M  V30 2560 H 255.174 -3.41744 -2.8047 0
M  V30 2561 N 254.233 0.115231 -1.57178 0
M  V30 2562 C 255.143 1.15994 -2.03918 0
M  V30 2563 C 256.159 1.45103 -0.960268 0
M  V30 2564 O 257.335 1.56144 -1.27204 0
M  V30 2565 C 254.4 2.46568 -2.43732 0
M  V30 2566 C 253.461 2.24822 -3.65723 0
M  V30 2567 C 252.694 3.4917 -4.03629 0
M  V30 2568 O 252.917 4.56623 -3.41835 0
M  V30 2569 O 251.851 3.39949 -4.96708 0
M  V30 2570 H 255.677 0.793019 -2.93164 0
M  V30 2571 H 253.262 0.3263 -1.45793 0
M  V30 2572 H 255.144 3.23492 -2.70057 0
M  V30 2573 H 253.819 2.82726 -1.57631 0
M  V30 2574 H 252.726 1.45744 -3.44542 0
M  V30 2575 H 254.059 1.93566 -4.52541 0
M  V30 2576 N 255.711 1.52812 0.385517 0
M  V30 2577 C 257.122 1.5993 0.963293 0
M  V30 2578 C 257.473 0.454302 1.90868 0
M  V30 2579 O 256.598 -0.422132 2.12243 0
M  V30 2580 C 257.193 2.89871 1.75387 0
M  V30 2581 C 255.752 2.99389 2.28129 0
M  V30 2582 C 254.899 2.55071 1.08783 0
M  V30 2583 H 257.85 1.5784 0.164948 0
M  V30 2584 H 257.871 2.76553 2.61341 0
M  V30 2585 H 257.383 3.73186 1.06554 0
M  V30 2586 H 255.484 2.20619 3.00263 0
M  V30 2587 H 255.597 4.04096 2.57377 0
M  V30 2588 H 253.961 2.09473 1.4489 0
M  V30 2589 H 254.744 3.40785 0.414807 0
M  V30 2590 N 257.189 -0.644168 1.43834 0
M  V30 2591 C 258.435 -1.40603 1.46146 0
M  V30 2592 C 258.768 -1.93997 0.0887717 0
M  V30 2593 O 258.043 -1.72854 -0.891724 0
M  V30 2594 C 258.326 -2.58086 2.51124 0
M  V30 2595 C 258.179 -2.10126 3.97702 0
M  V30 2596 C 259.498 -3.60291 2.52742 0
M  V30 2597 H 256.617 -0.509905 0.532134 0
M  V30 2598 H 259.259 -0.729502 1.75437 0
M  V30 2599 H 257.409 -3.15801 2.26278 0
M  V30 2600 H 259.081 -1.57342 4.33637 0
M  V30 2601 H 257.324 -1.41419 4.10101 0
M  V30 2602 H 257.995 -2.94649 4.66783 0
M  V30 2603 H 260.471 -3.12352 2.7491 0
M  V30 2604 H 259.347 -4.40032 3.28121 0
M  V30 2605 H 259.608 -4.1349 1.56455 0
M  V30 2606 N 258.668 -1.30515 -0.883378 0
M  V30 2607 C 259.916 -1.19194 -1.63209 0
M  V30 2608 C 260.237 0.253205 -1.93349 0
M  V30 2609 O 259.507 1.17025 -1.57105 0
M  V30 2610 H 258.087 -0.438148 -0.605009 0
M  V30 2611 H 260.749 -1.63663 -1.05832 0
M  V30 2612 H 259.845 -1.75396 -2.58153 0
M  V30 2613 N 260.146 1.09593 -1.13257 0
M  V30 2614 C 261.423 1.78293 -0.804432 0
M  V30 2615 C 261.803 1.99004 0.70431 0
M  V30 2616 O 261.151 1.59007 1.641 0
M  V30 2617 C 261.361 3.10707 -1.5894 0
M  V30 2618 C 262.709 3.85443 -1.78099 0
M  V30 2619 O 263.733 3.20454 -1.55525 0
M  V30 2620 O 262.592 5.02108 -2.15753 0
M  V30 2621 H 259.686 0.773156 -0.293528 0
M  V30 2622 H 262.232 1.16164 -1.23709 0
M  V30 2623 H 261.004 2.91106 -2.61482 0
M  V30 2624 H 260.627 3.80558 -1.15157 0
M  V30 2625 N 261.624 0.925811 1.2754 0
M  V30 2626 C 262.901 0.483726 1.89524 0
M  V30 2627 C 263.281 -1.03809 1.83812 0
M  V30 2628 O 262.629 -1.89143 1.28207 0
M  V30 2629 C 262.839 1.02769 3.33526 0
M  V30 2630 C 264.187 1.08703 4.10449 0
M  V30 2631 O 265.211 0.977175 3.42534 0
M  V30 2632 O 264.07 1.25599 5.31871 0
M  V30 2633 H 261.164 0.15529 0.812289 0
M  V30 2634 H 263.71 1.01738 1.35822 0
M  V30 2635 H 262.482 2.07155 3.31967 0
M  V30 2636 H 262.105 0.475567 3.94746 0
M  V30 2637 N 263.102 -1.41638 0.69111 0
M  V30 2638 C 264.513 -1.84346 0.295517 0
M  V30 2639 C 264.864 -1.57833 -1.16547 0
M  V30 2640 O 263.989 -1.04648 -1.89414 0
M  V30 2641 C 264.584 -3.34636 0.529575 0
M  V30 2642 C 263.143 -3.7593 0.187944 0
M  V30 2643 C 262.29 -2.65082 0.814052 0
M  V30 2644 H 265.241 -1.31253 0.892092 0
M  V30 2645 H 265.262 -3.79903 -0.213148 0
M  V30 2646 H 264.774 -3.53901 1.59297 0
M  V30 2647 H 262.875 -3.62268 -0.871367 0
M  V30 2648 H 262.988 -4.74808 0.63985 0
M  V30 2649 H 261.352 -2.53528 0.244017 0
M  V30 2650 H 262.135 -2.87167 1.88123 0
M  V30 2651 N 264.58 -0.43555 -1.51462 0
M  V30 2652 C 265.543 0.365137 -2.26273 0
M  V30 2653 C 266.543 0.951227 -1.29647 0
M  V30 2654 O 267.733 0.825958 -1.53374 0
M  V30 2655 C 264.865 1.51645 -3.05314 0
M  V30 2656 H 266.058 -0.290474 -2.9849 0
M  V30 2657 H 263.611 -0.188676 -1.55157 0
M  V30 2658 H 264.346 2.20816 -2.3751 0
M  V30 2659 H 264.131 1.10238 -3.76284 0
M  V30 2660 H 265.621 2.08218 -3.61987 0
M  V30 2661 N 266.058 1.56714 -0.166846 0
M  V30 2662 C 267.304 1.97813 0.473473 0
M  V30 2663 C 267.659 1.05095 1.61161 0
M  V30 2664 O 266.952 0.0897541 1.9139 0
M  V30 2665 C 267.146 3.42889 1.00806 0
M  V30 2666 C 266.975 4.49635 -0.0767392 0
M  V30 2667 C 265.745 5.02566 -0.524894 0
M  V30 2668 C 267.943 5.06793 -0.875504 0
M  V30 2669 N 265.925 5.9294 -1.59047 0
M  V30 2670 C 267.296 5.93565 -1.79111 0
M  V30 2671 C 269.351 4.89306 -0.921083 0
M  V30 2672 C 268.054 6.64721 -2.74843 0
M  V30 2673 C 270.08 5.61179 -1.86633 0
M  V30 2674 C 269.442 6.47675 -2.76942 0
M  V30 2675 H 265.541 0.769093 0.141489 0
M  V30 2676 H 268.125 1.92874 -0.266031 0
M  V30 2677 H 266.296 3.48382 1.7171 0
M  V30 2678 H 268.028 3.71008 1.61664 0
M  V30 2679 H 264.783 4.73439 -0.123432 0
M  V30 2680 H 265.207 6.42831 -2.12361 0
M  V30 2681 H 269.849 4.22136 -0.23692 0
M  V30 2682 H 267.567 7.31107 -3.44249 0
M  V30 2683 H 271.153 5.49636 -1.90764 0
M  V30 2684 H 270.033 7.02313 -3.48893 0
M  V30 2685 N 267.536 -0.106894 1.57237 0
M  V30 2686 C 268.947 -0.662723 1.74542 0
M  V30 2687 C 269.298 -1.7971 0.787319 0
M  V30 2688 O 268.423 -2.16368 -0.0369636 0
M  V30 2689 C 269.018 -1.20896 3.16496 0
M  V30 2690 C 267.577 -1.71096 3.35266 0
M  V30 2691 C 266.724 -0.615642 2.7038 0
M  V30 2692 H 269.675 0.119106 1.58252 0
M  V30 2693 H 269.696 -2.07847 3.18716 0
M  V30 2694 H 269.208 -0.383122 3.86204 0
M  V30 2695 H 267.309 -2.56119 2.70618 0
M  V30 2696 H 267.422 -1.81208 4.43509 0
M  V30 2697 H 265.786 -1.05222 2.31949 0
M  V30 2698 H 266.569 0.199419 3.4272 0
M  V30 2699 N 269.014 -1.53014 -0.377408 0
M  V30 2700 C 270.26 -1.68872 -1.12294 0
M  V30 2701 C 270.593 -0.433224 -1.89306 0
M  V30 2702 O 269.868 0.569258 -1.85983 0
M  V30 2703 C 270.151 -2.93115 -2.09179 0
M  V30 2704 C 270.004 -4.28794 -1.35853 0
M  V30 2705 C 271.323 -3.12928 -3.09458 0
M  V30 2706 H 268.442 -0.614518 -0.406862 0
M  V30 2707 H 271.084 -1.85633 -0.40503 0
M  V30 2708 H 269.234 -2.78956 -2.70399 0
M  V30 2709 H 270.906 -4.54742 -0.775082 0
M  V30 2710 H 269.149 -4.28744 -0.660364 0
M  V30 2711 H 269.82 -5.11837 -2.06706 0
M  V30 2712 H 272.296 -3.26194 -2.58334 0
M  V30 2713 H 271.172 -4.01316 -3.74482 0
M  V30 2714 H 271.433 -2.27669 -3.78971 0
M  V30 2715 N 270.492 0.636531 -1.44174 0
M  V30 2716 C 271.769 1.39463 -1.37148 0
M  V30 2717 C 272.149 2.11082 -0.027507 0
M  V30 2718 O 271.497 2.05954 0.989716 0
M  V30 2719 C 271.707 2.36552 -2.56601 0
M  V30 2720 C 273.055 3.00048 -3.00427 0
M  V30 2721 O 274.079 2.46878 -2.56767 0
M  V30 2722 O 272.938 3.96488 -3.76111 0
M  V30 2723 H 270.032 0.623903 -0.542839 0
M  V30 2724 H 272.578 0.662039 -1.56253 0
M  V30 2725 H 271.35 1.82692 -3.46034 0
M  V30 2726 H 270.973 3.17236 -2.39681 0
M  V30 2727 N 271.97 1.30982 0.876444 0
M  V30 2728 C 273.386 1.09498 1.16113 0
M  V30 2729 C 273.586 -0.13875 2.01022 0
M  V30 2730 O 272.642 -0.829935 2.38471 0
M  V30 2731 C 273.955 2.36308 1.85954 0
M  V30 2732 C 275.503 2.41856 1.98683 0
M  V30 2733 C 275.978 3.6853 2.71937 0
M  V30 2734 N 277.469 3.69387 2.79477 0
M  V30 2735 C 278.204 4.64096 3.36753 0
M  V30 2736 N 277.7 5.69155 3.95012 0
M  V30 2737 N 279.493 4.51626 3.3465 0
M  V30 2738 H 271.644 2.10118 0.310494 0
M  V30 2739 H 273.907 0.926634 0.200131 0
M  V30 2740 H 273.613 3.26388 1.31011 0
M  V30 2741 H 273.487 2.4561 2.86278 0
M  V30 2742 H 275.874 1.52249 2.52793 0
M  V30 2743 H 275.955 2.36523 0.9742 0
M  V30 2744 H 275.599 4.58499 2.18496 0
M  V30 2745 H 275.529 3.71127 3.73593 0
M  V30 2746 H 278.02 2.93438 2.38123 0
M  V30 2747 H 278.333 6.3751 4.36808 0
M  V30 2748 H 276.678 5.72937 3.93406 0
M  V30 2749 H 279.869 3.68728 2.8837 0
M  V30 2750 H 280.042 5.25614 3.7899 0
M  V30 2751 N 273.449 -1.08991 1.13837 0
M  V30 2752 C 274.726 -1.77863 0.813876 0
M  V30 2753 C 275.106 -1.99375 -0.693746 0
M  V30 2754 O 274.454 -1.59875 -1.63255 0
M  V30 2755 C 274.664 -3.0986 1.60586 0
M  V30 2756 C 276.012 -3.84493 1.8014 0
M  V30 2757 O 277.036 -3.19624 1.57222 0
M  V30 2758 O 275.895 -5.00957 2.18413 0
M  V30 2759 H 272.989 -0.771589 0.297624 0
M  V30 2760 H 275.535 -1.15507 1.24323 0
M  V30 2761 H 274.307 -2.89715 2.63022 0
M  V30 2762 H 273.93 -3.79942 1.17173 0
M  V30 2763 N 274.927 -0.932562 -1.27047 0
M  V30 2764 C 275.89 -0.440064 -2.24936 0
M  V30 2765 C 276.89 0.444071 -1.54547 0
M  V30 2766 O 278.08 0.244465 -1.72476 0
M  V30 2767 C 275.212 0.36678 -3.38921 0
M  V30 2768 H 276.405 -1.305 -2.70018 0
M  V30 2769 H 273.958 -0.713707 -1.39054 0
M  V30 2770 H 274.693 1.25033 -2.99228 0
M  V30 2771 H 274.478 -0.267204 -3.91188 0
M  V30 2772 H 275.968 0.701567 -4.11665 0
M  V30 2773 N 276.405 1.4127 -0.698611 0
M  V30 2774 C 277.335 2.33447 -0.049629 0
M  V30 2775 C 278.316 1.51982 0.763898 0
M  V30 2776 O 279.501 1.80509 0.716257 0
M  V30 2777 C 276.631 3.35828 0.885267 0
M  V30 2778 C 275.585 4.27627 0.178613 0
M  V30 2779 C 274.911 5.20406 1.22807 0
M  V30 2780 C 276.211 5.13459 -0.956933 0
M  V30 2781 H 277.905 2.87966 -0.81951 0
M  V30 2782 H 275.451 1.38461 -0.395538 0
M  V30 2783 H 277.404 3.9924 1.34854 0
M  V30 2784 H 276.128 2.79666 1.68685 0
M  V30 2785 H 274.787 3.65643 -0.26466 0
M  V30 2786 H 274.435 4.60558 2.02226 0
M  V30 2787 H 274.135 5.82661 0.760239 0
M  V30 2788 H 275.659 5.86695 1.69179 0
M  V30 2789 H 277.073 5.70421 -0.573805 0
M  V30 2790 H 275.47 5.8467 -1.35205 0
M  V30 2791 H 276.54 4.50443 -1.79524 0
M  V30 2792 N 277.883 0.443576 1.51229 0
M  V30 2793 C 278.846 -0.353132 2.26463 0
M  V30 2794 C 279.846 -0.944338 1.3015 0
M  V30 2795 O 281.036 -0.817813 1.5381 0
M  V30 2796 C 278.168 -1.50023 3.06114 0
M  V30 2797 H 279.361 0.3063 2.98332 0
M  V30 2798 H 276.914 0.196902 1.55055 0
M  V30 2799 H 277.649 -2.19553 2.38677 0
M  V30 2800 H 277.434 -1.08241 3.76864 0
M  V30 2801 H 278.924 -2.06296 3.63087 0
M  V30 2802 N 279.361 -1.56624 0.175154 0
M  V30 2803 C 280.324 -2.16934 -0.739738 0
M  V30 2804 C 281.324 -1.11842 -1.15533 0
M  V30 2805 O 282.514 -1.37335 -1.07167 0
M  V30 2806 C 279.646 -2.75531 -2.00738 0
M  V30 2807 H 280.839 -2.99131 -0.214639 0
M  V30 2808 H 278.392 -1.56123 -0.0744197 0
M  V30 2809 H 279.127 -1.97078 -2.57548 0
M  V30 2810 H 278.912 -3.52444 -1.71831 0
M  V30 2811 H 280.402 -3.21904 -2.66021 0
M  V30 2812 N 280.839 0.0985539 -1.57292 0
M  V30 2813 C 282.079 0.808332 -1.87737 0
M  V30 2814 C 282.443 1.7607 -0.76572 0
M  V30 2815 O 283.644 2.51358 -0.952499 0
M  V30 2816 C 281.915 1.52093 -3.23423 0
M  V30 2817 S 283.474 2.26947 -3.75554 0
M  V30 2818 H 280.292 0.269377 -0.657995 0
M  V30 2819 H 282.894 0.0656269 -1.9539 0
M  V30 2820 H 281.598 0.81363 -4.02254 0
M  V30 2821 H 281.129 2.30361 -3.189 0
M  V30 2822 H 283.144 3.53027 -3.48692 0
M  V30 2823 N 282.317 1.53212 0.369288 0
M  V30 2824 C 283.28 1.7872 1.43498 0
M  V30 2825 C 284.28 0.657554 1.46741 0
M  V30 2826 O 285.47 0.925736 1.47566 0
M  V30 2827 C 282.602 1.90591 2.82645 0
M  V30 2828 H 283.795 2.73894 1.22156 0
M  V30 2829 H 281.348 1.44233 0.602203 0
M  V30 2830 H 282.083 0.974709 3.09306 0
M  V30 2831 H 281.868 2.72751 2.8169 0
M  V30 2832 H 283.358 2.11931 3.59826 0
M  V30 2833 N 283.795 -0.628877 1.44509 0
M  V30 2834 C 285.072 -1.38733 1.37886 0
M  V30 2835 C 285.452 -2.11065 0.0387008 0
M  V30 2836 O 284.8 -2.06476 -0.97878 0
M  V30 2837 C 285.01 -2.35188 2.57852 0
M  V30 2838 C 286.358 -2.9845 3.02014 0
M  V30 2839 O 287.382 -2.45513 2.58073 0
M  V30 2840 O 286.241 -3.94487 3.78209 0
M  V30 2841 H 283.335 -0.621015 0.54614 0
M  V30 2842 H 285.881 -0.653744 1.56602 0
M  V30 2843 H 284.653 -1.80855 3.46998 0
M  V30 2844 H 284.276 -3.1596 2.4136 0
M  V30 2845 N 285.273 -1.31445 -0.869486 0
M  V30 2846 C 286.183 -1.21097 -2.0093 0
M  V30 2847 C 287.199 -0.127584 -1.73532 0
M  V30 2848 O 288.375 -0.345477 -1.98415 0
M  V30 2849 C 285.44 -0.919378 -3.34288 0
M  V30 2850 C 284.501 -2.08971 -3.75006 0
M  V30 2851 C 283.734 -1.81194 -5.02001 0
M  V30 2852 O 283.957 -0.747296 -5.65484 0
M  V30 2853 O 282.891 -2.66883 -5.39497 0
M  V30 2854 H 286.717 -2.16883 -2.12592 0
M  V30 2855 H 284.302 -1.11189 -0.997868 0
M  V30 2856 H 286.184 -0.772625 -4.14257 0
M  V30 2857 H 284.859 0.00844772 -3.23699 0
M  V30 2858 H 283.766 -2.29187 -2.95676 0
M  V30 2859 H 285.099 -2.9998 -3.90221 0
M  V30 2860 N 286.751 1.08385 -1.14413 0
M  V30 2861 C 287.997 1.81044 -0.913834 0
M  V30 2862 C 288.33 1.86004 0.558209 0
M  V30 2863 O 287.605 1.33606 1.4135 0
M  V30 2864 C 287.888 3.26648 -1.51569 0
M  V30 2865 C 287.741 3.29895 -3.0576 0
M  V30 2866 C 289.06 4.23629 -1.19273 0
M  V30 2867 H 286.179 0.65727 -0.333414 0
M  V30 2868 H 288.821 1.26896 -1.41412 0
M  V30 2869 H 286.971 3.72889 -1.09023 0
M  V30 2870 H 288.643 2.91977 -3.57137 0
M  V30 2871 H 286.886 2.69163 -3.40197 0
M  V30 2872 H 287.557 4.32516 -3.42977 0
M  V30 2873 H 290.033 3.85727 -1.56057 0
M  V30 2874 H 288.909 5.23822 -1.64017 0
M  V30 2875 H 289.17 4.41968 -0.108068 0
M  V30 2876 N 288.23 0.939286 1.26551 0
M  V30 2877 C 289.16 0.465044 2.28822 0
M  V30 2878 C 290.141 -0.480692 1.63167 0
M  V30 2879 O 291.326 -0.382955 1.90387 0
M  V30 2880 C 288.456 -0.27234 3.46231 0
M  V30 2881 C 287.41 0.58666 4.2396 0
M  V30 2882 C 286.736 -0.280573 5.33963 0
M  V30 2883 C 288.036 1.85704 4.88171 0
M  V30 2884 H 289.73 1.31979 2.68741 0
M  V30 2885 H 287.276 0.636061 1.29191 0
M  V30 2886 H 289.229 -0.615133 4.16886 0
M  V30 2887 H 287.953 -1.16121 3.0526 0
M  V30 2888 H 286.612 0.91232 3.55067 0
M  V30 2889 H 286.26 -1.16874 4.89234 0
M  V30 2890 H 285.96 0.29076 5.8688 0
M  V30 2891 H 287.484 -0.618678 6.07458 0
M  V30 2892 H 288.898 1.58161 5.51052 0
M  V30 2893 H 287.295 2.37279 5.51197 0
M  V30 2894 H 288.365 2.56957 4.11219 0
M  V30 2895 N 289.708 -1.40897 0.706093 0
M  V30 2896 C 290.671 -2.29131 0.0562841 0
M  V30 2897 C 291.671 -1.44901 -0.697166 0
M  V30 2898 O 292.861 -1.65926 -0.530484 0
M  V30 2899 C 289.993 -3.27957 -0.93043 0
M  V30 2900 H 291.186 -2.88091 0.833284 0
M  V30 2901 H 288.739 -1.4906 0.470192 0
M  V30 2902 H 289.474 -2.73997 -1.73482 0
M  V30 2903 H 289.259 -3.90124 -0.393166 0
M  V30 2904 H 290.749 -3.94049 -1.38256 0
M  V30 2905 N 291.186 -0.45159 -1.50991 0
M  V30 2906 C 292.149 0.341117 -2.26647 0
M  V30 2907 C 293.149 0.937422 -1.30649 0
M  V30 2908 O 294.339 0.809644 -1.54241 0
M  V30 2909 C 291.471 1.48398 -3.06905 0
M  V30 2910 H 292.664 -0.322117 -2.98165 0
M  V30 2911 H 290.217 -0.205122 -1.54948 0
M  V30 2912 H 290.952 2.18284 -2.39838 0
M  V30 2913 H 290.737 1.06241 -3.77432 0
M  V30 2914 H 292.227 2.04367 -3.64176 0
M  V30 2915 N 292.664 1.56529 -0.183458 0
M  V30 2916 C 293.597 2.14417 0.781052 0
M  V30 2917 C 294.575 1.07761 1.21763 0
M  V30 2918 O 295.759 1.35807 1.30724 0
M  V30 2919 C 292.886 2.69361 2.05335 0
M  V30 2920 C 291.932 3.885 1.75982 0
M  V30 2921 S 292.765 5.27568 0.918256 0
M  V30 2922 C 293.921 5.85926 2.20095 0
M  V30 2923 H 294.154 2.95893 0.2889 0
M  V30 2924 H 291.687 1.54368 0.0313844 0
M  V30 2925 H 293.645 3.01662 2.78406 0
M  V30 2926 H 292.306 1.87949 2.51663 0
M  V30 2927 H 291.499 4.25314 2.70415 0
M  V30 2928 H 291.101 3.57149 1.10999 0
M  V30 2929 H 293.393 5.99579 3.15453 0
M  V30 2930 H 294.336 6.82761 1.87731 0
M  V30 2931 H 294.744 5.14438 2.32409 0
M  V30 2932 N 294.142 -0.090211 1.57342 0
M  V30 2933 C 295.558 -0.444547 1.53284 0
M  V30 2934 C 295.758 -1.80238 0.900914 0
M  V30 2935 O 294.814 -2.4759 0.495513 0
M  V30 2936 C 296.127 -0.402543 2.97993 0
M  V30 2937 C 297.675 -0.48405 3.09234 0
M  V30 2938 C 298.15 -0.472144 4.5556 0
M  V30 2939 N 299.641 -0.532757 4.60126 0
M  V30 2940 C 300.376 -0.545462 5.708 0
M  V30 2941 N 299.872 -0.514082 6.9089 0
M  V30 2942 N 301.665 -0.59064 5.58988 0
M  V30 2943 H 293.816 0.799121 1.96794 0
M  V30 2944 H 296.079 0.297965 0.899956 0
M  V30 2945 H 295.785 0.528106 3.47712 0
M  V30 2946 H 295.659 -1.21969 3.56936 0
M  V30 2947 H 298.046 -1.40512 2.595 0
M  V30 2948 H 298.127 0.361328 2.53235 0
M  V30 2949 H 297.771 0.445 5.05947 0
M  V30 2950 H 297.701 -1.3348 5.09402 0
M  V30 2951 H 300.192 -0.562006 3.73698 0
M  V30 2952 H 300.505 -0.527195 7.71 0
M  V30 2953 H 298.85 -0.481054 6.93333 0
M  V30 2954 H 302.041 -0.61272 4.64073 0
M  V30 2955 H 302.214 -0.597073 6.45243 0
M  V30 2956 N 295.62 -1.53406 -0.361157 0
M  V30 2957 C 296.845 -1.74024 -1.12829 0
M  V30 2958 C 297.27 -0.470069 -1.82132 0
M  V30 2959 O 296.628 0.57619 -1.719 0
M  V30 2960 C 296.676 -2.90903 -2.13091 0
M  V30 2961 O 295.78 -2.59821 -3.20261 0
M  V30 2962 H 295.121 -0.577804 -0.327168 0
M  V30 2963 H 297.651 -2.00307 -0.41693 0
M  V30 2964 H 297.661 -3.17194 -2.56616 0
M  V30 2965 H 296.336 -3.83034 -1.62042 0
M  V30 2966 H 294.913 -2.44362 -2.81677 0
M  V30 2967 N 297.098 0.621204 -1.44841 0
M  V30 2968 C 298.061 1.71459 -1.521 0
M  V30 2969 C 299.061 1.55696 -0.401933 0
M  V30 2970 O 300.251 1.61011 -0.664925 0
M  V30 2971 C 297.383 3.10624 -1.40447 0
M  V30 2972 H 298.576 1.66394 -2.49506 0
M  V30 2973 H 296.129 0.835745 -1.3208 0
M  V30 2974 H 296.864 3.21277 -0.441737 0
M  V30 2975 H 296.649 3.23473 -2.21602 0
M  V30 2976 H 298.139 3.90293 -1.4853 0
M  V30 2977 N 298.576 1.31904 0.862503 0
M  V30 2978 C 299.804 1.24998 1.64873 0
M  V30 2979 C 300.219 -0.183425 1.87907 0
M  V30 2980 O 299.576 -1.11794 1.44251 0
M  V30 2981 C 299.627 1.99829 3.01248 0
M  V30 2982 O 299.348 3.37575 2.79239 0
M  V30 2983 C 300.849 1.99852 3.95694 0
M  V30 2984 H 298.069 0.431599 0.513773 0
M  V30 2985 H 300.613 1.73901 1.07604 0
M  V30 2986 H 298.768 1.54668 3.55185 0
M  V30 2987 H 299.182 3.75776 3.65914 0
M  V30 2988 H 300.656 2.56709 4.88676 0
M  V30 2989 H 301.133 0.982852 4.28062 0
M  V30 2990 H 301.739 2.44926 3.47694 0
M  V30 2991 N 300.054 -1.07777 1.14986 0
M  V30 2992 C 301.279 -1.84558 0.946213 0
M  V30 2993 C 301.704 -1.81323 -0.500362 0
M  V30 2994 O 301.062 -1.20301 -1.35637 0
M  V30 2995 C 301.11 -3.29736 1.45968 0
M  V30 2996 O 300.214 -4.07149 0.65601 0
M  V30 2997 H 299.555 -0.571641 0.33782 0
M  V30 2998 H 302.085 -1.35991 1.52865 0
M  V30 2999 H 302.095 -3.80574 1.47063 0
M  V30 3000 H 300.77 -3.31406 2.51283 0
M  V30 3001 H 299.347 -3.65994 0.714322 0
M  V30 3002 N 301.532 -0.945985 -1.26051 0
M  V30 3003 C 302.943 -0.638096 -1.75457 0
M  V30 3004 C 303.294 0.846672 -1.76991 0
M  V30 3005 O 302.419 1.66262 -1.38513 0
M  V30 3006 C 303.014 -1.15157 -3.18629 0
M  V30 3007 C 301.573 -0.894004 -3.65629 0
M  V30 3008 C 300.72 -1.29967 -2.44957 0
M  V30 3009 H 303.671 -1.12376 -1.1206 0
M  V30 3010 H 303.692 -0.507615 -3.77099 0
M  V30 3011 H 303.204 -2.23222 -3.1748 0
M  V30 3012 H 301.305 0.172057 -3.72203 0
M  V30 3013 H 301.418 -1.52439 -4.54202 0
M  V30 3014 H 299.782 -0.718078 -2.44368 0
M  V30 3015 H 300.565 -2.38935 -2.46505 0
M  V30 3016 N 303.011 1.40521 -0.713556 0
M  V30 3017 C 304.257 2.01221 -0.252564 0
M  V30 3018 C 304.59 1.56444 1.1506 0
M  V30 3019 O 303.865 0.783597 1.78017 0
M  V30 3020 C 304.148 3.58582 -0.330332 0
M  V30 3021 C 304.001 4.13437 -1.77173 0
M  V30 3022 C 305.32 4.39079 0.299641 0
M  V30 3023 H 302.439 0.731077 -0.0932471 0
M  V30 3024 H 305.081 1.67026 -0.905673 0
M  V30 3025 H 303.231 3.87844 0.225737 0
M  V30 3026 H 304.903 3.9498 -2.38303 0
M  V30 3027 H 303.146 3.67801 -2.3001 0
M  V30 3028 H 303.817 5.22597 -1.77755 0
M  V30 3029 H 306.293 4.15735 -0.174139 0
M  V30 3030 H 305.169 5.4848 0.214771 0
M  V30 3031 H 305.43 4.19915 1.38288 0
M  V30 3032 N 304.489 0.459591 1.5075 0
M  V30 3033 C 305.419 -0.330644 2.31147 0
M  V30 3034 C 306.4 -1.00087 1.37538 0
M  V30 3035 O 307.585 -1.00025 1.66459 0
M  V30 3036 C 304.715 -1.41958 3.16962 0
M  V30 3037 C 303.669 -0.871608 4.19031 0
M  V30 3038 C 302.995 -2.05797 4.9351 0
M  V30 3039 C 304.295 0.109251 5.22186 0
M  V30 3040 H 305.989 0.340336 2.97459 0
M  V30 3041 H 303.535 0.165119 1.4305 0
M  V30 3042 H 305.488 -1.9798 3.71997 0
M  V30 3043 H 304.212 -2.11917 2.48513 0
M  V30 3044 H 302.871 -0.333442 3.6508 0
M  V30 3045 H 302.519 -2.74427 4.21544 0
M  V30 3046 H 302.219 -1.6976 5.62544 0
M  V30 3047 H 303.743 -2.62331 5.51375 0
M  V30 3048 H 305.157 -0.361405 5.7216 0
M  V30 3049 H 303.554 0.383316 5.98875 0
M  V30 3050 H 304.624 1.03887 4.73641 0
M  V30 3051 N 305.967 -1.56429 0.191757 0
M  V30 3052 C 306.9 -2.14829 -0.76967 0
M  V30 3053 C 307.878 -1.08405 -1.2119 0
M  V30 3054 O 309.062 -1.36498 -1.30002 0
M  V30 3055 C 306.189 -2.70446 -2.03903 0
M  V30 3056 C 305.235 -3.89428 -1.7392 0
M  V30 3057 S 306.068 -5.28048 -0.890265 0
M  V30 3058 C 307.224 -5.87085 -2.16984 0
M  V30 3059 H 307.457 -2.96042 -0.273204 0
M  V30 3060 H 304.99 -1.54383 -0.0231975 0
M  V30 3061 H 306.948 -3.03134 -2.76803 0
M  V30 3062 H 305.609 -1.89281 -2.50662 0
M  V30 3063 H 304.802 -4.26742 -2.68155 0
M  V30 3064 H 304.404 -3.57732 -1.09103 0
M  V30 3065 H 306.696 -6.01244 -3.12269 0
M  V30 3066 H 307.639 -6.83747 -1.84108 0
M  V30 3067 H 308.047 -5.15663 -2.29678 0
M  V30 3068 N 307.445 0.0818655 -1.57387 0
M  V30 3069 C 308.691 0.784074 -1.8703 0
M  V30 3070 C 309.024 1.77729 -0.782689 0
M  V30 3071 O 308.299 1.93384 0.208051 0
M  V30 3072 C 308.582 1.50105 -3.27323 0
M  V30 3073 C 308.435 0.524925 -4.46727 0
M  V30 3074 C 309.754 2.44843 -3.65705 0
M  V30 3075 H 306.873 0.283582 -0.680257 0
M  V30 3076 H 309.515 0.0474352 -1.89941 0
M  V30 3077 H 307.665 2.12897 -3.24972 0
M  V30 3078 H 309.337 -0.0970111 -4.61198 0
M  V30 3079 H 307.58 -0.160606 -4.33503 0
M  V30 3080 H 308.251 1.064 -5.41648 0
M  V30 3081 H 310.727 1.92135 -3.69085 0
M  V30 3082 H 309.603 2.92018 -4.64776 0
M  V30 3083 H 309.864 3.29197 -2.95096 0
M  V30 3084 N 308.923 1.53595 0.353017 0
M  V30 3085 C 310.163 1.72094 1.10286 0
M  V30 3086 C 310.527 0.469217 1.86178 0
M  V30 3087 O 311.728 0.531083 2.63501 0
M  V30 3088 C 309.999 2.94386 2.02661 0
M  V30 3089 S 311.558 3.33651 2.84996 0
M  V30 3090 H 308.376 0.605433 0.372789 0
M  V30 3091 H 310.978 1.91722 0.38248 0
M  V30 3092 H 309.682 3.83669 1.45691 0
M  V30 3093 H 309.213 2.77197 2.79152 0
M  V30 3094 H 311.228 2.86645 4.0503 0
M  V30 3095 N 310.401 -0.613514 1.45168 0
M  V30 3096 C 311.647 -1.37471 1.49096 0
M  V30 3097 C 311.98 -1.93765 0.129901 0
M  V30 3098 O 311.255 -1.74707 -0.854858 0
M  V30 3099 C 311.538 -2.52701 2.56542 0
M  V30 3100 C 311.391 -2.01643 4.0207 0
M  V30 3101 C 312.71 -3.54849 2.60327 0
M  V30 3102 H 309.829 -0.498502 0.54283 0
M  V30 3103 H 312.471 -0.692125 1.76945 0
M  V30 3104 H 310.621 -3.10931 2.32926 0
M  V30 3105 H 312.293 -1.48108 4.36877 0
M  V30 3106 H 310.536 -1.32688 4.13009 0
M  V30 3107 H 311.207 -2.84681 4.72928 0
M  V30 3108 H 313.683 -3.0645 2.81474 0
M  V30 3109 H 312.559 -4.32973 3.37381 0
M  V30 3110 H 312.82 -4.10079 1.6519 0
M  V30 3111 N 311.879 -1.3236 -0.855495 0
M  V30 3112 C 312.789 -1.23221 -1.99634 0
M  V30 3113 C 313.805 -0.145983 -1.73387 0
M  V30 3114 O 314.981 -0.366502 -1.98037 0
M  V30 3115 C 312.046 -0.954782 -3.33294 0
M  V30 3116 C 311.107 -2.12937 -3.72769 0
M  V30 3117 C 310.34 -1.86508 -5.00051 0
M  V30 3118 O 310.563 -0.807231 -5.64659 0
M  V30 3119 O 309.497 -2.72591 -5.36636 0
M  V30 3120 H 313.323 -2.19126 -2.1028 0
M  V30 3121 H 310.908 -1.12241 -0.986018 0
M  V30 3122 H 312.79 -0.816519 -4.13414 0
M  V30 3123 H 311.465 -0.0258854 -3.2369 0
M  V30 3124 H 310.372 -2.3231 -2.93228 0
M  V30 3125 H 311.705 -3.04102 -3.87018 0
M  V30 3126 N 313.357 1.07166 -1.15556 0
M  V30 3127 C 314.603 1.80065 -0.932984 0
M  V30 3128 C 314.936 1.86586 0.53845 0
M  V30 3129 O 314.211 1.35098 1.39924 0
M  V30 3130 C 314.494 3.25022 -1.55025 0
M  V30 3131 C 314.347 3.26634 -3.09242 0
M  V30 3132 C 315.666 4.22341 -1.2376 0
M  V30 3133 H 312.785 0.653697 -0.340366 0
M  V30 3134 H 315.427 1.25389 -1.4275 0
M  V30 3135 H 313.577 3.71712 -1.12972 0
M  V30 3136 H 315.249 2.88173 -3.60214 0
M  V30 3137 H 313.492 2.65539 -3.43033 0
M  V30 3138 H 314.163 4.28854 -3.47546 0
M  V30 3139 H 316.639 3.8405 -1.60139 0
M  V30 3140 H 315.515 5.22053 -1.69564 0
M  V30 3141 H 315.776 4.41828 -0.154938 0
M  V30 3142 N 314.835 0.952656 1.25548 0
M  V30 3143 C 316.251 0.656769 1.4546 0
M  V30 3144 C 316.451 -0.78633 1.85524 0
M  V30 3145 O 315.507 -1.56183 1.98402 0
M  V30 3146 C 316.82 1.62801 2.52817 0
M  V30 3147 C 318.368 1.63897 2.66659 0
M  V30 3148 C 318.843 2.5978 3.77198 0
M  V30 3149 N 320.334 2.58133 3.84606 0
M  V30 3150 C 321.069 3.29003 4.69621 0
M  V30 3151 N 320.565 4.09339 5.58939 0
M  V30 3152 N 322.358 3.179 4.63569 0
M  V30 3153 H 314.509 1.88526 0.978344 0
M  V30 3154 H 316.772 0.810815 0.491206 0
M  V30 3155 H 316.478 2.65869 2.30232 0
M  V30 3156 H 316.352 1.38898 3.50695 0
M  V30 3157 H 318.739 0.615481 2.8861 0
M  V30 3158 H 318.82 1.91858 1.69187 0
M  V30 3159 H 318.464 3.62254 3.55997 0
M  V30 3160 H 318.394 2.29105 4.7415 0
M  V30 3161 H 320.885 1.99809 3.20757 0
M  V30 3162 H 321.198 4.6034 6.20731 0
M  V30 3163 H 319.543 4.13438 5.58654 0
M  V30 3164 H 322.734 2.54612 3.92798 0
M  V30 3165 H 322.907 3.73398 5.29602 0
M  V30 3166 N 316.313 -1.40141 0.720998 0
M  V30 3167 C 317.729 -1.54632 0.395113 0
M  V30 3168 C 317.929 -1.69115 -1.09555 0
M  V30 3169 O 316.985 -1.68377 -1.88163 0
M  V30 3170 C 318.298 -2.77177 1.1659 0
M  V30 3171 C 319.846 -2.91 1.15274 0
M  V30 3172 C 320.321 -4.16465 1.90579 0
M  V30 3173 N 321.812 -4.23476 1.87675 0
M  V30 3174 C 322.547 -5.19475 2.42762 0
M  V30 3175 N 322.043 -6.21348 3.06428 0
M  V30 3176 N 323.836 -5.11592 2.32874 0
M  V30 3177 H 315.987 -1.28986 1.68749 0
M  V30 3178 H 318.25 -0.62412 0.713567 0
M  V30 3179 H 317.956 -2.72771 2.22011 0
M  V30 3180 H 317.83 -3.69442 0.76108 0
M  V30 3181 H 320.217 -2.94907 0.106702 0
M  V30 3182 H 320.298 -1.99838 1.59682 0
M  V30 3183 H 319.942 -4.1332 2.95176 0
M  V30 3184 H 319.872 -5.06646 1.43587 0
M  V30 3185 H 322.363 -3.50497 1.41281 0
M  V30 3186 H 322.676 -6.91034 3.45965 0
M  V30 3187 H 321.021 -6.21777 3.10514 0
M  V30 3188 H 324.212 -4.30936 1.82789 0
M  V30 3189 H 324.385 -5.86233 2.76106 0
M  V30 3190 N 317.792 -0.46758 -1.50504 0
M  V30 3191 C 319.022 0.086288 -2.0642 0
M  V30 3192 C 319.43 1.34369 -1.33197 0
M  V30 3193 O 318.773 1.79431 -0.393747 0
M  V30 3194 C 318.835 0.443846 -3.5675 0
M  V30 3195 C 318.499 -0.711035 -4.51435 0
M  V30 3196 C 319.496 -1.59205 -4.94924 0
M  V30 3197 C 317.181 -0.900363 -4.94165 0
M  V30 3198 C 319.175 -2.64683 -5.79846 0
M  V30 3199 C 316.862 -1.95837 -5.7887 0
M  V30 3200 C 317.86 -2.82997 -6.21612 0
M  V30 3201 O 317.548 -3.86977 -7.0463 0
M  V30 3202 H 317.28 -0.00217814 -0.675996 0
M  V30 3203 H 319.834 -0.654346 -1.94698 0
M  V30 3204 H 318.064 1.23762 -3.6636 0
M  V30 3205 H 319.753 0.932386 -3.95046 0
M  V30 3206 H 320.519 -1.45745 -4.62583 0
M  V30 3207 H 316.398 -0.231427 -4.60419 0
M  V30 3208 H 319.942 -3.32745 -6.13128 0
M  V30 3209 H 315.839 -2.09305 -6.10624 0
M  V30 3210 H 316.607 -3.83923 -7.22873 0
M  V30 3211 N 319.27 1.56325 -0.20005 0
M  V30 3212 C 320.518 1.97329 0.436547 0
M  V30 3213 C 320.839 1.08826 1.61808 0
M  V30 3214 O 320.109 0.160604 1.95241 0
M  V30 3215 H 318.689 0.728714 0.164272 0
M  V30 3216 H 321.351 1.92761 -0.287937 0
M  V30 3217 H 320.447 3.02264 0.777353 0
M  V30 3218 N 320.748 -0.0735177 1.57428 0
M  V30 3219 C 321.678 -1.0879 2.06608 0
M  V30 3220 C 322.659 -1.40473 0.959237 0
M  V30 3221 O 323.844 -1.5013 1.23185 0
M  V30 3222 C 320.974 -2.40183 2.50857 0
M  V30 3223 C 319.928 -2.22858 3.65402 0
M  V30 3224 C 319.254 -3.59619 3.957 0
M  V30 3225 C 320.554 -1.65123 4.95511 0
M  V30 3226 H 322.248 -0.678673 2.91607 0
M  V30 3227 H 319.794 -0.325013 1.40284 0
M  V30 3228 H 321.747 -3.11437 2.83874 0
M  V30 3229 H 320.471 -2.83083 1.62885 0
M  V30 3230 H 319.13 -1.54045 3.32664 0
M  V30 3231 H 318.778 -4.00086 3.04861 0
M  V30 3232 H 318.478 -3.48866 4.72828 0
M  V30 3233 H 320.002 -4.32306 4.31212 0
M  V30 3234 H 321.416 -2.26241 5.26771 0
M  V30 3235 H 319.813 -1.65071 5.7695 0
M  V30 3236 H 320.883 -0.612559 4.81015 0
M  V30 3237 N 322.226 -1.5378 -0.344866 0
M  V30 3238 C 323.136 -1.84667 -1.4469 0
M  V30 3239 C 324.152 -0.736704 -1.57635 0
M  V30 3240 O 325.328 -1.02888 -1.73136 0
M  V30 3241 C 322.393 -2.04869 -2.79696 0
M  V30 3242 C 321.454 -3.28731 -2.76106 0
M  V30 3243 C 320.687 -3.4796 -4.04673 0
M  V30 3244 O 320.91 -2.71052 -5.01883 0
M  V30 3245 O 319.844 -4.41383 -4.09224 0
M  V30 3246 H 323.67 -2.78334 -1.21506 0
M  V30 3247 H 321.255 -1.39418 -0.536921 0
M  V30 3248 H 323.137 -2.19609 -3.59652 0
M  V30 3249 H 321.812 -1.14391 -3.02814 0
M  V30 3250 H 320.719 -3.19396 -1.94774 0
M  V30 3251 H 322.052 -4.19198 -2.57941 0
M  V30 3252 N 323.704 0.605807 -1.45491 0
M  V30 3253 C 324.667 1.69836 -1.5391 0
M  V30 3254 C 325.667 1.55261 -0.418424 0
M  V30 3255 O 326.857 1.60296 -0.681965 0
M  V30 3256 C 323.989 3.09117 -1.43734 0
M  V30 3257 H 325.182 1.63738 -2.51257 0
M  V30 3258 H 322.735 0.821689 -1.32959 0
M  V30 3259 H 323.47 3.20791 -0.475788 0
M  V30 3260 H 323.255 3.21104 -2.25021 0
M  V30 3261 H 324.745 3.88696 -1.52661 0
M  V30 3262 N 325.182 1.32811 0.848464 0
M  V30 3263 C 326.129 1.22265 1.95755 0
M  V30 3264 C 327.099 0.103413 1.65778 0
M  V30 3265 O 328.284 0.280033 1.88734 0
M  V30 3266 C 325.424 0.958014 3.31536 0
M  V30 3267 C 324.537 2.16262 3.73971 0
M  V30 3268 C 323.672 1.83295 4.98575 0
M  V30 3269 C 322.711 3.00041 5.33518 0
M  V30 3270 N 321.848 2.67125 6.49299 0
M  V30 3271 H 326.688 2.17128 2.04107 0
M  V30 3272 H 324.225 1.07982 0.998913 0
M  V30 3273 H 326.183 0.785052 4.09747 0
M  V30 3274 H 324.813 0.046159 3.22767 0
M  V30 3275 H 323.865 2.44565 2.91362 0
M  V30 3276 H 325.177 3.03572 3.95785 0
M  V30 3277 H 324.331 1.62586 5.84509 0
M  V30 3278 H 323.07 0.932078 4.7871 0
M  V30 3279 H 322.075 3.21374 4.46093 0
M  V30 3280 H 323.3 3.90869 5.55336 0
M  V30 3281 H 321.246 1.79586 6.3094 0
M  V30 3282 H 321.163 3.47965 6.71161 0
M  V30 3283 H 322.431 2.49861 7.3837 0
M  V30 3284 N 326.66 -1.06551 1.16123 0
M  V30 3285 C 327.906 -1.79567 0.94252 0
M  V30 3286 C 328.239 -1.86869 -0.528547 0
M  V30 3287 O 327.514 -1.35838 -1.39206 0
M  V30 3288 C 327.797 -3.24195 1.56747 0
M  V30 3289 C 327.65 -3.24989 3.10969 0
M  V30 3290 C 328.969 -4.21678 1.25998 0
M  V30 3291 H 326.088 -0.651883 0.343828 0
M  V30 3292 H 328.73 -1.2463 1.43413 0
M  V30 3293 H 326.88 -3.71107 1.14942 0
M  V30 3294 H 328.552 -2.86258 3.61737 0
M  V30 3295 H 326.795 -2.63716 3.44436 0
M  V30 3296 H 327.466 -4.27005 3.49815 0
M  V30 3297 H 329.942 -3.83196 1.62174 0
M  V30 3298 H 328.818 -5.21146 1.7233 0
M  V30 3299 H 329.079 -4.4174 0.178367 0
M  V30 3300 N 328.138 -0.959301 -1.25041 0
M  V30 3301 C 329.101 -0.487677 -2.23952 0
M  V30 3302 C 330.101 0.41119 -1.55454 0
M  V30 3303 O 331.291 0.207825 -1.72956 0
M  V30 3304 C 328.423 0.294807 -3.39623 0
M  V30 3305 H 329.616 -1.36198 -2.67189 0
M  V30 3306 H 327.169 -0.743042 -1.37508 0
M  V30 3307 H 327.904 1.18658 -3.01813 0
M  V30 3308 H 327.689 -0.35012 -3.90534 0
M  V30 3309 H 329.179 0.614089 -4.1306 0
M  V30 3310 N 329.616 1.39756 -0.72842 0
M  V30 3311 C 330.526 2.34444 -0.0855374 0
M  V30 3312 C 331.542 1.57976 0.729356 0
M  V30 3313 O 332.718 1.90301 0.659346 0
M  V30 3314 C 329.783 3.36965 0.815798 0
M  V30 3315 C 328.844 4.29299 -0.0105996 0
M  V30 3316 C 328.077 5.26923 0.84781 0
M  V30 3317 O 328.3 5.30859 2.08673 0
M  V30 3318 O 327.234 6.01249 0.279969 0
M  V30 3319 H 331.06 2.91065 -0.866892 0
M  V30 3320 H 328.645 1.4117 -0.48902 0
M  V30 3321 H 330.527 3.99804 1.33171 0
M  V30 3322 H 329.202 2.82739 1.57608 0
M  V30 3323 H 328.109 3.69703 -0.571877 0
M  V30 3324 H 329.442 4.86712 -0.73295 0
M  V30 3325 N 331.094 0.475555 1.50254 0
M  V30 3326 C 332.024 -0.30611 2.31485 0
M  V30 3327 C 333.005 -0.986228 1.38591 0
M  V30 3328 O 334.19 -0.982541 1.67511 0
M  V30 3329 C 331.32 -1.38588 3.1845 0
M  V30 3330 C 330.274 -0.827115 4.19932 0
M  V30 3331 C 329.6 -2.00551 4.95665 0
M  V30 3332 C 330.9 0.16463 5.2204 0
M  V30 3333 H 332.594 0.371866 2.97082 0
M  V30 3334 H 330.14 0.180282 1.42867 0
M  V30 3335 H 332.093 -1.94023 3.74076 0
M  V30 3336 H 330.817 -2.09269 2.50747 0
M  V30 3337 H 329.476 -0.294702 3.65414 0
M  V30 3338 H 329.124 -2.6994 4.2443 0
M  V30 3339 H 328.824 -1.63784 5.64313 0
M  V30 3340 H 330.348 -2.56468 5.54127 0
M  V30 3341 H 331.762 -0.300699 5.72511 0
M  V30 3342 H 330.159 0.446813 5.98434 0
M  V30 3343 H 331.229 1.08905 4.72512 0
M  V30 3344 N 332.573 -1.56217 0.208337 0
M  V30 3345 C 333.536 -2.18455 -0.693557 0
M  V30 3346 C 334.536 -1.14268 -1.13135 0
M  V30 3347 O 335.726 -1.39577 -1.0423 0
M  V30 3348 C 332.858 -2.79727 -1.94848 0
M  V30 3349 H 334.051 -2.99519 -0.15114 0
M  V30 3350 H 331.604 -1.56245 -0.041287 0
M  V30 3351 H 332.339 -2.02497 -2.53309 0
M  V30 3352 H 332.124 -3.56009 -1.64316 0
M  V30 3353 H 333.614 -3.27475 -2.59133 0
M  V30 3354 N 334.051 0.0651679 -1.57465 0
M  V30 3355 C 334.983 1.10359 -2.00882 0
M  V30 3356 C 335.996 1.346 -0.915788 0
M  V30 3357 O 337.185 1.32723 -1.1936 0
M  V30 3358 C 334.285 2.45312 -2.33828 0
M  V30 3359 C 333.458 2.40934 -3.65061 0
M  V30 3360 C 332.517 3.58047 -3.85602 0
M  V30 3361 O 331.543 3.39175 -4.57109 0
M  V30 3362 N 332.745 4.78637 -3.28462 0
M  V30 3363 H 335.51 0.733807 -2.90578 0
M  V30 3364 H 333.071 0.253719 -1.599 0
M  V30 3365 H 335.063 3.22314 -2.44737 0
M  V30 3366 H 333.633 2.74267 -1.49988 0
M  V30 3367 H 332.853 1.49273 -3.64844 0
M  V30 3368 H 334.141 2.35117 -4.51218 0
M  V30 3369 H 333.539 4.96872 -2.70433 0
M  V30 3370 H 332.096 5.53127 -3.44809 0
M  V30 3371 N 335.529 1.53961 0.336706 0
M  V30 3372 C 336.945 1.44378 0.680241 0
M  V30 3373 C 337.145 0.606034 1.9217 0
M  V30 3374 O 336.201 0.099688 2.52303 0
M  V30 3375 C 337.514 2.87945 0.8665 0
M  V30 3376 C 339.062 2.97763 0.964682 0
M  V30 3377 C 339.537 4.42453 1.18321 0
M  V30 3378 N 341.028 4.46008 1.25025 0
M  V30 3379 C 341.763 5.55102 1.43697 0
M  V30 3380 N 341.259 6.7419 1.59498 0
M  V30 3381 N 343.052 5.42727 1.463 0
M  V30 3382 H 335.203 2.06918 -0.479455 0
M  V30 3383 H 337.466 0.935634 -0.152619 0
M  V30 3384 H 337.172 3.51691 0.0256937 0
M  V30 3385 H 337.046 3.33293 1.76623 0
M  V30 3386 H 339.433 2.34153 1.796 0
M  V30 3387 H 339.514 2.55766 0.041708 0
M  V30 3388 H 339.158 5.06645 0.356788 0
M  V30 3389 H 339.088 4.82048 2.11985 0
M  V30 3390 H 341.579 3.60196 1.14312 0
M  V30 3391 H 341.892 7.53095 1.734 0
M  V30 3392 H 340.237 6.77123 1.56621 0
M  V30 3393 H 343.428 4.48647 1.33543 0
M  V30 3394 H 343.601 6.27806 1.6051 0
M  V30 3395 N 337.007 -0.598083 1.45811 0
M  V30 3396 C 337.937 -1.71873 1.58057 0
M  V30 3397 C 338.918 -1.64533 0.431615 0
M  V30 3398 O 340.103 -1.82787 0.65595 0
M  V30 3399 C 337.233 -3.10495 1.55597 0
M  V30 3400 C 336.187 -3.32654 2.69305 0
M  V30 3401 C 335.513 -4.71646 2.51902 0
M  V30 3402 C 336.813 -3.21981 4.11248 0
M  V30 3403 H 338.507 -1.61881 2.51863 0
M  V30 3404 H 336.053 -0.777372 1.21214 0
M  V30 3405 H 338.006 -3.88699 1.6276 0
M  V30 3406 H 336.73 -3.2135 0.583255 0
M  V30 3407 H 335.389 -2.56843 2.61586 0
M  V30 3408 H 335.037 -4.79246 1.52748 0
M  V30 3409 H 334.737 -4.87426 3.2816 0
M  V30 3410 H 336.261 -5.52038 2.60933 0
M  V30 3411 H 337.675 -3.90049 4.20161 0
M  V30 3412 H 336.072 -3.49289 4.87972 0
M  V30 3413 H 337.142 -2.1928 4.32486 0
M  V30 3414 N 338.485 -1.33259 -0.841409 0
M  V30 3415 C 339.733 -1.24326 -1.59334 0
M  V30 3416 C 340.054 0.191564 -1.94057 0
M  V30 3417 O 339.324 1.11967 -1.60749 0
M  V30 3418 H 337.904 -0.457174 -0.590763 0
M  V30 3419 H 340.566 -1.66947 -1.00571 0
M  V30 3420 H 339.662 -1.8352 -2.52442 0
M  V30 3421 N 339.963 1.05934 -1.16686 0
M  V30 3422 C 341.209 1.79065 -0.95203 0
M  V30 3423 C 341.542 1.87147 0.518629 0
M  V30 3424 O 340.817 1.36574 1.38484 0
M  V30 3425 C 341.1 3.23359 -1.58464 0
M  V30 3426 C 340.953 3.23336 -3.12689 0
M  V30 3427 C 342.272 4.21004 -1.28232 0
M  V30 3428 H 339.391 0.65005 -0.34728 0
M  V30 3429 H 342.033 1.23868 -1.44072 0
M  V30 3430 H 340.183 3.70493 -1.16908 0
M  V30 3431 H 341.855 2.84336 -3.6325 0
M  V30 3432 H 340.098 2.61886 -3.4583 0
M  V30 3433 H 340.769 4.25144 -3.52075 0
M  V30 3434 H 343.245 3.8233 -1.64203 0
M  V30 3435 H 342.121 5.20225 -1.75092 0
M  V30 3436 H 342.382 4.41639 -0.201791 0
M  V30 3437 N 341.441 0.965919 1.2453 0
M  V30 3438 C 342.852 0.665929 1.7442 0
M  V30 3439 C 343.203 -0.818407 1.78316 0
M  V30 3440 O 342.328 -1.64037 1.41141 0
M  V30 3441 C 342.923 1.20211 3.16757 0
M  V30 3442 C 341.482 0.952059 3.6416 0
M  V30 3443 C 340.629 1.33848 2.42858 0
M  V30 3444 H 343.58 1.14144 1.10258 0
M  V30 3445 H 343.601 0.567544 3.76244 0
M  V30 3446 H 343.113 2.28244 3.13889 0
M  V30 3447 H 341.214 -0.112821 3.72429 0
M  V30 3448 H 341.327 1.59645 4.51719 0
M  V30 3449 H 339.691 0.756864 2.43195 0
M  V30 3450 H 340.474 2.42827 2.42673 0
M  V30 3451 N 342.919 -1.39368 0.735821 0
M  V30 3452 C 344.165 -2.00794 0.284544 0
M  V30 3453 C 344.498 -1.58255 -1.12557 0
M  V30 3454 O 343.773 -0.811819 -1.76748 0
M  V30 3455 C 344.056 -3.58011 0.387337 0
M  V30 3456 C 343.909 -4.10566 1.83728 0
M  V30 3457 C 345.228 -4.395 -0.22975 0
M  V30 3458 H 342.347 -0.729501 0.104866 0
M  V30 3459 H 344.989 -1.65564 0.93213 0
M  V30 3460 H 343.139 -3.88154 -0.164006 0
M  V30 3461 H 344.811 -3.91139 2.44556 0
M  V30 3462 H 343.054 -3.64095 2.35833 0
M  V30 3463 H 343.725 -5.19702 1.86047 0
M  V30 3464 H 346.201 -4.15406 0.240257 0
M  V30 3465 H 345.077 -5.48752 -0.127485 0
M  V30 3466 H 345.338 -4.22062 -1.3159 0
M  V30 3467 N 344.397 -0.483516 -1.5 0
M  V30 3468 C 345.643 0.0672592 -2.02688 0
M  V30 3469 C 345.976 1.38247 -1.36387 0
M  V30 3470 O 345.251 1.88131 -0.493675 0
M  V30 3471 C 345.534 0.238109 -3.59312 0
M  V30 3472 C 345.387 -1.099 -4.36168 0
M  V30 3473 C 346.706 0.986916 -4.28892 0
M  V30 3474 H 343.825 0.0229696 -0.736642 0
M  V30 3475 H 346.467 -0.631527 -1.79197 0
M  V30 3476 H 344.617 0.8333 -3.79458 0
M  V30 3477 H 346.289 -1.73172 -4.27562 0
M  V30 3478 H 344.532 -1.69261 -3.99416 0
M  V30 3479 H 345.203 -0.932954 -5.44059 0
M  V30 3480 H 347.679 0.482302 -4.13295 0
M  V30 3481 H 346.555 1.07527 -5.38265 0
M  V30 3482 H 346.816 2.0265 -3.92919 0
M  V30 3483 N 345.875 1.56104 -0.216619 0
M  V30 3484 C 347.103 2.02563 0.421413 0
M  V30 3485 C 347.518 1.0965 1.53695 0
M  V30 3486 O 346.875 0.10521 1.82196 0
M  V30 3487 C 346.926 3.48584 0.957665 0
M  V30 3488 O 346.647 4.37953 -0.113389 0
M  V30 3489 C 348.148 4.10664 1.66943 0
M  V30 3490 H 345.368 0.662944 0.103665 0
M  V30 3491 H 347.912 2.01793 -0.331629 0
M  V30 3492 H 346.067 3.49985 1.661 0
M  V30 3493 H 346.481 5.23704 0.288932 0
M  V30 3494 H 347.955 5.14622 1.99671 0
M  V30 3495 H 348.432 3.55373 2.58083 0
M  V30 3496 H 349.038 4.13098 1.01142 0
M  V30 3497 N 347.353 -0.0568162 1.57498 0
M  V30 3498 C 348.581 -0.765626 1.92213 0
M  V30 3499 C 348.996 -1.70353 0.813961 0
M  V30 3500 O 348.353 -1.81268 -0.211701 0
M  V30 3501 C 348.404 -1.5465 3.2675 0
M  V30 3502 O 348.125 -0.646278 4.33307 0
M  V30 3503 C 349.626 -2.35497 3.75574 0
M  V30 3504 H 346.846 -0.216835 0.634999 0
M  V30 3505 H 349.39 -0.0226146 2.04487 0
M  V30 3506 H 347.545 -2.24165 3.15957 0
M  V30 3507 H 347.959 -1.19093 5.108 0
M  V30 3508 H 349.433 -2.85722 4.72299 0
M  V30 3509 H 349.91 -3.15692 3.05344 0
M  V30 3510 H 350.516 -1.7111 3.8936 0
M  V30 3511 N 348.832 -1.54138 -0.328536 0
M  V30 3512 C 350.079 -1.72105 -1.06706 0
M  V30 3513 C 350.407 -0.492111 -1.88171 0
M  V30 3514 O 349.662 0.526153 -1.88494 0
M  V30 3515 C 349.961 -2.9457 -2.02393 0
M  V30 3516 C 349.627 -4.29544 -1.37122 0
M  V30 3517 C 348.289 -4.6624 -1.19052 0
M  V30 3518 C 350.641 -5.1333 -0.902331 0
M  V30 3519 C 347.969 -5.84325 -0.527331 0
M  V30 3520 C 350.321 -6.32094 -0.252988 0
M  V30 3521 C 348.985 -6.67473 -0.0600901 0
M  V30 3522 H 348.255 -0.629775 -0.390466 0
M  V30 3523 H 350.902 -1.88372 -0.34473 0
M  V30 3524 H 349.207 -2.72969 -2.81061 0
M  V30 3525 H 350.904 -3.05665 -2.59557 0
M  V30 3526 H 347.494 -4.0067 -1.52188 0
M  V30 3527 H 351.678 -4.855 -1.02974 0
M  V30 3528 H 346.934 -6.103 -0.366634 0
M  V30 3529 H 351.108 -6.96299 0.118366 0
M  V30 3530 H 348.735 -7.58832 0.455828 0
M  V30 3531 N 350.31 0.590341 -1.46126 0
M  V30 3532 C 351.243 1.71434 -1.50617 0
M  V30 3533 C 352.221 1.58543 -0.360948 0
M  V30 3534 O 353.405 1.79865 -0.563985 0
M  V30 3535 C 350.532 3.09422 -1.37753 0
M  V30 3536 C 349.578 3.40854 -2.5636 0
M  V30 3537 S 350.411 3.33773 -4.18755 0
M  V30 3538 C 351.567 4.74312 -4.08386 0
M  V30 3539 H 351.8 1.67364 -2.45717 0
M  V30 3540 H 349.333 0.76845 -1.33919 0
M  V30 3541 H 351.291 3.8903 -1.31018 0
M  V30 3542 H 349.952 3.10989 -0.440949 0
M  V30 3543 H 349.145 4.41368 -2.43332 0
M  V30 3544 H 348.747 2.68798 -2.60046 0
M  V30 3545 H 351.039 5.64522 -3.74595 0
M  V30 3546 H 351.982 4.92397 -5.08872 0
M  V30 3547 H 352.39 4.50803 -3.3976 0
M  V30 3548 N 351.788 1.33704 0.83433 0
M  V30 3549 C 353.036 1.25169 1.58673 0
M  V30 3550 C 353.357 -0.18127 1.94156 0
M  V30 3551 O 352.627 -1.11113 1.6134 0
M  V30 3552 H 351.207 0.4603 0.58833 0
M  V30 3553 H 353.869 1.67478 0.996847 0
M  V30 3554 H 352.965 1.84856 2.51465 0
M  V30 3555 N 353.266 -1.05314 1.17247 0
M  V30 3556 C 354.682 -1.30452 0.919473 0
M  V30 3557 C 354.882 -1.9703 -0.42209 0
M  V30 3558 O 353.938 -2.24311 -1.15935 0
M  V30 3559 C 355.251 -2.17551 2.07586 0
M  V30 3560 C 356.799 -2.30937 2.11275 0
M  V30 3561 C 357.274 -3.21396 3.26296 0
M  V30 3562 N 358.765 -3.28981 3.26076 0
M  V30 3563 C 359.5 -3.99095 4.11716 0
M  V30 3564 N 358.996 -4.71648 5.07465 0
M  V30 3565 N 360.789 -3.95247 3.9967 0
M  V30 3566 H 352.94 -0.604988 2.03602 0
M  V30 3567 H 355.203 -0.329368 0.888944 0
M  V30 3568 H 354.909 -1.75921 3.0454 0
M  V30 3569 H 354.783 -3.18182 2.02584 0
M  V30 3570 H 357.17 -2.71809 1.14907 0
M  V30 3571 H 357.251 -1.2994 2.20339 0
M  V30 3572 H 356.895 -2.81238 4.22927 0
M  V30 3573 H 356.825 -4.22395 3.14467 0
M  V30 3574 H 359.316 -2.77286 2.5675 0
M  V30 3575 H 359.629 -5.22705 5.6921 0
M  V30 3576 H 357.974 -4.70594 5.11435 0
M  V30 3577 H 361.165 -3.37691 3.24164 0
M  V30 3578 H 361.338 -4.4962 4.66632 0
M  V30 3579 N 354.744 -0.972509 -1.24016 0
M  V30 3580 C 355.992 -0.635776 -1.91839 0
M  V30 3581 C 356.313 0.832312 -1.76345 0
M  V30 3582 O 355.583 1.5946 -1.13795 0
M  V30 3583 H 354.163 -0.232157 -0.710009 0
M  V30 3584 H 356.825 -1.23462 -1.50809 0
M  V30 3585 H 355.921 -0.880545 -2.99421 0
M  V30 3586 N 356.222 1.38976 -0.743202 0
M  V30 3587 C 357.152 2.33171 -0.123873 0
M  V30 3588 C 358.133 1.54336 0.71516 0
M  V30 3589 O 359.318 1.82696 0.658467 0
M  V30 3590 C 356.448 3.38474 0.777978 0
M  V30 3591 C 355.402 4.27979 0.0424758 0
M  V30 3592 C 354.728 5.2405 1.06189 0
M  V30 3593 C 356.028 5.10155 -1.1198 0
M  V30 3594 H 357.722 2.85213 -0.910709 0
M  V30 3595 H 355.268 1.37133 -0.439388 0
M  V30 3596 H 357.221 4.03328 1.22084 0
M  V30 3597 H 355.945 2.84891 1.59702 0
M  V30 3598 H 354.604 3.64616 -0.380853 0
M  V30 3599 H 354.252 4.66758 1.87472 0
M  V30 3600 H 353.952 5.84785 0.574485 0
M  V30 3601 H 355.476 5.9178 1.50428 0
M  V30 3602 H 356.89 5.68307 -0.75499 0
M  V30 3603 H 355.287 5.80073 -1.53738 0
M  V30 3604 H 356.357 4.44504 -1.93764 0
M  V30 3605 N 357.7 0.491464 1.49741 0
M  V30 3606 C 358.63 -0.28154 2.31796 0
M  V30 3607 C 359.611 -0.971473 1.3963 0
M  V30 3608 O 360.796 -0.964719 1.68543 0
M  V30 3609 C 357.926 -1.35203 3.19902 0
M  V30 3610 C 356.88 -0.782529 4.20786 0
M  V30 3611 C 356.206 -1.95283 4.97764 0
M  V30 3612 C 357.506 0.21999 5.21837 0
M  V30 3613 H 359.2 0.403355 2.96671 0
M  V30 3614 H 356.746 0.195425 1.42668 0
M  V30 3615 H 358.699 -1.90045 3.76113 0
M  V30 3616 H 357.423 -2.06598 2.52953 0
M  V30 3617 H 356.082 -0.255928 3.65706 0
M  V30 3618 H 355.73 -2.65423 4.2727 0
M  V30 3619 H 355.43 -1.57789 5.66018 0
M  V30 3620 H 356.954 -2.50577 5.56816 0
M  V30 3621 H 358.368 -0.23996 5.72798 0
M  V30 3622 H 356.765 0.51026 5.97927 0
M  V30 3623 H 357.835 1.13911 4.7133 0
M  V30 3624 N 359.178 -1.55987 0.224894 0
M  V30 3625 C 360.141 -2.19178 -0.670348 0
M  V30 3626 C 361.141 -1.15461 -1.11917 0
M  V30 3627 O 362.331 -1.40675 -1.02743 0
M  V30 3628 C 359.463 -2.81777 -1.9187 0
M  V30 3629 H 360.656 -2.99662 -0.119364 0
M  V30 3630 H 358.209 -1.5628 -0.0247128 0
M  V30 3631 H 358.944 -2.05172 -2.51147 0
M  V30 3632 H 358.729 -3.57732 -1.60531 0
M  V30 3633 H 360.219 -3.30205 -2.55645 0
M  V30 3634 N 360.656 0.0484629 -1.57525 0
M  V30 3635 C 361.933 0.777447 -1.79486 0
M  V30 3636 C 362.313 1.94597 -0.818251 0
M  V30 3637 O 361.661 2.28047 0.143767 0
M  V30 3638 C 361.871 1.22864 -3.26658 0
M  V30 3639 C 363.219 1.65251 -3.91123 0
M  V30 3640 O 364.243 1.32372 -3.3069 0
M  V30 3641 O 363.102 2.26207 -4.97486 0
M  V30 3642 H 360.196 0.374357 -0.737419 0
M  V30 3643 H 362.742 0.0267359 -1.69679 0
M  V30 3644 H 361.514 0.393589 -3.89316 0
M  V30 3645 H 361.137 2.03996 -3.41279 0
M  V30 3646 N 362.134 1.5431 0.320358 0
M  V30 3647 C 363.097 1.83195 1.3774 0
M  V30 3648 C 364.097 0.703906 1.44575 0
M  V30 3649 O 365.287 0.972214 1.44546 0
M  V30 3650 C 362.419 1.99487 2.76438 0
M  V30 3651 H 363.612 2.77642 1.1338 0
M  V30 3652 H 361.165 1.46076 0.556012 0
M  V30 3653 H 361.9 1.07262 3.06048 0
M  V30 3654 H 361.685 2.81575 2.7287 0
M  V30 3655 H 363.175 2.23271 3.52902 0
M  V30 3656 N 363.613 -0.582584 1.46437 0
M  V30 3657 C 365.024 -1.1647 1.45916 0
M  V30 3658 C 365.375 -1.95177 0.200077 0
M  V30 3659 O 364.5 -2.04874 -0.696819 0
M  V30 3660 C 365.095 -2.11885 2.64367 0
M  V30 3661 C 363.654 -2.65421 2.66887 0
M  V30 3662 C 362.801 -1.41294 2.38603 0
M  V30 3663 H 365.752 -0.370514 1.54314 0
M  V30 3664 H 365.773 -2.9535 2.39892 0
M  V30 3665 H 365.285 -1.54573 3.5599 0
M  V30 3666 H 363.386 -3.26602 1.79338 0
M  V30 3667 H 363.499 -3.08147 3.66854 0
M  V30 3668 H 361.863 -1.71109 1.88663 0
M  V30 3669 H 362.646 -0.858125 3.32402 0
M  V30 3670 N 365.091 -1.34144 -0.827227 0
M  V30 3671 C 366.319 -1.29325 -1.61501 0
M  V30 3672 C 366.734 0.13354 -1.88327 0
M  V30 3673 O 366.091 1.0793 -1.47164 0
M  V30 3674 C 366.142 -2.07746 -2.95844 0
M  V30 3675 O 365.863 -3.4486 -2.70191 0
M  V30 3676 C 367.364 -2.10273 -3.90256 0
M  V30 3677 H 364.584 -0.445069 -0.50215 0
M  V30 3678 H 367.128 -1.76693 -1.02955 0
M  V30 3679 H 365.283 -1.6403 -3.5096 0
M  V30 3680 H 365.697 -3.85345 -3.55822 0
M  V30 3681 H 367.171 -2.69575 -4.81698 0
M  V30 3682 H 367.648 -1.096 -4.25305 0
M  V30 3683 H 368.254 -2.54059 -3.41078 0
M  V30 3684 N 366.569 1.04691 -1.17803 0
M  V30 3685 C 367.98 1.59238 -0.974689 0
M  V30 3686 C 368.331 1.90306 0.477292 0
M  V30 3687 O 367.456 1.68846 1.35352 0
M  V30 3688 C 368.051 2.89318 -1.76296 0
M  V30 3689 C 366.61 3.40506 -1.60414 0
M  V30 3690 C 365.757 2.14172 -1.76141 0
M  V30 3691 H 368.708 0.874395 -1.32439 0
M  V30 3692 H 368.729 3.5944 -1.24833 0
M  V30 3693 H 368.241 2.66675 -2.81968 0
M  V30 3694 H 366.342 3.68175 -0.572519 0
M  V30 3695 H 366.455 4.14753 -2.39827 0
M  V30 3696 H 364.819 2.25176 -1.19028 0
M  V30 3697 H 365.602 1.93992 -2.83235 0
M  V30 3698 N 368.047 0.979072 1.23499 0
M  V30 3699 C 369.458 0.684391 1.73704 0
M  V30 3700 C 369.809 -0.799448 1.79174 0
M  V30 3701 O 368.934 -1.62531 1.42873 0
M  V30 3702 C 369.529 1.23564 3.15464 0
M  V30 3703 C 368.088 0.99063 3.6313 0
M  V30 3704 C 367.235 1.36416 2.41425 0
M  V30 3705 H 370.186 1.15307 1.09041 0
M  V30 3706 H 370.207 0.607417 3.7562 0
M  V30 3707 H 369.719 2.31561 3.1145 0
M  V30 3708 H 367.82 -0.0733136 3.72528 0
M  V30 3709 H 367.933 1.64427 4.5 0
M  V30 3710 H 366.297 0.782616 2.42378 0
M  V30 3711 H 367.08 2.45387 2.40083 0
M  V30 3712 N 369.525 -1.3858 0.750561 0
M  V30 3713 C 370.455 -2.33102 0.136237 0
M  V30 3714 C 371.436 -1.54713 -0.706965 0
M  V30 3715 O 372.621 -1.83043 -0.648769 0
M  V30 3716 C 369.751 -3.38882 -0.760017 0
M  V30 3717 C 368.705 -4.27995 -0.0197785 0
M  V30 3718 C 368.031 -5.24605 -1.03408 0
M  V30 3719 C 369.331 -5.09554 1.14684 0
M  V30 3720 H 371.025 -2.84726 0.925822 0
M  V30 3721 H 368.571 -1.36898 0.446654 0
M  V30 3722 H 370.524 -4.0397 -1.19943 0
M  V30 3723 H 369.248 -2.85734 -1.58189 0
M  V30 3724 H 367.907 -3.64409 0.400184 0
M  V30 3725 H 367.555 -4.67746 -1.84994 0
M  V30 3726 H 367.255 -5.85081 -0.543464 0
M  V30 3727 H 368.779 -5.9257 -1.47288 0
M  V30 3728 H 370.193 -5.67899 0.785118 0
M  V30 3729 H 368.59 -5.7925 1.56812 0
M  V30 3730 H 369.66 -4.4347 1.96118 0
M  V30 3731 N 371.003 -0.499398 -1.49478 0
M  V30 3732 C 372.251 0.0455996 -2.02049 0
M  V30 3733 C 372.572 1.37633 -1.38138 0
M  V30 3734 O 371.842 1.8842 -0.536166 0
M  V30 3735 H 370.422 0.0198416 -0.746736 0
M  V30 3736 H 373.084 -0.656274 -1.83519 0
M  V30 3737 H 372.18 0.176445 -3.11601 0
M  V30 3738 N 372.481 1.55866 -0.233164 0
M  V30 3739 C 373.709 2.02998 0.399905 0
M  V30 3740 C 374.124 1.11274 1.52524 0
M  V30 3741 O 373.481 0.124528 1.82075 0
M  V30 3742 C 373.532 3.4958 0.920639 0
M  V30 3743 O 373.253 4.37808 -0.159834 0
M  V30 3744 C 374.754 4.12411 1.62578 0
M  V30 3745 H 371.974 0.664006 0.0966281 0
M  V30 3746 H 374.518 2.0143 -0.353013 0
M  V30 3747 H 372.673 3.51727 1.62379 0
M  V30 3748 H 373.087 5.23981 0.23337 0
M  V30 3749 H 374.561 5.16711 1.94201 0
M  V30 3750 H 375.038 3.5809 2.54299 0
M  V30 3751 H 375.644 4.14148 0.967553 0
M  V30 3752 N 373.959 -0.0401083 1.57549 0
M  V30 3753 C 375.189 -0.744115 1.92734 0
M  V30 3754 C 375.597 -1.70005 0.830348 0
M  V30 3755 O 374.94 -1.82576 -0.20286 0
M  V30 3756 C 375.002 -1.56516 3.2364 0
M  V30 3757 C 374.666 -0.7752 4.50377 0
M  V30 3758 C 375.663 -0.0803326 5.19838 0
M  V30 3759 C 373.348 -0.733002 4.96923 0
M  V30 3760 C 375.342 0.646154 6.34116 0
M  V30 3761 C 373.029 -0.00276321 6.111 0
M  V30 3762 C 374.027 0.685585 6.7955 0
M  V30 3763 O 373.715 1.40399 7.91545 0
M  V30 3764 H 373.447 -0.214861 0.640945 0
M  V30 3765 H 376.001 -0.00503675 2.05399 0
M  V30 3766 H 374.231 -2.3478 3.07271 0
M  V30 3767 H 375.92 -2.15076 3.44234 0
M  V30 3768 H 376.686 -0.104035 4.84888 0
M  V30 3769 H 372.565 -1.25827 4.43496 0
M  V30 3770 H 376.109 1.18398 6.87479 0
M  V30 3771 H 372.006 0.0229012 6.45496 0
M  V30 3772 H 372.774 1.31653 8.07843 0
M  V30 3773 N 375.437 -1.54477 -0.31217 0
M  V30 3774 C 376.686 -1.72438 -1.04633 0
M  V30 3775 C 376.999 -0.511163 -1.88803 0
M  V30 3776 O 378.205 -0.572341 -2.65399 0
M  V30 3777 C 376.661 -3.05043 -1.9099 0
M  V30 3778 C 376.269 -4.33806 -1.11877 0
M  V30 3779 C 378.013 -3.32364 -2.64073 0
M  V30 3780 C 375.92 -5.57467 -1.97445 0
M  V30 3781 H 374.85 -0.642647 -0.394361 0
M  V30 3782 H 377.501 -1.80966 -0.303929 0
M  V30 3783 H 375.883 -2.90451 -2.69173 0
M  V30 3784 H 377.057 -4.59199 -0.383843 0
M  V30 3785 H 375.372 -4.13336 -0.504252 0
M  V30 3786 H 377.969 -4.21951 -3.28423 0
M  V30 3787 H 378.312 -2.50745 -3.32314 0
M  V30 3788 H 378.845 -3.47875 -1.92944 0
M  V30 3789 H 375.584 -6.41722 -1.33692 0
M  V30 3790 H 375.104 -5.36277 -2.6864 0
M  V30 3791 H 376.783 -5.94303 -2.5576 0
M  V30 3792 N 376.915 0.57481 -1.46744 0
M  V30 3793 C 378.163 1.33009 -1.52161 0
M  V30 3794 C 378.484 1.94185 -0.178092 0
M  V30 3795 O 377.754 1.7899 0.796196 0
M  V30 3796 H 376.334 0.493873 -0.560445 0
M  V30 3797 H 378.996 0.672589 -1.82927 0
M  V30 3798 H 378.092 2.13273 -2.27862 0
M  V30 3799 N 378.394 1.34581 0.820102 0
M  V30 3800 C 379.64 1.27285 1.57881 0
M  V30 3801 C 379.973 -0.156137 1.93571 0
M  V30 3802 O 379.248 -1.10222 1.60254 0
M  V30 3803 C 379.531 2.16639 2.87645 0
M  V30 3804 C 379.384 3.68088 2.58517 0
M  V30 3805 C 380.703 2.05378 3.8924 0
M  V30 3806 H 377.822 0.463714 0.572833 0
M  V30 3807 H 380.464 1.64859 0.944539 0
M  V30 3808 H 378.614 1.84725 3.41773 0
M  V30 3809 H 380.286 4.10382 2.10676 0
M  V30 3810 H 378.529 3.89038 1.91917 0
M  V30 3811 H 379.2 4.2598 3.51063 0
M  V30 3812 H 381.676 2.33404 3.44473 0
M  V30 3813 H 380.552 2.7012 4.77835 0
M  V30 3814 H 380.813 1.0316 4.29896 0
M  V30 3815 N 379.872 -1.04064 1.18357 0
M  V30 3816 C 380.835 -2.10243 0.912707 0
M  V30 3817 C 381.835 -1.60477 -0.101928 0
M  V30 3818 O 383.025 -1.73703 0.131517 0
M  V30 3819 C 380.157 -3.38893 0.369387 0
M  V30 3820 H 381.35 -2.35706 1.85426 0
M  V30 3821 H 378.903 -1.20489 0.995594 0
M  V30 3822 H 379.638 -3.19094 -0.578776 0
M  V30 3823 H 379.423 -3.76331 1.1008 0
M  V30 3824 H 380.913 -4.17128 0.198575 0
M  V30 3825 N 381.35 -0.985608 -1.22978 0
M  V30 3826 C 382.598 -0.656087 -1.91154 0
M  V30 3827 C 382.919 0.813561 -1.77218 0
M  V30 3828 O 382.189 1.58244 -1.1548 0
M  V30 3829 H 380.769 -0.239674 -0.707506 0
M  V30 3830 H 383.431 -1.25054 -1.49491 0
M  V30 3831 H 382.527 -0.912253 -2.9847 0
M  V30 3832 N 382.828 1.3818 -0.7579 0
M  V30 3833 C 384.105 1.94106 -0.241306 0
M  V30 3834 C 384.485 1.69282 1.26122 0
M  V30 3835 O 383.833 1.03378 2.03777 0
M  V30 3836 C 384.043 3.43809 -0.59967 0
M  V30 3837 C 385.391 4.20868 -0.561717 0
M  V30 3838 O 386.415 3.5211 -0.538222 0
M  V30 3839 O 385.274 5.43451 -0.576478 0
M  V30 3840 H 382.368 0.825376 -0.0518042 0
M  V30 3841 H 384.914 1.47548 -0.838315 0
M  V30 3842 H 383.686 3.55403 -1.6372 0
M  V30 3843 H 383.309 3.97592 0.0251197 0
M  V30 3844 N 384.306 0.507319 1.49211 0
M  V30 3845 C 385.269 -0.256763 2.27757 0
M  V30 3846 C 386.269 -0.888287 1.34038 0
M  V30 3847 O 387.459 -0.751841 1.5714 0
M  V30 3848 C 384.591 -1.36905 3.12202 0
M  V30 3849 H 385.784 0.432557 2.96764 0
M  V30 3850 H 383.337 0.262488 1.5408 0
M  V30 3851 H 384.072 -2.09233 2.47775 0
M  V30 3852 H 383.857 -0.921599 3.81115 0
M  V30 3853 H 385.347 -1.9071 3.7151 0
M  V30 3854 N 385.784 -1.5574 0.241426 0
M  V30 3855 C 386.694 -2.2479 -0.671305 0
M  V30 3856 C 387.71 -1.26217 -1.19772 0
M  V30 3857 O 388.886 -1.59079 -1.23514 0
M  V30 3858 C 385.951 -2.92966 -1.85396 0
M  V30 3859 C 385.012 -4.06935 -1.36756 0
M  V30 3860 C 384.245 -4.71851 -2.49384 0
M  V30 3861 O 384.468 -4.35823 -3.67987 0
M  V30 3862 O 383.402 -5.60467 -2.19454 0
M  V30 3863 H 387.228 -3.0349 -0.112966 0
M  V30 3864 H 384.813 -1.49397 0.0101513 0
M  V30 3865 H 386.695 -3.35927 -2.54423 0
M  V30 3866 H 385.37 -2.17211 -2.40002 0
M  V30 3867 H 384.277 -3.68503 -0.644726 0
M  V30 3868 H 385.61 -4.84492 -0.867647 0
M  V30 3869 N 387.262 0.0317525 -1.57568 0
M  V30 3870 C 388.511 0.722131 -1.8833 0
M  V30 3871 C 388.824 1.76664 -0.839587 0
M  V30 3872 O 390.03 2.50942 -1.03635 0
M  V30 3873 C 388.486 1.33544 -3.34207 0
M  V30 3874 C 388.094 0.327415 -4.46802 0
M  V30 3875 C 389.838 2.00585 -3.7412 0
M  V30 3876 C 387.745 0.948915 -5.83738 0
M  V30 3877 H 386.675 0.273466 -0.702661 0
M  V30 3878 H 389.326 -0.0235811 -1.83485 0
M  V30 3879 H 387.708 2.13077 -3.33788 0
M  V30 3880 H 388.882 -0.441006 -4.58685 0
M  V30 3881 H 387.197 -0.240758 -4.15703 0
M  V30 3882 H 389.794 2.47932 -4.73744 0
M  V30 3883 H 390.137 2.82285 -3.05975 0
M  V30 3884 H 390.67 1.27831 -3.76702 0
M  V30 3885 H 387.409 0.171387 -6.55276 0
M  V30 3886 H 386.929 1.68724 -5.7558 0
M  V30 3887 H 388.608 1.45705 -6.3038 0
M  V30 3888 N 388.74 1.54641 0.303973 0
M  V30 3889 C 389.968 1.77768 1.05858 0
M  V30 3890 C 390.383 0.535722 1.8104 0
M  V30 3891 O 389.74 -0.494337 1.75677 0
M  V30 3892 C 389.791 2.9834 2.04146 0
M  V30 3893 O 389.512 4.17736 1.32015 0
M  V30 3894 C 391.013 3.33832 2.91669 0
M  V30 3895 H 388.233 0.592961 0.314067 0
M  V30 3896 H 390.777 2.01583 0.344149 0
M  V30 3897 H 388.932 2.76742 2.71096 0
M  V30 3898 H 389.346 4.85693 1.97998 0
M  V30 3899 H 390.82 4.21448 3.56491 0
M  V30 3900 H 391.297 2.51857 3.59812 0
M  V30 3901 H 391.903 3.57579 2.30254 0
M  V30 3902 N 390.218 -0.567019 1.47046 0
M  V30 3903 C 391.634 -0.891975 1.32348 0
M  V30 3904 C 391.834 -1.99154 0.306616 0
M  V30 3905 O 390.89 -2.50883 -0.28532 0
M  V30 3906 C 392.203 -1.29449 2.7141 0
M  V30 3907 C 393.751 -1.40646 2.79621 0
M  V30 3908 C 394.226 -1.84257 4.19301 0
M  V30 3909 N 395.717 -1.91424 4.21795 0
M  V30 3910 C 396.452 -2.26476 5.26779 0
M  V30 3911 N 395.948 -2.60211 6.42077 0
M  V30 3912 N 397.741 -2.27166 5.14152 0
M  V30 3913 H 389.892 0.159074 2.11803 0
M  V30 3914 H 392.155 0.00849752 0.947962 0
M  V30 3915 H 391.861 -0.560448 3.47206 0
M  V30 3916 H 391.735 -2.25273 3.02542 0
M  V30 3917 H 394.122 -2.13133 2.04104 0
M  V30 3918 H 394.203 -0.430339 2.52154 0
M  V30 3919 H 393.847 -1.12343 4.95319 0
M  V30 3920 H 393.777 -2.82855 4.44185 0
M  V30 3921 H 396.268 -1.6778 3.38612 0
M  V30 3922 H 396.581 -2.85956 7.17948 0
M  V30 3923 H 394.926 -2.57813 6.45413 0
M  V30 3924 H 398.117 -2.00244 4.23107 0
M  V30 3925 H 398.29 -2.54154 5.96079 0
M  V30 3926 N 391.696 -1.35014 -0.812953 0
M  V30 3927 C 392.626 -1.30069 -1.93919 0
M  V30 3928 C 393.607 -0.176275 -1.69184 0
M  V30 3929 O 394.792 -0.370227 -1.90638 0
M  V30 3930 C 391.922 -1.06547 -3.30552 0
M  V30 3931 C 390.876 -2.15561 -3.69753 0
M  V30 3932 C 390.202 -1.77214 -5.04479 0
M  V30 3933 C 391.502 -3.57476 -3.808 0
M  V30 3934 H 393.196 -2.24303 -1.98314 0
M  V30 3935 H 390.742 -1.07977 -0.952736 0
M  V30 3936 H 392.695 -1.01729 -4.08937 0
M  V30 3937 H 391.419 -0.0875719 -3.26483 0
M  V30 3938 H 390.078 -2.19466 -2.9365 0
M  V30 3939 H 389.726 -0.780589 -4.96906 0
M  V30 3940 H 389.426 -2.50184 -5.31678 0
M  V30 3941 H 390.95 -1.7391 -5.8531 0
M  V30 3942 H 392.364 -3.55929 -4.4943 0
M  V30 3943 H 390.761 -4.29152 -4.19462 0
M  V30 3944 H 391.831 -3.94091 -2.82525 0
M  V30 3945 N 393.175 1.03435 -1.18907 0
M  V30 3946 C 394.421 1.77005 -0.989798 0
M  V30 3947 C 394.754 1.88205 0.478816 0
M  V30 3948 O 394.029 1.39481 1.35556 0
M  V30 3949 C 394.312 3.19925 -1.65287 0
M  V30 3950 C 394.165 3.1663 -3.19477 0
M  V30 3951 C 395.484 4.18189 -1.37134 0
M  V30 3952 H 392.603 0.642538 -0.360991 0
M  V30 3953 H 395.245 1.20784 -1.46667 0
M  V30 3954 H 393.395 3.67929 -1.24741 0
M  V30 3955 H 395.067 2.76567 -3.692 0
M  V30 3956 H 393.31 2.54491 -3.51307 0
M  V30 3957 H 393.981 4.1758 -3.61013 0
M  V30 3958 H 396.457 3.78761 -1.72276 0
M  V30 3959 H 395.333 5.16394 -1.86087 0
M  V30 3960 H 395.594 4.41112 -0.295424 0
M  V30 3961 N 394.653 0.992116 1.22453 0
M  V30 3962 C 395.563 0.55065 2.28046 0
M  V30 3963 C 396.579 -0.400189 1.69335 0
M  V30 3964 O 397.755 -0.267215 1.99619 0
M  V30 3965 C 394.82 -0.128496 3.46462 0
M  V30 3966 C 393.881 0.865208 4.20491 0
M  V30 3967 C 393.114 0.218377 5.33253 0
M  V30 3968 O 393.337 -0.987894 5.6178 0
M  V30 3969 O 392.271 0.922845 5.94783 0
M  V30 3970 H 396.097 1.4291 2.67975 0
M  V30 3971 H 393.682 0.760326 1.28606 0
M  V30 3972 H 395.564 -0.508947 4.18315 0
M  V30 3973 H 394.239 -0.981526 3.0846 0
M  V30 3974 H 393.146 1.29658 3.50913 0
M  V30 3975 H 394.479 1.68741 4.62371 0
M  V30 3976 N 396.131 -1.37776 0.765217 0
M  V30 3977 C 397.041 -2.34135 0.147666 0
M  V30 3978 C 398.057 -1.59854 -0.687215 0
M  V30 3979 O 399.233 -1.91983 -0.608659 0
M  V30 3980 C 396.298 -3.3901 -0.72617 0
M  V30 3981 C 395.359 -4.2912 0.124417 0
M  V30 3982 C 394.592 -5.28986 -0.707807 0
M  V30 3983 O 394.815 -5.36205 -1.94525 0
M  V30 3984 O 393.749 -6.01779 -0.12046 0
M  V30 3985 H 397.575 -2.88664 0.943758 0
M  V30 3986 H 395.16 -1.39824 0.526277 0
M  V30 3987 H 397.042 -4.03195 -1.22524 0
M  V30 3988 H 395.717 -2.86819 -1.50056 0
M  V30 3989 H 394.624 -3.68057 0.669696 0
M  V30 3990 H 395.957 -4.84598 0.861736 0
M  V30 3991 N 397.609 -0.515225 -1.4894 0
M  V30 3992 C 398.834 0.022727 -2.07388 0
M  V30 3993 C 399.259 1.2876 -1.37122 0
M  V30 3994 O 398.617 1.76067 -0.432431 0
M  V30 3995 C 398.665 0.244869 -3.59768 0
M  V30 3996 O 397.769 1.31667 -3.90817 0
M  V30 3997 H 397.11 -0.0325506 -0.663202 0
M  V30 3998 H 399.64 -0.718918 -1.91553 0
M  V30 3999 H 399.65 0.47205 -4.0526 0
M  V30 4000 H 398.325 -0.679194 -4.10317 0
M  V30 4001 H 396.902 1.07331 -3.5712 0
M  V30 4002 N 399.087 1.5561 -0.249682 0
M  V30 4003 C 400.364 1.90932 0.424761 0
M  V30 4004 C 400.744 1.17078 1.75658 0
M  V30 4005 O 400.092 0.289176 2.26663 0
M  V30 4006 C 400.302 3.43975 0.590109 0
M  V30 4007 C 401.65 4.15281 0.884714 0
M  V30 4008 O 402.674 3.49729 0.67587 0
M  V30 4009 O 401.533 5.31236 1.28259 0
M  V30 4010 H 398.627 0.794815 0.228468 0
M  V30 4011 H 401.173 1.67135 -0.293954 0
M  V30 4012 H 399.945 3.89748 -0.34818 0
M  V30 4013 H 399.568 3.73644 1.35926 0
M  V30 4014 N 400.565 -0.0233959 1.57583 0
M  V30 4015 C 401.813 -0.711654 1.89156 0
M  V30 4016 C 402.134 -1.75591 0.848096 0
M  V30 4017 O 401.404 -1.95547 -0.117566 0
M  V30 4018 H 399.984 -0.265835 0.698098 0
M  V30 4019 H 402.646 0.0119948 1.94896 0
M  V30 4020 H 401.742 -1.19766 2.88206 0
M  V30 4021 N 402.043 -1.548 -0.295768 0
M  V30 4022 C 402.973 -1.89115 -1.36959 0
M  V30 4023 C 403.954 -0.75059 -1.52644 0
M  V30 4024 O 405.139 -1.00678 -1.66065 0
M  V30 4025 C 402.269 -2.14307 -2.73295 0
M  V30 4026 C 401.223 -3.30151 -2.72368 0
M  V30 4027 C 400.549 -3.40772 -4.12042 0
M  V30 4028 C 401.849 -4.67126 -2.33646 0
M  V30 4029 H 403.543 -2.79053 -1.08488 0
M  V30 4030 H 401.089 -1.34266 -0.520443 0
M  V30 4031 H 403.042 -2.36898 -3.48507 0
M  V30 4032 H 401.766 -1.21145 -3.03301 0
M  V30 4033 H 400.425 -3.0749 -1.99613 0
M  V30 4034 H 400.073 -2.45117 -4.39234 0
M  V30 4035 H 399.773 -4.18645 -4.12322 0
M  V30 4036 H 401.297 -3.6563 -4.89027 0
M  V30 4037 H 402.711 -4.89414 -2.98575 0
M  V30 4038 H 401.108 -5.47751 -2.45129 0
M  V30 4039 H 402.178 -4.67489 -1.28772 0
M  V30 4040 N 403.521 0.559213 -1.47345 0
M  V30 4041 C 404.768 1.31648 -1.53867 0
M  V30 4042 C 405.096 1.93468 -0.200104 0
M  V30 4043 O 404.351 1.78295 0.806799 0
M  V30 4044 C 404.65 2.44853 -2.6035 0
M  V30 4045 C 404.316 2.00876 -4.03683 0
M  V30 4046 C 402.978 1.88599 -4.42701 0
M  V30 4047 C 405.33 1.67279 -4.93626 0
M  V30 4048 C 402.658 1.41017 -5.69501 0
M  V30 4049 C 405.01 1.21169 -6.20887 0
M  V30 4050 C 403.674 1.07487 -6.58789 0
M  V30 4051 H 402.944 0.481734 -0.56304 0
M  V30 4052 H 405.591 0.627301 -1.80934 0
M  V30 4053 H 403.896 3.19318 -2.27032 0
M  V30 4054 H 405.593 3.03039 -2.62619 0
M  V30 4055 H 402.183 2.11374 -3.72853 0
M  V30 4056 H 406.367 1.75638 -4.64182 0
M  V30 4057 H 401.623 1.29086 -5.97618 0
M  V30 4058 H 405.797 0.942345 -6.89995 0
M  V30 4059 H 403.424 0.703946 -7.56934 0
M  V30 4060 N 404.999 1.35443 0.805782 0
M  V30 4061 C 405.929 1.31095 1.93226 0
M  V30 4062 C 406.91 0.185244 1.69088 0
M  V30 4063 O 408.095 0.380332 1.90439 0
M  V30 4064 C 405.225 1.08299 3.29983 0
M  V30 4065 C 404.179 2.17519 3.68605 0
M  V30 4066 C 403.505 1.79887 5.03532 0
M  V30 4067 C 404.805 3.5949 3.78898 0
M  V30 4068 H 406.499 2.25352 1.97122 0
M  V30 4069 H 404.045 1.0848 0.946996 0
M  V30 4070 H 405.998 1.03897 4.08391 0
M  V30 4071 H 404.722 0.104885 3.26432 0
M  V30 4072 H 403.381 2.2102 2.92482 0
M  V30 4073 H 403.029 0.80693 4.96485 0
M  V30 4074 H 402.729 2.53001 5.30344 0
M  V30 4075 H 404.253 1.77011 5.84379 0
M  V30 4076 H 405.667 3.58307 4.47536 0
M  V30 4077 H 404.064 4.31371 4.1718 0
M  V30 4078 H 405.134 3.95584 2.80431 0
M  V30 4079 N 406.477 -1.02803 1.19454 0
M  V30 4080 C 407.407 -2.12999 0.956758 0
M  V30 4081 C 408.388 -1.69743 -0.110188 0
M  V30 4082 O 409.573 -1.94148 0.0450038 0
M  V30 4083 C 406.703 -3.43746 0.495553 0
M  V30 4084 C 405.657 -4.00688 1.50443 0
M  V30 4085 C 404.983 -5.27067 0.900275 0
M  V30 4086 C 406.283 -4.35397 2.8849 0
M  V30 4087 H 407.977 -2.33148 1.87836 0
M  V30 4088 H 405.523 -1.12045 0.904539 0
M  V30 4089 H 407.476 -4.2021 0.316493 0
M  V30 4090 H 406.2 -3.23321 -0.461646 0
M  V30 4091 H 404.859 -3.2632 1.67065 0
M  V30 4092 H 404.507 -5.02959 -0.064503 0
M  V30 4093 H 404.207 -5.66127 1.57397 0
M  V30 4094 H 405.731 -6.06196 0.73203 0
M  V30 4095 H 407.145 -5.02795 2.75446 0
M  V30 4096 H 405.542 -4.85541 3.52661 0
M  V30 4097 H 406.612 -3.44662 3.41081 0
M  V30 4098 N 407.956 -0.998596 -1.21925 0
M  V30 4099 C 409.204 -0.676325 -1.90448 0
M  V30 4100 C 409.525 0.794719 -1.78071 0
M  V30 4101 O 408.795 1.5701 -1.17152 0
M  V30 4102 H 407.375 -0.247165 -0.704925 0
M  V30 4103 H 410.037 -1.26633 -1.48156 0
M  V30 4104 H 409.133 -0.943858 -2.97486 0
M  V30 4105 N 409.434 1.37368 -0.772513 0
M  V30 4106 C 410.397 2.28601 -0.165541 0
M  V30 4107 C 411.397 1.48062 0.627238 0
M  V30 4108 O 412.587 1.68268 0.450715 0
M  V30 4109 C 409.719 3.32023 0.772897 0
M  V30 4110 H 410.912 2.83787 -0.969787 0
M  V30 4111 H 408.465 1.46647 -0.540775 0
M  V30 4112 H 409.2 2.81962 1.60212 0
M  V30 4113 H 408.985 3.91555 0.206585 0
M  V30 4114 H 410.475 4.00197 1.19298 0
M  V30 4115 N 410.912 0.523116 1.48665 0
M  V30 4116 C 412.161 -0.01544 2.01694 0
M  V30 4117 C 412.474 -1.35975 1.40606 0
M  V30 4118 O 413.68 -1.98627 1.85093 0
M  V30 4119 C 412.136 -0.0779303 3.59816 0
M  V30 4120 C 411.744 1.26107 4.29885 0
M  V30 4121 C 413.488 -0.565678 4.20714 0
M  V30 4122 C 411.395 1.15954 5.79921 0
M  V30 4123 H 410.325 -0.00954163 0.75394 0
M  V30 4124 H 412.976 0.665865 1.70993 0
M  V30 4125 H 411.358 -0.824165 3.87329 0
M  V30 4126 H 412.532 2.02233 4.14051 0
M  V30 4127 H 410.847 1.68401 3.80828 0
M  V30 4128 H 413.444 -0.6595 5.30617 0
M  V30 4129 H 413.787 -1.56984 3.85567 0
M  V30 4130 H 414.32 0.12467 3.97605 0
M  V30 4131 H 411.059 2.13864 6.19631 0
M  V30 4132 H 410.579 0.439529 5.98187 0
M  V30 4133 H 412.258 0.847361 6.41427 0
M  V30 4134 N 412.39 -1.55475 0.257931 0
M  V30 4135 C 413.32 -2.24815 -0.630912 0
M  V30 4136 C 414.301 -1.23224 -1.17259 0
M  V30 4137 O 415.486 -1.51904 -1.20991 0
M  V30 4138 C 412.616 -2.95609 -1.82298 0
M  V30 4139 C 411.57 -4.03982 -1.41359 0
M  V30 4140 C 410.896 -4.6226 -2.68738 0
M  V30 4141 C 412.196 -5.19109 -0.57648 0
M  V30 4142 H 413.89 -2.99354 -0.0526878 0
M  V30 4143 H 411.436 -1.4398 -0.023901 0
M  V30 4144 H 413.389 -3.42822 -2.45054 0
M  V30 4145 H 412.113 -2.18577 -2.42676 0
M  V30 4146 H 410.772 -3.57555 -0.809324 0
M  V30 4147 H 410.42 -3.81915 -3.27338 0
M  V30 4148 H 410.12 -5.35424 -2.42065 0
M  V30 4149 H 411.644 -5.12212 -3.32372 0
M  V30 4150 H 413.058 -5.62479 -1.10861 0
M  V30 4151 H 411.455 -5.98729 -0.405351 0
M  V30 4152 H 412.525 -4.83174 0.408776 0
M  V30 4153 N 413.868 0.0150385 -1.57593 0
M  V30 4154 C 415.093 0.718067 -1.94573 0
M  V30 4155 C 415.518 1.6734 -0.859005 0
M  V30 4156 O 414.876 1.80362 0.184147 0
M  V30 4157 C 414.924 1.43918 -3.30636 0
M  V30 4158 O 414.028 2.55299 -3.23876 0
M  V30 4159 H 413.369 0.192125 -0.635597 0
M  V30 4160 H 415.899 -0.0336708 -2.04572 0
M  V30 4161 H 415.909 1.80598 -3.65853 0
M  V30 4162 H 414.584 0.738619 -4.09289 0
M  V30 4163 H 413.161 2.21058 -3.00312 0
M  V30 4164 N 415.346 1.54954 0.287554 0
M  V30 4165 C 416.623 1.65569 1.04146 0
M  V30 4166 C 417.003 0.512672 2.0478 0
M  V30 4167 O 416.351 -0.489038 2.23205 0
M  V30 4168 C 416.561 3.04163 1.71131 0
M  V30 4169 C 417.909 3.61429 2.22832 0
M  V30 4170 O 418.933 3.06702 1.81141 0
M  V30 4171 O 417.792 4.57281 2.9926 0
M  V30 4172 H 414.886 0.671881 0.482188 0
M  V30 4173 H 417.432 1.67297 0.28457 0
M  V30 4174 H 416.204 3.78796 0.981303 0
M  V30 4175 H 415.827 3.06271 2.53543 0
M  V30 4176 N 416.824 -0.551391 1.4764 0
M  V30 4177 C 418.052 -1.33357 1.58189 0
M  V30 4178 C 418.467 -1.87342 0.234199 0
M  V30 4179 O 417.824 -1.65301 -0.77343 0
M  V30 4180 C 417.875 -2.49942 2.61173 0
M  V30 4181 O 417.596 -1.98187 3.90709 0
M  V30 4182 C 419.097 -3.42072 2.8196 0
M  V30 4183 H 416.317 -0.40631 0.533998 0
M  V30 4184 H 418.861 -0.667367 1.93304 0
M  V30 4185 H 417.016 -3.12489 2.28975 0
M  V30 4186 H 417.43 -2.74342 4.47031 0
M  V30 4187 H 418.904 -4.20278 3.57869 0
M  V30 4188 H 419.381 -3.95978 1.89995 0
M  V30 4189 H 419.987 -2.85336 3.15378 0
M  V30 4190 N 418.302 -1.35869 -0.798587 0
M  V30 4191 C 419.25 -1.29491 -1.93222 0
M  V30 4192 C 420.244 -0.18836 -1.6835 0
M  V30 4193 O 421.45 -0.354822 -1.76468 0
M  V30 4194 H 417.825 -0.402901 -0.63496 0
M  V30 4195 H 419.796 -2.25247 -1.9572 0
M  V30 4196 C 418.545 -1.09184 -3.30112 0
M  V30 4197 H 417.868 -1.93574 -3.49813 0
M  V30 4198 H 419.308 -1.08766 -4.09812 0
M  V30 4199 C 417.767 0.203959 -3.36282 0
M  V30 4200 O 418.297 1.19699 -3.83451 0
M  V30 4201 N 416.503 0.245488 -2.89561 0
M  V30 4202 H 416.05 -0.563223 -2.51367 0
M  V30 4203 H 416.008 1.11219 -2.94071 0
M  V30 4204 N 419.78 1.02168 -1.19998 0
M  V30 4205 C 421.027 1.75685 -1.00702 0
M  V30 4206 C 421.355 1.88947 0.461426 0
M  V30 4207 O 420.61 1.40832 1.35885 0
M  V30 4208 C 420.909 3.18081 -1.62969 0
M  V30 4209 C 420.575 3.24809 -3.12746 0
M  V30 4210 C 419.237 3.26352 -3.53621 0
M  V30 4211 C 421.589 3.23379 -4.08749 0
M  V30 4212 C 418.917 3.2413 -4.89036 0
M  V30 4213 C 421.269 3.22698 -5.44104 0
M  V30 4214 C 419.933 3.22542 -5.84399 0
M  V30 4215 H 419.203 0.642877 -0.368496 0
M  V30 4216 H 421.85 1.19865 -1.49348 0
M  V30 4217 H 420.155 3.77027 -1.06573 0
M  V30 4218 H 421.852 3.73648 -1.45561 0
M  V30 4219 H 418.442 3.2434 -2.80181 0
M  V30 4220 H 422.626 3.21361 -3.78207 0
M  V30 4221 H 417.882 3.22338 -5.19527 0
M  V30 4222 H 422.056 3.20543 -6.18244 0
M  V30 4223 H 419.683 3.20575 -6.89301 0
M  V30 4224 N 421.258 1.00505 1.21394 0
M  V30 4225 C 422.221 0.570459 2.21987 0
M  V30 4226 C 423.221 -0.353211 1.56873 0
M  V30 4227 O 424.411 -0.14349 1.73608 0
M  V30 4228 C 421.543 -0.168555 3.40483 0
M  V30 4229 H 422.736 1.46021 2.6195 0
M  V30 4230 H 420.289 0.793565 1.34656 0
M  V30 4231 H 421.024 -1.07374 3.06009 0
M  V30 4232 H 420.809 0.494823 3.88965 0
M  V30 4233 H 422.299 -0.460362 4.15055 0
M  V30 4234 N 422.737 -1.36956 0.779787 0
M  V30 4235 C 423.983 -1.99787 0.348281 0
M  V30 4236 C 424.316 -1.61756 -1.07465 0
M  V30 4237 O 423.591 -0.867639 -1.74075 0
M  V30 4238 C 423.874 -3.56597 0.50104 0
M  V30 4239 C 423.727 -4.04513 1.96697 0
M  V30 4240 C 425.046 -4.40008 -0.0898097 0
M  V30 4241 H 422.165 -0.725796 0.128022 0
M  V30 4242 H 424.807 -1.62514 0.984331 0
M  V30 4243 H 422.957 -3.88479 -0.0404347 0
M  V30 4244 H 424.629 -3.83161 2.56876 0
M  V30 4245 H 422.872 -3.56408 2.47297 0
M  V30 4246 H 423.543 -5.1352 2.02486 0
M  V30 4247 H 426.019 -4.14431 0.372293 0
M  V30 4248 H 424.895 -5.4888 0.0471605 0
M  V30 4249 H 425.156 -4.26035 -1.18096 0
M  V30 4250 N 424.215 -0.530993 -1.48385 0
M  V30 4251 C 425.44 0.000729535 -2.074 0
M  V30 4252 C 425.865 1.27298 -1.3848 0
M  V30 4253 O 425.223 1.75599 -0.451081 0
M  V30 4254 C 425.271 0.206697 -3.60007 0
M  V30 4255 O 424.375 1.27514 -3.92191 0
M  V30 4256 H 423.716 -0.039583 -0.662819 0
M  V30 4257 H 426.246 -0.739194 -1.9078 0
M  V30 4258 H 426.256 0.42904 -4.05738 0
M  V30 4259 H 424.931 -0.722675 -4.09573 0
M  V30 4260 H 423.508 1.03537 -3.58238 0
M  V30 4261 N 425.693 1.55336 -0.266172 0
M  V30 4262 C 426.625 2.19544 0.658247 0
M  V30 4263 C 427.638 1.17746 1.12427 0
M  V30 4264 O 428.827 1.44517 1.04772 0
M  V30 4265 C 425.927 2.80032 1.9088 0
M  V30 4266 C 425.1 4.07436 1.59106 0
M  V30 4267 C 424.159 4.52056 2.69317 0
M  V30 4268 O 423.185 5.18023 2.35883 0
M  V30 4269 N 424.387 4.21448 3.99201 0
M  V30 4270 H 427.152 2.99503 0.108754 0
M  V30 4271 H 424.713 1.61667 -0.0869059 0
M  V30 4272 H 426.705 3.06831 2.63888 0
M  V30 4273 H 425.275 2.04119 2.36758 0
M  V30 4274 H 424.495 3.88021 0.695243 0
M  V30 4275 H 425.783 4.90462 1.35367 0
M  V30 4276 H 425.181 3.68528 4.29189 0
M  V30 4277 H 423.738 4.53039 4.68614 0
M  V30 4278 N 427.171 -0.0066808 1.57599 0
M  V30 4279 C 428.587 -0.36267 1.55425 0
M  V30 4280 C 428.787 -1.75209 0.995187 0
M  V30 4281 O 427.843 -2.44616 0.626058 0
M  V30 4282 C 429.156 -0.244017 2.99708 0
M  V30 4283 C 430.704 -0.319451 3.11366 0
M  V30 4284 C 431.179 -0.229998 4.57422 0
M  V30 4285 N 432.67 -0.288105 4.62303 0
M  V30 4286 C 433.405 -0.242127 5.72889 0
M  V30 4287 N 432.901 -0.147133 6.92644 0
M  V30 4288 N 434.694 -0.293502 5.61333 0
M  V30 4289 H 426.845 0.902314 1.92281 0
M  V30 4290 H 429.108 0.34525 0.882896 0
M  V30 4291 H 428.814 0.711678 3.44424 0
M  V30 4292 H 428.688 -1.02877 3.629 0
M  V30 4293 H 431.075 -1.26559 2.66584 0
M  V30 4294 H 431.156 0.495055 2.50964 0
M  V30 4295 H 430.8 0.712566 5.02877 0
M  V30 4296 H 430.73 -1.0629 5.15761 0
M  V30 4297 H 433.221 -0.363126 3.76151 0
M  V30 4298 H 433.534 -0.117763 7.7271 0
M  V30 4299 H 431.879 -0.112857 6.94908 0
M  V30 4300 H 435.07 -0.365864 4.66668 0
M  V30 4301 H 435.243 -0.254204 6.47501 0
M  V30 4302 N 428.649 -1.55105 -0.279332 0
M  V30 4303 C 429.596 -1.8755 -1.34513 0
M  V30 4304 C 430.566 -0.726384 -1.49375 0
M  V30 4305 O 431.751 -0.977063 -1.63884 0
M  V30 4306 C 428.891 -2.14738 -2.70151 0
M  V30 4307 C 428.004 -3.42285 -2.63562 0
M  V30 4308 C 427.139 -3.59206 -3.91337 0
M  V30 4309 C 426.178 -4.80467 -3.79233 0
M  V30 4310 N 425.315 -4.94079 -4.98829 0
M  V30 4311 H 430.155 -2.78456 -1.06143 0
M  V30 4312 H 427.692 -1.37867 -0.512936 0
M  V30 4313 H 429.65 -2.28501 -3.49061 0
M  V30 4314 H 428.28 -1.27075 -2.96735 0
M  V30 4315 H 427.332 -3.37029 -1.76397 0
M  V30 4316 H 428.644 -4.31328 -2.50515 0
M  V30 4317 H 427.798 -3.72751 -4.78687 0
M  V30 4318 H 426.537 -2.68337 -4.07243 0
M  V30 4319 H 425.542 -4.66932 -2.90266 0
M  V30 4320 H 426.767 -5.72765 -3.64852 0
M  V30 4321 H 424.713 -4.06139 -5.15158 0
M  V30 4322 H 424.63 -5.77156 -4.8829 0
M  V30 4323 H 425.898 -5.12003 -5.8777 0
M  V30 4324 N 430.127 0.543554 -1.4793 0
M  V30 4325 C 431.376 1.29649 -1.54512 0
M  V30 4326 C 431.689 1.94382 -0.217973 0
M  V30 4327 O 432.895 2.71017 -0.161908 0
M  V30 4328 C 431.351 2.35175 -2.72435 0
M  V30 4329 C 430.959 1.76572 -4.11736 0
M  V30 4330 C 432.703 3.11564 -2.8832 0
M  V30 4331 C 430.61 2.79958 -5.20939 0
M  V30 4332 H 429.54 0.487541 -0.57517 0
M  V30 4333 H 432.191 0.575708 -1.74235 0
M  V30 4334 H 430.573 3.10229 -2.46118 0
M  V30 4335 H 431.747 1.07799 -4.48013 0
M  V30 4336 H 430.062 1.12722 -4.00852 0
M  V30 4337 H 432.659 3.88794 -3.67074 0
M  V30 4338 H 433.002 3.66594 -1.97268 0
M  V30 4339 H 433.535 2.43623 -3.14472 0
M  V30 4340 H 430.274 2.29766 -6.13912 0
M  V30 4341 H 429.794 3.47101 -4.89164 0
M  V30 4342 H 431.473 3.43198 -5.48474 0
M  V30 4343 N 431.605 1.3629 0.791371 0
M  V30 4344 C 432.882 1.20962 1.53712 0
M  V30 4345 C 433.262 -0.205021 2.10102 0
M  V30 4346 O 432.61 -1.21042 1.93807 0
M  V30 4347 C 432.82 2.29002 2.63361 0
M  V30 4348 C 434.168 2.65572 3.31295 0
M  V30 4349 O 435.192 2.2803 2.73643 0
M  V30 4350 O 434.051 3.3018 4.35481 0
M  V30 4351 H 431.145 0.47086 0.679867 0
M  V30 4352 H 433.691 1.48016 0.830021 0
M  V30 4353 H 432.463 3.2382 2.19674 0
M  V30 4354 H 432.086 2.03303 3.41692 0
M  V30 4355 N 433.083 -1.0153 1.20538 0
M  V30 4356 C 434.013 -2.11972 0.979295 0
M  V30 4357 C 434.994 -1.6985 -0.0921787 0
M  V30 4358 O 436.179 -1.94089 0.0655932 0
M  V30 4359 C 433.309 -3.43201 0.531984 0
M  V30 4360 C 432.263 -3.9907 1.54685 0
M  V30 4361 C 431.589 -5.26082 0.956127 0
M  V30 4362 C 432.889 -4.32313 2.93092 0
M  V30 4363 H 434.583 -2.31143 1.90298 0
M  V30 4364 H 432.129 -1.11079 0.916372 0
M  V30 4365 H 434.082 -4.1985 0.361044 0
M  V30 4366 H 432.806 -3.23792 -0.427327 0
M  V30 4367 H 431.465 -3.2453 1.70517 0
M  V30 4368 H 431.113 -5.02999 -0.0111538 0
M  V30 4369 H 430.813 -5.64426 1.63393 0
M  V30 4370 H 432.337 -6.05386 0.796284 0
M  V30 4371 H 433.751 -4.99845 2.80763 0
M  V30 4372 H 432.148 -4.81774 3.57791 0
M  V30 4373 H 433.218 -3.41025 3.44717 0
M  V30 4374 N 434.561 -1.01147 -1.20859 0
M  V30 4375 C 435.977 -0.725422 -1.42161 0
M  V30 4376 C 436.177 0.696919 -1.89064 0
M  V30 4377 O 435.233 1.46539 -2.05627 0
M  V30 4378 C 436.546 -1.74678 -2.44761 0
M  V30 4379 C 438.094 -1.76433 -2.58535 0
M  V30 4380 C 438.569 -2.77481 -3.64374 0
M  V30 4381 N 440.06 -2.76189 -3.71852 0
M  V30 4382 C 440.795 -3.51035 -4.53389 0
M  V30 4383 N 440.291 -4.35541 -5.38773 0
M  V30 4384 N 442.084 -3.39655 -4.47873 0
M  V30 4385 H 434.235 -1.92979 -0.887282 0
M  V30 4386 H 436.498 -0.833327 -0.451962 0
M  V30 4387 H 436.204 -2.76551 -2.17285 0
M  V30 4388 H 436.078 -1.55472 -3.43669 0
M  V30 4389 H 438.465 -0.75248 -2.85345 0
M  V30 4390 H 438.546 -1.99712 -1.5984 0
M  V30 4391 H 438.19 -3.78827 -3.38308 0
M  V30 4392 H 438.12 -2.51466 -4.6268 0
M  V30 4393 H 440.611 -2.14885 -3.10858 0
M  V30 4394 H 440.924 -4.89432 -5.98061 0
M  V30 4395 H 439.269 -4.39621 -5.38292 0
M  V30 4396 H 442.46 -2.73063 -3.80203 0
M  V30 4397 H 442.633 -3.9824 -5.11184 0
M  V30 4398 N 436.039 1.36541 -0.78704 0
M  V30 4399 C 436.986 2.30082 -0.181901 0
M  V30 4400 C 437.956 1.5186 0.672896 0
M  V30 4401 O 439.141 1.80374 0.622072 0
M  V30 4402 C 436.281 3.3835 0.679197 0
M  V30 4403 C 435.394 4.31565 -0.193882 0
M  V30 4404 C 434.529 5.26915 0.673364 0
M  V30 4405 C 433.568 6.11769 -0.201315 0
M  V30 4406 N 432.705 6.99315 0.624777 0
M  V30 4407 H 437.545 2.81248 -0.985064 0
M  V30 4408 H 435.082 1.38437 -0.497342 0
M  V30 4409 H 437.04 3.99767 1.19341 0
M  V30 4410 H 435.67 2.8851 1.44781 0
M  V30 4411 H 434.722 3.71323 -0.826044 0
M  V30 4412 H 436.034 4.91191 -0.867937 0
M  V30 4413 H 435.188 5.9361 1.25348 0
M  V30 4414 H 433.927 4.67737 1.38105 0
M  V30 4415 H 432.932 5.44039 -0.793849 0
M  V30 4416 H 434.157 6.73022 -0.906568 0
M  V30 4417 H 432.103 6.42648 1.3168 0
M  V30 4418 H 432.02 7.56 0.00835237 0
M  V30 4419 H 433.288 7.70382 1.18879 0
M  V30 4420 N 437.518 0.538854 1.48102 0
M  V30 4421 C 438.746 0.0123136 2.06896 0
M  V30 4422 C 439.161 -1.27312 1.39417 0
M  V30 4423 O 438.518 -1.75949 0.484582 0
M  V30 4424 C 438.569 -0.206118 3.60912 0
M  V30 4425 O 438.29 1.0284 4.25859 0
M  V30 4426 C 439.791 -0.772033 4.36526 0
M  V30 4427 H 437.011 0.0375239 0.66995 0
M  V30 4428 H 439.555 0.747032 1.90367 0
M  V30 4429 H 437.71 -0.89091 3.77017 0
M  V30 4430 H 438.124 0.814654 5.18135 0
M  V30 4431 H 439.598 -0.874251 5.45033 0
M  V30 4432 H 440.075 -1.77904 4.01555 0
M  V30 4433 H 440.681 -0.123526 4.25121 0
M  V30 4434 N 438.996 -1.55193 0.274407 0
M  V30 4435 C 440.245 -1.98758 -0.343213 0
M  V30 4436 C 440.558 -1.16624 -1.5703 0
M  V30 4437 O 441.764 -1.5033 -2.26082 0
M  V30 4438 C 440.22 -3.53759 -0.661996 0
M  V30 4439 C 439.828 -4.4467 0.54524 0
M  V30 4440 C 441.572 -4.05916 -1.24228 0
M  V30 4441 C 439.479 -5.91058 0.201084 0
M  V30 4442 H 438.409 -0.742353 -0.132014 0
M  V30 4443 H 441.06 -1.79545 0.378948 0
M  V30 4444 H 439.442 -3.68772 -1.44304 0
M  V30 4445 H 440.616 -4.41426 1.32212 0
M  V30 4446 H 438.931 -4.03143 1.04232 0
M  V30 4447 H 441.528 -5.12831 -1.51357 0
M  V30 4448 H 441.871 -3.54908 -2.17592 0
M  V30 4449 H 442.404 -3.9434 -0.523542 0
M  V30 4450 H 439.143 -6.46161 1.10258 0
M  V30 4451 H 438.663 -5.97373 -0.539045 0
M  V30 4452 H 440.342 -6.46669 -0.206954 0
M  V30 4453 N 440.474 -0.00167713 -1.576 0
M  V30 4454 C 441.424 0.997744 -2.0501 0
M  V30 4455 C 442.408 1.30214 -0.94515 0
M  V30 4456 O 443.6 1.29284 -1.20891 0
M  V30 4457 C 440.729 2.2892 -2.55833 0
M  V30 4458 C 439.815 2.01437 -3.73208 0
M  V30 4459 N 440.206 1.44119 -4.84833 0
M  V30 4460 C 438.504 2.31571 -3.8117 0
M  V30 4461 C 439.205 1.33145 -5.66257 0
M  V30 4462 N 438.181 1.81763 -5.12312 0
M  V30 4463 H 441.983 0.549098 -2.88725 0
M  V30 4464 H 439.497 0.20398 -1.61114 0
M  V30 4465 H 441.494 3.01361 -2.88075 0
M  V30 4466 H 440.154 2.74436 -1.73537 0
M  V30 4467 H 441.165 1.11978 -5.0565 0
M  V30 4468 H 437.842 2.7995 -3.09732 0
M  V30 4469 H 439.232 0.890567 -6.65972 0
M  V30 4470 N 441.952 1.55251 0.271103 0
M  V30 4471 C 442.915 1.87484 1.31842 0
M  V30 4472 C 443.915 0.749545 1.42262 0
M  V30 4473 O 445.105 1.01771 1.4138 0
M  V30 4474 C 442.237 2.0818 2.69951 0
M  V30 4475 H 443.43 2.81108 1.0449 0
M  V30 4476 H 440.983 1.47771 0.509258 0
M  V30 4477 H 441.718 1.16944 3.02481 0
M  V30 4478 H 441.503 2.90114 2.63774 0
M  V30 4479 H 442.993 2.34385 3.4562 0
M  V30 4480 N 443.43 -0.535701 1.48216 0
M  V30 4481 C 444.677 -1.29183 1.55942 0
M  V30 4482 C 445.005 -1.93125 0.230857 0
M  V30 4483 O 444.26 -1.79556 -0.778331 0
M  V30 4484 C 444.559 -2.4068 2.64212 0
M  V30 4485 C 444.225 -1.94428 4.06827 0
M  V30 4486 C 442.887 -1.81532 4.45645 0
M  V30 4487 C 445.239 -1.59405 4.96225 0
M  V30 4488 C 442.567 -1.31939 5.71672 0
M  V30 4489 C 444.919 -1.11276 6.22736 0
M  V30 4490 C 443.583 -0.969924 6.60416 0
M  V30 4491 H 442.853 -0.472715 0.570632 0
M  V30 4492 H 445.5 -0.598437 1.81909 0
M  V30 4493 H 443.805 -3.15666 2.32083 0
M  V30 4494 H 445.502 -2.98822 2.67407 0
M  V30 4495 H 442.092 -2.05415 3.76168 0
M  V30 4496 H 446.276 -1.68231 4.66917 0
M  V30 4497 H 441.532 -1.19562 5.99596 0
M  V30 4498 H 445.706 -0.832453 6.91407 0
M  V30 4499 H 443.333 -0.583436 7.57958 0
M  V30 4500 N 444.908 -1.36708 -0.784132 0
M  V30 4501 C 446.185 -1.21776 -1.53069 0
M  V30 4502 C 446.565 0.193876 -2.10208 0
M  V30 4503 O 445.913 1.20012 -1.94446 0
M  V30 4504 C 446.123 -2.30395 -2.62143 0
M  V30 4505 C 447.471 -2.67325 -3.29882 0
M  V30 4506 O 448.495 -2.29478 -2.7243 0
M  V30 4507 O 447.354 -3.32485 -4.33724 0
M  V30 4508 H 444.448 -0.474459 -0.677361 0
M  V30 4509 H 446.994 -1.48454 -0.82216 0
M  V30 4510 H 445.766 -3.2498 -2.17953 0
M  V30 4511 H 445.389 -2.05112 -3.40609 0
M  V30 4512 N 446.386 1.0089 -1.21074 0
M  V30 4513 C 447.802 1.2695 -0.967257 0
M  V30 4514 C 448.002 1.9846 0.348673 0
M  V30 4515 O 447.058 2.28459 1.0753 0
M  V30 4516 C 448.371 2.09697 -2.15517 0
M  V30 4517 C 449.919 2.22937 -2.197 0
M  V30 4518 C 450.394 3.09064 -3.37999 0
M  V30 4519 N 451.885 3.16653 -3.38061 0
M  V30 4520 C 452.62 3.8354 -4.26245 0
M  V30 4521 N 452.116 4.52488 -5.2462 0
M  V30 4522 N 453.909 3.80141 -4.14064 0
M  V30 4523 H 446.06 0.529005 -2.05707 0
M  V30 4524 H 448.323 0.296148 -0.900556 0
M  V30 4525 H 448.029 1.64497 -3.10859 0
M  V30 4526 H 447.903 3.10444 -2.14253 0
M  V30 4527 H 450.29 2.67357 -1.24916 0
M  V30 4528 H 450.371 1.21673 -2.2501 0
M  V30 4529 H 450.015 2.65347 -4.33074 0
M  V30 4530 H 449.945 4.10433 -3.29928 0
M  V30 4531 H 452.436 2.67566 -2.66865 0
M  V30 4532 H 452.749 5.01219 -5.88217 0
M  V30 4533 H 451.094 4.51288 -5.28549 0
M  V30 4534 H 454.285 3.25427 -3.36474 0
M  V30 4535 H 454.458 4.31992 -4.82998 0
M  V30 4536 N 447.864 1.01787 1.20321 0
M  V30 4537 C 448.827 0.593972 2.2137 0
M  V30 4538 C 449.827 -0.336553 1.57239 0
M  V30 4539 O 451.017 -0.125069 1.7375 0
M  V30 4540 C 448.149 -0.132433 3.40643 0
M  V30 4541 H 449.342 1.48791 2.60387 0
M  V30 4542 H 446.895 0.807803 1.33807 0
M  V30 4543 H 447.63 -1.04123 3.0713 0
M  V30 4544 H 447.415 0.53605 3.88418 0
M  V30 4545 H 448.905 -0.416314 4.1552 0
M  V30 4546 N 449.342 -1.36122 0.79427 0
M  V30 4547 C 450.588 -1.99406 0.369452 0
M  V30 4548 C 450.921 -1.62886 -1.05743 0
M  V30 4549 O 450.196 -0.886053 -1.73145 0
M  V30 4550 C 450.479 -3.56046 0.538833 0
M  V30 4551 C 450.332 -4.02404 2.00976 0
M  V30 4552 C 451.651 -4.40079 -0.0431359 0
M  V30 4553 H 448.77 -0.724397 0.135712 0
M  V30 4554 H 451.412 -1.61461 1.00151 0
M  V30 4555 H 449.562 -3.885 0.000771004 0
M  V30 4556 H 451.234 -3.80415 2.60926 0
M  V30 4557 H 449.477 -3.53765 2.51063 0
M  V30 4558 H 450.148 -5.11344 2.07922 0
M  V30 4559 H 452.624 -4.14013 0.416228 0
M  V30 4560 H 451.5 -5.48799 0.105374 0
M  V30 4561 H 451.761 -4.27264 -1.13571 0
M  V30 4562 N 450.82 -0.546701 -1.47814 0
M  V30 4563 C 452.048 -0.0232857 -2.06887 0
M  V30 4564 C 452.463 1.26571 -1.4009 0
M  V30 4565 O 451.82 1.7569 -0.493906 0
M  V30 4566 C 451.871 0.186975 -3.61016 0
M  V30 4567 O 451.592 -1.05097 -4.25307 0
M  V30 4568 C 453.093 0.748872 -4.36929 0
M  V30 4569 H 450.313 -0.0410763 -0.669742 0
M  V30 4570 H 452.857 -0.757117 -1.89968 0
M  V30 4571 H 451.012 0.870903 -3.77484 0
M  V30 4572 H 451.426 -0.842121 -5.17695 0
M  V30 4573 H 452.9 0.845334 -5.45489 0
M  V30 4574 H 453.377 1.75772 -4.02493 0
M  V30 4575 H 453.983 0.100979 -4.2518 0
M  V30 4576 N 452.299 1.55045 -0.282633 0
M  V30 4577 C 453.229 2.2579 0.595066 0
M  V30 4578 C 454.21 1.25074 1.15284 0
M  V30 4579 O 455.395 1.5381 1.18559 0
M  V30 4580 C 452.525 2.98472 1.77572 0
M  V30 4581 C 451.479 4.0618 1.34914 0
M  V30 4582 C 450.805 4.66477 2.6135 0
M  V30 4583 C 452.105 5.1996 0.493821 0
M  V30 4584 H 453.799 2.994 0.00505653 0
M  V30 4585 H 451.345 1.44 0.000992001 0
M  V30 4586 H 453.298 3.46677 2.39568 0
M  V30 4587 H 452.022 2.2241 2.39168 0
M  V30 4588 H 450.681 3.58797 0.752338 0
M  V30 4589 H 450.329 3.87074 3.2122 0
M  V30 4590 H 450.029 5.39207 2.33516 0
M  V30 4591 H 451.553 5.17435 3.24181 0
M  V30 4592 H 452.967 5.64172 1.01898 0
M  V30 4593 H 451.364 5.99299 0.310047 0
M  V30 4594 H 452.434 4.82462 -0.485593 0
M  V30 4595 N 453.777 0.010035 1.57597 0
M  V30 4596 C 455.025 -0.671371 1.90623 0
M  V30 4597 C 455.346 -1.73753 0.885151 0
M  V30 4598 O 454.616 -1.95752 -0.0760611 0
M  V30 4599 H 453.196 -0.250968 0.703579 0
M  V30 4600 H 455.858 0.0533325 1.94827 0
M  V30 4601 H 454.954 -1.13626 2.90681 0
M  V30 4602 N 455.255 -1.55392 -0.262866 0
M  V30 4603 C 456.485 -1.80251 -1.00961 0
M  V30 4604 C 456.893 -0.58117 -1.80053 0
M  V30 4605 O 456.236 0.459427 -1.77862 0
M  V30 4606 C 456.298 -2.98207 -2.00781 0
M  V30 4607 C 455.962 -4.34856 -1.40533 0
M  V30 4608 C 456.959 -5.13459 -0.815853 0
M  V30 4609 C 454.644 -4.8153 -1.42948 0
M  V30 4610 C 456.638 -6.36875 -0.258562 0
M  V30 4611 C 454.325 -6.04899 -0.868334 0
M  V30 4612 C 455.323 -6.8241 -0.283884 0
M  V30 4613 O 455.011 -8.03451 0.268644 0
M  V30 4614 H 454.743 -0.604049 -0.303482 0
M  V30 4615 H 457.297 -2.03257 -0.295926 0
M  V30 4616 H 455.527 -2.70917 -2.75936 0
M  V30 4617 H 457.216 -3.10299 -2.61667 0
M  V30 4618 H 457.982 -4.78526 -0.789812 0
M  V30 4619 H 453.861 -4.21201 -1.87378 0
M  V30 4620 H 457.405 -6.97318 0.198257 0
M  V30 4621 H 453.302 -6.39312 -0.891649 0
M  V30 4622 H 454.07 -8.18346 0.158974 0
M  V30 4623 N 456.733 0.527833 -1.48498 0
M  V30 4624 C 457.683 1.62844 -1.5958 0
M  V30 4625 C 458.667 1.54397 -0.452809 0
M  V30 4626 O 459.859 1.62381 -0.704364 0
M  V30 4627 C 456.988 3.01557 -1.64067 0
M  V30 4628 C 456.074 3.151 -2.83853 0
M  V30 4629 N 456.465 2.9861 -4.08247 0
M  V30 4630 C 454.763 3.46158 -2.8123 0
M  V30 4631 C 455.464 3.15626 -4.88626 0
M  V30 4632 N 454.44 3.43298 -4.21483 0
M  V30 4633 H 458.242 1.48708 -2.53502 0
M  V30 4634 H 455.756 0.733343 -1.44899 0
M  V30 4635 H 457.753 3.8062 -1.70101 0
M  V30 4636 H 456.413 3.16783 -0.712636 0
M  V30 4637 H 457.424 2.75329 -4.3865 0
M  V30 4638 H 454.101 3.67728 -1.97692 0
M  V30 4639 H 455.491 3.07596 -5.97356 0
M  V30 4640 N 458.211 1.37122 0.776871 0
M  V30 4641 C 459.439 1.3523 1.5659 0
M  V30 4642 C 459.854 -0.0635518 1.88693 0
M  V30 4643 O 459.211 -1.02394 1.51069 0
M  V30 4644 C 459.262 2.18583 2.8793 0
M  V30 4645 O 458.983 3.5465 2.57206 0
M  V30 4646 C 460.484 2.24612 3.82183 0
M  V30 4647 H 457.704 0.4634 0.485285 0
M  V30 4648 H 460.248 1.80392 0.963266 0
M  V30 4649 H 458.403 1.76943 3.4463 0
M  V30 4650 H 458.817 3.98286 3.41275 0
M  V30 4651 H 460.291 2.87267 4.71361 0
M  V30 4652 H 460.768 1.25309 4.20944 0
M  V30 4653 H 461.374 2.66543 3.31414 0
M  V30 4654 N 459.689 -1.00246 1.21608 0
M  V30 4655 C 460.919 -1.77373 1.05935 0
M  V30 4656 C 461.327 -1.85059 -0.393686 0
M  V30 4657 O 460.67 -1.31289 -1.28487 0
M  V30 4658 C 460.732 -3.22705 1.58435 0
M  V30 4659 C 460.396 -3.38591 3.06929 0
M  V30 4660 C 461.393 -3.2667 4.04454 0
M  V30 4661 C 459.078 -3.6395 3.46187 0
M  V30 4662 C 461.072 -3.39877 5.39224 0
M  V30 4663 C 458.759 -3.768 4.81108 0
M  V30 4664 C 459.757 -3.6477 5.77436 0
M  V30 4665 O 459.445 -3.77206 7.09909 0
M  V30 4666 H 459.177 -0.56419 0.372378 0
M  V30 4667 H 461.731 -1.26971 1.61454 0
M  V30 4668 H 459.961 -3.74255 0.973147 0
M  V30 4669 H 461.65 -3.81515 1.38568 0
M  V30 4670 H 462.416 -3.06999 3.75468 0
M  V30 4671 H 458.295 -3.72395 2.71741 0
M  V30 4672 H 461.839 -3.30404 6.14393 0
M  V30 4673 H 457.736 -3.95975 5.09779 0
M  V30 4674 H 458.504 -3.94138 7.17355 0
M  V30 4675 N 461.167 -1.02423 -1.1978 0
M  V30 4676 C 462.13 -0.605703 -2.21052 0
M  V30 4677 C 463.13 0.328209 -1.57415 0
M  V30 4678 O 464.32 0.115853 -1.73814 0
M  V30 4679 C 461.452 0.114366 -3.40708 0
M  V30 4680 H 462.645 -1.5017 -2.59594 0
M  V30 4681 H 460.198 -0.814888 -1.33376 0
M  V30 4682 H 460.933 1.02492 -3.07678 0
M  V30 4683 H 460.718 -0.556641 -3.88129 0
M  V30 4684 H 462.208 0.394272 -4.15735 0
M  V30 4685 N 462.645 1.35699 -0.801477 0
M  V30 4686 C 463.922 1.9324 -0.302937 0
M  V30 4687 C 464.302 1.73209 1.20672 0
M  V30 4688 O 463.65 1.09809 2.00385 0
M  V30 4689 C 463.86 3.41728 -0.708747 0
M  V30 4690 C 465.208 4.18868 -0.695328 0
M  V30 4691 O 466.232 3.5022 -0.649971 0
M  V30 4692 O 465.091 5.41342 -0.749081 0
M  V30 4693 H 462.185 0.82331 -0.0780367 0
M  V30 4694 H 464.731 1.44806 -0.884832 0
M  V30 4695 H 463.503 3.50015 -1.74944 0
M  V30 4696 H 463.126 3.97471 -0.101384 0
M  V30 4697 N 464.123 0.554532 1.47522 0
M  V30 4698 C 465.372 0.0273458 2.01681 0
M  V30 4699 C 465.685 -1.32962 1.43459 0
M  V30 4700 O 466.891 -1.94657 1.89265 0
M  V30 4701 C 465.347 -0.00159057 3.599 0
M  V30 4702 C 464.955 1.35197 4.27113 0
M  V30 4703 C 466.699 -0.476311 4.21819 0
M  V30 4704 C 464.606 1.28229 5.77331 0
M  V30 4705 H 463.536 0.00645269 0.753972 0
M  V30 4706 H 466.187 0.701985 1.69542 0
M  V30 4707 H 464.569 -0.741821 3.8899 0
M  V30 4708 H 465.743 2.1097 4.09668 0
M  V30 4709 H 464.058 1.76441 3.77171 0
M  V30 4710 H 466.655 -0.5468 5.31897 0
M  V30 4711 H 466.998 -1.4877 3.8881 0
M  V30 4712 H 467.531 0.20898 3.97251 0
M  V30 4713 H 464.27 2.26959 6.14955 0
M  V30 4714 H 463.79 0.566314 5.97121 0
M  V30 4715 H 465.469 0.983226 6.39485 0
M  V30 4716 N 465.601 -1.54893 0.290851 0
M  V30 4717 C 467.012 -1.85584 -0.203816 0
M  V30 4718 C 467.363 -1.21285 -1.54222 0
M  V30 4719 O 466.488 -0.506841 -2.10381 0
M  V30 4720 C 467.083 -3.367 -0.376595 0
M  V30 4721 C 465.642 -3.6746 -0.815485 0
M  V30 4722 C 464.789 -2.77178 0.0821087 0
M  V30 4723 H 467.74 -1.50208 0.512175 0
M  V30 4724 H 467.761 -3.60656 -1.21275 0
M  V30 4725 H 467.273 -3.8347 0.59767 0
M  V30 4726 H 465.374 -3.26201 -1.80066 0
M  V30 4727 H 465.487 -4.7478 -0.641905 0
M  V30 4728 H 463.851 -2.50925 -0.436895 0
M  V30 4729 H 464.634 -3.26767 1.05254 0
M  V30 4730 N 467.08 -0.0183926 -1.57589 0
M  V30 4731 C 468.01 0.965596 -2.12599 0
M  V30 4732 C 468.991 1.34641 -1.0395 0
M  V30 4733 O 470.176 1.42693 -1.31729 0
M  V30 4734 C 467.306 2.25149 -2.64434 0
M  V30 4735 C 466.26 2.01175 -3.77773 0
M  V30 4736 C 465.586 3.35937 -4.15994 0
M  V30 4737 C 466.886 1.35953 -5.04296 0
M  V30 4738 H 468.58 0.507504 -2.95067 0
M  V30 4739 H 466.126 0.242671 -1.41941 0
M  V30 4740 H 468.079 2.94357 -3.01549 0
M  V30 4741 H 466.803 2.73105 -1.79112 0
M  V30 4742 H 465.462 1.34388 -3.4108 0
M  V30 4743 H 465.11 3.81631 -3.27669 0
M  V30 4744 H 464.81 3.20705 -4.92364 0
M  V30 4745 H 466.334 4.0643 -4.55683 0
M  V30 4746 H 467.748 1.95144 -5.39065 0
M  V30 4747 H 466.145 1.31152 -5.85593 0
M  V30 4748 H 467.215 0.331071 -4.83768 0
M  V30 4749 N 468.558 1.5553 0.254621 0
M  V30 4750 C 469.521 1.88872 1.29846 0
M  V30 4751 C 470.521 0.764591 1.41459 0
M  V30 4752 O 471.711 1.03265 1.40293 0
M  V30 4753 C 468.843 2.11032 2.67728 0
M  V30 4754 H 470.036 2.82201 1.01502 0
M  V30 4755 H 467.589 1.48303 0.493556 0
M  V30 4756 H 468.324 1.20146 3.01223 0
M  V30 4757 H 468.109 2.92895 2.60682 0
M  V30 4758 H 469.599 2.38038 3.43115 0
M  V30 4759 N 470.036 -0.519951 1.48776 0
M  V30 4760 C 471.284 -1.2727 1.56993 0
M  V30 4761 C 471.605 -1.9339 0.25004 0
M  V30 4762 O 470.875 -1.81822 -0.729216 0
M  V30 4763 H 469.455 -0.472732 0.578389 0
M  V30 4764 H 472.117 -0.604234 1.85297 0
M  V30 4765 H 471.213 -2.04669 2.3562 0
M  V30 4766 N 471.514 -1.37532 -0.769588 0
M  V30 4767 C 472.444 -1.36172 -1.89682 0
M  V30 4768 C 473.425 -0.23001 -1.68538 0
M  V30 4769 O 474.61 -0.43069 -1.89364 0
M  V30 4770 C 471.74 -1.1701 -3.26995 0
M  V30 4771 C 470.694 -2.27216 -3.62708 0
M  V30 4772 C 470.02 -1.93174 -4.98586 0
M  V30 4773 C 471.32 -3.6941 -3.69234 0
M  V30 4774 H 473.014 -2.30499 -1.91078 0
M  V30 4775 H 470.56 -1.10953 -0.917902 0
M  V30 4776 H 472.513 -1.14688 -4.05493 0
M  V30 4777 H 471.237 -0.191395 -3.26039 0
M  V30 4778 H 469.896 -2.28697 -2.86519 0
M  V30 4779 H 469.544 -0.938281 -4.94171 0
M  V30 4780 H 469.244 -2.66973 -5.23449 0
M  V30 4781 H 470.768 -1.92443 -5.79481 0
M  V30 4782 H 472.182 -3.70047 -4.37879 0
M  V30 4783 H 470.579 -4.4228 -4.05597 0
M  V30 4784 H 471.649 -4.0288 -2.69844 0
M  V30 4785 N 472.992 0.995999 -1.22138 0
M  V30 4786 C 474.238 1.73767 -1.04561 0
M  V30 4787 C 474.571 1.89633 0.418698 0
M  V30 4788 O 473.846 1.43723 1.3105 0
M  V30 4789 C 474.129 3.14505 -1.75382 0
M  V30 4790 C 473.982 3.06306 -3.29388 0
M  V30 4791 C 475.301 4.13615 -1.50369 0
M  V30 4792 H 472.42 0.630728 -0.38125 0
M  V30 4793 H 475.062 1.16057 -1.50435 0
M  V30 4794 H 473.212 3.63775 -1.36383 0
M  V30 4795 H 474.884 2.64681 -3.77812 0
M  V30 4796 H 473.127 2.43186 -3.59226 0
M  V30 4797 H 473.798 4.05884 -3.74116 0
M  V30 4798 H 476.274 3.73089 -1.84239 0
M  V30 4799 H 475.15 5.10212 -2.02421 0
M  V30 4800 H 475.411 4.39949 -0.435611 0
M  V30 4801 N 474.47 1.03057 1.19235 0
M  V30 4802 C 475.747 0.642608 1.84743 0
M  V30 4803 C 476.127 -0.878577 1.91948 0
M  V30 4804 O 475.475 -1.77597 1.43776 0
M  V30 4805 C 475.685 1.30665 3.23616 0
M  V30 4806 C 477.033 1.43098 3.9976 0
M  V30 4807 O 478.057 1.26396 3.3302 0
M  V30 4808 O 476.916 1.70223 5.19313 0
M  V30 4809 H 474.01 0.223573 0.796206 0
M  V30 4810 H 476.556 1.12883 1.26711 0
M  V30 4811 H 475.328 2.34544 3.13217 0
M  V30 4812 H 474.951 0.808405 3.89295 0
M  V30 4813 N 475.948 -1.35272 0.808662 0
M  V30 4814 C 476.911 -2.28082 0.226093 0
M  V30 4815 C 477.911 -1.49673 -0.587762 0
M  V30 4816 O 479.101 -1.69404 -0.405943 0
M  V30 4817 C 476.233 -3.33955 -0.684596 0
M  V30 4818 H 477.426 -2.81116 1.04469 0
M  V30 4819 H 474.979 -1.45162 0.579466 0
M  V30 4820 H 475.714 -2.86111 -1.5268 0
M  V30 4821 H 475.499 -3.91965 -0.102699 0
M  V30 4822 H 476.989 -4.03219 -1.08646 0
M  V30 4823 N 477.426 -0.562348 -1.47226 0
M  V30 4824 C 478.356 0.170627 -2.32876 0
M  V30 4825 C 479.337 0.903748 -1.44106 0
M  V30 4826 O 480.522 0.883206 -1.72954 0
M  V30 4827 C 477.652 1.19786 -3.25989 0
M  V30 4828 C 476.606 0.580875 -4.2404 0
M  V30 4829 C 475.932 1.71311 -5.06514 0
M  V30 4830 C 477.232 -0.468714 -5.20193 0
M  V30 4831 H 478.926 -0.544441 -2.94408 0
M  V30 4832 H 476.472 -0.263271 -1.41573 0
M  V30 4833 H 478.425 1.71884 -3.84752 0
M  V30 4834 H 477.149 1.94294 -2.62521 0
M  V30 4835 H 475.808 0.0811538 -3.6651 0
M  V30 4836 H 475.456 2.44736 -4.39447 0
M  V30 4837 H 475.156 1.30604 -5.72902 0
M  V30 4838 H 476.68 2.23725 -5.68137 0
M  V30 4839 H 478.094 -0.0336028 -5.7329 0
M  V30 4840 H 476.491 -0.794957 -5.94811 0
M  V30 4841 H 477.561 -1.36269 -4.65359 0
M  V30 4842 N 478.904 1.54736 -0.299062 0
M  V30 4843 C 479.834 2.26409 0.571085 0
M  V30 4844 C 480.815 1.2629 1.13951 0
M  V30 4845 O 482 1.55059 1.16921 0
M  V30 4846 C 479.13 3.00338 1.74396 0
M  V30 4847 C 478.084 4.07588 1.30599 0
M  V30 4848 C 477.41 4.69222 2.56387 0
M  V30 4849 C 478.71 5.20455 0.438645 0
M  V30 4850 H 480.404 2.99388 -0.0266991 0
M  V30 4851 H 477.95 1.43993 -0.0142812 0
M  V30 4852 H 479.903 3.49198 2.35878 0
M  V30 4853 H 478.627 2.24934 2.36796 0
M  V30 4854 H 477.286 3.59575 0.71424 0
M  V30 4855 H 476.934 3.9046 3.17097 0
M  V30 4856 H 476.634 5.41653 2.27784 0
M  V30 4857 H 478.158 5.20844 3.18675 0
M  V30 4858 H 479.572 5.65221 0.959085 0
M  V30 4859 H 477.969 5.99594 0.246466 0
M  V30 4860 H 479.039 4.8192 -0.536738 0
M  V30 4861 N 480.382 0.0267497 1.57577 0
M  V30 4862 C 481.292 -0.971633 2.13533 0
M  V30 4863 C 482.308 -1.35868 1.08701 0
M  V30 4864 O 483.484 -1.44058 1.40746 0
M  V30 4865 C 480.549 -2.23622 2.64941 0
M  V30 4866 C 479.61 -1.90982 3.8448 0
M  V30 4867 C 478.843 -3.11411 4.33427 0
M  V30 4868 O 479.066 -4.23992 3.81558 0
M  V30 4869 O 478 -2.93848 5.25297 0
M  V30 4870 H 481.826 -0.525853 2.99113 0
M  V30 4871 H 479.411 -0.193712 1.48139 0
M  V30 4872 H 481.293 -2.97864 2.98086 0
M  V30 4873 H 479.968 -2.67386 1.82446 0
M  V30 4874 H 478.875 -1.14132 3.56265 0
M  V30 4875 H 480.208 -1.52036 4.6813 0
M  V30 4876 N 481.861 -1.55662 -0.24637 0
M  V30 4877 C 483.109 -1.77168 -0.972411 0
M  V30 4878 C 483.43 -0.590827 -1.85834 0
M  V30 4879 O 482.7 0.393365 -1.9191 0
M  V30 4880 H 481.28 -0.653405 -0.362038 0
M  V30 4881 H 483.942 -1.93101 -0.264189 0
M  V30 4882 H 483.038 -2.68335 -1.59382 0
M  V30 4883 N 483.339 0.512053 -1.4905 0
M  V30 4884 C 484.269 1.62365 -1.67809 0
M  V30 4885 C 485.25 1.61737 -0.526809 0
M  V30 4886 O 486.435 1.78651 -0.761404 0
M  V30 4887 C 483.565 3.00895 -1.73435 0
M  V30 4888 C 482.519 3.16387 -2.88242 0
M  V30 4889 C 481.845 4.56157 -2.78971 0
M  V30 4890 C 483.145 2.97457 -4.29321 0
M  V30 4891 H 484.839 1.46921 -2.60873 0
M  V30 4892 H 482.385 0.705379 -1.2554 0
M  V30 4893 H 484.338 3.78549 -1.85145 0
M  V30 4894 H 483.062 3.17403 -0.769619 0
M  V30 4895 H 481.721 2.41155 -2.76116 0
M  V30 4896 H 481.369 4.69525 -1.8043 0
M  V30 4897 H 481.069 4.67465 -3.5602 0
M  V30 4898 H 482.593 5.35886 -2.92675 0
M  V30 4899 H 484.007 3.64888 -4.42187 0
M  V30 4900 H 482.404 3.20245 -5.07507 0
M  V30 4901 H 483.474 1.93692 -4.44535 0
M  V30 4902 N 484.817 1.37938 0.762283 0
M  V30 4903 C 486.228 1.30094 1.33912 0
M  V30 4904 C 486.579 -0.0472026 1.96143 0
M  V30 4905 O 485.704 -0.94917 1.94473 0
M  V30 4906 C 486.299 2.35592 2.43478 0
M  V30 4907 C 484.858 2.31353 2.96905 0
M  V30 4908 C 484.005 2.18919 1.70205 0
M  V30 4909 H 486.956 1.48423 0.561816 0
M  V30 4910 H 486.977 2.00806 3.23199 0
M  V30 4911 H 486.489 3.33701 1.98155 0
M  V30 4912 H 484.59 1.36799 3.46579 0
M  V30 4913 H 484.703 3.25147 3.51875 0
M  V30 4914 H 483.067 1.65624 1.93496 0
M  V30 4915 H 483.85 3.18956 1.26973 0
M  V30 4916 N 486.295 -0.989507 1.22664 0
M  V30 4917 C 487.706 -1.54406 1.04955 0
M  V30 4918 C 488.057 -1.92366 -0.385951 0
M  V30 4919 O 487.182 -1.75111 -1.27142 0
M  V30 4920 C 487.777 -2.80578 1.89899 0
M  V30 4921 C 486.336 -3.32464 1.76478 0
M  V30 4922 C 485.483 -2.05524 1.86159 0
M  V30 4923 H 488.434 -0.810211 1.3646 0
M  V30 4924 H 488.455 -3.53075 1.4184 0
M  V30 4925 H 487.967 -2.52918 2.94371 0
M  V30 4926 H 486.068 -3.65024 0.747528 0
M  V30 4927 H 486.181 -4.02838 2.59342 0
M  V30 4928 H 484.545 -2.19241 1.29636 0
M  V30 4929 H 485.328 -1.80258 2.92168 0
M  V30 4930 N 487.773 -1.03688 -1.18687 0
M  V30 4931 C 488.998 -0.757819 -1.93059 0
M  V30 4932 C 489.423 0.678353 -1.75442 0
M  V30 4933 O 488.781 1.46938 -1.06203 0
M  V30 4934 C 488.829 -1.12423 -3.42627 0
M  V30 4935 O 487.933 -0.247505 -4.11657 0
M  V30 4936 H 487.274 -0.279245 -0.602427 0
M  V30 4937 H 489.804 -1.3857 -1.5053 0
M  V30 4938 H 489.814 -1.08454 -3.93322 0
M  V30 4939 H 488.489 -2.17049 -3.54771 0
M  V30 4940 H 487.066 -0.34649 -3.71287 0
M  V30 4941 N 489.251 1.34841 -0.815825 0
M  V30 4942 C 490.528 1.92908 -0.323416 0
M  V30 4943 C 490.908 1.74479 1.18828 0
M  V30 4944 O 490.256 1.11928 1.99209 0
M  V30 4945 C 490.466 3.40957 -0.744952 0
M  V30 4946 C 491.814 4.18107 -0.739716 0
M  V30 4947 O 492.838 3.49511 -0.68708 0
M  V30 4948 O 491.697 5.40517 -0.806456 0
M  V30 4949 H 488.791 0.822436 -0.0867646 0
M  V30 4950 H 491.337 1.4386 -0.90014 0
M  V30 4951 H 490.109 3.4814 -1.78646 0
M  V30 4952 H 489.732 3.97341 -0.143535 0
M  V30 4953 N 490.729 0.570148 1.46925 0
M  V30 4954 C 492.145 0.23087 1.57921 0
M  V30 4955 C 492.345 -1.26676 1.56702 0
M  V30 4956 O 491.401 -2.04774 1.47729 0
M  V30 4957 C 492.714 0.868973 2.8787 0
M  V30 4958 C 494.262 0.841397 3.01479 0
M  V30 4959 C 494.737 1.45881 4.34146 0
M  V30 4960 N 496.228 1.42258 4.40814 0
M  V30 4961 C 496.963 1.8698 5.42057 0
M  V30 4962 N 496.459 2.39618 6.50042 0
M  V30 4963 N 498.252 1.77972 5.33181 0
M  V30 4964 H 490.403 1.54301 1.45962 0
M  V30 4965 H 492.666 0.644224 0.69547 0
M  V30 4966 H 492.372 1.922 2.94537 0
M  V30 4967 H 492.246 0.369682 3.75384 0
M  V30 4968 H 494.633 -0.202973 2.94401 0
M  V30 4969 H 494.714 1.37858 2.15474 0
M  V30 4970 H 494.358 2.50231 4.4198 0
M  V30 4971 H 494.288 0.896958 5.18905 0
M  V30 4972 H 496.779 1.03768 3.63374 0
M  V30 4973 H 497.092 2.71633 7.23488 0
M  V30 4974 H 495.437 2.43636 6.50897 0
M  V30 4975 H 498.628 1.36617 4.4772 0
M  V30 4976 H 498.801 2.13143 6.11943 0
M  V30 4977 N 492.207 -1.54576 0.307264 0
M  V30 4978 C 493.435 -2.04675 -0.302597 0
M  V30 4979 C 493.85 -1.18425 -1.47041 0
M  V30 4980 O 493.207 -0.211257 -1.81273 0
M  V30 4981 C 493.258 -3.53575 -0.752801 0
M  V30 4982 O 492.979 -4.36547 0.368536 0
M  V30 4983 C 494.48 -4.19699 -1.42717 0
M  V30 4984 H 491.7 -0.66786 -0.0648374 0
M  V30 4985 H 494.244 -1.99516 0.448716 0
M  V30 4986 H 492.399 -3.59074 -1.45412 0
M  V30 4987 H 492.813 -5.24497 0.0168937 0
M  V30 4988 H 494.287 -5.25388 -1.69327 0
M  V30 4989 H 494.764 -3.69815 -2.36925 0
M  V30 4990 H 495.37 -4.18293 -0.768856 0
M  V30 4991 N 493.685 -0.035106 -1.57561 0
M  V30 4992 C 494.913 0.652258 -1.9635 0
M  V30 4993 C 495.328 1.65317 -0.911897 0
M  V30 4994 O 494.685 1.82194 0.105657 0
M  V30 4995 C 494.736 1.35337 -3.35211 0
M  V30 4996 O 494.457 0.392548 -4.36338 0
M  V30 4997 C 495.958 2.13199 -3.88666 0
M  V30 4998 H 493.178 0.179444 -0.646561 0
M  V30 4999 H 495.722 -0.0966459 -2.04271 0
M  V30 5000 H 493.877 2.05362 -3.28489 0
M  V30 5001 H 494.291 0.891097 -5.16875 0
M  V30 5002 H 495.765 2.577 -4.88154 0
M  V30 5003 H 496.242 2.97353 -3.23231 0
M  V30 5004 H 496.848 1.48118 -3.98674 0
M  V30 5005 N 495.163 1.55791 0.238111 0
M  V30 5006 C 496.579 1.48411 0.587045 0
M  V30 5007 C 496.779 0.72702 1.87927 0
M  V30 5008 O 495.835 0.259942 2.51158 0
M  V30 5009 C 497.148 2.92873 0.681623 0
M  V30 5010 C 498.696 3.03295 0.773363 0
M  V30 5011 C 499.171 4.49082 0.899428 0
M  V30 5012 N 500.662 4.53056 0.964075 0
M  V30 5013 C 501.397 5.63117 1.08104 0
M  V30 5014 N 500.893 6.82969 1.16299 0
M  V30 5015 N 502.686 5.50933 1.11488 0
M  V30 5016 H 494.837 2.0345 -0.610076 0
M  V30 5017 H 497.1 0.924034 -0.211813 0
M  V30 5018 H 496.806 3.51142 -0.19802 0
M  V30 5019 H 496.68 3.43851 1.55069 0
M  V30 5020 H 499.067 2.45101 1.64346 0
M  V30 5021 H 499.148 2.55513 -0.121034 0
M  V30 5022 H 498.792 5.07889 0.0338586 0
M  V30 5023 H 498.722 4.94553 1.809 0
M  V30 5024 H 501.213 3.66737 0.91173 0
M  V30 5025 H 501.526 7.62598 1.25155 0
M  V30 5026 H 499.871 6.85712 1.13241 0
M  V30 5027 H 503.062 4.56231 1.0474 0
M  V30 5028 H 503.235 6.36743 1.20259 0
M  V30 5029 N 496.642 -0.504142 1.49319 0
M  V30 5030 C 497.89 -1.25598 1.58334 0
M  V30 5031 C 498.211 -1.93114 0.270538 0
M  V30 5032 O 497.481 -1.82585 -0.709891 0
M  V30 5033 H 496.061 -0.466571 0.58337 0
M  V30 5034 H 498.723 -0.584547 1.85928 0
M  V30 5035 H 497.819 -2.02159 2.37778 0
M  V30 5036 N 498.12 -1.38341 -0.754957 0
M  V30 5037 C 499.067 -1.3546 -1.86867 0
M  V30 5038 C 500.037 -0.217369 -1.64672 0
M  V30 5039 O 501.222 -0.409383 -1.86356 0
M  V30 5040 C 498.362 -1.18413 -3.24149 0
M  V30 5041 C 497.475 -2.41511 -3.58185 0
M  V30 5042 C 496.61 -2.17205 -4.84763 0
M  V30 5043 C 495.649 -3.36081 -5.11582 0
M  V30 5044 N 494.786 -3.11219 -6.29354 0
M  V30 5045 H 499.626 -2.30672 -1.88664 0
M  V30 5046 H 497.163 -1.14607 -0.922154 0
M  V30 5047 H 499.121 -1.06545 -4.03366 0
M  V30 5048 H 497.751 -0.268397 -3.21682 0
M  V30 5049 H 496.803 -2.64056 -2.73822 0
M  V30 5050 H 498.115 -3.30115 -3.73932 0
M  V30 5051 H 497.269 -2.02465 -5.7192 0
M  V30 5052 H 496.008 -1.25964 -4.71152 0
M  V30 5053 H 495.013 -3.51341 -4.22894 0
M  V30 5054 H 496.238 -4.28196 -5.27091 0
M  V30 5055 H 494.184 -2.22624 -6.17069 0
M  V30 5056 H 494.101 -3.93373 -6.45596 0
M  V30 5057 H 495.369 -3.00132 -7.19403 0
M  V30 5058 N 499.598 0.982988 -1.23187 0
M  V30 5059 C 500.508 2.10907 -1.02739 0
M  V30 5060 C 501.524 1.73979 0.0273188 0
M  V30 5061 O 502.7 2.00702 -0.16757 0
M  V30 5062 C 499.765 3.41142 -0.618304 0
M  V30 5063 C 498.826 3.92112 -1.74777 0
M  V30 5064 C 498.059 5.16131 -1.3581 0
M  V30 5065 O 498.282 5.6989 -0.241201 0
M  V30 5066 O 497.216 5.61103 -2.17824 0
M  V30 5067 H 501.042 2.31046 -1.97108 0
M  V30 5068 H 498.627 1.09284 -1.01869 0
M  V30 5069 H 500.509 4.19488 -0.400982 0
M  V30 5070 H 499.184 3.2234 0.296421 0
M  V30 5071 H 498.091 3.14895 -2.0197 0
M  V30 5072 H 499.424 4.15364 -2.64071 0
M  V30 5073 N 501.076 1.04316 1.18135 0
M  V30 5074 C 502.487 0.775505 1.69832 0
M  V30 5075 C 502.838 -0.703348 1.8316 0
M  V30 5076 O 501.963 -1.54729 1.51287 0
M  V30 5077 C 502.558 1.40112 3.0847 0
M  V30 5078 C 501.117 1.18172 3.57368 0
M  V30 5079 C 500.264 1.49022 2.33854 0
M  V30 5080 H 503.215 1.20925 1.02775 0
M  V30 5081 H 503.236 0.805672 3.71873 0
M  V30 5082 H 502.748 2.47744 2.98738 0
M  V30 5083 H 500.849 0.124258 3.72393 0
M  V30 5084 H 500.962 1.8805 4.40652 0
M  V30 5085 H 499.326 0.909995 2.37889 0
M  V30 5086 H 500.109 2.57768 2.26738 0
M  V30 5087 N 502.554 -1.34406 0.822964 0
M  V30 5088 C 503.504 -2.26963 0.217208 0
M  V30 5089 C 504.488 -1.48536 -0.618545 0
M  V30 5090 O 505.68 -1.7056 -0.473118 0
M  V30 5091 C 502.809 -3.37655 -0.619973 0
M  V30 5092 C 501.895 -4.23495 0.226411 0
M  V30 5093 N 502.286 -4.88876 1.29744 0
M  V30 5094 C 500.584 -4.45999 0.0107554 0
M  V30 5095 C 501.285 -5.52642 1.81553 0
M  V30 5096 N 500.261 -5.31949 1.11942 0
M  V30 5097 H 504.063 -2.75017 1.03647 0
M  V30 5098 H 501.577 -1.48126 0.665777 0
M  V30 5099 H 503.574 -4.02932 -1.07011 0
M  V30 5100 H 502.234 -2.91151 -1.43739 0
M  V30 5101 H 503.245 -4.89886 1.68024 0
M  V30 5102 H 499.922 -4.10253 -0.774495 0
M  V30 5103 H 501.312 -6.14755 2.71156 0
M  V30 5104 N 504.032 -0.577932 -1.46621 0
M  V30 5105 C 504.995 0.147805 -2.28723 0
M  V30 5106 C 505.995 0.823325 -1.38123 0
M  V30 5107 O 507.185 0.676011 -1.60548 0
M  V30 5108 C 504.317 1.21853 -3.18378 0
M  V30 5109 H 505.51 -0.573654 -2.94362 0
M  V30 5110 H 503.063 -0.335703 -1.52652 0
M  V30 5111 H 503.798 1.97173 -2.57475 0
M  V30 5112 H 503.583 0.738714 -3.85078 0
M  V30 5113 H 505.073 1.72768 -3.80186 0
M  V30 5114 N 505.51 1.54411 -0.315457 0
M  V30 5115 C 506.74 2.04536 0.291315 0
M  V30 5116 C 507.148 1.19162 1.4696 0
M  V30 5117 O 506.491 0.213199 1.82459 0
M  V30 5118 C 506.553 3.5056 0.796725 0
M  V30 5119 C 506.217 4.5627 -0.258178 0
M  V30 5120 C 507.214 5.08312 -1.09153 0
M  V30 5121 C 504.899 5.00672 -0.404036 0
M  V30 5122 C 506.893 6.03312 -2.05655 0
M  V30 5123 C 504.58 5.95488 -1.37248 0
M  V30 5124 C 505.578 6.46693 -2.19721 0
M  V30 5125 O 505.266 7.39648 -3.14921 0
M  V30 5126 H 504.998 0.672856 0.0651165 0
M  V30 5127 H 507.552 2.00244 -0.457308 0
M  V30 5128 H 505.782 3.52223 1.59612 0
M  V30 5129 H 507.471 3.83804 1.32096 0
M  V30 5130 H 508.237 4.74793 -0.98979 0
M  V30 5131 H 504.116 4.60436 0.22799 0
M  V30 5132 H 507.66 6.43203 -2.70067 0
M  V30 5133 H 503.557 6.28424 -1.47489 0
M  V30 5134 H 504.325 7.57496 -3.10067 0
M  V30 5135 N 506.988 0.0434614 1.5754 0
M  V30 5136 C 508.399 -0.493343 1.80064 0
M  V30 5137 C 508.75 -1.71388 0.955023 0
M  V30 5138 O 507.875 -2.15736 0.169434 0
M  V30 5139 C 508.47 -0.90179 3.26578 0
M  V30 5140 C 507.029 -1.38362 3.50047 0
M  V30 5141 C 506.176 -0.355129 2.75017 0
M  V30 5142 H 509.127 0.2694 1.56397 0
M  V30 5143 H 509.148 -1.76523 3.37075 0
M  V30 5144 H 508.66 -0.013271 3.88098 0
M  V30 5145 H 506.761 -2.29159 2.93798 0
M  V30 5146 H 506.874 -1.3811 4.58762 0
M  V30 5147 H 505.238 -0.826348 2.40922 0
M  V30 5148 H 506.021 0.525172 3.39259 0
M  V30 5149 N 508.466 -1.55915 -0.229846 0
M  V30 5150 C 509.694 -1.82617 -0.972562 0
M  V30 5151 C 510.109 -0.621488 -1.78278 0
M  V30 5152 O 509.466 0.409956 -1.77836 0
M  V30 5153 C 509.517 -3.0774 -1.89679 0
M  V30 5154 O 509.238 -4.23559 -1.11934 0
M  V30 5155 C 510.739 -3.47368 -2.75409 0
M  V30 5156 H 507.959 -0.60727 -0.285419 0
M  V30 5157 H 510.503 -2.02996 -0.247579 0
M  V30 5158 H 508.658 -2.89361 -2.57583 0
M  V30 5159 H 509.072 -4.94586 -1.74599 0
M  V30 5160 H 510.546 -4.37977 -3.35977 0
M  V30 5161 H 511.023 -2.68737 -3.47386 0
M  V30 5162 H 511.629 -3.68158 -2.12931 0
M  V30 5163 N 509.944 0.496216 -1.49584 0
M  V30 5164 C 511.192 1.24756 -1.58998 0
M  V30 5165 C 511.513 1.92968 -0.280775 0
M  V30 5166 O 510.783 1.82959 0.700198 0
M  V30 5167 H 509.363 0.463471 -0.585836 0
M  V30 5168 H 512.025 0.574678 -1.86235 0
M  V30 5169 H 511.121 2.00895 -2.38847 0
M  V30 5170 N 511.423 1.38739 0.74761 0
M  V30 5171 C 512.353 1.39173 1.87492 0
M  V30 5172 C 513.334 0.256794 1.6815 0
M  V30 5173 O 514.519 0.460762 1.88655 0
M  V30 5174 C 511.649 1.22197 3.25093 0
M  V30 5175 C 510.603 2.32957 3.59047 0
M  V30 5176 C 509.929 2.01082 4.95449 0
M  V30 5177 C 511.229 3.75237 3.6331 0
M  V30 5178 H 512.923 2.3351 1.87386 0
M  V30 5179 H 510.469 1.12399 0.900134 0
M  V30 5180 H 512.422 1.21124 4.03617 0
M  V30 5181 H 511.146 0.243241 3.25693 0
M  V30 5182 H 509.805 2.33226 2.82845 0
M  V30 5183 H 509.453 1.01678 4.92616 0
M  V30 5184 H 509.153 2.75267 5.19136 0
M  V30 5185 H 510.677 2.01638 5.76346 0
M  V30 5186 H 512.091 3.76966 4.31937 0
M  V30 5187 H 510.488 4.48677 3.98509 0
M  V30 5188 H 511.558 4.07122 2.634 0
M  V30 5189 N 512.901 -0.976442 1.23707 0
M  V30 5190 C 513.833 -2.07212 0.979574 0
M  V30 5191 C 514.846 -1.6273 -0.0478528 0
M  V30 5192 O 516.035 -1.77506 0.18815 0
M  V30 5193 C 513.135 -3.35835 0.45479 0
M  V30 5194 C 512.308 -4.09268 1.54331 0
M  V30 5195 C 511.367 -5.16166 1.02271 0
M  V30 5196 O 510.393 -5.42827 1.71254 0
M  V30 5197 N 511.595 -5.80313 -0.147419 0
M  V30 5198 H 514.36 -2.29878 1.92292 0
M  V30 5199 H 511.921 -1.14343 1.14618 0
M  V30 5200 H 513.913 -4.04597 0.0914631 0
M  V30 5201 H 512.483 -3.10106 -0.394068 0
M  V30 5202 H 511.703 -3.34906 2.07923 0
M  V30 5203 H 512.991 -4.55095 2.27522 0
M  V30 5204 H 512.389 -5.61043 -0.724353 0
M  V30 5205 H 510.946 -6.50231 -0.451972 0
M  V30 5206 N 514.379 -1.04941 -1.1758 0
M  V30 5207 C 515.342 -0.652456 -2.19717 0
M  V30 5208 C 516.342 0.294745 -1.58076 0
M  V30 5209 O 517.532 0.0789579 -1.74021 0
M  V30 5210 C 514.664 0.0420712 -3.40874 0
M  V30 5211 H 515.857 -1.55642 -2.5635 0
M  V30 5212 H 513.41 -0.842995 -1.31618 0
M  V30 5213 H 514.145 0.95943 -3.09783 0
M  V30 5214 H 513.93 -0.638844 -3.86861 0
M  V30 5215 H 515.42 0.306 -4.16477 0
M  V30 5216 N 515.857 1.33968 -0.830081 0
M  V30 5217 C 517.134 1.92554 -0.343858 0
M  V30 5218 C 517.514 1.7573 1.16971 0
M  V30 5219 O 516.862 1.14035 1.98011 0
M  V30 5220 C 517.072 3.40147 -0.781073 0
M  V30 5221 C 518.42 4.17299 -0.78402 0
M  V30 5222 O 519.444 3.48762 -0.724112 0
M  V30 5223 O 518.303 5.39631 -0.863739 0
M  V30 5224 H 515.397 0.821469 -0.0954827 0
M  V30 5225 H 517.943 1.42897 -0.915348 0
M  V30 5226 H 516.715 3.46225 -1.82329 0
M  V30 5227 H 516.338 3.97166 -0.18567 0
M  V30 5228 N 517.335 0.585699 1.46312 0
M  V30 5229 C 518.583 0.072278 2.01971 0
M  V30 5230 C 518.904 -1.29345 1.45928 0
M  V30 5231 O 518.174 -1.84973 0.645109 0
M  V30 5232 H 516.754 0.023729 0.746623 0
M  V30 5233 H 519.416 0.762155 1.7938 0
M  V30 5234 H 518.512 0.00552767 3.121 0
M  V30 5235 N 518.813 -1.54241 0.323641 0
M  V30 5236 C 519.723 -2.28033 -0.551205 0
M  V30 5237 C 520.739 -1.32388 -1.12913 0
M  V30 5238 O 521.915 -1.65403 -1.14908 0
M  V30 5239 C 518.98 -3.02382 -1.69606 0
M  V30 5240 C 518.041 -4.13612 -1.14993 0
M  V30 5241 C 517.274 -4.84407 -2.24022 0
M  V30 5242 O 517.497 -4.54716 -3.44368 0
M  V30 5243 O 516.431 -5.71312 -1.89436 0
M  V30 5244 H 520.257 -3.03662 0.048066 0
M  V30 5245 H 517.842 -1.49133 0.0893289 0
M  V30 5246 H 519.724 -3.48941 -2.36259 0
M  V30 5247 H 518.399 -2.29628 -2.28151 0
M  V30 5248 H 517.306 -3.71402 -0.448484 0
M  V30 5249 H 518.639 -4.8841 -0.609608 0
M  V30 5250 N 520.291 -0.0518155 -1.57515 0
M  V30 5251 C 521.702 0.483787 -1.80323 0
M  V30 5252 C 522.053 1.70879 -0.964099 0
M  V30 5253 O 521.178 2.15643 -0.180872 0
M  V30 5254 C 521.773 0.884459 -3.27052 0
M  V30 5255 C 520.332 1.36504 -3.50776 0
M  V30 5256 C 519.479 0.340539 -2.75201 0
M  V30 5257 H 522.43 -0.277691 -1.56252 0
M  V30 5258 H 522.451 1.74733 -3.38007 0
M  V30 5259 H 521.963 -0.00731093 -3.88099 0
M  V30 5260 H 520.064 2.27598 -2.95009 0
M  V30 5261 H 520.177 1.35675 -4.59488 0
M  V30 5262 H 518.541 0.81356 -2.41357 0
M  V30 5263 H 519.324 -0.543156 -3.38976 0
M  V30 5264 N 521.769 1.56035 0.221574 0
M  V30 5265 C 523.018 1.78245 0.944016 0
M  V30 5266 C 523.331 0.620371 1.85501 0
M  V30 5267 O 524.537 0.726103 2.6161 0
M  V30 5268 C 522.993 3.15659 1.7288 0
M  V30 5269 C 522.601 4.39591 0.863942 0
M  V30 5270 C 524.345 3.47195 2.44246 0
M  V30 5271 C 522.252 5.6803 1.64607 0
M  V30 5272 H 521.182 0.664547 0.356222 0
M  V30 5273 H 523.833 1.8243 0.197904 0
M  V30 5274 H 522.215 3.0565 2.51781 0
M  V30 5275 H 523.389 4.60655 0.115464 0
M  V30 5276 H 521.704 4.15572 0.262407 0
M  V30 5277 H 524.301 4.40381 3.03263 0
M  V30 5278 H 524.644 2.69693 3.1713 0
M  V30 5279 H 525.177 3.58533 1.72334 0
M  V30 5280 H 521.916 6.48425 0.960507 0
M  V30 5281 H 521.436 5.51027 2.36917 0
M  V30 5282 H 523.115 6.08203 2.20675 0
M  V30 5283 N 523.247 -0.488276 1.49845 0
M  V30 5284 C 524.21 -1.57069 1.66919 0
M  V30 5285 C 525.21 -1.51445 0.540479 0
M  V30 5286 O 526.4 -1.5437 0.807188 0
M  V30 5287 C 523.532 -2.96718 1.67844 0
M  V30 5288 H 524.725 -1.43254 2.63474 0
M  V30 5289 H 522.278 -0.713435 1.39068 0
M  V30 5290 H 523.013 -3.15996 0.7292 0
M  V30 5291 H 522.798 -3.02208 2.49826 0
M  V30 5292 H 524.288 -3.75335 1.83066 0
M  V30 5293 N 524.725 -1.39134 -0.740242 0
M  V30 5294 C 526.136 -1.32208 -1.31825 0
M  V30 5295 C 526.487 0.0159919 -1.96193 0
M  V30 5296 O 525.612 0.918111 -1.95958 0
M  V30 5297 C 526.207 -2.39436 -2.39699 0
M  V30 5298 C 524.766 -2.36048 -2.93187 0
M  V30 5299 C 523.913 -2.21599 -1.66701 0
M  V30 5300 H 526.864 -1.49298 -0.538133 0
M  V30 5301 H 526.885 -2.05922 -3.19963 0
M  V30 5302 H 526.397 -3.36811 -1.92821 0
M  V30 5303 H 524.498 -1.42295 -3.44359 0
M  V30 5304 H 524.611 -3.30704 -3.46658 0
M  V30 5305 H 522.975 -1.68681 -1.90837 0
M  V30 5306 H 523.758 -3.20936 -1.21882 0
M  V30 5307 N 526.204 0.969867 -1.24223 0
M  V30 5308 C 527.137 2.06279 -0.975926 0
M  V30 5309 C 528.115 1.62353 0.0895385 0
M  V30 5310 O 529.299 1.88442 -0.0469418 0
M  V30 5311 C 526.426 3.35391 -0.472315 0
M  V30 5312 C 525.472 3.98266 -1.526 0
M  V30 5313 S 526.305 4.36172 -3.10667 0
M  V30 5314 C 527.461 5.68423 -2.62003 0
M  V30 5315 H 527.694 2.28551 -1.90137 0
M  V30 5316 H 525.227 1.10748 -1.07584 0
M  V30 5317 H 527.185 4.10068 -0.188376 0
M  V30 5318 H 525.846 3.1111 0.432378 0
M  V30 5319 H 525.039 4.91307 -1.12399 0
M  V30 5320 H 524.641 3.30009 -1.75983 0
M  V30 5321 H 526.933 6.45842 -2.0468 0
M  V30 5322 H 527.876 6.13478 -3.53625 0
M  V30 5323 H 528.284 5.26928 -2.02502 0
M  V30 5324 N 527.682 1.05563 1.17022 0
M  V30 5325 C 528.959 0.68165 1.83338 0
M  V30 5326 C 529.339 -0.837665 1.93769 0
M  V30 5327 O 528.687 -1.74507 1.47511 0
M  V30 5328 C 528.897 1.375 3.20772 0
M  V30 5329 C 530.245 1.51545 3.96635 0
M  V30 5330 O 531.269 1.33431 3.30264 0
M  V30 5331 O 530.128 1.812 5.15586 0
M  V30 5332 H 527.222 0.240412 0.791285 0
M  V30 5333 H 529.768 1.15545 1.24288 0
M  V30 5334 H 528.54 2.41135 3.08171 0
M  V30 5335 H 528.163 0.890798 3.87493 0
M  V30 5336 N 529.16 -1.33526 0.837174 0
M  V30 5337 C 530.409 -1.97098 0.428387 0
M  V30 5338 C 530.722 -1.67062 -1.01734 0
M  V30 5339 O 531.928 -2.24235 -1.53072 0
M  V30 5340 C 530.384 -3.52725 0.715075 0
M  V30 5341 C 529.992 -3.9164 2.17537 0
M  V30 5342 C 531.736 -4.22857 0.373154 0
M  V30 5343 C 529.643 -5.40237 2.40619 0
M  V30 5344 H 528.573 -0.737589 0.156455 0
M  V30 5345 H 531.224 -1.52169 1.02552 0
M  V30 5346 H 529.606 -3.95971 0.0475904 0
M  V30 5347 H 530.78 -3.59456 2.88319 0
M  V30 5348 H 529.095 -3.34485 2.4801 0
M  V30 5349 H 531.692 -5.32133 0.523264 0
M  V30 5350 H 532.035 -4.10647 -0.683708 0
M  V30 5351 H 532.568 -3.85135 0.995801 0
M  V30 5352 H 529.307 -5.57449 3.44864 0
M  V30 5353 H 528.827 -5.73887 1.74396 0
M  V30 5354 H 530.506 -6.07102 2.23688 0
M  V30 5355 N 530.638 -0.59345 -1.46 0
M  V30 5356 C 531.601 0.123538 -2.28867 0
M  V30 5357 C 532.601 0.808628 -1.38989 0
M  V30 5358 O 533.791 0.658945 -1.61256 0
M  V30 5359 C 530.923 1.1847 -3.19653 0
M  V30 5360 H 532.116 -0.604843 -2.93737 0
M  V30 5361 H 529.669 -0.351875 -1.52288 0
M  V30 5362 H 530.404 1.94431 -2.59552 0
M  V30 5363 H 530.189 0.69783 -3.8584 0
M  V30 5364 H 531.679 1.68726 -3.81997 0
M  V30 5365 N 532.116 1.54067 -0.331816 0
M  V30 5366 C 533.532 1.59587 0.0205388 0
M  V30 5367 C 533.732 1.34813 1.49759 0
M  V30 5368 O 532.788 1.13661 2.25471 0
M  V30 5369 C 534.101 2.97959 -0.405103 0
M  V30 5370 C 535.649 3.10964 -0.356454 0
M  V30 5371 C 536.124 4.51694 -0.757384 0
M  V30 5372 N 537.615 4.57709 -0.71111 0
M  V30 5373 C 538.35 5.64729 -0.993427 0
M  V30 5374 N 537.846 6.79652 -1.3433 0
M  V30 5375 N 539.639 5.54546 -0.918442 0
M  V30 5376 H 531.79 1.68426 -1.29407 0
M  V30 5377 H 534.053 0.78819 -0.526745 0
M  V30 5378 H 533.759 3.21115 -1.43451 0
M  V30 5379 H 533.633 3.76524 0.225692 0
M  V30 5380 H 536.02 2.87538 0.663763 0
M  V30 5381 H 536.101 2.34484 -1.02229 0
M  V30 5382 H 535.745 4.75853 -1.77555 0
M  V30 5383 H 535.675 5.26555 -0.0691444 0
M  V30 5384 H 538.166 3.75176 -0.452883 0
M  V30 5385 H 538.479 7.57221 -1.54388 0
M  V30 5386 H 536.824 6.81128 -1.38164 0
M  V30 5387 H 540.015 4.63641 -0.644536 0
M  V30 5388 H 540.188 6.37861 -1.14181 0
M  V30 5389 N 533.594 0.0601682 1.57485 0
M  V30 5390 C 534.557 -0.896373 2.10945 0
M  V30 5391 C 535.557 -1.23402 1.03095 0
M  V30 5392 O 536.747 -1.16921 1.29132 0
M  V30 5393 C 533.879 -2.20346 2.60116 0
M  V30 5394 H 535.072 -0.432778 2.96761 0
M  V30 5395 H 532.625 -0.188372 1.55161 0
M  V30 5396 H 533.36 -2.71268 1.7772 0
M  V30 5397 H 533.145 -1.9714 3.38937 0
M  V30 5398 H 534.635 -2.88846 3.01592 0
M  V30 5399 N 535.072 -1.5615 -0.213296 0
M  V30 5400 C 536.318 -1.79812 -0.937849 0
M  V30 5401 C 536.651 -0.631201 -1.83656 0
M  V30 5402 O 535.926 0.369165 -1.90964 0
M  V30 5403 C 536.209 -3.13613 -1.76972 0
M  V30 5404 C 536.062 -4.40766 -0.89695 0
M  V30 5405 C 537.381 -3.43931 -2.7459 0
M  V30 5406 H 534.5 -0.654138 -0.339518 0
M  V30 5407 H 537.142 -1.88877 -0.20623 0
M  V30 5408 H 535.292 -3.06015 -2.39347 0
M  V30 5409 H 536.964 -4.60392 -0.289306 0
M  V30 5410 H 535.207 -4.33326 -0.202756 0
M  V30 5411 H 535.878 -5.30843 -1.51358 0
M  V30 5412 H 538.354 -3.5171 -2.22349 0
M  V30 5413 H 537.23 -4.38706 -3.29891 0
M  V30 5414 H 537.491 -2.6651 -3.52739 0
M  V30 5415 N 536.55 0.480323 -1.50102 0
M  V30 5416 C 537.498 1.60024 -1.68805 0
M  V30 5417 C 538.492 1.60089 -0.553888 0
M  V30 5418 O 539.698 1.64349 -0.734127 0
M  V30 5419 H 536.073 0.530841 -0.532646 0
M  V30 5420 H 538.044 1.41408 -2.62767 0
M  V30 5421 C 536.793 2.98029 -1.79092 0
M  V30 5422 H 536.116 2.98694 -2.65748 0
M  V30 5423 H 537.556 3.75871 -1.96206 0
M  V30 5424 C 536.015 3.32538 -0.540388 0
M  V30 5425 O 536.545 4.00386 0.324637 0
M  V30 5426 N 534.751 2.87873 -0.397154 0
M  V30 5427 H 534.298 2.32834 -1.1021 0
M  V30 5428 H 534.256 3.11328 0.438425 0
M  V30 5429 N 538.028 1.39524 0.732853 0
M  V30 5430 C 539.305 1.27373 1.48444 0
M  V30 5431 C 539.685 -0.115725 2.10783 0
M  V30 5432 O 539.033 -1.12713 1.98766 0
M  V30 5433 C 539.243 2.39966 2.53412 0
M  V30 5434 C 540.591 2.79384 3.19733 0
M  V30 5435 O 541.615 2.39431 2.63725 0
M  V30 5436 O 540.474 3.48353 4.21085 0
M  V30 5437 H 537.568 0.499272 0.659285 0
M  V30 5438 H 540.114 1.51403 0.766496 0
M  V30 5439 H 538.886 3.32845 2.05742 0
M  V30 5440 H 538.509 2.17612 3.32762 0
M  V30 5441 N 539.506 -0.963266 1.24736 0
M  V30 5442 C 540.922 -1.23273 1.01371 0
M  V30 5443 C 541.122 -1.99618 -0.274776 0
M  V30 5444 O 540.178 -2.32293 -0.989769 0
M  V30 5445 C 541.491 -2.01554 2.23152 0
M  V30 5446 C 543.039 -2.14629 2.27823 0
M  V30 5447 C 543.514 -2.96307 3.49237 0
M  V30 5448 N 545.005 -3.03887 3.49581 0
M  V30 5449 C 545.74 -3.67456 4.40186 0
M  V30 5450 N 545.236 -4.32706 5.41052 0
M  V30 5451 N 547.029 -3.64511 4.27888 0
M  V30 5452 H 539.18 -0.452294 2.07528 0
M  V30 5453 H 541.443 -0.262521 0.910926 0
M  V30 5454 H 541.149 -1.52847 3.1675 0
M  V30 5455 H 541.023 -3.02278 2.25628 0
M  V30 5456 H 543.41 -2.62537 1.34753 0
M  V30 5457 H 543.491 -1.13238 2.2937 0
M  V30 5458 H 543.135 -2.49091 4.42624 0
M  V30 5459 H 543.065 -3.97905 3.44933 0
M  V30 5460 H 545.556 -2.57477 2.76611 0
M  V30 5461 H 545.869 -4.79042 6.06415 0
M  V30 5462 H 544.214 -4.31361 5.44934 0
M  V30 5463 H 547.405 -3.12715 3.4832 0
M  V30 5464 H 547.578 -4.13768 4.98698 0
M  V30 5465 N 540.985 -1.06182 -1.16461 0
M  V30 5466 C 542.231 -0.779015 -1.87241 0
M  V30 5467 C 542.564 0.692715 -1.81425 0
M  V30 5468 O 541.839 1.5074 -1.22913 0
M  V30 5469 C 542.122 -1.2728 -3.36856 0
M  V30 5470 C 541.975 -2.80821 -3.51368 0
M  V30 5471 C 543.294 -0.879799 -4.31216 0
M  V30 5472 H 540.413 -0.284464 -0.679889 0
M  V30 5473 H 543.055 -1.31755 -1.36896 0
M  V30 5474 H 541.205 -0.814673 -3.79862 0
M  V30 5475 H 542.877 -3.34833 -3.17308 0
M  V30 5476 H 541.12 -3.19606 -2.93316 0
M  V30 5477 H 541.791 -3.10435 -4.56436 0
M  V30 5478 H 544.267 -1.27436 -3.96105 0
M  V30 5479 H 543.143 -1.25278 -5.34412 0
M  V30 5480 H 543.404 0.215372 -4.41575 0
M  V30 5481 N 542.463 1.3308 -0.844243 0
M  V30 5482 C 543.879 1.50447 -0.532729 0
M  V30 5483 C 544.079 1.78292 0.938837 0
M  V30 5484 O 543.135 1.84635 1.72239 0
M  V30 5485 C 544.448 2.65555 -1.41072 0
M  V30 5486 C 545.996 2.7944 -1.41005 0
M  V30 5487 C 546.471 3.97616 -2.27301 0
M  V30 5488 N 547.962 4.0486 -2.2504 0
M  V30 5489 C 548.697 4.95508 -2.88547 0
M  V30 5490 N 548.193 5.91236 -3.61126 0
M  V30 5491 N 549.986 4.88548 -2.77989 0
M  V30 5492 H 542.137 1.13269 -1.79677 0
M  V30 5493 H 544.4 0.55734 -0.766861 0
M  V30 5494 H 544.106 2.51675 -2.45668 0
M  V30 5495 H 543.98 3.61089 -1.09061 0
M  V30 5496 H 546.367 2.92749 -0.371784 0
M  V30 5497 H 546.448 1.8465 -1.77026 0
M  V30 5498 H 546.092 3.85066 -3.3119 0
M  V30 5499 H 546.022 4.91661 -1.88619 0
M  V30 5500 H 548.513 3.36353 -1.72264 0
M  V30 5501 H 548.826 6.57079 -4.06776 0
M  V30 5502 H 547.171 5.91295 -3.65234 0
M  V30 5503 H 550.362 4.12729 -2.20846 0
M  V30 5504 H 550.535 5.58994 -3.27765 0
M  V30 5505 N 543.941 0.601185 1.45683 0
M  V30 5506 C 544.904 -0.111398 2.28929 0
M  V30 5507 C 545.904 -0.801246 1.39416 0
M  V30 5508 O 547.094 -0.650383 1.61603 0
M  V30 5509 C 544.226 -1.16773 3.20276 0
M  V30 5510 H 545.419 0.620412 2.93413 0
M  V30 5511 H 542.972 0.359946 1.52099 0
M  V30 5512 H 543.707 -1.93051 2.60579 0
M  V30 5513 H 543.492 -0.677358 3.86205 0
M  V30 5514 H 544.982 -1.66698 3.82886 0
M  V30 5515 N 545.419 -1.53889 0.339982 0
M  V30 5516 C 546.667 -2.00458 -0.257112 0
M  V30 5517 C 546.988 -1.22953 -1.51353 0
M  V30 5518 O 546.258 -0.335734 -1.93002 0
M  V30 5519 H 544.838 -0.740544 -0.0979965 0
M  V30 5520 H 547.5 -1.89386 0.460317 0
M  V30 5521 H 546.596 -3.08035 -0.502057 0
M  V30 5522 N 546.897 -0.0685191 -1.57451 0
M  V30 5523 C 547.829 0.929372 -2.09512 0
M  V30 5524 C 548.842 1.26354 -1.02657 0
M  V30 5525 O 550.031 1.2213 -1.30179 0
M  V30 5526 C 547.131 2.24612 -2.53777 0
M  V30 5527 C 546.304 2.09128 -3.84167 0
M  V30 5528 C 545.363 3.24079 -4.14559 0
M  V30 5529 O 544.389 2.99215 -4.8421 0
M  V30 5530 N 545.591 4.49077 -3.67845 0
M  V30 5531 H 548.356 0.484901 -2.95751 0
M  V30 5532 H 545.917 0.11729 -1.61475 0
M  V30 5533 H 547.909 3.00412 -2.71172 0
M  V30 5534 H 546.479 2.60569 -1.72692 0
M  V30 5535 H 545.699 1.17815 -3.76182 0
M  V30 5536 H 546.987 1.9603 -4.69521 0
M  V30 5537 H 546.385 4.72165 -3.11571 0
M  V30 5538 H 544.942 5.21915 -3.90446 0
M  V30 5539 N 548.375 1.56261 0.205012 0
M  V30 5540 C 549.285 1.96944 1.27476 0
M  V30 5541 C 550.301 0.875636 1.50362 0
M  V30 5542 O 551.477 1.18058 1.6317 0
M  V30 5543 C 548.542 2.29219 2.60115 0
M  V30 5544 C 547.603 3.52255 2.45387 0
M  V30 5545 C 546.836 3.8298 3.71701 0
M  V30 5546 O 547.059 3.15138 4.75441 0
M  V30 5547 O 545.993 4.76435 3.67823 0
M  V30 5548 H 549.819 2.88144 0.959527 0
M  V30 5549 H 547.404 1.43686 0.409217 0
M  V30 5550 H 549.286 2.51098 3.3842 0
M  V30 5551 H 547.961 1.4119 2.91285 0
M  V30 5552 H 546.868 3.35635 1.65227 0
M  V30 5553 H 548.201 4.40719 2.19152 0
M  V30 5554 N 549.853 -0.472356 1.50355 0
M  V30 5555 C 551.264 -1.05326 1.54154 0
M  V30 5556 C 551.615 -1.93155 0.344303 0
M  V30 5557 O 550.74 -2.09479 -0.542928 0
M  V30 5558 C 551.335 -1.91691 2.79356 0
M  V30 5559 C 549.894 -2.44892 2.8584 0
M  V30 5560 C 549.041 -1.23205 2.48426 0
M  V30 5561 H 551.992 -0.255027 1.56637 0
M  V30 5562 H 552.013 -2.76742 2.6114 0
M  V30 5563 H 551.525 -1.27741 3.66475 0
M  V30 5564 H 549.626 -3.12399 2.0307 0
M  V30 5565 H 549.739 -2.80086 3.88701 0
M  V30 5566 H 548.103 -1.56643 2.00836 0
M  V30 5567 H 548.886 -0.609194 3.37852 0
M  V30 5568 N 551.331 -1.39911 -0.725443 0
M  V30 5569 C 552.261 -1.42138 -1.85254 0
M  V30 5570 C 553.242 -0.283513 -1.67721 0
M  V30 5571 O 554.427 -0.490717 -1.87898 0
M  V30 5572 C 551.557 -1.27354 -3.23107 0
M  V30 5573 C 550.511 -2.3864 -3.55296 0
M  V30 5574 C 549.837 -2.08939 -4.92188 0
M  V30 5575 C 551.137 -3.8097 -3.57295 0
M  V30 5576 H 552.831 -2.36461 -1.83648 0
M  V30 5577 H 550.377 -1.13817 -0.882138 0
M  V30 5578 H 552.33 -1.2753 -4.01639 0
M  V30 5579 H 551.054 -0.295025 -3.25265 0
M  V30 5580 H 549.713 -2.37696 -2.79099 0
M  V30 5581 H 549.361 -1.09502 -4.90936 0
M  V30 5582 H 549.061 -2.83491 -5.14691 0
M  V30 5583 H 550.585 -2.10781 -5.73065 0
M  V30 5584 H 551.999 -3.8379 -4.25885 0
M  V30 5585 H 550.396 -4.5496 -3.9132 0
M  V30 5586 H 551.466 -4.11261 -2.5689 0
M  V30 5587 N 552.809 0.956637 -1.25245 0
M  V30 5588 C 553.739 2.07058 -1.07931 0
M  V30 5589 C 554.72 1.70096 0.0110361 0
M  V30 5590 O 555.905 1.93555 -0.158121 0
M  V30 5591 C 553.035 3.40272 -0.695124 0
M  V30 5592 C 551.989 3.91235 -1.73549 0
M  V30 5593 C 551.315 5.20921 -1.20604 0
M  V30 5594 C 552.615 4.17837 -3.13385 0
M  V30 5595 H 554.309 2.218 -2.01109 0
M  V30 5596 H 551.855 1.06581 -0.968326 0
M  V30 5597 H 553.808 4.1765 -0.560949 0
M  V30 5598 H 552.532 3.25462 0.272355 0
M  V30 5599 H 551.191 3.16025 -1.85807 0
M  V30 5600 H 550.839 5.02479 -0.228846 0
M  V30 5601 H 550.539 5.55987 -1.90136 0
M  V30 5602 H 552.063 6.00897 -1.08421 0
M  V30 5603 H 553.477 4.8588 -3.04292 0
M  V30 5604 H 551.874 4.64154 -3.80369 0
M  V30 5605 H 552.944 3.2419 -3.60595 0
M  V30 5606 N 554.287 1.06798 1.15896 0
M  V30 5607 C 555.536 0.782796 1.8589 0
M  V30 5608 C 555.849 -0.693498 1.82893 0
M  V30 5609 O 557.055 -1.09325 2.48516 0
M  V30 5610 C 555.511 1.3502 3.33613 0
M  V30 5611 C 555.119 2.8571 3.45071 0
M  V30 5612 C 556.863 1.14278 4.08829 0
M  V30 5613 C 554.77 3.35669 4.86909 0
M  V30 5614 H 553.7 0.289149 0.696354 0
M  V30 5615 H 556.351 1.28734 1.30766 0
M  V30 5616 H 554.733 0.773407 3.88374 0
M  V30 5617 H 555.907 3.49385 3.00445 0
M  V30 5618 H 554.222 3.05178 2.83294 0
M  V30 5619 H 556.819 1.49087 5.13495 0
M  V30 5620 H 557.162 0.0814575 4.1622 0
M  V30 5621 H 557.695 1.68563 3.60321 0
M  V30 5622 H 554.434 4.41302 4.84698 0
M  V30 5623 H 553.954 2.76745 5.32139 0
M  V30 5624 H 555.633 3.31296 5.55745 0
M  V30 5625 N 555.766 -1.3263 0.851289 0
M  V30 5626 C 556.729 -2.27247 0.298541 0
M  V30 5627 C 557.729 -1.51467 -0.539847 0
M  V30 5628 O 558.919 -1.7061 -0.351843 0
M  V30 5629 C 556.051 -3.35964 -0.578004 0
M  V30 5630 H 557.244 -2.7765 1.13359 0
M  V30 5631 H 554.797 -1.43245 0.625354 0
M  V30 5632 H 555.532 -2.90823 -1.435 0
M  V30 5633 H 555.317 -3.92094 0.0220539 0
M  V30 5634 H 556.807 -4.06472 -0.957626 0
M  V30 5635 N 557.244 -0.608902 -1.45362 0
M  V30 5636 C 558.207 0.0992563 -2.28985 0
M  V30 5637 C 559.207 0.793841 -1.39838 0
M  V30 5638 O 560.397 0.641804 -1.61946 0
M  V30 5639 C 557.529 1.15073 -3.20891 0
M  V30 5640 H 558.722 -0.635964 -2.93079 0
M  V30 5641 H 556.275 -0.368007 -1.51906 0
M  V30 5642 H 557.01 1.91667 -2.616 0
M  V30 5643 H 556.795 0.656867 -3.86559 0
M  V30 5644 H 558.285 1.64665 -3.83765 0
M  V30 5645 N 558.722 1.53707 -0.348139 0
M  V30 5646 C 559.999 1.93247 0.302475 0
M  V30 5647 C 560.379 1.28012 1.67857 0
M  V30 5648 O 559.727 0.43274 2.24365 0
M  V30 5649 C 559.937 3.47031 0.370159 0
M  V30 5650 C 561.285 4.20066 0.61882 0
M  V30 5651 O 562.309 3.53319 0.452087 0
M  V30 5652 O 561.168 5.38318 0.94215 0
M  V30 5653 H 558.262 0.807736 0.177458 0
M  V30 5654 H 560.808 1.64927 -0.399651 0
M  V30 5655 H 559.58 3.86745 -0.59534 0
M  V30 5656 H 559.203 3.81532 1.11888 0
M  V30 5657 N 560.2 0.0768682 1.57412 0
M  V30 5658 C 561.133 -0.924685 2.08626 0
M  V30 5659 C 562.111 -1.28792 0.992542 0
M  V30 5660 O 563.295 -1.39634 1.26628 0
M  V30 5661 C 560.422 -2.23131 2.54814 0
M  V30 5662 C 559.468 -2.01928 3.75669 0
M  V30 5663 S 560.301 -1.27397 5.20125 0
M  V30 5664 C 561.457 -2.59329 5.69648 0
M  V30 5665 H 561.69 -0.488928 2.93252 0
M  V30 5666 H 559.223 -0.136014 1.538 0
M  V30 5667 H 561.181 -2.98226 2.82084 0
M  V30 5668 H 559.842 -2.63831 1.70447 0
M  V30 5669 H 559.035 -2.98639 4.05993 0
M  V30 5670 H 558.637 -1.34967 3.48798 0
M  V30 5671 H 560.929 -3.55394 5.76803 0
M  V30 5672 H 561.872 -2.33608 6.68456 0
M  V30 5673 H 562.28 -2.66767 4.9749 0
M  V30 5674 N 561.678 -1.56367 -0.196722 0
M  V30 5675 C 562.926 -1.80172 -0.915554 0
M  V30 5676 C 563.247 -0.649649 -1.8386 0
M  V30 5677 O 562.517 0.332111 -1.93064 0
M  V30 5678 H 561.097 -0.664592 -0.341067 0
M  V30 5679 H 563.759 -1.93844 -0.202622 0
M  V30 5680 H 562.855 -2.7327 -1.50764 0
M  V30 5681 N 563.156 0.464375 -1.50603 0
M  V30 5682 C 564.433 1.22549 -1.5245 0
M  V30 5683 C 564.813 2.09327 -0.273035 0
M  V30 5684 O 564.161 2.16074 0.743242 0
M  V30 5685 C 564.371 2.05074 -2.82393 0
M  V30 5686 C 565.719 2.63036 -3.33313 0
M  V30 5687 O 566.743 2.1531 -2.8376 0
M  V30 5688 O 565.602 3.5001 -4.19709 0
M  V30 5689 H 562.696 0.556471 -0.611775 0
M  V30 5690 H 565.242 0.475648 -1.62898 0
M  V30 5691 H 564.014 1.41169 -3.64948 0
M  V30 5692 H 563.637 2.87179 -2.7498 0
M  V30 5693 N 564.634 1.40294 0.718013 0
M  V30 5694 C 565.874 1.39888 1.49032 0
M  V30 5695 C 566.238 -0.000462935 1.92 0
M  V30 5696 O 567.439 -0.129622 2.68487 0
M  V30 5697 C 565.71 2.35868 2.68516 0
M  V30 5698 S 567.269 2.53799 3.57954 0
M  V30 5699 H 564.087 0.495849 0.509563 0
M  V30 5700 H 566.689 1.76541 0.839846 0
M  V30 5701 H 565.393 3.36375 2.35117 0
M  V30 5702 H 564.924 2.0049 3.38478 0
M  V30 5703 H 566.939 1.78859 4.62843 0
M  V30 5704 N 566.112 -0.949982 1.2575 0
M  V30 5705 C 567.042 -2.06483 1.09028 0
M  V30 5706 C 568.023 -1.701 -0.00201532 0
M  V30 5707 O 569.208 -1.93469 0.168383 0
M  V30 5708 C 566.338 -3.39899 0.71316 0
M  V30 5709 C 565.292 -3.90309 1.75621 0
M  V30 5710 C 564.618 -5.20274 1.23365 0
M  V30 5711 C 565.918 -4.16169 3.15596 0
M  V30 5712 H 567.612 -2.20731 2.02283 0
M  V30 5713 H 565.158 -1.06066 0.973964 0
M  V30 5714 H 567.111 -4.17346 0.58309 0
M  V30 5715 H 565.835 -3.25602 -0.255091 0
M  V30 5716 H 564.494 -3.15035 1.8748 0
M  V30 5717 H 564.142 -5.02351 0.255491 0
M  V30 5718 H 563.842 -5.54971 1.93082 0
M  V30 5719 H 565.366 -6.00314 1.11607 0
M  V30 5720 H 566.78 -4.84259 3.06864 0
M  V30 5721 H 565.177 -4.62131 3.82825 0
M  V30 5722 H 566.247 -3.22273 3.6231 0
M  V30 5723 N 567.59 -1.07411 -1.15328 0
M  V30 5724 C 568.837 -0.797649 -1.86128 0
M  V30 5725 C 569.165 0.676298 -1.82364 0
M  V30 5726 O 568.42 1.51223 -1.24218 0
M  V30 5727 C 568.719 -1.25191 -3.34757 0
M  V30 5728 C 568.385 -2.73191 -3.58716 0
M  V30 5729 C 567.047 -3.13616 -3.64964 0
M  V30 5730 C 569.399 -3.68718 -3.6837 0
M  V30 5731 C 566.727 -4.48383 -3.78377 0
M  V30 5732 C 569.079 -5.03248 -3.83306 0
M  V30 5733 C 567.743 -5.43293 -3.878 0
M  V30 5734 H 567.013 -0.29188 -0.681092 0
M  V30 5735 H 569.66 -1.34524 -1.36292 0
M  V30 5736 H 567.965 -0.623712 -3.86804 0
M  V30 5737 H 569.662 -1.01489 -3.87945 0
M  V30 5738 H 566.252 -2.40898 -3.54494 0
M  V30 5739 H 570.436 -3.38614 -3.62842 0
M  V30 5740 H 565.692 -4.78877 -3.80114 0
M  V30 5741 H 569.866 -5.77142 -3.89718 0
M  V30 5742 H 567.493 -6.47721 -3.97946 0
M  V30 5743 N 569.068 1.32177 -0.85831 0
M  V30 5744 C 570.296 2.01313 -0.477582 0
M  V30 5745 C 570.711 1.6449 0.926736 0
M  V30 5746 O 570.068 0.868096 1.60531 0
M  V30 5747 C 570.119 3.56293 -0.611337 0
M  V30 5748 O 569.84 3.91794 -1.96034 0
M  V30 5749 C 571.341 4.42702 -0.230093 0
M  V30 5750 H 568.561 0.644323 -0.187322 0
M  V30 5751 H 571.105 1.68674 -1.15626 0
M  V30 5752 H 569.26 3.87395 0.0196494 0
M  V30 5753 H 569.674 4.86513 -1.95973 0
M  V30 5754 H 571.148 5.50727 -0.374674 0
M  V30 5755 H 571.625 4.3129 0.829779 0
M  V30 5756 H 572.231 4.16997 -0.836302 0
M  V30 5757 N 570.547 0.616602 1.45037 0
M  V30 5758 C 571.51 -0.0871112 2.29034 0
M  V30 5759 C 572.51 -0.786414 1.40258 0
M  V30 5760 O 573.7 -0.633207 1.62284 0
M  V30 5761 C 570.832 -1.13369 3.21497 0
M  V30 5762 H 572.025 0.651497 2.92738 0
M  V30 5763 H 569.578 0.376058 1.51709 0
M  V30 5764 H 570.313 -1.90277 2.62612 0
M  V30 5765 H 570.098 -0.636358 3.86902 0
M  V30 5766 H 571.588 -1.62627 3.84633 0
M  V30 5767 N 572.025 -1.5352 0.356285 0
M  V30 5768 C 572.958 -2.2177 -0.537913 0
M  V30 5769 C 573.936 -1.20626 -1.09033 0
M  V30 5770 O 575.12 -1.49494 -1.1482 0
M  V30 5771 C 572.247 -2.90513 -1.74126 0
M  V30 5772 C 571.293 -4.05652 -1.31715 0
M  V30 5773 S 572.126 -5.34505 -0.326236 0
M  V30 5774 C 573.282 -6.06757 -1.53612 0
M  V30 5775 H 573.515 -2.97271 0.0417411 0
M  V30 5776 H 571.048 -1.53761 0.140372 0
M  V30 5777 H 573.006 -3.30735 -2.43155 0
M  V30 5778 H 571.667 -2.14754 -2.29215 0
M  V30 5779 H 570.86 -4.52733 -2.21471 0
M  V30 5780 H 570.462 -3.67272 -0.706183 0
M  V30 5781 H 572.754 -6.30924 -2.46863 0
M  V30 5782 H 573.697 -6.99395 -1.10687 0
M  V30 5783 H 574.105 -5.3708 -1.73796 0
M  V30 5784 N 573.503 -0.0852151 -1.57369 0
M  V30 5785 C 574.78 0.622534 -1.85429 0
M  V30 5786 C 575.16 1.86962 -0.980229 0
M  V30 5787 O 574.508 2.28445 -0.0500219 0
M  V30 5788 C 574.718 0.947374 -3.35896 0
M  V30 5789 C 576.066 1.31509 -4.03721 0
M  V30 5790 O 577.09 1.03869 -3.40719 0
M  V30 5791 O 575.949 1.83231 -5.14868 0
M  V30 5792 H 573.043 0.310513 -0.766492 0
M  V30 5793 H 575.589 -0.117164 -1.69295 0
M  V30 5794 H 574.361 0.0622264 -3.91251 0
M  V30 5795 H 573.984 1.74338 -3.5734 0
M  V30 5796 N 574.981 1.5647 0.188427 0
M  V30 5797 C 575.914 1.90146 1.26173 0
M  V30 5798 C 576.892 0.762294 1.43624 0
M  V30 5799 O 578.076 1.01395 1.58907 0
M  V30 5800 C 575.203 2.13748 2.62735 0
M  V30 5801 C 574.249 3.36448 2.62116 0
M  V30 5802 S 575.082 4.91364 2.12889 0
M  V30 5803 C 576.238 5.18041 3.51261 0
M  V30 5804 H 576.471 2.80886 0.974192 0
M  V30 5805 H 574.004 1.49335 0.392226 0
M  V30 5806 H 575.962 2.28028 3.41341 0
M  V30 5807 H 574.623 1.23747 2.88696 0
M  V30 5808 H 573.816 3.50109 3.62546 0
M  V30 5809 H 573.418 3.21196 1.91596 0
M  V30 5810 H 575.71 5.0897 4.47164 0
M  V30 5811 H 576.653 6.19764 3.42489 0
M  V30 5812 H 577.061 4.45657 3.46482 0
M  V30 5813 N 576.459 -0.456382 1.50847 0
M  V30 5814 C 577.708 -1.2042 1.61808 0
M  V30 5815 C 578.021 -1.9278 0.330932 0
M  V30 5816 O 579.227 -2.69612 0.319643 0
M  V30 5817 C 577.683 -2.18891 2.85683 0
M  V30 5818 C 577.291 -1.52267 4.2133 0
M  V30 5819 C 579.035 -2.94224 3.05994 0
M  V30 5820 C 576.942 -2.4911 5.36375 0
M  V30 5821 H 575.872 -0.453177 0.602616 0
M  V30 5822 H 578.523 -0.473144 1.77295 0
M  V30 5823 H 576.905 -2.95351 2.63787 0
M  V30 5824 H 578.079 -0.814949 4.53536 0
M  V30 5825 H 576.394 -0.891594 4.06743 0
M  V30 5826 H 578.991 -3.66732 3.89117 0
M  V30 5827 H 579.334 -3.54469 2.18306 0
M  V30 5828 H 579.867 -2.24874 3.28141 0
M  V30 5829 H 576.606 -1.93582 6.26264 0
M  V30 5830 H 576.126 -3.17991 5.08569 0
M  V30 5831 H 577.805 -3.10637 5.67551 0
M  V30 5832 N 577.937 -1.40673 -0.710563 0
M  V30 5833 C 579.214 -1.29718 -1.46398 0
M  V30 5834 C 579.594 0.082177 -2.1094 0
M  V30 5835 O 578.942 1.09536 -2.00534 0
M  V30 5836 C 579.152 -2.43967 -2.49562 0
M  V30 5837 C 580.5 -2.84436 -3.15248 0
M  V30 5838 O 581.524 -2.43597 -2.59883 0
M  V30 5839 O 580.383 -3.55008 -4.1549 0
M  V30 5840 H 577.477 -0.509697 -0.651258 0
M  V30 5841 H 580.023 -1.52603 -0.742312 0
M  V30 5842 H 578.795 -3.36076 -2.0042 0
M  V30 5843 H 578.418 -2.22879 -3.29258 0
M  V30 5844 N 579.415 0.9433 -1.26252 0
M  V30 5845 C 580.378 2.02326 -1.07689 0
M  V30 5846 C 581.378 1.60779 -0.0259174 0
M  V30 5847 O 582.568 1.72108 -0.269134 0
M  V30 5848 C 579.7 3.34886 -0.63752 0
M  V30 5849 H 580.893 2.20225 -2.0357 0
M  V30 5850 H 578.446 1.12197 -1.08819 0
M  V30 5851 H 579.181 3.22684 0.323377 0
M  V30 5852 H 578.966 3.66393 -1.39637 0
M  V30 5853 H 580.456 4.14231 -0.529418 0
M  V30 5854 N 580.893 1.08022 1.14757 0
M  V30 5855 C 582.141 0.805913 1.85336 0
M  V30 5856 C 582.462 -0.670162 1.83122 0
M  V30 5857 O 581.732 -1.48567 1.2769 0
M  V30 5858 H 580.312 0.295138 0.686223 0
M  V30 5859 H 582.974 1.36538 1.3908 0
M  V30 5860 H 582.07 1.14655 2.90277 0
M  V30 5861 N 582.371 -1.3172 0.865308 0
M  V30 5862 C 583.301 -2.31109 0.333302 0
M  V30 5863 C 584.282 -1.60148 -0.573301 0
M  V30 5864 O 585.467 -1.87882 -0.491305 0
M  V30 5865 C 582.597 -3.44104 -0.470078 0
M  V30 5866 C 581.551 -4.26623 0.343021 0
M  V30 5867 C 580.877 -5.31482 -0.585756 0
M  V30 5868 C 582.177 -4.98001 1.57456 0
M  V30 5869 H 583.871 -2.75855 1.1638 0
M  V30 5870 H 581.417 -1.3262 0.561069 0
M  V30 5871 H 583.37 -4.12682 -0.852752 0
M  V30 5872 H 582.094 -2.98112 -1.33404 0
M  V30 5873 H 580.753 -3.59707 0.707583 0
M  V30 5874 H 580.401 -4.81741 -1.44686 0
M  V30 5875 H 580.101 -5.87582 -0.0456494 0
M  V30 5876 H 581.625 -6.0292 -0.965375 0
M  V30 5877 H 583.039 -5.59201 1.26359 0
M  V30 5878 H 581.436 -5.63876 2.05339 0
M  V30 5879 H 582.506 -4.25253 2.32997 0
M  V30 5880 N 583.85 -0.624285 -1.44708 0
M  V30 5881 C 584.783 0.133905 -2.27807 0
M  V30 5882 C 585.76 0.857794 -1.38133 0
M  V30 5883 O 586.945 0.863277 -1.6757 0
M  V30 5884 C 584.072 1.19541 -3.16903 0
M  V30 5885 C 583.118 0.572813 -4.22636 0
M  V30 5886 S 583.951 -0.631953 -5.31758 0
M  V30 5887 C 585.106 0.429733 -6.24423 0
M  V30 5888 H 585.34 -0.571072 -2.91764 0
M  V30 5889 H 582.873 -0.412261 -1.48794 0
M  V30 5890 H 584.831 1.80293 -3.68788 0
M  V30 5891 H 583.492 1.87255 -2.5218 0
M  V30 5892 H 582.685 1.37205 -4.84965 0
M  V30 5893 H 582.287 0.0400641 -3.73979 0
M  V30 5894 H 584.579 1.30421 -6.64828 0
M  V30 5895 H 585.522 -0.157804 -7.07924 0
M  V30 5896 H 585.93 0.75256 -5.59461 0
M  V30 5897 N 585.328 1.53329 -0.364422 0
M  V30 5898 C 586.291 2.24323 0.470292 0
M  V30 5899 C 587.291 1.25068 1.01067 0
M  V30 5900 O 588.481 1.49354 0.896605 0
M  V30 5901 C 585.613 2.97908 1.65722 0
M  V30 5902 H 586.806 2.9952 -0.150917 0
M  V30 5903 H 584.359 1.55868 -0.116092 0
M  V30 5904 H 585.094 2.2695 2.31655 0
M  V30 5905 H 584.879 3.70732 1.27671 0
M  V30 5906 H 586.369 3.5188 2.24878 0
M  V30 5907 N 586.806 0.0935595 1.57322 0
M  V30 5908 C 588.217 -0.435807 1.81542 0
M  V30 5909 C 588.568 -1.68263 1.00907 0
M  V30 5910 O 587.693 -2.15087 0.237983 0
M  V30 5911 C 588.288 -0.797436 3.29282 0
M  V30 5912 C 586.847 -1.27155 3.54272 0
M  V30 5913 C 585.994 -0.267455 2.76007 0
M  V30 5914 H 588.945 0.31902 1.5546 0
M  V30 5915 H 588.966 -1.6571 3.42521 0
M  V30 5916 H 588.478 0.110206 3.87943 0
M  V30 5917 H 586.579 -2.19696 3.00939 0
M  V30 5918 H 586.692 -1.23445 4.62923 0
M  V30 5919 H 585.056 -0.749282 2.43429 0
M  V30 5920 H 585.839 0.632839 3.37417 0
M  V30 5921 N 588.284 -1.56567 -0.180126 0
M  V30 5922 C 589.532 -1.81133 -0.896392 0
M  V30 5923 C 589.853 -0.669114 -1.83161 0
M  V30 5924 O 589.123 0.311616 -1.93406 0
M  V30 5925 H 587.703 -0.668172 -0.333999 0
M  V30 5926 H 590.365 -1.94048 -0.182051 0
M  V30 5927 H 589.461 -2.74854 -1.47857 0
M  V30 5928 N 589.762 0.448376 -1.51087 0
M  V30 5929 C 590.992 1.21965 -1.66757 0
M  V30 5930 C 591.4 1.85748 -0.359753 0
M  V30 5931 O 590.743 1.71022 0.670604 0
M  V30 5932 C 590.805 2.35284 -2.71812 0
M  V30 5933 C 590.469 1.91957 -4.1473 0
M  V30 5934 C 591.466 1.42921 -4.9987 0
M  V30 5935 C 589.151 1.99985 -4.60772 0
M  V30 5936 C 591.145 1.02485 -6.29107 0
M  V30 5937 C 588.832 1.5916 -5.90009 0
M  V30 5938 C 589.83 1.10491 -6.74004 0
M  V30 5939 O 589.518 0.702413 -8.00825 0
M  V30 5940 H 589.25 0.374125 -0.563034 0
M  V30 5941 H 591.804 0.538927 -1.98204 0
M  V30 5942 H 590.034 3.06599 -2.35657 0
M  V30 5943 H 591.723 2.97184 -2.76472 0
M  V30 5944 H 592.489 1.36123 -4.65506 0
M  V30 5945 H 588.368 2.36814 -3.95525 0
M  V30 5946 H 591.912 0.644271 -6.94619 0
M  V30 5947 H 587.809 1.65626 -6.2389 0
M  V30 5948 H 588.577 0.829248 -8.14288 0
M  V30 5949 N 591.24 1.41047 0.703093 0
M  V30 5950 C 592.47 1.43133 1.48985 0
M  V30 5951 C 592.878 0.0328537 1.89171 0
M  V30 5952 O 592.221 -0.956469 1.56835 0
M  V30 5953 C 592.283 2.26991 2.78775 0
M  V30 5954 C 591.947 3.7525 2.60837 0
M  V30 5955 C 592.944 4.67591 2.27276 0
M  V30 5956 C 590.629 4.19208 2.76712 0
M  V30 5957 C 592.623 6.01877 2.09817 0
M  V30 5958 C 590.31 5.53561 2.5887 0
M  V30 5959 C 591.308 6.4471 2.25472 0
M  V30 5960 O 590.996 7.76584 2.07778 0
M  V30 5961 H 590.728 0.489788 0.465922 0
M  V30 5962 H 593.282 1.85886 0.873822 0
M  V30 5963 H 591.512 1.79038 3.42757 0
M  V30 5964 H 593.201 2.20867 3.40547 0
M  V30 5965 H 593.967 4.34923 2.14633 0
M  V30 5966 H 589.846 3.48572 3.01693 0
M  V30 5967 H 593.39 6.72986 1.83671 0
M  V30 5968 H 589.287 5.85811 2.71102 0
M  V30 5969 H 590.055 7.87649 2.22601 0
M  V30 5970 N 592.718 -0.936591 1.26751 0
M  V30 5971 C 593.681 -2.01752 1.08761 0
M  V30 5972 C 594.681 -1.60763 0.0344435 0
M  V30 5973 O 595.871 -1.71963 0.278258 0
M  V30 5974 C 593.003 -3.34543 0.655271 0
M  V30 5975 H 594.196 -2.19143 2.04735 0
M  V30 5976 H 591.749 -1.11618 1.09413 0
M  V30 5977 H 592.484 -3.22851 -0.30626 0
M  V30 5978 H 592.269 -3.65647 1.41578 0
M  V30 5979 H 593.759 -4.13944 0.551378 0
M  V30 5980 N 594.196 -1.08629 -1.14182 0
M  V30 5981 C 595.444 -0.815731 -1.84906 0
M  V30 5982 C 595.765 0.660441 -1.83475 0
M  V30 5983 O 595.035 1.47888 -1.28476 0
M  V30 5984 H 593.615 -0.298773 -0.684648 0
M  V30 5985 H 596.277 -1.37274 -1.38354 0
M  V30 5986 H 595.373 -1.16193 -2.89665 0
M  V30 5987 N 595.674 1.31259 -0.872281 0
M  V30 5988 C 596.607 2.26544 -0.274394 0
M  V30 5989 C 597.585 1.51213 0.597776 0
M  V30 5990 O 598.769 1.80277 0.550687 0
M  V30 5991 C 595.896 3.33139 0.611256 0
M  V30 5992 C 594.942 4.26077 -0.189876 0
M  V30 5993 S 595.775 5.11971 -1.56989 0
M  V30 5994 C 596.931 6.2208 -0.690427 0
M  V30 5995 H 597.164 2.76908 -1.0821 0
M  V30 5996 H 594.697 1.3906 -0.670939 0
M  V30 5997 H 596.655 3.95024 1.11654 0
M  V30 5998 H 595.316 2.81525 1.39294 0
M  V30 5999 H 594.509 5.01657 0.485433 0
M  V30 6000 H 594.111 3.68701 -0.627339 0
M  V30 6001 H 596.403 6.77429 0.098001 0
M  V30 6002 H 597.346 6.93768 -1.41742 0
M  V30 6003 H 597.754 5.63915 -0.256953 0
M  V30 6004 N 597.152 0.631951 1.44375 0
M  V30 6005 C 598.4 0.136497 2.01639 0
M  V30 6006 C 598.721 -1.24637 1.49969 0
M  V30 6007 O 597.991 -1.82827 0.70363 0
M  V30 6008 H 596.571 0.0474703 0.74549 0
M  V30 6009 H 599.233 0.818837 1.76865 0
M  V30 6010 H 598.329 0.104817 3.11924 0
M  V30 6011 N 598.631 -1.53133 0.372548 0
M  V30 6012 C 599.878 -2.01356 -0.214959 0
M  V30 6013 C 600.206 -1.2596 -1.48204 0
M  V30 6014 O 599.461 -0.343511 -1.92662 0
M  V30 6015 C 599.76 -3.53206 -0.545938 0
M  V30 6016 C 599.426 -4.46511 0.627624 0
M  V30 6017 C 598.088 -4.71737 0.949615 0
M  V30 6018 C 600.44 -5.01666 1.41353 0
M  V30 6019 C 597.768 -5.4937 2.05936 0
M  V30 6020 C 600.12 -5.80511 2.51375 0
M  V30 6021 C 598.784 -6.04022 2.84101 0
M  V30 6022 H 598.054 -0.736813 -0.078659 0
M  V30 6023 H 600.701 -1.84682 0.506447 0
M  V30 6024 H 599.006 -3.67864 -1.34845 0
M  V30 6025 H 600.703 -3.87997 -1.01287 0
M  V30 6026 H 597.293 -4.27029 0.366635 0
M  V30 6027 H 601.477 -4.82117 1.17802 0
M  V30 6028 H 596.733 -5.65803 2.31682 0
M  V30 6029 H 600.907 -6.22255 3.12684 0
M  V30 6030 H 598.534 -6.63962 3.70214 0
M  V30 6031 N 600.109 -0.101901 -1.5727 0
M  V30 6032 C 601.357 0.559091 -1.94213 0
M  V30 6033 C 601.678 1.68297 -0.984948 0
M  V30 6034 O 600.948 1.95863 -0.0381975 0
M  V30 6035 H 599.528 0.20952 -0.717015 0
M  V30 6036 H 602.19 -0.166831 -1.94185 0
M  V30 6037 H 601.286 0.96485 -2.96811 0
M  V30 6038 N 601.587 1.56661 0.17182 0
M  V30 6039 C 602.833 1.82235 0.889845 0
M  V30 6040 C 603.166 0.679673 1.81918 0
M  V30 6041 O 602.441 -0.318404 1.91876 0
M  V30 6042 C 602.724 3.18195 1.68595 0
M  V30 6043 C 602.577 4.42989 0.779773 0
M  V30 6044 C 603.896 3.5109 2.65375 0
M  V30 6045 H 601.015 0.66291 0.322056 0
M  V30 6046 H 603.657 1.89358 0.15608 0
M  V30 6047 H 601.807 3.12253 2.3115 0
M  V30 6048 H 603.479 4.60997 0.16714 0
M  V30 6049 H 601.722 4.33711 0.0877964 0
M  V30 6050 H 602.393 5.3467 1.3723 0
M  V30 6051 H 604.869 3.57482 2.12946 0
M  V30 6052 H 603.745 4.47298 3.18144 0
M  V30 6053 H 604.006 2.75768 3.45549 0
M  V30 6054 N 603.065 -0.440357 1.51323 0
M  V30 6055 C 604.476 -1.02032 1.56353 0
M  V30 6056 C 604.827 -1.92382 0.385197 0
M  V30 6057 O 603.952 -2.10583 -0.498373 0
M  V30 6058 C 604.547 -1.85723 2.83359 0
M  V30 6059 C 603.106 -2.38774 2.90971 0
M  V30 6060 C 602.253 -1.17908 2.50984 0
M  V30 6061 H 605.204 -0.221744 1.57143 0
M  V30 6062 H 605.225 -2.71141 2.66951 0
M  V30 6063 H 604.737 -1.19939 3.69102 0
M  V30 6064 H 602.838 -3.08021 2.09651 0
M  V30 6065 H 602.951 -2.71778 3.94555 0
M  V30 6066 H 601.315 -1.52347 2.04114 0
M  V30 6067 H 602.098 -0.537393 3.39068 0
M  V30 6068 N 604.543 -1.41418 -0.695603 0
M  V30 6069 C 605.506 -1.42988 -1.79129 0
M  V30 6070 C 606.506 -0.320514 -1.57573 0
M  V30 6071 O 607.696 -0.58039 -1.64247 0
M  V30 6072 C 604.828 -1.24122 -3.175 0
M  V30 6073 H 606.021 -2.40526 -1.7913 0
M  V30 6074 H 603.574 -1.2756 -0.903225 0
M  V30 6075 H 604.309 -0.274253 -3.23138 0
M  V30 6076 H 604.094 -2.045 -3.34547 0
M  V30 6077 H 605.584 -1.28056 -3.97481 0
M  V30 6078 N 606.021 0.929856 -1.27246 0
M  V30 6079 C 607.269 1.674 -1.13233 0
M  V30 6080 C 607.59 1.92311 0.322744 0
M  V30 6081 O 606.86 1.52784 1.22612 0
M  V30 6082 H 605.44 0.620411 -0.416052 0
M  V30 6083 H 608.102 1.11663 -1.59741 0
M  V30 6084 H 607.198 2.64308 -1.65975 0
M  V30 6085 N 607.499 1.09233 1.13605 0
M  V30 6086 C 608.748 0.82205 1.84188 0
M  V30 6087 C 609.061 -0.654548 1.84323 0
M  V30 6088 O 610.267 -1.04029 2.50779 0
M  V30 6089 C 608.723 1.42066 3.30674 0
M  V30 6090 C 608.331 2.92965 3.38933 0
M  V30 6091 C 610.075 1.22924 4.06313 0
M  V30 6092 C 607.982 3.45922 4.79679 0
M  V30 6093 H 606.912 0.303854 0.690064 0
M  V30 6094 H 609.563 1.31479 1.28006 0
M  V30 6095 H 607.945 0.855613 3.86646 0
M  V30 6096 H 609.119 3.55679 2.92966 0
M  V30 6097 H 607.434 3.11118 2.76757 0
M  V30 6098 H 610.031 1.59945 5.10217 0
M  V30 6099 H 610.374 0.169726 4.15954 0
M  V30 6100 H 610.907 1.76168 3.56665 0
M  V30 6101 H 607.646 4.51484 4.75229 0
M  V30 6102 H 607.166 2.87971 5.26149 0
M  V30 6103 H 608.845 3.43009 5.48592 0
M  V30 6104 N 608.977 -1.30795 0.87923 0
M  V30 6105 C 610.225 -1.95974 0.493809 0
M  V30 6106 C 610.546 -1.69787 -0.959021 0
M  V30 6107 O 609.816 -1.01832 -1.67353 0
M  V30 6108 H 608.396 -0.725083 0.179622 0
M  V30 6109 H 611.058 -1.59432 1.12105 0
M  V30 6110 H 610.154 -3.05058 0.659263 0
M  V30 6111 N 610.455 -0.639598 -1.44038 0
M  V30 6112 C 611.418 0.0506628 -2.29144 0
M  V30 6113 C 612.418 0.764001 -1.41491 0
M  V30 6114 O 613.608 0.607309 -1.63271 0
M  V30 6115 C 610.74 1.0824 -3.2326 0
M  V30 6116 H 611.933 -0.697987 -2.91664 0
M  V30 6117 H 609.486 -0.400146 -1.51091 0
M  V30 6118 H 610.221 1.86075 -2.65606 0
M  V30 6119 H 610.006 0.574725 -3.87865 0
M  V30 6120 H 611.496 1.56487 -3.87171 0
M  V30 6121 N 611.933 1.52934 -0.380664 0
M  V30 6122 C 612.865 2.23822 0.493581 0
M  V30 6123 C 613.878 1.25761 1.03383 0
M  V30 6124 O 615.067 1.5189 0.937633 0
M  V30 6125 C 612.167 2.9342 1.69582 0
M  V30 6126 C 611.34 4.18115 1.28445 0
M  V30 6127 C 610.399 4.70788 2.35042 0
M  V30 6128 O 609.425 5.34093 1.96807 0
M  V30 6129 N 610.627 4.49899 3.66839 0
M  V30 6130 H 613.392 2.99484 -0.11371 0
M  V30 6131 H 610.953 1.60577 -0.206587 0
M  V30 6132 H 612.945 3.2556 2.40401 0
M  V30 6133 H 611.515 2.21119 2.20965 0
M  V30 6134 H 610.735 3.92109 0.405503 0
M  V30 6135 H 612.023 4.99152 0.986132 0
M  V30 6136 H 611.421 3.99349 4.0067 0
M  V30 6137 H 609.978 4.86551 4.33718 0
M  V30 6138 N 613.412 0.11024 1.57214 0
M  V30 6139 C 614.652 -0.553061 1.96775 0
M  V30 6140 C 615.016 -1.64403 0.991753 0
M  V30 6141 O 616.217 -2.36561 1.27642 0
M  V30 6142 C 614.488 -1.08004 3.4069 0
M  V30 6143 S 616.047 -1.75309 4.02259 0
M  V30 6144 H 612.865 -0.18003 0.68783 0
M  V30 6145 H 615.467 0.193242 1.94543 0
M  V30 6146 H 614.171 -0.274735 4.09479 0
M  V30 6147 H 613.702 -1.86182 3.46554 0
M  V30 6148 H 615.717 -3.03834 3.923 0
M  V30 6149 N 614.89 -1.56749 -0.16351 0
M  V30 6150 C 616.136 -1.82704 -0.880168 0
M  V30 6151 C 616.469 -0.689311 -1.81555 0
M  V30 6152 O 615.744 0.308224 -1.92042 0
M  V30 6153 C 616.027 -3.19084 -1.66905 0
M  V30 6154 C 615.88 -4.43397 -0.756269 0
M  V30 6155 C 617.199 -3.52493 -2.63509 0
M  V30 6156 H 614.318 -0.664608 -0.318535 0
M  V30 6157 H 616.96 -1.89438 -0.146036 0
M  V30 6158 H 615.11 -3.13475 -2.2949 0
M  V30 6159 H 616.782 -4.61079 -0.14269 0
M  V30 6160 H 615.025 -4.33752 -0.0647944 0
M  V30 6161 H 615.696 -5.3539 -1.34393 0
M  V30 6162 H 618.172 -3.58606 -2.11047 0
M  V30 6163 H 617.048 -4.48979 -3.15767 0
M  V30 6164 H 617.309 -2.77597 -3.44082 0
M  V30 6165 N 616.368 0.432326 -1.51554 0
M  V30 6166 C 617.593 1.20824 -1.68571 0
M  V30 6167 C 618.018 1.84126 -0.384596 0
M  V30 6168 O 617.376 1.69025 0.655751 0
M  V30 6169 C 617.424 2.26429 -2.80646 0
M  V30 6170 O 616.528 3.32032 -2.44598 0
M  V30 6171 H 615.869 0.353765 -0.561913 0
M  V30 6172 H 618.399 0.509916 -1.98144 0
M  V30 6173 H 618.409 2.71133 -3.04878 0
M  V30 6174 H 617.084 1.79733 -3.75058 0
M  V30 6175 H 615.661 2.92769 -2.30956 0
M  V30 6176 N 617.846 1.41785 0.688094 0
M  V30 6177 C 619.094 1.41264 1.4453 0
M  V30 6178 C 619.415 0.0252946 1.94984 0
M  V30 6179 O 618.685 -0.934081 1.72197 0
M  V30 6180 H 617.265 0.519998 0.536294 0
M  V30 6181 H 619.927 1.7709 0.813941 0
M  V30 6182 H 619.023 2.10439 2.30482 0
M  V30 6183 N 619.324 -0.923095 1.27737 0
M  V30 6184 C 620.572 -1.66797 1.14119 0
M  V30 6185 C 620.893 -1.92479 -0.312541 0
M  V30 6186 O 620.163 -1.53432 -1.218 0
M  V30 6187 H 618.743 -0.618196 0.419336 0
M  V30 6188 H 621.405 -1.10815 1.60331 0
M  V30 6189 H 620.501 -2.63424 1.67374 0
M  V30 6190 N 620.802 -1.09834 -1.13024 0
M  V30 6191 C 621.749 -0.741522 -2.18564 0
M  V30 6192 C 622.719 0.279236 -1.63736 0
M  V30 6193 O 623.904 0.159923 -1.90129 0
M  V30 6194 C 621.044 -0.17277 -3.44667 0
M  V30 6195 C 620.157 -1.24808 -4.13578 0
M  V30 6196 C 619.292 -0.641631 -5.27311 0
M  V30 6197 C 618.331 -1.69795 -5.88078 0
M  V30 6198 N 617.468 -1.11223 -6.93234 0
M  V30 6199 H 622.308 -1.64576 -2.48432 0
M  V30 6200 H 619.845 -0.822174 -1.21978 0
M  V30 6201 H 621.803 0.17482 -4.16834 0
M  V30 6202 H 620.433 0.694725 -3.15235 0
M  V30 6203 H 619.485 -1.71288 -3.39653 0
M  V30 6204 H 620.797 -2.04795 -4.54819 0
M  V30 6205 H 619.951 -0.243128 -6.06213 0
M  V30 6206 H 618.69 0.189742 -4.87331 0
M  V30 6207 H 617.695 -2.10595 -5.07868 0
M  V30 6208 H 618.92 -2.53206 -6.3013 0
M  V30 6209 H 616.866 -0.302208 -6.55304 0
M  V30 6210 H 616.783 -1.84901 -7.3304 0
M  V30 6211 H 618.051 -0.740068 -7.75979 0
M  V30 6212 N 622.28 1.30327 -0.886154 0
M  V30 6213 C 623.696 1.48676 -0.580323 0
M  V30 6214 C 623.896 1.81189 0.881639 0
M  V30 6215 O 622.952 1.90021 1.66278 0
M  V30 6216 C 624.265 2.60932 -1.49449 0
M  V30 6217 C 625.813 2.74812 -1.49824 0
M  V30 6218 C 626.288 3.90183 -2.39836 0
M  V30 6219 N 627.779 3.97495 -2.37806 0
M  V30 6220 C 628.514 4.86078 -3.04165 0
M  V30 6221 N 628.01 5.79448 -3.79753 0
M  V30 6222 N 629.803 4.79456 -2.93391 0
M  V30 6223 H 621.954 1.07495 -1.8319 0
M  V30 6224 H 624.217 0.532661 -0.784204 0
M  V30 6225 H 623.923 2.43731 -2.5355 0
M  V30 6226 H 623.797 3.57437 -1.20494 0
M  V30 6227 H 626.184 2.91418 -0.464731 0
M  V30 6228 H 626.265 1.78924 -1.82811 0
M  V30 6229 H 625.909 3.74334 -3.43273 0
M  V30 6230 H 625.839 4.85411 -2.04166 0
M  V30 6231 H 628.33 3.30703 -1.82877 0
M  V30 6232 H 628.643 6.43805 -4.27475 0
M  V30 6233 H 626.988 5.79376 -3.8386 0
M  V30 6234 H 630.179 4.05494 -2.33864 0
M  V30 6235 H 630.352 5.48283 -3.45383 0
M  V30 6236 N 623.758 0.647228 1.43697 0
M  V30 6237 C 625.007 0.155552 2.01099 0
M  V30 6238 C 625.32 -1.23569 1.51624 0
M  V30 6239 O 626.526 -1.82226 2.01261 0
M  V30 6240 C 624.982 0.227296 3.59182 0
M  V30 6241 C 624.59 1.62086 4.17651 0
M  V30 6242 C 626.334 -0.207085 4.23995 0
M  V30 6243 C 624.241 1.64685 5.68008 0
M  V30 6244 H 623.171 0.0543895 0.752036 0
M  V30 6245 H 625.822 0.808386 1.64734 0
M  V30 6246 H 624.204 -0.492937 3.9292 0
M  V30 6247 H 625.378 2.36597 3.95422 0
M  V30 6248 H 623.693 2.0007 3.65186 0
M  V30 6249 H 626.29 -0.207426 5.34298 0
M  V30 6250 H 626.633 -1.23742 3.97484 0
M  V30 6251 H 627.166 0.461193 3.95118 0
M  V30 6252 H 623.905 2.65608 5.99277 0
M  V30 6253 H 623.425 0.944914 5.9231 0
M  V30 6254 H 625.104 1.38792 6.31938 0
M  V30 6255 N 625.236 -1.5273 0.388769 0
M  V30 6256 C 626.166 -2.29353 -0.438111 0
M  V30 6257 C 627.147 -1.32719 -1.06394 0
M  V30 6258 O 628.332 -1.61612 -1.07681 0
M  V30 6259 C 625.462 -3.09995 -1.56589 0
M  V30 6260 C 624.416 -4.14509 -1.06613 0
M  V30 6261 C 623.742 -4.83372 -2.28594 0
M  V30 6262 C 625.042 -5.22127 -0.134459 0
M  V30 6263 H 626.736 -2.98723 0.201206 0
M  V30 6264 H 624.282 -1.43665 0.0982089 0
M  V30 6265 H 626.235 -3.62357 -2.15118 0
M  V30 6266 H 624.959 -2.38357 -2.23279 0
M  V30 6267 H 623.618 -3.63128 -0.503383 0
M  V30 6268 H 623.266 -4.08283 -2.93792 0
M  V30 6269 H 622.966 -5.54012 -1.95817 0
M  V30 6270 H 624.49 -5.38538 -2.87766 0
M  V30 6271 H 625.904 -5.69851 -0.627914 0
M  V30 6272 H 624.301 -6.00011 0.103534 0
M  V30 6273 H 625.371 -4.77971 0.816798 0
M  V30 6274 N 626.714 -0.118576 -1.57153 0
M  V30 6275 C 627.942 0.54726 -1.99531 0
M  V30 6276 C 628.357 1.60251 -0.998246 0
M  V30 6277 O 627.714 1.82498 0.00893106 0
M  V30 6278 C 627.765 1.17378 -3.41913 0
M  V30 6279 O 627.486 0.160703 -4.37805 0
M  V30 6280 C 628.987 1.92297 -3.9942 0
M  V30 6281 H 626.207 0.144919 -0.655164 0
M  V30 6282 H 628.751 -0.20479 -2.03472 0
M  V30 6283 H 626.906 1.87661 -3.38913 0
M  V30 6284 H 627.32 0.61586 -5.20872 0
M  V30 6285 H 628.794 2.31462 -5.01128 0
M  V30 6286 H 629.271 2.79801 -3.38538 0
M  V30 6287 H 629.877 1.26777 -4.05965 0
M  V30 6288 N 628.193 1.56834 0.155195 0
M  V30 6289 C 629.439 1.83169 0.870467 0
M  V30 6290 C 629.772 0.698929 1.81187 0
M  V30 6291 O 629.047 -0.298035 1.92203 0
M  V30 6292 C 629.33 3.19965 1.65211 0
M  V30 6293 C 629.183 4.43792 0.732744 0
M  V30 6294 C 630.502 3.53885 2.61636 0
M  V30 6295 H 627.621 0.666288 0.315006 0
M  V30 6296 H 630.263 1.89513 0.135988 0
M  V30 6297 H 628.413 3.14687 2.27825 0
M  V30 6298 H 630.085 4.61148 0.118236 0
M  V30 6299 H 628.328 4.3378 0.0417906 0
M  V30 6300 H 628.999 5.36095 1.31552 0
M  V30 6301 H 631.475 3.5972 2.09143 0
M  V30 6302 H 630.351 4.50648 3.13381 0
M  V30 6303 H 630.612 2.79418 3.42605 0
M  V30 6304 N 629.671 -0.424282 1.51781 0
M  V30 6305 C 630.917 -1.17434 1.6534 0
M  V30 6306 C 631.25 -1.90549 0.374806 0
M  V30 6307 O 630.525 -1.84145 -0.626179 0
M  V30 6308 C 630.808 -2.18093 2.86544 0
M  V30 6309 C 630.661 -1.48975 4.24413 0
M  V30 6310 C 631.98 -3.18934 3.03264 0
M  V30 6311 H 629.099 -0.425566 0.601716 0
M  V30 6312 H 631.741 -0.461921 1.84299 0
M  V30 6313 H 629.891 -2.78849 2.7051 0
M  V30 6314 H 631.563 -0.914551 4.52143 0
M  V30 6315 H 629.806 -0.791893 4.26511 0
M  V30 6316 H 630.477 -2.22347 5.05238 0
M  V30 6317 H 632.953 -2.68243 3.18096 0
M  V30 6318 H 631.829 -3.86645 3.89611 0
M  V30 6319 H 632.09 -3.85793 2.15908 0
M  V30 6320 N 631.149 -1.42148 -0.680565 0
M  V30 6321 C 632.397 -1.42029 -1.43779 0
M  V30 6322 C 632.718 -0.0356347 -1.94967 0
M  V30 6323 O 631.988 0.924936 -1.7269 0
M  V30 6324 H 630.568 -0.522835 -0.533529 0
M  V30 6325 H 633.23 -1.7752 -0.804538 0
M  V30 6326 H 632.326 -2.11658 -2.29363 0
M  V30 6327 N 632.627 0.916307 -1.28225 0
M  V30 6328 C 633.904 1.64429 -1.05936 0
M  V30 6329 C 634.284 2.07234 0.402139 0
M  V30 6330 O 633.632 1.81535 1.3877 0
M  V30 6331 C 633.842 2.83773 -2.03159 0
M  V30 6332 C 635.19 3.54852 -2.33164 0
M  V30 6333 O 636.214 2.93918 -2.01223 0
M  V30 6334 O 635.073 4.64663 -2.87664 0
M  V30 6335 H 632.167 0.721221 -0.404683 0
M  V30 6336 H 634.713 0.965838 -1.39534 0
M  V30 6337 H 633.485 2.49217 -3.01673 0
M  V30 6338 H 633.108 3.59333 -1.70192 0
M  V30 6339 N 634.105 1.10431 1.1244 0
M  V30 6340 C 635.353 0.845045 1.83585 0
M  V30 6341 C 635.674 -0.631168 1.84503 0
M  V30 6342 O 634.944 -1.45825 1.30813 0
M  V30 6343 H 633.524 0.309628 0.679809 0
M  V30 6344 H 636.186 1.39458 1.36153 0
M  V30 6345 H 635.282 1.20786 2.8778 0
M  V30 6346 N 635.583 -1.29855 0.893053 0
M  V30 6347 C 636.546 -2.26183 0.370687 0
M  V30 6348 C 637.546 -1.53108 -0.491385 0
M  V30 6349 O 638.736 -1.71643 -0.297386 0
M  V30 6350 C 635.868 -3.37633 -0.470827 0
M  V30 6351 H 637.061 -2.73903 1.22135 0
M  V30 6352 H 634.614 -1.41183 0.67061 0
M  V30 6353 H 635.349 -2.95241 -1.34175 0
M  V30 6354 H 635.134 -3.91825 0.146784 0
M  V30 6355 H 636.624 -4.09313 -0.827825 0
M  V30 6356 N 637.061 -0.65484 -1.43351 0
M  V30 6357 C 638.308 -0.168892 -2.01794 0
M  V30 6358 C 638.636 1.2177 -1.51665 0
M  V30 6359 O 637.891 1.82717 -0.70092 0
M  V30 6360 C 638.19 -0.130424 -3.57162 0
M  V30 6361 C 637.856 -1.45898 -4.26643 0
M  V30 6362 C 636.518 -1.82279 -4.4534 0
M  V30 6363 C 638.87 -2.33485 -4.65976 0
M  V30 6364 C 636.198 -3.0591 -5.00635 0
M  V30 6365 C 638.55 -3.5641 -5.22642 0
M  V30 6366 C 637.214 -3.92985 -5.39555 0
M  V30 6367 H 636.484 -0.061802 -0.738418 0
M  V30 6368 H 639.131 -0.845869 -1.71806 0
M  V30 6369 H 637.436 0.630008 -3.86702 0
M  V30 6370 H 639.133 0.262465 -4.0014 0
M  V30 6371 H 635.723 -1.16591 -4.12437 0
M  V30 6372 H 639.907 -2.06668 -4.51223 0
M  V30 6373 H 635.163 -3.34295 -5.11915 0
M  V30 6374 H 639.337 -4.24495 -5.52066 0
M  V30 6375 H 636.964 -4.88862 -5.82167 0
M  V30 6376 N 638.539 1.52521 -0.396863 0
M  V30 6377 C 639.471 2.24333 0.469814 0
M  V30 6378 C 640.484 1.2685 1.02043 0
M  V30 6379 O 641.673 1.52876 0.92147 0
M  V30 6380 C 638.773 2.95202 1.66461 0
M  V30 6381 C 637.946 4.19454 1.24003 0
M  V30 6382 C 637.005 4.73255 2.30036 0
M  V30 6383 O 636.031 5.36151 1.91131 0
M  V30 6384 N 637.233 4.53765 3.62047 0
M  V30 6385 H 639.998 2.99347 -0.145468 0
M  V30 6386 H 637.559 1.60348 -0.223606 0
M  V30 6387 H 639.551 3.28092 2.36934 0
M  V30 6388 H 638.121 2.2345 2.18607 0
M  V30 6389 H 637.341 3.92517 0.363892 0
M  V30 6390 H 638.629 5.0017 0.933135 0
M  V30 6391 H 638.027 4.03576 3.96412 0
M  V30 6392 H 636.584 4.91124 4.28533 0
M  V30 6393 N 640.017 0.126909 1.57088 0
M  V30 6394 C 640.95 -0.857844 2.11462 0
M  V30 6395 C 641.928 -1.25569 1.03301 0
M  V30 6396 O 643.112 -1.35535 1.31006 0
M  V30 6397 C 640.239 -2.14912 2.61784 0
M  V30 6398 C 639.285 -1.89874 3.81903 0
M  V30 6399 S 640.118 -1.10785 5.23915 0
M  V30 6400 C 641.274 -2.41075 5.7761 0
M  V30 6401 H 641.507 -0.395384 2.94659 0
M  V30 6402 H 639.04 -0.0870151 1.54155 0
M  V30 6403 H 640.998 -2.89101 2.91429 0
M  V30 6404 H 639.659 -2.58275 1.78754 0
M  V30 6405 H 638.852 -2.85572 4.15289 0
M  V30 6406 H 638.454 -1.23802 3.52915 0
M  V30 6407 H 640.746 -3.36864 5.87817 0
M  V30 6408 H 641.689 -2.12223 6.75549 0
M  V30 6409 H 642.097 -2.50804 5.05725 0
M  V30 6410 N 641.495 -1.56914 -0.146875 0
M  V30 6411 C 642.723 -1.87515 -0.874394 0
M  V30 6412 C 643.138 -0.715116 -1.74733 0
M  V30 6413 O 642.495 0.315113 -1.79759 0
M  V30 6414 C 642.546 -3.17362 -1.731 0
M  V30 6415 O 642.267 -4.28897 -0.893245 0
M  V30 6416 C 643.768 -3.61479 -2.56609 0
M  V30 6417 H 640.988 -0.621546 -0.252827 0
M  V30 6418 H 643.532 -2.04023 -0.139627 0
M  V30 6419 H 641.687 -3.02608 -2.41883 0
M  V30 6420 H 642.101 -5.03146 -1.48137 0
M  V30 6421 H 643.575 -4.5517 -3.12289 0
M  V30 6422 H 644.052 -2.86773 -3.32653 0
M  V30 6423 H 644.658 -3.78927 -1.93117 0
M  V30 6424 N 642.974 0.416227 -1.52004 0
M  V30 6425 C 644.222 1.16153 -1.65387 0
M  V30 6426 C 644.543 1.91208 -0.382669 0
M  V30 6427 O 643.813 1.86413 0.602231 0
M  V30 6428 H 642.393 0.431765 -0.60958 0
M  V30 6429 H 645.055 0.475151 -1.89019 0
M  V30 6430 H 644.151 1.87952 -2.4916 0
M  V30 6431 N 644.452 1.42507 0.673017 0
M  V30 6432 C 645.698 1.44282 1.43367 0
M  V30 6433 C 646.053 0.0588239 1.9231 0
M  V30 6434 O 645.346 -0.919288 1.68106 0
M  V30 6435 C 645.54 2.40351 2.64511 0
M  V30 6436 C 645.369 3.87955 2.27423 0
M  V30 6437 C 644.139 4.56476 2.16697 0
M  V30 6438 C 646.337 4.7833 1.88957 0
M  V30 6439 N 644.319 5.89099 1.72731 0
M  V30 6440 C 645.69 6.00073 1.55923 0
M  V30 6441 C 647.745 4.65769 1.75965 0
M  V30 6442 C 646.448 7.10652 1.112 0
M  V30 6443 C 648.474 5.76332 1.32647 0
M  V30 6444 C 647.836 6.97188 1.00538 0
M  V30 6445 H 643.935 0.583134 0.521036 0
M  V30 6446 H 646.519 1.78547 0.776481 0
M  V30 6447 H 644.69 2.08145 3.27918 0
M  V30 6448 H 646.422 2.32694 3.31113 0
M  V30 6449 H 643.177 4.10712 2.35823 0
M  V30 6450 H 643.601 6.59446 1.53166 0
M  V30 6451 H 648.243 3.72808 1.99435 0
M  V30 6452 H 645.961 8.0346 0.864768 0
M  V30 6453 H 649.547 5.68625 1.23112 0
M  V30 6454 H 648.427 7.81287 0.675283 0
M  V30 6455 N 645.93 -0.909495 1.28709 0
M  V30 6456 C 646.84 -2.04558 1.14861 0
M  V30 6457 C 647.856 -1.73842 0.0741621 0
M  V30 6458 O 649.032 -1.99383 0.2843 0
M  V30 6459 C 646.097 -3.36957 0.816148 0
M  V30 6460 C 645.158 -3.81255 1.97341 0
M  V30 6461 C 644.391 -5.07335 1.65671 0
M  V30 6462 O 644.614 -5.67514 0.573053 0
M  V30 6463 O 643.548 -5.47449 2.50167 0
M  V30 6464 H 647.374 -2.19161 2.10243 0
M  V30 6465 H 644.959 -1.03159 1.08068 0
M  V30 6466 H 646.841 -4.16436 0.644873 0
M  V30 6467 H 645.516 -3.2352 -0.107983 0
M  V30 6468 H 644.423 -3.02584 2.19986 0
M  V30 6469 H 645.756 -3.99261 2.87839 0
M  V30 6470 N 647.408 -1.11026 -1.11852 0
M  V30 6471 C 648.338 -0.786812 -2.19844 0
M  V30 6472 C 649.319 0.242935 -1.68356 0
M  V30 6473 O 650.504 0.107355 -1.93903 0
M  V30 6474 C 647.634 -0.224516 -3.46574 0
M  V30 6475 C 646.588 -1.18564 -4.1125 0
M  V30 6476 C 645.914 -0.484261 -5.32503 0
M  V30 6477 C 647.214 -2.53465 -4.56676 0
M  V30 6478 H 648.908 -1.68978 -2.47158 0
M  V30 6479 H 646.454 -0.813906 -1.18792 0
M  V30 6480 H 648.407 0.0139435 -4.21398 0
M  V30 6481 H 647.131 0.713722 -3.18706 0
M  V30 6482 H 645.79 -1.40966 -3.38414 0
M  V30 6483 H 645.438 0.458646 -5.00905 0
M  V30 6484 H 645.138 -1.12526 -5.76725 0
M  V30 6485 H 646.662 -0.254492 -6.10069 0
M  V30 6486 H 648.076 -2.35177 -5.22843 0
M  V30 6487 H 646.473 -3.13507 -5.11697 0
M  V30 6488 H 647.543 -3.13008 -3.70343 0
M  V30 6489 N 648.886 1.2938 -0.899927 0
M  V30 6490 C 650.134 1.95164 -0.524924 0
M  V30 6491 C 650.455 1.71292 0.931888 0
M  V30 6492 O 649.725 1.04481 1.65712 0
M  V30 6493 H 648.305 0.722133 -0.191135 0
M  V30 6494 H 650.967 1.57628 -1.14627 0
M  V30 6495 H 650.063 3.0397 -0.707711 0
M  V30 6496 N 650.364 0.662433 1.43002 0
M  V30 6497 C 651.312 -0.035345 2.32573 0
M  V30 6498 C 652.306 -0.803505 1.49131 0
M  V30 6499 O 653.512 -0.712865 1.65282 0
M  V30 6500 H 649.887 -0.0302194 0.751393 0
M  V30 6501 H 651.858 0.737686 2.89138 0
M  V30 6502 C 650.607 -0.981575 3.33557 0
M  V30 6503 H 649.93 -0.399914 3.97795 0
M  V30 6504 H 651.37 -1.43873 3.98844 0
M  V30 6505 C 649.829 -2.08204 2.64863 0
M  V30 6506 O 650.359 -3.16698 2.47113 0
M  V30 6507 N 648.565 -1.85022 2.24088 0
M  V30 6508 H 648.112 -0.967909 2.38724 0
M  V30 6509 H 648.07 -2.58845 1.78457 0
M  V30 6510 N 651.842 -1.52309 0.404946 0
M  V30 6511 C 653.082 -2.03677 -0.171779 0
M  V30 6512 C 653.446 -1.28419 -1.42733 0
M  V30 6513 O 654.647 -1.69991 -2.08222 0
M  V30 6514 C 652.918 -3.54951 -0.417701 0
M  V30 6515 S 654.477 -4.28114 -0.962472 0
M  V30 6516 H 651.295 -0.709445 -0.0469912 0
M  V30 6517 H 653.897 -1.874 0.556901 0
M  V30 6518 H 652.601 -4.07306 0.50295 0
M  V30 6519 H 652.132 -3.75462 -1.17437 0
M  V30 6520 H 654.147 -4.42589 -2.24342 0
M  V30 6521 N 653.32 -0.135238 -1.57019 0
M  V30 6522 C 654.736 0.221262 -1.58059 0
M  V30 6523 C 654.936 1.65538 -1.14889 0
M  V30 6524 O 653.992 2.37985 -0.843751 0
M  V30 6525 C 655.305 -0.0268114 -3.00688 0
M  V30 6526 C 656.853 0.0378206 -3.12977 0
M  V30 6527 C 657.328 -0.182769 -4.57635 0
M  V30 6528 N 658.819 -0.129292 -4.6302 0
M  V30 6529 C 659.554 -0.274648 -5.72742 0
M  V30 6530 N 659.05 -0.477075 -6.91155 0
M  V30 6531 N 660.843 -0.213077 -5.61696 0
M  V30 6532 H 652.994 -1.07177 -1.83376 0
M  V30 6533 H 655.257 -0.423338 -0.848227 0
M  V30 6534 H 654.963 -1.01889 -3.36618 0
M  V30 6535 H 654.837 0.697863 -3.70688 0
M  V30 6536 H 657.224 1.02043 -2.76896 0
M  V30 6537 H 657.305 -0.718996 -2.45487 0
M  V30 6538 H 656.949 -1.16243 -4.94419 0
M  V30 6539 H 656.879 0.59423 -5.23237 0
M  V30 6540 H 659.37 0.0229896 -3.77893 0
M  V30 6541 H 659.683 -0.578413 -7.70632 0
M  V30 6542 H 658.028 -0.513252 -6.93102 0
M  V30 6543 H 661.219 -0.0557796 -4.68067 0
M  V30 6544 H 661.392 -0.329796 -6.4716 0
M  V30 6545 N 654.798 1.5699 0.138552 0
M  V30 6546 C 656.214 1.51844 0.491472 0
M  V30 6547 C 656.414 0.845063 1.82923 0
M  V30 6548 O 655.47 0.419143 2.48997 0
M  V30 6549 C 656.783 2.96615 0.493987 0
M  V30 6550 C 658.331 3.076 0.578913 0
M  V30 6551 C 658.806 4.53893 0.612009 0
M  V30 6552 N 660.297 4.5827 0.673997 0
M  V30 6553 C 661.032 5.68852 0.720729 0
M  V30 6554 N 660.528 6.88982 0.726292 0
M  V30 6555 N 662.321 5.56908 0.762253 0
M  V30 6556 H 654.472 1.99158 -0.738228 0
M  V30 6557 H 656.735 0.908693 -0.270149 0
M  V30 6558 H 656.441 3.49172 -0.420933 0
M  V30 6559 H 656.315 3.53017 1.32887 0
M  V30 6560 H 658.702 2.55057 1.48425 0
M  V30 6561 H 658.783 2.54227 -0.283286 0
M  V30 6562 H 658.427 5.07076 -0.289208 0
M  V30 6563 H 658.357 5.05057 1.49082 0
M  V30 6564 H 660.848 3.71793 0.676654 0
M  V30 6565 H 661.161 7.69014 0.764032 0
M  V30 6566 H 659.506 6.91526 0.69403 0
M  V30 6567 H 662.697 4.61969 0.755135 0
M  V30 6568 H 662.87 6.43102 0.795207 0
M  V30 6569 N 656.276 -0.40816 1.52223 0
M  V30 6570 C 657.206 -1.5042 1.78595 0
M  V30 6571 C 658.187 -1.57723 0.636974 0
M  V30 6572 O 659.372 -1.72982 0.882664 0
M  V30 6573 C 656.502 -2.88232 1.93751 0
M  V30 6574 C 655.456 -2.95779 3.09352 0
M  V30 6575 C 654.782 -4.35855 3.09732 0
M  V30 6576 C 656.082 -2.67175 4.48793 0
M  V30 6577 H 657.776 -1.28601 2.70374 0
M  V30 6578 H 655.322 -0.617221 1.30101 0
M  V30 6579 H 657.275 -3.64895 2.10783 0
M  V30 6580 H 655.999 -3.11347 0.986443 0
M  V30 6581 H 654.658 -2.21561 2.92072 0
M  V30 6582 H 654.306 -4.55981 2.12346 0
M  V30 6583 H 654.006 -4.41829 3.87377 0
M  V30 6584 H 655.53 -5.14451 3.28895 0
M  V30 6585 H 656.944 -3.3356 4.66273 0
M  V30 6586 H 655.341 -2.84523 5.28362 0
M  V30 6587 H 656.411 -1.62609 4.56822 0
M  V30 6588 N 657.755 -1.42862 -0.66545 0
M  V30 6589 C 659.003 -1.43546 -1.42264 0
M  V30 6590 C 659.324 -0.0563116 -1.94919 0
M  V30 6591 O 658.594 0.906568 -1.73661 0
M  V30 6592 H 657.174 -0.528464 -0.527953 0
M  V30 6593 H 659.836 -1.78363 -0.785665 0
M  V30 6594 H 658.932 -2.14079 -2.27105 0
M  V30 6595 N 659.233 0.902656 -1.29189 0
M  V30 6596 C 660.482 1.6475 -1.16362 0
M  V30 6597 C 660.795 1.93517 0.284682 0
M  V30 6598 O 662.001 2.66192 0.534229 0
M  V30 6599 C 660.457 2.96848 -2.03493 0
M  V30 6600 C 660.065 2.75687 -3.5313 0
M  V30 6601 C 661.809 3.74762 -1.99383 0
M  V30 6602 C 659.716 4.03492 -4.32375 0
M  V30 6603 H 658.646 0.618041 -0.431904 0
M  V30 6604 H 661.297 1.0008 -1.53806 0
M  V30 6605 H 659.679 3.62715 -1.58916 0
M  V30 6606 H 660.853 2.18431 -4.05739 0
M  V30 6607 H 659.168 2.11171 -3.58881 0
M  V30 6608 H 661.765 4.69515 -2.5585 0
M  V30 6609 H 662.108 4.04767 -0.973123 0
M  V30 6610 H 662.641 3.15732 -2.41988 0
M  V30 6611 H 659.38 3.78656 -5.3507 0
M  V30 6612 H 658.9 4.60318 -3.84535 0
M  V30 6613 H 660.579 4.71662 -4.42881 0
M  V30 6614 N 660.711 1.11618 1.11262 0
M  V30 6615 C 661.988 0.777876 1.79467 0
M  V30 6616 C 662.368 -0.733774 1.97937 0
M  V30 6617 O 661.716 -1.66443 1.56554 0
M  V30 6618 C 661.926 1.5431 3.13032 0
M  V30 6619 C 663.274 1.72357 3.88044 0
M  V30 6620 O 664.298 1.5075 3.22727 0
M  V30 6621 O 663.157 2.08276 5.05256 0
M  V30 6622 H 660.251 0.282018 0.777428 0
M  V30 6623 H 662.797 1.21971 1.17988 0
M  V30 6624 H 661.569 2.57132 2.94956 0
M  V30 6625 H 661.192 1.09495 3.82226 0
M  V30 6626 N 662.189 -1.289 0.906776 0
M  V30 6627 C 663.6 -1.77336 0.58384 0
M  V30 6628 C 663.951 -1.74304 -0.900697 0
M  V30 6629 O 663.076 -1.33335 -1.70443 0
M  V30 6630 C 663.671 -3.22019 1.05304 0
M  V30 6631 C 662.23 -3.68205 0.781148 0
M  V30 6632 C 661.377 -2.48837 1.22373 0
M  V30 6633 H 664.328 -1.15462 1.08877 0
M  V30 6634 H 664.349 -3.78481 0.391414 0
M  V30 6635 H 663.861 -3.24194 2.13353 0
M  V30 6636 H 661.962 -3.71497 -0.28643 0
M  V30 6637 H 662.075 -4.58675 1.384 0
M  V30 6638 H 660.439 -2.46461 0.642594 0
M  V30 6639 H 661.222 -2.53736 2.31242 0
M  V30 6640 N 663.667 -0.670007 -1.42649 0
M  V30 6641 C 664.916 -0.187526 -2.00826 0
M  V30 6642 C 665.229 1.21142 -1.53571 0
M  V30 6643 O 666.435 1.79001 -2.04134 0
M  V30 6644 C 664.891 -0.284409 -3.58774 0
M  V30 6645 C 664.499 -1.6871 -4.15019 0
M  V30 6646 C 666.243 0.139605 -4.2427 0
M  V30 6647 C 664.15 -1.73701 -5.65316 0
M  V30 6648 H 663.08 -0.0663468 -0.751075 0
M  V30 6649 H 665.731 -0.834492 -1.63427 0
M  V30 6650 H 664.113 0.430364 -3.93655 0
M  V30 6651 H 665.287 -2.42857 -3.91608 0
M  V30 6652 H 663.602 -2.05855 -3.61957 0
M  V30 6653 H 666.199 0.122398 -5.3456 0
M  V30 6654 H 666.542 1.17403 -3.99402 0
M  V30 6655 H 667.075 -0.523995 -3.94334 0
M  V30 6656 H 663.814 -2.75109 -5.94975 0
M  V30 6657 H 663.334 -1.03903 -5.90732 0
M  V30 6658 H 665.013 -1.48829 -6.2965 0
M  V30 6659 N 665.145 1.52092 -0.413018 0
M  V30 6660 C 666.391 2.02154 0.161737 0
M  V30 6661 C 666.724 1.29789 1.44459 0
M  V30 6662 O 665.999 0.405378 1.90229 0
M  V30 6663 C 666.282 3.5781 0.405463 0
M  V30 6664 C 666.135 4.40819 -0.894335 0
M  V30 6665 C 667.454 4.23821 1.18591 0
M  V30 6666 H 664.573 0.734769 0.0573077 0
M  V30 6667 H 667.215 1.81948 -0.547247 0
M  V30 6668 H 665.365 3.75158 1.0094 0
M  V30 6669 H 667.037 4.35175 -1.53039 0
M  V30 6670 H 665.28 4.06877 -1.50444 0
M  V30 6671 H 665.951 5.47819 -0.678144 0
M  V30 6672 H 668.427 4.10596 0.674573 0
M  V30 6673 H 667.303 5.32663 1.3252 0
M  V30 6674 H 667.564 3.83038 2.20758 0
M  V30 6675 N 666.623 0.143563 1.56945 0
M  V30 6676 C 667.872 -0.50835 1.95189 0
M  V30 6677 C 668.185 -1.66239 1.03073 0
M  V30 6678 O 669.391 -2.3787 1.30882 0
M  V30 6679 C 667.847 -0.955735 3.46978 0
M  V30 6680 C 667.455 0.171183 4.47673 0
M  V30 6681 C 669.199 -1.57763 3.94095 0
M  V30 6682 C 667.106 -0.294279 5.90667 0
M  V30 6683 H 666.036 -0.193679 0.728701 0
M  V30 6684 H 668.687 0.227357 1.82086 0
M  V30 6685 H 667.069 -1.7466 3.55401 0
M  V30 6686 H 668.243 0.948049 4.50942 0
M  V30 6687 H 666.558 0.701273 4.10452 0
M  V30 6688 H 669.155 -1.93745 4.98364 0
M  V30 6689 H 669.498 -2.46531 3.35452 0
M  V30 6690 H 670.031 -0.851728 3.88575 0
M  V30 6691 H 666.77 0.557939 6.53121 0
M  V30 6692 H 666.29 -1.0371 5.90766 0
M  V30 6693 H 667.969 -0.747426 6.42668 0
M  V30 6694 N 668.101 -1.57061 -0.130224 0
M  V30 6695 C 669.031 -2.02552 -1.16168 0
M  V30 6696 C 670.012 -0.907971 -1.4384 0
M  V30 6697 O 671.197 -1.17693 -1.54473 0
M  V30 6698 C 668.327 -2.42035 -2.49071 0
M  V30 6699 C 667.281 -3.5713 -2.35886 0
M  V30 6700 C 666.607 -3.82478 -3.7365 0
M  V30 6701 C 667.907 -4.89236 -1.8288 0
M  V30 6702 H 669.601 -2.8897 -0.783359 0
M  V30 6703 H 667.147 -1.39021 -0.375376 0
M  V30 6704 H 669.1 -2.72462 -3.21469 0
M  V30 6705 H 667.824 -1.52573 -2.88771 0
M  V30 6706 H 666.483 -3.26895 -1.65938 0
M  V30 6707 H 666.131 -2.9024 -4.10816 0
M  V30 6708 H 665.831 -4.59944 -3.65685 0
M  V30 6709 H 667.355 -4.15347 -4.47571 0
M  V30 6710 H 668.769 -5.18272 -2.45085 0
M  V30 6711 H 667.166 -5.70624 -1.85763 0
M  V30 6712 H 668.236 -4.78494 -0.785571 0
M  V30 6713 N 669.579 0.400081 -1.52437 0
M  V30 6714 C 670.826 1.14619 -1.6694 0
M  V30 6715 C 671.154 1.90262 -0.403797 0
M  V30 6716 O 670.409 1.85835 0.61351 0
M  V30 6717 C 670.708 2.15914 -2.84808 0
M  V30 6718 C 670.374 1.57011 -4.2268 0
M  V30 6719 C 669.036 1.40672 -4.60179 0
M  V30 6720 C 671.388 1.14081 -5.08562 0
M  V30 6721 C 668.716 0.799335 -5.81229 0
M  V30 6722 C 671.068 0.547573 -6.30226 0
M  V30 6723 C 669.732 0.371389 -6.66466 0
M  V30 6724 H 669.002 0.419419 -0.610875 0
M  V30 6725 H 671.649 0.432227 -1.86558 0
M  V30 6726 H 669.954 2.93488 -2.59561 0
M  V30 6727 H 671.651 2.73533 -2.93225 0
M  V30 6728 H 668.241 1.70713 -3.93135 0
M  V30 6729 H 672.425 1.2551 -4.80168 0
M  V30 6730 H 667.681 0.65093 -6.07925 0
M  V30 6731 H 671.855 0.206575 -6.96094 0
M  V30 6732 H 669.482 -0.10135 -7.60132 0
M  V30 6733 N 671.057 1.43213 0.657864 0
M  V30 6734 C 672.005 1.48271 1.79216 0
M  V30 6735 C 672.999 0.35675 1.65601 0
M  V30 6736 O 674.205 0.530535 1.72004 0
M  V30 6737 H 670.58 0.464729 0.591211 0
M  V30 6738 H 672.551 2.43792 1.7207 0
M  V30 6739 C 671.3 1.41837 3.17455 0
M  V30 6740 H 670.623 2.27781 3.28567 0
M  V30 6741 H 672.063 1.49438 3.96793 0
M  V30 6742 C 670.522 0.135347 3.36628 0
M  V30 6743 O 671.052 -0.805199 3.93547 0
M  V30 6744 N 669.258 0.0470316 2.90562 0
M  V30 6745 H 668.805 0.813221 2.44427 0
M  V30 6746 H 668.763 -0.810737 3.03767 0
M  V30 6747 N 672.536 -0.895792 1.29666 0
M  V30 6748 C 673.484 -2.02173 1.15017 0
M  V30 6749 C 674.478 -1.69276 0.0647651 0
M  V30 6750 O 675.684 -1.7859 0.224846 0
M  V30 6751 H 672.059 -0.662719 0.355397 0
M  V30 6752 H 674.03 -2.11666 2.10334 0
M  V30 6753 C 672.779 -3.37212 0.847555 0
M  V30 6754 H 672.102 -3.6303 1.67479 0
M  V30 6755 H 673.542 -4.16668 0.785106 0
M  V30 6756 C 672.001 -3.33891 -0.44929 0
M  V30 6757 O 672.531 -3.73673 -1.47415 0
M  V30 6758 N 670.737 -2.86991 -0.456547 0
M  V30 6759 H 670.284 -2.54813 0.377925 0
M  V30 6760 H 670.242 -2.85152 -1.32423 0
M  V30 6761 N 674.014 -1.12206 -1.10668 0
M  V30 6762 C 674.977 -0.790867 -2.15123 0
M  V30 6763 C 675.977 0.193618 -1.5963 0
M  V30 6764 O 677.167 -0.0318728 -1.74171 0
M  V30 6765 C 674.299 -0.174797 -3.40452 0
M  V30 6766 H 675.492 -1.7163 -2.45933 0
M  V30 6767 H 673.045 -0.924993 -1.2599 0
M  V30 6768 H 673.78 0.760478 -3.15257 0
M  V30 6769 H 673.565 -0.88358 -3.82015 0
M  V30 6770 H 675.055 0.0405162 -4.1758 0
M  V30 6771 N 675.492 1.28418 -0.913599 0
M  V30 6772 C 676.717 1.99643 -0.561899 0
M  V30 6773 C 677.142 1.67819 0.849608 0
M  V30 6774 O 676.5 0.910503 1.56779 0
M  V30 6775 C 676.548 3.52116 -0.777622 0
M  V30 6776 O 675.652 4.12076 0.163457 0
M  V30 6777 H 674.993 0.627229 -0.217898 0
M  V30 6778 H 677.523 1.63575 -1.229 0
M  V30 6779 H 677.533 4.02163 -0.687666 0
M  V30 6780 H 676.208 3.74613 -1.8066 0
M  V30 6781 H 674.785 3.72892 0.0247827 0
M  V30 6782 N 676.97 0.677563 1.42291 0
M  V30 6783 C 678.216 0.209962 2.02313 0
M  V30 6784 C 678.571 -1.1714 1.52631 0
M  V30 6785 O 677.864 -1.7756 0.719938 0
M  V30 6786 C 678.058 0.187229 3.56909 0
M  V30 6787 C 677.887 1.56484 4.21595 0
M  V30 6788 C 676.657 2.16329 4.56651 0
M  V30 6789 C 678.855 2.50805 4.49 0
M  V30 6790 N 676.837 3.46842 5.06531 0
M  V30 6791 C 678.208 3.65976 5.00461 0
M  V30 6792 C 680.263 2.493 4.30992 0
M  V30 6793 C 678.966 4.79899 5.35807 0
M  V30 6794 C 680.992 3.62322 4.67415 0
M  V30 6795 C 680.354 4.76221 5.19031 0
M  V30 6796 H 676.453 0.121815 0.772454 0
M  V30 6797 H 679.037 0.891148 1.73109 0
M  V30 6798 H 677.208 -0.46338 3.85626 0
M  V30 6799 H 678.94 -0.293512 4.03634 0
M  V30 6800 H 675.695 1.6879 4.42501 0
M  V30 6801 H 676.119 4.13694 5.35898 0
M  V30 6802 H 680.761 1.62467 3.90339 0
M  V30 6803 H 678.479 5.67406 5.75392 0
M  V30 6804 H 682.065 3.62388 4.55155 0
M  V30 6805 H 680.945 5.62228 5.46689 0
M  V30 6806 N 678.448 -1.51871 0.421078 0
M  V30 6807 C 679.358 -2.31077 -0.405069 0
M  V30 6808 C 680.374 -1.39301 -1.04265 0
M  V30 6809 O 681.55 -1.72376 -1.04157 0
M  V30 6810 C 678.615 -3.12556 -1.50032 0
M  V30 6811 C 677.676 -4.20088 -0.884559 0
M  V30 6812 C 676.909 -4.97673 -1.92762 0
M  V30 6813 O 677.132 -4.75696 -3.14753 0
M  V30 6814 O 676.066 -5.82203 -1.52719 0
M  V30 6815 H 679.892 -3.02742 0.241086 0
M  V30 6816 H 677.477 -1.48263 0.183991 0
M  V30 6817 H 679.359 -3.6326 -2.13589 0
M  V30 6818 H 678.034 -2.43672 -2.13086 0
M  V30 6819 H 676.941 -3.73502 -0.211379 0
M  V30 6820 H 678.274 -4.91298 -0.297763 0
M  V30 6821 N 679.926 -0.151884 -1.56866 0
M  V30 6822 C 680.859 0.824094 -2.128 0
M  V30 6823 C 681.837 1.2391 -1.05286 0
M  V30 6824 O 683.021 1.33433 -1.33146 0
M  V30 6825 C 680.148 2.1072 -2.65169 0
M  V30 6826 C 679.194 1.83774 -3.84876 0
M  V30 6827 S 680.027 1.02436 -5.25611 0
M  V30 6828 C 681.183 2.31855 -5.81373 0
M  V30 6829 H 681.416 0.348456 -2.95251 0
M  V30 6830 H 678.949 0.0624794 -1.54274 0
M  V30 6831 H 680.907 2.84428 -2.95992 0
M  V30 6832 H 679.568 2.55398 -1.8284 0
M  V30 6833 H 678.761 2.78929 -4.19779 0
M  V30 6834 H 678.363 1.18172 -3.5484 0
M  V30 6835 H 680.655 3.27469 -5.93102 0
M  V30 6836 H 681.598 2.01449 -6.7884 0
M  V30 6837 H 682.006 2.42727 -5.09651 0
M  V30 6838 N 681.404 1.57128 0.121893 0
M  V30 6839 C 682.334 2.03165 1.15092 0
M  V30 6840 C 683.315 0.915587 1.43356 0
M  V30 6841 O 684.5 1.1851 1.53847 0
M  V30 6842 C 681.63 2.43352 2.47784 0
M  V30 6843 C 680.584 3.58376 2.33989 0
M  V30 6844 C 679.91 3.84454 3.71617 0
M  V30 6845 C 681.21 4.90199 1.80283 0
M  V30 6846 H 682.904 2.89382 0.768023 0
M  V30 6847 H 680.45 1.39218 0.367998 0
M  V30 6848 H 682.403 2.74163 3.20019 0
M  V30 6849 H 681.127 1.54103 2.87958 0
M  V30 6850 H 679.786 3.2777 1.64202 0
M  V30 6851 H 679.434 2.92414 4.09271 0
M  V30 6852 H 679.134 4.61877 3.6324 0
M  V30 6853 H 680.658 4.17714 4.45362 0
M  V30 6854 H 682.072 5.19565 2.42333 0
M  V30 6855 H 680.469 5.71601 1.82735 0
M  V30 6856 H 681.539 4.78904 0.760184 0
M  V30 6857 N 682.882 -0.391992 1.52647 0
M  V30 6858 C 684.298 -0.731848 1.41831 0
M  V30 6859 C 684.498 -1.9423 0.536361 0
M  V30 6860 O 683.554 -2.52499 0.00866571 0
M  V30 6861 C 684.867 -0.969743 2.84634 0
M  V30 6862 C 686.415 -1.0714 2.94092 0
M  V30 6863 C 686.89 -1.34195 4.37899 0
M  V30 6864 N 688.381 -1.41023 4.41211 0
M  V30 6865 C 689.116 -1.63616 5.49561 0
M  V30 6866 N 688.612 -1.83699 6.68002 0
M  V30 6867 N 690.405 -1.65771 5.371 0
M  V30 6868 H 682.556 0.404547 2.08512 0
M  V30 6869 H 684.819 0.11879 0.940528 0
M  V30 6870 H 684.525 -0.152465 3.51369 0
M  V30 6871 H 684.399 -1.88523 3.26709 0
M  V30 6872 H 686.786 -1.87925 2.27526 0
M  V30 6873 H 686.867 -0.133887 2.55449 0
M  V30 6874 H 686.511 -0.539207 5.0503 0
M  V30 6875 H 686.441 -2.29226 4.74092 0
M  V30 6876 H 688.932 -1.27223 3.55841 0
M  V30 6877 H 689.245 -2.00437 7.46354 0
M  V30 6878 H 687.59 -1.8093 6.71036 0
M  V30 6879 H 690.781 -1.4963 4.43541 0
M  V30 6880 H 690.954 -1.83038 6.21612 0
M  V30 6881 N 684.36 -1.4356 -0.65026 0
M  V30 6882 C 685.588 -1.48779 -1.43779 0
M  V30 6883 C 686.003 -0.106593 -1.88499 0
M  V30 6884 O 685.36 0.883766 -1.59674 0
M  V30 6885 C 685.411 -2.43618 -2.67081 0
M  V30 6886 O 685.132 -3.76367 -2.24231 0
M  V30 6887 C 686.633 -2.5811 -3.60409 0
M  V30 6888 H 683.853 -0.50521 -0.441593 0
M  V30 6889 H 686.397 -1.88332 -0.796941 0
M  V30 6890 H 684.552 -2.07253 -3.273 0
M  V30 6891 H 684.966 -4.27394 -3.0403 0
M  V30 6892 H 686.44 -3.28539 -4.43583 0
M  V30 6893 H 686.917 -1.627 -4.07953 0
M  V30 6894 H 687.523 -2.95298 -3.0607 0
M  V30 6895 N 685.838 0.888903 -1.30139 0
M  V30 6896 C 687.085 1.64037 -1.18736 0
M  V30 6897 C 687.413 1.92771 0.258801 0
M  V30 6898 O 686.668 1.54427 1.20212 0
M  V30 6899 C 686.967 2.99041 -1.95728 0
M  V30 6900 C 686.633 2.89874 -3.45375 0
M  V30 6901 C 685.295 2.87082 -3.86183 0
M  V30 6902 C 687.647 2.78289 -4.40687 0
M  V30 6903 C 684.975 2.70536 -5.20603 0
M  V30 6904 C 687.327 2.63282 -5.75209 0
M  V30 6905 C 685.991 2.58861 -6.15262 0
M  V30 6906 H 685.261 0.600253 -0.434485 0
M  V30 6907 H 687.908 1.0338 -1.61198 0
M  V30 6908 H 686.213 3.63626 -1.45888 0
M  V30 6909 H 687.91 3.56139 -1.843 0
M  V30 6910 H 684.5 2.92856 -3.12943 0
M  V30 6911 H 688.684 2.79516 -4.10103 0
M  V30 6912 H 683.94 2.65526 -5.50732 0
M  V30 6913 H 688.114 2.5329 -6.48704 0
M  V30 6914 H 685.741 2.45799 -7.19366 0
M  V30 6915 N 687.317 1.12792 1.10072 0
M  V30 6916 C 688.249 0.757003 2.16338 0
M  V30 6917 C 689.262 -0.218144 1.61332 0
M  V30 6918 O 690.451 0.0010727 1.785 0
M  V30 6919 C 687.551 0.100303 3.38752 0
M  V30 6920 C 686.724 1.10586 4.2319 0
M  V30 6921 C 685.783 0.47609 5.24042 0
M  V30 6922 O 684.809 1.13418 5.57786 0
M  V30 6923 N 686.011 -0.754823 5.75572 0
M  V30 6924 H 688.776 1.6714 2.48766 0
M  V30 6925 H 686.337 1.02003 1.25726 0
M  V30 6926 H 688.329 -0.333092 4.03327 0
M  V30 6927 H 686.899 -0.716915 3.04268 0
M  V30 6928 H 686.119 1.71677 3.54853 0
M  V30 6929 H 687.407 1.78571 4.76435 0
M  V30 6930 H 686.805 -1.30838 5.50362 0
M  V30 6931 H 685.362 -1.13098 6.41913 0
M  V30 6932 N 688.795 -1.27931 0.920396 0
M  V30 6933 C 690.206 -1.76707 0.602616 0
M  V30 6934 C 690.557 -1.75249 -0.882159 0
M  V30 6935 O 689.682 -1.35135 -1.69019 0
M  V30 6936 C 690.277 -3.20884 1.08714 0
M  V30 6937 C 688.836 -3.67356 0.820157 0
M  V30 6938 C 687.983 -2.47525 1.25006 0
M  V30 6939 H 690.934 -1.14301 1.10095 0
M  V30 6940 H 690.955 -3.78045 0.431535 0
M  V30 6941 H 690.467 -3.21913 2.1678 0
M  V30 6942 H 688.568 -3.7178 -0.247012 0
M  V30 6943 H 688.681 -4.57181 1.43257 0
M  V30 6944 H 687.045 -2.45765 0.668698 0
M  V30 6945 H 687.828 -2.51269 2.3392 0
M  V30 6946 N 690.273 -0.685099 -1.4193 0
M  V30 6947 C 691.183 -0.013404 -2.34596 0
M  V30 6948 C 692.199 0.777589 -1.55658 0
M  V30 6949 O 693.375 0.717553 -1.88184 0
M  V30 6950 C 690.44 0.919031 -3.34297 0
M  V30 6951 C 689.501 0.121417 -4.29128 0
M  V30 6952 C 688.734 1.00944 -5.24067 0
M  V30 6953 O 688.957 2.24898 -5.24192 0
M  V30 6954 O 687.891 0.464724 -6.00103 0
M  V30 6955 H 691.717 -0.776978 -2.93593 0
M  V30 6956 H 689.302 -0.445379 -1.42607 0
M  V30 6957 H 691.184 1.45402 -3.9552 0
M  V30 6958 H 689.859 1.66228 -2.77759 0
M  V30 6959 H 688.766 -0.45792 -3.71287 0
M  V30 6960 H 690.099 -0.582937 -4.88736 0
M  V30 6961 N 691.751 1.51645 -0.429126 0
M  V30 6962 C 692.976 2.06917 0.141399 0
M  V30 6963 C 693.401 1.29527 1.36398 0
M  V30 6964 O 692.759 0.33094 1.78254 0
M  V30 6965 C 692.807 3.57776 0.4504 0
M  V30 6966 O 691.911 3.82639 1.53821 0
M  V30 6967 H 691.252 0.663978 0.0054647 0
M  V30 6968 H 693.782 1.95355 -0.608093 0
M  V30 6969 H 693.792 4.01894 0.703249 0
M  V30 6970 H 692.467 4.13532 -0.443213 0
M  V30 6971 H 691.044 3.5039 1.27597 0
M  V30 6972 N 693.229 0.160201 1.56784 0
M  V30 6973 C 694.192 -0.760405 2.16219 0
M  V30 6974 C 695.192 -1.16595 1.10735 0
M  V30 6975 O 696.382 -1.08472 1.36306 0
M  V30 6976 C 693.514 -2.03358 2.73603 0
M  V30 6977 H 694.707 -0.243173 2.98912 0
M  V30 6978 H 692.26 -0.0893139 1.56045 0
M  V30 6979 H 692.995 -2.59416 1.94612 0
M  V30 6980 H 692.78 -1.75186 3.50788 0
M  V30 6981 H 694.27 -2.69081 3.19351 0
M  V30 6982 N 694.707 -1.5719 -0.113559 0
M  V30 6983 C 695.954 -1.85138 -0.820382 0
M  V30 6984 C 696.282 -0.74608 -1.79622 0
M  V30 6985 O 695.537 0.262077 -1.93937 0
M  V30 6986 C 695.836 -3.19593 -1.59984 0
M  V30 6987 C 695.502 -4.44315 -0.767809 0
M  V30 6988 C 694.164 -4.78179 -0.538379 0
M  V30 6989 C 696.516 -5.2086 -0.188203 0
M  V30 6990 C 693.844 -5.86028 0.28082 0
M  V30 6991 C 696.196 -6.29572 0.618217 0
M  V30 6992 C 694.86 -6.61964 0.857912 0
M  V30 6993 H 694.13 -0.677467 -0.300199 0
M  V30 6994 H 696.777 -1.91322 -0.0825443 0
M  V30 6995 H 695.082 -3.0901 -2.40874 0
M  V30 6996 H 696.779 -3.3844 -2.1508 0
M  V30 6997 H 693.369 -4.17786 -0.956724 0
M  V30 6998 H 697.553 -4.95045 -0.352658 0
M  V30 6999 H 692.809 -6.09547 0.475693 0
M  V30 7000 H 696.983 -6.88064 1.0743 0
M  V30 7001 H 694.61 -7.45365 1.49451 0
M  V30 7002 N 696.185 0.383891 -1.52853 0
M  V30 7003 C 697.133 1.48965 -1.7864 0
M  V30 7004 C 698.127 1.56242 -0.654577 0
M  V30 7005 O 699.333 1.59347 -0.83716 0
M  V30 7006 H 695.708 0.495892 -0.565328 0
M  V30 7007 H 697.679 1.24411 -2.71228 0
M  V30 7008 C 696.428 2.86036 -1.97683 0
M  V30 7009 H 695.751 2.81188 -2.84206 0
M  V30 7010 H 697.191 3.62632 -2.19713 0
M  V30 7011 C 695.65 3.28428 -0.750776 0
M  V30 7012 O 696.18 4.0164 0.0693491 0
M  V30 7013 N 694.386 2.84765 -0.579427 0
M  V30 7014 H 693.933 2.25353 -1.24795 0
M  V30 7015 H 693.891 3.13486 0.239544 0
M  V30 7016 N 697.663 1.43903 0.642637 0
M  V30 7017 C 698.94 1.36556 1.40043 0
M  V30 7018 C 699.32 0.0185588 2.11092 0
M  V30 7019 O 698.668 -0.998438 2.05532 0
M  V30 7020 C 698.878 2.55596 2.37638 0
M  V30 7021 C 700.226 2.99153 3.01318 0
M  V30 7022 O 701.25 2.55719 2.47965 0
M  V30 7023 O 700.109 3.74427 3.98078 0
M  V30 7024 H 697.203 0.540189 0.626198 0
M  V30 7025 H 699.749 1.55971 0.668657 0
M  V30 7026 H 698.521 3.45256 1.84158 0
M  V30 7027 H 698.144 2.38334 3.18249 0
M  V30 7028 N 699.141 -0.881989 1.30609 0
M  V30 7029 C 700.071 -2.00413 1.1982 0
M  V30 7030 C 701.052 -1.69871 0.0881538 0
M  V30 7031 O 702.237 -1.92304 0.2707 0
M  V30 7032 C 699.367 -3.35641 0.89233 0
M  V30 7033 C 698.321 -3.80451 1.96064 0
M  V30 7034 C 697.647 -5.13003 1.5077 0
M  V30 7035 C 698.947 -3.98855 3.37213 0
M  V30 7036 H 700.641 -2.09698 2.13699 0
M  V30 7037 H 698.187 -1.00754 1.02882 0
M  V30 7038 H 700.14 -4.13669 0.803497 0
M  V30 7039 H 698.864 -3.26497 -0.0821381 0
M  V30 7040 H 697.523 -3.04654 2.03916 0
M  V30 7041 H 697.171 -5.0029 0.521417 0
M  V30 7042 H 696.871 -5.43956 2.22229 0
M  V30 7043 H 698.395 -5.93554 1.43271 0
M  V30 7044 H 699.809 -4.67312 3.32103 0
M  V30 7045 H 698.206 -4.41188 4.06784 0
M  V30 7046 H 699.276 -3.02614 3.78883 0
M  V30 7047 N 700.619 -1.13374 -1.09472 0
M  V30 7048 C 701.896 -0.806329 -1.78207 0
M  V30 7049 C 702.276 0.702191 -1.99079 0
M  V30 7050 O 701.624 1.63931 -1.59182 0
M  V30 7051 C 701.834 -1.59271 -3.10538 0
M  V30 7052 C 703.182 -1.78509 -3.85253 0
M  V30 7053 O 704.206 -1.55866 -3.20288 0
M  V30 7054 O 703.065 -2.16287 -5.01879 0
M  V30 7055 H 700.159 -0.29435 -0.772843 0
M  V30 7056 H 702.705 -1.23833 -1.16033 0
M  V30 7057 H 701.477 -2.61792 -2.90828 0
M  V30 7058 H 701.1 -1.15562 -3.80436 0
M  V30 7059 N 702.098 1.27442 -0.927168 0
M  V30 7060 C 703.375 1.89473 -0.485742 0
M  V30 7061 C 703.755 1.83922 1.03614 0
M  V30 7062 O 703.103 1.28409 1.89007 0
M  V30 7063 C 703.313 3.33417 -1.03123 0
M  V30 7064 C 704.661 4.10333 -1.0914 0
M  V30 7065 O 705.685 3.4243 -0.98082 0
M  V30 7066 O 704.544 5.31737 -1.26165 0
M  V30 7067 H 701.638 0.812124 -0.156154 0
M  V30 7068 H 704.184 1.35713 -1.01882 0
M  V30 7069 H 702.956 3.31747 -2.07508 0
M  V30 7070 H 702.579 3.94695 -0.479767 0
M  V30 7071 N 703.576 0.692616 1.41565 0
M  V30 7072 C 704.822 0.231408 2.02079 0
M  V30 7073 C 705.177 -1.15514 1.53864 0
M  V30 7074 O 704.47 -1.76786 0.73873 0
M  V30 7075 C 704.664 0.225073 3.56691 0
M  V30 7076 C 704.493 1.60947 4.19912 0
M  V30 7077 C 703.263 2.2116 4.54331 0
M  V30 7078 C 705.461 2.55553 4.46315 0
M  V30 7079 N 703.443 3.52195 5.02824 0
M  V30 7080 C 704.814 3.71263 4.96552 0
M  V30 7081 C 706.869 2.53857 4.28323 0
M  V30 7082 C 705.572 4.85555 5.30687 0
M  V30 7083 C 707.598 3.67259 4.63546 0
M  V30 7084 C 706.96 4.81699 5.13951 0
M  V30 7085 H 703.059 0.130001 0.771119 0
M  V30 7086 H 705.643 0.909459 1.72154 0
M  V30 7087 H 703.814 -0.422453 3.86096 0
M  V30 7088 H 705.546 -0.250685 4.03923 0
M  V30 7089 H 702.301 1.73474 4.40685 0
M  V30 7090 H 702.725 4.19354 5.3148 0
M  V30 7091 H 707.367 1.66598 3.88594 0
M  V30 7092 H 705.085 5.73477 5.69341 0
M  V30 7093 H 708.671 3.67195 4.51286 0
M  V30 7094 H 707.551 5.67995 5.40695 0
M  V30 7095 N 705.054 -1.51416 0.437162 0
M  V30 7096 C 706.47 -1.59349 0.0894459 0
M  V30 7097 C 706.67 -1.44809 -1.40116 0
M  V30 7098 O 705.726 -1.28924 -2.17106 0
M  V30 7099 C 707.039 -2.9446 0.609398 0
M  V30 7100 C 708.587 -3.07769 0.569824 0
M  V30 7101 C 709.062 -4.45404 1.06675 0
M  V30 7102 N 710.553 -4.51723 1.02473 0
M  V30 7103 C 711.288 -5.56544 1.3801 0
M  V30 7104 N 710.784 -6.68784 1.80831 0
M  V30 7105 N 712.577 -5.46901 1.29828 0
M  V30 7106 H 704.728 -1.59112 1.40703 0
M  V30 7107 H 706.991 -0.750031 0.579791 0
M  V30 7108 H 706.697 -3.1047 1.65231 0
M  V30 7109 H 706.571 -3.77184 0.0342236 0
M  V30 7110 H 708.958 -2.91428 -0.464107 0
M  V30 7111 H 709.039 -2.26885 1.1814 0
M  V30 7112 H 708.683 -4.62492 2.09914 0
M  V30 7113 H 708.613 -5.24827 0.431712 0
M  V30 7114 H 711.104 -3.71165 0.710258 0
M  V30 7115 H 711.417 -7.44787 2.06185 0
M  V30 7116 H 709.762 -6.69992 1.84757 0
M  V30 7117 H 712.953 -4.581 0.962397 0
M  V30 7118 H 713.126 -6.2848 1.57851 0
M  V30 7119 N 706.532 -0.168513 -1.56696 0
M  V30 7120 C 707.779 0.477158 -1.96798 0
M  V30 7121 C 708.107 1.63442 -1.05437 0
M  V30 7122 O 707.362 1.95503 -0.0878903 0
M  V30 7123 C 707.661 1.00441 -3.42996 0
M  V30 7124 C 707.327 -0.0366556 -4.50885 0
M  V30 7125 C 705.989 -0.322785 -4.80116 0
M  V30 7126 C 708.341 -0.743447 -5.1587 0
M  V30 7127 C 705.669 -1.32114 -5.71632 0
M  V30 7128 C 708.021 -1.73077 -6.08463 0
M  V30 7129 C 706.685 -2.02437 -6.36062 0
M  V30 7130 H 705.955 0.174604 -0.720135 0
M  V30 7131 H 708.602 -0.259884 -1.89728 0
M  V30 7132 H 706.907 1.81922 -3.47004 0
M  V30 7133 H 708.604 1.51294 -3.71364 0
M  V30 7134 H 705.194 0.196532 -4.28149 0
M  V30 7135 H 709.378 -0.535602 -4.93401 0
M  V30 7136 H 704.634 -1.55482 -5.913 0
M  V30 7137 H 708.808 -2.28382 -6.57886 0
M  V30 7138 H 706.435 -2.79946 -7.06777 0
M  V30 7139 N 708.01 1.57248 0.105221 0
M  V30 7140 C 708.973 2.00388 1.11252 0
M  V30 7141 C 709.973 0.89594 1.33527 0
M  V30 7142 O 711.163 1.16166 1.29811 0
M  V30 7143 C 708.295 2.35589 2.46395 0
M  V30 7144 H 709.488 2.90591 0.741424 0
M  V30 7145 H 707.041 1.52332 0.349956 0
M  V30 7146 H 707.776 1.4831 2.884 0
M  V30 7147 H 707.561 3.16408 2.31578 0
M  V30 7148 H 709.051 2.69658 3.18864 0
M  V30 7149 N 709.488 -0.375779 1.53054 0
M  V30 7150 C 710.765 -1.13453 1.59336 0
M  V30 7151 C 711.145 -2.07379 0.394614 0
M  V30 7152 O 710.493 -2.2004 -0.616 0
M  V30 7153 C 710.703 -1.8826 2.93869 0
M  V30 7154 C 712.051 -2.43155 3.48081 0
M  V30 7155 O 713.075 -1.984 2.95831 0
M  V30 7156 O 711.934 -3.24944 4.39401 0
M  V30 7157 H 709.028 -0.519856 0.643179 0
M  V30 7158 H 711.574 -0.379865 1.65394 0
M  V30 7159 H 710.346 -1.19652 3.72558 0
M  V30 7160 H 709.969 -2.70658 2.91256 0
M  V30 7161 N 710.966 -1.44241 -0.634997 0
M  V30 7162 C 711.899 -1.45274 -1.75985 0
M  V30 7163 C 712.877 -0.312025 -1.59578 0
M  V30 7164 O 714.061 -0.508409 -1.81514 0
M  V30 7165 C 711.188 -1.28173 -3.13511 0
M  V30 7166 C 710.234 -2.45757 -3.48576 0
M  V30 7167 S 711.067 -4.08293 -3.46492 0
M  V30 7168 C 712.223 -3.93608 -4.86645 0
M  V30 7169 H 712.456 -2.40454 -1.74841 0
M  V30 7170 H 709.989 -1.31492 -0.809268 0
M  V30 7171 H 711.947 -1.18993 -3.92875 0
M  V30 7172 H 710.608 -0.34511 -3.12198 0
M  V30 7173 H 709.801 -2.29644 -4.48642 0
M  V30 7174 H 709.403 -2.51657 -2.76667 0
M  V30 7175 H 711.695 -3.57059 -5.75774 0
M  V30 7176 H 712.638 -4.9349 -5.07813 0
M  V30 7177 H 713.046 -3.25737 -4.61038 0
M  V30 7178 N 712.444 0.87505 -1.31075 0
M  V30 7179 C 713.407 1.96333 -1.18263 0
M  V30 7180 C 714.407 1.60416 -0.111106 0
M  V30 7181 O 715.597 1.7044 -0.359987 0
M  V30 7182 C 712.729 3.31036 -0.81414 0
M  V30 7183 H 713.922 2.09125 -2.14958 0
M  V30 7184 H 711.475 1.06271 -1.14614 0
M  V30 7185 H 712.21 3.23944 0.151875 0
M  V30 7186 H 711.995 3.58476 -1.58862 0
M  V30 7187 H 713.485 4.10842 -0.748249 0
M  V30 7188 N 713.922 1.13953 1.08869 0
M  V30 7189 C 714.885 0.824991 2.13838 0
M  V30 7190 C 715.885 -0.168198 1.59918 0
M  V30 7191 O 717.075 0.0595778 1.74098 0
M  V30 7192 C 714.207 0.228938 3.4013 0
M  V30 7193 H 715.4 1.75521 2.43171 0
M  V30 7194 H 712.953 0.94492 1.24503 0
M  V30 7195 H 713.688 -0.710227 3.16427 0
M  V30 7196 H 713.473 0.944243 3.80561 0
M  V30 7197 H 714.963 0.0259223 4.17592 0
M  V30 7198 N 715.4 -1.26948 0.933913 0
M  V30 7199 C 716.648 -1.93704 0.576484 0
M  V30 7200 C 716.969 -1.73702 -0.886145 0
M  V30 7201 O 716.239 -1.08838 -1.62884 0
M  V30 7202 H 714.819 -0.716812 0.210214 0
M  V30 7203 H 717.481 -1.54534 1.18766 0
M  V30 7204 H 716.577 -3.01987 0.788055 0
M  V30 7205 N 716.879 -0.700114 -1.41195 0
M  V30 7206 C 717.812 0.0129614 -2.28196 0
M  V30 7207 C 718.79 0.783367 -1.42486 0
M  V30 7208 O 719.974 0.773238 -1.71911 0
M  V30 7209 C 717.101 1.02575 -3.22794 0
M  V30 7210 C 716.147 0.347977 -4.25078 0
M  V30 7211 S 716.98 -0.912938 -5.27661 0
M  V30 7212 C 718.136 0.0981362 -6.25823 0
M  V30 7213 H 718.369 -0.724927 -2.88326 0
M  V30 7214 H 715.902 -0.490554 -1.464 0
M  V30 7215 H 717.86 1.60491 -3.77826 0
M  V30 7216 H 716.521 1.73624 -2.61751 0
M  V30 7217 H 715.714 1.11305 -4.91556 0
M  V30 7218 H 715.316 -0.15823 -3.73665 0
M  V30 7219 H 717.608 0.949965 -6.70807 0
M  V30 7220 H 718.551 -0.532838 -7.06092 0
M  V30 7221 H 718.959 0.454944 -5.62664 0
M  V30 7222 N 718.357 1.51182 -0.445186 0
M  V30 7223 C 719.605 2.01753 0.11841 0
M  V30 7224 C 719.926 1.33087 1.42523 0
M  V30 7225 O 719.196 0.467891 1.9023 0
M  V30 7226 H 717.776 0.745536 0.0467492 0
M  V30 7227 H 720.438 1.85765 -0.589688 0
M  V30 7228 H 719.534 3.10762 0.288665 0
M  V30 7229 N 719.835 0.176821 1.56605 0
M  V30 7230 C 721.083 -0.465793 1.96659 0
M  V30 7231 C 721.404 -1.63406 1.06412 0
M  V30 7232 O 720.674 -1.95457 0.131603 0
M  V30 7233 H 719.254 -0.175072 0.726195 0
M  V30 7234 H 721.916 0.25929 1.93168 0
M  V30 7235 H 721.012 -0.822138 3.01077 0
M  V30 7236 N 721.313 -1.57302 -0.09688 0
M  V30 7237 C 722.59 -1.7701 -0.832272 0
M  V30 7238 C 722.97 -0.758025 -1.97021 0
M  V30 7239 O 722.318 0.213824 -2.27497 0
M  V30 7240 C 722.528 -3.22725 -1.32851 0
M  V30 7241 C 723.876 -3.85856 -1.772 0
M  V30 7242 O 724.9 -3.26464 -1.42478 0
M  V30 7243 O 723.759 -4.90295 -2.41398 0
M  V30 7244 H 720.853 -0.725558 -0.396856 0
M  V30 7245 H 723.399 -1.69516 -0.0789005 0
M  V30 7246 H 722.171 -3.87921 -0.51312 0
M  V30 7247 H 721.794 -3.34845 -2.14394 0
M  V30 7248 N 722.791 0.367657 -1.53252 0
M  V30 7249 C 724.039 1.10832 -1.68999 0
M  V30 7250 C 724.36 1.89894 -0.443306 0
M  V30 7251 O 723.63 1.88235 0.54262 0
M  V30 7252 H 722.21 0.412153 -0.623008 0
M  V30 7253 H 724.872 0.414775 -1.90435 0
M  V30 7254 H 723.968 1.7993 -2.55013 0
M  V30 7255 N 724.269 1.44576 0.627338 0
M  V30 7256 C 725.515 1.47777 1.38888 0
M  V30 7257 C 725.848 0.111406 1.9388 0
M  V30 7258 O 725.123 -0.87149 1.73883 0
M  V30 7259 C 725.406 2.54119 2.55138 0
M  V30 7260 C 725.259 4.00128 2.0547 0
M  V30 7261 C 726.578 2.56929 3.57317 0
M  V30 7262 H 723.697 0.538048 0.50366 0
M  V30 7263 H 726.339 1.76277 0.708978 0
M  V30 7264 H 724.489 2.29948 3.13139 0
M  V30 7265 H 726.161 4.35444 1.5227 0
M  V30 7266 H 724.404 4.11724 1.36623 0
M  V30 7267 H 725.075 4.7019 2.89181 0
M  V30 7268 H 727.551 2.78536 3.09122 0
M  V30 7269 H 726.427 3.33234 4.36173 0
M  V30 7270 H 726.688 1.6127 4.11636 0
M  V30 7271 N 725.747 -0.868086 1.31537 0
M  V30 7272 C 727.163 -1.15414 1.10235 0
M  V30 7273 C 727.363 -2.01106 -0.125947 0
M  V30 7274 O 726.419 -2.38994 -0.814734 0
M  V30 7275 C 727.732 -1.84445 2.37488 0
M  V30 7276 C 729.28 -1.97139 2.43116 0
M  V30 7277 C 729.755 -2.69585 3.70254 0
M  V30 7278 N 731.246 -2.77119 3.71159 0
M  V30 7279 C 731.981 -3.33791 4.6623 0
M  V30 7280 N 731.477 -3.9138 5.71659 0
M  V30 7281 N 733.27 -3.31767 4.53747 0
M  V30 7282 H 725.421 -0.297109 2.10312 0
M  V30 7283 H 727.684 -0.194227 0.92789 0
M  V30 7284 H 727.39 -1.2893 3.27215 0
M  V30 7285 H 727.264 -2.84709 2.47428 0
M  V30 7286 H 729.651 -2.51818 1.53856 0
M  V30 7287 H 729.732 -0.95912 2.37138 0
M  V30 7288 H 729.376 -2.15572 4.59881 0
M  V30 7289 H 729.306 -3.71223 3.73499 0
M  V30 7290 H 731.797 -2.3625 2.94948 0
M  V30 7291 H 732.11 -4.3274 6.40278 0
M  V30 7292 H 730.455 -3.8975 5.7543 0
M  V30 7293 H 733.646 -2.86016 3.70557 0
M  V30 7294 H 733.819 -3.75636 5.28017 0
M  V30 7295 N 727.225 -1.14528 -1.08264 0
M  V30 7296 C 728.471 -0.91576 -1.80947 0
M  V30 7297 C 728.804 0.55623 -1.86064 0
M  V30 7298 O 728.079 1.41207 -1.33756 0
M  V30 7299 C 728.362 -1.51917 -3.26486 0
M  V30 7300 C 728.215 -3.06111 -3.2957 0
M  V30 7301 C 729.534 -1.19724 -4.23502 0
M  V30 7302 H 726.653 -0.334113 -0.656915 0
M  V30 7303 H 729.295 -1.41547 -1.26746 0
M  V30 7304 H 727.445 -1.0942 -3.72773 0
M  V30 7305 H 729.117 -3.57448 -2.91597 0
M  V30 7306 H 727.36 -3.40483 -2.688 0
M  V30 7307 H 728.031 -3.43438 -4.32151 0
M  V30 7308 H 730.507 -1.56467 -3.85561 0
M  V30 7309 H 729.383 -1.64575 -5.23647 0
M  V30 7310 H 729.644 -0.112771 -4.41956 0
M  V30 7311 N 728.703 1.26451 -0.940633 0
M  V30 7312 C 730.119 1.4608 -0.642859 0
M  V30 7313 C 730.319 1.84765 0.803998 0
M  V30 7314 O 729.375 1.96902 1.58069 0
M  V30 7315 C 730.688 2.54359 -1.60381 0
M  V30 7316 C 732.236 2.6821 -1.61345 0
M  V30 7317 C 732.711 3.79659 -2.56169 0
M  V30 7318 N 734.202 3.87051 -2.54452 0
M  V30 7319 C 734.937 4.72739 -3.24507 0
M  V30 7320 N 734.433 5.6282 -4.03987 0
M  V30 7321 N 736.226 4.66581 -3.13462 0
M  V30 7322 H 728.377 0.996289 -1.87584 0
M  V30 7323 H 730.64 0.498921 -0.80609 0
M  V30 7324 H 730.346 2.32758 -2.6366 0
M  V30 7325 H 730.22 3.52005 -1.35545 0
M  V30 7326 H 732.607 2.89184 -0.587913 0
M  V30 7327 H 732.688 1.7101 -1.90235 0
M  V30 7328 H 732.332 3.59438 -3.58841 0
M  V30 7329 H 732.262 4.76315 -2.2457 0
M  V30 7330 H 734.753 3.22649 -1.96739 0
M  V30 7331 H 735.066 6.25095 -4.54396 0
M  V30 7332 H 733.411 5.62574 -4.08088 0
M  V30 7333 H 736.602 3.9521 -2.50852 0
M  V30 7334 H 736.775 5.33141 -3.68327 0
M  V30 7335 N 730.181 0.707592 1.40822 0
M  V30 7336 C 731.409 0.253073 2.05346 0
M  V30 7337 C 731.824 -1.10218 1.53289 0
M  V30 7338 O 731.181 -1.69112 0.686105 0
M  V30 7339 C 731.232 0.215411 3.60858 0
M  V30 7340 O 730.953 1.51714 4.10992 0
M  V30 7341 C 732.454 -0.258636 4.42545 0
M  V30 7342 H 729.674 0.115256 0.661027 0
M  V30 7343 H 732.218 0.963555 1.80377 0
M  V30 7344 H 730.373 -0.445978 3.84824 0
M  V30 7345 H 730.787 1.41226 5.05129 0
M  V30 7346 H 732.261 -0.233849 5.51504 0
M  V30 7347 H 732.738 -1.2995 4.19535 0
M  V30 7348 H 733.344 0.372186 4.23668 0
M  V30 7349 N 731.66 -1.50943 0.453197 0
M  V30 7350 C 733.076 -1.59245 0.106342 0
M  V30 7351 C 733.276 -1.46287 -1.38572 0
M  V30 7352 O 732.332 -1.31219 -2.15726 0
M  V30 7353 C 733.645 -2.93797 0.640595 0
M  V30 7354 C 735.193 -3.07148 0.602435 0
M  V30 7355 C 735.668 -4.44247 1.11393 0
M  V30 7356 N 737.159 -4.50611 1.07258 0
M  V30 7357 C 737.894 -5.55049 1.43905 0
M  V30 7358 N 737.39 -6.66828 1.87914 0
M  V30 7359 N 739.183 -5.45494 1.35621 0
M  V30 7360 H 731.334 -1.5761 1.42382 0
M  V30 7361 H 733.597 -0.74384 0.587713 0
M  V30 7362 H 733.303 -3.087 1.68515 0
M  V30 7363 H 733.177 -3.77127 0.0742272 0
M  V30 7364 H 735.564 -2.91903 -0.433171 0
M  V30 7365 H 735.645 -2.25619 1.20539 0
M  V30 7366 H 735.289 -4.60239 2.14808 0
M  V30 7367 H 735.219 -5.2434 0.487353 0
M  V30 7368 H 737.71 -3.70391 0.749585 0
M  V30 7369 H 738.023 -7.42558 2.14072 0
M  V30 7370 H 736.368 -6.67995 1.91853 0
M  V30 7371 H 739.559 -4.57053 1.01093 0
M  V30 7372 H 739.732 -6.2677 1.64508 0
M  V30 7373 N 733.138 -0.185124 -1.56509 0
M  V30 7374 C 734.101 0.72591 -2.17401 0
M  V30 7375 C 735.101 1.14819 -1.12575 0
M  V30 7376 O 736.291 1.0629 -1.38015 0
M  V30 7377 C 733.423 1.98979 -2.76803 0
M  V30 7378 H 734.616 0.195588 -2.99262 0
M  V30 7379 H 732.169 0.0644772 -1.56167 0
M  V30 7380 H 732.904 2.56287 -1.98714 0
M  V30 7381 H 732.689 1.69583 -3.53531 0
M  V30 7382 H 734.179 2.63966 -3.23592 0
M  V30 7383 N 734.616 1.57351 0.0885366 0
M  V30 7384 C 735.526 2.05858 1.12516 0
M  V30 7385 C 736.542 0.984758 1.43452 0
M  V30 7386 O 737.718 1.29836 1.53963 0
M  V30 7387 C 734.783 2.47882 2.42395 0
M  V30 7388 C 733.844 3.69487 2.18582 0
M  V30 7389 C 733.077 4.09497 3.42268 0
M  V30 7390 O 733.3 3.49536 4.50755 0
M  V30 7391 O 732.234 5.02406 3.31469 0
M  V30 7392 H 736.06 2.94467 0.743146 0
M  V30 7393 H 733.645 1.46326 0.301507 0
M  V30 7394 H 735.527 2.75509 3.18862 0
M  V30 7395 H 734.202 1.62408 2.8001 0
M  V30 7396 H 733.109 3.46967 1.39875 0
M  V30 7397 H 734.442 4.55761 1.85857 0
M  V30 7398 N 736.094 -0.359525 1.53444 0
M  V30 7399 C 737.024 -1.44662 1.8329 0
M  V30 7400 C 738.005 -1.55617 0.68683 0
M  V30 7401 O 739.19 -1.70086 0.93725 0
M  V30 7402 C 736.32 -2.81923 2.02822 0
M  V30 7403 C 735.274 -2.85787 3.18606 0
M  V30 7404 C 734.6 -4.25781 3.23442 0
M  V30 7405 C 735.9 -2.52762 4.57065 0
M  V30 7406 H 737.594 -1.19934 2.74329 0
M  V30 7407 H 735.14 -0.575517 1.31999 0
M  V30 7408 H 737.093 -3.58005 2.22285 0
M  V30 7409 H 735.817 -3.08051 1.085 0
M  V30 7410 H 734.476 -2.12157 2.98973 0
M  V30 7411 H 734.124 -4.48994 2.26745 0
M  V30 7412 H 733.824 -4.29281 4.01238 0
M  V30 7413 H 735.348 -5.03727 3.45096 0
M  V30 7414 H 736.762 -3.18557 4.76649 0
M  V30 7415 H 735.159 -2.67569 5.37147 0
M  V30 7416 H 736.229 -1.47993 4.61764 0
M  V30 7417 N 737.572 -1.44907 -0.619662 0
M  V30 7418 C 738.519 -1.52654 -1.73105 0
M  V30 7419 C 739.489 -0.373334 -1.6185 0
M  V30 7420 O 740.674 -0.585143 -1.81606 0
M  V30 7421 C 737.814 -1.48769 -3.11387 0
M  V30 7422 C 736.927 -2.74551 -3.33535 0
M  V30 7423 C 736.062 -2.62421 -4.61854 0
M  V30 7424 C 735.101 -3.83312 -4.77219 0
M  V30 7425 N 734.238 -3.69789 -5.96826 0
M  V30 7426 H 739.078 -2.47605 -1.65819 0
M  V30 7427 H 736.615 -1.22875 -0.808719 0
M  V30 7428 H 738.573 -1.44507 -3.91374 0
M  V30 7429 H 737.203 -0.573783 -3.1766 0
M  V30 7430 H 736.255 -2.88953 -2.47408 0
M  V30 7431 H 737.567 -3.64253 -3.40765 0
M  V30 7432 H 736.721 -2.56056 -5.50019 0
M  V30 7433 H 735.46 -1.70298 -4.57001 0
M  V30 7434 H 734.465 -3.90049 -3.87481 0
M  V30 7435 H 735.69 -4.76486 -4.83878 0
M  V30 7436 H 733.636 -2.80426 -5.93041 0
M  V30 7437 H 733.553 -4.53116 -6.05163 0
M  V30 7438 H 734.821 -3.67335 -6.87521 0
M  V30 7439 N 739.05 0.861098 -1.31996 0
M  V30 7440 C 740.013 1.95068 -1.20338 0
M  V30 7441 C 741.013 1.60289 -0.128114 0
M  V30 7442 O 742.203 1.70048 -0.378044 0
M  V30 7443 C 739.335 3.30153 -0.849205 0
M  V30 7444 H 740.528 2.06833 -2.17164 0
M  V30 7445 H 738.081 1.05049 -1.15734 0
M  V30 7446 H 738.816 3.24087 0.117508 0
M  V30 7447 H 738.601 3.56771 -1.62655 0
M  V30 7448 H 740.091 4.10025 -0.791782 0
M  V30 7449 N 740.528 1.15101 1.07655 0
M  V30 7450 C 741.491 0.847625 2.12951 0
M  V30 7451 C 742.491 -0.151227 1.60087 0
M  V30 7452 O 743.681 0.0780399 1.74025 0
M  V30 7453 C 740.813 0.265 3.39868 0
M  V30 7454 H 742.006 1.7809 2.41296 0
M  V30 7455 H 739.559 0.958072 1.23494 0
M  V30 7456 H 740.294 -0.676625 3.17163 0
M  V30 7457 H 740.079 0.984554 3.79538 0
M  V30 7458 H 741.569 0.0702121 4.17541 0
M  V30 7459 N 742.006 -1.2595 0.947325 0
M  V30 7460 C 742.936 -2.28521 0.479604 0
M  V30 7461 C 743.917 -1.63469 -0.470293 0
M  V30 7462 O 745.102 -1.90627 -0.370824 0
M  V30 7463 C 742.232 -3.46397 -0.250289 0
M  V30 7464 C 741.186 -4.23578 0.613643 0
M  V30 7465 C 740.512 -5.34131 -0.246568 0
M  V30 7466 C 741.812 -4.86979 1.88809 0
M  V30 7467 H 743.506 -2.67895 1.33688 0
M  V30 7468 H 741.052 -1.28783 0.644274 0
M  V30 7469 H 743.005 -4.17269 -0.588576 0
M  V30 7470 H 741.729 -3.05993 -1.14175 0
M  V30 7471 H 740.388 -3.54478 0.93491 0
M  V30 7472 H 740.036 -4.89968 -1.13756 0
M  V30 7473 H 739.736 -5.86683 0.328123 0
M  V30 7474 H 741.26 -6.07839 -0.579986 0
M  V30 7475 H 742.674 -5.50034 1.61666 0
M  V30 7476 H 741.071 -5.49675 2.40784 0
M  V30 7477 H 742.141 -4.09575 2.5957 0
M  V30 7478 N 743.484 -0.715051 -1.40445 0
M  V30 7479 C 744.761 -0.181503 -1.94756 0
M  V30 7480 C 745.141 1.31268 -1.65324 0
M  V30 7481 O 744.489 2.0686 -0.970631 0
M  V30 7482 C 744.699 -0.493663 -3.45491 0
M  V30 7483 C 746.047 -0.432032 -4.22396 0
M  V30 7484 O 747.071 -0.429692 -3.53599 0
M  V30 7485 O 745.93 -0.409091 -5.44967 0
M  V30 7486 H 743.024 -0.0263989 -0.826579 0
M  V30 7487 H 745.57 -0.792546 -1.50056 0
M  V30 7488 H 744.342 -1.52713 -3.6027 0
M  V30 7489 H 743.965 0.14737 -3.97327 0
M  V30 7490 N 744.962 1.50701 -0.461195 0
M  V30 7491 C 745.909 2.2831 0.338094 0
M  V30 7492 C 746.879 1.32928 0.995957 0
M  V30 7493 O 748.064 1.61857 1.0103 0
M  V30 7494 C 745.204 3.14539 1.41983 0
M  V30 7495 C 744.317 4.24942 0.77773 0
M  V30 7496 C 743.452 4.98443 1.83652 0
M  V30 7497 C 742.491 6.00733 1.17413 0
M  V30 7498 N 741.628 6.6755 2.17533 0
M  V30 7499 H 746.468 2.96167 -0.330051 0
M  V30 7500 H 744.005 1.4606 -0.174611 0
M  V30 7501 H 745.963 3.62877 2.05855 0
M  V30 7502 H 744.593 2.48749 2.05727 0
M  V30 7503 H 743.645 3.80391 0.0266924 0
M  V30 7504 H 744.957 4.98151 0.254362 0
M  V30 7505 H 744.111 5.50449 2.55129 0
M  V30 7506 H 742.85 4.24917 2.39367 0
M  V30 7507 H 741.855 5.47997 0.444944 0
M  V30 7508 H 743.08 6.76227 0.624006 0
M  V30 7509 H 741.026 5.96823 2.72284 0
M  V30 7510 H 740.943 7.36603 1.70154 0
M  V30 7511 H 742.211 7.24178 2.88421 0
M  V30 7512 N 746.441 0.193421 1.56409 0
M  V30 7513 C 747.404 -0.714371 2.17783 0
M  V30 7514 C 748.404 -1.1422 1.13183 0
M  V30 7515 O 749.594 -1.05557 1.38576 0
M  V30 7516 C 746.726 -1.97509 2.77855 0
M  V30 7517 H 747.919 -0.179714 2.99361 0
M  V30 7518 H 745.472 -0.0561944 1.56199 0
M  V30 7519 H 746.207 -2.5523 2.0007 0
M  V30 7520 H 745.992 -1.67706 3.54425 0
M  V30 7521 H 747.482 -2.62246 3.24987 0
M  V30 7522 N 747.919 -1.57396 -0.0801906 0
M  V30 7523 C 749.166 -1.86836 -0.780927 0
M  V30 7524 C 749.494 -0.784012 -1.77999 0
M  V30 7525 O 748.749 0.220881 -1.94449 0
M  V30 7526 C 749.048 -3.22915 -1.53169 0
M  V30 7527 C 748.714 -4.45843 -0.67339 0
M  V30 7528 C 747.376 -4.79213 -0.436829 0
M  V30 7529 C 749.728 -5.21142 -0.0776786 0
M  V30 7530 C 747.056 -5.853 0.405062 0
M  V30 7531 C 749.408 -6.28119 0.751619 0
M  V30 7532 C 748.072 -6.59995 0.998131 0
M  V30 7533 H 747.342 -0.683682 -0.285761 0
M  V30 7534 H 749.989 -1.91454 -0.0419435 0
M  V30 7535 H 748.294 -3.14049 -2.34265 0
M  V30 7536 H 749.991 -3.42926 -2.07853 0
M  V30 7537 H 746.581 -4.19721 -0.867891 0
M  V30 7538 H 750.765 -4.95682 -0.247572 0
M  V30 7539 H 746.021 -6.084 0.60488 0
M  V30 7540 H 750.195 -6.8563 1.22 0
M  V30 7541 H 747.822 -7.42027 1.65227 0
M  V30 7542 N 749.397 0.351382 -1.53633 0
M  V30 7543 C 750.36 1.41403 -1.80383 0
M  V30 7544 C 751.36 1.45963 -0.674635 0
M  V30 7545 O 752.55 1.46476 -0.942895 0
M  V30 7546 C 749.682 2.80401 -1.93876 0
M  V30 7547 H 750.875 1.18951 -2.75301 0
M  V30 7548 H 748.428 0.58533 -1.44926 0
M  V30 7549 H 749.163 3.08147 -1.01074 0
M  V30 7550 H 748.948 2.78488 -2.7602 0
M  V30 7551 H 750.438 3.57329 -2.16116 0
M  V30 7552 N 750.875 1.45233 0.611969 0
M  V30 7553 C 752.103 1.52539 1.39784 0
M  V30 7554 C 752.518 0.156533 1.8815 0
M  V30 7555 O 751.875 -0.84112 1.61961 0
M  V30 7556 C 751.926 2.50614 2.60528 0
M  V30 7557 O 751.647 3.8218 2.14173 0
M  V30 7558 C 753.148 2.67574 3.53439 0
M  V30 7559 H 750.368 0.51674 0.428043 0
M  V30 7560 H 752.912 1.90379 0.746727 0
M  V30 7561 H 751.067 2.15858 3.2169 0
M  V30 7562 H 751.481 4.35305 2.92592 0
M  V30 7563 H 752.955 3.40184 4.34717 0
M  V30 7564 H 753.432 1.73458 4.03496 0
M  V30 7565 H 754.038 3.0331 2.98133 0
M  V30 7566 N 752.353 -0.854086 1.3245 0
M  V30 7567 C 753.769 -1.14238 1.11453 0
M  V30 7568 C 753.969 -2.01228 -0.10461 0
M  V30 7569 O 753.025 -2.39845 -0.789339 0
M  V30 7570 C 754.338 -1.81916 2.39431 0
M  V30 7571 C 755.886 -1.94549 2.45193 0
M  V30 7572 C 756.361 -2.65642 3.73093 0
M  V30 7573 N 757.852 -2.73167 3.74078 0
M  V30 7574 C 758.587 -3.28828 4.69744 0
M  V30 7575 N 758.083 -3.85295 5.75778 0
M  V30 7576 N 759.876 -3.26936 4.57241 0
M  V30 7577 H 752.027 -0.274786 2.10615 0
M  V30 7578 H 754.29 -0.184375 0.929898 0
M  V30 7579 H 753.996 -1.25452 3.28565 0
M  V30 7580 H 753.87 -2.82068 2.50434 0
M  V30 7581 H 756.257 -2.50172 1.56518 0
M  V30 7582 H 756.338 -0.933914 2.38142 0
M  V30 7583 H 755.982 -2.10683 4.62142 0
M  V30 7584 H 755.912 -3.6724 3.77415 0
M  V30 7585 H 758.403 -2.33108 2.97438 0
M  V30 7586 H 758.716 -4.25925 6.44832 0
M  V30 7587 H 757.061 -3.83625 5.79531 0
M  V30 7588 H 760.252 -2.8207 3.7357 0
M  V30 7589 H 760.425 -3.70014 5.31971 0
M  V30 7590 N 753.831 -1.1567 -1.07043 0
M  V30 7591 C 755.079 -0.931673 -1.79344 0
M  V30 7592 C 755.4 0.542421 -1.87304 0
M  V30 7593 O 754.67 1.39418 -1.37621 0
M  V30 7594 H 753.25 -0.34171 -0.664262 0
M  V30 7595 H 755.912 -1.45795 -1.29344 0
M  V30 7596 H 755.008 -1.34379 -2.81689 0
M  V30 7597 N 755.309 1.25446 -0.953992 0
M  V30 7598 C 756.725 1.4539 -0.658316 0
M  V30 7599 C 756.925 1.85607 0.784356 0
M  V30 7600 O 755.981 1.98568 1.55972 0
M  V30 7601 C 757.294 2.52643 -1.6307 0
M  V30 7602 C 758.842 2.66484 -1.64181 0
M  V30 7603 C 759.317 3.76921 -2.60182 0
M  V30 7604 N 760.808 3.84331 -2.58542 0
M  V30 7605 C 761.543 4.69271 -3.29503 0
M  V30 7606 N 761.039 5.58503 -4.09934 0
M  V30 7607 N 762.832 4.6323 -3.18393 0
M  V30 7608 H 754.983 0.976337 -1.8863 0
M  V30 7609 H 757.246 0.490343 -0.811337 0
M  V30 7610 H 756.952 2.29949 -2.66114 0
M  V30 7611 H 756.826 3.50547 -1.39271 0
M  V30 7612 H 759.213 2.88545 -0.618552 0
M  V30 7613 H 759.294 1.68982 -1.92038 0
M  V30 7614 H 758.938 3.55612 -3.62633 0
M  V30 7615 H 758.868 4.73906 -2.29609 0
M  V30 7616 H 761.359 3.20544 -2.0015 0
M  V30 7617 H 761.672 6.20241 -4.61 0
M  V30 7618 H 760.017 5.58214 -4.14032 0
M  V30 7619 H 763.208 3.92527 -2.5503 0
M  V30 7620 H 763.381 5.29204 -3.73961 0
M  V30 7621 N 756.787 0.722489 1.40064 0
M  V30 7622 C 758.034 0.264979 2.00759 0
M  V30 7623 C 758.362 -1.14395 1.57302 0
M  V30 7624 O 757.617 -1.79165 0.787298 0
M  V30 7625 C 757.916 0.300682 3.56133 0
M  V30 7626 C 757.582 1.66087 4.19197 0
M  V30 7627 C 756.244 2.03319 4.36136 0
M  V30 7628 C 758.596 2.55452 4.54306 0
M  V30 7629 C 755.924 3.29448 4.8547 0
M  V30 7630 C 758.276 3.8094 5.05042 0
M  V30 7631 C 756.94 4.1828 5.2019 0
M  V30 7632 H 756.21 0.0969625 0.734629 0
M  V30 7633 H 758.857 0.926877 1.67575 0
M  V30 7634 H 757.162 -0.44479 3.89267 0
M  V30 7635 H 758.859 -0.0712542 4.00937 0
M  V30 7636 H 755.449 1.36137 4.06405 0
M  V30 7637 H 759.633 2.27961 4.40849 0
M  V30 7638 H 754.889 3.58338 4.95382 0
M  V30 7639 H 759.063 4.50351 5.31184 0
M  V30 7640 H 756.69 5.16081 5.58179 0
M  V30 7641 N 758.265 -1.50454 0.469181 0
M  V30 7642 C 759.197 -2.26319 -0.362247 0
M  V30 7643 C 760.21 -1.31574 -0.958751 0
M  V30 7644 O 761.399 -1.57099 -0.847482 0
M  V30 7645 C 758.499 -3.02808 -1.52187 0
M  V30 7646 C 757.672 -4.24893 -1.03849 0
M  V30 7647 C 756.731 -4.83691 -2.07194 0
M  V30 7648 O 755.757 -5.44659 -1.65333 0
M  V30 7649 N 756.959 -4.70522 -3.39985 0
M  V30 7650 H 759.724 -2.98312 0.288124 0
M  V30 7651 H 757.285 -1.59099 0.299856 0
M  V30 7652 H 759.277 -3.39023 -2.21011 0
M  V30 7653 H 757.847 -2.33625 -2.07697 0
M  V30 7654 H 757.067 -3.93806 -0.176203 0
M  V30 7655 H 758.355 -5.04053 -0.693435 0
M  V30 7656 H 757.753 -4.2203 -3.76706 0
M  V30 7657 H 756.31 -5.11011 -4.04612 0
M  V30 7658 N 759.743 -0.201713 -1.56304 0
M  V30 7659 C 760.673 0.71155 -2.22394 0
M  V30 7660 C 761.654 1.21625 -1.18917 0
M  V30 7661 O 762.839 1.26388 -1.47444 0
M  V30 7662 C 759.969 1.92837 -2.88845 0
M  V30 7663 C 758.923 1.55831 -3.98623 0
M  V30 7664 C 758.249 2.85228 -4.52271 0
M  V30 7665 C 759.549 0.763249 -5.16693 0
M  V30 7666 H 761.243 0.160573 -2.98969 0
M  V30 7667 H 758.789 0.0757916 -1.438 0
M  V30 7668 H 760.742 2.57253 -3.33764 0
M  V30 7669 H 759.466 2.50398 -2.09686 0
M  V30 7670 H 758.125 0.9377 -3.54405 0
M  V30 7671 H 757.773 3.40893 -3.69866 0
M  V30 7672 H 757.473 2.6121 -5.26349 0
M  V30 7673 H 758.997 3.50622 -4.99897 0
M  V30 7674 H 760.411 1.31066 -5.58117 0
M  V30 7675 H 758.808 0.620935 -5.96879 0
M  V30 7676 H 759.878 -0.234322 -4.84334 0
M  V30 7677 N 761.222 1.57436 0.0718424 0
M  V30 7678 C 762.471 1.86431 0.769826 0
M  V30 7679 C 762.784 0.794355 1.78744 0
M  V30 7680 O 763.99 0.972148 2.53499 0
M  V30 7681 C 762.446 3.307 1.42006 0
M  V30 7682 C 762.054 4.45824 0.441017 0
M  V30 7683 C 763.798 3.68894 2.10041 0
M  V30 7684 C 761.705 5.81134 1.09717 0
M  V30 7685 H 760.635 0.695474 0.291259 0
M  V30 7686 H 763.286 1.83485 0.0231224 0
M  V30 7687 H 761.668 3.28257 2.21502 0
M  V30 7688 H 762.842 4.59659 -0.32413 0
M  V30 7689 H 761.157 4.16181 -0.134886 0
M  V30 7690 H 763.754 4.67281 2.59908 0
M  V30 7691 H 764.097 2.98692 2.89981 0
M  V30 7692 H 764.63 3.73326 1.37376 0
M  V30 7693 H 761.369 6.54628 0.338095 0
M  V30 7694 H 760.889 5.711 1.83317 0
M  V30 7695 H 762.568 6.26468 1.617 0
M  V30 7696 N 762.7 -0.34323 1.53817 0
M  V30 7697 C 763.61 -1.44493 1.84821 0
M  V30 7698 C 764.626 -1.57556 0.738381 0
M  V30 7699 O 765.802 -1.73026 1.03072 0
M  V30 7700 C 762.867 -2.79478 2.05166 0
M  V30 7701 C 761.928 -2.75756 3.29025 0
M  V30 7702 C 761.161 -4.04302 3.4839 0
M  V30 7703 O 761.384 -5.01595 2.71586 0
M  V30 7704 O 760.318 -4.08754 4.41819 0
M  V30 7705 H 764.144 -1.21209 2.78464 0
M  V30 7706 H 761.729 -0.535437 1.39476 0
M  V30 7707 H 763.611 -3.59419 2.19991 0
M  V30 7708 H 762.286 -3.02692 1.14713 0
M  V30 7709 H 761.193 -1.94434 3.19603 0
M  V30 7710 H 762.526 -2.57495 4.19472 0
M  V30 7711 N 764.178 -1.45556 -0.604258 0
M  V30 7712 C 765.141 -1.54091 -1.69672 0
M  V30 7713 C 766.141 -0.420076 -1.55216 0
M  V30 7714 O 767.331 -0.683671 -1.60224 0
M  V30 7715 C 764.463 -1.44063 -3.08964 0
M  V30 7716 H 765.656 -2.51431 -1.6347 0
M  V30 7717 H 763.209 -1.33046 -0.820273 0
M  V30 7718 H 763.944 -0.479201 -3.2074 0
M  V30 7719 H 763.729 -2.25362 -3.20865 0
M  V30 7720 H 765.219 -1.53075 -3.88533 0
M  V30 7721 N 765.656 0.84705 -1.32902 0
M  V30 7722 C 766.589 1.96038 -1.1681 0
M  V30 7723 C 767.567 1.62468 -0.0656144 0
M  V30 7724 O 768.751 1.87136 -0.226339 0
M  V30 7725 C 765.878 3.29362 -0.789839 0
M  V30 7726 C 764.924 3.81908 -1.89865 0
M  V30 7727 S 765.757 4.04576 -3.50826 0
M  V30 7728 C 766.913 5.40863 -3.14989 0
M  V30 7729 H 767.146 2.09387 -2.11055 0
M  V30 7730 H 764.679 0.999896 -1.1765 0
M  V30 7731 H 766.637 4.06405 -0.578369 0
M  V30 7732 H 765.298 3.13815 0.133878 0
M  V30 7733 H 764.491 4.78357 -1.58716 0
M  V30 7734 H 764.093 3.11733 -2.06636 0
M  V30 7735 H 766.385 6.23393 -2.65306 0
M  V30 7736 H 767.328 5.7698 -4.10488 0
M  V30 7737 H 767.736 5.05228 -2.51804 0
M  V30 7738 N 767.134 1.16236 1.06428 0
M  V30 7739 C 768.383 0.937523 1.78587 0
M  V30 7740 C 768.696 -0.536 1.88113 0
M  V30 7741 O 769.902 -0.878697 2.56887 0
M  V30 7742 C 768.358 1.62808 3.2097 0
M  V30 7743 C 767.966 3.13927 3.19615 0
M  V30 7744 C 769.71 1.48515 3.97673 0
M  V30 7745 C 767.617 3.75727 4.56709 0
M  V30 7746 H 766.547 0.347125 0.669343 0
M  V30 7747 H 769.198 1.39353 1.19385 0
M  V30 7748 H 767.58 1.09977 3.80422 0
M  V30 7749 H 768.754 3.7359 2.69753 0
M  V30 7750 H 767.069 3.28089 2.56411 0
M  V30 7751 H 769.666 1.92069 4.99013 0
M  V30 7752 H 770.009 0.433913 4.14032 0
M  V30 7753 H 770.542 1.98494 3.44739 0
M  V30 7754 H 767.281 4.80793 4.45554 0
M  V30 7755 H 766.801 3.20849 5.0677 0
M  V30 7756 H 768.48 3.77203 5.25668 0
M  V30 7757 N 768.612 -1.24939 0.960631 0
M  V30 7758 C 770.023 -1.74701 0.658529 0
M  V30 7759 C 770.374 -1.77967 -0.825959 0
M  V30 7760 O 769.499 -1.40444 -1.64634 0
M  V30 7761 C 770.094 -3.17263 1.18867 0
M  V30 7762 C 768.653 -3.64561 0.936614 0
M  V30 7763 C 767.8 -2.43423 1.32817 0
M  V30 7764 H 770.751 -1.10741 1.13676 0
M  V30 7765 H 770.772 -3.76481 0.551589 0
M  V30 7766 H 770.284 -3.14854 2.26912 0
M  V30 7767 H 768.385 -3.72378 -0.128608 0
M  V30 7768 H 768.498 -4.52392 1.57729 0
M  V30 7769 H 766.862 -2.43513 0.746548 0
M  V30 7770 H 767.645 -2.437 2.41796 0
M  V30 7771 N 770.09 -0.729906 -1.39679 0
M  V30 7772 C 771.506 -0.404951 -1.54377 0
M  V30 7773 C 771.706 1.08476 -1.6981 0
M  V30 7774 O 770.762 1.87087 -1.69572 0
M  V30 7775 C 772.075 -1.18352 -2.76429 0
M  V30 7776 C 773.623 -1.17124 -2.9026 0
M  V30 7777 C 774.098 -1.93227 -4.15244 0
M  V30 7778 N 775.589 -1.90368 -4.22273 0
M  V30 7779 C 776.324 -2.46065 -5.17918 0
M  V30 7780 N 775.82 -3.10378 -6.19385 0
M  V30 7781 N 777.613 -2.36127 -5.10099 0
M  V30 7782 H 769.764 -1.69567 -1.27909 0
M  V30 7783 H 772.027 -0.717527 -0.619564 0
M  V30 7784 H 771.733 -2.23743 -2.71352 0
M  V30 7785 H 771.607 -0.784589 -3.6895 0
M  V30 7786 H 773.994 -0.125478 -2.94833 0
M  V30 7787 H 774.075 -1.60951 -1.98817 0
M  V30 7788 H 773.719 -2.97802 -4.11432 0
M  V30 7789 H 773.649 -1.4681 -5.05722 0
M  V30 7790 H 776.14 -1.4351 -3.4959 0
M  V30 7791 H 776.453 -3.50358 -6.88817 0
M  V30 7792 H 774.798 -3.14467 -6.19787 0
M  V30 7793 H 777.989 -1.85529 -4.29763 0
M  V30 7794 H 778.162 -2.79833 -5.84463 0
M  V30 7795 N 771.568 1.50203 -0.477153 0
M  V30 7796 C 772.816 2.01959 0.0755889 0
M  V30 7797 C 773.137 1.3608 1.39668 0
M  V30 7798 O 772.407 0.508136 1.89195 0
M  V30 7799 H 770.987 0.74636 0.0309248 0
M  V30 7800 H 773.649 1.84473 -0.628959 0
M  V30 7801 H 772.745 3.11305 0.222683 0
M  V30 7802 N 773.046 0.209999 1.56195 0
M  V30 7803 C 774.292 -0.425442 1.98287 0
M  V30 7804 C 774.625 -1.60232 1.09724 0
M  V30 7805 O 773.9 -1.93902 0.152414 0
M  V30 7806 C 774.183 -0.871189 3.49403 0
M  V30 7807 C 774.036 0.308527 4.48741 0
M  V30 7808 C 775.355 -1.73146 4.04609 0
M  V30 7809 H 772.474 -0.153169 0.720908 0
M  V30 7810 H 775.116 0.303916 1.87554 0
M  V30 7811 H 773.266 -1.49266 3.58681 0
M  V30 7812 H 774.938 0.946487 4.51486 0
M  V30 7813 H 773.181 0.957878 4.23092 0
M  V30 7814 H 773.852 -0.0461143 5.51981 0
M  V30 7815 H 776.328 -1.2072 3.98203 0
M  V30 7816 H 775.204 -2.01228 5.10684 0
M  V30 7817 H 775.465 -2.69083 3.5078 0
M  V30 7818 N 774.524 -1.57472 -0.0634922 0
M  V30 7819 C 775.454 -2.07297 -1.07473 0
M  V30 7820 C 776.435 -0.968162 -1.39859 0
M  V30 7821 O 777.62 -1.24139 -1.49343 0
M  V30 7822 C 774.75 -2.52381 -2.38581 0
M  V30 7823 C 773.704 -3.66813 -2.20526 0
M  V30 7824 C 773.03 -3.97982 -3.57092 0
M  V30 7825 C 774.33 -4.96553 -1.61965 0
M  V30 7826 H 776.024 -2.92033 -0.660092 0
M  V30 7827 H 773.57 -1.40488 -0.316074 0
M  V30 7828 H 775.523 -2.85852 -3.09624 0
M  V30 7829 H 774.247 -1.64684 -2.8204 0
M  V30 7830 H 772.906 -3.33639 -1.51924 0
M  V30 7831 H 772.554 -3.07403 -3.98136 0
M  V30 7832 H 772.254 -4.7504 -3.45848 0
M  V30 7833 H 773.778 -4.33956 -4.29552 0
M  V30 7834 H 775.192 -5.28201 -2.22883 0
M  V30 7835 H 773.589 -5.7799 -1.61394 0
M  V30 7836 H 774.659 -4.81396 -0.581918 0
M  V30 7837 N 776.003 0.335068 -1.53997 0
M  V30 7838 C 777.228 1.09859 -1.75914 0
M  V30 7839 C 777.653 1.81308 -0.500915 0
M  V30 7840 O 777.011 1.72854 0.54693 0
M  V30 7841 C 777.059 2.08122 -2.94478 0
M  V30 7842 O 776.163 3.15805 -2.65219 0
M  V30 7843 H 775.504 0.317313 -0.583274 0
M  V30 7844 H 778.034 0.382872 -2.00986 0
M  V30 7845 H 778.044 2.51195 -3.21504 0
M  V30 7846 H 776.719 1.55517 -3.8573 0
M  V30 7847 H 775.296 2.77489 -2.49107 0
M  V30 7848 N 777.481 1.45874 0.596531 0
M  V30 7849 C 778.758 1.40942 1.35627 0
M  V30 7850 C 779.138 0.0857066 2.10926 0
M  V30 7851 O 778.486 -0.932544 2.08605 0
M  V30 7852 C 778.696 2.63027 2.29386 0
M  V30 7853 C 780.044 3.08588 2.91649 0
M  V30 7854 O 781.068 2.63478 2.39704 0
M  V30 7855 O 779.927 3.86902 3.85965 0
M  V30 7856 H 777.021 0.559838 0.608696 0
M  V30 7857 H 779.567 1.5802 0.618698 0
M  V30 7858 H 778.339 3.5094 1.7308 0
M  V30 7859 H 777.962 2.48338 3.10506 0
M  V30 7860 N 778.959 -0.83999 1.33349 0
M  V30 7861 C 780.187 -1.62728 1.27778 0
M  V30 7862 C 780.602 -1.88191 -0.151505 0
M  V30 7863 O 779.959 -1.46128 -1.09329 0
M  V30 7864 C 780.01 -2.97813 2.04913 0
M  V30 7865 O 779.731 -2.73469 3.42266 0
M  V30 7866 C 781.232 -3.92245 2.0654 0
M  V30 7867 H 778.452 -0.506374 0.440257 0
M  V30 7868 H 780.996 -1.04637 1.75703 0
M  V30 7869 H 779.151 -3.52509 1.60674 0
M  V30 7870 H 779.565 -3.59483 3.81932 0
M  V30 7871 H 781.039 -4.84249 2.64966 0
M  V30 7872 H 781.516 -4.26332 1.05537 0
M  V30 7873 H 782.122 -3.43487 2.50793 0
M  V30 7874 N 780.437 -1.16799 -1.0581 0
M  V30 7875 C 781.367 -0.902241 -2.15364 0
M  V30 7876 C 782.348 0.153351 -1.69407 0
M  V30 7877 O 783.533 0.00442032 -1.94199 0
M  V30 7878 C 780.663 -0.407911 -3.44896 0
M  V30 7879 C 779.617 -1.40197 -4.04387 0
M  V30 7880 C 778.943 -0.765848 -5.29187 0
M  V30 7881 C 780.243 -2.77316 -4.42598 0
M  V30 7882 H 781.937 -1.81841 -2.37853 0
M  V30 7883 H 779.483 -0.875731 -1.14311 0
M  V30 7884 H 781.436 -0.20945 -4.20879 0
M  V30 7885 H 780.16 0.54378 -3.22041 0
M  V30 7886 H 778.819 -1.58707 -3.30466 0
M  V30 7887 H 778.467 0.192482 -5.02632 0
M  V30 7888 H 778.167 -1.42939 -5.69949 0
M  V30 7889 H 779.691 -0.577519 -6.07863 0
M  V30 7890 H 781.105 -2.62561 -5.09642 0
M  V30 7891 H 779.502 -3.4019 -4.94359 0
M  V30 7892 H 780.572 -3.32199 -3.53231 0
M  V30 7893 N 781.915 1.24427 -0.967243 0
M  V30 7894 C 782.878 2.23637 -0.501927 0
M  V30 7895 C 783.878 1.55712 0.401283 0
M  V30 7896 O 785.068 1.73085 0.196808 0
M  V30 7897 C 782.2 3.39804 0.273176 0
M  V30 7898 H 783.393 2.66317 -1.37897 0
M  V30 7899 H 780.946 1.37033 -0.751783 0
M  V30 7900 H 781.681 3.02562 1.16733 0
M  V30 7901 H 781.466 3.90303 -0.37498 0
M  V30 7902 H 782.956 4.13443 0.587776 0
M  V30 7903 N 783.393 0.737304 1.3929 0
M  V30 7904 C 784.809 0.413132 1.5416 0
M  V30 7905 C 785.009 -1.07574 1.70382 0
M  V30 7906 O 784.065 -1.86185 1.70562 0
M  V30 7907 C 785.378 1.19817 2.75798 0
M  V30 7908 C 786.926 1.18662 2.89635 0
M  V30 7909 C 787.401 1.95427 4.14213 0
M  V30 7910 N 788.892 1.92605 4.21257 0
M  V30 7911 C 789.627 2.48808 5.16606 0
M  V30 7912 N 789.123 3.13659 6.1773 0
M  V30 7913 N 790.916 2.38829 5.08839 0
M  V30 7914 H 783.067 1.70243 1.27008 0
M  V30 7915 H 785.33 0.720802 0.61575 0
M  V30 7916 H 785.036 2.25179 2.70161 0
M  V30 7917 H 784.91 0.804144 3.68529 0
M  V30 7918 H 787.297 0.141112 2.94762 0
M  V30 7919 H 787.378 1.62003 1.97961 0
M  V30 7920 H 787.022 2.9998 4.09847 0
M  V30 7921 H 786.952 1.4949 5.04936 0
M  V30 7922 H 789.443 1.45362 3.48824 0
M  V30 7923 H 789.756 3.54006 6.8695 0
M  V30 7924 H 788.101 3.17749 6.1811 0
M  V30 7925 H 791.292 1.87806 4.28773 0
M  V30 7926 H 791.465 2.82929 5.82971 0
M  V30 7927 N 784.871 -1.49948 0.485112 0
M  V30 7928 C 786.118 -2.02396 -0.0650059 0
M  V30 7929 C 786.446 -1.36606 -1.38452 0
M  V30 7930 O 785.701 -0.485476 -1.89583 0
M  V30 7931 C 786 -3.56282 -0.282434 0
M  V30 7932 C 785.666 -4.40625 0.957106 0
M  V30 7933 C 784.328 -4.63393 1.29692 0
M  V30 7934 C 786.68 -4.89799 1.78176 0
M  V30 7935 C 784.008 -5.3258 2.4612 0
M  V30 7936 C 786.36 -5.60266 2.93743 0
M  V30 7937 C 785.024 -5.81284 3.28124 0
M  V30 7938 H 784.294 -0.740618 -0.0237873 0
M  V30 7939 H 786.941 -1.80416 0.642044 0
M  V30 7940 H 785.246 -3.76853 -1.07186 0
M  V30 7941 H 786.943 -3.94442 -0.722276 0
M  V30 7942 H 783.533 -4.23133 0.682384 0
M  V30 7943 H 787.717 -4.7205 1.53239 0
M  V30 7944 H 782.973 -5.47059 2.73014 0
M  V30 7945 H 787.147 -5.97347 3.5798 0
M  V30 7946 H 784.774 -6.34671 4.18446 0
M  V30 7947 N 786.349 -0.21828 -1.56081 0
M  V30 7948 C 787.595 0.414921 -1.9851 0
M  V30 7949 C 787.928 1.59648 -1.10573 0
M  V30 7950 O 787.203 1.93818 -0.162695 0
M  V30 7951 C 787.486 0.852647 -3.4986 0
M  V30 7952 C 787.339 -0.33232 -4.48571 0
M  V30 7953 C 788.658 1.70998 -4.05521 0
M  V30 7954 H 785.777 0.149344 -0.72171 0
M  V30 7955 H 788.419 -0.313858 -1.8739 0
M  V30 7956 H 786.569 1.47362 -3.59467 0
M  V30 7957 H 788.241 -0.970418 -4.50977 0
M  V30 7958 H 786.484 -0.980302 -4.22578 0
M  V30 7959 H 787.155 0.0168407 -5.51997 0
M  V30 7960 H 789.631 1.18606 -3.98838 0
M  V30 7961 H 788.507 1.98517 -5.11744 0
M  V30 7962 H 788.768 2.67219 -3.52202 0
M  V30 7963 N 787.827 1.57504 0.0551401 0
M  V30 7964 C 788.759 2.0158 1.09078 0
M  V30 7965 C 789.772 0.92434 1.34014 0
M  V30 7966 O 790.961 1.20202 1.31961 0
M  V30 7967 C 788.061 2.35385 2.43818 0
M  V30 7968 C 787.234 3.66588 2.38605 0
M  V30 7969 C 786.293 3.87874 3.55585 0
M  V30 7970 O 785.319 4.59259 3.36258 0
M  V30 7971 N 786.521 3.31503 4.76536 0
M  V30 7972 H 789.286 2.91039 0.71529 0
M  V30 7973 H 786.847 1.60058 0.243532 0
M  V30 7974 H 788.839 2.46784 3.20749 0
M  V30 7975 H 787.409 1.51731 2.73307 0
M  V30 7976 H 786.629 3.65787 1.46947 0
M  V30 7977 H 787.917 4.52706 2.32239 0
M  V30 7978 H 787.315 2.73592 4.9514 0
M  V30 7979 H 785.872 3.48324 5.50921 0
M  V30 7980 N 789.305 -0.326896 1.54172 0
M  V30 7981 C 790.553 -1.06313 1.71878 0
M  V30 7982 C 790.874 -1.88652 0.493498 0
M  V30 7983 O 790.144 -1.89608 -0.492522 0
M  V30 7984 H 788.724 -0.39549 0.633716 0
M  V30 7985 H 791.386 -0.364139 1.91468 0
M  V30 7986 H 790.482 -1.73105 2.59694 0
M  V30 7987 N 790.784 -1.46188 -0.588786 0
M  V30 7988 C 791.716 -1.52319 -1.71265 0
M  V30 7989 C 792.729 -0.412096 -1.57498 0
M  V30 7990 O 793.918 -0.680146 -1.65034 0
M  V30 7991 C 791.018 -1.38164 -3.09458 0
M  V30 7992 C 790.191 -2.63284 -3.49286 0
M  V30 7993 C 789.25 -2.43415 -4.66514 0
M  V30 7994 O 788.276 -3.17113 -4.72682 0
M  V30 7995 N 789.478 -1.49187 -5.61002 0
M  V30 7996 H 792.243 -2.49219 -1.66463 0
M  V30 7997 H 789.804 -1.42167 -0.774601 0
M  V30 7998 H 791.796 -1.22653 -3.85666 0
M  V30 7999 H 790.366 -0.494678 -3.08661 0
M  V30 8000 H 789.586 -2.93779 -2.62845 0
M  V30 8001 H 790.874 -3.46413 -3.7266 0
M  V30 8002 H 790.272 -0.884027 -5.5875 0
M  V30 8003 H 788.829 -1.39642 -6.36666 0
M  V30 8004 N 792.262 0.832906 -1.33792 0
M  V30 8005 C 793.209 1.94314 -1.24541 0
M  V30 8006 C 794.179 1.65646 -0.122753 0
M  V30 8007 O 795.364 1.88394 -0.30204 0
M  V30 8008 C 792.504 3.30395 -0.996641 0
M  V30 8009 C 791.617 3.71422 -2.20612 0
M  V30 8010 C 790.752 4.96401 -1.89101 0
M  V30 8011 C 789.791 5.2998 -3.06247 0
M  V30 8012 N 788.928 6.46137 -2.74685 0
M  V30 8013 H 793.768 2.01559 -2.19495 0
M  V30 8014 H 791.305 0.986243 -1.09141 0
M  V30 8015 H 793.263 4.08803 -0.832817 0
M  V30 8016 H 791.893 3.22691 -0.0838242 0
M  V30 8017 H 790.945 2.88488 -2.47949 0
M  V30 8018 H 792.257 3.92215 -3.0817 0
M  V30 8019 H 791.411 5.82572 -1.69396 0
M  V30 8020 H 790.15 4.7759 -0.987882 0
M  V30 8021 H 789.155 4.42312 -3.26559 0
M  V30 8022 H 790.38 5.50737 -3.97323 0
M  V30 8023 H 788.326 6.28801 -1.86938 0
M  V30 8024 H 788.243 6.67054 -3.55774 0
M  V30 8025 H 789.511 7.35403 -2.58461 0
M  V30 8026 N 793.74 1.17359 1.05189 0
M  V30 8027 C 795.156 0.920861 1.30355 0
M  V30 8028 C 795.356 -0.419993 1.97074 0
M  V30 8029 O 794.412 -1.15696 2.24434 0
M  V30 8030 C 795.725 2.07818 2.1733 0
M  V30 8031 C 797.273 2.1152 2.30712 0
M  V30 8032 C 797.748 3.26637 3.21048 0
M  V30 8033 N 799.239 3.26426 3.28634 0
M  V30 8034 C 799.974 4.12141 3.98657 0
M  V30 8035 N 799.47 5.07966 4.71107 0
M  V30 8036 N 801.263 4.00091 3.94821 0
M  V30 8037 H 793.414 2.03666 0.602821 0
M  V30 8038 H 795.677 0.889294 0.328421 0
M  V30 8039 H 795.383 3.04727 1.75597 0
M  V30 8040 H 795.257 2.02922 3.17966 0
M  V30 8041 H 797.644 1.15196 2.71687 0
M  V30 8042 H 797.725 2.20477 1.29706 0
M  V30 8043 H 797.369 4.23227 2.80788 0
M  V30 8044 H 797.299 3.14917 4.2206 0
M  V30 8045 H 799.79 2.57045 2.77013 0
M  V30 8046 H 800.103 5.69766 5.22099 0
M  V30 8047 H 798.448 5.11936 4.7005 0
M  V30 8048 H 801.639 3.24523 3.37346 0
M  V30 8049 H 801.812 4.6711 4.49123 0
M  V30 8050 N 795.218 -1.23913 0.973828 0
M  V30 8051 C 796.148 -2.27453 0.527969 0
M  V30 8052 C 797.129 -1.6443 -0.435513 0
M  V30 8053 O 798.314 -1.9137 -0.330306 0
M  V30 8054 C 795.444 -3.4685 -0.176757 0
M  V30 8055 C 794.398 -4.22181 0.703352 0
M  V30 8056 C 793.724 -5.34534 -0.133215 0
M  V30 8057 C 795.024 -4.82865 1.99096 0
M  V30 8058 H 796.718 -2.65 1.3934 0
M  V30 8059 H 794.264 -1.27388 0.671446 0
M  V30 8060 H 796.217 -4.18424 -0.499934 0
M  V30 8061 H 794.941 -3.08346 -1.07659 0
M  V30 8062 H 793.6 -3.52416 1.00989 0
M  V30 8063 H 793.248 -4.92271 -1.03338 0
M  V30 8064 H 792.948 -5.85855 0.452494 0
M  V30 8065 H 794.472 -6.08933 -0.450924 0
M  V30 8066 H 795.886 -5.46481 1.73297 0
M  V30 8067 H 794.283 -5.44444 2.52389 0
M  V30 8068 H 795.353 -4.03977 2.68199 0
M  V30 8069 N 796.696 -0.74468 -1.38897 0
M  V30 8070 C 797.646 -0.0869375 -2.27834 0
M  V30 8071 C 798.63 0.702553 -1.44751 0
M  V30 8072 O 799.822 0.569972 -1.67572 0
M  V30 8073 C 796.951 0.812232 -3.33553 0
M  V30 8074 C 796.037 0.0163713 -4.24097 0
M  V30 8075 N 796.428 -1.01547 -4.95502 0
M  V30 8076 C 794.726 0.244554 -4.45329 0
M  V30 8077 C 795.427 -1.49622 -5.62128 0
M  V30 8078 N 794.403 -0.813097 -5.37485 0
M  V30 8079 H 798.205 -0.877345 -2.80499 0
M  V30 8080 H 795.719 -0.579898 -1.51694 0
M  V30 8081 H 797.716 1.299 -3.96146 0
M  V30 8082 H 796.376 1.60169 -2.82446 0
M  V30 8083 H 797.387 -1.39707 -4.98701 0
M  V30 8084 H 794.064 1.00806 -4.05147 0
M  V30 8085 H 795.454 -2.35523 -6.29268 0
M  V30 8086 N 798.174 1.49689 -0.493057 0
M  V30 8087 C 799.137 2.27502 0.278485 0
M  V30 8088 C 800.137 1.33184 0.901037 0
M  V30 8089 O 801.327 1.56415 0.766801 0
M  V30 8090 C 798.459 3.10881 1.39878 0
M  V30 8091 H 799.652 2.97163 -0.404219 0
M  V30 8092 H 797.205 1.54324 -0.247774 0
M  V30 8093 H 797.94 2.45767 2.11587 0
M  V30 8094 H 797.725 3.80219 0.957924 0
M  V30 8095 H 799.215 3.69673 1.94247 0
M  V30 8096 N 799.652 0.226554 1.55963 0
M  V30 8097 C 800.615 -0.668015 2.19249 0
M  V30 8098 C 801.615 -1.11794 1.1558 0
M  V30 8099 O 802.805 -1.02593 1.40784 0
M  V30 8100 C 799.937 -1.91571 2.81981 0
M  V30 8101 H 801.13 -0.116175 2.99675 0
M  V30 8102 H 798.683 -0.0230497 1.56283 0
M  V30 8103 H 799.418 -2.50929 2.05439 0
M  V30 8104 H 799.203 -1.6015 3.57903 0
M  V30 8105 H 800.693 -2.55294 3.30477 0
M  V30 8106 N 801.13 -1.57531 -0.0467866 0
M  V30 8107 C 802.541 -1.76945 -0.595603 0
M  V30 8108 C 802.892 -0.855354 -1.76573 0
M  V30 8109 O 802.017 -0.045668 -2.16352 0
M  V30 8110 C 802.612 -3.20881 -1.08725 0
M  V30 8111 C 801.171 -3.41553 -1.58172 0
M  V30 8112 C 800.318 -2.72533 -0.511968 0
M  V30 8113 H 803.269 -1.57682 0.179436 0
M  V30 8114 H 803.29 -3.26419 -1.95528 0
M  V30 8115 H 802.802 -3.87385 -0.235398 0
M  V30 8116 H 800.903 -2.80199 -2.456 0
M  V30 8117 H 801.016 -4.50104 -1.64143 0
M  V30 8118 H 799.38 -2.35797 -0.962899 0
M  V30 8119 H 800.163 -3.41709 0.330117 0
M  V30 8120 N 802.608 0.318715 -1.54344 0
M  V30 8121 C 804.024 0.663345 -1.45162 0
M  V30 8122 C 804.224 1.9145 -0.62842 0
M  V30 8123 O 803.28 2.5217 -0.129126 0
M  V30 8124 C 804.593 0.832836 -2.88937 0
M  V30 8125 C 806.141 0.929866 -2.98869 0
M  V30 8126 C 806.616 1.13149 -4.43803 0
M  V30 8127 N 808.107 1.19811 -4.47437 0
M  V30 8128 C 808.842 1.37209 -5.56742 0
M  V30 8129 N 808.338 1.51619 -6.76006 0
M  V30 8130 N 810.131 1.39956 -5.44398 0
M  V30 8131 H 802.282 -0.50357 -2.06344 0
M  V30 8132 H 804.545 -0.163528 -0.933789 0
M  V30 8133 H 804.251 -0.0153519 -3.51697 0
M  V30 8134 H 804.125 1.72721 -3.35332 0
M  V30 8135 H 806.512 1.76855 -2.36233 0
M  V30 8136 H 806.593 0.0118561 -2.55797 0
M  V30 8137 H 806.237 0.297636 -5.07027 0
M  V30 8138 H 806.167 2.06345 -4.84489 0
M  V30 8139 H 808.658 1.101 -3.61506 0
M  V30 8140 H 808.971 1.64599 -7.55067 0
M  V30 8141 H 807.316 1.48708 -6.78904 0
M  V30 8142 H 810.507 1.28298 -4.50175 0
M  V30 8143 H 810.68 1.53172 -6.29637 0
M  V30 8144 N 804.086 1.46499 0.581025 0
M  V30 8145 C 804.996 1.59778 1.71779 0
M  V30 8146 C 806.012 0.481223 1.67213 0
M  V30 8147 O 807.188 0.74557 1.87091 0
M  V30 8148 C 804.253 1.58626 3.08283 0
M  V30 8149 C 803.314 2.81527 3.241 0
M  V30 8150 C 802.547 2.80421 4.54092 0
M  V30 8151 O 802.77 1.89262 5.38085 0
M  V30 8152 O 801.704 3.71984 4.73193 0
M  V30 8153 H 805.53 2.55918 1.63523 0
M  V30 8154 H 803.115 1.29311 0.748267 0
M  V30 8155 H 804.997 1.60686 3.89561 0
M  V30 8156 H 803.672 0.656467 3.16973 0
M  V30 8157 H 802.579 2.85021 2.42309 0
M  V30 8158 H 803.912 3.73721 3.20302 0
M  V30 8159 O 805.603 -0.725332 1.44295 0
M  V30 8160 H 806.294 -1.37566 1.36365 0
M  V30 END ATOM
M  V30 BEGIN BOND
M  V30 END BOND
M  V30 END CTAB
M  END
$$$$
