drugbank_target|P51843 Nuclear receptor subfamily 0 group B member 1 (DB01234; DB14649)
 OpenBabel12092119233D

  0  0  0     0  0            999 V3000
M  V30 BEGIN CTAB
M  V30 COUNTS 7223 7315 0 0 0
M  V30 BEGIN ATOM
M  V30 1 H -0.908 1.98254 -0.117106 0
M  V30 2 N 0 1.576 0 0
M  V30 3 C 0.933 2.03868 1.02534 0
M  V30 4 C 1.911 0.928543 1.3348 0
M  V30 5 O 3.095 1.19667 1.45644 0
M  V30 6 C 0.222 2.43627 2.35294 0
M  V30 7 C -0.732 3.65373 2.2001 0
M  V30 8 S 0.101 5.13292 1.52614 0
M  V30 9 C 1.257 5.56322 2.86805 0
M  V30 10 H 1.49 2.90518 0.631377 0
M  V30 11 H -0.977 1.52953 0.210867 0
M  V30 12 H 0.981 2.67203 3.11629 0
M  V30 13 H -0.358 1.57376 2.7183 0
M  V30 14 H -1.165 3.90944 3.18086 0
M  V30 15 H -1.563 3.418 1.51819 0
M  V30 16 H 0.729 5.58782 3.83104 0
M  V30 17 H 1.672 6.56266 2.65933 0
M  V30 18 H 2.08 4.83886 2.90714 0
M  V30 19 N 1.4781 -0.272755 1.55222 0
M  V30 20 C 2.4411 -1.32041 1.87344 0
M  V30 21 C 3.4411 -1.42342 0.74803 0
M  V30 22 O 4.6311 -1.41488 1.0162 0
M  V30 23 C 1.7631 -2.70173 2.07893 0
M  V30 24 H 2.9561 -1.04789 2.80997 0
M  V30 25 H 0.5091 -0.51083 1.47717 0
M  V30 26 H 1.2441 -3.02605 1.16622 0
M  V30 27 H 1.0291 -2.64082 2.89833 0
M  V30 28 H 2.5191 -3.45869 2.34017 0
M  V30 29 N 2.9562 -1.48159 -0.537278 0
M  V30 30 C 4.2042 -1.55497 -1.29094 0
M  V30 31 C 4.5252 -0.227454 -1.93669 0
M  V30 32 O 3.7952 0.750386 -1.80959 0
M  V30 33 H 2.3752 -0.572832 -0.47945 0
M  V30 34 H 5.0372 -1.84579 -0.625818 0
M  V30 35 H 4.1332 -2.33216 -2.07405 0
M  V30 36 N 4.4343 0.785586 -1.36625 0
M  V30 37 C 5.3443 1.92964 -1.33425 0
M  V30 38 C 6.3603 1.72394 -0.235851 0
M  V30 39 O 7.5363 1.95866 -0.468878 0
M  V30 40 C 4.6013 3.27884 -1.12662 0
M  V30 41 C 3.6623 3.61204 -2.32013 0
M  V30 42 C 2.8953 4.89687 -2.12231 0
M  V30 43 O 3.1183 5.59704 -1.09945 0
M  V30 44 O 2.0523 5.21752 -3.00098 0
M  V30 45 H 5.8783 1.98613 -2.29753 0
M  V30 46 H 3.4633 0.926384 -1.17211 0
M  V30 47 H 5.3453 4.08614 -1.03016 0
M  V30 48 H 4.0203 3.23118 -0.193991 0
M  V30 49 H 2.9273 2.80765 -2.47228 0
M  V30 50 H 4.2603 3.70698 -3.23796 0
M  V30 51 N 5.9124 1.20967 1.01018 0
M  V30 52 C 6.8604 0.961223 2.1181 0
M  V30 53 C 7.8544 -0.0897034 1.69162 0
M  V30 54 O 9.0604 0.0612271 1.79896 0
M  V30 55 H 5.4354 0.29355 0.692338 0
M  V30 56 H 7.4064 1.90178 2.29946 0
M  V30 57 C 6.1554 0.536854 3.4353 0
M  V30 58 H 5.4784 1.33713 3.76777 0
M  V30 59 H 6.9184 0.402286 4.22087 0
M  V30 60 C 5.3774 -0.751574 3.2841 0
M  V30 61 O 5.9074 -1.80841 3.58691 0
M  V30 62 N 4.1134 -0.716079 2.81639 0
M  V30 63 H 3.6604 0.144236 2.57196 0
M  V30 64 H 3.6184 -1.57847 2.71904 0
M  V30 65 N 7.3905 -1.2043 1.01659 0
M  V30 66 C 8.3405 -2.21076 0.557623 0
M  V30 67 C 9.3245 -1.56176 -0.387029 0
M  V30 68 O 10.5165 -1.7575 -0.209996 0
M  V30 69 C 7.6455 -3.43146 -0.102707 0
M  V30 70 C 6.7315 -4.15213 0.863652 0
M  V30 71 N 7.1225 -4.63662 2.02117 0
M  V30 72 C 5.4205 -4.40716 0.684472 0
M  V30 73 C 6.1215 -5.18868 2.62966 0
M  V30 74 N 5.0975 -5.0893 1.91027 0
M  V30 75 H 8.8995 -2.56201 1.44008 0
M  V30 76 H 6.4135 -1.36366 0.881931 0
M  V30 77 H 8.4105 -4.14475 -0.449054 0
M  V30 78 H 7.0705 -3.09526 -0.981003 0
M  V30 79 H 8.0815 -4.58877 2.40109 0
M  V30 80 H 4.7585 -4.17245 -0.14577 0
M  V30 81 H 6.1485 -5.6673 3.60924 0
M  V30 82 N 8.8686 -0.792821 -1.36206 0
M  V30 83 C 9.8006 -0.151469 -2.28699 0
M  V30 84 C 10.8136 0.641262 -1.49638 0
M  V30 85 O 12.0026 0.475885 -1.72039 0
M  V30 86 C 9.1026 0.808424 -3.29117 0
M  V30 87 C 8.2756 0.0650202 -4.37352 0
M  V30 88 C 7.3346 0.941358 -5.17711 0
M  V30 89 O 6.3606 0.397352 -5.67811 0
M  V30 90 N 7.5626 2.2652 -5.3448 0
M  V30 91 H 10.3276 -0.945982 -2.84379 0
M  V30 92 H 7.8886 -0.647032 -1.48409 0
M  V30 93 H 9.8806 1.3986 -3.79765 0
M  V30 94 H 8.4506 1.5038 -2.74052 0
M  V30 95 H 7.6706 -0.706255 -3.87822 0
M  V30 96 H 8.9586 -0.447847 -5.06825 0
M  V30 97 H 8.3566 2.73128 -4.95396 0
M  V30 98 H 6.9136 2.80493 -5.88359 0
M  V30 99 N 10.3467 1.47872 -0.545128 0
M  V30 100 C 11.5927 2.03385 -0.0247951 0
M  V30 101 C 11.9477 1.41325 1.30556 0
M  V30 102 O 11.2407 0.5552 1.8338 0
M  V30 103 C 11.4347 3.57131 0.13867 0
M  V30 104 C 11.2637 4.34097 -1.17429 0
M  V30 105 C 10.0337 4.74458 -1.73831 0
M  V30 106 C 12.2317 4.6998 -2.08861 0
M  V30 107 N 10.2137 5.3602 -2.99258 0
M  V30 108 C 11.5847 5.31719 -3.18866 0
M  V30 109 C 13.6397 4.5191 -2.09003 0
M  V30 110 C 12.3427 5.77295 -4.29096 0
M  V30 111 C 14.3687 4.98477 -3.18237 0
M  V30 112 C 13.7307 5.60253 -4.26961 0
M  V30 113 H 9.8297 0.780339 -0.050943 0
M  V30 114 H 12.4137 1.80507 -0.729753 0
M  V30 115 H 10.5847 3.79802 0.812733 0
M  V30 116 H 12.3167 3.99282 0.659976 0
M  V30 117 H 9.0717 4.56037 -1.2778 0
M  V30 118 H 9.4957 5.71355 -3.63157 0
M  V30 119 H 14.1377 4.03516 -1.26234 0
M  V30 120 H 11.8557 6.24687 -5.12633 0
M  V30 121 H 15.4417 4.86274 -3.1942 0
M  V30 122 H 14.3217 5.95631 -5.10091 0
M  V30 123 N 11.8248 0.280983 1.55075 0
M  V30 124 C 12.7568 -0.637268 2.20163 0
M  V30 125 C 13.7698 -1.11298 1.18813 0
M  V30 126 O 14.9588 -1.03388 1.4551 0
M  V30 127 C 12.0588 -1.88199 2.81841 0
M  V30 128 C 11.2318 -1.55211 4.08936 0
M  V30 129 C 10.2908 -2.64991 4.54606 0
M  V30 130 O 9.3168 -2.30929 5.2025 0
M  V30 131 N 10.5188 -3.95161 4.25238 0
M  V30 132 H 13.2838 -0.0801694 2.99593 0
M  V30 133 H 10.8448 0.102329 1.61576 0
M  V30 134 H 12.8368 -2.60948 3.09335 0
M  V30 135 H 11.4068 -2.34799 2.06369 0
M  V30 136 H 10.6268 -0.658185 3.88666 0
M  V30 137 H 11.9148 -1.30681 4.91732 0
M  V30 138 H 11.3128 -4.25653 3.72607 0
M  V30 139 H 9.8698 -4.6427 4.5749 0
M  V30 140 N 13.3029 -1.57598 0.00835791 0
M  V30 141 C 14.5509 -1.90551 -0.6734 0
M  V30 142 C 14.8719 -0.883301 -1.73847 0
M  V30 143 O 14.1419 0.0781442 -1.95744 0
M  V30 144 H 12.7219 -0.703312 -0.251717 0
M  V30 145 H 15.3839 -1.94833 0.0512592 0
M  V30 146 H 14.4799 -2.9056 -1.13935 0
M  V30 147 N 14.781 0.264519 -1.55364 0
M  V30 148 C 16.006 1.01726 -1.80739 0
M  V30 149 C 16.431 1.78836 -0.583044 0
M  V30 150 O 15.789 1.75167 0.467566 0
M  V30 151 C 15.837 1.94482 -3.03659 0
M  V30 152 O 14.941 3.03386 -2.7934 0
M  V30 153 H 14.282 0.290395 -0.597132 0
M  V30 154 H 16.812 0.290854 -2.02522 0
M  V30 155 H 16.822 2.36278 -3.32621 0
M  V30 156 H 15.497 1.37772 -3.92418 0
M  V30 157 H 14.074 2.65844 -2.61498 0
M  V30 158 N 16.2591 1.48442 0.529413 0
M  V30 159 C 17.5081 1.55742 1.28169 0
M  V30 160 C 17.8211 0.236511 1.94165 0
M  V30 161 O 19.0271 0.187761 2.7085 0
M  V30 162 C 17.4831 2.74667 2.32564 0
M  V30 163 C 17.0911 4.13402 1.72636 0
M  V30 164 C 18.8351 2.9128 3.08798 0
M  V30 165 C 16.7421 5.23587 2.74975 0
M  V30 166 H 15.6721 0.579796 0.48203 0
M  V30 167 H 18.3231 1.74776 0.559056 0
M  V30 168 H 16.7051 2.49067 3.07866 0
M  V30 169 H 17.8791 4.49022 1.03519 0
M  V30 170 H 16.1941 4.0191 1.08892 0
M  V30 171 H 18.7911 3.70767 3.85274 0
M  V30 172 H 19.1341 2.00757 3.64695 0
M  V30 173 H 19.6671 3.16782 2.40611 0
M  V30 174 H 16.4061 6.16076 2.23897 0
M  V30 175 H 15.9261 4.92454 3.42417 0
M  V30 176 H 17.6051 5.51724 3.37949 0
M  V30 177 N 17.7372 -0.778329 1.37039 0
M  V30 178 C 18.6672 -1.90546 1.34962 0
M  V30 179 C 19.6482 -1.68681 0.219274 0
M  V30 180 O 20.8332 -1.89634 0.418624 0
M  V30 181 C 17.9632 -3.27734 1.14925 0
M  V30 182 C 16.9172 -3.64147 2.24902 0
M  V30 183 C 16.2432 -4.99806 1.89996 0
M  V30 184 C 17.5432 -3.71579 3.67051 0
M  V30 185 H 19.2372 -1.92541 2.29277 0
M  V30 186 H 16.7832 -0.924948 1.10366 0
M  V30 187 H 18.7362 -4.06215 1.12104 0
M  V30 188 H 17.4602 -3.26154 0.170631 0
M  V30 189 H 16.1192 -2.8797 2.26868 0
M  V30 190 H 15.7672 -4.94759 0.906796 0
M  V30 191 H 15.4672 -5.25139 2.63634 0
M  V30 192 H 16.9912 -5.80694 1.88749 0
M  V30 193 H 18.4052 -4.40227 3.67251 0
M  V30 194 H 16.8022 -4.08405 4.39688 0
M  V30 195 H 17.8722 -2.72404 4.01154 0
M  V30 196 N 19.2153 -1.21501 -1.00376 0
M  V30 197 C 20.4453 -1.05746 -1.77486 0
M  V30 198 C 20.8533 0.395655 -1.85017 0
M  V30 199 O 20.1963 1.28626 -1.31152 0
M  V30 200 C 20.2583 -1.58092 -3.22873 0
M  V30 201 C 19.9223 -3.06568 -3.38917 0
M  V30 202 C 20.9193 -4.04106 -3.271 0
M  V30 203 C 18.6043 -3.45799 -3.64319 0
M  V30 204 C 20.5983 -5.38862 -3.40451 0
M  V30 205 C 18.2853 -4.80707 -3.77311 0
M  V30 206 C 19.2833 -5.77047 -3.65384 0
M  V30 207 O 18.9713 -7.09507 -3.77961 0
M  V30 208 H 18.7033 -0.371778 -0.564586 0
M  V30 209 H 21.2573 -1.61319 -1.27143 0
M  V30 210 H 19.4873 -0.969163 -3.74358 0
M  V30 211 H 21.1763 -1.38162 -3.81662 0
M  V30 212 H 21.9423 -3.75141 -3.07399 0
M  V30 213 H 17.8213 -2.71344 -3.72684 0
M  V30 214 H 21.3653 -6.14041 -3.31058 0
M  V30 215 H 17.2623 -5.09357 -3.96517 0
M  V30 216 H 18.0303 -7.16935 -3.94901 0
M  V30 217 N 20.6934 1.19889 -1.02296 0
M  V30 218 C 21.6414 2.24938 -0.592081 0
M  V30 219 C 22.6354 1.65257 0.372357 0
M  V30 220 O 23.8414 1.78371 0.241583 0
M  V30 221 H 20.2164 0.731787 -0.173182 0
M  V30 222 H 22.1874 2.58603 -1.48885 0
M  V30 223 C 20.9364 3.47668 0.047351 0
M  V30 224 H 20.2594 3.93875 -0.685772 0
M  V30 225 H 21.6994 4.22852 0.311862 0
M  V30 226 C 20.1584 3.11136 1.29212 0
M  V30 227 O 20.6884 3.2325 2.38479 0
M  V30 228 N 18.8944 2.65625 1.17863 0
M  V30 229 H 18.4414 2.55968 0.289493 0
M  V30 230 H 18.3994 2.41553 2.01245 0
M  V30 231 N 22.1715 0.800033 1.35784 0
M  V30 232 C 23.1045 0.151499 2.27697 0
M  V30 233 C 24.0825 -0.678663 1.4776 0
M  V30 234 O 25.2665 -0.647358 1.77035 0
M  V30 235 C 22.3935 -0.790492 3.29346 0
M  V30 236 C 21.4395 -0.0407832 4.26481 0
M  V30 237 S 22.2725 1.29077 5.19711 0
M  V30 238 C 23.4285 0.353055 6.24903 0
M  V30 239 H 23.6615 0.930796 2.82353 0
M  V30 240 H 21.1945 0.594767 1.42485 0
M  V30 241 H 23.1525 -1.3285 3.88409 0
M  V30 242 H 21.8135 -1.54312 2.73581 0
M  V30 243 H 21.0065 -0.755971 4.98298 0
M  V30 244 H 20.6085 0.427063 3.71554 0
M  V30 245 H 22.9005 -0.464147 6.75908 0
M  V30 246 H 23.8435 1.04023 7.00418 0
M  V30 247 H 24.2515 -0.0483344 5.64479 0
M  V30 248 N 23.6496 -1.47581 0.552962 0
M  V30 249 C 24.5796 -2.32762 -0.185451 0
M  V30 250 C 25.5606 -1.43527 -0.912905 0
M  V30 251 O 26.7456 -1.72388 -0.894201 0
M  V30 252 C 23.8756 -3.25219 -1.21859 0
M  V30 253 C 22.8296 -4.23661 -0.607864 0
M  V30 254 C 22.1556 -5.05413 -1.74533 0
M  V30 255 C 23.4556 -5.20481 0.435582 0
M  V30 256 H 25.1496 -2.94749 0.525684 0
M  V30 257 H 22.6956 -1.41738 0.254251 0
M  V30 258 H 24.6486 -3.8365 -1.7433 0
M  V30 259 H 23.3726 -2.61279 -1.95961 0
M  V30 260 H 22.0316 -3.66451 -0.104489 0
M  V30 261 H 21.6796 -4.3788 -2.47529 0
M  V30 262 H 21.3796 -5.72059 -1.34249 0
M  V30 263 H 22.9036 -5.66701 -2.27338 0
M  V30 264 H 24.3176 -5.733 -0.00290157 0
M  V30 265 H 22.7146 -5.95305 0.757067 0
M  V30 266 H 23.7846 -4.66217 1.33303 0
M  V30 267 N 25.1277 -0.289203 -1.54924 0
M  V30 268 C 26.0607 0.633823 -2.19221 0
M  V30 269 C 27.0387 1.14174 -1.15772 0
M  V30 270 O 28.2227 1.21211 -1.44361 0
M  V30 271 C 25.3497 1.86592 -2.82668 0
M  V30 272 C 24.3957 1.49227 -3.99542 0
M  V30 273 S 25.2287 0.558312 -5.32582 0
M  V30 274 C 26.3847 1.79847 -5.99505 0
M  V30 275 H 26.6177 0.0875416 -2.97171 0
M  V30 276 H 24.1507 -0.0733899 -1.54225 0
M  V30 277 H 26.1087 2.57305 -3.19851 0
M  V30 278 H 24.7697 2.38335 -2.04585 0
M  V30 279 H 23.9627 2.40945 -4.42676 0
M  V30 280 H 23.5647 0.865193 -3.63855 0
M  V30 281 H 25.8567 2.7406 -6.19595 0
M  V30 282 H 26.7997 1.4099 -6.93922 0
M  V30 283 H 27.2077 1.96982 -5.29016 0
M  V30 284 N 26.6058 1.57591 -0.0167156 0
M  V30 285 C 27.8308 1.9598 0.67872 0
M  V30 286 C 28.2558 0.892546 1.65575 0
M  V30 287 O 27.6138 -0.147772 1.80697 0
M  V30 288 C 27.6618 3.33468 1.37227 0
M  V30 289 O 26.7658 3.28954 2.48722 0
M  V30 290 H 26.1068 0.639339 0.17928 0
M  V30 291 H 28.6368 2.04463 -0.0748802 0
M  V30 292 H 28.6468 3.69417 1.7319 0
M  V30 293 H 27.3218 4.10694 0.656007 0
M  V30 294 H 25.8988 3.04705 2.14963 0
M  V30 295 N 28.0839 -0.256276 1.55502 0
M  V30 296 C 29.0469 -1.30047 1.88734 0
M  V30 297 C 30.0469 -1.4154 0.763086 0
M  V30 298 O 31.2369 -1.40403 1.03115 0
M  V30 299 C 28.3689 -2.67953 2.10747 0
M  V30 300 H 29.5619 -1.01802 2.82093 0
M  V30 301 H 27.1149 -0.495134 1.4825 0
M  V30 302 H 27.8499 -3.01351 1.19825 0
M  V30 303 H 27.6349 -2.60993 2.92617 0
M  V30 304 H 29.1249 -3.43368 2.37673 0
M  V30 305 N 29.562 -1.4872 -0.521534 0
M  V30 306 C 30.509 -1.63871 -1.62527 0
M  V30 307 C 31.479 -0.480559 -1.58996 0
M  V30 308 O 32.664 -0.705085 -1.77294 0
M  V30 309 C 29.804 -1.69227 -3.00759 0
M  V30 310 C 28.917 -2.96207 -3.14461 0
M  V30 311 C 28.052 -2.92671 -4.43303 0
M  V30 312 C 27.091 -4.14318 -4.50563 0
M  V30 313 N 26.228 -4.0881 -5.70805 0
M  V30 314 H 31.068 -2.58123 -1.48918 0
M  V30 315 H 28.605 -1.28 -0.724878 0
M  V30 316 H 30.563 -1.70314 -3.80853 0
M  V30 317 H 29.193 -0.784586 -3.1312 0
M  V30 318 H 28.245 -3.04826 -2.27564 0
M  V30 319 H 29.557 -3.86192 -3.15686 0
M  V30 320 H 28.711 -2.92206 -5.31696 0
M  V30 321 H 27.45 -2.00429 -4.44612 0
M  V30 322 H 26.455 -4.15049 -3.60575 0
M  V30 323 H 27.68 -5.07729 -4.50986 0
M  V30 324 H 25.626 -3.19394 -5.72995 0
M  V30 325 H 25.543 -4.92509 -5.7356 0
M  V30 326 H 26.811 -4.12418 -6.61462 0
M  V30 327 N 31.0401 0.771051 -1.3745 0
M  V30 328 C 31.9721 1.89352 -1.29146 0
M  V30 329 C 32.9851 1.61477 -0.207124 0
M  V30 330 O 34.1741 1.72382 -0.463324 0
M  V30 331 C 31.2741 3.24596 -0.974195 0
M  V30 332 C 30.4471 3.80111 -2.16413 0
M  V30 333 C 29.5061 4.93832 -1.81703 0
M  V30 334 O 28.5321 5.09382 -2.54006 0
M  V30 335 N 29.7341 5.75483 -0.761573 0
M  V30 336 H 32.4991 1.96991 -2.25864 0
M  V30 337 H 30.0601 0.950191 -1.31084 0
M  V30 338 H 32.0521 3.98193 -0.722828 0
M  V30 339 H 30.6221 3.12454 -0.0955527 0
M  V30 340 H 29.8421 2.98284 -2.57721 0
M  V30 341 H 31.1301 4.13932 -2.95867 0
M  V30 342 H 30.5281 5.65469 -0.161609 0
M  V30 343 H 29.0851 6.49302 -0.570064 0
M  V30 344 N 32.5182 1.22032 0.997298 0
M  V30 345 C 33.7462 1.06841 1.7718 0
M  V30 346 C 34.1612 -0.381325 1.84909 0
M  V30 347 O 33.5182 -1.26437 1.31605 0
M  V30 348 C 33.5692 1.66814 3.20711 0
M  V30 349 O 33.2902 3.06116 3.13408 0
M  V30 350 C 34.7912 1.56838 4.14628 0
M  V30 351 H 32.0112 0.374782 0.556578 0
M  V30 352 H 34.5552 1.61532 1.2541 0
M  V30 353 H 32.7102 1.16196 3.69564 0
M  V30 354 H 33.1242 3.34926 4.0364 0
M  V30 355 H 34.5982 2.03532 5.13107 0
M  V30 356 H 35.0752 0.524155 4.36061 0
M  V30 357 H 35.6812 2.06741 3.7167 0
M  V30 358 N 33.9963 -1.19345 1.0293 0
M  V30 359 C 35.4123 -1.41069 0.746446 0
M  V30 360 C 35.6123 -1.90078 -0.668776 0
M  V30 361 O 34.6683 -2.0778 -1.4347 0
M  V30 362 C 35.9813 -2.42141 1.78292 0
M  V30 363 C 37.5293 -2.55887 1.80252 0
M  V30 364 C 38.0043 -3.60214 2.8286 0
M  V30 365 N 39.4953 -3.67711 2.81679 0
M  V30 366 C 40.2303 -4.48128 3.57727 0
M  V30 367 N 39.7263 -5.32248 4.43491 0
M  V30 368 N 41.5193 -4.42782 3.46267 0
M  V30 369 H 33.6703 -0.858536 1.94275 0
M  V30 370 H 35.9333 -0.439541 0.839945 0
M  V30 371 H 35.6393 -2.13155 2.79746 0
M  V30 372 H 35.5133 -3.41323 1.60557 0
M  V30 373 H 37.9003 -2.84196 0.794757 0
M  V30 374 H 37.9813 -1.56858 2.02062 0
M  V30 375 H 37.6253 -3.32647 3.83807 0
M  V30 376 H 37.5553 -4.58895 2.58307 0
M  V30 377 H 40.0463 -3.07634 2.19476 0
M  V30 378 H 40.3593 -5.90729 4.98256 0
M  V30 379 H 38.7043 -5.31707 4.47564 0
M  V30 380 H 41.8953 -3.76107 2.78677 0
M  V30 381 H 42.0683 -5.05215 4.05785 0
M  V30 382 N 35.4744 -0.807222 -1.35358 0
M  V30 383 C 36.4374 -0.223665 -2.28106 0
M  V30 384 C 37.4374 0.589354 -1.4961 0
M  V30 385 O 38.6274 0.407745 -1.69361 0
M  V30 386 C 35.7594 0.688149 -3.33882 0
M  V30 387 H 36.9524 -1.04169 -2.81227 0
M  V30 388 H 34.5054 -0.577921 -1.45223 0
M  V30 389 H 35.2404 1.52984 -2.85948 0
M  V30 390 H 35.0254 0.10687 -3.91954 0
M  V30 391 H 36.5154 1.09075 -4.03104 0
M  V30 392 N 36.9525 1.47285 -0.560781 0
M  V30 393 C 37.9155 2.28535 0.174488 0
M  V30 394 C 38.9155 1.37153 0.839388 0
M  V30 395 O 40.1055 1.59748 0.694702 0
M  V30 396 C 37.2375 3.16934 1.25561 0
M  V30 397 H 38.4305 2.95012 -0.539262 0
M  V30 398 H 35.9835 1.53034 -0.317865 0
M  V30 399 H 36.7185 2.55157 2.00164 0
M  V30 400 H 36.5035 3.8419 0.783604 0
M  V30 401 H 37.9935 3.78143 1.77193 0
M  V30 402 N 38.4306 0.297415 1.54768 0
M  V30 403 C 39.8416 -0.195947 1.85669 0
M  V30 404 C 40.1926 -1.53707 1.21937 0
M  V30 405 O 39.3176 -2.10164 0.515754 0
M  V30 406 C 39.9126 -0.362318 3.36857 0
M  V30 407 C 38.4716 -0.799901 3.67802 0
M  V30 408 C 37.6186 0.0938578 2.77141 0
M  V30 409 H 40.5696 0.518538 1.4999 0
M  V30 410 H 40.5906 -1.19745 3.61167 0
M  V30 411 H 40.1026 0.613921 3.83214 0
M  V30 412 H 38.2036 -1.78682 3.26961 0
M  V30 413 H 38.3166 -0.621773 4.75048 0
M  V30 414 H 36.6806 -0.426254 2.51108 0
M  V30 415 H 37.4636 1.06639 3.26318 0
M  V30 416 N 39.9087 -1.5758 0.0250728 0
M  V30 417 C 40.8187 -2.1343 -0.973905 0
M  V30 418 C 41.8347 -1.08556 -1.35984 0
M  V30 419 O 43.0107 -1.40592 -1.44207 0
M  V30 420 C 40.0757 -2.64703 -2.23904 0
M  V30 421 C 39.1367 -3.84276 -1.91391 0
M  V30 422 C 38.3697 -4.33095 -3.11873 0
M  V30 423 O 38.5927 -3.81107 -4.24398 0
M  V30 424 O 37.5267 -5.24984 -2.94406 0
M  V30 425 H 41.3527 -2.99057 -0.529036 0
M  V30 426 H 38.9377 -1.48118 -0.195288 0
M  V30 427 H 40.8197 -2.97769 -2.98181 0
M  V30 428 H 39.4947 -1.82161 -2.6758 0
M  V30 429 H 38.4017 -3.56143 -1.14511 0
M  V30 430 H 39.7347 -4.67968 -1.52534 0
M  V30 431 N 41.3868 0.248026 -1.55636 0
M  V30 432 C 42.3498 1.29044 -1.89421 0
M  V30 433 C 43.3498 1.41134 -0.770581 0
M  V30 434 O 44.5398 1.39854 -1.03858 0
M  V30 435 C 41.6718 2.66831 -2.12165 0
M  V30 436 H 42.8648 1.00305 -2.82629 0
M  V30 437 H 40.4178 0.487265 -1.48511 0
M  V30 438 H 41.1528 3.00711 -1.21422 0
M  V30 439 H 40.9378 2.59438 -2.93997 0
M  V30 440 H 42.4278 3.42103 -2.3949 0
M  V30 441 N 42.8649 1.48995 0.513639 0
M  V30 442 C 44.2759 1.5119 1.09537 0
M  V30 443 C 44.6269 0.290906 1.94031 0
M  V30 444 O 43.7519 -0.60049 2.07902 0
M  V30 445 C 44.3469 2.73964 1.99322 0
M  V30 446 C 42.9059 2.78978 2.52682 0
M  V30 447 C 42.0529 2.44934 1.30009 0
M  V30 448 H 45.0039 1.55875 0.298125 0
M  V30 449 H 45.0249 2.53409 2.83838 0
M  V30 450 H 44.5369 3.62813 1.37799 0
M  V30 451 H 42.6379 1.94378 3.1788 0
M  V30 452 H 42.7509 3.8083 2.90698 0
M  V30 453 H 41.1149 1.9644 1.62122 0
M  V30 454 H 41.8979 3.36043 0.702131 0
M  V30 455 N 44.343 -0.763751 1.37857 0
M  V30 456 C 45.253 -1.90817 1.36478 0
M  V30 457 C 46.269 -1.71997 0.263248 0
M  V30 458 O 47.445 -1.95095 0.499979 0
M  V30 459 C 44.51 -3.2605 1.17864 0
M  V30 460 C 43.571 -3.57467 2.3773 0
M  V30 461 C 42.804 -4.86249 2.19995 0
M  V30 462 O 43.027 -5.57884 1.18836 0
M  V30 463 O 41.961 -5.16911 3.08361 0
M  V30 464 H 45.787 -1.94933 2.32884 0
M  V30 465 H 43.372 -0.907619 1.1867 0
M  V30 466 H 45.254 -4.06924 1.09504 0
M  V30 467 H 43.929 -3.22769 0.245372 0
M  V30 468 H 42.836 -2.76796 2.51664 0
M  V30 469 H 44.169 -3.655 3.29652 0
M  V30 470 N 45.8211 -1.22559 -0.990812 0
M  V30 471 C 47.0491 -1.07779 -1.76611 0
M  V30 472 C 47.4641 0.371513 -1.85109 0
M  V30 473 O 46.8211 1.25737 -1.32274 0
M  V30 474 C 46.8721 -1.68512 -3.19822 0
M  V30 475 O 46.5931 -3.07774 -3.1178 0
M  V30 476 C 48.0941 -1.59035 -4.13791 0
M  V30 477 H 45.3141 -0.377729 -0.554583 0
M  V30 478 H 47.8581 -1.62195 -1.24551 0
M  V30 479 H 46.0131 -1.18154 -3.68942 0
M  V30 480 H 46.4271 -3.37062 -4.01858 0
M  V30 481 H 47.9011 -2.0625 -5.1202 0
M  V30 482 H 48.3781 -0.547273 -4.35777 0
M  V30 483 H 48.9841 -2.08709 -3.70568 0
M  V30 484 N 47.2992 1.18797 -1.03562 0
M  V30 485 C 48.7152 1.40671 -0.753917 0
M  V30 486 C 48.9152 1.9043 0.658686 0
M  V30 487 O 47.9712 2.08538 1.42366 0
M  V30 488 C 49.2842 2.41192 -1.79574 0
M  V30 489 C 50.8322 2.54928 -1.81606 0
M  V30 490 C 51.3072 3.58709 -2.84766 0
M  V30 491 N 52.7982 3.66212 -2.83625 0
M  V30 492 C 53.5332 4.46225 -3.60098 0
M  V30 493 N 53.0292 5.29888 -4.46308 0
M  V30 494 N 54.8222 4.40939 -3.4861 0
M  V30 495 H 46.9732 0.848221 -1.94728 0
M  V30 496 H 49.2362 0.435081 -0.842264 0
M  V30 497 H 48.9422 2.11669 -2.80872 0
M  V30 498 H 48.8162 3.40467 -1.62365 0
M  V30 499 H 51.2032 2.83771 -0.809817 0
M  V30 500 H 51.2842 1.55784 -2.02891 0
M  V30 501 H 50.9282 3.30607 -3.85566 0
M  V30 502 H 50.8582 4.57519 -2.60737 0
M  V30 503 H 53.3492 3.06466 -2.21105 0
M  V30 504 H 53.6622 5.88078 -5.01382 0
M  V30 505 H 52.0072 5.29326 -4.50377 0
M  V30 506 H 55.1982 3.74624 -2.80668 0
M  V30 507 H 55.3712 5.03056 -4.08459 0
M  V30 508 N 48.7773 0.814389 1.34928 0
M  V30 509 C 49.7073 0.244827 2.32213 0
M  V30 510 C 50.6883 -0.634024 1.57842 0
M  V30 511 O 51.8733 -0.562676 1.8587 0
M  V30 512 C 49.0033 -0.601106 3.42058 0
M  V30 513 C 47.9573 0.179896 4.27622 0
M  V30 514 C 47.2833 -0.788237 5.28858 0
M  V30 515 C 48.5833 1.38329 5.03649 0
M  V30 516 H 50.2773 1.05763 2.80097 0
M  V30 517 H 47.8233 0.510029 1.34665 0
M  V30 518 H 49.7763 -1.00968 4.09125 0
M  V30 519 H 48.5003 -1.44688 2.92802 0
M  V30 520 H 47.1593 0.569739 3.62146 0
M  V30 521 H 46.8073 -1.62973 4.75866 0
M  V30 522 H 46.5073 -0.269942 5.8698 0
M  V30 523 H 48.0313 -1.19485 5.98795 0
M  V30 524 H 49.4453 1.04918 5.63618 0
M  V30 525 H 47.8423 1.83662 5.71304 0
M  V30 526 H 48.9123 2.16592 4.33839 0
M  V30 527 N 50.2554 -1.46986 0.568584 0
M  V30 528 C 51.5014 -2.02741 0.0488709 0
M  V30 529 C 51.8344 -1.44077 -1.30214 0
M  V30 530 O 51.1094 -0.600552 -1.84996 0
M  V30 531 C 51.3924 -3.60086 -0.032047 0
M  V30 532 C 51.2454 -4.29162 1.34686 0
M  V30 533 C 52.5644 -4.33838 -0.739798 0
M  V30 534 H 49.6834 -0.736749 0.0192338 0
M  V30 535 H 52.3254 -1.75289 0.733065 0
M  V30 536 H 50.4754 -3.83606 -0.61473 0
M  V30 537 H 52.1474 -4.16948 1.97362 0
M  V30 538 H 50.3904 -3.89073 1.91846 0
M  V30 539 H 51.0614 -5.37826 1.24285 0
M  V30 540 H 53.5374 -4.15378 -0.244939 0
M  V30 541 H 52.4134 -5.43537 -0.765406 0
M  V30 542 H 52.6744 -4.03875 -1.79827 0
M  V30 543 N 51.7335 -0.305618 -1.54608 0
M  V30 544 C 53.0105 0.355652 -1.92339 0
M  V30 545 C 53.3905 1.71324 -1.23335 0
M  V30 546 O 52.7385 2.25473 -0.370702 0
M  V30 547 C 52.9485 0.46572 -3.45879 0
M  V30 548 C 54.2965 0.734426 -4.182 0
M  V30 549 O 55.3205 0.54935 -3.51938 0
M  V30 550 O 54.1795 1.09024 -5.35515 0
M  V30 551 H 51.2735 0.199666 -0.802535 0
M  V30 552 H 53.8195 -0.354017 -1.65966 0
M  V30 553 H 52.5915 -0.488461 -3.88239 0
M  V30 554 H 52.2145 1.22367 -3.78301 0
M  V30 555 N 53.2116 1.57565 -0.0334293 0
M  V30 556 C 54.1436 2.0739 0.975811 0
M  V30 557 C 55.1566 0.998166 1.2861 0
M  V30 558 O 56.3456 1.27426 1.25 0
M  V30 559 C 53.4456 2.4871 2.30209 0
M  V30 560 C 52.6186 3.79413 2.17634 0
M  V30 561 C 51.6776 4.07237 3.33233 0
M  V30 562 O 50.7036 4.77425 3.09927 0
M  V30 563 N 51.9056 3.5775 4.5716 0
M  V30 564 H 54.6706 2.94598 0.55066 0
M  V30 565 H 52.2316 1.61173 0.15323 0
M  V30 566 H 54.2236 2.64413 3.06378 0
M  V30 567 H 52.7936 1.66845 2.64351 0
M  V30 568 H 52.0136 3.73465 1.26165 0
M  V30 569 H 53.3016 4.65038 2.0644 0
M  V30 570 H 52.6996 3.00976 4.78989 0
M  V30 571 H 51.2566 3.78724 5.30482 0
M  V30 572 N 54.6897 -0.239769 1.55765 0
M  V30 573 C 55.9297 -0.974076 1.79697 0
M  V30 574 C 56.2937 -1.82249 0.604088 0
M  V30 575 O 57.4947 -2.58913 0.722324 0
M  V30 576 C 55.7657 -1.80595 3.08416 0
M  V30 577 S 57.3247 -2.59838 3.53596 0
M  V30 578 H 54.1427 -0.327524 0.63107 0
M  V30 579 H 56.7447 -0.241277 1.94005 0
M  V30 580 H 55.4487 -1.17249 3.93295 0
M  V30 581 H 54.9797 -2.58137 2.96865 0
M  V30 582 H 56.9947 -3.82987 3.15492 0
M  V30 583 N 56.1678 -1.49265 -0.50573 0
M  V30 584 C 57.4138 -1.59723 -1.25937 0
M  V30 585 C 57.7688 -0.278236 -1.90378 0
M  V30 586 O 57.0618 0.72113 -1.77511 0
M  V30 587 C 57.2558 -2.69008 -2.35308 0
M  V30 588 C 57.0848 -4.11405 -1.81592 0
M  V30 589 C 55.8548 -4.78252 -1.63105 0
M  V30 590 C 58.0528 -4.96792 -1.33048 0
M  V30 591 N 56.0348 -6.0498 -1.04269 0
M  V30 592 C 57.4058 -6.13962 -0.863168 0
M  V30 593 C 59.4608 -4.82828 -1.21577 0
M  V30 594 C 58.1638 -7.18705 -0.292489 0
M  V30 595 C 60.1898 -5.87716 -0.65907 0
M  V30 596 C 59.5518 -7.0411 -0.201954 0
M  V30 597 H 55.6508 -0.638864 -0.450973 0
M  V30 598 H 58.2348 -1.86251 -0.567326 0
M  V30 599 H 56.4058 -2.4426 -3.01979 0
M  V30 600 H 58.1378 -2.69013 -3.02348 0
M  V30 601 H 54.8928 -4.34974 -1.87336 0
M  V30 602 H 55.3168 -6.72631 -0.767919 0
M  V30 603 H 59.9588 -3.93159 -1.55518 0
M  V30 604 H 57.6768 -8.08078 0.0591987 0
M  V30 605 H 61.2628 -5.7897 -0.573156 0
M  V30 606 H 60.1428 -7.83885 0.222101 0
M  V30 607 N 57.6459 0.756429 -1.3826 0
M  V30 608 C 58.8939 1.51248 -1.34047 0
M  V30 609 C 59.2149 1.94875 0.0698372 0
M  V30 610 O 58.4849 1.67436 1.01696 0
M  V30 611 H 57.0649 0.561018 -0.493222 0
M  V30 612 H 59.7269 0.899347 -1.7291 0
M  V30 613 H 58.8229 2.40472 -1.98947 0
M  V30 614 N 59.124 1.23083 0.984299 0
M  V30 615 C 60.364 1.07226 1.74017 0
M  V30 616 C 60.728 -0.384766 1.88105 0
M  V30 617 O 61.929 -0.664411 2.60459 0
M  V30 618 C 60.2 1.77348 3.10294 0
M  V30 619 S 61.759 1.77014 4.01512 0
M  V30 620 H 58.577 0.383819 0.598502 0
M  V30 621 H 61.179 1.56158 1.17622 0
M  V30 622 H 59.883 2.82506 2.97689 0
M  V30 623 H 59.414 1.28682 3.71759 0
M  V30 624 H 61.429 0.825956 4.89277 0
M  V30 625 N 60.6021 -1.18246 1.0419 0
M  V30 626 C 61.8271 -1.92736 0.765996 0
M  V30 627 C 62.2521 -1.75728 -0.67091 0
M  V30 628 O 61.6101 -1.06825 -1.46486 0
M  V30 629 C 61.6581 -3.42148 1.13875 0
M  V30 630 O 60.7621 -4.11548 0.264954 0
M  V30 631 H 60.1031 -0.601238 0.281797 0
M  V30 632 H 62.6331 -1.49942 1.39207 0
M  V30 633 H 62.6431 -3.92858 1.1012 0
M  V30 634 H 61.3181 -3.53848 2.18551 0
M  V30 635 H 59.8951 -3.71137 0.362226 0
M  V30 636 N 62.0802 -0.821533 -1.34494 0
M  V30 637 C 63.3202 -0.414785 -2.00147 0
M  V30 638 C 63.6842 1.00299 -1.6372 0
M  V30 639 O 64.8852 1.51255 -2.22206 0
M  V30 640 C 63.1562 -0.609403 -3.52166 0
M  V30 641 S 64.7152 -0.295297 -4.37805 0
M  V30 642 H 61.5332 -0.15679 -0.693497 0
M  V30 643 H 64.1352 -1.06705 -1.63812 0
M  V30 644 H 62.8392 -1.64096 -3.76166 0
M  V30 645 H 62.3702 0.0576414 -3.93358 0
M  V30 646 H 64.3852 0.891531 -4.88125 0
M  V30 647 N 63.5583 1.46682 -0.576371 0
M  V30 648 C 64.8063 2.02013 -0.0594163 0
M  V30 649 C 65.1273 1.45101 1.30271 0
M  V30 650 O 64.3973 0.633317 1.8538 0
M  V30 651 H 62.9773 0.746759 -0.0189745 0
M  V30 652 H 65.6393 1.79862 -0.750717 0
M  V30 653 H 64.7353 3.12097 0.014345 0
M  V30 654 N 65.0364 0.313813 1.54444 0
M  V30 655 C 66.3134 -0.345447 1.92525 0
M  V30 656 C 66.6934 -1.70667 1.24242 0
M  V30 657 O 66.0414 -2.25273 0.382654 0
M  V30 658 C 66.2514 -0.44737 3.46121 0
M  V30 659 C 67.5994 -0.712238 4.18584 0
M  V30 660 O 68.6234 -0.530678 3.52225 0
M  V30 661 O 67.4824 -1.06183 5.36085 0
M  V30 662 H 64.5764 -0.195407 0.803583 0
M  V30 663 H 67.1224 0.362813 1.65776 0
M  V30 664 H 65.8944 0.509043 3.87975 0
M  V30 665 H 65.5174 -1.20359 3.78945 0
M  V30 666 N 66.5145 -1.57545 0.0417849 0
M  V30 667 C 67.4245 -2.14451 -0.951213 0
M  V30 668 C 68.4405 -1.09992 -1.34825 0
M  V30 669 O 69.6165 -1.42114 -1.42708 0
M  V30 670 C 66.6815 -2.67063 -2.21084 0
M  V30 671 C 65.7425 -3.86284 -1.87304 0
M  V30 672 C 64.9755 -4.36378 -3.07261 0
M  V30 673 O 65.1985 -3.85587 -4.20332 0
M  V30 674 O 64.1325 -5.28077 -2.88822 0
M  V30 675 H 67.9585 -2.99601 -0.497287 0
M  V30 676 H 65.5435 -1.48317 -0.179567 0
M  V30 677 H 67.4255 -3.00914 -2.95006 0
M  V30 678 H 66.1005 -1.84989 -2.65633 0
M  V30 679 H 65.0075 -3.57338 -1.10727 0
M  V30 680 H 66.3405 -4.6956 -1.47562 0
M  V30 681 N 67.9926 0.231505 -1.5589 0
M  V30 682 C 69.4036 0.799327 -1.68724 0
M  V30 683 C 69.7546 1.85398 -0.642022 0
M  V30 684 O 68.8796 2.1539 0.208784 0
M  V30 685 C 69.4746 1.45664 -3.05888 0
M  V30 686 C 68.0336 1.97197 -3.20609 0
M  V30 687 C 67.1806 0.828552 -2.64632 0
M  V30 688 H 70.1316 0.00702616 -1.58698 0
M  V30 689 H 70.1526 2.32517 -3.01191 0
M  V30 690 H 69.6646 0.688808 -3.81939 0
M  V30 691 H 67.7656 2.76813 -2.4941 0
M  V30 692 H 67.8786 2.15878 -4.27707 0
M  V30 693 H 66.2426 1.23321 -2.22854 0
M  V30 694 H 67.0256 0.0735544 -3.43221 0
M  V30 695 N 69.4707 1.49531 0.497807 0
M  V30 696 C 70.7187 1.58865 1.24926 0
M  V30 697 C 71.0397 0.278721 1.92998 0
M  V30 698 O 70.3097 -0.702144 1.82885 0
M  V30 699 H 68.8897 0.585343 0.464094 0
M  V30 700 H 71.5517 1.86174 0.57666 0
M  V30 701 H 70.6477 2.38633 2.01149 0
M  V30 702 N 70.9488 -0.749086 1.3866 0
M  V30 703 C 72.1948 -1.51056 1.35314 0
M  V30 704 C 72.5278 -1.94121 -0.0553751 0
M  V30 705 O 71.8028 -1.65763 -1.01749 0
M  V30 706 C 72.0858 -2.76003 2.31288 0
M  V30 707 C 71.9388 -2.39047 3.8102 0
M  V30 708 C 73.2578 -3.78046 2.2532 0
M  V30 709 H 70.3768 -0.547972 0.492844 0
M  V30 710 H 73.0188 -0.857628 1.69543 0
M  V30 711 H 71.1688 -3.31716 2.02229 0
M  V30 712 H 72.8408 -1.89074 4.20771 0
M  V30 713 H 71.0838 -1.71449 3.98482 0
M  V30 714 H 71.7548 -3.28462 4.4364 0
M  V30 715 H 74.2308 -3.31884 2.50983 0
M  V30 716 H 73.1068 -4.63159 2.94576 0
M  V30 717 H 73.3678 -4.23957 1.25352 0
M  V30 718 N 72.4269 -1.23603 -0.977757 0
M  V30 719 C 73.6749 -1.06759 -1.71601 0
M  V30 720 C 73.9959 0.395929 -1.90938 0
M  V30 721 O 73.2659 1.28356 -1.47992 0
M  V30 722 H 71.8459 -0.392062 -0.635843 0
M  V30 723 H 74.5079 -1.55362 -1.1768 0
M  V30 724 H 73.6039 -1.55763 -2.70452 0
M  V30 725 N 73.905 1.17692 -1.04816 0
M  V30 726 C 75.321 1.39863 -0.768794 0
M  V30 727 C 75.521 1.91118 0.638451 0
M  V30 728 O 74.577 2.10036 1.40146 0
M  V30 729 C 75.89 2.39274 -1.82122 0
M  V30 730 C 77.438 2.52987 -1.843 0
M  V30 731 C 77.913 3.55669 -2.88555 0
M  V30 732 N 79.404 3.63183 -2.87493 0
M  V30 733 C 80.139 4.42381 -3.64811 0
M  V30 734 N 79.635 5.25125 -4.51903 0
M  V30 735 N 81.428 4.37217 -3.53267 0
M  V30 736 H 73.579 0.82752 -1.95617 0
M  V30 737 H 75.842 0.426123 -0.846831 0
M  V30 738 H 75.548 2.08678 -2.83102 0
M  V30 739 H 75.422 3.38725 -1.65967 0
M  V30 740 H 77.809 2.82896 -0.839869 0
M  V30 741 H 77.89 1.53623 -2.04532 0
M  V30 742 H 77.534 3.26499 -3.89051 0
M  V30 743 H 77.464 4.54728 -2.65575 0
M  V30 744 H 79.955 3.04103 -2.24343 0
M  V30 745 H 80.268 5.82728 -5.07591 0
M  V30 746 H 78.613 5.24519 -4.55966 0
M  V30 747 H 81.804 3.71626 -2.84625 0
M  V30 748 H 81.977 4.98696 -4.13771 0
M  V30 749 N 75.3831 0.828654 1.34056 0
M  V30 750 C 76.2931 0.256725 2.33191 0
M  V30 751 C 77.3091 -0.611898 1.62886 0
M  V30 752 O 78.4851 -0.51844 1.94613 0
M  V30 753 C 75.5501 -0.567238 3.42028 0
M  V30 754 C 74.6111 0.324458 4.28072 0
M  V30 755 C 73.8441 -0.460274 5.31712 0
M  V30 756 O 74.0671 -1.693 5.44696 0
M  V30 757 O 73.0011 0.160391 6.01686 0
M  V30 758 H 76.8271 1.07739 2.83947 0
M  V30 759 H 74.4121 0.59093 1.37217 0
M  V30 760 H 76.2941 -1.03582 4.08471 0
M  V30 761 H 74.9691 -1.36513 2.93506 0
M  V30 762 H 73.8761 0.840659 3.64532 0
M  V30 763 H 75.2091 1.08685 4.8005 0
M  V30 764 N 76.8612 -1.46375 0.584142 0
M  V30 765 C 78.1092 -2.01978 0.0701287 0
M  V30 766 C 78.4302 -1.4579 -1.295 0
M  V30 767 O 77.7002 -0.64314 -1.85042 0
M  V30 768 H 76.2802 -0.746648 0.0229345 0
M  V30 769 H 78.9422 -1.79461 0.760245 0
M  V30 770 H 78.0382 -3.121 0.0022064 0
M  V30 771 N 78.3393 -0.321999 -1.54275 0
M  V30 772 C 79.2693 0.537411 -2.27231 0
M  V30 773 C 80.2503 1.12064 -1.27968 0
M  V30 774 O 81.4353 1.14606 -1.56777 0
M  V30 775 C 78.5653 1.69919 -3.02894 0
M  V30 776 C 77.5193 1.24534 -4.09482 0
M  V30 777 C 76.8453 2.49394 -4.72977 0
M  V30 778 C 78.1453 0.361335 -5.21049 0
M  V30 779 H 79.8393 -0.0711406 -2.99315 0
M  V30 780 H 77.3853 -0.0356555 -1.43956 0
M  V30 781 H 79.3383 2.30668 -3.52662 0
M  V30 782 H 78.0623 2.33431 -2.28424 0
M  V30 783 H 76.7213 0.660782 -3.60596 0
M  V30 784 H 76.3693 3.11265 -3.95124 0
M  V30 785 H 76.0693 2.19718 -5.44975 0
M  V30 786 H 77.5933 3.10908 -5.25517 0
M  V30 787 H 79.0073 0.875072 -5.66582 0
M  V30 788 H 77.4043 0.157428 -5.99893 0
M  V30 789 H 78.4743 -0.60822 -4.8107 0
M  V30 790 N 79.8174 1.5752 -0.0501392 0
M  V30 791 C 80.7474 2.14502 0.922566 0
M  V30 792 C 81.7284 1.06642 1.3252 0
M  V30 793 O 82.9134 1.34577 1.4001 0
M  V30 794 C 80.0434 2.68916 2.19776 0
M  V30 795 C 78.9974 3.8175 1.93523 0
M  V30 796 C 78.3234 4.22677 3.27487 0
M  V30 797 C 79.6234 5.06932 1.25765 0
M  V30 798 H 81.3174 2.9603 0.447952 0
M  V30 799 H 78.8634 1.42401 0.214024 0
M  V30 800 H 80.8164 3.07419 2.88222 0
M  V30 801 H 79.5404 1.84578 2.69441 0
M  V30 802 H 78.1994 3.43718 1.27489 0
M  V30 803 H 77.8474 3.35291 3.74952 0
M  V30 804 H 77.5474 4.98725 3.1072 0
M  V30 805 H 79.0714 4.63779 3.97166 0
M  V30 806 H 80.4854 5.42888 1.84244 0
M  V30 807 H 78.8824 5.88116 1.19328 0
M  V30 808 H 79.9524 4.84337 0.233536 0
M  V30 809 N 81.2955 -0.223234 1.56011 0
M  V30 810 C 82.5435 -0.946003 1.78592 0
M  V30 811 C 82.8645 -1.84936 0.618349 0
M  V30 812 O 82.1345 -1.92473 -0.364833 0
M  V30 813 H 80.7145 -0.352298 0.658707 0
M  V30 814 H 83.3765 -0.235494 1.93472 0
M  V30 815 H 82.4725 -1.55381 2.70672 0
M  V30 816 N 82.7736 -1.49793 -0.48987 0
M  V30 817 C 84.0216 -1.59525 -1.24081 0
M  V30 818 C 84.3426 -0.288953 -1.92847 0
M  V30 819 O 83.6126 0.692436 -1.83254 0
M  V30 820 H 82.1926 -0.587796 -0.460983 0
M  V30 821 H 84.8546 -1.86477 -0.566778 0
M  V30 822 H 83.9506 -2.39696 -1.99881 0
M  V30 823 N 84.2517 0.741722 -1.39055 0
M  V30 824 C 85.6677 1.04638 -1.20512 0
M  V30 825 C 85.8677 2.01405 -0.0620218 0
M  V30 826 O 84.9237 2.45547 0.588457 0
M  V30 827 C 86.2367 1.6151 -2.53643 0
M  V30 828 C 87.7847 1.73623 -2.6043 0
M  V30 829 C 88.2597 2.33906 -3.93767 0
M  V30 830 N 89.7507 2.41323 -3.9537 0
M  V30 831 C 90.4857 2.88888 -4.95309 0
M  V30 832 N 89.9817 3.36401 -6.05645 0
M  V30 833 N 91.7747 2.88037 -4.82692 0
M  V30 834 H 83.9257 0.0998155 -2.12165 0
M  V30 835 H 86.1887 0.106907 -0.941953 0
M  V30 836 H 85.8947 0.978739 -3.37807 0
M  V30 837 H 85.7687 2.60411 -2.72885 0
M  V30 838 H 88.1557 2.36384 -1.76655 0
M  V30 839 H 88.2367 0.733945 -2.45045 0
M  V30 840 H 87.8807 1.71776 -4.7797 0
M  V30 841 H 87.8107 3.34799 -4.06469 0
M  V30 842 H 90.3017 2.07734 -3.15682 0
M  V30 843 H 90.6147 3.71186 -6.77821 0
M  V30 844 H 88.9597 3.34427 -6.09248 0
M  V30 845 H 92.1507 2.50237 -3.95599 0
M  V30 846 H 92.3237 3.24792 -5.60726 0
M  V30 847 N 85.7298 1.2412 0.971189 0
M  V30 848 C 86.6778 1.02812 2.08644 0
M  V30 849 C 87.6718 -0.0358403 1.69362 0
M  V30 850 O 88.8778 0.118429 1.7961 0
M  V30 851 H 85.2528 0.315428 0.682649 0
M  V30 852 H 87.2238 1.97397 2.23779 0
M  V30 853 C 85.9728 0.645874 3.41649 0
M  V30 854 H 85.2958 1.45632 3.72332 0
M  V30 855 H 86.7358 0.536366 4.20594 0
M  V30 856 C 85.1948 -0.646713 3.30635 0
M  V30 857 O 85.7248 -1.69338 3.64263 0
M  V30 858 N 83.9308 -0.626115 2.83775 0
M  V30 859 H 83.4778 0.225988 2.56607 0
M  V30 860 H 83.4358 -1.49117 2.76788 0
M  V30 861 N 87.2079 -1.17134 1.05439 0
M  V30 862 C 88.4539 -1.87733 0.767077 0
M  V30 863 C 88.7869 -1.8098 -0.704253 0
M  V30 864 O 88.0619 -1.21951 -1.5152 0
M  V30 865 C 88.3449 -3.37659 1.25133 0
M  V30 866 C 88.1979 -3.53149 2.78578 0
M  V30 867 C 89.5169 -4.31768 0.852324 0
M  V30 868 H 86.6359 -0.681687 0.280129 0
M  V30 869 H 89.2779 -1.37732 1.30881 0
M  V30 870 H 87.4279 -3.80373 0.790469 0
M  V30 871 H 89.0999 -3.19434 3.32806 0
M  V30 872 H 87.3429 -2.95345 3.17732 0
M  V30 873 H 88.0139 -4.58403 3.07523 0
M  V30 874 H 90.4899 -3.96909 1.24911 0
M  V30 875 H 89.3659 -5.35199 1.21873 0
M  V30 876 H 89.6269 -4.41429 -0.243485 0
M  V30 877 N 88.686 -0.835752 -1.33615 0
M  V30 878 C 89.649 -0.272 -2.2758 0
M  V30 879 C 90.649 0.557487 -1.50827 0
M  V30 880 O 91.839 0.37173 -1.70188 0
M  V30 881 C 88.971 0.617173 -3.35267 0
M  V30 882 H 90.164 -1.10111 -2.78954 0
M  V30 883 H 87.717 -0.608594 -1.43965 0
M  V30 884 H 88.452 1.46884 -2.89129 0
M  V30 885 H 88.237 0.0237066 -3.92093 0
M  V30 886 H 89.727 1.005 -4.05326 0
M  V30 887 N 90.1641 1.46063 -0.591896 0
M  V30 888 C 91.0941 2.33172 0.123673 0
M  V30 889 C 92.0751 1.45897 0.87453 0
M  V30 890 O 93.2601 1.74698 0.848181 0
M  V30 891 C 90.3901 3.28336 1.13194 0
M  V30 892 C 89.3441 4.25124 0.495324 0
M  V30 893 C 88.6701 5.09863 1.61071 0
M  V30 894 C 89.9701 5.19143 -0.573425 0
M  V30 895 H 91.6641 2.93252 -0.603646 0
M  V30 896 H 89.2101 1.41014 -0.291741 0
M  V30 897 H 91.1631 3.88137 1.64097 0
M  V30 898 H 89.8871 2.66383 1.88965 0
M  V30 899 H 88.5461 3.66599 0.00729452 0
M  V30 900 H 88.1941 4.44288 2.35832 0
M  V30 901 H 87.8941 5.75417 1.19035 0
M  V30 902 H 89.4181 5.72529 2.12233 0
M  V30 903 H 90.8321 5.73106 -0.1491 0
M  V30 904 H 89.2291 5.93089 -0.914636 0
M  V30 905 H 90.2991 4.62519 -1.45617 0
M  V30 906 N 91.6422 0.330177 1.54103 0
M  V30 907 C 92.5722 -0.525353 2.27513 0
M  V30 908 C 93.5532 -1.11383 1.2856 0
M  V30 909 O 94.7382 -1.13773 1.57383 0
M  V30 910 C 91.8682 -1.6831 3.03791 0
M  V30 911 C 90.8222 -1.2236 4.10137 0
M  V30 912 C 90.1482 -2.46882 4.74293 0
M  V30 913 C 91.4482 -0.333697 5.21233 0
M  V30 914 H 93.1422 0.087013 2.99274 0
M  V30 915 H 90.6882 0.0432893 1.43935 0
M  V30 916 H 92.6412 -2.28795 3.5388 0
M  V30 917 H 91.3652 -2.32216 2.29659 0
M  V30 918 H 90.0242 -0.64165 3.60941 0
M  V30 919 H 89.6722 -3.09165 3.96769 0
M  V30 920 H 89.3722 -2.16825 5.46133 0
M  V30 921 H 90.8962 -3.08117 5.27159 0
M  V30 922 H 92.3102 -0.845013 5.67038 0
M  V30 923 H 90.7072 -0.125612 5.99969 0
M  V30 924 H 91.7772 0.633724 4.80741 0
M  V30 925 N 93.1203 -1.57491 0.0584922 0
M  V30 926 C 94.3503 -1.9701 -0.622134 0
M  V30 927 C 94.7583 -0.935034 -1.6448 0
M  V30 928 O 94.1013 0.0882904 -1.83488 0
M  V30 929 C 94.1633 -3.32794 -1.35972 0
M  V30 930 C 93.8273 -4.54343 -0.492043 0
M  V30 931 C 94.8243 -5.19323 0.244901 0
M  V30 932 C 92.5093 -5.00534 -0.420821 0
M  V30 933 C 94.5033 -6.28835 1.04143 0
M  V30 934 C 92.1903 -6.09921 0.379389 0
M  V30 935 C 93.1883 -6.73933 1.10919 0
M  V30 936 O 92.8763 -7.81216 1.89623 0
M  V30 937 H 92.6083 -0.653127 -0.174359 0
M  V30 938 H 95.1623 -2.05029 0.123418 0
M  V30 939 H 93.3923 -3.21351 -2.15105 0
M  V30 940 H 95.0813 -3.5701 -1.93129 0
M  V30 941 H 95.8473 -4.8459 0.19939 0
M  V30 942 H 91.7263 -4.50496 -0.978474 0
M  V30 943 H 95.2703 -6.7873 1.61157 0
M  V30 944 H 91.1673 -6.44089 0.426512 0
M  V30 945 H 91.9353 -7.98029 1.81913 0
M  V30 946 N 94.5984 0.214957 -1.56127 0
M  V30 947 C 96.0144 0.564948 -1.49267 0
M  V30 948 C 96.2144 1.86827 -0.754838 0
M  V30 949 O 95.2704 2.50745 -0.297198 0
M  V30 950 C 96.5834 0.638071 -2.93852 0
M  V30 951 C 98.1314 0.728253 -3.0441 0
M  V30 952 C 98.6064 0.832663 -4.50367 0
M  V30 953 N 100.097 0.896712 -4.54437 0
M  V30 954 C 100.832 0.997324 -5.6466 0
M  V30 955 N 100.328 1.06147 -6.8462 0
M  V30 956 N 102.121 1.03297 -5.52527 0
M  V30 957 H 94.2724 -0.640211 -2.02522 0
M  V30 958 H 96.5354 -0.225507 -0.920788 0
M  V30 959 H 96.2414 -0.250126 -3.50809 0
M  V30 960 H 96.1154 1.49947 -3.46115 0
M  V30 961 H 98.5024 1.60689 -2.47514 0
M  V30 962 H 98.5834 -0.158952 -2.55306 0
M  V30 963 H 98.2274 -0.0415417 -5.07883 0
M  V30 964 H 98.1574 1.73538 -4.97184 0
M  V30 965 H 100.648 0.857188 -3.6805 0
M  V30 966 H 100.961 1.1382 -7.64372 0
M  V30 967 H 99.3064 1.03049 -6.87318 0
M  V30 968 H 102.497 0.979558 -4.57736 0
M  V30 969 H 102.67 1.10793 -6.38458 0
M  V30 970 N 96.0765 1.50051 0.48192 0
M  V30 971 C 97.3165 1.62128 1.24474 0
M  V30 972 C 97.6805 0.309742 1.89485 0
M  V30 973 O 98.8815 0.305854 2.67054 0
M  V30 974 C 97.1525 2.76151 2.26882 0
M  V30 975 S 98.7115 3.08297 3.12247 0
M  V30 976 H 95.5295 0.571661 0.422759 0
M  V30 977 H 98.1315 1.87791 0.54359 0
M  V30 978 H 96.8355 3.69942 1.77683 0
M  V30 979 H 96.3665 2.52541 3.0164 0
M  V30 980 H 98.3815 2.51287 4.27866 0
M  V30 981 N 97.5546 -0.734337 1.39446 0
M  V30 982 C 98.7946 -1.50655 1.38139 0
M  V30 983 C 99.1586 -1.91986 -0.0228701 0
M  V30 984 O 100.36 -2.68318 -0.160947 0
M  V30 985 C 98.6306 -2.71251 2.32718 0
M  V30 986 S 100.19 -3.60892 2.49605 0
M  V30 987 H 97.0076 -0.515315 0.489869 0
M  V30 988 H 99.6096 -0.860392 1.75549 0
M  V30 989 H 98.3136 -2.39027 3.33608 0
M  V30 990 H 97.8446 -3.40795 1.96526 0
M  V30 991 H 99.8596 -4.64899 1.73446 0
M  V30 992 N 99.0327 -1.24633 -0.964593 0
M  V30 993 C 100.28 -1.08788 -1.70796 0
M  V30 994 C 100.608 0.372783 -1.90894 0
M  V30 995 O 99.8627 1.29167 -1.47018 0
M  V30 996 C 100.162 -1.7763 -3.10133 0
M  V30 997 C 99.8277 -3.27557 -3.09866 0
M  V30 998 C 98.4897 -3.6846 -3.09501 0
M  V30 999 C 100.842 -4.23389 -3.03959 0
M  V30 1000 C 98.1697 -5.03624 -3.00965 0
M  V30 1001 C 100.522 -5.58565 -2.96965 0
M  V30 1002 C 99.1857 -5.98809 -2.9493 0
M  V30 1003 H 98.4557 -0.398084 -0.624988 0
M  V30 1004 H 101.103 -1.54777 -1.12767 0
M  V30 1005 H 99.4077 -1.24044 -3.71645 0
M  V30 1006 H 101.105 -1.62832 -3.66451 0
M  V30 1007 H 97.6947 -2.95006 -3.10917 0
M  V30 1008 H 101.879 -3.92787 -3.03368 0
M  V30 1009 H 97.1347 -5.33998 -2.97752 0
M  V30 1010 H 101.309 -6.32523 -2.91354 0
M  V30 1011 H 98.9357 -7.03505 -2.88071 0
M  V30 1012 N 100.511 1.16574 -1.06058 0
M  V30 1013 C 101.751 1.88723 -0.78504 0
M  V30 1014 C 102.115 1.79706 0.676006 0
M  V30 1015 O 103.316 2.46757 1.06603 0
M  V30 1016 C 101.587 3.34338 -1.26304 0
M  V30 1017 S 103.146 4.24366 -1.1162 0
M  V30 1018 H 99.9638 0.651448 -0.284846 0
M  V30 1019 H 102.566 1.40732 -1.35701 0
M  V30 1020 H 101.27 3.38439 -2.32136 0
M  V30 1021 H 100.801 3.87378 -0.685719 0
M  V30 1022 H 102.816 4.96179 -0.0456539 0
M  V30 1023 N 101.989 0.842826 1.3317 0
M  V30 1024 C 103.237 0.439577 1.97262 0
M  V30 1025 C 103.558 -1.00548 1.67078 0
M  V30 1026 O 102.828 -1.70098 0.971779 0
M  V30 1027 H 101.408 0.159558 0.72976 0
M  V30 1028 H 104.07 1.07665 1.62463 0
M  V30 1029 H 103.166 0.574886 3.0676 0
M  V30 1030 N 103.467 -1.45747 0.599634 0
M  V30 1031 C 104.414 -2.30467 -0.123849 0
M  V30 1032 C 105.384 -1.41632 -0.86774 0
M  V30 1033 O 106.569 -1.70568 -0.855056 0
M  V30 1034 C 103.709 -3.26402 -1.12051 0
M  V30 1035 C 102.822 -4.3034 -0.37832 0
M  V30 1036 C 101.957 -5.13389 -1.364 0
M  V30 1037 C 100.996 -6.09061 -0.609171 0
M  V30 1038 N 100.133 -6.84918 -1.54374 0
M  V30 1039 H 104.973 -2.91802 0.604627 0
M  V30 1040 H 102.51 -1.43797 0.309972 0
M  V30 1041 H 104.468 -3.80482 -1.7114 0
M  V30 1042 H 103.098 -2.66839 -1.8165 0
M  V30 1043 H 102.15 -3.78984 0.327929 0
M  V30 1044 H 103.462 -4.98354 0.210997 0
M  V30 1045 H 102.616 -5.7183 -2.02719 0
M  V30 1046 H 101.355 -4.45376 -1.98725 0
M  V30 1047 H 100.36 -5.49758 0.0676979 0
M  V30 1048 H 101.585 -6.79099 0.00891991 0
M  V30 1049 H 99.531 -6.19601 -2.15478 0
M  V30 1050 H 99.448 -7.49254 -1.00766 0
M  V30 1051 H 100.716 -7.47906 -2.19676 0
M  V30 1052 N 104.945 -0.338344 -1.53925 0
M  V30 1053 C 106.222 0.314774 -1.93051 0
M  V30 1054 C 106.602 1.68669 -1.26941 0
M  V30 1055 O 105.95 2.24636 -0.418445 0
M  V30 1056 C 106.16 0.392249 -3.46789 0
M  V30 1057 C 107.508 0.645554 -4.19664 0
M  V30 1058 O 108.532 0.474575 -3.53024 0
M  V30 1059 O 107.391 0.976408 -5.37707 0
M  V30 1060 H 104.485 0.182598 -0.80659 0
M  V30 1061 H 107.031 -0.389141 -1.65178 0
M  V30 1062 H 105.803 -0.570702 -3.87116 0
M  V30 1063 H 105.426 1.14316 -3.80812 0
M  V30 1064 N 106.423 1.57458 -0.0668435 0
M  V30 1065 C 107.373 2.0896 0.912119 0
M  V30 1066 C 108.357 0.998186 1.26195 0
M  V30 1067 O 109.549 1.26133 1.24175 0
M  V30 1068 C 106.678 2.6508 2.18145 0
M  V30 1069 C 105.764 3.81218 1.85832 0
M  V30 1070 N 106.155 4.90378 1.23948 0
M  V30 1071 C 104.453 3.9042 2.15612 0
M  V30 1072 C 105.154 5.71279 1.09616 0
M  V30 1073 N 104.13 5.19389 1.60423 0
M  V30 1074 H 107.932 2.90749 0.42924 0
M  V30 1075 H 105.446 1.6182 0.137184 0
M  V30 1076 H 107.443 3.0029 2.89192 0
M  V30 1077 H 106.103 1.84736 2.67025 0
M  V30 1078 H 107.114 5.09847 0.909731 0
M  V30 1079 H 103.791 3.21043 2.66903 0
M  V30 1080 H 105.181 6.69085 0.614425 0
M  V30 1081 N 107.901 -0.206675 1.56239 0
M  V30 1082 C 109.312 -0.772383 1.69974 0
M  V30 1083 C 109.663 -1.84353 0.671436 0
M  V30 1084 O 108.788 -2.15695 -0.174491 0
M  V30 1085 C 109.383 -1.40779 3.08167 0
M  V30 1086 C 107.942 -1.92072 3.23706 0
M  V30 1087 C 107.089 -0.786347 2.65917 0
M  V30 1088 H 110.04 0.0182223 1.5869 0
M  V30 1089 H 110.061 -2.27696 3.04852 0
M  V30 1090 H 109.573 -0.627958 3.82986 0
M  V30 1091 H 107.674 -2.7281 2.53782 0
M  V30 1092 H 107.787 -2.09046 4.31087 0
M  V30 1093 H 106.151 -1.1976 2.24788 0
M  V30 1094 H 106.934 -0.0189416 3.43295 0
M  V30 1095 N 109.379 -1.50304 -0.473955 0
M  V30 1096 C 110.795 -1.37667 -0.807466 0
M  V30 1097 C 110.995 -0.430555 -1.96846 0
M  V30 1098 O 110.051 0.127874 -2.52176 0
M  V30 1099 C 111.364 -2.78974 -1.12223 0
M  V30 1100 C 112.912 -2.87868 -1.22885 0
M  V30 1101 C 113.387 -4.30003 -1.57676 0
M  V30 1102 N 114.878 -4.3294 -1.64673 0
M  V30 1103 C 115.613 -5.3991 -1.93091 0
M  V30 1104 N 115.109 -6.57092 -2.1955 0
M  V30 1105 N 116.902 -5.27351 -1.94569 0
M  V30 1106 H 109.053 -2.10394 0.291212 0
M  V30 1107 H 111.316 -0.945575 0.0677609 0
M  V30 1108 H 111.022 -3.50031 -0.342229 0
M  V30 1109 H 110.896 -3.16038 -2.05913 0
M  V30 1110 H 113.283 -2.17032 -1.99953 0
M  V30 1111 H 113.364 -2.54352 -0.271814 0
M  V30 1112 H 113.008 -5.01375 -0.81149 0
M  V30 1113 H 112.938 -4.61004 -2.54525 0
M  V30 1114 H 115.429 -3.48441 -1.46277 0
M  V30 1115 H 115.742 -7.34425 -2.405 0
M  V30 1116 H 114.087 -6.60272 -2.16948 0
M  V30 1117 H 117.278 -4.34801 -1.73394 0
M  V30 1118 H 117.451 -6.10805 -2.16381 0
M  V30 1119 N 110.857 0.726932 -1.39834 0
M  V30 1120 C 111.789 1.85147 -1.35104 0
M  V30 1121 C 112.802 1.60736 -0.258392 0
M  V30 1122 O 113.991 1.70821 -0.517931 0
M  V30 1123 C 111.091 3.21332 -1.07697 0
M  V30 1124 C 110.264 3.73033 -2.28396 0
M  V30 1125 C 109.323 4.87802 -1.97322 0
M  V30 1126 O 108.349 5.01043 -2.70083 0
M  V30 1127 N 109.551 5.72768 -0.944273 0
M  V30 1128 H 112.316 1.89706 -2.32017 0
M  V30 1129 H 109.877 0.908006 -1.3404 0
M  V30 1130 H 111.869 3.95691 -0.849144 0
M  V30 1131 H 110.439 3.11992 -0.194909 0
M  V30 1132 H 109.659 2.89934 -2.6708 0
M  V30 1133 H 110.947 4.0431 -3.08887 0
M  V30 1134 H 110.345 5.64669 -0.341427 0
M  V30 1135 H 108.902 6.4716 -0.776346 0
M  V30 1136 N 112.336 1.25143 0.95797 0
M  V30 1137 C 113.584 1.09476 1.69881 0
M  V30 1138 C 113.905 -0.365502 1.91544 0
M  V30 1139 O 113.175 -1.25985 1.50015 0
M  V30 1140 H 111.755 0.402128 0.629525 0
M  V30 1141 H 114.417 1.57214 1.15194 0
M  V30 1142 H 113.513 1.60046 2.6794 0
M  V30 1143 N 113.814 -1.1601 1.06675 0
M  V30 1144 C 115.039 -1.91068 0.806706 0
M  V30 1145 C 115.464 -1.77112 -0.633485 0
M  V30 1146 O 114.822 -1.09908 -1.44187 0
M  V30 1147 C 114.87 -3.39655 1.21106 0
M  V30 1148 O 113.974 -4.10893 0.352189 0
M  V30 1149 H 113.315 -0.595125 0.294486 0
M  V30 1150 H 115.845 -1.46955 1.42356 0
M  V30 1151 H 115.855 -3.90434 1.18428 0
M  V30 1152 H 114.53 -3.49132 2.26008 0
M  V30 1153 H 113.107 -3.70285 0.440868 0
M  V30 1154 N 115.292 -0.849877 -1.32721 0
M  V30 1155 C 116.541 -0.447175 -1.96681 0
M  V30 1156 C 116.854 1.00135 -1.68025 0
M  V30 1157 O 118.06 1.50926 -2.25685 0
M  V30 1158 C 116.516 -0.7487 -3.52026 0
M  V30 1159 C 116.124 -2.21264 -3.89546 0
M  V30 1160 C 117.868 -0.413487 -4.22481 0
M  V30 1161 C 115.775 -2.45763 -5.37917 0
M  V30 1162 H 114.705 -0.163486 -0.736063 0
M  V30 1163 H 117.356 -1.03999 -1.51183 0
M  V30 1164 H 115.738 -0.0853727 -3.95908 0
M  V30 1165 H 116.912 -2.91736 -3.56689 0
M  V30 1166 H 115.227 -2.5119 -3.32103 0
M  V30 1167 H 117.824 -0.574017 -5.3161 0
M  V30 1168 H 118.167 0.644492 -4.11281 0
M  V30 1169 H 118.7 -1.03251 -3.84167 0
M  V30 1170 H 115.439 -3.50168 -5.54132 0
M  V30 1171 H 114.959 -1.79864 -5.72197 0
M  V30 1172 H 116.638 -2.29471 -6.0494 0
M  V30 1173 N 116.77 1.45427 -0.607355 0
M  V30 1174 C 117.7 2.3329 0.0989352 0
M  V30 1175 C 118.681 1.46816 0.859007 0
M  V30 1176 O 119.866 1.75588 0.829604 0
M  V30 1177 C 116.996 3.29518 1.09705 0
M  V30 1178 C 115.95 4.25626 0.450206 0
M  V30 1179 C 115.276 5.11542 1.55655 0
M  V30 1180 C 116.576 5.18505 -0.628455 0
M  V30 1181 H 118.27 2.92595 -0.634716 0
M  V30 1182 H 115.816 1.40696 -0.306681 0
M  V30 1183 H 117.769 3.89855 1.59971 0
M  V30 1184 H 116.493 2.68372 1.86129 0
M  V30 1185 H 115.152 3.66586 -0.0315886 0
M  V30 1186 H 114.8 4.46765 2.31107 0
M  V30 1187 H 114.5 5.76647 1.12925 0
M  V30 1188 H 116.024 5.74748 2.06148 0
M  V30 1189 H 117.438 5.72916 -0.209877 0
M  V30 1190 H 115.835 5.92085 -0.977489 0
M  V30 1191 H 116.905 4.60948 -1.50514 0
M  V30 1192 N 118.248 0.346503 1.53744 0
M  V30 1193 C 119.478 -0.250047 2.05081 0
M  V30 1194 C 119.886 -1.44529 1.22098 0
M  V30 1195 O 119.229 -1.81992 0.249917 0
M  V30 1196 C 119.291 -0.725934 3.52094 0
M  V30 1197 C 118.955 0.350053 4.55657 0
M  V30 1198 C 119.952 1.19372 5.0601 0
M  V30 1199 C 117.637 0.504827 4.99757 0
M  V30 1200 C 119.631 2.17768 5.99046 0
M  V30 1201 C 117.318 1.49218 5.92602 0
M  V30 1202 C 118.316 2.32706 6.42135 0
M  V30 1203 O 118.004 3.2976 7.33153 0
M  V30 1204 H 117.736 -0.0515469 0.674032 0
M  V30 1205 H 120.29 0.497559 1.99282 0
M  V30 1206 H 118.52 -1.52483 3.55367 0
M  V30 1207 H 120.209 -1.24336 3.86388 0
M  V30 1208 H 120.975 1.08525 4.72702 0
M  V30 1209 H 116.854 -0.135178 4.60802 0
M  V30 1210 H 120.398 2.82971 6.37631 0
M  V30 1211 H 116.295 1.6012 6.25325 0
M  V30 1212 H 117.063 3.25265 7.51096 0
M  V30 1213 N 119.726 -1.57421 0.075193 0
M  V30 1214 C 120.951 -1.98364 -0.605515 0
M  V30 1215 C 121.376 -0.953383 -1.62149 0
M  V30 1216 O 120.734 0.0806053 -1.81121 0
M  V30 1217 C 120.782 -3.38332 -1.24756 0
M  V30 1218 O 119.886 -3.37959 -2.36342 0
M  V30 1219 H 119.227 -0.645553 -0.155428 0
M  V30 1220 H 121.757 -2.04044 0.150714 0
M  V30 1221 H 121.767 -3.75591 -1.5936 0
M  V30 1222 H 120.442 -4.12846 -0.503129 0
M  V30 1223 H 119.019 -3.12474 -2.03506 0
M  V30 1224 N 121.204 0.198386 -1.56346 0
M  V30 1225 C 122.137 1.27381 -1.89339 0
M  V30 1226 C 123.115 1.44106 -0.753134 0
M  V30 1227 O 124.299 1.59549 -1.00381 0
M  V30 1228 C 121.426 2.6409 -2.12071 0
M  V30 1229 C 120.472 2.64253 -3.34772 0
M  V30 1230 S 121.305 2.16013 -4.89999 0
M  V30 1231 C 122.461 3.54553 -5.15794 0
M  V30 1232 H 122.694 0.992058 -2.8026 0
M  V30 1233 H 120.227 0.401726 -1.49082 0
M  V30 1234 H 122.185 3.42786 -2.2585 0
M  V30 1235 H 120.846 2.89478 -1.21906 0
M  V30 1236 H 120.039 3.64768 -3.47794 0
M  V30 1237 H 119.641 1.93637 -3.1997 0
M  V30 1238 H 121.933 4.50396 -5.06112 0
M  V30 1239 H 122.876 3.46428 -6.1757 0
M  V30 1240 H 123.284 3.49313 -4.43442 0
M  V30 1241 N 122.682 1.50554 0.465978 0
M  V30 1242 C 123.612 1.72722 1.57128 0
M  V30 1243 C 124.593 0.576294 1.6004 0
M  V30 1244 O 125.778 0.81598 1.76225 0
M  V30 1245 C 122.908 1.82605 2.95419 0
M  V30 1246 C 121.862 2.97835 3.07373 0
M  V30 1247 C 121.188 2.92867 4.47363 0
M  V30 1248 C 122.488 4.38265 2.84114 0
M  V30 1249 H 124.182 2.65267 1.38829 0
M  V30 1250 H 121.728 1.2765 0.666441 0
M  V30 1251 H 123.681 1.96698 3.72677 0
M  V30 1252 H 122.405 0.866858 3.14886 0
M  V30 1253 H 121.064 2.83401 2.3255 0
M  V30 1254 H 120.712 1.94783 4.63755 0
M  V30 1255 H 120.412 3.70227 4.56296 0
M  V30 1256 H 121.936 3.09015 5.26633 0
M  V30 1257 H 123.35 4.53198 3.51118 0
M  V30 1258 H 121.747 5.17115 3.04487 0
M  V30 1259 H 122.817 4.50281 1.7993 0
M  V30 1260 N 124.16 -0.719506 1.40217 0
M  V30 1261 C 125.388 -1.50864 1.41589 0
M  V30 1262 C 125.803 -1.88794 0.0145275 0
M  V30 1263 O 125.16 -1.55174 -0.960594 0
M  V30 1264 C 125.211 -2.78646 2.30302 0
M  V30 1265 O 124.932 -2.42321 3.64983 0
M  V30 1266 C 126.433 -3.72569 2.40224 0
M  V30 1267 H 123.653 -0.465709 0.48307 0
M  V30 1268 H 126.197 -0.88785 1.84221 0
M  V30 1269 H 124.352 -3.37019 1.91042 0
M  V30 1270 H 124.766 -3.24514 4.12057 0
M  V30 1271 H 126.24 -4.5908 3.06512 0
M  V30 1272 H 126.717 -4.15403 1.42608 0
M  V30 1273 H 127.323 -3.20109 2.80019 0
M  V30 1274 N 125.638 -1.25649 -0.95132 0
M  V30 1275 C 126.863 -1.13443 -1.73624 0
M  V30 1276 C 127.288 0.307565 -1.85568 0
M  V30 1277 O 126.646 1.22282 -1.33854 0
M  V30 1278 C 126.694 -1.79723 -3.12621 0
M  V30 1279 O 125.798 -1.07912 -3.98031 0
M  V30 1280 H 125.139 -0.395872 -0.533086 0
M  V30 1281 H 127.669 -1.66276 -1.1922 0
M  V30 1282 H 127.679 -1.86141 -3.63064 0
M  V30 1283 H 126.354 -2.84633 -3.03244 0
M  V30 1284 H 124.931 -1.09398 -3.56492 0
M  V30 1285 N 127.117 1.15442 -1.07289 0
M  V30 1286 C 128.08 2.18358 -0.696591 0
M  V30 1287 C 129.08 1.58637 0.262837 0
M  V30 1288 O 130.27 1.74145 0.0438809 0
M  V30 1289 C 127.402 3.4089 -0.0266151 0
M  V30 1290 H 128.595 2.53162 -1.60776 0
M  V30 1291 H 126.148 1.29893 -0.869342 0
M  V30 1292 H 126.883 3.11653 0.896822 0
M  V30 1293 H 126.668 3.85495 -0.716657 0
M  V30 1294 H 128.158 4.17009 0.222028 0
M  V30 1295 N 128.595 0.856903 1.32268 0
M  V30 1296 C 129.542 0.301172 2.28827 0
M  V30 1297 C 130.512 -0.593104 1.5515 0
M  V30 1298 O 131.697 -0.527537 1.83362 0
M  V30 1299 C 128.837 -0.502523 3.41422 0
M  V30 1300 C 127.95 0.417797 4.29975 0
M  V30 1301 C 127.085 -0.398749 5.29701 0
M  V30 1302 C 126.124 0.518827 6.09897 0
M  V30 1303 N 125.261 -0.260674 7.01616 0
M  V30 1304 H 130.101 1.12983 2.75751 0
M  V30 1305 H 127.638 0.568582 1.35667 0
M  V30 1306 H 129.596 -0.984141 4.05426 0
M  V30 1307 H 128.226 -1.29599 2.95642 0
M  V30 1308 H 127.278 1.01781 3.66531 0
M  V30 1309 H 128.59 1.12191 4.86019 0
M  V30 1310 H 127.744 -0.943435 5.9932 0
M  V30 1311 H 126.483 -1.13622 4.7428 0
M  V30 1312 H 125.488 1.07538 5.39181 0
M  V30 1313 H 126.713 1.25495 6.67404 0
M  V30 1314 H 124.659 -0.981198 6.4862 0
M  V30 1315 H 124.576 0.384364 7.55022 0
M  V30 1316 H 125.844 -0.787014 7.75517 0
M  V30 1317 N 130.073 -1.45103 0.615059 0
M  V30 1318 C 131.005 -2.28786 -0.13762 0
M  V30 1319 C 132.018 -1.40376 -0.824525 0
M  V30 1320 O 133.207 -1.64681 -0.688662 0
M  V30 1321 C 130.307 -3.16322 -1.21628 0
M  V30 1322 C 129.48 -4.33054 -0.615039 0
M  V30 1323 C 128.539 -5.01743 -1.58556 0
M  V30 1324 O 127.565 -5.58293 -1.10895 0
M  V30 1325 N 128.767 -5.01714 -2.91998 0
M  V30 1326 H 131.532 -2.94025 0.580483 0
M  V30 1327 H 129.093 -1.55373 0.45507 0
M  V30 1328 H 131.085 -3.59139 -1.86552 0
M  V30 1329 H 129.655 -2.52943 -1.83681 0
M  V30 1330 H 128.875 -3.93627 0.21245 0
M  V30 1331 H 130.163 -5.08431 -0.193704 0
M  V30 1332 H 129.561 -4.57075 -3.33316 0
M  V30 1333 H 128.118 -5.48371 -3.52325 0
M  V30 1334 N 131.551 -0.354651 -1.53558 0
M  V30 1335 C 132.779 0.239515 -2.05509 0
M  V30 1336 C 133.194 1.4333 -1.2289 0
M  V30 1337 O 132.551 1.80538 -0.266899 0
M  V30 1338 C 132.602 0.643719 -3.55723 0
M  V30 1339 O 132.323 -0.502602 -4.35207 0
M  V30 1340 C 133.824 1.29743 -4.23889 0
M  V30 1341 H 131.044 0.0442697 -0.669538 0
M  V30 1342 H 133.588 -0.509856 -1.98042 0
M  V30 1343 H 131.743 1.34302 -3.63376 0
M  V30 1344 H 132.157 -0.178172 -5.24197 0
M  V30 1345 H 133.631 1.53091 -5.30346 0
M  V30 1346 H 134.108 2.25441 -3.76926 0
M  V30 1347 H 134.714 0.639865 -4.20459 0
M  V30 1348 N 133.029 1.57378 -0.0835403 0
M  V30 1349 C 134.259 1.97975 0.590713 0
M  V30 1350 C 134.667 0.961083 1.62972 0
M  V30 1351 O 134.01 -0.0590879 1.83605 0
M  V30 1352 C 134.072 3.34915 1.3066 0
M  V30 1353 C 133.736 4.55069 0.419698 0
M  V30 1354 C 134.733 5.18868 -0.32749 0
M  V30 1355 C 132.418 5.0114 0.341137 0
M  V30 1356 C 134.412 6.27098 -1.14134 0
M  V30 1357 C 132.099 6.0924 -0.476374 0
M  V30 1358 C 133.097 6.72083 -1.21627 0
M  V30 1359 O 132.785 7.781 -2.02028 0
M  V30 1360 H 132.517 0.655818 0.163947 0
M  V30 1361 H 135.071 2.04807 -0.156021 0
M  V30 1362 H 133.301 3.24733 2.09966 0
M  V30 1363 H 134.99 3.60037 1.87424 0
M  V30 1364 H 135.756 4.84211 -0.276459 0
M  V30 1365 H 131.635 4.51996 0.90668 0
M  V30 1366 H 135.179 6.7608 -1.71935 0
M  V30 1367 H 131.076 6.43329 -0.528927 0
M  V30 1368 H 131.844 7.95034 -1.94586 0
M  V30 1369 N 134.507 -0.190092 1.56449 0
M  V30 1370 C 135.47 -1.21925 1.9408 0
M  V30 1371 C 136.47 -1.38176 0.822431 0
M  V30 1372 O 137.66 -1.35903 1.08977 0
M  V30 1373 C 134.792 -2.58773 2.21922 0
M  V30 1374 H 135.985 -0.897464 2.86157 0
M  V30 1375 H 133.538 -0.43181 1.50217 0
M  V30 1376 H 134.273 -2.95998 1.32499 0
M  V30 1377 H 134.058 -2.48348 3.03424 0
M  V30 1378 H 135.548 -3.32978 2.52022 0
M  V30 1379 N 135.985 -1.50799 -0.457987 0
M  V30 1380 C 136.948 -1.7005 -1.53674 0
M  V30 1381 C 137.948 -0.570881 -1.50325 0
M  V30 1382 O 139.138 -0.838126 -1.52712 0
M  V30 1383 C 136.27 -1.73788 -2.93276 0
M  V30 1384 H 137.463 -2.66306 -1.37917 0
M  V30 1385 H 135.016 -1.40477 -0.685271 0
M  V30 1386 H 135.751 -0.792717 -3.14462 0
M  V30 1387 H 135.536 -2.55864 -2.97113 0
M  V30 1388 H 137.026 -1.90591 -3.71571 0
M  V30 1389 N 137.463 0.71206 -1.40597 0
M  V30 1390 C 138.874 1.29135 -1.34837 0
M  V30 1391 C 139.225 1.96186 -0.0235395 0
M  V30 1392 O 138.35 1.97768 0.878444 0
M  V30 1393 C 138.945 2.34827 -2.44217 0
M  V30 1394 C 137.504 2.88371 -2.41907 0
M  V30 1395 C 136.651 1.62202 -2.24913 0
M  V30 1396 H 139.602 0.507944 -1.50352 0
M  V30 1397 H 139.623 3.15749 -2.12327 0
M  V30 1398 H 139.135 1.85996 -3.40627 0
M  V30 1399 H 137.236 3.41422 -1.49204 0
M  V30 1400 H 137.349 3.39925 -3.37621 0
M  V30 1401 H 135.713 1.874 -1.72492 0
M  V30 1402 H 136.496 1.15391 -3.23326 0
M  V30 1403 N 138.941 1.26152 0.944643 0
M  V30 1404 C 139.888 1.07408 2.04285 0
M  V30 1405 C 140.858 -0.0198413 1.66088 0
M  V30 1406 O 142.043 0.139264 1.90291 0
M  V30 1407 C 139.183 0.70945 3.37729 0
M  V30 1408 C 138.296 1.87926 3.88983 0
M  V30 1409 C 137.431 1.45807 5.10797 0
M  V30 1410 C 136.47 2.5964 5.54305 0
M  V30 1411 N 135.607 2.18226 6.67324 0
M  V30 1412 H 140.447 2.01389 2.1965 0
M  V30 1413 H 137.984 1.00275 1.07626 0
M  V30 1414 H 139.942 0.478948 4.14442 0
M  V30 1415 H 138.572 -0.193389 3.2222 0
M  V30 1416 H 137.624 2.22279 3.08701 0
M  V30 1417 H 138.936 2.73377 4.17213 0
M  V30 1418 H 138.09 1.18781 5.94959 0
M  V30 1419 H 136.829 0.574414 4.84305 0
M  V30 1420 H 135.834 2.87399 4.68702 0
M  V30 1421 H 137.059 3.48599 5.828 0
M  V30 1422 H 135.005 1.3229 6.42523 0
M  V30 1423 H 134.922 2.97221 6.95123 0
M  V30 1424 H 136.19 1.94403 7.54869 0
M  V30 1425 N 140.419 -1.14872 1.07899 0
M  V30 1426 C 141.382 -2.17986 0.708161 0
M  V30 1427 C 142.382 -1.58775 -0.25442 0
M  V30 1428 O 143.572 -1.74166 -0.034645 0
M  V30 1429 C 140.704 -3.40871 0.0446929 0
M  V30 1430 H 141.897 -2.52306 1.62116 0
M  V30 1431 H 139.45 -1.2943 0.876218 0
M  V30 1432 H 140.185 -3.12124 -0.880281 0
M  V30 1433 H 139.97 -3.8511 0.737091 0
M  V30 1434 H 141.46 -4.17121 -0.19991 0
M  V30 1435 N 141.898 -0.863906 -1.31812 0
M  V30 1436 C 143.309 -0.52522 -1.7916 0
M  V30 1437 C 143.66 0.957518 -1.71248 0
M  V30 1438 O 142.785 1.74734 -1.27659 0
M  V30 1439 C 143.38 -0.9466 -3.25307 0
M  V30 1440 C 141.939 -0.659668 -3.70574 0
M  V30 1441 C 141.086 -1.14126 -2.52726 0
M  V30 1442 H 144.037 -1.05022 -1.1898 0
M  V30 1443 H 144.058 -0.266766 -3.79564 0
M  V30 1444 H 143.57 -2.02579 -3.31034 0
M  V30 1445 H 141.671 0.408416 -3.70355 0
M  V30 1446 H 141.784 -1.23245 -4.62977 0
M  V30 1447 H 140.148 -0.561216 -2.4844 0
M  V30 1448 H 140.931 -2.22775 -2.61201 0
M  V30 1449 N 143.376 1.44774 -0.622745 0
M  V30 1450 C 144.286 2.34433 0.0886031 0
M  V30 1451 C 145.302 1.52131 0.844529 0
M  V30 1452 O 146.478 1.84886 0.798691 0
M  V30 1453 C 143.543 3.29986 1.0635 0
M  V30 1454 C 142.604 4.28195 0.307873 0
M  V30 1455 C 141.837 5.19183 1.23633 0
M  V30 1456 O 142.06 5.13918 2.47476 0
M  V30 1457 O 140.994 5.97515 0.725189 0
M  V30 1458 H 144.82 2.96693 -0.648599 0
M  V30 1459 H 142.405 1.44408 -0.382957 0
M  V30 1460 H 144.287 3.88825 1.6246 0
M  V30 1461 H 142.962 2.70269 1.78146 0
M  V30 1462 H 141.869 3.72927 -0.296064 0
M  V30 1463 H 143.202 4.90808 -0.3699 0
M  V30 1464 N 144.854 0.36279 1.53368 0
M  V30 1465 C 145.817 -0.472679 2.24273 0
M  V30 1466 C 146.817 -1.012 1.24961 0
M  V30 1467 O 148.007 -0.898194 1.49259 0
M  V30 1468 C 145.139 -1.66039 2.97731 0
M  V30 1469 H 146.332 0.14773 2.99536 0
M  V30 1470 H 143.885 0.114434 1.55881 0
M  V30 1471 H 144.62 -2.31896 2.26704 0
M  V30 1472 H 144.405 -1.28066 3.70596 0
M  V30 1473 H 145.895 -2.25252 3.51641 0
M  V30 1474 N 146.332 -1.57332 0.0918853 0
M  V30 1475 C 147.56 -1.98574 -0.581048 0
M  V30 1476 C 147.975 -0.970903 -1.61923 0
M  V30 1477 O 147.332 0.0399054 -1.82456 0
M  V30 1478 C 147.383 -3.39872 -1.23164 0
M  V30 1479 O 147.104 -4.37469 -0.234989 0
M  V30 1480 C 148.605 -3.96099 -1.99049 0
M  V30 1481 H 145.825 -0.65261 -0.156018 0
M  V30 1482 H 148.369 -2.0379 0.170225 0
M  V30 1483 H 146.524 -3.35679 -1.93386 0
M  V30 1484 H 146.938 -5.19751 -0.70418 0
M  V30 1485 H 148.412 -4.97127 -2.39934 0
M  V30 1486 H 148.889 -3.3374 -2.85507 0
M  V30 1487 H 149.495 -4.03755 -1.3365 0
M  V30 1488 N 147.81 0.181792 -1.56548 0
M  V30 1489 C 148.74 1.22765 -1.98623 0
M  V30 1490 C 149.721 1.46747 -0.860189 0
M  V30 1491 O 150.906 1.58259 -1.12551 0
M  V30 1492 C 148.036 2.56894 -2.33715 0
M  V30 1493 C 146.99 2.475 -3.49182 0
M  V30 1494 C 146.316 3.86023 -3.69986 0
M  V30 1495 C 147.616 1.98866 -4.82959 0
M  V30 1496 H 149.31 0.877942 -2.86239 0
M  V30 1497 H 146.856 0.42088 -1.37712 0
M  V30 1498 H 148.809 3.30253 -2.61746 0
M  V30 1499 H 147.533 2.93632 -1.42997 0
M  V30 1500 H 146.192 1.76596 -3.21262 0
M  V30 1501 H 145.84 4.20136 -2.76576 0
M  V30 1502 H 145.54 3.80609 -4.47672 0
M  V30 1503 H 147.064 4.60984 -4.00407 0
M  V30 1504 H 148.478 2.61992 -5.09934 0
M  V30 1505 H 146.875 2.04424 -5.64208 0
M  V30 1506 H 147.945 0.942465 -4.75653 0
M  V30 1507 N 149.288 1.51039 0.449983 0
M  V30 1508 C 150.536 1.62759 1.19808 0
M  V30 1509 C 150.857 0.339981 1.92013 0
M  V30 1510 O 150.127 -0.643606 1.85026 0
M  V30 1511 H 148.707 0.599811 0.445237 0
M  V30 1512 H 151.369 1.87914 0.517138 0
M  V30 1513 H 150.465 2.44911 1.93455 0
M  V30 1514 N 150.766 -0.704594 1.40972 0
M  V30 1515 C 152.177 -1.28418 1.3552 0
M  V30 1516 C 152.528 -1.96171 0.0339434 0
M  V30 1517 O 151.653 -1.98231 -0.867944 0
M  V30 1518 C 152.248 -2.33528 2.45459 0
M  V30 1519 C 150.807 -2.87085 2.43433 0
M  V30 1520 C 149.954 -1.61007 2.2577 0
M  V30 1521 H 152.905 -0.499963 1.50619 0
M  V30 1522 H 152.926 -3.14619 2.13998 0
M  V30 1523 H 152.438 -1.84187 3.41609 0
M  V30 1524 H 150.539 -3.40626 1.51013 0
M  V30 1525 H 150.652 -3.3813 3.39419 0
M  V30 1526 H 149.016 -1.86482 1.73483 0
M  V30 1527 H 149.799 -1.13675 3.23933 0
M  V30 1528 N 152.244 -1.26651 -0.937939 0
M  V30 1529 C 153.484 -1.13611 -1.69917 0
M  V30 1530 C 153.848 0.314687 -1.89404 0
M  V30 1531 O 155.049 0.567285 -2.62746 0
M  V30 1532 C 153.32 -1.88742 -3.03498 0
M  V30 1533 S 154.879 -1.91794 -3.94665 0
M  V30 1534 H 151.697 -0.405767 -0.583844 0
M  V30 1535 H 154.299 -1.60416 -1.11745 0
M  V30 1536 H 153.003 -2.9336 -2.86999 0
M  V30 1537 H 152.534 -1.42391 -3.66727 0
M  V30 1538 H 154.549 -1.00698 -4.85875 0
M  V30 1539 N 153.722 1.14298 -1.08507 0
M  V30 1540 C 154.968 1.85854 -0.826438 0
M  V30 1541 C 155.323 1.81413 0.640878 0
M  V30 1542 O 154.616 1.23463 1.46518 0
M  V30 1543 C 154.81 3.33547 -1.28379 0
M  V30 1544 C 154.639 3.52369 -2.79403 0
M  V30 1545 C 153.409 3.67159 -3.47164 0
M  V30 1546 C 155.607 3.49203 -3.77573 0
M  V30 1547 N 153.589 3.74149 -4.86709 0
M  V30 1548 C 154.96 3.6245 -5.03021 0
M  V30 1549 C 157.015 3.32547 -3.70563 0
M  V30 1550 C 155.718 3.60761 -6.2229 0
M  V30 1551 C 157.744 3.32162 -4.89308 0
M  V30 1552 C 157.106 3.45949 -6.13595 0
M  V30 1553 H 153.205 0.696705 -0.355143 0
M  V30 1554 H 155.789 1.36981 -1.38362 0
M  V30 1555 H 153.96 3.81008 -0.754166 0
M  V30 1556 H 155.692 3.92867 -0.971469 0
M  V30 1557 H 152.447 3.68433 -2.9758 0
M  V30 1558 H 152.871 3.81359 -5.5937 0
M  V30 1559 H 157.513 3.20797 -2.75407 0
M  V30 1560 H 155.231 3.71286 -7.17755 0
M  V30 1561 H 158.817 3.20485 -4.85573 0
M  V30 1562 H 157.697 3.456 -7.03939 0
M  V30 1563 N 155.201 0.870884 1.31352 0
M  V30 1564 C 156.449 0.48132 1.96285 0
M  V30 1565 C 156.77 -0.969813 1.69173 0
M  V30 1566 O 156.04 -1.67998 1.00764 0
M  V30 1567 H 154.62 0.175002 0.726212 0
M  V30 1568 H 157.282 1.11087 1.60143 0
M  V30 1569 H 156.378 0.639825 3.05471 0
M  V30 1570 N 156.679 -1.44442 0.630414 0
M  V30 1571 C 157.919 -2.03934 0.137919 0
M  V30 1572 C 158.283 -1.48509 -1.21692 0
M  V30 1573 O 159.484 -1.99499 -1.80149 0
M  V30 1574 C 157.755 -3.57187 0.123373 0
M  V30 1575 S 159.314 -4.37741 -0.304604 0
M  V30 1576 H 156.132 -0.708401 0.0607353 0
M  V30 1577 H 158.734 -1.76835 0.833643 0
M  V30 1578 H 157.438 -3.95032 1.11256 0
M  V30 1579 H 156.969 -3.88895 -0.59362 0
M  V30 1580 H 158.984 -4.71403 -1.54897 0
M  V30 1581 N 158.157 -0.370918 -1.53173 0
M  V30 1582 C 159.382 0.220293 -2.06227 0
M  V30 1583 C 159.807 1.41243 -1.24225 0
M  V30 1584 O 159.165 1.79387 -0.262645 0
M  V30 1585 C 159.213 0.586663 -3.55796 0
M  V30 1586 O 158.317 1.68317 -3.76488 0
M  V30 1587 H 157.658 0.0308099 -0.663285 0
M  V30 1588 H 160.188 -0.533068 -1.97534 0
M  V30 1589 H 160.198 0.85617 -3.98916 0
M  V30 1590 H 158.873 -0.285013 -4.14922 0
M  V30 1591 H 157.45 1.40881 -3.45264 0
M  V30 1592 N 159.635 1.57281 -0.100228 0
M  V30 1593 C 160.875 1.96419 0.56558 0
M  V30 1594 C 161.239 0.981265 1.65031 0
M  V30 1595 O 162.44 1.26133 2.37369 0
M  V30 1596 C 160.711 3.39996 1.10171 0
M  V30 1597 S 162.27 4.01134 1.77867 0
M  V30 1598 H 159.088 0.68667 0.184406 0
M  V30 1599 H 161.69 1.94662 -0.180851 0
M  V30 1600 H 160.394 4.09296 0.300803 0
M  V30 1601 H 159.925 3.45361 1.88385 0
M  V30 1602 H 161.94 3.90358 3.06326 0
M  V30 1603 N 161.113 -0.173488 1.56642 0
M  V30 1604 C 162.361 -0.888706 1.81512 0
M  V30 1605 C 162.682 -1.82875 0.676872 0
M  V30 1606 O 161.952 -1.93536 -0.303414 0
M  V30 1607 H 160.532 -0.331164 0.669582 0
M  V30 1608 H 163.194 -0.173823 1.94123 0
M  V30 1609 H 162.29 -1.46691 2.75478 0
M  V30 1610 N 162.591 -1.51276 -0.441967 0
M  V30 1611 C 163.816 -1.67799 -1.21895 0
M  V30 1612 C 164.241 -0.372864 -1.84367 0
M  V30 1613 O 163.599 0.666501 -1.68604 0
M  V30 1614 C 163.647 -2.79199 -2.28211 0
M  V30 1615 O 162.751 -2.42479 -3.33583 0
M  V30 1616 H 162.092 -0.559649 -0.357336 0
M  V30 1617 H 164.622 -1.97815 -0.522522 0
M  V30 1618 H 164.632 -3.03146 -2.73069 0
M  V30 1619 H 163.307 -3.73906 -1.82118 0
M  V30 1620 H 161.884 -2.29087 -2.94234 0
M  V30 1621 N 164.069 0.697108 -1.41344 0
M  V30 1622 C 165.346 1.45154 -1.31109 0
M  V30 1623 C 165.726 2.11009 0.0620449 0
M  V30 1624 O 165.074 2.01571 1.07618 0
M  V30 1625 C 165.284 2.47223 -2.46337 0
M  V30 1626 C 166.632 3.1252 -2.87431 0
M  V30 1627 O 167.656 2.57547 -2.46065 0
M  V30 1628 O 166.515 4.12083 -3.58957 0
M  V30 1629 H 163.609 0.646365 -0.515889 0
M  V30 1630 H 166.155 0.727716 -1.53305 0
M  V30 1631 H 164.927 1.97204 -3.37974 0
M  V30 1632 H 164.55 3.27116 -2.2601 0
M  V30 1633 N 165.547 1.27147 0.931209 0
M  V30 1634 C 166.958 1.12044 1.49342 0
M  V30 1635 C 167.309 -0.295795 1.93957 0
M  V30 1636 O 166.434 -1.18835 1.80852 0
M  V30 1637 C 167.029 2.02781 2.71414 0
M  V30 1638 C 165.588 1.91794 3.2387 0
M  V30 1639 C 164.735 1.95543 1.96617 0
M  V30 1640 H 167.686 1.40091 0.745672 0
M  V30 1641 H 167.707 1.58156 3.46074 0
M  V30 1642 H 167.219 3.05848 2.38911 0
M  V30 1643 H 165.32 0.916992 3.6114 0
M  V30 1644 H 165.433 2.77852 3.90302 0
M  V30 1645 H 163.797 1.39722 2.12955 0
M  V30 1646 H 164.58 3.00259 1.66432 0
M  V30 1647 N 167.025 -1.13721 1.09112 0
M  V30 1648 C 168.273 -1.84559 0.823562 0
M  V30 1649 C 168.594 -1.83754 -0.652658 0
M  V30 1650 O 167.864 -1.29102 -1.47342 0
M  V30 1651 H 166.444 -0.683376 0.301673 0
M  V30 1652 H 169.106 -1.37771 1.37859 0
M  V30 1653 H 168.202 -2.8917 1.17419 0
M  V30 1654 N 168.503 -0.877838 -1.30888 0
M  V30 1655 C 169.749 -0.493426 -1.96706 0
M  V30 1656 C 170.082 0.953504 -1.6918 0
M  V30 1657 O 169.357 1.67266 -0.992594 0
M  V30 1658 C 169.64 -0.760429 -3.51979 0
M  V30 1659 C 169.493 -2.25747 -3.89048 0
M  V30 1660 C 170.812 -0.232148 -4.39487 0
M  V30 1661 H 167.931 -0.180746 -0.714493 0
M  V30 1662 H 170.573 -1.10052 -1.54882 0
M  V30 1663 H 168.723 -0.243715 -3.87735 0
M  V30 1664 H 170.395 -2.84204 -3.63354 0
M  V30 1665 H 168.638 -2.72694 -3.37373 0
M  V30 1666 H 169.309 -2.39491 -4.97341 0
M  V30 1667 H 171.785 -0.674314 -4.106 0
M  V30 1668 H 170.661 -0.448355 -5.47066 0
M  V30 1669 H 170.922 0.866297 -4.33529 0
M  V30 1670 N 169.982 1.44106 -0.638065 0
M  V30 1671 C 171.23 2.01579 -0.145043 0
M  V30 1672 C 171.551 1.50496 1.24 0
M  V30 1673 O 170.821 0.711374 1.82527 0
M  V30 1674 H 169.401 0.745282 -0.05063 0
M  V30 1675 H 172.063 1.76516 -0.826327 0
M  V30 1676 H 171.159 3.11877 -0.118039 0
M  V30 1677 N 171.46 0.379036 1.52974 0
M  V30 1678 C 172.876 0.0285448 1.59574 0
M  V30 1679 C 173.076 -1.45542 1.39355 0
M  V30 1680 O 172.132 -2.2187 1.20541 0
M  V30 1681 C 173.445 0.496535 2.96572 0
M  V30 1682 C 174.993 0.451909 3.0972 0
M  V30 1683 C 175.468 0.895924 4.49152 0
M  V30 1684 N 176.959 0.851522 4.55306 0
M  V30 1685 C 177.694 1.16661 5.61407 0
M  V30 1686 N 177.19 1.55166 6.752 0
M  V30 1687 N 178.983 1.08853 5.51459 0
M  V30 1688 H 171.134 1.34525 1.64367 0
M  V30 1689 H 173.397 0.550733 0.771619 0
M  V30 1690 H 173.103 1.53258 3.16552 0
M  V30 1691 H 172.977 -0.109802 3.7704 0
M  V30 1692 H 175.364 -0.575029 2.89443 0
M  V30 1693 H 175.445 1.09392 2.3123 0
M  V30 1694 H 175.089 1.92104 4.70168 0
M  V30 1695 H 175.019 0.23103 5.26093 0
M  V30 1696 H 177.51 0.568038 3.73606 0
M  V30 1697 H 177.823 1.776 7.52116 0
M  V30 1698 H 176.168 1.59044 6.76557 0
M  V30 1699 H 179.359 0.786803 4.6144 0
M  V30 1700 H 179.532 1.33742 6.34048 0
M  V30 1701 N 172.938 -1.57226 0.108567 0
M  V30 1702 C 173.901 -2.13602 -0.831082 0
M  V30 1703 C 174.901 -1.06841 -1.20173 0
M  V30 1704 O 176.091 -1.32666 -1.12895 0
M  V30 1705 C 173.223 -2.66769 -2.12243 0
M  V30 1706 H 174.416 -2.97951 -0.341317 0
M  V30 1707 H 171.969 -1.55667 -0.14057 0
M  V30 1708 H 172.704 -1.85977 -2.65675 0
M  V30 1709 H 172.489 -3.44839 -1.86625 0
M  V30 1710 H 173.979 -3.10332 -2.79435 0
M  V30 1711 N 174.416 0.165178 -1.56732 0
M  V30 1712 C 175.664 0.879068 -1.8198 0
M  V30 1713 C 175.985 1.82514 -0.686561 0
M  V30 1714 O 175.255 1.93694 0.293146 0
M  V30 1715 H 173.835 0.327608 -0.671329 0
M  V30 1716 H 176.497 0.163526 -1.94213 0
M  V30 1717 H 175.593 1.45228 -2.76252 0
M  V30 1718 N 175.894 1.51508 0.433938 0
M  V30 1719 C 176.824 1.76016 1.53429 0
M  V30 1720 C 177.805 0.610112 1.58782 0
M  V30 1721 O 178.99 0.853177 1.74455 0
M  V30 1722 C 176.12 1.88831 2.9148 0
M  V30 1723 C 175.074 3.04288 3.00987 0
M  V30 1724 C 174.4 3.0229 4.4105 0
M  V30 1725 C 175.7 4.44193 2.74754 0
M  V30 1726 H 177.394 2.68152 1.33171 0
M  V30 1727 H 174.94 1.29035 0.639214 0
M  V30 1728 H 176.893 2.04559 3.6842 0
M  V30 1729 H 175.617 0.933455 3.12976 0
M  V30 1730 H 174.276 2.8827 2.26486 0
M  V30 1731 H 173.924 2.04576 4.59519 0
M  V30 1732 H 173.624 3.79822 4.4834 0
M  V30 1733 H 175.148 3.20116 5.1996 0
M  V30 1734 H 176.562 4.60544 3.41426 0
M  V30 1735 H 174.959 5.23457 2.9345 0
M  V30 1736 H 176.029 4.53996 1.70339 0
M  V30 1737 N 177.372 -0.689602 1.41712 0
M  V30 1738 C 178.783 -1.26973 1.36875 0
M  V30 1739 C 179.134 -1.96124 0.054748 0
M  V30 1740 O 178.259 -1.99141 -0.84687 0
M  V30 1741 C 178.854 -2.30912 2.47922 0
M  V30 1742 C 177.413 -2.84486 2.46464 0
M  V30 1743 C 176.56 -1.58603 2.27465 0
M  V30 1744 H 179.511 -0.48396 1.51141 0
M  V30 1745 H 179.532 -3.12331 2.17323 0
M  V30 1746 H 179.044 -1.80554 3.43543 0
M  V30 1747 H 177.145 -3.39005 1.54617 0
M  V30 1748 H 177.258 -3.34511 3.42986 0
M  V30 1749 H 175.622 -1.84632 1.75451 0
M  V30 1750 H 176.405 -1.10233 3.25121 0
M  V30 1751 N 178.85 -1.27639 -0.924453 0
M  V30 1752 C 180.098 -1.13941 -1.66918 0
M  V30 1753 C 180.419 0.314589 -1.92446 0
M  V30 1754 O 179.689 1.21964 -1.53303 0
M  V30 1755 H 178.269 -0.418678 -0.618642 0
M  V30 1756 H 180.931 -1.60213 -1.10985 0
M  V30 1757 H 180.027 -1.67094 -2.63602 0
M  V30 1758 N 180.328 1.1314 -1.09713 0
M  V30 1759 C 181.576 1.84119 -0.833338 0
M  V30 1760 C 181.897 1.84097 0.642904 0
M  V30 1761 O 181.167 1.29881 1.46655 0
M  V30 1762 H 179.747 0.681766 -0.305293 0
M  V30 1763 H 182.409 1.37038 -1.38588 0
M  V30 1764 H 181.505 2.88543 -1.18951 0
M  V30 1765 N 181.806 0.884767 1.30421 0
M  V30 1766 C 183.222 0.57874 1.48737 0
M  V30 1767 C 183.422 -0.883567 1.81095 0
M  V30 1768 O 182.478 -1.6648 1.89844 0
M  V30 1769 C 183.791 1.49171 2.61091 0
M  V30 1770 C 185.339 1.49532 2.74971 0
M  V30 1771 C 185.814 2.39421 3.90438 0
M  V30 1772 N 187.305 2.37383 3.97748 0
M  V30 1773 C 188.04 3.03647 4.86401 0
M  V30 1774 N 187.536 3.79136 5.79852 0
M  V30 1775 N 189.329 2.9288 4.79768 0
M  V30 1776 H 181.48 1.83075 1.0769 0
M  V30 1777 H 183.743 0.783637 0.533495 0
M  V30 1778 H 183.449 2.53291 2.44001 0
M  V30 1779 H 183.323 1.20113 3.57565 0
M  V30 1780 H 185.71 0.46163 2.91467 0
M  V30 1781 H 185.791 1.8262 1.79119 0
M  V30 1782 H 185.435 3.42874 3.74699 0
M  V30 1783 H 185.365 2.03649 4.85628 0
M  V30 1784 H 187.856 1.82525 3.30897 0
M  V30 1785 H 188.169 4.26789 6.4426 0
M  V30 1786 H 186.514 3.83243 5.79784 0
M  V30 1787 H 189.705 2.33433 4.05742 0
M  V30 1788 H 189.878 3.448 5.4865 0
M  V30 1789 N 183.284 -1.43765 0.645699 0
M  V30 1790 C 184.695 -1.85193 0.236719 0
M  V30 1791 C 185.046 -1.54045 -1.21509 0
M  V30 1792 O 184.171 -0.985694 -1.92647 0
M  V30 1793 C 184.766 -3.36151 0.422845 0
M  V30 1794 C 183.325 -3.76338 0.0682492 0
M  V30 1795 C 182.472 -2.67538 0.729306 0
M  V30 1796 H 185.423 -1.34025 0.849883 0
M  V30 1797 H 185.444 -3.79032 -0.333904 0
M  V30 1798 H 184.956 -3.5879 1.47958 0
M  V30 1799 H 183.057 -3.59312 -0.986179 0
M  V30 1800 H 183.17 -4.76603 0.488469 0
M  V30 1801 H 181.534 -2.54176 0.163235 0
M  V30 1802 H 182.317 -2.93006 1.78892 0
M  V30 1803 N 184.763 -0.387143 -1.52771 0
M  V30 1804 C 186.009 0.196025 -2.0185 0
M  V30 1805 C 186.342 1.46641 -1.27319 0
M  V30 1806 O 185.617 1.90889 -0.373032 0
M  V30 1807 C 185.9 0.466136 -3.5707 0
M  V30 1808 C 185.753 -0.819385 -4.42274 0
M  V30 1809 C 187.072 1.25768 -4.21747 0
M  V30 1810 H 184.191 0.0697708 -0.73369 0
M  V30 1811 H 186.833 -0.516286 -1.82851 0
M  V30 1812 H 184.983 1.07293 -3.7339 0
M  V30 1813 H 186.655 -1.4563 -4.37709 0
M  V30 1814 H 184.898 -1.43517 -4.09372 0
M  V30 1815 H 185.569 -0.585065 -5.48891 0
M  V30 1816 H 188.045 0.744167 -4.09391 0
M  V30 1817 H 186.921 1.41541 -5.30337 0
M  V30 1818 H 187.182 2.27228 -3.79236 0
M  V30 1819 N 186.241 1.57166 -0.116904 0
M  V30 1820 C 187.204 2.14039 0.819742 0
M  V30 1821 C 188.204 1.07477 1.19605 0
M  V30 1822 O 189.394 1.33263 1.1219 0
M  V30 1823 C 186.526 2.67891 2.10826 0
M  V30 1824 H 187.719 2.98128 0.325511 0
M  V30 1825 H 185.272 1.55739 0.132312 0
M  V30 1826 H 186.007 1.87384 2.64685 0
M  V30 1827 H 185.792 3.45823 1.84793 0
M  V30 1828 H 187.282 3.11809 2.77785 0
M  V30 1829 N 187.719 -0.156864 1.56817 0
M  V30 1830 C 188.649 -1.19589 2.00551 0
M  V30 1831 C 189.63 -1.4536 0.883426 0
M  V30 1832 O 190.815 -1.56449 1.15054 0
M  V30 1833 C 187.945 -2.53143 2.37773 0
M  V30 1834 C 186.899 -2.41913 3.53075 0
M  V30 1835 C 186.225 -3.80088 3.76081 0
M  V30 1836 C 187.525 -1.91157 4.86062 0
M  V30 1837 H 189.219 -0.832293 2.87599 0
M  V30 1838 H 186.765 -0.398918 1.38364 0
M  V30 1839 H 188.718 -3.26047 2.66967 0
M  V30 1840 H 187.442 -2.91319 1.4765 0
M  V30 1841 H 186.101 -1.71462 3.24031 0
M  V30 1842 H 185.749 -4.15683 2.83225 0
M  V30 1843 H 185.449 -3.73439 4.53671 0
M  V30 1844 H 186.973 -4.54556 4.0769 0
M  V30 1845 H 188.387 -2.53846 5.14038 0
M  V30 1846 H 186.784 -1.95422 5.67389 0
M  V30 1847 H 187.854 -0.866673 4.77092 0
M  V30 1848 N 189.197 -1.51736 -0.425897 0
M  V30 1849 C 190.127 -1.76827 -1.52494 0
M  V30 1850 C 191.108 -0.618524 -1.58456 0
M  V30 1851 O 192.293 -0.862416 -1.74 0
M  V30 1852 C 189.423 -1.90374 -2.90474 0
M  V30 1853 C 188.377 -3.0588 -2.99369 0
M  V30 1854 C 187.703 -3.04625 -4.3944 0
M  V30 1855 C 189.003 -4.45644 -2.72394 0
M  V30 1856 H 190.697 -2.68855 -1.31748 0
M  V30 1857 H 188.243 -1.29372 -0.632362 0
M  V30 1858 H 190.196 -2.0651 -3.6733 0
M  V30 1859 H 188.92 -0.95004 -3.12477 0
M  V30 1860 H 187.579 -2.89467 -2.24954 0
M  V30 1861 H 187.227 -2.0701 -4.58428 0
M  V30 1862 H 186.927 -3.82195 -4.46319 0
M  V30 1863 H 188.451 -3.22869 -5.18255 0
M  V30 1864 H 189.865 -4.62348 -3.38979 0
M  V30 1865 H 188.262 -5.25006 -2.9067 0
M  V30 1866 H 189.332 -4.54893 -1.67929 0
M  V30 1867 N 190.675 0.682077 -1.42076 0
M  V30 1868 C 191.905 1.46844 -1.45329 0
M  V30 1869 C 192.313 1.89102 -0.0609328 0
M  V30 1870 O 191.656 1.58238 0.933082 0
M  V30 1871 C 191.718 2.75375 -2.31104 0
M  V30 1872 C 191.382 2.55238 -3.79081 0
M  V30 1873 C 192.379 2.20309 -4.70914 0
M  V30 1874 C 190.064 2.70459 -4.2327 0
M  V30 1875 C 192.058 2.00859 -6.04925 0
M  V30 1876 C 189.745 2.50624 -5.57343 0
M  V30 1877 C 190.743 2.15876 -6.47986 0
M  V30 1878 O 190.431 1.96227 -7.79583 0
M  V30 1879 H 190.163 0.4586 -0.496651 0
M  V30 1880 H 192.717 0.846131 -1.87162 0
M  V30 1881 H 190.947 3.40061 -1.84107 0
M  V30 1882 H 192.636 3.37231 -2.25898 0
M  V30 1883 H 193.402 2.08153 -4.38061 0
M  V30 1884 H 189.281 2.96485 -3.53012 0
M  V30 1885 H 192.825 1.7366 -6.75639 0
M  V30 1886 H 188.722 2.62375 -5.89771 0
M  V30 1887 H 189.49 2.10883 -7.90867 0
M  V30 1888 N 192.153 1.28127 0.917671 0
M  V30 1889 C 193.569 1.05749 1.19538 0
M  V30 1890 C 193.769 -0.202633 2.00479 0
M  V30 1891 O 192.825 -0.905382 2.3571 0
M  V30 1892 C 194.138 2.30273 1.93378 0
M  V30 1893 C 195.686 2.35412 2.06277 0
M  V30 1894 C 196.161 3.59692 2.83524 0
M  V30 1895 N 197.652 3.60309 2.91087 0
M  V30 1896 C 198.387 4.53147 3.51348 0
M  V30 1897 N 197.883 5.563 4.12919 0
M  V30 1898 N 199.676 4.40751 3.48849 0
M  V30 1899 H 191.827 2.09024 0.377184 0
M  V30 1900 H 194.09 0.919798 0.22951 0
M  V30 1901 H 193.796 3.22055 1.41328 0
M  V30 1902 H 193.67 2.36378 2.93947 0
M  V30 1903 H 196.057 1.4413 2.57508 0
M  V30 1904 H 196.138 2.33304 1.04895 0
M  V30 1905 H 195.782 4.51316 2.32973 0
M  V30 1906 H 195.712 3.59054 3.85211 0
M  V30 1907 H 198.203 2.85714 2.47338 0
M  V30 1908 H 198.516 6.2329 4.56869 0
M  V30 1909 H 196.861 5.60131 4.11435 0
M  V30 1910 H 200.052 3.59367 2.99955 0
M  V30 1911 H 200.225 5.13291 3.9552 0
M  V30 1912 N 193.631 -1.12557 1.10312 0
M  V30 1913 C 194.871 -1.8568 0.854543 0
M  V30 1914 C 195.235 -1.82091 -0.608843 0
M  V30 1915 O 196.436 -2.50544 -0.973717 0
M  V30 1916 C 194.707 -3.2942 1.38626 0
M  V30 1917 S 196.266 -4.19931 1.27293 0
M  V30 1918 H 193.084 -0.640427 0.308827 0
M  V30 1919 H 195.686 -1.35599 1.40831 0
M  V30 1920 H 194.39 -3.2959 2.44537 0
M  V30 1921 H 193.921 -3.84566 0.82902 0
M  V30 1922 H 195.936 -4.95668 0.229776 0
M  V30 1923 N 195.109 -0.891671 -1.2995 0
M  V30 1924 C 196.349 -0.520296 -1.97667 0
M  V30 1925 C 196.713 0.914797 -1.68806 0
M  V30 1926 O 197.914 1.39263 -2.29911 0
M  V30 1927 C 196.185 -0.795222 -3.48441 0
M  V30 1928 S 197.744 -0.526953 -4.35624 0
M  V30 1929 H 194.562 -0.19333 -0.684211 0
M  V30 1930 H 197.164 -1.15238 -1.57926 0
M  V30 1931 H 195.868 -1.83805 -3.66938 0
M  V30 1932 H 195.399 -0.15095 -3.9311 0
M  V30 1933 H 197.414 0.631533 -4.92165 0
M  V30 1934 N 196.587 1.43421 -0.653314 0
M  V30 1935 C 197.834 2.01812 -0.166745 0
M  V30 1936 C 198.162 1.51535 1.21931 0
M  V30 1937 O 197.417 0.698975 1.82792 0
M  V30 1938 C 197.716 3.57176 -0.126623 0
M  V30 1939 C 197.382 4.26798 -1.45444 0
M  V30 1940 C 196.044 4.45534 -1.81805 0
M  V30 1941 C 198.396 4.66225 -2.32989 0
M  V30 1942 C 195.724 5.00961 -3.05377 0
M  V30 1943 C 198.076 5.23021 -3.55853 0
M  V30 1944 C 196.74 5.39973 -3.9241 0
M  V30 1945 H 196.01 0.738484 -0.0610162 0
M  V30 1946 H 198.657 1.71896 -0.84404 0
M  V30 1947 H 196.962 3.86634 0.634123 0
M  V30 1948 H 198.659 4.00112 0.266723 0
M  V30 1949 H 195.249 4.12561 -1.16153 0
M  V30 1950 H 199.433 4.51443 -2.06187 0
M  V30 1951 H 194.689 5.12271 -3.3375 0
M  V30 1952 H 198.863 5.52518 -4.23907 0
M  V30 1953 H 196.49 5.82687 -4.88242 0
M  V30 1954 N 198.065 0.39524 1.52563 0
M  V30 1955 C 199.305 -0.184744 2.03563 0
M  V30 1956 C 199.669 -1.43548 1.27507 0
M  V30 1957 O 200.87 -2.093 1.68662 0
M  V30 1958 C 199.141 -0.440294 3.54678 0
M  V30 1959 S 200.7 -0.989712 4.27493 0
M  V30 1960 H 197.518 -0.0515075 0.709132 0
M  V30 1961 H 200.12 0.544957 1.87751 0
M  V30 1962 H 198.824 0.477005 4.07618 0
M  V30 1963 H 198.355 -1.19825 3.74707 0
M  V30 1964 H 200.37 -2.27155 4.41152 0
M  V30 1965 N 199.544 -1.57102 0.125237 0
M  V30 1966 C 200.792 -1.95021 -0.530198 0
M  V30 1967 C 201.113 -1.00982 -1.66816 0
M  V30 1968 O 200.383 -0.0672693 -1.95784 0
M  V30 1969 H 198.963 -0.720046 -0.198853 0
M  V30 1970 H 201.625 -1.93916 0.19564 0
M  V30 1971 H 200.721 -2.98211 -0.920681 0
M  V30 1972 N 201.022 0.148545 -1.56898 0
M  V30 1973 C 201.932 1.20293 -2.01412 0
M  V30 1974 C 202.948 1.47107 -0.929273 0
M  V30 1975 O 204.124 1.58807 -1.23863 0
M  V30 1976 C 201.189 2.51682 -2.38447 0
M  V30 1977 C 200.25 2.32529 -3.60872 0
M  V30 1978 C 199.483 3.57653 -3.96132 0
M  V30 1979 O 199.706 4.63771 -3.32073 0
M  V30 1980 O 198.64 3.50408 -4.89385 0
M  V30 1981 H 202.466 0.855025 -2.91416 0
M  V30 1982 H 200.051 0.357151 -1.45068 0
M  V30 1983 H 201.933 3.29147 -2.63135 0
M  V30 1984 H 200.608 2.86006 -1.51599 0
M  V30 1985 H 199.515 1.53019 -3.41373 0
M  V30 1986 H 200.848 2.03121 -4.48333 0
M  V30 1987 N 202.5 1.5196 0.417844 0
M  V30 1988 C 203.777 1.56146 1.17803 0
M  V30 1989 C 204.157 0.337275 2.08388 0
M  V30 1990 O 203.505 -0.676447 2.18258 0
M  V30 1991 C 203.715 2.88566 1.96293 0
M  V30 1992 C 205.063 3.41244 2.52662 0
M  V30 1993 O 206.087 2.90247 2.06483 0
M  V30 1994 O 204.946 4.30273 3.36938 0
M  V30 1995 H 202.04 0.628598 0.537395 0
M  V30 1996 H 204.586 1.64283 0.425331 0
M  V30 1997 H 203.358 3.69116 1.2988 0
M  V30 1998 H 202.981 2.83681 2.78587 0
M  V30 1999 N 203.978 -0.674533 1.42435 0
M  V30 2000 C 204.928 -1.7807 1.4239 0
M  V30 2001 C 205.912 -1.58169 0.295202 0
M  V30 2002 O 207.104 -1.68643 0.537449 0
M  V30 2003 C 204.233 -3.16532 1.32901 0
M  V30 2004 C 203.319 -3.42055 2.50717 0
M  V30 2005 N 203.71 -3.38162 3.76139 0
M  V30 2006 C 202.008 -3.72692 2.44983 0
M  V30 2007 C 202.709 -3.63177 4.54398 0
M  V30 2008 N 201.685 -3.83954 3.84812 0
M  V30 2009 H 205.487 -1.73454 2.37257 0
M  V30 2010 H 203.001 -0.875381 1.36788 0
M  V30 2011 H 204.998 -3.958 1.30951 0
M  V30 2012 H 203.658 -3.22345 0.390363 0
M  V30 2013 H 204.669 -3.18057 4.0873 0
M  V30 2014 H 201.346 -3.85749 1.59699 0
M  V30 2015 H 202.736 -3.66125 5.63384 0
M  V30 2016 N 205.456 -1.28612 -0.910864 0
M  V30 2017 C 206.867 -1.14406 -1.47541 0
M  V30 2018 C 207.218 0.264901 -1.94403 0
M  V30 2019 O 206.343 1.15942 -1.82719 0
M  V30 2020 C 206.938 -2.07073 -2.68153 0
M  V30 2021 C 205.497 -1.96923 -3.20778 0
M  V30 2022 C 204.644 -1.98646 -1.93481 0
M  V30 2023 H 207.595 -1.41259 -0.723291 0
M  V30 2024 H 207.616 -1.63642 -3.43514 0
M  V30 2025 H 207.128 -3.09611 -2.34015 0
M  V30 2026 H 205.229 -0.97433 -3.59635 0
M  V30 2027 H 205.342 -2.84026 -3.85832 0
M  V30 2028 H 203.706 -1.43093 -2.10705 0
M  V30 2029 H 204.489 -3.02868 -1.61634 0
M  V30 2030 N 206.934 1.1197 -1.10907 0
M  V30 2031 C 208.35 1.35591 -0.841852 0
M  V30 2032 C 208.55 1.94233 0.536246 0
M  V30 2033 O 207.606 2.1717 1.28816 0
M  V30 2034 C 208.919 2.29284 -1.94549 0
M  V30 2035 C 210.467 2.42862 -1.97451 0
M  V30 2036 C 210.942 3.39873 -3.07002 0
M  V30 2037 N 212.433 3.47433 -3.06341 0
M  V30 2038 C 213.168 4.22421 -3.87748 0
M  V30 2039 N 212.664 5.00432 -4.79103 0
M  V30 2040 N 214.457 4.17876 -3.75946 0
M  V30 2041 H 206.608 0.722664 -1.99728 0
M  V30 2042 H 208.871 0.380635 -0.868229 0
M  V30 2043 H 208.577 1.93378 -2.93765 0
M  V30 2044 H 208.451 3.29452 -1.83688 0
M  V30 2045 H 210.838 2.78046 -0.988645 0
M  V30 2046 H 210.919 1.42566 -2.12388 0
M  V30 2047 H 210.563 3.05417 -4.05811 0
M  V30 2048 H 210.493 4.40011 -2.89306 0
M  V30 2049 H 212.984 2.91784 -2.40147 0
M  V30 2050 H 213.297 5.55002 -5.37766 0
M  V30 2051 H 211.642 4.99612 -4.83128 0
M  V30 2052 H 214.833 3.56016 -3.03924 0
M  V30 2053 H 215.006 4.76061 -4.39624 0
M  V30 2054 N 208.412 0.89855 1.29475 0
M  V30 2055 C 209.344 0.332726 2.26772 0
M  V30 2056 C 210.357 -0.520323 1.54261 0
M  V30 2057 O 211.546 -0.337668 1.75277 0
M  V30 2058 C 208.646 -0.544334 3.345 0
M  V30 2059 C 207.819 0.282728 4.36485 0
M  V30 2060 C 206.878 -0.526982 5.23555 0
M  V30 2061 O 205.904 0.0551165 5.69173 0
M  V30 2062 N 207.106 -1.83331 5.5079 0
M  V30 2063 H 209.871 1.16897 2.75962 0
M  V30 2064 H 207.432 0.762919 1.42798 0
M  V30 2065 H 209.424 -1.09239 3.89678 0
M  V30 2066 H 207.994 -1.28127 2.85136 0
M  V30 2067 H 207.214 1.01221 3.80983 0
M  V30 2068 H 208.502 0.84918 5.01664 0
M  V30 2069 H 207.9 -2.32898 5.15534 0
M  V30 2070 H 206.457 -2.32852 6.08788 0
M  V30 2071 N 209.89 -1.43072 0.660911 0
M  V30 2072 C 211.138 -2.01323 0.177094 0
M  V30 2073 C 211.459 -1.5245 -1.2159 0
M  V30 2074 O 210.729 -0.740322 -1.81373 0
M  V30 2075 H 209.309 -0.744382 0.0624804 0
M  V30 2076 H 211.971 -1.75179 0.854305 0
M  V30 2077 H 211.067 -3.11649 0.167641 0
M  V30 2078 N 211.368 -0.403325 -1.52352 0
M  V30 2079 C 212.593 0.176499 -2.06648 0
M  V30 2080 C 213.018 1.38577 -1.27193 0
M  V30 2081 O 212.376 1.7879 -0.300637 0
M  V30 2082 C 212.424 0.511061 -3.5696 0
M  V30 2083 O 211.528 1.60294 -3.79973 0
M  V30 2084 H 210.869 0.0167337 -0.663789 0
M  V30 2085 H 213.399 -0.574848 -1.96359 0
M  V30 2086 H 213.409 0.771362 -4.00642 0
M  V30 2087 H 212.084 -0.37296 -4.14224 0
M  V30 2088 H 210.661 1.33526 -3.48174 0
M  V30 2089 N 212.846 1.57033 -0.133567 0
M  V30 2090 C 214.095 1.94861 0.520768 0
M  V30 2091 C 214.408 1.02012 1.66892 0
M  V30 2092 O 215.614 1.29365 2.38699 0
M  V30 2093 C 214.07 3.46362 0.977809 0
M  V30 2094 C 213.678 4.47773 -0.142674 0
M  V30 2095 C 215.422 3.93083 1.60269 0
M  V30 2096 C 213.329 5.90468 0.331883 0
M  V30 2097 H 212.259 0.727453 0.198315 0
M  V30 2098 H 214.91 1.82227 -0.215759 0
M  V30 2099 H 213.292 3.54282 1.7692 0
M  V30 2100 H 214.466 4.51536 -0.919317 0
M  V30 2101 H 212.781 4.10891 -0.675124 0
M  V30 2102 H 215.378 4.97121 1.96914 0
M  V30 2103 H 215.721 3.33876 2.48662 0
M  V30 2104 H 216.254 3.88025 0.876453 0
M  V30 2105 H 212.993 6.53463 -0.516341 0
M  V30 2106 H 212.513 5.90094 1.07469 0
M  V30 2107 H 214.192 6.42179 0.788332 0
M  V30 2108 N 214.325 -0.140222 1.56975 0
M  V30 2109 C 215.255 -1.17456 2.01808 0
M  V30 2110 C 216.236 -1.44415 0.898794 0
M  V30 2111 O 217.421 -1.5522 1.16707 0
M  V30 2112 C 214.551 -2.50607 2.40444 0
M  V30 2113 C 213.505 -2.38155 3.55621 0
M  V30 2114 C 212.831 -3.76078 3.80091 0
M  V30 2115 C 214.131 -1.85991 4.88062 0
M  V30 2116 H 215.825 -0.801743 2.88466 0
M  V30 2117 H 213.371 -0.38422 1.38779 0
M  V30 2118 H 215.324 -3.23197 2.7041 0
M  V30 2119 H 214.048 -2.89737 1.50732 0
M  V30 2120 H 212.707 -1.68016 3.25832 0
M  V30 2121 H 212.355 -4.12656 2.87618 0
M  V30 2122 H 212.055 -3.68606 4.57606 0
M  V30 2123 H 213.579 -4.50206 4.12488 0
M  V30 2124 H 214.993 -2.4838 5.16701 0
M  V30 2125 H 213.39 -1.89393 5.6943 0
M  V30 2126 H 214.46 -0.816023 4.77984 0
M  V30 2127 N 215.803 -1.52179 -0.40978 0
M  V30 2128 C 217.033 -1.69807 -1.17682 0
M  V30 2129 C 217.441 -0.406908 -1.84773 0
M  V30 2130 O 216.784 0.626863 -1.72673 0
M  V30 2131 C 216.846 -2.77712 -2.2829 0
M  V30 2132 C 216.51 -4.19481 -1.81341 0
M  V30 2133 C 217.507 -5.03345 -1.30154 0
M  V30 2134 C 215.192 -4.65713 -1.88194 0
M  V30 2135 C 217.186 -6.31511 -0.864416 0
M  V30 2136 C 214.873 -5.93869 -1.44093 0
M  V30 2137 C 215.871 -6.76597 -0.933023 0
M  V30 2138 O 215.559 -8.02354 -0.49838 0
M  V30 2139 H 215.291 -0.572372 -0.359675 0
M  V30 2140 H 217.845 -1.99511 -0.488311 0
M  V30 2141 H 216.075 -2.43383 -3.00502 0
M  V30 2142 H 217.764 -2.83946 -2.90051 0
M  V30 2143 H 218.53 -4.68819 -1.24232 0
M  V30 2144 H 214.409 -4.01424 -2.26671 0
M  V30 2145 H 217.953 -6.96033 -0.467286 0
M  V30 2146 H 213.85 -6.27903 -1.49694 0
M  V30 2147 H 214.618 -8.16135 -0.621747 0
M  V30 2148 N 217.281 0.66697 -1.42791 0
M  V30 2149 C 218.506 1.46004 -1.47301 0
M  V30 2150 C 218.931 1.87894 -0.0880317 0
M  V30 2151 O 218.289 1.56502 0.915253 0
M  V30 2152 C 218.337 2.68031 -2.41229 0
M  V30 2153 O 217.441 3.6659 -1.88906 0
M  V30 2154 H 216.782 0.43832 -0.49877 0
M  V30 2155 H 219.312 0.817391 -1.87563 0
M  V30 2156 H 219.322 3.1601 -2.58073 0
M  V30 2157 H 217.997 2.36883 -3.41847 0
M  V30 2158 H 216.574 3.25661 -1.81656 0
M  V30 2159 N 218.759 1.29093 0.90403 0
M  V30 2160 C 219.689 1.16401 2.02418 0
M  V30 2161 C 220.67 0.0593085 1.69997 0
M  V30 2162 O 221.855 0.238021 1.92736 0
M  V30 2163 C 218.985 0.835233 3.37107 0
M  V30 2164 C 217.939 1.89578 3.83724 0
M  V30 2165 C 217.265 1.42041 5.15489 0
M  V30 2166 C 218.565 3.30394 4.04521 0
M  V30 2167 H 220.259 2.10109 2.13295 0
M  V30 2168 H 217.805 1.01157 1.02486 0
M  V30 2169 H 219.758 0.733169 4.14973 0
M  V30 2170 H 218.482 -0.137543 3.2631 0
M  V30 2171 H 217.141 1.98715 3.08071 0
M  V30 2172 H 216.789 0.436426 5.01103 0
M  V30 2173 H 216.489 2.12964 5.4765 0
M  V30 2174 H 218.013 1.33176 5.959 0
M  V30 2175 H 219.427 3.24123 4.72882 0
M  V30 2176 H 217.824 3.99237 4.48029 0
M  V30 2177 H 218.894 3.73692 3.09002 0
M  V30 2178 N 220.237 -1.11381 1.11499 0
M  V30 2179 C 221.167 -2.19509 0.796125 0
M  V30 2180 C 222.148 -1.68458 -0.235796 0
M  V30 2181 O 223.333 -1.93947 -0.0991344 0
M  V30 2182 C 220.463 -3.46475 0.239205 0
M  V30 2183 C 219.417 -4.10744 1.20307 0
M  V30 2184 C 218.743 -5.32293 0.50683 0
M  V30 2185 C 220.043 -4.55597 2.55399 0
M  V30 2186 H 221.737 -2.46439 1.70024 0
M  V30 2187 H 219.283 -1.18446 0.818935 0
M  V30 2188 H 221.236 -4.214 0.00392006 0
M  V30 2189 H 219.96 -3.19006 -0.700206 0
M  V30 2190 H 218.619 -3.37813 1.42399 0
M  V30 2191 H 218.267 -5.01095 -0.437408 0
M  V30 2192 H 217.967 -5.76243 1.1497 0
M  V30 2193 H 219.491 -6.09956 0.280351 0
M  V30 2194 H 220.905 -5.21841 2.37391 0
M  V30 2195 H 219.302 -5.10363 3.15673 0
M  V30 2196 H 220.372 -3.69013 3.14575 0
M  V30 2197 N 221.715 -0.905404 -1.28997 0
M  V30 2198 C 222.943 -0.549846 -1.9946 0
M  V30 2199 C 223.358 0.866834 -1.67724 0
M  V30 2200 O 222.715 1.57298 -0.925404 0
M  V30 2201 C 222.766 -0.739387 -3.53858 0
M  V30 2202 O 222.487 -2.10031 -3.84472 0
M  V30 2203 C 223.988 -0.389541 -4.41585 0
M  V30 2204 H 221.208 -0.210429 -0.637151 0
M  V30 2205 H 223.752 -1.21632 -1.64396 0
M  V30 2206 H 221.907 -0.120023 -3.87214 0
M  V30 2207 H 222.321 -2.13385 -4.79132 0
M  V30 2208 H 223.795 -0.572972 -5.49018 0
M  V30 2209 H 224.272 0.673756 -4.34001 0
M  V30 2210 H 224.878 -0.986089 -4.1371 0
M  V30 2211 N 223.193 1.4272 -0.668489 0
M  V30 2212 C 224.418 2.06484 -0.194758 0
M  V30 2213 C 224.843 1.49862 1.13679 0
M  V30 2214 O 224.201 0.614582 1.70565 0
M  V30 2215 C 224.249 3.60353 -0.133546 0
M  V30 2216 O 223.353 4.02464 0.899806 0
M  V30 2217 H 222.694 0.656137 -0.10188 0
M  V30 2218 H 225.224 1.82964 -0.915722 0
M  V30 2219 H 225.234 4.07976 0.0447041 0
M  V30 2220 H 223.909 4.00938 -1.1055 0
M  V30 2221 H 222.486 3.66402 0.693109 0
M  V30 2222 N 224.671 0.411399 1.52136 0
M  V30 2223 C 225.896 -0.165538 2.06738 0
M  V30 2224 C 226.321 -1.379 1.27926 0
M  V30 2225 O 225.679 -1.78628 0.310114 0
M  V30 2226 C 225.727 -0.492124 3.57226 0
M  V30 2227 O 224.831 -1.58276 3.80818 0
M  V30 2228 H 224.172 -0.0132132 0.663869 0
M  V30 2229 H 226.702 0.585253 1.96051 0
M  V30 2230 H 226.712 -0.750104 4.01045 0
M  V30 2231 H 225.387 0.394922 4.14021 0
M  V30 2232 H 223.964 -1.31677 3.48877 0
M  V30 2233 N 226.149 -1.5696 0.141893 0
M  V30 2234 C 227.096 -2.16501 -0.799737 0
M  V30 2235 C 228.066 -1.09643 -1.24771 0
M  V30 2236 O 229.251 -1.3766 -1.32115 0
M  V30 2237 C 226.391 -2.78679 -2.03549 0
M  V30 2238 C 225.504 -3.99914 -1.6338 0
M  V30 2239 C 224.639 -4.50106 -2.82096 0
M  V30 2240 C 223.678 -5.63819 -2.38275 0
M  V30 2241 N 222.815 -6.08651 -3.49983 0
M  V30 2242 H 227.655 -2.96632 -0.285179 0
M  V30 2243 H 225.192 -1.46533 -0.129053 0
M  V30 2244 H 227.15 -3.1287 -2.75986 0
M  V30 2245 H 225.78 -2.012 -2.52425 0
M  V30 2246 H 224.832 -3.71735 -0.807279 0
M  V30 2247 H 226.144 -4.82311 -1.27192 0
M  V30 2248 H 225.298 -4.86325 -3.62729 0
M  V30 2249 H 224.037 -3.66706 -3.21525 0
M  V30 2250 H 223.042 -5.2718 -1.56081 0
M  V30 2251 H 224.267 -6.49 -1.99938 0
M  V30 2252 H 222.213 -5.28188 -3.89042 0
M  V30 2253 H 222.13 -6.85961 -3.17794 0
M  V30 2254 H 223.398 -6.49515 -4.30988 0
M  V30 2255 N 227.627 0.131896 -1.57047 0
M  V30 2256 C 228.559 1.1878 -1.9602 0
M  V30 2257 C 229.572 1.38363 -0.857875 0
M  V30 2258 O 230.761 1.37666 -1.13623 0
M  V30 2259 C 227.861 2.55008 -2.23213 0
M  V30 2260 C 227.034 2.56201 -3.54513 0
M  V30 2261 C 226.093 3.7408 -3.70069 0
M  V30 2262 O 225.119 3.58258 -4.42312 0
M  V30 2263 N 226.321 4.92137 -3.07866 0
M  V30 2264 H 229.086 0.85639 -2.87204 0
M  V30 2265 H 226.647 0.321309 -1.5868 0
M  V30 2266 H 228.639 3.32404 -2.30846 0
M  V30 2267 H 227.209 2.80382 -1.3822 0
M  V30 2268 H 226.429 1.64613 -3.58185 0
M  V30 2269 H 227.717 2.54043 -4.4084 0
M  V30 2270 H 227.115 5.07895 -2.49116 0
M  V30 2271 H 225.672 5.67254 -3.21039 0
M  V30 2272 N 229.106 1.52395 0.401703 0
M  V30 2273 C 230.334 1.70676 1.16949 0
M  V30 2274 C 230.749 0.419503 1.8408 0
M  V30 2275 O 230.106 -0.605061 1.72178 0
M  V30 2276 C 230.157 2.84753 2.22706 0
M  V30 2277 O 229.878 4.08495 1.58314 0
M  V30 2278 C 231.379 3.14608 3.12309 0
M  V30 2279 H 228.599 0.571787 0.351142 0
M  V30 2280 H 231.143 1.98987 0.471652 0
M  V30 2281 H 229.298 2.58941 2.88147 0
M  V30 2282 H 229.712 4.72117 2.28485 0
M  V30 2283 H 231.186 3.97923 3.82572 0
M  V30 2284 H 231.663 2.28464 3.75101 0
M  V30 2285 H 232.269 3.42212 2.52529 0
M  V30 2286 N 230.584 -0.659388 1.43143 0
M  V30 2287 C 231.534 -1.7655 1.44271 0
M  V30 2288 C 232.518 -1.57847 0.311961 0
M  V30 2289 O 233.71 -1.68064 0.555306 0
M  V30 2290 C 230.839 -3.15104 1.36251 0
M  V30 2291 C 229.925 -3.39377 2.54331 0
M  V30 2292 N 230.316 -3.34153 3.79704 0
M  V30 2293 C 228.614 -3.70072 2.48922 0
M  V30 2294 C 229.315 -3.58337 4.58225 0
M  V30 2295 N 228.291 -3.79851 3.88863 0
M  V30 2296 H 232.093 -1.70928 2.39083 0
M  V30 2297 H 229.607 -0.860823 1.37708 0
M  V30 2298 H 231.604 -3.94389 1.35141 0
M  V30 2299 H 230.264 -3.21913 0.424531 0
M  V30 2300 H 231.275 -3.13704 4.1208 0
M  V30 2301 H 227.952 -3.84034 1.63781 0
M  V30 2302 H 229.342 -3.60129 5.67236 0
M  V30 2303 N 232.062 -1.29571 -0.897171 0
M  V30 2304 C 233.308 -1.17863 -1.65034 0
M  V30 2305 C 233.641 0.268729 -1.92332 0
M  V30 2306 O 232.916 1.19378 -1.53555 0
M  V30 2307 C 233.199 -1.995 -2.99786 0
M  V30 2308 C 233.052 -3.5239 -2.79538 0
M  V30 2309 C 234.371 -1.82335 -4.00552 0
M  V30 2310 H 231.49 -0.429528 -0.598895 0
M  V30 2311 H 234.132 -1.59072 -1.03905 0
M  V30 2312 H 232.282 -1.64485 -3.51962 0
M  V30 2313 H 233.954 -3.97401 -2.34244 0
M  V30 2314 H 232.197 -3.77187 -2.14273 0
M  V30 2315 H 232.868 -4.04787 -3.75302 0
M  V30 2316 H 235.344 -2.12924 -3.57495 0
M  V30 2317 H 234.22 -2.41801 -4.92771 0
M  V30 2318 H 234.481 -0.779209 -4.35179 0
M  V30 2319 N 233.54 1.10788 -1.12088 0
M  V30 2320 C 234.503 2.15207 -0.788577 0
M  V30 2321 C 235.503 1.59609 0.195317 0
M  V30 2322 O 236.693 1.74174 -0.0300193 0
M  V30 2323 C 233.825 3.4047 -0.171174 0
M  V30 2324 H 235.018 2.46116 -1.71368 0
M  V30 2325 H 232.571 1.26089 -0.923652 0
M  V30 2326 H 233.306 3.15176 0.763832 0
M  V30 2327 H 233.091 3.82109 -0.879514 0
M  V30 2328 H 234.581 4.17576 0.04496 0
M  V30 2329 N 235.018 0.912232 1.28515 0
M  V30 2330 C 236.429 0.591352 1.77087 0
M  V30 2331 C 236.78 -0.8933 1.74684 0
M  V30 2332 O 235.905 -1.69876 1.34056 0
M  V30 2333 C 236.5 1.06668 3.2157 0
M  V30 2334 C 235.059 0.79675 3.67871 0
M  V30 2335 C 234.206 1.23427 2.48316 0
M  V30 2336 H 237.157 1.09365 1.15 0
M  V30 2337 H 237.178 0.407455 3.78312 0
M  V30 2338 H 236.69 2.14726 3.23287 0
M  V30 2339 H 234.791 -0.270679 3.71616 0
M  V30 2340 H 234.904 1.40343 4.58084 0
M  V30 2341 H 233.268 0.653036 2.46186 0
M  V30 2342 H 234.051 2.32316 2.52753 0
M  V30 2343 N 236.496 -1.42363 0.676048 0
M  V30 2344 C 237.459 -2.29199 0.00766941 0
M  V30 2345 C 238.459 -1.43389 -0.727745 0
M  V30 2346 O 239.649 -1.64764 -0.56556 0
M  V30 2347 C 236.781 -3.2591 -0.999785 0
M  V30 2348 H 237.974 -2.89794 0.771988 0
M  V30 2349 H 235.527 -1.50024 0.438468 0
M  V30 2350 H 236.262 -2.70256 -1.79255 0
M  V30 2351 H 236.047 -3.89202 -0.475829 0
M  V30 2352 H 237.537 -3.91028 -1.46583 0
M  V30 2353 N 237.974 -0.419461 -1.51915 0
M  V30 2354 C 238.937 0.389116 -2.25873 0
M  V30 2355 C 239.937 0.964924 -1.28631 0
M  V30 2356 O 241.127 0.842179 -1.52489 0
M  V30 2357 C 238.259 1.54874 -3.03689 0
M  V30 2358 H 239.452 -0.258799 -2.98781 0
M  V30 2359 H 237.005 -0.172209 -1.55348 0
M  V30 2360 H 237.74 2.23323 -2.35154 0
M  V30 2361 H 237.525 1.14223 -3.75094 0
M  V30 2362 H 239.015 2.12046 -3.59759 0
M  V30 2363 N 239.452 1.56882 -0.150215 0
M  V30 2364 C 240.863 1.82995 0.370076 0
M  V30 2365 C 241.214 1.06907 1.64515 0
M  V30 2366 O 240.339 0.315369 2.1409 0
M  V30 2367 C 240.934 3.31942 0.678208 0
M  V30 2368 C 239.493 3.58625 1.14301 0
M  V30 2369 C 238.64 2.76792 0.167778 0
M  V30 2370 H 241.591 1.54209 -0.374858 0
M  V30 2371 H 241.612 3.48272 1.53254 0
M  V30 2372 H 241.124 3.87294 -0.249991 0
M  V30 2373 H 239.225 3.08664 2.08704 0
M  V30 2374 H 239.338 4.67073 1.06676 0
M  V30 2375 H 237.702 2.45972 0.661037 0
M  V30 2376 H 238.485 3.34916 -0.754069 0
M  V30 2377 N 240.93 -0.123565 1.57115 0
M  V30 2378 C 241.84 -1.17074 2.033 0
M  V30 2379 C 242.856 -1.4561 0.952559 0
M  V30 2380 O 244.032 -1.56817 1.26374 0
M  V30 2381 C 241.097 -2.47857 2.42421 0
M  V30 2382 C 240.158 -2.26758 3.64526 0
M  V30 2383 C 239.391 -3.51305 4.01771 0
M  V30 2384 O 239.614 -4.5843 3.39409 0
M  V30 2385 O 238.548 -3.42578 4.94898 0
M  V30 2386 H 242.374 -0.808555 2.92739 0
M  V30 2387 H 239.959 -0.334027 1.45618 0
M  V30 2388 H 241.841 -3.2492 2.68338 0
M  V30 2389 H 240.516 -2.83558 1.5613 0
M  V30 2390 H 239.423 -1.47569 3.43765 0
M  V30 2391 H 240.756 -1.95963 4.51508 0
M  V30 2392 N 242.408 -1.52605 -0.393616 0
M  V30 2393 C 243.371 -1.76415 -1.46323 0
M  V30 2394 C 244.371 -0.634126 -1.47768 0
M  V30 2395 O 245.561 -0.902142 -1.4902 0
M  V30 2396 C 242.693 -1.8607 -2.85641 0
M  V30 2397 H 243.886 -2.71916 -1.26498 0
M  V30 2398 H 241.439 -1.43257 -0.625073 0
M  V30 2399 H 242.174 -0.925378 -3.10817 0
M  V30 2400 H 241.959 -2.68235 -2.85993 0
M  V30 2401 H 243.449 -2.06179 -3.63153 0
M  V30 2402 N 243.887 0.651787 -1.4349 0
M  V30 2403 C 245.303 0.96762 -1.26922 0
M  V30 2404 C 245.503 2.00602 -0.189982 0
M  V30 2405 O 244.559 2.48793 0.431107 0
M  V30 2406 C 245.872 1.45052 -2.63401 0
M  V30 2407 C 247.42 1.5671 -2.70945 0
M  V30 2408 C 247.895 2.0839 -4.07845 0
M  V30 2409 N 249.386 2.1569 -4.09917 0
M  V30 2410 C 250.121 2.56804 -5.12679 0
M  V30 2411 N 249.617 2.97203 -6.25813 0
M  V30 2412 N 251.41 2.56756 -5.00033 0
M  V30 2413 H 243.561 -0.0353158 -2.12371 0
M  V30 2414 H 245.824 0.0467858 -0.946845 0
M  V30 2415 H 245.53 0.761926 -3.43348 0
M  V30 2416 H 245.404 2.42529 -2.88894 0
M  V30 2417 H 247.791 2.2467 -1.9133 0
M  V30 2418 H 247.872 0.57662 -2.49216 0
M  V30 2419 H 247.516 1.41031 -4.87927 0
M  V30 2420 H 247.446 3.08271 -4.26938 0
M  V30 2421 H 249.937 1.87237 -3.28254 0
M  V30 2422 H 250.25 3.27328 -7.00055 0
M  V30 2423 H 248.595 2.95004 -6.29283 0
M  V30 2424 H 251.786 2.24572 -4.10713 0
M  V30 2425 H 251.959 2.88475 -5.80247 0
M  V30 2426 N 245.365 1.30045 0.890287 0
M  V30 2427 C 246.776 1.16738 1.45702 0
M  V30 2428 C 247.127 -0.233939 1.948 0
M  V30 2429 O 246.252 -1.13021 1.84541 0
M  V30 2430 C 246.847 2.11313 2.64825 0
M  V30 2431 C 245.406 2.02001 3.17604 0
M  V30 2432 C 244.553 2.01699 1.90296 0
M  V30 2433 H 247.504 1.42392 0.700726 0
M  V30 2434 H 247.525 1.69086 3.40867 0
M  V30 2435 H 247.037 3.13294 2.2906 0
M  V30 2436 H 245.138 1.03142 3.5804 0
M  V30 2437 H 245.251 2.90128 3.81264 0
M  V30 2438 H 243.615 1.46427 2.08402 0
M  V30 2439 H 244.398 3.05402 1.56795 0
M  V30 2440 N 246.843 -1.10192 1.12674 0
M  V30 2441 C 248.091 -1.81845 0.881861 0
M  V30 2442 C 248.412 -1.85737 -0.593867 0
M  V30 2443 O 247.682 -1.33724 -1.4316 0
M  V30 2444 H 246.262 -0.673432 0.323261 0
M  V30 2445 H 248.924 -1.33316 1.42172 0
M  V30 2446 H 248.02 -2.85288 1.2656 0
M  V30 2447 N 248.321 -0.919034 -1.28029 0
M  V30 2448 C 249.569 -0.553838 -1.94363 0
M  V30 2449 C 249.89 0.906357 -1.72656 0
M  V30 2450 O 249.16 1.64143 -1.0693 0
M  V30 2451 H 247.74 -0.201834 -0.719216 0
M  V30 2452 H 250.402 -1.16954 -1.55909 0
M  V30 2453 H 249.498 -0.752758 -3.02886 0
M  V30 2454 N 249.799 1.42003 -0.683588 0
M  V30 2455 C 250.762 2.29191 -0.0198243 0
M  V30 2456 C 251.762 1.43773 0.72013 0
M  V30 2457 O 252.952 1.65061 0.556815 0
M  V30 2458 C 250.084 3.26435 0.982487 0
M  V30 2459 H 251.277 2.8938 -0.787345 0
M  V30 2460 H 248.83 1.49789 -0.446418 0
M  V30 2461 H 249.565 2.71203 1.77819 0
M  V30 2462 H 249.35 3.89449 0.455182 0
M  V30 2463 H 250.84 3.918 1.44508 0
M  V30 2464 N 251.277 0.427512 1.51691 0
M  V30 2465 C 252.523 -0.134744 2.02953 0
M  V30 2466 C 252.878 -1.41235 1.30654 0
M  V30 2467 O 252.171 -1.87168 0.409713 0
M  V30 2468 C 252.365 -0.418249 3.54944 0
M  V30 2469 C 252.194 0.830327 4.41968 0
M  V30 2470 C 250.964 1.36097 4.86627 0
M  V30 2471 C 253.162 1.7137 4.84909 0
M  V30 2472 N 251.144 2.56311 5.57833 0
M  V30 2473 C 252.515 2.76195 5.55082 0
M  V30 2474 C 254.57 1.72928 4.66905 0
M  V30 2475 C 253.273 3.82512 6.09161 0
M  V30 2476 C 255.299 2.78175 5.21894 0
M  V30 2477 C 254.661 3.8172 5.92004 0
M  V30 2478 H 250.76 -0.0103958 0.781931 0
M  V30 2479 H 253.344 0.585981 1.85673 0
M  V30 2480 H 251.515 -1.10801 3.7226 0
M  V30 2481 H 253.247 -0.970999 3.92879 0
M  V30 2482 H 250.002 0.916311 4.64651 0
M  V30 2483 H 250.426 3.17242 5.98069 0
M  V30 2484 H 255.068 0.942081 4.12171 0
M  V30 2485 H 252.786 4.62077 6.62956 0
M  V30 2486 H 256.372 2.8031 5.09821 0
M  V30 2487 H 255.252 4.61821 6.33791 0
M  V30 2488 N 252.755 -1.56801 0.158532 0
M  V30 2489 C 254.001 -1.97559 -0.483957 0
M  V30 2490 C 254.356 -1.04239 -1.61716 0
M  V30 2491 O 253.649 -0.079603 -1.91435 0
M  V30 2492 C 253.843 -3.4235 -1.02623 0
M  V30 2493 C 253.672 -4.49669 0.0528929 0
M  V30 2494 C 252.442 -5.02838 0.498234 0
M  V30 2495 C 254.64 -5.0725 0.848616 0
M  V30 2496 N 252.622 -5.93775 1.559 0
M  V30 2497 C 253.993 -5.94506 1.7596 0
M  V30 2498 C 256.048 -4.89788 0.895121 0
M  V30 2499 C 254.751 -6.66169 2.71314 0
M  V30 2500 C 256.777 -5.62161 1.83654 0
M  V30 2501 C 256.139 -6.49134 2.73503 0
M  V30 2502 H 252.238 -0.768332 -0.145566 0
M  V30 2503 H 254.822 -1.93012 0.255799 0
M  V30 2504 H 252.993 -3.47467 -1.73555 0
M  V30 2505 H 254.725 -3.70145 -1.63629 0
M  V30 2506 H 251.48 -4.73498 0.0983222 0
M  V30 2507 H 251.904 -6.43948 2.08949 0
M  V30 2508 H 256.546 -4.22255 0.21453 0
M  V30 2509 H 254.264 -7.32923 3.40367 0
M  V30 2510 H 257.85 -5.5064 1.87847 0
M  V30 2511 H 256.73 -7.04153 3.45163 0
M  V30 2512 N 254.233 0.115231 -1.57178 0
M  V30 2513 C 255.51 0.852873 -1.76027 0
M  V30 2514 C 255.89 1.97892 -0.73498 0
M  V30 2515 O 255.238 2.27232 0.24036 0
M  V30 2516 C 255.448 1.36608 -3.21153 0
M  V30 2517 C 256.796 1.81692 -3.83762 0
M  V30 2518 O 257.82 1.46278 -3.24779 0
M  V30 2519 O 256.679 2.47104 -4.87444 0
M  V30 2520 H 253.773 0.405296 -0.720877 0
M  V30 2521 H 256.319 0.0986785 -1.69413 0
M  V30 2522 H 255.091 0.558357 -3.87296 0
M  V30 2523 H 254.714 2.18287 -3.3232 0
M  V30 2524 N 255.711 1.52812 0.385517 0
M  V30 2525 C 257.127 1.4214 0.725829 0
M  V30 2526 C 257.327 0.544589 1.94001 0
M  V30 2527 O 256.383 0.0193693 2.52493 0
M  V30 2528 C 257.696 2.85042 0.957668 0
M  V30 2529 C 259.244 2.94543 1.05892 0
M  V30 2530 C 259.719 4.38464 1.32337 0
M  V30 2531 N 261.21 4.41804 1.39151 0
M  V30 2532 C 261.945 5.5025 1.61285 0
M  V30 2533 N 261.441 6.68775 1.80866 0
M  V30 2534 N 263.234 5.37798 1.63492 0
M  V30 2535 H 255.385 2.08338 -0.413383 0
M  V30 2536 H 257.648 0.940016 -0.122775 0
M  V30 2537 H 257.354 3.51431 0.137568 0
M  V30 2538 H 257.228 3.27505 1.87137 0
M  V30 2539 H 259.615 2.28321 1.86959 0
M  V30 2540 H 259.696 2.55504 0.123057 0
M  V30 2541 H 259.34 5.05254 0.517793 0
M  V30 2542 H 259.27 4.75059 2.27214 0
M  V30 2543 H 261.761 3.56377 1.25713 0
M  V30 2544 H 262.074 7.47197 1.97271 0
M  V30 2545 H 260.419 6.71797 1.78083 0
M  V30 2546 H 263.61 4.44171 1.47749 0
M  V30 2547 H 263.783 6.22382 1.80402 0
M  V30 2548 N 257.189 -0.644168 1.43834 0
M  V30 2549 C 258.414 -1.43642 1.49605 0
M  V30 2550 C 258.839 -1.8773 0.117913 0
M  V30 2551 O 258.197 -1.57938 -0.890239 0
M  V30 2552 C 258.245 -2.6416 2.45463 0
M  V30 2553 O 257.349 -3.63538 1.94714 0
M  V30 2554 H 256.69 -0.430329 0.50568 0
M  V30 2555 H 259.22 -0.787448 1.8884 0
M  V30 2556 H 259.23 -3.11864 2.63068 0
M  V30 2557 H 257.905 -2.31414 3.45572 0
M  V30 2558 H 256.482 -3.2273 1.86814 0
M  V30 2559 N 258.668 -1.30515 -0.883378 0
M  V30 2560 C 259.898 -1.22182 -1.66599 0
M  V30 2561 C 260.306 0.217507 -1.87946 0
M  V30 2562 O 259.649 1.1554 -1.42815 0
M  V30 2563 C 259.711 -1.88146 -3.06335 0
M  V30 2564 C 259.375 -3.37476 -3.08154 0
M  V30 2565 C 260.372 -4.33443 -2.87094 0
M  V30 2566 C 258.057 -3.7895 -3.29701 0
M  V30 2567 C 260.051 -5.68858 -2.8754 0
M  V30 2568 C 257.738 -5.14482 -3.29776 0
M  V30 2569 C 258.736 -6.09246 -3.0872 0
M  V30 2570 O 258.424 -7.42302 -3.08615 0
M  V30 2571 H 258.156 -0.423898 -0.52658 0
M  V30 2572 H 260.71 -1.72703 -1.11188 0
M  V30 2573 H 258.94 -1.32157 -3.63416 0
M  V30 2574 H 260.629 -1.7391 -3.66756 0
M  V30 2575 H 261.395 -4.02733 -2.70243 0
M  V30 2576 H 257.274 -3.05631 -3.45124 0
M  V30 2577 H 260.818 -6.428 -2.71024 0
M  V30 2578 H 256.715 -5.44832 -3.46163 0
M  V30 2579 H 257.483 -7.5131 -3.24769 0
M  V30 2580 N 260.146 1.09593 -1.13257 0
M  V30 2581 C 261.393 1.81734 -0.893257 0
M  V30 2582 C 261.721 1.8563 0.580656 0
M  V30 2583 O 260.976 1.31906 1.44566 0
M  V30 2584 C 261.275 3.27802 -1.42411 0
M  V30 2585 C 260.941 3.44041 -2.91456 0
M  V30 2586 C 259.603 3.48181 -3.3215 0
M  V30 2587 C 261.955 3.48719 -3.87356 0
M  V30 2588 C 259.283 3.54575 -4.67433 0
M  V30 2589 C 261.635 3.56648 -5.2248 0
M  V30 2590 C 260.299 3.59055 -5.62704 0
M  V30 2591 H 259.569 0.665011 -0.326866 0
M  V30 2592 H 262.216 1.2912 -1.41422 0
M  V30 2593 H 260.521 3.83042 -0.823795 0
M  V30 2594 H 262.218 3.82149 -1.21503 0
M  V30 2595 H 258.808 3.41502 -2.58987 0
M  V30 2596 H 262.992 3.44763 -3.57004 0
M  V30 2597 H 258.248 3.54725 -4.97976 0
M  V30 2598 H 262.422 3.59212 -5.96607 0
M  V30 2599 H 260.049 3.63763 -6.67518 0
M  V30 2600 N 261.624 0.925811 1.2754 0
M  V30 2601 C 262.587 0.428129 2.25166 0
M  V30 2602 C 263.587 -0.452261 1.54309 0
M  V30 2603 O 264.777 -0.253608 1.72344 0
M  V30 2604 C 261.909 -0.384749 3.38722 0
M  V30 2605 H 263.102 1.29066 2.70706 0
M  V30 2606 H 260.655 0.706323 1.3943 0
M  V30 2607 H 261.39 -1.26618 2.98561 0
M  V30 2608 H 261.175 0.246454 3.91325 0
M  V30 2609 H 262.665 -0.723389 4.11287 0
M  V30 2610 N 263.102 -1.41638 0.69111 0
M  V30 2611 C 264.034 -2.29194 -0.0161523 0
M  V30 2612 C 265.047 -1.44549 -0.748955 0
M  V30 2613 O 266.236 -1.681 -0.6004 0
M  V30 2614 C 263.336 -3.22325 -1.0469 0
M  V30 2615 C 262.509 -4.35706 -0.384621 0
M  V30 2616 C 261.568 -5.09443 -1.31737 0
M  V30 2617 O 260.594 -5.63386 -0.811451 0
M  V30 2618 N 261.796 -5.16487 -2.64993 0
M  V30 2619 H 264.561 -2.90534 0.735523 0
M  V30 2620 H 262.122 -1.52742 0.53679 0
M  V30 2621 H 264.114 -3.68522 -1.67252 0
M  V30 2622 H 262.684 -2.62323 -1.70015 0
M  V30 2623 H 261.904 -3.91948 0.420804 0
M  V30 2624 H 263.192 -5.08743 0.0760765 0
M  V30 2625 H 262.59 -4.741 -3.08619 0
M  V30 2626 H 261.147 -5.66276 -3.22761 0
M  V30 2627 N 264.58 -0.43555 -1.51462 0
M  V30 2628 C 265.996 -0.0877501 -1.59359 0
M  V30 2629 C 266.196 1.4027 -1.4466 0
M  V30 2630 O 265.252 2.17243 -1.28693 0
M  V30 2631 C 266.565 -0.606264 -2.94525 0
M  V30 2632 C 268.113 -0.566548 -3.0783 0
M  V30 2633 C 268.588 -1.06201 -4.45517 0
M  V30 2634 N 270.079 -1.01992 -4.51832 0
M  V30 2635 C 270.814 -1.37417 -5.5669 0
M  V30 2636 N 270.31 -1.80119 -6.68976 0
M  V30 2637 N 272.103 -1.29245 -5.47039 0
M  V30 2638 H 264.254 -1.40533 -1.59261 0
M  V30 2639 H 266.517 -0.578992 -0.750648 0
M  V30 2640 H 266.223 -1.64901 -3.10645 0
M  V30 2641 H 266.097 -0.0302097 -3.77188 0
M  V30 2642 H 268.484 0.467208 -2.91378 0
M  V30 2643 H 268.565 -1.17898 -2.2701 0
M  V30 2644 H 268.209 -2.09422 -4.62715 0
M  V30 2645 H 268.139 -0.426127 -5.24873 0
M  V30 2646 H 270.63 -0.706308 -3.71241 0
M  V30 2647 H 270.943 -2.05392 -7.45006 0
M  V30 2648 H 269.288 -1.84044 -6.70189 0
M  V30 2649 H 272.479 -0.957522 -4.58202 0
M  V30 2650 H 272.652 -1.57182 -6.28648 0
M  V30 2651 N 266.058 1.56714 -0.166846 0
M  V30 2652 C 267.469 1.83378 0.350646 0
M  V30 2653 C 267.82 1.08646 1.63372 0
M  V30 2654 O 266.945 0.338058 2.13743 0
M  V30 2655 C 267.54 3.32643 0.642963 0
M  V30 2656 C 266.099 3.59818 1.10491 0
M  V30 2657 C 265.246 2.76954 0.138411 0
M  V30 2658 H 268.197 1.53803 -0.391193 0
M  V30 2659 H 268.218 3.49878 1.49551 0
M  V30 2660 H 267.73 3.87007 -0.291055 0
M  V30 2661 H 265.831 3.1086 2.05418 0
M  V30 2662 H 265.944 4.68178 1.01716 0
M  V30 2663 H 264.308 2.4666 0.634911 0
M  V30 2664 H 265.091 3.34097 -0.789549 0
M  V30 2665 N 267.536 -0.106894 1.57237 0
M  V30 2666 C 268.784 -0.810921 1.85117 0
M  V30 2667 C 269.105 -1.7984 0.753827 0
M  V30 2668 O 268.375 -1.94649 -0.221056 0
M  V30 2669 H 266.955 -0.302466 0.683025 0
M  V30 2670 H 269.617 -0.0913324 1.94686 0
M  V30 2671 H 268.713 -1.34875 2.81452 0
M  V30 2672 N 269.014 -1.53014 -0.377408 0
M  V30 2673 C 270.262 -1.6829 -1.11906 0
M  V30 2674 C 270.583 -0.431206 -1.90173 0
M  V30 2675 O 269.853 0.554595 -1.87886 0
M  V30 2676 H 268.433 -0.620371 -0.416112 0
M  V30 2677 H 271.095 -1.90167 -0.426893 0
M  V30 2678 H 270.191 -2.53862 -1.8155 0
M  V30 2679 N 270.492 0.636531 -1.44174 0
M  V30 2680 C 271.439 1.74875 -1.50624 0
M  V30 2681 C 272.409 1.62275 -0.35442 0
M  V30 2682 O 273.594 1.82276 -0.563908 0
M  V30 2683 C 270.734 3.13102 -1.45125 0
M  V30 2684 C 269.847 3.36717 -2.7064 0
M  V30 2685 C 268.982 4.64885 -2.57013 0
M  V30 2686 C 268.021 4.8166 -3.77717 0
M  V30 2687 N 267.158 6.01101 -3.62798 0
M  V30 2688 H 271.998 1.68697 -2.45653 0
M  V30 2689 H 269.535 0.823004 -1.21922 0
M  V30 2690 H 271.493 3.93034 -1.39929 0
M  V30 2691 H 270.123 3.18308 -0.536671 0
M  V30 2692 H 269.175 2.50763 -2.86046 0
M  V30 2693 H 270.487 3.44993 -3.60252 0
M  V30 2694 H 269.641 5.52969 -2.49619 0
M  V30 2695 H 268.38 4.58957 -1.64953 0
M  V30 2696 H 267.385 3.92007 -3.85501 0
M  V30 2697 H 268.61 4.89406 -4.70807 0
M  V30 2698 H 266.556 5.96273 -2.73486 0
M  V30 2699 H 266.473 6.10409 -4.46023 0
M  V30 2700 H 267.741 6.91761 -3.59286 0
M  V30 2701 N 271.97 1.30982 0.876444 0
M  V30 2702 C 272.88 1.2003 2.01569 0
M  V30 2703 C 273.896 0.11838 1.73597 0
M  V30 2704 O 275.072 0.33495 1.98595 0
M  V30 2705 C 272.137 0.901637 3.34771 0
M  V30 2706 C 271.198 2.06979 3.76109 0
M  V30 2707 C 270.431 1.78529 5.02954 0
M  V30 2708 O 270.654 0.717296 5.65872 0
M  V30 2709 O 269.588 2.64019 5.40905 0
M  V30 2710 H 273.414 2.15753 2.13739 0
M  V30 2711 H 270.999 1.10658 1.00375 0
M  V30 2712 H 272.881 0.750645 4.1466 0
M  V30 2713 H 271.556 -0.0256141 3.2369 0
M  V30 2714 H 270.463 2.27616 2.96887 0
M  V30 2715 H 271.796 2.97907 3.91807 0
M  V30 2716 N 273.449 -1.08991 1.13837 0
M  V30 2717 C 274.412 -2.13925 0.822715 0
M  V30 2718 C 275.412 -1.599 -0.1699 0
M  V30 2719 O 276.602 -1.74104 0.0577251 0
M  V30 2720 C 273.734 -3.40155 0.225318 0
M  V30 2721 H 274.927 -2.43358 1.75262 0
M  V30 2722 H 272.48 -1.24603 0.943594 0
M  V30 2723 H 273.215 -3.16352 -0.713594 0
M  V30 2724 H 273 -3.80661 0.940193 0
M  V30 2725 H 274.49 -4.17594 0.0214784 0
M  V30 2726 N 274.927 -0.932562 -1.27047 0
M  V30 2727 C 275.857 -0.452902 -2.29066 0
M  V30 2728 C 276.838 0.489338 -1.62909 0
M  V30 2729 O 278.023 0.393046 -1.90181 0
M  V30 2730 C 275.153 0.290698 -3.46081 0
M  V30 2731 C 274.107 -0.564168 -4.24265 0
M  V30 2732 C 273.433 0.308886 -5.33807 0
M  V30 2733 C 274.733 -1.83112 -4.89149 0
M  V30 2734 H 276.427 -1.30552 -2.69437 0
M  V30 2735 H 273.973 -0.629201 -1.29526 0
M  V30 2736 H 275.926 0.637233 -4.16554 0
M  V30 2737 H 274.65 1.17738 -3.0464 0
M  V30 2738 H 273.309 -0.893477 -3.55545 0
M  V30 2739 H 272.957 1.19467 -4.88607 0
M  V30 2740 H 272.657 -0.259633 -5.87026 0
M  V30 2741 H 274.181 0.650884 -6.07121 0
M  V30 2742 H 275.595 -1.55236 -5.51883 0
M  V30 2743 H 273.992 -2.34353 -5.52448 0
M  V30 2744 H 275.062 -2.54772 -4.12576 0
M  V30 2745 N 276.405 1.4127 -0.698611 0
M  V30 2746 C 277.816 1.84187 -0.305289 0
M  V30 2747 C 278.167 1.58449 1.15708 0
M  V30 2748 O 277.292 1.05651 1.88856 0
M  V30 2749 C 277.887 3.3435 -0.547314 0
M  V30 2750 C 276.446 3.75826 -0.207878 0
M  V30 2751 C 275.593 2.64647 -0.828099 0
M  V30 2752 H 278.544 1.30778 -0.89904 0
M  V30 2753 H 278.565 3.8001 0.192998 0
M  V30 2754 H 278.077 3.53051 -1.61172 0
M  V30 2755 H 276.178 3.62725 0.852143 0
M  V30 2756 H 276.291 4.74462 -0.665021 0
M  V30 2757 H 274.655 2.53395 -0.257458 0
M  V30 2758 H 275.438 2.86165 -1.89643 0
M  V30 2759 N 277.883 0.443576 1.51229 0
M  V30 2760 C 279.131 -0.120557 2.0174 0
M  V30 2761 C 279.452 -1.42665 1.32935 0
M  V30 2762 O 278.722 -1.9028 0.465866 0
M  V30 2763 H 277.302 -0.0475426 0.745486 0
M  V30 2764 H 279.964 0.587711 1.85828 0
M  V30 2765 H 279.06 -0.291972 3.10731 0
M  V30 2766 N 279.361 -1.56624 0.175154 0
M  V30 2767 C 280.609 -1.96609 -0.467885 0
M  V30 2768 C 280.93 -1.06238 -1.63519 0
M  V30 2769 O 280.2 -0.129523 -1.95471 0
M  V30 2770 H 278.78 -0.726008 -0.175845 0
M  V30 2771 H 281.442 -1.93195 0.257234 0
M  V30 2772 H 280.538 -3.00989 -0.825342 0
M  V30 2773 N 280.839 0.0985539 -1.57292 0
M  V30 2774 C 282.255 0.45267 -1.53046 0
M  V30 2775 C 282.455 1.80713 -0.891342 0
M  V30 2776 O 281.511 2.4785 -0.482375 0
M  V30 2777 C 282.824 0.418341 -2.97776 0
M  V30 2778 C 284.372 0.500443 -3.08973 0
M  V30 2779 C 284.847 0.496297 -4.55303 0
M  V30 2780 N 286.338 0.557151 -4.59837 0
M  V30 2781 C 287.073 0.575726 -5.70502 0
M  V30 2782 N 286.569 0.550714 -6.90608 0
M  V30 2783 N 288.362 0.620277 -5.58667 0
M  V30 2784 H 280.513 -0.788673 -1.97215 0
M  V30 2785 H 282.776 -0.293188 -0.901524 0
M  V30 2786 H 282.482 -0.509659 -3.47988 0
M  V30 2787 H 282.356 1.2386 -3.56284 0
M  V30 2788 H 284.743 1.41886 -2.58751 0
M  V30 2789 H 284.824 -0.347894 -2.53423 0
M  V30 2790 H 284.468 -0.418162 -5.06176 0
M  V30 2791 H 284.398 1.3618 -5.08687 0
M  V30 2792 H 286.889 0.581816 -3.73394 0
M  V30 2793 H 287.202 0.568075 -7.70709 0
M  V30 2794 H 285.547 0.517816 -6.93068 0
M  V30 2795 H 288.738 0.637322 -4.63741 0
M  V30 2796 H 288.911 0.631283 -6.44918 0
M  V30 2797 N 282.317 1.53212 0.369288 0
M  V30 2798 C 283.28 1.7872 1.43498 0
M  V30 2799 C 284.28 0.657554 1.46741 0
M  V30 2800 O 285.47 0.925736 1.47566 0
M  V30 2801 C 282.602 1.90591 2.82645 0
M  V30 2802 H 283.795 2.73894 1.22156 0
M  V30 2803 H 281.348 1.44233 0.602203 0
M  V30 2804 H 282.083 0.974709 3.09306 0
M  V30 2805 H 281.868 2.72751 2.8169 0
M  V30 2806 H 283.358 2.11931 3.59826 0
M  V30 2807 N 283.795 -0.628877 1.44509 0
M  V30 2808 C 285.023 -1.41554 1.50897 0
M  V30 2809 C 285.438 -1.8832 0.134564 0
M  V30 2810 O 284.795 -1.60969 -0.859965 0
M  V30 2811 C 284.846 -2.63435 2.47556 0
M  V30 2812 O 284.567 -2.18619 3.79654 0
M  V30 2813 C 286.068 -3.56537 2.63431 0
M  V30 2814 H 283.288 -0.434044 0.511709 0
M  V30 2815 H 285.832 -0.768895 1.89495 0
M  V30 2816 H 283.987 -3.24187 2.12089 0
M  V30 2817 H 284.401 -2.97652 4.31861 0
M  V30 2818 H 285.875 -4.38657 3.35088 0
M  V30 2819 H 286.352 -4.05493 1.68738 0
M  V30 2820 H 286.958 -3.01653 2.9981 0
M  V30 2821 N 285.273 -1.31445 -0.869486 0
M  V30 2822 C 286.236 -1.19094 -1.9583 0
M  V30 2823 C 287.236 -0.117906 -1.60367 0
M  V30 2824 O 288.426 -0.367208 -1.70286 0
M  V30 2825 C 285.558 -0.828165 -3.30688 0
M  V30 2826 H 286.751 -2.15842 -2.08212 0
M  V30 2827 H 284.304 -1.15063 -1.05784 0
M  V30 2828 H 285.039 0.138142 -3.24006 0
M  V30 2829 H 284.824 -1.6038 -3.578 0
M  V30 2830 H 286.314 -0.765658 -4.10521 0
M  V30 2831 N 286.751 1.08385 -1.14413 0
M  V30 2832 C 287.681 2.17321 -0.854044 0
M  V30 2833 C 288.662 1.69024 0.191049 0
M  V30 2834 O 289.847 1.94141 0.0476779 0
M  V30 2835 C 286.977 3.45719 -0.330983 0
M  V30 2836 C 285.931 4.07409 -1.31155 0
M  V30 2837 C 285.257 5.30762 -0.64778 0
M  V30 2838 C 286.557 4.48665 -2.67388 0
M  V30 2839 H 288.251 2.41845 -1.76498 0
M  V30 2840 H 285.797 1.16233 -0.850051 0
M  V30 2841 H 287.75 4.21241 -0.115645 0
M  V30 2842 H 286.474 3.2075 0.615381 0
M  V30 2843 H 285.133 3.33919 -1.51306 0
M  V30 2844 H 284.781 5.02078 0.304398 0
M  V30 2845 H 284.481 5.72992 -1.30207 0
M  V30 2846 H 286.005 6.08998 -0.441972 0
M  V30 2847 H 287.419 5.15364 -2.51143 0
M  V30 2848 H 285.816 5.01814 -3.29093 0
M  V30 2849 H 286.886 3.60543 -3.24248 0
M  V30 2850 N 288.23 0.939286 1.26551 0
M  V30 2851 C 289.16 0.465044 2.28822 0
M  V30 2852 C 290.141 -0.480692 1.63167 0
M  V30 2853 O 291.326 -0.382955 1.90387 0
M  V30 2854 C 288.456 -0.27234 3.46231 0
M  V30 2855 C 287.41 0.58666 4.2396 0
M  V30 2856 C 286.736 -0.280573 5.33963 0
M  V30 2857 C 288.036 1.85704 4.88171 0
M  V30 2858 H 289.73 1.31979 2.68741 0
M  V30 2859 H 287.276 0.636061 1.29191 0
M  V30 2860 H 289.229 -0.615133 4.16886 0
M  V30 2861 H 287.953 -1.16121 3.0526 0
M  V30 2862 H 286.612 0.91232 3.55067 0
M  V30 2863 H 286.26 -1.16874 4.89234 0
M  V30 2864 H 285.96 0.29076 5.8688 0
M  V30 2865 H 287.484 -0.618678 6.07458 0
M  V30 2866 H 288.898 1.58161 5.51052 0
M  V30 2867 H 287.295 2.37279 5.51197 0
M  V30 2868 H 288.365 2.56957 4.11219 0
M  V30 2869 N 289.708 -1.40897 0.706093 0
M  V30 2870 C 290.938 -2.05075 0.250523 0
M  V30 2871 C 291.346 -1.53275 -1.10921 0
M  V30 2872 O 290.689 -0.680281 -1.7064 0
M  V30 2873 C 290.751 -3.59219 0.142178 0
M  V30 2874 C 290.415 -4.33864 1.43566 0
M  V30 2875 C 291.412 -4.62448 2.37566 0
M  V30 2876 C 289.097 -4.72946 1.69195 0
M  V30 2877 C 291.091 -5.29088 3.5545 0
M  V30 2878 C 288.778 -5.3932 2.87362 0
M  V30 2879 C 289.776 -5.6732 3.80312 0
M  V30 2880 O 289.464 -6.32325 4.96408 0
M  V30 2881 H 289.196 -0.666645 0.112074 0
M  V30 2882 H 291.75 -1.81467 0.962239 0
M  V30 2883 H 289.98 -3.81609 -0.6254 0
M  V30 2884 H 291.669 -4.0495 -0.277584 0
M  V30 2885 H 292.435 -4.32727 2.19027 0
M  V30 2886 H 288.314 -4.50527 0.977042 0
M  V30 2887 H 291.858 -5.50859 4.28018 0
M  V30 2888 H 287.755 -5.68461 3.05814 0
M  V30 2889 H 288.523 -6.50821 4.9636 0
M  V30 2890 N 291.186 -0.45159 -1.50991 0
M  V30 2891 C 292.602 -0.104647 -1.59257 0
M  V30 2892 C 292.802 1.38728 -1.4614 0
M  V30 2893 O 291.858 2.15866 -1.30989 0
M  V30 2894 C 293.171 -0.637468 -2.93865 0
M  V30 2895 C 294.719 -0.599166 -3.07212 0
M  V30 2896 C 295.194 -1.1092 -4.44366 0
M  V30 2897 N 296.685 -1.06778 -4.50725 0
M  V30 2898 C 297.42 -1.43314 -5.55201 0
M  V30 2899 N 296.916 -1.87204 -6.67028 0
M  V30 2900 N 298.709 -1.3504 -5.45638 0
M  V30 2901 H 290.86 -1.42214 -1.57762 0
M  V30 2902 H 293.123 -0.586921 -0.744465 0
M  V30 2903 H 292.829 -1.68187 -3.08879 0
M  V30 2904 H 292.703 -0.0702139 -3.77135 0
M  V30 2905 H 295.09 0.436277 -2.91857 0
M  V30 2906 H 295.171 -1.20299 -2.25747 0
M  V30 2907 H 294.815 -2.14318 -4.60467 0
M  V30 2908 H 294.745 -0.481773 -5.24392 0
M  V30 2909 H 297.236 -0.745643 -3.70471 0
M  V30 2910 H 297.549 -2.13282 -7.42786 0
M  V30 2911 H 295.894 -1.91142 -6.68199 0
M  V30 2912 H 299.085 -1.00607 -4.57161 0
M  V30 2913 H 299.258 -1.63841 -6.26945 0
M  V30 2914 N 292.664 1.56529 -0.183458 0
M  V30 2915 C 293.904 1.99141 0.460667 0
M  V30 2916 C 294.268 1.06736 1.59597 0
M  V30 2917 O 295.469 1.38538 2.30349 0
M  V30 2918 C 293.74 3.45358 0.919939 0
M  V30 2919 S 295.299 4.09999 1.56354 0
M  V30 2920 H 292.117 0.695479 0.147748 0
M  V30 2921 H 294.719 1.93429 -0.283782 0
M  V30 2922 H 293.423 4.10315 0.0834208 0
M  V30 2923 H 292.954 3.54862 1.69814 0
M  V30 2924 H 294.969 4.06046 2.85203 0
M  V30 2925 N 294.142 -0.090211 1.57342 0
M  V30 2926 C 295.382 -0.798365 1.88163 0
M  V30 2927 C 295.746 -1.75662 0.775046 0
M  V30 2928 O 296.947 -2.50849 0.965816 0
M  V30 2929 C 295.218 -1.50376 3.24225 0
M  V30 2930 S 296.777 -2.24952 3.76752 0
M  V30 2931 H 293.595 -0.265883 0.659414 0
M  V30 2932 H 296.197 -0.055264 1.95422 0
M  V30 2933 H 294.901 -0.792286 4.0268 0
M  V30 2934 H 294.432 -2.28666 3.20118 0
M  V30 2935 H 296.447 -3.51173 3.5056 0
M  V30 2936 N 295.62 -1.53406 -0.361157 0
M  V30 2937 C 296.867 -1.69802 -1.10333 0
M  V30 2938 C 297.195 -0.452087 -1.89173 0
M  V30 2939 O 296.45 0.566017 -1.87336 0
M  V30 2940 C 296.749 -2.90211 -2.08596 0
M  V30 2941 C 296.415 -4.26539 -1.46203 0
M  V30 2942 C 295.077 -4.6361 -1.28915 0
M  V30 2943 C 297.429 -5.113 -1.01101 0
M  V30 2944 C 294.757 -5.83075 -0.651157 0
M  V30 2945 C 297.109 -6.31415 -0.387007 0
M  V30 2946 C 295.773 -6.67195 -0.201657 0
M  V30 2947 H 295.043 -0.621351 -0.403737 0
M  V30 2948 H 297.69 -1.87598 -0.384609 0
M  V30 2949 H 295.995 -2.66946 -2.86788 0
M  V30 2950 H 297.692 -3.00091 -2.65982 0
M  V30 2951 H 294.282 -3.97352 -1.60653 0
M  V30 2952 H 298.466 -4.83206 -1.13249 0
M  V30 2953 H 293.722 -6.09385 -0.496006 0
M  V30 2954 H 297.896 -6.96394 -0.0293563 0
M  V30 2955 H 295.523 -7.59628 0.294766 0
M  V30 2956 N 297.098 0.621204 -1.44841 0
M  V30 2957 C 298.338 1.39201 -1.49674 0
M  V30 2958 C 298.702 1.91561 -0.129764 0
M  V30 2959 O 299.903 2.68748 -0.0527814 0
M  V30 2960 C 298.174 2.519 -2.53537 0
M  V30 2961 S 299.733 3.39916 -2.77494 0
M  V30 2962 H 296.551 0.474758 -0.529269 0
M  V30 2963 H 299.153 0.718171 -1.81831 0
M  V30 2964 H 297.857 2.11761 -3.51547 0
M  V30 2965 H 297.388 3.241 -2.22986 0
M  V30 2966 H 299.403 4.49646 -2.0984 0
M  V30 2967 N 298.576 1.31904 0.862503 0
M  V30 2968 C 299.824 1.21776 1.61292 0
M  V30 2969 C 300.145 -0.222413 1.93727 0
M  V30 2970 O 299.415 -1.1451 1.58947 0
M  V30 2971 H 297.995 0.447717 0.597962 0
M  V30 2972 H 300.657 1.65326 1.03215 0
M  V30 2973 H 299.753 1.7948 2.5533 0
M  V30 2974 N 300.054 -1.07777 1.14986 0
M  V30 2975 C 300.964 -2.18404 0.856546 0
M  V30 2976 C 301.98 -1.73211 -0.165485 0
M  V30 2977 O 303.156 -2.01399 0.00755219 0
M  V30 2978 C 300.221 -3.44977 0.34526 0
M  V30 2979 C 299.282 -4.0476 1.43065 0
M  V30 2980 C 298.515 -5.25291 0.943663 0
M  V30 2981 O 298.738 -5.70004 -0.212426 0
M  V30 2982 O 297.672 -5.76638 1.72547 0
M  V30 2983 H 301.498 -2.45978 1.78125 0
M  V30 2984 H 299.083 -1.17033 0.928631 0
M  V30 2985 H 300.965 -4.21348 0.0663671 0
M  V30 2986 H 299.64 -3.18965 -0.551631 0
M  V30 2987 H 298.547 -3.29949 1.76309 0
M  V30 2988 H 299.88 -4.35035 2.30229 0
M  V30 2989 N 301.532 -0.945985 -1.26051 0
M  V30 2990 C 302.809 -0.513816 -1.88731 0
M  V30 2991 C 303.189 1.00872 -1.8544 0
M  V30 2992 O 302.537 1.8708 -1.312 0
M  V30 2993 C 302.747 -1.08062 -3.31849 0
M  V30 2994 C 304.095 -1.1522 -4.08668 0
M  V30 2995 O 305.119 -1.03155 -3.40936 0
M  V30 2996 O 303.978 -1.34044 -5.29806 0
M  V30 2997 H 301.072 -0.168193 -0.809716 0
M  V30 2998 H 303.618 -1.03886 -1.34186 0
M  V30 2999 H 302.39 -2.1241 -3.2863 0
M  V30 3000 H 302.013 -0.538307 -3.93939 0
M  V30 3001 N 303.011 1.40521 -0.713556 0
M  V30 3002 C 303.961 2.27971 -0.036165 0
M  V30 3003 C 304.945 1.43151 0.734623 0
M  V30 3004 O 306.137 1.66261 0.607158 0
M  V30 3005 C 303.266 3.31661 0.886331 0
M  V30 3006 C 302.352 4.23955 0.110836 0
M  V30 3007 N 302.743 4.97641 -0.904847 0
M  V30 3008 C 301.041 4.44674 0.343692 0
M  V30 3009 C 301.742 5.65322 -1.37064 0
M  V30 3010 N 300.718 5.39162 -0.693168 0
M  V30 3011 H 304.52 2.82384 -0.814645 0
M  V30 3012 H 302.034 1.52948 -0.545963 0
M  V30 3013 H 304.031 3.93154 1.38692 0
M  V30 3014 H 302.691 2.78808 1.66421 0
M  V30 3015 H 303.702 5.01689 -1.28563 0
M  V30 3016 H 300.379 4.02801 1.09805 0
M  V30 3017 H 301.769 6.34359 -2.21447 0
M  V30 3018 N 304.489 0.459591 1.5075 0
M  V30 3019 C 305.9 0.00171547 1.867 0
M  V30 3020 C 306.251 -1.39934 1.37525 0
M  V30 3021 O 305.376 -2.03523 0.735349 0
M  V30 3022 C 305.971 -0.00366298 3.388 0
M  V30 3023 C 304.53 -0.406026 3.74204 0
M  V30 3024 C 303.677 0.38673 2.7459 0
M  V30 3025 H 306.628 0.674413 1.43657 0
M  V30 3026 H 306.649 -0.808371 3.71814 0
M  V30 3027 H 306.161 1.01617 3.74561 0
M  V30 3028 H 304.262 -1.43063 3.4404 0
M  V30 3029 H 304.375 -0.115362 4.78961 0
M  V30 3030 H 302.739 -0.158019 2.54209 0
M  V30 3031 H 303.522 1.40585 3.13194 0
M  V30 3032 N 305.967 -1.56429 0.191757 0
M  V30 3033 C 306.899 -2.16154 -0.762245 0
M  V30 3034 C 307.912 -1.12247 -1.17917 0
M  V30 3035 O 309.101 -1.39353 -1.11548 0
M  V30 3036 C 306.201 -2.70606 -2.04024 0
M  V30 3037 C 305.374 -3.99381 -1.78364 0
M  V30 3038 C 304.433 -4.38692 -2.90578 0
M  V30 3039 O 303.459 -5.06179 -2.6033 0
M  V30 3040 N 304.661 -4.01922 -4.18854 0
M  V30 3041 H 307.426 -2.98643 -0.251526 0
M  V30 3042 H 304.987 -1.61897 0.00967373 0
M  V30 3043 H 306.979 -2.93891 -2.78227 0
M  V30 3044 H 305.549 -1.9259 -2.46227 0
M  V30 3045 H 304.769 -3.84262 -0.879581 0
M  V30 3046 H 306.057 -4.83445 -1.58614 0
M  V30 3047 H 305.455 -3.47631 -4.46283 0
M  V30 3048 H 304.012 -4.30165 -4.89695 0
M  V30 3049 N 307.445 0.0818655 -1.57387 0
M  V30 3050 C 308.377 1.12484 -1.997 0
M  V30 3051 C 309.39 1.35564 -0.90146 0
M  V30 3052 O 310.579 1.33982 -1.17945 0
M  V30 3053 C 307.679 2.47778 -2.31213 0
M  V30 3054 C 306.852 2.44793 -3.62485 0
M  V30 3055 C 305.911 3.62117 -3.81782 0
M  V30 3056 O 304.937 3.44005 -4.53486 0
M  V30 3057 N 306.139 4.82094 -3.23367 0
M  V30 3058 H 308.904 0.764585 -2.89783 0
M  V30 3059 H 306.465 0.270664 -1.59621 0
M  V30 3060 H 308.457 3.24891 -2.41304 0
M  V30 3061 H 307.027 2.75843 -1.4707 0
M  V30 3062 H 306.247 1.53134 -3.6324 0
M  V30 3063 H 307.535 2.39889 -4.48699 0
M  V30 3064 H 306.933 4.99713 -2.65148 0
M  V30 3065 H 305.49 5.56753 -3.38923 0
M  V30 3066 N 308.923 1.53595 0.353017 0
M  V30 3067 C 310.171 1.70049 1.09215 0
M  V30 3068 C 310.492 0.461406 1.89463 0
M  V30 3069 O 309.762 -0.524633 1.88744 0
M  V30 3070 H 308.342 0.626912 0.40619 0
M  V30 3071 H 311.004 1.90822 0.396585 0
M  V30 3072 H 310.1 2.56718 1.77488 0
M  V30 3073 N 310.401 -0.613514 1.45168 0
M  V30 3074 C 311.626 -1.40437 1.52618 0
M  V30 3075 C 312.051 -1.87438 0.157707 0
M  V30 3076 O 311.409 -1.59791 -0.856537 0
M  V30 3077 C 311.457 -2.58894 2.51011 0
M  V30 3078 O 310.561 -3.59326 2.02382 0
M  V30 3079 H 309.902 -0.419506 0.514695 0
M  V30 3080 H 312.432 -0.747215 1.90467 0
M  V30 3081 H 312.442 -3.06214 2.69624 0
M  V30 3082 H 311.117 -2.24032 3.50403 0
M  V30 3083 H 309.694 -3.18695 1.93618 0
M  V30 3084 N 311.879 -1.3236 -0.855495 0
M  V30 3085 C 313.107 -1.2587 -1.64208 0
M  V30 3086 C 313.522 0.173457 -1.88002 0
M  V30 3087 O 312.879 1.11027 -1.44842 0
M  V30 3088 C 312.93 -2.01424 -3.00184 0
M  V30 3089 O 312.651 -3.39051 -2.77445 0
M  V30 3090 C 314.152 -2.01948 -3.94629 0
M  V30 3091 H 311.372 -0.434318 -0.511477 0
M  V30 3092 H 313.916 -1.74469 -1.0668 0
M  V30 3093 H 312.071 -1.56549 -3.5436 0
M  V30 3094 H 312.485 -3.77711 -3.63916 0
M  V30 3095 H 313.959 -2.59297 -4.87308 0
M  V30 3096 H 314.436 -1.00554 -4.27534 0
M  V30 3097 H 315.042 -2.46767 -3.4639 0
M  V30 3098 N 313.357 1.07166 -1.15556 0
M  V30 3099 C 314.287 2.16403 -0.877046 0
M  V30 3100 C 315.268 1.69217 0.173111 0
M  V30 3101 O 316.453 1.94181 0.027084 0
M  V30 3102 C 313.583 3.45349 -0.367632 0
M  V30 3103 C 312.537 4.05995 -1.35468 0
M  V30 3104 C 311.863 5.30045 -0.704038 0
M  V30 3105 C 313.163 4.45804 -2.72132 0
M  V30 3106 H 314.857 2.39959 -1.79053 0
M  V30 3107 H 312.403 1.15325 -0.862331 0
M  V30 3108 H 314.356 4.21095 -0.160317 0
M  V30 3109 H 313.08 3.21385 0.581326 0
M  V30 3110 H 311.739 3.32296 -1.54839 0
M  V30 3111 H 311.387 5.02373 0.251128 0
M  V30 3112 H 311.087 5.71579 -1.36277 0
M  V30 3113 H 312.611 6.08495 -0.50654 0
M  V30 3114 H 314.025 5.12671 -2.56595 0
M  V30 3115 H 312.422 4.98296 -3.34397 0
M  V30 3116 H 313.492 3.57083 -3.28054 0
M  V30 3117 N 314.835 0.952656 1.25548 0
M  V30 3118 C 316.065 0.622592 1.96996 0
M  V30 3119 C 316.473 -0.809112 1.71026 0
M  V30 3120 O 315.816 -1.55258 0.981861 0
M  V30 3121 C 315.878 0.798946 3.5051 0
M  V30 3122 C 315.542 2.20744 4.00151 0
M  V30 3123 C 316.539 3.18394 4.11001 0
M  V30 3124 C 314.224 2.5311 4.33867 0
M  V30 3125 C 316.218 4.46504 4.54877 0
M  V30 3126 C 313.905 3.8145 4.7743 0
M  V30 3127 C 314.903 4.77959 4.87897 0
M  V30 3128 O 314.591 6.04012 5.30494 0
M  V30 3129 H 314.323 0.232503 0.634758 0
M  V30 3130 H 316.877 1.2789 1.60728 0
M  V30 3131 H 315.107 0.0854903 3.86605 0
M  V30 3132 H 316.796 0.47023 4.03167 0
M  V30 3133 H 317.562 2.94715 3.85186 0
M  V30 3134 H 313.441 1.78719 4.24948 0
M  V30 3135 H 316.985 5.21835 4.62962 0
M  V30 3136 H 312.882 4.04936 5.0269 0
M  V30 3137 H 313.65 6.0736 5.48685 0
M  V30 3138 N 316.313 -1.40141 0.720998 0
M  V30 3139 C 317.553 -2.02644 0.267335 0
M  V30 3140 C 317.917 -1.55948 -1.12001 0
M  V30 3141 O 319.118 -2.10552 -1.67097 0
M  V30 3142 C 317.389 -3.55679 0.350281 0
M  V30 3143 S 318.948 -4.38793 -0.0256004 0
M  V30 3144 H 315.766 -0.703105 0.105664 0
M  V30 3145 H 318.368 -1.71175 0.944416 0
M  V30 3146 H 317.072 -3.87157 1.36153 0
M  V30 3147 H 316.603 -3.91883 -0.345096 0
M  V30 3148 H 318.618 -4.803 -1.24604 0
M  V30 3149 N 317.792 -0.46758 -1.50504 0
M  V30 3150 C 319.038 0.0887532 -2.02606 0
M  V30 3151 C 319.371 1.39686 -1.34913 0
M  V30 3152 O 318.646 1.88644 -0.473694 0
M  V30 3153 C 318.929 0.276206 -3.59039 0
M  V30 3154 C 318.782 -1.05267 -4.37309 0
M  V30 3155 C 320.101 1.03235 -4.27821 0
M  V30 3156 H 317.22 0.0307814 -0.736357 0
M  V30 3157 H 319.862 -0.612485 -1.79857 0
M  V30 3158 H 318.012 0.8735 -3.78553 0
M  V30 3159 H 319.684 -1.68628 -4.29374 0
M  V30 3160 H 317.927 -1.65015 -4.01189 0
M  V30 3161 H 318.598 -0.875197 -5.45018 0
M  V30 3162 H 321.074 0.526111 -4.12761 0
M  V30 3163 H 319.95 1.1323 -5.37094 0
M  V30 3164 H 320.211 2.06806 -3.90748 0
M  V30 3165 N 319.27 1.56325 -0.20005 0
M  V30 3166 C 320.681 1.8408 0.31167 0
M  V30 3167 C 321.032 1.12087 1.61031 0
M  V30 3168 O 320.157 0.38332 2.12978 0
M  V30 3169 C 320.752 3.33932 0.57226 0
M  V30 3170 C 319.311 3.6208 1.02834 0
M  V30 3171 C 318.458 2.77186 0.079634 0
M  V30 3172 H 321.409 1.52939 -0.423729 0
M  V30 3173 H 321.43 3.52971 1.42096 0
M  V30 3174 H 320.942 3.86303 -0.37308 0
M  V30 3175 H 319.043 3.15147 1.98778 0
M  V30 3176 H 319.156 4.7023 0.917624 0
M  V30 3177 H 317.52 2.47951 0.582448 0
M  V30 3178 H 318.303 3.32347 -0.860238 0
M  V30 3179 N 320.748 -0.0735177 1.57428 0
M  V30 3180 C 321.976 -0.785969 1.9139 0
M  V30 3181 C 322.391 -1.71207 0.795847 0
M  V30 3182 O 321.748 -1.81033 -0.230915 0
M  V30 3183 C 321.799 -1.58107 3.25091 0
M  V30 3184 O 321.52 -0.6922 4.32597 0
M  V30 3185 C 323.021 -2.39467 3.73055 0
M  V30 3186 H 320.241 -0.223558 0.632663 0
M  V30 3187 H 322.785 -0.044302 2.04452 0
M  V30 3188 H 320.94 -2.27503 3.13562 0
M  V30 3189 H 321.354 -1.24504 5.09508 0
M  V30 3190 H 322.828 -2.90716 4.69242 0
M  V30 3191 H 323.305 -3.18913 3.01979 0
M  V30 3192 H 323.911 -1.7523 3.87523 0
M  V30 3193 N 322.226 -1.5378 -0.344866 0
M  V30 3194 C 323.451 -1.75211 -1.10977 0
M  V30 3195 C 323.876 -0.48936 -1.81623 0
M  V30 3196 O 323.234 0.557925 -1.72502 0
M  V30 3197 C 323.282 -2.93147 -2.09993 0
M  V30 3198 O 322.386 -2.63203 -3.17487 0
M  V30 3199 H 321.727 -0.581241 -0.321021 0
M  V30 3200 H 324.257 -2.00738 -0.395661 0
M  V30 3201 H 324.267 -3.19898 -2.53237 0
M  V30 3202 H 322.942 -3.84731 -1.5797 0
M  V30 3203 H 321.519 -2.47336 -2.79069 0
M  V30 3204 N 323.704 0.605807 -1.45491 0
M  V30 3205 C 324.932 1.39136 -1.5313 0
M  V30 3206 C 325.347 1.88082 -0.164507 0
M  V30 3207 O 324.704 1.62316 0.834247 0
M  V30 3208 C 324.755 2.59463 -2.51716 0
M  V30 3209 O 324.476 2.12551 -3.83084 0
M  V30 3210 C 325.977 3.52301 -2.6907 0
M  V30 3211 H 323.197 0.425849 -0.51855 0
M  V30 3212 H 325.741 0.73865 -1.90694 0
M  V30 3213 H 323.896 3.20772 -2.17219 0
M  V30 3214 H 324.31 2.90744 -4.36541 0
M  V30 3215 H 325.784 4.33271 -3.42024 0
M  V30 3216 H 326.261 4.02757 -1.75167 0
M  V30 3217 H 326.867 2.96845 -3.04571 0
M  V30 3218 N 325.182 1.32811 0.848464 0
M  V30 3219 C 326.13 1.22231 1.97895 0
M  V30 3220 C 327.124 0.125749 1.68933 0
M  V30 3221 O 328.33 0.289083 1.77663 0
M  V30 3222 H 324.705 0.379058 0.649476 0
M  V30 3223 H 326.676 2.17828 2.03945 0
M  V30 3224 C 325.425 0.968572 3.33937 0
M  V30 3225 H 324.748 1.80458 3.56756 0
M  V30 3226 H 326.188 0.934808 4.13567 0
M  V30 3227 C 324.647 -0.328628 3.35293 0
M  V30 3228 O 325.177 -1.33848 3.78745 0
M  V30 3229 N 323.383 -0.352788 2.88451 0
M  V30 3230 H 322.93 0.469541 2.53285 0
M  V30 3231 H 322.888 -1.22057 2.89741 0
M  V30 3232 N 326.66 -1.06551 1.16123 0
M  V30 3233 C 327.592 -2.13908 0.823171 0
M  V30 3234 C 328.605 -1.61926 -0.16843 0
M  V30 3235 O 329.794 -1.78412 0.055962 0
M  V30 3236 C 326.894 -3.38283 0.204424 0
M  V30 3237 C 326.067 -4.19589 1.23548 0
M  V30 3238 C 325.126 -5.2233 0.637011 0
M  V30 3239 O 324.152 -5.54034 1.30516 0
M  V30 3240 N 325.354 -5.77621 -0.577474 0
M  V30 3241 H 328.119 -2.43508 1.74711 0
M  V30 3242 H 325.68 -1.2253 1.05821 0
M  V30 3243 H 327.672 -4.0416 -0.208909 0
M  V30 3244 H 326.242 -3.06329 -0.623012 0
M  V30 3245 H 325.462 -3.49406 1.82507 0
M  V30 3246 H 326.75 -4.70718 1.93137 0
M  V30 3247 H 326.148 -5.54125 -1.13853 0
M  V30 3248 H 324.705 -6.45087 -0.933053 0
M  V30 3249 N 328.138 -0.959301 -1.25041 0
M  V30 3250 C 329.101 -0.487677 -2.23952 0
M  V30 3251 C 330.101 0.41119 -1.55454 0
M  V30 3252 O 331.291 0.207825 -1.72956 0
M  V30 3253 C 328.423 0.294807 -3.39623 0
M  V30 3254 H 329.616 -1.36198 -2.67189 0
M  V30 3255 H 327.169 -0.743042 -1.37508 0
M  V30 3256 H 327.904 1.18658 -3.01813 0
M  V30 3257 H 327.689 -0.35012 -3.90534 0
M  V30 3258 H 329.179 0.614089 -4.1306 0
M  V30 3259 N 329.616 1.39756 -0.72842 0
M  V30 3260 C 330.548 2.29157 -0.0446202 0
M  V30 3261 C 331.561 1.46484 0.710367 0
M  V30 3262 O 332.75 1.69632 0.55562 0
M  V30 3263 C 329.85 3.24987 0.961071 0
M  V30 3264 C 329.023 4.36572 0.268967 0
M  V30 3265 C 328.082 5.12756 1.18184 0
M  V30 3266 O 327.108 5.6534 0.661794 0
M  V30 3267 N 328.31 5.23331 2.51206 0
M  V30 3268 H 331.075 2.88482 -0.812295 0
M  V30 3269 H 328.636 1.51265 -0.577098 0
M  V30 3270 H 330.628 3.72827 1.57423 0
M  V30 3271 H 329.198 2.66739 1.63 0
M  V30 3272 H 328.418 3.90694 -0.524574 0
M  V30 3273 H 329.706 5.08363 -0.210934 0
M  V30 3274 H 329.104 4.82116 2.9594 0
M  V30 3275 H 327.661 5.74634 3.07634 0
M  V30 3276 N 331.094 0.475555 1.50254 0
M  V30 3277 C 332.057 -0.305016 2.27161 0
M  V30 3278 C 333.057 -0.916519 1.32123 0
M  V30 3279 O 334.247 -0.785003 1.5551 0
M  V30 3280 C 331.379 -1.43496 3.09227 0
M  V30 3281 H 332.572 0.369511 2.97615 0
M  V30 3282 H 330.125 0.229747 1.54602 0
M  V30 3283 H 330.86 -2.14441 2.43281 0
M  V30 3284 H 330.645 -1.00223 3.79075 0
M  V30 3285 H 332.135 -1.98548 3.67381 0
M  V30 3286 N 332.573 -1.56217 0.208337 0
M  V30 3287 C 333.536 -2.18455 -0.693557 0
M  V30 3288 C 334.536 -1.14268 -1.13135 0
M  V30 3289 O 335.726 -1.39577 -1.0423 0
M  V30 3290 C 332.858 -2.79727 -1.94848 0
M  V30 3291 H 334.051 -2.99519 -0.15114 0
M  V30 3292 H 331.604 -1.56245 -0.041287 0
M  V30 3293 H 332.339 -2.02497 -2.53309 0
M  V30 3294 H 332.124 -3.56009 -1.64316 0
M  V30 3295 H 333.614 -3.27475 -2.59133 0
M  V30 3296 N 334.051 0.0651679 -1.57465 0
M  V30 3297 C 335.462 0.616213 -1.76238 0
M  V30 3298 C 335.813 1.7756 -0.834689 0
M  V30 3299 O 334.938 2.1639 -0.0204156 0
M  V30 3300 C 335.533 1.12462 -3.1959 0
M  V30 3301 C 334.092 1.62147 -3.39684 0
M  V30 3302 C 333.239 0.543739 -2.71917 0
M  V30 3303 H 336.19 -0.161022 -1.57881 0
M  V30 3304 H 336.211 1.99324 -3.24114 0
M  V30 3305 H 335.723 0.280592 -3.87084 0
M  V30 3306 H 333.824 2.48854 -2.77313 0
M  V30 3307 H 333.937 1.69385 -4.48158 0
M  V30 3308 H 332.301 0.990352 -2.34657 0
M  V30 3309 H 333.084 -0.290216 -3.42071 0
M  V30 3310 N 335.529 1.53961 0.336706 0
M  V30 3311 C 336.439 1.85432 1.43708 0
M  V30 3312 C 337.455 0.745053 1.57242 0
M  V30 3313 O 338.631 1.03804 1.72588 0
M  V30 3314 C 335.696 2.06349 2.78605 0
M  V30 3315 C 334.757 3.30191 2.74358 0
M  V30 3316 C 333.99 3.50101 4.02822 0
M  V30 3317 O 334.213 2.7371 5.00439 0
M  V30 3318 O 333.147 4.43547 4.06878 0
M  V30 3319 H 336.973 2.78975 1.20028 0
M  V30 3320 H 334.558 1.39701 0.52952 0
M  V30 3321 H 336.44 2.21513 3.58483 0
M  V30 3322 H 335.115 1.15995 3.02203 0
M  V30 3323 H 334.022 3.20425 1.93078 0
M  V30 3324 H 335.355 4.2056 2.55715 0
M  V30 3325 N 337.007 -0.598083 1.45811 0
M  V30 3326 C 337.917 -1.73632 1.57763 0
M  V30 3327 C 338.933 -1.67763 0.461676 0
M  V30 3328 O 340.109 -1.87949 0.723685 0
M  V30 3329 C 337.174 -3.10114 1.55018 0
M  V30 3330 C 336.235 -3.27364 2.77726 0
M  V30 3331 C 335.468 -4.57334 2.75102 0
M  V30 3332 O 335.691 -5.40258 1.8297 0
M  V30 3333 O 334.625 -4.77502 3.66437 0
M  V30 3334 H 338.451 -1.66498 2.53992 0
M  V30 3335 H 336.036 -0.763308 1.28429 0
M  V30 3336 H 337.918 -3.9141 1.56129 0
M  V30 3337 H 336.593 -3.17718 0.619431 0
M  V30 3338 H 335.5 -2.45619 2.82174 0
M  V30 3339 H 336.833 -3.24641 3.69958 0
M  V30 3340 N 338.485 -1.33259 -0.841409 0
M  V30 3341 C 339.901 -1.12538 -1.13169 0
M  V30 3342 C 340.101 0.0854037 -2.01319 0
M  V30 3343 O 339.157 0.766417 -2.40587 0
M  V30 3344 C 340.47 -2.41156 -1.79623 0
M  V30 3345 C 342.018 -2.47038 -1.922 0
M  V30 3346 C 342.493 -3.7561 -2.6207 0
M  V30 3347 N 343.984 -3.76667 -2.69585 0
M  V30 3348 C 344.719 -4.72861 -3.2433 0
M  V30 3349 N 344.215 -5.79428 -3.79783 0
M  V30 3350 N 346.008 -4.6034 -3.22558 0
M  V30 3351 H 338.159 -2.10868 -0.254676 0
M  V30 3352 H 340.422 -0.931615 -0.175493 0
M  V30 3353 H 340.128 -3.29747 -1.22311 0
M  V30 3354 H 340.002 -2.53114 -2.79666 0
M  V30 3355 H 342.389 -1.58898 -2.48667 0
M  V30 3356 H 342.47 -2.39022 -0.911148 0
M  V30 3357 H 342.114 -4.64131 -2.06263 0
M  V30 3358 H 342.044 -3.80902 -3.63622 0
M  V30 3359 H 344.535 -2.99648 -2.30259 0
M  V30 3360 H 344.848 -6.48867 -4.19752 0
M  V30 3361 H 343.193 -5.83166 -3.78078 0
M  V30 3362 H 346.384 -3.76244 -2.78492 0
M  V30 3363 H 346.557 -5.35478 -3.64921 0
M  V30 3364 N 339.963 1.05934 -1.16686 0
M  V30 3365 C 341.374 1.60263 -0.957745 0
M  V30 3366 C 341.725 1.89789 0.49745 0
M  V30 3367 O 340.85 1.67401 1.37135 0
M  V30 3368 C 341.445 2.91172 -1.73218 0
M  V30 3369 C 340.004 3.42188 -1.56794 0
M  V30 3370 C 339.151 2.16028 -1.73859 0
M  V30 3371 H 342.102 0.888392 -1.31504 0
M  V30 3372 H 342.123 3.60744 -1.21014 0
M  V30 3373 H 341.635 2.6965 -2.79124 0
M  V30 3374 H 339.736 3.68762 -0.533437 0
M  V30 3375 H 339.849 4.17273 -2.35414 0
M  V30 3376 H 338.213 2.26426 -1.16633 0
M  V30 3377 H 338.996 1.96985 -2.81161 0
M  V30 3378 N 341.441 0.965919 1.2453 0
M  V30 3379 C 342.857 0.67216 1.44756 0
M  V30 3380 C 343.057 -0.766609 1.86347 0
M  V30 3381 O 342.113 -1.5407 2.00047 0
M  V30 3382 C 343.426 1.65473 2.51076 0
M  V30 3383 C 344.974 1.66716 2.64905 0
M  V30 3384 C 345.449 2.63766 3.74421 0
M  V30 3385 N 346.94 2.62198 3.81846 0
M  V30 3386 C 347.675 3.33966 4.66106 0
M  V30 3387 N 347.171 4.15245 5.54566 0
M  V30 3388 N 348.964 3.22799 4.60171 0
M  V30 3389 H 341.115 1.89553 0.958293 0
M  V30 3390 H 343.378 0.815979 0.482579 0
M  V30 3391 H 343.084 2.68296 2.27399 0
M  V30 3392 H 342.958 1.4261 3.49202 0
M  V30 3393 H 345.345 0.646057 2.87941 0
M  V30 3394 H 345.426 1.93642 1.67142 0
M  V30 3395 H 345.07 3.6601 3.52135 0
M  V30 3396 H 345 2.34121 4.71694 0
M  V30 3397 H 347.491 2.032 3.18619 0
M  V30 3398 H 347.804 4.66898 6.15814 0
M  V30 3399 H 346.149 4.1934 5.54237 0
M  V30 3400 H 349.34 2.58764 3.90075 0
M  V30 3401 H 349.513 3.78994 5.25612 0
M  V30 3402 N 342.919 -1.39368 0.735821 0
M  V30 3403 C 343.882 -2.2896 0.104874 0
M  V30 3404 C 344.882 -1.46347 -0.666274 0
M  V30 3405 O 346.072 -1.67014 -0.49517 0
M  V30 3406 C 343.204 -3.29857 -0.860656 0
M  V30 3407 H 344.397 -2.86259 0.894205 0
M  V30 3408 H 341.95 -1.48029 0.501704 0
M  V30 3409 H 342.685 -2.77615 -1.67631 0
M  V30 3410 H 342.47 -3.9087 -0.310327 0
M  V30 3411 H 343.96 -3.96893 -1.29867 0
M  V30 3412 N 344.397 -0.483516 -1.5 0
M  V30 3413 C 345.808 -0.0314176 -1.86674 0
M  V30 3414 C 346.159 1.37728 -1.39733 0
M  V30 3415 O 345.284 2.02327 -0.767635 0
M  V30 3416 C 345.879 -0.0502376 -3.38763 0
M  V30 3417 C 344.438 0.346442 -3.74802 0
M  V30 3418 C 343.585 -0.430366 -2.7394 0
M  V30 3419 H 346.536 -0.697182 -1.42566 0
M  V30 3420 H 346.557 0.749116 -3.73053 0
M  V30 3421 H 346.069 -1.07563 -3.72897 0
M  V30 3422 H 344.17 1.37572 -3.46273 0
M  V30 3423 H 344.283 0.0391486 -4.79084 0
M  V30 3424 H 342.647 0.117557 -2.54429 0
M  V30 3425 H 343.43 -1.4555 -3.10918 0
M  V30 3426 N 345.875 1.56104 -0.216619 0
M  V30 3427 C 347.121 1.99219 0.410301 0
M  V30 3428 C 347.476 1.10169 1.57735 0
M  V30 3429 O 346.769 0.150598 1.91007 0
M  V30 3430 C 346.963 3.45923 0.898464 0
M  V30 3431 C 346.792 4.49163 -0.219748 0
M  V30 3432 C 345.562 5.00642 -0.684516 0
M  V30 3433 C 347.76 5.03751 -1.03629 0
M  V30 3434 N 345.742 5.87579 -1.7783 0
M  V30 3435 C 347.113 5.87566 -1.97904 0
M  V30 3436 C 349.168 4.86128 -1.07629 0
M  V30 3437 C 347.871 6.5564 -2.95851 0
M  V30 3438 C 349.897 5.54958 -2.04392 0
M  V30 3439 C 349.259 6.38536 -2.97407 0
M  V30 3440 H 345.358 0.773206 0.11695 0
M  V30 3441 H 347.942 1.9193 -0.327258 0
M  V30 3442 H 346.113 3.53669 1.6054 0
M  V30 3443 H 347.845 3.75963 1.49779 0
M  V30 3444 H 344.6 4.72807 -0.27399 0
M  V30 3445 H 345.024 6.3575 -2.32705 0
M  V30 3446 H 349.666 4.21168 -0.371099 0
M  V30 3447 H 347.384 7.19785 -3.67335 0
M  V30 3448 H 350.97 5.43289 -2.08154 0
M  V30 3449 H 349.85 6.90858 -3.71059 0
M  V30 3450 N 347.353 -0.0568162 1.57498 0
M  V30 3451 C 348.599 -0.748893 1.89111 0
M  V30 3452 C 348.954 -1.74422 0.81208 0
M  V30 3453 O 348.247 -1.90731 -0.182247 0
M  V30 3454 C 348.441 -1.48359 3.25153 0
M  V30 3455 C 348.27 -0.560924 4.46188 0
M  V30 3456 C 347.04 -0.192264 5.04934 0
M  V30 3457 C 349.238 0.148824 5.14085 0
M  V30 3458 N 347.22 0.734555 6.0949 0
M  V30 3459 C 348.591 0.932286 6.12951 0
M  V30 3460 C 350.646 0.218713 4.97419 0
M  V30 3461 C 349.349 1.77917 6.96949 0
M  V30 3462 C 351.375 1.05262 5.81957 0
M  V30 3463 C 350.737 1.82409 6.80372 0
M  V30 3464 H 346.836 -0.249002 0.741298 0
M  V30 3465 H 349.42 -0.00984926 1.94698 0
M  V30 3466 H 347.591 -2.19326 3.20547 0
M  V30 3467 H 349.323 -2.12586 3.44368 0
M  V30 3468 H 346.078 -0.548421 4.70414 0
M  V30 3469 H 346.502 1.19165 6.6643 0
M  V30 3470 H 351.144 -0.363407 4.21235 0
M  V30 3471 H 348.862 2.3722 7.72497 0
M  V30 3472 H 352.448 1.10987 5.71116 0
M  V30 3473 H 351.328 2.45895 7.44651 0
M  V30 3474 N 348.832 -1.54138 -0.328536 0
M  V30 3475 C 350.109 -1.62749 -1.08499 0
M  V30 3476 C 350.489 -0.458198 -2.06067 0
M  V30 3477 O 349.837 0.548046 -2.2183 0
M  V30 3478 C 350.047 -2.99519 -1.79135 0
M  V30 3479 C 351.395 -3.55394 -2.32337 0
M  V30 3480 O 352.419 -3.01792 -1.89209 0
M  V30 3481 O 351.278 -4.49186 -3.11279 0
M  V30 3482 H 348.372 -0.65886 -0.499832 0
M  V30 3483 H 350.918 -1.66484 -0.328826 0
M  V30 3484 H 349.69 -3.76061 -1.08139 0
M  V30 3485 H 349.313 -2.99441 -2.61574 0
M  V30 3486 N 350.31 0.590341 -1.46126 0
M  V30 3487 C 351.538 1.37504 -1.54597 0
M  V30 3488 C 351.953 1.87897 -0.184447 0
M  V30 3489 O 351.31 1.63192 0.816984 0
M  V30 3490 C 351.361 2.56779 -2.54454 0
M  V30 3491 O 351.082 2.08476 -3.85317 0
M  V30 3492 C 352.583 3.49427 -2.72792 0
M  V30 3493 H 349.803 0.420325 -0.523037 0
M  V30 3494 H 352.347 0.718383 -1.91467 0
M  V30 3495 H 350.502 3.1845 -2.20609 0
M  V30 3496 H 350.916 2.86097 -4.396 0
M  V30 3497 H 352.39 4.29619 -3.466 0
M  V30 3498 H 352.867 4.00876 -1.79429 0
M  V30 3499 H 353.473 2.93598 -3.07702 0
M  V30 3500 N 351.788 1.33704 0.83433 0
M  V30 3501 C 353.013 1.28615 1.62705 0
M  V30 3502 C 353.438 -0.139242 1.87584 0
M  V30 3503 O 352.796 -1.09734 1.4432 0
M  V30 3504 C 352.844 2.07139 2.95171 0
M  V30 3505 O 351.948 1.4331 3.86699 0
M  V30 3506 H 351.289 0.44226 0.49528 0
M  V30 3507 H 353.819 1.76335 1.03766 0
M  V30 3508 H 353.829 2.18073 3.44831 0
M  V30 3509 H 352.504 3.10779 2.76386 0
M  V30 3510 H 351.081 1.4105 3.45195 0
M  V30 3511 N 353.266 -1.05314 1.17247 0
M  V30 3512 C 354.491 -1.82509 0.985148 0
M  V30 3513 C 354.916 -1.82343 -0.461788 0
M  V30 3514 O 354.274 -1.23151 -1.33055 0
M  V30 3515 C 354.322 -3.26566 1.52929 0
M  V30 3516 O 353.426 -4.05666 0.742225 0
M  V30 3517 H 352.767 -0.564347 0.349869 0
M  V30 3518 H 355.297 -1.32718 1.55715 0
M  V30 3519 H 355.307 -3.77369 1.55103 0
M  V30 3520 H 353.982 -3.26001 2.58256 0
M  V30 3521 H 352.559 -3.64397 0.791794 0
M  V30 3522 N 354.744 -0.972509 -1.24016 0
M  V30 3523 C 355.992 -0.635776 -1.91839 0
M  V30 3524 C 356.313 0.832312 -1.76345 0
M  V30 3525 O 355.583 1.5946 -1.13795 0
M  V30 3526 H 354.163 -0.232157 -0.710009 0
M  V30 3527 H 356.825 -1.23462 -1.50809 0
M  V30 3528 H 355.921 -0.880545 -2.99421 0
M  V30 3529 N 356.222 1.38976 -0.743202 0
M  V30 3530 C 357.185 2.28901 -0.117014 0
M  V30 3531 C 358.185 1.46698 0.658503 0
M  V30 3532 O 359.375 1.67274 0.486305 0
M  V30 3533 C 356.507 3.30309 0.84315 0
M  V30 3534 H 357.7 2.8578 -0.909373 0
M  V30 3535 H 355.253 1.47761 -0.509547 0
M  V30 3536 H 355.988 2.785 1.66157 0
M  V30 3537 H 355.773 3.91029 0.289594 0
M  V30 3538 H 357.263 3.97577 1.2776 0
M  V30 3539 N 357.7 0.491464 1.49741 0
M  V30 3540 C 358.63 -0.28154 2.31796 0
M  V30 3541 C 359.611 -0.971473 1.3963 0
M  V30 3542 O 360.796 -0.964719 1.68543 0
M  V30 3543 C 357.926 -1.35203 3.19902 0
M  V30 3544 C 356.88 -0.782529 4.20786 0
M  V30 3545 C 356.206 -1.95283 4.97764 0
M  V30 3546 C 357.506 0.21999 5.21837 0
M  V30 3547 H 359.2 0.403355 2.96671 0
M  V30 3548 H 356.746 0.195425 1.42668 0
M  V30 3549 H 358.699 -1.90045 3.76113 0
M  V30 3550 H 357.423 -2.06598 2.52953 0
M  V30 3551 H 356.082 -0.255928 3.65706 0
M  V30 3552 H 355.73 -2.65423 4.2727 0
M  V30 3553 H 355.43 -1.57789 5.66018 0
M  V30 3554 H 356.954 -2.50577 5.56816 0
M  V30 3555 H 358.368 -0.23996 5.72798 0
M  V30 3556 H 356.765 0.51026 5.97927 0
M  V30 3557 H 357.835 1.13911 4.7133 0
M  V30 3558 N 359.178 -1.55987 0.224894 0
M  V30 3559 C 360.594 -1.59066 -0.130426 0
M  V30 3560 C 360.794 -1.24176 -1.5869 0
M  V30 3561 O 359.85 -0.978592 -2.32766 0
M  V30 3562 C 361.163 -3.00042 0.198883 0
M  V30 3563 C 362.711 -3.1268 0.141391 0
M  V30 3564 C 363.186 -4.55839 0.444422 0
M  V30 3565 N 364.677 -4.6152 0.394115 0
M  V30 3566 C 365.412 -5.70231 0.602038 0
M  V30 3567 N 364.908 -6.87291 0.871914 0
M  V30 3568 N 366.701 -5.59555 0.534245 0
M  V30 3569 H 358.852 -1.76941 1.17497 0
M  V30 3570 H 361.115 -0.822604 0.471197 0
M  V30 3571 H 360.821 -3.30234 1.2099 0
M  V30 3572 H 360.695 -3.74075 -0.484535 0
M  V30 3573 H 363.082 -2.82283 -0.860265 0
M  V30 3574 H 363.163 -2.40969 0.858335 0
M  V30 3575 H 362.807 -4.86954 1.44353 0
M  V30 3576 H 362.737 -5.2578 -0.293752 0
M  V30 3577 H 365.228 -3.77405 0.193356 0
M  V30 3578 H 365.541 -7.66058 1.01858 0
M  V30 3579 H 363.886 -6.89028 0.909145 0
M  V30 3580 H 367.077 -4.6698 0.323612 0
M  V30 3581 H 367.25 -6.44211 0.699693 0
M  V30 3582 N 360.656 0.0484629 -1.57525 0
M  V30 3583 C 362.067 0.597486 -1.76881 0
M  V30 3584 C 362.418 1.76664 -0.853475 0
M  V30 3585 O 361.543 2.16357 -0.0433656 0
M  V30 3586 C 362.138 1.09066 -3.20765 0
M  V30 3587 C 360.697 1.58535 -3.41385 0
M  V30 3588 C 359.844 0.514868 -2.72478 0
M  V30 3589 H 362.795 -0.177758 -1.57701 0
M  V30 3590 H 362.816 1.95875 -3.2621 0
M  V30 3591 H 362.328 0.239521 -3.8736 0
M  V30 3592 H 360.429 2.45898 -2.79937 0
M  V30 3593 H 360.542 1.64622 -4.49929 0
M  V30 3594 H 358.906 0.965407 -2.35695 0
M  V30 3595 H 359.689 -0.32648 -3.41744 0
M  V30 3596 N 362.134 1.5431 0.320358 0
M  V30 3597 C 363.38 1.72924 1.05949 0
M  V30 3598 C 363.713 0.503185 1.87568 0
M  V30 3599 O 362.988 -0.499839 1.87968 0
M  V30 3600 C 363.271 3.00676 1.98156 0
M  V30 3601 C 363.124 4.3354 1.19845 0
M  V30 3602 C 364.443 3.24198 2.9763 0
M  V30 3603 H 361.562 0.629195 0.383774 0
M  V30 3604 H 364.204 1.87008 0.335854 0
M  V30 3605 H 362.354 2.888 2.59859 0
M  V30 3606 H 364.026 4.57305 0.605773 0
M  V30 3607 H 362.269 4.309 0.500784 0
M  V30 3608 H 362.94 5.19156 1.87567 0
M  V30 3609 H 365.416 3.35557 2.4605 0
M  V30 3610 H 364.292 4.14938 3.59329 0
M  V30 3611 H 364.553 2.41577 3.7026 0
M  V30 3612 N 363.613 -0.582584 1.46437 0
M  V30 3613 C 364.576 -1.67366 1.56592 0
M  V30 3614 C 365.576 -1.54575 0.443072 0
M  V30 3615 O 366.766 -1.59191 0.707381 0
M  V30 3616 C 363.898 -3.06791 1.48634 0
M  V30 3617 H 365.091 -1.5972 2.5383 0
M  V30 3618 H 362.644 -0.800432 1.34249 0
M  V30 3619 H 363.379 -3.19993 0.526763 0
M  V30 3620 H 363.164 -3.17484 2.30101 0
M  V30 3621 H 364.654 -3.86218 1.58826 0
M  V30 3622 N 365.091 -1.34144 -0.827227 0
M  V30 3623 C 366.021 -1.28005 -1.95287 0
M  V30 3624 C 367.002 -0.158321 -1.69362 0
M  V30 3625 O 368.187 -0.349987 -1.9102 0
M  V30 3626 C 365.317 -1.03036 -3.31664 0
M  V30 3627 C 364.271 -2.11628 -3.72019 0
M  V30 3628 C 363.597 -1.71854 -5.0633 0
M  V30 3629 C 364.897 -3.53417 -3.8457 0
M  V30 3630 H 366.591 -2.22187 -2.00682 0
M  V30 3631 H 364.137 -1.0696 -0.964135 0
M  V30 3632 H 366.09 -0.973863 -4.09993 0
M  V30 3633 H 364.814 -0.0529391 -3.26557 0
M  V30 3634 H 363.473 -2.16339 -2.95961 0
M  V30 3635 H 363.121 -0.727841 -4.97706 0
M  V30 3636 H 362.821 -2.44531 -5.34302 0
M  V30 3637 H 364.345 -1.67692 -5.87122 0
M  V30 3638 H 365.759 -3.51142 -4.5318 0
M  V30 3639 H 364.156 -4.24679 -4.2399 0
M  V30 3640 H 365.226 -3.91072 -2.86689 0
M  V30 3641 N 366.569 1.04691 -1.17803 0
M  V30 3642 C 367.516 2.12557 -0.899343 0
M  V30 3643 C 368.486 1.65339 0.158771 0
M  V30 3644 O 369.671 1.90789 0.0204797 0
M  V30 3645 C 366.811 3.42481 -0.424315 0
M  V30 3646 C 365.924 4.03346 -1.54713 0
M  V30 3647 C 365.059 5.21208 -1.02546 0
M  V30 3648 C 364.098 5.74089 -2.12339 0
M  V30 3649 N 363.235 6.83247 -1.61612 0
M  V30 3650 H 368.075 2.35734 -1.823 0
M  V30 3651 H 365.612 1.1564 -0.909159 0
M  V30 3652 H 367.57 4.16996 -0.130421 0
M  V30 3653 H 366.2 3.19471 0.462377 0
M  V30 3654 H 365.252 3.2622 -1.95664 0
M  V30 3655 H 366.564 4.38628 -2.37501 0
M  V30 3656 H 365.718 6.02812 -0.685718 0
M  V30 3657 H 364.457 4.87414 -0.167084 0
M  V30 3658 H 363.462 4.91111 -2.47165 0
M  V30 3659 H 364.687 6.0993 -2.98601 0
M  V30 3660 H 362.633 6.5134 -0.780533 0
M  V30 3661 H 362.55 7.17559 -2.38003 0
M  V30 3662 H 363.818 7.68491 -1.30545 0
M  V30 3663 N 368.047 0.979072 1.23499 0
M  V30 3664 C 369.272 0.664845 1.96455 0
M  V30 3665 C 369.697 -0.761287 1.72006 0
M  V30 3666 O 369.055 -1.51837 0.990713 0
M  V30 3667 C 369.103 0.959479 3.47601 0
M  V30 3668 O 368.207 0.0508168 4.12369 0
M  V30 3669 H 367.548 0.250185 0.615064 0
M  V30 3670 H 370.078 1.31231 1.5697 0
M  V30 3671 H 370.088 0.895642 3.98048 0
M  V30 3672 H 368.763 1.99876 3.64723 0
M  V30 3673 H 367.34 0.16895 3.72517 0
M  V30 3674 N 369.525 -1.3858 0.750561 0
M  V30 3675 C 370.936 -1.82927 0.373438 0
M  V30 3676 C 371.287 -1.62634 -1.09748 0
M  V30 3677 O 370.412 -1.12588 -1.84805 0
M  V30 3678 C 371.007 -3.32088 0.671029 0
M  V30 3679 C 369.566 -3.74795 0.34722 0
M  V30 3680 C 368.713 -2.61391 0.92575 0
M  V30 3681 H 371.664 -1.27351 0.946958 0
M  V30 3682 H 371.685 -3.80465 -0.0518269 0
M  V30 3683 H 371.197 -3.46826 1.74164 0
M  V30 3684 H 369.298 -3.65638 -0.716933 0
M  V30 3685 H 369.411 -4.71667 0.840656 0
M  V30 3686 H 367.775 -2.52265 0.351327 0
M  V30 3687 H 368.558 -2.78929 2.00133 0
M  V30 3688 N 371.003 -0.499398 -1.49478 0
M  V30 3689 C 371.935 0.316575 -2.27003 0
M  V30 3690 C 372.948 0.932047 -1.33479 0
M  V30 3691 O 374.137 0.815658 -1.58774 0
M  V30 3692 C 371.237 1.46055 -3.05812 0
M  V30 3693 C 370.41 0.952679 -4.26899 0
M  V30 3694 C 369.469 1.97407 -4.87767 0
M  V30 3695 O 368.495 1.54326 -5.4788 0
M  V30 3696 N 369.697 3.30436 -4.77276 0
M  V30 3697 H 372.462 -0.348168 -2.97671 0
M  V30 3698 H 370.023 -0.33185 -1.58463 0
M  V30 3699 H 372.015 2.14135 -3.43407 0
M  V30 3700 H 370.585 2.02948 -2.37762 0
M  V30 3701 H 369.805 0.0968248 -3.94081 0
M  V30 3702 H 371.093 0.59174 -5.05347 0
M  V30 3703 H 370.491 3.68126 -4.29534 0
M  V30 3704 H 369.048 3.94235 -5.19059 0
M  V30 3705 N 372.481 1.55866 -0.233164 0
M  V30 3706 C 373.727 1.98897 0.395959 0
M  V30 3707 C 374.06 1.12091 1.58585 0
M  V30 3708 O 373.335 0.181182 1.93654 0
M  V30 3709 C 373.618 3.50658 0.819224 0
M  V30 3710 C 373.471 4.48233 -0.375109 0
M  V30 3711 C 374.79 4.07135 1.67121 0
M  V30 3712 H 371.909 0.723102 0.142451 0
M  V30 3713 H 374.551 1.87082 -0.331725 0
M  V30 3714 H 372.701 3.60857 1.43925 0
M  V30 3715 H 374.373 4.50031 -1.01341 0
M  V30 3716 H 372.616 4.21624 -1.02058 0
M  V30 3717 H 373.287 5.51988 -0.0358328 0
M  V30 3718 H 375.763 3.99952 1.14795 0
M  V30 3719 H 374.639 5.13615 1.93625 0
M  V30 3720 H 374.9 3.54736 2.63846 0
M  V30 3721 N 373.959 -0.0401083 1.57549 0
M  V30 3722 C 375.205 -0.734211 1.89043 0
M  V30 3723 C 375.538 -1.75591 0.829535 0
M  V30 3724 O 374.813 -1.93868 -0.156706 0
M  V30 3725 C 375.096 -1.41374 3.31188 0
M  V30 3726 C 374.949 -0.406299 4.47961 0
M  V30 3727 C 376.268 -2.35061 3.72068 0
M  V30 3728 H 373.387 -0.265447 0.687537 0
M  V30 3729 H 376.029 0.00294087 1.9 0
M  V30 3730 H 374.179 -2.04206 3.30503 0
M  V30 3731 H 375.851 0.219255 4.60779 0
M  V30 3732 H 374.094 0.275485 4.32924 0
M  V30 3733 H 374.765 -0.920022 5.44279 0
M  V30 3734 H 377.241 -1.82282 3.74049 0
M  V30 3735 H 376.117 -2.79593 4.72355 0
M  V30 3736 H 376.378 -3.21258 3.0372 0
M  V30 3737 N 375.437 -1.54477 -0.31217 0
M  V30 3738 C 376.677 -1.74958 -1.05684 0
M  V30 3739 C 377.041 -0.518414 -1.84869 0
M  V30 3740 O 378.242 -0.600759 -2.62001 0
M  V30 3741 C 376.513 -2.99656 -1.94785 0
M  V30 3742 S 378.072 -3.4109 -2.76049 0
M  V30 3743 H 374.89 -0.615104 -0.356606 0
M  V30 3744 H 377.492 -1.92669 -0.331514 0
M  V30 3745 H 376.196 -3.87397 -1.35468 0
M  V30 3746 H 375.727 -2.845 -2.71704 0
M  V30 3747 H 377.742 -2.97283 -3.97287 0
M  V30 3748 N 376.915 0.57481 -1.46744 0
M  V30 3749 C 377.825 1.711 -1.60505 0
M  V30 3750 C 378.841 1.67008 -0.488307 0
M  V30 3751 O 380.017 1.86774 -0.753495 0
M  V30 3752 C 377.082 3.07608 -1.59932 0
M  V30 3753 C 376.143 3.22904 -2.82898 0
M  V30 3754 C 375.376 4.529 -2.82343 0
M  V30 3755 O 375.599 5.37278 -1.91542 0
M  V30 3756 O 374.533 4.71611 -3.73987 0
M  V30 3757 H 378.359 1.62436 -2.56609 0
M  V30 3758 H 375.944 0.742779 -1.29627 0
M  V30 3759 H 377.826 3.88877 -1.62336 0
M  V30 3760 H 376.501 3.16692 -0.669898 0
M  V30 3761 H 375.408 2.41099 -2.86046 0
M  V30 3762 H 376.741 3.18715 -3.75076 0
M  V30 3763 N 378.394 1.34581 0.820102 0
M  V30 3764 C 379.357 1.2628 1.91275 0
M  V30 3765 C 380.357 0.177344 1.59819 0
M  V30 3766 O 381.547 0.430156 1.68806 0
M  V30 3767 C 378.679 0.950327 3.27386 0
M  V30 3768 H 379.872 2.23421 2.00057 0
M  V30 3769 H 377.425 1.1891 1.0144 0
M  V30 3770 H 378.16 -0.0177938 3.24295 0
M  V30 3771 H 377.945 1.73549 3.51601 0
M  V30 3772 H 379.435 0.917492 4.07396 0
M  V30 3773 N 379.872 -1.04064 1.18357 0
M  V30 3774 C 380.835 -2.10243 0.912707 0
M  V30 3775 C 381.835 -1.60477 -0.101928 0
M  V30 3776 O 383.025 -1.73703 0.131517 0
M  V30 3777 C 380.157 -3.38893 0.369387 0
M  V30 3778 H 381.35 -2.35706 1.85426 0
M  V30 3779 H 378.903 -1.20489 0.995594 0
M  V30 3780 H 379.638 -3.19094 -0.578776 0
M  V30 3781 H 379.423 -3.76331 1.1008 0
M  V30 3782 H 380.913 -4.17128 0.198575 0
M  V30 3783 N 381.35 -0.985608 -1.22978 0
M  V30 3784 C 382.575 -0.675254 -1.961 0
M  V30 3785 C 383 0.752154 -1.72407 0
M  V30 3786 O 382.358 1.5131 -0.998751 0
M  V30 3787 C 382.406 -0.977899 -3.47087 0
M  V30 3788 O 381.51 -0.072685 -4.12336 0
M  V30 3789 H 380.851 -0.253443 -0.613728 0
M  V30 3790 H 383.381 -1.32061 -1.56272 0
M  V30 3791 H 383.391 -0.916739 -3.97567 0
M  V30 3792 H 382.066 -2.01807 -3.63657 0
M  V30 3793 H 380.643 -0.188703 -3.72422 0
M  V30 3794 N 382.828 1.3818 -0.7579 0
M  V30 3795 C 383.791 2.28764 -0.141286 0
M  V30 3796 C 384.791 1.47388 0.642907 0
M  V30 3797 O 385.981 1.67781 0.468536 0
M  V30 3798 C 383.113 3.31184 0.808069 0
M  V30 3799 H 384.306 2.848 -0.939633 0
M  V30 3800 H 381.859 1.47212 -0.525191 0
M  V30 3801 H 382.594 2.80247 1.63193 0
M  V30 3802 H 382.379 3.91314 0.248104 0
M  V30 3803 H 383.869 3.98909 1.23536 0
M  V30 3804 N 384.306 0.507319 1.49211 0
M  V30 3805 C 385.554 -0.0348839 2.0207 0
M  V30 3806 C 385.875 -1.36898 1.38866 0
M  V30 3807 O 385.145 -1.88133 0.546151 0
M  V30 3808 H 383.725 -0.0158812 0.746831 0
M  V30 3809 H 386.387 0.665998 1.83168 0
M  V30 3810 H 385.483 -0.159917 3.1169 0
M  V30 3811 N 385.784 -1.5574 0.241426 0
M  V30 3812 C 386.714 -2.24133 -0.654722 0
M  V30 3813 C 387.695 -1.21974 -1.1856 0
M  V30 3814 O 388.88 -1.50612 -1.22595 0
M  V30 3815 C 386.01 -2.93659 -1.85423 0
M  V30 3816 C 384.964 -4.0246 -1.45636 0
M  V30 3817 C 384.29 -4.59383 -2.73626 0
M  V30 3818 C 385.59 -5.18468 -0.631506 0
M  V30 3819 H 387.284 -2.99281 -0.0844353 0
M  V30 3820 H 384.83 -1.43947 -0.0391707 0
M  V30 3821 H 386.783 -3.40203 -2.48676 0
M  V30 3822 H 385.507 -2.15991 -2.44981 0
M  V30 3823 H 384.166 -3.56676 -0.847202 0
M  V30 3824 H 383.814 -3.78422 -3.3137 0
M  V30 3825 H 383.514 -5.32826 -2.4773 0
M  V30 3826 H 385.038 -5.08658 -3.37786 0
M  V30 3827 H 386.452 -5.61272 -1.1682 0
M  V30 3828 H 384.849 -5.98266 -0.468831 0
M  V30 3829 H 385.919 -4.8358 0.357506 0
M  V30 3830 N 387.262 0.0317525 -1.57568 0
M  V30 3831 C 388.192 1.03274 -2.0942 0
M  V30 3832 C 389.173 1.3788 -0.996143 0
M  V30 3833 O 390.358 1.46811 -1.27122 0
M  V30 3834 C 387.488 2.33448 -2.57137 0
M  V30 3835 C 386.442 2.13091 -3.71182 0
M  V30 3836 C 385.768 3.49001 -4.05095 0
M  V30 3837 C 387.068 1.51928 -4.99715 0
M  V30 3838 H 388.762 0.60112 -2.93303 0
M  V30 3839 H 386.308 0.287705 -1.41097 0
M  V30 3840 H 388.261 3.03802 -2.92032 0
M  V30 3841 H 386.985 2.78665 -1.70333 0
M  V30 3842 H 385.644 1.45171 -3.36632 0
M  V30 3843 H 385.292 3.91862 -3.15362 0
M  V30 3844 H 384.992 3.36207 -4.81911 0
M  V30 3845 H 386.516 4.20721 -4.42522 0
M  V30 3846 H 387.93 2.12196 -5.32584 0
M  V30 3847 H 386.327 1.49716 -5.81124 0
M  V30 3848 H 387.397 0.484811 -4.8247 0
M  V30 3849 N 388.74 1.54641 0.303973 0
M  V30 3850 C 389.687 1.85386 1.37479 0
M  V30 3851 C 390.657 0.702528 1.50512 0
M  V30 3852 O 391.842 0.950867 1.65418 0
M  V30 3853 C 388.982 2.10413 2.73533 0
M  V30 3854 C 388.095 3.38049 2.68974 0
M  V30 3855 C 387.23 3.52934 3.97002 0
M  V30 3856 C 386.269 4.74373 3.86829 0
M  V30 3857 N 385.406 4.8608 5.06627 0
M  V30 3858 H 390.246 2.76732 1.1056 0
M  V30 3859 H 387.783 1.37034 0.534805 0
M  V30 3860 H 389.741 2.22919 3.52652 0
M  V30 3861 H 388.371 1.22338 2.98719 0
M  V30 3862 H 387.423 3.3418 1.81736 0
M  V30 3863 H 388.735 4.27288 2.57346 0
M  V30 3864 H 387.889 3.65088 4.84557 0
M  V30 3865 H 386.628 2.61824 4.1146 0
M  V30 3866 H 385.633 4.62255 2.97658 0
M  V30 3867 H 386.858 5.66888 3.73918 0
M  V30 3868 H 384.804 3.97891 5.21554 0
M  V30 3869 H 384.721 5.69315 4.9741 0
M  V30 3870 H 385.989 5.02587 5.95841 0
M  V30 3871 N 390.218 -0.567019 1.47046 0
M  V30 3872 C 391.446 -1.35027 1.56765 0
M  V30 3873 C 391.861 -1.8758 0.214316 0
M  V30 3874 O 391.218 -1.64471 -0.790919 0
M  V30 3875 C 391.269 -2.52698 2.58507 0
M  V30 3876 O 390.99 -2.0232 3.88585 0
M  V30 3877 C 392.491 -3.45043 2.78316 0
M  V30 3878 H 389.711 -0.41195 0.529658 0
M  V30 3879 H 392.255 -0.687832 1.92585 0
M  V30 3880 H 390.41 -3.149 2.25648 0
M  V30 3881 H 390.824 -2.79068 4.44096 0
M  V30 3882 H 392.298 -4.2405 3.53391 0
M  V30 3883 H 392.775 -3.97971 1.85784 0
M  V30 3884 H 393.381 -2.88665 3.12334 0
M  V30 3885 N 391.696 -1.35014 -0.812953 0
M  V30 3886 C 392.626 -1.30069 -1.93919 0
M  V30 3887 C 393.607 -0.176275 -1.69184 0
M  V30 3888 O 394.792 -0.370227 -1.90638 0
M  V30 3889 C 391.922 -1.06547 -3.30552 0
M  V30 3890 C 390.876 -2.15561 -3.69753 0
M  V30 3891 C 390.202 -1.77214 -5.04479 0
M  V30 3892 C 391.502 -3.57476 -3.808 0
M  V30 3893 H 393.196 -2.24303 -1.98314 0
M  V30 3894 H 390.742 -1.07977 -0.952736 0
M  V30 3895 H 392.695 -1.01729 -4.08937 0
M  V30 3896 H 391.419 -0.0875719 -3.26483 0
M  V30 3897 H 390.078 -2.19466 -2.9365 0
M  V30 3898 H 389.726 -0.780589 -4.96906 0
M  V30 3899 H 389.426 -2.50184 -5.31678 0
M  V30 3900 H 390.95 -1.7391 -5.8531 0
M  V30 3901 H 392.364 -3.55929 -4.4943 0
M  V30 3902 H 390.761 -4.29152 -4.19462 0
M  V30 3903 H 391.831 -3.94091 -2.82525 0
M  V30 3904 N 393.175 1.03435 -1.18907 0
M  V30 3905 C 394.591 1.28973 -0.940111 0
M  V30 3906 C 394.791 1.97676 0.390691 0
M  V30 3907 O 393.847 2.26127 1.12352 0
M  V30 3908 C 395.16 2.14221 -2.11021 0
M  V30 3909 C 396.708 2.27547 -2.14922 0
M  V30 3910 C 397.183 3.16164 -3.31367 0
M  V30 3911 N 398.674 3.23752 -3.31269 0
M  V30 3912 C 399.409 3.92495 -4.18014 0
M  V30 3913 N 398.905 4.63515 -5.14904 0
M  V30 3914 N 400.698 3.88838 -4.05908 0
M  V30 3915 H 392.849 0.57252 -2.04538 0
M  V30 3916 H 395.112 0.315184 -0.894071 0
M  V30 3917 H 394.818 1.71054 -3.073 0
M  V30 3918 H 394.692 3.14919 -2.0762 0
M  V30 3919 H 397.079 2.69947 -1.19217 0
M  V30 3920 H 397.16 1.26418 -2.22378 0
M  V30 3921 H 396.804 2.74474 -4.27348 0
M  V30 3922 H 396.734 4.17339 -3.21148 0
M  V30 3923 H 399.225 2.73167 -2.61129 0
M  V30 3924 H 399.538 5.13583 -5.77453 0
M  V30 3925 H 397.883 4.62398 -5.18857 0
M  V30 3926 H 401.074 3.32491 -3.29495 0
M  V30 3927 H 401.247 4.4214 -4.73726 0
M  V30 3928 N 394.653 0.992116 1.22453 0
M  V30 3929 C 395.9 0.667534 1.91181 0
M  V30 3930 C 396.228 -0.800317 1.77271 0
M  V30 3931 O 395.483 -1.59421 1.13505 0
M  V30 3932 C 395.782 1.01832 3.42586 0
M  V30 3933 C 395.448 2.47831 3.76684 0
M  V30 3934 C 394.11 2.87729 3.85701 0
M  V30 3935 C 396.462 3.42466 3.92895 0
M  V30 3936 C 393.79 4.21252 4.08367 0
M  V30 3937 C 396.142 4.75648 4.17064 0
M  V30 3938 C 394.806 5.15288 4.24305 0
M  V30 3939 H 394.076 0.244268 0.699581 0
M  V30 3940 H 396.723 1.24816 1.45235 0
M  V30 3941 H 395.028 0.355769 3.90181 0
M  V30 3942 H 396.725 0.745228 3.94014 0
M  V30 3943 H 393.315 2.15905 3.70247 0
M  V30 3944 H 397.499 3.12814 3.85307 0
M  V30 3945 H 392.755 4.51554 4.122 0
M  V30 3946 H 396.929 5.48924 4.2855 0
M  V30 3947 H 394.556 6.18769 4.41621 0
M  V30 3948 N 396.131 -1.37776 0.765217 0
M  V30 3949 C 397.377 -2.00145 0.327072 0
M  V30 3950 C 397.71 -1.60607 -1.09175 0
M  V30 3951 O 396.985 -0.849127 -1.74986 0
M  V30 3952 C 397.268 -3.57109 0.46319 0
M  V30 3953 C 397.121 -4.06576 1.92395 0
M  V30 3954 C 398.44 -4.39888 -0.136473 0
M  V30 3955 H 395.559 -0.727113 0.120316 0
M  V30 3956 H 398.201 -1.63549 0.967039 0
M  V30 3957 H 396.351 -3.88414 -0.0816358 0
M  V30 3958 H 398.023 -3.85864 2.52798 0
M  V30 3959 H 396.266 -3.59011 2.43503 0
M  V30 3960 H 396.937 -5.15639 1.97028 0
M  V30 3961 H 399.413 -4.14803 0.328317 0
M  V30 3962 H 398.289 -5.48899 -0.0110582 0
M  V30 3963 H 398.55 -4.24758 -1.22608 0
M  V30 3964 N 397.609 -0.515225 -1.4894 0
M  V30 3965 C 398.556 0.255567 -2.29381 0
M  V30 3966 C 399.526 0.947387 -1.36432 0
M  V30 3967 O 400.711 0.951288 -1.65394 0
M  V30 3968 C 397.851 1.30551 -3.19453 0
M  V30 3969 C 396.964 0.624029 -4.27469 0
M  V30 3970 C 396.099 1.65563 -5.0474 0
M  V30 3971 C 395.138 0.956802 -6.04576 0
M  V30 3972 N 394.275 1.93326 -6.74959 0
M  V30 3973 H 399.115 -0.436607 -2.94784 0
M  V30 3974 H 396.652 -0.227154 -1.45336 0
M  V30 3975 H 398.61 1.92639 -3.70062 0
M  V30 3976 H 397.24 1.96626 -2.56004 0
M  V30 3977 H 396.292 -0.110459 -3.8024 0
M  V30 3978 H 397.604 0.0746092 -4.98744 0
M  V30 3979 H 396.758 2.35119 -5.59289 0
M  V30 3980 H 395.497 2.23893 -4.3327 0
M  V30 3981 H 394.502 0.247097 -5.49244 0
M  V30 3982 H 395.727 0.379814 -6.78037 0
M  V30 3983 H 393.673 2.50591 -6.06251 0
M  V30 3984 H 393.59 1.43489 -7.42258 0
M  V30 3985 H 394.858 2.62126 -7.34105 0
M  V30 3986 N 399.087 1.5561 -0.249682 0
M  V30 3987 C 400.317 2.03116 0.377803 0
M  V30 3988 C 400.725 1.12822 1.51881 0
M  V30 3989 O 400.068 0.13562 1.83199 0
M  V30 3990 C 400.13 3.46866 0.944693 0
M  V30 3991 C 399.794 4.56955 -0.0644259 0
M  V30 3992 C 400.791 5.12485 -0.874957 0
M  V30 3993 C 398.476 5.01936 -0.19132 0
M  V30 3994 C 400.47 6.11491 -1.79881 0
M  V30 3995 C 398.157 6.00773 -1.11868 0
M  V30 3996 C 399.155 6.5543 -1.92095 0
M  V30 3997 O 398.843 7.5234 -2.83267 0
M  V30 3998 H 398.575 0.669489 0.0935961 0
M  V30 3999 H 401.129 2.02004 -0.371966 0
M  V30 4000 H 399.359 3.45136 1.74407 0
M  V30 4001 H 401.048 3.77856 1.48255 0
M  V30 4002 H 401.814 4.78564 -0.787523 0
M  V30 4003 H 397.693 4.59055 0.423072 0
M  V30 4004 H 401.237 6.54078 -2.42543 0
M  V30 4005 H 397.134 6.34114 -1.20703 0
M  V30 4006 H 397.902 7.69966 -2.7766 0
M  V30 4007 N 400.565 -0.0233959 1.57583 0
M  V30 4008 C 401.495 -1.02162 2.09965 0
M  V30 4009 C 402.476 -1.3735 1.00344 0
M  V30 4010 O 403.661 -1.46135 1.27899 0
M  V30 4011 C 400.791 -2.32081 2.58371 0
M  V30 4012 C 399.745 -2.1112 3.72307 0
M  V30 4013 C 399.071 -3.46848 4.06941 0
M  V30 4014 C 400.371 -1.49276 5.00514 0
M  V30 4015 H 402.065 -0.585557 2.93618 0
M  V30 4016 H 399.611 -0.280218 1.41247 0
M  V30 4017 H 401.564 -3.02249 2.93639 0
M  V30 4018 H 400.288 -2.77758 1.71808 0
M  V30 4019 H 398.947 -1.43384 3.37397 0
M  V30 4020 H 398.595 -3.90184 3.17436 0
M  V30 4021 H 398.295 -3.33646 4.83688 0
M  V30 4022 H 399.819 -4.18369 4.44747 0
M  V30 4023 H 401.233 -2.09368 5.33702 0
M  V30 4024 H 399.63 -1.46632 5.8191 0
M  V30 4025 H 400.7 -0.459217 4.82721 0
M  V30 4026 N 402.043 -1.548 -0.295768 0
M  V30 4027 C 403.454 -1.65274 -0.868411 0
M  V30 4028 C 403.805 -0.56481 -1.87894 0
M  V30 4029 O 402.93 0.29767 -2.14343 0
M  V30 4030 C 403.525 -2.99603 -1.58188 0
M  V30 4031 C 402.084 -3.12181 -2.10286 0
M  V30 4032 C 401.231 -2.6098 -0.93727 0
M  V30 4033 H 404.182 -1.58534 -0.0726422 0
M  V30 4034 H 404.203 -2.91319 -2.44772 0
M  V30 4035 H 403.715 -3.78764 -0.846151 0
M  V30 4036 H 401.816 -2.3775 -2.8689 0
M  V30 4037 H 401.929 -4.18415 -2.33379 0
M  V30 4038 H 400.293 -2.17564 -1.32431 0
M  V30 4039 H 401.076 -3.42623 -0.215414 0
M  V30 4040 N 403.521 0.559213 -1.47345 0
M  V30 4041 C 404.761 1.32728 -1.55444 0
M  V30 4042 C 405.125 1.90838 -0.210895 0
M  V30 4043 O 406.326 2.68282 -0.166719 0
M  V30 4044 C 404.597 2.4092 -2.63993 0
M  V30 4045 S 406.156 3.2784 -2.91661 0
M  V30 4046 H 402.974 0.451883 -0.548929 0
M  V30 4047 H 405.576 0.640404 -1.84714 0
M  V30 4048 H 404.28 1.9666 -3.60212 0
M  V30 4049 H 403.811 3.14351 -2.36531 0
M  V30 4050 H 405.826 4.40341 -2.28722 0
M  V30 4051 N 404.999 1.35443 0.805782 0
M  V30 4052 C 406.246 1.28761 1.56291 0
M  V30 4053 C 406.574 -0.137747 1.94012 0
M  V30 4054 O 405.829 -1.1032 1.61642 0
M  V30 4055 C 406.128 2.14045 2.86216 0
M  V30 4056 C 405.794 3.62826 2.67709 0
M  V30 4057 C 404.456 4.0338 2.6237 0
M  V30 4058 C 406.808 4.57227 2.50186 0
M  V30 4059 C 404.136 5.36501 2.37451 0
M  V30 4060 C 406.488 5.90547 2.26797 0
M  V30 4061 C 405.152 6.30245 2.1988 0
M  V30 4062 H 404.422 0.471171 0.571908 0
M  V30 4063 H 407.069 1.67347 0.930974 0
M  V30 4064 H 405.374 1.68342 3.53791 0
M  V30 4065 H 407.071 2.0621 3.43917 0
M  V30 4066 H 403.661 3.30644 2.72713 0
M  V30 4067 H 407.845 4.2678 2.53323 0
M  V30 4068 H 403.101 5.66259 2.30567 0
M  V30 4069 H 407.275 6.63274 2.12228 0
M  V30 4070 H 404.902 7.33328 2.00333 0
M  V30 4071 N 406.477 -1.02803 1.19454 0
M  V30 4072 C 407.409 -2.11181 0.890807 0
M  V30 4073 C 408.422 -1.6238 -0.116829 0
M  V30 4074 O 409.611 -1.78144 0.112694 0
M  V30 4075 C 406.711 -3.37461 0.311942 0
M  V30 4076 C 405.884 -4.15446 1.36834 0
M  V30 4077 C 404.943 -5.20039 0.802864 0
M  V30 4078 O 403.969 -5.49602 1.48077 0
M  V30 4079 N 405.171 -5.79165 -0.393417 0
M  V30 4080 H 407.936 -2.37827 1.82369 0
M  V30 4081 H 405.497 -1.19101 1.09666 0
M  V30 4082 H 407.489 -4.0462 -0.0802225 0
M  V30 4083 H 406.059 -3.08156 -0.52524 0
M  V30 4084 H 405.279 -3.43423 1.93531 0
M  V30 4085 H 406.567 -4.64335 2.08015 0
M  V30 4086 H 405.965 -5.57466 -0.961658 0
M  V30 4087 H 404.522 -6.47729 -0.727351 0
M  V30 4088 N 407.956 -0.998596 -1.21925 0
M  V30 4089 C 409.202 -0.678667 -1.91107 0
M  V30 4090 C 409.535 0.78791 -1.77498 0
M  V30 4091 O 408.81 1.57043 -1.1475 0
M  V30 4092 C 409.093 -1.09245 -3.43129 0
M  V30 4093 C 408.946 -2.61801 -3.6576 0
M  V30 4094 C 410.265 -0.649984 -4.35274 0
M  V30 4095 H 407.384 -0.248025 -0.694012 0
M  V30 4096 H 410.026 -1.24314 -1.43688 0
M  V30 4097 H 408.176 -0.612171 -3.83647 0
M  V30 4098 H 409.848 -3.17543 -3.34611 0
M  V30 4099 H 408.091 -3.03609 -3.09845 0
M  V30 4100 H 408.762 -2.85804 -4.7225 0
M  V30 4101 H 411.238 -1.0626 -4.02303 0
M  V30 4102 H 410.114 -0.967743 -5.40302 0
M  V30 4103 H 410.375 0.449139 -4.39813 0
M  V30 4104 N 409.434 1.37368 -0.772513 0
M  V30 4105 C 410.364 2.32856 -0.173304 0
M  V30 4106 C 411.345 1.55818 0.682262 0
M  V30 4107 O 412.53 1.84052 0.619566 0
M  V30 4108 C 409.66 3.40048 0.706007 0
M  V30 4109 C 408.614 4.27973 -0.0483144 0
M  V30 4110 C 407.94 5.26184 0.950491 0
M  V30 4111 C 409.24 5.07665 -1.22776 0
M  V30 4112 H 410.934 2.83217 -0.971002 0
M  V30 4113 H 408.48 1.3617 -0.468377 0
M  V30 4114 H 410.433 4.05827 1.13501 0
M  V30 4115 H 409.157 2.88214 1.53623 0
M  V30 4116 H 407.816 3.63726 -0.458107 0
M  V30 4117 H 407.464 4.7063 1.77529 0
M  V30 4118 H 407.164 5.85872 0.450314 0
M  V30 4119 H 408.688 5.94838 1.37842 0
M  V30 4120 H 410.102 5.66578 -0.875366 0
M  V30 4121 H 408.499 5.76681 -1.66007 0
M  V30 4122 H 409.569 4.40294 -2.03149 0
M  V30 4123 N 410.912 0.523116 1.48665 0
M  V30 4124 C 412.323 0.0808997 1.86525 0
M  V30 4125 C 412.674 -1.33975 1.43336 0
M  V30 4126 O 411.799 -2.00221 0.821009 0
M  V30 4127 C 412.394 0.140037 3.3851 0
M  V30 4128 C 410.953 -0.246948 3.75589 0
M  V30 4129 C 410.1 0.502845 2.72703 0
M  V30 4130 H 413.051 0.734736 1.40667 0
M  V30 4131 H 413.072 -0.649945 3.74908 0
M  V30 4132 H 412.584 1.17412 3.69914 0
M  V30 4133 H 410.685 -1.28343 3.49798 0
M  V30 4134 H 410.798 0.0878859 4.79019 0
M  V30 4135 H 409.162 -0.0500581 2.54651 0
M  V30 4136 H 409.945 1.53743 3.0695 0
M  V30 4137 N 412.39 -1.55475 0.257931 0
M  V30 4138 C 413.32 -2.24815 -0.630912 0
M  V30 4139 C 414.301 -1.23224 -1.17259 0
M  V30 4140 O 415.486 -1.51904 -1.20991 0
M  V30 4141 C 412.616 -2.95609 -1.82298 0
M  V30 4142 C 411.57 -4.03982 -1.41359 0
M  V30 4143 C 410.896 -4.6226 -2.68738 0
M  V30 4144 C 412.196 -5.19109 -0.57648 0
M  V30 4145 H 413.89 -2.99354 -0.0526878 0
M  V30 4146 H 411.436 -1.4398 -0.023901 0
M  V30 4147 H 413.389 -3.42822 -2.45054 0
M  V30 4148 H 412.113 -2.18577 -2.42676 0
M  V30 4149 H 410.772 -3.57555 -0.809324 0
M  V30 4150 H 410.42 -3.81915 -3.27338 0
M  V30 4151 H 410.12 -5.35424 -2.42065 0
M  V30 4152 H 411.644 -5.12212 -3.32372 0
M  V30 4153 H 413.058 -5.62479 -1.10861 0
M  V30 4154 H 411.455 -5.98729 -0.405351 0
M  V30 4155 H 412.525 -4.83174 0.408776 0
M  V30 4156 N 413.868 0.0150385 -1.57593 0
M  V30 4157 C 415.145 0.7392 -1.81094 0
M  V30 4158 C 415.525 1.92817 -0.859344 0
M  V30 4159 O 414.873 2.28301 0.095362 0
M  V30 4160 C 415.083 1.15907 -3.29191 0
M  V30 4161 C 416.431 1.56918 -3.9454 0
M  V30 4162 O 417.455 1.25328 -3.33424 0
M  V30 4163 O 416.314 2.15604 -5.02173 0
M  V30 4164 H 413.408 0.358631 -0.745193 0
M  V30 4165 H 415.954 -0.00926156 -1.69697 0
M  V30 4166 H 414.726 0.310921 -3.90063 0
M  V30 4167 H 414.349 1.96711 -3.45529 0
M  V30 4168 N 415.346 1.54954 0.287554 0
M  V30 4169 C 416.278 1.83224 1.37701 0
M  V30 4170 C 417.291 0.715898 1.46215 0
M  V30 4171 O 418.48 0.993565 1.48292 0
M  V30 4172 C 415.58 1.96723 2.75959 0
M  V30 4173 C 414.753 3.27253 2.90215 0
M  V30 4174 C 413.812 3.30998 4.09056 0
M  V30 4175 O 412.838 4.04457 4.00503 0
M  V30 4176 N 414.04 2.57353 5.20336 0
M  V30 4177 H 416.805 2.77254 1.138 0
M  V30 4178 H 414.366 1.54694 0.477652 0
M  V30 4179 H 416.358 1.96615 3.5373 0
M  V30 4180 H 414.928 1.09626 2.92747 0
M  V30 4181 H 414.148 3.40022 1.99447 0
M  V30 4182 H 415.436 4.13365 2.96659 0
M  V30 4183 H 414.834 1.97327 5.30169 0
M  V30 4184 H 413.391 2.62984 5.96391 0
M  V30 4185 N 416.824 -0.551391 1.4764 0
M  V30 4186 C 417.756 -1.67333 1.56628 0
M  V30 4187 C 418.769 -1.56398 0.452045 0
M  V30 4188 O 419.958 -1.6325 0.721926 0
M  V30 4189 C 417.058 -3.05841 1.45994 0
M  V30 4190 C 416.231 -3.42472 2.72088 0
M  V30 4191 C 415.29 -4.60168 2.55209 0
M  V30 4192 O 414.316 -4.64458 3.2904 0
M  V30 4193 N 415.518 -5.57024 1.63416 0
M  V30 4194 H 418.283 -1.60066 2.53375 0
M  V30 4195 H 415.844 -0.738169 1.44093 0
M  V30 4196 H 417.836 -3.8242 1.32428 0
M  V30 4197 H 416.406 -3.07302 0.573071 0
M  V30 4198 H 415.626 -2.55284 3.00373 0
M  V30 4199 H 416.914 -3.63723 3.55785 0
M  V30 4200 H 416.312 -5.56319 1.02594 0
M  V30 4201 H 414.869 -6.32906 1.558 0
M  V30 4202 N 418.302 -1.35869 -0.798587 0
M  V30 4203 C 419.232 -1.32118 -1.92528 0
M  V30 4204 C 420.213 -0.194209 -1.68988 0
M  V30 4205 O 421.398 -0.390426 -1.90235 0
M  V30 4206 C 418.528 -1.10047 -3.29404 0
M  V30 4207 C 417.482 -2.19471 -3.67446 0
M  V30 4208 C 416.808 -1.82555 -5.02571 0
M  V30 4209 C 418.108 -3.61495 -3.76987 0
M  V30 4210 H 419.802 -2.26394 -1.95924 0
M  V30 4211 H 417.348 -1.08981 -0.94123 0
M  V30 4212 H 419.301 -1.06061 -4.07835 0
M  V30 4213 H 418.025 -0.122195 -3.26371 0
M  V30 4214 H 416.684 -2.22568 -2.91306 0
M  V30 4215 H 416.332 -0.833249 -4.9605 0
M  V30 4216 H 416.032 -2.5581 -5.28995 0
M  V30 4217 H 417.556 -1.80108 -5.83432 0
M  V30 4218 H 418.97 -3.60676 -4.4563 0
M  V30 4219 H 417.367 -4.33577 -4.14887 0
M  V30 4220 H 418.437 -3.97065 -2.78329 0
M  V30 4221 N 419.78 1.02168 -1.19998 0
M  V30 4222 C 421.026 1.75945 -1.00852 0
M  V30 4223 C 421.359 1.88702 0.458828 0
M  V30 4224 O 420.634 1.40911 1.34069 0
M  V30 4225 C 420.917 3.18154 -1.68671 0
M  V30 4226 C 420.77 3.13224 -3.22817 0
M  V30 4227 C 422.089 4.16711 -1.41561 0
M  V30 4228 H 419.208 0.638673 -0.367785 0
M  V30 4229 H 421.85 1.19222 -1.4794 0
M  V30 4230 H 420 3.66586 -1.28636 0
M  V30 4231 H 421.672 2.72635 -3.72112 0
M  V30 4232 H 419.915 2.50751 -3.53986 0
M  V30 4233 H 420.586 4.13728 -3.65422 0
M  V30 4234 H 423.062 3.76913 -1.76284 0
M  V30 4235 H 421.938 5.14391 -1.91553 0
M  V30 4236 H 422.199 4.40774 -0.342193 0
M  V30 4237 N 421.258 1.00505 1.21394 0
M  V30 4238 C 422.188 0.585684 2.26035 0
M  V30 4239 C 423.169 -0.393525 1.65485 0
M  V30 4240 O 424.354 -0.281497 1.92149 0
M  V30 4241 C 421.484 -0.0884283 3.47187 0
M  V30 4242 C 420.438 0.810567 4.20254 0
M  V30 4243 C 419.764 0.00286382 5.347 0
M  V30 4244 C 421.064 2.1132 4.77641 0
M  V30 4245 H 422.758 1.46039 2.61368 0
M  V30 4246 H 420.304 0.703648 1.25638 0
M  V30 4247 H 422.257 -0.393286 4.19561 0
M  V30 4248 H 420.981 -0.997766 3.10986 0
M  V30 4249 H 419.64 1.09925 3.49731 0
M  V30 4250 H 419.288 -0.907765 4.94741 0
M  V30 4251 H 418.988 0.601444 5.84514 0
M  V30 4252 H 420.512 -0.295808 6.09883 0
M  V30 4253 H 421.926 1.87148 5.41893 0
M  V30 4254 H 420.323 2.66164 5.37845 0
M  V30 4255 H 421.393 2.78393 3.9702 0
M  V30 4256 N 422.737 -1.36956 0.779787 0
M  V30 4257 C 423.983 -1.99787 0.348281 0
M  V30 4258 C 424.316 -1.61756 -1.07465 0
M  V30 4259 O 423.591 -0.867639 -1.74075 0
M  V30 4260 C 423.874 -3.56597 0.50104 0
M  V30 4261 C 423.727 -4.04513 1.96697 0
M  V30 4262 C 425.046 -4.40008 -0.0898097 0
M  V30 4263 H 422.165 -0.725796 0.128022 0
M  V30 4264 H 424.807 -1.62514 0.984331 0
M  V30 4265 H 422.957 -3.88479 -0.0404347 0
M  V30 4266 H 424.629 -3.83161 2.56876 0
M  V30 4267 H 422.872 -3.56408 2.47297 0
M  V30 4268 H 423.543 -5.1352 2.02486 0
M  V30 4269 H 426.019 -4.14431 0.372293 0
M  V30 4270 H 424.895 -5.4888 0.0471605 0
M  V30 4271 H 425.156 -4.26035 -1.18096 0
M  V30 4272 N 424.215 -0.530993 -1.48385 0
M  V30 4273 C 425.631 -0.188919 -1.58478 0
M  V30 4274 C 425.831 1.30786 -1.53288 0
M  V30 4275 O 424.887 2.08619 -1.42248 0
M  V30 4276 C 426.2 -0.792343 -2.90073 0
M  V30 4277 C 427.748 -0.76117 -3.03604 0
M  V30 4278 C 428.223 -1.34319 -4.37861 0
M  V30 4279 N 429.714 -1.3052 -4.44431 0
M  V30 4280 C 430.449 -1.72543 -5.46824 0
M  V30 4281 N 429.945 -2.22299 -6.56167 0
M  V30 4282 N 431.738 -1.63773 -5.37712 0
M  V30 4283 H 423.889 -1.50377 -1.50002 0
M  V30 4284 H 426.152 -0.625559 -0.712306 0
M  V30 4285 H 425.858 -1.84323 -2.99529 0
M  V30 4286 H 425.732 -0.270026 -3.76232 0
M  V30 4287 H 428.119 0.280957 -2.93759 0
M  V30 4288 H 428.2 -1.32097 -2.19053 0
M  V30 4289 H 427.844 -2.38425 -4.4846 0
M  V30 4290 H 427.774 -0.759064 -5.21101 0
M  V30 4291 H 430.265 -0.940973 -3.65997 0
M  V30 4292 H 430.578 -2.52356 -7.30436 0
M  V30 4293 H 428.923 -2.26293 -6.57127 0
M  V30 4294 H 432.114 -1.24698 -4.51185 0
M  V30 4295 H 432.287 -1.96844 -6.17379 0
M  V30 4296 N 425.693 1.55336 -0.266172 0
M  V30 4297 C 426.641 2.23587 0.641228 0
M  V30 4298 C 427.635 1.22986 1.16494 0
M  V30 4299 O 428.841 1.40943 1.1196 0
M  V30 4300 H 425.216 0.717452 0.225315 0
M  V30 4301 H 427.187 2.9837 0.0426561 0
M  V30 4302 C 425.936 2.96369 1.81826 0
M  V30 4303 H 425.259 3.73563 1.42445 0
M  V30 4304 H 426.699 3.47459 2.42998 0
M  V30 4305 C 425.158 2.0133 2.70125 0
M  V30 4306 O 425.688 1.55875 3.70224 0
M  V30 4307 N 423.894 1.6802 2.37102 0
M  V30 4308 H 423.441 2.05181 1.55751 0
M  V30 4309 H 423.399 1.047 2.96454 0
M  V30 4310 N 427.171 -0.0066808 1.57599 0
M  V30 4311 C 428.411 -0.697501 1.92131 0
M  V30 4312 C 428.775 -1.71306 0.867071 0
M  V30 4313 O 429.976 -2.45377 1.09743 0
M  V30 4314 C 428.247 -1.32978 3.3174 0
M  V30 4315 S 429.806 -2.04665 3.88146 0
M  V30 4316 H 426.624 -0.230555 0.672581 0
M  V30 4317 H 429.226 0.0484026 1.9544 0
M  V30 4318 H 427.93 -0.57772 4.06313 0
M  V30 4319 H 427.461 -2.11376 3.31789 0
M  V30 4320 H 429.476 -3.32097 3.68682 0
M  V30 4321 N 428.649 -1.55105 -0.279332 0
M  V30 4322 C 429.895 -1.76597 -1.00921 0
M  V30 4323 C 430.25 -0.556831 -1.84166 0
M  V30 4324 O 429.543 0.450573 -1.86227 0
M  V30 4325 C 429.737 -3.0086 -1.92919 0
M  V30 4326 C 429.566 -4.33744 -1.18728 0
M  V30 4327 C 428.336 -4.9712 -0.905545 0
M  V30 4328 C 430.534 -5.11009 -0.580857 0
M  V30 4329 N 428.516 -6.13749 -0.136169 0
M  V30 4330 C 429.887 -6.19976 0.0546661 0
M  V30 4331 C 431.942 -4.95502 -0.488067 0
M  V30 4332 C 430.645 -7.15123 0.774028 0
M  V30 4333 C 432.671 -5.90999 0.217688 0
M  V30 4334 C 432.033 -6.9935 0.841975 0
M  V30 4335 H 428.132 -0.698553 -0.351493 0
M  V30 4336 H 430.716 -1.92595 -0.285531 0
M  V30 4337 H 428.887 -2.86249 -2.62519 0
M  V30 4338 H 430.619 -3.10784 -2.59221 0
M  V30 4339 H 427.374 -4.57903 -1.20921 0
M  V30 4340 H 427.798 -6.7659 0.235665 0
M  V30 4341 H 432.44 -4.11841 -0.956406 0
M  V30 4342 H 430.158 -7.9831 1.25407 0
M  V30 4343 H 433.744 -5.81078 0.289717 0
M  V30 4344 H 432.624 -7.71973 1.37939 0
M  V30 4345 N 430.127 0.543554 -1.4793 0
M  V30 4346 C 431.09 1.63156 -1.60975 0
M  V30 4347 C 432.09 1.53346 -0.483899 0
M  V30 4348 O 433.28 1.5726 -0.749339 0
M  V30 4349 C 430.412 3.02743 -1.56716 0
M  V30 4350 H 431.605 1.52934 -2.57975 0
M  V30 4351 H 429.158 0.764557 -1.36324 0
M  V30 4352 H 429.893 3.18484 -0.611418 0
M  V30 4353 H 429.678 3.11272 -2.38438 0
M  V30 4354 H 431.168 3.81871 -1.6901 0
M  V30 4355 N 431.605 1.3629 0.791371 0
M  V30 4356 C 432.83 1.33726 1.58531 0
M  V30 4357 C 433.255 -0.0794933 1.87932 0
M  V30 4358 O 432.613 -1.05087 1.47738 0
M  V30 4359 C 432.661 2.16425 2.88431 0
M  V30 4360 O 431.765 1.5554 3.81944 0
M  V30 4361 H 431.106 0.457793 0.480959 0
M  V30 4362 H 433.636 1.79547 0.981031 0
M  V30 4363 H 433.646 2.28933 3.37718 0
M  V30 4364 H 432.321 3.19415 2.66359 0
M  V30 4365 H 430.898 1.51961 3.40532 0
M  V30 4366 N 433.083 -1.0153 1.20538 0
M  V30 4367 C 434.013 -2.11972 0.979295 0
M  V30 4368 C 434.994 -1.6985 -0.0921787 0
M  V30 4369 O 436.179 -1.94089 0.0655932 0
M  V30 4370 C 433.309 -3.43201 0.531984 0
M  V30 4371 C 432.263 -3.9907 1.54685 0
M  V30 4372 C 431.589 -5.26082 0.956127 0
M  V30 4373 C 432.889 -4.32313 2.93092 0
M  V30 4374 H 434.583 -2.31143 1.90298 0
M  V30 4375 H 432.129 -1.11079 0.916372 0
M  V30 4376 H 434.082 -4.1985 0.361044 0
M  V30 4377 H 432.806 -3.23792 -0.427327 0
M  V30 4378 H 431.465 -3.2453 1.70517 0
M  V30 4379 H 431.113 -5.02999 -0.0111538 0
M  V30 4380 H 430.813 -5.64426 1.63393 0
M  V30 4381 H 432.337 -6.05386 0.796284 0
M  V30 4382 H 433.751 -4.99845 2.80763 0
M  V30 4383 H 432.148 -4.81774 3.57791 0
M  V30 4384 H 433.218 -3.41025 3.44717 0
M  V30 4385 N 434.561 -1.01147 -1.20859 0
M  V30 4386 C 435.491 -0.597663 -2.25722 0
M  V30 4387 C 436.472 0.384744 -1.65692 0
M  V30 4388 O 437.657 0.271303 -1.92296 0
M  V30 4389 C 434.787 0.0700149 -3.47229 0
M  V30 4390 C 433.741 -0.832843 -4.19819 0
M  V30 4391 C 433.067 -0.0312202 -5.34691 0
M  V30 4392 C 434.367 -2.1385 -4.76514 0
M  V30 4393 H 436.061 -1.47423 -2.60589 0
M  V30 4394 H 433.607 -0.710301 -1.25263 0
M  V30 4395 H 435.56 0.37103 -4.19763 0
M  V30 4396 H 434.284 0.981259 -3.11511 0
M  V30 4397 H 432.943 -1.11778 -3.49144 0
M  V30 4398 H 432.591 0.881515 -4.95215 0
M  V30 4399 H 432.291 -0.632434 -5.84187 0
M  V30 4400 H 433.815 0.26346 -6.10031 0
M  V30 4401 H 435.229 -1.9002 -5.40893 0
M  V30 4402 H 433.626 -2.69012 -5.36426 0
M  V30 4403 H 434.696 -2.80495 -3.95538 0
M  V30 4404 N 436.039 1.36541 -0.78704 0
M  V30 4405 C 436.972 2.27831 -0.129765 0
M  V30 4406 C 437.95 1.47105 0.692732 0
M  V30 4407 O 439.134 1.7641 0.664222 0
M  V30 4408 C 436.261 3.28577 0.821883 0
M  V30 4409 C 435.307 4.26422 0.0814771 0
M  V30 4410 S 436.14 5.20919 -1.24112 0
M  V30 4411 C 437.296 6.25212 -0.293409 0
M  V30 4412 H 437.529 2.83229 -0.903811 0
M  V30 4413 H 435.062 1.43046 -0.581144 0
M  V30 4414 H 437.02 3.87123 1.3655 0
M  V30 4415 H 435.681 2.72096 1.56916 0
M  V30 4416 H 434.874 4.97554 0.803485 0
M  V30 4417 H 434.476 3.71944 -0.391589 0
M  V30 4418 H 436.768 6.75435 0.528622 0
M  V30 4419 H 437.711 7.01378 -0.973344 0
M  V30 4420 H 438.119 5.64407 0.102196 0
M  V30 4421 N 437.518 0.538854 1.48102 0
M  V30 4422 C 438.448 -0.207654 2.32575 0
M  V30 4423 C 439.429 -0.926559 1.4265 0
M  V30 4424 O 440.614 -0.91061 1.71527 0
M  V30 4425 C 437.744 -1.24957 3.24042 0
M  V30 4426 C 436.698 -0.648263 4.23062 0
M  V30 4427 C 436.024 -1.79348 5.03725 0
M  V30 4428 C 437.324 0.385897 5.20872 0
M  V30 4429 H 439.018 0.497534 2.95237 0
M  V30 4430 H 436.564 0.240715 1.41974 0
M  V30 4431 H 438.517 -1.77983 3.81969 0
M  V30 4432 H 437.241 -1.98446 2.59397 0
M  V30 4433 H 435.9 -0.139452 3.66335 0
M  V30 4434 H 435.548 -2.51696 4.35498 0
M  V30 4435 H 435.248 -1.39702 5.70751 0
M  V30 4436 H 436.772 -2.32735 5.64506 0
M  V30 4437 H 438.186 -0.057607 5.73271 0
M  V30 4438 H 436.583 0.700227 5.96001 0
M  V30 4439 H 437.653 1.28848 4.67468 0
M  V30 4440 N 438.996 -1.55193 0.274407 0
M  V30 4441 C 439.906 -2.26164 -0.623473 0
M  V30 4442 C 440.922 -1.28729 -1.17068 0
M  V30 4443 O 442.098 -1.61663 -1.20112 0
M  V30 4444 C 439.163 -2.96833 -1.7914 0
M  V30 4445 C 438.224 -4.09745 -1.28093 0
M  V30 4446 C 437.457 -4.77034 -2.3932 0
M  V30 4447 O 437.68 -4.4353 -3.5866 0
M  V30 4448 O 436.614 -5.64996 -2.07516 0
M  V30 4449 H 440.44 -3.03661 -0.0485661 0
M  V30 4450 H 438.025 -1.49341 0.0418382 0
M  V30 4451 H 439.907 -3.41248 -2.4724 0
M  V30 4452 H 438.582 -2.22253 -2.35341 0
M  V30 4453 H 437.489 -3.69787 -0.566416 0
M  V30 4454 H 438.822 -4.86224 -0.764683 0
M  V30 4455 N 440.474 -0.00167713 -1.576 0
M  V30 4456 C 441.404 0.988091 -2.11563 0
M  V30 4457 C 442.385 1.35736 -1.02517 0
M  V30 4458 O 443.57 1.44082 -1.30208 0
M  V30 4459 C 440.7 2.27941 -2.62031 0
M  V30 4460 C 439.654 2.0517 -3.75619 0
M  V30 4461 C 438.98 3.4033 -4.12407 0
M  V30 4462 C 440.28 1.41294 -5.02825 0
M  V30 4463 H 441.974 0.538771 -2.94513 0
M  V30 4464 H 439.52 0.257712 -1.41675 0
M  V30 4465 H 441.473 2.97539 -2.9841 0
M  V30 4466 H 440.197 2.74989 -1.76205 0
M  V30 4467 H 438.856 1.37998 -3.39635 0
M  V30 4468 H 438.504 3.85085 -3.23603 0
M  V30 4469 H 438.204 3.25909 -4.88935 0
M  V30 4470 H 439.728 4.1124 -4.51347 0
M  V30 4471 H 441.142 2.00851 -5.36965 0
M  V30 4472 H 439.539 1.37356 -5.84169 0
M  V30 4473 H 440.609 0.382362 -4.8339 0
M  V30 4474 N 441.952 1.55251 0.271103 0
M  V30 4475 C 442.915 1.87484 1.31842 0
M  V30 4476 C 443.915 0.749545 1.42262 0
M  V30 4477 O 445.105 1.01771 1.4138 0
M  V30 4478 C 442.237 2.0818 2.69951 0
M  V30 4479 H 443.43 2.81108 1.0449 0
M  V30 4480 H 440.983 1.47771 0.509258 0
M  V30 4481 H 441.718 1.16944 3.02481 0
M  V30 4482 H 441.503 2.90114 2.63774 0
M  V30 4483 H 442.993 2.34385 3.4562 0
M  V30 4484 N 443.43 -0.535701 1.48216 0
M  V30 4485 C 444.362 -1.65662 1.58394 0
M  V30 4486 C 445.375 -1.5591 0.468607 0
M  V30 4487 O 446.564 -1.62475 0.7392 0
M  V30 4488 C 443.664 -3.04276 1.4923 0
M  V30 4489 C 442.837 -3.39567 2.75705 0
M  V30 4490 C 441.896 -4.57436 2.60075 0
M  V30 4491 O 440.922 -4.60942 3.33948 0
M  V30 4492 N 442.124 -5.55259 1.69315 0
M  V30 4493 H 444.889 -1.5737 2.55058 0
M  V30 4494 H 442.45 -0.722845 1.44867 0
M  V30 4495 H 444.442 -3.80994 1.36477 0
M  V30 4496 H 443.012 -3.06677 0.605632 0
M  V30 4497 H 442.232 -2.52083 3.03064 0
M  V30 4498 H 443.52 -3.59929 3.59623 0
M  V30 4499 H 442.918 -5.552 1.08489 0
M  V30 4500 H 441.475 -6.31218 1.62504 0
M  V30 4501 N 444.908 -1.36708 -0.784132 0
M  V30 4502 C 446.185 -1.21776 -1.53069 0
M  V30 4503 C 446.565 0.193876 -2.10208 0
M  V30 4504 O 445.913 1.20012 -1.94446 0
M  V30 4505 C 446.123 -2.30395 -2.62143 0
M  V30 4506 C 447.471 -2.67325 -3.29882 0
M  V30 4507 O 448.495 -2.29478 -2.7243 0
M  V30 4508 O 447.354 -3.32485 -4.33724 0
M  V30 4509 H 444.448 -0.474459 -0.677361 0
M  V30 4510 H 446.994 -1.48454 -0.82216 0
M  V30 4511 H 445.766 -3.2498 -2.17953 0
M  V30 4512 H 445.389 -2.05112 -3.40609 0
M  V30 4513 N 446.386 1.0089 -1.21074 0
M  V30 4514 C 447.802 1.2695 -0.967257 0
M  V30 4515 C 448.002 1.9846 0.348673 0
M  V30 4516 O 447.058 2.28459 1.0753 0
M  V30 4517 C 448.371 2.09697 -2.15517 0
M  V30 4518 C 449.919 2.22937 -2.197 0
M  V30 4519 C 450.394 3.09064 -3.37999 0
M  V30 4520 N 451.885 3.16653 -3.38061 0
M  V30 4521 C 452.62 3.8354 -4.26245 0
M  V30 4522 N 452.116 4.52488 -5.2462 0
M  V30 4523 N 453.909 3.80141 -4.14064 0
M  V30 4524 H 446.06 0.529005 -2.05707 0
M  V30 4525 H 448.323 0.296148 -0.900556 0
M  V30 4526 H 448.029 1.64497 -3.10859 0
M  V30 4527 H 447.903 3.10444 -2.14253 0
M  V30 4528 H 450.29 2.67357 -1.24916 0
M  V30 4529 H 450.371 1.21673 -2.2501 0
M  V30 4530 H 450.015 2.65347 -4.33074 0
M  V30 4531 H 449.945 4.10433 -3.29928 0
M  V30 4532 H 452.436 2.67566 -2.66865 0
M  V30 4533 H 452.749 5.01219 -5.88217 0
M  V30 4534 H 451.094 4.51288 -5.28549 0
M  V30 4535 H 454.285 3.25427 -3.36474 0
M  V30 4536 H 454.458 4.31992 -4.82998 0
M  V30 4537 N 447.864 1.01787 1.20321 0
M  V30 4538 C 448.794 0.609625 2.25401 0
M  V30 4539 C 449.775 -0.375951 1.65893 0
M  V30 4540 O 450.96 -0.261101 1.92437 0
M  V30 4541 C 448.09 -0.0515995 3.47262 0
M  V30 4542 C 447.044 0.855095 4.19371 0
M  V30 4543 C 446.37 0.0595757 5.34667 0
M  V30 4544 C 447.67 2.16374 4.75373 0
M  V30 4545 H 449.364 1.48803 2.59804 0
M  V30 4546 H 446.91 0.716934 1.24884 0
M  V30 4547 H 448.863 -0.348764 4.19954 0
M  V30 4548 H 447.587 -0.964726 3.12027 0
M  V30 4549 H 446.246 1.13628 3.48546 0
M  V30 4550 H 445.894 -0.85524 4.95676 0
M  V30 4551 H 445.594 0.663406 5.83843 0
M  V30 4552 H 447.118 -0.231105 6.10162 0
M  V30 4553 H 448.532 1.92885 5.39878 0
M  V30 4554 H 446.929 2.71853 5.34991 0
M  V30 4555 H 447.999 2.82589 3.94045 0
M  V30 4556 N 449.342 -1.36122 0.79427 0
M  V30 4557 C 450.274 -2.28683 0.153903 0
M  V30 4558 C 451.287 -1.49707 -0.639669 0
M  V30 4559 O 452.476 -1.7209 -0.474054 0
M  V30 4560 C 449.576 -3.29202 -0.804921 0
M  V30 4561 C 448.749 -4.37358 -0.060366 0
M  V30 4562 C 447.808 -5.17811 -0.935849 0
M  V30 4563 O 446.834 -5.67853 -0.391309 0
M  V30 4564 N 448.036 -5.34721 -2.25951 0
M  V30 4565 H 450.801 -2.84278 0.949008 0
M  V30 4566 H 448.362 -1.4834 0.648611 0
M  V30 4567 H 450.354 -3.79914 -1.39455 0
M  V30 4568 H 448.924 -2.74212 -1.50088 0
M  V30 4569 H 448.144 -3.87746 0.710382 0
M  V30 4570 H 449.432 -5.06777 0.45324 0
M  V30 4571 H 448.83 -4.95687 -2.72601 0
M  V30 4572 H 447.387 -5.88657 -2.79867 0
M  V30 4573 N 450.82 -0.546701 -1.47814 0
M  V30 4574 C 452.067 -0.0187407 -2.02491 0
M  V30 4575 C 452.395 1.32685 -1.42215 0
M  V30 4576 O 451.65 1.87413 -0.563454 0
M  V30 4577 C 451.949 0.134869 -3.57145 0
M  V30 4578 C 451.615 -1.13849 -4.3629 0
M  V30 4579 C 450.277 -1.48743 -4.57634 0
M  V30 4580 C 452.629 -1.98277 -4.82012 0
M  V30 4581 C 449.957 -2.67932 -5.21948 0
M  V30 4582 C 452.309 -3.16659 -5.4764 0
M  V30 4583 C 450.973 -3.51879 -5.67219 0
M  V30 4584 H 450.243 -0.0068577 -0.740968 0
M  V30 4585 H 452.89 -0.716097 -1.77607 0
M  V30 4586 H 451.195 0.915118 -3.80963 0
M  V30 4587 H 452.892 0.558556 -3.97091 0
M  V30 4588 H 449.482 -0.856767 -4.19949 0
M  V30 4589 H 453.666 -1.72628 -4.6531 0
M  V30 4590 H 448.922 -2.95401 -5.35302 0
M  V30 4591 H 453.096 -3.82374 -5.82033 0
M  V30 4592 H 450.723 -4.44331 -6.16825 0
M  V30 4593 N 452.299 1.55045 -0.282633 0
M  V30 4594 C 453.209 2.26491 0.61147 0
M  V30 4595 C 454.225 1.29348 1.16384 0
M  V30 4596 O 455.401 1.62298 1.19253 0
M  V30 4597 C 452.466 2.97779 1.77563 0
M  V30 4598 C 451.527 4.10418 1.25919 0
M  V30 4599 C 450.76 4.78297 2.36786 0
M  V30 4600 O 450.983 4.45426 3.56303 0
M  V30 4601 O 449.917 5.66089 2.04517 0
M  V30 4602 H 453.743 3.03683 0.0324615 0
M  V30 4603 H 451.328 1.49317 -0.0497576 0
M  V30 4604 H 453.21 3.42554 2.45427 0
M  V30 4605 H 451.885 2.23498 2.34159 0
M  V30 4606 H 450.792 3.70082 0.546797 0
M  V30 4607 H 452.125 4.86622 0.738887 0
M  V30 4608 N 453.777 0.010035 1.57597 0
M  V30 4609 C 455.005 -0.683413 1.95287 0
M  V30 4610 C 455.42 -1.66747 0.885481 0
M  V30 4611 O 454.777 -1.82003 -0.134629 0
M  V30 4612 C 454.828 -1.40652 3.33015 0
M  V30 4613 O 454.549 -0.461916 4.35658 0
M  V30 4614 C 456.05 -2.19356 3.85225 0
M  V30 4615 H 453.27 -0.189708 0.643624 0
M  V30 4616 H 455.814 0.0641359 2.04399 0
M  V30 4617 H 453.969 -2.10562 3.2518 0
M  V30 4618 H 454.383 -0.973215 5.15392 0
M  V30 4619 H 455.857 -2.65433 4.83993 0
M  V30 4620 H 456.334 -3.02457 3.18459 0
M  V30 4621 H 456.94 -1.54442 3.96267 0
M  V30 4622 N 455.255 -1.55392 -0.262866 0
M  V30 4623 C 456.501 -1.76737 -0.99458 0
M  V30 4624 C 456.834 -0.572453 -1.85571 0
M  V30 4625 O 456.109 0.429732 -1.89693 0
M  V30 4626 C 456.392 -3.07824 -1.8686 0
M  V30 4627 C 456.245 -4.3769 -1.03672 0
M  V30 4628 C 457.564 -3.35021 -2.85393 0
M  V30 4629 H 454.683 -0.643005 -0.360157 0
M  V30 4630 H 457.325 -1.88126 -0.266216 0
M  V30 4631 H 455.475 -2.98245 -2.48962 0
M  V30 4632 H 457.147 -4.59238 -0.43563 0
M  V30 4633 H 455.39 -4.32461 -0.340513 0
M  V30 4634 H 456.061 -5.25759 -1.6817 0
M  V30 4635 H 458.537 -3.44458 -2.33426 0
M  V30 4636 H 457.413 -4.27989 -3.43681 0
M  V30 4637 H 457.674 -2.55153 -3.61039 0
M  V30 4638 N 456.733 0.527833 -1.48498 0
M  V30 4639 C 457.643 1.65907 -1.65867 0
M  V30 4640 C 458.659 1.6537 -0.541192 0
M  V30 4641 O 459.835 1.84282 -0.812534 0
M  V30 4642 C 456.9 3.02364 -1.69637 0
M  V30 4643 C 455.961 3.1374 -2.93028 0
M  V30 4644 C 455.194 4.43688 -2.96609 0
M  V30 4645 O 455.417 5.30913 -2.08538 0
M  V30 4646 O 454.351 4.59475 -3.88802 0
M  V30 4647 H 458.177 1.5419 -2.61647 0
M  V30 4648 H 455.762 0.701163 -1.31924 0
M  V30 4649 H 457.644 3.83515 -1.74625 0
M  V30 4650 H 456.319 3.14401 -0.770312 0
M  V30 4651 H 455.226 2.31877 -2.93571 0
M  V30 4652 H 456.559 3.06621 -3.85026 0
M  V30 4653 N 458.211 1.37122 0.776871 0
M  V30 4654 C 459.457 1.32243 1.53752 0
M  V30 4655 C 459.79 -0.0944745 1.9397 0
M  V30 4656 O 459.065 -1.05068 1.6368 0
M  V30 4657 C 459.348 2.25681 2.80607 0
M  V30 4658 C 459.201 3.76127 2.46676 0
M  V30 4659 C 460.52 2.17657 3.82509 0
M  V30 4660 H 457.639 0.481704 0.557791 0
M  V30 4661 H 460.281 1.6778 0.891612 0
M  V30 4662 H 458.431 1.95505 3.35723 0
M  V30 4663 H 460.103 4.16877 1.97513 0
M  V30 4664 H 458.346 3.94946 1.79443 0
M  V30 4665 H 459.017 4.36933 3.37333 0
M  V30 4666 H 461.493 2.44245 3.36873 0
M  V30 4667 H 460.369 2.85185 4.69 0
M  V30 4668 H 460.63 1.16785 4.26396 0
M  V30 4669 N 459.689 -1.00246 1.21608 0
M  V30 4670 C 460.914 -1.78167 1.06167 0
M  V30 4671 C 461.339 -1.84138 -0.384035 0
M  V30 4672 O 460.697 -1.28683 -1.27712 0
M  V30 4673 C 460.745 -3.19786 1.66642 0
M  V30 4674 O 459.849 -4.02153 0.913613 0
M  V30 4675 H 459.19 -0.549 0.37349 0
M  V30 4676 H 461.72 -1.25994 1.61204 0
M  V30 4677 H 461.73 -3.70451 1.70969 0
M  V30 4678 H 460.405 -3.14754 2.7185 0
M  V30 4679 H 458.982 -3.60711 0.945635 0
M  V30 4680 N 461.167 -1.02423 -1.1978 0
M  V30 4681 C 462.077 -0.610919 -2.26506 0
M  V30 4682 C 463.093 0.355152 -1.70337 0
M  V30 4683 O 464.269 0.214195 -2.00258 0
M  V30 4684 C 461.334 0.0365921 -3.46681 0
M  V30 4685 C 460.395 -0.976389 -4.18049 0
M  V30 4686 C 459.628 -0.359683 -5.32487 0
M  V30 4687 O 459.851 0.838601 -5.64202 0
M  V30 4688 O 458.785 -1.08022 -5.92127 0
M  V30 4689 H 462.611 -1.49965 -2.64091 0
M  V30 4690 H 460.196 -0.794156 -1.26545 0
M  V30 4691 H 462.078 0.39786 -4.19518 0
M  V30 4692 H 460.753 0.899398 -3.10954 0
M  V30 4693 H 459.66 -1.38916 -3.47352 0
M  V30 4694 H 460.993 -1.80941 -4.57735 0
M  V30 4695 N 462.645 1.35699 -0.801477 0
M  V30 4696 C 464.056 1.81415 -0.441073 0
M  V30 4697 C 464.407 1.66595 1.03636 0
M  V30 4698 O 463.532 1.19369 1.80499 0
M  V30 4699 C 464.127 3.29369 -0.793819 0
M  V30 4700 C 462.686 3.73248 -0.486083 0
M  V30 4701 C 461.833 2.57775 -1.02213 0
M  V30 4702 H 464.784 1.23749 -0.993572 0
M  V30 4703 H 464.805 3.80395 -0.0894158 0
M  V30 4704 H 464.317 3.40123 -1.86917 0
M  V30 4705 H 462.418 3.68046 0.580735 0
M  V30 4706 H 462.531 4.68222 -1.01513 0
M  V30 4707 H 460.895 2.50788 -0.444712 0
M  V30 4708 H 461.678 2.71309 -2.10348 0
M  V30 4709 N 464.123 0.554532 1.47522 0
M  V30 4710 C 465.348 0.0322661 2.07375 0
M  V30 4711 C 465.773 -1.25079 1.40488 0
M  V30 4712 O 465.131 -1.74859 0.47896 0
M  V30 4713 C 465.179 -0.149397 3.6029 0
M  V30 4714 O 464.283 -1.21259 3.9417 0
M  V30 4715 H 463.624 0.0501228 0.662106 0
M  V30 4716 H 466.154 0.769452 1.8958 0
M  V30 4717 H 466.164 -0.364437 4.06369 0
M  V30 4718 H 464.839 0.787743 4.08372 0
M  V30 4719 H 463.416 -0.97825 3.5984 0
M  V30 4720 N 465.601 -1.54893 0.290851 0
M  V30 4721 C 466.534 -2.19289 -0.631489 0
M  V30 4722 C 467.512 -1.15893 -1.14051 0
M  V30 4723 O 468.696 -1.4449 -1.21058 0
M  V30 4724 C 465.823 -2.82866 -1.86291 0
M  V30 4725 C 464.869 -3.997 -1.48801 0
M  V30 4726 S 465.702 -5.32641 -0.552644 0
M  V30 4727 C 466.858 -5.99696 -1.79209 0
M  V30 4728 H 467.091 -2.9718 -0.0843791 0
M  V30 4729 H 464.624 -1.54218 0.075031 0
M  V30 4730 H 466.582 -3.20124 -2.56964 0
M  V30 4731 H 465.243 -2.04839 -2.38117 0
M  V30 4732 H 464.436 -4.42932 -2.40473 0
M  V30 4733 H 464.038 -3.63947 -0.861321 0
M  V30 4734 H 466.33 -6.19886 -2.734 0
M  V30 4735 H 467.273 -6.94071 -1.40251 0
M  V30 4736 H 467.681 -5.29226 -1.96419 0
M  V30 4737 N 467.08 -0.0183926 -1.57589 0
M  V30 4738 C 468.01 0.965596 -2.12599 0
M  V30 4739 C 468.991 1.34641 -1.0395 0
M  V30 4740 O 470.176 1.42693 -1.31729 0
M  V30 4741 C 467.306 2.25149 -2.64434 0
M  V30 4742 C 466.26 2.01175 -3.77773 0
M  V30 4743 C 465.586 3.35937 -4.15994 0
M  V30 4744 C 466.886 1.35953 -5.04296 0
M  V30 4745 H 468.58 0.507504 -2.95067 0
M  V30 4746 H 466.126 0.242671 -1.41941 0
M  V30 4747 H 468.079 2.94357 -3.01549 0
M  V30 4748 H 466.803 2.73105 -1.79112 0
M  V30 4749 H 465.462 1.34388 -3.4108 0
M  V30 4750 H 465.11 3.81631 -3.27669 0
M  V30 4751 H 464.81 3.20705 -4.92364 0
M  V30 4752 H 466.334 4.0643 -4.55683 0
M  V30 4753 H 467.748 1.95144 -5.39065 0
M  V30 4754 H 466.145 1.31152 -5.85593 0
M  V30 4755 H 467.215 0.331071 -4.83768 0
M  V30 4756 N 468.558 1.5553 0.254621 0
M  V30 4757 C 469.49 1.86104 1.33783 0
M  V30 4758 C 470.503 0.746752 1.44663 0
M  V30 4759 O 471.692 1.0248 1.46151 0
M  V30 4760 C 468.792 2.02532 2.71724 0
M  V30 4761 C 467.965 3.33335 2.83208 0
M  V30 4762 C 467.024 3.396 4.01943 0
M  V30 4763 O 466.05 4.12862 3.91834 0
M  V30 4764 N 467.252 2.68332 5.1476 0
M  V30 4765 H 470.017 2.79605 1.07893 0
M  V30 4766 H 467.578 1.55672 0.444732 0
M  V30 4767 H 469.57 2.04074 3.4948 0
M  V30 4768 H 468.14 1.15811 2.90356 0
M  V30 4769 H 467.36 3.44176 1.92189 0
M  V30 4770 H 468.648 4.19565 2.87824 0
M  V30 4771 H 468.046 2.08528 5.25864 0
M  V30 4772 H 466.603 2.75575 5.90679 0
M  V30 4773 N 470.036 -0.519951 1.48776 0
M  V30 4774 C 470.983 -1.62352 1.64044 0
M  V30 4775 C 471.953 -1.58945 0.482251 0
M  V30 4776 O 473.138 -1.77219 0.706971 0
M  V30 4777 C 470.278 -3.00579 1.69547 0
M  V30 4778 C 469.391 -3.14145 2.96541 0
M  V30 4779 C 468.526 -4.42991 2.93142 0
M  V30 4780 C 467.565 -4.50122 4.14797 0
M  V30 4781 N 466.702 -5.7037 4.09418 0
M  V30 4782 H 471.542 -1.48643 2.58281 0
M  V30 4783 H 469.079 -0.723516 1.28077 0
M  V30 4784 H 471.037 -3.80671 1.70719 0
M  V30 4785 H 469.667 -3.13036 0.787918 0
M  V30 4786 H 468.719 -2.27239 3.05068 0
M  V30 4787 H 470.031 -3.15275 3.86527 0
M  V30 4788 H 469.185 -5.31385 2.92772 0
M  V30 4789 H 467.924 -4.44398 2.00902 0
M  V30 4790 H 466.929 -3.60133 4.15433 0
M  V30 4791 H 468.154 -4.50445 5.08208 0
M  V30 4792 H 466.1 -5.72655 3.20004 0
M  V30 4793 H 466.017 -5.73036 4.93119 0
M  V30 4794 H 467.285 -6.61023 4.13121 0
M  V30 4795 N 471.514 -1.37532 -0.769588 0
M  V30 4796 C 472.763 -1.32183 -1.5235 0
M  V30 4797 C 473.076 0.0906555 -1.9539 0
M  V30 4798 O 474.282 0.266628 -2.70188 0
M  V30 4799 C 472.738 -2.32029 -2.75119 0
M  V30 4800 C 472.346 -3.78816 -2.3917 0
M  V30 4801 C 474.09 -2.35694 -3.53056 0
M  V30 4802 C 471.997 -4.70388 -3.58453 0
M  V30 4803 H 470.927 -0.491275 -0.571984 0
M  V30 4804 H 473.578 -1.63004 -0.842739 0
M  V30 4805 H 471.96 -1.94229 -3.45096 0
M  V30 4806 H 473.134 -4.25466 -1.76962 0
M  V30 4807 H 471.449 -3.78117 -1.74402 0
M  V30 4808 H 474.046 -3.01312 -4.41718 0
M  V30 4809 H 474.389 -1.37117 -3.93071 0
M  V30 4810 H 474.922 -2.72212 -2.90078 0
M  V30 4811 H 471.661 -5.70102 -3.23518 0
M  V30 4812 H 471.181 -4.28442 -4.19758 0
M  V30 4813 H 472.86 -4.87628 -4.25239 0
M  V30 4814 N 472.992 0.995999 -1.22138 0
M  V30 4815 C 473.922 2.10387 -1.01289 0
M  V30 4816 C 474.903 1.69975 0.0651454 0
M  V30 4817 O 476.088 1.9396 -0.0964628 0
M  V30 4818 C 473.218 3.42312 -0.586517 0
M  V30 4819 C 472.172 3.96558 -1.61014 0
M  V30 4820 C 471.498 5.24494 -1.0397 0
M  V30 4821 C 472.798 4.27595 -2.99933 0
M  V30 4822 H 474.492 2.28086 -1.93951 0
M  V30 4823 H 472.038 1.09607 -0.933928 0
M  V30 4824 H 473.991 4.19223 -0.427793 0
M  V30 4825 H 472.715 3.24431 0.375761 0
M  V30 4826 H 471.374 3.21776 -1.75658 0
M  V30 4827 H 471.022 5.02953 -0.0688703 0
M  V30 4828 H 470.722 5.61755 -1.72352 0
M  V30 4829 H 472.246 6.04042 -0.892494 0
M  V30 4830 H 473.66 4.95315 -2.8868 0
M  V30 4831 H 472.057 4.76021 -3.6541 0
M  V30 4832 H 473.127 3.35498 -3.50099 0
M  V30 4833 N 474.47 1.03057 1.19235 0
M  V30 4834 C 475.698 0.747697 1.92917 0
M  V30 4835 C 476.113 -0.69372 1.75593 0
M  V30 4836 O 475.47 -1.47191 1.07894 0
M  V30 4837 C 475.521 1.09159 3.44625 0
M  V30 4838 O 475.242 2.47641 3.61394 0
M  V30 4839 C 476.743 0.831763 4.35427 0
M  V30 4840 H 473.963 0.273453 0.612751 0
M  V30 4841 H 476.507 1.37552 1.51327 0
M  V30 4842 H 474.662 0.508919 3.84043 0
M  V30 4843 H 475.076 2.60499 4.55237 0
M  V30 4844 H 476.55 1.12233 5.4047 0
M  V30 4845 H 477.027 -0.233769 4.38577 0
M  V30 4846 H 477.633 1.39725 4.01693 0
M  V30 4847 N 475.948 -1.35272 0.808662 0
M  V30 4848 C 477.176 -2.02946 0.402537 0
M  V30 4849 C 477.591 -1.60937 -0.987147 0
M  V30 4850 O 476.948 -0.807917 -1.63643 0
M  V30 4851 C 476.999 -3.58317 0.47868 0
M  V30 4852 O 476.72 -3.98799 1.81358 0
M  V30 4853 C 478.221 -4.43251 0.0656281 0
M  V30 4854 H 475.441 -0.650831 0.163279 0
M  V30 4855 H 477.985 -1.72849 1.09286 0
M  V30 4856 H 476.14 -3.87055 -0.163415 0
M  V30 4857 H 476.554 -4.93451 1.77781 0
M  V30 4858 H 478.028 -5.51738 0.170017 0
M  V30 4859 H 478.505 -4.27913 -0.989278 0
M  V30 4860 H 479.111 -4.19813 0.68096 0
M  V30 4861 N 477.426 -0.562348 -1.47226 0
M  V30 4862 C 478.842 -0.222492 -1.58042 0
M  V30 4863 C 479.042 1.27505 -1.56028 0
M  V30 4864 O 478.098 2.05555 -1.46641 0
M  V30 4865 C 479.411 -0.853694 -2.88327 0
M  V30 4866 C 480.959 -0.825397 -3.01921 0
M  V30 4867 C 481.434 -1.43576 -4.34914 0
M  V30 4868 N 482.925 -1.39918 -4.41562 0
M  V30 4869 C 483.66 -1.84103 -5.43041 0
M  V30 4870 N 483.156 -2.36167 -6.51304 0
M  V30 4871 N 484.949 -1.75142 -5.34118 0
M  V30 4872 H 477.1 -1.53525 -1.46778 0
M  V30 4873 H 479.363 -0.640527 -0.698877 0
M  V30 4874 H 479.069 -1.90635 -2.95552 0
M  V30 4875 H 478.943 -0.34977 -3.75575 0
M  V30 4876 H 481.33 0.218583 -2.94289 0
M  V30 4877 H 481.411 -1.36713 -2.16202 0
M  V30 4878 H 481.055 -2.47884 -4.43301 0
M  V30 4879 H 480.985 -0.869427 -5.19373 0
M  V30 4880 H 483.476 -1.0184 -3.63919 0
M  V30 4881 H 483.789 -2.67793 -7.24919 0
M  V30 4882 H 482.134 -2.40181 -6.52179 0
M  V30 4883 H 485.325 -1.34241 -4.48439 0
M  V30 4884 H 485.498 -2.09895 -6.13065 0
M  V30 4885 N 478.904 1.54736 -0.299062 0
M  V30 4886 C 480.32 1.59507 0.0543849 0
M  V30 4887 C 480.52 1.31606 1.52585 0
M  V30 4888 O 479.576 1.08853 2.27832 0
M  V30 4889 C 480.889 2.98751 -0.34181 0
M  V30 4890 C 482.437 3.1165 -0.290414 0
M  V30 4891 C 482.912 4.53199 -0.661402 0
M  V30 4892 N 484.403 4.59114 -0.613863 0
M  V30 4893 C 485.138 5.66709 -0.873417 0
M  V30 4894 N 484.634 6.82349 -1.19884 0
M  V30 4895 N 486.427 5.56369 -0.800608 0
M  V30 4896 H 478.578 1.71133 -1.25806 0
M  V30 4897 H 480.841 0.799186 -0.509908 0
M  V30 4898 H 480.547 3.24085 -1.36608 0
M  V30 4899 H 480.421 3.75961 0.305508 0
M  V30 4900 H 482.808 2.86066 0.724605 0
M  V30 4901 H 482.889 2.366 -0.972327 0
M  V30 4902 H 482.533 4.79513 -1.67422 0
M  V30 4903 H 482.463 5.26583 0.0425612 0
M  V30 4904 H 484.954 3.76053 -0.3732 0
M  V30 4905 H 485.267 7.60326 -1.38291 0
M  V30 4906 H 483.612 6.83906 -1.23685 0
M  V30 4907 H 486.803 4.64904 -0.546045 0
M  V30 4908 H 486.976 6.40139 -1.00626 0
M  V30 4909 N 480.382 0.0267497 1.57577 0
M  V30 4910 C 481.798 -0.32962 1.56159 0
M  V30 4911 C 481.998 -1.73059 1.03213 0
M  V30 4912 O 481.054 -2.43233 0.677804 0
M  V30 4913 C 482.367 -0.18039 3.00158 0
M  V30 4914 C 483.915 -0.253334 3.11973 0
M  V30 4915 C 484.39 -0.132921 4.57807 0
M  V30 4916 N 485.881 -0.189979 4.6281 0
M  V30 4917 C 486.616 -0.120554 5.73273 0
M  V30 4918 N 486.112 -0.000180315 6.928 0
M  V30 4919 N 487.905 -0.174369 5.61829 0
M  V30 4920 H 480.056 0.942896 1.90324 0
M  V30 4921 H 482.319 0.3639 0.875375 0
M  V30 4922 H 482.025 0.784576 3.42837 0
M  V30 4923 H 481.899 -0.951565 3.65 0
M  V30 4924 H 484.286 -1.20876 2.69208 0
M  V30 4925 H 484.367 0.548177 2.49857 0
M  V30 4926 H 484.011 0.819073 5.01252 0
M  V30 4927 H 483.941 -0.953264 5.179 0
M  V30 4928 H 486.432 -0.283257 3.76837 0
M  V30 4929 H 486.745 0.0461666 7.72786 0
M  V30 4930 H 485.09 0.034569 6.94991 0
M  V30 4931 H 488.281 -0.266794 4.67339 0
M  V30 4932 H 488.454 -0.116802 6.47895 0
M  V30 4933 N 481.861 -1.55662 -0.24637 0
M  V30 4934 C 482.771 -1.93495 -1.32653 0
M  V30 4935 C 483.787 -0.835462 -1.5263 0
M  V30 4936 O 484.963 -1.1369 -1.66242 0
M  V30 4937 C 482.028 -2.22242 -2.66101 0
M  V30 4938 C 481.089 -3.45625 -2.54641 0
M  V30 4939 C 480.322 -3.72991 -3.81724 0
M  V30 4940 O 480.545 -3.02421 -4.8363 0
M  V30 4941 O 479.479 -4.66515 -3.80325 0
M  V30 4942 H 483.305 -2.85498 -1.03559 0
M  V30 4943 H 480.89 -1.42551 -0.44717 0
M  V30 4944 H 482.772 -2.42037 -3.44958 0
M  V30 4945 H 481.447 -1.33417 -2.94926 0
M  V30 4946 H 480.354 -3.31136 -1.74067 0
M  V30 4947 H 481.687 -4.34754 -2.3076 0
M  V30 4948 N 483.339 0.512053 -1.4905 0
M  V30 4949 C 484.567 1.29116 -1.61669 0
M  V30 4950 C 484.982 1.86655 -0.283787 0
M  V30 4951 O 484.339 1.67293 0.729331 0
M  V30 4952 C 484.39 2.4293 -2.67707 0
M  V30 4953 O 484.111 1.87758 -3.95826 0
M  V30 4954 C 485.612 3.34476 -2.90931 0
M  V30 4955 H 482.832 0.392009 -0.544583 0
M  V30 4956 H 485.376 0.615881 -1.95006 0
M  V30 4957 H 483.531 3.06308 -2.37179 0
M  V30 4958 H 483.945 2.62393 -4.54148 0
M  V30 4959 H 485.419 4.10642 -3.68886 0
M  V30 4960 H 485.896 3.90801 -2.00427 0
M  V30 4961 H 486.502 2.76874 -3.22832 0
M  V30 4962 N 484.817 1.37938 0.762283 0
M  V30 4963 C 486.065 1.33404 1.51815 0
M  V30 4964 C 486.386 -0.0780975 1.94844 0
M  V30 4965 O 485.656 -1.02405 1.67003 0
M  V30 4966 H 484.236 0.490839 0.563104 0
M  V30 4967 H 486.898 1.72527 0.906669 0
M  V30 4968 H 485.994 1.97926 2.41313 0
M  V30 4969 N 486.295 -0.989507 1.22664 0
M  V30 4970 C 487.543 -1.72612 1.05117 0
M  V30 4971 C 487.864 -1.90552 -0.414131 0
M  V30 4972 O 487.134 -1.4676 -1.29762 0
M  V30 4973 H 485.714 -0.639555 0.385977 0
M  V30 4974 H 488.376 -1.19158 1.54232 0
M  V30 4975 H 487.472 -2.71926 1.53175 0
M  V30 4976 N 487.773 -1.03688 -1.18687 0
M  V30 4977 C 488.721 -0.618292 -2.24232 0
M  V30 4978 C 489.715 0.353045 -1.6568 0
M  V30 4979 O 490.921 0.220749 -1.78641 0
M  V30 4980 H 487.296 -0.181711 -0.729716 0
M  V30 4981 H 489.267 -1.51893 -2.56848 0
M  V30 4982 C 488.016 0.00677342 -3.47699 0
M  V30 4983 H 487.339 -0.731692 -3.93047 0
M  V30 4984 H 488.779 0.262492 -4.23187 0
M  V30 4985 C 487.238 1.25572 -3.12623 0
M  V30 4986 O 487.768 2.34691 -3.26011 0
M  V30 4987 N 485.974 1.14755 -2.66982 0
M  V30 4988 H 485.521 0.259601 -2.56289 0
M  V30 4989 H 485.479 1.98412 -2.43885 0
M  V30 4990 N 489.251 1.34841 -0.815825 0
M  V30 4991 C 490.161 2.33425 -0.234462 0
M  V30 4992 C 491.177 1.62295 0.627413 0
M  V30 4993 O 492.353 1.94109 0.536987 0
M  V30 4994 C 489.418 3.41471 0.599849 0
M  V30 4995 C 488.479 4.28362 -0.283596 0
M  V30 4996 C 487.712 5.31248 0.51099 0
M  V30 4997 O 487.935 5.43056 1.7449 0
M  V30 4998 O 486.869 6.01812 -0.10297 0
M  V30 4999 H 490.695 2.84962 -1.05024 0
M  V30 5000 H 488.28 1.37774 -0.577809 0
M  V30 5001 H 490.162 4.07464 1.07475 0
M  V30 5002 H 488.837 2.9219 1.39308 0
M  V30 5003 H 487.744 3.65318 -0.805836 0
M  V30 5004 H 489.077 4.81066 -1.041 0
M  V30 5005 N 490.729 0.570148 1.46925 0
M  V30 5006 C 492.14 0.1402 1.86173 0
M  V30 5007 C 492.491 -1.29347 1.47526 0
M  V30 5008 O 491.616 -1.97508 0.884292 0
M  V30 5009 C 492.211 0.247661 3.37894 0
M  V30 5010 C 490.77 -0.127332 3.76185 0
M  V30 5011 C 489.917 0.589349 2.70965 0
M  V30 5012 H 492.868 0.779117 1.38259 0
M  V30 5013 H 492.889 -0.530341 3.76786 0
M  V30 5014 H 492.401 1.29121 3.65991 0
M  V30 5015 H 490.502 -1.17149 3.53704 0
M  V30 5016 H 490.615 0.240238 4.78497 0
M  V30 5017 H 488.979 0.0309824 2.54681 0
M  V30 5018 H 489.762 1.6343 3.01903 0
M  V30 5019 N 492.207 -1.54576 0.307264 0
M  V30 5020 C 493.137 -2.26708 -0.55907 0
M  V30 5021 C 494.118 -1.26893 -1.1328 0
M  V30 5022 O 495.303 -1.55677 -1.16097 0
M  V30 5023 C 492.433 -3.01259 -1.72801 0
M  V30 5024 C 491.387 -4.08275 -1.28435 0
M  V30 5025 C 490.713 -4.70575 -2.53895 0
M  V30 5026 C 492.013 -5.2068 -0.411038 0
M  V30 5027 H 493.707 -2.9937 0.042576 0
M  V30 5028 H 491.253 -1.43983 0.0219173 0
M  V30 5029 H 493.206 -3.50444 -2.34023 0
M  V30 5030 H 491.93 -2.26187 -2.356 0
M  V30 5031 H 490.589 -3.59949 -0.695161 0
M  V30 5032 H 490.237 -3.92136 -3.15021 0
M  V30 5033 H 489.937 -5.42854 -2.24908 0
M  V30 5034 H 491.461 -5.22527 -3.15908 0
M  V30 5035 H 492.875 -5.65721 -0.929097 0
M  V30 5036 H 491.272 -5.99716 -0.214664 0
M  V30 5037 H 492.342 -4.81629 0.562287 0
M  V30 5038 N 493.685 -0.035106 -1.57561 0
M  V30 5039 C 495.096 0.502885 -1.798 0
M  V30 5040 C 495.447 1.71892 -0.945921 0
M  V30 5041 O 494.572 2.15822 -0.157991 0
M  V30 5042 C 495.167 0.919097 -3.26095 0
M  V30 5043 C 493.726 1.40216 -3.49308 0
M  V30 5044 C 492.873 0.369709 -2.74824 0
M  V30 5045 H 495.824 -0.261102 -1.56537 0
M  V30 5046 H 495.845 1.78308 -3.36135 0
M  V30 5047 H 495.357 0.0338526 -3.88085 0
M  V30 5048 H 493.458 2.30714 -2.92578 0
M  V30 5049 H 493.571 1.40541 -4.58023 0
M  V30 5050 H 491.935 0.839113 -2.40481 0
M  V30 5051 H 492.718 -0.507173 -3.39533 0
M  V30 5052 N 495.163 1.55791 0.238111 0
M  V30 5053 C 496.409 1.78297 0.966337 0
M  V30 5054 C 496.742 0.601903 1.84637 0
M  V30 5055 O 496.017 -0.399499 1.90353 0
M  V30 5056 C 496.3 3.10758 1.81939 0
M  V30 5057 C 496.153 4.39283 0.966958 0
M  V30 5058 C 497.472 3.39519 2.80027 0
M  V30 5059 H 494.591 0.648654 0.349882 0
M  V30 5060 H 497.233 1.88525 0.236253 0
M  V30 5061 H 495.383 3.02168 2.44185 0
M  V30 5062 H 497.055 4.59873 0.362514 0
M  V30 5063 H 495.298 4.32948 0.271669 0
M  V30 5064 H 495.969 5.28368 1.59784 0
M  V30 5065 H 498.445 3.48128 2.27917 0
M  V30 5066 H 497.321 4.33402 3.36829 0
M  V30 5067 H 497.582 2.60864 3.56934 0
M  V30 5068 N 496.642 -0.504142 1.49319 0
M  V30 5069 C 498.053 -1.08572 1.51885 0
M  V30 5070 C 498.404 -1.93842 0.303255 0
M  V30 5071 O 497.529 -2.0828 -0.58724 0
M  V30 5072 C 498.124 -1.97574 2.75227 0
M  V30 5073 C 496.683 -2.509 2.80581 0
M  V30 5074 C 495.83 -1.28447 2.45757 0
M  V30 5075 H 498.781 -0.288194 1.56061 0
M  V30 5076 H 498.802 -2.82219 2.55211 0
M  V30 5077 H 498.314 -1.35486 3.63683 0
M  V30 5078 H 496.415 -3.16636 1.96398 0
M  V30 5079 H 496.528 -2.88268 3.82673 0
M  V30 5080 H 494.892 -1.60868 1.97468 0
M  V30 5081 H 495.675 -0.68072 3.36483 0
M  V30 5082 N 498.12 -1.38341 -0.754957 0
M  V30 5083 C 499.348 -1.37704 -1.54419 0
M  V30 5084 C 499.763 0.0335243 -1.8877 0
M  V30 5085 O 499.12 0.999773 -1.52679 0
M  V30 5086 C 499.171 -2.23136 -2.84416 0
M  V30 5087 O 498.892 -3.58697 -2.51531 0
M  V30 5088 C 500.393 -2.30664 -3.78562 0
M  V30 5089 H 497.613 -0.471061 -0.477852 0
M  V30 5090 H 500.157 -1.81902 -0.934446 0
M  V30 5091 H 498.312 -1.82403 -3.41772 0
M  V30 5092 H 498.726 -4.03665 -3.34896 0
M  V30 5093 H 500.2 -2.9473 -4.66732 0
M  V30 5094 H 500.677 -1.3199 -4.18898 0
M  V30 5095 H 501.283 -2.71781 -3.27131 0
M  V30 5096 N 499.598 0.982988 -1.23187 0
M  V30 5097 C 500.528 2.09301 -1.03515 0
M  V30 5098 C 501.509 1.70035 0.0471136 0
M  V30 5099 O 502.694 1.93847 -0.117029 0
M  V30 5100 C 499.824 3.4167 -0.622791 0
M  V30 5101 C 498.778 3.94828 -1.65211 0
M  V30 5102 C 498.104 5.23362 -1.09527 0
M  V30 5103 C 499.404 4.2439 -3.04451 0
M  V30 5104 H 501.098 2.26016 -1.96359 0
M  V30 5105 H 498.644 1.08611 -0.945501 0
M  V30 5106 H 500.597 4.18746 -0.472233 0
M  V30 5107 H 499.321 3.24811 0.341329 0
M  V30 5108 H 497.98 3.19895 -1.79061 0
M  V30 5109 H 497.628 5.02852 -0.122211 0
M  V30 5110 H 497.328 5.59895 -1.783 0
M  V30 5111 H 498.852 6.03062 -0.956511 0
M  V30 5112 H 500.266 4.92225 -2.93917 0
M  V30 5113 H 498.663 4.72118 -3.70438 0
M  V30 5114 H 499.733 3.31765 -3.53638 0
M  V30 5115 N 501.076 1.04316 1.18135 0
M  V30 5116 C 502.008 0.594444 2.21357 0
M  V30 5117 C 503.021 -0.337215 1.59269 0
M  V30 5118 O 504.21 -0.131337 1.78016 0
M  V30 5119 C 501.31 -0.151251 3.38562 0
M  V30 5120 C 500.483 0.788907 4.30227 0
M  V30 5121 C 499.542 0.0860572 5.2613 0
M  V30 5122 O 498.568 0.717302 5.64662 0
M  V30 5123 N 499.77 -1.17969 5.68387 0
M  V30 5124 H 502.535 1.48227 2.60478 0
M  V30 5125 H 500.096 0.92396 1.32946 0
M  V30 5126 H 502.088 -0.631352 3.99745 0
M  V30 5127 H 500.658 -0.940639 2.98112 0
M  V30 5128 H 499.878 1.44882 3.6661 0
M  V30 5129 H 501.166 1.42738 4.88368 0
M  V30 5130 H 500.564 -1.71302 5.3914 0
M  V30 5131 H 499.121 -1.60402 6.31755 0
M  V30 5132 N 502.554 -1.34406 0.822964 0
M  V30 5133 C 503.504 -2.26963 0.217208 0
M  V30 5134 C 504.488 -1.48536 -0.618545 0
M  V30 5135 O 505.68 -1.7056 -0.473118 0
M  V30 5136 C 502.809 -3.37655 -0.619973 0
M  V30 5137 C 501.895 -4.23495 0.226411 0
M  V30 5138 N 502.286 -4.88876 1.29744 0
M  V30 5139 C 500.584 -4.45999 0.0107554 0
M  V30 5140 C 501.285 -5.52642 1.81553 0
M  V30 5141 N 500.261 -5.31949 1.11942 0
M  V30 5142 H 504.063 -2.75017 1.03647 0
M  V30 5143 H 501.577 -1.48126 0.665777 0
M  V30 5144 H 503.574 -4.02932 -1.07011 0
M  V30 5145 H 502.234 -2.91151 -1.43739 0
M  V30 5146 H 503.245 -4.89886 1.68024 0
M  V30 5147 H 499.922 -4.10253 -0.774495 0
M  V30 5148 H 501.312 -6.14755 2.71156 0
M  V30 5149 N 504.032 -0.577932 -1.46621 0
M  V30 5150 C 504.982 0.178869 -2.27297 0
M  V30 5151 C 505.966 0.866279 -1.35589 0
M  V30 5152 O 507.158 0.761163 -1.59798 0
M  V30 5153 C 504.287 1.19499 -3.2183 0
M  V30 5154 C 503.373 0.50994 -4.21023 0
M  V30 5155 N 503.764 -0.43177 -5.03954 0
M  V30 5156 C 502.062 0.761287 -4.39455 0
M  V30 5157 C 502.763 -0.831693 -5.75724 0
M  V30 5158 N 501.739 -0.181897 -5.43296 0
M  V30 5159 H 505.541 -0.544859 -2.88805 0
M  V30 5160 H 503.055 -0.399373 -1.57413 0
M  V30 5161 H 505.052 1.75131 -3.78332 0
M  V30 5162 H 503.712 1.91959 -2.61881 0
M  V30 5163 H 504.723 -0.807045 -5.11573 0
M  V30 5164 H 501.4 1.47282 -3.90659 0
M  V30 5165 H 502.79 -1.6067 -6.52407 0
M  V30 5166 N 505.51 1.54411 -0.315457 0
M  V30 5167 C 506.44 2.27002 0.547039 0
M  V30 5168 C 507.421 1.27492 1.12605 0
M  V30 5169 O 508.606 1.5629 1.15269 0
M  V30 5170 C 505.736 3.02171 1.71201 0
M  V30 5171 C 504.69 4.0895 1.26268 0
M  V30 5172 C 504.016 4.71915 2.51396 0
M  V30 5173 C 505.316 5.20891 0.383419 0
M  V30 5174 H 507.01 2.99343 -0.0584517 0
M  V30 5175 H 504.556 1.4397 -0.0295527 0
M  V30 5176 H 506.509 3.51681 2.32161 0
M  V30 5177 H 505.233 2.27433 2.34397 0
M  V30 5178 H 503.892 3.60312 0.676062 0
M  V30 5179 H 503.54 3.93801 3.12937 0
M  V30 5180 H 503.24 5.44039 2.22026 0
M  V30 5181 H 504.764 5.24195 3.13133 0
M  V30 5182 H 506.178 5.66206 0.899082 0
M  V30 5183 H 504.575 5.99821 0.182857 0
M  V30 5184 H 505.645 4.81324 -0.587821 0
M  V30 5185 N 506.988 0.0434614 1.5754 0
M  V30 5186 C 507.951 -0.918696 2.09982 0
M  V30 5187 C 508.951 -1.24488 1.01781 0
M  V30 5188 O 510.141 -1.18284 1.27885 0
M  V30 5189 C 507.273 -2.23093 2.57764 0
M  V30 5190 H 508.466 -0.464229 2.96285 0
M  V30 5191 H 506.019 -0.204818 1.54952 0
M  V30 5192 H 506.754 -2.73137 1.74832 0
M  V30 5193 H 506.539 -2.00724 3.36827 0
M  V30 5194 H 508.029 -2.92028 2.98512 0
M  V30 5195 N 508.466 -1.55915 -0.229846 0
M  V30 5196 C 509.877 -1.68809 -0.797531 0
M  V30 5197 C 510.228 -0.643995 -1.8533 0
M  V30 5198 O 509.353 0.206492 -2.15413 0
M  V30 5199 C 509.948 -3.06043 -1.45338 0
M  V30 5200 C 508.507 -3.20819 -1.96856 0
M  V30 5201 C 507.654 -2.6472 -0.825736 0
M  V30 5202 H 510.605 -1.58699 -0.00533733 0
M  V30 5203 H 510.626 -3.01438 -2.32196 0
M  V30 5204 H 510.138 -3.82012 -0.684743 0
M  V30 5205 H 508.239 -2.49704 -2.76548 0
M  V30 5206 H 508.352 -4.27937 -2.15423 0
M  V30 5207 H 506.716 -2.22985 -1.23084 0
M  V30 5208 H 507.499 -3.43229 -0.0699019 0
M  V30 5209 N 509.944 0.496216 -1.49584 0
M  V30 5210 C 511.355 1.07765 -1.52459 0
M  V30 5211 C 511.706 1.93679 -0.31353 0
M  V30 5212 O 510.831 2.08588 0.576186 0
M  V30 5213 C 511.426 1.96111 -2.76271 0
M  V30 5214 C 509.985 2.49409 -2.81908 0
M  V30 5215 C 509.132 1.27142 -2.46435 0
M  V30 5216 H 512.083 0.279914 -1.56212 0
M  V30 5217 H 512.104 2.80862 -2.56704 0
M  V30 5218 H 511.616 1.33555 -3.64396 0
M  V30 5219 H 509.717 3.1559 -1.98074 0
M  V30 5220 H 509.83 2.86234 -3.84196 0
M  V30 5221 H 508.194 1.59818 -1.98319 0
M  V30 5222 H 508.977 0.662866 -3.3684 0
M  V30 5223 N 511.423 1.38739 0.74761 0
M  V30 5224 C 512.386 1.36241 1.84312 0
M  V30 5225 C 513.386 0.261811 1.58654 0
M  V30 5226 O 514.576 0.519031 1.66288 0
M  V30 5227 C 511.708 1.12253 3.21888 0
M  V30 5228 H 512.901 2.33712 1.87933 0
M  V30 5229 H 510.454 1.2412 0.949946 0
M  V30 5230 H 511.189 0.154133 3.23934 0
M  V30 5231 H 510.974 1.91943 3.41907 0
M  V30 5232 H 512.464 1.13215 4.0196 0
M  V30 5233 N 512.901 -0.976442 1.23707 0
M  V30 5234 C 513.811 -2.10359 1.03856 0
M  V30 5235 C 514.827 -1.73991 -0.0180919 0
M  V30 5236 O 516.003 -2.0061 0.178211 0
M  V30 5237 C 513.068 -3.40809 0.636387 0
M  V30 5238 C 512.129 -3.91179 1.76854 0
M  V30 5239 C 511.362 -5.15404 1.38546 0
M  V30 5240 O 511.585 -5.69754 0.27142 0
M  V30 5241 O 510.519 -5.5994 2.20797 0
M  V30 5242 H 514.345 -2.29997 1.98331 0
M  V30 5243 H 511.93 -1.08742 1.02448 0
M  V30 5244 H 513.812 -4.19269 0.423223 0
M  V30 5245 H 512.487 -3.22493 -0.279322 0
M  V30 5246 H 511.394 -3.13819 2.03638 0
M  V30 5247 H 512.727 -4.13958 2.6627 0
M  V30 5248 N 514.379 -1.04941 -1.1758 0
M  V30 5249 C 515.342 -0.652456 -2.19717 0
M  V30 5250 C 516.342 0.294745 -1.58076 0
M  V30 5251 O 517.532 0.0789579 -1.74021 0
M  V30 5252 C 514.664 0.0420712 -3.40874 0
M  V30 5253 H 515.857 -1.55642 -2.5635 0
M  V30 5254 H 513.41 -0.842995 -1.31618 0
M  V30 5255 H 514.145 0.95943 -3.09783 0
M  V30 5256 H 513.93 -0.638844 -3.86861 0
M  V30 5257 H 515.42 0.306 -4.16477 0
M  V30 5258 N 515.857 1.33968 -0.830081 0
M  V30 5259 C 517.273 1.51003 -0.516742 0
M  V30 5260 C 517.473 1.77286 0.957694 0
M  V30 5261 O 516.529 1.82797 1.74188 0
M  V30 5262 C 517.842 2.67036 -1.38247 0
M  V30 5263 C 519.39 2.80919 -1.38034 0
M  V30 5264 C 519.865 4.00004 -2.23071 0
M  V30 5265 N 521.356 4.07224 -2.20733 0
M  V30 5266 C 522.091 4.98541 -2.83275 0
M  V30 5267 N 521.587 5.95033 -3.54835 0
M  V30 5268 N 523.38 4.91469 -2.72791 0
M  V30 5269 H 515.531 1.15168 -1.78466 0
M  V30 5270 H 517.794 0.565443 -0.760906 0
M  V30 5271 H 517.5 2.54266 -2.42985 0
M  V30 5272 H 517.374 3.62226 -1.05225 0
M  V30 5273 H 519.761 2.93127 -0.340713 0
M  V30 5274 H 519.842 1.86517 -1.75057 0
M  V30 5275 H 519.486 3.88557 -3.27087 0
M  V30 5276 H 519.416 4.93634 -1.83394 0
M  V30 5277 H 521.907 3.38162 -1.68687 0
M  V30 5278 H 522.22 6.61357 -3.99784 0
M  V30 5279 H 520.565 5.95135 -3.58942 0
M  V30 5280 H 523.756 4.15048 -2.16456 0
M  V30 5281 H 523.929 5.62439 -3.21818 0
M  V30 5282 N 517.335 0.585699 1.46312 0
M  V30 5283 C 518.282 -0.145835 2.30339 0
M  V30 5284 C 519.252 -0.881215 1.40797 0
M  V30 5285 O 520.437 -0.871293 1.69744 0
M  V30 5286 C 517.577 -1.15161 3.25318 0
M  V30 5287 C 516.69 -0.419367 4.2996 0
M  V30 5288 C 515.825 -1.41293 5.12064 0
M  V30 5289 C 514.864 -0.667261 6.08452 0
M  V30 5290 N 514.001 -1.60903 6.83414 0
M  V30 5291 H 518.841 0.576755 2.92365 0
M  V30 5292 H 516.378 0.296237 1.44086 0
M  V30 5293 H 518.336 -1.74763 3.78832 0
M  V30 5294 H 516.966 -1.84188 2.65094 0
M  V30 5295 H 516.018 0.291751 3.7928 0
M  V30 5296 H 517.33 0.163433 4.98532 0
M  V30 5297 H 516.484 -2.08167 5.6987 0
M  V30 5298 H 515.223 -2.02966 4.43459 0
M  V30 5299 H 514.228 0.0152356 5.49798 0
M  V30 5300 H 515.453 -0.0558817 6.79077 0
M  V30 5301 H 513.399 -2.21381 6.17516 0
M  V30 5302 H 513.316 -1.07911 7.48259 0
M  V30 5303 H 514.584 -2.26802 7.45775 0
M  V30 5304 N 518.813 -1.54241 0.323641 0
M  V30 5305 C 520.059 -2.00867 -0.279323 0
M  V30 5306 C 520.392 -1.21146 -1.5178 0
M  V30 5307 O 519.667 -0.29378 -1.92269 0
M  V30 5308 C 519.95 -3.54837 -0.613387 0
M  V30 5309 C 519.803 -4.45284 0.635803 0
M  V30 5310 C 521.122 -4.16186 -1.43099 0
M  V30 5311 H 518.241 -0.730177 -0.100049 0
M  V30 5312 H 520.883 -1.84829 0.440235 0
M  V30 5313 H 519.033 -3.68634 -1.22641 0
M  V30 5314 H 520.705 -4.43357 1.27406 0
M  V30 5315 H 518.948 -4.14956 1.26466 0
M  V30 5316 H 519.619 -5.5084 0.357597 0
M  V30 5317 H 522.095 -4.05964 -0.912814 0
M  V30 5318 H 520.971 -5.24031 -1.6335 0
M  V30 5319 H 521.232 -3.69516 -2.42715 0
M  V30 5320 N 520.291 -0.0518155 -1.57515 0
M  V30 5321 C 521.702 0.483787 -1.80323 0
M  V30 5322 C 522.053 1.70879 -0.964099 0
M  V30 5323 O 521.178 2.15643 -0.180872 0
M  V30 5324 C 521.773 0.884459 -3.27052 0
M  V30 5325 C 520.332 1.36504 -3.50776 0
M  V30 5326 C 519.479 0.340539 -2.75201 0
M  V30 5327 H 522.43 -0.277691 -1.56252 0
M  V30 5328 H 522.451 1.74733 -3.38007 0
M  V30 5329 H 521.963 -0.00731093 -3.88099 0
M  V30 5330 H 520.064 2.27598 -2.95009 0
M  V30 5331 H 520.177 1.35675 -4.59488 0
M  V30 5332 H 518.541 0.81356 -2.41357 0
M  V30 5333 H 519.324 -0.543156 -3.38976 0
M  V30 5334 N 521.769 1.56035 0.221574 0
M  V30 5335 C 522.994 1.83476 0.967026 0
M  V30 5336 C 523.419 0.632139 1.7716 0
M  V30 5337 O 522.777 -0.419082 1.7639 0
M  V30 5338 C 522.825 3.08907 1.86034 0
M  V30 5339 O 521.929 2.876 2.95567 0
M  V30 5340 H 521.27 0.604913 0.273817 0
M  V30 5341 H 523.8 2.03247 0.234893 0
M  V30 5342 H 523.81 3.3901 2.27016 0
M  V30 5343 H 522.485 3.96068 1.26898 0
M  V30 5344 H 521.062 2.6873 2.58532 0
M  V30 5345 N 523.247 -0.488276 1.49845 0
M  V30 5346 C 524.21 -1.57069 1.66919 0
M  V30 5347 C 525.21 -1.51445 0.540479 0
M  V30 5348 O 526.4 -1.5437 0.807188 0
M  V30 5349 C 523.532 -2.96718 1.67844 0
M  V30 5350 H 524.725 -1.43254 2.63474 0
M  V30 5351 H 522.278 -0.713435 1.39068 0
M  V30 5352 H 523.013 -3.15996 0.7292 0
M  V30 5353 H 522.798 -3.02208 2.49826 0
M  V30 5354 H 524.288 -3.75335 1.83066 0
M  V30 5355 N 524.725 -1.39134 -0.740242 0
M  V30 5356 C 525.95 -1.39518 -1.53459 0
M  V30 5357 C 526.375 0.00968883 -1.88098 0
M  V30 5358 O 525.733 0.995312 -1.51536 0
M  V30 5359 C 525.781 -2.26981 -2.802 0
M  V30 5360 O 524.885 -1.69609 -3.75908 0
M  V30 5361 H 524.226 -0.475328 -0.463637 0
M  V30 5362 H 526.756 -1.83064 -0.913717 0
M  V30 5363 H 526.766 -2.41309 -3.28989 0
M  V30 5364 H 525.441 -3.29081 -2.5432 0
M  V30 5365 H 524.018 -1.64495 -3.34658 0
M  V30 5366 N 526.204 0.969867 -1.24223 0
M  V30 5367 C 527.136 2.0669 -0.99055 0
M  V30 5368 C 528.149 1.62753 0.0392222 0
M  V30 5369 O 529.338 1.77403 -0.197561 0
M  V30 5370 C 526.438 3.35589 -0.472594 0
M  V30 5371 C 525.611 4.08444 -1.56499 0
M  V30 5372 C 524.67 5.15616 -1.05007 0
M  V30 5373 O 523.696 5.41911 -1.7413 0
M  V30 5374 N 524.898 5.80383 0.116641 0
M  V30 5375 H 527.663 2.28855 -1.93508 0
M  V30 5376 H 525.224 1.13733 -1.15223 0
M  V30 5377 H 527.216 4.04542 -0.112919 0
M  V30 5378 H 525.786 3.10311 0.377617 0
M  V30 5379 H 525.006 3.33798 -2.09696 0
M  V30 5380 H 526.294 4.53882 -2.29932 0
M  V30 5381 H 525.692 5.6142 0.694589 0
M  V30 5382 H 524.249 6.50462 0.417483 0
M  V30 5383 N 527.682 1.05563 1.17022 0
M  V30 5384 C 528.928 0.769074 1.87652 0
M  V30 5385 C 529.261 -0.702326 1.81055 0
M  V30 5386 O 528.536 -1.5139 1.22112 0
M  V30 5387 C 528.819 1.25492 3.37526 0
M  V30 5388 C 528.672 2.78953 3.52853 0
M  V30 5389 C 529.991 0.856919 4.31677 0
M  V30 5390 H 527.11 0.280854 0.681388 0
M  V30 5391 H 529.752 1.31027 1.37593 0
M  V30 5392 H 527.902 0.794516 3.80289 0
M  V30 5393 H 529.574 3.33146 3.19079 0
M  V30 5394 H 527.817 3.18046 2.95007 0
M  V30 5395 H 528.488 3.08011 4.58076 0
M  V30 5396 H 530.964 1.25334 3.96775 0
M  V30 5397 H 529.84 1.22443 5.35069 0
M  V30 5398 H 530.101 -0.238787 4.41455 0
M  V30 5399 N 529.16 -1.33526 0.837174 0
M  V30 5400 C 530.092 -2.28077 0.226579 0
M  V30 5401 C 531.105 -1.51666 -0.591717 0
M  V30 5402 O 532.294 -1.73511 -0.419064 0
M  V30 5403 C 529.394 -3.31597 -0.69978 0
M  V30 5404 C 528.567 -4.37329 0.0788067 0
M  V30 5405 C 527.626 -5.20526 -0.770637 0
M  V30 5406 O 526.652 -5.68811 -0.210453 0
M  V30 5407 N 527.854 -5.41639 -2.08825 0
M  V30 5408 H 530.619 -2.81115 1.03897 0
M  V30 5409 H 528.18 -1.46201 0.695476 0
M  V30 5410 H 530.172 -3.84158 -1.27298 0
M  V30 5411 H 528.742 -2.78848 -1.41288 0
M  V30 5412 H 527.962 -3.8529 0.833381 0
M  V30 5413 H 529.25 -5.05079 0.614238 0
M  V30 5414 H 528.648 -5.04108 -2.56693 0
M  V30 5415 H 527.205 -5.97263 -2.60998 0
M  V30 5416 N 530.638 -0.59345 -1.46 0
M  V30 5417 C 531.601 0.123538 -2.28867 0
M  V30 5418 C 532.601 0.808628 -1.38989 0
M  V30 5419 O 533.791 0.658945 -1.61256 0
M  V30 5420 C 530.923 1.1847 -3.19653 0
M  V30 5421 H 532.116 -0.604843 -2.93737 0
M  V30 5422 H 529.669 -0.351875 -1.52288 0
M  V30 5423 H 530.404 1.94431 -2.59552 0
M  V30 5424 H 530.189 0.69783 -3.8584 0
M  V30 5425 H 531.679 1.68726 -3.81997 0
M  V30 5426 N 532.116 1.54067 -0.331816 0
M  V30 5427 C 533.365 1.99895 0.269209 0
M  V30 5428 C 533.678 1.22371 1.52593 0
M  V30 5429 O 534.884 1.58618 2.20347 0
M  V30 5430 C 533.34 3.55972 0.530244 0
M  V30 5431 C 532.948 4.4234 -0.709901 0
M  V30 5432 C 534.692 4.10247 1.09077 0
M  V30 5433 C 532.599 5.89905 -0.420312 0
M  V30 5434 H 531.529 0.746741 0.104371 0
M  V30 5435 H 534.18 1.78014 -0.445324 0
M  V30 5436 H 532.562 3.73873 1.30518 0
M  V30 5437 H 533.736 4.36215 -1.48504 0
M  V30 5438 H 532.051 3.98997 -1.19123 0
M  V30 5439 H 534.648 5.18095 1.32219 0
M  V30 5440 H 534.991 3.62739 2.0427 0
M  V30 5441 H 535.524 3.96011 0.376824 0
M  V30 5442 H 532.263 6.41623 -1.34164 0
M  V30 5443 H 531.783 5.98962 0.316962 0
M  V30 5444 H 533.462 6.46991 -0.0331956 0
M  V30 5445 N 533.594 0.0601682 1.57485 0
M  V30 5446 C 534.541 -0.91112 2.12055 0
M  V30 5447 C 535.511 -1.30298 1.03013 0
M  V30 5448 O 536.696 -1.39087 1.30612 0
M  V30 5449 C 533.836 -2.1775 2.67729 0
M  V30 5450 C 532.949 -1.83933 3.90887 0
M  V30 5451 C 532.084 -3.05096 4.34845 0
M  V30 5452 C 531.123 -2.67241 5.5068 0
M  V30 5453 N 530.26 -3.81127 5.8965 0
M  V30 5454 H 535.1 -0.43888 2.9475 0
M  V30 5455 H 532.637 -0.204995 1.45665 0
M  V30 5456 H 534.595 -2.91866 2.98111 0
M  V30 5457 H 533.225 -2.62535 1.87816 0
M  V30 5458 H 532.277 -0.999287 3.6704 0
M  V30 5459 H 533.589 -1.52074 4.75052 0
M  V30 5460 H 532.743 -3.87502 4.66827 0
M  V30 5461 H 531.482 -3.40139 3.49509 0
M  V30 5462 H 530.487 -1.83254 5.18361 0
M  V30 5463 H 531.712 -2.3338 6.37738 0
M  V30 5464 H 529.658 -4.15954 5.07266 0
M  V30 5465 H 529.575 -3.52997 6.68528 0
M  V30 5466 H 530.843 -4.64145 6.2625 0
M  V30 5467 N 535.072 -1.5615 -0.213296 0
M  V30 5468 C 536.312 -1.81325 -0.943435 0
M  V30 5469 C 536.676 -0.634934 -1.81198 0
M  V30 5470 O 537.877 -0.766166 -2.5765 0
M  V30 5471 C 536.148 -3.11437 -1.75334 0
M  V30 5472 S 537.707 -3.57955 -2.53799 0
M  V30 5473 H 534.525 -0.636538 -0.316766 0
M  V30 5474 H 537.127 -1.94387 -0.208313 0
M  V30 5475 H 535.831 -3.95228 -1.10556 0
M  V30 5476 H 535.362 -3.01204 -2.53061 0
M  V30 5477 H 537.377 -3.21947 -3.77577 0
M  V30 5478 N 536.55 0.480323 -1.50102 0
M  V30 5479 C 537.797 1.23307 -1.60629 0
M  V30 5480 C 538.125 1.92135 -0.302375 0
M  V30 5481 O 537.38 1.82321 0.711154 0
M  V30 5482 C 537.679 2.30708 -2.72963 0
M  V30 5483 C 537.345 1.79195 -4.13763 0
M  V30 5484 C 536.007 1.64867 -4.52076 0
M  V30 5485 C 538.359 1.40878 -5.018 0
M  V30 5486 C 535.687 1.10631 -5.76175 0
M  V30 5487 C 538.039 0.880872 -6.26437 0
M  V30 5488 C 536.703 0.724146 -6.6356 0
M  V30 5489 H 535.973 0.451211 -0.587784 0
M  V30 5490 H 538.62 0.53051 -1.84005 0
M  V30 5491 H 536.925 3.06834 -2.43639 0
M  V30 5492 H 538.622 2.88692 -2.78313 0
M  V30 5493 H 535.212 1.91313 -3.83533 0
M  V30 5494 H 539.396 1.50786 -4.7284 0
M  V30 5495 H 534.652 0.972263 -6.0362 0
M  V30 5496 H 538.826 0.575269 -6.9402 0
M  V30 5497 H 536.453 0.301722 -7.59601 0
M  V30 5498 N 538.028 1.39524 0.732853 0
M  V30 5499 C 538.958 1.41153 1.86005 0
M  V30 5500 C 539.939 0.274614 1.67869 0
M  V30 5501 O 541.124 0.480745 1.88155 0
M  V30 5502 C 538.254 1.25638 3.23778 0
M  V30 5503 C 537.208 2.36752 3.56556 0
M  V30 5504 C 536.534 2.06326 4.93289 0
M  V30 5505 C 537.834 3.79069 3.5931 0
M  V30 5506 H 539.528 2.35484 1.84899 0
M  V30 5507 H 537.074 1.13348 0.888162 0
M  V30 5508 H 539.027 1.25398 4.0231 0
M  V30 5509 H 537.751 0.277772 3.25417 0
M  V30 5510 H 536.41 2.36213 2.80355 0
M  V30 5511 H 536.058 1.06897 4.9151 0
M  V30 5512 H 535.758 2.80757 5.16187 0
M  V30 5513 H 537.282 2.07739 5.74175 0
M  V30 5514 H 538.696 3.81526 4.27914 0
M  V30 5515 H 537.093 4.52878 3.93728 0
M  V30 5516 H 538.163 4.09893 2.59068 0
M  V30 5517 N 539.506 -0.963266 1.24736 0
M  V30 5518 C 540.731 -1.74699 1.11781 0
M  V30 5519 C 541.156 -1.85267 -0.325258 0
M  V30 5520 O 540.514 -1.32681 -1.23553 0
M  V30 5521 C 540.562 -3.14322 1.76731 0
M  V30 5522 O 539.666 -3.99043 1.04109 0
M  V30 5523 H 539.007 -0.53684 0.390767 0
M  V30 5524 H 541.537 -1.20801 1.65131 0
M  V30 5525 H 541.547 -3.64824 1.82668 0
M  V30 5526 H 540.222 -3.05946 2.81726 0
M  V30 5527 H 538.799 -3.5752 1.05991 0
M  V30 5528 N 540.985 -1.06182 -1.16461 0
M  V30 5529 C 541.932 -0.671613 -2.20812 0
M  V30 5530 C 542.902 0.331186 -1.62765 0
M  V30 5531 O 544.087 0.22033 -1.89524 0
M  V30 5532 C 541.227 -0.063029 -3.45042 0
M  V30 5533 C 540.34 -1.11587 -4.1734 0
M  V30 5534 C 539.475 -0.473546 -5.29085 0
M  V30 5535 C 538.514 -1.51 -5.93182 0
M  V30 5536 N 537.651 -0.891118 -6.96422 0
M  V30 5537 H 542.491 -1.56589 -2.53542 0
M  V30 5538 H 540.028 -0.782951 -1.24532 0
M  V30 5539 H 541.986 0.307344 -4.16066 0
M  V30 5540 H 540.616 0.794663 -3.12866 0
M  V30 5541 H 539.668 -1.60396 -3.44931 0
M  V30 5542 H 540.98 -1.90221 -4.61104 0
M  V30 5543 H 540.134 -0.0501432 -6.06679 0
M  V30 5544 H 538.873 0.344687 -4.8648 0
M  V30 5545 H 537.878 -1.94331 -5.14311 0
M  V30 5546 H 539.103 -2.33031 -6.37866 0
M  V30 5547 H 537.049 -0.0935753 -6.55933 0
M  V30 5548 H 536.966 -1.61486 -7.38551 0
M  V30 5549 H 538.234 -0.492822 -7.77941 0
M  V30 5550 N 542.463 1.3308 -0.844243 0
M  V30 5551 C 543.703 1.99414 -0.448697 0
M  V30 5552 C 544.067 1.65398 0.975058 0
M  V30 5553 O 545.268 2.24741 1.47461 0
M  V30 5554 C 543.539 3.51081 -0.669089 0
M  V30 5555 S 545.098 4.37241 -0.369564 0
M  V30 5556 H 541.916 0.690736 -0.168538 0
M  V30 5557 H 544.518 1.61977 -1.0947 0
M  V30 5558 H 543.222 3.73326 -1.70457 0
M  V30 5559 H 542.753 3.93399 -0.00913211 0
M  V30 5560 H 544.768 4.89568 0.808552 0
M  V30 5561 N 543.941 0.601185 1.45683 0
M  V30 5562 C 545.187 0.102425 2.03142 0
M  V30 5563 C 545.542 -1.25066 1.46207 0
M  V30 5564 O 544.835 -1.81126 0.624806 0
M  V30 5565 C 545.029 -0.00222425 3.574 0
M  V30 5566 C 544.858 1.33917 4.29298 0
M  V30 5567 C 543.628 1.91818 4.67476 0
M  V30 5568 C 545.826 2.26652 4.61664 0
M  V30 5569 N 543.808 3.19504 5.24204 0
M  V30 5570 C 545.179 3.38933 5.19157 0
M  V30 5571 C 547.234 2.26103 4.43601 0
M  V30 5572 C 545.937 4.50823 5.60492 0
M  V30 5573 C 547.963 3.37036 4.85964 0
M  V30 5574 C 547.325 4.48039 5.43545 0
M  V30 5575 H 543.424 0.0806974 0.777825 0
M  V30 5576 H 546.008 0.798134 1.77589 0
M  V30 5577 H 544.179 -0.66714 3.82627 0
M  V30 5578 H 545.911 -0.507058 4.01511 0
M  V30 5579 H 542.666 1.45097 4.50826 0
M  V30 5580 H 543.09 3.84705 5.57073 0
M  V30 5581 H 547.732 1.41547 3.98402 0
M  V30 5582 H 545.45 5.36108 6.0466 0
M  V30 5583 H 549.036 3.37752 4.73725 0
M  V30 5584 H 547.916 5.32459 5.75723 0
M  V30 5585 N 545.419 -1.53889 0.339982 0
M  V30 5586 C 546.644 -2.05741 -0.261798 0
M  V30 5587 C 547.069 -1.21354 -1.43718 0
M  V30 5588 O 546.427 -0.22645 -1.7988 0
M  V30 5589 C 546.475 -3.54542 -0.658228 0
M  V30 5590 O 545.579 -3.7302 -1.75869 0
M  V30 5591 H 544.92 -0.662529 -0.0441672 0
M  V30 5592 H 547.45 -1.98568 0.493161 0
M  V30 5593 H 547.46 -3.9711 -0.936368 0
M  V30 5594 H 546.135 -4.15412 0.201358 0
M  V30 5595 H 544.712 -3.42355 -1.47809 0
M  V30 5596 N 546.897 -0.0685191 -1.57451 0
M  V30 5597 C 547.827 0.89747 -2.15564 0
M  V30 5598 C 548.808 1.31266 -1.08181 0
M  V30 5599 O 549.993 1.38429 -1.36202 0
M  V30 5600 C 547.123 2.16623 -2.71463 0
M  V30 5601 C 546.077 1.89054 -3.83982 0
M  V30 5602 C 545.403 3.22532 -4.26471 0
M  V30 5603 C 546.703 1.1984 -5.08366 0
M  V30 5604 H 548.397 0.413373 -2.96533 0
M  V30 5605 H 545.943 0.197391 -1.42641 0
M  V30 5606 H 547.896 2.84614 -3.10761 0
M  V30 5607 H 546.62 2.67269 -1.8771 0
M  V30 5608 H 545.279 1.23469 -3.45183 0
M  V30 5609 H 544.927 3.71013 -3.39644 0
M  V30 5610 H 544.627 3.04879 -5.02317 0
M  V30 5611 H 546.151 3.91727 -4.68383 0
M  V30 5612 H 547.565 1.77896 -5.45001 0
M  V30 5613 H 545.962 1.12456 -5.89469 0
M  V30 5614 H 547.032 0.176996 -4.84577 0
M  V30 5615 N 548.375 1.56261 0.205012 0
M  V30 5616 C 549.323 1.94631 1.27364 0
M  V30 5617 C 550.317 0.830434 1.47649 0
M  V30 5618 O 551.523 1.01538 1.48627 0
M  V30 5619 H 547.898 0.618755 0.427371 0
M  V30 5620 H 549.869 2.83768 0.922941 0
M  V30 5621 C 548.618 2.29358 2.61324 0
M  V30 5622 H 547.941 3.14744 2.46528 0
M  V30 5623 H 549.381 2.60076 3.34868 0
M  V30 5624 C 547.84 1.12461 3.17575 0
M  V30 5625 O 548.37 0.394407 3.99759 0
M  V30 5626 N 546.576 0.904036 2.7618 0
M  V30 5627 H 546.123 1.49956 2.09454 0
M  V30 5628 H 546.081 0.123662 3.14157 0
M  V30 5629 N 549.853 -0.472356 1.50355 0
M  V30 5630 C 551.102 -1.2213 1.60522 0
M  V30 5631 C 551.415 -1.9312 0.310466 0
M  V30 5632 O 552.621 -2.69936 0.291029 0
M  V30 5633 C 551.077 -2.21909 2.83345 0
M  V30 5634 C 550.685 -1.56727 4.19691 0
M  V30 5635 C 552.429 -2.97453 3.02856 0
M  V30 5636 C 550.336 -2.54785 5.33703 0
M  V30 5637 H 549.266 -0.459543 0.597776 0
M  V30 5638 H 551.917 -0.491922 1.76783 0
M  V30 5639 H 550.299 -2.98133 2.60639 0
M  V30 5640 H 551.473 -0.863007 4.52646 0
M  V30 5641 H 549.788 -0.934685 4.05774 0
M  V30 5642 H 552.385 -3.70838 3.85205 0
M  V30 5643 H 552.728 -3.56764 2.14534 0
M  V30 5644 H 553.261 -2.28342 3.25737 0
M  V30 5645 H 550 -2.00214 6.24175 0
M  V30 5646 H 549.52 -3.23367 5.05167 0
M  V30 5647 H 551.199 -3.16639 5.64224 0
M  V30 5648 N 551.331 -1.39911 -0.725443 0
M  V30 5649 C 552.556 -1.41137 -1.5197 0
M  V30 5650 C 552.981 -0.010262 -1.88097 0
M  V30 5651 O 552.339 0.979184 -1.52583 0
M  V30 5652 C 552.387 -2.2994 -2.77777 0
M  V30 5653 O 551.491 -1.73586 -3.74088 0
M  V30 5654 H 550.832 -0.480219 -0.458569 0
M  V30 5655 H 553.362 -1.84023 -0.894249 0
M  V30 5656 H 553.372 -2.44785 -3.26411 0
M  V30 5657 H 552.047 -3.31759 -2.50816 0
M  V30 5658 H 550.624 -1.68035 -3.32894 0
M  V30 5659 N 552.809 0.956637 -1.25245 0
M  V30 5660 C 554.037 1.73571 -1.12608 0
M  V30 5661 C 554.452 1.86063 0.320324 0
M  V30 5662 O 553.809 1.35691 1.22042 0
M  V30 5663 C 553.86 3.15053 -1.77268 0
M  V30 5664 O 553.581 3.03174 -3.16255 0
M  V30 5665 C 555.082 4.09248 -1.70386 0
M  V30 5666 H 552.302 0.543955 -0.392879 0
M  V30 5667 H 554.846 1.20031 -1.65568 0
M  V30 5668 H 553.001 3.65543 -1.28284 0
M  V30 5669 H 553.415 3.9241 -3.48015 0
M  V30 5670 H 554.889 5.06138 -2.20291 0
M  V30 5671 H 555.366 4.34102 -0.667239 0
M  V30 5672 H 555.972 3.64672 -2.18849 0
M  V30 5673 N 554.287 1.06798 1.15896 0
M  V30 5674 C 555.234 0.683314 2.20453 0
M  V30 5675 C 556.204 -0.32255 1.62938 0
M  V30 5676 O 557.389 -0.210276 1.89638 0
M  V30 5677 C 554.529 0.0813266 3.45004 0
M  V30 5678 C 553.642 1.13799 4.16742 0
M  V30 5679 C 552.777 0.501598 5.28826 0
M  V30 5680 C 551.816 1.54144 5.92373 0
M  V30 5681 N 550.953 0.928038 6.9594 0
M  V30 5682 H 555.793 1.57932 2.52708 0
M  V30 5683 H 553.33 0.789544 1.24115 0
M  V30 5684 H 555.288 -0.285274 4.16224 0
M  V30 5685 H 553.918 -0.77806 3.13283 0
M  V30 5686 H 552.97 1.62223 3.44075 0
M  V30 5687 H 554.282 1.92664 4.60089 0
M  V30 5688 H 553.436 0.0823162 6.06644 0
M  V30 5689 H 552.175 -0.318883 4.86656 0
M  V30 5690 H 551.18 1.97056 5.13273 0
M  V30 5691 H 552.405 2.3641 6.36621 0
M  V30 5692 H 550.351 0.12836 6.55874 0
M  V30 5693 H 550.268 1.65401 7.37685 0
M  V30 5694 H 551.536 0.534071 7.77668 0
M  V30 5695 N 555.766 -1.3263 0.851289 0
M  V30 5696 C 556.676 -2.32722 0.296268 0
M  V30 5697 C 557.692 -1.63901 -0.584162 0
M  V30 5698 O 558.868 -1.95465 -0.485334 0
M  V30 5699 C 555.933 -3.42942 -0.509103 0
M  V30 5700 C 554.994 -4.2746 0.397069 0
M  V30 5701 C 554.227 -5.32416 -0.36996 0
M  V30 5702 O 554.45 -5.47491 -1.6003 0
M  V30 5703 O 553.384 -6.01327 0.262493 0
M  V30 5704 H 557.21 -2.82078 1.12543 0
M  V30 5705 H 554.795 -1.36194 0.614135 0
M  V30 5706 H 556.677 -4.1017 -0.96634 0
M  V30 5707 H 555.352 -2.95781 -1.31512 0
M  V30 5708 H 554.259 -3.63053 0.902411 0
M  V30 5709 H 555.592 -4.78136 1.16818 0
M  V30 5710 N 557.244 -0.608902 -1.45362 0
M  V30 5711 C 558.474 -0.110852 -2.06302 0
M  V30 5712 C 558.882 1.21062 -1.45398 0
M  V30 5713 O 558.225 1.74861 -0.562976 0
M  V30 5714 C 558.287 0.101793 -3.59356 0
M  V30 5715 C 557.951 -1.13808 -4.42602 0
M  V30 5716 C 558.948 -2.05653 -4.77496 0
M  V30 5717 C 556.633 -1.36727 -4.83333 0
M  V30 5718 C 558.627 -3.18745 -5.51978 0
M  V30 5719 C 556.314 -2.5012 -5.57569 0
M  V30 5720 C 557.312 -3.40957 -5.91809 0
M  V30 5721 O 557 -4.52376 -6.64538 0
M  V30 5722 H 556.732 -0.0666001 -0.672711 0
M  V30 5723 H 559.286 -0.836942 -1.87575 0
M  V30 5724 H 557.516 0.88279 -3.76489 0
M  V30 5725 H 559.205 0.551607 -4.02134 0
M  V30 5726 H 559.971 -1.89172 -4.46586 0
M  V30 5727 H 555.85 -0.669216 -4.56117 0
M  V30 5728 H 559.394 -3.8967 -5.78622 0
M  V30 5729 H 555.291 -2.66553 -5.87894 0
M  V30 5730 H 556.059 -4.51075 -6.82989 0
M  V30 5731 N 558.722 1.53707 -0.348139 0
M  V30 5732 C 559.685 2.23812 0.494058 0
M  V30 5733 C 560.685 1.23989 1.02388 0
M  V30 5734 O 561.875 1.48395 0.912396 0
M  V30 5735 C 559.007 2.96133 1.68872 0
M  V30 5736 H 560.2 2.99663 -0.119141 0
M  V30 5737 H 557.753 1.55983 -0.0995539 0
M  V30 5738 H 558.488 2.24481 2.34049 0
M  V30 5739 H 558.273 3.69357 1.31596 0
M  V30 5740 H 559.763 3.49475 2.28597 0
M  V30 5741 N 560.2 0.0768682 1.57412 0
M  V30 5742 C 561.43 -0.5991 1.97723 0
M  V30 5743 C 561.838 -1.63378 0.954166 0
M  V30 5744 O 561.181 -1.83578 -0.0668706 0
M  V30 5745 C 561.243 -1.32078 3.34358 0
M  V30 5746 C 560.907 -0.438985 4.54887 0
M  V30 5747 C 561.904 0.305492 5.19002 0
M  V30 5748 C 559.589 -0.362378 5.00991 0
M  V30 5749 C 561.583 1.11475 6.27576 0
M  V30 5750 C 559.27 0.450543 6.09437 0
M  V30 5751 C 560.268 1.18777 6.72593 0
M  V30 5752 O 559.956 1.98727 7.7895 0
M  V30 5753 H 559.688 -0.166725 0.655117 0
M  V30 5754 H 562.242 0.147337 2.04871 0
M  V30 5755 H 560.472 -2.1134 3.2384 0
M  V30 5756 H 562.161 -1.88949 3.5924 0
M  V30 5757 H 562.927 0.25593 4.84324 0
M  V30 5758 H 558.806 -0.925832 4.51608 0
M  V30 5759 H 562.35 1.69068 6.76803 0
M  V30 5760 H 558.247 0.501651 6.43548 0
M  V30 5761 H 559.015 1.91214 7.95851 0
M  V30 5762 N 561.678 -1.56367 -0.196722 0
M  V30 5763 C 562.608 -1.97442 -1.24655 0
M  V30 5764 C 563.589 -0.846147 -1.47561 0
M  V30 5765 O 564.774 -1.11035 -1.59326 0
M  V30 5766 C 561.904 -2.31253 -2.59112 0
M  V30 5767 C 560.858 -3.46804 -2.50821 0
M  V30 5768 C 560.184 -3.66286 -3.89536 0
M  V30 5769 C 561.484 -4.8104 -2.03465 0
M  V30 5770 H 563.178 -2.85388 -0.905216 0
M  V30 5771 H 560.724 -1.37304 -0.434002 0
M  V30 5772 H 562.677 -2.58583 -3.32736 0
M  V30 5773 H 561.401 -1.40188 -2.94983 0
M  V30 5774 H 560.06 -3.19563 -1.79653 0
M  V30 5775 H 559.708 -2.72555 -4.22756 0
M  V30 5776 H 559.408 -4.4402 -3.84864 0
M  V30 5777 H 560.932 -3.9599 -4.64784 0
M  V30 5778 H 562.346 -5.07411 -2.66846 0
M  V30 5779 H 560.743 -5.62232 -2.09798 0
M  V30 5780 H 561.813 -4.74732 -0.98781 0
M  V30 5781 N 563.156 0.464375 -1.50603 0
M  V30 5782 C 564.103 1.56152 -1.69956 0
M  V30 5783 C 565.073 1.57046 -0.54091 0
M  V30 5784 O 566.258 1.74473 -0.772258 0
M  V30 5785 C 563.398 2.94079 -1.80586 0
M  V30 5786 C 562.511 3.02923 -3.07996 0
M  V30 5787 C 561.646 4.31806 -3.09382 0
M  V30 5788 C 560.685 4.34417 -4.31218 0
M  V30 5789 N 559.822 5.54782 -4.30304 0
M  V30 5790 H 564.662 1.38955 -2.6362 0
M  V30 5791 H 562.199 0.675482 -1.30674 0
M  V30 5792 H 564.157 3.74073 -1.8473 0
M  V30 5793 H 562.787 3.09896 -0.903556 0
M  V30 5794 H 561.839 2.1576 -3.13292 0
M  V30 5795 H 563.151 3.00712 -3.97962 0
M  V30 5796 H 562.305 5.20153 -3.12292 0
M  V30 5797 H 561.044 4.36636 -2.17257 0
M  V30 5798 H 560.049 3.44467 -4.28512 0
M  V30 5799 H 561.274 4.31273 -5.24576 0
M  V30 5800 H 559.22 5.60384 -3.41037 0
M  V30 5801 H 559.137 5.54339 -5.14047 0
M  V30 5802 H 560.405 6.45235 -4.3737 0
M  V30 5803 N 564.634 1.40294 0.718013 0
M  V30 5804 C 565.882 1.38167 1.47494 0
M  V30 5805 C 566.203 -0.01607 1.94993 0
M  V30 5806 O 565.473 -0.970396 1.70177 0
M  V30 5807 H 564.053 0.508505 0.547203 0
M  V30 5808 H 566.715 1.75324 0.851322 0
M  V30 5809 H 565.811 2.05503 2.34894 0
M  V30 5810 N 566.112 -0.949982 1.2575 0
M  V30 5811 C 567.34 -1.72972 1.13527 0
M  V30 5812 C 567.755 -1.8623 -0.310453 0
M  V30 5813 O 567.112 -1.36336 -1.2132 0
M  V30 5814 C 567.163 -3.14108 1.78936 0
M  V30 5815 O 566.884 -3.01493 3.17858 0
M  V30 5816 C 568.385 -4.08338 1.72554 0
M  V30 5817 H 565.605 -0.541864 0.395758 0
M  V30 5818 H 568.149 -1.19151 1.66202 0
M  V30 5819 H 566.304 -3.64858 1.30221 0
M  V30 5820 H 566.718 -3.90559 3.50092 0
M  V30 5821 H 568.192 -5.04963 2.22973 0
M  V30 5822 H 568.669 -4.33742 0.690251 0
M  V30 5823 H 569.275 -3.63506 2.2078 0
M  V30 5824 N 567.59 -1.07411 -1.15328 0
M  V30 5825 C 568.836 -0.798831 -1.86404 0
M  V30 5826 C 569.169 0.673433 -1.8215 0
M  V30 5827 O 568.444 1.49428 -1.24505 0
M  V30 5828 C 568.727 -1.30846 -3.35487 0
M  V30 5829 C 568.58 -2.84532 -3.4837 0
M  V30 5830 C 569.899 -0.925486 -4.30259 0
M  V30 5831 H 567.018 -0.291659 -0.676834 0
M  V30 5832 H 569.66 -1.332 -1.35491 0
M  V30 5833 H 567.81 -0.854916 -3.78977 0
M  V30 5834 H 569.482 -3.3818 -3.13739 0
M  V30 5835 H 567.725 -3.22699 -2.8991 0
M  V30 5836 H 568.396 -3.15259 -4.53118 0
M  V30 5837 H 570.872 -1.3163 -3.94731 0
M  V30 5838 H 569.748 -1.3094 -5.33053 0
M  V30 5839 H 570.009 0.168525 -4.41779 0
M  V30 5840 N 569.068 1.32177 -0.85831 0
M  V30 5841 C 569.998 2.31282 -0.321041 0
M  V30 5842 C 570.979 1.59841 0.581786 0
M  V30 5843 O 572.164 1.87619 0.501262 0
M  V30 5844 C 569.294 3.4385 0.48832 0
M  V30 5845 C 568.248 4.26799 -0.320391 0
M  V30 5846 C 567.574 5.31164 0.613934 0
M  V30 5847 C 568.874 4.98829 -1.54813 0
M  V30 5848 H 570.568 2.76469 -1.14915 0
M  V30 5849 H 568.114 1.32916 -0.554028 0
M  V30 5850 H 570.067 4.12224 0.874626 0
M  V30 5851 H 568.791 2.97401 1.34983 0
M  V30 5852 H 567.45 3.60077 -0.688497 0
M  V30 5853 H 567.098 4.80967 1.47239 0
M  V30 5854 H 566.798 5.8755 0.0768097 0
M  V30 5855 H 568.322 6.024 0.997336 0
M  V30 5856 H 569.736 5.59864 -1.23392 0
M  V30 5857 H 568.133 5.64957 -2.02346 0
M  V30 5858 H 569.203 4.26483 -2.30739 0
M  V30 5859 N 570.547 0.616602 1.45037 0
M  V30 5860 C 571.794 0.115331 2.02171 0
M  V30 5861 C 572.122 -1.25748 1.48383 0
M  V30 5862 O 571.377 -1.84511 0.652229 0
M  V30 5863 C 571.676 0.0356829 3.57382 0
M  V30 5864 C 571.342 1.34535 4.30362 0
M  V30 5865 C 570.004 1.70408 4.50016 0
M  V30 5866 C 572.356 2.21049 4.72003 0
M  V30 5867 C 569.684 2.92529 5.0857 0
M  V30 5868 C 572.036 3.42427 5.31908 0
M  V30 5869 C 570.7 3.78541 5.49784 0
M  V30 5870 H 569.97 0.0422024 0.739797 0
M  V30 5871 H 572.617 0.80002 1.73988 0
M  V30 5872 H 570.922 -0.732314 3.84895 0
M  V30 5873 H 572.619 -0.368463 3.99304 0
M  V30 5874 H 569.209 1.05615 4.15383 0
M  V30 5875 H 573.393 1.94632 4.56544 0
M  V30 5876 H 568.649 3.20605 5.20598 0
M  V30 5877 H 572.823 4.09709 5.63127 0
M  V30 5878 H 570.45 4.73255 5.94923 0
M  V30 5879 N 572.025 -1.5352 0.356285 0
M  V30 5880 C 572.973 -2.26945 -0.50978 0
M  V30 5881 C 573.967 -1.29569 -1.09125 0
M  V30 5882 O 575.173 -1.47231 -1.03552 0
M  V30 5883 H 571.548 -0.729368 -0.183102 0
M  V30 5884 H 573.519 -2.98111 0.131374 0
M  V30 5885 C 572.268 -3.06466 -1.64237 0
M  V30 5886 H 571.591 -3.81233 -1.20423 0
M  V30 5887 H 573.031 -3.61035 -2.22327 0
M  V30 5888 C 571.49 -2.16737 -2.57928 0
M  V30 5889 O 572.02 -1.77195 -3.60507 0
M  V30 5890 N 570.226 -1.81558 -2.26903 0
M  V30 5891 H 569.773 -2.13913 -1.43524 0
M  V30 5892 H 569.731 -1.21806 -2.89846 0
M  V30 5893 N 573.503 -0.0852151 -1.57369 0
M  V30 5894 C 574.914 0.445428 -1.81309 0
M  V30 5895 C 575.265 1.68795 -1.00013 0
M  V30 5896 O 574.39 2.15211 -0.226573 0
M  V30 5897 C 574.985 0.814887 -3.28854 0
M  V30 5898 C 573.544 1.29032 -3.53592 0
M  V30 5899 C 572.691 0.282089 -2.75861 0
M  V30 5900 H 575.642 -0.310771 -1.55627 0
M  V30 5901 H 575.663 1.67524 -3.41637 0
M  V30 5902 H 575.175 -0.0896309 -3.87996 0
M  V30 5903 H 573.276 2.21289 -2.9977 0
M  V30 5904 H 573.389 1.25898 -4.62262 0
M  V30 5905 H 571.753 0.762182 -2.43029 0
M  V30 5906 H 572.536 -0.614936 -3.37748 0
M  V30 5907 N 574.981 1.5647 0.188427 0
M  V30 5908 C 576.258 1.71857 0.934058 0
M  V30 5909 C 576.638 0.641867 2.01105 0
M  V30 5910 O 575.986 -0.346098 2.25864 0
M  V30 5911 C 576.196 3.14431 1.5144 0
M  V30 5912 C 577.544 3.74869 1.99396 0
M  V30 5913 O 578.568 3.17601 1.61269 0
M  V30 5914 O 577.427 4.75387 2.69573 0
M  V30 5915 H 574.521 0.701186 0.438483 0
M  V30 5916 H 577.067 1.68768 0.177599 0
M  V30 5917 H 575.839 3.8427 0.738416 0
M  V30 5918 H 575.462 3.21775 2.33552 0
M  V30 5919 N 576.459 -0.456382 1.50847 0
M  V30 5920 C 577.705 -1.20914 1.62811 0
M  V30 5921 C 578.038 -1.91301 0.334304 0
M  V30 5922 O 577.313 -1.82775 -0.665098 0
M  V30 5923 C 577.596 -2.24122 2.81853 0
M  V30 5924 C 577.449 -1.57944 4.21158 0
M  V30 5925 C 578.768 -3.25295 2.96431 0
M  V30 5926 H 575.887 -0.438233 0.592554 0
M  V30 5927 H 578.529 -0.50091 1.83278 0
M  V30 5928 H 576.679 -2.84524 2.64534 0
M  V30 5929 H 578.351 -1.01025 4.50102 0
M  V30 5930 H 576.594 -0.882185 4.24735 0
M  V30 5931 H 577.265 -2.33014 5.00408 0
M  V30 5932 H 579.741 -2.7493 3.12335 0
M  V30 5933 H 578.617 -3.94822 3.81322 0
M  V30 5934 H 578.878 -3.90286 2.07676 0
M  V30 5935 N 577.937 -1.40673 -0.710563 0
M  V30 5936 C 579.348 -1.34975 -1.28991 0
M  V30 5937 C 579.699 -0.0256272 -1.96183 0
M  V30 5938 O 578.824 0.876339 -1.97862 0
M  V30 5939 C 579.419 -2.44467 -2.34567 0
M  V30 5940 C 577.978 -2.42213 -2.88114 0
M  V30 5941 C 577.125 -2.25085 -1.61963 0
M  V30 5942 H 580.076 -1.50406 -0.506343 0
M  V30 5943 H 580.097 -2.12663 -3.15523 0
M  V30 5944 H 579.609 -3.40825 -1.85634 0
M  V30 5945 H 577.71 -1.49568 -3.41263 0
M  V30 5946 H 577.823 -3.37983 -3.39565 0
M  V30 5947 H 576.187 -1.72691 -1.87216 0
M  V30 5948 H 576.97 -3.23449 -1.15047 0
M  V30 5949 N 579.415 0.9433 -1.26252 0
M  V30 5950 C 580.663 1.68592 -1.11451 0
M  V30 5951 C 580.984 1.91957 0.343123 0
M  V30 5952 O 580.254 1.51475 1.24226 0
M  V30 5953 H 578.834 0.624789 -0.409448 0
M  V30 5954 H 581.496 1.13351 -1.58548 0
M  V30 5955 H 580.592 2.66054 -1.63162 0
M  V30 5956 N 580.893 1.08022 1.14757 0
M  V30 5957 C 581.823 0.728248 2.21853 0
M  V30 5958 C 582.804 -0.287486 1.67653 0
M  V30 5959 O 583.989 -0.158727 1.9355 0
M  V30 5960 C 581.119 0.132549 3.47047 0
M  V30 5961 C 580.073 1.07619 4.14249 0
M  V30 5962 C 579.399 0.342907 5.33599 0
M  V30 5963 C 580.699 2.41268 4.63235 0
M  V30 5964 H 582.393 1.62365 2.51551 0
M  V30 5965 H 579.939 0.782125 1.20908 0
M  V30 5966 H 581.892 -0.125665 4.21213 0
M  V30 5967 H 580.616 -0.797971 3.16702 0
M  V30 5968 H 579.275 1.31944 3.42033 0
M  V30 5969 H 578.923 -0.59129 4.99513 0
M  V30 5970 H 578.623 0.971955 5.79506 0
M  V30 5971 H 580.147 0.0926538 6.1053 0
M  V30 5972 H 581.561 2.21232 5.28894 0
M  V30 5973 H 579.958 2.9983 5.19829 0
M  V30 5974 H 581.028 3.03079 3.78512 0
M  V30 5975 N 582.371 -1.3172 0.865308 0
M  V30 5976 C 583.303 -2.27545 0.274906 0
M  V30 5977 C 584.316 -1.52887 -0.559413 0
M  V30 5978 O 585.505 -1.74361 -0.382166 0
M  V30 5979 C 582.605 -3.33006 -0.629286 0
M  V30 5980 C 581.778 -4.37063 0.171553 0
M  V30 5981 C 580.837 -5.22044 -0.660052 0
M  V30 5982 O 579.863 -5.69129 -0.0897527 0
M  V30 5983 N 581.065 -5.45946 -1.97289 0
M  V30 5984 H 583.83 -2.78848 1.09836 0
M  V30 5985 H 581.391 -1.44693 0.726331 0
M  V30 5986 H 583.383 -3.86772 -1.19121 0
M  V30 5987 H 581.953 -2.81782 -1.35342 0
M  V30 5988 H 581.173 -3.83436 0.914919 0
M  V30 5989 H 582.461 -5.03662 0.721235 0
M  V30 5990 H 581.859 -5.0944 -2.45942 0
M  V30 5991 H 580.416 -6.02665 -2.4827 0
M  V30 5992 N 583.85 -0.624285 -1.44708 0
M  V30 5993 C 585.09 -0.129273 -2.03991 0
M  V30 5994 C 585.454 1.22321 -1.47992 0
M  V30 5995 O 586.654 1.80993 -1.98734 0
M  V30 5996 C 584.926 -0.108231 -3.57236 0
M  V30 5997 S 586.485 0.323158 -4.37608 0
M  V30 5998 H 583.303 -0.0577318 -0.708652 0
M  V30 5999 H 585.904 -0.826139 -1.77187 0
M  V30 6000 H 584.609 -1.0958 -3.955 0
M  V30 6001 H 584.139 0.610101 -3.8864 0
M  V30 6002 H 586.154 1.56894 -4.70743 0
M  V30 6003 N 585.328 1.53329 -0.364422 0
M  V30 6004 C 586.574 2.01537 0.225969 0
M  V30 6005 C 586.907 1.25128 1.48515 0
M  V30 6006 O 586.182 0.344653 1.91422 0
M  V30 6007 C 586.465 3.56339 0.519092 0
M  V30 6008 C 586.318 4.43441 -0.753639 0
M  V30 6009 C 587.637 4.19833 1.32015 0
M  V30 6010 H 584.756 0.732573 0.0806548 0
M  V30 6011 H 587.398 1.83597 -0.489084 0
M  V30 6012 H 585.548 3.71756 1.12825 0
M  V30 6013 H 587.22 4.39823 -1.39116 0
M  V30 6014 H 585.463 4.11457 -1.37424 0
M  V30 6015 H 586.134 5.49699 -0.503517 0
M  V30 6016 H 588.61 4.08242 0.804859 0
M  V30 6017 H 587.486 5.28177 1.49399 0
M  V30 6018 H 587.747 3.75821 2.32832 0
M  V30 6019 N 586.806 0.0935595 1.57322 0
M  V30 6020 C 587.753 -0.865935 2.1394 0
M  V30 6021 C 588.723 -1.28083 1.05754 0
M  V30 6022 O 589.908 -1.36285 1.33533 0
M  V30 6023 C 587.048 -2.12023 2.72287 0
M  V30 6024 C 586.161 -1.756 3.94701 0
M  V30 6025 C 585.296 -2.95804 4.41218 0
M  V30 6026 C 584.335 -2.555 5.56225 0
M  V30 6027 N 583.472 -3.68534 5.97601 0
M  V30 6028 H 588.312 -0.376261 2.95615 0
M  V30 6029 H 585.849 -0.174052 1.46067 0
M  V30 6030 H 587.807 -2.85477 3.04235 0
M  V30 6031 H 586.437 -2.58492 1.93343 0
M  V30 6032 H 585.489 -0.921208 3.69077 0
M  V30 6033 H 586.801 -1.41964 4.78171 0
M  V30 6034 H 585.955 -3.77513 4.74941 0
M  V30 6035 H 584.694 -3.32649 3.56645 0
M  V30 6036 H 583.699 -1.72218 5.22131 0
M  V30 6037 H 584.924 -2.19801 6.42545 0
M  V30 6038 H 582.87 -4.051 5.15974 0
M  V30 6039 H 582.787 -3.38737 6.75865 0
M  V30 6040 H 584.055 -4.50757 6.35955 0
M  V30 6041 N 588.284 -1.56567 -0.180126 0
M  V30 6042 C 589.514 -1.85349 -0.912647 0
M  V30 6043 C 589.922 -0.675795 -1.76719 0
M  V30 6044 O 589.265 0.3645 -1.80047 0
M  V30 6045 C 589.327 -3.08431 -1.84691 0
M  V30 6046 C 588.991 -4.41694 -1.17284 0
M  V30 6047 C 589.988 -5.17062 -0.542532 0
M  V30 6048 C 587.673 -4.8843 -1.17223 0
M  V30 6049 C 589.667 -6.37351 0.0793953 0
M  V30 6050 C 587.354 -6.08652 -0.54647 0
M  V30 6051 C 588.352 -6.82955 0.0782458 0
M  V30 6052 O 588.04 -8.00897 0.694158 0
M  V30 6053 H 587.772 -0.619286 -0.271036 0
M  V30 6054 H 590.326 -2.0454 -0.187768 0
M  V30 6055 H 588.556 -2.85163 -2.61188 0
M  V30 6056 H 590.245 -3.23733 -2.44851 0
M  V30 6057 H 591.011 -4.8204 -0.535045 0
M  V30 6058 H 586.89 -4.30542 -1.64788 0
M  V30 6059 H 590.434 -6.95287 0.567612 0
M  V30 6060 H 586.331 -6.4314 -0.55151 0
M  V30 6061 H 587.099 -8.16352 0.592537 0
M  V30 6062 N 589.762 0.448376 -1.51087 0
M  V30 6063 C 591.011 1.19561 -1.62444 0
M  V30 6064 C 591.324 1.92602 -0.341151 0
M  V30 6065 O 592.53 2.69439 -0.333936 0
M  V30 6066 C 590.986 2.17373 -2.8684 0
M  V30 6067 C 590.594 1.5003 -4.22131 0
M  V30 6068 C 592.338 2.92597 -3.0755 0
M  V30 6069 C 590.245 2.46262 -5.37689 0
M  V30 6070 H 589.175 0.449975 -0.605011 0
M  V30 6071 H 591.826 0.463735 -1.77544 0
M  V30 6072 H 590.208 2.93948 -2.65349 0
M  V30 6073 H 591.382 0.790886 -4.53962 0
M  V30 6074 H 589.697 0.870011 -4.0721 0
M  V30 6075 H 592.294 3.64663 -3.91056 0
M  V30 6076 H 592.637 3.53306 -2.20183 0
M  V30 6077 H 593.17 2.23131 -3.29329 0
M  V30 6078 H 589.909 1.90258 -6.27281 0
M  V30 6079 H 589.429 3.15289 -5.10248 0
M  V30 6080 H 591.108 3.07623 -5.6919 0
M  V30 6081 N 591.24 1.41047 0.703093 0
M  V30 6082 C 592.172 1.38228 1.82827 0
M  V30 6083 C 593.185 0.285637 1.60275 0
M  V30 6084 O 594.374 0.54685 1.69917 0
M  V30 6085 C 591.474 1.13136 3.19458 0
M  V30 6086 C 590.647 2.34695 3.69103 0
M  V30 6087 C 589.706 2.05574 4.84382 0
M  V30 6088 O 588.732 2.78549 4.96386 0
M  V30 6089 N 589.934 1.04135 5.71083 0
M  V30 6090 H 592.699 2.35203 1.85741 0
M  V30 6091 H 590.26 1.35562 0.885125 0
M  V30 6092 H 592.252 0.916183 3.94193 0
M  V30 6093 H 590.822 0.247836 3.11616 0
M  V30 6094 H 590.042 2.71963 2.85359 0
M  V30 6095 H 591.33 3.15705 3.99009 0
M  V30 6096 H 590.728 0.43722 5.64008 0
M  V30 6097 H 589.285 0.886078 6.45749 0
M  V30 6098 N 592.718 -0.936591 1.26751 0
M  V30 6099 C 593.966 -1.67998 1.12343 0
M  V30 6100 C 594.287 -1.92137 -0.332938 0
M  V30 6101 O 593.557 -1.52132 -1.23421 0
M  V30 6102 H 592.137 -0.622609 0.412756 0
M  V30 6103 H 594.799 -1.12509 1.59147 0
M  V30 6104 H 593.895 -2.65185 1.64571 0
M  V30 6105 N 594.196 -1.08629 -1.14182 0
M  V30 6106 C 595.126 -0.740003 -2.21464 0
M  V30 6107 C 596.107 0.278591 -1.67803 0
M  V30 6108 O 597.292 0.148461 -1.93632 0
M  V30 6109 C 594.422 -0.150952 -3.46972 0
M  V30 6110 C 593.376 -1.09815 -4.13672 0
M  V30 6111 C 592.702 -0.3712 -5.3341 0
M  V30 6112 C 594.002 -2.43722 -4.61949 0
M  V30 6113 H 595.696 -1.63697 -2.50686 0
M  V30 6114 H 593.242 -0.788526 -1.20492 0
M  V30 6115 H 595.195 0.103325 -4.21273 0
M  V30 6116 H 593.919 0.781164 -3.1712 0
M  V30 6117 H 592.578 -1.33756 -3.41328 0
M  V30 6118 H 592.226 0.564792 -4.99819 0
M  V30 6119 H 591.926 -1.00267 -5.78982 0
M  V30 6120 H 593.45 -0.12503 -6.10472 0
M  V30 6121 H 594.864 -2.24034 -5.27714 0
M  V30 6122 H 593.261 -3.02582 -5.18232 0
M  V30 6123 H 594.331 -3.05082 -3.76899 0
M  V30 6124 N 595.674 1.31259 -0.872281 0
M  V30 6125 C 596.606 2.27396 -0.28697 0
M  V30 6126 C 597.619 1.53181 0.551297 0
M  V30 6127 O 598.808 1.74561 0.372914 0
M  V30 6128 C 595.908 3.33335 0.611617 0
M  V30 6129 C 595.081 4.36966 -0.194729 0
M  V30 6130 C 594.14 5.22387 0.632358 0
M  V30 6131 O 593.166 5.69169 0.0595691 0
M  V30 6132 N 594.368 5.46985 1.94391 0
M  V30 6133 H 597.133 2.78261 -1.11314 0
M  V30 6134 H 594.694 1.44306 -0.733994 0
M  V30 6135 H 596.686 3.87398 1.17068 0
M  V30 6136 H 595.256 2.82496 1.33846 0
M  V30 6137 H 594.476 3.82945 -0.935241 0
M  V30 6138 H 595.764 5.03273 -0.747935 0
M  V30 6139 H 595.162 5.10737 2.43237 0
M  V30 6140 H 593.719 6.03973 2.45071 0
M  V30 6141 N 597.152 0.631951 1.44375 0
M  V30 6142 C 598.398 0.145491 2.02879 0
M  V30 6143 C 598.753 -1.21936 1.48827 0
M  V30 6144 O 598.046 -1.7976 0.663085 0
M  V30 6145 C 598.24 0.0735861 3.57324 0
M  V30 6146 C 598.069 1.42992 4.2636 0
M  V30 6147 C 596.839 2.01691 4.63302 0
M  V30 6148 C 599.037 2.36393 4.56752 0
M  V30 6149 N 597.019 3.30551 5.17309 0
M  V30 6150 C 598.39 3.49869 5.11851 0
M  V30 6151 C 600.445 2.35462 4.38705 0
M  V30 6152 C 599.148 4.6261 5.50803 0
M  V30 6153 C 601.174 3.47268 4.78706 0
M  V30 6154 C 600.536 4.59467 5.33919 0
M  V30 6155 H 596.635 0.0971781 0.775938 0
M  V30 6156 H 599.219 0.835624 1.75856 0
M  V30 6157 H 597.39 -0.585829 3.83957 0
M  V30 6158 H 599.122 -0.421777 4.02496 0
M  V30 6159 H 595.877 1.54627 4.47647 0
M  V30 6160 H 596.301 3.96435 5.48788 0
M  V30 6161 H 600.943 1.49966 3.9531 0
M  V30 6162 H 598.661 5.48813 5.93152 0
M  V30 6163 H 602.247 3.47724 4.66454 0
M  V30 6164 H 601.127 5.44551 5.64299 0
M  V30 6165 N 598.631 -1.53133 0.372548 0
M  V30 6166 C 599.879 -2.00958 -0.214534 0
M  V30 6167 C 600.2 -1.26135 -1.48711 0
M  V30 6168 O 599.47 -0.376597 -1.92246 0
M  V30 6169 H 598.05 -0.742456 -0.0822664 0
M  V30 6170 H 600.712 -1.88367 0.500385 0
M  V30 6171 H 599.808 -3.09031 -0.436605 0
M  V30 6172 N 600.109 -0.101901 -1.5727 0
M  V30 6173 C 601.337 0.568392 -1.98939 0
M  V30 6174 C 601.752 1.61301 -0.981194 0
M  V30 6175 O 601.109 1.82478 0.0282869 0
M  V30 6176 C 601.16 1.20997 -3.40649 0
M  V30 6177 O 600.881 0.207129 -4.3761 0
M  V30 6178 C 602.382 1.96523 -3.97358 0
M  V30 6179 H 599.602 0.15186 -0.65359 0
M  V30 6180 H 602.146 -0.183198 -2.03678 0
M  V30 6181 H 600.301 1.91245 -3.36904 0
M  V30 6182 H 600.715 0.671071 -5.20189 0
M  V30 6183 H 602.189 2.36764 -4.98645 0
M  V30 6184 H 602.666 2.83376 -3.35552 0
M  V30 6185 H 603.272 1.31076 -4.04598 0
M  V30 6186 N 601.587 1.56661 0.17182 0
M  V30 6187 C 602.519 1.92934 1.2373 0
M  V30 6188 C 603.532 0.822385 1.40502 0
M  V30 6189 O 604.721 1.10083 1.40514 0
M  V30 6190 C 601.821 2.16651 2.60607 0
M  V30 6191 C 600.994 3.47878 2.6514 0
M  V30 6192 C 600.053 3.60429 3.83377 0
M  V30 6193 O 599.079 4.33051 3.69398 0
M  V30 6194 N 600.281 2.95241 4.99813 0
M  V30 6195 H 603.046 2.84931 0.929205 0
M  V30 6196 H 600.607 1.5781 0.361588 0
M  V30 6197 H 602.599 2.22312 3.38171 0
M  V30 6198 H 601.169 1.3104 2.83809 0
M  V30 6199 H 600.389 3.53879 1.73675 0
M  V30 6200 H 601.677 4.34232 2.6518 0
M  V30 6201 H 601.075 2.3611 5.14071 0
M  V30 6202 H 599.632 3.06499 5.75241 0
M  V30 6203 N 603.065 -0.440357 1.51323 0
M  V30 6204 C 603.997 -1.55254 1.68609 0
M  V30 6205 C 605.01 -1.52614 0.566812 0
M  V30 6206 O 606.199 -1.57445 0.841032 0
M  V30 6207 C 603.299 -2.94169 1.68279 0
M  V30 6208 C 602.472 -3.21346 2.96742 0
M  V30 6209 C 601.531 -4.3997 2.8864 0
M  V30 6210 O 600.557 -4.38771 3.62586 0
M  V30 6211 N 601.759 -5.43367 2.04285 0
M  V30 6212 H 604.524 -1.40831 2.6455 0
M  V30 6213 H 602.085 -0.629251 1.49171 0
M  V30 6214 H 604.077 -3.71543 1.60431 0
M  V30 6215 H 602.647 -3.02205 0.799441 0
M  V30 6216 H 601.867 -2.32299 3.18482 0
M  V30 6217 H 603.155 -3.3633 3.81785 0
M  V30 6218 H 602.553 -5.47176 1.43578 0
M  V30 6219 H 601.11 -6.19605 2.02318 0
M  V30 6220 N 604.543 -1.41418 -0.695603 0
M  V30 6221 C 605.792 -1.40073 -1.4513 0
M  V30 6222 C 606.105 -0.0130439 -1.95596 0
M  V30 6223 O 607.311 0.123032 -2.71221 0
M  V30 6224 C 605.767 -2.46286 -2.62433 0
M  V30 6225 C 605.375 -3.90962 -2.18753 0
M  V30 6226 C 607.119 -2.54077 -3.40066 0
M  V30 6227 C 605.026 -4.88728 -3.33015 0
M  V30 6228 H 603.956 -0.520903 -0.545138 0
M  V30 6229 H 606.607 -1.67242 -0.75515 0
M  V30 6230 H 604.989 -2.12248 -3.34315 0
M  V30 6231 H 606.163 -4.34248 -1.54161 0
M  V30 6232 H 604.478 -3.86831 -1.54114 0
M  V30 6233 H 607.075 -3.24303 -4.25125 0
M  V30 6234 H 607.418 -1.5776 -3.8525 0
M  V30 6235 H 607.951 -2.87206 -2.75241 0
M  V30 6236 H 604.69 -5.86449 -2.92844 0
M  V30 6237 H 604.21 -4.50091 -3.96457 0
M  V30 6238 H 605.889 -5.09483 -3.98793 0
M  V30 6239 N 606.021 0.929856 -1.27246 0
M  V30 6240 C 606.951 2.04722 -1.12299 0
M  V30 6241 C 607.932 1.70082 -0.0250464 0
M  V30 6242 O 609.117 1.93176 -0.199141 0
M  V30 6243 C 606.247 3.38721 -0.767145 0
M  V30 6244 C 605.201 3.87466 -1.81808 0
M  V30 6245 C 604.527 5.18246 -1.31626 0
M  V30 6246 C 605.827 4.11095 -3.22177 0
M  V30 6247 H 607.521 2.17485 -2.05769 0
M  V30 6248 H 605.067 1.04503 -0.990715 0
M  V30 6249 H 607.02 4.16366 -0.649413 0
M  V30 6250 H 605.744 3.25967 0.203259 0
M  V30 6251 H 604.403 3.12012 -1.92468 0
M  V30 6252 H 604.051 5.01881 -0.335378 0
M  V30 6253 H 603.751 5.51829 -2.01887 0
M  V30 6254 H 605.275 5.98462 -1.21143 0
M  V30 6255 H 606.689 4.79316 -3.1453 0
M  V30 6256 H 605.086 4.55982 -3.90129 0
M  V30 6257 H 606.156 3.16468 -3.67391 0
M  V30 6258 N 607.499 1.09233 1.13605 0
M  V30 6259 C 608.724 0.849067 1.89224 0
M  V30 6260 C 609.149 -0.593875 1.78479 0
M  V30 6261 O 608.507 -1.41703 1.13092 0
M  V30 6262 C 608.555 1.28642 3.36873 0
M  V30 6263 O 607.659 0.44363 4.10007 0
M  V30 6264 H 607 0.30767 0.588417 0
M  V30 6265 H 609.53 1.45595 1.43748 0
M  V30 6266 H 609.54 1.27096 3.87699 0
M  V30 6267 H 608.215 2.33729 3.44011 0
M  V30 6268 H 606.792 0.523241 3.69211 0
M  V30 6269 N 608.977 -1.30795 0.87923 0
M  V30 6270 C 609.887 -2.32041 0.345565 0
M  V30 6271 C 610.903 -1.65103 -0.549265 0
M  V30 6272 O 612.079 -1.9645 -0.443763 0
M  V30 6273 C 609.144 -3.43944 -0.436245 0
M  V30 6274 C 608.205 -4.26521 0.48765 0
M  V30 6275 C 607.438 -5.33081 -0.256943 0
M  V30 6276 O 607.661 -5.50762 -1.48381 0
M  V30 6277 O 606.595 -6.00635 0.389985 0
M  V30 6278 H 610.421 -2.79627 1.18501 0
M  V30 6279 H 608.006 -1.3486 0.642885 0
M  V30 6280 H 609.888 -4.12128 -0.879119 0
M  V30 6281 H 608.563 -2.98504 -1.25208 0
M  V30 6282 H 607.47 -3.61057 0.979216 0
M  V30 6283 H 608.803 -4.75551 1.26933 0
M  V30 6284 N 610.455 -0.639598 -1.44038 0
M  V30 6285 C 611.405 0.0823038 -2.27851 0
M  V30 6286 C 612.389 0.807991 -1.39141 0
M  V30 6287 O 613.581 0.692702 -1.62882 0
M  V30 6288 C 610.71 1.05742 -3.26609 0
M  V30 6289 C 609.796 0.330911 -4.22807 0
M  V30 6290 N 610.187 -0.645126 -5.01669 0
M  V30 6291 C 608.485 0.574214 -4.42288 0
M  V30 6292 C 609.186 -1.07513 -5.71678 0
M  V30 6293 N 608.162 -0.412164 -5.42035 0
M  V30 6294 H 611.964 -0.666861 -2.86234 0
M  V30 6295 H 609.478 -0.465777 -1.55577 0
M  V30 6296 H 611.475 1.58927 -3.85419 0
M  V30 6297 H 610.135 1.80679 -2.69787 0
M  V30 6298 H 611.146 -1.02329 -5.0769 0
M  V30 6299 H 607.823 1.30581 -3.96554 0
M  V30 6300 H 609.213 -1.88196 -6.45005 0
M  V30 6301 N 611.933 1.52934 -0.380664 0
M  V30 6302 C 613.161 2.05886 0.204599 0
M  V30 6303 C 613.576 1.25305 1.41223 0
M  V30 6304 O 612.933 0.297504 1.80059 0
M  V30 6305 C 612.984 3.56764 0.583249 0
M  V30 6306 O 612.705 4.34292 -0.576398 0
M  V30 6307 C 614.206 4.2603 1.2253 0
M  V30 6308 H 611.426 0.670193 0.0328991 0
M  V30 6309 H 613.97 1.97148 -0.543397 0
M  V30 6310 H 612.125 3.65603 1.28115 0
M  V30 6311 H 612.539 5.23819 -0.267119 0
M  V30 6312 H 614.013 5.32868 1.44068 0
M  V30 6313 H 614.49 3.80698 2.19011 0
M  V30 6314 H 615.096 4.21485 0.568407 0
M  V30 6315 N 613.412 0.11024 1.57214 0
M  V30 6316 C 614.828 -0.24638 1.57687 0
M  V30 6317 C 615.028 -1.67344 1.12241 0
M  V30 6318 O 614.084 -2.39298 0.805783 0
M  V30 6319 C 615.397 -0.0210288 3.00693 0
M  V30 6320 C 616.945 -0.0876077 3.12877 0
M  V30 6321 C 617.42 0.10994 4.57868 0
M  V30 6322 N 618.911 0.0556135 4.63167 0
M  V30 6323 C 619.646 0.183495 5.73106 0
M  V30 6324 N 619.142 0.367058 6.91827 0
M  V30 6325 N 620.935 0.123689 5.61964 0
M  V30 6326 H 613.086 1.04246 1.85058 0
M  V30 6327 H 615.349 0.40979 0.854854 0
M  V30 6328 H 615.055 0.965203 3.38196 0
M  V30 6329 H 614.929 -0.756748 3.69531 0
M  V30 6330 H 617.316 -1.06436 2.75237 0
M  V30 6331 H 617.397 0.67985 2.466 0
M  V30 6332 H 617.041 1.08362 4.96206 0
M  V30 6333 H 616.971 -0.677397 5.22225 0
M  V30 6334 H 619.462 -0.0831062 3.77809 0
M  V30 6335 H 619.775 0.455739 7.71455 0
M  V30 6336 H 618.12 0.40292 6.93831 0
M  V30 6337 H 621.311 -0.0186928 4.68096 0
M  V30 6338 H 621.484 0.226797 6.47603 0
M  V30 6339 N 614.89 -1.56749 -0.16351 0
M  V30 6340 C 615.823 -1.9213 -1.23132 0
M  V30 6341 C 616.801 -0.785047 -1.42393 0
M  V30 6342 O 617.985 -1.0391 -1.57273 0
M  V30 6343 C 615.112 -2.17901 -2.59301 0
M  V30 6344 C 614.158 -3.40576 -2.5673 0
M  V30 6345 S 614.991 -4.94689 -2.05045 0
M  V30 6346 C 616.147 -5.23564 -3.42975 0
M  V30 6347 H 616.38 -2.824 -0.929383 0
M  V30 6348 H 613.913 -1.4994 -0.368418 0
M  V30 6349 H 615.871 -2.33429 -3.3767 0
M  V30 6350 H 614.532 -1.28324 -2.86691 0
M  V30 6351 H 613.725 -3.55833 -3.5693 0
M  V30 6352 H 613.327 -3.24204 -1.86462 0
M  V30 6353 H 615.619 -5.16019 -4.3901 0
M  V30 6354 H 616.562 -6.25134 -3.32586 0
M  V30 6355 H 616.97 -4.51113 -3.39348 0
M  V30 6356 N 616.368 0.432326 -1.51554 0
M  V30 6357 C 617.596 1.20364 -1.68286 0
M  V30 6358 C 618.011 1.84888 -0.38233 0
M  V30 6359 O 617.368 1.70924 0.639627 0
M  V30 6360 C 617.419 2.28398 -2.80208 0
M  V30 6361 O 617.14 1.66512 -4.05223 0
M  V30 6362 C 618.641 3.18584 -3.08251 0
M  V30 6363 H 615.861 0.36259 -0.564596 0
M  V30 6364 H 618.405 0.511647 -1.97996 0
M  V30 6365 H 616.56 2.93305 -2.53083 0
M  V30 6366 H 616.974 2.37951 -4.67418 0
M  V30 6367 H 618.448 3.90511 -3.90135 0
M  V30 6368 H 618.925 3.79628 -2.2086 0
M  V30 6369 H 619.531 2.59372 -3.37055 0
M  V30 6370 N 617.846 1.41785 0.688094 0
M  V30 6371 C 618.796 1.40684 1.79421 0
M  V30 6372 C 619.78 0.280096 1.58443 0
M  V30 6373 O 620.972 0.521332 1.69148 0
M  V30 6374 C 618.101 1.29874 3.17785 0
M  V30 6375 C 617.187 2.47442 3.44432 0
M  V30 6376 N 617.578 3.72895 3.41736 0
M  V30 6377 C 615.876 2.41416 3.75013 0
M  V30 6378 C 616.577 4.50912 3.67496 0
M  V30 6379 N 615.553 3.81131 3.87608 0
M  V30 6380 H 619.355 2.35591 1.7571 0
M  V30 6381 H 616.869 1.35946 0.888393 0
M  V30 6382 H 618.866 1.27168 3.97031 0
M  V30 6383 H 617.526 0.359587 3.22703 0
M  V30 6384 H 618.537 4.05676 3.21943 0
M  V30 6385 H 615.214 1.56011 3.87256 0
M  V30 6386 H 616.604 5.59865 3.71484 0
M  V30 6387 N 619.324 -0.923095 1.27737 0
M  V30 6388 C 620.256 -2.02871 1.06658 0
M  V30 6389 C 621.269 -1.62786 0.0212095 0
M  V30 6390 O 622.458 -1.76548 0.263267 0
M  V30 6391 C 619.558 -3.33603 0.59682 0
M  V30 6392 C 618.731 -4.02354 1.71551 0
M  V30 6393 C 617.79 -5.11364 1.24071 0
M  V30 6394 O 616.816 -5.35075 1.94123 0
M  V30 6395 N 618.018 -5.80416 0.0988444 0
M  V30 6396 H 620.783 -2.21515 2.01869 0
M  V30 6397 H 618.344 -1.09378 1.19365 0
M  V30 6398 H 620.336 -4.03845 0.262984 0
M  V30 6399 H 618.906 -3.11499 -0.262187 0
M  V30 6400 H 618.126 -3.25786 2.2194 0
M  V30 6401 H 619.414 -4.45035 2.46619 0
M  V30 6402 H 618.812 -5.63611 -0.485743 0
M  V30 6403 H 617.369 -6.51563 -0.17578 0
M  V30 6404 N 620.802 -1.09834 -1.13024 0
M  V30 6405 C 622.05 -0.835297 -1.8403 0
M  V30 6406 C 622.371 0.640944 -1.84165 0
M  V30 6407 O 621.641 1.46517 -1.30037 0
M  V30 6408 H 620.221 -0.306018 -0.681441 0
M  V30 6409 H 622.883 -1.38734 -1.36891 0
M  V30 6410 H 621.979 -1.19258 -2.88416 0
M  V30 6411 N 622.28 1.30327 -0.886154 0
M  V30 6412 C 623.691 1.78243 -0.555554 0
M  V30 6413 C 624.042 1.72849 0.928314 0
M  V30 6414 O 623.167 1.30607 1.72542 0
M  V30 6415 C 623.762 3.23654 -1.00168 0
M  V30 6416 C 622.321 3.69401 -0.722471 0
M  V30 6417 C 621.468 2.50753 -1.18399 0
M  V30 6418 H 624.419 1.1718 -1.07026 0
M  V30 6419 H 624.44 3.79056 -0.331152 0
M  V30 6420 H 623.952 3.27548 -2.08169 0
M  V30 6421 H 622.053 3.70995 0.345496 0
M  V30 6422 H 622.166 4.60818 -1.31085 0
M  V30 6423 H 620.53 2.47452 -0.603303 0
M  V30 6424 H 621.313 2.57383 -2.27176 0
M  V30 6425 N 623.758 0.647228 1.43697 0
M  V30 6426 C 624.708 -0.0702191 2.27892 0
M  V30 6427 C 625.692 -0.800601 1.39568 0
M  V30 6428 O 626.884 -0.684055 1.63247 0
M  V30 6429 C 624.013 -1.04008 3.27165 0
M  V30 6430 C 623.099 -0.308484 4.22977 0
M  V30 6431 N 623.49 0.671721 5.0132 0
M  V30 6432 C 621.788 -0.550751 4.42586 0
M  V30 6433 C 622.489 1.10543 5.711 0
M  V30 6434 N 621.465 0.440903 5.41809 0
M  V30 6435 H 625.267 0.682031 2.85877 0
M  V30 6436 H 622.781 0.474022 1.55328 0
M  V30 6437 H 624.778 -1.56881 3.86256 0
M  V30 6438 H 623.438 -1.79246 2.70742 0
M  V30 6439 H 624.449 1.0502 5.0714 0
M  V30 6440 H 621.126 -1.28476 3.97241 0
M  V30 6441 H 622.516 1.91614 6.43998 0
M  V30 6442 N 625.236 -1.5273 0.388769 0
M  V30 6443 C 626.513 -1.93981 -0.251133 0
M  V30 6444 C 626.893 -1.32418 -1.64404 0
M  V30 6445 O 626.241 -0.492074 -2.23139 0
M  V30 6446 C 626.451 -3.47891 -0.27802 0
M  V30 6447 C 627.799 -4.21559 -0.507229 0
M  V30 6448 O 628.823 -3.54394 -0.358252 0
M  V30 6449 O 627.682 -5.40626 -0.799094 0
M  V30 6450 H 624.776 -0.812157 -0.15598 0
M  V30 6451 H 627.322 -1.63809 0.443237 0
M  V30 6452 H 626.094 -3.8503 0.697669 0
M  V30 6453 H 625.717 -3.84364 -1.01733 0
M  V30 6454 N 626.714 -0.118576 -1.57153 0
M  V30 6455 C 628.13 0.238014 -1.57815 0
M  V30 6456 C 628.33 1.66747 -1.13127 0
M  V30 6457 O 627.386 2.38867 -0.818462 0
M  V30 6458 C 628.699 0.00508207 -3.007 0
M  V30 6459 C 630.247 0.0710139 -3.12919 0
M  V30 6460 C 630.722 -0.13422 -4.57803 0
M  V30 6461 N 632.213 -0.0801755 -4.63131 0
M  V30 6462 C 632.948 -0.213885 -5.73001 0
M  V30 6463 N 632.444 -0.403742 -6.91623 0
M  V30 6464 N 634.237 -0.15349 -5.6189 0
M  V30 6465 H 626.388 -1.05226 -1.84503 0
M  V30 6466 H 628.651 -0.414318 -0.852669 0
M  V30 6467 H 628.357 -0.983125 -3.3768 0
M  V30 6468 H 628.231 0.73714 -3.69927 0
M  V30 6469 H 630.618 1.04975 -2.75798 0
M  V30 6470 H 630.699 -0.692918 -2.46236 0
M  V30 6471 H 630.343 -1.10992 -4.95624 0
M  V30 6472 H 630.273 0.649692 -5.22577 0
M  V30 6473 H 632.764 0.0630689 -3.77847 0
M  V30 6474 H 633.077 -0.496645 -7.71202 0
M  V30 6475 H 631.422 -0.43971 -6.93608 0
M  V30 6476 H 634.613 -0.00613174 -4.681 0
M  V30 6477 H 634.786 -0.261138 -6.47474 0
M  V30 6478 N 628.193 1.56834 0.155195 0
M  V30 6479 C 629.44 1.82898 0.869179 0
M  V30 6480 C 629.768 0.698194 1.81537 0
M  V30 6481 O 629.023 -0.313404 1.93174 0
M  V30 6482 C 629.322 3.15239 1.68402 0
M  V30 6483 C 628.988 4.42123 0.885341 0
M  V30 6484 C 627.65 4.76583 0.664971 0
M  V30 6485 C 630.002 5.20178 0.326234 0
M  V30 6486 C 627.33 5.86566 -0.125346 0
M  V30 6487 C 629.682 6.3099 -0.45108 0
M  V30 6488 C 628.346 6.64006 -0.682102 0
M  V30 6489 H 627.616 0.66927 0.318055 0
M  V30 6490 H 630.263 1.91036 0.133241 0
M  V30 6491 H 628.568 3.02515 2.48982 0
M  V30 6492 H 630.265 3.32618 2.23978 0
M  V30 6493 H 626.855 4.15102 1.06716 0
M  V30 6494 H 631.039 4.93936 0.483787 0
M  V30 6495 H 626.295 6.10594 -0.313915 0
M  V30 6496 H 630.469 6.9067 -0.89149 0
M  V30 6497 H 628.096 7.49065 -1.29636 0
M  V30 6498 N 629.671 -0.424282 1.51781 0
M  V30 6499 C 630.92 -1.16961 1.64326 0
M  V30 6500 C 631.233 -1.92035 0.371749 0
M  V30 6501 O 632.439 -2.68873 0.37676 0
M  V30 6502 C 630.895 -2.12782 2.90262 0
M  V30 6503 C 630.503 -1.43295 4.24465 0
M  V30 6504 C 632.247 -2.87667 3.12166 0
M  V30 6505 C 630.154 -2.37676 5.41538 0
M  V30 6506 H 629.084 -0.440293 0.612093 0
M  V30 6507 H 631.735 -0.435431 1.78259 0
M  V30 6508 H 630.117 -2.8969 2.69992 0
M  V30 6509 H 631.291 -0.718564 4.55163 0
M  V30 6510 H 629.606 -0.805118 4.08542 0
M  V30 6511 H 632.203 -3.58395 3.96808 0
M  V30 6512 H 632.546 -3.49758 2.25776 0
M  V30 6513 H 633.079 -2.17863 3.32837 0
M  V30 6514 H 629.818 -1.80255 6.30229 0
M  V30 6515 H 629.338 -3.07132 5.15199 0
M  V30 6516 H 631.017 -2.98529 5.74012 0
M  V30 6517 N 631.149 -1.42148 -0.680565 0
M  V30 6518 C 632.059 -1.47565 -1.82378 0
M  V30 6519 C 633.075 -0.36489 -1.70131 0
M  V30 6520 O 634.251 -0.614916 -1.91783 0
M  V30 6521 C 631.316 -1.37013 -3.18478 0
M  V30 6522 C 630.377 -2.58532 -3.42724 0
M  V30 6523 C 629.61 -2.48473 -4.72331 0
M  V30 6524 O 629.833 -1.51745 -5.49845 0
M  V30 6525 O 628.767 -3.38503 -4.97694 0
M  V30 6526 H 632.593 -2.44045 -1.80764 0
M  V30 6527 H 630.178 -1.23849 -0.835569 0
M  V30 6528 H 632.06 -1.33468 -3.99705 0
M  V30 6529 H 630.735 -0.436552 -3.20743 0
M  V30 6530 H 629.642 -2.67652 -2.61368 0
M  V30 6531 H 630.975 -3.50769 -3.45286 0
M  V30 6532 N 632.627 0.916307 -1.28225 0
M  V30 6533 C 633.557 2.0352 -1.14464 0
M  V30 6534 C 634.538 1.70045 -0.0430844 0
M  V30 6535 O 635.723 1.92954 -0.219619 0
M  V30 6536 C 632.853 3.37889 -0.803027 0
M  V30 6537 C 631.807 3.85516 -1.85908 0
M  V30 6538 C 631.133 5.1682 -1.37116 0
M  V30 6539 C 632.433 4.07655 -3.26519 0
M  V30 6540 H 634.127 2.1529 -2.08064 0
M  V30 6541 H 631.673 1.03446 -1.00174 0
M  V30 6542 H 633.626 4.15654 -0.693537 0
M  V30 6543 H 632.35 3.26164 0.168674 0
M  V30 6544 H 631.009 3.09953 -1.95767 0
M  V30 6545 H 630.657 5.01497 -0.38859 0
M  V30 6546 H 630.357 5.49657 -2.07728 0
M  V30 6547 H 631.881 5.97143 -1.27484 0
M  V30 6548 H 633.295 4.75953 -3.19596 0
M  V30 6549 H 631.692 4.51818 -3.94943 0
M  V30 6550 H 632.762 3.12553 -3.70727 0
M  V30 6551 N 634.105 1.10431 1.1244 0
M  V30 6552 C 635.053 0.747974 2.20246 0
M  V30 6553 C 636.047 -0.255848 1.67457 0
M  V30 6554 O 637.253 -0.116221 1.79624 0
M  V30 6555 H 633.628 0.223946 0.71788 0
M  V30 6556 H 635.599 1.6661 2.47556 0
M  V30 6557 C 634.348 0.195957 3.47147 0
M  V30 6558 H 633.671 0.959606 3.88113 0
M  V30 6559 H 635.111 -0.0153154 4.23997 0
M  V30 6560 C 633.57 -1.07132 3.19413 0
M  V30 6561 O 634.1 -2.15284 3.3914 0
M  V30 6562 N 632.306 -0.98994 2.73219 0
M  V30 6563 H 631.853 -0.109736 2.57366 0
M  V30 6564 H 631.811 -1.83856 2.55038 0
M  V30 6565 N 635.583 -1.29855 0.893053 0
M  V30 6566 C 636.808 -2.00512 0.530066 0
M  V30 6567 C 637.233 -1.66446 -0.876199 0
M  V30 6568 O 636.591 -0.885446 -1.58207 0
M  V30 6569 C 636.639 -3.53308 0.721505 0
M  V30 6570 O 635.743 -4.11764 -0.228994 0
M  V30 6571 H 635.084 -0.630617 0.207891 0
M  V30 6572 H 637.614 -1.6551 1.20282 0
M  V30 6573 H 637.624 -4.03206 0.623599 0
M  V30 6574 H 636.299 -3.77439 1.74678 0
M  V30 6575 H 634.876 -3.72805 -0.0841034 0
M  V30 6576 N 637.061 -0.65484 -1.43351 0
M  V30 6577 C 638.289 -0.176685 -2.06144 0
M  V30 6578 C 638.704 1.15831 -1.49093 0
M  V30 6579 O 638.061 1.71542 -0.622868 0
M  V30 6580 C 638.112 -0.0813326 -3.61408 0
M  V30 6581 O 637.833 -1.36355 -4.1634 0
M  V30 6582 C 639.334 0.422706 -4.4128 0
M  V30 6583 H 636.554 -0.0906429 -0.66485 0
M  V30 6584 H 639.098 -0.895945 -1.83829 0
M  V30 6585 H 637.253 0.588496 -3.82904 0
M  V30 6586 H 637.667 -1.22381 -5.10023 0
M  V30 6587 H 639.141 0.438375 -5.50257 0
M  V30 6588 H 639.618 1.45432 -4.14423 0
M  V30 6589 H 640.224 -0.214687 -4.24758 0
M  V30 6590 N 638.539 1.52521 -0.396863 0
M  V30 6591 C 639.469 2.29582 0.425941 0
M  V30 6592 C 640.45 1.33281 1.05689 0
M  V30 6593 O 641.635 1.62181 1.06823 0
M  V30 6594 C 638.765 3.10821 1.54943 0
M  V30 6595 C 637.719 4.15069 1.04413 0
M  V30 6596 C 637.045 4.84578 2.26028 0
M  V30 6597 C 638.345 5.22191 0.106767 0
M  V30 6598 H 640.039 2.98612 -0.217045 0
M  V30 6599 H 637.585 1.43611 -0.105826 0
M  V30 6600 H 639.538 3.63492 2.13193 0
M  V30 6601 H 638.262 2.39538 2.22011 0
M  V30 6602 H 636.921 3.63389 0.484118 0
M  V30 6603 H 636.569 4.09835 2.91623 0
M  V30 6604 H 636.269 5.55043 1.92876 0
M  V30 6605 H 637.793 5.40056 2.84906 0
M  V30 6606 H 639.207 5.70176 0.597685 0
M  V30 6607 H 637.604 5.99947 -0.135352 0
M  V30 6608 H 638.674 4.77531 -0.842134 0
M  V30 6609 N 640.017 0.126909 1.57088 0
M  V30 6610 C 641.264 -0.529168 1.95464 0
M  V30 6611 C 641.592 -1.6618 1.01067 0
M  V30 6612 O 640.847 -1.95667 0.0360254 0
M  V30 6613 C 641.146 -1.095 3.40212 0
M  V30 6614 C 640.812 -0.0829015 4.50824 0
M  V30 6615 C 639.474 0.195377 4.80803 0
M  V30 6616 C 641.826 0.606411 5.1766 0
M  V30 6617 C 639.154 1.16912 5.74933 0
M  V30 6618 C 641.506 1.56884 6.12838 0
M  V30 6619 C 640.17 1.85502 6.41206 0
M  V30 6620 H 639.44 -0.193636 0.715252 0
M  V30 6621 H 642.087 0.209489 1.90351 0
M  V30 6622 H 640.392 -1.91058 3.42059 0
M  V30 6623 H 642.089 -1.61087 3.67222 0
M  V30 6624 H 638.679 -0.309979 4.27478 0
M  V30 6625 H 642.863 0.404597 4.94648 0
M  V30 6626 H 638.119 1.3975 5.95214 0
M  V30 6627 H 642.293 2.10859 6.6371 0
M  V30 6628 H 639.92 2.61109 7.13951 0
M  V30 6629 N 641.495 -1.56914 -0.146875 0
M  V30 6630 C 642.425 -2.01308 -1.1831 0
M  V30 6631 C 643.406 -0.892664 -1.44795 0
M  V30 6632 O 644.591 -1.16048 -1.55713 0
M  V30 6633 C 641.721 -2.3938 -2.51624 0
M  V30 6634 C 640.675 -3.54608 -2.3966 0
M  V30 6635 C 640.001 -3.78493 -3.77686 0
M  V30 6636 C 641.301 -4.87269 -1.88058 0
M  V30 6637 H 642.995 -2.88123 -0.813964 0
M  V30 6638 H 640.541 -1.38615 -0.3901 0
M  V30 6639 H 642.494 -2.69037 -3.24341 0
M  V30 6640 H 641.218 -1.49502 -2.90373 0
M  V30 6641 H 639.877 -3.25116 -1.69396 0
M  V30 6642 H 639.525 -2.85866 -4.13871 0
M  V30 6643 H 639.225 -4.56039 -3.70543 0
M  V30 6644 H 640.749 -4.10576 -4.51951 0
M  V30 6645 H 642.163 -5.15644 -2.50568 0
M  V30 6646 H 640.56 -5.68622 -1.91805 0
M  V30 6647 H 641.63 -4.77634 -0.836277 0
M  V30 6648 N 642.974 0.416227 -1.52004 0
M  V30 6649 C 643.904 1.51365 -1.77795 0
M  V30 6650 C 644.885 1.58059 -0.628601 0
M  V30 6651 O 646.07 1.73447 -0.873478 0
M  V30 6652 C 643.2 2.89256 -1.92219 0
M  V30 6653 C 642.154 2.97415 -3.0778 0
M  V30 6654 C 641.48 4.37492 -3.07417 0
M  V30 6655 C 642.78 2.69551 -4.47369 0
M  V30 6656 H 644.474 1.30033 -2.69688 0
M  V30 6657 H 642.02 0.624112 -1.29772 0
M  V30 6658 H 643.973 3.66008 -2.08845 0
M  V30 6659 H 642.697 3.11866 -0.969917 0
M  V30 6660 H 641.356 2.23107 -2.90893 0
M  V30 6661 H 641.004 4.571 -2.09925 0
M  V30 6662 H 640.704 4.43877 -3.85029 0
M  V30 6663 H 642.228 5.16188 -3.26162 0
M  V30 6664 H 643.642 3.36028 -4.64497 0
M  V30 6665 H 642.039 2.87321 -5.26846 0
M  V30 6666 H 643.109 1.65029 -4.55953 0
M  V30 6667 N 644.452 1.42507 0.673017 0
M  V30 6668 C 645.868 1.25472 0.986355 0
M  V30 6669 C 646.068 0.160181 2.00862 0
M  V30 6670 O 645.124 -0.467993 2.48125 0
M  V30 6671 C 646.437 2.61219 1.48947 0
M  V30 6672 C 647.985 2.68589 1.60715 0
M  V30 6673 C 648.46 4.04707 2.14422 0
M  V30 6674 N 649.951 4.0667 2.21752 0
M  V30 6675 C 650.686 5.0881 2.64386 0
M  V30 6676 N 650.182 6.21332 3.0646 0
M  V30 6677 N 651.975 4.96166 2.64151 0
M  V30 6678 H 644.126 2.124 -0.00378532 0
M  V30 6679 H 646.389 0.946046 0.0608367 0
M  V30 6680 H 646.095 3.42179 0.812812 0
M  V30 6681 H 645.969 2.85261 2.46791 0
M  V30 6682 H 648.356 1.87974 2.27486 0
M  V30 6683 H 648.437 2.48333 0.613552 0
M  V30 6684 H 648.081 4.8578 1.48258 0
M  V30 6685 H 648.011 4.22315 3.14575 0
M  V30 6686 H 650.502 3.25438 1.92089 0
M  V30 6687 H 650.815 6.95118 3.37684 0
M  V30 6688 H 649.16 6.24835 3.04313 0
M  V30 6689 H 652.351 4.07334 2.30644 0
M  V30 6690 H 652.524 5.759 2.97057 0
M  V30 6691 N 645.93 -0.909495 1.28709 0
M  V30 6692 C 647.177 -1.65905 1.16111 0
M  V30 6693 C 647.505 -1.92334 -0.289436 0
M  V30 6694 O 646.76 -1.52495 -1.22653 0
M  V30 6695 C 647.059 -3.02117 1.90945 0
M  V30 6696 C 646.725 -2.95332 3.40719 0
M  V30 6697 C 645.387 -2.93189 3.81567 0
M  V30 6698 C 647.739 -2.85264 4.36204 0
M  V30 6699 C 645.067 -2.78784 5.16233 0
M  V30 6700 C 647.419 -2.724 5.70948 0
M  V30 6701 C 646.083 -2.68617 6.11066 0
M  V30 6702 H 645.353 -0.60709 0.42488 0
M  V30 6703 H 648 -1.05932 1.59533 0
M  V30 6704 H 646.305 -3.65901 1.40085 0
M  V30 6705 H 648.002 -3.59026 1.7861 0
M  V30 6706 H 644.592 -2.97797 3.08245 0
M  V30 6707 H 648.776 -2.86005 4.05605 0
M  V30 6708 H 644.032 -2.74254 5.46438 0
M  V30 6709 H 648.206 -2.63579 6.44592 0
M  V30 6710 H 645.833 -2.57213 7.15364 0
M  V30 6711 N 647.408 -1.11026 -1.11852 0
M  V30 6712 C 648.657 -0.851249 -1.82857 0
M  V30 6713 C 648.97 0.62514 -1.85341 0
M  V30 6714 O 650.176 1.00026 -2.52403 0
M  V30 6715 C 648.632 -1.47309 -3.28372 0
M  V30 6716 C 648.24 -2.9832 -3.34229 0
M  V30 6717 C 649.984 -1.29373 -4.04306 0
M  V30 6718 C 647.891 -3.53509 -4.74115 0
M  V30 6719 H 646.821 -0.314794 -0.685143 0
M  V30 6720 H 649.472 -1.33499 -1.25898 0
M  V30 6721 H 647.854 -0.917017 -3.85236 0
M  V30 6722 H 649.028 -3.60295 -2.87271 0
M  V30 6723 H 647.343 -3.15482 -2.71772 0
M  V30 6724 H 649.94 -1.68042 -5.07608 0
M  V30 6725 H 650.283 -0.235879 -4.15631 0
M  V30 6726 H 650.816 -1.8182 -3.53817 0
M  V30 6727 H 647.555 -4.58987 -4.67986 0
M  V30 6728 H 647.075 -2.96305 -5.21501 0
M  V30 6729 H 648.754 -3.51693 -5.43066 0
M  V30 6730 N 648.886 1.2938 -0.899927 0
M  V30 6731 C 649.834 2.29675 -0.367698 0
M  V30 6732 C 650.828 1.60787 0.533282 0
M  V30 6733 O 652.034 1.75126 0.416058 0
M  V30 6734 H 648.409 0.745284 -0.100279 0
M  V30 6735 H 650.38 2.72008 -1.22696 0
M  V30 6736 C 649.129 3.45512 0.389483 0
M  V30 6737 H 648.452 3.98713 -0.294575 0
M  V30 6738 H 649.892 4.17725 0.726744 0
M  V30 6739 C 648.351 2.969 1.59223 0
M  V30 6740 O 648.881 2.98195 2.69152 0
M  V30 6741 N 647.087 2.52728 1.43447 0
M  V30 6742 H 646.634 2.51873 0.540148 0
M  V30 6743 H 646.592 2.20561 2.24054 0
M  V30 6744 N 650.364 0.662433 1.43002 0
M  V30 6745 C 651.327 -0.0142016 2.29196 0
M  V30 6746 C 652.327 -0.741394 1.42688 0
M  V30 6747 O 653.517 -0.581257 1.64216 0
M  V30 6748 C 650.649 -1.03084 3.24941 0
M  V30 6749 H 651.842 0.7443 2.90517 0
M  V30 6750 H 649.395 0.424133 1.50435 0
M  V30 6751 H 650.13 -1.81826 2.68533 0
M  V30 6752 H 649.915 -0.512946 3.8873 0
M  V30 6753 H 651.405 -1.50308 3.89612 0
M  V30 6754 N 651.842 -1.52309 0.404946 0
M  V30 6755 C 652.79 -2.28452 -0.437321 0
M  V30 6756 C 653.784 -1.32975 -1.04948 0
M  V30 6757 O 654.99 -1.50451 -0.988159 0
M  V30 6758 H 651.365 -0.734824 -0.159805 0
M  V30 6759 H 653.336 -2.97542 0.22615 0
M  V30 6760 C 652.085 -3.11536 -1.54404 0
M  V30 6761 H 651.408 -3.84871 -1.08233 0
M  V30 6762 H 652.848 -3.67926 -2.10729 0
M  V30 6763 C 651.307 -2.24833 -2.50902 0
M  V30 6764 O 651.837 -1.88574 -3.54687 0
M  V30 6765 N 650.043 -1.88685 -2.21012 0
M  V30 6766 H 649.59 -2.18371 -1.36646 0
M  V30 6767 H 649.548 -1.30966 -2.85824 0
M  V30 6768 N 653.32 -0.135238 -1.57019 0
M  V30 6769 C 654.566 0.519563 -1.96032 0
M  V30 6770 C 654.899 1.65284 -1.01955 0
M  V30 6771 O 654.174 1.94408 -0.059727 0
M  V30 6772 C 654.457 1.0369 -3.44848 0
M  V30 6773 C 654.31 -0.0940754 -4.49702 0
M  V30 6774 C 655.629 1.92254 -3.95887 0
M  V30 6775 H 652.748 0.18739 -0.712779 0
M  V30 6776 H 655.39 -0.214086 -1.8879 0
M  V30 6777 H 653.54 1.66209 -3.5115 0
M  V30 6778 H 655.212 -0.73 -4.55487 0
M  V30 6779 H 653.455 -0.754924 -4.27181 0
M  V30 6780 H 654.126 0.309419 -5.51132 0
M  V30 6781 H 656.602 1.39581 -3.9199 0
M  V30 6782 H 655.478 2.25364 -5.00502 0
M  V30 6783 H 655.739 2.85513 -3.37543 0
M  V30 6784 N 654.798 1.5699 0.138552 0
M  V30 6785 C 656.047 1.82998 0.848205 0
M  V30 6786 C 656.36 0.717829 1.81952 0
M  V30 6787 O 657.566 0.863756 2.57394 0
M  V30 6788 C 656.022 3.24379 1.55904 0
M  V30 6789 C 655.63 4.43552 0.62971 0
M  V30 6790 C 657.374 3.59654 2.25498 0
M  V30 6791 C 655.281 5.75957 1.34266 0
M  V30 6792 H 654.211 0.682495 0.320495 0
M  V30 6793 H 656.862 1.83222 0.100924 0
M  V30 6794 H 655.244 3.18567 2.35226 0
M  V30 6795 H 656.418 4.6062 -0.128882 0
M  V30 6796 H 654.733 4.16379 0.0417526 0
M  V30 6797 H 657.33 4.55837 2.79493 0
M  V30 6798 H 657.673 2.86124 3.02388 0
M  V30 6799 H 658.206 3.67164 1.53087 0
M  V30 6800 H 654.945 6.52604 0.615441 0
M  V30 6801 H 654.465 5.62811 2.07375 0
M  V30 6802 H 656.144 6.19046 1.88126 0
M  V30 6803 N 656.276 -0.40816 1.52223 0
M  V30 6804 C 657.239 -1.48 1.7501 0
M  V30 6805 C 658.239 -1.48367 0.619996 0
M  V30 6806 O 659.429 -1.49874 0.887881 0
M  V30 6807 C 656.561 -2.87403 1.83336 0
M  V30 6808 H 657.754 -1.29086 2.70697 0
M  V30 6809 H 655.307 -0.638715 1.42654 0
M  V30 6810 H 656.042 -3.11686 0.895677 0
M  V30 6811 H 655.827 -2.8854 2.65494 0
M  V30 6812 H 657.317 -3.65103 2.02705 0
M  V30 6813 N 657.755 -1.42862 -0.66545 0
M  V30 6814 C 658.665 -1.49491 -1.80803 0
M  V30 6815 C 659.681 -0.382914 -1.69734 0
M  V30 6816 O 660.857 -0.635223 -1.9112 0
M  V30 6817 C 657.922 -1.40383 -3.17007 0
M  V30 6818 C 656.983 -2.62152 -3.39963 0
M  V30 6819 C 656.216 -2.53469 -4.69669 0
M  V30 6820 O 656.439 -1.57568 -5.48205 0
M  V30 6821 O 655.373 -3.43763 -4.94075 0
M  V30 6822 H 659.199 -2.45949 -1.78165 0
M  V30 6823 H 656.784 -1.24728 -0.822387 0
M  V30 6824 H 658.666 -1.377 -3.98267 0
M  V30 6825 H 657.341 -0.470546 -3.20262 0
M  V30 6826 H 656.248 -2.70409 -2.58515 0
M  V30 6827 H 657.581 -3.54411 -3.41546 0
M  V30 6828 N 659.233 0.902656 -1.29189 0
M  V30 6829 C 660.163 2.02294 -1.16616 0
M  V30 6830 C 661.144 1.6999 -0.0611175 0
M  V30 6831 O 662.329 1.9271 -0.240072 0
M  V30 6832 C 659.459 3.37018 -0.83882 0
M  V30 6833 C 658.413 3.83522 -1.89986 0
M  V30 6834 C 657.739 5.15337 -1.42589 0
M  V30 6835 C 659.039 4.04169 -3.30824 0
M  V30 6836 H 660.733 2.13071 -2.10336 0
M  V30 6837 H 658.279 1.02378 -1.01266 0
M  V30 6838 H 660.232 4.14895 -0.737584 0
M  V30 6839 H 658.956 3.26325 0.134071 0
M  V30 6840 H 657.615 3.07859 -1.99043 0
M  V30 6841 H 657.263 5.01056 -0.441759 0
M  V30 6842 H 656.963 5.47423 -2.13547 0
M  V30 6843 H 658.487 5.95758 -1.3381 0
M  V30 6844 H 659.901 4.72537 -3.24626 0
M  V30 6845 H 658.298 4.47604 -3.99713 0
M  V30 6846 H 659.368 3.08604 -3.74021 0
M  V30 6847 N 660.711 1.11618 1.11262 0
M  V30 6848 C 661.958 0.86618 1.8304 0
M  V30 6849 C 662.286 -0.608149 1.84748 0
M  V30 6850 O 661.541 -1.46508 1.29745 0
M  V30 6851 C 661.84 1.37529 3.2988 0
M  V30 6852 C 661.506 2.86317 3.4833 0
M  V30 6853 C 660.168 3.26945 3.53073 0
M  V30 6854 C 662.52 3.82136 3.54431 0
M  V30 6855 C 659.848 4.62117 3.61475 0
M  V30 6856 C 662.2 5.17128 3.64365 0
M  V30 6857 C 660.864 5.57312 3.67369 0
M  V30 6858 H 660.134 0.316958 0.66979 0
M  V30 6859 H 662.781 1.3949 1.31205 0
M  V30 6860 H 661.086 0.766842 3.84222 0
M  V30 6861 H 662.783 1.15817 3.83911 0
M  V30 6862 H 659.373 2.53889 3.45309 0
M  V30 6863 H 663.557 3.51847 3.50025 0
M  V30 6864 H 658.813 4.92655 3.62079 0
M  V30 6865 H 662.987 5.91208 3.68029 0
M  V30 6866 H 660.614 6.62045 3.73632 0
M  V30 6867 N 662.189 -1.289 0.906776 0
M  V30 6868 C 663.436 -1.95269 0.536326 0
M  V30 6869 C 663.764 -1.71435 -0.918711 0
M  V30 6870 O 663.019 -1.02431 -1.66752 0
M  V30 6871 C 663.318 -3.48704 0.783617 0
M  V30 6872 C 662.984 -3.92626 2.21711 0
M  V30 6873 C 661.646 -4.04329 2.60906 0
M  V30 6874 C 663.998 -4.15218 3.15029 0
M  V30 6875 C 661.326 -4.35998 3.92584 0
M  V30 6876 C 663.678 -4.48365 4.46264 0
M  V30 6877 C 662.342 -4.58278 4.85322 0
M  V30 6878 H 661.612 -0.714538 0.196256 0
M  V30 6879 H 664.259 -1.53366 1.14678 0
M  V30 6880 H 662.564 -3.91696 0.0903048 0
M  V30 6881 H 664.261 -3.98162 0.476267 0
M  V30 6882 H 660.851 -3.84038 1.90296 0
M  V30 6883 H 665.035 -4.05636 2.8596 0
M  V30 6884 H 660.291 -4.41878 4.22557 0
M  V30 6885 H 664.465 -4.64795 5.18593 0
M  V30 6886 H 662.092 -4.82573 5.87391 0
M  V30 6887 N 663.667 -0.670007 -1.42649 0
M  V30 6888 C 665.083 -0.33911 -1.55956 0
M  V30 6889 C 665.283 1.1558 -1.65056 0
M  V30 6890 O 664.339 1.94111 -1.61485 0
M  V30 6891 C 665.652 -1.06522 -2.812 0
M  V30 6892 C 667.2 -1.04708 -2.94966 0
M  V30 6893 C 667.675 -1.75442 -4.23065 0
M  V30 6894 N 669.166 -1.72286 -4.29967 0
M  V30 6895 C 669.901 -2.23877 -5.27889 0
M  V30 6896 N 669.397 -2.83829 -6.31991 0
M  V30 6897 N 671.19 -2.14279 -5.19654 0
M  V30 6898 H 663.341 -1.6399 -1.34986 0
M  V30 6899 H 665.604 -0.690603 -0.649439 0
M  V30 6900 H 665.31 -2.12033 -2.80597 0
M  V30 6901 H 665.184 -0.627398 -3.71946 0
M  V30 6902 H 667.571 -0.000315966 -2.951 0
M  V30 6903 H 667.652 -1.52374 -2.05465 0
M  V30 6904 H 667.296 -2.80084 -4.23693 0
M  V30 6905 H 667.226 -1.25229 -5.11493 0
M  V30 6906 H 669.717 -1.28554 -3.55362 0
M  V30 6907 H 670.03 -3.20827 -7.03057 0
M  V30 6908 H 668.375 -2.87896 -6.32567 0
M  V30 6909 H 671.566 -1.67135 -4.37245 0
M  V30 6910 H 671.739 -2.54792 -5.95806 0
M  V30 6911 N 665.145 1.52092 -0.413018 0
M  V30 6912 C 666.556 1.86617 0.0556967 0
M  V30 6913 C 666.907 1.33156 1.44097 0
M  V30 6914 O 666.032 0.672417 2.05688 0
M  V30 6915 C 666.627 3.38628 0.107844 0
M  V30 6916 C 665.186 3.72778 0.520904 0
M  V30 6917 C 664.333 2.75649 -0.302109 0
M  V30 6918 H 667.284 1.45663 -0.629919 0
M  V30 6919 H 667.305 3.69152 0.922324 0
M  V30 6920 H 666.817 3.77508 -0.900506 0
M  V30 6921 H 664.918 3.39478 1.53575 0
M  V30 6922 H 665.031 4.7838 0.262591 0
M  V30 6923 H 663.395 2.53603 0.236115 0
M  V30 6924 H 664.178 3.17369 -1.30888 0
M  V30 6925 N 666.623 0.143563 1.56945 0
M  V30 6926 C 667.872 -0.50835 1.95189 0
M  V30 6927 C 668.185 -1.66239 1.03073 0
M  V30 6928 O 669.391 -2.3787 1.30882 0
M  V30 6929 C 667.847 -0.955735 3.46978 0
M  V30 6930 C 667.455 0.171183 4.47673 0
M  V30 6931 C 669.199 -1.57763 3.94095 0
M  V30 6932 C 667.106 -0.294279 5.90667 0
M  V30 6933 H 666.036 -0.193679 0.728701 0
M  V30 6934 H 668.687 0.227357 1.82086 0
M  V30 6935 H 667.069 -1.7466 3.55401 0
M  V30 6936 H 668.243 0.948049 4.50942 0
M  V30 6937 H 666.558 0.701273 4.10452 0
M  V30 6938 H 669.155 -1.93745 4.98364 0
M  V30 6939 H 669.498 -2.46531 3.35452 0
M  V30 6940 H 670.031 -0.851728 3.88575 0
M  V30 6941 H 666.77 0.557939 6.53121 0
M  V30 6942 H 666.29 -1.0371 5.90766 0
M  V30 6943 H 667.969 -0.747426 6.42668 0
M  V30 6944 N 668.101 -1.57061 -0.130224 0
M  V30 6945 C 669.35 -1.83446 -0.838488 0
M  V30 6946 C 669.663 -0.727468 -1.81569 0
M  V30 6947 O 670.869 -0.877394 -2.56932 0
M  V30 6948 C 669.325 -3.25201 -1.54182 0
M  V30 6949 C 668.933 -4.4388 -0.606178 0
M  V30 6950 C 670.677 -3.60844 -2.23588 0
M  V30 6951 C 668.584 -5.76661 -1.31209 0
M  V30 6952 H 667.514 -0.684185 -0.316871 0
M  V30 6953 H 670.165 -1.83273 -0.0912059 0
M  V30 6954 H 668.547 -3.1981 -2.33533 0
M  V30 6955 H 669.721 -4.60545 0.153308 0
M  V30 6956 H 668.036 -4.16395 -0.0196705 0
M  V30 6957 H 670.633 -4.57313 -2.77072 0
M  V30 6958 H 670.976 -2.87724 -3.00867 0
M  V30 6959 H 671.509 -3.67971 -1.51137 0
M  V30 6960 H 668.248 -6.52922 -0.580823 0
M  V30 6961 H 667.768 -5.63902 -2.04387 0
M  V30 6962 H 669.447 -6.20035 -1.8484 0
M  V30 6963 N 669.579 0.400081 -1.52437 0
M  V30 6964 C 670.827 1.14392 -1.6661 0
M  V30 6965 C 671.148 1.90792 -0.402927 0
M  V30 6966 O 670.418 1.87042 0.582425 0
M  V30 6967 H 668.998 0.425275 -0.614125 0
M  V30 6968 H 671.66 0.455076 -1.89513 0
M  V30 6969 H 670.756 1.85298 -2.51139 0
M  V30 6970 N 671.057 1.43213 0.657864 0
M  V30 6971 C 672.285 1.48015 1.44566 0
M  V30 6972 C 672.7 0.0965951 1.88553 0
M  V30 6973 O 672.057 -0.892221 1.59203 0
M  V30 6974 C 672.108 2.42199 2.68369 0
M  V30 6975 O 671.829 3.75173 2.26223 0
M  V30 6976 C 673.33 2.56195 3.61772 0
M  V30 6977 H 670.55 0.502861 0.444266 0
M  V30 6978 H 673.094 1.87907 0.806917 0
M  V30 6979 H 671.249 2.05514 3.28394 0
M  V30 6980 H 671.663 4.25776 3.06293 0
M  V30 6981 H 673.137 3.26182 4.4532 0
M  V30 6982 H 673.614 1.60534 4.0881 0
M  V30 6983 H 674.22 2.93671 3.07632 0
M  V30 6984 N 672.536 -0.895792 1.29666 0
M  V30 6985 C 673.782 -1.64908 1.18039 0
M  V30 6986 C 674.115 -1.9236 -0.266682 0
M  V30 6987 O 673.39 -1.53682 -1.19214 0
M  V30 6988 C 673.673 -2.99574 1.99819 0
M  V30 6989 C 673.526 -2.79163 3.52687 0
M  V30 6990 C 674.845 -4.00358 1.82761 0
M  V30 6991 H 671.964 -0.598437 0.430165 0
M  V30 6992 H 674.606 -1.03736 1.59182 0
M  V30 6993 H 672.756 -3.51786 1.64859 0
M  V30 6994 H 674.428 -2.33821 3.9765 0
M  V30 6995 H 672.671 -2.13871 3.77414 0
M  V30 6996 H 673.342 -3.74871 4.05186 0
M  V30 6997 H 675.818 -3.57268 2.13304 0
M  V30 6998 H 674.694 -4.92514 2.42325 0
M  V30 6999 H 674.955 -4.35096 0.783839 0
M  V30 7000 N 674.014 -1.12206 -1.10668 0
M  V30 7001 C 675.239 -0.898938 -1.86906 0
M  V30 7002 C 675.664 0.546346 -1.79991 0
M  V30 7003 O 675.022 1.38655 -1.1681 0
M  V30 7004 C 675.07 -1.37529 -3.33344 0
M  V30 7005 O 674.174 -0.55218 -4.08687 0
M  V30 7006 H 673.515 -0.323163 -0.580053 0
M  V30 7007 H 676.045 -1.49355 -1.39837 0
M  V30 7008 H 676.055 -1.3733 -3.84193 0
M  V30 7009 H 674.73 -2.42767 -3.37693 0
M  V30 7010 H 673.307 -0.620947 -3.67694 0
M  V30 7011 N 675.492 1.28418 -0.913599 0
M  V30 7012 C 676.425 2.25557 -0.346328 0
M  V30 7013 C 677.403 1.53038 0.549366 0
M  V30 7014 O 678.587 1.81937 0.493055 0
M  V30 7015 C 675.714 3.34915 0.504961 0
M  V30 7016 C 674.76 4.25257 -0.325334 0
M  V30 7017 S 675.593 5.06718 -1.73198 0
M  V30 7018 C 676.749 6.19569 -0.887988 0
M  V30 7019 H 676.982 2.73325 -1.16965 0
M  V30 7020 H 674.515 1.36855 -0.714841 0
M  V30 7021 H 676.473 3.98376 0.990301 0
M  V30 7022 H 675.134 2.85814 1.30267 0
M  V30 7023 H 674.327 5.02947 0.325589 0
M  V30 7024 H 673.929 3.66519 -0.744321 0
M  V30 7025 H 676.221 6.77398 -0.117568 0
M  V30 7026 H 677.164 6.88908 -1.63742 0
M  V30 7027 H 677.572 5.62812 -0.436228 0
M  V30 7028 N 676.97 0.677563 1.42291 0
M  V30 7029 C 678.247 0.129803 1.95169 0
M  V30 7030 C 678.627 -1.35605 1.61786 0
M  V30 7031 O 677.975 -2.09361 0.915444 0
M  V30 7032 C 678.185 0.401889 3.46678 0
M  V30 7033 C 679.533 0.319889 4.23393 0
M  V30 7034 O 680.557 0.33579 3.54614 0
M  V30 7035 O 679.416 0.264459 5.4586 0
M  V30 7036 H 676.51 0.00447433 0.826988 0
M  V30 7037 H 679.056 0.752483 1.52105 0
M  V30 7038 H 677.828 1.43108 3.64192 0
M  V30 7039 H 677.451 -0.252662 3.96796 0
M  V30 7040 N 678.448 -1.51871 0.421078 0
M  V30 7041 C 679.725 -1.9447 -0.20993 0
M  V30 7042 C 680.105 -1.35875 -1.61558 0
M  V30 7043 O 679.453 -0.539294 -2.22045 0
M  V30 7044 C 679.663 -3.48402 -0.204165 0
M  V30 7045 C 681.011 -4.2254 -0.417696 0
M  V30 7046 O 682.035 -3.55074 -0.282999 0
M  V30 7047 O 680.894 -5.422 -0.684239 0
M  V30 7048 H 677.988 -0.815283 -0.138718 0
M  V30 7049 H 680.534 -1.62832 0.477884 0
M  V30 7050 H 679.306 -3.83464 0.779183 0
M  V30 7051 H 678.929 -3.86436 -0.935576 0
M  V30 7052 N 679.926 -0.151884 -1.56866 0
M  V30 7053 C 680.859 0.824094 -2.128 0
M  V30 7054 C 681.837 1.2391 -1.05286 0
M  V30 7055 O 683.021 1.33433 -1.33146 0
M  V30 7056 C 680.148 2.1072 -2.65169 0
M  V30 7057 C 679.194 1.83774 -3.84876 0
M  V30 7058 S 680.027 1.02436 -5.25611 0
M  V30 7059 C 681.183 2.31855 -5.81373 0
M  V30 7060 H 681.416 0.348456 -2.95251 0
M  V30 7061 H 678.949 0.0624794 -1.54274 0
M  V30 7062 H 680.907 2.84428 -2.95992 0
M  V30 7063 H 679.568 2.55398 -1.8284 0
M  V30 7064 H 678.761 2.78929 -4.19779 0
M  V30 7065 H 678.363 1.18172 -3.5484 0
M  V30 7066 H 680.655 3.27469 -5.93102 0
M  V30 7067 H 681.598 2.01449 -6.7884 0
M  V30 7068 H 682.006 2.42727 -5.09651 0
M  V30 7069 N 681.404 1.57128 0.121893 0
M  V30 7070 C 682.337 1.95327 1.17995 0
M  V30 7071 C 683.315 0.822524 1.40262 0
M  V30 7072 O 684.499 1.08044 1.54463 0
M  V30 7073 C 681.626 2.24699 2.53432 0
M  V30 7074 C 680.672 3.47263 2.4761 0
M  V30 7075 S 681.505 4.99951 1.91857 0
M  V30 7076 C 682.661 5.32473 3.28973 0
M  V30 7077 H 682.894 2.84765 0.854182 0
M  V30 7078 H 680.427 1.50864 0.328534 0
M  V30 7079 H 682.385 2.423 3.31362 0
M  V30 7080 H 681.046 1.3588 2.83188 0
M  V30 7081 H 680.239 3.65171 3.4737 0
M  V30 7082 H 679.841 3.29034 1.778 0
M  V30 7083 H 682.133 5.27478 4.25175 0
M  V30 7084 H 683.076 6.33732 3.15895 0
M  V30 7085 H 683.484 4.59952 3.27268 0
M  V30 7086 N 682.882 -0.391992 1.52647 0
M  V30 7087 C 683.812 -1.48517 1.8018 0
M  V30 7088 C 684.793 -1.57039 0.653667 0
M  V30 7089 O 685.978 -1.72036 0.900962 0
M  V30 7090 C 683.108 -2.86161 1.96797 0
M  V30 7091 C 682.062 -2.92481 3.12472 0
M  V30 7092 C 681.388 -4.32546 3.14338 0
M  V30 7093 C 682.688 -2.624 4.51601 0
M  V30 7094 H 684.382 -1.25726 2.71723 0
M  V30 7095 H 681.928 -0.603387 1.30749 0
M  V30 7096 H 683.881 -3.62639 2.14641 0
M  V30 7097 H 682.605 -3.10283 1.01941 0
M  V30 7098 H 681.264 -2.18451 2.94406 0
M  V30 7099 H 680.912 -4.53703 2.1717 0
M  V30 7100 H 680.612 -4.37695 3.92042 0
M  V30 7101 H 682.136 -5.10934 3.34333 0
M  V30 7102 H 683.55 -3.28596 4.69785 0
M  V30 7103 H 681.947 -2.78903 5.3135 0
M  V30 7104 H 683.017 -1.57754 4.58521 0
M  V30 7105 N 684.36 -1.4356 -0.65026 0
M  V30 7106 C 685.27 -1.514 -1.79207 0
M  V30 7107 C 686.286 -0.400895 -1.69319 0
M  V30 7108 O 687.462 -0.655458 -1.90436 0
M  V30 7109 C 684.527 -1.43737 -3.155 0
M  V30 7110 C 683.588 -2.65743 -3.37163 0
M  V30 7111 C 682.821 -2.58436 -4.66954 0
M  V30 7112 O 683.044 -1.63374 -5.46503 0
M  V30 7113 O 681.978 -3.48984 -4.90402 0
M  V30 7114 H 685.804 -2.47825 -1.75547 0
M  V30 7115 H 683.389 -1.25594 -0.809111 0
M  V30 7116 H 685.271 -1.41916 -3.96784 0
M  V30 7117 H 683.946 -0.504488 -3.19745 0
M  V30 7118 H 682.853 -2.73136 -2.55632 0
M  V30 7119 H 684.186 -3.58014 -3.37768 0
M  V30 7120 N 685.838 0.888903 -1.30139 0
M  V30 7121 C 686.771 1.99655 -1.10514 0
M  V30 7122 C 687.749 1.62594 -0.0138934 0
M  V30 7123 O 688.933 1.87762 -0.166689 0
M  V30 7124 C 686.06 3.31708 -0.684655 0
M  V30 7125 C 685.106 3.87755 -1.77619 0
M  V30 7126 S 685.939 4.15532 -3.37777 0
M  V30 7127 C 687.095 5.5061 -2.97622 0
M  V30 7128 H 687.328 2.15996 -2.04287 0
M  V30 7129 H 684.861 1.03682 -1.14409 0
M  V30 7130 H 686.819 4.08039 -0.448782 0
M  V30 7131 H 685.48 3.1323 0.233648 0
M  V30 7132 H 684.673 4.83164 -1.43417 0
M  V30 7133 H 684.275 3.18149 -1.96614 0
M  V30 7134 H 686.567 6.31518 -2.45338 0
M  V30 7135 H 687.51 5.89747 -3.91924 0
M  V30 7136 H 687.918 5.12983 -2.35603 0
M  V30 7137 N 687.317 1.12792 1.10072 0
M  V30 7138 C 688.247 0.821688 2.18565 0
M  V30 7139 C 689.228 -0.21612 1.68721 0
M  V30 7140 O 690.413 -0.0764932 1.94049 0
M  V30 7141 C 687.543 0.279624 3.46172 0
M  V30 7142 C 686.497 1.25092 4.09312 0
M  V30 7143 C 685.823 0.568916 5.31665 0
M  V30 7144 C 687.123 2.60699 4.52585 0
M  V30 7145 H 688.817 1.72888 2.44438 0
M  V30 7146 H 686.363 0.832702 1.17482 0
M  V30 7147 H 688.316 0.053099 4.21367 0
M  V30 7148 H 687.04 -0.662929 3.19801 0
M  V30 7149 H 685.699 1.46332 3.36129 0
M  V30 7150 H 685.347 -0.378898 5.01571 0
M  V30 7151 H 685.047 1.21687 5.74862 0
M  V30 7152 H 686.571 0.351517 6.09587 0
M  V30 7153 H 687.985 2.43465 5.19035 0
M  V30 7154 H 686.382 3.21608 5.06644 0
M  V30 7155 H 687.452 3.1886 3.65317 0
M  V30 7156 N 688.795 -1.27931 0.920396 0
M  V30 7157 C 690.035 -1.96459 0.564198 0
M  V30 7158 C 690.399 -1.70802 -0.876967 0
M  V30 7159 O 691.6 -2.32956 -1.34107 0
M  V30 7160 C 689.871 -3.46583 0.872641 0
M  V30 7161 S 691.43 -4.34343 0.623859 0
M  V30 7162 H 688.248 -0.679735 0.208523 0
M  V30 7163 H 690.85 -1.55319 1.18727 0
M  V30 7164 H 689.554 -3.62753 1.91933 0
M  V30 7165 H 689.085 -3.92677 0.238479 0
M  V30 7166 H 691.1 -4.93449 -0.521744 0
M  V30 7167 N 690.273 -0.685099 -1.4193 0
M  V30 7168 C 691.501 -0.220372 -2.05723 0
M  V30 7169 C 691.916 1.12642 -1.51516 0
M  V30 7170 O 691.273 1.70182 -0.659114 0
M  V30 7171 C 691.324 -0.157974 -3.61155 0
M  V30 7172 O 691.045 -1.45156 -4.13354 0
M  V30 7173 C 692.546 0.329009 -4.42077 0
M  V30 7174 H 689.766 -0.104725 -0.662777 0
M  V30 7175 H 692.31 -0.934736 -1.81887 0
M  V30 7176 H 690.465 0.507144 -3.84066 0
M  V30 7177 H 690.879 -1.33172 -5.07312 0
M  V30 7178 H 692.353 0.321559 -5.51063 0
M  V30 7179 H 692.83 1.36608 -4.17414 0
M  V30 7180 H 693.436 -0.304737 -4.24207 0
M  V30 7181 N 691.751 1.51645 -0.429126 0
M  V30 7182 C 692.698 2.27542 0.386446 0
M  V30 7183 C 693.668 1.30786 1.02393 0
M  V30 7184 O 694.853 1.59678 1.0444 0
M  V30 7185 C 691.993 3.11457 1.48623 0
M  V30 7186 C 691.106 4.23196 0.867691 0
M  V30 7187 C 690.241 4.94435 1.94183 0
M  V30 7188 C 689.28 5.98108 1.30129 0
M  V30 7189 N 688.417 6.62786 2.31644 0
M  V30 7190 H 693.257 2.968 -0.267155 0
M  V30 7191 H 690.794 1.46397 -0.143591 0
M  V30 7192 H 692.752 3.58429 2.13506 0
M  V30 7193 H 691.382 2.44329 2.10957 0
M  V30 7194 H 690.434 3.80248 0.107373 0
M  V30 7195 H 691.746 4.97499 0.35997 0
M  V30 7196 H 690.9 5.44914 2.66747 0
M  V30 7197 H 689.639 4.19744 2.48326 0
M  V30 7198 H 688.644 5.4693 0.561082 0
M  V30 7199 H 689.869 6.74751 0.767303 0
M  V30 7200 H 687.815 5.90913 2.84883 0
M  V30 7201 H 687.732 7.32828 1.85741 0
M  V30 7202 H 689 7.17897 3.03717 0
M  V30 7203 N 693.229 0.160201 1.56784 0
M  V30 7204 C 694.478 -0.487619 1.95717 0
M  V30 7205 C 694.791 -1.65136 1.0483 0
M  V30 7206 O 695.997 -2.36468 1.33398 0
M  V30 7207 C 694.453 -0.91888 3.47972 0
M  V30 7208 C 694.061 0.218655 4.47466 0
M  V30 7209 C 695.805 -1.53575 3.95746 0
M  V30 7210 C 693.712 -0.231614 5.90946 0
M  V30 7211 H 692.642 -0.185939 0.730714 0
M  V30 7212 H 695.293 0.246657 1.81835 0
M  V30 7213 H 693.675 -1.70881 3.57234 0
M  V30 7214 H 694.849 0.995825 4.49911 0
M  V30 7215 H 693.164 0.744767 4.09685 0
M  V30 7216 H 695.761 -1.88448 5.00391 0
M  V30 7217 H 696.104 -2.42959 3.38048 0
M  V30 7218 H 696.637 -0.810467 3.89456 0
M  V30 7219 H 693.376 0.62718 6.52493 0
M  V30 7220 H 692.896 -0.974379 5.91833 0
M  V30 7221 H 694.575 -0.67922 6.43425 0
M  V30 7222 O 694.746 -1.61485 0.0219998 0
M  V30 7223 H 695.437 -1.84445 -0.591595 0
M  V30 END ATOM
M  V30 BEGIN BOND
M  V30 END BOND
M  V30 END CTAB
M  END
$$$$
