drugbank_target|P51955 Serine/threonine-protein kinase Nek2 (DB07180; DB12010)
 OpenBabel12092120403D

  0  0  0     0  0            999 V3000
M  V30 BEGIN CTAB
M  V30 COUNTS 7337 7390 0 0 0
M  V30 BEGIN ATOM
M  V30 1 H -0.908 1.98254 -0.117106 0
M  V30 2 N 0 1.576 0 0
M  V30 3 C 0.933 2.03868 1.02534 0
M  V30 4 C 1.911 0.928543 1.3348 0
M  V30 5 O 3.095 1.19667 1.45644 0
M  V30 6 C 0.222 2.43627 2.35294 0
M  V30 7 C -0.732 3.65373 2.2001 0
M  V30 8 S 0.101 5.13292 1.52614 0
M  V30 9 C 1.257 5.56322 2.86805 0
M  V30 10 H 1.49 2.90518 0.631377 0
M  V30 11 H -0.977 1.52953 0.210867 0
M  V30 12 H 0.981 2.67203 3.11629 0
M  V30 13 H -0.358 1.57376 2.7183 0
M  V30 14 H -1.165 3.90944 3.18086 0
M  V30 15 H -1.563 3.418 1.51819 0
M  V30 16 H 0.729 5.58782 3.83104 0
M  V30 17 H 1.672 6.56266 2.65933 0
M  V30 18 H 2.08 4.83886 2.90714 0
M  V30 19 N 1.4781 -0.272755 1.55222 0
M  V30 20 C 2.8891 -0.84378 1.66545 0
M  V30 21 C 3.2401 -1.87035 0.592641 0
M  V30 22 O 2.3651 -2.14761 -0.265818 0
M  V30 23 C 2.9601 -1.53723 3.01918 0
M  V30 24 C 1.5191 -2.05628 3.15268 0
M  V30 25 C 0.6661 -0.898424 2.62343 0
M  V30 26 H 3.6171 -0.0490998 1.58624 0
M  V30 27 H 3.6381 -2.40421 2.94921 0
M  V30 28 H 3.1501 -0.78983 3.79978 0
M  V30 29 H 1.2511 -2.83329 2.41983 0
M  V30 30 H 1.3641 -2.27142 4.21833 0
M  V30 31 H -0.2719 -1.29186 2.19506 0
M  V30 32 H 0.5111 -0.164528 3.42906 0
M  V30 33 N 2.9562 -1.48159 -0.537278 0
M  V30 34 C 4.1812 -1.59707 -1.32319 0
M  V30 35 C 4.6062 -0.254859 -1.86365 0
M  V30 36 O 3.9642 0.772378 -1.64024 0
M  V30 37 C 4.0122 -2.6412 -2.45505 0
M  V30 38 O 3.1162 -2.20774 -3.48328 0
M  V30 39 H 2.4572 -0.535791 -0.392204 0
M  V30 40 H 4.9872 -1.94092 -0.647268 0
M  V30 41 H 4.9972 -2.85166 -2.91795 0
M  V30 42 H 3.6722 -3.61567 -2.05528 0
M  V30 43 H 2.2492 -2.09911 -3.08207 0
M  V30 44 N 4.4343 0.785586 -1.36625 0
M  V30 45 C 5.8503 1.08419 -1.17122 0
M  V30 46 C 6.0503 2.015 0.00208491 0
M  V30 47 O 5.1063 2.43551 0.666278 0
M  V30 48 C 6.4193 1.69498 -2.48377 0
M  V30 49 C 7.9673 1.81821 -2.54775 0
M  V30 50 C 8.4423 2.46315 -3.86126 0
M  V30 51 N 9.9333 2.53779 -3.87492 0
M  V30 52 C 10.6683 3.045 -4.85868 0
M  V30 53 N 10.1643 3.55499 -5.94637 0
M  V30 54 N 11.9573 3.03247 -4.73284 0
M  V30 55 H 4.1083 0.167264 -2.1174 0
M  V30 56 H 6.3713 0.13682 -0.938075 0
M  V30 57 H 6.0773 1.08571 -3.34522 0
M  V30 58 H 5.9513 2.6896 -2.64462 0
M  V30 59 H 8.3383 2.41884 -1.69045 0
M  V30 60 H 8.4193 0.811532 -2.42586 0
M  V30 61 H 8.0633 1.86895 -4.72263 0
M  V30 62 H 7.9933 3.47561 -3.95612 0
M  V30 63 H 10.4843 2.17672 -3.08913 0
M  V30 64 H 10.7973 3.92562 -6.65669 0
M  V30 65 H 9.1423 3.5364 -5.98301 0
M  V30 66 H 12.3333 2.62696 -3.87438 0
M  V30 67 H 12.5063 3.42467 -5.50109 0
M  V30 68 N 5.9124 1.20967 1.01018 0
M  V30 69 C 6.8754 0.965918 2.07853 0
M  V30 70 C 7.8754 -0.0610545 1.60684 0
M  V30 71 O 9.0654 0.175681 1.73312 0
M  V30 72 C 6.1974 0.455513 3.37843 0
M  V30 73 H 7.3904 1.91365 2.3091 0
M  V30 74 H 4.9434 1.02594 1.17916 0
M  V30 75 H 5.6784 -0.497381 3.20463 0
M  V30 76 H 5.4634 1.19622 3.73407 0
M  V30 77 H 6.9534 0.304667 4.16487 0
M  V30 78 N 7.3905 -1.2043 1.01659 0
M  V30 79 C 8.3005 -2.2689 0.596484 0
M  V30 80 C 9.3165 -1.70107 -0.36599 0
M  V30 81 O 10.4925 -2.00117 -0.226942 0
M  V30 82 C 7.5575 -3.4665 -0.0586659 0
M  V30 83 C 6.6185 -4.18662 0.949751 0
M  V30 84 C 5.8515 -5.32705 0.32577 0
M  V30 85 O 6.0745 -5.63656 -0.874509 0
M  V30 86 O 5.0085 -5.92803 1.04249 0
M  V30 87 H 8.8345 -2.65041 1.4828 0
M  V30 88 H 6.4195 -1.27048 0.786082 0
M  V30 89 H 8.3015 -4.19256 -0.424564 0
M  V30 90 H 6.9765 -3.10375 -0.91918 0
M  V30 91 H 5.8835 -3.48229 1.36702 0
M  V30 92 H 7.2165 -4.58878 1.78023 0
M  V30 93 N 8.8686 -0.792821 -1.36206 0
M  V30 94 C 10.1456 -0.290627 -1.93429 0
M  V30 95 C 10.5256 1.21773 -1.72437 0
M  V30 96 O 9.8736 2.0108 -1.08531 0
M  V30 97 C 10.0836 -0.686973 -3.42172 0
M  V30 98 C 11.4316 -0.668643 -4.19302 0
M  V30 99 O 12.4556 -0.627658 -3.50626 0
M  V30 100 O 11.3146 -0.714597 -5.41808 0
M  V30 101 H 8.4086 -0.0727927 -0.82379 0
M  V30 102 H 10.9546 -0.875593 -1.45367 0
M  V30 103 H 9.7266 -1.72711 -3.51122 0
M  V30 104 H 9.3496 -0.0760733 -3.97527 0
M  V30 105 N 10.3467 1.47872 -0.545128 0
M  V30 106 C 11.5767 2.06589 -0.0210534 0
M  V30 107 C 11.9847 1.39997 1.27269 0
M  V30 108 O 11.3277 0.486421 1.77143 0
M  V30 109 C 11.3897 3.58574 0.257933 0
M  V30 110 C 11.0537 4.47132 -0.944573 0
M  V30 111 C 12.0507 4.85986 -1.84699 0
M  V30 112 C 9.7357 4.88821 -1.15584 0
M  V30 113 C 11.7297 5.65314 -2.94446 0
M  V30 114 C 9.4167 5.67916 -2.25642 0
M  V30 115 C 10.4147 6.06073 -3.14905 0
M  V30 116 O 10.1027 6.83578 -4.23057 0
M  V30 117 H 9.8347 0.674971 -0.0372899 0
M  V30 118 H 12.3887 1.91037 -0.754599 0
M  V30 119 H 10.6187 3.72295 1.04564 0
M  V30 120 H 12.3077 3.99356 0.72592 0
M  V30 121 H 13.0737 4.54388 -1.69577 0
M  V30 122 H 8.9527 4.58595 -0.470279 0
M  V30 123 H 12.4967 5.95016 -3.64145 0
M  V30 124 H 8.3937 5.98927 -2.40742 0
M  V30 125 H 9.1617 7.01954 -4.20954 0
M  V30 126 N 11.8248 0.280983 1.55075 0
M  V30 127 C 12.7348 -0.61388 2.26426 0
M  V30 128 C 13.7508 -1.16521 1.29224 0
M  V30 129 O 14.9268 -1.19426 1.62171 0
M  V30 130 C 11.9918 -1.7788 2.9759 0
M  V30 131 C 11.0528 -1.26355 4.10284 0
M  V30 132 C 10.2858 -2.37295 4.78045 0
M  V30 133 O 10.5088 -3.56777 4.45047 0
M  V30 134 O 9.4428 -2.05119 5.65871 0
M  V30 135 H 13.2688 -0.0356932 3.03679 0
M  V30 136 H 10.8538 0.0481686 1.49322 0
M  V30 137 H 12.7358 -2.45791 3.42293 0
M  V30 138 H 11.4108 -2.34397 2.23249 0
M  V30 139 H 10.3178 -0.550735 3.70024 0
M  V30 140 H 11.6508 -0.744065 4.86543 0
M  V30 141 N 13.3029 -1.57598 0.00835791 0
M  V30 142 C 14.5489 -1.91211 -0.675732 0
M  V30 143 C 14.8819 -0.883139 -1.72958 0
M  V30 144 O 14.1569 0.097016 -1.94258 0
M  V30 145 C 14.4399 -3.35379 -1.31123 0
M  V30 146 C 14.2929 -4.48999 -0.268356 0
M  V30 147 C 15.6119 -3.7912 -2.23508 0
M  V30 148 H 12.7309 -0.695374 -0.244179 0
M  V30 149 H 15.3729 -1.89901 0.0613655 0
M  V30 150 H 13.5229 -3.36626 -1.93946 0
M  V30 151 H 15.1949 -4.59887 0.360844 0
M  V30 152 H 13.4379 -4.31873 0.408482 0
M  V30 153 H 14.1089 -5.46851 -0.752218 0
M  V30 154 H 16.5849 -3.79477 -1.70693 0
M  V30 155 H 15.4609 -4.80729 -2.64936 0
M  V30 156 H 15.7219 -3.13455 -3.11766 0
M  V30 157 N 14.781 0.264519 -1.55364 0
M  V30 158 C 15.711 1.33121 -1.91836 0
M  V30 159 C 16.692 1.51101 -0.781192 0
M  V30 160 O 17.877 1.64003 -1.04003 0
M  V30 161 C 15.007 2.68921 -2.19769 0
M  V30 162 C 13.961 2.65661 -3.35571 0
M  V30 163 C 13.287 4.05093 -3.49004 0
M  V30 164 C 14.587 2.24187 -4.71739 0
M  V30 165 H 16.281 1.02844 -2.81182 0
M  V30 166 H 13.827 0.493286 -1.35287 0
M  V30 167 H 15.78 3.43663 -2.43872 0
M  V30 168 H 14.504 3.00799 -1.27231 0
M  V30 169 H 13.163 1.93377 -3.1145 0
M  V30 170 H 12.811 4.34206 -2.53917 0
M  V30 171 H 12.511 4.03804 -4.26868 0
M  V30 172 H 14.035 4.81561 -3.75408 0
M  V30 173 H 15.449 2.88654 -4.9533 0
M  V30 174 H 13.846 2.34044 -5.52579 0
M  V30 175 H 14.916 1.19327 -4.69988 0
M  V30 176 N 16.2591 1.48442 0.529413 0
M  V30 177 C 17.4891 1.59919 1.30804 0
M  V30 178 C 17.8971 0.258792 1.87422 0
M  V30 179 O 17.2401 -0.762096 1.67146 0
M  V30 180 C 17.3021 2.58693 2.49636 0
M  V30 181 C 16.9661 4.03745 2.14101 0
M  V30 182 C 17.9631 4.9141 1.6974 0
M  V30 183 C 15.6481 4.49285 2.24607 0
M  V30 184 C 17.6421 6.22645 1.36351 0
M  V30 185 C 15.3291 5.8054 1.9083 0
M  V30 186 C 16.3271 6.67043 1.46773 0
M  V30 187 O 16.0151 7.95856 1.1344 0
M  V30 188 H 15.7471 0.541981 0.404021 0
M  V30 189 H 18.3011 1.95 0.645309 0
M  V30 190 H 16.5311 2.18734 3.18892 0
M  V30 191 H 18.2201 2.59999 3.11698 0
M  V30 192 H 18.9861 4.57465 1.61094 0
M  V30 193 H 14.8651 3.82142 2.57854 0
M  V30 194 H 18.4091 6.90119 1.01891 0
M  V30 195 H 14.3061 6.14022 1.99117 0
M  V30 196 H 15.0741 8.08613 1.26832 0
M  V30 197 N 17.7372 -0.778329 1.37039 0
M  V30 198 C 18.9652 -1.56734 1.35063 0
M  V30 199 C 19.3802 -1.88686 -0.0655597 0
M  V30 200 O 18.7372 -1.5096 -1.02554 0
M  V30 201 C 18.7882 -2.88163 2.18276 0
M  V30 202 O 18.5092 -2.57583 3.54376 0
M  V30 203 C 20.0102 -3.82422 2.24206 0
M  V30 204 H 17.2302 -0.485778 0.462883 0
M  V30 205 H 19.7742 -0.965185 1.8029 0
M  V30 206 H 17.9292 -3.44818 1.76576 0
M  V30 207 H 18.3432 -3.41699 3.97922 0
M  V30 208 H 19.8172 -4.71667 2.86765 0
M  V30 209 H 20.2942 -4.21078 1.24861 0
M  V30 210 H 20.9002 -3.31697 2.6619 0
M  V30 211 N 19.2153 -1.21501 -1.00376 0
M  V30 212 C 20.4643 -1.02718 -1.73586 0
M  V30 213 C 20.7773 0.439589 -1.90596 0
M  V30 214 O 21.9833 0.746848 -2.61026 0
M  V30 215 C 20.4393 -1.78929 -3.1227 0
M  V30 216 C 20.0473 -3.29783 -3.03228 0
M  V30 217 C 21.7913 -1.68557 -3.89601 0
M  V30 218 C 19.6983 -3.98479 -4.36999 0
M  V30 219 H 18.6283 -0.380733 -0.650814 0
M  V30 220 H 21.2793 -1.45248 -1.1214 0
M  V30 221 H 19.6613 -1.29192 -3.74333 0
M  V30 222 H 20.8353 -3.86832 -2.50395 0
M  V30 223 H 19.1503 -3.40711 -2.39385 0
M  V30 224 H 21.7473 -2.17211 -4.88593 0
M  V30 225 H 22.0903 -0.644021 -4.11288 0
M  V30 226 H 22.6233 -2.15778 -3.34193 0
M  V30 227 H 19.3623 -5.02841 -4.20513 0
M  V30 228 H 18.8823 -3.46219 -4.89788 0
M  V30 229 H 20.5613 -4.03462 -5.05794 0
M  V30 230 N 20.6934 1.19889 -1.02296 0
M  V30 231 C 21.9414 1.89046 -0.714558 0
M  V30 232 C 22.2624 1.79636 0.758681 0
M  V30 233 O 21.5324 1.20292 1.54618 0
M  V30 234 H 20.1124 0.699802 -0.261317 0
M  V30 235 H 22.7744 1.45574 -1.29592 0
M  V30 236 H 21.8704 2.95524 -1.0036 0
M  V30 237 N 22.1715 0.800033 1.35784 0
M  V30 238 C 23.3995 0.389606 2.03199 0
M  V30 239 C 23.8145 -0.997375 1.60306 0
M  V30 240 O 23.1715 -1.64154 0.797481 0
M  V30 241 C 23.2225 0.455855 3.58614 0
M  V30 242 O 22.9435 1.78815 3.99946 0
M  V30 243 C 24.4445 0.0374032 4.43284 0
M  V30 244 H 21.6645 0.159132 0.651857 0
M  V30 245 H 24.2085 1.08183 1.73541 0
M  V30 246 H 22.3635 -0.188057 3.86943 0
M  V30 247 H 22.7775 1.74636 4.94573 0
M  V30 248 H 24.2515 0.134882 5.51835 0
M  V30 249 H 24.7285 -1.01651 4.27275 0
M  V30 250 H 25.3345 0.654215 4.20238 0
M  V30 251 N 23.6496 -1.47581 0.552962 0
M  V30 252 C 24.8976 -2.02082 0.0272703 0
M  V30 253 C 25.2186 -1.4301 -1.32563 0
M  V30 254 O 24.4886 -0.603745 -1.86365 0
M  V30 255 H 23.0686 -0.746966 0.00709182 0
M  V30 256 H 25.7306 -1.81033 0.722008 0
M  V30 257 H 24.8266 -3.12034 -0.0639951 0
M  V30 258 N 25.1277 -0.289203 -1.54924 0
M  V30 259 C 26.3527 0.329299 -2.04769 0
M  V30 260 C 26.7777 1.4763 -1.16564 0
M  V30 261 O 26.1357 1.80527 -0.167186 0
M  V30 262 C 26.1837 0.774438 -3.52186 0
M  V30 263 O 25.2877 1.88038 -3.67036 0
M  V30 264 H 24.6287 0.0659259 -0.660719 0
M  V30 265 H 27.1587 -0.42761 -2.00082 0
M  V30 266 H 27.1687 1.06642 -3.93816 0
M  V30 267 H 25.8437 -0.0646707 -4.1585 0
M  V30 268 H 24.4207 1.58985 -3.3731 0
M  V30 269 N 26.6058 1.57591 -0.0167156 0
M  V30 270 C 27.8358 1.95292 0.674149 0
M  V30 271 C 28.2438 0.891097 1.66901 0
M  V30 272 O 27.5868 -0.136908 1.83189 0
M  V30 273 C 27.6488 3.29072 1.44747 0
M  V30 274 C 27.3128 4.52879 0.612331 0
M  V30 275 C 28.3098 5.1979 -0.107126 0
M  V30 276 C 25.9948 4.99242 0.553381 0
M  V30 277 C 27.9888 6.31375 -0.874339 0
M  V30 278 C 25.6758 6.10713 -0.217546 0
M  V30 279 C 26.6738 6.76637 -0.930123 0
M  V30 280 O 26.3618 7.85969 -1.68844 0
M  V30 281 H 26.0938 0.648275 0.191615 0
M  V30 282 H 28.6478 2.05284 -0.0690148 0
M  V30 283 H 26.8778 3.15535 2.2355 0
M  V30 284 H 28.5668 3.51764 2.02526 0
M  V30 285 H 29.3328 4.84948 -0.0708392 0
M  V30 286 H 25.2118 4.47744 1.09757 0
M  V30 287 H 28.7558 6.82764 -1.43106 0
M  V30 288 H 24.6528 6.44994 -0.255593 0
M  V30 289 H 25.4208 8.02571 -1.6069 0
M  V30 290 N 28.0839 -0.256276 1.55502 0
M  V30 291 C 29.3319 -0.983672 1.76545 0
M  V30 292 C 29.6529 -1.86206 0.578982 0
M  V30 293 O 28.9229 -1.91656 -0.405577 0
M  V30 294 H 27.5029 -0.366191 0.651086 0
M  V30 295 H 30.1649 -0.276479 1.92929 0
M  V30 296 H 29.2609 -1.61087 2.67315 0
M  V30 297 N 29.562 -1.4872 -0.521534 0
M  V30 298 C 30.978 -1.35028 -0.850855 0
M  V30 299 C 31.178 -0.367712 -1.98116 0
M  V30 300 O 30.234 0.208037 -2.51642 0
M  V30 301 C 31.547 -2.75263 -1.21041 0
M  V30 302 C 33.095 -2.83813 -1.31981 0
M  V30 303 C 33.57 -4.24769 -1.71276 0
M  V30 304 N 35.061 -4.27482 -1.78363 0
M  V30 305 C 35.796 -5.33494 -2.1017 0
M  V30 306 N 35.292 -6.49775 -2.40343 0
M  V30 307 N 37.085 -5.20894 -2.11248 0
M  V30 308 H 29.236 -2.11214 0.22413 0
M  V30 309 H 31.499 -0.947252 0.0376439 0
M  V30 310 H 31.205 -3.48765 -0.453415 0
M  V30 311 H 31.079 -3.09327 -2.15863 0
M  V30 312 H 33.466 -2.10561 -2.06756 0
M  V30 313 H 33.547 -2.53358 -0.352596 0
M  V30 314 H 33.191 -4.9854 -0.970588 0
M  V30 315 H 33.121 -4.52673 -2.69062 0
M  V30 316 H 35.612 -3.43611 -1.57288 0
M  V30 317 H 35.925 -7.26402 -2.63743 0
M  V30 318 H 34.27 -6.53035 -2.37844 0
M  V30 319 H 37.461 -4.29065 -1.87139 0
M  V30 320 H 37.634 -6.03612 -2.35704 0
M  V30 321 N 31.0401 0.771051 -1.3745 0
M  V30 322 C 32.2801 1.54264 -1.34096 0
M  V30 323 C 32.6441 1.91858 0.0737639 0
M  V30 324 O 33.8451 2.67797 0.23203 0
M  V30 325 C 32.1161 2.77326 -2.25445 0
M  V30 326 S 33.6751 3.67383 -2.39948 0
M  V30 327 H 30.4931 0.528122 -0.476034 0
M  V30 328 H 33.0951 0.906633 -1.73206 0
M  V30 329 H 31.7991 2.47788 -3.27153 0
M  V30 330 H 31.3301 3.45886 -1.87421 0
M  V30 331 H 33.3451 4.69334 -1.61059 0
M  V30 332 N 32.5182 1.22032 0.997298 0
M  V30 333 C 33.4502 0.944263 2.08845 0
M  V30 334 C 34.4632 -0.0754663 1.62625 0
M  V30 335 O 35.6522 0.157994 1.77799 0
M  V30 336 C 32.7522 0.397723 3.36558 0
M  V30 337 C 31.9252 1.47362 4.11829 0
M  V30 338 C 30.9842 0.934951 5.17827 0
M  V30 339 O 30.0102 1.62016 5.45655 0
M  V30 340 N 31.2122 -0.245895 5.79979 0
M  V30 341 H 33.9772 1.88363 2.33109 0
M  V30 342 H 31.5382 1.12661 1.16272 0
M  V30 343 H 33.5302 0.0227771 4.04694 0
M  V30 344 H 32.1002 -0.446646 3.09393 0
M  V30 345 H 31.3202 2.02208 3.38386 0
M  V30 346 H 32.6082 2.19764 4.58891 0
M  V30 347 H 32.0062 -0.819475 5.59733 0
M  V30 348 H 30.5632 -0.562272 6.4937 0
M  V30 349 N 33.9963 -1.19345 1.0293 0
M  V30 350 C 34.9433 -2.2258 0.610464 0
M  V30 351 C 35.9133 -1.6179 -0.375946 0
M  V30 352 O 37.0983 -1.88844 -0.272511 0
M  V30 353 C 34.2383 -3.45085 -0.0321473 0
M  V30 354 C 33.3513 -4.20258 1.00035 0
M  V30 355 C 32.4863 -5.3019 0.32746 0
M  V30 356 C 31.5253 -5.97121 1.34584 0
M  V30 357 N 30.6623 -6.98615 0.698726 0
M  V30 358 H 35.5023 -2.57764 1.49538 0
M  V30 359 H 33.0393 -1.26644 0.748311 0
M  V30 360 H 34.9973 -4.15061 -0.421966 0
M  V30 361 H 33.6273 -3.10555 -0.88064 0
M  V30 362 H 32.6793 -3.49223 1.50823 0
M  V30 363 H 33.9913 -4.66175 1.77433 0
M  V30 364 H 33.1453 -6.06587 -0.11718 0
M  V30 365 H 31.8843 -4.85345 -0.478713 0
M  V30 366 H 30.8893 -5.19474 1.80074 0
M  V30 367 H 32.1143 -6.4405 2.15352 0
M  V30 368 H 30.0603 -6.55942 -0.0873471 0
M  V30 369 H 29.9773 -7.42724 1.41058 0
M  V30 370 H 31.2453 -7.79004 0.278102 0
M  V30 371 N 35.4744 -0.807222 -1.35358 0
M  V30 372 C 36.7234 -0.384376 -1.98004 0
M  V30 373 C 37.0364 1.0543 -1.64754 0
M  V30 374 O 38.2424 1.58029 -2.20769 0
M  V30 375 C 36.6984 -0.636326 -3.5423 0
M  V30 376 C 36.3064 -2.08759 -3.96388 0
M  V30 377 C 38.0504 -0.278869 -4.23583 0
M  V30 378 C 35.9574 -2.28525 -5.45463 0
M  V30 379 H 34.8874 -0.139986 -0.740891 0
M  V30 380 H 37.5384 -0.991369 -1.54415 0
M  V30 381 H 35.9204 0.0406256 -3.95979 0
M  V30 382 H 37.0944 -2.8024 -3.6579 0
M  V30 383 H 35.4094 -2.40497 -3.39926 0
M  V30 384 H 38.0064 -0.404599 -5.33167 0
M  V30 385 H 38.3494 0.775012 -4.09022 0
M  V30 386 H 38.8824 -0.909764 -3.87257 0
M  V30 387 H 35.6214 -3.32361 -5.64992 0
M  V30 388 H 35.1414 -1.61569 -5.77629 0
M  V30 389 H 36.8204 -2.10109 -6.11934 0
M  V30 390 N 36.9525 1.47285 -0.560781 0
M  V30 391 C 38.3685 1.58065 -0.22081 0
M  V30 392 C 38.5685 1.55892 1.27671 0
M  V30 393 O 37.6245 1.46422 2.0571 0
M  V30 394 C 38.9375 2.88418 -0.850625 0
M  V30 395 C 40.4855 3.02009 -0.822184 0
M  V30 396 C 40.9605 4.35066 -1.43113 0
M  V30 397 N 42.4515 4.41711 -1.39448 0
M  V30 398 C 43.1865 5.43237 -1.83525 0
M  V30 399 N 42.6825 6.51555 -2.35474 0
M  V30 400 N 44.4755 5.34304 -1.74574 0
M  V30 401 H 36.6265 1.46941 -1.53369 0
M  V30 402 H 38.8895 0.699558 -0.639783 0
M  V30 403 H 38.5955 2.95755 -1.9032 0
M  V30 404 H 38.4695 3.75612 -0.345773 0
M  V30 405 H 40.8565 2.94266 0.221714 0
M  V30 406 H 40.9375 2.16347 -1.36483 0
M  V30 407 H 40.5815 4.43565 -2.47412 0
M  V30 408 H 40.5115 5.19465 -0.863899 0
M  V30 409 H 43.0025 3.64027 -1.01452 0
M  V30 410 H 43.3155 7.25203 -2.67021 0
M  V30 411 H 41.6605 6.52435 -2.39487 0
M  V30 412 H 44.8515 4.48581 -1.33763 0
M  V30 413 H 45.0245 6.13288 -2.09242 0
M  V30 414 N 38.4306 0.297415 1.54768 0
M  V30 415 C 39.8466 -0.0560823 1.59501 0
M  V30 416 C 40.0466 -1.52725 1.31444 0
M  V30 417 O 39.1026 -2.27947 1.08611 0
M  V30 418 C 40.4156 0.338631 2.98787 0
M  V30 419 C 41.9636 0.287097 3.11681 0
M  V30 420 C 42.4386 0.656579 4.53269 0
M  V30 421 N 43.9296 0.608977 4.59179 0
M  V30 422 C 44.6646 0.867385 5.66802 0
M  V30 423 N 44.1606 1.19157 6.82476 0
M  V30 424 N 45.9536 0.794687 5.56454 0
M  V30 425 H 38.1046 1.25624 1.71267 0
M  V30 426 H 40.3676 0.509057 0.799728 0
M  V30 427 H 40.0736 1.36263 3.2423 0
M  V30 428 H 39.9476 -0.309508 3.75928 0
M  V30 429 H 42.3346 -0.727649 2.85988 0
M  V30 430 H 42.4156 0.969809 2.36703 0
M  V30 431 H 42.0596 1.66912 4.7969 0
M  V30 432 H 41.9896 -0.0481649 5.26578 0
M  V30 433 H 44.4806 0.369198 3.76092 0
M  V30 434 H 44.7936 1.37482 7.60473 0
M  V30 435 H 43.1386 1.22958 6.84037 0
M  V30 436 H 46.3296 0.541098 4.64962 0
M  V30 437 H 46.5026 0.999445 6.40246 0
M  V30 438 N 39.9087 -1.5758 0.0250728 0
M  V30 439 C 40.8557 -2.09973 -0.958129 0
M  V30 440 C 41.8257 -1.00085 -1.3256 0
M  V30 441 O 43.0107 -1.27481 -1.41962 0
M  V30 442 C 40.1507 -2.62812 -2.2366 0
M  V30 443 C 39.2637 -3.86693 -1.92594 0
M  V30 444 C 38.3987 -4.27941 -3.14707 0
M  V30 445 C 37.4377 -5.44591 -2.79442 0
M  V30 446 N 36.5747 -5.81014 -3.94167 0
M  V30 447 H 41.4147 -2.937 -0.504428 0
M  V30 448 H 38.9517 -1.45172 -0.237392 0
M  V30 449 H 40.9097 -2.91536 -2.98434 0
M  V30 450 H 39.5397 -1.81922 -2.66654 0
M  V30 451 H 38.5917 -3.64723 -1.0808 0
M  V30 452 H 39.9037 -4.71547 -1.62619 0
M  V30 453 H 39.0577 -4.58079 -3.97804 0
M  V30 454 H 37.7967 -3.41845 -3.4784 0
M  V30 455 H 36.8017 -5.1415 -1.94755 0
M  V30 456 H 38.0267 -6.32382 -2.47528 0
M  V30 457 H 35.9727 -4.97874 -4.2715 0
M  V30 458 H 35.8897 -6.60498 -3.67801 0
M  V30 459 H 37.1577 -6.15756 -4.7798 0
M  V30 460 N 41.3868 0.248026 -1.55636 0
M  V30 461 C 42.6118 0.998028 -1.81808 0
M  V30 462 C 43.0368 1.78207 -0.601979 0
M  V30 463 O 42.3948 1.75653 0.448961 0
M  V30 464 C 42.4428 1.9125 -3.05705 0
M  V30 465 O 41.5468 3.00406 -2.82542 0
M  V30 466 H 40.8878 0.284045 -0.600179 0
M  V30 467 H 43.4178 0.269357 -2.02819 0
M  V30 468 H 43.4278 2.32737 -3.35108 0
M  V30 469 H 42.1028 1.33602 -3.93857 0
M  V30 470 H 40.6798 2.63056 -2.64303 0
M  V30 471 N 42.8649 1.48995 0.513639 0
M  V30 472 C 44.1419 1.48338 1.27495 0
M  V30 473 C 44.5219 0.204065 2.10111 0
M  V30 474 O 43.8699 -0.813881 2.13514 0
M  V30 475 C 44.0799 2.75498 2.14247 0
M  V30 476 C 45.4279 3.24484 2.73852 0
M  V30 477 O 46.4519 2.76528 2.24523 0
M  V30 478 O 45.3109 4.07974 3.6362 0
M  V30 479 H 42.4049 0.593149 0.576284 0
M  V30 480 H 44.9509 1.61246 0.528948 0
M  V30 481 H 43.7229 3.60109 1.53092 0
M  V30 482 H 43.3459 2.6539 2.96064 0
M  V30 483 N 44.343 -0.763751 1.37857 0
M  V30 484 C 45.591 -1.51957 1.33243 0
M  V30 485 C 45.912 -1.94835 -0.0801709 0
M  V30 486 O 45.182 -1.66894 -1.02582 0
M  V30 487 H 43.762 -0.563626 0.49024 0
M  V30 488 H 46.424 -0.908504 1.7243 0
M  V30 489 H 45.52 -2.41523 1.97669 0
M  V30 490 N 45.8211 -1.22559 -0.990812 0
M  V30 491 C 46.7681 -0.997519 -2.0813 0
M  V30 492 C 47.7381 0.0814702 -1.659 0
M  V30 493 O 48.9231 -0.0685424 -1.90677 0
M  V30 494 C 46.0631 -0.583615 -3.40129 0
M  V30 495 C 45.1761 -1.7336 -3.9569 0
M  V30 496 C 44.3111 -1.26748 -5.15857 0
M  V30 497 C 43.3501 -2.38888 -5.63559 0
M  V30 498 N 42.4871 -1.93308 -6.74964 0
M  V30 499 H 47.3271 -1.93099 -2.26973 0
M  V30 500 H 44.8641 -0.962114 -1.11273 0
M  V30 501 H 46.8221 -0.324801 -4.15934 0
M  V30 502 H 45.4521 0.312845 -3.2128 0
M  V30 503 H 44.5041 -2.10669 -3.16738 0
M  V30 504 H 45.8161 -2.57704 -4.27071 0
M  V30 505 H 44.9701 -0.966173 -5.98957 0
M  V30 506 H 43.7091 -0.394272 -4.86104 0
M  V30 507 H 42.7141 -2.69805 -4.79046 0
M  V30 508 H 43.9391 -3.26728 -5.95336 0
M  V30 509 H 41.8851 -1.08352 -6.4699 0
M  V30 510 H 41.8021 -2.71217 -7.05675 0
M  V30 511 H 43.0701 -1.66252 -7.61564 0
M  V30 512 N 47.2992 1.18797 -1.03562 0
M  V30 513 C 48.5482 1.87978 -0.731235 0
M  V30 514 C 48.8612 1.80911 0.743671 0
M  V30 515 O 50.0672 2.45407 1.16137 0
M  V30 516 C 48.5232 3.3721 -1.25768 0
M  V30 517 C 48.1312 3.52818 -2.76085 0
M  V30 518 C 49.8752 4.11825 -1.0296 0
M  V30 519 C 47.7822 4.9598 -3.22114 0
M  V30 520 H 46.7122 0.704063 -0.269835 0
M  V30 521 H 49.3632 1.34266 -1.25079 0
M  V30 522 H 47.7452 3.90359 -0.666011 0
M  V30 523 H 48.9192 3.09965 -3.40966 0
M  V30 524 H 47.2342 2.91602 -2.97249 0
M  V30 525 H 49.8312 5.17411 -1.34869 0
M  V30 526 H 50.1742 4.16287 0.0333546 0
M  V30 527 H 50.7072 3.64833 -1.58562 0
M  V30 528 H 47.4462 4.96684 -4.27768 0
M  V30 529 H 46.9662 5.39569 -2.61965 0
M  V30 530 H 48.6452 5.6467 -3.15844 0
M  V30 531 N 48.7773 0.814389 1.34928 0
M  V30 532 C 49.7073 0.244827 2.32213 0
M  V30 533 C 50.6883 -0.634024 1.57842 0
M  V30 534 O 51.8733 -0.562676 1.8587 0
M  V30 535 C 49.0033 -0.601106 3.42058 0
M  V30 536 C 47.9573 0.179896 4.27622 0
M  V30 537 C 47.2833 -0.788237 5.28858 0
M  V30 538 C 48.5833 1.38329 5.03649 0
M  V30 539 H 50.2773 1.05763 2.80097 0
M  V30 540 H 47.8233 0.510029 1.34665 0
M  V30 541 H 49.7763 -1.00968 4.09125 0
M  V30 542 H 48.5003 -1.44688 2.92802 0
M  V30 543 H 47.1593 0.569739 3.62146 0
M  V30 544 H 46.8073 -1.62973 4.75866 0
M  V30 545 H 46.5073 -0.269942 5.8698 0
M  V30 546 H 48.0313 -1.19485 5.98795 0
M  V30 547 H 49.4453 1.04918 5.63618 0
M  V30 548 H 47.8423 1.83662 5.71304 0
M  V30 549 H 48.9123 2.16592 4.33839 0
M  V30 550 N 50.2554 -1.46986 0.568584 0
M  V30 551 C 51.5014 -2.02741 0.0488709 0
M  V30 552 C 51.8344 -1.44077 -1.30214 0
M  V30 553 O 51.1094 -0.600552 -1.84996 0
M  V30 554 C 51.3924 -3.60086 -0.032047 0
M  V30 555 C 51.2454 -4.29162 1.34686 0
M  V30 556 C 52.5644 -4.33838 -0.739798 0
M  V30 557 H 49.6834 -0.736749 0.0192338 0
M  V30 558 H 52.3254 -1.75289 0.733065 0
M  V30 559 H 50.4754 -3.83606 -0.61473 0
M  V30 560 H 52.1474 -4.16948 1.97362 0
M  V30 561 H 50.3904 -3.89073 1.91846 0
M  V30 562 H 51.0614 -5.37826 1.24285 0
M  V30 563 H 53.5374 -4.15378 -0.244939 0
M  V30 564 H 52.4134 -5.43537 -0.765406 0
M  V30 565 H 52.6744 -4.03875 -1.79827 0
M  V30 566 N 51.7335 -0.305618 -1.54608 0
M  V30 567 C 52.9795 0.295595 -2.01241 0
M  V30 568 C 53.3345 1.51171 -1.19018 0
M  V30 569 O 52.6275 1.89832 -0.259684 0
M  V30 570 C 52.8215 0.698983 -3.50498 0
M  V30 571 C 52.6505 -0.476491 -4.47168 0
M  V30 572 C 51.4205 -0.969963 -4.95903 0
M  V30 573 C 53.6185 -1.32294 -4.96994 0
M  V30 574 N 51.6005 -2.11172 -5.76437 0
M  V30 575 C 52.9715 -2.31212 -5.75275 0
M  V30 576 C 55.0265 -1.35278 -4.7917 0
M  V30 577 C 53.7295 -3.32896 -6.37631 0
M  V30 578 C 55.7555 -2.35823 -5.42348 0
M  V30 579 C 55.1175 -3.33469 -6.20466 0
M  V30 580 H 51.2165 0.0724992 -0.778632 0
M  V30 581 H 53.8005 -0.436583 -1.89742 0
M  V30 582 H 51.9715 1.40032 -3.62278 0
M  V30 583 H 53.7035 1.28013 -3.8392 0
M  V30 584 H 50.4585 -0.544178 -4.70463 0
M  V30 585 H 50.8825 -2.68714 -6.21387 0
M  V30 586 H 55.5245 -0.61157 -4.18354 0
M  V30 587 H 53.2425 -4.07933 -6.97579 0
M  V30 588 H 56.8285 -2.38911 -5.30484 0
M  V30 589 H 55.7085 -4.09996 -6.68485 0
M  V30 590 N 53.2116 1.57565 -0.0334293 0
M  V30 591 C 54.1586 2.10478 0.946981 0
M  V30 592 C 55.1286 1.00787 1.32027 0
M  V30 593 O 56.3136 1.28232 1.41284 0
M  V30 594 C 53.4536 2.63994 2.22263 0
M  V30 595 C 52.5666 3.87709 1.90541 0
M  V30 596 C 51.7016 4.29604 3.12433 0
M  V30 597 C 50.7406 5.46065 2.76549 0
M  V30 598 N 49.8776 5.83096 3.9108 0
M  V30 599 H 54.7176 2.93963 0.488846 0
M  V30 600 H 52.2546 1.45296 0.22969 0
M  V30 601 H 54.2126 2.93114 2.96884 0
M  V30 602 H 52.8426 1.83333 2.65685 0
M  V30 603 H 51.8946 3.65291 1.06144 0
M  V30 604 H 53.2066 4.72403 1.60116 0
M  V30 605 H 52.3606 4.60182 3.9537 0
M  V30 606 H 51.0996 3.43685 3.46023 0
M  V30 607 H 50.1046 5.15176 1.92026 0
M  V30 608 H 51.3296 6.33685 2.44171 0
M  V30 609 H 49.2756 5.00132 4.24504 0
M  V30 610 H 49.1926 6.6244 3.64293 0
M  V30 611 H 50.4606 6.18282 4.74708 0
M  V30 612 N 54.6897 -0.239769 1.55765 0
M  V30 613 C 55.5997 -1.31831 1.94056 0
M  V30 614 C 56.6157 -1.52275 0.841925 0
M  V30 615 O 57.7917 -1.65759 1.14394 0
M  V30 616 C 54.8567 -2.65156 2.23368 0
M  V30 617 C 53.9177 -2.53173 3.46701 0
M  V30 618 C 53.1507 -3.8014 3.74606 0
M  V30 619 O 53.3737 -4.82343 3.04469 0
M  V30 620 O 52.3077 -3.78344 4.68123 0
M  V30 621 H 56.1337 -1.02347 2.85935 0
M  V30 622 H 53.7187 -0.441123 1.42739 0
M  V30 623 H 55.6007 -3.43929 2.43497 0
M  V30 624 H 54.2757 -2.94358 1.34666 0
M  V30 625 H 53.1827 -1.72662 3.31871 0
M  V30 626 H 54.5157 -2.28915 4.35728 0
M  V30 627 N 56.1678 -1.49265 -0.50573 0
M  V30 628 C 57.0978 -1.68495 -1.61653 0
M  V30 629 C 58.0788 -0.53366 -1.61512 0
M  V30 630 O 59.2638 -0.76897 -1.78327 0
M  V30 631 C 56.3938 -1.74709 -3.00157 0
M  V30 632 C 55.3478 -2.89581 -3.15162 0
M  V30 633 C 54.6738 -2.80903 -4.5497 0
M  V30 634 C 55.9738 -4.30578 -2.95634 0
M  V30 635 H 57.6678 -2.61493 -1.45814 0
M  V30 636 H 55.2138 -1.25838 -0.70005 0
M  V30 637 H 57.1668 -1.86748 -3.77761 0
M  V30 638 H 55.8908 -0.783067 -3.17074 0
M  V30 639 H 54.5498 -2.77136 -2.39982 0
M  V30 640 H 54.1978 -1.82419 -4.68756 0
M  V30 641 H 53.8978 -3.57999 -4.65951 0
M  V30 642 H 55.4218 -2.94944 -5.34641 0
M  V30 643 H 56.8358 -4.4373 -3.63011 0
M  V30 644 H 55.2328 -5.0886 -3.18091 0
M  V30 645 H 56.3028 -4.45352 -1.91806 0
M  V30 646 N 57.6459 0.756429 -1.3826 0
M  V30 647 C 58.9229 1.50584 -1.24835 0
M  V30 648 C 59.3029 2.10556 0.151485 0
M  V30 649 O 58.6509 1.96825 1.1607 0
M  V30 650 C 58.8609 2.57448 -2.3563 0
M  V30 651 C 60.2089 3.24429 -2.73917 0
M  V30 652 O 61.2329 2.67751 -2.34921 0
M  V30 653 O 60.0919 4.26937 -3.41156 0
M  V30 654 H 57.1859 0.667664 -0.48801 0
M  V30 655 H 59.7319 0.792083 -1.5008 0
M  V30 656 H 58.5039 2.11362 -3.29305 0
M  V30 657 H 58.1269 3.36408 -2.11933 0
M  V30 658 N 59.124 1.23083 0.984299 0
M  V30 659 C 60.354 1.08556 1.75781 0
M  V30 660 C 60.762 -0.366171 1.85623 0
M  V30 661 O 60.105 -1.26524 1.33182 0
M  V30 662 C 60.167 1.63208 3.20318 0
M  V30 663 C 59.831 3.11922 3.33997 0
M  V30 664 C 60.828 4.09259 3.2063 0
M  V30 665 C 58.513 3.51552 3.58771 0
M  V30 666 C 60.507 5.4421 3.31835 0
M  V30 667 C 58.194 4.86649 3.69616 0
M  V30 668 C 59.192 5.82787 3.56157 0
M  V30 669 O 58.88 7.15431 3.66626 0
M  V30 670 H 58.612 0.380713 0.5586 0
M  V30 671 H 61.166 1.63321 1.2456 0
M  V30 672 H 59.396 1.0286 3.72769 0
M  V30 673 H 61.085 1.44216 3.79416 0
M  V30 674 H 61.851 3.79984 3.01392 0
M  V30 675 H 57.73 2.77239 3.6832 0
M  V30 676 H 61.274 6.1923 3.21247 0
M  V30 677 H 57.171 5.15601 3.88363 0
M  V30 678 H 57.939 7.23127 3.83445 0
M  V30 679 N 60.6021 -1.18246 1.0419 0
M  V30 680 C 61.8501 -1.87886 0.744543 0
M  V30 681 C 62.1711 -1.8082 -0.730006 0
M  V30 682 O 61.4411 -1.22736 -1.52685 0
M  V30 683 H 60.0211 -0.695556 0.272417 0
M  V30 684 H 62.6831 -1.43494 1.31892 0
M  V30 685 H 61.7791 -2.9389 1.05049 0
M  V30 686 N 62.0802 -0.821533 -1.34494 0
M  V30 687 C 63.3052 -0.420873 -2.03085 0
M  V30 688 C 63.7302 0.964915 -1.61465 0
M  V30 689 O 63.0882 1.62763 -0.798607 0
M  V30 690 C 63.1362 -0.529414 -3.56693 0
M  V30 691 O 62.2402 0.451302 -4.09923 0
M  V30 692 H 61.5812 -0.173489 -0.640935 0
M  V30 693 H 64.1112 -1.11157 -1.71771 0
M  V30 694 H 64.1212 -0.404671 -4.05988 0
M  V30 695 H 62.7962 -1.54014 -3.86332 0
M  V30 696 H 61.3732 0.285558 -3.71805 0
M  V30 697 N 63.5583 1.46682 -0.576371 0
M  V30 698 C 64.4913 2.27243 0.208731 0
M  V30 699 C 65.4693 1.35238 0.902746 0
M  V30 700 O 66.6533 1.64641 0.917904 0
M  V30 701 C 63.7803 3.12802 1.29896 0
M  V30 702 C 62.8263 4.20524 0.711457 0
M  V30 703 S 63.6593 5.33548 -0.456781 0
M  V30 704 C 64.8153 6.22673 0.634798 0
M  V30 705 H 65.0483 2.93484 -0.474838 0
M  V30 706 H 62.5813 1.50069 -0.363118 0
M  V30 707 H 64.5393 3.62661 1.92321 0
M  V30 708 H 63.2003 2.45887 1.95444 0
M  V30 709 H 62.3933 4.80191 1.53076 0
M  V30 710 H 61.9953 3.73645 0.162999 0
M  V30 711 H 64.2873 6.60181 1.52209 0
M  V30 712 H 65.2303 7.0806 0.0750311 0
M  V30 713 H 65.6383 5.56684 0.936092 0
M  V30 714 N 65.0364 0.313813 1.54444 0
M  V30 715 C 66.2644 -0.293918 2.04802 0
M  V30 716 C 66.6794 -1.46537 1.19047 0
M  V30 717 O 66.0364 -1.81182 0.218939 0
M  V30 718 C 66.0874 -0.737806 3.53891 0
M  V30 719 O 65.8084 0.387038 4.36387 0
M  V30 720 C 67.3094 -1.40936 4.203 0
M  V30 721 H 64.5294 -0.0620057 0.668129 0
M  V30 722 H 67.0734 0.457169 1.99324 0
M  V30 723 H 65.2284 -1.43889 3.59687 0
M  V30 724 H 65.6424 0.0391274 5.24485 0
M  V30 725 H 67.1164 -1.67099 5.26101 0
M  V30 726 H 67.5934 -2.35355 3.70816 0
M  V30 727 H 68.1994 -0.751117 4.18615 0
M  V30 728 N 66.5145 -1.57545 0.0417849 0
M  V30 729 C 67.4245 -2.14451 -0.951213 0
M  V30 730 C 68.4405 -1.09992 -1.34825 0
M  V30 731 O 69.6165 -1.42114 -1.42708 0
M  V30 732 C 66.6815 -2.67063 -2.21084 0
M  V30 733 C 65.7425 -3.86284 -1.87304 0
M  V30 734 C 64.9755 -4.36378 -3.07261 0
M  V30 735 O 65.1985 -3.85587 -4.20332 0
M  V30 736 O 64.1325 -5.28077 -2.88822 0
M  V30 737 H 67.9585 -2.99601 -0.497287 0
M  V30 738 H 65.5435 -1.48317 -0.179567 0
M  V30 739 H 67.4255 -3.00914 -2.95006 0
M  V30 740 H 66.1005 -1.84989 -2.65633 0
M  V30 741 H 65.0075 -3.57338 -1.10727 0
M  V30 742 H 66.3405 -4.6956 -1.47562 0
M  V30 743 N 67.9926 0.231505 -1.5589 0
M  V30 744 C 68.9556 1.27028 -1.90779 0
M  V30 745 C 69.9556 1.40308 -0.785507 0
M  V30 746 O 71.1456 1.38744 -1.05336 0
M  V30 747 C 68.2776 2.64566 -2.14983 0
M  V30 748 H 69.4706 0.973017 -2.83677 0
M  V30 749 H 67.0236 0.471486 -1.49019 0
M  V30 750 H 67.7586 2.99406 -1.24604 0
M  V30 751 H 67.5436 2.56305 -2.96732 0
M  V30 752 H 69.0336 3.39543 -2.43105 0
M  V30 753 N 69.4707 1.49531 0.497807 0
M  V30 754 C 70.3807 1.69176 1.62532 0
M  V30 755 C 71.3967 0.5744 1.64246 0
M  V30 756 O 72.5727 0.849497 1.82608 0
M  V30 757 C 69.6377 1.75695 2.98885 0
M  V30 758 C 68.6987 2.9929 3.07773 0
M  V30 759 C 67.9317 3.05488 4.37622 0
M  V30 760 O 68.1547 2.19192 5.26603 0
M  V30 761 O 67.0887 3.9798 4.51548 0
M  V30 762 H 70.9147 2.647 1.48887 0
M  V30 763 H 68.4997 1.3331 0.674441 0
M  V30 764 H 70.3817 1.82317 3.79919 0
M  V30 765 H 69.0567 0.8335 3.12785 0
M  V30 766 H 67.9637 2.98183 2.25915 0
M  V30 767 H 69.2967 3.91125 2.98801 0
M  V30 768 N 70.9488 -0.749086 1.3866 0
M  V30 769 C 71.8958 -1.86291 1.36251 0
M  V30 770 C 72.8658 -1.64578 0.224347 0
M  V30 771 O 74.0508 -1.86181 0.417279 0
M  V30 772 C 71.1908 -3.23644 1.19786 0
M  V30 773 C 70.3038 -3.57158 2.43027 0
M  V30 774 C 69.4388 -4.83838 2.19258 0
M  V30 775 C 68.4778 -5.10152 3.38247 0
M  V30 776 N 67.6148 -6.28029 3.13884 0
M  V30 777 H 72.4548 -1.87685 2.3147 0
M  V30 778 H 69.9918 -0.917287 1.14997 0
M  V30 779 H 71.9498 -4.0291 1.08254 0
M  V30 780 H 70.5798 -3.21566 0.282031 0
M  V30 781 H 69.6318 -2.72701 2.65214 0
M  V30 782 H 70.9438 -3.7253 3.31697 0
M  V30 783 H 70.0978 -5.71057 2.04888 0
M  V30 784 H 68.8368 -4.70614 1.2796 0
M  V30 785 H 67.8418 -4.21401 3.53131 0
M  V30 786 H 69.0668 -5.25271 4.30427 0
M  V30 787 H 67.0128 -6.1612 2.25238 0
M  V30 788 H 66.9298 -6.43922 3.96106 0
M  V30 789 H 68.1978 -7.18124 3.03179 0
M  V30 790 N 72.4269 -1.23603 -0.977757 0
M  V30 791 C 73.3589 -0.977369 -2.07317 0
M  V30 792 C 74.3719 0.0495845 -1.62724 0
M  V30 793 O 75.5609 -0.186261 -1.77526 0
M  V30 794 C 72.6609 -0.451216 -3.35883 0
M  V30 795 C 71.8339 -1.53896 -4.09432 0
M  V30 796 C 70.8929 -1.01721 -5.16274 0
M  V30 797 O 69.9189 -1.70676 -5.43009 0
M  V30 798 N 71.1209 0.153594 -5.80297 0
M  V30 799 H 73.8859 -1.92047 -2.30082 0
M  V30 800 H 71.4469 -1.14497 -1.14465 0
M  V30 801 H 73.4389 -0.0871574 -4.04606 0
M  V30 802 H 72.0089 0.397368 -3.10064 0
M  V30 803 H 71.2289 -2.07566 -3.35127 0
M  V30 804 H 72.5169 -2.27037 -4.55337 0
M  V30 805 H 71.9149 0.730323 -5.60966 0
M  V30 806 H 70.4719 0.458892 -6.50183 0
M  V30 807 N 73.905 1.17692 -1.04816 0
M  V30 808 C 74.838 2.20436 -0.590173 0
M  V30 809 C 75.816 1.58115 0.379244 0
M  V30 810 O 77 1.86228 0.291762 0
M  V30 811 C 74.127 3.38424 0.136817 0
M  V30 812 C 73.173 4.19176 -0.787023 0
M  V30 813 S 74.006 4.84815 -2.27409 0
M  V30 814 C 75.162 6.06195 -1.55817 0
M  V30 815 H 75.395 2.58944 -1.46067 0
M  V30 816 H 72.928 1.28246 -0.859784 0
M  V30 817 H 74.886 4.06798 0.550076 0
M  V30 818 H 73.547 2.98312 0.983299 0
M  V30 819 H 72.74 5.03499 -0.224681 0
M  V30 820 H 72.342 3.56219 -1.13947 0
M  V30 821 H 74.634 6.72078 -0.855387 0
M  V30 822 H 75.577 6.6695 -2.37873 0
M  V30 823 H 75.985 5.54701 -1.04722 0
M  V30 824 N 75.3831 0.828654 1.34056 0
M  V30 825 C 76.3131 0.269443 2.3194 0
M  V30 826 C 77.2941 -0.617247 1.58506 0
M  V30 827 O 78.4791 -0.542931 1.86456 0
M  V30 828 C 75.6091 -0.564793 3.42677 0
M  V30 829 C 74.5631 0.225241 4.27407 0
M  V30 830 C 73.8891 -0.7321 5.29664 0
M  V30 831 C 75.1891 1.43663 5.02154 0
M  V30 832 H 76.8831 1.08728 2.7896 0
M  V30 833 H 74.4291 0.524283 1.34117 0
M  V30 834 H 76.3821 -0.966233 4.10173 0
M  V30 835 H 75.1061 -1.41574 2.9432 0
M  V30 836 H 73.7651 0.608117 3.61521 0
M  V30 837 H 73.4131 -1.57916 4.77568 0
M  V30 838 H 73.1131 -0.20767 5.87233 0
M  V30 839 H 74.6371 -1.13128 6.00029 0
M  V30 840 H 76.0511 1.1089 5.62473 0
M  V30 841 H 74.4481 1.89711 5.69324 0
M  V30 842 H 75.5181 2.21181 4.31517 0
M  V30 843 N 76.8612 -1.46375 0.584142 0
M  V30 844 C 78.1072 -2.02678 0.0703716 0
M  V30 845 C 78.4402 -1.4545 -1.28678 0
M  V30 846 O 77.7152 -0.62014 -1.84349 0
M  V30 847 C 77.9982 -3.60099 0.00614674 0
M  V30 848 C 77.8512 -4.27709 1.3923 0
M  V30 849 C 79.1702 -4.34598 -0.693742 0
M  V30 850 H 76.2892 -0.736504 0.027047 0
M  V30 851 H 78.9312 -1.74501 0.751615 0
M  V30 852 H 77.0812 -3.84236 -0.574009 0
M  V30 853 H 78.7532 -4.14832 2.01773 0
M  V30 854 H 76.9962 -3.87016 1.95962 0
M  V30 855 H 77.6672 -5.36478 1.29982 0
M  V30 856 H 80.1432 -4.15615 -0.200869 0
M  V30 857 H 79.0192 -5.44318 -0.707714 0
M  V30 858 H 79.2802 -4.05759 -1.75533 0
M  V30 859 N 78.3393 -0.321999 -1.54275 0
M  V30 860 C 79.5643 0.285791 -2.05422 0
M  V30 861 C 79.9893 1.45124 -1.19669 0
M  V30 862 O 79.3473 1.80132 -0.205441 0
M  V30 863 C 79.3953 0.69956 -3.53749 0
M  V30 864 O 78.4993 1.8021 -3.70942 0
M  V30 865 H 77.8403 0.0518962 -0.661969 0
M  V30 866 H 80.3703 -0.469954 -1.9913 0
M  V30 867 H 80.3803 0.982649 -3.9599 0
M  V30 868 H 79.0553 -0.152864 -4.15619 0
M  V30 869 H 77.6323 1.51794 -3.40607 0
M  V30 870 N 79.8174 1.5752 -0.0501392 0
M  V30 871 C 80.7274 2.14952 0.939827 0
M  V30 872 C 81.7434 1.10706 1.34239 0
M  V30 873 O 82.9194 1.42869 1.41952 0
M  V30 874 C 79.9844 2.68232 2.19665 0
M  V30 875 C 79.0454 3.87272 1.85253 0
M  V30 876 C 78.2784 4.38002 3.04943 0
M  V30 877 O 78.5014 3.87811 4.18281 0
M  V30 878 O 77.4354 5.29602 2.86017 0
M  V30 879 H 81.2614 2.9986 0.481392 0
M  V30 880 H 78.8464 1.4841 0.171699 0
M  V30 881 H 80.7284 3.02475 2.93406 0
M  V30 882 H 79.4034 1.86395 2.64648 0
M  V30 883 H 78.3104 3.5792 1.0883 0
M  V30 884 H 79.6434 4.70336 1.4507 0
M  V30 885 N 81.2955 -0.223234 1.56011 0
M  V30 886 C 82.5415 -0.949279 1.79211 0
M  V30 887 C 82.8745 -1.84054 0.619494 0
M  V30 888 O 82.1495 -1.90726 -0.381317 0
M  V30 889 C 82.4325 -1.78965 3.12479 0
M  V30 890 C 82.2855 -0.924997 4.40186 0
M  V30 891 C 83.6045 -2.76774 3.42175 0
M  V30 892 H 80.7235 -0.343676 0.651963 0
M  V30 893 H 83.3655 -0.218253 1.88742 0
M  V30 894 H 81.5155 -2.41291 3.04485 0
M  V30 895 H 83.1875 -0.318615 4.60198 0
M  V30 896 H 81.4305 -0.230344 4.33188 0
M  V30 897 H 82.1015 -1.54735 5.29869 0
M  V30 898 H 84.5775 -2.24584 3.50287 0
M  V30 899 H 83.4535 -3.32678 4.36597 0
M  V30 900 H 83.7145 -3.54429 2.64258 0
M  V30 901 N 82.7736 -1.49793 -0.48987 0
M  V30 902 C 83.7216 -1.67783 -1.61095 0
M  V30 903 C 84.7156 -0.543683 -1.60438 0
M  V30 904 O 85.9216 -0.723647 -1.64813 0
M  V30 905 H 82.2966 -0.529255 -0.534222 0
M  V30 906 H 84.2676 -2.61861 -1.43078 0
M  V30 907 C 83.0166 -1.77191 -2.99164 0
M  V30 908 H 82.3396 -2.63841 -3.0038 0
M  V30 909 H 83.7796 -1.93809 -3.77113 0
M  V30 910 C 82.2386 -0.519203 -3.32875 0
M  V30 911 O 82.7686 0.350124 -4.00171 0
M  V30 912 N 80.9746 -0.378816 -2.8812 0
M  V30 913 H 80.5216 -1.08725 -2.33531 0
M  V30 914 H 80.4796 0.458239 -3.11043 0
M  V30 915 N 84.2517 0.741722 -1.39055 0
M  V30 916 C 85.1817 1.869 -1.39966 0
M  V30 917 C 86.1627 1.6804 -0.26392 0
M  V30 918 O 87.3477 1.88458 -0.468755 0
M  V30 919 C 84.4777 3.24572 -1.23574 0
M  V30 920 C 83.4317 3.58056 -2.34477 0
M  V30 921 C 82.7577 4.94593 -2.0318 0
M  V30 922 C 84.0577 3.61716 -3.76774 0
M  V30 923 H 85.7517 1.86395 -2.34302 0
M  V30 924 H 83.2977 0.895361 -1.1278 0
M  V30 925 H 85.2507 4.031 -1.22834 0
M  V30 926 H 83.9747 3.25587 -0.257045 0
M  V30 927 H 82.6337 2.81854 -2.34423 0
M  V30 928 H 82.2817 4.92181 -1.03765 0
M  V30 929 H 81.9817 5.17964 -2.77465 0
M  V30 930 H 83.5057 5.75486 -2.04079 0
M  V30 931 H 84.9197 4.30335 -3.78794 0
M  V30 932 H 83.3167 3.96603 -4.50362 0
M  V30 933 H 84.3867 2.61672 -4.08235 0
M  V30 934 N 85.7298 1.2412 0.971189 0
M  V30 935 C 86.6598 1.05508 2.08304 0
M  V30 936 C 87.6408 -0.0308864 1.70072 0
M  V30 937 O 88.8258 0.135521 1.93727 0
M  V30 938 C 85.9558 0.655365 3.4106 0
M  V30 939 C 84.9098 1.68971 3.93234 0
M  V30 940 C 84.2358 1.14516 5.22293 0
M  V30 941 C 85.5358 3.08487 4.21465 0
M  V30 942 H 87.2298 1.98507 2.24132 0
M  V30 943 H 84.7758 0.955821 1.07704 0
M  V30 944 H 86.7288 0.51217 4.18276 0
M  V30 945 H 85.4528 -0.31032 3.25122 0
M  V30 946 H 84.1118 1.82106 3.18171 0
M  V30 947 H 83.7598 0.170189 5.02712 0
M  V30 948 H 83.4598 1.83635 5.58168 0
M  V30 949 H 84.9838 1.01401 6.02121 0
M  V30 950 H 86.3978 2.98601 4.89398 0
M  V30 951 H 84.7948 3.74926 4.68562 0
M  V30 952 H 85.8648 3.56787 3.28376 0
M  V30 953 N 87.2079 -1.17134 1.05439 0
M  V30 954 C 88.6239 -1.39454 0.776201 0
M  V30 955 C 88.8239 -1.91454 -0.628307 0
M  V30 956 O 87.8799 -2.10777 -1.39031 0
M  V30 957 C 89.1929 -2.38305 1.83388 0
M  V30 958 C 90.7409 -2.52006 1.85639 0
M  V30 959 C 91.2159 -3.54133 2.90437 0
M  V30 960 N 92.7069 -3.61653 2.89415 0
M  V30 961 C 93.4419 -4.4044 3.67152 0
M  V30 962 N 92.9379 -5.22721 4.54681 0
M  V30 963 N 94.7309 -4.35337 3.55581 0
M  V30 964 H 86.8819 -0.817134 1.96053 0
M  V30 965 H 89.1449 -0.421626 0.849079 0
M  V30 966 H 88.8509 -2.07173 2.84204 0
M  V30 967 H 88.7249 -3.37841 1.67761 0
M  V30 968 H 91.1119 -2.82447 0.85486 0
M  V30 969 H 91.1929 -1.52537 2.05344 0
M  V30 970 H 90.8369 -3.24431 3.90777 0
M  V30 971 H 90.7669 -4.53313 2.67983 0
M  V30 972 H 93.2579 -3.02909 2.25952 0
M  V30 973 H 93.5709 -5.80027 5.10674 0
M  V30 974 H 91.9159 -5.22093 4.58741 0
M  V30 975 H 95.1069 -3.70112 2.86592 0
M  V30 976 H 95.2799 -4.96494 4.1641 0
M  V30 977 N 88.686 -0.835752 -1.33615 0
M  V30 978 C 89.596 -0.269088 -2.33052 0
M  V30 979 C 90.612 0.603251 -1.63208 0
M  V30 980 O 91.788 0.508112 -1.94885 0
M  V30 981 C 88.853 0.549091 -3.42324 0
M  V30 982 C 87.914 -0.347156 -4.27894 0
M  V30 983 C 87.147 0.43207 -5.31948 0
M  V30 984 O 87.37 1.66409 -5.45586 0
M  V30 985 O 86.304 -0.192298 -6.01593 0
M  V30 986 H 90.13 -1.09243 -2.83372 0
M  V30 987 H 87.715 -0.598198 -1.36901 0
M  V30 988 H 89.597 1.01414 -4.09015 0
M  V30 989 H 88.272 1.34955 -2.94226 0
M  V30 990 H 87.179 -0.859979 -3.64081 0
M  V30 991 H 88.512 -1.1123 -4.79467 0
M  V30 992 N 90.1641 1.46063 -0.591896 0
M  V30 993 C 91.0941 2.33172 0.123673 0
M  V30 994 C 92.0751 1.45897 0.87453 0
M  V30 995 O 93.2601 1.74698 0.848181 0
M  V30 996 C 90.3901 3.28336 1.13194 0
M  V30 997 C 89.3441 4.25124 0.495324 0
M  V30 998 C 88.6701 5.09863 1.61071 0
M  V30 999 C 89.9701 5.19143 -0.573425 0
M  V30 1000 H 91.6641 2.93252 -0.603646 0
M  V30 1001 H 89.2101 1.41014 -0.291741 0
M  V30 1002 H 91.1631 3.88137 1.64097 0
M  V30 1003 H 89.8871 2.66383 1.88965 0
M  V30 1004 H 88.5461 3.66599 0.00729452 0
M  V30 1005 H 88.1941 4.44288 2.35832 0
M  V30 1006 H 87.8941 5.75417 1.19035 0
M  V30 1007 H 89.4181 5.72529 2.12233 0
M  V30 1008 H 90.8321 5.73106 -0.1491 0
M  V30 1009 H 89.2291 5.93089 -0.914636 0
M  V30 1010 H 90.2991 4.62519 -1.45617 0
M  V30 1011 N 91.6422 0.330177 1.54103 0
M  V30 1012 C 92.5892 -0.532762 2.24567 0
M  V30 1013 C 93.5592 -1.10635 1.23892 0
M  V30 1014 O 94.7442 -1.14546 1.5259 0
M  V30 1015 C 91.8842 -1.6845 3.01195 0
M  V30 1016 C 90.9972 -1.13951 4.167 0
M  V30 1017 C 90.1322 -2.25746 4.80845 0
M  V30 1018 C 89.1712 -1.6853 5.88442 0
M  V30 1019 N 88.3082 -2.74014 6.46421 0
M  V30 1020 H 93.1482 0.0746905 2.97906 0
M  V30 1021 H 90.6852 0.048632 1.4702 0
M  V30 1022 H 92.6432 -2.36234 3.43874 0
M  V30 1023 H 91.2732 -2.26314 2.30178 0
M  V30 1024 H 90.3252 -0.35301 3.78758 0
M  V30 1025 H 91.6372 -0.680892 4.94131 0
M  V30 1026 H 90.7912 -3.01422 5.26526 0
M  V30 1027 H 89.5302 -2.74947 4.0281 0
M  V30 1028 H 88.5352 -0.913543 5.42157 0
M  V30 1029 H 89.7602 -1.20198 6.68378 0
M  V30 1030 H 87.7062 -3.22494 5.71256 0
M  V30 1031 H 87.6232 -2.32735 7.19285 0
M  V30 1032 H 88.8912 -3.49499 6.96757 0
M  V30 1033 N 93.1203 -1.57491 0.0584922 0
M  V30 1034 C 94.0703 -2.08474 -0.923188 0
M  V30 1035 C 95.0543 -0.991479 -1.26722 0
M  V30 1036 O 96.2463 -1.25473 -1.24842 0
M  V30 1037 C 93.3753 -2.6392 -2.19548 0
M  V30 1038 C 92.4613 -3.80227 -1.87852 0
M  V30 1039 N 92.8523 -4.89714 -1.26546 0
M  V30 1040 C 91.1503 -3.89271 -2.17679 0
M  V30 1041 C 91.8513 -5.70689 -1.12644 0
M  V30 1042 N 90.8273 -5.18531 -1.63176 0
M  V30 1043 H 94.6293 -2.90517 -0.444653 0
M  V30 1044 H 92.1433 -1.61745 -0.145764 0
M  V30 1045 H 94.1403 -2.98752 -2.9078 0
M  V30 1046 H 92.8003 -1.83318 -2.68001 0
M  V30 1047 H 93.8113 -5.09358 -0.936757 0
M  V30 1048 H 90.4883 -3.19623 -2.68602 0
M  V30 1049 H 91.8783 -6.6875 -0.6499 0
M  V30 1050 N 94.5984 0.214957 -1.56127 0
M  V30 1051 C 96.0094 0.781386 -1.69562 0
M  V30 1052 C 96.3604 1.84707 -0.66165 0
M  V30 1053 O 95.4854 2.156 0.185927 0
M  V30 1054 C 96.0804 1.42411 -3.07416 0
M  V30 1055 C 94.6394 1.93786 -3.22683 0
M  V30 1056 C 93.7864 0.800438 -2.65496 0
M  V30 1057 H 96.7374 -0.00980633 -1.58697 0
M  V30 1058 H 96.7584 2.29309 -3.0364 0
M  V30 1059 H 96.2704 0.64826 -3.82648 0
M  V30 1060 H 94.3714 2.74152 -2.52332 0
M  V30 1061 H 94.4844 2.1133 -4.29973 0
M  V30 1062 H 92.8484 1.2095 -2.2415 0
M  V30 1063 H 93.6314 0.0371471 -3.4328 0
M  V30 1064 N 96.0765 1.50051 0.48192 0
M  V30 1065 C 97.0245 1.68635 1.60203 0
M  V30 1066 C 98.0185 0.552184 1.60148 0
M  V30 1067 O 99.2245 0.732377 1.64427 0
M  V30 1068 H 95.5995 0.532081 0.531407 0
M  V30 1069 H 97.5705 2.62616 1.41688 0
M  V30 1070 C 96.3195 1.78775 2.9822 0
M  V30 1071 H 95.6425 2.6543 2.98976 0
M  V30 1072 H 97.0825 1.95806 3.7608 0
M  V30 1073 C 95.5415 0.536849 3.32595 0
M  V30 1074 O 96.0715 -0.328897 4.00351 0
M  V30 1075 N 94.2775 0.394091 2.87915 0
M  V30 1076 H 93.8245 1.09962 2.32951 0
M  V30 1077 H 93.7825 -0.441737 3.11281 0
M  V30 1078 N 97.5546 -0.734337 1.39446 0
M  V30 1079 C 98.8036 -1.48937 1.36017 0
M  V30 1080 C 99.1166 -1.95557 -0.0409005 0
M  V30 1081 O 100.323 -2.70779 -0.19778 0
M  V30 1082 C 98.7786 -2.69125 2.38955 0
M  V30 1083 C 98.3866 -2.29452 3.8478 0
M  V30 1084 C 100.131 -3.46944 2.44603 0
M  V30 1085 C 98.0376 -3.46366 4.79358 0
M  V30 1086 H 96.9676 -0.559296 0.505672 0
M  V30 1087 H 99.6186 -0.800983 1.65095 0
M  V30 1088 H 98.0006 -3.40041 2.02948 0
M  V30 1089 H 99.1746 -1.66077 4.29831 0
M  V30 1090 H 97.4896 -1.64723 3.82433 0
M  V30 1091 H 100.087 -4.33907 3.12456 0
M  V30 1092 H 100.43 -3.89454 1.47076 0
M  V30 1093 H 100.963 -2.83056 2.79507 0
M  V30 1094 H 97.7016 -3.08905 5.78151 0
M  V30 1095 H 97.2216 -4.08719 4.38986 0
M  V30 1096 H 98.9006 -4.12691 4.98292 0
M  V30 1097 N 99.0327 -1.24633 -0.964593 0
M  V30 1098 C 100.279 -1.08949 -1.71049 0
M  V30 1099 C 100.612 0.370302 -1.90637 0
M  V30 1100 O 99.8867 1.27349 -1.47011 0
M  V30 1101 C 100.17 -1.83329 -3.0994 0
M  V30 1102 C 100.023 -3.37077 -2.97824 0
M  V30 1103 C 101.342 -1.60846 -4.09654 0
M  V30 1104 H 98.4607 -0.397178 -0.620821 0
M  V30 1105 H 101.103 -1.5334 -1.12191 0
M  V30 1106 H 99.2527 -1.45597 -3.60186 0
M  V30 1107 H 100.925 -3.84425 -2.5498 0
M  V30 1108 H 99.1677 -3.65298 -2.33965 0
M  V30 1109 H 99.8387 -3.84324 -3.96231 0
M  V30 1110 H 102.315 -1.93674 -3.68279 0
M  V30 1111 H 101.191 -2.1534 -5.04896 0
M  V30 1112 H 101.452 -0.547434 -4.38698 0
M  V30 1113 N 100.511 1.16574 -1.06058 0
M  V30 1114 C 101.927 1.3904 -0.783585 0
M  V30 1115 C 102.127 1.91784 0.618145 0
M  V30 1116 O 101.183 2.11511 1.37911 0
M  V30 1117 C 102.496 2.37329 -1.84649 0
M  V30 1118 C 104.044 2.51018 -1.86973 0
M  V30 1119 C 104.519 3.52588 -2.92311 0
M  V30 1120 N 106.01 3.60113 -2.91329 0
M  V30 1121 C 106.745 4.38486 -3.69482 0
M  V30 1122 N 106.241 5.20302 -4.57447 0
M  V30 1123 N 108.034 4.33446 -3.57885 0
M  V30 1124 H 100.185 0.806725 -1.96483 0
M  V30 1125 H 102.448 0.417117 -0.851303 0
M  V30 1126 H 102.154 2.05663 -2.85299 0
M  V30 1127 H 102.028 3.36946 -1.6955 0
M  V30 1128 H 104.415 2.81989 -0.869827 0
M  V30 1129 H 104.496 1.51445 -2.0615 0
M  V30 1130 H 104.14 3.22354 -3.92492 0
M  V30 1131 H 104.07 4.51886 -2.70383 0
M  V30 1132 H 106.561 3.01707 -2.27555 0
M  V30 1133 H 106.874 5.77311 -5.13743 0
M  V30 1134 H 105.219 5.19653 -4.61503 0
M  V30 1135 H 108.41 3.68586 -2.88551 0
M  V30 1136 H 108.583 4.94279 -4.19037 0
M  V30 1137 N 101.989 0.842826 1.3317 0
M  V30 1138 C 103.219 0.453397 2.01564 0
M  V30 1139 C 103.627 -0.951147 1.63554 0
M  V30 1140 O 102.97 -1.63021 0.846746 0
M  V30 1141 C 103.032 0.499013 3.5602 0
M  V30 1142 C 102.696 1.86037 4.1742 0
M  V30 1143 C 103.693 2.82416 4.36506 0
M  V30 1144 C 101.378 2.15428 4.53757 0
M  V30 1145 C 103.372 4.06346 4.91082 0
M  V30 1146 C 101.059 3.39615 5.0804 0
M  V30 1147 C 102.057 4.3489 5.26649 0
M  V30 1148 O 101.745 5.5688 5.79776 0
M  V30 1149 H 101.477 0.177871 0.652179 0
M  V30 1150 H 104.031 1.13808 1.70988 0
M  V30 1151 H 102.261 -0.242467 3.85939 0
M  V30 1152 H 103.95 0.126852 4.05702 0
M  V30 1153 H 104.716 2.6101 4.08777 0
M  V30 1154 H 100.595 1.42061 4.38565 0
M  V30 1155 H 104.139 4.80722 5.05522 0
M  V30 1156 H 100.036 3.60876 5.352 0
M  V30 1157 H 100.804 5.58674 5.98185 0
M  V30 1158 N 103.467 -1.45747 0.599634 0
M  V30 1159 C 104.697 -2.06369 0.0977132 0
M  V30 1160 C 105.105 -1.44624 -1.21985 0
M  V30 1161 O 104.448 -0.551831 -1.75216 0
M  V30 1162 C 104.51 -3.59284 -0.124673 0
M  V30 1163 C 104.174 -4.43318 1.10987 0
M  V30 1164 C 105.171 -4.78796 2.02609 0
M  V30 1165 C 102.856 -4.84194 1.33647 0
M  V30 1166 C 104.85 -5.53997 3.15224 0
M  V30 1167 C 102.537 -5.5915 2.46565 0
M  V30 1168 C 103.535 -5.93968 3.37182 0
M  V30 1169 O 103.223 -6.67405 4.48136 0
M  V30 1170 H 102.955 -0.673122 0.0623153 0
M  V30 1171 H 105.509 -1.88104 0.824981 0
M  V30 1172 H 103.739 -3.75919 -0.906745 0
M  V30 1173 H 105.428 -4.01775 -0.577201 0
M  V30 1174 H 106.194 -4.47781 1.86325 0
M  V30 1175 H 102.073 -4.56534 0.64016 0
M  V30 1176 H 105.617 -5.81091 3.85978 0
M  V30 1177 H 101.514 -5.89579 2.62805 0
M  V30 1178 H 102.282 -6.85847 4.46717 0
M  V30 1179 N 104.945 -0.338344 -1.53925 0
M  V30 1180 C 106.222 0.314774 -1.93051 0
M  V30 1181 C 106.602 1.68669 -1.26941 0
M  V30 1182 O 105.95 2.24636 -0.418445 0
M  V30 1183 C 106.16 0.392249 -3.46789 0
M  V30 1184 C 107.508 0.645554 -4.19664 0
M  V30 1185 O 108.532 0.474575 -3.53024 0
M  V30 1186 O 107.391 0.976408 -5.37707 0
M  V30 1187 H 104.485 0.182598 -0.80659 0
M  V30 1188 H 107.031 -0.389141 -1.65178 0
M  V30 1189 H 105.803 -0.570702 -3.87116 0
M  V30 1190 H 105.426 1.14316 -3.80812 0
M  V30 1191 N 106.423 1.57458 -0.0668435 0
M  V30 1192 C 107.839 1.56947 0.289772 0
M  V30 1193 C 108.039 1.07584 1.70376 0
M  V30 1194 O 107.095 0.739486 2.41429 0
M  V30 1195 C 108.408 3.0052 0.103943 0
M  V30 1196 C 109.956 3.12517 0.173857 0
M  V30 1197 C 110.431 4.57997 0.0163682 0
M  V30 1198 N 111.922 4.63144 0.0721352 0
M  V30 1199 C 112.657 5.73394 -0.0253794 0
M  V30 1200 N 112.153 6.92576 -0.176133 0
M  V30 1201 N 113.946 5.62091 0.0313305 0
M  V30 1202 H 106.097 1.87863 -0.991027 0
M  V30 1203 H 108.36 0.86583 -0.38606 0
M  V30 1204 H 108.066 3.40729 -0.871572 0
M  V30 1205 H 107.94 3.67304 0.858366 0
M  V30 1206 H 110.327 2.72197 1.13985 0
M  V30 1207 H 110.408 2.48381 -0.611586 0
M  V30 1208 H 110.052 4.99005 -0.946374 0
M  V30 1209 H 109.982 5.20158 0.821153 0
M  V30 1210 H 112.473 3.77436 0.187263 0
M  V30 1211 H 112.786 7.72418 -0.242821 0
M  V30 1212 H 111.131 6.94678 -0.211429 0
M  V30 1213 H 114.322 4.67867 0.147773 0
M  V30 1214 H 114.495 6.47982 -0.048121 0
M  V30 1215 N 107.901 -0.206675 1.56239 0
M  V30 1216 C 109.15 -0.926964 1.79138 0
M  V30 1217 C 109.463 -1.84901 0.638043 0
M  V30 1218 O 110.669 -2.60906 0.751033 0
M  V30 1219 C 109.125 -1.6986 3.17294 0
M  V30 1220 C 108.733 -0.821956 4.40395 0
M  V30 1221 C 110.477 -2.40922 3.4951 0
M  V30 1222 C 108.384 -1.59179 5.69575 0
M  V30 1223 H 107.314 -0.349864 0.667915 0
M  V30 1224 H 109.965 -0.180487 1.8261 0
M  V30 1225 H 108.347 -2.48853 3.08039 0
M  V30 1226 H 109.521 -0.0715019 4.60745 0
M  V30 1227 H 107.836 -0.222741 4.15804 0
M  V30 1228 H 110.433 -2.99047 4.43255 0
M  V30 1229 H 110.776 -3.14542 2.72707 0
M  V30 1230 H 111.309 -1.68905 3.60161 0
M  V30 1231 H 108.048 -0.898589 6.49312 0
M  V30 1232 H 107.568 -2.31648 5.53262 0
M  V30 1233 H 109.247 -2.14862 6.10281 0
M  V30 1234 N 109.379 -1.50304 -0.473955 0
M  V30 1235 C 110.628 -1.60392 -1.22301 0
M  V30 1236 C 110.941 -0.308411 -1.93153 0
M  V30 1237 O 112.147 -0.288156 -2.69966 0
M  V30 1238 C 110.603 -2.83109 -2.2221 0
M  V30 1239 C 110.211 -4.19524 -1.57173 0
M  V30 1240 C 111.955 -3.0254 -2.97775 0
M  V30 1241 C 109.862 -5.33431 -2.55353 0
M  V30 1242 H 108.792 -0.597286 -0.460179 0
M  V30 1243 H 111.443 -1.76731 -0.493803 0
M  V30 1244 H 109.825 -2.60322 -2.9841 0
M  V30 1245 H 110.999 -4.52554 -0.867824 0
M  V30 1246 H 109.314 -4.05674 -0.939002 0
M  V30 1247 H 111.911 -3.84811 -3.71248 0
M  V30 1248 H 112.254 -2.14154 -3.56992 0
M  V30 1249 H 112.787 -3.25494 -2.28688 0
M  V30 1250 H 109.526 -6.23962 -2.00878 0
M  V30 1251 H 109.046 -5.04823 -3.23904 0
M  V30 1252 H 110.725 -5.63887 -3.17239 0
M  V30 1253 N 110.857 0.726932 -1.39834 0
M  V30 1254 C 112.134 1.47902 -1.28001 0
M  V30 1255 C 112.514 2.1083 0.106789 0
M  V30 1256 O 111.862 1.99242 1.11869 0
M  V30 1257 C 112.072 2.52392 -2.41038 0
M  V30 1258 C 113.42 3.18546 -2.80737 0
M  V30 1259 O 114.444 2.62708 -2.40547 0
M  V30 1260 O 113.303 4.19604 -3.50135 0
M  V30 1261 H 110.397 0.657163 -0.502062 0
M  V30 1262 H 112.943 0.760071 -1.51727 0
M  V30 1263 H 111.715 2.04329 -3.33715 0
M  V30 1264 H 111.338 3.31837 -2.19021 0
M  V30 1265 N 112.336 1.25143 0.95797 0
M  V30 1266 C 113.752 1.01892 1.22842 0
M  V30 1267 C 113.952 -0.266311 1.99732 0
M  V30 1268 O 113.008 -0.979913 2.3271 0
M  V30 1269 C 114.321 2.24004 2.00606 0
M  V30 1270 C 115.869 2.28731 2.13662 0
M  V30 1271 C 116.344 3.5049 2.94823 0
M  V30 1272 N 117.835 3.50866 3.02403 0
M  V30 1273 C 118.57 4.4174 3.65586 0
M  V30 1274 N 118.066 5.42882 4.30408 0
M  V30 1275 N 119.859 4.29429 3.62694 0
M  V30 1276 H 112.01 2.07718 0.443493 0
M  V30 1277 H 114.273 0.912031 0.258657 0
M  V30 1278 H 113.979 3.17395 1.51503 0
M  V30 1279 H 113.853 2.26907 3.01319 0
M  V30 1280 H 116.24 1.35865 2.61963 0
M  V30 1281 H 116.321 2.29848 1.12265 0
M  V30 1282 H 115.965 4.43676 2.47213 0
M  V30 1283 H 115.895 3.46617 3.96439 0
M  V30 1284 H 118.386 2.777 2.56302 0
M  V30 1285 H 118.699 6.0844 4.76467 0
M  V30 1286 H 117.044 5.46758 4.29047 0
M  V30 1287 H 120.235 3.49643 3.11236 0
M  V30 1288 H 120.408 5.00448 4.1165 0
M  V30 1289 N 113.814 -1.1601 1.06675 0
M  V30 1290 C 115.042 -1.90527 0.806667 0
M  V30 1291 C 115.457 -1.77643 -0.639396 0
M  V30 1292 O 114.814 -1.12369 -1.43803 0
M  V30 1293 C 114.865 -3.41106 1.19705 0
M  V30 1294 O 114.586 -3.53608 2.58636 0
M  V30 1295 C 116.087 -4.32663 0.965266 0
M  V30 1296 H 113.307 -0.604053 0.292166 0
M  V30 1297 H 115.851 -1.47026 1.4214 0
M  V30 1298 H 114.006 -3.82296 0.626774 0
M  V30 1299 H 114.42 -4.47011 2.74375 0
M  V30 1300 H 115.894 -5.36763 1.288 0
M  V30 1301 H 116.371 -4.39089 -0.0987936 0
M  V30 1302 H 116.977 -3.97206 1.52011 0
M  V30 1303 N 115.292 -0.849877 -1.32721 0
M  V30 1304 C 116.24 -0.279745 -2.30912 0
M  V30 1305 C 117.234 0.594278 -1.58634 0
M  V30 1306 O 118.44 0.482613 -1.73409 0
M  V30 1307 H 114.815 -0.0717521 -0.748569 0
M  V30 1308 H 116.786 -1.12222 -2.76494 0
M  V30 1309 C 115.535 0.521108 -3.43773 0
M  V30 1310 H 114.858 -0.142141 -3.99547 0
M  V30 1311 H 116.298 0.885693 -4.14646 0
M  V30 1312 C 114.757 1.70442 -2.90605 0
M  V30 1313 O 115.287 2.8034 -2.87702 0
M  V30 1314 N 113.493 1.52991 -2.47067 0
M  V30 1315 H 113.04 0.635914 -2.49628 0
M  V30 1316 H 112.998 2.32311 -2.11847 0
M  V30 1317 N 116.77 1.45427 -0.607355 0
M  V30 1318 C 117.998 2.06614 -0.108814 0
M  V30 1319 C 118.413 1.45204 1.2067 0
M  V30 1320 O 117.77 0.566132 1.73497 0
M  V30 1321 C 117.821 3.61481 0.0375347 0
M  V30 1322 O 117.542 4.20598 -1.22593 0
M  V30 1323 C 119.043 4.39652 0.567561 0
M  V30 1324 H 116.263 0.66747 -0.0687351 0
M  V30 1325 H 118.807 1.86675 -0.835022 0
M  V30 1326 H 116.962 3.80762 0.714068 0
M  V30 1327 H 117.376 5.1377 -1.05547 0
M  V30 1328 H 118.85 5.48518 0.61905 0
M  V30 1329 H 119.327 4.09417 1.58978 0
M  V30 1330 H 119.933 4.25234 -0.0749202 0
M  V30 1331 N 118.248 0.346503 1.53744 0
M  V30 1332 C 119.476 -0.25041 2.05379 0
M  V30 1333 C 119.891 -1.43979 1.22129 0
M  V30 1334 O 119.248 -1.80677 0.257321 0
M  V30 1335 C 119.299 -0.662575 3.55376 0
M  V30 1336 O 119.02 0.479515 4.35468 0
M  V30 1337 C 120.521 -1.31989 4.23195 0
M  V30 1338 H 117.741 -0.0478198 0.669294 0
M  V30 1339 H 120.285 0.499346 1.9831 0
M  V30 1340 H 118.44 -1.36227 3.62658 0
M  V30 1341 H 118.854 0.15037 5.24284 0
M  V30 1342 H 120.328 -1.55902 5.29527 0
M  V30 1343 H 120.805 -2.27436 3.75725 0
M  V30 1344 H 121.411 -0.662154 4.20114 0
M  V30 1345 N 119.726 -1.57421 0.075193 0
M  V30 1346 C 120.656 -2.15942 -0.888324 0
M  V30 1347 C 121.637 -1.08737 -1.30806 0
M  V30 1348 O 122.822 -1.36787 -1.37851 0
M  V30 1349 C 119.952 -2.72379 -2.1547 0
M  V30 1350 C 118.906 -3.8478 -1.87425 0
M  V30 1351 C 118.232 -4.27834 -3.20721 0
M  V30 1352 C 119.532 -5.08869 -1.17684 0
M  V30 1353 H 121.226 -2.96705 -0.400799 0
M  V30 1354 H 118.772 -1.42723 -0.191342 0
M  V30 1355 H 120.725 -3.11965 -2.83295 0
M  V30 1356 H 119.449 -1.88841 -2.6647 0
M  V30 1357 H 118.108 -3.45703 -1.22004 0
M  V30 1358 H 117.756 -3.41214 -3.6957 0
M  V30 1359 H 117.456 -5.03605 -3.02746 0
M  V30 1360 H 118.98 -4.70039 -3.89738 0
M  V30 1361 H 120.394 -5.4575 -1.75584 0
M  V30 1362 H 118.791 -5.8994 -1.09956 0
M  V30 1363 H 119.861 -4.84648 -0.156453 0
M  V30 1364 N 121.204 0.198386 -1.56346 0
M  V30 1365 C 122.434 0.934215 -1.84271 0
M  V30 1366 C 122.842 1.77496 -0.655125 0
M  V30 1367 O 122.185 1.7961 0.385488 0
M  V30 1368 C 122.247 1.88278 -3.06254 0
M  V30 1369 C 121.911 1.22431 -4.40295 0
M  V30 1370 C 122.908 0.602839 -5.16393 0
M  V30 1371 C 120.593 1.22915 -4.87029 0
M  V30 1372 C 122.587 -0.0050083 -6.374 0
M  V30 1373 C 120.274 0.617465 -6.07973 0
M  V30 1374 C 121.272 0.00146341 -6.83 0
M  V30 1375 O 120.96 -0.600642 -8.01653 0
M  V30 1376 H 120.692 0.278245 -0.616081 0
M  V30 1377 H 123.246 0.211626 -2.04307 0
M  V30 1378 H 121.476 2.64498 -2.82095 0
M  V30 1379 H 123.165 2.48612 -3.20853 0
M  V30 1380 H 123.931 0.591265 -4.81382 0
M  V30 1381 H 119.81 1.69801 -4.28589 0
M  V30 1382 H 123.354 -0.48643 -6.95902 0
M  V30 1383 H 119.251 0.62653 -6.42452 0
M  V30 1384 H 120.019 -0.497225 -8.16988 0
M  V30 1385 N 122.682 1.50554 0.465978 0
M  V30 1386 C 123.931 1.61038 1.21448 0
M  V30 1387 C 124.244 0.31865 1.92987 0
M  V30 1388 O 125.45 0.302469 2.6981 0
M  V30 1389 C 123.906 2.84283 2.20706 0
M  V30 1390 C 123.514 4.20352 1.54946 0
M  V30 1391 C 125.258 3.04115 2.96166 0
M  V30 1392 C 123.165 5.34778 2.5252 0
M  V30 1393 H 122.095 0.599718 0.457005 0
M  V30 1394 H 124.746 1.7699 0.484424 0
M  V30 1395 H 123.128 2.61901 2.97025 0
M  V30 1396 H 124.302 4.53008 0.843811 0
M  V30 1397 H 122.617 4.06167 0.917475 0
M  V30 1398 H 125.214 3.86774 3.69202 0
M  V30 1399 H 125.557 2.16045 3.55852 0
M  V30 1400 H 126.09 3.26702 2.26959 0
M  V30 1401 H 122.829 6.25018 1.97566 0
M  V30 1402 H 122.349 5.06534 3.21222 0
M  V30 1403 H 124.028 5.65561 3.14245 0
M  V30 1404 N 124.16 -0.719506 1.40217 0
M  V30 1405 C 125.406 -1.48152 1.38488 0
M  V30 1406 C 125.739 -1.94195 -0.0141867 0
M  V30 1407 O 125.014 -1.67884 -0.982096 0
M  V30 1408 C 125.297 -2.71035 2.37091 0
M  V30 1409 C 125.15 -2.30912 3.86005 0
M  V30 1410 C 126.469 -3.73182 2.33288 0
M  V30 1411 H 123.588 -0.537395 0.504357 0
M  V30 1412 H 126.23 -0.821472 1.71324 0
M  V30 1413 H 124.38 -3.27352 2.0922 0
M  V30 1414 H 126.052 -1.80107 4.24687 0
M  V30 1415 H 124.295 -1.62958 4.02029 0
M  V30 1416 H 124.966 -3.18978 4.50508 0
M  V30 1417 H 127.442 -3.26485 2.57966 0
M  V30 1418 H 126.318 -4.56806 3.04334 0
M  V30 1419 H 126.579 -4.21202 1.34317 0
M  V30 1420 N 125.638 -1.25649 -0.95132 0
M  V30 1421 C 126.571 -1.00644 -2.04807 0
M  V30 1422 C 127.549 0.0654271 -1.62468 0
M  V30 1423 O 128.733 -0.074911 -1.88351 0
M  V30 1424 C 125.86 -0.522052 -3.34653 0
M  V30 1425 C 124.906 -1.58495 -3.95957 0
M  V30 1426 S 125.739 -3.17108 -4.31512 0
M  V30 1427 C 126.895 -2.70412 -5.64471 0
M  V30 1428 H 127.128 -1.93508 -2.25703 0
M  V30 1429 H 124.661 -1.09216 -1.09139 0
M  V30 1430 H 126.619 -0.24923 -4.09743 0
M  V30 1431 H 125.28 0.386146 -3.11717 0
M  V30 1432 H 124.473 -1.1968 -4.89584 0
M  V30 1433 H 124.075 -1.80862 -3.2736 0
M  V30 1434 H 126.367 -2.14245 -6.42733 0
M  V30 1435 H 127.31 -3.62693 -6.08161 0
M  V30 1436 H 127.718 -2.10302 -5.23864 0
M  V30 1437 N 127.117 1.15442 -1.07289 0
M  V30 1438 C 128.027 2.23786 -0.704057 0
M  V30 1439 C 129.043 1.7166 0.284413 0
M  V30 1440 O 130.219 2.00972 0.131205 0
M  V30 1441 C 127.284 3.46535 -0.106792 0
M  V30 1442 C 126.345 4.13654 -1.14842 0
M  V30 1443 C 125.578 5.30544 -0.57956 0
M  V30 1444 O 125.801 5.67187 0.604585 0
M  V30 1445 O 124.735 5.87154 -1.32414 0
M  V30 1446 H 128.561 2.57664 -1.60757 0
M  V30 1447 H 126.146 1.23152 -0.845803 0
M  V30 1448 H 128.028 4.20804 0.224048 0
M  V30 1449 H 126.703 3.14407 0.770049 0
M  V30 1450 H 125.61 3.4131 -1.5316 0
M  V30 1451 H 126.943 4.49861 -1.99714 0
M  V30 1452 N 128.595 0.856903 1.32268 0
M  V30 1453 C 129.825 0.47475 2.01071 0
M  V30 1454 C 130.233 -0.933746 1.64553 0
M  V30 1455 O 129.576 -1.62114 0.863989 0
M  V30 1456 C 129.638 0.536746 3.55471 0
M  V30 1457 C 129.302 1.90453 4.15423 0
M  V30 1458 C 130.299 2.87029 4.33486 0
M  V30 1459 C 127.984 2.20229 4.51447 0
M  V30 1460 C 129.978 4.11532 4.86744 0
M  V30 1461 C 127.665 3.44984 5.0441 0
M  V30 1462 C 128.663 4.40452 5.22007 0
M  V30 1463 O 128.351 5.62998 5.73837 0
M  V30 1464 H 128.083 0.184778 0.650256 0
M  V30 1465 H 130.637 1.15615 1.69771 0
M  V30 1466 H 128.867 -0.20152 3.86175 0
M  V30 1467 H 130.556 0.169875 4.05544 0
M  V30 1468 H 131.322 2.6533 4.05986 0
M  V30 1469 H 127.201 1.46705 4.37034 0
M  V30 1470 H 130.745 4.86056 5.00395 0
M  V30 1471 H 126.642 3.66532 5.31342 0
M  V30 1472 H 127.41 5.64987 5.92226 0
M  V30 1473 N 130.073 -1.45103 0.615059 0
M  V30 1474 C 131.313 -2.04069 0.116282 0
M  V30 1475 C 131.677 -1.4721 -1.2326 0
M  V30 1476 O 132.878 -1.97577 -1.82255 0
M  V30 1477 C 131.149 -3.57298 0.085482 0
M  V30 1478 S 132.708 -4.37394 -0.351015 0
M  V30 1479 H 129.526 -0.709006 0.0532183 0
M  V30 1480 H 132.128 -1.77709 0.81484 0
M  V30 1481 H 130.832 -3.9619 1.0706 0
M  V30 1482 H 130.363 -3.88244 -0.634835 0
M  V30 1483 H 132.378 -4.69734 -1.59889 0
M  V30 1484 N 131.551 -0.354651 -1.53558 0
M  V30 1485 C 132.461 0.50515 -2.29097 0
M  V30 1486 C 133.477 1.10223 -1.34636 0
M  V30 1487 O 134.653 1.11553 -1.67684 0
M  V30 1488 C 131.718 1.63479 -3.05738 0
M  V30 1489 C 130.779 1.06636 -4.15845 0
M  V30 1490 C 130.012 2.14217 -4.88822 0
M  V30 1491 O 130.235 3.35137 -4.61562 0
M  V30 1492 O 129.169 1.77887 -5.75013 0
M  V30 1493 H 132.995 -0.109237 -3.03503 0
M  V30 1494 H 130.58 -0.119357 -1.48922 0
M  V30 1495 H 132.462 2.2918 -3.5363 0
M  V30 1496 H 131.137 2.23478 -2.34178 0
M  V30 1497 H 130.044 0.373565 -3.7223 0
M  V30 1498 H 131.377 0.511081 -4.89539 0
M  V30 1499 N 133.029 1.57378 -0.0835403 0
M  V30 1500 C 134.277 1.93547 0.581718 0
M  V30 1501 C 134.598 0.96524 1.69435 0
M  V30 1502 O 133.868 0.0153369 1.95894 0
M  V30 1503 H 132.448 0.714521 0.217874 0
M  V30 1504 H 135.11 1.94366 -0.144158 0
M  V30 1505 H 134.206 2.95665 0.999423 0
M  V30 1506 N 134.507 -0.190092 1.56449 0
M  V30 1507 C 135.755 -0.907908 1.80559 0
M  V30 1508 C 136.076 -1.83583 0.657438 0
M  V30 1509 O 135.346 -1.93203 -0.323924 0
M  V30 1510 H 133.926 -0.338247 0.666032 0
M  V30 1511 H 136.588 -0.194403 1.93928 0
M  V30 1512 H 135.684 -1.49604 2.73907 0
M  V30 1513 N 135.985 -1.50799 -0.457987 0
M  V30 1514 C 137.262 -1.52968 -1.21902 0
M  V30 1515 C 137.642 -0.281906 -2.09209 0
M  V30 1516 O 136.99 0.734076 -2.16388 0
M  V30 1517 C 137.2 -2.8326 -2.03875 0
M  V30 1518 C 138.548 -3.34425 -2.6162 0
M  V30 1519 O 139.572 -2.8467 -2.14106 0
M  V30 1520 O 138.431 -4.21188 -3.48228 0
M  V30 1521 H 135.525 -0.614129 -0.553873 0
M  V30 1522 H 138.071 -1.63098 -0.468739 0
M  V30 1523 H 136.843 -3.65543 -1.39621 0
M  V30 1524 H 136.466 -2.76195 -2.8601 0
M  V30 1525 N 137.463 0.71206 -1.40597 0
M  V30 1526 C 138.393 1.83889 -1.43899 0
M  V30 1527 C 139.374 1.67442 -0.299504 0
M  V30 1528 O 140.559 1.87421 -0.508624 0
M  V30 1529 C 137.689 3.21877 -1.30431 0
M  V30 1530 C 136.643 3.53002 -2.42019 0
M  V30 1531 C 135.969 4.90172 -2.13626 0
M  V30 1532 C 137.269 3.53643 -3.84362 0
M  V30 1533 H 138.963 1.81383 -2.38203 0
M  V30 1534 H 136.509 0.871237 -1.14654 0
M  V30 1535 H 138.462 4.00404 -1.31357 0
M  V30 1536 H 137.186 3.24968 -0.326049 0
M  V30 1537 H 135.845 2.76818 -2.40349 0
M  V30 1538 H 135.493 4.89869 -1.14182 0
M  V30 1539 H 135.193 5.11962 -2.88389 0
M  V30 1540 H 136.717 5.71028 -2.1624 0
M  V30 1541 H 138.131 4.22203 -3.87837 0
M  V30 1542 H 136.528 3.86961 -4.58673 0
M  V30 1543 H 137.598 2.52954 -4.13693 0
M  V30 1544 N 138.941 1.26152 0.944643 0
M  V30 1545 C 139.904 1.07474 2.0244 0
M  V30 1546 C 140.904 0.0242064 1.60782 0
M  V30 1547 O 142.094 0.267302 1.72137 0
M  V30 1548 C 139.226 0.633956 3.34953 0
M  V30 1549 H 140.419 2.03336 2.20442 0
M  V30 1550 H 137.972 1.087 1.12312 0
M  V30 1551 H 138.707 -0.326811 3.22649 0
M  V30 1552 H 138.492 1.39247 3.66542 0
M  V30 1553 H 139.982 0.52501 4.14287 0
M  V30 1554 N 140.419 -1.14872 1.07899 0
M  V30 1555 C 141.644 -1.90202 0.826926 0
M  V30 1556 C 142.069 -1.77774 -0.614664 0
M  V30 1557 O 141.427 -1.11431 -1.43013 0
M  V30 1558 C 141.475 -3.38352 1.24702 0
M  V30 1559 O 140.579 -4.10497 0.39575 0
M  V30 1560 H 139.92 -0.591968 0.300782 0
M  V30 1561 H 142.45 -1.45437 1.43907 0
M  V30 1562 H 142.46 -3.89156 1.22563 0
M  V30 1563 H 141.135 -3.46715 2.29698 0
M  V30 1564 H 139.712 -3.69796 0.480117 0
M  V30 1565 N 141.898 -0.863906 -1.31812 0
M  V30 1566 C 143.144 -0.472535 -1.97218 0
M  V30 1567 C 143.477 0.971394 -1.68159 0
M  V30 1568 O 142.752 1.68309 -0.974798 0
M  V30 1569 C 143.035 -0.723054 -3.52766 0
M  V30 1570 C 142.888 -2.21608 -3.91421 0
M  V30 1571 C 144.207 -0.185522 -4.39709 0
M  V30 1572 H 141.326 -0.173158 -0.71637 0
M  V30 1573 H 143.968 -1.08403 -1.56041 0
M  V30 1574 H 142.118 -0.202577 -3.87971 0
M  V30 1575 H 143.79 -2.80334 -3.66347 0
M  V30 1576 H 142.033 -2.691 -3.40246 0
M  V30 1577 H 142.704 -2.34203 -4.99853 0
M  V30 1578 H 145.18 -0.630726 -4.11292 0
M  V30 1579 H 144.056 -0.390306 -5.47511 0
M  V30 1580 H 144.317 0.912229 -4.32586 0
M  V30 1581 N 143.376 1.44774 -0.622745 0
M  V30 1582 C 144.625 2.01334 -0.121397 0
M  V30 1583 C 144.938 1.49505 1.26125 0
M  V30 1584 O 146.144 1.98139 1.85616 0
M  V30 1585 C 144.6 3.59516 -0.166298 0
M  V30 1586 C 144.208 4.20342 -1.54974 0
M  V30 1587 C 145.952 4.23582 0.279021 0
M  V30 1588 C 143.859 5.70721 -1.55021 0
M  V30 1589 H 142.789 0.752851 -0.0416172 0
M  V30 1590 H 145.44 1.66083 -0.780309 0
M  V30 1591 H 143.822 3.92027 0.559557 0
M  V30 1592 H 144.996 3.99381 -2.29851 0
M  V30 1593 H 143.311 3.68529 -1.93843 0
M  V30 1594 H 145.908 5.33868 0.298083 0
M  V30 1595 H 146.251 3.95327 1.30471 0
M  V30 1596 H 146.784 3.95843 -0.394063 0
M  V30 1597 H 143.523 6.03698 -2.55399 0
M  V30 1598 H 143.043 5.93829 -0.844245 0
M  V30 1599 H 144.722 6.34203 -1.28047 0
M  V30 1600 N 144.854 0.36279 1.53368 0
M  V30 1601 C 146.082 -0.228613 2.05633 0
M  V30 1602 C 146.497 -1.42676 1.23649 0
M  V30 1603 O 145.854 -1.80394 0.27647 0
M  V30 1604 C 145.905 -0.624845 3.56059 0
M  V30 1605 O 145.626 0.525675 4.34935 0
M  V30 1606 C 147.127 -1.27493 4.24571 0
M  V30 1607 H 144.347 -0.0407183 0.669763 0
M  V30 1608 H 146.891 0.520352 1.97769 0
M  V30 1609 H 145.046 -1.32373 3.64083 0
M  V30 1610 H 145.46 0.205969 5.24095 0
M  V30 1611 H 146.934 -1.50277 5.31151 0
M  V30 1612 H 147.411 -2.23439 3.78116 0
M  V30 1613 H 148.017 -0.617558 4.20792 0
M  V30 1614 N 146.332 -1.57332 0.0918853 0
M  V30 1615 C 147.279 -2.13847 -0.868211 0
M  V30 1616 C 148.249 -1.05618 -1.28196 0
M  V30 1617 O 149.434 -1.33387 -1.36427 0
M  V30 1618 C 146.574 -2.72062 -2.12312 0
M  V30 1619 C 145.687 -3.94514 -1.7602 0
M  V30 1620 C 144.822 -4.40903 -2.96273 0
M  V30 1621 C 143.861 -5.55953 -2.56092 0
M  V30 1622 N 142.998 -5.97209 -3.69169 0
M  V30 1623 H 147.838 -2.95575 -0.379406 0
M  V30 1624 H 145.375 -1.46048 -0.175606 0
M  V30 1625 H 147.333 -3.03931 -2.858 0
M  V30 1626 H 145.963 -1.93068 -2.58698 0
M  V30 1627 H 145.015 -3.68979 -0.925135 0
M  V30 1628 H 146.327 -4.7802 -1.42472 0
M  V30 1629 H 145.481 -4.74539 -3.78018 0
M  V30 1630 H 144.22 -3.56291 -3.33029 0
M  V30 1631 H 143.225 -5.21948 -1.72773 0
M  V30 1632 H 144.45 -6.42311 -2.20484 0
M  V30 1633 H 142.396 -5.15543 -4.05649 0
M  V30 1634 H 142.313 -6.75504 -3.39456 0
M  V30 1635 H 143.581 -6.35475 -4.51434 0
M  V30 1636 N 147.81 0.181792 -1.56548 0
M  V30 1637 C 149.058 0.89832 -1.81038 0
M  V30 1638 C 149.379 1.83232 -0.667164 0
M  V30 1639 O 148.649 1.93372 0.313673 0
M  V30 1640 H 147.229 0.33471 -0.667816 0
M  V30 1641 H 149.891 0.184116 -1.94028 0
M  V30 1642 H 148.987 1.4815 -2.74696 0
M  V30 1643 N 149.288 1.51039 0.449983 0
M  V30 1644 C 150.516 1.66869 1.2232 0
M  V30 1645 C 150.931 0.360727 1.85322 0
M  V30 1646 O 150.288 -0.659531 1.70166 0
M  V30 1647 C 150.339 2.77524 2.31652 0
M  V30 1648 O 150.06 4.03252 1.7123 0
M  V30 1649 C 151.561 3.04512 3.2216 0
M  V30 1650 H 148.781 0.560326 0.369155 0
M  V30 1651 H 151.325 1.97385 0.534719 0
M  V30 1652 H 149.48 2.49642 2.96239 0
M  V30 1653 H 149.894 4.64609 2.43389 0
M  V30 1654 H 151.368 3.85551 3.95038 0
M  V30 1655 H 151.845 2.16415 3.8218 0
M  V30 1656 H 152.451 3.34005 2.63288 0
M  V30 1657 N 150.766 -0.704594 1.40972 0
M  V30 1658 C 151.713 -1.81862 1.42109 0
M  V30 1659 C 152.683 -1.63781 0.276593 0
M  V30 1660 O 153.868 -1.84759 0.4763 0
M  V30 1661 C 151.008 -3.19669 1.30022 0
M  V30 1662 C 150.121 -3.49246 2.54267 0
M  V30 1663 C 149.256 -4.76618 2.3454 0
M  V30 1664 C 148.295 -4.99133 3.54306 0
M  V30 1665 N 147.432 -6.17726 3.33706 0
M  V30 1666 H 152.272 -1.80226 2.37324 0
M  V30 1667 H 149.809 -0.880238 1.17857 0
M  V30 1668 H 151.767 -3.99263 1.21018 0
M  V30 1669 H 150.397 -3.20506 0.384192 0
M  V30 1670 H 149.449 -2.64125 2.73756 0
M  V30 1671 H 150.761 -3.61788 3.43381 0
M  V30 1672 H 149.915 -5.64249 2.22952 0
M  V30 1673 H 148.654 -4.66305 1.42867 0
M  V30 1674 H 147.659 -4.09953 3.66359 0
M  V30 1675 H 148.884 -5.11311 4.4692 0
M  V30 1676 H 146.83 -6.08642 2.44725 0
M  V30 1677 H 146.747 -6.30995 4.16391 0
M  V30 1678 H 148.015 -7.08115 3.25873 0
M  V30 1679 N 152.244 -1.26651 -0.937939 0
M  V30 1680 C 153.154 -1.10276 -2.07066 0
M  V30 1681 C 154.17 -0.0354197 -1.73964 0
M  V30 1682 O 155.346 -0.239816 -1.99967 0
M  V30 1683 C 152.411 -0.740887 -3.38691 0
M  V30 1684 C 151.472 -1.88799 -3.85556 0
M  V30 1685 C 150.705 -1.54329 -5.10899 0
M  V30 1686 O 150.928 -0.446494 -5.6865 0
M  V30 1687 O 149.862 -2.37911 -5.52885 0
M  V30 1688 H 153.688 -2.05309 -2.23789 0
M  V30 1689 H 151.273 -1.05743 -1.0554 0
M  V30 1690 H 153.155 -0.55195 -4.1777 0
M  V30 1691 H 151.83 0.180022 -3.23199 0
M  V30 1692 H 150.737 -2.13191 -3.07409 0
M  V30 1693 H 152.07 -2.78874 -4.05574 0
M  V30 1694 N 153.722 1.14298 -1.08507 0
M  V30 1695 C 155.138 1.37347 -0.812901 0
M  V30 1696 C 155.338 1.93052 0.577325 0
M  V30 1697 O 154.394 2.14389 1.33393 0
M  V30 1698 C 155.707 2.33359 -1.89642 0
M  V30 1699 C 157.255 2.46996 -1.92255 0
M  V30 1700 C 157.73 3.46309 -2.99724 0
M  V30 1701 N 159.221 3.53853 -2.98902 0
M  V30 1702 C 159.956 4.3055 -3.787 0
M  V30 1703 N 159.452 5.10482 -4.6838 0
M  V30 1704 N 161.245 4.25757 -3.66998 0
M  V30 1705 H 153.396 0.764867 -1.9815 0
M  V30 1706 H 155.659 0.398966 -0.859959 0
M  V30 1707 H 155.365 1.99565 -2.89597 0
M  V30 1708 H 155.239 3.33274 -1.76659 0
M  V30 1709 H 157.626 2.80081 -0.929445 0
M  V30 1710 H 157.707 1.47039 -2.09316 0
M  V30 1711 H 157.351 3.13957 -3.99241 0
M  V30 1712 H 157.281 4.46049 -2.79907 0
M  V30 1713 H 159.772 2.96812 -2.33904 0
M  V30 1714 H 160.085 5.66284 -5.25873 0
M  V30 1715 H 158.43 5.09747 -4.72422 0
M  V30 1716 H 161.621 3.62383 -2.96304 0
M  V30 1717 H 161.794 4.85279 -4.29427 0
M  V30 1718 N 155.201 0.870884 1.31352 0
M  V30 1719 C 156.133 0.28455 2.27427 0
M  V30 1720 C 157.146 -0.552927 1.53123 0
M  V30 1721 O 158.335 -0.374771 1.74521 0
M  V30 1722 C 155.435 -0.615164 3.3327 0
M  V30 1723 C 154.608 0.190079 4.36987 0
M  V30 1724 C 153.667 -0.637917 5.22319 0
M  V30 1725 O 152.693 -0.065626 5.69162 0
M  V30 1726 N 153.895 -1.94973 5.46778 0
M  V30 1727 H 156.66 1.11017 2.7838 0
M  V30 1728 H 154.221 0.732458 1.44384 0
M  V30 1729 H 156.213 -1.1748 3.87273 0
M  V30 1730 H 154.783 -1.34146 2.82354 0
M  V30 1731 H 154.003 0.931165 3.83044 0
M  V30 1732 H 155.291 0.742579 5.03352 0
M  V30 1733 H 154.689 -2.4378 5.10478 0
M  V30 1734 H 153.246 -2.45713 6.03712 0
M  V30 1735 N 156.679 -1.44442 0.630414 0
M  V30 1736 C 157.909 -2.06115 0.141465 0
M  V30 1737 C 158.317 -1.47179 -1.1889 0
M  V30 1738 O 157.66 -0.588873 -1.74006 0
M  V30 1739 C 157.722 -3.59467 -0.0484355 0
M  V30 1740 C 157.386 -4.40864 1.20366 0
M  V30 1741 C 158.383 -4.74391 2.12719 0
M  V30 1742 C 156.068 -4.8125 1.43887 0
M  V30 1743 C 158.062 -5.47186 3.26904 0
M  V30 1744 C 155.749 -5.53795 2.5837 0
M  V30 1745 C 156.747 -5.86682 3.49705 0
M  V30 1746 O 156.435 -6.57749 4.62191 0
M  V30 1747 H 156.167 -0.671648 0.0765792 0
M  V30 1748 H 158.721 -1.86312 0.864695 0
M  V30 1749 H 156.951 -3.77758 -0.826803 0
M  V30 1750 H 158.64 -4.02909 -0.491849 0
M  V30 1751 H 159.406 -4.43728 1.95781 0
M  V30 1752 H 155.285 -4.55073 0.736853 0
M  V30 1753 H 158.829 -5.72773 3.98217 0
M  V30 1754 H 154.726 -5.83872 2.75251 0
M  V30 1755 H 155.494 -6.76217 4.61164 0
M  V30 1756 N 158.157 -0.370918 -1.53173 0
M  V30 1757 C 159.087 0.464847 -2.28826 0
M  V30 1758 C 160.068 1.07936 -1.31468 0
M  V30 1759 O 161.253 1.0956 -1.60344 0
M  V30 1760 C 158.383 1.60196 -3.08147 0
M  V30 1761 C 157.337 1.11443 -4.13237 0
M  V30 1762 C 156.663 2.3422 -4.80672 0
M  V30 1763 C 157.963 0.195384 -5.21934 0
M  V30 1764 H 159.657 -0.166329 -2.98938 0
M  V30 1765 H 157.203 -0.0814359 -1.4377 0
M  V30 1766 H 159.156 2.19332 -3.59822 0
M  V30 1767 H 157.88 2.26045 -2.35735 0
M  V30 1768 H 156.539 0.545727 -3.62515 0
M  V30 1769 H 156.187 2.98537 -4.04827 0
M  V30 1770 H 155.887 2.02269 -5.51689 0
M  V30 1771 H 157.411 2.94032 -5.35143 0
M  V30 1772 H 158.825 0.694375 -5.69079 0
M  V30 1773 H 157.222 -0.0335027 -6.00091 0
M  V30 1774 H 158.292 -0.760961 -4.78892 0
M  V30 1775 N 159.635 1.57281 -0.100228 0
M  V30 1776 C 160.912 1.86014 0.604812 0
M  V30 1777 C 161.292 0.998025 1.86018 0
M  V30 1778 O 160.64 0.0718184 2.28387 0
M  V30 1779 C 160.85 3.36784 0.915278 0
M  V30 1780 C 162.198 4.04957 1.27651 0
M  V30 1781 O 163.222 3.41695 1.00613 0
M  V30 1782 O 162.081 5.16593 1.7831 0
M  V30 1783 H 159.175 0.76942 0.303185 0
M  V30 1784 H 161.721 1.69176 -0.133313 0
M  V30 1785 H 160.493 3.91292 0.0248896 0
M  V30 1786 H 160.116 3.58987 1.70921 0
M  V30 1787 N 161.113 -0.173488 1.56642 0
M  V30 1788 C 162.023 -1.23482 1.99473 0
M  V30 1789 C 163.039 -1.48567 0.905752 0
M  V30 1790 O 164.215 -1.60758 1.21321 0
M  V30 1791 C 161.28 -2.55444 2.34413 0
M  V30 1792 C 160.341 -2.38241 3.57127 0
M  V30 1793 C 159.574 -3.63909 3.90392 0
M  V30 1794 O 159.797 -4.68996 3.24653 0
M  V30 1795 O 158.731 -3.58149 4.83749 0
M  V30 1796 H 162.557 -0.901279 2.90018 0
M  V30 1797 H 160.142 -0.380185 1.44482 0
M  V30 1798 H 162.024 -3.33292 2.57865 0
M  V30 1799 H 160.699 -2.88382 1.4703 0
M  V30 1800 H 159.606 -1.58431 3.38896 0
M  V30 1801 H 160.939 -2.10228 4.45045 0
M  V30 1802 N 162.591 -1.51276 -0.441967 0
M  V30 1803 C 163.501 -1.75092 -1.56141 0
M  V30 1804 C 164.517 -0.634963 -1.62001 0
M  V30 1805 O 165.693 -0.916686 -1.79329 0
M  V30 1806 C 162.758 -1.86666 -2.92158 0
M  V30 1807 C 161.819 -3.10506 -2.96453 0
M  V30 1808 C 161.052 -3.21519 -4.25982 0
M  V30 1809 O 161.275 -2.38586 -5.18105 0
M  V30 1810 O 160.209 -4.14465 -4.36466 0
M  V30 1811 H 164.035 -2.70044 -1.38961 0
M  V30 1812 H 161.62 -1.35722 -0.624499 0
M  V30 1813 H 163.502 -1.96292 -3.72891 0
M  V30 1814 H 162.177 -0.949014 -3.09476 0
M  V30 1815 H 161.084 -3.06363 -2.14692 0
M  V30 1816 H 162.417 -4.01945 -2.84079 0
M  V30 1817 N 164.069 0.697108 -1.41344 0
M  V30 1818 C 165.316 1.45714 -1.40619 0
M  V30 1819 C 165.644 1.94494 -0.0147907 0
M  V30 1820 O 164.899 1.69794 0.973066 0
M  V30 1821 C 165.198 2.68553 -2.35826 0
M  V30 1822 C 164.864 2.38438 -3.82698 0
M  V30 1823 C 163.526 2.29936 -4.22709 0
M  V30 1824 C 165.878 2.13567 -4.75435 0
M  V30 1825 C 163.206 1.94656 -5.53467 0
M  V30 1826 C 165.558 1.79797 -6.06511 0
M  V30 1827 C 164.222 1.69789 -6.45545 0
M  V30 1828 H 163.492 0.533206 -0.51456 0
M  V30 1829 H 166.139 0.796901 -1.74131 0
M  V30 1830 H 164.444 3.39503 -1.95563 0
M  V30 1831 H 166.141 3.2669 -2.32539 0
M  V30 1832 H 162.731 2.4595 -3.51008 0
M  V30 1833 H 166.915 2.19082 -4.45328 0
M  V30 1834 H 162.171 1.8546 -5.82593 0
M  V30 1835 H 166.345 1.59572 -6.77872 0
M  V30 1836 H 163.972 1.4222 -7.46778 0
M  V30 1837 N 165.547 1.27147 0.931209 0
M  V30 1838 C 166.793 1.13446 1.68101 0
M  V30 1839 C 167.126 -0.319628 1.91552 0
M  V30 1840 O 166.401 -1.23407 1.50336 0
M  V30 1841 C 166.684 1.91482 3.0497 0
M  V30 1842 C 166.537 3.44855 2.88782 0
M  V30 1843 C 167.856 1.71651 4.05246 0
M  V30 1844 H 164.975 0.413498 0.610072 0
M  V30 1845 H 167.617 1.56261 1.08086 0
M  V30 1846 H 165.767 1.55095 3.56199 0
M  V30 1847 H 167.439 3.9105 2.44698 0
M  V30 1848 H 165.682 3.71373 2.24198 0
M  V30 1849 H 166.353 3.94694 3.85902 0
M  V30 1850 H 168.829 2.0337 3.63015 0
M  V30 1851 H 167.705 2.28651 4.99009 0
M  V30 1852 H 167.966 0.663555 4.37092 0
M  V30 1853 N 167.025 -1.13721 1.09112 0
M  V30 1854 C 167.955 -2.21148 0.749385 0
M  V30 1855 C 168.936 -1.6792 -0.271475 0
M  V30 1856 O 170.121 -1.93693 -0.140251 0
M  V30 1857 C 167.251 -3.46905 0.165659 0
M  V30 1858 C 166.205 -4.13203 1.11567 0
M  V30 1859 C 165.531 -5.33248 0.393809 0
M  V30 1860 C 166.831 -4.60912 2.45678 0
M  V30 1861 H 168.525 -2.4999 1.64758 0
M  V30 1862 H 166.071 -1.20156 0.793626 0
M  V30 1863 H 168.024 -4.21313 -0.085466 0
M  V30 1864 H 166.748 -3.17449 -0.767714 0
M  V30 1865 H 165.407 -3.40758 1.35202 0
M  V30 1866 H 165.055 -5.00054 -0.543599 0
M  V30 1867 H 164.755 -5.78552 1.02721 0
M  V30 1868 H 166.279 -6.10413 0.150908 0
M  V30 1869 H 167.693 -5.26759 2.26269 0
M  V30 1870 H 166.09 -5.16944 3.04776 0
M  V30 1871 H 167.16 -3.75603 3.06677 0
M  V30 1872 N 168.503 -0.877838 -1.30888 0
M  V30 1873 C 169.919 -0.570844 -1.49042 0
M  V30 1874 C 170.119 0.893159 -1.80624 0
M  V30 1875 O 169.175 1.67485 -1.88958 0
M  V30 1876 C 170.488 -1.47784 -2.61878 0
M  V30 1877 C 172.036 -1.48071 -2.75761 0
M  V30 1878 C 172.511 -2.37347 -3.91702 0
M  V30 1879 N 174.002 -2.35271 -3.99001 0
M  V30 1880 C 174.737 -3.01063 -4.88004 0
M  V30 1881 N 174.233 -3.76055 -5.81854 0
M  V30 1882 N 176.026 -2.90332 -4.81315 0
M  V30 1883 H 168.177 -1.82502 -1.0866 0
M  V30 1884 H 170.44 -0.780797 -0.537644 0
M  V30 1885 H 170.146 -2.51993 -2.45341 0
M  V30 1886 H 170.02 -1.18215 -3.58197 0
M  V30 1887 H 172.407 -0.446166 -2.91708 0
M  V30 1888 H 172.488 -1.81668 -1.80085 0
M  V30 1889 H 172.132 -3.40883 -3.76512 0
M  V30 1890 H 172.062 -2.01071 -4.86701 0
M  V30 1891 H 174.553 -1.80768 -3.3186 0
M  V30 1892 H 174.866 -4.23366 -6.46514 0
M  V30 1893 H 173.211 -3.80163 -5.81808 0
M  V30 1894 H 176.402 -2.31278 -4.06974 0
M  V30 1895 H 176.575 -3.41885 -5.50471 0
M  V30 1896 N 169.982 1.44106 -0.638065 0
M  V30 1897 C 171.228 2.02277 -0.145546 0
M  V30 1898 C 171.561 1.50125 1.23191 0
M  V30 1899 O 170.836 0.688133 1.8192 0
M  V30 1900 C 171.119 3.59829 -0.139791 0
M  V30 1901 C 170.972 4.22247 -1.55008 0
M  V30 1902 C 172.291 4.36873 0.531966 0
M  V30 1903 H 169.41 0.734992 -0.0543632 0
M  V30 1904 H 172.052 1.71592 -0.815863 0
M  V30 1905 H 170.202 3.86102 0.431007 0
M  V30 1906 H 171.874 4.07057 -2.1703 0
M  V30 1907 H 170.117 3.79476 -2.10191 0
M  V30 1908 H 170.788 5.31284 -1.49804 0
M  V30 1909 H 173.264 4.16074 0.0464781 0
M  V30 1910 H 172.14 5.4657 0.505206 0
M  V30 1911 H 172.401 4.11995 1.60352 0
M  V30 1912 N 171.46 0.379036 1.52974 0
M  V30 1913 C 172.393 -0.504932 2.22544 0
M  V30 1914 C 173.371 -1.0723 1.22231 0
M  V30 1915 O 174.555 -1.12589 1.51182 0
M  V30 1916 C 171.682 -1.69794 2.93066 0
M  V30 1917 C 170.728 -1.25678 4.07563 0
M  V30 1918 S 171.561 -0.246852 5.34931 0
M  V30 1919 C 172.717 -1.44588 6.08971 0
M  V30 1920 H 172.95 0.0858666 2.97176 0
M  V30 1921 H 170.483 0.163183 1.53535 0
M  V30 1922 H 172.441 -2.38219 3.34308 0
M  V30 1923 H 171.102 -2.26002 2.18133 0
M  V30 1924 H 170.295 -2.14725 4.5597 0
M  V30 1925 H 169.897 -0.651584 3.6828 0
M  V30 1926 H 172.189 -2.37469 6.34519 0
M  V30 1927 H 173.132 -1.00292 7.00962 0
M  V30 1928 H 173.54 -1.65804 5.39601 0
M  V30 1929 N 172.938 -1.57226 0.108567 0
M  V30 1930 C 174.166 -1.99179 -0.559954 0
M  V30 1931 C 174.581 -0.988022 -1.60884 0
M  V30 1932 O 173.938 0.0205512 -1.82488 0
M  V30 1933 C 173.989 -3.41159 -1.19552 0
M  V30 1934 O 173.71 -4.37694 -0.188577 0
M  V30 1935 C 175.211 -3.98188 -1.94837 0
M  V30 1936 H 172.431 -0.654228 -0.149088 0
M  V30 1937 H 174.975 -2.03598 0.19183 0
M  V30 1938 H 173.13 -3.37711 -1.89815 0
M  V30 1939 H 173.544 -5.20469 -0.649014 0
M  V30 1940 H 175.018 -4.99644 -2.34648 0
M  V30 1941 H 175.495 -3.3675 -2.81951 0
M  V30 1942 H 176.101 -4.0515 -1.2936 0
M  V30 1943 N 174.416 0.165178 -1.56732 0
M  V30 1944 C 175.348 1.22911 -1.93457 0
M  V30 1945 C 176.361 1.40152 -0.828333 0
M  V30 1946 O 177.55 1.40046 -1.10677 0
M  V30 1947 C 174.65 2.59686 -2.17753 0
M  V30 1948 C 173.823 2.63663 -3.48999 0
M  V30 1949 C 172.882 3.81845 -3.62051 0
M  V30 1950 O 171.908 3.67559 -4.34613 0
M  V30 1951 N 173.11 4.98557 -2.97357 0
M  V30 1952 H 175.875 0.917118 -2.85323 0
M  V30 1953 H 173.436 0.354895 -1.57962 0
M  V30 1954 H 175.428 3.37225 -2.23743 0
M  V30 1955 H 173.998 2.83251 -1.32242 0
M  V30 1956 H 173.218 1.72173 -3.54612 0
M  V30 1957 H 174.506 2.63336 -4.35352 0
M  V30 1958 H 173.904 5.13065 -2.38287 0
M  V30 1959 H 172.461 5.73936 -3.08934 0
M  V30 1960 N 175.894 1.51508 0.433938 0
M  V30 1961 C 176.824 1.76016 1.53429 0
M  V30 1962 C 177.805 0.610112 1.58782 0
M  V30 1963 O 178.99 0.853177 1.74455 0
M  V30 1964 C 176.12 1.88831 2.9148 0
M  V30 1965 C 175.074 3.04288 3.00987 0
M  V30 1966 C 174.4 3.0229 4.4105 0
M  V30 1967 C 175.7 4.44193 2.74754 0
M  V30 1968 H 177.394 2.68152 1.33171 0
M  V30 1969 H 174.94 1.29035 0.639214 0
M  V30 1970 H 176.893 2.04559 3.6842 0
M  V30 1971 H 175.617 0.933455 3.12976 0
M  V30 1972 H 174.276 2.8827 2.26486 0
M  V30 1973 H 173.924 2.04576 4.59519 0
M  V30 1974 H 173.624 3.79822 4.4834 0
M  V30 1975 H 175.148 3.20116 5.1996 0
M  V30 1976 H 176.562 4.60544 3.41426 0
M  V30 1977 H 174.959 5.23457 2.9345 0
M  V30 1978 H 176.029 4.53996 1.70339 0
M  V30 1979 N 177.372 -0.689602 1.41712 0
M  V30 1980 C 178.6 -1.47827 1.44758 0
M  V30 1981 C 179.015 -1.88721 0.0545703 0
M  V30 1982 O 178.372 -1.57176 -0.927463 0
M  V30 1983 C 178.423 -2.73698 2.3616 0
M  V30 1984 O 178.144 -2.34524 3.7004 0
M  V30 1985 C 179.645 -3.67389 2.48072 0
M  V30 1986 H 176.865 -0.455357 0.49284 0
M  V30 1987 H 179.409 -0.848574 1.86063 0
M  V30 1988 H 177.564 -3.32891 1.98148 0
M  V30 1989 H 177.978 -3.15701 4.18847 0
M  V30 1990 H 179.452 -4.52475 3.16181 0
M  V30 1991 H 179.929 -4.12284 1.51388 0
M  V30 1992 H 180.535 -3.14097 2.86746 0
M  V30 1993 N 178.85 -1.27639 -0.924453 0
M  V30 1994 C 179.78 -1.13166 -2.04244 0
M  V30 1995 C 180.761 -0.032256 -1.70069 0
M  V30 1996 O 181.946 -0.207328 -1.9309 0
M  V30 1997 C 179.076 -0.781496 -3.38393 0
M  V30 1998 C 178.03 -1.83449 -3.86692 0
M  V30 1999 C 177.356 -1.33822 -5.17683 0
M  V30 2000 C 178.656 -3.23917 -4.09726 0
M  V30 2001 H 180.35 -2.06689 -2.1661 0
M  V30 2002 H 177.896 -0.995136 -1.04082 0
M  V30 2003 H 179.849 -0.667057 -4.16087 0
M  V30 2004 H 178.573 0.189439 -3.2605 0
M  V30 2005 H 177.232 -1.93789 -3.11193 0
M  V30 2006 H 176.88 -0.35665 -5.01734 0
M  V30 2007 H 176.58 -2.04224 -5.50968 0
M  V30 2008 H 178.104 -1.23679 -5.97943 0
M  V30 2009 H 179.518 -3.16559 -4.77978 0
M  V30 2010 H 177.915 -3.92059 -4.54324 0
M  V30 2011 H 178.985 -3.68729 -3.14908 0
M  V30 2012 N 180.328 1.1314 -1.09713 0
M  V30 2013 C 181.291 2.16831 -0.742751 0
M  V30 2014 C 182.291 1.59159 0.229129 0
M  V30 2015 O 183.481 1.74199 0.00693237 0
M  V30 2016 C 180.613 3.40756 -0.0989168 0
M  V30 2017 H 181.806 2.49695 -1.66109 0
M  V30 2018 H 179.359 1.2802 -0.896699 0
M  V30 2019 H 180.094 3.13485 0.830514 0
M  V30 2020 H 179.879 3.83888 -0.798265 0
M  V30 2021 H 181.369 4.17386 0.133524 0
M  V30 2022 N 181.806 0.884767 1.30421 0
M  V30 2023 C 182.736 0.367574 2.30589 0
M  V30 2024 C 183.717 -0.549464 1.60981 0
M  V30 2025 O 184.902 -0.46336 1.88591 0
M  V30 2026 C 182.032 -0.418944 3.44764 0
M  V30 2027 C 180.986 0.406316 4.26067 0
M  V30 2028 C 180.312 -0.506793 5.32293 0
M  V30 2029 C 181.612 1.64832 4.95608 0
M  V30 2030 H 183.306 1.20462 2.74097 0
M  V30 2031 H 180.852 0.580695 1.31772 0
M  V30 2032 H 182.805 -0.791395 4.13902 0
M  V30 2033 H 181.529 -1.28964 3.0006 0
M  V30 2034 H 180.188 0.760903 3.58617 0
M  V30 2035 H 179.836 -1.37519 4.83836 0
M  V30 2036 H 179.536 0.0415828 5.87585 0
M  V30 2037 H 181.06 -0.875764 6.04287 0
M  V30 2038 H 182.474 1.34646 5.57264 0
M  V30 2039 H 180.871 2.13688 5.60765 0
M  V30 2040 H 181.941 2.39284 4.21748 0
M  V30 2041 N 183.284 -1.43765 0.645699 0
M  V30 2042 C 184.231 -2.30745 -0.0504648 0
M  V30 2043 C 185.201 -1.4432 -0.822241 0
M  V30 2044 O 186.386 -1.73202 -0.800358 0
M  V30 2045 C 183.526 -3.29802 -1.0161 0
M  V30 2046 C 182.639 -4.31326 -0.241219 0
M  V30 2047 C 181.774 -5.17469 -1.19998 0
M  V30 2048 C 180.813 -6.10691 -0.415094 0
M  V30 2049 N 179.95 -6.89483 -1.32506 0
M  V30 2050 H 184.79 -2.8973 0.697155 0
M  V30 2051 H 182.327 -1.42738 0.355563 0
M  V30 2052 H 184.285 -3.85734 -1.58949 0
M  V30 2053 H 182.915 -2.72483 -1.73069 0
M  V30 2054 H 181.967 -3.77749 0.448334 0
M  V30 2055 H 183.279 -4.9743 0.369437 0
M  V30 2056 H 182.433 -5.7799 -1.84424 0
M  V30 2057 H 181.172 -4.51473 -1.84455 0
M  V30 2058 H 180.177 -5.49265 0.242565 0
M  V30 2059 H 181.402 -6.78727 0.224966 0
M  V30 2060 H 179.348 -6.26142 -1.95657 0
M  V30 2061 H 179.265 -7.52081 -0.768783 0
M  V30 2062 H 180.533 -7.54516 -1.9577 0
M  V30 2063 N 184.763 -0.387143 -1.52771 0
M  V30 2064 C 185.673 0.456442 -2.30117 0
M  V30 2065 C 186.689 1.07342 -1.36944 0
M  V30 2066 O 187.865 1.07971 -1.70013 0
M  V30 2067 C 184.93 1.56957 -3.09136 0
M  V30 2068 C 183.991 0.977916 -4.18014 0
M  V30 2069 C 183.224 2.038 -4.93256 0
M  V30 2070 O 183.447 3.25271 -4.68567 0
M  V30 2071 O 182.381 1.6565 -5.78657 0
M  V30 2072 H 186.207 -0.17359 -3.03203 0
M  V30 2073 H 183.792 -0.150919 -1.48636 0
M  V30 2074 H 185.674 2.21628 -3.58412 0
M  V30 2075 H 184.349 2.18461 -2.38865 0
M  V30 2076 H 183.256 0.294525 -3.72939 0
M  V30 2077 H 184.589 0.407128 -4.90513 0
M  V30 2078 N 186.241 1.57166 -0.116904 0
M  V30 2079 C 187.481 1.97008 0.544715 0
M  V30 2080 C 187.845 0.998713 1.63981 0
M  V30 2081 O 189.046 1.28644 2.36018 0
M  V30 2082 C 187.317 3.41145 1.06559 0
M  V30 2083 S 188.876 4.02998 1.73603 0
M  V30 2084 H 185.694 0.688587 0.177112 0
M  V30 2085 H 188.296 1.94459 -0.201487 0
M  V30 2086 H 187 4.09592 0.257374 0
M  V30 2087 H 186.531 3.4734 1.84712 0
M  V30 2088 H 188.546 3.93585 3.02168 0
M  V30 2089 N 187.719 -0.156864 1.56817 0
M  V30 2090 C 188.669 -1.19891 1.93934 0
M  V30 2091 C 189.653 -1.39061 0.809372 0
M  V30 2092 O 190.845 -1.40789 1.07273 0
M  V30 2093 C 187.974 -2.53493 2.31508 0
M  V30 2094 C 187.06 -2.37957 3.51052 0
M  V30 2095 N 187.451 -1.92158 4.67877 0
M  V30 2096 C 185.749 -2.68739 3.55943 0
M  V30 2097 C 186.45 -1.8943 5.49992 0
M  V30 2098 N 185.426 -2.32375 4.91429 0
M  V30 2099 H 189.228 -0.836746 2.81737 0
M  V30 2100 H 186.742 -0.365012 1.58245 0
M  V30 2101 H 188.739 -3.28811 2.56299 0
M  V30 2102 H 187.399 -2.905 1.45051 0
M  V30 2103 H 188.41 -1.62274 4.91821 0
M  V30 2104 H 185.087 -3.09687 2.80001 0
M  V30 2105 H 186.477 -1.55596 6.53636 0
M  V30 2106 N 189.197 -1.51736 -0.425897 0
M  V30 2107 C 190.613 -1.40166 -0.76326 0
M  V30 2108 C 190.813 -0.492962 -1.95377 0
M  V30 2109 O 189.869 0.0475815 -2.52455 0
M  V30 2110 C 191.182 -2.82403 -1.03291 0
M  V30 2111 C 192.73 -2.91632 -1.13665 0
M  V30 2112 C 193.205 -4.34801 -1.43916 0
M  V30 2113 N 194.696 -4.3796 -1.50816 0
M  V30 2114 C 195.431 -5.4578 -1.75817 0
M  V30 2115 N 194.927 -6.63744 -1.98534 0
M  V30 2116 N 196.72 -5.33274 -1.77694 0
M  V30 2117 H 188.871 -2.09361 0.358 0
M  V30 2118 H 191.134 -0.942941 0.0978094 0
M  V30 2119 H 190.84 -3.50943 -0.230696 0
M  V30 2120 H 190.714 -3.22428 -1.95754 0
M  V30 2121 H 193.101 -2.23284 -1.92947 0
M  V30 2122 H 193.182 -2.55088 -0.190756 0
M  V30 2123 H 192.826 -5.03703 -0.65157 0
M  V30 2124 H 192.756 -4.68868 -2.39729 0
M  V30 2125 H 195.247 -3.52919 -1.35118 0
M  V30 2126 H 195.56 -7.41704 -2.17013 0
M  V30 2127 H 193.905 -6.66839 -1.95832 0
M  V30 2128 H 197.096 -4.40098 -1.59473 0
M  V30 2129 H 197.269 -6.1738 -1.9684 0
M  V30 2130 N 190.675 0.682077 -1.42076 0
M  V30 2131 C 192.091 0.994324 -1.24841 0
M  V30 2132 C 192.291 2.0096 -0.147389 0
M  V30 2133 O 191.347 2.47822 0.483782 0
M  V30 2134 C 192.66 1.50607 -2.60265 0
M  V30 2135 C 194.208 1.62421 -2.6756 0
M  V30 2136 C 194.683 2.16994 -4.03333 0
M  V30 2137 N 196.174 2.24337 -4.0525 0
M  V30 2138 C 196.909 2.67621 -5.07116 0
M  V30 2139 N 196.405 3.1041 -6.19368 0
M  V30 2140 N 198.198 2.67305 -4.94474 0
M  V30 2141 H 190.349 0.00973908 -2.12398 0
M  V30 2142 H 192.612 0.0668593 -0.945639 0
M  V30 2143 H 192.318 0.834583 -3.41654 0
M  V30 2144 H 192.192 2.48602 -2.83684 0
M  V30 2145 H 194.579 2.28678 -1.86521 0
M  V30 2146 H 194.66 0.629352 -2.47937 0
M  V30 2147 H 194.304 1.51349 -4.84826 0
M  V30 2148 H 194.234 3.17258 -4.20304 0
M  V30 2149 H 196.725 1.94158 -3.24209 0
M  V30 2150 H 197.038 3.42103 -6.92954 0
M  V30 2151 H 195.383 3.08286 -6.22884 0
M  V30 2152 H 198.574 2.33233 -4.05857 0
M  V30 2153 H 198.747 3.00718 -5.73997 0
M  V30 2154 N 192.153 1.28127 0.917671 0
M  V30 2155 C 193.378 1.18007 1.70555 0
M  V30 2156 C 193.803 -0.258257 1.86319 0
M  V30 2157 O 193.161 -1.1869 1.37049 0
M  V30 2158 C 193.209 1.87948 3.07746 0
M  V30 2159 O 192.313 1.18427 3.9503 0
M  V30 2160 H 191.654 0.409867 0.522403 0
M  V30 2161 H 194.184 1.69379 1.1477 0
M  V30 2162 H 194.194 1.95701 3.58001 0
M  V30 2163 H 192.869 2.92573 2.95591 0
M  V30 2164 H 191.446 1.18811 3.53466 0
M  V30 2165 N 193.631 -1.12557 1.10312 0
M  V30 2166 C 194.908 -1.80363 0.756878 0
M  V30 2167 C 195.288 -1.97067 -0.756824 0
M  V30 2168 O 194.636 -1.54601 -1.68259 0
M  V30 2169 C 194.846 -3.14812 1.50647 0
M  V30 2170 C 196.194 -3.90029 1.67817 0
M  V30 2171 O 197.218 -3.24464 1.46974 0
M  V30 2172 O 196.077 -5.07652 2.02365 0
M  V30 2173 H 193.171 -0.780667 0.272926 0
M  V30 2174 H 195.717 -1.19404 1.20586 0
M  V30 2175 H 194.489 -2.97936 2.53672 0
M  V30 2176 H 194.112 -3.83478 1.05026 0
M  V30 2177 N 195.109 -0.891671 -1.2995 0
M  V30 2178 C 196.357 -0.512486 -1.95494 0
M  V30 2179 C 196.678 0.942776 -1.70695 0
M  V30 2180 O 195.948 1.66374 -1.03424 0
M  V30 2181 H 194.528 -0.186533 -0.723336 0
M  V30 2182 H 197.19 -1.13621 -1.58355 0
M  V30 2183 H 196.286 -0.688342 -3.04415 0
M  V30 2184 N 196.587 1.43421 -0.653314 0
M  V30 2185 C 197.835 2.01414 -0.166415 0
M  V30 2186 C 198.156 1.51803 1.22397 0
M  V30 2187 O 197.426 0.730693 1.81763 0
M  V30 2188 H 196.006 0.744703 -0.0585319 0
M  V30 2189 H 198.668 1.75629 -0.845003 0
M  V30 2190 H 197.764 3.11734 -0.151111 0
M  V30 2191 N 198.065 0.39524 1.52563 0
M  V30 2192 C 199.015 -0.4541 2.23432 0
M  V30 2193 C 199.999 -1.02482 1.24042 0
M  V30 2194 O 201.191 -0.949938 1.49349 0
M  V30 2195 C 198.32 -1.57769 3.049 0
M  V30 2196 C 197.406 -1.01842 4.1169 0
M  V30 2197 N 197.797 -0.184613 5.05463 0
M  V30 2198 C 196.095 -1.29033 4.26927 0
M  V30 2199 C 196.796 0.125013 5.81566 0
M  V30 2200 N 195.772 -0.480498 5.41472 0
M  V30 2201 H 199.574 0.189413 2.93289 0
M  V30 2202 H 197.088 0.204877 1.61102 0
M  V30 2203 H 199.085 -2.19862 3.54212 0
M  V30 2204 H 197.745 -2.22397 2.36579 0
M  V30 2205 H 198.756 0.178602 5.17592 0
M  V30 2206 H 195.433 -1.93721 3.69836 0
M  V30 2207 H 196.823 0.800962 6.67109 0
M  V30 2208 N 199.544 -1.57102 0.125237 0
M  V30 2209 C 200.772 -1.99761 -0.538797 0
M  V30 2210 C 201.187 -1.00503 -1.59827 0
M  V30 2211 O 200.544 0.00119474 -1.825 0
M  V30 2212 C 200.595 -3.42408 -1.15927 0
M  V30 2213 O 200.316 -4.37869 -0.142143 0
M  V30 2214 C 201.817 -4.00232 -1.90602 0
M  V30 2215 H 199.037 -0.655772 -0.14214 0
M  V30 2216 H 201.581 -2.03383 0.213413 0
M  V30 2217 H 199.736 -3.39706 -1.86223 0
M  V30 2218 H 200.15 -5.21128 -0.593775 0
M  V30 2219 H 201.624 -5.02105 -2.29335 0
M  V30 2220 H 202.101 -3.39721 -2.78363 0
M  V30 2221 H 202.707 -4.06499 -1.25055 0
M  V30 2222 N 201.022 0.148545 -1.56898 0
M  V30 2223 C 202.268 0.862694 -1.83536 0
M  V30 2224 C 202.601 1.80889 -0.706604 0
M  V30 2225 O 201.876 1.92328 0.289885 0
M  V30 2226 C 202.159 1.63853 -3.20662 0
M  V30 2227 C 202.012 0.713925 -4.44098 0
M  V30 2228 C 203.331 2.60133 -3.54991 0
M  V30 2229 H 200.45 0.312179 -0.667618 0
M  V30 2230 H 203.092 0.127953 -1.89569 0
M  V30 2231 H 201.242 2.26489 -3.1565 0
M  V30 2232 H 202.914 0.098686 -4.61194 0
M  V30 2233 H 201.157 0.0234019 -4.33794 0
M  V30 2234 H 201.828 1.29278 -5.36648 0
M  V30 2235 H 204.304 2.07616 -3.60603 0
M  V30 2236 H 203.18 3.11468 -4.51972 0
M  V30 2237 H 203.441 3.41417 -2.80868 0
M  V30 2238 N 202.5 1.5196 0.417844 0
M  V30 2239 C 203.43 1.77634 1.51554 0
M  V30 2240 C 204.411 0.626918 1.58126 0
M  V30 2241 O 205.596 0.871632 1.7354 0
M  V30 2242 C 202.726 1.91911 2.8946 0
M  V30 2243 C 201.68 3.07463 2.97743 0
M  V30 2244 C 201.006 3.06951 4.37819 0
M  V30 2245 C 202.306 4.47082 2.70027 0
M  V30 2246 H 204 2.6955 1.3032 0
M  V30 2247 H 201.546 1.29706 0.625492 0
M  V30 2248 H 203.499 2.08455 3.6623 0
M  V30 2249 H 202.223 0.966598 3.11969 0
M  V30 2250 H 200.882 2.90656 2.23416 0
M  V30 2251 H 200.53 2.09438 4.57323 0
M  V30 2252 H 200.23 3.84556 4.44286 0
M  V30 2253 H 201.754 3.25613 5.16535 0
M  V30 2254 H 203.168 4.6414 3.36522 0
M  V30 2255 H 201.565 5.2654 2.87881 0
M  V30 2256 H 202.635 4.55777 1.65514 0
M  V30 2257 N 203.978 -0.674533 1.42435 0
M  V30 2258 C 204.928 -1.7807 1.4239 0
M  V30 2259 C 205.912 -1.58169 0.295202 0
M  V30 2260 O 207.104 -1.68643 0.537449 0
M  V30 2261 C 204.233 -3.16532 1.32901 0
M  V30 2262 C 203.319 -3.42055 2.50717 0
M  V30 2263 N 203.71 -3.38162 3.76139 0
M  V30 2264 C 202.008 -3.72692 2.44983 0
M  V30 2265 C 202.709 -3.63177 4.54398 0
M  V30 2266 N 201.685 -3.83954 3.84812 0
M  V30 2267 H 205.487 -1.73454 2.37257 0
M  V30 2268 H 203.001 -0.875381 1.36788 0
M  V30 2269 H 204.998 -3.958 1.30951 0
M  V30 2270 H 203.658 -3.22345 0.390363 0
M  V30 2271 H 204.669 -3.18057 4.0873 0
M  V30 2272 H 201.346 -3.85749 1.59699 0
M  V30 2273 H 202.736 -3.66125 5.63384 0
M  V30 2274 N 205.456 -1.28612 -0.910864 0
M  V30 2275 C 206.872 -1.06381 -1.18976 0
M  V30 2276 C 207.072 0.191998 -2.00583 0
M  V30 2277 O 206.128 0.892869 -2.36187 0
M  V30 2278 C 207.441 -2.31295 -1.92154 0
M  V30 2279 C 208.989 -2.36503 -2.05025 0
M  V30 2280 C 209.464 -3.61191 -2.81612 0
M  V30 2281 N 210.955 -3.61847 -2.89172 0
M  V30 2282 C 211.69 -4.55004 -3.4894 0
M  V30 2283 N 211.186 -5.58482 -4.09963 0
M  V30 2284 N 212.979 -4.42594 -3.46506 0
M  V30 2285 H 205.13 -2.09221 -0.366094 0
M  V30 2286 H 207.393 -0.921003 -0.224629 0
M  V30 2287 H 207.099 -3.228 -1.39618 0
M  V30 2288 H 206.973 -2.37934 -2.9269 0
M  V30 2289 H 209.36 -1.45494 -2.5674 0
M  V30 2290 H 209.441 -2.33857 -1.03657 0
M  V30 2291 H 209.085 -4.52545 -2.30576 0
M  V30 2292 H 209.015 -3.61092 -3.83302 0
M  V30 2293 H 211.506 -2.87022 -2.45819 0
M  V30 2294 H 211.819 -6.25704 -4.53557 0
M  V30 2295 H 210.164 -5.62305 -4.08459 0
M  V30 2296 H 213.355 -3.60953 -2.98045 0
M  V30 2297 H 213.528 -5.15381 -3.92793 0
M  V30 2298 N 206.934 1.1197 -1.10907 0
M  V30 2299 C 208.211 1.79959 -0.766432 0
M  V30 2300 C 208.591 1.97466 0.746363 0
M  V30 2301 O 207.939 1.55491 1.67436 0
M  V30 2302 C 208.149 3.14009 -1.52314 0
M  V30 2303 C 209.497 3.89134 -1.69883 0
M  V30 2304 O 210.521 3.2368 -1.48692 0
M  V30 2305 O 209.38 5.06572 -2.05054 0
M  V30 2306 H 206.474 0.779208 -0.277062 0
M  V30 2307 H 209.02 1.18762 -1.21217 0
M  V30 2308 H 207.792 2.96587 -2.55249 0
M  V30 2309 H 207.415 3.82915 -1.07059 0
M  V30 2310 N 208.412 0.89855 1.29475 0
M  V30 2311 C 209.342 0.39201 2.30186 0
M  V30 2312 C 210.323 -0.532359 1.61555 0
M  V30 2313 O 211.508 -0.443331 1.89072 0
M  V30 2314 C 208.638 -0.382353 3.45189 0
M  V30 2315 C 207.592 0.451483 4.25612 0
M  V30 2316 C 206.918 -0.450307 5.328 0
M  V30 2317 C 208.218 1.70079 4.93832 0
M  V30 2318 H 209.912 1.23362 2.72804 0
M  V30 2319 H 207.458 0.594638 1.31149 0
M  V30 2320 H 209.411 -0.747451 4.14718 0
M  V30 2321 H 208.135 -1.25774 3.01411 0
M  V30 2322 H 206.794 0.798897 3.57789 0
M  V30 2323 H 206.442 -1.32379 4.85268 0
M  V30 2324 H 206.142 0.103902 5.87508 0
M  V30 2325 H 207.666 -0.811623 6.05182 0
M  V30 2326 H 209.08 1.40549 5.55805 0
M  V30 2327 H 207.477 2.19623 5.58467 0
M  V30 2328 H 208.547 2.43744 4.19186 0
M  V30 2329 N 209.89 -1.43072 0.660911 0
M  V30 2330 C 210.837 -2.30785 -0.0259884 0
M  V30 2331 C 211.807 -1.45184 -0.806888 0
M  V30 2332 O 212.992 -1.74041 -0.781943 0
M  V30 2333 C 210.132 -3.30861 -0.981067 0
M  V30 2334 C 209.245 -4.31558 -0.195458 0
M  V30 2335 C 208.38 -5.18712 -1.14503 0
M  V30 2336 C 207.419 -6.11097 -0.350299 0
M  V30 2337 N 206.556 -6.90849 -1.25186 0
M  V30 2338 H 211.396 -2.88975 0.727846 0
M  V30 2339 H 208.933 -1.42353 0.370682 0
M  V30 2340 H 210.891 -3.87399 -1.54849 0
M  V30 2341 H 209.521 -2.74304 -1.70169 0
M  V30 2342 H 208.573 -3.77252 0.488374 0
M  V30 2343 H 209.885 -4.9701 0.422176 0
M  V30 2344 H 209.039 -5.79914 -1.78284 0
M  V30 2345 H 207.778 -4.53404 -1.79656 0
M  V30 2346 H 206.783 -5.48976 0.300808 0
M  V30 2347 H 208.008 -6.7845 0.296941 0
M  V30 2348 H 205.954 -6.28182 -1.89005 0
M  V30 2349 H 205.871 -7.52854 -0.688971 0
M  V30 2350 H 207.139 -7.5655 -1.87757 0
M  V30 2351 N 211.368 -0.403325 -1.52352 0
M  V30 2352 C 212.779 0.0675782 -1.86578 0
M  V30 2353 C 213.13 1.44941 -1.32236 0
M  V30 2354 O 212.255 2.06112 -0.659307 0
M  V30 2355 C 212.85 0.129404 -3.38553 0
M  V30 2356 C 211.409 0.544629 -3.72439 0
M  V30 2357 C 210.556 -0.284551 -2.75836 0
M  V30 2358 H 213.507 -0.620631 -1.46061 0
M  V30 2359 H 213.528 0.94581 -3.68558 0
M  V30 2360 H 213.04 -0.87645 -3.78074 0
M  V30 2361 H 211.141 1.55734 -3.38493 0
M  V30 2362 H 211.254 0.293046 -4.78203 0
M  V30 2363 H 209.618 0.252258 -2.53448 0
M  V30 2364 H 210.401 -1.28865 -3.18196 0
M  V30 2365 N 212.846 1.57033 -0.133567 0
M  V30 2366 C 213.809 2.14897 0.796995 0
M  V30 2367 C 214.809 1.0874 1.18458 0
M  V30 2368 O 215.999 1.34446 1.1077 0
M  V30 2369 C 213.131 2.70112 2.07973 0
M  V30 2370 H 214.324 2.98457 0.293873 0
M  V30 2371 H 211.877 1.55871 0.115787 0
M  V30 2372 H 212.612 1.9018 2.62682 0
M  V30 2373 H 212.397 3.47764 1.81115 0
M  V30 2374 H 213.887 3.14738 2.74462 0
M  V30 2375 N 214.325 -0.140222 1.56975 0
M  V30 2376 C 215.273 -1.19207 1.99731 0
M  V30 2377 C 216.267 -1.44089 0.890777 0
M  V30 2378 O 217.473 -1.44301 1.07597 0
M  V30 2379 H 213.848 -0.40142 0.635898 0
M  V30 2380 H 215.819 -0.804813 2.87342 0
M  V30 2381 C 214.568 -2.51617 2.39967 0
M  V30 2382 H 213.891 -2.33303 3.24669 0
M  V30 2383 H 215.331 -3.23827 2.73701 0
M  V30 2384 C 213.79 -3.12654 1.25496 0
M  V30 2385 O 214.32 -3.97786 0.559371 0
M  V30 2386 N 212.526 -2.72206 1.01746 0
M  V30 2387 H 212.073 -2.03074 1.58489 0
M  V30 2388 H 212.031 -3.13377 0.253461 0
M  V30 2389 N 215.803 -1.52179 -0.40978 0
M  V30 2390 C 217.049 -1.66453 -1.15851 0
M  V30 2391 C 217.382 -0.392972 -1.90182 0
M  V30 2392 O 216.657 0.608579 -1.84734 0
M  V30 2393 C 216.94 -2.88612 -2.15349 0
M  V30 2394 C 216.793 -4.25815 -1.44918 0
M  V30 2395 C 218.112 -3.06294 -3.16026 0
M  V30 2396 H 215.231 -0.60575 -0.419805 0
M  V30 2397 H 217.873 -1.84732 -0.444314 0
M  V30 2398 H 216.023 -2.73158 -2.76255 0
M  V30 2399 H 217.695 -4.52995 -0.871365 0
M  V30 2400 H 215.938 -4.27247 -0.751159 0
M  V30 2401 H 216.609 -5.07337 -2.17516 0
M  V30 2402 H 219.085 -3.20641 -2.65195 0
M  V30 2403 H 217.961 -3.93283 -3.8291 0
M  V30 2404 H 218.222 -2.19579 -3.83715 0
M  V30 2405 N 217.281 0.66697 -1.42791 0
M  V30 2406 C 218.528 1.42699 -1.43678 0
M  V30 2407 C 218.856 1.94419 -0.0560425 0
M  V30 2408 O 218.111 1.7182 0.936831 0
M  V30 2409 C 218.41 2.6349 -2.4147 0
M  V30 2410 C 218.076 2.30267 -3.8767 0
M  V30 2411 C 216.738 2.20918 -4.27491 0
M  V30 2412 C 219.09 2.03435 -4.79858 0
M  V30 2413 C 216.418 1.82873 -5.57471 0
M  V30 2414 C 218.77 1.66892 -6.10188 0
M  V30 2415 C 217.434 1.56058 -6.49001 0
M  V30 2416 H 216.704 0.522171 -0.525755 0
M  V30 2417 H 219.351 0.759785 -1.75783 0
M  V30 2418 H 217.656 3.35279 -2.0272 0
M  V30 2419 H 219.353 3.21684 -2.39417 0
M  V30 2420 H 215.943 2.38449 -3.56146 0
M  V30 2421 H 220.127 2.09586 -4.49875 0
M  V30 2422 H 215.383 1.7306 -5.86396 0
M  V30 2423 H 219.557 1.45157 -6.81104 0
M  V30 2424 H 217.184 1.26348 -7.49627 0
M  V30 2425 N 218.759 1.29093 0.90403 0
M  V30 2426 C 219.689 1.16401 2.02418 0
M  V30 2427 C 220.67 0.0593085 1.69997 0
M  V30 2428 O 221.855 0.238021 1.92736 0
M  V30 2429 C 218.985 0.835233 3.37107 0
M  V30 2430 C 217.939 1.89578 3.83724 0
M  V30 2431 C 217.265 1.42041 5.15489 0
M  V30 2432 C 218.565 3.30394 4.04521 0
M  V30 2433 H 220.259 2.10109 2.13295 0
M  V30 2434 H 217.805 1.01157 1.02486 0
M  V30 2435 H 219.758 0.733169 4.14973 0
M  V30 2436 H 218.482 -0.137543 3.2631 0
M  V30 2437 H 217.141 1.98715 3.08071 0
M  V30 2438 H 216.789 0.436426 5.01103 0
M  V30 2439 H 216.489 2.12964 5.4765 0
M  V30 2440 H 218.013 1.33176 5.959 0
M  V30 2441 H 219.427 3.24123 4.72882 0
M  V30 2442 H 217.824 3.99237 4.48029 0
M  V30 2443 H 218.894 3.73692 3.09002 0
M  V30 2444 N 220.237 -1.11381 1.11499 0
M  V30 2445 C 221.514 -1.7955 0.775965 0
M  V30 2446 C 221.894 -1.97859 -0.73588 0
M  V30 2447 O 221.242 -1.56376 -1.66609 0
M  V30 2448 C 221.452 -3.13196 1.53977 0
M  V30 2449 C 222.8 -3.88227 1.71944 0
M  V30 2450 O 223.824 -3.22887 1.50407 0
M  V30 2451 O 222.683 -5.05477 2.07738 0
M  V30 2452 H 219.777 -0.777728 0.28119 0
M  V30 2453 H 222.323 -1.18118 1.21845 0
M  V30 2454 H 221.095 -2.95229 2.56818 0
M  V30 2455 H 220.718 -3.82342 1.09088 0
M  V30 2456 N 221.715 -0.905404 -1.28997 0
M  V30 2457 C 222.963 -0.533192 -1.9494 0
M  V30 2458 C 223.284 0.924618 -1.71685 0
M  V30 2459 O 222.554 1.65268 -1.05183 0
M  V30 2460 H 221.134 -0.194194 -0.721317 0
M  V30 2461 H 223.796 -1.15294 -1.57141 0
M  V30 2462 H 222.892 -0.72059 -3.03667 0
M  V30 2463 N 223.193 1.4272 -0.668489 0
M  V30 2464 C 224.14 2.30796 0.0137489 0
M  V30 2465 C 225.11 1.4561 0.799177 0
M  V30 2466 O 226.295 1.74453 0.772702 0
M  V30 2467 C 223.435 3.31377 0.963507 0
M  V30 2468 C 222.548 4.31655 0.172569 0
M  V30 2469 C 221.683 5.19312 1.1175 0
M  V30 2470 C 220.722 6.11274 0.317886 0
M  V30 2471 N 219.859 6.91504 1.2152 0
M  V30 2472 H 224.699 2.88585 -0.743161 0
M  V30 2473 H 222.236 1.42154 -0.378226 0
M  V30 2474 H 224.194 3.88214 1.52792 0
M  V30 2475 H 222.824 2.75202 1.68712 0
M  V30 2476 H 221.876 3.76988 -0.508374 0
M  V30 2477 H 223.188 4.96779 -0.448527 0
M  V30 2478 H 222.342 5.80851 1.75206 0
M  V30 2479 H 221.081 4.5435 1.77249 0
M  V30 2480 H 220.086 5.48809 -0.329918 0
M  V30 2481 H 221.311 6.78283 -0.332917 0
M  V30 2482 H 219.257 6.29176 1.85671 0
M  V30 2483 H 219.174 7.53209 0.649036 0
M  V30 2484 H 220.442 7.57535 1.83742 0
M  V30 2485 N 224.671 0.411399 1.52136 0
M  V30 2486 C 225.603 -0.448386 2.24771 0
M  V30 2487 C 226.616 -1.00828 1.27818 0
M  V30 2488 O 227.805 -0.906841 1.53749 0
M  V30 2489 C 224.905 -1.63636 2.96777 0
M  V30 2490 C 224.078 -1.19995 4.20618 0
M  V30 2491 C 223.137 -2.25509 4.75428 0
M  V30 2492 O 222.163 -1.86007 5.3795 0
M  V30 2493 N 223.365 -3.577 4.57199 0
M  V30 2494 H 226.13 0.174025 2.99194 0
M  V30 2495 H 223.691 0.238897 1.60128 0
M  V30 2496 H 225.683 -2.33793 3.30338 0
M  V30 2497 H 224.253 -2.16465 2.25526 0
M  V30 2498 H 223.473 -0.326421 3.92846 0
M  V30 2499 H 224.761 -0.885365 5.01038 0
M  V30 2500 H 224.159 -3.92543 4.07341 0
M  V30 2501 H 222.716 -4.23827 4.95191 0
M  V30 2502 N 226.149 -1.5696 0.141893 0
M  V30 2503 C 227.097 -2.17784 -0.816874 0
M  V30 2504 C 228.091 -1.1334 -1.25899 0
M  V30 2505 O 229.297 -1.316 -1.22806 0
M  V30 2506 H 225.672 -0.697278 -0.281615 0
M  V30 2507 H 227.643 -2.97087 -0.279621 0
M  V30 2508 C 226.392 -2.80983 -2.04802 0
M  V30 2509 H 225.715 -3.61062 -1.7168 0
M  V30 2510 H 227.155 -3.2705 -2.69841 0
M  V30 2511 C 225.614 -1.79228 -2.8527 0
M  V30 2512 O 226.144 -1.25962 -3.8144 0
M  V30 2513 N 224.35 -1.48647 -2.49704 0
M  V30 2514 H 223.897 -1.92155 -1.71564 0
M  V30 2515 H 223.855 -0.808115 -3.03837 0
M  V30 2516 N 227.627 0.131896 -1.57047 0
M  V30 2517 C 228.873 0.843179 -1.84441 0
M  V30 2518 C 229.206 1.80129 -0.725749 0
M  V30 2519 O 228.481 1.92624 0.269469 0
M  V30 2520 C 228.764 1.60442 -3.22382 0
M  V30 2521 C 228.617 0.666782 -4.4483 0
M  V30 2522 C 229.936 2.56354 -3.5773 0
M  V30 2523 H 227.055 0.305081 -0.670891 0
M  V30 2524 H 229.697 0.107839 -1.89694 0
M  V30 2525 H 227.847 2.23128 -3.18035 0
M  V30 2526 H 229.519 0.0497646 -4.61273 0
M  V30 2527 H 227.762 -0.022609 -4.33794 0
M  V30 2528 H 228.433 1.23579 -5.37989 0
M  V30 2529 H 230.909 2.0378 -3.62785 0
M  V30 2530 H 229.785 3.06657 -4.5525 0
M  V30 2531 H 230.046 3.38419 -2.84473 0
M  V30 2532 N 229.106 1.52395 0.401703 0
M  V30 2533 C 230.053 1.76268 1.48991 0
M  V30 2534 C 231.023 0.605386 1.54675 0
M  V30 2535 O 232.208 0.843742 1.7113 0
M  V30 2536 C 229.348 1.92592 2.86361 0
M  V30 2537 C 228.461 3.20259 2.89928 0
M  V30 2538 C 227.596 3.26972 4.18644 0
M  V30 2539 C 226.635 4.48812 4.16214 0
M  V30 2540 N 225.772 4.52877 5.36514 0
M  V30 2541 H 230.612 2.6914 1.27935 0
M  V30 2542 H 228.149 1.33355 0.620871 0
M  V30 2543 H 230.107 2.0004 3.66115 0
M  V30 2544 H 228.737 1.03093 3.05895 0
M  V30 2545 H 227.789 3.21945 2.02621 0
M  V30 2546 H 229.101 4.10056 2.83999 0
M  V30 2547 H 228.255 3.33533 5.06794 0
M  V30 2548 H 226.994 2.35126 4.27278 0
M  V30 2549 H 225.999 4.4239 3.26453 0
M  V30 2550 H 227.224 5.41961 4.09213 0
M  V30 2551 H 225.17 3.63917 5.45802 0
M  V30 2552 H 225.087 5.36529 5.32609 0
M  V30 2553 H 226.355 4.63676 6.26597 0
M  V30 2554 N 230.584 -0.659388 1.43143 0
M  V30 2555 C 231.514 -1.78422 1.50625 0
M  V30 2556 C 232.495 -1.66216 0.361443 0
M  V30 2557 O 233.68 -1.85404 0.577834 0
M  V30 2558 C 230.81 -3.16815 1.42287 0
M  V30 2559 C 229.764 -3.43777 2.54954 0
M  V30 2560 C 229.09 -4.81905 2.31671 0
M  V30 2561 C 230.39 -3.39134 3.97222 0
M  V30 2562 H 232.084 -1.72417 2.44771 0
M  V30 2563 H 229.63 -0.828084 1.17808 0
M  V30 2564 H 231.583 -3.95253 1.46127 0
M  V30 2565 H 230.307 -3.23534 0.446435 0
M  V30 2566 H 228.966 -2.67707 2.50457 0
M  V30 2567 H 228.614 -4.85294 1.32284 0
M  V30 2568 H 228.314 -5.00906 3.07192 0
M  V30 2569 H 229.838 -5.62609 2.37284 0
M  V30 2570 H 231.252 -4.07518 4.03239 0
M  V30 2571 H 229.649 -3.69671 4.72719 0
M  V30 2572 H 230.719 -2.37426 4.22797 0
M  V30 2573 N 232.062 -1.29571 -0.897171 0
M  V30 2574 C 233.31 -1.17456 -1.64464 0
M  V30 2575 C 233.631 0.273698 -1.9307 0
M  V30 2576 O 232.901 1.18684 -1.55855 0
M  V30 2577 H 231.481 -0.431706 -0.609622 0
M  V30 2578 H 234.143 -1.62531 -1.07562 0
M  V30 2579 H 233.239 -1.72648 -2.59998 0
M  V30 2580 N 233.54 1.10788 -1.12088 0
M  V30 2581 C 234.817 1.79136 -0.785476 0
M  V30 2582 C 235.197 1.98246 0.725377 0
M  V30 2583 O 234.545 1.57258 1.65778 0
M  V30 2584 C 234.755 3.12375 -1.55636 0
M  V30 2585 C 236.103 3.8731 -1.74001 0
M  V30 2586 O 237.127 3.22085 -1.52117 0
M  V30 2587 O 235.986 5.04369 -2.10415 0
M  V30 2588 H 233.08 0.776226 -0.285311 0
M  V30 2589 H 235.626 1.1747 -1.2247 0
M  V30 2590 H 234.398 2.93863 -2.5838 0
M  V30 2591 H 234.021 3.81758 -1.11114 0
M  V30 2592 N 235.018 0.912232 1.28515 0
M  V30 2593 C 236.265 0.544599 1.95039 0
M  V30 2594 C 236.593 -0.911435 1.71823 0
M  V30 2595 O 235.848 -1.66317 1.03137 0
M  V30 2596 C 236.147 0.798392 3.48368 0
M  V30 2597 C 235.813 2.23374 3.91682 0
M  V30 2598 C 234.475 2.62617 4.03219 0
M  V30 2599 C 236.827 3.16786 4.13879 0
M  V30 2600 C 234.155 3.94429 4.3433 0
M  V30 2601 C 236.507 4.48161 4.46469 0
M  V30 2602 C 235.171 4.8726 4.56217 0
M  V30 2603 H 234.441 0.199283 0.7137 0
M  V30 2604 H 237.088 1.15327 1.52879 0
M  V30 2605 H 235.393 0.106908 3.91654 0
M  V30 2606 H 237.09 0.493141 3.97956 0
M  V30 2607 H 233.68 1.91922 3.83228 0
M  V30 2608 H 237.864 2.87677 4.0442 0
M  V30 2609 H 233.12 4.24426 4.40082 0
M  V30 2610 H 237.294 5.20559 4.62592 0
M  V30 2611 H 234.921 5.89431 4.80078 0
M  V30 2612 N 236.496 -1.42363 0.676048 0
M  V30 2613 C 237.744 -2.01123 0.198437 0
M  V30 2614 C 238.065 -1.53731 -1.19966 0
M  V30 2615 O 237.335 -0.759518 -1.80577 0
M  V30 2616 H 235.915 -0.743678 0.0703721 0
M  V30 2617 H 238.577 -1.74263 0.872837 0
M  V30 2618 H 237.673 -3.11454 0.200686 0
M  V30 2619 N 237.974 -0.419461 -1.51915 0
M  V30 2620 C 238.904 0.391813 -2.30189 0
M  V30 2621 C 239.885 1.03699 -1.34836 0
M  V30 2622 O 241.07 1.04403 -1.63748 0
M  V30 2623 C 238.2 1.50312 -3.13087 0
M  V30 2624 C 237.154 0.9824 -4.16573 0
M  V30 2625 C 236.48 2.18809 -4.8788 0
M  V30 2626 C 237.78 0.0292356 -5.22292 0
M  V30 2627 H 239.474 -0.26135 -2.98257 0
M  V30 2628 H 237.02 -0.127134 -1.43438 0
M  V30 2629 H 238.973 2.07773 -3.66617 0
M  V30 2630 H 237.697 2.18431 -2.42807 0
M  V30 2631 H 236.356 0.430119 -3.64068 0
M  V30 2632 H 236.004 2.85507 -4.14119 0
M  V30 2633 H 235.704 1.84615 -5.57845 0
M  V30 2634 H 237.228 2.76858 -5.44226 0
M  V30 2635 H 238.642 0.512976 -5.71 0
M  V30 2636 H 237.039 -0.2244 -5.9968 0
M  V30 2637 H 238.109 -0.912931 -4.76228 0
M  V30 2638 N 239.452 1.56882 -0.150215 0
M  V30 2639 C 240.415 2.1573 0.774157 0
M  V30 2640 C 241.415 1.0999 1.17298 0
M  V30 2641 O 242.605 1.35613 1.09338 0
M  V30 2642 C 239.737 2.72302 2.05096 0
M  V30 2643 H 240.93 2.98752 0.262201 0
M  V30 2644 H 238.483 1.55985 0.099248 0
M  V30 2645 H 239.218 1.92956 2.6065 0
M  V30 2646 H 239.003 3.49665 1.77416 0
M  V30 2647 H 240.493 3.17632 2.71109 0
M  V30 2648 N 240.93 -0.123565 1.57115 0
M  V30 2649 C 242.346 -0.476961 1.52306 0
M  V30 2650 C 242.546 -1.82109 0.86248 0
M  V30 2651 O 241.602 -2.48586 0.442884 0
M  V30 2652 C 242.915 -0.465661 2.97073 0
M  V30 2653 C 244.463 -0.549534 3.08138 0
M  V30 2654 C 244.938 -0.568669 4.54456 0
M  V30 2655 N 246.429 -0.630237 4.58892 0
M  V30 2656 C 247.164 -0.666415 5.69514 0
M  V30 2657 N 246.66 -0.660514 6.89644 0
M  V30 2658 N 248.453 -0.709077 5.5761 0
M  V30 2659 H 240.604 0.757198 1.98445 0
M  V30 2660 H 242.867 0.278808 0.906074 0
M  V30 2661 H 242.573 0.454232 3.48754 0
M  V30 2662 H 242.447 -1.29513 3.54269 0
M  V30 2663 H 244.834 -1.45985 2.56461 0
M  V30 2664 H 244.915 0.307532 2.53945 0
M  V30 2665 H 244.559 0.337581 5.06777 0
M  V30 2666 H 244.489 -1.44256 5.06456 0
M  V30 2667 H 246.98 -0.641146 3.72421 0
M  V30 2668 H 247.293 -0.690616 7.69708 0
M  V30 2669 H 245.638 -0.628012 6.92157 0
M  V30 2670 H 248.829 -0.711019 4.62668 0
M  V30 2671 H 249.002 -0.733804 6.43832 0
M  V30 2672 N 242.408 -1.52605 -0.393616 0
M  V30 2673 C 243.657 -1.66649 -1.13627 0
M  V30 2674 C 243.97 -0.410364 -1.91247 0
M  V30 2675 O 245.176 -0.430854 -2.68059 0
M  V30 2676 C 243.632 -2.9449 -2.06891 0
M  V30 2677 C 243.24 -4.27266 -1.34714 0
M  V30 2678 C 244.984 -3.17899 -2.81319 0
M  V30 2679 C 242.891 -5.46217 -2.26717 0
M  V30 2680 H 241.821 -0.62084 -0.427871 0
M  V30 2681 H 244.472 -1.791 -0.399428 0
M  V30 2682 H 242.854 -2.75774 -2.84191 0
M  V30 2683 H 244.028 -4.56518 -0.626714 0
M  V30 2684 H 242.343 -4.10081 -0.722643 0
M  V30 2685 H 244.94 -4.03949 -3.50328 0
M  V30 2686 H 245.283 -2.32777 -3.45139 0
M  V30 2687 H 245.816 -3.37159 -2.11113 0
M  V30 2688 H 242.555 -6.33733 -1.67521 0
M  V30 2689 H 242.075 -5.21283 -2.96689 0
M  V30 2690 H 243.754 -5.7991 -2.86903 0
M  V30 2691 N 243.887 0.651787 -1.4349 0
M  V30 2692 C 244.817 1.77621 -1.51569 0
M  V30 2693 C 245.798 1.66022 -0.370253 0
M  V30 2694 O 246.983 1.85095 -0.587658 0
M  V30 2695 C 244.113 3.16056 -1.43966 0
M  V30 2696 C 243.067 3.4242 -2.56774 0
M  V30 2697 C 242.393 4.8067 -2.34223 0
M  V30 2698 C 243.693 3.37023 -3.99015 0
M  V30 2699 H 245.387 1.71117 -2.45681 0
M  V30 2700 H 242.933 0.821825 -1.18246 0
M  V30 2701 H 244.886 3.94472 -1.48221 0
M  V30 2702 H 243.61 3.23293 -0.463586 0
M  V30 2703 H 242.269 2.66375 -2.51873 0
M  V30 2704 H 241.917 4.84585 -1.34856 0
M  V30 2705 H 241.617 4.9927 -3.09844 0
M  V30 2706 H 243.141 5.61342 -2.40265 0
M  V30 2707 H 244.555 4.05374 -4.05395 0
M  V30 2708 H 242.952 3.67159 -4.74673 0
M  V30 2709 H 244.022 2.3518 -4.2405 0
M  V30 2710 N 245.365 1.30045 0.890287 0
M  V30 2711 C 246.313 1.15873 2.01683 0
M  V30 2712 C 247.307 0.0719403 1.69247 0
M  V30 2713 O 248.513 0.232414 1.78493 0
M  V30 2714 H 244.888 0.358203 0.661207 0
M  V30 2715 H 246.859 2.11229 2.10772 0
M  V30 2716 C 245.608 0.861842 3.36849 0
M  V30 2717 H 244.931 1.69016 3.62317 0
M  V30 2718 H 246.371 0.802762 4.16331 0
M  V30 2719 C 244.83 -0.435132 3.34078 0
M  V30 2720 O 245.36 -1.4583 3.74295 0
M  V30 2721 N 243.566 -0.444377 2.87182 0
M  V30 2722 H 243.113 0.388723 2.5465 0
M  V30 2723 H 243.071 -1.31213 2.85711 0
M  V30 2724 N 246.843 -1.10192 1.12674 0
M  V30 2725 C 247.793 -2.14754 0.765801 0
M  V30 2726 C 248.777 -1.59154 -0.236409 0
M  V30 2727 O 249.969 -1.76951 -0.0415261 0
M  V30 2728 C 247.098 -3.42563 0.224827 0
M  V30 2729 C 246.184 -4.05091 1.25548 0
M  V30 2730 N 246.575 -4.42287 2.4539 0
M  V30 2731 C 244.873 -4.32186 1.10142 0
M  V30 2732 C 245.574 -4.91441 3.11224 0
M  V30 2733 N 244.55 -4.88405 2.38666 0
M  V30 2734 H 248.352 -2.41309 1.67772 0
M  V30 2735 H 245.866 -1.27339 1.00789 0
M  V30 2736 H 247.863 -4.16868 -0.0519578 0
M  V30 2737 H 246.523 -3.17467 -0.681515 0
M  V30 2738 H 247.534 -4.33902 2.82754 0
M  V30 2739 H 244.211 -4.16735 0.252587 0
M  V30 2740 H 245.601 -5.29749 4.13298 0
M  V30 2741 N 248.321 -0.919034 -1.28029 0
M  V30 2742 C 249.598 -0.473668 -1.89778 0
M  V30 2743 C 249.978 1.04783 -1.83259 0
M  V30 2744 O 249.326 1.8982 -1.27202 0
M  V30 2745 C 249.536 -1.00998 -3.34066 0
M  V30 2746 C 250.884 -1.06525 -4.1102 0
M  V30 2747 O 251.908 -0.958996 -3.43048 0
M  V30 2748 O 250.767 -1.22776 -5.3253 0
M  V30 2749 H 247.861 -0.15098 -0.813101 0
M  V30 2750 H 250.407 -1.01016 -1.36359 0
M  V30 2751 H 249.179 -2.05392 -3.33061 0
M  V30 2752 H 248.802 -0.454626 -3.94992 0
M  V30 2753 N 249.799 1.42003 -0.683588 0
M  V30 2754 C 251.027 2.05746 -0.218182 0
M  V30 2755 C 251.442 1.51396 1.12804 0
M  V30 2756 O 250.799 0.657303 1.70252 0
M  V30 2757 C 250.85 3.61171 -0.154131 0
M  V30 2758 O 250.571 4.13508 -1.44716 0
M  V30 2759 C 252.072 4.42042 0.333713 0
M  V30 2760 H 249.292 0.662888 -0.10402 0
M  V30 2761 H 251.836 1.81987 -0.9328 0
M  V30 2762 H 249.991 3.84012 0.511231 0
M  V30 2763 H 250.405 5.07453 -1.32632 0
M  V30 2764 H 251.879 5.51028 0.327423 0
M  V30 2765 H 252.356 4.17269 1.37053 0
M  V30 2766 H 252.962 4.24239 -0.300222 0
M  V30 2767 N 251.277 0.427512 1.51691 0
M  V30 2768 C 252.502 -0.143601 2.06902 0
M  V30 2769 C 252.927 -1.36536 1.29382 0
M  V30 2770 O 252.285 -1.78289 0.329043 0
M  V30 2771 C 252.333 -0.454207 3.57728 0
M  V30 2772 O 251.437 -1.54228 3.82475 0
M  V30 2773 H 250.778 -0.00617128 0.663971 0
M  V30 2774 H 253.308 0.606014 1.95419 0
M  V30 2775 H 253.318 -0.707525 4.01818 0
M  V30 2776 H 251.993 0.438812 4.13579 0
M  V30 2777 H 250.57 -1.2797 3.50254 0
M  V30 2778 N 252.755 -1.56801 0.158532 0
M  V30 2779 C 254.002 -1.9649 -0.489679 0
M  V30 2780 C 254.33 -1.04394 -1.6411 0
M  V30 2781 O 253.585 -0.0754401 -1.95555 0
M  V30 2782 C 253.884 -3.4235 -1.02623 0
M  V30 2783 C 253.55 -4.50899 0.00794526 0
M  V30 2784 C 252.212 -4.80312 0.292207 0
M  V30 2785 C 254.564 -5.16333 0.710584 0
M  V30 2786 C 251.892 -5.72461 1.28472 0
M  V30 2787 C 254.244 -6.09553 1.69199 0
M  V30 2788 C 252.908 -6.37339 1.98383 0
M  V30 2789 H 252.178 -0.719009 -0.179186 0
M  V30 2790 H 254.825 -1.8989 0.247798 0
M  V30 2791 H 253.13 -3.45838 -1.84128 0
M  V30 2792 H 254.827 -3.70393 -1.53656 0
M  V30 2793 H 251.417 -4.28015 -0.22379 0
M  V30 2794 H 255.601 -4.93732 0.504174 0
M  V30 2795 H 250.857 -5.92278 1.51714 0
M  V30 2796 H 255.031 -6.59327 2.24189 0
M  V30 2797 H 252.658 -7.08546 2.7544 0
M  V30 2798 N 254.233 0.115231 -1.57178 0
M  V30 2799 C 255.196 1.12526 -1.99676 0
M  V30 2800 C 256.196 1.34095 -0.88742 0
M  V30 2801 O 257.386 1.30548 -1.15337 0
M  V30 2802 C 254.518 2.4789 -2.34015 0
M  V30 2803 H 255.711 0.759912 -2.90113 0
M  V30 2804 H 253.264 0.359648 -1.52106 0
M  V30 2805 H 253.999 2.89339 -1.4647 0
M  V30 2806 H 253.784 2.33588 -3.14927 0
M  V30 2807 H 255.274 3.20575 -2.67622 0
M  V30 2808 N 255.711 1.52812 0.385517 0
M  V30 2809 C 256.658 1.77838 1.47113 0
M  V30 2810 C 257.628 0.621757 1.54024 0
M  V30 2811 O 258.813 0.861846 1.70226 0
M  V30 2812 C 255.953 1.95618 2.84302 0
M  V30 2813 C 255.066 3.23316 2.86515 0
M  V30 2814 C 254.201 3.31394 4.15152 0
M  V30 2815 C 253.24 4.53201 4.1143 0
M  V30 2816 N 252.377 4.58542 5.3168 0
M  V30 2817 H 257.217 2.70482 1.25073 0
M  V30 2818 H 254.754 1.34006 0.606692 0
M  V30 2819 H 256.712 2.03912 3.63972 0
M  V30 2820 H 255.342 1.06331 3.04784 0
M  V30 2821 H 254.394 3.24076 1.99195 0
M  V30 2822 H 255.706 4.13045 2.79634 0
M  V30 2823 H 254.86 3.3889 5.03228 0
M  V30 2824 H 253.599 2.39645 4.24761 0
M  V30 2825 H 252.604 4.45827 3.21742 0
M  V30 2826 H 253.829 5.46271 4.03442 0
M  V30 2827 H 251.775 3.69686 5.41912 0
M  V30 2828 H 251.692 5.42148 5.26889 0
M  V30 2829 H 252.96 4.70296 6.21644 0
M  V30 2830 N 257.189 -0.644168 1.43834 0
M  V30 2831 C 258.417 -1.43147 1.49387 0
M  V30 2832 C 258.832 -1.88452 0.114583 0
M  V30 2833 O 258.189 -1.60047 -0.876989 0
M  V30 2834 C 258.24 -2.66046 2.44748 0
M  V30 2835 O 257.961 -2.22633 3.77314 0
M  V30 2836 C 259.462 -3.59311 2.59635 0
M  V30 2837 H 256.682 -0.439447 0.507077 0
M  V30 2838 H 259.226 -0.78895 1.88669 0
M  V30 2839 H 257.381 -3.26418 2.08638 0
M  V30 2840 H 257.795 -3.02216 4.28679 0
M  V30 2841 H 259.269 -4.42187 3.30416 0
M  V30 2842 H 259.746 -4.07259 1.64427 0
M  V30 2843 H 260.352 -3.04816 2.96593 0
M  V30 2844 N 258.668 -1.30515 -0.883378 0
M  V30 2845 C 259.915 -1.1943 -1.63532 0
M  V30 2846 C 260.243 0.250627 -1.92878 0
M  V30 2847 O 259.498 1.19556 -1.54935 0
M  V30 2848 C 259.797 -1.96994 -2.98209 0
M  V30 2849 C 259.463 -3.466 -2.88408 0
M  V30 2850 C 258.125 -3.87397 -2.85442 0
M  V30 2851 C 260.477 -4.41863 -2.76418 0
M  V30 2852 C 257.805 -5.21745 -2.68327 0
M  V30 2853 C 260.157 -5.7632 -2.60841 0
M  V30 2854 C 258.821 -6.16354 -2.56251 0
M  V30 2855 H 258.091 -0.437025 -0.598406 0
M  V30 2856 H 260.738 -1.61635 -1.02696 0
M  V30 2857 H 259.043 -1.47429 -3.63004 0
M  V30 2858 H 260.74 -1.85808 -3.55354 0
M  V30 2859 H 257.33 -3.14182 -2.91527 0
M  V30 2860 H 261.514 -4.11285 -2.77775 0
M  V30 2861 H 256.77 -5.51853 -2.63189 0
M  V30 2862 H 260.944 -6.49772 -2.50538 0
M  V30 2863 H 258.571 -7.20401 -2.42748 0
M  V30 2864 N 260.146 1.09593 -1.13257 0
M  V30 2865 C 261.392 1.82003 -0.89458 0
M  V30 2866 C 261.725 1.85402 0.577906 0
M  V30 2867 O 261 1.32099 1.42759 0
M  V30 2868 C 261.283 3.28237 -1.48096 0
M  V30 2869 C 261.136 3.3312 -3.02244 0
M  V30 2870 C 262.455 4.24871 -1.14774 0
M  V30 2871 H 259.574 0.66077 -0.326424 0
M  V30 2872 H 262.216 1.28389 -1.40058 0
M  V30 2873 H 260.366 3.74024 -1.05062 0
M  V30 2874 H 262.038 2.95748 -3.54021 0
M  V30 2875 H 260.281 2.72756 -3.37323 0
M  V30 2876 H 260.952 4.3613 -3.38371 0
M  V30 2877 H 263.428 3.87361 -1.51957 0
M  V30 2878 H 262.304 5.25532 -1.58452 0
M  V30 2879 H 262.565 4.42058 -0.0611849 0
M  V30 2880 N 261.624 0.925811 1.2754 0
M  V30 2881 C 262.872 0.564138 1.94067 0
M  V30 2882 C 263.193 -0.897188 1.73134 0
M  V30 2883 O 262.463 -1.63573 1.07799 0
M  V30 2884 H 261.043 0.205645 0.718136 0
M  V30 2885 H 263.705 1.1778 1.55287 0
M  V30 2886 H 262.801 0.76881 3.02483 0
M  V30 2887 N 263.102 -1.41638 0.69111 0
M  V30 2888 C 264.33 -2.05628 0.22909 0
M  V30 2889 C 264.745 -1.51992 -1.11999 0
M  V30 2890 O 264.102 -0.666322 -1.69901 0
M  V30 2891 C 264.153 -3.61084 0.173283 0
M  V30 2892 O 263.874 -4.12735 1.46907 0
M  V30 2893 C 265.375 -4.42213 -0.310266 0
M  V30 2894 H 262.595 -0.662327 0.107534 0
M  V30 2895 H 265.139 -1.81489 0.942438 0
M  V30 2896 H 263.294 -3.84278 -0.490858 0
M  V30 2897 H 263.708 -5.06743 1.35322 0
M  V30 2898 H 265.182 -5.51194 -0.298196 0
M  V30 2899 H 265.659 -4.1799 -1.34838 0
M  V30 2900 H 266.265 -4.24074 0.322716 0
M  V30 2901 N 264.58 -0.43555 -1.51462 0
M  V30 2902 C 265.991 0.0279871 -1.86679 0
M  V30 2903 C 266.342 1.42104 -1.35281 0
M  V30 2904 O 265.467 2.04667 -0.702878 0
M  V30 2905 C 266.062 0.0575626 -3.38751 0
M  V30 2906 C 264.621 0.465507 -3.7351 0
M  V30 2907 C 263.768 -0.342996 -2.75171 0
M  V30 2908 H 266.719 -0.651473 -1.44712 0
M  V30 2909 H 266.74 0.867421 -3.70481 0
M  V30 2910 H 266.252 -0.956448 -3.7613 0
M  V30 2911 H 264.353 1.48519 -3.41721 0
M  V30 2912 H 264.466 0.191546 -4.78717 0
M  V30 2913 H 262.83 0.198442 -2.53926 0
M  V30 2914 H 263.613 -1.35585 -3.15391 0
M  V30 2915 N 266.058 1.56714 -0.166846 0
M  V30 2916 C 267.288 2.00828 0.48494 0
M  V30 2917 C 267.696 1.04612 1.57648 0
M  V30 2918 O 267.039 0.0383201 1.8366 0
M  V30 2919 C 267.101 3.4137 1.12723 0
M  V30 2920 C 266.765 4.56654 0.177886 0
M  V30 2921 C 267.762 5.16402 -0.60207 0
M  V30 2922 C 265.447 5.02244 0.0750139 0
M  V30 2923 C 267.441 6.20167 -1.47215 0
M  V30 2924 C 265.128 6.05859 -0.798649 0
M  V30 2925 C 266.126 6.64691 -1.57082 0
M  V30 2926 O 265.814 7.66297 -2.42989 0
M  V30 2927 H 265.546 0.663587 0.128953 0
M  V30 2928 H 268.1 2.03692 -0.264365 0
M  V30 2929 H 266.33 3.35406 1.92457 0
M  V30 2930 H 268.019 3.69466 1.68076 0
M  V30 2931 H 268.785 4.82065 -0.53274 0
M  V30 2932 H 264.664 4.56167 0.665812 0
M  V30 2933 H 268.208 6.66016 -2.07531 0
M  V30 2934 H 264.105 6.39621 -0.869199 0
M  V30 2935 H 264.873 7.83601 -2.36455 0
M  V30 2936 N 267.536 -0.106894 1.57237 0
M  V30 2937 C 268.766 -0.825191 1.89405 0
M  V30 2938 C 269.174 -1.73374 0.757496 0
M  V30 2939 O 268.517 -1.81552 -0.280115 0
M  V30 2940 C 268.579 -1.70102 3.1671 0
M  V30 2941 C 268.243 -0.965523 4.46684 0
M  V30 2942 C 269.24 -0.300741 5.19029 0
M  V30 2943 C 266.925 -0.943105 4.93367 0
M  V30 2944 C 268.919 0.376622 6.36286 0
M  V30 2945 C 266.606 -0.261949 6.10538 0
M  V30 2946 C 267.604 0.396748 6.81847 0
M  V30 2947 O 267.292 1.06701 7.96787 0
M  V30 2948 H 267.024 -0.241852 0.631255 0
M  V30 2949 H 269.578 -0.0921491 2.05193 0
M  V30 2950 H 267.808 -2.47601 2.97036 0
M  V30 2951 H 269.497 -2.29483 3.34802 0
M  V30 2952 H 270.263 -0.309599 4.84011 0
M  V30 2953 H 266.142 -1.44524 4.3776 0
M  V30 2954 H 269.686 0.891334 6.91882 0
M  V30 2955 H 265.583 -0.250896 6.45012 0
M  V30 2956 H 266.351 0.972707 8.127 0
M  V30 2957 N 269.014 -1.53014 -0.377408 0
M  V30 2958 C 269.947 -1.73382 -1.48371 0
M  V30 2959 C 270.925 -0.581879 -1.51832 0
M  V30 2960 O 272.109 -0.81307 -1.70063 0
M  V30 2961 C 269.236 -1.80192 -2.8679 0
M  V30 2962 C 268.282 -3.02056 -3.01105 0
M  V30 2963 S 269.115 -4.61811 -2.71093 0
M  V30 2964 C 270.271 -4.71453 -4.11683 0
M  V30 2965 H 270.504 -2.66946 -1.30872 0
M  V30 2966 H 268.037 -1.43453 -0.571012 0
M  V30 2967 H 269.995 -1.84802 -3.6655 0
M  V30 2968 H 268.656 -0.877008 -3.01608 0
M  V30 2969 H 267.849 -3.03396 -4.02451 0
M  V30 2970 H 267.451 -2.95498 -2.29253 0
M  V30 2971 H 269.743 -4.50781 -5.0577 0
M  V30 2972 H 270.686 -5.73487 -4.15353 0
M  V30 2973 H 271.094 -4.00189 -3.98132 0
M  V30 2974 N 270.492 0.636531 -1.44174 0
M  V30 2975 C 271.717 1.42847 -1.50364 0
M  V30 2976 C 272.142 1.87665 -0.127867 0
M  V30 2977 O 271.5 1.58408 0.88185 0
M  V30 2978 C 271.548 2.62854 -2.4686 0
M  V30 2979 O 270.652 3.62501 -1.9664 0
M  V30 2980 H 269.993 0.427642 -0.507955 0
M  V30 2981 H 272.523 0.777422 -1.89255 0
M  V30 2982 H 272.533 3.10465 -2.64718 0
M  V30 2983 H 271.208 2.29578 -3.46795 0
M  V30 2984 H 269.785 3.21735 -1.88523 0
M  V30 2985 N 271.97 1.30982 0.876444 0
M  V30 2986 C 273.381 1.18277 1.44456 0
M  V30 2987 C 273.732 -0.213265 1.95037 0
M  V30 2988 O 272.857 -1.11057 1.85729 0
M  V30 2989 C 273.452 2.1411 2.62569 0
M  V30 2990 C 272.011 2.05358 3.15444 0
M  V30 2991 C 271.158 2.03706 1.88146 0
M  V30 2992 H 274.109 1.43127 0.685584 0
M  V30 2993 H 274.13 1.72692 3.39054 0
M  V30 2994 H 273.642 3.15706 2.25724 0
M  V30 2995 H 271.743 1.06934 3.56926 0
M  V30 2996 H 271.856 2.94156 3.78166 0
M  V30 2997 H 270.22 1.48629 2.06837 0
M  V30 2998 H 271.003 3.07047 1.53547 0
M  V30 2999 N 273.449 -1.08991 1.13837 0
M  V30 3000 C 274.359 -2.19301 0.833333 0
M  V30 3001 C 275.375 -1.73026 -0.183847 0
M  V30 3002 O 276.551 -2.01395 -0.0138092 0
M  V30 3003 C 273.616 -3.45323 0.308651 0
M  V30 3004 C 272.677 -4.06255 1.38764 0
M  V30 3005 C 271.91 -5.26262 0.887896 0
M  V30 3006 O 272.133 -5.69747 -0.27287 0
M  V30 3007 O 271.067 -5.78435 1.66421 0
M  V30 3008 H 274.893 -2.47854 1.75506 0
M  V30 3009 H 272.478 -1.18012 0.916166 0
M  V30 3010 H 274.36 -4.21394 0.0216739 0
M  V30 3011 H 273.035 -3.18362 -0.585431 0
M  V30 3012 H 271.942 -3.318 1.72799 0
M  V30 3013 H 273.275 -4.37452 2.25602 0
M  V30 3014 N 274.927 -0.932562 -1.27047 0
M  V30 3015 C 275.859 -0.392734 -2.2581 0
M  V30 3016 C 276.872 0.479241 -1.55586 0
M  V30 3017 O 278.061 0.291078 -1.76111 0
M  V30 3018 C 275.161 0.455456 -3.35826 0
M  V30 3019 C 274.334 -0.398355 -4.35582 0
M  V30 3020 C 273.393 0.387985 -5.24768 0
M  V30 3021 O 272.419 -0.206003 -5.68827 0
M  V30 3022 N 273.621 1.68664 -5.55457 0
M  V30 3023 H 276.386 -1.24173 -2.72766 0
M  V30 3024 H 273.947 -0.800511 -1.40725 0
M  V30 3025 H 275.939 0.988692 -3.92437 0
M  V30 3026 H 274.509 1.20522 -2.88432 0
M  V30 3027 H 273.729 -1.11286 -3.78165 0
M  V30 3028 H 275.017 -0.981889 -4.99236 0
M  V30 3029 H 274.415 2.19147 -5.21528 0
M  V30 3030 H 272.972 2.1663 -6.14748 0
M  V30 3031 N 276.405 1.4127 -0.698611 0
M  V30 3032 C 277.338 2.28195 0.0153898 0
M  V30 3033 C 278.316 1.42402 0.784883 0
M  V30 3034 O 279.5 1.71828 0.775067 0
M  V30 3035 C 276.627 3.22685 1.02918 0
M  V30 3036 C 275.673 4.25041 0.352501 0
M  V30 3037 S 276.506 5.27757 -0.907322 0
M  V30 3038 C 277.662 6.25812 0.104796 0
M  V30 3039 H 277.895 2.88403 -0.721858 0
M  V30 3040 H 275.428 1.46452 -0.488996 0
M  V30 3041 H 277.386 3.77655 1.60893 0
M  V30 3042 H 276.047 2.61566 1.73902 0
M  V30 3043 H 275.24 4.91437 1.11828 0
M  V30 3044 H 274.842 3.73682 -0.154254 0
M  V30 3045 H 277.134 6.70705 0.957103 0
M  V30 3046 H 278.077 7.06149 -0.525323 0
M  V30 3047 H 278.485 5.62615 0.460931 0
M  V30 3048 N 277.883 0.443576 1.51229 0
M  V30 3049 C 278.831 -0.37904 2.29491 0
M  V30 3050 C 279.825 -1.0153 1.35603 0
M  V30 3051 O 281.031 -0.94955 1.52917 0
M  V30 3052 H 277.406 -0.141053 0.738653 0
M  V30 3053 H 279.377 0.301799 2.9687 0
M  V30 3054 C 278.126 -1.46426 3.15364 0
M  V30 3055 H 277.449 -0.984037 3.87501 0
M  V30 3056 H 278.889 -2.01297 3.7317 0
M  V30 3057 C 277.348 -2.45099 2.31146 0
M  V30 3058 O 277.878 -3.49773 1.9754 0
M  V30 3059 N 276.084 -2.16139 1.94249 0
M  V30 3060 H 275.631 -1.31044 2.21777 0
M  V30 3061 H 275.589 -2.82398 1.38198 0
M  V30 3062 N 279.361 -1.56624 0.175154 0
M  V30 3063 C 280.777 -1.58571 -0.180966 0
M  V30 3064 C 280.977 -1.19065 -1.6256 0
M  V30 3065 O 280.033 -0.904044 -2.35761 0
M  V30 3066 C 281.346 -3.00522 0.103326 0
M  V30 3067 C 282.894 -3.12972 0.0418426 0
M  V30 3068 C 283.369 -4.57022 0.299175 0
M  V30 3069 N 284.86 -4.62541 0.247086 0
M  V30 3070 C 285.595 -5.71857 0.420318 0
M  V30 3071 N 285.091 -6.89717 0.652816 0
M  V30 3072 N 286.884 -5.60972 0.355957 0
M  V30 3073 H 279.035 -1.80589 1.11809 0
M  V30 3074 H 281.298 -0.837178 0.444788 0
M  V30 3075 H 281.004 -3.33916 1.10422 0
M  V30 3076 H 280.878 -3.72344 -0.603299 0
M  V30 3077 H 283.265 -2.79403 -0.949636 0
M  V30 3078 H 283.346 -2.43578 0.781238 0
M  V30 3079 H 282.99 -4.913 1.28788 0
M  V30 3080 H 282.92 -5.24579 -0.460876 0
M  V30 3081 H 285.411 -3.77829 0.0731895 0
M  V30 3082 H 285.724 -7.68911 0.774347 0
M  V30 3083 H 284.069 -6.91572 0.689476 0
M  V30 3084 H 287.26 -4.67773 0.174882 0
M  V30 3085 H 287.433 -6.46111 0.494388 0
M  V30 3086 N 280.839 0.0985539 -1.57292 0
M  V30 3087 C 281.772 1.15082 -1.97057 0
M  V30 3088 C 282.75 1.39025 -0.843255 0
M  V30 3089 O 283.934 1.52842 -1.10325 0
M  V30 3090 C 281.061 2.50069 -2.28437 0
M  V30 3091 C 280.107 2.42428 -3.509 0
M  V30 3092 S 280.94 1.84414 -5.02744 0
M  V30 3093 C 282.096 3.21032 -5.37298 0
M  V30 3094 H 282.329 0.811815 -2.86002 0
M  V30 3095 H 279.862 0.306102 -1.51335 0
M  V30 3096 H 281.82 3.27729 -2.47192 0
M  V30 3097 H 280.481 2.8114 -1.40069 0
M  V30 3098 H 279.674 3.41911 -3.70288 0
M  V30 3099 H 279.276 1.72896 -3.31637 0
M  V30 3100 H 281.568 4.17297 -5.33731 0
M  V30 3101 H 282.511 3.06452 -6.38352 0
M  V30 3102 H 282.919 3.20404 -4.64759 0
M  V30 3103 N 282.317 1.53212 0.369288 0
M  V30 3104 C 283.542 1.73423 1.1375 0
M  V30 3105 C 283.967 0.460404 1.82378 0
M  V30 3106 O 283.325 -0.585298 1.71592 0
M  V30 3107 C 283.373 2.89769 2.1463 0
M  V30 3108 O 282.477 2.58119 3.21634 0
M  V30 3109 H 281.818 0.576061 0.330227 0
M  V30 3110 H 284.348 2.00083 0.427547 0
M  V30 3111 H 284.358 3.15829 2.58294 0
M  V30 3112 H 283.033 3.8217 1.64071 0
M  V30 3113 H 281.61 2.42864 2.82969 0
M  V30 3114 N 283.795 -0.628877 1.44509 0
M  V30 3115 C 285.025 -1.41349 1.50678 0
M  V30 3116 C 285.433 -1.88745 0.131075 0
M  V30 3117 O 284.776 -1.61592 -0.87371 0
M  V30 3118 C 284.838 -2.66608 2.41165 0
M  V30 3119 C 284.502 -2.40993 3.88293 0
M  V30 3120 C 285.499 -2.0268 4.78766 0
M  V30 3121 C 283.184 -2.54563 4.33016 0
M  V30 3122 C 285.178 -1.78269 6.11963 0
M  V30 3123 C 282.865 -2.29766 5.6626 0
M  V30 3124 C 283.863 -1.91678 6.55552 0
M  V30 3125 O 283.551 -1.67158 7.86329 0
M  V30 3126 H 283.283 -0.439851 0.51333 0
M  V30 3127 H 285.837 -0.776084 1.90174 0
M  V30 3128 H 284.067 -3.32994 1.96601 0
M  V30 3129 H 285.756 -3.28615 2.38259 0
M  V30 3130 H 286.522 -1.91751 4.45485 0
M  V30 3131 H 282.401 -2.83179 3.63773 0
M  V30 3132 H 285.945 -1.48465 6.81619 0
M  V30 3133 H 281.842 -2.40306 5.99102 0
M  V30 3134 H 282.61 -1.81386 7.98149 0
M  V30 3135 N 285.273 -1.31445 -0.869486 0
M  V30 3136 C 286.221 -1.19067 -1.99814 0
M  V30 3137 C 287.215 -0.0988569 -1.69111 0
M  V30 3138 O 288.421 -0.260781 -1.78101 0
M  V30 3139 H 284.796 -0.368677 -0.655425 0
M  V30 3140 H 286.767 -2.14555 -2.07385 0
M  V30 3141 C 285.516 -0.915323 -3.35436 0
M  V30 3142 H 284.839 -1.74759 -3.59582 0
M  V30 3143 H 286.279 -0.868895 -4.15001 0
M  V30 3144 C 284.738 0.381928 -3.34728 0
M  V30 3145 O 285.268 1.39857 -3.76567 0
M  V30 3146 N 283.474 0.398633 -2.87853 0
M  V30 3147 H 283.021 -0.429186 -2.54 0
M  V30 3148 H 282.979 1.26651 -2.87762 0
M  V30 3149 N 286.751 1.08385 -1.14413 0
M  V30 3150 C 287.661 2.18856 -0.844951 0
M  V30 3151 C 288.677 1.73121 0.174668 0
M  V30 3152 O 289.853 2.014 0.00312857 0
M  V30 3153 C 286.918 3.45155 -0.32696 0
M  V30 3154 C 285.979 4.05513 -1.40916 0
M  V30 3155 C 285.212 5.25784 -0.915793 0
M  V30 3156 O 285.435 5.69884 0.242651 0
M  V30 3157 O 284.369 5.77545 -1.69487 0
M  V30 3158 H 288.195 2.46919 -1.76818 0
M  V30 3159 H 285.78 1.17524 -0.922411 0
M  V30 3160 H 287.662 4.21377 -0.0440211 0
M  V30 3161 H 286.337 3.18668 0.568539 0
M  V30 3162 H 285.244 3.30879 -1.74556 0
M  V30 3163 H 286.577 4.3625 -2.27919 0
M  V30 3164 N 288.23 0.939286 1.26551 0
M  V30 3165 C 289.177 0.446088 2.26448 0
M  V30 3166 C 290.147 -0.493234 1.58608 0
M  V30 3167 O 291.332 -0.409857 1.86346 0
M  V30 3168 C 288.472 -0.284375 3.43926 0
M  V30 3169 C 287.585 0.690399 4.26448 0
M  V30 3170 C 286.72 -0.0610712 5.31165 0
M  V30 3171 C 285.759 0.905649 6.05363 0
M  V30 3172 N 284.896 0.186055 7.01853 0
M  V30 3173 H 289.736 1.30291 2.68008 0
M  V30 3174 H 287.273 0.65371 1.31776 0
M  V30 3175 H 289.231 -0.724313 4.10864 0
M  V30 3176 H 287.861 -1.10535 3.03285 0
M  V30 3177 H 286.913 1.24885 3.59316 0
M  V30 3178 H 288.225 1.42873 4.779 0
M  V30 3179 H 287.379 -0.56038 6.04106 0
M  V30 3180 H 286.118 -0.832297 4.80546 0
M  V30 3181 H 285.123 1.4161 5.3125 0
M  V30 3182 H 286.348 1.67685 6.58072 0
M  V30 3183 H 284.294 -0.566714 6.53548 0
M  V30 3184 H 284.211 0.863752 7.51049 0
M  V30 3185 H 285.479 -0.292221 7.78952 0
M  V30 3186 N 289.708 -1.40897 0.706093 0
M  V30 3187 C 290.933 -2.05895 0.249435 0
M  V30 3188 C 291.358 -1.52823 -1.09666 0
M  V30 3189 O 290.716 -0.659589 -1.68876 0
M  V30 3190 C 290.764 -3.59872 0.22904 0
M  V30 3191 O 289.868 -4.04708 -0.792784 0
M  V30 3192 H 289.209 -0.653206 0.119241 0
M  V30 3193 H 291.739 -1.80471 0.96391 0
M  V30 3194 H 291.749 -4.07951 0.0634791 0
M  V30 3195 H 290.424 -3.97866 1.21141 0
M  V30 3196 H 289.001 -3.68111 -0.59572 0
M  V30 3197 N 291.186 -0.45159 -1.50991 0
M  V30 3198 C 292.463 0.170707 -1.94854 0
M  V30 3199 C 292.843 1.58788 -1.39103 0
M  V30 3200 O 292.191 2.20913 -0.583921 0
M  V30 3201 C 292.401 0.133929 -3.48743 0
M  V30 3202 C 293.749 0.33248 -4.23296 0
M  V30 3203 O 294.773 0.211403 -3.55572 0
M  V30 3204 O 293.632 0.57486 -5.43468 0
M  V30 3205 H 290.726 0.122264 -0.817912 0
M  V30 3206 H 293.272 -0.510594 -1.61836 0
M  V30 3207 H 292.044 -0.856283 -3.81816 0
M  V30 3208 H 291.667 0.857529 -3.88242 0
M  V30 3209 N 292.664 1.56529 -0.183458 0
M  V30 3210 C 293.913 1.96419 0.458511 0
M  V30 3211 C 294.226 1.0727 1.63562 0
M  V30 3212 O 295.432 1.36893 2.34462 0
M  V30 3213 C 293.888 3.49298 0.867122 0
M  V30 3214 C 293.496 4.47092 -0.285057 0
M  V30 3215 C 295.24 3.97983 1.47683 0
M  V30 3216 C 293.147 5.91225 0.143862 0
M  V30 3217 H 292.077 0.733394 0.175071 0
M  V30 3218 H 294.728 1.81448 -0.273624 0
M  V30 3219 H 293.11 3.59731 1.65559 0
M  V30 3220 H 294.284 4.48383 -1.0625 0
M  V30 3221 H 292.599 4.08535 -0.805503 0
M  V30 3222 H 295.196 5.03134 1.80999 0
M  V30 3223 H 295.539 3.41618 2.37914 0
M  V30 3224 H 296.072 3.90617 0.752562 0
M  V30 3225 H 292.811 6.5149 -0.723974 0
M  V30 3226 H 292.331 5.93214 0.886413 0
M  V30 3227 H 294.01 6.44362 0.583628 0
M  V30 3228 N 294.142 -0.090211 1.57342 0
M  V30 3229 C 295.388 -0.788838 1.8748 0
M  V30 3230 C 295.743 -1.76105 0.7749 0
M  V30 3231 O 295.036 -1.90302 -0.222663 0
M  V30 3232 C 295.23 -1.55222 3.21933 0
M  V30 3233 C 295.059 -0.655441 4.44898 0
M  V30 3234 C 293.829 -0.299325 5.04413 0
M  V30 3235 C 296.027 0.0397458 5.14285 0
M  V30 3236 N 294.009 0.605108 6.10911 0
M  V30 3237 C 295.38 0.802061 6.1479 0
M  V30 3238 C 297.435 0.113154 4.97771 0
M  V30 3239 C 296.138 1.63093 7.00566 0
M  V30 3240 C 298.164 0.928942 5.84059 0
M  V30 3241 C 297.526 1.67936 6.84088 0
M  V30 3242 H 293.625 -0.26467 0.735849 0
M  V30 3243 H 296.209 -0.0511453 1.94633 0
M  V30 3244 H 294.38 -2.26076 3.15823 0
M  V30 3245 H 296.112 -2.19843 3.39781 0
M  V30 3246 H 292.867 -0.648079 4.69145 0
M  V30 3247 H 293.291 1.05002 6.68808 0
M  V30 3248 H 297.933 -0.452676 4.2037 0
M  V30 3249 H 295.651 2.20781 7.77355 0
M  V30 3250 H 299.237 0.988478 5.73341 0
M  V30 3251 H 298.117 2.30044 7.49699 0
M  V30 3252 N 295.62 -1.53406 -0.361157 0
M  V30 3253 C 296.845 -1.74024 -1.12829 0
M  V30 3254 C 297.27 -0.470069 -1.82132 0
M  V30 3255 O 296.628 0.57619 -1.719 0
M  V30 3256 C 296.676 -2.90903 -2.13091 0
M  V30 3257 O 295.78 -2.59821 -3.20261 0
M  V30 3258 H 295.121 -0.577804 -0.327168 0
M  V30 3259 H 297.651 -2.00307 -0.41693 0
M  V30 3260 H 297.661 -3.17194 -2.56616 0
M  V30 3261 H 296.336 -3.83034 -1.62042 0
M  V30 3262 H 294.913 -2.44362 -2.81677 0
M  V30 3263 N 297.098 0.621204 -1.44841 0
M  V30 3264 C 298.028 1.74366 -1.55303 0
M  V30 3265 C 299.009 1.65199 -0.405385 0
M  V30 3266 O 300.194 1.83807 -0.626787 0
M  V30 3267 C 297.324 3.12931 -1.50637 0
M  V30 3268 C 296.278 3.36896 -2.63979 0
M  V30 3269 C 295.604 4.75594 -2.44366 0
M  V30 3270 C 296.904 3.28483 -4.06074 0
M  V30 3271 H 298.598 1.65867 -2.49256 0
M  V30 3272 H 296.144 0.796558 -1.19962 0
M  V30 3273 H 298.097 3.9124 -1.56555 0
M  V30 3274 H 296.821 3.22237 -0.532057 0
M  V30 3275 H 295.48 2.60972 -2.57467 0
M  V30 3276 H 295.128 4.81616 -1.45105 0
M  V30 3277 H 294.828 4.92586 -3.20364 0
M  V30 3278 H 296.352 5.5612 -2.52117 0
M  V30 3279 H 297.766 3.96684 -4.13902 0
M  V30 3280 H 296.163 3.57008 -4.82354 0
M  V30 3281 H 297.233 2.26133 -4.28943 0
M  V30 3282 N 298.576 1.31904 0.862503 0
M  V30 3283 C 299.824 1.21776 1.61292 0
M  V30 3284 C 300.145 -0.222413 1.93727 0
M  V30 3285 O 299.415 -1.1451 1.58947 0
M  V30 3286 H 297.995 0.447717 0.597962 0
M  V30 3287 H 300.657 1.65326 1.03215 0
M  V30 3288 H 299.753 1.7948 2.5533 0
M  V30 3289 N 300.054 -1.07777 1.14986 0
M  V30 3290 C 301.294 -1.81888 0.932527 0
M  V30 3291 C 301.658 -1.84509 -0.531064 0
M  V30 3292 O 302.859 -2.54448 -0.866577 0
M  V30 3293 C 301.13 -3.23244 1.52473 0
M  V30 3294 S 302.689 -4.14154 1.44989 0
M  V30 3295 H 299.507 -0.626752 0.335712 0
M  V30 3296 H 302.109 -1.29503 1.46455 0
M  V30 3297 H 300.813 -3.18922 2.58296 0
M  V30 3298 H 300.344 -3.80704 0.991381 0
M  V30 3299 H 302.359 -4.94247 0.439799 0
M  V30 3300 N 301.532 -0.945985 -1.26051 0
M  V30 3301 C 302.462 -0.477172 -2.28572 0
M  V30 3302 C 303.443 0.472032 -1.63419 0
M  V30 3303 O 304.628 0.372853 -1.90587 0
M  V30 3304 C 301.758 0.253975 -3.4637 0
M  V30 3305 C 300.712 -0.609135 -4.23643 0
M  V30 3306 C 300.038 0.252252 -5.34105 0
M  V30 3307 C 301.338 -1.8829 -4.8718 0
M  V30 3308 H 303.032 -1.33402 -2.68038 0
M  V30 3309 H 300.578 -0.642904 -1.28852 0
M  V30 3310 H 302.531 0.593016 -4.17207 0
M  V30 3311 H 301.255 1.145 -3.05871 0
M  V30 3312 H 299.914 -0.931138 -3.54578 0
M  V30 3313 H 299.562 1.14278 -4.89846 0
M  V30 3314 H 299.262 -0.32188 -5.86718 0
M  V30 3315 H 300.786 0.586454 -6.07777 0
M  V30 3316 H 302.2 -1.61081 -5.50205 0
M  V30 3317 H 300.597 -2.40199 -5.49931 0
M  V30 3318 H 301.667 -2.59134 -4.09851 0
M  V30 3319 N 303.011 1.40521 -0.713556 0
M  V30 3320 C 303.941 2.33381 -0.0743864 0
M  V30 3321 C 304.922 1.52784 0.747735 0
M  V30 3322 O 306.107 1.81258 0.697071 0
M  V30 3323 C 303.237 3.36748 0.849598 0
M  V30 3324 C 302.191 4.27793 0.133247 0
M  V30 3325 C 301.517 5.21679 1.17281 0
M  V30 3326 C 302.817 5.12415 -1.01134 0
M  V30 3327 H 304.511 2.87081 -0.850007 0
M  V30 3328 H 302.057 1.38034 -0.410201 0
M  V30 3329 H 304.01 4.00648 1.30612 0
M  V30 3330 H 302.734 2.81439 1.65709 0
M  V30 3331 H 301.393 3.65342 -0.303426 0
M  V30 3332 H 301.041 4.62677 1.9733 0
M  V30 3333 H 300.741 5.83435 0.698397 0
M  V30 3334 H 302.265 5.88456 1.62947 0
M  V30 3335 H 303.679 5.69781 -0.634274 0
M  V30 3336 H 302.076 5.83203 -1.41399 0
M  V30 3337 H 303.146 4.48514 -1.84292 0
M  V30 3338 N 304.489 0.459591 1.5075 0
M  V30 3339 C 305.719 -0.0972338 2.06371 0
M  V30 3340 C 306.127 -1.35074 1.32483 0
M  V30 3341 O 305.47 -1.79637 0.384226 0
M  V30 3342 C 305.532 -0.462759 3.56509 0
M  V30 3343 C 305.196 0.687084 4.51805 0
M  V30 3344 C 306.193 1.56578 4.95761 0
M  V30 3345 C 303.878 0.874144 4.94635 0
M  V30 3346 C 305.872 2.61604 5.81242 0
M  V30 3347 C 303.559 1.92765 5.79901 0
M  V30 3348 C 304.557 2.79697 6.23104 0
M  V30 3349 O 304.245 3.83235 7.06673 0
M  V30 3350 H 303.977 -0.00140687 0.675999 0
M  V30 3351 H 306.531 0.644011 1.95043 0
M  V30 3352 H 304.761 -1.25703 3.65699 0
M  V30 3353 H 306.45 -0.953323 3.94546 0
M  V30 3354 H 307.216 1.4329 4.6335 0
M  V30 3355 H 303.095 0.207006 4.60535 0
M  V30 3356 H 306.639 3.29489 6.14884 0
M  V30 3357 H 302.536 2.06064 6.11725 0
M  V30 3358 H 303.304 3.80084 7.24899 0
M  V30 3359 N 305.967 -1.56429 0.191757 0
M  V30 3360 C 306.877 -2.22541 -0.742481 0
M  V30 3361 C 307.893 -1.22342 -1.23727 0
M  V30 3362 O 309.069 -1.55069 -1.28513 0
M  V30 3363 C 306.134 -2.8692 -1.94623 0
M  V30 3364 C 305.195 -4.02378 -1.49633 0
M  V30 3365 C 304.428 -4.63678 -2.6427 0
M  V30 3366 O 304.651 -4.23895 -3.81666 0
M  V30 3367 O 303.585 -5.53202 -2.37174 0
M  V30 3368 H 307.411 -3.02977 -0.209462 0
M  V30 3369 H 304.996 -1.49353 -0.0373832 0
M  V30 3370 H 306.878 -3.27663 -2.64982 0
M  V30 3371 H 305.553 -2.09466 -2.46791 0
M  V30 3372 H 304.46 -3.66265 -0.761636 0
M  V30 3373 H 305.793 -4.81487 -1.02134 0
M  V30 3374 N 307.445 0.0818655 -1.57387 0
M  V30 3375 C 308.375 1.09885 -2.06028 0
M  V30 3376 C 309.356 1.4098 -0.951774 0
M  V30 3377 O 310.541 1.50781 -1.22387 0
M  V30 3378 C 307.671 2.4151 -2.4958 0
M  V30 3379 C 306.625 2.24792 -3.64215 0
M  V30 3380 C 305.951 3.61712 -3.93787 0
M  V30 3381 C 307.251 1.67749 -4.94629 0
M  V30 3382 H 308.945 0.694128 -2.91243 0
M  V30 3383 H 306.491 0.332448 -1.4011 0
M  V30 3384 H 308.444 3.12939 -2.82219 0
M  V30 3385 H 307.168 2.83943 -1.61381 0
M  V30 3386 H 305.827 1.55807 -3.31843 0
M  V30 3387 H 305.475 4.01697 -3.02735 0
M  V30 3388 H 305.175 3.51368 -4.70971 0
M  V30 3389 H 306.699 4.34587 -4.28913 0
M  V30 3390 H 308.113 2.29032 -5.25564 0
M  V30 3391 H 306.51 1.68128 -5.76067 0
M  V30 3392 H 307.58 0.638059 -4.80684 0
M  V30 3393 N 308.923 1.53595 0.353017 0
M  V30 3394 C 310.163 1.72094 1.10286 0
M  V30 3395 C 310.527 0.469217 1.86178 0
M  V30 3396 O 311.728 0.531083 2.63501 0
M  V30 3397 C 309.999 2.94386 2.02661 0
M  V30 3398 S 311.558 3.33651 2.84996 0
M  V30 3399 H 308.376 0.605433 0.372789 0
M  V30 3400 H 310.978 1.91722 0.38248 0
M  V30 3401 H 309.682 3.83669 1.45691 0
M  V30 3402 H 309.213 2.77197 2.79152 0
M  V30 3403 H 311.228 2.86645 4.0503 0
M  V30 3404 N 310.401 -0.613514 1.45168 0
M  V30 3405 C 311.364 -1.7065 1.53007 0
M  V30 3406 C 312.364 -1.5548 0.410184 0
M  V30 3407 O 313.554 -1.60656 0.673455 0
M  V30 3408 C 310.686 -3.09875 1.42093 0
M  V30 3409 H 311.879 -1.65068 2.50385 0
M  V30 3410 H 309.432 -0.828728 1.32521 0
M  V30 3411 H 310.167 -3.21039 0.458769 0
M  V30 3412 H 309.952 -3.22293 2.23315 0
M  V30 3413 H 311.442 -3.895 1.50598 0
M  V30 3414 N 311.879 -1.3236 -0.855495 0
M  V30 3415 C 312.809 -1.23833 -1.97958 0
M  V30 3416 C 313.79 -0.122361 -1.69659 0
M  V30 3417 O 314.975 -0.30939 -1.9172 0
M  V30 3418 C 312.105 -0.959772 -3.33775 0
M  V30 3419 C 311.059 -2.03689 -3.76424 0
M  V30 3420 C 310.385 -1.61075 -5.09862 0
M  V30 3421 C 311.685 -3.4518 -3.9198 0
M  V30 3422 H 313.379 -2.1788 -2.0535 0
M  V30 3423 H 310.925 -1.04891 -0.986605 0
M  V30 3424 H 312.878 -0.886678 -4.11966 0
M  V30 3425 H 311.602 0.0163404 -3.26596 0
M  V30 3426 H 310.261 -2.10012 -3.00484 0
M  V30 3427 H 309.909 -0.622107 -4.99138 0
M  V30 3428 H 309.609 -2.33143 -5.39368 0
M  V30 3429 H 311.133 -1.55201 -5.90546 0
M  V30 3430 H 312.547 -3.4145 -4.60526 0
M  V30 3431 H 310.944 -4.1559 -4.32903 0
M  V30 3432 H 312.014 -3.84903 -2.94919 0
M  V30 3433 N 313.357 1.07166 -1.15556 0
M  V30 3434 C 314.29 2.13808 -0.797593 0
M  V30 3435 C 315.268 1.6101 0.226812 0
M  V30 3436 O 316.452 1.88161 0.112932 0
M  V30 3437 C 313.579 3.38187 -0.186371 0
M  V30 3438 C 312.625 4.09766 -1.18297 0
M  V30 3439 S 313.458 4.60932 -2.72584 0
M  V30 3440 C 314.614 5.88583 -2.12886 0
M  V30 3441 H 314.847 2.43843 -1.70083 0
M  V30 3442 H 312.38 1.19467 -0.978106 0
M  V30 3443 H 314.338 4.10189 0.159837 0
M  V30 3444 H 312.999 3.06326 0.694489 0
M  V30 3445 H 312.192 4.99065 -0.703562 0
M  V30 3446 H 311.794 3.43736 -1.47381 0
M  V30 3447 H 314.086 6.60866 -1.49208 0
M  V30 3448 H 315.029 6.41241 -3.0036 0
M  V30 3449 H 315.437 5.42194 -1.57116 0
M  V30 3450 N 314.835 0.952656 1.25548 0
M  V30 3451 C 316.246 0.647392 1.75116 0
M  V30 3452 C 316.597 -0.837274 1.77438 0
M  V30 3453 O 315.722 -1.65525 1.39393 0
M  V30 3454 C 316.317 1.16845 3.18014 0
M  V30 3455 C 314.876 0.913382 3.6515 0
M  V30 3456 C 314.023 1.31265 2.44264 0
M  V30 3457 H 316.974 1.12968 1.11462 0
M  V30 3458 H 316.995 0.527606 3.76824 0
M  V30 3459 H 316.507 2.24902 3.16292 0
M  V30 3460 H 314.608 -0.152316 3.72289 0
M  V30 3461 H 314.721 1.54845 4.53387 0
M  V30 3462 H 313.085 0.731028 2.43984 0
M  V30 3463 H 313.868 2.40239 2.45234 0
M  V30 3464 N 316.313 -1.40141 0.720998 0
M  V30 3465 C 317.724 -1.83678 0.334553 0
M  V30 3466 C 318.075 -1.6027 -1.13173 0
M  V30 3467 O 317.2 -1.08643 -1.87152 0
M  V30 3468 C 317.795 -3.33437 0.600437 0
M  V30 3469 C 316.354 -3.75447 0.267642 0
M  V30 3470 C 315.501 -2.63296 0.870097 0
M  V30 3471 H 318.452 -1.29331 0.919732 0
M  V30 3472 H 318.473 -3.80269 -0.132517 0
M  V30 3473 H 317.985 -3.50442 1.66768 0
M  V30 3474 H 316.086 -3.64035 -0.794329 0
M  V30 3475 H 316.199 -4.73344 0.74042 0
M  V30 3476 H 314.563 -2.52954 0.297739 0
M  V30 3477 H 315.346 -2.83112 1.94172 0
M  V30 3478 N 317.792 -0.46758 -1.50504 0
M  V30 3479 C 319.039 0.0886219 -2.02306 0
M  V30 3480 C 319.367 1.40037 -1.34981 0
M  V30 3481 O 318.622 1.90136 -0.463318 0
M  V30 3482 C 318.921 0.323995 -3.55928 0
M  V30 3483 C 318.587 -0.905618 -4.41712 0
M  V30 3484 C 317.249 -1.24275 -4.64875 0
M  V30 3485 C 319.601 -1.72448 -4.91845 0
M  V30 3486 C 316.929 -2.39888 -5.35417 0
M  V30 3487 C 319.281 -2.87185 -5.63656 0
M  V30 3488 C 317.945 -3.21317 -5.85074 0
M  V30 3489 H 317.215 0.0324291 -0.74029 0
M  V30 3490 H 319.862 -0.620945 -1.81153 0
M  V30 3491 H 318.167 1.11577 -3.75577 0
M  V30 3492 H 319.864 0.76826 -3.93572 0
M  V30 3493 H 316.454 -0.632956 -4.239 0
M  V30 3494 H 320.638 -1.4772 -4.73806 0
M  V30 3495 H 315.894 -2.66611 -5.50208 0
M  V30 3496 H 320.068 -3.50985 -6.01484 0
M  V30 3497 H 317.695 -4.1101 -6.39511 0
M  V30 3498 N 319.27 1.56325 -0.20005 0
M  V30 3499 C 320.498 2.02105 0.442874 0
M  V30 3500 C 320.913 1.08014 1.5485 0
M  V30 3501 O 320.27 0.0858797 1.82298 0
M  V30 3502 C 320.321 3.47549 0.994583 0
M  V30 3503 O 320.042 4.38049 -0.0669322 0
M  V30 3504 C 321.543 4.0887 1.7129 0
M  V30 3505 H 318.763 0.661807 0.110691 0
M  V30 3506 H 321.307 2.02134 -0.310207 0
M  V30 3507 H 319.462 3.48204 1.69803 0
M  V30 3508 H 319.876 5.23368 0.344462 0
M  V30 3509 H 321.35 5.12475 2.05118 0
M  V30 3510 H 321.827 3.52615 2.61838 0
M  V30 3511 H 322.433 4.12002 1.05518 0
M  V30 3512 N 320.748 -0.0735177 1.57428 0
M  V30 3513 C 321.711 -1.07192 2.02589 0
M  V30 3514 C 322.711 -1.31695 0.922661 0
M  V30 3515 O 323.901 -1.27445 1.18758 0
M  V30 3516 C 321.033 -2.41599 2.40506 0
M  V30 3517 H 322.226 -0.682727 2.92025 0
M  V30 3518 H 319.779 -0.319193 1.53006 0
M  V30 3519 H 320.514 -2.85354 1.5409 0
M  V30 3520 H 320.299 -2.25156 3.21009 0
M  V30 3521 H 321.789 -3.13367 2.76027 0
M  V30 3522 N 322.226 -1.5378 -0.344866 0
M  V30 3523 C 323.473 -1.70963 -1.08526 0
M  V30 3524 C 323.801 -0.472126 -1.88683 0
M  V30 3525 O 323.056 0.546116 -1.87926 0
M  V30 3526 C 323.355 -2.92407 -2.05506 0
M  V30 3527 C 323.021 -4.28066 -1.41671 0
M  V30 3528 C 321.683 -4.64951 -1.2399 0
M  V30 3529 C 324.035 -5.12344 -0.956726 0
M  V30 3530 C 321.363 -5.83733 -0.589277 0
M  V30 3531 C 323.715 -6.3179 -0.320015 0
M  V30 3532 C 322.379 -6.67372 -0.130881 0
M  V30 3533 H 321.649 -0.625598 -0.397124 0
M  V30 3534 H 324.296 -1.87995 -0.36469 0
M  V30 3535 H 322.601 -2.69973 -2.8394 0
M  V30 3536 H 324.298 -3.02895 -2.62784 0
M  V30 3537 H 320.888 -3.99034 -1.56429 0
M  V30 3538 H 325.072 -4.8438 -1.08118 0
M  V30 3539 H 320.328 -6.09877 -0.431344 0
M  V30 3540 H 324.502 -6.96386 0.0445072 0
M  V30 3541 H 322.129 -7.59273 0.375318 0
M  V30 3542 N 323.704 0.605807 -1.45491 0
M  V30 3543 C 324.929 1.39625 -1.53361 0
M  V30 3544 C 325.354 1.87351 -0.167645 0
M  V30 3545 O 324.712 1.60243 0.848051 0
M  V30 3546 C 324.76 2.57559 -2.5238 0
M  V30 3547 O 323.864 3.58248 -2.04285 0
M  V30 3548 H 323.205 0.416771 -0.516912 0
M  V30 3549 H 325.735 0.737103 -1.90861 0
M  V30 3550 H 325.745 3.0478 -2.71244 0
M  V30 3551 H 324.42 2.22171 -3.51586 0
M  V30 3552 H 322.997 3.17664 -1.95305 0
M  V30 3553 N 325.182 1.32811 0.848464 0
M  V30 3554 C 326.114 1.18095 1.96433 0
M  V30 3555 C 327.127 0.114354 1.62398 0
M  V30 3556 O 328.316 0.363892 1.74751 0
M  V30 3557 C 325.416 0.786798 3.2964 0
M  V30 3558 C 324.589 1.943 3.91875 0
M  V30 3559 C 323.648 1.53138 5.03423 0
M  V30 3560 O 322.674 2.24432 5.23086 0
M  V30 3561 N 323.876 0.430915 5.78898 0
M  V30 3562 H 326.641 2.14218 2.09597 0
M  V30 3563 H 324.202 1.2543 1.02367 0
M  V30 3564 H 326.194 0.493715 4.01677 0
M  V30 3565 H 324.764 -0.0834541 3.12489 0
M  V30 3566 H 323.984 2.40224 3.12547 0
M  V30 3567 H 325.272 2.71689 4.30189 0
M  V30 3568 H 324.67 -0.162333 5.65467 0
M  V30 3569 H 323.227 0.197466 6.51501 0
M  V30 3570 N 326.66 -1.06551 1.16123 0
M  V30 3571 C 327.607 -2.13961 0.865414 0
M  V30 3572 C 328.577 -1.65066 -0.185055 0
M  V30 3573 O 329.762 -1.90732 -0.05083 0
M  V30 3574 C 326.902 -3.43113 0.369776 0
M  V30 3575 C 326.015 -4.05756 1.48276 0
M  V30 3576 C 325.15 -5.22773 0.942414 0
M  V30 3577 C 324.189 -5.77395 2.03179 0
M  V30 3578 N 323.326 -6.85731 1.50721 0
M  V30 3579 H 328.166 -2.38605 1.78527 0
M  V30 3580 H 325.703 -1.17072 0.890646 0
M  V30 3581 H 327.661 -4.17151 0.0640643 0
M  V30 3582 H 326.291 -3.18695 -0.513143 0
M  V30 3583 H 325.343 -3.29292 1.9045 0
M  V30 3584 H 326.655 -4.42351 2.30493 0
M  V30 3585 H 325.809 -6.03827 0.589729 0
M  V30 3586 H 324.548 -4.87618 0.0895191 0
M  V30 3587 H 323.553 -4.94981 2.3932 0
M  V30 3588 H 324.778 -6.14603 2.8886 0
M  V30 3589 H 322.724 -6.52499 0.676811 0
M  V30 3590 H 322.641 -7.21254 2.26557 0
M  V30 3591 H 323.909 -7.7047 1.18303 0
M  V30 3592 N 328.138 -0.959301 -1.25041 0
M  V30 3593 C 329.048 -0.489994 -2.29426 0
M  V30 3594 C 330.064 0.444944 -1.68215 0
M  V30 3595 O 331.24 0.320046 -1.98841 0
M  V30 3596 C 328.305 0.220309 -3.45999 0
M  V30 3597 C 327.366 -0.753418 -4.22637 0
M  V30 3598 C 326.599 -0.076918 -5.33645 0
M  V30 3599 O 326.822 1.13649 -5.58963 0
M  V30 3600 O 325.756 -0.764824 -5.97021 0
M  V30 3601 H 329.582 -1.35755 -2.71669 0
M  V30 3602 H 327.167 -0.725961 -1.30576 0
M  V30 3603 H 329.049 0.619677 -4.16819 0
M  V30 3604 H 327.724 1.06296 -3.0575 0
M  V30 3605 H 326.631 -1.20308 -3.54227 0
M  V30 3606 H 327.964 -1.56423 -4.66683 0
M  V30 3607 N 329.616 1.39756 -0.72842 0
M  V30 3608 C 330.546 2.33289 -0.0991354 0
M  V30 3609 C 331.527 1.53568 0.731489 0
M  V30 3610 O 332.712 1.81987 0.677807 0
M  V30 3611 C 329.842 3.3763 0.813834 0
M  V30 3612 C 328.796 4.2791 0.0878663 0
M  V30 3613 C 328.122 5.22894 1.11741 0
M  V30 3614 C 329.422 5.11314 -1.06563 0
M  V30 3615 H 331.116 2.86163 -0.880408 0
M  V30 3616 H 328.662 1.37591 -0.424819 0
M  V30 3617 H 330.615 4.0201 1.26355 0
M  V30 3618 H 329.339 2.83181 1.62715 0
M  V30 3619 H 327.998 3.65 -0.342159 0
M  V30 3620 H 327.646 4.64744 1.92412 0
M  V30 3621 H 327.346 5.84143 0.636477 0
M  V30 3622 H 328.87 5.90151 1.56697 0
M  V30 3623 H 330.284 5.69076 -0.694671 0
M  V30 3624 H 328.681 5.81671 -1.47577 0
M  V30 3625 H 329.751 4.46534 -1.89038 0
M  V30 3626 N 331.094 0.475555 1.50254 0
M  V30 3627 C 332.057 -0.305016 2.27161 0
M  V30 3628 C 333.057 -0.916519 1.32123 0
M  V30 3629 O 334.247 -0.785003 1.5551 0
M  V30 3630 C 331.379 -1.43496 3.09227 0
M  V30 3631 H 332.572 0.369511 2.97615 0
M  V30 3632 H 330.125 0.229747 1.54602 0
M  V30 3633 H 330.86 -2.14441 2.43281 0
M  V30 3634 H 330.645 -1.00223 3.79075 0
M  V30 3635 H 332.135 -1.98548 3.67381 0
M  V30 3636 N 332.573 -1.56217 0.208337 0
M  V30 3637 C 333.821 -1.97558 -0.426076 0
M  V30 3638 C 334.142 -1.09683 -1.61229 0
M  V30 3639 O 333.412 -0.170956 -1.95153 0
M  V30 3640 H 331.992 -0.729575 -0.160405 0
M  V30 3641 H 334.654 -1.92606 0.298155 0
M  V30 3642 H 333.75 -3.02672 -0.761312 0
M  V30 3643 N 334.051 0.0651679 -1.57465 0
M  V30 3644 C 334.998 1.07675 -2.04144 0
M  V30 3645 C 335.968 1.38071 -0.923335 0
M  V30 3646 O 337.153 1.49026 -1.19146 0
M  V30 3647 C 334.293 2.38337 -2.49579 0
M  V30 3648 C 333.406 2.14413 -3.75035 0
M  V30 3649 C 332.541 3.38686 -4.09225 0
M  V30 3650 C 331.58 3.10156 -5.27702 0
M  V30 3651 N 330.717 4.26778 -5.57499 0
M  V30 3652 H 335.557 0.671716 -2.90331 0
M  V30 3653 H 333.094 0.3201 -1.43575 0
M  V30 3654 H 335.052 3.14632 -2.73975 0
M  V30 3655 H 333.682 2.7663 -1.6636 0
M  V30 3656 H 332.734 1.2878 -3.57939 0
M  V30 3657 H 334.046 1.89344 -4.61466 0
M  V30 3658 H 333.2 4.23373 -4.34558 0
M  V30 3659 H 331.939 3.66837 -3.21374 0
M  V30 3660 H 330.944 2.23866 -5.02159 0
M  V30 3661 H 332.169 2.8332 -6.17176 0
M  V30 3662 H 330.115 4.54948 -4.72608 0
M  V30 3663 H 330.032 4.05005 -6.38362 0
M  V30 3664 H 331.3 5.12443 -5.87386 0
M  V30 3665 N 335.529 1.53961 0.336706 0
M  V30 3666 C 336.778 1.70751 1.07363 0
M  V30 3667 C 337.091 0.481061 1.89592 0
M  V30 3668 O 338.297 0.530046 2.66276 0
M  V30 3669 C 336.753 3.01965 1.95818 0
M  V30 3670 C 336.361 4.31971 1.18764 0
M  V30 3671 C 338.105 3.28121 2.69327 0
M  V30 3672 C 336.012 5.54255 2.06289 0
M  V30 3673 H 334.942 0.636292 0.404535 0
M  V30 3674 H 337.593 1.80459 0.332681 0
M  V30 3675 H 335.975 2.86132 2.7376 0
M  V30 3676 H 337.149 4.5853 0.456849 0
M  V30 3677 H 335.464 4.12481 0.569946 0
M  V30 3678 H 338.061 4.16673 3.35094 0
M  V30 3679 H 338.404 2.45426 3.36261 0
M  V30 3680 H 338.937 3.44762 1.98454 0
M  V30 3681 H 335.676 6.39513 1.43885 0
M  V30 3682 H 335.196 5.31935 2.77138 0
M  V30 3683 H 336.875 5.90159 2.65182 0
M  V30 3684 N 337.007 -0.598083 1.45811 0
M  V30 3685 C 338.423 -0.919847 1.30426 0
M  V30 3686 C 338.623 -1.99759 0.264303 0
M  V30 3687 O 337.679 -2.50221 -0.338472 0
M  V30 3688 C 338.992 -1.35176 2.68603 0
M  V30 3689 C 340.54 -1.46546 2.76574 0
M  V30 3690 C 341.015 -1.9311 4.15298 0
M  V30 3691 N 342.506 -2.00328 4.1764 0
M  V30 3692 C 343.241 -2.37599 5.21856 0
M  V30 3693 N 342.737 -2.73771 6.36413 0
M  V30 3694 N 344.53 -2.38021 5.09218 0
M  V30 3695 H 336.681 0.114111 2.12093 0
M  V30 3696 H 338.944 -0.0116121 0.947929 0
M  V30 3697 H 338.65 -0.633969 3.45939 0
M  V30 3698 H 338.524 -2.3164 2.97696 0
M  V30 3699 H 340.911 -2.17415 1.99537 0
M  V30 3700 H 340.992 -0.483727 2.51185 0
M  V30 3701 H 340.636 -1.22824 4.92825 0
M  V30 3702 H 340.566 -2.92213 4.38086 0
M  V30 3703 H 343.057 -1.74925 3.34977 0
M  V30 3704 H 343.37 -3.0112 7.11721 0
M  V30 3705 H 341.715 -2.71445 6.39799 0
M  V30 3706 H 344.906 -2.09174 4.18765 0
M  V30 3707 H 345.079 -2.66741 5.90554 0
M  V30 3708 N 338.485 -1.33259 -0.841409 0
M  V30 3709 C 339.395 -1.25332 -1.98316 0
M  V30 3710 C 340.411 -0.164364 -1.73222 0
M  V30 3711 O 341.587 -0.387486 -1.97637 0
M  V30 3712 C 338.652 -0.990078 -3.32262 0
M  V30 3713 C 337.713 -2.16879 -3.70489 0
M  V30 3714 C 336.946 -1.91801 -4.98044 0
M  V30 3715 O 337.169 -0.867075 -5.63771 0
M  V30 3716 O 336.103 -2.78267 -5.33714 0
M  V30 3717 H 339.929 -2.21344 -2.07944 0
M  V30 3718 H 337.514 -1.1328 -0.974058 0
M  V30 3719 H 339.396 -0.860321 -4.12524 0
M  V30 3720 H 338.071 -0.0602155 -3.23644 0
M  V30 3721 H 336.978 -2.35407 -2.90748 0
M  V30 3722 H 338.311 -3.0819 -3.8377 0
M  V30 3723 N 339.963 1.05934 -1.16686 0
M  V30 3724 C 341.211 1.78447 -0.948744 0
M  V30 3725 C 341.532 1.87813 0.524523 0
M  V30 3726 O 340.802 1.38945 1.38098 0
M  V30 3727 H 339.382 0.660971 -0.348033 0
M  V30 3728 H 342.044 1.27947 -1.47022 0
M  V30 3729 H 341.14 2.80394 -1.37061 0
M  V30 3730 N 341.441 0.965919 1.2453 0
M  V30 3731 C 342.388 0.49402 2.25451 0
M  V30 3732 C 343.358 -0.45948 1.59618 0
M  V30 3733 O 344.543 -0.370238 1.87173 0
M  V30 3734 C 341.683 -0.211359 3.44452 0
M  V30 3735 C 340.796 0.7807 4.24887 0
M  V30 3736 C 339.931 0.0516105 5.31175 0
M  V30 3737 C 338.97 1.03385 6.03306 0
M  V30 3738 N 338.107 0.334887 7.01301 0
M  V30 3739 H 342.947 1.35946 2.65184 0
M  V30 3740 H 340.484 0.681515 1.3036 0
M  V30 3741 H 342.442 -0.637 4.12308 0
M  V30 3742 H 341.072 -1.04077 3.05562 0
M  V30 3743 H 340.124 1.32479 3.56586 0
M  V30 3744 H 341.436 1.52978 4.74762 0
M  V30 3745 H 340.59 -0.432114 6.05159 0
M  V30 3746 H 339.329 -0.730179 4.82203 0
M  V30 3747 H 338.334 1.52847 5.28127 0
M  V30 3748 H 339.559 1.81606 6.54367 0
M  V30 3749 H 337.505 -0.427959 6.54603 0
M  V30 3750 H 337.422 1.02287 7.49048 0
M  V30 3751 H 338.69 -0.126928 7.79397 0
M  V30 3752 N 342.919 -1.39368 0.735821 0
M  V30 3753 C 344.166 -2.00497 0.284123 0
M  V30 3754 C 344.494 -1.58387 -1.12889 0
M  V30 3755 O 343.749 -0.804359 -1.78406 0
M  V30 3756 C 344.048 -3.5583 0.334651 0
M  V30 3757 C 343.714 -4.17593 1.7008 0
M  V30 3758 C 342.376 -4.34176 2.07472 0
M  V30 3759 C 344.728 -4.51848 2.59775 0
M  V30 3760 C 342.056 -4.82304 3.34065 0
M  V30 3761 C 344.408 -5.01384 3.85741 0
M  V30 3762 C 343.072 -5.16175 4.23225 0
M  V30 3763 H 342.342 -0.73367 0.103968 0
M  V30 3764 H 344.989 -1.66683 0.942825 0
M  V30 3765 H 343.294 -3.89674 -0.407625 0
M  V30 3766 H 344.991 -4.00986 -0.0329927 0
M  V30 3767 H 341.581 -4.05087 1.40008 0
M  V30 3768 H 345.765 -4.38653 2.32157 0
M  V30 3769 H 341.021 -4.91941 3.63049 0
M  V30 3770 H 345.195 -5.26863 4.55399 0
M  V30 3771 H 342.822 -5.5323 5.21384 0
M  V30 3772 N 344.397 -0.483516 -1.5 0
M  V30 3773 C 345.813 -0.138404 -1.58999 0
M  V30 3774 C 346.013 1.35597 -1.4905 0
M  V30 3775 O 345.069 2.13039 -1.35539 0
M  V30 3776 C 346.382 -0.699658 -2.92447 0
M  V30 3777 C 347.93 -0.664195 -3.05872 0
M  V30 3778 C 348.405 -1.20321 -4.41913 0
M  V30 3779 N 349.896 -1.16315 -4.48358 0
M  V30 3780 C 350.631 -1.55058 -5.52037 0
M  V30 3781 N 350.127 -2.01311 -6.62907 0
M  V30 3782 N 351.92 -1.46584 -5.42651 0
M  V30 3783 H 344.071 -1.45529 -1.5471 0
M  V30 3784 H 346.334 -0.60258 -0.731848 0
M  V30 3785 H 346.04 -1.747 -3.05242 0
M  V30 3786 H 345.914 -0.150194 -3.76901 0
M  V30 3787 H 348.301 0.374272 -2.92717 0
M  V30 3788 H 348.382 -1.25061 -2.23144 0
M  V30 3789 H 348.026 -2.24037 -4.55818 0
M  V30 3790 H 347.956 -0.592896 -5.23252 0
M  V30 3791 H 350.447 -0.824058 -3.68806 0
M  V30 3792 H 350.76 -2.2899 -7.38095 0
M  V30 3793 H 349.105 -2.05273 -6.63994 0
M  V30 3794 H 352.296 -1.10281 -4.54924 0
M  V30 3795 H 352.469 -1.77103 -6.23329 0
M  V30 3796 N 345.875 1.56104 -0.216619 0
M  V30 3797 C 347.291 1.58995 0.13886 0
M  V30 3798 C 347.491 1.23333 1.59346 0
M  V30 3799 O 346.547 0.966234 2.33281 0
M  V30 3800 C 347.86 3.00143 -0.182968 0
M  V30 3801 C 349.408 3.12751 -0.124807 0
M  V30 3802 C 349.883 4.56068 -0.420241 0
M  V30 3803 N 351.374 4.61723 -0.369634 0
M  V30 3804 C 352.109 5.70542 -0.571789 0
M  V30 3805 N 351.605 6.87744 -0.835453 0
M  V30 3806 N 353.398 5.59831 -0.504563 0
M  V30 3807 H 345.549 1.77562 -1.16557 0
M  V30 3808 H 347.812 0.825091 -0.466828 0
M  V30 3809 H 347.518 3.30871 -1.19237 0
M  V30 3810 H 347.392 3.73813 0.504367 0
M  V30 3811 H 349.779 2.81822 0.875223 0
M  V30 3812 H 349.86 2.41421 -0.845544 0
M  V30 3813 H 349.504 4.87713 -1.41769 0
M  V30 3814 H 349.434 5.25617 0.321631 0
M  V30 3815 H 351.925 3.77502 -0.173338 0
M  V30 3816 H 352.238 7.66587 -0.977938 0
M  V30 3817 H 350.583 6.895 -0.872592 0
M  V30 3818 H 353.774 4.67145 -0.298842 0
M  V30 3819 H 353.947 6.44573 -0.665519 0
M  V30 3820 N 347.353 -0.0568162 1.57498 0
M  V30 3821 C 348.602 -0.752001 1.87157 0
M  V30 3822 C 348.915 -1.77978 0.811375 0
M  V30 3823 O 350.121 -2.52559 0.996293 0
M  V30 3824 C 348.577 -1.38844 3.3204 0
M  V30 3825 C 348.185 -0.398456 4.46225 0
M  V30 3826 C 349.929 -2.06512 3.70882 0
M  V30 3827 C 347.836 -1.04166 5.82154 0
M  V30 3828 H 346.766 -0.28461 0.698222 0
M  V30 3829 H 349.417 -0.00561272 1.83499 0
M  V30 3830 H 347.799 -2.1836 3.30356 0
M  V30 3831 H 348.973 0.367977 4.59328 0
M  V30 3832 H 347.288 0.174592 4.16034 0
M  V30 3833 H 349.885 -2.55437 4.6974 0
M  V30 3834 H 350.228 -2.87117 3.01445 0
M  V30 3835 H 350.761 -1.33808 3.7462 0
M  V30 3836 H 347.5 -0.275614 6.5492 0
M  V30 3837 H 347.02 -1.7786 5.72823 0
M  V30 3838 H 348.699 -1.55715 6.27982 0
M  V30 3839 N 348.832 -1.54138 -0.328536 0
M  V30 3840 C 350.243 -1.63395 -0.903272 0
M  V30 3841 C 350.594 -0.524828 -1.8905 0
M  V30 3842 O 349.719 0.343068 -2.13663 0
M  V30 3843 C 350.314 -2.9618 -1.64507 0
M  V30 3844 C 348.873 -3.0765 -2.1686 0
M  V30 3845 C 348.02 -2.58933 -0.992416 0
M  V30 3846 H 350.971 -1.58344 -0.106253 0
M  V30 3847 H 350.992 -2.86061 -2.50897 0
M  V30 3848 H 350.504 -3.76884 -0.926302 0
M  V30 3849 H 348.605 -2.31611 -2.91868 0
M  V30 3850 H 348.718 -4.1337 -2.42202 0
M  V30 3851 H 347.082 -2.14706 -1.37016 0
M  V30 3852 H 347.865 -3.42089 -0.288041 0
M  V30 3853 N 350.31 0.590341 -1.46126 0
M  V30 3854 C 351.54 1.37304 -1.54373 0
M  V30 3855 C 351.948 1.88332 -0.181071 0
M  V30 3856 O 351.291 1.63852 0.830559 0
M  V30 3857 C 351.353 2.6012 -2.48149 0
M  V30 3858 C 351.017 2.30613 -3.94546 0
M  V30 3859 C 352.014 1.89915 -4.83971 0
M  V30 3860 C 349.699 2.42993 -4.39613 0
M  V30 3861 C 351.693 1.61981 -6.16475 0
M  V30 3862 C 349.38 2.14672 -5.72153 0
M  V30 3863 C 350.378 1.7423 -6.60404 0
M  V30 3864 O 350.066 1.46251 -7.90485 0
M  V30 3865 H 349.798 0.426086 -0.524811 0
M  V30 3866 H 352.352 0.72539 -1.92165 0
M  V30 3867 H 350.582 3.27664 -2.05361 0
M  V30 3868 H 352.271 3.22182 -2.46887 0
M  V30 3869 H 353.037 1.79872 -4.50412 0
M  V30 3870 H 348.916 2.73435 -3.71153 0
M  V30 3871 H 352.46 1.30341 -6.85315 0
M  V30 3872 H 348.357 2.24337 -6.05263 0
M  V30 3873 H 349.125 1.6016 -8.02677 0
M  V30 3874 N 351.788 1.33704 0.83433 0
M  V30 3875 C 353.204 1.13137 1.12571 0
M  V30 3876 C 353.404 -0.0747261 2.01361 0
M  V30 3877 O 352.46 -0.753647 2.4099 0
M  V30 3878 C 353.773 2.42105 1.78342 0
M  V30 3879 C 355.321 2.48054 1.90888 0
M  V30 3880 C 355.796 3.76995 2.60075 0
M  V30 3881 N 357.287 3.78092 2.67584 0
M  V30 3882 C 358.022 4.74574 3.21818 0
M  V30 3883 N 357.518 5.81434 3.76705 0
M  V30 3884 N 359.311 4.62044 3.20112 0
M  V30 3885 H 351.462 2.11 0.243489 0
M  V30 3886 H 353.725 0.932532 0.17055 0
M  V30 3887 H 353.431 3.30391 1.20561 0
M  V30 3888 H 353.305 2.54594 2.7832 0
M  V30 3889 H 355.692 1.60215 2.47821 0
M  V30 3890 H 355.773 2.39502 0.898459 0
M  V30 3891 H 355.417 4.65219 2.03799 0
M  V30 3892 H 355.347 3.82825 3.61597 0
M  V30 3893 H 357.838 3.00865 2.28667 0
M  V30 3894 H 358.151 6.51084 4.16305 0
M  V30 3895 H 356.496 5.85163 3.7498 0
M  V30 3896 H 359.687 3.77716 2.76493 0
M  V30 3897 H 359.86 5.37406 3.62076 0
M  V30 3898 N 353.266 -1.05314 1.17247 0
M  V30 3899 C 354.496 -1.81707 0.983166 0
M  V30 3900 C 354.904 -1.83222 -0.471822 0
M  V30 3901 O 354.247 -1.25721 -1.3394 0
M  V30 3902 C 354.309 -3.29134 1.44606 0
M  V30 3903 C 353.973 -3.51304 2.92292 0
M  V30 3904 C 354.97 -3.4353 3.90235 0
M  V30 3905 C 352.655 -3.78306 3.30439 0
M  V30 3906 C 354.649 -3.62442 5.24323 0
M  V30 3907 C 352.336 -3.96866 4.64694 0
M  V30 3908 C 353.334 -3.88933 5.61445 0
M  V30 3909 O 353.022 -4.06976 6.93272 0
M  V30 3910 H 352.754 -0.579476 0.348114 0
M  V30 3911 H 355.308 -1.33705 1.55924 0
M  V30 3912 H 353.538 -3.78046 0.813537 0
M  V30 3913 H 355.227 -3.87049 1.22262 0
M  V30 3914 H 355.993 -3.22648 3.62109 0
M  V30 3915 H 351.872 -3.83585 2.55702 0
M  V30 3916 H 355.416 -3.56165 5.99827 0
M  V30 3917 H 351.313 -4.1724 4.92525 0
M  V30 3918 H 352.081 -4.24209 6.99992 0
M  V30 3919 N 354.744 -0.972509 -1.24016 0
M  V30 3920 C 355.969 -0.654417 -1.96805 0
M  V30 3921 C 356.394 0.770398 -1.716 0
M  V30 3922 O 355.752 1.52361 -0.982647 0
M  V30 3923 C 355.8 -0.941031 -3.48105 0
M  V30 3924 O 354.904 -0.0289472 -4.1239 0
M  V30 3925 H 354.245 -0.24692 -0.616382 0
M  V30 3926 H 356.775 -1.30396 -1.57664 0
M  V30 3927 H 356.785 -0.87452 -3.98517 0
M  V30 3928 H 355.46 -1.97939 -3.65777 0
M  V30 3929 H 354.037 -0.149192 -3.72601 0
M  V30 3930 N 356.222 1.38976 -0.743202 0
M  V30 3931 C 357.499 1.94351 -0.220705 0
M  V30 3932 C 357.879 1.67935 1.2791 0
M  V30 3933 O 357.227 1.01211 2.04862 0
M  V30 3934 C 357.437 3.44426 -0.563171 0
M  V30 3935 C 358.785 4.2144 -0.517046 0
M  V30 3936 O 359.809 3.52661 -0.500846 0
M  V30 3937 O 358.668 5.44032 -0.518806 0
M  V30 3938 H 355.762 0.825879 -0.043047 0
M  V30 3939 H 358.308 1.48429 -0.822618 0
M  V30 3940 H 357.08 3.5712 -1.59941 0
M  V30 3941 H 356.703 3.97543 0.0672883 0
M  V30 3942 N 357.7 0.491464 1.49741 0
M  V30 3943 C 358.61 -0.296835 2.32715 0
M  V30 3944 C 359.626 -0.976536 1.44013 0
M  V30 3945 O 360.802 -0.960023 1.77047 0
M  V30 3946 C 357.867 -1.35288 3.19215 0
M  V30 3947 C 356.928 -0.687632 4.23757 0
M  V30 3948 C 356.161 -1.69336 5.06123 0
M  V30 3949 O 356.384 -2.92219 4.89861 0
M  V30 3950 O 355.318 -1.25394 5.88693 0
M  V30 3951 H 359.144 0.382048 3.01287 0
M  V30 3952 H 356.729 0.252953 1.47243 0
M  V30 3953 H 358.611 -1.96411 3.72828 0
M  V30 3954 H 357.286 -2.01487 2.53347 0
M  V30 3955 H 356.193 -0.0369159 3.74082 0
M  V30 3956 H 357.526 -0.0682566 4.92153 0
M  V30 3957 N 359.178 -1.55987 0.224894 0
M  V30 3958 C 360.108 -2.23426 -0.678457 0
M  V30 3959 C 361.089 -1.20709 -1.19847 0
M  V30 3960 O 362.274 -1.49304 -1.24186 0
M  V30 3961 C 359.404 -2.91676 -1.88527 0
M  V30 3962 C 358.358 -4.00893 -1.49896 0
M  V30 3963 C 357.684 -4.56455 -2.78483 0
M  V30 3964 C 358.984 -5.17769 -0.686461 0
M  V30 3965 H 360.678 -2.99175 -0.116173 0
M  V30 3966 H 358.224 -1.43897 -0.054436 0
M  V30 3967 H 360.177 -3.37547 -2.5227 0
M  V30 3968 H 358.901 -2.1338 -2.47258 0
M  V30 3969 H 357.56 -3.55758 -0.884985 0
M  V30 3970 H 357.208 -3.74886 -3.35365 0
M  V30 3971 H 356.908 -5.30169 -2.53368 0
M  V30 3972 H 358.432 -5.05047 -3.43162 0
M  V30 3973 H 359.846 -5.60001 -1.22767 0
M  V30 3974 H 358.243 -5.97735 -0.532259 0
M  V30 3975 H 359.313 -4.83932 0.306196 0
M  V30 3976 N 360.656 0.0484629 -1.57525 0
M  V30 3977 C 361.604 1.07359 -2.06341 0
M  V30 3978 C 362.598 1.3865 -0.973269 0
M  V30 3979 O 363.804 1.37783 -1.15827 0
M  V30 3980 H 360.179 0.363662 -0.65822 0
M  V30 3981 H 362.15 0.635916 -2.91545 0
M  V30 3982 C 360.899 2.37198 -2.54229 0
M  V30 3983 H 360.222 2.13977 -3.37719 0
M  V30 3984 H 361.662 3.07319 -2.92115 0
M  V30 3985 C 360.121 3.04805 -1.43511 0
M  V30 3986 O 360.651 3.93848 -0.79034 0
M  V30 3987 N 358.857 2.65811 -1.17444 0
M  V30 3988 H 358.404 1.93488 -1.70059 0
M  V30 3989 H 358.362 3.11366 -0.435737 0
M  V30 3990 N 362.134 1.5431 0.320358 0
M  V30 3991 C 363.044 1.86946 1.41734 0
M  V30 3992 C 364.06 0.761689 1.56443 0
M  V30 3993 O 365.236 1.05629 1.71477 0
M  V30 3994 C 362.301 2.09293 2.76401 0
M  V30 3995 C 361.362 3.33082 2.70841 0
M  V30 3996 C 360.595 3.54353 3.99086 0
M  V30 3997 O 360.818 2.79002 4.97508 0
M  V30 3998 O 359.752 4.47838 4.0215 0
M  V30 3999 H 363.578 2.80232 1.17062 0
M  V30 4000 H 361.163 1.40255 0.514673 0
M  V30 4001 H 363.045 2.25303 3.56113 0
M  V30 4002 H 361.72 1.19194 3.00956 0
M  V30 4003 H 360.627 3.22454 1.89668 0
M  V30 4004 H 361.96 4.23249 2.5124 0
M  V30 4005 N 363.613 -0.582584 1.46437 0
M  V30 4006 C 364.862 -1.337 1.5102 0
M  V30 4007 C 365.175 -1.94891 0.166359 0
M  V30 4008 O 366.381 -2.71351 0.0899954 0
M  V30 4009 C 364.837 -2.42315 2.66104 0
M  V30 4010 C 364.445 -1.87427 4.06909 0
M  V30 4011 C 366.189 -3.19099 2.79958 0
M  V30 4012 C 364.096 -2.93672 5.13333 0
M  V30 4013 H 363.026 -0.502619 0.562041 0
M  V30 4014 H 365.677 -0.621701 1.72647 0
M  V30 4015 H 364.059 -3.16645 2.37807 0
M  V30 4016 H 365.233 -1.19639 4.44998 0
M  V30 4017 H 363.548 -1.2331 3.97723 0
M  V30 4018 H 366.145 -3.9839 3.56636 0
M  V30 4019 H 366.488 -3.71695 1.87479 0
M  V30 4020 H 367.021 -2.51875 3.07902 0
M  V30 4021 H 363.76 -2.45962 6.07604 0
M  V30 4022 H 363.28 -3.59948 4.79789 0
M  V30 4023 H 364.959 -3.5762 5.39182 0
M  V30 4024 N 365.091 -1.34144 -0.827227 0
M  V30 4025 C 366.34 -1.25602 -1.5782 0
M  V30 4026 C 366.653 0.173445 -1.94829 0
M  V30 4027 O 367.859 0.380984 -2.68814 0
M  V30 4028 C 366.315 -2.20151 -2.84713 0
M  V30 4029 C 365.923 -3.68331 -2.55021 0
M  V30 4030 C 367.667 -2.20508 -3.62735 0
M  V30 4031 C 365.574 -4.54762 -3.78082 0
M  V30 4032 H 364.504 -0.466573 -0.592306 0
M  V30 4033 H 367.155 -1.59283 -0.911116 0
M  V30 4034 H 365.537 -1.79417 -3.53023 0
M  V30 4035 H 366.711 -4.17577 -1.94849 0
M  V30 4036 H 365.026 -3.7038 -1.90283 0
M  V30 4037 H 367.623 -2.82306 -4.54101 0
M  V30 4038 H 367.966 -1.20322 -3.98533 0
M  V30 4039 H 368.499 -2.59664 -3.01362 0
M  V30 4040 H 365.238 -5.55867 -3.47407 0
M  V30 4041 H 364.758 -4.10254 -4.37552 0
M  V30 4042 H 366.437 -4.69153 -4.45538 0
M  V30 4043 N 366.569 1.04691 -1.17803 0
M  V30 4044 C 367.797 1.81446 -0.99423 0
M  V30 4045 C 368.212 1.83174 0.457459 0
M  V30 4046 O 367.569 1.26265 1.31771 0
M  V30 4047 C 367.62 3.27334 -1.5341 0
M  V30 4048 O 367.341 3.25798 -2.92895 0
M  V30 4049 C 368.842 4.20759 -1.39559 0
M  V30 4050 H 366.062 0.571599 -0.351447 0
M  V30 4051 H 368.606 1.31982 -1.56208 0
M  V30 4052 H 366.761 3.74052 -1.00815 0
M  V30 4053 H 367.175 4.17144 -3.17949 0
M  V30 4054 H 368.649 5.21084 -1.82141 0
M  V30 4055 H 369.126 4.37856 -0.343394 0
M  V30 4056 H 369.732 3.79901 -1.91195 0
M  V30 4057 N 368.047 0.979072 1.23499 0
M  V30 4058 C 369.463 0.687475 1.44034 0
M  V30 4059 C 369.663 -0.746801 1.8715 0
M  V30 4060 O 368.719 -1.51939 2.0167 0
M  V30 4061 C 370.032 1.68127 2.49307 0
M  V30 4062 C 371.58 1.69516 2.63122 0
M  V30 4063 C 372.055 2.67723 3.71603 0
M  V30 4064 N 373.546 2.66233 3.79044 0
M  V30 4065 C 374.281 3.38891 4.62537 0
M  V30 4066 N 373.777 4.21103 5.50131 0
M  V30 4067 N 375.57 3.27661 4.56721 0
M  V30 4068 H 367.721 1.90559 0.938135 0
M  V30 4069 H 369.984 0.821051 0.473897 0
M  V30 4070 H 369.69 2.70693 2.2454 0
M  V30 4071 H 369.564 1.46306 3.4767 0
M  V30 4072 H 371.951 0.676561 2.8724 0
M  V30 4073 H 372.032 1.95404 1.65079 0
M  V30 4074 H 371.676 3.69724 3.48233 0
M  V30 4075 H 371.606 2.39111 4.69184 0
M  V30 4076 H 374.097 2.06568 3.16446 0
M  V30 4077 H 374.41 4.73403 6.10827 0
M  V30 4078 H 372.755 4.25195 5.49759 0
M  V30 4079 H 375.946 2.62887 3.87309 0
M  V30 4080 H 376.119 3.84547 5.21562 0
M  V30 4081 N 369.525 -1.3858 0.750561 0
M  V30 4082 C 370.458 -2.28095 0.0693139 0
M  V30 4083 C 371.436 -1.45217 -0.731491 0
M  V30 4084 O 372.62 -1.74587 -0.71076 0
M  V30 4085 C 369.747 -3.26282 -0.90871 0
M  V30 4086 C 368.793 -4.26056 -0.194507 0
M  V30 4087 S 369.626 -5.24026 1.10257 0
M  V30 4088 C 370.782 -6.2577 0.127542 0
M  V30 4089 H 371.015 -2.85526 0.8284 0
M  V30 4090 H 368.548 -1.44536 0.543014 0
M  V30 4091 H 370.506 -3.83367 -1.46766 0
M  V30 4092 H 369.167 -2.6784 -1.64075 0
M  V30 4093 H 368.36 -4.95249 -0.93512 0
M  V30 4094 H 367.962 -3.72852 0.292837 0
M  V30 4095 H 370.254 -6.73796 -0.707516 0
M  V30 4096 H 371.197 -7.03712 0.787044 0
M  V30 4097 H 371.605 -5.63938 -0.251803 0
M  V30 4098 N 371.003 -0.499398 -1.49478 0
M  V30 4099 C 371.933 0.269244 -2.31943 0
M  V30 4100 C 372.914 0.964054 -1.40143 0
M  V30 4101 O 374.099 0.955767 -1.69052 0
M  V30 4102 C 371.229 1.33504 -3.20615 0
M  V30 4103 C 370.183 0.760202 -4.21195 0
M  V30 4104 C 369.509 1.9264 -4.98792 0
M  V30 4105 C 370.809 -0.247661 -5.21712 0
M  V30 4106 H 372.503 -0.419082 -2.96452 0
M  V30 4107 H 370.049 -0.202988 -1.42562 0
M  V30 4108 H 372.002 1.88048 -3.77115 0
M  V30 4109 H 370.726 2.05253 -2.54045 0
M  V30 4110 H 369.385 0.23653 -3.65836 0
M  V30 4111 H 369.033 2.63154 -4.28671 0
M  V30 4112 H 368.733 1.54785 -5.66847 0
M  V30 4113 H 370.257 2.4762 -5.58137 0
M  V30 4114 H 371.671 0.209579 -5.72917 0
M  V30 4115 H 370.068 -0.541962 -5.97648 0
M  V30 4116 H 371.138 -1.16409 -4.7072 0
M  V30 4117 N 372.481 1.55866 -0.233164 0
M  V30 4118 C 373.429 2.22176 0.68851 0
M  V30 4119 C 374.423 1.20487 1.19076 0
M  V30 4120 O 375.629 1.38536 1.14925 0
M  V30 4121 H 372.004 0.712511 0.240483 0
M  V30 4122 H 373.975 2.98212 0.105935 0
M  V30 4123 C 372.724 2.92446 1.88071 0
M  V30 4124 H 372.047 3.70458 1.50337 0
M  V30 4125 H 373.487 3.42226 2.50314 0
M  V30 4126 C 371.946 1.95555 2.74335 0
M  V30 4127 O 372.476 1.47986 3.73447 0
M  V30 4128 N 370.682 1.62953 2.40613 0
M  V30 4129 H 370.229 2.01831 1.60069 0
M  V30 4130 H 370.187 0.983886 2.98609 0
M  V30 4131 N 373.959 -0.0401083 1.57549 0
M  V30 4132 C 374.889 -1.04384 2.08869 0
M  V30 4133 C 375.87 -1.38407 0.988817 0
M  V30 4134 O 377.055 -1.47483 1.26342 0
M  V30 4135 C 374.185 -2.34808 2.55895 0
M  V30 4136 C 373.139 -2.15057 3.70047 0
M  V30 4137 C 372.465 -3.51145 4.03239 0
M  V30 4138 C 373.765 -1.54576 4.98902 0
M  V30 4139 H 375.459 -0.616666 2.92981 0
M  V30 4140 H 373.005 -0.295184 1.40942 0
M  V30 4141 H 374.958 -3.05346 2.90417 0
M  V30 4142 H 373.682 -2.79565 1.68853 0
M  V30 4143 H 372.341 -1.46954 3.35857 0
M  V30 4144 H 371.989 -3.93529 3.13279 0
M  V30 4145 H 371.689 -3.38758 4.80122 0
M  V30 4146 H 373.213 -4.23062 4.40285 0
M  V30 4147 H 374.627 -2.15017 5.31451 0
M  V30 4148 H 373.024 -1.52796 5.80322 0
M  V30 4149 H 374.094 -0.51039 4.82206 0
M  V30 4150 N 375.437 -1.54477 -0.31217 0
M  V30 4151 C 376.384 -1.84655 -1.38461 0
M  V30 4152 C 377.354 -0.694536 -1.50882 0
M  V30 4153 O 378.539 -0.942081 -1.6592 0
M  V30 4154 C 375.679 -2.0896 -2.74645 0
M  V30 4155 C 374.792 -3.36618 -2.70763 0
M  V30 4156 C 373.927 -3.50824 -3.98868 0
M  V30 4157 C 372.966 -4.72315 -3.89339 0
M  V30 4158 N 372.103 -4.83387 -5.09197 0
M  V30 4159 H 376.943 -2.76142 -1.12026 0
M  V30 4160 H 374.48 -1.36748 -0.542065 0
M  V30 4161 H 376.438 -2.21045 -3.53829 0
M  V30 4162 H 375.068 -1.20752 -2.99364 0
M  V30 4163 H 374.12 -3.33211 -1.83506 0
M  V30 4164 H 375.432 -4.25917 -2.59608 0
M  V30 4165 H 374.586 -3.62513 -4.86486 0
M  V30 4166 H 373.325 -2.59638 -4.12843 0
M  V30 4167 H 372.33 -4.6067 -3.00105 0
M  V30 4168 H 373.555 -5.64897 -3.76919 0
M  V30 4169 H 371.501 -3.9512 -5.23657 0
M  V30 4170 H 371.418 -5.66669 -5.00422 0
M  V30 4171 H 372.686 -4.9942 -5.98498 0
M  V30 4172 N 376.915 0.57481 -1.46744 0
M  V30 4173 C 378.192 1.3352 -1.4294 0
M  V30 4174 C 378.572 2.10775 -0.117009 0
M  V30 4175 O 377.92 2.09966 0.901474 0
M  V30 4176 C 378.13 2.25456 -2.66403 0
M  V30 4177 C 379.478 2.87035 -3.12883 0
M  V30 4178 O 380.502 2.35766 -2.67007 0
M  V30 4179 O 379.361 3.80179 -3.92589 0
M  V30 4180 H 376.455 0.600318 -0.568812 0
M  V30 4181 H 379.001 0.595171 -1.58921 0
M  V30 4182 H 377.773 1.67851 -3.53471 0
M  V30 4183 H 377.396 3.06785 -2.52921 0
M  V30 4184 N 378.394 1.34581 0.820102 0
M  V30 4185 C 379.624 1.29991 1.6058 0
M  V30 4186 C 380.032 -0.127588 1.88769 0
M  V30 4187 O 379.375 -1.08595 1.48165 0
M  V30 4188 C 379.437 2.02548 2.9701 0
M  V30 4189 C 379.101 3.51794 2.91701 0
M  V30 4190 C 380.098 4.46647 2.66087 0
M  V30 4191 C 377.783 3.94249 3.11245 0
M  V30 4192 C 379.777 5.81929 2.60071 0
M  V30 4193 C 377.464 5.2963 3.04853 0
M  V30 4194 C 378.462 6.23282 2.793 0
M  V30 4195 O 378.15 7.56181 2.72847 0
M  V30 4196 H 377.882 0.448539 0.505756 0
M  V30 4197 H 380.436 1.77811 1.02822 0
M  V30 4198 H 378.666 1.49345 3.56697 0
M  V30 4199 H 380.355 1.91211 3.58041 0
M  V30 4200 H 381.121 4.15168 2.5072 0
M  V30 4201 H 377 3.21749 3.30149 0
M  V30 4202 H 380.544 6.54999 2.40046 0
M  V30 4203 H 376.441 5.60727 3.19774 0
M  V30 4204 H 377.209 7.6595 2.88553 0
M  V30 4205 N 379.872 -1.04064 1.18357 0
M  V30 4206 C 380.822 -2.10393 0.878561 0
M  V30 4207 C 381.806 -1.60183 -0.151713 0
M  V30 4208 O 382.998 -1.76923 0.0523303 0
M  V30 4209 C 380.127 -3.4089 0.406096 0
M  V30 4210 C 379.213 -3.97866 1.46844 0
M  V30 4211 N 379.604 -4.28657 2.68489 0
M  V30 4212 C 377.902 -4.2574 1.32896 0
M  V30 4213 C 378.603 -4.74253 3.36836 0
M  V30 4214 N 377.579 -4.75068 2.64219 0
M  V30 4215 H 381.381 -2.32076 1.80327 0
M  V30 4216 H 378.895 -1.21818 1.07397 0
M  V30 4217 H 380.892 -4.16557 0.169088 0
M  V30 4218 H 379.552 -3.20633 -0.512275 0
M  V30 4219 H 380.563 -4.18304 3.05356 0
M  V30 4220 H 377.24 -4.1481 0.473134 0
M  V30 4221 H 378.63 -5.07096 4.40798 0
M  V30 4222 N 381.35 -0.985608 -1.22978 0
M  V30 4223 C 382.766 -0.695104 -1.43668 0
M  V30 4224 C 382.966 0.736866 -1.87543 0
M  V30 4225 O 382.022 1.50868 -2.02473 0
M  V30 4226 C 383.335 -1.69447 -2.48412 0
M  V30 4227 C 384.883 -1.70909 -2.62219 0
M  V30 4228 C 385.358 -2.6969 -3.70178 0
M  V30 4229 N 386.849 -2.6824 -3.77626 0
M  V30 4230 C 387.584 -3.41339 -4.60733 0
M  V30 4231 N 387.08 -4.24015 -5.4789 0
M  V30 4232 N 388.873 -3.30079 -4.54977 0
M  V30 4233 H 381.024 -1.91054 -0.928016 0
M  V30 4234 H 383.287 -0.823553 -0.469536 0
M  V30 4235 H 382.993 -2.7188 -2.23102 0
M  V30 4236 H 382.867 -1.48147 -3.46889 0
M  V30 4237 H 385.254 -0.691785 -2.86877 0
M  V30 4238 H 385.335 -1.96276 -1.6404 0
M  V30 4239 H 384.979 -3.71566 -3.46268 0
M  V30 4240 H 384.909 -2.41595 -4.67909 0
M  V30 4241 H 387.4 -2.08243 -3.15346 0
M  V30 4242 H 387.713 -4.76636 -6.08308 0
M  V30 4243 H 386.058 -4.28104 -5.47496 0
M  V30 4244 H 389.249 -2.64937 -3.85909 0
M  V30 4245 H 389.422 -3.87308 -5.19516 0
M  V30 4246 N 382.828 1.3818 -0.7579 0
M  V30 4247 C 384.239 1.82726 -0.383134 0
M  V30 4248 C 384.59 1.63214 1.08884 0
M  V30 4249 O 383.715 1.13566 1.84205 0
M  V30 4250 C 384.31 3.31728 -0.688631 0
M  V30 4251 C 382.869 3.74606 -0.367091 0
M  V30 4252 C 382.016 2.60896 -0.939599 0
M  V30 4253 H 384.967 1.26847 -0.953699 0
M  V30 4254 H 384.988 3.80487 0.0316492 0
M  V30 4255 H 384.5 3.45898 -1.76001 0
M  V30 4256 H 382.601 3.66013 0.697532 0
M  V30 4257 H 382.714 4.71215 -0.865658 0
M  V30 4258 H 381.078 2.52075 -0.3647 0
M  V30 4259 H 381.861 2.77864 -2.0161 0
M  V30 4260 N 384.306 0.507319 1.49211 0
M  V30 4261 C 385.531 -0.033725 2.07373 0
M  V30 4262 C 385.956 -1.29485 1.36437 0
M  V30 4263 O 385.314 -1.76294 0.423087 0
M  V30 4264 C 385.362 -0.263945 3.59633 0
M  V30 4265 O 384.466 -1.33737 3.90113 0
M  V30 4266 H 383.807 0.0290331 0.663365 0
M  V30 4267 H 386.337 0.708749 1.91932 0
M  V30 4268 H 386.347 -0.493536 4.05004 0
M  V30 4269 H 385.022 0.657424 4.10671 0
M  V30 4270 H 383.599 -1.09224 3.56545 0
M  V30 4271 N 385.784 -1.5574 0.241426 0
M  V30 4272 C 387.03 -1.99104 -0.385406 0
M  V30 4273 C 387.363 -1.1293 -1.57988 0
M  V30 4274 O 386.638 -0.191449 -1.93555 0
M  V30 4275 C 386.921 -3.51087 -0.800616 0
M  V30 4276 C 386.774 -4.48028 0.398874 0
M  V30 4277 C 388.093 -4.08015 -1.64959 0
M  V30 4278 H 385.212 -0.723848 -0.138614 0
M  V30 4279 H 387.854 -1.86903 0.341642 0
M  V30 4280 H 386.004 -3.61615 -1.4201 0
M  V30 4281 H 387.676 -4.49487 1.03726 0
M  V30 4282 H 385.919 -4.21077 1.04293 0
M  V30 4283 H 386.59 -5.51962 0.0651056 0
M  V30 4284 H 389.066 -4.00555 -1.12672 0
M  V30 4285 H 387.942 -5.14635 -1.90898 0
M  V30 4286 H 388.203 -3.56131 -2.61961 0
M  V30 4287 N 387.262 0.0317525 -1.57568 0
M  V30 4288 C 388.172 1.05021 -2.0978 0
M  V30 4289 C 389.188 1.39809 -1.03583 0
M  V30 4290 O 390.364 1.49182 -1.35302 0
M  V30 4291 C 387.429 2.33301 -2.56459 0
M  V30 4292 C 386.49 2.0512 -3.77127 0
M  V30 4293 C 385.723 3.27283 -4.2157 0
M  V30 4294 O 385.946 4.37861 -3.65559 0
M  V30 4295 O 384.88 3.13141 -5.14029 0
M  V30 4296 H 388.706 0.636505 -2.96955 0
M  V30 4297 H 386.291 0.248559 -1.47318 0
M  V30 4298 H 388.173 3.08722 -2.86825 0
M  V30 4299 H 386.848 2.73973 -1.72397 0
M  V30 4300 H 385.755 1.27276 -3.51784 0
M  V30 4301 H 387.088 1.69305 -4.62165 0
M  V30 4302 N 388.74 1.54641 0.303973 0
M  V30 4303 C 389.65 1.88439 1.39743 0
M  V30 4304 C 390.666 0.778239 1.55626 0
M  V30 4305 O 391.842 1.07442 1.70347 0
M  V30 4306 C 388.907 2.12212 2.74166 0
M  V30 4307 C 387.968 3.35936 2.67293 0
M  V30 4308 C 387.201 3.58566 3.95305 0
M  V30 4309 O 387.424 2.84263 4.9452 0
M  V30 4310 O 386.358 4.52078 3.97378 0
M  V30 4311 H 390.184 2.81458 1.14083 0
M  V30 4312 H 387.769 1.40793 0.499768 0
M  V30 4313 H 389.651 2.29067 3.53704 0
M  V30 4314 H 388.326 1.22379 2.99675 0
M  V30 4315 H 387.233 3.24448 1.86237 0
M  V30 4316 H 388.566 4.2589 2.46736 0
M  V30 4317 N 390.218 -0.567019 1.47046 0
M  V30 4318 C 391.467 -1.32091 1.5243 0
M  V30 4319 C 391.78 -1.94704 0.187021 0
M  V30 4320 O 392.986 -2.7124 0.118771 0
M  V30 4321 C 391.442 -2.39479 2.68659 0
M  V30 4322 C 391.05 -1.831 4.08874 0
M  V30 4323 C 392.794 -3.16111 2.83327 0
M  V30 4324 C 390.701 -2.8821 5.16419 0
M  V30 4325 H 389.631 -0.496629 0.56734 0
M  V30 4326 H 392.282 -0.603354 1.73297 0
M  V30 4327 H 390.664 -3.14105 2.41152 0
M  V30 4328 H 391.838 -1.14913 4.46242 0
M  V30 4329 H 390.153 -1.19085 3.99008 0
M  V30 4330 H 392.75 -3.94585 3.60842 0
M  V30 4331 H 393.093 -3.69686 1.91411 0
M  V30 4332 H 393.626 -2.48595 3.10556 0
M  V30 4333 H 390.365 -2.39504 6.10179 0
M  V30 4334 H 389.885 -3.54839 4.8358 0
M  V30 4335 H 391.564 -3.51881 5.42945 0
M  V30 4336 N 391.696 -1.35014 -0.812953 0
M  V30 4337 C 392.626 -1.30069 -1.93919 0
M  V30 4338 C 393.607 -0.176275 -1.69184 0
M  V30 4339 O 394.792 -0.370227 -1.90638 0
M  V30 4340 C 391.922 -1.06547 -3.30552 0
M  V30 4341 C 390.876 -2.15561 -3.69753 0
M  V30 4342 C 390.202 -1.77214 -5.04479 0
M  V30 4343 C 391.502 -3.57476 -3.808 0
M  V30 4344 H 393.196 -2.24303 -1.98314 0
M  V30 4345 H 390.742 -1.07977 -0.952736 0
M  V30 4346 H 392.695 -1.01729 -4.08937 0
M  V30 4347 H 391.419 -0.0875719 -3.26483 0
M  V30 4348 H 390.078 -2.19466 -2.9365 0
M  V30 4349 H 389.726 -0.780589 -4.96906 0
M  V30 4350 H 389.426 -2.50184 -5.31678 0
M  V30 4351 H 390.95 -1.7391 -5.8531 0
M  V30 4352 H 392.364 -3.55929 -4.4943 0
M  V30 4353 H 390.761 -4.29152 -4.19462 0
M  V30 4354 H 391.831 -3.94091 -2.82525 0
M  V30 4355 N 393.175 1.03435 -1.18907 0
M  V30 4356 C 394.085 2.15075 -0.937015 0
M  V30 4357 C 395.101 1.73706 0.101085 0
M  V30 4358 O 396.277 2.01232 -0.0822948 0
M  V30 4359 C 393.342 3.43458 -0.473057 0
M  V30 4360 C 392.403 3.99172 -1.57989 0
M  V30 4361 C 391.636 5.21427 -1.13797 0
M  V30 4362 O 391.859 5.704 0.000725941 0
M  V30 4363 O 390.793 5.69837 -1.9383 0
M  V30 4364 H 394.619 2.39198 -1.87131 0
M  V30 4365 H 392.204 1.13506 -0.971427 0
M  V30 4366 H 394.086 4.20811 -0.222702 0
M  V30 4367 H 392.761 3.20793 0.432869 0
M  V30 4368 H 391.668 3.23178 -1.88433 0
M  V30 4369 H 393.001 4.2619 -2.46217 0
M  V30 4370 N 394.653 0.992116 1.22453 0
M  V30 4371 C 395.601 0.534644 2.26372 0
M  V30 4372 C 396.595 -0.414293 1.64256 0
M  V30 4373 O 397.801 -0.286899 1.77699 0
M  V30 4374 H 394.176 0.154502 0.735957 0
M  V30 4375 H 396.147 1.42256 2.62309 0
M  V30 4376 C 394.896 -0.135815 3.47435 0
M  V30 4377 H 394.219 0.585311 3.95492 0
M  V30 4378 H 395.659 -0.419374 4.21921 0
M  V30 4379 C 394.118 -1.37089 3.07747 0
M  V30 4380 O 394.648 -2.46629 3.17076 0
M  V30 4381 N 392.854 -1.24585 2.62539 0
M  V30 4382 H 392.401 -0.354542 2.55149 0
M  V30 4383 H 392.359 -2.07327 2.36353 0
M  V30 4384 N 396.131 -1.37776 0.765217 0
M  V30 4385 C 397.542 -1.82521 0.392819 0
M  V30 4386 C 397.893 -1.63789 -1.08017 0
M  V30 4387 O 397.018 -1.14542 -1.83601 0
M  V30 4388 C 397.613 -3.31358 0.706214 0
M  V30 4389 C 396.172 -3.74406 0.386952 0
M  V30 4390 C 395.319 -2.60394 0.953422 0
M  V30 4391 H 398.27 -1.2634 0.960412 0
M  V30 4392 H 398.291 -3.80498 -0.0114706 0
M  V30 4393 H 397.803 -3.44959 1.77833 0
M  V30 4394 H 395.904 -3.66377 -0.678112 0
M  V30 4395 H 396.017 -4.70749 0.890636 0
M  V30 4396 H 394.381 -2.51878 0.378064 0
M  V30 4397 H 395.164 -2.76791 2.03081 0
M  V30 4398 N 397.609 -0.515225 -1.4894 0
M  V30 4399 C 398.539 0.244628 -2.32215 0
M  V30 4400 C 399.52 0.949136 -1.41157 0
M  V30 4401 O 400.705 0.937783 -1.70057 0
M  V30 4402 C 397.835 1.30096 -3.22013 0
M  V30 4403 C 396.789 0.715486 -4.21977 0
M  V30 4404 C 396.115 1.87339 -5.00808 0
M  V30 4405 C 397.415 -0.302982 -5.2142 0
M  V30 4406 H 399.109 -0.450501 -2.95991 0
M  V30 4407 H 396.655 -0.218098 -1.42339 0
M  V30 4408 H 398.608 1.84037 -3.79089 0
M  V30 4409 H 397.332 2.02547 -2.56207 0
M  V30 4410 H 395.991 0.197715 -3.66066 0
M  V30 4411 H 395.639 2.58592 -4.31438 0
M  V30 4412 H 395.339 1.48764 -5.68457 0
M  V30 4413 H 396.863 2.41686 -5.60732 0
M  V30 4414 H 398.277 0.148802 -5.73107 0
M  V30 4415 H 396.674 -0.60532 -5.97039 0
M  V30 4416 H 397.744 -1.21395 -4.69459 0
M  V30 4417 N 399.087 1.5561 -0.249682 0
M  V30 4418 C 400.336 1.98187 0.37479 0
M  V30 4419 C 400.649 1.14111 1.58865 0
M  V30 4420 O 401.855 1.46714 2.28445 0
M  V30 4421 C 400.311 3.52661 0.718192 0
M  V30 4422 C 399.919 4.45481 -0.474428 0
M  V30 4423 C 401.663 4.03888 1.3067 0
M  V30 4424 C 399.57 5.91303 -0.107026 0
M  V30 4425 H 398.5 0.740159 0.143808 0
M  V30 4426 H 401.151 1.80125 -0.350336 0
M  V30 4427 H 399.533 3.66429 1.50152 0
M  V30 4428 H 400.707 4.43473 -1.25172 0
M  V30 4429 H 399.022 4.04751 -0.978052 0
M  V30 4430 H 401.619 5.10358 1.59496 0
M  V30 4431 H 401.962 3.51401 2.23211 0
M  V30 4432 H 402.495 3.93457 0.586211 0
M  V30 4433 H 399.234 6.47833 -0.999642 0
M  V30 4434 H 398.754 5.9644 0.634013 0
M  V30 4435 H 400.433 6.46258 0.309807 0
M  V30 4436 N 400.565 -0.0233959 1.57583 0
M  V30 4437 C 401.528 -1.00693 2.05897 0
M  V30 4438 C 402.528 -1.28693 0.964092 0
M  V30 4439 O 403.718 -1.23602 1.22753 0
M  V30 4440 C 400.85 -2.33825 2.4807 0
M  V30 4441 H 402.043 -0.589476 2.9405 0
M  V30 4442 H 399.596 -0.270354 1.53944 0
M  V30 4443 H 400.331 -2.80307 1.6309 0
M  V30 4444 H 400.116 -2.1483 3.2801 0
M  V30 4445 H 401.606 -3.04426 2.85857 0
M  V30 4446 N 402.043 -1.548 -0.295768 0
M  V30 4447 C 403.32 -1.65014 -1.05023 0
M  V30 4448 C 403.7 -0.501805 -2.05049 0
M  V30 4449 O 403.048 0.500869 -2.22943 0
M  V30 4450 C 403.258 -3.03252 -1.72741 0
M  V30 4451 C 404.606 -3.60242 -2.24746 0
M  V30 4452 O 405.63 -3.05737 -1.82765 0
M  V30 4453 O 404.489 -4.55687 -3.01681 0
M  V30 4454 H 401.583 -0.669314 -0.485744 0
M  V30 4455 H 404.129 -1.67144 -0.293438 0
M  V30 4456 H 402.901 -3.7827 -1.00138 0
M  V30 4457 H 402.524 -3.04922 -2.55163 0
M  V30 4458 N 403.521 0.559213 -1.47345 0
M  V30 4459 C 404.451 1.67622 -1.62558 0
M  V30 4460 C 405.432 1.63331 -0.475087 0
M  V30 4461 O 406.617 1.80983 -0.704182 0
M  V30 4462 C 403.747 3.0626 -1.63774 0
M  V30 4463 C 402.701 3.25397 -2.7803 0
M  V30 4464 C 402.027 4.64801 -2.64318 0
M  V30 4465 C 403.327 3.10965 -4.19641 0
M  V30 4466 H 405.021 1.55146 -2.56067 0
M  V30 4467 H 402.567 0.744961 -1.23233 0
M  V30 4468 H 404.52 3.84247 -1.73008 0
M  V30 4469 H 403.244 3.1969 -0.66825 0
M  V30 4470 H 401.903 2.49817 -2.68304 0
M  V30 4471 H 401.551 4.75028 -1.65401 0
M  V30 4472 H 401.251 4.78555 -3.40968 0
M  V30 4473 H 402.775 5.44926 -2.75478 0
M  V30 4474 H 404.189 3.78772 -4.30354 0
M  V30 4475 H 402.586 3.36229 -4.97062 0
M  V30 4476 H 403.656 2.07736 -4.38148 0
M  V30 4477 N 404.999 1.35443 0.805782 0
M  V30 4478 C 406.245 1.28952 1.56522 0
M  V30 4479 C 406.578 -0.135597 1.93726 0
M  V30 4480 O 405.853 -1.08516 1.61414 0
M  V30 4481 C 406.136 2.19678 2.85331 0
M  V30 4482 C 405.989 3.7081 2.54598 0
M  V30 4483 C 407.308 2.09495 3.8704 0
M  V30 4484 H 404.427 0.469764 0.567883 0
M  V30 4485 H 407.069 1.65851 0.927001 0
M  V30 4486 H 405.219 1.8834 3.39795 0
M  V30 4487 H 406.891 4.12593 2.06312 0
M  V30 4488 H 405.134 3.91051 1.8778 0
M  V30 4489 H 405.805 4.29679 3.46525 0
M  V30 4490 H 408.281 2.37045 3.41978 0
M  V30 4491 H 407.157 2.75173 4.74943 0
M  V30 4492 H 407.418 1.07714 4.28777 0
M  V30 4493 N 406.477 -1.02803 1.19454 0
M  V30 4494 C 407.44 -2.09264 0.934955 0
M  V30 4495 C 408.44 -1.60576 -0.0849015 0
M  V30 4496 O 409.63 -1.73554 0.149933 0
M  V30 4497 C 406.762 -3.38482 0.40531 0
M  V30 4498 H 407.955 -2.33726 1.87916 0
M  V30 4499 H 405.508 -1.19426 1.00832 0
M  V30 4500 H 406.243 -3.19689 -0.544899 0
M  V30 4501 H 406.028 -3.75142 1.14065 0
M  V30 4502 H 407.518 -4.16894 0.242806 0
M  V30 4503 N 407.956 -0.998596 -1.21925 0
M  V30 4504 C 409.233 -0.593401 -1.86382 0
M  V30 4505 C 409.613 0.92916 -1.89552 0
M  V30 4506 O 408.961 1.81347 -1.39017 0
M  V30 4507 C 409.171 -1.22039 -3.26967 0
M  V30 4508 C 410.519 -1.32449 -4.03413 0
M  V30 4509 O 411.543 -1.17522 -3.36254 0
M  V30 4510 O 410.402 -1.56395 -5.23644 0
M  V30 4511 H 407.496 -0.202385 -0.801854 0
M  V30 4512 H 410.042 -1.09484 -1.29659 0
M  V30 4513 H 408.814 -2.26158 -3.19325 0
M  V30 4514 H 408.437 -0.704906 -3.91301 0
M  V30 4515 N 409.434 1.37368 -0.772513 0
M  V30 4516 C 410.344 2.34053 -0.160081 0
M  V30 4517 C 411.36 1.60216 0.678728 0
M  V30 4518 O 412.536 1.92303 0.59847 0
M  V30 4519 C 409.601 3.3939 0.708182 0
M  V30 4520 C 408.662 4.29048 -0.147172 0
M  V30 4521 C 407.895 5.29354 0.679744 0
M  V30 4522 O 408.118 5.3723 1.91678 0
M  V30 4523 O 407.052 6.01835 0.0885444 0
M  V30 4524 H 410.878 2.88159 -0.959053 0
M  V30 4525 H 408.463 1.39543 -0.533685 0
M  V30 4526 H 410.345 4.03839 1.20384 0
M  V30 4527 H 409.02 2.8761 1.48533 0
M  V30 4528 H 407.927 3.67697 -0.689205 0
M  V30 4529 H 409.26 4.84134 -0.887423 0
M  V30 4530 N 410.912 0.523116 1.48665 0
M  V30 4531 C 411.844 -0.280421 2.27478 0
M  V30 4532 C 412.857 -0.910694 1.34945 0
M  V30 4533 O 414.046 -0.790295 1.60052 0
M  V30 4534 C 411.146 -1.41171 3.08097 0
M  V30 4535 C 410.319 -0.884642 4.28361 0
M  V30 4536 C 409.378 -1.89622 4.90846 0
M  V30 4537 O 408.404 -1.4559 5.50265 0
M  V30 4538 N 409.606 -3.22801 4.82472 0
M  V30 4539 H 412.371 0.395481 2.97079 0
M  V30 4540 H 409.932 0.357018 1.57915 0
M  V30 4541 H 411.924 -2.08645 3.4677 0
M  V30 4542 H 410.494 -1.99139 2.40961 0
M  V30 4543 H 409.714 -0.0341177 3.94185 0
M  V30 4544 H 411.002 -0.511268 5.06225 0
M  V30 4545 H 410.4 -3.61246 4.35336 0
M  V30 4546 H 408.957 -3.85927 5.25265 0
M  V30 4547 N 412.39 -1.55475 0.257931 0
M  V30 4548 C 413.806 -1.59307 -0.0966563 0
M  V30 4549 C 414.006 -1.27514 -1.5602 0
M  V30 4550 O 413.062 -1.02774 -2.30637 0
M  V30 4551 C 414.375 -2.99552 0.262481 0
M  V30 4552 C 415.923 -3.1231 0.207683 0
M  V30 4553 C 416.398 -4.54793 0.541012 0
M  V30 4554 N 417.889 -4.6058 0.491921 0
M  V30 4555 C 418.624 -5.68825 0.722857 0
M  V30 4556 N 418.12 -6.85287 1.0175 0
M  V30 4557 N 419.913 -5.58296 0.652815 0
M  V30 4558 H 412.064 -1.74409 1.21224 0
M  V30 4559 H 414.327 -0.812424 0.48854 0
M  V30 4560 H 414.033 -3.27593 1.27967 0
M  V30 4561 H 413.907 -3.75019 -0.40508 0
M  V30 4562 H 416.294 -2.84044 -0.800195 0
M  V30 4563 H 416.375 -2.39095 0.909255 0
M  V30 4564 H 416.019 -4.83783 1.5465 0
M  V30 4565 H 415.949 -5.26285 -0.18216 0
M  V30 4566 H 418.44 -3.7691 0.273366 0
M  V30 4567 H 418.753 -7.63725 1.18084 0
M  V30 4568 H 417.098 -6.86945 1.05509 0
M  V30 4569 H 420.289 -4.66189 0.422592 0
M  V30 4570 H 420.462 -6.42582 0.836182 0
M  V30 4571 N 413.868 0.0150385 -1.57593 0
M  V30 4572 C 415.284 0.370907 -1.5523 0
M  V30 4573 C 415.484 1.75735 -0.985882 0
M  V30 4574 O 414.54 2.44944 -0.613077 0
M  V30 4575 C 415.853 0.259908 -2.99575 0
M  V30 4576 C 417.401 0.335959 -3.11192 0
M  V30 4577 C 417.876 0.254253 -4.57294 0
M  V30 4578 N 419.367 0.312618 -4.62144 0
M  V30 4579 C 420.102 0.272505 -5.72752 0
M  V30 4580 N 419.598 0.183864 -6.92556 0
M  V30 4581 N 421.391 0.323267 -5.6117 0
M  V30 4582 H 413.542 -0.892104 -1.92757 0
M  V30 4583 H 415.805 -0.340563 -0.884715 0
M  V30 4584 H 415.511 -0.693403 -3.44797 0
M  V30 4585 H 415.385 1.048 -3.62349 0
M  V30 4586 H 417.772 1.27971 -2.65909 0
M  V30 4587 H 417.853 -0.481739 -2.51223 0
M  V30 4588 H 417.497 -0.685887 -5.03247 0
M  V30 4589 H 417.427 1.09024 -5.15191 0
M  V30 4590 H 419.918 0.38307 -3.75953 0
M  V30 4591 H 420.231 0.15874 -7.72637 0
M  V30 4592 H 418.576 0.149708 -6.94839 0
M  V30 4593 H 421.767 0.390607 -4.66467 0
M  V30 4594 H 421.94 0.288539 -6.47357 0
M  V30 4595 N 415.346 1.54954 0.287554 0
M  V30 4596 C 416.294 1.87606 1.37502 0
M  V30 4597 C 417.288 0.751001 1.51843 0
M  V30 4598 O 418.494 0.935169 1.53801 0
M  V30 4599 H 414.869 0.595231 0.459569 0
M  V30 4600 H 416.84 2.78477 1.07206 0
M  V30 4601 C 415.589 2.15183 2.73115 0
M  V30 4602 H 414.912 3.01234 2.62866 0
M  V30 4603 H 416.352 2.4196 3.48183 0
M  V30 4604 C 414.811 0.954686 3.2309 0
M  V30 4605 O 415.341 0.181949 4.01288 0
M  V30 4606 N 413.547 0.756368 2.80584 0
M  V30 4607 H 413.094 1.38643 2.17108 0
M  V30 4608 H 413.052 -0.0430391 3.14371 0
M  V30 4609 N 416.824 -0.551391 1.4764 0
M  V30 4610 C 417.754 -1.66757 1.63445 0
M  V30 4611 C 418.735 -1.63077 0.483742 0
M  V30 4612 O 419.92 -1.80607 0.71377 0
M  V30 4613 C 417.05 -3.05387 1.65396 0
M  V30 4614 C 416.004 -3.23918 2.79752 0
M  V30 4615 C 415.33 -4.63393 2.66779 0
M  V30 4616 C 416.63 -3.08735 4.21284 0
M  V30 4617 H 418.324 -1.53786 2.56886 0
M  V30 4618 H 415.87 -0.738415 1.23626 0
M  V30 4619 H 417.823 -3.83325 1.75043 0
M  V30 4620 H 416.547 -3.19332 0.685195 0
M  V30 4621 H 415.206 -2.48391 2.69625 0
M  V30 4622 H 414.854 -4.74144 1.67918 0
M  V30 4623 H 414.554 -4.7674 3.43501 0
M  V30 4624 H 416.078 -5.43458 2.78364 0
M  V30 4625 H 417.492 -3.76484 4.32357 0
M  V30 4626 H 415.889 -3.33588 4.98838 0
M  V30 4627 H 416.959 -2.0541 4.39243 0
M  V30 4628 N 418.302 -1.35869 -0.798587 0
M  V30 4629 C 419.212 -1.31578 -1.94228 0
M  V30 4630 C 420.228 -0.21939 -1.72611 0
M  V30 4631 O 421.404 -0.450167 -1.96305 0
M  V30 4632 C 418.469 -1.09528 -3.28944 0
M  V30 4633 C 417.53 -2.28556 -3.63402 0
M  V30 4634 C 416.763 -2.07549 -4.9169 0
M  V30 4635 O 416.986 -1.046 -5.60727 0
M  V30 4636 O 415.92 -2.95106 -5.24591 0
M  V30 4637 H 419.746 -2.27847 -2.00796 0
M  V30 4638 H 417.331 -1.16322 -0.937526 0
M  V30 4639 H 419.213 -0.991127 -4.09579 0
M  V30 4640 H 417.888 -0.16315 -3.23289 0
M  V30 4641 H 416.795 -2.44538 -2.83112 0
M  V30 4642 H 418.128 -3.20244 -3.73771 0
M  V30 4643 N 419.78 1.02168 -1.19998 0
M  V30 4644 C 421.196 1.27969 -0.953737 0
M  V30 4645 C 421.396 1.98079 0.369703 0
M  V30 4646 O 420.452 2.27306 1.09947 0
M  V30 4647 C 421.765 2.11971 -2.13281 0
M  V30 4648 C 423.313 2.25255 -2.17323 0
M  V30 4649 C 423.788 3.12632 -3.34702 0
M  V30 4650 N 425.279 3.2022 -3.34684 0
M  V30 4651 C 426.014 3.88039 -4.22153 0
M  V30 4652 N 425.51 4.58027 -5.19791 0
M  V30 4653 N 427.303 3.84511 -4.10009 0
M  V30 4654 H 419.454 0.550794 -2.05134 0
M  V30 4655 H 421.717 0.305683 -0.897364 0
M  V30 4656 H 421.423 1.67785 -3.09097 0
M  V30 4657 H 421.297 3.12699 -2.10949 0
M  V30 4658 H 423.684 2.68667 -1.22073 0
M  V30 4659 H 423.765 1.24053 -2.23706 0
M  V30 4660 H 423.409 2.69926 -4.30235 0
M  V30 4661 H 423.339 4.13909 -3.25556 0
M  V30 4662 H 425.83 2.70382 -2.64012 0
M  V30 4663 H 426.143 5.07429 -5.82868 0
M  V30 4664 H 424.488 4.56869 -5.23733 0
M  V30 4665 H 427.679 3.28978 -3.33003 0
M  V30 4666 H 427.852 4.3709 -4.78389 0
M  V30 4667 N 421.258 1.00505 1.21394 0
M  V30 4668 C 422.674 0.717873 1.42544 0
M  V30 4669 C 422.874 -0.706936 1.88692 0
M  V30 4670 O 421.93 -1.47627 2.04847 0
M  V30 4671 C 423.243 1.73377 2.45684 0
M  V30 4672 C 424.791 1.75059 2.59467 0
M  V30 4673 C 425.266 2.75545 3.6584 0
M  V30 4674 N 426.757 2.74213 3.73311 0
M  V30 4675 C 427.492 3.48626 4.55245 0
M  V30 4676 N 426.988 4.32678 5.41075 0
M  V30 4677 N 428.781 3.37276 4.49668 0
M  V30 4678 H 420.932 1.92506 0.897503 0
M  V30 4679 H 423.195 0.830919 0.456375 0
M  V30 4680 H 422.901 2.75395 2.18748 0
M  V30 4681 H 422.775 1.53647 3.44489 0
M  V30 4682 H 425.162 0.737337 2.8574 0
M  V30 4683 H 425.243 1.98861 1.60897 0
M  V30 4684 H 424.887 3.77028 3.40313 0
M  V30 4685 H 424.817 2.49009 4.64007 0
M  V30 4686 H 427.308 2.13234 3.11993 0
M  V30 4687 H 427.621 4.86253 6.00648 0
M  V30 4688 H 425.966 4.3676 5.40616 0
M  V30 4689 H 429.157 2.71043 3.81646 0
M  V30 4690 H 429.33 3.95524 5.13288 0
M  V30 4691 N 422.737 -1.36956 0.779787 0
M  V30 4692 C 423.985 -1.99097 0.347079 0
M  V30 4693 C 424.306 -1.62206 -1.08232 0
M  V30 4694 O 423.576 -0.891373 -1.74446 0
M  V30 4695 H 422.156 -0.736409 0.125342 0
M  V30 4696 H 424.818 -1.67308 0.999696 0
M  V30 4697 H 423.914 -3.09107 0.431162 0
M  V30 4698 N 424.215 -0.530993 -1.48385 0
M  V30 4699 C 425.631 -0.188919 -1.58478 0
M  V30 4700 C 425.831 1.30786 -1.53288 0
M  V30 4701 O 424.887 2.08619 -1.42248 0
M  V30 4702 C 426.2 -0.792343 -2.90073 0
M  V30 4703 C 427.748 -0.76117 -3.03604 0
M  V30 4704 C 428.223 -1.34319 -4.37861 0
M  V30 4705 N 429.714 -1.3052 -4.44431 0
M  V30 4706 C 430.449 -1.72543 -5.46824 0
M  V30 4707 N 429.945 -2.22299 -6.56167 0
M  V30 4708 N 431.738 -1.63773 -5.37712 0
M  V30 4709 H 423.889 -1.50377 -1.50002 0
M  V30 4710 H 426.152 -0.625559 -0.712306 0
M  V30 4711 H 425.858 -1.84323 -2.99529 0
M  V30 4712 H 425.732 -0.270026 -3.76232 0
M  V30 4713 H 428.119 0.280957 -2.93759 0
M  V30 4714 H 428.2 -1.32097 -2.19053 0
M  V30 4715 H 427.844 -2.38425 -4.4846 0
M  V30 4716 H 427.774 -0.759064 -5.21101 0
M  V30 4717 H 430.265 -0.940973 -3.65997 0
M  V30 4718 H 430.578 -2.52356 -7.30436 0
M  V30 4719 H 428.923 -2.26293 -6.57127 0
M  V30 4720 H 432.114 -1.24698 -4.51185 0
M  V30 4721 H 432.287 -1.96844 -6.17379 0
M  V30 4722 N 425.693 1.55336 -0.266172 0
M  V30 4723 C 426.625 2.19544 0.658247 0
M  V30 4724 C 427.638 1.17746 1.12427 0
M  V30 4725 O 428.827 1.44517 1.04772 0
M  V30 4726 C 425.927 2.80032 1.9088 0
M  V30 4727 C 425.1 4.07436 1.59106 0
M  V30 4728 C 424.159 4.52056 2.69317 0
M  V30 4729 O 423.185 5.18023 2.35883 0
M  V30 4730 N 424.387 4.21448 3.99201 0
M  V30 4731 H 427.152 2.99503 0.108754 0
M  V30 4732 H 424.713 1.61667 -0.0869059 0
M  V30 4733 H 426.705 3.06831 2.63888 0
M  V30 4734 H 425.275 2.04119 2.36758 0
M  V30 4735 H 424.495 3.88021 0.695243 0
M  V30 4736 H 425.783 4.90462 1.35367 0
M  V30 4737 H 425.181 3.68528 4.29189 0
M  V30 4738 H 423.738 4.53039 4.68614 0
M  V30 4739 N 427.171 -0.0066808 1.57599 0
M  V30 4740 C 428.101 -0.999296 2.11036 0
M  V30 4741 C 429.082 -1.36278 1.01795 0
M  V30 4742 O 430.267 -1.4477 1.29442 0
M  V30 4743 C 427.397 -2.29328 2.60818 0
M  V30 4744 C 426.351 -2.07159 3.74525 0
M  V30 4745 C 425.677 -3.42512 4.10596 0
M  V30 4746 C 426.977 -1.43959 5.02069 0
M  V30 4747 H 428.671 -0.554382 2.94223 0
M  V30 4748 H 426.217 -0.265221 1.41536 0
M  V30 4749 H 428.17 -2.99117 2.96828 0
M  V30 4750 H 426.894 -2.7592 1.74745 0
M  V30 4751 H 425.553 -1.39797 3.38899 0
M  V30 4752 H 425.201 -3.86795 3.21556 0
M  V30 4753 H 424.901 -3.28498 4.87199 0
M  V30 4754 H 426.425 -4.13628 4.4916 0
M  V30 4755 H 427.839 -2.03696 5.35893 0
M  V30 4756 H 426.236 -1.40452 5.83432 0
M  V30 4757 H 427.306 -0.407992 4.83181 0
M  V30 4758 N 428.649 -1.55105 -0.279332 0
M  V30 4759 C 429.897 -1.75066 -1.00977 0
M  V30 4760 C 430.218 -0.551276 -1.87045 0
M  V30 4761 O 429.488 0.433984 -1.91032 0
M  V30 4762 H 428.068 -0.645578 -0.375816 0
M  V30 4763 H 430.73 -1.92497 -0.305089 0
M  V30 4764 H 429.826 -2.64894 -1.65038 0
M  V30 4765 N 430.127 0.543554 -1.4793 0
M  V30 4766 C 431.037 1.67657 -1.64098 0
M  V30 4767 C 432.053 1.65934 -0.523622 0
M  V30 4768 O 433.229 1.85133 -0.792943 0
M  V30 4769 C 430.294 3.04146 -1.66421 0
M  V30 4770 C 429.355 3.16831 -2.89684 0
M  V30 4771 C 428.588 4.46809 -2.91886 0
M  V30 4772 O 428.811 5.33095 -2.02895 0
M  V30 4773 O 427.745 4.63573 -3.83906 0
M  V30 4774 H 431.571 1.56957 -2.59997 0
M  V30 4775 H 429.156 0.715116 -1.31173 0
M  V30 4776 H 431.038 3.85346 -1.70548 0
M  V30 4777 H 429.713 3.152 -0.736923 0
M  V30 4778 H 428.62 2.34977 -2.91095 0
M  V30 4779 H 429.953 3.10687 -3.81752 0
M  V30 4780 N 431.605 1.3629 0.791371 0
M  V30 4781 C 433.016 1.27225 1.36641 0
M  V30 4782 C 433.367 -0.0887968 1.95999 0
M  V30 4783 O 432.492 -0.990207 1.92416 0
M  V30 4784 C 433.087 2.30375 2.48421 0
M  V30 4785 C 431.646 2.25004 3.01746 0
M  V30 4786 C 430.793 2.15259 1.7481 0
M  V30 4787 H 433.744 1.47198 0.593173 0
M  V30 4788 H 433.765 1.93905 3.27385 0
M  V30 4789 H 433.277 3.29422 2.05189 0
M  V30 4790 H 431.378 1.29417 3.49403 0
M  V30 4791 H 431.491 3.1761 3.58693 0
M  V30 4792 H 429.855 1.61482 1.96966 0
M  V30 4793 H 430.638 3.16191 1.33709 0
M  V30 4794 N 433.083 -1.0153 1.20538 0
M  V30 4795 C 433.993 -2.13557 0.971113 0
M  V30 4796 C 435.009 -1.73845 -0.0734366 0
M  V30 4797 O 436.185 -2.01075 0.114299 0
M  V30 4798 C 433.25 -3.42661 0.527639 0
M  V30 4799 C 432.311 -3.96608 1.64319 0
M  V30 4800 C 431.544 -5.1955 1.22078 0
M  V30 4801 O 431.767 -5.70329 0.0900198 0
M  V30 4802 O 430.701 -5.66681 2.02871 0
M  V30 4803 H 434.527 -2.3619 1.90913 0
M  V30 4804 H 432.112 -1.11946 0.989362 0
M  V30 4805 H 433.994 -4.20404 0.289621 0
M  V30 4806 H 432.669 -3.21441 -0.381779 0
M  V30 4807 H 431.576 -3.20139 1.93551 0
M  V30 4808 H 432.909 -4.22219 2.52966 0
M  V30 4809 N 434.561 -1.01147 -1.20859 0
M  V30 4810 C 435.508 -0.577354 -2.23462 0
M  V30 4811 C 436.478 0.399922 -1.61214 0
M  V30 4812 O 437.663 0.300515 -1.88419 0
M  V30 4813 C 434.803 0.083372 -3.44999 0
M  V30 4814 C 433.916 -0.937856 -4.21697 0
M  V30 4815 C 433.051 -0.248717 -5.30617 0
M  V30 4816 C 432.09 -1.25705 -5.99053 0
M  V30 4817 N 431.227 -0.594939 -6.99575 0
M  V30 4818 H 436.067 -1.45695 -2.59956 0
M  V30 4819 H 433.604 -0.729428 -1.27741 0
M  V30 4820 H 435.562 0.483535 -4.14388 0
M  V30 4821 H 434.192 0.926645 -3.09214 0
M  V30 4822 H 433.244 -1.45622 -3.51423 0
M  V30 4823 H 434.556 -1.70493 -4.68757 0
M  V30 4824 H 433.71 0.207215 -6.06346 0
M  V30 4825 H 432.449 0.55071 -4.84581 0
M  V30 4826 H 431.454 -1.72343 -5.2209 0
M  V30 4827 H 432.679 -2.05767 -6.47176 0
M  V30 4828 H 430.625 0.184713 -6.5574 0
M  V30 4829 H 430.542 -1.30017 -7.44736 0
M  V30 4830 H 431.81 -0.162427 -7.79331 0
M  V30 4831 N 436.039 1.36541 -0.78704 0
M  V30 4832 C 437.264 2.0409 -0.369053 0
M  V30 4833 C 437.689 1.58957 1.00569 0
M  V30 4834 O 437.047 0.756926 1.64743 0
M  V30 4835 C 437.095 3.57924 -0.438466 0
M  V30 4836 O 436.199 4.08642 0.555479 0
M  V30 4837 H 435.54 0.645142 -0.157122 0
M  V30 4838 H 438.07 1.74545 -1.06749 0
M  V30 4839 H 438.08 4.06887 -0.301218 0
M  V30 4840 H 436.755 3.90127 -1.44132 0
M  V30 4841 H 435.332 3.70958 0.380088 0
M  V30 4842 N 437.518 0.538854 1.48102 0
M  V30 4843 C 438.45 -0.256278 2.27763 0
M  V30 4844 C 439.463 -0.89633 1.35904 0
M  V30 4845 O 440.652 -0.773275 1.60881 0
M  V30 4846 C 437.752 -1.37896 3.09577 0
M  V30 4847 C 436.925 -0.839159 4.29275 0
M  V30 4848 C 435.984 -1.84405 4.9283 0
M  V30 4849 O 435.01 -1.39746 5.51779 0
M  V30 4850 N 436.212 -3.17666 4.85869 0
M  V30 4851 H 438.977 0.426968 2.96643 0
M  V30 4852 H 436.538 0.373747 1.57527 0
M  V30 4853 H 438.53 -2.04955 3.48963 0
M  V30 4854 H 437.1 -1.96572 2.4306 0
M  V30 4855 H 436.32 0.00769287 3.94199 0
M  V30 4856 H 437.608 -0.457548 5.06739 0
M  V30 4857 H 437.006 -3.56609 4.39143 0
M  V30 4858 H 435.563 -3.80334 5.29329 0
M  V30 4859 N 438.996 -1.55193 0.274407 0
M  V30 4860 C 440.273 -1.91584 -0.394331 0
M  V30 4861 C 440.653 -1.19858 -1.73774 0
M  V30 4862 O 440.001 -0.3252 -2.26174 0
M  V30 4863 C 440.211 -3.4487 -0.535311 0
M  V30 4864 C 441.559 -4.16636 -0.818534 0
M  V30 4865 O 442.583 -3.5076 -0.620146 0
M  V30 4866 O 441.442 -5.33209 -1.19792 0
M  V30 4867 H 438.536 -0.798349 -0.215794 0
M  V30 4868 H 441.082 -1.66646 0.320507 0
M  V30 4869 H 439.854 -3.89145 0.410141 0
M  V30 4870 H 439.477 -3.75759 -1.29964 0
M  V30 4871 N 440.474 -0.00167713 -1.576 0
M  V30 4872 C 441.699 0.69739 -1.95323 0
M  V30 4873 C 442.124 1.6642 -0.876706 0
M  V30 4874 O 441.482 1.80548 0.165007 0
M  V30 4875 C 441.53 1.40403 -3.32144 0
M  V30 4876 O 440.634 2.5185 -3.26566 0
M  V30 4877 H 439.975 0.185373 -0.637599 0
M  V30 4878 H 442.505 -0.0553665 -2.04525 0
M  V30 4879 H 442.515 1.76707 -3.67748 0
M  V30 4880 H 441.19 0.695167 -4.10049 0
M  V30 4881 H 439.767 2.17861 -3.0264 0
M  V30 4882 N 441.952 1.55251 0.271103 0
M  V30 4883 C 443.177 1.80306 1.02491 0
M  V30 4884 C 443.602 0.575457 1.79081 0
M  V30 4885 O 442.96 -0.474987 1.74967 0
M  V30 4886 C 443.008 3.02832 1.95768 0
M  V30 4887 O 442.112 2.78051 3.04568 0
M  V30 4888 H 441.453 0.595896 0.292923 0
M  V30 4889 H 443.983 2.02397 0.299436 0
M  V30 4890 H 443.993 3.31616 2.37686 0
M  V30 4891 H 442.668 3.9183 1.39434 0
M  V30 4892 H 441.245 2.60369 2.66951 0
M  V30 4893 N 443.43 -0.535701 1.48216 0
M  V30 4894 C 444.841 -1.11769 1.49548 0
M  V30 4895 C 445.192 -1.94442 0.26207 0
M  V30 4896 O 444.317 -2.06987 -0.631287 0
M  V30 4897 C 444.912 -2.03367 2.70975 0
M  V30 4898 C 443.471 -2.56795 2.75196 0
M  V30 4899 C 442.618 -1.33631 2.42977 0
M  V30 4900 H 445.569 -0.321232 1.55415 0
M  V30 4901 H 445.59 -2.87569 2.49167 0
M  V30 4902 H 445.102 -1.43169 3.60727 0
M  V30 4903 H 443.203 -3.20731 1.89638 0
M  V30 4904 H 443.316 -2.9632 3.76472 0
M  V30 4905 H 441.68 -1.6502 1.94012 0
M  V30 4906 H 442.463 -0.75194 3.34964 0
M  V30 4907 N 444.908 -1.36708 -0.784132 0
M  V30 4908 C 446.154 -1.31426 -1.54451 0
M  V30 4909 C 446.487 0.10476 -1.93917 0
M  V30 4910 O 445.762 1.05934 -1.6312 0
M  V30 4911 C 446.045 -2.24189 -2.818 0
M  V30 4912 C 445.898 -3.74813 -2.48667 0
M  V30 4913 C 447.217 -2.15626 -3.83658 0
M  V30 4914 H 444.336 -0.478739 -0.560337 0
M  V30 4915 H 446.978 -1.67305 -0.900498 0
M  V30 4916 H 445.128 -1.93722 -3.36755 0
M  V30 4917 H 446.8 -4.15823 -1.99722 0
M  V30 4918 H 445.043 -3.93989 -1.81535 0
M  V30 4919 H 445.714 -4.35138 -3.39646 0
M  V30 4920 H 448.19 -2.42456 -3.38163 0
M  V30 4921 H 447.066 -2.82694 -4.70506 0
M  V30 4922 H 447.327 -1.14522 -4.27009 0
M  V30 4923 N 446.386 1.0089 -1.21074 0
M  V30 4924 C 447.316 2.1145 -0.990523 0
M  V30 4925 C 448.297 1.69897 0.0831699 0
M  V30 4926 O 449.482 1.94052 -0.0758853 0
M  V30 4927 C 446.612 3.42914 -0.550177 0
M  V30 4928 C 445.566 3.98244 -1.56799 0
M  V30 4929 C 444.892 5.25568 -0.984013 0
M  V30 4930 C 446.192 4.30752 -2.95381 0
M  V30 4931 H 447.886 2.3013 -1.91521 0
M  V30 4932 H 445.432 1.10592 -0.92225 0
M  V30 4933 H 447.385 4.19653 -0.383305 0
M  V30 4934 H 446.109 3.24014 0.41015 0
M  V30 4935 H 444.768 3.23621 -1.72236 0
M  V30 4936 H 444.416 5.02998 -0.0155216 0
M  V30 4937 H 444.116 5.63551 -1.66384 0
M  V30 4938 H 445.64 6.04955 -0.828378 0
M  V30 4939 H 447.054 4.98349 -2.8341 0
M  V30 4940 H 445.451 4.79869 -3.60341 0
M  V30 4941 H 446.521 3.39192 -3.46521 0
M  V30 4942 N 447.864 1.01787 1.20321 0
M  V30 4943 C 449.089 0.727009 1.9424 0
M  V30 4944 C 449.514 -0.706179 1.74341 0
M  V30 4945 O 448.872 -1.48609 1.03852 0
M  V30 4946 C 448.92 1.06958 3.44372 0
M  V30 4947 O 448.024 0.181983 4.11998 0
M  V30 4948 H 447.365 0.269626 0.606793 0
M  V30 4949 H 449.895 1.36158 1.52716 0
M  V30 4950 H 449.905 1.02182 3.94997 0
M  V30 4951 H 448.58 2.11378 3.58179 0
M  V30 4952 H 447.157 0.287378 3.71791 0
M  V30 4953 N 449.342 -1.36122 0.79427 0
M  V30 4954 C 450.252 -2.33769 0.197296 0
M  V30 4955 C 451.268 -1.61276 -0.653153 0
M  V30 4956 O 452.444 -1.9323 -0.5678 0
M  V30 4957 C 449.509 -3.40474 -0.654098 0
M  V30 4958 C 448.57 -4.28759 0.215411 0
M  V30 4959 C 447.803 -5.30368 -0.595443 0
M  V30 4960 O 448.026 -5.40211 -1.83107 0
M  V30 4961 O 446.96 -6.019 0.00721351 0
M  V30 4962 H 450.786 -2.86597 1.00478 0
M  V30 4963 H 448.371 -1.38676 0.555818 0
M  V30 4964 H 450.253 -4.05703 -1.13944 0
M  V30 4965 H 448.928 -2.89937 -1.43938 0
M  V30 4966 H 447.835 -3.66554 0.747615 0
M  V30 4967 H 449.168 -4.82661 0.964332 0
M  V30 4968 N 450.82 -0.546701 -1.47814 0
M  V30 4969 C 451.75 0.195317 -2.32682 0
M  V30 4970 C 452.731 0.918981 -1.43139 0
M  V30 4971 O 453.916 0.901501 -1.72008 0
M  V30 4972 C 451.046 1.23237 -3.247 0
M  V30 4973 C 450 0.625818 -4.234 0
M  V30 4974 C 449.326 1.76674 -5.04669 0
M  V30 4975 C 450.626 -0.413515 -5.2066 0
M  V30 4976 H 452.32 -0.513184 -2.94969 0
M  V30 4977 H 449.866 -0.248241 -1.41844 0
M  V30 4978 H 451.819 1.75955 -3.82907 0
M  V30 4979 H 450.543 1.97067 -2.60446 0
M  V30 4980 H 449.202 0.120023 -3.66403 0
M  V30 4981 H 448.85 2.49383 -4.36826 0
M  V30 4982 H 448.55 1.36673 -5.71484 0
M  V30 4983 H 450.074 2.29738 -5.65732 0
M  V30 4984 H 451.488 0.0272042 -5.73294 0
M  V30 4985 H 449.885 -0.731825 -5.95621 0
M  V30 4986 H 450.955 -1.31325 -4.66778 0
M  V30 4987 N 452.299 1.55045 -0.282633 0
M  V30 4988 C 453.246 2.22822 0.601566 0
M  V30 4989 C 454.216 1.20431 1.14392 0
M  V30 4990 O 455.401 1.48996 1.19184 0
M  V30 4991 C 452.541 2.95873 1.77632 0
M  V30 4992 C 451.654 4.12999 1.26711 0
M  V30 4993 C 450.789 4.73676 2.40426 0
M  V30 4994 C 449.828 5.82981 1.86545 0
M  V30 4995 N 448.965 6.3769 2.93762 0
M  V30 4996 H 453.805 2.97995 0.0169528 0
M  V30 4997 H 451.342 1.471 -0.00339964 0
M  V30 4998 H 453.3 3.36447 2.46697 0
M  V30 4999 H 451.93 2.2311 2.33285 0
M  V30 5000 H 450.982 3.77494 0.469314 0
M  V30 5001 H 452.294 4.91803 0.832518 0
M  V30 5002 H 451.448 5.17008 3.17471 0
M  V30 5003 H 450.187 3.94164 2.87203 0
M  V30 5004 H 449.192 5.39092 1.07983 0
M  V30 5005 H 450.417 6.64366 1.40694 0
M  V30 5006 H 448.363 5.61069 3.39908 0
M  V30 5007 H 448.28 7.11788 2.54744 0
M  V30 5008 H 449.548 6.8568 3.7076 0
M  V30 5009 N 453.777 0.010035 1.57597 0
M  V30 5010 C 454.707 -0.976857 2.12084 0
M  V30 5011 C 455.688 -1.35191 1.03235 0
M  V30 5012 O 456.873 -1.43389 1.3097 0
M  V30 5013 C 454.003 -2.26548 2.63236 0
M  V30 5014 C 452.957 -2.03175 3.76701 0
M  V30 5015 C 452.283 -3.38138 4.14206 0
M  V30 5016 C 453.583 -1.38625 5.03568 0
M  V30 5017 H 455.277 -0.523145 2.94794 0
M  V30 5018 H 452.823 -0.250195 1.4181 0
M  V30 5019 H 454.776 -2.95952 2.99984 0
M  V30 5020 H 453.5 -2.74051 1.77661 0
M  V30 5021 H 452.159 -1.36195 3.40362 0
M  V30 5022 H 451.807 -3.83363 3.25641 0
M  V30 5023 H 451.507 -3.23312 4.90656 0
M  V30 5024 H 453.031 -4.08841 4.53521 0
M  V30 5025 H 454.445 -1.98 5.38023 0
M  V30 5026 H 452.842 -1.34256 5.84889 0
M  V30 5027 H 453.912 -0.356722 4.83586 0
M  V30 5028 N 455.255 -1.55392 -0.262866 0
M  V30 5029 C 456.202 -1.88966 -1.32516 0
M  V30 5030 C 457.172 -0.742187 -1.48596 0
M  V30 5031 O 458.357 -0.99439 -1.62839 0
M  V30 5032 C 455.497 -2.17592 -2.67858 0
M  V30 5033 C 454.61 -3.45061 -2.59917 0
M  V30 5034 C 453.745 -3.63336 -3.87505 0
M  V30 5035 C 452.784 -4.84462 -3.74116 0
M  V30 5036 N 451.921 -4.99342 -4.93561 0
M  V30 5037 H 456.761 -2.79566 -1.03184 0
M  V30 5038 H 454.298 -1.38404 -0.498285 0
M  V30 5039 H 456.256 -2.3219 -3.46617 0
M  V30 5040 H 454.886 -1.30215 -2.95371 0
M  V30 5041 H 453.938 -3.38881 -1.72812 0
M  V30 5042 H 455.25 -4.3396 -2.45926 0
M  V30 5043 H 454.404 -3.77807 -4.74707 0
M  V30 5044 H 453.143 -2.72641 -4.04374 0
M  V30 5045 H 452.148 -4.69985 -2.85297 0
M  V30 5046 H 453.373 -5.76603 -3.58757 0
M  V30 5047 H 451.319 -4.1158 -5.10821 0
M  V30 5048 H 451.236 -5.82303 -4.82141 0
M  V30 5049 H 452.504 -5.18208 -5.82306 0
M  V30 5050 N 456.733 0.527833 -1.48498 0
M  V30 5051 C 457.643 1.65907 -1.65867 0
M  V30 5052 C 458.659 1.6537 -0.541192 0
M  V30 5053 O 459.835 1.84282 -0.812534 0
M  V30 5054 C 456.9 3.02364 -1.69637 0
M  V30 5055 C 455.961 3.1374 -2.93028 0
M  V30 5056 C 455.194 4.43688 -2.96609 0
M  V30 5057 O 455.417 5.30913 -2.08538 0
M  V30 5058 O 454.351 4.59475 -3.88802 0
M  V30 5059 H 458.177 1.5419 -2.61647 0
M  V30 5060 H 455.762 0.701163 -1.31924 0
M  V30 5061 H 457.644 3.83515 -1.74625 0
M  V30 5062 H 456.319 3.14401 -0.770312 0
M  V30 5063 H 455.226 2.31877 -2.93571 0
M  V30 5064 H 456.559 3.06621 -3.85026 0
M  V30 5065 N 458.211 1.37122 0.776871 0
M  V30 5066 C 459.46 1.31373 1.53049 0
M  V30 5067 C 459.773 -0.101016 1.95339 0
M  V30 5068 O 460.979 -0.280953 2.70042 0
M  V30 5069 C 459.435 2.30567 2.76346 0
M  V30 5070 C 459.043 3.77543 2.41175 0
M  V30 5071 C 460.787 2.33818 3.54301 0
M  V30 5072 C 458.694 4.68481 3.60943 0
M  V30 5073 H 457.624 0.488234 0.574581 0
M  V30 5074 H 460.275 1.62554 0.851372 0
M  V30 5075 H 458.657 1.92396 3.46121 0
M  V30 5076 H 459.831 4.24521 1.79216 0
M  V30 5077 H 458.146 3.77187 1.76405 0
M  V30 5078 H 460.743 2.98965 4.4331 0
M  V30 5079 H 461.086 1.3503 3.93793 0
M  V30 5080 H 461.619 2.7067 2.91518 0
M  V30 5081 H 458.358 5.68378 3.26537 0
M  V30 5082 H 457.878 4.2621 4.22025 0
M  V30 5083 H 459.557 4.85366 4.27819 0
M  V30 5084 N 459.689 -1.00246 1.21608 0
M  V30 5085 C 460.621 -2.09244 0.935401 0
M  V30 5086 C 461.634 -1.62592 -0.0823594 0
M  V30 5087 O 462.823 -1.77865 0.150456 0
M  V30 5088 C 459.923 -3.36724 0.383453 0
M  V30 5089 C 459.096 -4.1245 1.45615 0
M  V30 5090 C 458.155 -5.18219 0.912991 0
M  V30 5091 O 457.181 -5.46337 1.59701 0
M  V30 5092 N 458.383 -5.7987 -0.270478 0
M  V30 5093 H 461.148 -2.33905 1.87373 0
M  V30 5094 H 458.709 -1.16748 1.12167 0
M  V30 5095 H 460.701 -4.047 0.00562157 0
M  V30 5096 H 459.271 -3.09201 -0.459758 0
M  V30 5097 H 458.491 -3.39241 2.00772 0
M  V30 5098 H 459.779 -4.59819 2.17817 0
M  V30 5099 H 459.177 -5.59381 -0.843195 0
M  V30 5100 H 457.734 -6.49126 -0.589794 0
M  V30 5101 N 461.167 -1.02423 -1.1978 0
M  V30 5102 C 462.097 -0.62157 -2.25075 0
M  V30 5103 C 463.078 0.367148 -1.6609 0
M  V30 5104 O 464.263 0.250892 -1.92573 0
M  V30 5105 C 461.393 0.0331826 -3.47284 0
M  V30 5106 C 460.347 -0.877323 -4.18912 0
M  V30 5107 C 459.673 -0.0879296 -5.34628 0
M  V30 5108 C 460.973 -2.18892 -4.74219 0
M  V30 5109 H 462.667 -1.50179 -2.59011 0
M  V30 5110 H 460.213 -0.723547 -1.24502 0
M  V30 5111 H 462.166 0.326488 -4.20133 0
M  V30 5112 H 460.89 0.948164 -3.12534 0
M  V30 5113 H 459.549 -1.15475 -3.47938 0
M  V30 5114 H 459.197 0.828941 -4.96123 0
M  V30 5115 H 458.897 -0.694359 -5.83483 0
M  V30 5116 H 460.421 0.198743 -6.10276 0
M  V30 5117 H 461.835 -1.95746 -5.38847 0
M  V30 5118 H 460.232 -2.74686 -5.33542 0
M  V30 5119 H 461.302 -2.84674 -3.92541 0
M  V30 5120 N 462.645 1.35699 -0.801477 0
M  V30 5121 C 463.577 2.28598 -0.166028 0
M  V30 5122 C 464.59 1.50044 0.631721 0
M  V30 5123 O 465.779 1.72339 0.464921 0
M  V30 5124 C 462.879 3.29625 0.787451 0
M  V30 5125 C 462.052 4.37384 0.037171 0
M  V30 5126 C 461.111 5.183 0.908375 0
M  V30 5127 O 460.137 5.68053 0.361189 0
M  V30 5128 N 461.339 5.35912 2.23112 0
M  V30 5129 H 464.104 2.83771 -0.964071 0
M  V30 5130 H 461.665 1.47994 -0.656469 0
M  V30 5131 H 463.657 3.80648 1.37439 0
M  V30 5132 H 462.227 2.75004 1.48632 0
M  V30 5133 H 461.447 3.87364 -0.730935 0
M  V30 5134 H 462.735 5.0653 -0.480109 0
M  V30 5135 H 462.133 4.97125 2.69968 0
M  V30 5136 H 460.69 5.90133 2.76741 0
M  V30 5137 N 464.123 0.554532 1.47522 0
M  V30 5138 C 465.033 -0.197865 2.33764 0
M  V30 5139 C 466.049 -0.914576 1.48025 0
M  V30 5140 O 467.225 -0.884067 1.80959 0
M  V30 5141 C 464.29 -1.21628 3.24665 0
M  V30 5142 C 463.351 -0.507283 4.26292 0
M  V30 5143 C 462.584 -1.47718 5.1285 0
M  V30 5144 O 462.807 -2.7118 5.01814 0
M  V30 5145 O 461.741 -1.00313 5.93482 0
M  V30 5146 H 465.567 0.50949 2.99396 0
M  V30 5147 H 463.152 0.315176 1.46038 0
M  V30 5148 H 465.034 -1.80421 3.80823 0
M  V30 5149 H 463.709 -1.9056 2.61665 0
M  V30 5150 H 462.616 0.121778 3.73902 0
M  V30 5151 H 463.949 0.140544 4.91999 0
M  V30 5152 N 465.601 -1.54893 0.290851 0
M  V30 5153 C 467.017 -1.59476 -0.0628432 0
M  V30 5154 C 467.217 -1.30795 -1.5328 0
M  V30 5155 O 466.273 -1.07644 -2.28406 0
M  V30 5156 C 467.586 -2.98928 0.325962 0
M  V30 5157 C 469.134 -3.11799 0.273882 0
M  V30 5158 C 469.609 -4.53544 0.637359 0
M  V30 5159 N 471.1 -4.59433 0.589507 0
M  V30 5160 C 471.835 -5.67164 0.84335 0
M  V30 5161 N 471.331 -6.82975 1.16263 0
M  V30 5162 N 473.124 -5.56786 0.771091 0
M  V30 5163 H 465.275 -1.71798 1.24896 0
M  V30 5164 H 467.538 -0.801879 0.505663 0
M  V30 5165 H 467.244 -3.24805 1.34887 0
M  V30 5166 H 467.118 -3.75793 -0.325441 0
M  V30 5167 H 469.505 -2.85677 -0.739765 0
M  V30 5168 H 469.586 -2.37112 0.959766 0
M  V30 5169 H 469.23 -4.80394 1.64877 0
M  V30 5170 H 469.16 -5.26553 -0.0704866 0
M  V30 5171 H 471.651 -3.76245 0.353252 0
M  V30 5172 H 471.964 -7.61048 1.34257 0
M  V30 5173 H 470.309 -6.84552 1.20057 0
M  V30 5174 H 473.5 -4.65187 0.521383 0
M  V30 5175 H 473.673 -6.40664 0.972295 0
M  V30 5176 N 467.08 -0.0183926 -1.57589 0
M  V30 5177 C 467.99 0.982943 -2.13015 0
M  V30 5178 C 469.006 1.36443 -1.07979 0
M  V30 5179 O 470.182 1.44802 -1.3998 0
M  V30 5180 C 467.247 2.25024 -2.63752 0
M  V30 5181 C 466.308 1.93018 -3.83461 0
M  V30 5182 C 465.541 3.13706 -4.31769 0
M  V30 5183 O 465.764 4.2601 -3.79305 0
M  V30 5184 O 464.698 2.96629 -5.23732 0
M  V30 5185 H 468.524 0.541709 -2.9883 0
M  V30 5186 H 466.109 0.201565 -1.48034 0
M  V30 5187 H 467.991 2.99441 -2.96502 0
M  V30 5188 H 466.666 2.68349 -1.81026 0
M  V30 5189 H 465.573 1.16019 -3.55655 0
M  V30 5190 H 466.906 1.54516 -4.67317 0
M  V30 5191 N 468.558 1.5553 0.254621 0
M  V30 5192 C 469.974 1.4778 0.602753 0
M  V30 5193 C 470.174 0.707047 1.88688 0
M  V30 5194 O 469.23 0.233288 2.5142 0
M  V30 5195 C 470.543 2.92133 0.712648 0
M  V30 5196 C 472.091 3.02458 0.805488 0
M  V30 5197 C 472.566 4.48102 0.947009 0
M  V30 5198 N 474.057 4.52008 1.01207 0
M  V30 5199 C 474.792 5.61939 1.1407 0
M  V30 5200 N 474.288 6.81697 1.23536 0
M  V30 5201 N 476.081 5.49719 1.17325 0
M  V30 5202 H 468.232 2.04085 -0.588463 0
M  V30 5203 H 470.495 0.926229 -0.202001 0
M  V30 5204 H 470.201 3.51332 -0.160766 0
M  V30 5205 H 470.075 3.42187 1.58707 0
M  V30 5206 H 472.462 2.43344 1.66936 0
M  V30 5207 H 472.543 2.55627 -0.0939266 0
M  V30 5208 H 472.187 5.07824 0.087725 0
M  V30 5209 H 472.117 4.92607 1.86135 0
M  V30 5210 H 474.608 3.65749 0.950577 0
M  V30 5211 H 474.921 7.61228 1.33236 0
M  V30 5212 H 473.266 6.84473 1.20508 0
M  V30 5213 H 476.457 4.55095 1.09573 0
M  V30 5214 H 476.63 6.35432 1.27005 0
M  V30 5215 N 470.036 -0.519951 1.48776 0
M  V30 5216 C 470.999 -1.60574 1.6355 0
M  V30 5217 C 471.999 -1.52557 0.508234 0
M  V30 5218 O 473.189 -1.56047 0.774262 0
M  V30 5219 C 470.321 -3.00211 1.61512 0
M  V30 5220 H 471.514 -1.4881 2.60376 0
M  V30 5221 H 469.067 -0.742772 1.37523 0
M  V30 5222 H 469.802 -3.17471 0.662009 0
M  V30 5223 H 469.587 -3.07439 2.43359 0
M  V30 5224 H 471.077 -3.79134 1.75064 0
M  V30 5225 N 471.514 -1.37532 -0.769588 0
M  V30 5226 C 472.444 -1.36172 -1.89682 0
M  V30 5227 C 473.425 -0.23001 -1.68538 0
M  V30 5228 O 474.61 -0.43069 -1.89364 0
M  V30 5229 C 471.74 -1.1701 -3.26995 0
M  V30 5230 C 470.694 -2.27216 -3.62708 0
M  V30 5231 C 470.02 -1.93174 -4.98586 0
M  V30 5232 C 471.32 -3.6941 -3.69234 0
M  V30 5233 H 473.014 -2.30499 -1.91078 0
M  V30 5234 H 470.56 -1.10953 -0.917902 0
M  V30 5235 H 472.513 -1.14688 -4.05493 0
M  V30 5236 H 471.237 -0.191395 -3.26039 0
M  V30 5237 H 469.896 -2.28697 -2.86519 0
M  V30 5238 H 469.544 -0.938281 -4.94171 0
M  V30 5239 H 469.244 -2.66973 -5.23449 0
M  V30 5240 H 470.768 -1.92443 -5.79481 0
M  V30 5241 H 472.182 -3.70047 -4.37879 0
M  V30 5242 H 470.579 -4.4228 -4.05597 0
M  V30 5243 H 471.649 -4.0288 -2.69844 0
M  V30 5244 N 472.992 0.995999 -1.22138 0
M  V30 5245 C 473.939 2.08551 -0.988687 0
M  V30 5246 C 474.909 1.65864 0.0885021 0
M  V30 5247 O 476.094 1.90704 -0.0604589 0
M  V30 5248 C 473.234 3.40374 -0.569191 0
M  V30 5249 C 472.347 3.96421 -1.71681 0
M  V30 5250 C 471.482 5.1639 -1.2456 0
M  V30 5251 C 470.521 5.64567 -2.36497 0
M  V30 5252 N 469.658 6.75777 -1.90445 0
M  V30 5253 H 474.498 2.2779 -1.92135 0
M  V30 5254 H 472.035 1.1168 -0.957388 0
M  V30 5255 H 473.993 4.16068 -0.307166 0
M  V30 5256 H 472.623 3.21145 0.326462 0
M  V30 5257 H 471.675 3.17628 -2.09324 0
M  V30 5258 H 472.987 4.2816 -2.55891 0
M  V30 5259 H 472.141 5.99362 -0.940774 0
M  V30 5260 H 470.88 4.86266 -0.373662 0
M  V30 5261 H 469.885 4.80185 -2.67772 0
M  V30 5262 H 471.11 5.96716 -3.24202 0
M  V30 5263 H 469.056 6.47443 -1.05609 0
M  V30 5264 H 468.973 7.06818 -2.68223 0
M  V30 5265 H 470.241 7.62262 -1.63022 0
M  V30 5266 N 474.47 1.03057 1.19235 0
M  V30 5267 C 475.433 0.617418 2.20727 0
M  V30 5268 C 476.433 -0.319856 1.57587 0
M  V30 5269 O 477.623 -0.106633 1.73873 0
M  V30 5270 C 474.755 -0.096296 3.40764 0
M  V30 5271 H 475.948 1.51544 2.58794 0
M  V30 5272 H 473.501 0.821949 1.32942 0
M  V30 5273 H 474.236 -1.00859 3.08217 0
M  V30 5274 H 474.021 0.577217 3.87828 0
M  V30 5275 H 475.511 -0.372219 4.15938 0
M  V30 5276 N 475.948 -1.35272 0.808662 0
M  V30 5277 C 477.364 -1.51806 0.492653 0
M  V30 5278 C 477.564 -1.7574 -0.985778 0
M  V30 5279 O 476.62 -1.80003 -1.77074 0
M  V30 5280 C 477.933 -2.69202 1.33981 0
M  V30 5281 C 479.481 -2.8308 1.33547 0
M  V30 5282 C 479.956 -4.03502 2.16679 0
M  V30 5283 N 481.447 -4.10684 2.14227 0
M  V30 5284 C 482.182 -5.02984 2.75308 0
M  V30 5285 N 481.678 -6.00603 3.45323 0
M  V30 5286 N 483.471 -4.95746 2.64938 0
M  V30 5287 H 475.622 -1.17993 1.76611 0
M  V30 5288 H 477.885 -0.577476 0.751814 0
M  V30 5289 H 477.591 -2.581 2.38909 0
M  V30 5290 H 477.465 -3.63854 0.994491 0
M  V30 5291 H 479.852 -2.93631 0.294036 0
M  V30 5292 H 479.933 -1.89278 1.72068 0
M  V30 5293 H 479.577 -3.93711 3.20864 0
M  V30 5294 H 479.507 -4.96489 1.75517 0
M  V30 5295 H 481.998 -3.40802 1.63285 0
M  V30 5296 H 482.311 -6.67633 3.89212 0
M  V30 5297 H 480.656 -6.0077 3.49428 0
M  V30 5298 H 483.847 -4.18439 2.09825 0
M  V30 5299 H 484.02 -5.67487 3.12829 0
M  V30 5300 N 477.426 -0.562348 -1.47226 0
M  V30 5301 C 478.336 0.185466 -2.33866 0
M  V30 5302 C 479.352 0.906713 -1.48508 0
M  V30 5303 O 480.528 0.874458 -1.81425 0
M  V30 5304 C 477.593 1.19904 -3.25306 0
M  V30 5305 C 476.654 0.484669 -4.26555 0
M  V30 5306 C 475.887 1.44996 -5.13626 0
M  V30 5307 O 476.11 2.68515 -5.03245 0
M  V30 5308 O 475.044 0.971642 -5.94006 0
M  V30 5309 H 478.87 -0.525361 -2.99121 0
M  V30 5310 H 476.455 -0.322916 -1.45868 0
M  V30 5311 H 478.337 1.78399 -3.81774 0
M  V30 5312 H 477.012 1.8917 -2.62672 0
M  V30 5313 H 475.919 -0.141605 -3.73832 0
M  V30 5314 H 477.252 -0.166634 -4.91918 0
M  V30 5315 N 478.904 1.54736 -0.299062 0
M  V30 5316 C 479.814 2.27127 0.587413 0
M  V30 5317 C 480.83 1.30575 1.15005 0
M  V30 5318 O 482.006 1.63554 1.17525 0
M  V30 5319 C 479.071 2.99645 1.74395 0
M  V30 5320 C 478.132 4.11731 1.21559 0
M  V30 5321 C 477.365 4.80781 2.317 0
M  V30 5322 O 477.588 4.4918 3.51558 0
M  V30 5323 O 476.522 5.68226 1.98501 0
M  V30 5324 H 480.348 3.037 0.000250109 0
M  V30 5325 H 477.933 1.49256 -0.0655919 0
M  V30 5326 H 479.815 3.45138 2.4178 0
M  V30 5327 H 478.49 2.25969 2.31775 0
M  V30 5328 H 477.397 3.70641 0.507514 0
M  V30 5329 H 478.73 4.87379 0.687233 0
M  V30 5330 N 480.382 0.0267497 1.57577 0
M  V30 5331 C 481.798 -0.32962 1.56159 0
M  V30 5332 C 481.998 -1.73059 1.03213 0
M  V30 5333 O 481.054 -2.43233 0.677804 0
M  V30 5334 C 482.367 -0.18039 3.00158 0
M  V30 5335 C 483.915 -0.253334 3.11973 0
M  V30 5336 C 484.39 -0.132921 4.57807 0
M  V30 5337 N 485.881 -0.189979 4.6281 0
M  V30 5338 C 486.616 -0.120554 5.73273 0
M  V30 5339 N 486.112 -0.000180315 6.928 0
M  V30 5340 N 487.905 -0.174369 5.61829 0
M  V30 5341 H 480.056 0.942896 1.90324 0
M  V30 5342 H 482.319 0.3639 0.875375 0
M  V30 5343 H 482.025 0.784576 3.42837 0
M  V30 5344 H 481.899 -0.951565 3.65 0
M  V30 5345 H 484.286 -1.20876 2.69208 0
M  V30 5346 H 484.367 0.548177 2.49857 0
M  V30 5347 H 484.011 0.819073 5.01252 0
M  V30 5348 H 483.941 -0.953264 5.179 0
M  V30 5349 H 486.432 -0.283257 3.76837 0
M  V30 5350 H 486.745 0.0461666 7.72786 0
M  V30 5351 H 485.09 0.034569 6.94991 0
M  V30 5352 H 488.281 -0.266794 4.67339 0
M  V30 5353 H 488.454 -0.116802 6.47895 0
M  V30 5354 N 481.861 -1.55662 -0.24637 0
M  V30 5355 C 482.791 -1.93377 -1.30873 0
M  V30 5356 C 483.772 -0.798773 -1.50179 0
M  V30 5357 O 484.957 -1.0591 -1.62778 0
M  V30 5358 C 482.087 -2.22893 -2.66338 0
M  V30 5359 C 481.041 -3.38649 -2.61727 0
M  V30 5360 C 480.367 -3.53708 -4.00992 0
M  V30 5361 C 481.667 -4.74323 -2.18666 0
M  V30 5362 H 483.361 -2.82363 -0.995552 0
M  V30 5363 H 480.907 -1.35854 -0.477464 0
M  V30 5364 H 482.86 -2.47866 -3.40794 0
M  V30 5365 H 481.584 -1.30733 -2.99293 0
M  V30 5366 H 480.243 -3.13685 -1.89729 0
M  V30 5367 H 479.891 -2.58967 -4.31214 0
M  V30 5368 H 479.591 -4.31551 -3.98795 0
M  V30 5369 H 481.115 -3.81003 -4.77147 0
M  V30 5370 H 482.529 -4.98665 -2.82854 0
M  V30 5371 H 480.926 -5.55273 -2.27579 0
M  V30 5372 H 481.996 -4.71349 -1.13834 0
M  V30 5373 N 483.339 0.512053 -1.4905 0
M  V30 5374 C 484.249 1.64139 -1.67617 0
M  V30 5375 C 485.265 1.64786 -0.558701 0
M  V30 5376 O 486.441 1.8341 -0.832034 0
M  V30 5377 C 483.506 3.00548 -1.72835 0
M  V30 5378 C 482.567 3.10615 -2.96339 0
M  V30 5379 C 481.8 4.40517 -3.01298 0
M  V30 5380 O 482.023 5.28671 -2.14157 0
M  V30 5381 O 480.957 4.55325 -3.93653 0
M  V30 5382 H 484.783 1.51407 -2.63267 0
M  V30 5383 H 482.368 0.687131 -1.32661 0
M  V30 5384 H 484.25 3.81641 -1.78683 0
M  V30 5385 H 482.925 3.13566 -0.803616 0
M  V30 5386 H 481.832 2.2875 -2.96014 0
M  V30 5387 H 483.165 3.0252 -3.88256 0
M  V30 5388 N 484.817 1.37938 0.762283 0
M  V30 5389 C 485.749 1.30349 1.88525 0
M  V30 5390 C 486.762 0.217402 1.61342 0
M  V30 5391 O 487.951 0.474291 1.72084 0
M  V30 5392 C 485.051 0.994844 3.23969 0
M  V30 5393 C 484.224 2.18829 3.78725 0
M  V30 5394 C 483.283 1.84844 4.92665 0
M  V30 5395 O 482.309 2.57244 5.07754 0
M  V30 5396 N 483.511 0.798201 5.74986 0
M  V30 5397 H 486.276 2.27114 1.95549 0
M  V30 5398 H 483.837 1.31686 0.941825 0
M  V30 5399 H 485.829 0.748168 3.97724 0
M  V30 5400 H 484.399 0.115446 3.12387 0
M  V30 5401 H 483.619 2.59615 2.96637 0
M  V30 5402 H 484.907 2.98497 4.1204 0
M  V30 5403 H 484.305 0.197611 5.65355 0
M  V30 5404 H 482.862 0.611396 6.48926 0
M  V30 5405 N 486.295 -0.989507 1.22664 0
M  V30 5406 C 487.242 -2.08024 0.999733 0
M  V30 5407 C 488.212 -1.65909 -0.0797047 0
M  V30 5408 O 489.397 -1.90669 0.0705715 0
M  V30 5409 C 486.537 -3.40067 0.587234 0
M  V30 5410 C 485.65 -3.95505 1.73781 0
M  V30 5411 C 484.785 -5.15722 1.27297 0
M  V30 5412 C 483.824 -5.63305 2.39488 0
M  V30 5413 N 482.961 -6.74758 1.94026 0
M  V30 5414 H 487.801 -2.26768 1.9334 0
M  V30 5415 H 485.338 -1.11171 0.963297 0
M  V30 5416 H 487.296 -4.15899 0.329227 0
M  V30 5417 H 485.926 -3.21314 -0.309426 0
M  V30 5418 H 484.978 -3.16513 2.11006 0
M  V30 5419 H 486.29 -4.26797 2.58158 0
M  V30 5420 H 485.444 -5.98854 0.972546 0
M  V30 5421 H 484.183 -4.86061 0.399445 0
M  V30 5422 H 483.188 -4.78759 2.70315 0
M  V30 5423 H 484.413 -5.94988 3.27362 0
M  V30 5424 H 482.359 -6.46874 1.09041 0
M  V30 5425 H 482.276 -7.05386 2.71968 0
M  V30 5426 H 483.544 -7.61387 1.67062 0
M  V30 5427 N 487.773 -1.03688 -1.18687 0
M  V30 5428 C 488.683 -0.634908 -2.25845 0
M  V30 5429 C 489.699 0.337065 -1.70704 0
M  V30 5430 O 490.875 0.192943 -2.00474 0
M  V30 5431 C 487.94 -0.000180054 -3.467 0
M  V30 5432 C 487.001 -1.02067 -4.1699 0
M  V30 5433 C 486.234 -0.41614 -5.32075 0
M  V30 5434 O 486.457 0.778712 -5.65059 0
M  V30 5435 O 485.391 -1.14296 -5.90948 0
M  V30 5436 H 489.217 -1.52757 -2.62486 0
M  V30 5437 H 486.802 -0.807533 -1.25695 0
M  V30 5438 H 488.684 0.353342 -4.19916 0
M  V30 5439 H 487.359 0.866367 -3.11891 0
M  V30 5440 H 486.266 -1.42592 -3.45859 0
M  V30 5441 H 487.599 -1.85786 -4.5579 0
M  V30 5442 N 489.251 1.34841 -0.815825 0
M  V30 5443 C 490.183 2.28409 -0.190265 0
M  V30 5444 C 491.196 1.50705 0.615771 0
M  V30 5445 O 492.385 1.72822 0.446616 0
M  V30 5446 C 489.485 3.30441 0.752446 0
M  V30 5447 C 488.658 4.37399 -0.00922152 0
M  V30 5448 C 487.717 5.19234 0.853351 0
M  V30 5449 O 486.743 5.68404 0.300919 0
M  V30 5450 N 487.945 5.38248 2.17416 0
M  V30 5451 H 490.71 2.82732 -0.994114 0
M  V30 5452 H 488.271 1.47289 -0.672129 0
M  V30 5453 H 490.263 3.82084 1.33394 0
M  V30 5454 H 488.833 2.76565 1.45707 0
M  V30 5455 H 488.053 3.86567 -0.771979 0
M  V30 5456 H 489.341 5.05992 -0.533807 0
M  V30 5457 H 488.739 4.99961 2.6468 0
M  V30 5458 H 487.296 5.93035 2.70467 0
M  V30 5459 N 490.729 0.570148 1.46925 0
M  V30 5460 C 491.639 -0.173061 2.33961 0
M  V30 5461 C 492.655 -0.898825 1.48987 0
M  V30 5462 O 493.831 -0.864825 1.81887 0
M  V30 5463 C 490.896 -1.18177 3.25937 0
M  V30 5464 C 489.957 -0.462041 4.26806 0
M  V30 5465 C 489.19 -1.4227 5.14388 0
M  V30 5466 O 489.413 -2.65842 5.04662 0
M  V30 5467 O 488.347 -0.940127 5.94513 0
M  V30 5468 H 492.173 0.541216 2.98839 0
M  V30 5469 H 489.758 0.330647 1.45695 0
M  V30 5470 H 491.64 -1.76372 3.82715 0
M  V30 5471 H 490.315 -1.87774 2.63671 0
M  V30 5472 H 489.222 0.161429 3.73752 0
M  V30 5473 H 490.555 0.192719 4.91823 0
M  V30 5474 N 492.207 -1.54576 0.307264 0
M  V30 5475 C 493.137 -2.26708 -0.55907 0
M  V30 5476 C 494.118 -1.26893 -1.1328 0
M  V30 5477 O 495.303 -1.55677 -1.16097 0
M  V30 5478 C 492.433 -3.01259 -1.72801 0
M  V30 5479 C 491.387 -4.08275 -1.28435 0
M  V30 5480 C 490.713 -4.70575 -2.53895 0
M  V30 5481 C 492.013 -5.2068 -0.411038 0
M  V30 5482 H 493.707 -2.9937 0.042576 0
M  V30 5483 H 491.253 -1.43983 0.0219173 0
M  V30 5484 H 493.206 -3.50444 -2.34023 0
M  V30 5485 H 491.93 -2.26187 -2.356 0
M  V30 5486 H 490.589 -3.59949 -0.695161 0
M  V30 5487 H 490.237 -3.92136 -3.15021 0
M  V30 5488 H 489.937 -5.42854 -2.24908 0
M  V30 5489 H 491.461 -5.22527 -3.15908 0
M  V30 5490 H 492.875 -5.65721 -0.929097 0
M  V30 5491 H 491.272 -5.99716 -0.214664 0
M  V30 5492 H 492.342 -4.81629 0.562287 0
M  V30 5493 N 493.685 -0.035106 -1.57561 0
M  V30 5494 C 494.925 0.646316 -1.93913 0
M  V30 5495 C 495.289 1.68947 -0.912185 0
M  V30 5496 O 496.49 2.42381 -1.1621 0
M  V30 5497 C 494.761 1.24136 -3.35149 0
M  V30 5498 S 496.32 1.94302 -3.93436 0
M  V30 5499 H 493.138 0.212642 -0.678457 0
M  V30 5500 H 495.74 -0.100203 -1.95243 0
M  V30 5501 H 494.444 0.46979 -4.07702 0
M  V30 5502 H 493.975 2.02505 -3.37276 0
M  V30 5503 H 495.99 3.22205 -3.77357 0
M  V30 5504 N 495.163 1.55791 0.238111 0
M  V30 5505 C 496.409 1.78297 0.966337 0
M  V30 5506 C 496.742 0.601903 1.84637 0
M  V30 5507 O 496.017 -0.399499 1.90353 0
M  V30 5508 C 496.3 3.10758 1.81939 0
M  V30 5509 C 496.153 4.39283 0.966958 0
M  V30 5510 C 497.472 3.39519 2.80027 0
M  V30 5511 H 494.591 0.648654 0.349882 0
M  V30 5512 H 497.233 1.88525 0.236253 0
M  V30 5513 H 495.383 3.02168 2.44185 0
M  V30 5514 H 497.055 4.59873 0.362514 0
M  V30 5515 H 495.298 4.32948 0.271669 0
M  V30 5516 H 495.969 5.28368 1.59784 0
M  V30 5517 H 498.445 3.48128 2.27917 0
M  V30 5518 H 497.321 4.33402 3.36829 0
M  V30 5519 H 497.582 2.60864 3.56934 0
M  V30 5520 N 496.642 -0.504142 1.49319 0
M  V30 5521 C 498.058 -0.835039 1.36012 0
M  V30 5522 C 498.258 -1.97674 0.390808 0
M  V30 5523 O 497.314 -2.51867 -0.178655 0
M  V30 5524 C 498.627 -1.17821 2.76656 0
M  V30 5525 C 500.175 -1.2866 2.85334 0
M  V30 5526 C 500.65 -1.66307 4.26739 0
M  V30 5527 N 502.141 -1.73362 4.29534 0
M  V30 5528 C 502.876 -2.0393 5.35911 0
M  V30 5529 N 502.372 -2.32744 6.52535 0
M  V30 5530 N 504.165 -2.05155 5.23324 0
M  V30 5531 H 496.316 0.248764 2.10938 0
M  V30 5532 H 498.579 0.0486962 0.946748 0
M  V30 5533 H 498.285 -0.412682 3.4927 0
M  V30 5534 H 498.159 -2.12239 3.11825 0
M  V30 5535 H 500.546 -2.04285 2.1296 0
M  V30 5536 H 500.627 -0.323004 2.53752 0
M  V30 5537 H 500.271 -0.91234 4.99639 0
M  V30 5538 H 500.201 -2.63761 4.55782 0
M  V30 5539 H 502.692 -1.53268 3.45424 0
M  V30 5540 H 503.005 -2.55248 7.2943 0
M  V30 5541 H 501.35 -2.30207 6.55767 0
M  V30 5542 H 504.541 -1.82119 4.3122 0
M  V30 5543 H 504.714 -2.28644 6.06322 0
M  V30 5544 N 498.12 -1.38341 -0.754957 0
M  V30 5545 C 499.03 -1.3769 -1.89944 0
M  V30 5546 C 500.046 -0.274194 -1.71826 0
M  V30 5547 O 501.222 -0.512391 -1.94773 0
M  V30 5548 C 498.287 -1.19938 -3.25293 0
M  V30 5549 C 497.348 -2.40001 -3.55946 0
M  V30 5550 C 496.581 -2.23087 -4.84838 0
M  V30 5551 O 496.804 -1.22386 -5.57116 0
M  V30 5552 O 495.738 -3.11646 -5.14937 0
M  V30 5553 H 499.564 -2.3412 -1.93446 0
M  V30 5554 H 497.149 -1.19246 -0.900044 0
M  V30 5555 H 499.031 -1.12093 -4.06218 0
M  V30 5556 H 497.706 -0.265919 -3.22606 0
M  V30 5557 H 496.613 -2.53421 -2.75188 0
M  V30 5558 H 497.946 -3.31973 -3.63394 0
M  V30 5559 N 499.598 0.982988 -1.23187 0
M  V30 5560 C 501.014 1.2487 -0.993967 0
M  V30 5561 C 501.214 1.99155 0.306498 0
M  V30 5562 O 500.27 2.30688 1.0266 0
M  V30 5563 C 501.583 2.05078 -2.19917 0
M  V30 5564 C 503.131 2.18227 -2.2438 0
M  V30 5565 C 503.606 3.01825 -3.44479 0
M  V30 5566 N 505.097 3.09411 -3.44702 0
M  V30 5567 C 505.832 3.74412 -4.34285 0
M  V30 5568 N 505.328 4.41259 -5.341 0
M  V30 5569 N 507.121 3.71273 -4.22035 0
M  V30 5570 H 499.272 0.485253 -2.06783 0
M  V30 5571 H 501.535 0.276979 -0.906635 0
M  V30 5572 H 501.241 1.57867 -3.14279 0
M  V30 5573 H 501.115 3.05829 -2.2079 0
M  V30 5574 H 503.502 2.64648 -1.30559 0
M  V30 5575 H 503.583 1.16873 -2.2754 0
M  V30 5576 H 503.227 2.56102 -4.38605 0
M  V30 5577 H 503.157 4.03342 -3.38559 0
M  V30 5578 H 505.648 2.61845 -2.7248 0
M  V30 5579 H 505.961 4.88629 -5.98717 0
M  V30 5580 H 504.306 4.39975 -5.38002 0
M  V30 5581 H 507.497 3.18217 -3.43301 0
M  V30 5582 H 507.67 4.21649 -4.92053 0
M  V30 5583 N 501.076 1.04316 1.18135 0
M  V30 5584 C 502.006 0.657299 2.24058 0
M  V30 5585 C 502.987 -0.340678 1.66654 0
M  V30 5586 O 504.172 -0.220223 1.92947 0
M  V30 5587 C 501.302 0.0220715 3.47293 0
M  V30 5588 C 500.256 0.943857 4.17463 0
M  V30 5589 C 499.582 0.172973 5.3442 0
M  V30 5590 C 500.882 2.26409 4.70677 0
M  V30 5591 H 502.576 1.5428 2.56589 0
M  V30 5592 H 500.122 0.743263 1.23335 0
M  V30 5593 H 502.075 -0.259607 4.206 0
M  V30 5594 H 500.799 -0.898323 3.14003 0
M  V30 5595 H 499.458 1.20996 3.46057 0
M  V30 5596 H 499.106 -0.749907 4.97379 0
M  V30 5597 H 498.806 0.787098 5.82304 0
M  V30 5598 H 500.33 -0.101628 6.10515 0
M  V30 5599 H 501.744 2.04294 5.35665 0
M  V30 5600 H 500.141 2.8314 5.29105 0
M  V30 5601 H 501.211 2.90883 3.87962 0
M  V30 5602 N 502.554 -1.34406 0.822964 0
M  V30 5603 C 503.517 -2.2783 0.250271 0
M  V30 5604 C 504.517 -1.50288 -0.571854 0
M  V30 5605 O 505.707 -1.69825 -0.387952 0
M  V30 5606 C 502.839 -3.34663 -0.649137 0
M  V30 5607 H 504.032 -2.79992 1.07444 0
M  V30 5608 H 501.585 -1.44539 0.594829 0
M  V30 5609 H 502.32 -2.87714 -1.49637 0
M  V30 5610 H 502.105 -3.92052 -0.0611199 0
M  V30 5611 H 503.595 -4.04349 -1.04363 0
M  V30 5612 N 504.032 -0.577932 -1.46621 0
M  V30 5613 C 504.942 0.160651 -2.34049 0
M  V30 5614 C 505.958 0.890911 -1.49462 0
M  V30 5615 O 507.134 0.855166 -1.82343 0
M  V30 5616 C 504.199 1.16447 -3.26559 0
M  V30 5617 C 503.26 0.4394 -4.27045 0
M  V30 5618 C 502.493 1.3954 -5.15135 0
M  V30 5619 O 502.716 2.63162 -5.06065 0
M  V30 5620 O 501.65 0.908585 -5.95003 0
M  V30 5621 H 505.476 -0.557057 -2.98547 0
M  V30 5622 H 503.061 -0.338369 -1.45518 0
M  V30 5623 H 504.943 1.7434 -3.83645 0
M  V30 5624 H 503.618 1.86373 -2.64663 0
M  V30 5625 H 502.525 -0.181247 -3.73661 0
M  V30 5626 H 503.858 -0.218799 -4.91713 0
M  V30 5627 N 505.51 1.54411 -0.315457 0
M  V30 5628 C 506.787 1.92562 0.343398 0
M  V30 5629 C 507.167 1.24423 1.70535 0
M  V30 5630 O 506.515 0.385051 2.25232 0
M  V30 5631 C 506.725 3.46168 0.443687 0
M  V30 5632 C 508.073 4.18659 0.707783 0
M  V30 5633 O 509.097 3.52281 0.52693 0
M  V30 5634 O 507.956 5.36198 1.05612 0
M  V30 5635 H 505.05 0.80379 0.194552 0
M  V30 5636 H 507.596 1.65738 -0.364577 0
M  V30 5637 H 506.368 3.8792 -0.513172 0
M  V30 5638 H 505.991 3.79073 1.19956 0
M  V30 5639 N 506.988 0.0434614 1.5754 0
M  V30 5640 C 507.935 -0.93356 2.11077 0
M  V30 5641 C 508.905 -1.31383 1.01626 0
M  V30 5642 O 510.09 -1.40465 1.29129 0
M  V30 5643 C 507.23 -2.20578 2.65404 0
M  V30 5644 C 506.343 -1.88068 3.88914 0
M  V30 5645 C 505.478 -3.09691 4.31584 0
M  V30 5646 C 504.517 -2.73067 5.47815 0
M  V30 5647 N 503.654 -3.87359 5.85574 0
M  V30 5648 H 508.494 -0.470118 2.94268 0
M  V30 5649 H 506.031 -0.220434 1.45439 0
M  V30 5650 H 507.989 -2.95011 2.94999 0
M  V30 5651 H 506.619 -2.64513 1.85021 0
M  V30 5652 H 505.671 -1.03816 3.6596 0
M  V30 5653 H 506.983 -1.57104 4.73413 0
M  V30 5654 H 506.137 -3.92431 4.62691 0
M  V30 5655 H 504.876 -3.43827 3.45882 0
M  V30 5656 H 503.881 -1.88742 5.16388 0
M  V30 5657 H 505.106 -2.40131 6.35227 0
M  V30 5658 H 503.052 -4.21311 5.02825 0
M  V30 5659 H 502.969 -3.60068 6.64746 0
M  V30 5660 H 504.237 -4.70761 6.21292 0
M  V30 5661 N 508.466 -1.55915 -0.229846 0
M  V30 5662 C 509.396 -1.94754 -1.28815 0
M  V30 5663 C 510.377 -0.814657 -1.49323 0
M  V30 5664 O 511.562 -1.07631 -1.61645 0
M  V30 5665 C 508.692 -2.25705 -2.63959 0
M  V30 5666 C 507.646 -3.41406 -2.5812 0
M  V30 5667 C 506.972 -3.57941 -3.97218 0
M  V30 5668 C 508.272 -4.76616 -2.13623 0
M  V30 5669 H 509.966 -2.83404 -0.965547 0
M  V30 5670 H 507.512 -1.36353 -0.463028 0
M  V30 5671 H 509.465 -2.51467 -3.38146 0
M  V30 5672 H 508.189 -1.339 -2.9789 0
M  V30 5673 H 506.848 -3.1568 -1.86391 0
M  V30 5674 H 506.496 -2.63526 -4.28443 0
M  V30 5675 H 506.196 -4.35757 -3.94195 0
M  V30 5676 H 507.72 -3.86042 -4.73079 0
M  V30 5677 H 509.134 -5.01637 -2.77549 0
M  V30 5678 H 507.531 -5.57655 -2.21677 0
M  V30 5679 H 508.601 -4.7253 -1.08829 0
M  V30 5680 N 509.944 0.496216 -1.49584 0
M  V30 5681 C 510.907 1.57952 -1.66084 0
M  V30 5682 C 511.907 1.51729 -0.53244 0
M  V30 5683 O 513.097 1.54796 -0.79899 0
M  V30 5684 C 510.229 2.97604 -1.66268 0
M  V30 5685 H 511.422 1.44649 -2.6271 0
M  V30 5686 H 508.975 0.7208 -1.38687 0
M  V30 5687 H 509.71 3.16378 -0.712432 0
M  V30 5688 H 509.495 3.03528 -2.4822 0
M  V30 5689 H 510.985 3.76301 -1.81073 0
M  V30 5690 N 511.423 1.38739 0.74761 0
M  V30 5691 C 512.839 1.20067 1.05148 0
M  V30 5692 C 513.039 0.0534835 2.01429 0
M  V30 5693 O 512.095 -0.59886 2.45296 0
M  V30 5694 C 513.408 2.52957 1.62584 0
M  V30 5695 C 514.956 2.59692 1.74726 0
M  V30 5696 C 515.431 3.92772 2.35573 0
M  V30 5697 N 516.922 3.94343 2.42997 0
M  V30 5698 C 517.657 4.9408 2.90985 0
M  V30 5699 N 517.153 6.04214 3.38965 0
M  V30 5700 N 518.946 4.81466 2.9008 0
M  V30 5701 H 511.097 2.12121 0.108808 0
M  V30 5702 H 513.36 0.941491 0.110899 0
M  V30 5703 H 513.066 3.37389 0.993051 0
M  V30 5704 H 512.94 2.71779 2.61565 0
M  V30 5705 H 515.327 1.75651 2.3713 0
M  V30 5706 H 515.408 2.44731 0.744326 0
M  V30 5707 H 515.052 4.77238 1.738 0
M  V30 5708 H 514.982 4.05046 3.36519 0
M  V30 5709 H 517.473 3.14799 2.0907 0
M  V30 5710 H 517.786 6.76241 3.74056 0
M  V30 5711 H 516.131 6.07825 3.37007 0
M  V30 5712 H 519.322 3.94535 2.51912 0
M  V30 5713 H 519.495 5.59344 3.27166 0
M  V30 5714 N 512.901 -0.976442 1.23707 0
M  V30 5715 C 513.864 -2.0511 1.02287 0
M  V30 5716 C 514.864 -1.60791 -0.0167195 0
M  V30 5717 O 516.054 -1.72761 0.223408 0
M  V30 5718 C 513.186 -3.36458 0.548507 0
M  V30 5719 H 514.379 -2.25545 1.9766 0
M  V30 5720 H 511.932 -1.15042 1.05806 0
M  V30 5721 H 512.667 -3.21713 -0.408818 0
M  V30 5722 H 512.452 -3.69967 1.29874 0
M  V30 5723 H 513.942 -4.15489 0.419406 0
M  V30 5724 N 514.379 -1.04941 -1.1758 0
M  V30 5725 C 515.289 -0.658826 -2.25159 0
M  V30 5726 C 516.305 0.318941 -1.71052 0
M  V30 5727 O 517.481 0.171669 -2.00667 0
M  V30 5728 C 514.546 -0.0369522 -3.4668 0
M  V30 5729 C 513.607 -1.06484 -4.15884 0
M  V30 5730 C 512.84 -0.472551 -5.31604 0
M  V30 5731 O 513.063 0.718736 -5.65854 0
M  V30 5732 O 511.997 -1.20557 -5.89703 0
M  V30 5733 H 515.823 -1.55533 -2.60851 0
M  V30 5734 H 513.408 -0.820819 -1.24832 0
M  V30 5735 H 515.29 0.308784 -4.20267 0
M  V30 5736 H 513.965 0.833238 -3.12792 0
M  V30 5737 H 512.872 -1.46253 -3.44327 0
M  V30 5738 H 514.205 -1.9061 -4.53794 0
M  V30 5739 N 515.857 1.33968 -0.830081 0
M  V30 5740 C 516.805 2.31301 -0.245435 0
M  V30 5741 C 517.799 1.57734 0.617762 0
M  V30 5742 O 519.005 1.72674 0.508303 0
M  V30 5743 H 515.38 0.749552 -0.0606316 0
M  V30 5744 H 517.351 2.78129 -1.08105 0
M  V30 5745 C 516.1 3.42961 0.572084 0
M  V30 5746 H 515.423 3.99714 -0.0828118 0
M  V30 5747 H 516.863 4.13286 0.94715 0
M  V30 5748 C 515.322 2.88043 1.74737 0
M  V30 5749 O 515.852 2.83508 2.8458 0
M  V30 5750 N 514.058 2.44768 1.56642 0
M  V30 5751 H 513.605 2.48656 0.672901 0
M  V30 5752 H 513.563 2.08375 2.3543 0
M  V30 5753 N 517.335 0.585699 1.46312 0
M  V30 5754 C 518.265 -0.133556 2.33118 0
M  V30 5755 C 519.246 -0.880707 1.45525 0
M  V30 5756 O 520.431 -0.855579 1.74337 0
M  V30 5757 C 517.561 -1.14585 3.27853 0
M  V30 5758 C 516.515 -0.513341 4.2491 0
M  V30 5759 C 515.841 -1.63231 5.09175 0
M  V30 5760 C 517.141 0.551413 5.19381 0
M  V30 5761 H 518.835 0.59121 2.93505 0
M  V30 5762 H 516.381 0.285761 1.41136 0
M  V30 5763 H 518.334 -1.65741 3.87438 0
M  V30 5764 H 517.058 -1.90093 2.65579 0
M  V30 5765 H 515.717 -0.0228349 3.66593 0
M  V30 5766 H 515.365 -2.37713 4.43285 0
M  V30 5767 H 515.065 -1.21473 5.74907 0
M  V30 5768 H 516.589 -2.14658 5.71624 0
M  V30 5769 H 518.003 0.124804 5.73164 0
M  V30 5770 H 516.4 0.889486 5.93471 0
M  V30 5771 H 517.47 1.43655 4.63132 0
M  V30 5772 N 518.813 -1.54241 0.323641 0
M  V30 5773 C 519.743 -2.27289 -0.534993 0
M  V30 5774 C 520.724 -1.28087 -1.11927 0
M  V30 5775 O 521.909 -1.56899 -1.14439 0
M  V30 5776 C 519.039 -3.03075 -1.69596 0
M  V30 5777 C 517.993 -4.09614 -1.24098 0
M  V30 5778 C 517.319 -4.73242 -2.4889 0
M  V30 5779 C 518.619 -5.21087 -0.355789 0
M  V30 5780 H 520.313 -2.99308 0.0743257 0
M  V30 5781 H 517.859 -1.43952 0.0371874 0
M  V30 5782 H 519.812 -3.52907 -2.30293 0
M  V30 5783 H 518.536 -2.28673 -2.33187 0
M  V30 5784 H 517.195 -3.60666 -0.656945 0
M  V30 5785 H 516.843 -3.95455 -3.10845 0
M  V30 5786 H 516.543 -5.45209 -2.19138 0
M  V30 5787 H 518.067 -5.25848 -3.10348 0
M  V30 5788 H 519.481 -5.66675 -0.869042 0
M  V30 5789 H 517.878 -5.9991 -0.151045 0
M  V30 5790 H 518.948 -4.81005 0.613339 0
M  V30 5791 N 520.291 -0.0518155 -1.57515 0
M  V30 5792 C 521.238 0.922352 -2.11569 0
M  V30 5793 C 522.208 1.30842 -1.02321 0
M  V30 5794 O 523.393 1.39778 -1.29872 0
M  V30 5795 C 520.533 2.19167 -2.6657 0
M  V30 5796 C 519.646 1.86003 -3.89906 0
M  V30 5797 C 518.781 3.07398 -4.33221 0
M  V30 5798 C 517.82 2.70158 -5.49255 0
M  V30 5799 N 516.957 3.84248 -5.8762 0
M  V30 5800 H 521.797 0.454506 -2.94514 0
M  V30 5801 H 519.334 0.212718 -1.45554 0
M  V30 5802 H 521.292 2.93443 -2.96559 0
M  V30 5803 H 519.922 2.63528 -1.86421 0
M  V30 5804 H 518.974 1.01874 -3.66505 0
M  V30 5805 H 520.286 1.54592 -4.74239 0
M  V30 5806 H 519.44 3.89972 -4.64765 0
M  V30 5807 H 518.179 3.41988 -3.477 0
M  V30 5808 H 517.184 1.86001 -5.17382 0
M  V30 5809 H 518.409 2.36759 -6.36492 0
M  V30 5810 H 516.355 4.18638 -5.05053 0
M  V30 5811 H 516.272 3.56538 -6.66646 0
M  V30 5812 H 517.54 4.6746 -6.2378 0
M  V30 5813 N 521.769 1.56035 0.221574 0
M  V30 5814 C 522.717 1.93269 1.29421 0
M  V30 5815 C 523.711 0.814727 1.48521 0
M  V30 5816 O 524.917 0.999559 1.49696 0
M  V30 5817 H 521.292 0.614188 0.43391 0
M  V30 5818 H 523.263 2.82773 0.952987 0
M  V30 5819 C 522.012 2.26573 2.63742 0
M  V30 5820 H 521.335 3.12112 2.49853 0
M  V30 5821 H 522.775 2.5651 3.37607 0
M  V30 5822 C 521.234 1.09086 3.1875 0
M  V30 5823 O 521.764 0.351985 4.00155 0
M  V30 5824 N 519.97 0.874693 2.77124 0
M  V30 5825 H 519.517 1.47726 2.11033 0
M  V30 5826 H 519.475 0.0903349 3.1427 0
M  V30 5827 N 523.247 -0.488276 1.49845 0
M  V30 5828 C 524.477 -1.26344 1.63465 0
M  V30 5829 C 524.885 -1.86637 0.310379 0
M  V30 5830 O 524.228 -1.69184 -0.715712 0
M  V30 5831 C 524.29 -2.42407 2.65479 0
M  V30 5832 C 523.954 -2.02886 4.09495 0
M  V30 5833 C 524.951 -1.56124 4.95904 0
M  V30 5834 C 522.636 -2.12131 4.55308 0
M  V30 5835 C 524.63 -1.19129 6.26169 0
M  V30 5836 C 522.317 -1.74747 5.85582 0
M  V30 5837 C 523.315 -1.28322 6.70837 0
M  V30 5838 O 523.003 -0.914491 7.98682 0
M  V30 5839 H 522.735 -0.388921 0.552916 0
M  V30 5840 H 525.289 -0.591288 1.96705 0
M  V30 5841 H 523.519 -3.12739 2.27445 0
M  V30 5842 H 525.208 -3.04409 2.68495 0
M  V30 5843 H 525.974 -1.48417 4.61733 0
M  V30 5844 H 521.853 -2.47217 3.89107 0
M  V30 5845 H 525.397 -0.828211 6.92666 0
M  V30 5846 H 521.294 -1.82109 6.19279 0
M  V30 5847 H 522.062 -1.04485 8.11804 0
M  V30 5848 N 524.725 -1.39134 -0.740242 0
M  V30 5849 C 525.95 -1.39518 -1.53459 0
M  V30 5850 C 526.375 0.00968883 -1.88098 0
M  V30 5851 O 525.733 0.995312 -1.51536 0
M  V30 5852 C 525.781 -2.26981 -2.802 0
M  V30 5853 O 524.885 -1.69609 -3.75908 0
M  V30 5854 H 524.226 -0.475328 -0.463637 0
M  V30 5855 H 526.756 -1.83064 -0.913717 0
M  V30 5856 H 526.766 -2.41309 -3.28989 0
M  V30 5857 H 525.441 -3.29081 -2.5432 0
M  V30 5858 H 524.018 -1.64495 -3.34658 0
M  V30 5859 N 526.204 0.969867 -1.24223 0
M  V30 5860 C 527.134 2.08191 -1.05729 0
M  V30 5861 C 528.115 1.70075 0.0290765 0
M  V30 5862 O 529.3 1.93712 -0.137583 0
M  V30 5863 C 526.43 3.40991 -0.658995 0
M  V30 5864 C 525.384 3.93054 -1.69389 0
M  V30 5865 C 524.71 5.22171 -1.15072 0
M  V30 5866 C 526.01 4.21137 -3.08935 0
M  V30 5867 H 527.704 2.23921 -1.98746 0
M  V30 5868 H 525.25 1.07602 -0.956967 0
M  V30 5869 H 527.203 4.18221 -0.51662 0
M  V30 5870 H 525.927 3.25155 0.30686 0
M  V30 5871 H 524.586 3.17977 -1.82444 0
M  V30 5872 H 524.234 5.02694 -0.175539 0
M  V30 5873 H 523.934 5.57973 -1.84229 0
M  V30 5874 H 525.458 6.02013 -1.02042 0
M  V30 5875 H 526.872 4.8908 -2.99121 0
M  V30 5876 H 525.269 4.68163 -3.75425 0
M  V30 5877 H 526.339 3.27996 -3.57137 0
M  V30 5878 N 527.682 1.05563 1.17022 0
M  V30 5879 C 528.612 0.681026 2.23348 0
M  V30 5880 C 529.593 -0.322983 1.67005 0
M  V30 5881 O 530.778 -0.199746 1.9317 0
M  V30 5882 C 527.908 0.0589053 3.4725 0
M  V30 5883 C 526.862 0.988082 4.16438 0
M  V30 5884 C 526.188 0.229646 5.34207 0
M  V30 5885 C 527.488 2.31388 4.68249 0
M  V30 5886 H 529.182 1.56993 2.54938 0
M  V30 5887 H 526.728 0.756302 1.2254 0
M  V30 5888 H 528.681 -0.214982 4.20851 0
M  V30 5889 H 527.405 -0.864968 3.14938 0
M  V30 5890 H 526.064 1.24659 3.44754 0
M  V30 5891 H 525.712 -0.697111 4.98146 0
M  V30 5892 H 525.412 0.848815 5.81437 0
M  V30 5893 H 526.936 -0.0368694 6.10589 0
M  V30 5894 H 528.35 2.09964 5.33468 0
M  V30 5895 H 526.747 2.88736 5.26072 0
M  V30 5896 H 527.817 2.94982 3.84855 0
M  V30 5897 N 529.16 -1.33526 0.837174 0
M  V30 5898 C 530.107 -2.29248 0.267169 0
M  V30 5899 C 531.077 -1.54252 -0.616071 0
M  V30 5900 O 532.262 -1.82559 -0.554699 0
M  V30 5901 C 529.402 -3.40638 -0.553152 0
M  V30 5902 C 528.515 -4.30548 0.353921 0
M  V30 5903 C 527.65 -5.29051 -0.477339 0
M  V30 5904 C 526.689 -6.106 0.42823 0
M  V30 5905 N 525.826 -7.01152 -0.364801 0
M  V30 5906 H 530.666 -2.77398 1.08877 0
M  V30 5907 H 528.203 -1.36496 0.54838 0
M  V30 5908 H 530.161 -4.03921 -1.04422 0
M  V30 5909 H 528.791 -2.93685 -1.33973 0
M  V30 5910 H 527.843 -3.68001 0.963289 0
M  V30 5911 H 529.155 -4.87631 1.04964 0
M  V30 5912 H 528.309 -5.97853 -1.0323 0
M  V30 5913 H 527.048 -4.72541 -1.2065 0
M  V30 5914 H 526.053 -5.40718 0.995219 0
M  V30 5915 H 527.278 -6.69193 1.15573 0
M  V30 5916 H 525.224 -6.47092 -1.07738 0
M  V30 5917 H 525.141 -7.5551 0.272238 0
M  V30 5918 H 526.409 -7.74263 -0.902054 0
M  V30 5919 N 530.638 -0.59345 -1.46 0
M  V30 5920 C 531.548 0.135817 -2.34207 0
M  V30 5921 C 532.564 0.875008 -1.50398 0
M  V30 5922 O 533.74 0.835778 -1.83239 0
M  V30 5923 C 530.805 1.12977 -3.27776 0
M  V30 5924 C 529.866 0.394081 -4.27487 0
M  V30 5925 C 529.099 1.34068 -5.16586 0
M  V30 5926 O 529.322 2.5778 -5.08828 0
M  V30 5927 O 528.256 0.845426 -5.95933 0
M  V30 5928 H 532.082 -0.588691 -2.9794 0
M  V30 5929 H 529.667 -0.353784 -1.45151 0
M  V30 5930 H 531.549 1.70261 -3.85473 0
M  V30 5931 H 530.224 1.83556 -2.66625 0
M  V30 5932 H 529.131 -0.220869 -3.73447 0
M  V30 5933 H 530.464 -0.270939 -4.91454 0
M  V30 5934 N 532.116 1.54067 -0.331816 0
M  V30 5935 C 533.532 1.59587 0.0205388 0
M  V30 5936 C 533.732 1.34813 1.49759 0
M  V30 5937 O 532.788 1.13661 2.25471 0
M  V30 5938 C 534.101 2.97959 -0.405103 0
M  V30 5939 C 535.649 3.10964 -0.356454 0
M  V30 5940 C 536.124 4.51694 -0.757384 0
M  V30 5941 N 537.615 4.57709 -0.71111 0
M  V30 5942 C 538.35 5.64729 -0.993427 0
M  V30 5943 N 537.846 6.79652 -1.3433 0
M  V30 5944 N 539.639 5.54546 -0.918442 0
M  V30 5945 H 531.79 1.68426 -1.29407 0
M  V30 5946 H 534.053 0.78819 -0.526745 0
M  V30 5947 H 533.759 3.21115 -1.43451 0
M  V30 5948 H 533.633 3.76524 0.225692 0
M  V30 5949 H 536.02 2.87538 0.663763 0
M  V30 5950 H 536.101 2.34484 -1.02229 0
M  V30 5951 H 535.745 4.75853 -1.77555 0
M  V30 5952 H 535.675 5.26555 -0.0691444 0
M  V30 5953 H 538.166 3.75176 -0.452883 0
M  V30 5954 H 538.479 7.57221 -1.54388 0
M  V30 5955 H 536.824 6.81128 -1.38164 0
M  V30 5956 H 540.015 4.63641 -0.644536 0
M  V30 5957 H 540.188 6.37861 -1.14181 0
M  V30 5958 N 533.594 0.0601682 1.57485 0
M  V30 5959 C 534.541 -0.91112 2.12055 0
M  V30 5960 C 535.511 -1.30298 1.03013 0
M  V30 5961 O 536.696 -1.39087 1.30612 0
M  V30 5962 C 533.836 -2.1775 2.67729 0
M  V30 5963 C 532.949 -1.83933 3.90887 0
M  V30 5964 C 532.084 -3.05096 4.34845 0
M  V30 5965 C 531.123 -2.67241 5.5068 0
M  V30 5966 N 530.26 -3.81127 5.8965 0
M  V30 5967 H 535.1 -0.43888 2.9475 0
M  V30 5968 H 532.637 -0.204995 1.45665 0
M  V30 5969 H 534.595 -2.91866 2.98111 0
M  V30 5970 H 533.225 -2.62535 1.87816 0
M  V30 5971 H 532.277 -0.999287 3.6704 0
M  V30 5972 H 533.589 -1.52074 4.75052 0
M  V30 5973 H 532.743 -3.87502 4.66827 0
M  V30 5974 H 531.482 -3.40139 3.49509 0
M  V30 5975 H 530.487 -1.83254 5.18361 0
M  V30 5976 H 531.712 -2.3338 6.37738 0
M  V30 5977 H 529.658 -4.15954 5.07266 0
M  V30 5978 H 529.575 -3.52997 6.68528 0
M  V30 5979 H 530.843 -4.64145 6.2625 0
M  V30 5980 N 535.072 -1.5615 -0.213296 0
M  V30 5981 C 536.319 -1.79546 -0.936462 0
M  V30 5982 C 536.647 -0.630337 -1.84003 0
M  V30 5983 O 535.902 0.384883 -1.91878 0
M  V30 5984 C 536.201 -3.08772 -1.79985 0
M  V30 5985 C 535.867 -4.38532 -1.04882 0
M  V30 5986 C 534.529 -4.73787 -0.841393 0
M  V30 5987 C 536.881 -5.18609 -0.51907 0
M  V30 5988 C 534.209 -5.86627 -0.0924403 0
M  V30 5989 C 536.561 -6.32229 0.216581 0
M  V30 5990 C 535.225 -6.6608 0.435191 0
M  V30 5991 H 534.495 -0.657004 -0.342676 0
M  V30 5992 H 537.142 -1.9041 -0.204051 0
M  V30 5993 H 535.447 -2.93065 -2.60038 0
M  V30 5994 H 537.144 -3.24077 -2.36168 0
M  V30 5995 H 533.734 -4.10855 -1.22048 0
M  V30 5996 H 537.918 -4.91801 -0.666775 0
M  V30 5997 H 533.174 -6.11338 0.087081 0
M  V30 5998 H 537.348 -6.93503 0.634538 0
M  V30 5999 H 534.975 -7.5336 1.01746 0
M  V30 6000 N 536.55 0.480323 -1.50102 0
M  V30 6001 C 537.48 1.58769 -1.71215 0
M  V30 6002 C 538.461 1.60583 -0.560997 0
M  V30 6003 O 539.646 1.76996 -0.799127 0
M  V30 6004 C 536.776 2.97148 -1.79778 0
M  V30 6005 C 535.73 3.10201 -2.94888 0
M  V30 6006 C 535.056 4.50137 -2.88584 0
M  V30 6007 C 536.356 2.88283 -4.35534 0
M  V30 6008 H 538.05 1.41354 -2.6393 0
M  V30 6009 H 535.596 0.678591 -1.27008 0
M  V30 6010 H 537.549 3.74536 -1.93133 0
M  V30 6011 H 536.273 3.15699 -0.836772 0
M  V30 6012 H 534.932 2.35244 -2.81169 0
M  V30 6013 H 534.58 4.65593 -1.90349 0
M  V30 6014 H 534.28 4.59808 -3.65856 0
M  V30 6015 H 535.804 5.29558 -3.03976 0
M  V30 6016 H 537.218 3.55427 -4.49827 0
M  V30 6017 H 535.615 3.09408 -5.14186 0
M  V30 6018 H 536.685 1.84219 -4.48544 0
M  V30 6019 N 538.028 1.39524 0.732853 0
M  V30 6020 C 539.253 1.40329 1.52717 0
M  V30 6021 C 539.678 0.000286574 1.881 0
M  V30 6022 O 539.036 -0.987262 1.52062 0
M  V30 6023 C 539.084 2.28464 2.78992 0
M  V30 6024 O 538.188 1.716 3.75003 0
M  V30 6025 H 537.529 0.47778 0.461109 0
M  V30 6026 H 540.059 1.83546 0.903996 0
M  V30 6027 H 540.069 2.43051 3.27705 0
M  V30 6028 H 538.744 3.30425 2.52572 0
M  V30 6029 H 537.321 1.66267 3.33781 0
M  V30 6030 N 539.506 -0.963266 1.24736 0
M  V30 6031 C 540.436 -2.07628 1.06832 0
M  V30 6032 C 541.417 -1.70088 -0.0200566 0
M  V30 6033 O 542.602 -1.93636 0.147854 0
M  V30 6034 C 539.732 -3.40636 0.677069 0
M  V30 6035 C 538.686 -3.9215 1.71471 0
M  V30 6036 C 538.012 -5.21553 1.1784 0
M  V30 6037 C 539.312 -4.19493 3.11164 0
M  V30 6038 H 541.006 -2.22864 1.9993 0
M  V30 6039 H 538.552 -1.07093 0.96266 0
M  V30 6040 H 540.505 -4.17941 0.538792 0
M  V30 6041 H 539.229 -3.25313 -0.289612 0
M  V30 6042 H 537.888 -3.17005 1.84128 0
M  V30 6043 H 537.536 -5.02593 0.202195 0
M  V30 6044 H 537.236 -5.56988 1.87185 0
M  V30 6045 H 538.76 -6.01463 1.05233 0
M  V30 6046 H 540.174 -4.87487 3.01711 0
M  V30 6047 H 538.571 -4.66165 3.77902 0
M  V30 6048 H 539.641 -3.26097 3.58871 0
M  V30 6049 N 540.985 -1.06182 -1.16461 0
M  V30 6050 C 541.948 -0.675723 -2.19013 0
M  V30 6051 C 542.948 0.277963 -1.58379 0
M  V30 6052 O 544.138 0.0604962 -1.74095 0
M  V30 6053 C 541.27 0.00591459 -3.40899 0
M  V30 6054 H 542.463 -1.58353 -2.54685 0
M  V30 6055 H 540.016 -0.856908 -1.30716 0
M  V30 6056 H 540.751 0.92652 -3.10783 0
M  V30 6057 H 540.536 -0.67984 -3.86161 0
M  V30 6058 H 542.026 0.26181 -4.16778 0
M  V30 6059 N 542.463 1.3308 -0.844243 0
M  V30 6060 C 543.688 2.02341 -0.455282 0
M  V30 6061 C 544.113 1.6308 0.93737 0
M  V30 6062 O 543.471 0.826118 1.61385 0
M  V30 6063 C 543.519 3.55743 -0.58988 0
M  V30 6064 O 542.623 4.1063 0.38166 0
M  V30 6065 H 541.964 0.637898 -0.184343 0
M  V30 6066 H 544.494 1.6986 -1.14056 0
M  V30 6067 H 544.504 4.05243 -0.473522 0
M  V30 6068 H 543.179 3.83662 -1.60549 0
M  V30 6069 H 541.756 3.72236 0.22241 0
M  V30 6070 N 543.941 0.601185 1.45683 0
M  V30 6071 C 544.889 -0.133955 2.32214 0
M  V30 6072 C 545.883 -0.866034 1.45589 0
M  V30 6073 O 547.089 -0.782326 1.6211 0
M  V30 6074 H 543.464 -0.0620613 0.749435 0
M  V30 6075 H 545.435 0.614389 2.92007 0
M  V30 6076 C 544.184 -1.12216 3.29094 0
M  V30 6077 H 543.507 -0.568273 3.95741 0
M  V30 6078 H 544.947 -1.60659 3.92383 0
M  V30 6079 C 543.406 -2.19251 2.55794 0
M  V30 6080 O 543.936 -3.26894 2.33459 0
M  V30 6081 N 542.142 -1.9436 2.16039 0
M  V30 6082 H 541.689 -1.06829 2.34404 0
M  V30 6083 H 541.647 -2.66181 1.67318 0
M  V30 6084 N 545.419 -1.53889 0.339982 0
M  V30 6085 C 546.83 -1.86139 -0.144671 0
M  V30 6086 C 547.181 -1.2613 -1.50285 0
M  V30 6087 O 546.306 -0.573515 -2.08662 0
M  V30 6088 C 546.901 -3.37728 -0.269285 0
M  V30 6089 C 545.46 -3.69868 -0.698168 0
M  V30 6090 C 544.607 -2.76777 0.170249 0
M  V30 6091 H 547.558 -1.48503 0.559704 0
M  V30 6092 H 547.579 -3.64331 -1.0974 0
M  V30 6093 H 547.091 -3.81375 0.719366 0
M  V30 6094 H 545.192 -3.31764 -1.69597 0
M  V30 6095 H 545.305 -4.76582 -0.490533 0
M  V30 6096 H 543.669 -2.52188 -0.356844 0
M  V30 6097 H 544.452 -3.23253 1.15597 0
M  V30 6098 N 546.897 -0.0685191 -1.57451 0
M  V30 6099 C 547.807 0.914677 -2.16034 0
M  V30 6100 C 548.823 1.32938 -1.12265 0
M  V30 6101 O 549.999 1.40275 -1.44516 0
M  V30 6102 C 547.064 2.16519 -2.70777 0
M  V30 6103 C 546.125 1.80721 -3.89408 0
M  V30 6104 C 545.358 2.9981 -4.41531 0
M  V30 6105 O 545.581 4.13727 -3.92666 0
M  V30 6106 O 544.515 2.79817 -5.32903 0
M  V30 6107 H 548.341 0.446364 -3.00402 0
M  V30 6108 H 545.926 0.154367 -1.486 0
M  V30 6109 H 547.808 2.89856 -3.05878 0
M  V30 6110 H 546.483 2.62454 -1.89471 0
M  V30 6111 H 545.39 1.04646 -3.59166 0
M  V30 6112 H 546.723 1.39571 -4.71997 0
M  V30 6113 N 548.375 1.56261 0.205012 0
M  V30 6114 C 549.305 1.96779 1.257 0
M  V30 6115 C 550.286 0.838309 1.48008 0
M  V30 6116 O 551.471 1.10189 1.59913 0
M  V30 6117 C 548.601 2.29876 2.60335 0
M  V30 6118 C 547.555 3.45469 2.52656 0
M  V30 6119 C 546.881 3.64215 3.91473 0
M  V30 6120 C 548.181 4.79954 2.06014 0
M  V30 6121 H 549.875 2.84904 0.920338 0
M  V30 6122 H 547.421 1.37072 0.441277 0
M  V30 6123 H 549.374 2.56814 3.34102 0
M  V30 6124 H 548.098 1.38622 2.95722 0
M  V30 6125 H 546.757 3.18605 1.81345 0
M  V30 6126 H 546.405 2.70309 4.24196 0
M  V30 6127 H 546.105 4.41973 3.87213 0
M  V30 6128 H 547.629 3.93519 4.66878 0
M  V30 6129 H 549.043 5.05989 2.69533 0
M  V30 6130 H 547.44 5.61111 2.12777 0
M  V30 6131 H 548.51 4.74201 1.01297 0
M  V30 6132 N 549.853 -0.472356 1.50355 0
M  V30 6133 C 550.783 -1.57859 1.72055 0
M  V30 6134 C 551.764 -1.60283 0.569505 0
M  V30 6135 O 552.949 -1.7657 0.808503 0
M  V30 6136 C 550.079 -2.96191 1.81351 0
M  V30 6137 C 549.033 -3.08633 2.96529 0
M  V30 6138 C 548.359 -4.486 2.90968 0
M  V30 6139 C 549.659 -2.85969 4.37057 0
M  V30 6140 H 551.353 -1.39953 2.64676 0
M  V30 6141 H 548.899 -0.671846 1.27367 0
M  V30 6142 H 550.852 -3.73507 1.95117 0
M  V30 6143 H 549.576 -3.15251 0.853502 0
M  V30 6144 H 548.235 -2.33749 2.82413 0
M  V30 6145 H 547.883 -4.64577 1.92815 0
M  V30 6146 H 547.583 -4.57861 3.68289 0
M  V30 6147 H 549.107 -5.27938 3.0678 0
M  V30 6148 H 550.521 -3.53036 4.51706 0
M  V30 6149 H 548.918 -3.06677 5.15819 0
M  V30 6150 H 549.988 -1.81838 4.49514 0
M  V30 6151 N 551.331 -1.39911 -0.725443 0
M  V30 6152 C 552.279 -1.39552 -1.86086 0
M  V30 6153 C 553.273 -0.277334 -1.67114 0
M  V30 6154 O 554.479 -0.447865 -1.74339 0
M  V30 6155 H 550.854 -0.435993 -0.612711 0
M  V30 6156 H 552.825 -2.35305 -1.83505 0
M  V30 6157 C 551.574 -1.26529 -3.2386 0
M  V30 6158 H 550.897 -2.11845 -3.3906 0
M  V30 6159 H 552.337 -1.30336 -4.03471 0
M  V30 6160 C 550.796 0.0254168 -3.3689 0
M  V30 6161 O 551.326 0.992048 -3.89257 0
M  V30 6162 N 549.532 0.0916528 -2.90455 0
M  V30 6163 H 549.079 -0.695675 -2.48028 0
M  V30 6164 H 549.037 0.954745 -2.99553 0
M  V30 6165 N 552.809 0.956637 -1.25245 0
M  V30 6166 C 553.739 2.07058 -1.07931 0
M  V30 6167 C 554.72 1.70096 0.0110361 0
M  V30 6168 O 555.905 1.93555 -0.158121 0
M  V30 6169 C 553.035 3.40272 -0.695124 0
M  V30 6170 C 551.989 3.91235 -1.73549 0
M  V30 6171 C 551.315 5.20921 -1.20604 0
M  V30 6172 C 552.615 4.17837 -3.13385 0
M  V30 6173 H 554.309 2.218 -2.01109 0
M  V30 6174 H 551.855 1.06581 -0.968326 0
M  V30 6175 H 553.808 4.1765 -0.560949 0
M  V30 6176 H 552.532 3.25462 0.272355 0
M  V30 6177 H 551.191 3.16025 -1.85807 0
M  V30 6178 H 550.839 5.02479 -0.228846 0
M  V30 6179 H 550.539 5.55987 -1.90136 0
M  V30 6180 H 552.063 6.00897 -1.08421 0
M  V30 6181 H 553.477 4.8588 -3.04292 0
M  V30 6182 H 551.874 4.64154 -3.80369 0
M  V30 6183 H 552.944 3.2419 -3.60595 0
M  V30 6184 N 554.287 1.06798 1.15896 0
M  V30 6185 C 555.698 0.811355 1.68149 0
M  V30 6186 C 556.049 -0.664339 1.8461 0
M  V30 6187 O 555.174 -1.51485 1.54535 0
M  V30 6188 C 555.769 1.46624 3.05429 0
M  V30 6189 C 554.328 1.25726 3.54781 0
M  V30 6190 C 553.475 1.53949 2.3064 0
M  V30 6191 H 556.426 1.23078 1.00187 0
M  V30 6192 H 556.447 0.88437 3.7008 0
M  V30 6193 H 555.959 2.54025 2.93416 0
M  V30 6194 H 554.06 0.20322 3.72045 0
M  V30 6195 H 554.173 1.97354 4.36564 0
M  V30 6196 H 552.537 0.96025 2.35905 0
M  V30 6197 H 553.32 2.6252 2.2122 0
M  V30 6198 N 555.766 -1.3263 0.851289 0
M  V30 6199 C 556.991 -2.02097 0.466006 0
M  V30 6200 C 557.416 -1.63574 -0.928709 0
M  V30 6201 O 556.774 -0.834665 -1.60944 0
M  V30 6202 C 556.822 -3.55425 0.608737 0
M  V30 6203 O 555.926 -4.10827 -0.359878 0
M  V30 6204 H 555.267 -0.636911 0.187724 0
M  V30 6205 H 557.797 -1.69253 1.14955 0
M  V30 6206 H 557.807 -4.04986 0.495006 0
M  V30 6207 H 556.482 -3.82806 1.62581 0
M  V30 6208 H 555.059 -3.72349 -0.202666 0
M  V30 6209 N 557.244 -0.608902 -1.45362 0
M  V30 6210 C 558.469 -0.10921 -2.07112 0
M  V30 6211 C 558.894 1.19779 -1.45033 0
M  V30 6212 O 558.252 1.72961 -0.543527 0
M  V30 6213 C 558.3 0.0155745 -3.60597 0
M  V30 6214 O 557.404 1.06546 -3.98399 0
M  V30 6215 H 556.745 -0.0746619 -0.659789 0
M  V30 6216 H 559.275 -0.839283 -1.86594 0
M  V30 6217 H 559.285 0.213364 -4.07442 0
M  V30 6218 H 557.96 -0.938765 -4.05167 0
M  V30 6219 H 556.537 0.844024 -3.63223 0
M  V30 6220 N 558.722 1.53707 -0.348139 0
M  V30 6221 C 559.968 2.01286 0.247332 0
M  V30 6222 C 560.301 1.23546 1.49834 0
M  V30 6223 O 559.576 0.324331 1.91777 0
M  V30 6224 C 559.859 3.55768 0.556858 0
M  V30 6225 C 559.712 4.44216 -0.706564 0
M  V30 6226 C 561.031 4.1841 1.3646 0
M  V30 6227 H 558.15 0.731677 0.0884201 0
M  V30 6228 H 560.792 1.84106 -0.469584 0
M  V30 6229 H 558.942 3.70539 1.16761 0
M  V30 6230 H 560.614 4.41274 -1.34444 0
M  V30 6231 H 558.857 4.12892 -1.33052 0
M  V30 6232 H 559.528 5.50202 -0.445186 0
M  V30 6233 H 562.004 4.07365 0.848113 0
M  V30 6234 H 560.88 5.26563 1.54992 0
M  V30 6235 H 561.141 3.7333 2.36805 0
M  V30 6236 N 560.2 0.0768682 1.57412 0
M  V30 6237 C 561.449 -0.590679 1.92857 0
M  V30 6238 C 561.762 -1.70461 0.959293 0
M  V30 6239 O 562.968 -2.43207 1.20675 0
M  V30 6240 C 561.424 -1.10204 3.42612 0
M  V30 6241 C 561.032 -0.0188447 4.47996 0
M  V30 6242 C 562.776 -1.74336 3.87049 0
M  V30 6243 C 560.683 -0.544536 5.88888 0
M  V30 6244 H 559.613 -0.224411 0.71983 0
M  V30 6245 H 562.264 0.149924 1.82887 0
M  V30 6246 H 560.646 -1.89577 3.47673 0
M  V30 6247 H 561.82 0.755936 4.54557 0
M  V30 6248 H 560.135 0.526555 4.13057 0
M  V30 6249 H 562.732 -2.14708 4.89699 0
M  V30 6250 H 563.075 -2.60537 3.24694 0
M  V30 6251 H 563.608 -1.01577 3.84613 0
M  V30 6252 H 560.347 0.280426 6.549 0
M  V30 6253 H 559.867 -1.28673 5.85836 0
M  V30 6254 H 561.546 -1.01933 6.3892 0
M  V30 6255 N 561.678 -1.56367 -0.196722 0
M  V30 6256 C 562.625 -1.94417 -1.24382 0
M  V30 6257 C 563.595 -0.804543 -1.45315 0
M  V30 6258 O 564.78 -1.06256 -1.58475 0
M  V30 6259 C 561.92 -2.28757 -2.58388 0
M  V30 6260 C 561.033 -3.55775 -2.45047 0
M  V30 6261 C 560.168 -3.79445 -3.71746 0
M  V30 6262 C 559.207 -4.99894 -3.53231 0
M  V30 6263 N 558.344 -5.19826 -4.71938 0
M  V30 6264 H 563.184 -2.83691 -0.912338 0
M  V30 6265 H 560.721 -1.40392 -0.439135 0
M  V30 6266 H 562.679 -2.46682 -3.36457 0
M  V30 6267 H 561.309 -1.42625 -2.89582 0
M  V30 6268 H 560.361 -3.45905 -1.58284 0
M  V30 6269 H 561.673 -4.44 -2.27299 0
M  V30 6270 H 560.827 -3.97601 -4.58256 0
M  V30 6271 H 559.566 -2.89546 -3.92446 0
M  V30 6272 H 558.571 -4.81662 -2.65107 0
M  V30 6273 H 559.796 -5.913 -3.33978 0
M  V30 6274 H 557.742 -4.32875 -4.92905 0
M  V30 6275 H 557.659 -6.02228 -4.57009 0
M  V30 6276 H 558.927 -5.42439 -5.59803 0
M  V30 6277 N 563.156 0.464375 -1.50603 0
M  V30 6278 C 564.103 1.56152 -1.69956 0
M  V30 6279 C 565.073 1.57046 -0.54091 0
M  V30 6280 O 566.258 1.74473 -0.772258 0
M  V30 6281 C 563.398 2.94079 -1.80586 0
M  V30 6282 C 562.511 3.02923 -3.07996 0
M  V30 6283 C 561.646 4.31806 -3.09382 0
M  V30 6284 C 560.685 4.34417 -4.31218 0
M  V30 6285 N 559.822 5.54782 -4.30304 0
M  V30 6286 H 564.662 1.38955 -2.6362 0
M  V30 6287 H 562.199 0.675482 -1.30674 0
M  V30 6288 H 564.157 3.74073 -1.8473 0
M  V30 6289 H 562.787 3.09896 -0.903556 0
M  V30 6290 H 561.839 2.1576 -3.13292 0
M  V30 6291 H 563.151 3.00712 -3.97962 0
M  V30 6292 H 562.305 5.20153 -3.12292 0
M  V30 6293 H 561.044 4.36636 -2.17257 0
M  V30 6294 H 560.049 3.44467 -4.28512 0
M  V30 6295 H 561.274 4.31273 -5.24576 0
M  V30 6296 H 559.22 5.60384 -3.41037 0
M  V30 6297 H 559.137 5.54339 -5.14047 0
M  V30 6298 H 560.405 6.45235 -4.3737 0
M  V30 6299 N 564.634 1.40294 0.718013 0
M  V30 6300 C 565.581 1.40367 1.8321 0
M  V30 6301 C 566.551 0.260952 1.64037 0
M  V30 6302 O 567.736 0.458648 1.85205 0
M  V30 6303 C 564.876 1.26965 3.20895 0
M  V30 6304 C 563.989 2.50922 3.51656 0
M  V30 6305 C 563.124 2.29981 4.78834 0
M  V30 6306 C 562.163 3.49527 5.02491 0
M  V30 6307 N 561.3 3.27796 6.20882 0
M  V30 6308 H 566.14 2.35593 1.82482 0
M  V30 6309 H 563.677 1.17012 0.891444 0
M  V30 6310 H 565.635 1.17202 4.00399 0
M  V30 6311 H 564.265 0.353591 3.20858 0
M  V30 6312 H 563.317 2.71223 2.66725 0
M  V30 6313 H 564.629 3.39913 3.65048 0
M  V30 6314 H 563.783 2.17558 5.66351 0
M  V30 6315 H 562.522 1.38411 4.67647 0
M  V30 6316 H 561.527 3.6243 4.1343 0
M  V30 6317 H 562.752 4.42021 5.15553 0
M  V30 6318 H 560.698 2.38906 6.1095 0
M  V30 6319 H 560.615 4.10351 6.34939 0
M  V30 6320 H 561.883 3.19101 7.11193 0
M  V30 6321 N 566.112 -0.949982 1.2575 0
M  V30 6322 C 567.358 -1.69766 1.10938 0
M  V30 6323 C 567.691 -1.91056 -0.348028 0
M  V30 6324 O 566.966 -1.48488 -1.25625 0
M  V30 6325 C 567.249 -3.07779 1.86933 0
M  V30 6326 C 567.102 -2.9387 3.4053 0
M  V30 6327 C 568.421 -4.07749 1.65616 0
M  V30 6328 H 565.54 -0.616144 0.404396 0
M  V30 6329 H 568.182 -1.10394 1.54639 0
M  V30 6330 H 566.332 -3.58462 1.4979 0
M  V30 6331 H 568.004 -2.50476 3.87375 0
M  V30 6332 H 566.247 -2.29686 3.68004 0
M  V30 6333 H 566.918 -3.91719 3.88922 0
M  V30 6334 H 569.394 -3.65994 1.97959 0
M  V30 6335 H 568.27 -5.02348 2.21218 0
M  V30 6336 H 568.531 -4.38029 0.598595 0
M  V30 6337 N 567.59 -1.07411 -1.15328 0
M  V30 6338 C 568.54 -0.664788 -2.18093 0
M  V30 6339 C 569.524 0.310395 -1.57878 0
M  V30 6340 O 570.716 0.124026 -1.76565 0
M  V30 6341 C 567.845 -0.0647822 -3.43239 0
M  V30 6342 C 566.931 -1.06514 -4.10506 0
M  V30 6343 N 567.322 -2.24491 -4.53252 0
M  V30 6344 C 565.62 -0.898613 -4.36853 0
M  V30 6345 C 566.321 -2.8796 -5.05424 0
M  V30 6346 N 565.297 -2.15622 -4.99007 0
M  V30 6347 H 569.099 -1.56333 -2.48872 0
M  V30 6348 H 566.613 -0.947393 -1.31902 0
M  V30 6349 H 568.61 0.246363 -4.16171 0
M  V30 6350 H 567.27 0.828866 -3.13943 0
M  V30 6351 H 568.281 -2.62205 -4.46619 0
M  V30 6352 H 564.958 -0.0579118 -4.1746 0
M  V30 6353 H 566.348 -3.88137 -5.48452 0
M  V30 6354 N 569.068 1.32177 -0.85831 0
M  V30 6355 C 570.315 1.97125 -0.463484 0
M  V30 6356 C 570.643 1.67907 0.981705 0
M  V30 6357 O 569.898 0.961717 1.70439 0
M  V30 6358 C 570.197 3.51372 -0.653658 0
M  V30 6359 C 569.863 4.00584 -2.06987 0
M  V30 6360 C 568.525 4.13733 -2.4572 0
M  V30 6361 C 570.877 4.26624 -2.99402 0
M  V30 6362 C 568.205 4.50268 -3.76132 0
M  V30 6363 C 570.557 4.64618 -4.29316 0
M  V30 6364 C 569.221 4.75975 -4.67979 0
M  V30 6365 H 568.491 0.72133 -0.169601 0
M  V30 6366 H 571.138 1.57517 -1.08907 0
M  V30 6367 H 569.443 3.91761 0.0551328 0
M  V30 6368 H 571.14 3.99655 -0.328163 0
M  V30 6369 H 567.73 3.90837 -1.75911 0
M  V30 6370 H 571.914 4.1597 -2.70708 0
M  V30 6371 H 567.17 4.57256 -4.05865 0
M  V30 6372 H 571.344 4.83722 -5.00985 0
M  V30 6373 H 568.971 5.04041 -5.69076 0
M  V30 6374 N 570.547 0.616602 1.45037 0
M  V30 6375 C 571.772 0.120192 2.07051 0
M  V30 6376 C 572.197 -1.19008 1.45666 0
M  V30 6377 O 571.555 -1.7267 0.552692 0
M  V30 6378 C 571.603 0.00354901 3.606 0
M  V30 6379 O 570.707 -1.04431 3.98958 0
M  V30 6380 H 570.048 0.0781599 0.659384 0
M  V30 6381 H 572.578 0.849167 1.86146 0
M  V30 6382 H 572.588 -0.191754 4.07549 0
M  V30 6383 H 571.263 0.960239 4.04663 0
M  V30 6384 H 569.84 -0.824749 3.63665 0
M  V30 6385 N 572.025 -1.5352 0.356285 0
M  V30 6386 C 573.273 -2.00719 -0.235837 0
M  V30 6387 C 573.594 -1.24551 -1.5004 0
M  V30 6388 O 572.864 -0.356185 -1.92635 0
M  V30 6389 H 571.444 -0.741542 -0.0901366 0
M  V30 6390 H 574.106 -1.88887 0.480378 0
M  V30 6391 H 573.202 -3.08551 -0.469357 0
M  V30 6392 N 573.503 -0.0852151 -1.57369 0
M  V30 6393 C 574.413 0.891712 -2.16992 0
M  V30 6394 C 575.429 1.3174 -1.13669 0
M  V30 6395 O 576.605 1.38735 -1.45995 0
M  V30 6396 C 573.67 2.13635 -2.73059 0
M  V30 6397 C 572.731 1.7658 -3.91303 0
M  V30 6398 C 571.964 2.95111 -4.44686 0
M  V30 6399 O 572.187 4.09539 -3.97032 0
M  V30 6400 O 571.121 2.74149 -5.35841 0
M  V30 6401 H 574.947 0.414477 -3.00858 0
M  V30 6402 H 572.532 0.138598 -1.48756 0
M  V30 6403 H 574.414 2.86595 -3.08935 0
M  V30 6404 H 573.089 2.6043 -1.92244 0
M  V30 6405 H 571.996 1.00831 -3.60255 0
M  V30 6406 H 573.329 1.34557 -4.7345 0
M  V30 6407 N 574.981 1.5647 0.188427 0
M  V30 6408 C 576.206 1.85486 0.927891 0
M  V30 6409 C 576.631 0.669575 1.75779 0
M  V30 6410 O 575.989 -0.381573 1.77239 0
M  V30 6411 C 576.037 3.12784 1.7944 0
M  V30 6412 O 575.141 2.93805 2.894 0
M  V30 6413 H 574.482 0.610585 0.260925 0
M  V30 6414 H 577.012 2.037 0.191729 0
M  V30 6415 H 577.022 3.43749 2.19774 0
M  V30 6416 H 575.697 3.98671 1.18468 0
M  V30 6417 H 574.274 2.74153 2.52774 0
M  V30 6418 N 576.459 -0.456382 1.50847 0
M  V30 6419 C 577.406 -1.55249 1.70782 0
M  V30 6420 C 578.376 -1.56757 0.549231 0
M  V30 6421 O 579.561 -1.74061 0.7815 0
M  V30 6422 C 576.701 -2.93118 1.82143 0
M  V30 6423 C 575.814 -3.01285 3.09598 0
M  V30 6424 C 574.949 -4.30159 3.11667 0
M  V30 6425 C 573.988 -4.32124 4.33515 0
M  V30 6426 N 573.125 -5.52492 4.3324 0
M  V30 6427 H 577.965 -1.37555 2.64353 0
M  V30 6428 H 575.502 -0.668543 1.3103 0
M  V30 6429 H 577.46 -3.73088 1.86711 0
M  V30 6430 H 576.09 -3.09413 0.919978 0
M  V30 6431 H 575.142 -2.14096 3.14431 0
M  V30 6432 H 576.454 -2.98597 3.99551 0
M  V30 6433 H 575.608 -5.18489 3.15046 0
M  V30 6434 H 574.347 -4.35477 2.1957 0
M  V30 6435 H 573.352 -3.42189 4.30333 0
M  V30 6436 H 574.577 -4.28485 5.26856 0
M  V30 6437 H 572.523 -5.58567 3.44004 0
M  V30 6438 H 572.44 -5.51605 5.16979 0
M  V30 6439 H 573.708 -6.42906 4.40786 0
M  V30 6440 N 577.937 -1.40673 -0.710563 0
M  V30 6441 C 578.847 -1.43663 -1.85467 0
M  V30 6442 C 579.863 -0.328721 -1.70867 0
M  V30 6443 O 581.039 -0.574098 -1.93044 0
M  V30 6444 C 578.104 -1.30226 -3.21313 0
M  V30 6445 C 577.165 -2.51204 -3.48131 0
M  V30 6446 C 576.398 -2.38398 -4.77495 0
M  V30 6447 O 576.621 -1.40048 -5.5294 0
M  V30 6448 O 575.555 -3.2787 -5.04762 0
M  V30 6449 H 579.381 -2.40156 -1.859 0
M  V30 6450 H 576.966 -1.22049 -0.861652 0
M  V30 6451 H 578.848 -1.2496 -4.02446 0
M  V30 6452 H 577.523 -0.368419 -3.21597 0
M  V30 6453 H 576.43 -2.62048 -2.66987 0
M  V30 6454 H 577.763 -3.43366 -3.52648 0
M  V30 6455 N 579.415 0.9433 -1.26252 0
M  V30 6456 C 580.363 2.06302 -1.07434 0
M  V30 6457 C 581.357 1.694 -0.00189471 0
M  V30 6458 O 582.563 1.79302 -0.158408 0
M  V30 6459 H 578.938 0.675453 -0.330556 0
M  V30 6460 H 580.909 2.19326 -2.02333 0
M  V30 6461 C 579.658 3.40125 -0.721817 0
M  V30 6462 H 578.981 3.68996 -1.5389 0
M  V30 6463 H 580.421 4.19295 -0.629922 0
M  V30 6464 C 578.88 3.31993 0.572902 0
M  V30 6465 O 579.41 3.67945 1.61182 0
M  V30 6466 N 577.616 2.85099 0.562748 0
M  V30 6467 H 577.163 2.5604 -0.283092 0
M  V30 6468 H 577.121 2.80041 1.42915 0
M  V30 6469 N 580.893 1.08022 1.14757 0
M  V30 6470 C 582.142 0.802468 1.8505 0
M  V30 6471 C 582.455 -0.674061 1.83619 0
M  V30 6472 O 583.661 -1.06683 2.49662 0
M  V30 6473 C 582.117 1.38551 3.32162 0
M  V30 6474 C 581.725 2.89354 3.42021 0
M  V30 6475 C 583.469 1.18608 4.07594 0
M  V30 6476 C 581.376 3.40815 4.83321 0
M  V30 6477 H 580.306 0.296518 0.693248 0
M  V30 6478 H 582.957 1.30114 1.29393 0
M  V30 6479 H 581.339 0.814556 3.87532 0
M  V30 6480 H 582.513 3.52552 2.96722 0
M  V30 6481 H 580.828 3.08165 2.80041 0
M  V30 6482 H 583.425 1.54525 5.11885 0
M  V30 6483 H 583.768 0.125599 4.1611 0
M  V30 6484 H 584.301 1.72375 3.58513 0
M  V30 6485 H 581.04 4.46418 4.79991 0
M  V30 6486 H 580.56 2.82374 5.29174 0
M  V30 6487 H 582.239 3.37171 5.522 0
M  V30 6488 N 582.371 -1.3172 0.865308 0
M  V30 6489 C 583.304 -2.26687 0.262376 0
M  V30 6490 C 584.282 -1.50894 -0.605787 0
M  V30 6491 O 585.466 -1.79982 -0.56024 0
M  V30 6492 C 582.593 -3.3281 -0.628915 0
M  V30 6493 C 581.639 -4.26172 0.167278 0
M  V30 6494 S 582.472 -5.12797 1.54272 0
M  V30 6495 C 583.628 -6.22438 0.657427 0
M  V30 6496 H 583.861 -2.77478 1.0674 0
M  V30 6497 H 581.394 -1.39414 0.663555 0
M  V30 6498 H 583.352 -3.94426 -1.13747 0
M  V30 6499 H 582.013 -2.80782 -1.40785 0
M  V30 6500 H 581.206 -5.01392 -0.51203 0
M  V30 6501 H 580.808 -3.69029 0.607777 0
M  V30 6502 H 583.1 -6.77368 -0.133925 0
M  V30 6503 H 584.043 -6.9451 1.38061 0
M  V30 6504 H 584.451 -5.64043 0.227044 0
M  V30 6505 N 583.85 -0.624285 -1.44708 0
M  V30 6506 C 585.266 -0.289322 -1.56956 0
M  V30 6507 C 585.466 1.20773 -1.61295 0
M  V30 6508 O 584.522 1.9915 -1.55227 0
M  V30 6509 C 585.835 -0.975215 -2.84447 0
M  V30 6510 C 587.383 -0.952709 -2.98148 0
M  V30 6511 C 587.858 -1.61893 -4.28433 0
M  V30 6512 N 589.349 -1.5852 -4.35231 0
M  V30 6513 C 590.084 -2.06969 -5.34744 0
M  V30 6514 N 589.58 -2.63579 -6.40701 0
M  V30 6515 N 591.373 -1.97638 -5.26209 0
M  V30 6516 H 583.524 -1.59612 -1.40135 0
M  V30 6517 H 585.787 -0.669592 -0.671081 0
M  V30 6518 H 585.493 -2.02999 -2.87201 0
M  V30 6519 H 585.367 -0.508749 -3.73753 0
M  V30 6520 H 587.754 0.093568 -2.94952 0
M  V30 6521 H 587.835 -1.4576 -2.10209 0
M  V30 6522 H 587.479 -2.66463 -4.32389 0
M  V30 6523 H 587.409 -1.08893 -5.15218 0
M  V30 6524 H 589.899 -1.17183 -3.59272 0
M  V30 6525 H 590.213 -2.98298 -7.12908 0
M  V30 6526 H 588.558 -2.67626 -6.41406 0
M  V30 6527 H 591.749 -1.5314 -4.42341 0
M  V30 6528 H 591.922 -2.35708 -6.03611 0
M  V30 6529 N 585.328 1.53329 -0.364422 0
M  V30 6530 C 586.553 2.06132 0.229033 0
M  V30 6531 C 586.978 1.23625 1.41769 0
M  V30 6532 O 586.336 0.255038 1.79497 0
M  V30 6533 C 586.384 3.55544 0.60174 0
M  V30 6534 O 585.488 3.75771 1.69912 0
M  V30 6535 H 584.829 0.663148 0.0336213 0
M  V30 6536 H 587.359 1.97758 -0.524689 0
M  V30 6537 H 587.369 3.98549 0.873073 0
M  V30 6538 H 586.044 4.15039 -0.267421 0
M  V30 6539 H 584.621 3.44663 1.42343 0
M  V30 6540 N 586.806 0.0935595 1.57322 0
M  V30 6541 C 587.716 -0.880192 2.17462 0
M  V30 6542 C 588.732 -1.31135 1.14366 0
M  V30 6543 O 589.908 -1.37958 1.46729 0
M  V30 6544 C 586.973 -2.12184 2.74188 0
M  V30 6545 C 586.034 -1.74503 3.92234 0
M  V30 6546 C 585.267 -2.92748 4.46245 0
M  V30 6547 O 585.49 -4.07427 3.99198 0
M  V30 6548 O 584.424 -2.71303 5.37288 0
M  V30 6549 H 588.25 -0.398516 3.01074 0
M  V30 6550 H 585.835 -0.130707 1.48827 0
M  V30 6551 H 587.717 -2.84953 3.10451 0
M  V30 6552 H 586.392 -2.59407 1.93623 0
M  V30 6553 H 585.299 -0.989186 3.60785 0
M  V30 6554 H 586.632 -1.32044 4.74157 0
M  V30 6555 N 588.284 -1.56567 -0.180126 0
M  V30 6556 C 589.232 -1.96632 -1.24251 0
M  V30 6557 C 590.226 -0.853818 -1.46309 0
M  V30 6558 O 591.432 -1.0389 -1.46993 0
M  V30 6559 H 587.807 -0.625476 -0.417473 0
M  V30 6560 H 589.778 -2.85201 -0.877679 0
M  V30 6561 C 588.527 -2.33486 -2.57642 0
M  V30 6562 H 587.85 -3.18626 -2.4149 0
M  V30 6563 H 589.29 -2.65371 -3.30688 0
M  V30 6564 C 587.749 -1.17499 -3.15746 0
M  V30 6565 O 588.279 -0.457956 -3.99081 0
M  V30 6566 N 586.485 -0.94786 -2.74707 0
M  V30 6567 H 586.032 -1.53269 -2.07042 0
M  V30 6568 H 585.99 -0.173626 -3.1392 0
M  V30 6569 N 589.762 0.448376 -1.51087 0
M  V30 6570 C 590.987 1.22605 -1.6728 0
M  V30 6571 C 591.412 1.84524 -0.365045 0
M  V30 6572 O 590.77 1.6832 0.673642 0
M  V30 6573 C 590.818 2.29393 -2.78229 0
M  V30 6574 O 589.922 3.34608 -2.41063 0
M  V30 6575 H 589.263 0.359705 -0.558129 0
M  V30 6576 H 591.793 0.530903 -1.97592 0
M  V30 6577 H 591.803 2.74352 -3.01986 0
M  V30 6578 H 590.478 1.83701 -3.73131 0
M  V30 6579 H 589.055 2.95202 -2.27838 0
M  V30 6580 N 591.24 1.41047 0.703093 0
M  V30 6581 C 592.15 1.44645 1.84703 0
M  V30 6582 C 593.166 0.337778 1.7069 0
M  V30 6583 O 594.342 0.584327 1.92737 0
M  V30 6584 C 591.407 1.31928 3.20618 0
M  V30 6585 C 590.468 2.53047 3.46794 0
M  V30 6586 C 589.701 2.40927 4.76224 0
M  V30 6587 O 589.924 1.42978 5.5219 0
M  V30 6588 O 588.858 3.30543 5.03016 0
M  V30 6589 H 592.684 2.41139 1.84624 0
M  V30 6590 H 590.269 1.22504 0.855167 0
M  V30 6591 H 592.151 1.27092 4.01778 0
M  V30 6592 H 590.826 0.385469 3.21397 0
M  V30 6593 H 589.733 2.6346 2.65593 0
M  V30 6594 H 591.066 3.45231 3.50822 0
M  V30 6595 N 592.718 -0.936591 1.26751 0
M  V30 6596 C 593.943 -1.72288 1.15462 0
M  V30 6597 C 594.368 -1.85915 -0.285887 0
M  V30 6598 O 593.726 -1.35272 -1.20711 0
M  V30 6599 C 593.774 -3.10503 1.83359 0
M  V30 6600 O 592.878 -3.96745 1.1255 0
M  V30 6601 H 592.219 -0.52843 0.402067 0
M  V30 6602 H 594.749 -1.17271 1.67656 0
M  V30 6603 H 594.759 -3.60867 1.90365 0
M  V30 6604 H 593.434 -2.99901 2.88153 0
M  V30 6605 H 592.011 -3.55191 1.13551 0
M  V30 6606 N 594.196 -1.08629 -1.14182 0
M  V30 6607 C 595.128 -0.676189 -2.18998 0
M  V30 6608 C 596.141 0.277871 -1.60411 0
M  V30 6609 O 597.33 0.0651771 -1.78381 0
M  V30 6610 C 594.43 0.0254916 -3.3889 0
M  V30 6611 C 593.603 -0.948039 -4.27002 0
M  V30 6612 C 592.662 -0.281268 -5.25448 0
M  V30 6613 O 591.688 -0.926378 -5.61611 0
M  V30 6614 N 592.89 0.967923 -5.72374 0
M  V30 6615 H 595.655 -1.57792 -2.54798 0
M  V30 6616 H 593.216 -0.972665 -1.29425 0
M  V30 6617 H 595.208 0.482554 -4.01813 0
M  V30 6618 H 593.778 0.829348 -3.01398 0
M  V30 6619 H 592.998 -1.58388 -3.6098 0
M  V30 6620 H 594.286 -1.60765 -4.82734 0
M  V30 6621 H 593.684 1.51175 -5.45126 0
M  V30 6622 H 592.241 1.36844 -6.37273 0
M  V30 6623 N 595.674 1.31259 -0.872281 0
M  V30 6624 C 596.604 2.30929 -0.345554 0
M  V30 6625 C 597.585 1.60449 0.5648 0
M  V30 6626 O 598.77 1.8814 0.481335 0
M  V30 6627 C 595.9 3.44348 0.451823 0
M  V30 6628 C 594.854 4.26435 -0.365641 0
M  V30 6629 C 594.18 5.31785 0.557562 0
M  V30 6630 C 595.48 4.97159 -1.60095 0
M  V30 6631 H 597.174 2.75234 -1.17841 0
M  V30 6632 H 594.72 1.3232 -0.568094 0
M  V30 6633 H 596.673 4.13128 0.830854 0
M  V30 6634 H 595.397 2.98816 1.31821 0
M  V30 6635 H 594.056 3.59326 -0.726649 0
M  V30 6636 H 593.704 4.82502 1.4213 0
M  V30 6637 H 593.404 5.87598 0.0144878 0
M  V30 6638 H 594.928 6.03424 0.933387 0
M  V30 6639 H 596.342 5.58523 -1.29323 0
M  V30 6640 H 594.739 5.62779 -2.08327 0
M  V30 6641 H 595.809 4.24012 -2.35249 0
M  V30 6642 N 597.152 0.631951 1.44375 0
M  V30 6643 C 598.38 0.143867 2.06399 0
M  V30 6644 C 598.795 -1.18188 1.47231 0
M  V30 6645 O 598.152 -1.72511 0.595498 0
M  V30 6646 C 598.203 0.0238253 3.61492 0
M  V30 6647 O 597.924 1.29715 4.18456 0
M  V30 6648 C 599.425 -0.492856 4.40552 0
M  V30 6649 H 596.645 0.0800542 0.666207 0
M  V30 6650 H 599.189 0.866586 1.85231 0
M  V30 6651 H 597.344 -0.649338 3.81919 0
M  V30 6652 H 597.758 1.14252 5.11905 0
M  V30 6653 H 599.232 -0.525861 5.49489 0
M  V30 6654 H 599.709 -1.52006 4.12057 0
M  V30 6655 H 600.315 0.147085 4.25046 0
M  V30 6656 N 598.631 -1.53133 0.372548 0
M  V30 6657 C 599.856 -2.0625 -0.218098 0
M  V30 6658 C 600.281 -1.24375 -1.41111 0
M  V30 6659 O 599.639 -0.264554 -1.79359 0
M  V30 6660 C 599.687 -3.55858 -0.582876 0
M  V30 6661 O 598.791 -3.76667 -1.67917 0
M  V30 6662 H 598.132 -0.663317 -0.030104 0
M  V30 6663 H 600.662 -1.97477 0.535169 0
M  V30 6664 H 600.672 -3.99007 -0.851925 0
M  V30 6665 H 599.347 -4.14892 0.289428 0
M  V30 6666 H 597.924 -3.45413 -1.40513 0
M  V30 6667 N 600.109 -0.101901 -1.5727 0
M  V30 6668 C 601.056 0.854577 -2.14396 0
M  V30 6669 C 602.026 1.27521 -1.06432 0
M  V30 6670 O 603.211 1.35575 -1.34253 0
M  V30 6671 C 600.351 2.10576 -2.73408 0
M  V30 6672 C 599.464 1.73504 -3.95626 0
M  V30 6673 C 598.599 2.9346 -4.42781 0
M  V30 6674 C 597.638 2.52547 -5.57572 0
M  V30 6675 N 596.775 3.65359 -5.99547 0
M  V30 6676 H 601.615 0.360578 -2.9581 0
M  V30 6677 H 599.152 0.166303 -1.46157 0
M  V30 6678 H 601.11 2.83859 -3.05745 0
M  V30 6679 H 599.74 2.57463 -1.94711 0
M  V30 6680 H 598.792 0.901622 -3.6956 0
M  V30 6681 H 600.104 1.39426 -4.78917 0
M  V30 6682 H 599.258 3.74988 -4.76937 0
M  V30 6683 H 597.997 3.30753 -3.58404 0
M  V30 6684 H 597.002 1.69446 -5.23037 0
M  V30 6685 H 598.227 2.1639 -6.43702 0
M  V30 6686 H 596.173 4.02358 -5.18116 0
M  V30 6687 H 596.09 3.35148 -6.77652 0
M  V30 6688 H 597.358 4.47378 -6.38336 0
M  V30 6689 N 601.587 1.56661 0.17182 0
M  V30 6690 C 602.812 1.86459 0.908165 0
M  V30 6691 C 603.237 0.688181 1.75059 0
M  V30 6692 O 602.595 -0.362753 1.77634 0
M  V30 6693 C 602.643 3.14669 1.76112 0
M  V30 6694 O 601.747 2.96858 2.86268 0
M  V30 6695 H 601.088 0.613318 0.254434 0
M  V30 6696 H 603.618 2.03892 0.170113 0
M  V30 6697 H 603.628 3.46061 2.16115 0
M  V30 6698 H 602.303 3.99905 1.14233 0
M  V30 6699 H 600.88 2.76819 2.49852 0
M  V30 6700 N 603.065 -0.440357 1.51323 0
M  V30 6701 C 604.012 -1.53429 1.72419 0
M  V30 6702 C 604.982 -1.56165 0.565826 0
M  V30 6703 O 606.167 -1.73222 0.799917 0
M  V30 6704 C 603.307 -2.91169 1.85242 0
M  V30 6705 C 602.42 -2.97985 3.12777 0
M  V30 6706 C 601.555 -4.26829 3.16212 0
M  V30 6707 C 600.594 -4.27501 4.38074 0
M  V30 6708 N 599.731 -5.47866 4.39076 0
M  V30 6709 H 604.571 -1.34743 2.65797 0
M  V30 6710 H 602.108 -0.654608 1.31732 0
M  V30 6711 H 604.066 -3.71087 1.90658 0
M  V30 6712 H 602.696 -3.0842 0.952744 0
M  V30 6713 H 601.748 -2.10749 3.16685 0
M  V30 6714 H 603.06 -2.94342 4.02696 0
M  V30 6715 H 602.214 -5.15118 3.20527 0
M  V30 6716 H 600.953 -4.33124 2.24176 0
M  V30 6717 H 599.958 -3.37606 4.33938 0
M  V30 6718 H 601.183 -4.22873 5.31371 0
M  V30 6719 H 599.129 -5.54887 3.49909 0
M  V30 6720 H 599.046 -5.46091 5.22801 0
M  V30 6721 H 600.314 -6.38195 4.4758 0
M  V30 6722 N 604.543 -1.41418 -0.695603 0
M  V30 6723 C 605.783 -1.42241 -1.46788 0
M  V30 6724 C 606.147 -0.0300827 -1.91976 0
M  V30 6725 O 607.348 0.0868914 -2.6866 0
M  V30 6726 C 605.619 -2.4011 -2.6473 0
M  V30 6727 S 607.178 -2.59462 -3.53871 0
M  V30 6728 H 603.996 -0.503893 -0.50161 0
M  V30 6729 H 606.598 -1.77855 -0.811654 0
M  V30 6730 H 605.302 -3.40073 -2.29736 0
M  V30 6731 H 604.833 -2.05849 -3.35246 0
M  V30 6732 H 606.848 -1.862 -4.59939 0
M  V30 6733 N 606.021 0.929856 -1.27246 0
M  V30 6734 C 606.968 2.03017 -1.09785 0
M  V30 6735 C 607.938 1.661 0.000456744 0
M  V30 6736 O 609.123 1.90116 -0.161462 0
M  V30 6737 C 606.263 3.36878 -0.748816 0
M  V30 6738 C 605.376 3.86763 -1.92453 0
M  V30 6739 C 604.511 5.09061 -1.51758 0
M  V30 6740 C 603.55 5.51237 -2.66091 0
M  V30 6741 N 602.687 6.64732 -2.25999 0
M  V30 6742 H 607.527 2.17285 -2.03939 0
M  V30 6743 H 605.064 1.06448 -1.01524 0
M  V30 6744 H 607.022 4.13855 -0.527283 0
M  V30 6745 H 605.652 3.22424 0.155771 0
M  V30 6746 H 604.704 3.06086 -2.25867 0
M  V30 6747 H 606.016 4.13994 -2.78227 0
M  V30 6748 H 605.17 5.93532 -1.25716 0
M  V30 6749 H 603.909 4.83602 -0.630896 0
M  V30 6750 H 602.914 4.65316 -2.92849 0
M  V30 6751 H 604.139 5.78692 -3.55377 0
M  V30 6752 H 602.085 6.40935 -1.3978 0
M  V30 6753 H 602.002 6.91607 -3.05313 0
M  V30 6754 H 603.27 7.52549 -2.03199 0
M  V30 6755 N 607.499 1.09233 1.13605 0
M  V30 6756 C 608.776 0.739633 1.81077 0
M  V30 6757 C 609.156 -0.775595 1.96336 0
M  V30 6758 O 608.504 -1.69726 1.52988 0
M  V30 6759 C 608.714 1.47636 3.16235 0
M  V30 6760 C 610.062 1.64087 3.91613 0
M  V30 6761 O 611.086 1.43871 3.25852 0
M  V30 6762 O 609.945 1.97511 5.0956 0
M  V30 6763 H 607.039 0.265464 0.783236 0
M  V30 6764 H 609.585 1.19441 1.20549 0
M  V30 6765 H 608.357 2.50818 3.00344 0
M  V30 6766 H 607.98 1.01362 3.84462 0
M  V30 6767 N 608.977 -1.30795 0.87923 0
M  V30 6768 C 609.907 -2.30742 0.357796 0
M  V30 6769 C 610.888 -1.60747 -0.556283 0
M  V30 6770 O 612.073 -1.88393 -0.47135 0
M  V30 6771 C 609.203 -3.44583 -0.433555 0
M  V30 6772 C 608.157 -4.26235 0.388251 0
M  V30 6773 C 607.483 -5.32073 -0.529352 0
M  V30 6774 C 608.783 -4.96303 1.62729 0
M  V30 6775 H 610.477 -2.74605 1.19299 0
M  V30 6776 H 608.023 -1.32017 0.575104 0
M  V30 6777 H 609.976 -4.13563 -0.808934 0
M  V30 6778 H 608.7 -2.99511 -1.30234 0
M  V30 6779 H 607.359 -3.58936 0.745695 0
M  V30 6780 H 607.007 -4.83249 -1.39569 0
M  V30 6781 H 606.707 -5.87598 0.0166741 0
M  V30 6782 H 608.231 -6.0391 -0.901373 0
M  V30 6783 H 609.645 -5.5783 1.32283 0
M  V30 6784 H 608.042 -5.61666 2.11309 0
M  V30 6785 H 609.112 -4.22758 2.37494 0
M  V30 6786 N 610.455 -0.639598 -1.44038 0
M  V30 6787 C 611.402 0.0602458 -2.30721 0
M  V30 6788 C 612.372 0.828352 -1.43971 0
M  V30 6789 O 613.557 0.807693 -1.72861 0
M  V30 6790 C 610.697 1.03008 -3.29368 0
M  V30 6791 C 609.81 0.259502 -4.3122 0
M  V30 6792 C 608.945 1.22191 -5.16955 0
M  V30 6793 C 607.984 0.440978 -6.10509 0
M  V30 6794 N 607.121 1.35428 -6.88915 0
M  V30 6795 H 611.961 -0.684867 -2.90023 0
M  V30 6796 H 609.498 -0.349509 -1.42888 0
M  V30 6797 H 611.456 1.60583 -3.85057 0
M  V30 6798 H 610.086 1.74222 -2.71747 0
M  V30 6799 H 609.138 -0.432317 -3.77935 0
M  V30 6800 H 610.45 -0.348347 -4.97582 0
M  V30 6801 H 609.604 1.86873 -5.77203 0
M  V30 6802 H 608.343 1.86367 -4.50687 0
M  V30 6803 H 607.348 -0.219279 -5.49363 0
M  V30 6804 H 608.573 -0.196192 -6.78817 0
M  V30 6805 H 606.519 1.9831 -6.25307 0
M  V30 6806 H 606.436 0.800657 -7.51748 0
M  V30 6807 H 607.704 1.98967 -7.53679 0
M  V30 6808 N 611.933 1.52934 -0.380664 0
M  V30 6809 C 612.88 2.26197 0.458641 0
M  V30 6810 C 613.85 1.27462 1.06502 0
M  V30 6811 O 615.035 1.56274 1.09467 0
M  V30 6812 C 612.175 3.06571 1.58456 0
M  V30 6813 C 611.288 4.20222 1.00189 0
M  V30 6814 C 610.423 4.88007 2.09815 0
M  V30 6815 C 609.462 5.93665 1.49092 0
M  V30 6816 N 608.599 6.55081 2.52613 0
M  V30 6817 H 613.439 2.975 -0.172595 0
M  V30 6818 H 610.976 1.4678 -0.0969426 0
M  V30 6819 H 612.934 3.51455 2.24801 0
M  V30 6820 H 611.564 2.37494 2.18624 0
M  V30 6821 H 610.616 3.79714 0.228292 0
M  V30 6822 H 611.928 4.96102 0.518064 0
M  V30 6823 H 611.082 5.36151 2.83948 0
M  V30 6824 H 609.821 4.11632 2.61555 0
M  V30 6825 H 608.826 5.44868 0.7348 0
M  V30 6826 H 610.051 6.71969 0.981582 0
M  V30 6827 H 607.997 5.8155 3.03538 0
M  V30 6828 H 607.914 7.26548 2.08961 0
M  V30 6829 H 609.182 7.07871 3.26402 0
M  V30 6830 N 613.412 0.11024 1.57214 0
M  V30 6831 C 614.828 -0.24638 1.57687 0
M  V30 6832 C 615.028 -1.67344 1.12241 0
M  V30 6833 O 614.084 -2.39298 0.805783 0
M  V30 6834 C 615.397 -0.0210288 3.00693 0
M  V30 6835 C 616.945 -0.0876077 3.12877 0
M  V30 6836 C 617.42 0.10994 4.57868 0
M  V30 6837 N 618.911 0.0556135 4.63167 0
M  V30 6838 C 619.646 0.183495 5.73106 0
M  V30 6839 N 619.142 0.367058 6.91827 0
M  V30 6840 N 620.935 0.123689 5.61964 0
M  V30 6841 H 613.086 1.04246 1.85058 0
M  V30 6842 H 615.349 0.40979 0.854854 0
M  V30 6843 H 615.055 0.965203 3.38196 0
M  V30 6844 H 614.929 -0.756748 3.69531 0
M  V30 6845 H 617.316 -1.06436 2.75237 0
M  V30 6846 H 617.397 0.67985 2.466 0
M  V30 6847 H 617.041 1.08362 4.96206 0
M  V30 6848 H 616.971 -0.677397 5.22225 0
M  V30 6849 H 619.462 -0.0831062 3.77809 0
M  V30 6850 H 619.775 0.455739 7.71455 0
M  V30 6851 H 618.12 0.40292 6.93831 0
M  V30 6852 H 621.311 -0.0186928 4.68096 0
M  V30 6853 H 621.484 0.226797 6.47603 0
M  V30 6854 N 614.89 -1.56749 -0.16351 0
M  V30 6855 C 615.82 -2.00042 -1.20438 0
M  V30 6856 C 616.801 -0.877256 -1.45733 0
M  V30 6857 O 617.986 -1.1439 -1.56935 0
M  V30 6858 C 615.116 -2.36697 -2.54149 0
M  V30 6859 C 614.07 -3.52046 -2.43408 0
M  V30 6860 C 613.396 -3.74466 -3.81679 0
M  V30 6861 C 614.696 -4.85247 -1.93216 0
M  V30 6862 H 616.39 -2.87244 -0.844477 0
M  V30 6863 H 613.936 -1.38194 -0.40478 0
M  V30 6864 H 615.889 -2.65582 -3.27176 0
M  V30 6865 H 614.613 -1.46414 -2.91943 0
M  V30 6866 H 613.272 -3.23301 -1.72834 0
M  V30 6867 H 612.92 -2.81461 -4.1688 0
M  V30 6868 H 612.62 -4.52084 -3.75359 0
M  V30 6869 H 614.144 -4.0576 -4.5628 0
M  V30 6870 H 615.558 -5.12957 -2.56023 0
M  V30 6871 H 613.955 -5.66556 -1.97825 0
M  V30 6872 H 615.025 -4.7672 -0.88689 0
M  V30 6873 N 616.368 0.432326 -1.51554 0
M  V30 6874 C 617.318 1.52366 -1.69614 0
M  V30 6875 C 618.302 1.51205 -0.550083 0
M  V30 6876 O 619.494 1.57573 -0.806206 0
M  V30 6877 C 616.623 2.90513 -1.82913 0
M  V30 6878 C 615.709 2.9641 -3.03318 0
M  V30 6879 N 616.1 2.72043 -4.26411 0
M  V30 6880 C 614.398 3.27572 -3.02675 0
M  V30 6881 C 615.099 2.83912 -5.07709 0
M  V30 6882 N 614.075 3.15798 -4.42462 0
M  V30 6883 H 617.877 1.32285 -2.62446 0
M  V30 6884 H 615.391 0.639708 -1.4927 0
M  V30 6885 H 617.388 3.69032 -1.93962 0
M  V30 6886 H 616.048 3.1161 -0.912655 0
M  V30 6887 H 617.059 2.46876 -4.55272 0
M  V30 6888 H 613.736 3.54411 -2.20678 0
M  V30 6889 H 615.126 2.68984 -6.15709 0
M  V30 6890 N 617.846 1.41785 0.688094 0
M  V30 6891 C 618.809 1.43936 1.78368 0
M  V30 6892 C 619.809 0.328866 1.57401 0
M  V30 6893 O 620.999 0.589093 1.63937 0
M  V30 6894 C 618.131 1.25804 3.16838 0
M  V30 6895 H 619.324 2.41472 1.77852 0
M  V30 6896 H 616.877 1.28037 0.896448 0
M  V30 6897 H 617.612 0.291386 3.22988 0
M  V30 6898 H 617.397 2.06272 3.33458 0
M  V30 6899 H 618.887 1.30162 3.96797 0
M  V30 6900 N 619.324 -0.923095 1.27737 0
M  V30 6901 C 620.287 -2.00587 1.10894 0
M  V30 6902 C 621.287 -1.60718 0.0514927 0
M  V30 6903 O 622.477 -1.71658 0.296481 0
M  V30 6904 C 619.609 -3.33829 0.690717 0
M  V30 6905 H 620.802 -2.16959 2.07048 0
M  V30 6906 H 618.355 -1.10451 1.1059 0
M  V30 6907 H 619.09 -3.23157 -0.272 0
M  V30 6908 H 618.875 -3.64125 1.45448 0
M  V30 6909 H 620.365 -4.13336 0.595252 0
M  V30 6910 N 620.802 -1.09834 -1.13024 0
M  V30 6911 C 621.734 -0.699379 -2.18269 0
M  V30 6912 C 622.747 0.260841 -1.60697 0
M  V30 6913 O 623.936 0.0462538 -1.7844 0
M  V30 6914 C 621.036 -0.0104537 -3.38898 0
M  V30 6915 C 620.209 -0.993275 -4.25973 0
M  V30 6916 C 619.268 -0.336982 -5.2512 0
M  V30 6917 O 618.294 -0.985892 -5.60597 0
M  V30 6918 N 619.496 0.90716 -5.73368 0
M  V30 6919 H 622.261 -1.60486 -2.5311 0
M  V30 6920 H 619.822 -0.986337 -1.28386 0
M  V30 6921 H 621.814 0.43991 -4.02302 0
M  V30 6922 H 620.384 0.797335 -3.0226 0
M  V30 6923 H 619.604 -1.62208 -3.5928 0
M  V30 6924 H 620.892 -1.65876 -4.81002 0
M  V30 6925 H 620.29 1.45384 -5.46699 0
M  V30 6926 H 618.847 1.30077 -6.38689 0
M  V30 6927 N 622.28 1.30327 -0.886154 0
M  V30 6928 C 623.21 2.30549 -0.370028 0
M  V30 6929 C 624.191 1.61039 0.547751 0
M  V30 6930 O 625.376 1.8864 0.461353 0
M  V30 6931 C 622.506 3.44808 0.415275 0
M  V30 6932 C 621.46 4.26024 -0.41085 0
M  V30 6933 C 620.786 5.32347 0.501128 0
M  V30 6934 C 622.086 4.95433 -1.65359 0
M  V30 6935 H 623.78 2.73969 -1.20754 0
M  V30 6936 H 621.326 1.3171 -0.582097 0
M  V30 6937 H 623.279 4.13986 0.78699 0
M  V30 6938 H 622.003 3.00197 1.28644 0
M  V30 6939 H 620.662 3.58535 -0.764719 0
M  V30 6940 H 620.31 4.83982 1.37004 0
M  V30 6941 H 620.01 5.87581 -0.0478356 0
M  V30 6942 H 621.534 6.0438 0.869333 0
M  V30 6943 H 622.948 5.5712 -1.35239 0
M  V30 6944 H 621.345 5.60537 -2.14284 0
M  V30 6945 H 622.415 4.21493 -2.39733 0
M  V30 6946 N 623.758 0.647228 1.43697 0
M  V30 6947 C 625.174 0.314256 1.56476 0
M  V30 6948 C 625.374 -1.18191 1.63196 0
M  V30 6949 O 624.43 -1.96655 1.58376 0
M  V30 6950 C 625.743 1.02034 2.82859 0
M  V30 6951 C 627.291 1.00002 2.96595 0
M  V30 6952 C 627.766 1.68689 4.25803 0
M  V30 6953 N 629.257 1.65424 4.32654 0
M  V30 6954 C 629.992 2.1545 5.31384 0
M  V30 6955 N 629.488 2.73738 6.36427 0
M  V30 6956 N 631.281 2.05985 5.22998 0
M  V30 6957 H 623.432 1.61821 1.37578 0
M  V30 6958 H 625.695 0.680184 0.660344 0
M  V30 6959 H 625.401 2.07542 2.83935 0
M  V30 6960 H 625.275 0.568146 3.72897 0
M  V30 6961 H 627.662 -0.0466319 2.95063 0
M  V30 6962 H 627.743 1.49086 2.07863 0
M  V30 6963 H 627.387 2.73308 4.28095 0
M  V30 6964 H 627.317 1.17076 5.13421 0
M  V30 6965 H 629.808 1.22884 3.57363 0
M  V30 6966 H 630.121 3.09602 7.08072 0
M  V30 6967 H 628.466 2.77796 6.37067 0
M  V30 6968 H 631.657 1.60157 4.39849 0
M  V30 6969 H 631.83 2.45281 5.99784 0
M  V30 6970 N 625.236 -1.5273 0.388769 0
M  V30 6971 C 626.199 -2.25043 -0.434544 0
M  V30 6972 C 627.199 -1.26661 -0.990644 0
M  V30 6973 O 628.389 -1.50762 -0.872731 0
M  V30 6974 C 625.521 -3.00507 -1.60961 0
M  V30 6975 H 626.714 -2.99242 0.198549 0
M  V30 6976 H 624.267 -1.55664 0.140875 0
M  V30 6977 H 625.002 -2.30607 -2.28015 0
M  V30 6978 H 624.787 -3.72716 -1.21757 0
M  V30 6979 H 626.277 -3.55413 -2.19251 0
M  V30 6980 N 626.714 -0.118576 -1.57153 0
M  V30 6981 C 627.646 0.862247 -2.12363 0
M  V30 6982 C 628.659 1.23025 -1.06625 0
M  V30 6983 O 629.848 1.17927 -1.33998 0
M  V30 6984 C 626.948 2.16425 -2.60794 0
M  V30 6985 C 626.121 1.96801 -3.90626 0
M  V30 6986 C 625.18 3.10726 -4.2466 0
M  V30 6987 O 624.206 2.83659 -4.93484 0
M  V30 6988 N 625.408 4.37147 -3.81946 0
M  V30 6989 H 628.173 0.390564 -2.97144 0
M  V30 6990 H 625.734 0.0658591 -1.61766 0
M  V30 6991 H 627.726 2.91633 -2.80593 0
M  V30 6992 H 626.296 2.54943 -1.80895 0
M  V30 6993 H 625.516 1.05787 -3.7974 0
M  V30 6994 H 626.804 1.80993 -4.7552 0
M  V30 6995 H 626.202 4.62014 -3.26435 0
M  V30 6996 H 624.759 5.09229 -4.06853 0
M  V30 6997 N 628.193 1.56834 0.155195 0
M  V30 6998 C 629.156 1.96748 1.17571 0
M  V30 6999 C 630.156 0.853006 1.3631 0
M  V30 7000 O 631.346 1.11978 1.33441 0
M  V30 7001 C 628.478 2.27631 2.53765 0
M  V30 7002 H 629.671 2.88085 0.833498 0
M  V30 7003 H 627.224 1.51141 0.398242 0
M  V30 7004 H 627.959 1.39059 2.92973 0
M  V30 7005 H 627.744 3.0888 2.41527 0
M  V30 7006 H 629.234 2.59377 3.27282 0
M  V30 7007 N 629.671 -0.424282 1.51781 0
M  V30 7008 C 630.601 -1.52305 1.7699 0
M  V30 7009 C 631.582 -1.5839 0.620209 0
M  V30 7010 O 632.767 -1.73908 0.864268 0
M  V30 7011 C 629.897 -2.90271 1.90683 0
M  V30 7012 C 628.851 -2.99043 3.06198 0
M  V30 7013 C 628.177 -4.39116 3.05092 0
M  V30 7014 C 629.477 -2.7192 4.45934 0
M  V30 7015 H 631.171 -1.31461 2.68995 0
M  V30 7016 H 628.717 -0.630985 1.29439 0
M  V30 7017 H 630.67 -3.6711 2.06901 0
M  V30 7018 H 629.394 -3.12376 0.953365 0
M  V30 7019 H 628.053 -2.24646 2.89706 0
M  V30 7020 H 627.701 -4.58207 2.07498 0
M  V30 7021 H 627.401 -4.45912 3.82669 0
M  V30 7022 H 628.925 -5.17911 3.2342 0
M  V30 7023 H 630.339 -3.38487 4.62709 0
M  V30 7024 H 628.736 -2.90111 5.25315 0
M  V30 7025 H 629.806 -1.67445 4.55072 0
M  V30 7026 N 631.149 -1.42148 -0.680565 0
M  V30 7027 C 632.374 -1.45901 -1.47403 0
M  V30 7028 C 632.799 -0.0700985 -1.87969 0
M  V30 7029 O 632.157 0.930145 -1.55621 0
M  V30 7030 C 632.205 -2.38661 -2.70321 0
M  V30 7031 O 631.309 -1.85399 -3.68376 0
M  V30 7032 H 630.65 -0.494565 -0.443059 0
M  V30 7033 H 633.18 -1.86774 -0.835251 0
M  V30 7034 H 633.19 -2.55046 -3.18458 0
M  V30 7035 H 631.865 -3.39571 -2.40134 0
M  V30 7036 H 630.442 -1.78541 -3.2738 0
M  V30 7037 N 632.627 0.916307 -1.28225 0
M  V30 7038 C 633.904 1.64429 -1.05936 0
M  V30 7039 C 634.284 2.07234 0.402139 0
M  V30 7040 O 633.632 1.81535 1.3877 0
M  V30 7041 C 633.842 2.83773 -2.03159 0
M  V30 7042 C 635.19 3.54852 -2.33164 0
M  V30 7043 O 636.214 2.93918 -2.01223 0
M  V30 7044 O 635.073 4.64663 -2.87664 0
M  V30 7045 H 632.167 0.721221 -0.404683 0
M  V30 7046 H 634.713 0.965838 -1.39534 0
M  V30 7047 H 633.485 2.49217 -3.01673 0
M  V30 7048 H 633.108 3.59333 -1.70192 0
M  V30 7049 N 634.105 1.10431 1.1244 0
M  V30 7050 C 635.354 0.841539 1.83306 0
M  V30 7051 C 635.667 -0.634961 1.85007 0
M  V30 7052 O 636.873 -1.01363 2.51869 0
M  V30 7053 C 635.329 1.45565 3.29149 0
M  V30 7054 C 634.937 2.96544 3.35806 0
M  V30 7055 C 636.681 1.27227 4.04986 0
M  V30 7056 C 634.588 3.5099 4.75983 0
M  V30 7057 H 633.518 0.311156 0.686803 0
M  V30 7058 H 636.169 1.32829 1.26604 0
M  V30 7059 H 634.551 0.896574 3.85717 0
M  V30 7060 H 635.725 3.58766 2.89177 0
M  V30 7061 H 634.04 3.14036 2.73442 0
M  V30 7062 H 636.637 1.65348 5.08492 0
M  V30 7063 H 636.98 0.213834 4.1575 0
M  V30 7064 H 637.513 1.79941 3.54776 0
M  V30 7065 H 634.252 4.56499 4.70413 0
M  V30 7066 H 633.772 2.93535 5.23065 0
M  V30 7067 H 635.451 3.48808 5.44924 0
M  V30 7068 N 635.583 -1.29855 0.893053 0
M  V30 7069 C 636.493 -2.31661 0.370157 0
M  V30 7070 C 637.509 -1.65677 -0.531723 0
M  V30 7071 O 638.685 -1.9691 -0.422902 0
M  V30 7072 C 635.75 -3.44388 -0.399741 0
M  V30 7073 C 634.811 -4.2598 0.532861 0
M  V30 7074 C 634.044 -5.33324 -0.200388 0
M  V30 7075 O 634.267 -5.52305 -1.42531 0
M  V30 7076 O 633.201 -6.00188 0.453668 0
M  V30 7077 H 637.027 -2.78354 1.2146 0
M  V30 7078 H 634.612 -1.34171 0.657153 0
M  V30 7079 H 636.494 -4.13037 -0.835358 0
M  V30 7080 H 635.169 -2.99815 -1.22035 0
M  V30 7081 H 634.076 -3.59998 1.01746 0
M  V30 7082 H 635.409 -4.74178 1.3197 0
M  V30 7083 N 637.061 -0.65484 -1.43351 0
M  V30 7084 C 638.008 0.0357713 -2.30772 0
M  V30 7085 C 638.978 0.813035 -1.44841 0
M  V30 7086 O 640.163 0.789314 -1.73708 0
M  V30 7087 C 637.303 0.995084 -3.30442 0
M  V30 7088 C 636.416 0.21375 -4.31471 0
M  V30 7089 C 635.551 1.16701 -5.18222 0
M  V30 7090 C 634.59 0.376201 -6.10943 0
M  V30 7091 N 633.727 1.28113 -6.90313 0
M  V30 7092 H 638.567 -0.71559 -2.89281 0
M  V30 7093 H 636.104 -0.364645 -1.42509 0
M  V30 7094 H 638.062 1.5649 -3.86739 0
M  V30 7095 H 636.692 1.7133 -2.7358 0
M  V30 7096 H 635.744 -0.472377 -3.77456 0
M  V30 7097 H 637.056 -0.401103 -4.97185 0
M  V30 7098 H 636.21 1.8074 -5.79153 0
M  V30 7099 H 634.949 1.81577 -4.52638 0
M  V30 7100 H 633.954 -0.277534 -5.49099 0
M  V30 7101 H 635.179 -0.268178 -6.7857 0
M  V30 7102 H 633.125 1.91666 -6.27376 0
M  V30 7103 H 633.042 0.720879 -7.52555 0
M  V30 7104 H 634.31 1.90962 -7.55747 0
M  V30 7105 N 638.539 1.52521 -0.396863 0
M  V30 7106 C 639.487 2.28217 0.44943 0
M  V30 7107 C 640.481 1.32416 1.05652 0
M  V30 7108 O 641.687 1.49925 0.996124 0
M  V30 7109 H 638.062 0.733966 0.1637 0
M  V30 7110 H 640.033 2.97658 -0.210367 0
M  V30 7111 C 638.782 3.10713 1.56054 0
M  V30 7112 H 638.105 3.84291 1.10273 0
M  V30 7113 H 639.545 3.66803 2.12677 0
M  V30 7114 C 638.004 2.23499 2.52091 0
M  V30 7115 O 638.534 1.8669 3.55682 0
M  V30 7116 N 636.74 1.8751 2.2201 0
M  V30 7117 H 636.287 2.17643 1.37802 0
M  V30 7118 H 636.245 1.29448 2.86514 0
M  V30 7119 N 640.017 0.126909 1.57088 0
M  V30 7120 C 641.247 -0.535892 1.99529 0
M  V30 7121 C 641.655 -1.60259 1.00566 0
M  V30 7122 O 640.998 -1.83698 -0.00843269 0
M  V30 7123 C 641.06 -1.21374 3.38391 0
M  V30 7124 C 640.724 -0.294044 4.56053 0
M  V30 7125 C 641.721 0.470454 5.17767 0
M  V30 7126 C 639.406 -0.202808 5.0189 0
M  V30 7127 C 641.4 1.31384 6.23712 0
M  V30 7128 C 639.087 0.644203 6.07695 0
M  V30 7129 C 640.085 1.40115 6.68473 0
M  V30 7130 O 639.773 2.23408 7.72233 0
M  V30 7131 H 639.505 -0.145799 0.66009 0
M  V30 7132 H 642.059 0.212441 2.04298 0
M  V30 7133 H 640.289 -2.00931 3.30399 0
M  V30 7134 H 641.978 -1.77424 3.65069 0
M  V30 7135 H 642.744 0.409884 4.83265 0
M  V30 7136 H 638.623 -0.781688 4.54324 0
M  V30 7137 H 642.167 1.90514 6.71081 0
M  V30 7138 H 638.064 0.706137 6.41626 0
M  V30 7139 H 638.832 2.16436 7.89365 0
M  V30 7140 N 641.495 -1.56914 -0.146875 0
M  V30 7141 C 642.427 -1.94878 -1.20645 0
M  V30 7142 C 643.44 -0.844633 -1.39175 0
M  V30 7143 O 644.629 -1.12304 -1.38744 0
M  V30 7144 C 641.729 -2.20769 -2.57127 0
M  V30 7145 C 640.902 -3.52053 -2.59572 0
M  V30 7146 C 639.961 -3.66482 -3.77594 0
M  V30 7147 O 638.987 -4.38873 -3.62462 0
M  V30 7148 N 640.189 -3.03156 -4.95052 0
M  V30 7149 H 642.954 -2.86374 -0.883757 0
M  V30 7150 H 640.515 -1.58366 -0.336436 0
M  V30 7151 H 642.507 -2.27664 -3.34591 0
M  V30 7152 H 641.077 -1.35538 -2.81688 0
M  V30 7153 H 640.297 -3.56598 -1.68023 0
M  V30 7154 H 641.585 -4.38396 -2.58238 0
M  V30 7155 H 640.983 -2.44258 -5.10249 0
M  V30 7156 H 639.54 -3.15611 -5.70292 0
M  V30 7157 N 642.974 0.416227 -1.52004 0
M  V30 7158 C 643.904 1.51365 -1.77795 0
M  V30 7159 C 644.885 1.58059 -0.628601 0
M  V30 7160 O 646.07 1.73447 -0.873478 0
M  V30 7161 C 643.2 2.89256 -1.92219 0
M  V30 7162 C 642.154 2.97415 -3.0778 0
M  V30 7163 C 641.48 4.37492 -3.07417 0
M  V30 7164 C 642.78 2.69551 -4.47369 0
M  V30 7165 H 644.474 1.30033 -2.69688 0
M  V30 7166 H 642.02 0.624112 -1.29772 0
M  V30 7167 H 643.973 3.66008 -2.08845 0
M  V30 7168 H 642.697 3.11866 -0.969917 0
M  V30 7169 H 641.356 2.23107 -2.90893 0
M  V30 7170 H 641.004 4.571 -2.09925 0
M  V30 7171 H 640.704 4.43877 -3.85029 0
M  V30 7172 H 642.228 5.16188 -3.26162 0
M  V30 7173 H 643.642 3.36028 -4.64497 0
M  V30 7174 H 642.039 2.87321 -5.26846 0
M  V30 7175 H 643.109 1.65029 -4.55953 0
M  V30 7176 N 644.452 1.42507 0.673017 0
M  V30 7177 C 645.399 1.46124 1.78651 0
M  V30 7178 C 646.369 0.313007 1.63124 0
M  V30 7179 O 647.554 0.517337 1.83653 0
M  V30 7180 C 644.694 1.3711 3.16694 0
M  V30 7181 C 643.807 2.61983 3.43495 0
M  V30 7182 C 642.942 2.45098 4.71275 0
M  V30 7183 C 641.981 3.65336 4.91117 0
M  V30 7184 N 641.118 3.47383 6.10139 0
M  V30 7185 H 645.958 2.4128 1.74895 0
M  V30 7186 H 643.495 1.19788 0.853766 0
M  V30 7187 H 645.453 1.29881 3.96468 0
M  V30 7188 H 644.083 0.45549 3.1957 0
M  V30 7189 H 643.135 2.79571 2.57961 0
M  V30 7190 H 644.447 3.51355 3.5405 0
M  V30 7191 H 643.601 2.35466 5.59143 0
M  V30 7192 H 642.34 1.53219 4.63007 0
M  V30 7193 H 641.345 3.754 4.0169 0
M  V30 7194 H 642.57 4.58199 5.01229 0
M  V30 7195 H 640.516 2.58222 6.0304 0
M  V30 7196 H 640.433 4.30344 6.21563 0
M  V30 7197 H 641.701 3.41565 7.00681 0
M  V30 7198 N 645.93 -0.909495 1.28709 0
M  V30 7199 C 647.155 -1.69801 1.1909 0
M  V30 7200 C 647.58 -1.86479 -0.246388 0
M  V30 7201 O 646.938 -1.37802 -1.17815 0
M  V30 7202 C 646.986 -3.06543 1.89904 0
M  V30 7203 O 646.09 -3.94268 1.2094 0
M  V30 7204 H 645.431 -0.519783 0.413185 0
M  V30 7205 H 647.961 -1.13689 1.70106 0
M  V30 7206 H 647.971 -3.56748 1.97977 0
M  V30 7207 H 646.646 -2.93722 2.94449 0
M  V30 7208 H 645.223 -3.52702 1.2106 0
M  V30 7209 N 647.408 -1.11026 -1.11852 0
M  V30 7210 C 648.824 -0.843294 -1.35502 0
M  V30 7211 C 649.024 0.534179 -1.9429 0
M  V30 7212 O 648.08 1.28585 -2.17307 0
M  V30 7213 C 649.393 -1.94793 -2.29077 0
M  V30 7214 C 650.941 -1.97709 -2.42652 0
M  V30 7215 C 651.416 -3.07364 -3.39546 0
M  V30 7216 N 652.907 -3.0671 -3.47107 0
M  V30 7217 C 653.642 -3.88197 -4.22008 0
M  V30 7218 N 653.138 -4.79635 -4.99922 0
M  V30 7219 N 654.931 -3.76391 -4.17476 0
M  V30 7220 H 647.082 -1.99805 -0.720538 0
M  V30 7221 H 649.345 -0.868633 -0.379711 0
M  V30 7222 H 649.051 -2.93971 -1.93065 0
M  V30 7223 H 648.925 -1.84039 -3.29256 0
M  V30 7224 H 651.312 -0.991604 -2.77941 0
M  V30 7225 H 651.393 -2.1254 -1.4234 0
M  V30 7226 H 651.037 -4.06136 -3.04985 0
M  V30 7227 H 650.967 -2.89774 -4.39703 0
M  V30 7228 H 653.458 -2.40457 -2.91528 0
M  V30 7229 H 653.771 -5.38357 -5.54429 0
M  V30 7230 H 652.116 -4.8366 -4.99097 0
M  V30 7231 H 655.307 -3.04303 -3.55693 0
M  V30 7232 H 655.48 -4.40131 -4.75593 0
M  V30 7233 N 648.886 1.2938 -0.899927 0
M  V30 7234 C 649.818 2.26737 -0.335139 0
M  V30 7235 C 650.831 1.54316 0.518681 0
M  V30 7236 O 652.02 1.75313 0.335803 0
M  V30 7237 C 649.12 3.34558 0.540774 0
M  V30 7238 C 648.293 4.36455 -0.287372 0
M  V30 7239 C 647.352 5.2361 0.52141 0
M  V30 7240 O 646.378 5.69167 -0.0611735 0
M  V30 7241 N 647.58 5.50985 1.82745 0
M  V30 7242 H 650.345 2.75838 -1.17191 0
M  V30 7243 H 647.906 1.42716 -0.764438 0
M  V30 7244 H 649.898 3.89794 1.08825 0
M  V30 7245 H 648.468 2.85272 1.27823 0
M  V30 7246 H 647.688 3.80875 -1.01626 0
M  V30 7247 H 648.976 5.01573 -0.854518 0
M  V30 7248 H 648.374 5.15781 2.32349 0
M  V30 7249 H 646.931 6.09036 2.32204 0
M  V30 7250 N 650.364 0.662433 1.43002 0
M  V30 7251 C 651.613 0.176873 2.00923 0
M  V30 7252 C 651.926 -1.21954 1.52927 0
M  V30 7253 O 653.132 -1.80081 2.03182 0
M  V30 7254 C 651.588 0.265379 3.5892 0
M  V30 7255 C 651.196 1.66507 4.15908 0
M  V30 7256 C 652.94 -0.162103 4.2419 0
M  V30 7257 C 650.847 1.707 5.66229 0
M  V30 7258 H 649.777 0.0623627 0.751417 0
M  V30 7259 H 652.428 0.825813 1.63868 0
M  V30 7260 H 650.81 -0.451235 3.93421 0
M  V30 7261 H 651.984 2.40777 3.92891 0
M  V30 7262 H 650.299 2.03932 3.63044 0
M  V30 7263 H 652.896 -0.150745 5.34487 0
M  V30 7264 H 653.239 -1.19519 3.98774 0
M  V30 7265 H 653.772 0.503075 3.94606 0
M  V30 7266 H 650.511 2.7195 5.96426 0
M  V30 7267 H 650.031 1.00768 5.91275 0
M  V30 7268 H 651.71 1.45487 6.3043 0
M  V30 7269 N 651.842 -1.52309 0.404946 0
M  V30 7270 C 652.772 -2.29805 -0.41376 0
M  V30 7271 C 653.753 -1.3384 -1.0498 0
M  V30 7272 O 654.938 -1.62745 -1.05961 0
M  V30 7273 C 652.068 -3.11639 -1.53292 0
M  V30 7274 C 651.022 -4.15616 -1.02211 0
M  V30 7275 C 650.348 -4.8577 -2.23455 0
M  V30 7276 C 651.648 -5.2224 -0.0790725 0
M  V30 7277 H 653.342 -2.98493 0.232878 0
M  V30 7278 H 650.888 -1.43552 0.113441 0
M  V30 7279 H 652.841 -3.64618 -2.11262 0
M  V30 7280 H 651.565 -2.40712 -2.20738 0
M  V30 7281 H 650.224 -3.63641 -0.46484 0
M  V30 7282 H 649.872 -4.11376 -2.89445 0
M  V30 7283 H 649.572 -5.56058 -1.89929 0
M  V30 7284 H 651.096 -5.4156 -2.82038 0
M  V30 7285 H 652.51 -5.70485 -0.567438 0
M  V30 7286 H 650.907 -5.99867 0.167167 0
M  V30 7287 H 651.977 -4.77078 0.867447 0
M  V30 7288 N 653.32 -0.135238 -1.57019 0
M  V30 7289 C 654.568 0.51777 -1.95355 0
M  V30 7290 C 654.889 1.6617 -1.02042 0
M  V30 7291 O 654.159 1.95738 -0.0797343 0
M  V30 7292 H 652.739 0.194264 -0.721298 0
M  V30 7293 H 655.401 -0.207983 -1.93787 0
M  V30 7294 H 654.497 0.901675 -2.98791 0
M  V30 7295 N 654.798 1.5699 0.138552 0
M  V30 7296 C 655.731 1.94064 1.2006 0
M  V30 7297 C 656.709 0.807601 1.41126 0
M  V30 7298 O 657.893 1.06399 1.556 0
M  V30 7299 C 655.02 2.21999 2.55801 0
M  V30 7300 C 654.066 3.44617 2.5128 0
M  V30 7301 S 654.899 4.97888 1.97149 0
M  V30 7302 C 656.055 5.28954 3.34602 0
M  V30 7303 H 656.288 2.83843 0.884337 0
M  V30 7304 H 653.821 1.50507 0.344517 0
M  V30 7305 H 655.779 2.38772 3.33914 0
M  V30 7306 H 654.44 1.32869 2.84613 0
M  V30 7307 H 653.633 3.61466 3.51224 0
M  V30 7308 H 653.235 3.27129 1.8128 0
M  V30 7309 H 655.527 5.22938 4.30745 0
M  V30 7310 H 656.47 6.30346 3.22598 0
M  V30 7311 H 656.878 4.56455 3.32128 0
M  V30 7312 N 656.276 -0.40816 1.52223 0
M  V30 7313 C 657.692 -0.74685 1.41047 0
M  V30 7314 C 657.892 -1.94788 0.51573 0
M  V30 7315 O 656.948 -2.52494 -0.0181156 0
M  V30 7316 C 658.261 -0.999878 2.83589 0
M  V30 7317 C 659.809 -1.10253 2.92939 0
M  V30 7318 C 660.284 -1.38832 4.36451 0
M  V30 7319 N 661.775 -1.45694 4.3969 0
M  V30 7320 C 662.51 -1.69435 5.47795 0
M  V30 7321 N 662.006 -1.90774 6.66016 0
M  V30 7322 N 663.799 -1.71458 5.35312 0
M  V30 7323 H 655.95 0.382409 2.08929 0
M  V30 7324 H 658.213 0.108807 0.941735 0
M  V30 7325 H 657.919 -0.189723 3.51188 0
M  V30 7326 H 657.793 -1.91978 3.24691 0
M  V30 7327 H 660.18 -1.90328 2.2552 0
M  V30 7328 H 660.261 -0.160973 2.55293 0
M  V30 7329 H 659.905 -0.592741 5.04429 0
M  V30 7330 H 659.835 -2.34241 4.71634 0
M  V30 7331 H 662.326 -1.3099 3.54472 0
M  V30 7332 H 662.639 -2.08342 7.44186 0
M  V30 7333 H 660.984 -1.88037 6.69079 0
M  V30 7334 H 664.175 -1.54326 4.41929 0
M  V30 7335 H 664.348 -1.89621 6.19635 0
M  V30 7336 O 657.793 -1.51699 -0.554045 0
M  V30 7337 H 658.484 -1.51323 -1.20918 0
M  V30 END ATOM
M  V30 BEGIN BOND
M  V30 END BOND
M  V30 END CTAB
M  END
$$$$
