drugbank_target|P51970 NADH dehydrogenase [ubiquinone] 1 alpha subcomplex subunit 8 (DB00157)
 OpenBabel12092119303D

  0  0  0     0  0            999 V3000
M  V30 BEGIN CTAB
M  V30 COUNTS 2805 2845 0 0 0
M  V30 BEGIN ATOM
M  V30 1 H -0.908 1.98254 -0.117106 0
M  V30 2 N 0 1.576 0 0
M  V30 3 C 0.933 2.03868 1.02534 0
M  V30 4 C 1.911 0.928543 1.3348 0
M  V30 5 O 3.095 1.19667 1.45644 0
M  V30 6 C 0.222 2.43627 2.35294 0
M  V30 7 C -0.732 3.65373 2.2001 0
M  V30 8 S 0.101 5.13292 1.52614 0
M  V30 9 C 1.257 5.56322 2.86805 0
M  V30 10 H 1.49 2.90518 0.631377 0
M  V30 11 H -0.977 1.52953 0.210867 0
M  V30 12 H 0.981 2.67203 3.11629 0
M  V30 13 H -0.358 1.57376 2.7183 0
M  V30 14 H -1.165 3.90944 3.18086 0
M  V30 15 H -1.563 3.418 1.51819 0
M  V30 16 H 0.729 5.58782 3.83104 0
M  V30 17 H 1.672 6.56266 2.65933 0
M  V30 18 H 2.08 4.83886 2.90714 0
M  V30 19 N 1.4781 -0.272755 1.55222 0
M  V30 20 C 2.8891 -0.84378 1.66545 0
M  V30 21 C 3.2401 -1.87035 0.592641 0
M  V30 22 O 2.3651 -2.14761 -0.265818 0
M  V30 23 C 2.9601 -1.53723 3.01918 0
M  V30 24 C 1.5191 -2.05628 3.15268 0
M  V30 25 C 0.6661 -0.898424 2.62343 0
M  V30 26 H 3.6171 -0.0490998 1.58624 0
M  V30 27 H 3.6381 -2.40421 2.94921 0
M  V30 28 H 3.1501 -0.78983 3.79978 0
M  V30 29 H 1.2511 -2.83329 2.41983 0
M  V30 30 H 1.3641 -2.27142 4.21833 0
M  V30 31 H -0.2719 -1.29186 2.19506 0
M  V30 32 H 0.5111 -0.164528 3.42906 0
M  V30 33 N 2.9562 -1.48159 -0.537278 0
M  V30 34 C 4.2042 -1.55497 -1.29094 0
M  V30 35 C 4.5252 -0.227454 -1.93669 0
M  V30 36 O 3.7952 0.750386 -1.80959 0
M  V30 37 H 2.3752 -0.572832 -0.47945 0
M  V30 38 H 5.0372 -1.84579 -0.625818 0
M  V30 39 H 4.1332 -2.33216 -2.07405 0
M  V30 40 N 4.4343 0.785586 -1.36625 0
M  V30 41 C 5.6833 1.53883 -1.30396 0
M  V30 42 C 5.9963 1.95271 0.113452 0
M  V30 43 O 7.2023 2.69858 0.298142 0
M  V30 44 C 5.6583 2.77808 -2.28802 0
M  V30 45 C 5.2663 2.43574 -3.75999 0
M  V30 46 C 7.0103 3.55783 -2.31558 0
M  V30 47 C 4.9173 3.63919 -4.66173 0
M  V30 48 H 3.8473 0.577678 -0.484566 0
M  V30 49 H 6.4983 0.861705 -1.62009 0
M  V30 50 H 4.8803 3.47339 -1.90188 0
M  V30 51 H 6.0543 1.81916 -4.23371 0
M  V30 52 H 4.3693 1.78803 -3.76056 0
M  V30 53 H 6.9663 4.45205 -2.96137 0
M  V30 54 H 7.3093 3.94644 -1.3252 0
M  V30 55 H 7.8423 2.93235 -2.68809 0
M  V30 56 H 4.5813 3.3015 -5.66287 0
M  V30 57 H 4.1013 4.2473 -4.23515 0
M  V30 58 H 5.7803 4.30901 -4.82632 0
M  V30 59 N 5.9124 1.20967 1.01018 0
M  V30 60 C 7.1584 1.02526 1.74975 0
M  V30 61 C 7.4914 -0.4408 1.89131 0
M  V30 62 O 6.7664 -1.32718 1.42184 0
M  V30 63 C 7.0494 1.71699 3.1653 0
M  V30 64 C 6.9024 3.25791 3.10129 0
M  V30 65 C 8.2214 1.45531 4.15342 0
M  V30 66 H 5.3404 0.373863 0.635134 0
M  V30 67 H 7.9824 1.49071 1.17805 0
M  V30 68 H 6.1324 1.32128 3.65341 0
M  V30 69 H 7.8044 3.74697 2.69072 0
M  V30 70 H 6.0474 3.56363 2.47362 0
M  V30 71 H 6.7184 3.69353 4.10222 0
M  V30 72 H 9.1944 1.79872 3.75213 0
M  V30 73 H 8.0704 1.96453 5.1254 0
M  V30 74 H 8.3314 0.384237 4.40427 0
M  V30 75 N 7.3905 -1.2043 1.01659 0
M  V30 76 C 8.3005 -2.2689 0.596484 0
M  V30 77 C 9.3165 -1.70107 -0.36599 0
M  V30 78 O 10.4925 -2.00117 -0.226942 0
M  V30 79 C 7.5575 -3.4665 -0.0586659 0
M  V30 80 C 6.6185 -4.18662 0.949751 0
M  V30 81 C 5.8515 -5.32705 0.32577 0
M  V30 82 O 6.0745 -5.63656 -0.874509 0
M  V30 83 O 5.0085 -5.92803 1.04249 0
M  V30 84 H 8.8345 -2.65041 1.4828 0
M  V30 85 H 6.4195 -1.27048 0.786082 0
M  V30 86 H 8.3015 -4.19256 -0.424564 0
M  V30 87 H 6.9765 -3.10375 -0.91918 0
M  V30 88 H 5.8835 -3.48229 1.36702 0
M  V30 89 H 7.2165 -4.58878 1.78023 0
M  V30 90 N 8.8686 -0.792821 -1.36206 0
M  V30 91 C 9.7986 -0.207853 -2.32573 0
M  V30 92 C 10.7796 0.659055 -1.56813 0
M  V30 93 O 11.9646 0.592176 -1.84951 0
M  V30 94 C 9.0946 0.655449 -3.41059 0
M  V30 95 C 8.0486 -0.111842 -4.27854 0
M  V30 96 C 7.3746 0.872274 -5.27537 0
M  V30 97 C 8.6746 -1.30299 -5.05786 0
M  V30 98 H 10.3686 -1.01294 -2.81744 0
M  V30 99 H 7.9146 -0.48854 -1.3546 0
M  V30 100 H 9.8676 1.07464 -4.07467 0
M  V30 101 H 8.5916 1.49328 -2.90463 0
M  V30 102 H 7.2506 -0.512053 -3.63006 0
M  V30 103 H 6.8986 1.70523 -4.73214 0
M  V30 104 H 6.5986 0.363291 -5.86476 0
M  V30 105 H 8.1226 1.28996 -5.96818 0
M  V30 106 H 9.5366 -0.959379 -5.65216 0
M  V30 107 H 7.9336 -1.7455 -5.74154 0
M  V30 108 H 9.0036 -2.09663 -4.37229 0
M  V30 109 N 10.3467 1.47872 -0.545128 0
M  V30 110 C 11.7577 1.86384 -0.108581 0
M  V30 111 C 12.1087 1.45309 1.31832 0
M  V30 112 O 11.2337 0.850641 1.9898 0
M  V30 113 C 11.8287 3.38265 -0.190274 0
M  V30 114 C 10.3877 3.75914 0.191164 0
M  V30 115 C 9.5347 2.71926 -0.543273 0
M  V30 116 H 12.4857 1.39561 -0.755537 0
M  V30 117 H 12.5067 3.75831 0.594217 0
M  V30 118 H 12.0187 3.6813 -1.2289 0
M  V30 119 H 10.1197 3.51665 1.23136 0
M  V30 120 H 10.2327 4.78836 -0.158987 0
M  V30 121 H 8.5967 2.54697 0.0122495 0
M  V30 122 H 9.3797 3.04634 -1.58282 0
M  V30 123 N 11.8248 0.280983 1.55075 0
M  V30 124 C 13.0528 -0.337293 2.04132 0
M  V30 125 C 13.4678 -1.4903 1.15912 0
M  V30 126 O 12.8248 -1.81606 0.180459 0
M  V30 127 C 12.8758 -0.812706 3.52246 0
M  V30 128 O 12.5968 0.294387 4.3711 0
M  V30 129 C 14.0978 -1.4982 4.17216 0
M  V30 130 H 11.3178 -0.0761638 0.666663 0
M  V30 131 H 13.8618 0.414787 2.00249 0
M  V30 132 H 12.0168 -1.51486 3.56554 0
M  V30 133 H 12.4308 -0.0721325 5.2445 0
M  V30 134 H 13.9048 -1.7822 5.22438 0
M  V30 135 H 14.3818 -2.43168 3.65741 0
M  V30 136 H 14.9878 -0.839742 4.16927 0
M  V30 137 N 13.3029 -1.57598 0.00835791 0
M  V30 138 C 14.2329 -2.1198 -0.979113 0
M  V30 139 C 15.2139 -1.03091 -1.35301 0
M  V30 140 O 16.3989 -1.30818 -1.43528 0
M  V30 141 C 13.5289 -2.62995 -2.26828 0
M  V30 142 C 12.4829 -3.76485 -2.03576 0
M  V30 143 C 11.8089 -4.13846 -3.38579 0
M  V30 144 C 13.1089 -5.0342 -1.39161 0
M  V30 145 H 14.8029 -2.94738 -0.526281 0
M  V30 146 H 12.3489 -1.41783 -0.251704 0
M  V30 147 H 14.3019 -2.99669 -2.96271 0
M  V30 148 H 13.0259 -1.7737 -2.7424 0
M  V30 149 H 11.6849 -3.40217 -1.36557 0
M  V30 150 H 11.3329 -3.25232 -3.83709 0
M  V30 151 H 11.0329 -4.90312 -3.23834 0
M  V30 152 H 12.5569 -4.53086 -4.09323 0
M  V30 153 H 13.9709 -5.37812 -1.98573 0
M  V30 154 H 12.3679 -5.84746 -1.34878 0
M  V30 155 H 13.4379 -4.83548 -0.361868 0
M  V30 156 N 14.781 0.264519 -1.55364 0
M  V30 157 C 15.691 1.34902 -1.91934 0
M  V30 158 C 16.707 1.53595 -0.817593 0
M  V30 159 O 17.883 1.67558 -1.11742 0
M  V30 160 C 14.948 2.68676 -2.19121 0
M  V30 161 C 14.009 2.58657 -3.4263 0
M  V30 162 C 13.242 3.86051 -3.68511 0
M  V30 163 O 13.465 4.87126 -2.96757 0
M  V30 164 O 12.399 3.85744 -4.62045 0
M  V30 165 H 16.225 1.06883 -2.8427 0
M  V30 166 H 13.81 0.463775 -1.42019 0
M  V30 167 H 15.692 3.47759 -2.37995 0
M  V30 168 H 14.367 2.96463 -1.29966 0
M  V30 169 H 13.274 1.7792 -3.29082 0
M  V30 170 H 14.607 2.35818 -4.32031 0
M  V30 171 N 16.2591 1.48442 0.529413 0
M  V30 172 C 17.1691 1.6569 1.66084 0
M  V30 173 C 18.1851 0.539432 1.65427 0
M  V30 174 O 19.3611 0.810572 1.84368 0
M  V30 175 C 16.4261 1.69315 3.02545 0
M  V30 176 C 15.4871 2.92694 3.14052 0
M  V30 177 C 14.7201 2.96137 4.44003 0
M  V30 178 O 14.9431 2.07973 5.31134 0
M  V30 179 O 13.8771 3.88312 4.59888 0
M  V30 180 H 17.7031 2.61483 1.54469 0
M  V30 181 H 15.2881 1.3185 0.702567 0
M  V30 182 H 17.1701 1.74217 3.83701 0
M  V30 183 H 15.8451 0.766966 3.14483 0
M  V30 184 H 14.7521 2.93324 2.32189 0
M  V30 185 H 16.0851 3.84699 3.0703 0
M  V30 186 N 17.7372 -0.778329 1.37039 0
M  V30 187 C 18.6672 -1.90546 1.34962 0
M  V30 188 C 19.6482 -1.68681 0.219274 0
M  V30 189 O 20.8332 -1.89634 0.418624 0
M  V30 190 C 17.9632 -3.27734 1.14925 0
M  V30 191 C 16.9172 -3.64147 2.24902 0
M  V30 192 C 16.2432 -4.99806 1.89996 0
M  V30 193 C 17.5432 -3.71579 3.67051 0
M  V30 194 H 19.2372 -1.92541 2.29277 0
M  V30 195 H 16.7832 -0.924948 1.10366 0
M  V30 196 H 18.7362 -4.06215 1.12104 0
M  V30 197 H 17.4602 -3.26154 0.170631 0
M  V30 198 H 16.1192 -2.8797 2.26868 0
M  V30 199 H 15.7672 -4.94759 0.906796 0
M  V30 200 H 15.4672 -5.25139 2.63634 0
M  V30 201 H 16.9912 -5.80694 1.88749 0
M  V30 202 H 18.4052 -4.40227 3.67251 0
M  V30 203 H 16.8022 -4.08405 4.39688 0
M  V30 204 H 17.8722 -2.72404 4.01154 0
M  V30 205 N 19.2153 -1.21501 -1.00376 0
M  V30 206 C 20.1623 -0.975387 -2.09177 0
M  V30 207 C 21.1323 0.0990615 -1.65804 0
M  V30 208 O 22.3173 -0.0483147 -1.90739 0
M  V30 209 C 19.4573 -0.547507 -3.40729 0
M  V30 210 C 18.5703 -1.69153 -3.97506 0
M  V30 211 C 17.7053 -1.2127 -5.17172 0
M  V30 212 C 16.7443 -2.32897 -5.66061 0
M  V30 213 N 15.8813 -1.86138 -6.76976 0
M  V30 214 H 20.7213 -1.9068 -2.29009 0
M  V30 215 H 18.2583 -0.950257 -1.12288 0
M  V30 216 H 20.2163 -0.280667 -4.16255 0
M  V30 217 H 18.8463 0.346904 -3.20931 0
M  V30 218 H 17.8983 -2.07298 -3.18954 0
M  V30 219 H 19.2103 -2.5316 -4.29781 0
M  V30 220 H 18.3643 -0.902591 -5.99948 0
M  V30 221 H 17.1033 -0.342692 -4.86495 0
M  V30 222 H 16.1083 -2.64709 -4.81881 0
M  V30 223 H 17.3333 -3.20396 -5.98768 0
M  V30 224 H 15.2793 -1.01484 -6.48103 0
M  V30 225 H 15.1963 -2.63717 -7.08512 0
M  V30 226 H 16.4643 -1.58165 -7.63285 0
M  V30 227 N 20.6934 1.19889 -1.02296 0
M  V30 228 C 21.9394 1.89701 -0.717033 0
M  V30 229 C 22.2724 1.7905 0.751989 0
M  V30 230 O 21.5474 1.17891 1.547 0
M  V30 231 C 21.8304 3.40858 -1.16136 0
M  V30 232 C 21.6834 3.60411 -2.69117 0
M  V30 233 C 23.0024 4.33876 -0.737549 0
M  V30 234 H 20.1214 0.688874 -0.261957 0
M  V30 235 H 22.7634 1.41154 -1.27183 0
M  V30 236 H 20.9134 3.82335 -0.689342 0
M  V30 237 H 22.5854 3.28145 -3.2422 0
M  V30 238 H 20.8284 3.03665 -3.0979 0
M  V30 239 H 21.4994 4.66396 -2.95261 0
M  V30 240 H 23.9754 4.00081 -1.14344 0
M  V30 241 H 22.8514 5.38242 -1.0764 0
M  V30 242 H 23.1124 4.40628 0.360436 0
M  V30 243 N 22.1715 0.800033 1.35784 0
M  V30 244 C 23.4485 0.30088 1.93272 0
M  V30 245 C 23.8285 -1.20857 1.73081 0
M  V30 246 O 23.1765 -2.00502 1.09596 0
M  V30 247 C 23.3865 0.70511 3.41803 0
M  V30 248 C 24.7345 0.690871 4.18942 0
M  V30 249 O 25.7585 0.646244 3.50289 0
M  V30 250 O 24.6175 0.74332 5.41421 0
M  V30 251 H 21.7115 0.0771605 0.823393 0
M  V30 252 H 24.2575 0.88329 1.449 0
M  V30 253 H 23.0295 1.74571 3.50201 0
M  V30 254 H 22.6525 0.0971541 3.97481 0
M  V30 255 N 23.6496 -1.47581 0.552962 0
M  V30 256 C 24.5596 -2.33743 -0.200353 0
M  V30 257 C 25.5756 -1.47928 -0.916151 0
M  V30 258 O 26.7516 -1.80865 -0.885993 0
M  V30 259 C 23.8166 -3.24536 -1.21973 0
M  V30 260 C 22.8776 -4.26238 -0.511819 0
M  V30 261 C 22.1106 -5.12693 -1.48263 0
M  V30 262 O 22.3336 -5.01525 -2.71714 0
M  V30 263 O 21.2676 -5.93375 -1.00945 0
M  V30 264 H 25.0936 -2.9945 0.506304 0
M  V30 265 H 22.6786 -1.46071 0.313622 0
M  V30 266 H 24.5606 -3.80631 -1.80827 0
M  V30 267 H 23.2356 -2.61462 -1.90839 0
M  V30 268 H 22.1426 -3.73914 0.117799 0
M  V30 269 H 23.4756 -4.92014 0.135308 0
M  V30 270 N 25.1277 -0.289203 -1.54924 0
M  V30 271 C 26.3737 0.323998 -2.00195 0
M  V30 272 C 26.7067 1.54441 -1.17735 0
M  V30 273 O 25.9817 1.92875 -0.250878 0
M  V30 274 C 26.2647 0.692276 -3.53383 0
M  V30 275 C 26.1177 -0.536457 -4.46589 0
M  V30 276 C 27.4367 1.52335 -4.12895 0
M  V30 277 H 24.5557 0.116289 -0.727768 0
M  V30 278 H 27.1977 -0.398954 -1.85764 0
M  V30 279 H 25.3477 1.30822 -3.65811 0
M  V30 280 H 27.0197 -1.17499 -4.46085 0
M  V30 281 H 25.2627 -1.17192 -4.1767 0
M  V30 282 H 25.9337 -0.234806 -5.515 0
M  V30 283 H 28.4097 1.00302 -4.0383 0
M  V30 284 H 27.2857 1.74982 -5.20262 0
M  V30 285 H 27.5467 2.50886 -3.64018 0
M  V30 286 N 26.6058 1.57591 -0.0167156 0
M  V30 287 C 27.5528 2.09462 0.969251 0
M  V30 288 C 28.5228 0.99381 1.33089 0
M  V30 289 O 29.7078 1.26726 1.42636 0
M  V30 290 C 26.8478 2.61622 2.25051 0
M  V30 291 C 25.9608 3.85666 1.94642 0
M  V30 292 C 25.0958 4.26266 3.16972 0
M  V30 293 C 24.1348 5.43101 2.82326 0
M  V30 294 N 23.2718 5.78915 3.97243 0
M  V30 295 H 28.1118 2.93428 0.519997 0
M  V30 296 H 25.6488 1.45044 0.245087 0
M  V30 297 H 27.6068 2.89949 2.99976 0
M  V30 298 H 26.2368 1.80505 2.67615 0
M  V30 299 H 25.2888 3.64145 1.10013 0
M  V30 300 H 26.6008 4.70678 1.65117 0
M  V30 301 H 25.7548 4.55963 4.00228 0
M  V30 302 H 24.4938 3.39996 3.49648 0
M  V30 303 H 23.4988 5.1311 1.97479 0
M  V30 304 H 24.7238 6.3106 2.50879 0
M  V30 305 H 22.6698 4.95602 4.29785 0
M  V30 306 H 22.5868 6.58539 3.71299 0
M  V30 307 H 23.8548 6.13212 4.81239 0
M  V30 308 N 28.0839 -0.256276 1.55502 0
M  V30 309 C 29.3329 -0.983486 1.76098 0
M  V30 310 C 29.6459 -1.86837 0.578896 0
M  V30 311 O 30.8519 -2.63163 0.667648 0
M  V30 312 C 29.3079 -1.79868 3.1173 0
M  V30 313 C 28.9159 -0.961648 4.37557 0
M  V30 314 C 30.6599 -2.51919 3.41668 0
M  V30 315 C 28.5669 -1.77219 5.64223 0
M  V30 316 H 27.4969 -0.370936 0.656447 0
M  V30 317 H 30.1479 -0.238492 1.81944 0
M  V30 318 H 28.5299 -2.58527 2.99966 0
M  V30 319 H 29.7039 -0.218048 4.60284 0
M  V30 320 H 28.0189 -0.354913 4.14885 0
M  V30 321 H 30.6159 -3.12998 4.33516 0
M  V30 322 H 30.9589 -3.23059 2.62562 0
M  V30 323 H 31.4919 -1.80278 3.54605 0
M  V30 324 H 28.2309 -1.10471 6.46124 0
M  V30 325 H 27.7509 -2.49132 5.45613 0
M  V30 326 H 29.4299 -2.34169 6.03137 0
M  V30 327 N 29.562 -1.4872 -0.521534 0
M  V30 328 C 30.787 -1.61101 -1.30618 0
M  V30 329 C 31.212 -0.274611 -1.86085 0
M  V30 330 O 30.57 0.754937 -1.64834 0
M  V30 331 C 30.618 -2.66709 -2.4269 0
M  V30 332 O 29.722 -2.24456 -3.45967 0
M  V30 333 H 29.063 -0.539921 -0.386499 0
M  V30 334 H 31.593 -1.94767 -0.626645 0
M  V30 335 H 31.603 -2.88245 -2.88754 0
M  V30 336 H 30.278 -3.63727 -2.01682 0
M  V30 337 H 28.855 -2.13168 -3.05964 0
M  V30 338 N 31.0401 0.771051 -1.3745 0
M  V30 339 C 32.2651 1.56529 -1.36065 0
M  V30 340 C 32.6901 1.88029 0.0515859 0
M  V30 341 O 32.0481 1.49282 1.02882 0
M  V30 342 C 32.0961 2.85187 -2.20683 0
M  V30 343 O 31.2001 3.79593 -1.61193 0
M  V30 344 H 30.5411 0.47411 -0.464883 0
M  V30 345 H 33.0711 0.954269 -1.80983 0
M  V30 346 H 33.0811 3.34283 -2.33921 0
M  V30 347 H 31.7561 2.61588 -3.23334 0
M  V30 348 H 30.3331 3.38239 -1.56999 0
M  V30 349 N 32.5182 1.22032 0.997298 0
M  V30 350 C 33.4812 0.987909 2.06816 0
M  V30 351 C 34.4812 -0.0440084 1.6074 0
M  V30 352 O 35.6712 0.194053 1.73116 0
M  V30 353 C 32.8032 0.49132 3.37341 0
M  V30 354 H 33.9962 1.93803 2.28868 0
M  V30 355 H 31.5492 1.03838 1.16822 0
M  V30 356 H 32.2842 -0.463364 3.20973 0
M  V30 357 H 32.0692 1.23575 3.72118 0
M  V30 358 H 33.5592 0.348824 4.16141 0
M  V30 359 N 33.9963 -1.19345 1.0293 0
M  V30 360 C 35.2423 -1.89318 0.727083 0
M  V30 361 C 35.5753 -1.79446 -0.742483 0
M  V30 362 O 34.8503 -1.1871 -1.54072 0
M  V30 363 C 35.1333 -3.40238 1.17942 0
M  V30 364 C 34.9863 -3.58979 2.71024 0
M  V30 365 C 36.3053 -4.33479 0.760548 0
M  V30 366 H 33.4243 -0.687475 0.265606 0
M  V30 367 H 36.0663 -1.40477 1.2793 0
M  V30 368 H 34.2163 -3.81964 0.709608 0
M  V30 369 H 35.8883 -3.26421 3.25955 0
M  V30 370 H 34.1313 -3.02018 3.11396 0
M  V30 371 H 34.8023 -4.64823 2.9773 0
M  V30 372 H 37.2783 -3.99469 1.16464 0
M  V30 373 H 36.1543 -5.37664 1.10493 0
M  V30 374 H 36.4153 -4.40813 -0.337063 0
M  V30 375 N 35.4744 -0.807222 -1.35358 0
M  V30 376 C 36.4044 -0.232509 -2.3234 0
M  V30 377 C 37.3854 0.642386 -1.57504 0
M  V30 378 O 38.5704 0.572526 -1.85569 0
M  V30 379 C 35.7004 0.619238 -3.41735 0
M  V30 380 C 34.6544 -0.157215 -4.27711 0
M  V30 381 C 33.9804 0.816273 -5.28433 0
M  V30 382 C 35.2804 -1.35656 -5.04376 0
M  V30 383 H 36.9744 -1.04276 -2.80654 0
M  V30 384 H 34.5204 -0.50288 -1.34934 0
M  V30 385 H 36.4734 1.03137 -4.08584 0
M  V30 386 H 35.1974 1.46239 -2.92031 0
M  V30 387 H 33.8564 -0.550525 -3.62443 0
M  V30 388 H 33.5044 1.65494 -4.74996 0
M  V30 389 H 33.2044 0.301067 -5.86828 0
M  V30 390 H 34.7284 1.22659 -5.98153 0
M  V30 391 H 36.1424 -1.01927 -5.64166 0
M  V30 392 H 34.5394 -1.8063 -5.7227 0
M  V30 393 H 35.6094 -2.14288 -4.34981 0
M  V30 394 N 36.9525 1.47285 -0.560781 0
M  V30 395 C 37.8995 2.30058 0.18491 0
M  V30 396 C 38.8695 1.39281 0.904986 0
M  V30 397 O 40.0545 1.68241 0.899979 0
M  V30 398 C 37.1945 3.23317 1.20666 0
M  V30 399 C 36.3075 4.29186 0.492285 0
M  V30 400 C 35.4425 5.09592 1.49964 0
M  V30 401 C 34.4815 6.07232 0.770439 0
M  V30 402 N 33.6185 6.80584 1.72479 0
M  V30 403 H 38.4585 2.93302 -0.527048 0
M  V30 404 H 35.9955 1.44568 -0.271738 0
M  V30 405 H 37.9535 3.75811 1.81168 0
M  V30 406 H 36.5835 2.61929 1.88661 0
M  V30 407 H 35.6355 3.7972 -0.227333 0
M  V30 408 H 36.9475 4.98738 -0.0787929 0
M  V30 409 H 36.1015 5.66254 2.17809 0
M  V30 410 H 34.8405 4.3995 2.10464 0
M  V30 411 H 33.8455 5.49745 0.0780846 0
M  V30 412 H 35.0705 6.78884 0.171134 0
M  V30 413 H 33.0165 6.1367 2.3183 0
M  V30 414 H 32.9335 7.46319 1.20596 0
M  V30 415 H 34.2015 7.41818 2.39428 0
M  V30 416 N 38.4306 0.297415 1.54768 0
M  V30 417 C 39.3936 -0.567375 2.22066 0
M  V30 418 C 40.3936 -1.06409 1.20556 0
M  V30 419 O 41.5836 -0.960691 1.45315 0
M  V30 420 C 38.7156 -1.78517 2.90421 0
M  V30 421 H 39.9086 0.0205534 2.99893 0
M  V30 422 H 37.4616 0.0482163 1.56226 0
M  V30 423 H 38.1966 -2.41303 2.16664 0
M  V30 424 H 37.9816 -1.43669 3.64831 0
M  V30 425 H 39.4716 -2.39964 3.41771 0
M  V30 426 N 39.9087 -1.5758 0.0250728 0
M  V30 427 C 40.8717 -2.08896 -0.943139 0
M  V30 428 C 41.8717 -1.00321 -1.25668 0
M  V30 429 O 43.0617 -1.26495 -1.19769 0
M  V30 430 C 40.1937 -2.55143 -2.26086 0
M  V30 431 H 41.3867 -2.95723 -0.498775 0
M  V30 432 H 38.9397 -1.54703 -0.222888 0
M  V30 433 H 39.6747 -1.71633 -2.75159 0
M  V30 434 H 39.4597 -3.34461 -2.04641 0
M  V30 435 H 40.9497 -2.95083 -2.95492 0
M  V30 436 N 41.3868 0.248026 -1.55636 0
M  V30 437 C 42.3498 1.29044 -1.89421 0
M  V30 438 C 43.3498 1.41134 -0.770581 0
M  V30 439 O 44.5398 1.39854 -1.03858 0
M  V30 440 C 41.6718 2.66831 -2.12165 0
M  V30 441 H 42.8648 1.00305 -2.82629 0
M  V30 442 H 40.4178 0.487265 -1.48511 0
M  V30 443 H 41.1528 3.00711 -1.21422 0
M  V30 444 H 40.9378 2.59438 -2.93997 0
M  V30 445 H 42.4278 3.42103 -2.3949 0
M  V30 446 N 42.8649 1.48995 0.513639 0
M  V30 447 C 43.8149 1.61127 1.61314 0
M  V30 448 C 44.7989 0.467521 1.53958 0
M  V30 449 O 45.9909 0.719826 1.61702 0
M  V30 450 C 43.1199 1.66937 2.99978 0
M  V30 451 C 42.2059 2.86847 3.12377 0
M  V30 452 N 42.5969 4.11078 2.94701 0
M  V30 453 C 40.8949 2.84521 3.43459 0
M  V30 454 C 41.5959 4.91615 3.10949 0
M  V30 455 N 40.5719 4.24739 3.3926 0
M  V30 456 H 44.3739 2.54909 1.46282 0
M  V30 457 H 41.8879 1.45593 0.719483 0
M  V30 458 H 43.8849 1.73725 3.78979 0
M  V30 459 H 42.5449 0.742831 3.16089 0
M  V30 460 H 43.5559 4.41258 2.71131 0
M  V30 461 H 40.2329 2.01192 3.65825 0
M  V30 462 H 41.6229 6.00264 3.01882 0
M  V30 463 N 44.343 -0.763751 1.37857 0
M  V30 464 C 45.293 -1.86765 1.30777 0
M  V30 465 C 46.277 -1.59726 0.194015 0
M  V30 466 O 47.469 -1.7172 0.42911 0
M  V30 467 C 44.598 -3.24343 1.12502 0
M  V30 468 C 43.684 -3.57307 2.28456 0
M  V30 469 N 44.075 -3.61398 3.53871 0
M  V30 470 C 42.373 -3.87517 2.20786 0
M  V30 471 C 43.074 -3.91339 4.30382 0
M  V30 472 N 42.05 -4.07649 3.59615 0
M  V30 473 H 45.852 -1.88191 2.25746 0
M  V30 474 H 43.366 -0.9606 1.30944 0
M  V30 475 H 45.363 -4.03327 1.05514 0
M  V30 476 H 44.023 -3.24175 0.184574 0
M  V30 477 H 45.034 -3.43407 3.87675 0
M  V30 478 H 41.711 -3.95125 1.34844 0
M  V30 479 H 43.101 -4.01213 5.3896 0
M  V30 480 N 45.8211 -1.22559 -0.990812 0
M  V30 481 C 47.0511 -1.07623 -1.76355 0
M  V30 482 C 47.4591 0.37601 -1.85426 0
M  V30 483 O 46.8021 1.27228 -1.32509 0
M  V30 484 C 46.8641 -1.61507 -3.21179 0
M  V30 485 C 46.5281 -3.10146 -3.35646 0
M  V30 486 C 47.5251 -4.07553 -3.22796 0
M  V30 487 C 45.2101 -3.49644 -3.60631 0
M  V30 488 C 47.2041 -5.42442 -3.34716 0
M  V30 489 C 44.8911 -4.84682 -3.72192 0
M  V30 490 C 45.8891 -5.8089 -3.59243 0
M  V30 491 O 45.5771 -7.13476 -3.70415 0
M  V30 492 H 45.3091 -0.377745 -0.560611 0
M  V30 493 H 47.8631 -1.62658 -1.25425 0
M  V30 494 H 46.0931 -1.00881 -3.73309 0
M  V30 495 H 47.7821 -1.42202 -3.80175 0
M  V30 496 H 48.5481 -3.78381 -3.03403 0
M  V30 497 H 44.4271 -2.75282 -3.69785 0
M  V30 498 H 47.9711 -6.17518 -3.24526 0
M  V30 499 H 43.8681 -5.13534 -3.91092 0
M  V30 500 H 44.6361 -7.21083 -3.87275 0
M  V30 501 N 47.2992 1.18797 -1.03562 0
M  V30 502 C 48.5472 1.88278 -0.734569 0
M  V30 503 C 48.8682 1.8043 0.739586 0
M  V30 504 O 48.1382 1.21925 1.53333 0
M  V30 505 H 46.7182 0.696991 -0.268725 0
M  V30 506 H 49.3802 1.44192 -1.31129 0
M  V30 507 H 48.4762 2.94443 -1.03489 0
M  V30 508 N 48.7773 0.814389 1.34928 0
M  V30 509 C 49.7403 0.235759 2.27984 0
M  V30 510 C 50.7403 -0.581412 1.49921 0
M  V30 511 O 51.9303 -0.398758 1.69575 0
M  V30 512 C 49.0623 -0.670433 3.34242 0
M  V30 513 H 50.2553 1.05659 2.80671 0
M  V30 514 H 47.8083 0.585614 1.44915 0
M  V30 515 H 48.5433 -1.51466 2.86755 0
M  V30 516 H 48.3283 -0.0860822 3.92005 0
M  V30 517 H 49.8183 -1.06935 4.03676 0
M  V30 518 N 50.2554 -1.46986 0.568584 0
M  V30 519 C 51.1874 -2.28233 -0.210337 0
M  V30 520 C 52.2004 -1.37682 -0.868767 0
M  V30 521 O 53.3894 -1.62406 -0.740705 0
M  V30 522 C 50.4894 -3.12293 -1.3163 0
M  V30 523 C 49.6624 -4.30878 -0.7525 0
M  V30 524 C 48.7214 -4.96445 -1.74439 0
M  V30 525 O 47.7474 -5.54482 -1.286 0
M  V30 526 N 48.9494 -4.92171 -3.07812 0
M  V30 527 H 51.7144 -2.95723 0.486648 0
M  V30 528 H 49.2754 -1.56742 0.405409 0
M  V30 529 H 51.2674 -3.53022 -1.97883 0
M  V30 530 H 49.8374 -2.46971 -1.91636 0
M  V30 531 H 49.0574 -3.94104 0.0871128 0
M  V30 532 H 50.3454 -5.07558 -0.35536 0
M  V30 533 H 49.7434 -4.46239 -3.47688 0
M  V30 534 H 48.3004 -5.36884 -3.69592 0
M  V30 535 N 51.7335 -0.305618 -1.54608 0
M  V30 536 C 52.9735 0.303114 -2.0214 0
M  V30 537 C 53.3375 1.50737 -1.18921 0
M  V30 538 O 54.5385 2.18778 -1.56172 0
M  V30 539 C 52.8095 0.646332 -3.51507 0
M  V30 540 S 54.3685 1.23727 -4.20995 0
M  V30 541 H 51.1865 0.0927643 -0.704923 0
M  V30 542 H 53.7885 -0.434566 -1.90609 0
M  V30 543 H 52.4925 -0.238541 -4.09706 0
M  V30 544 H 52.0235 1.41468 -3.67084 0
M  V30 545 H 54.0385 2.52489 -4.27158 0
M  V30 546 N 53.2116 1.57565 -0.0334293 0
M  V30 547 C 54.4886 1.83282 0.683163 0
M  V30 548 C 54.8686 0.91823 1.90084 0
M  V30 549 O 54.2166 -0.025113 2.28486 0
M  V30 550 C 54.4266 3.32599 1.0573 0
M  V30 551 C 55.7746 3.99179 1.44711 0
M  V30 552 O 56.7986 3.3712 1.15015 0
M  V30 553 O 55.6576 5.08565 2.0006 0
M  V30 554 H 52.7516 0.755869 0.335546 0
M  V30 555 H 55.2976 1.69589 -0.0614402 0
M  V30 556 H 54.0696 3.90834 0.190828 0
M  V30 557 H 53.6926 3.51415 1.85993 0
M  V30 558 N 54.6897 -0.239769 1.55765 0
M  V30 559 C 55.6367 -1.29696 1.90913 0
M  V30 560 C 56.6067 -1.47478 0.764164 0
M  V30 561 O 57.7917 -1.61345 1.01845 0
M  V30 562 C 54.9317 -2.64598 2.21544 0
M  V30 563 C 54.0447 -2.54765 3.48882 0
M  V30 564 C 53.1797 -3.82069 3.69049 0
M  V30 565 C 52.2187 -3.66883 4.89963 0
M  V30 566 N 51.3557 -4.86094 5.06614 0
M  V30 567 H 56.1957 -0.990224 2.81067 0
M  V30 568 H 53.7327 -0.477684 1.39128 0
M  V30 569 H 55.6907 -3.43132 2.3731 0
M  V30 570 H 54.3207 -2.93405 1.34585 0
M  V30 571 H 53.3727 -1.67763 3.41409 0
M  V30 572 H 54.6847 -2.39457 4.37563 0
M  V30 573 H 53.8387 -4.69046 3.84812 0
M  V30 574 H 52.5777 -4.00282 2.78614 0
M  V30 575 H 51.5827 -2.78289 4.74168 0
M  V30 576 H 52.8077 -3.50157 5.81865 0
M  V30 577 H 50.7537 -5.04655 4.19117 0
M  V30 578 H 50.6707 -4.73443 5.89396 0
M  V30 579 H 51.9387 -5.74549 5.26795 0
M  V30 580 N 56.1678 -1.49265 -0.50573 0
M  V30 581 C 57.5788 -1.51769 -1.08734 0
M  V30 582 C 57.9298 -0.301192 -1.93874 0
M  V30 583 O 57.0548 0.589456 -2.08217 0
M  V30 584 C 57.6498 -2.75017 -1.97867 0
M  V30 585 C 56.2088 -2.80314 -2.51199 0
M  V30 586 C 55.3558 -2.4562 -1.28709 0
M  V30 587 H 58.3068 -1.56031 -0.289855 0
M  V30 588 H 58.3278 -2.5491 -2.82491 0
M  V30 589 H 57.8398 -3.63539 -1.35873 0
M  V30 590 H 55.9408 -1.96061 -3.16845 0
M  V30 591 H 56.0538 -3.82366 -2.88675 0
M  V30 592 H 54.4178 -1.97297 -1.61078 0
M  V30 593 H 55.2008 -3.36411 -0.6843 0
M  V30 594 N 57.6459 0.756429 -1.3826 0
M  V30 595 C 58.5939 1.89149 -1.35372 0
M  V30 596 C 59.5879 1.67691 -0.24004 0
M  V30 597 O 60.7939 1.75294 -0.408919 0
M  V30 598 H 57.1689 0.622271 -0.422236 0
M  V30 599 H 59.1399 1.88701 -2.31159 0
M  V30 600 C 57.8889 3.26599 -1.19284 0
M  V30 601 H 57.2119 3.43695 -2.0424 0
M  V30 602 H 58.6519 4.06274 -1.21316 0
M  V30 603 C 57.1109 3.3675 0.100454 0
M  V30 604 O 57.6409 3.86951 1.07851 0
M  V30 605 N 55.8469 2.90179 0.15633 0
M  V30 606 H 55.3939 2.49517 -0.640253 0
M  V30 607 H 55.3519 2.97352 1.02123 0
M  V30 608 N 59.124 1.23083 0.984299 0
M  V30 609 C 60.071 1.00854 2.07598 0
M  V30 610 C 61.041 -0.0726709 1.65941 0
M  V30 611 O 62.226 0.0786535 1.90638 0
M  V30 612 C 59.366 0.601645 3.39815 0
M  V30 613 C 58.479 1.75456 3.94765 0
M  V30 614 C 57.614 1.29482 5.15177 0
M  V30 615 C 56.653 2.41873 5.62284 0
M  V30 616 N 55.79 1.96885 6.73929 0
M  V30 617 H 60.63 1.943 2.25946 0
M  V30 618 H 58.167 0.968001 1.10762 0
M  V30 619 H 60.125 0.346854 4.15756 0
M  V30 620 H 58.755 -0.295803 3.21442 0
M  V30 621 H 57.807 2.12346 3.15616 0
M  V30 622 H 59.119 2.59965 4.25699 0
M  V30 623 H 58.273 0.997923 5.98437 0
M  V30 624 H 57.012 0.420046 4.85888 0
M  V30 625 H 56.017 2.72342 4.77608 0
M  V30 626 H 57.242 3.29881 5.93595 0
M  V30 627 H 55.188 1.11782 6.46406 0
M  V30 628 H 55.105 2.74956 7.04227 0
M  V30 629 H 56.373 1.70289 7.60672 0
M  V30 630 N 60.6021 -1.18246 1.0419 0
M  V30 631 C 61.5121 -2.25574 0.644476 0
M  V30 632 C 62.5281 -1.70845 -0.329826 0
M  V30 633 O 63.7041 -2.00554 -0.184443 0
M  V30 634 C 60.7691 -3.46697 0.014877 0
M  V30 635 C 59.8301 -4.16554 1.03834 0
M  V30 636 C 59.0631 -5.31894 0.438692 0
M  V30 637 O 59.2861 -5.65385 -0.754752 0
M  V30 638 O 58.2201 -5.90459 1.168 0
M  V30 639 H 62.0461 -2.61836 1.53869 0
M  V30 640 H 59.6311 -1.25352 0.812854 0
M  V30 641 H 61.5131 -4.20062 -0.335538 0
M  V30 642 H 60.1881 -3.12255 -0.853138 0
M  V30 643 H 59.0951 -3.45251 1.44057 0
M  V30 644 H 60.4281 -4.54998 1.87716 0
M  V30 645 N 62.0802 -0.821533 -1.34494 0
M  V30 646 C 63.3272 -0.408946 -1.98328 0
M  V30 647 C 63.6552 1.02764 -1.65136 0
M  V30 648 O 62.9102 1.73026 -0.914349 0
M  V30 649 C 63.2092 -0.556512 -3.53041 0
M  V30 650 C 62.8752 -1.95861 -4.0614 0
M  V30 651 C 61.5372 -2.34217 -4.20352 0
M  V30 652 C 63.8892 -2.87523 -4.34718 0
M  V30 653 C 61.2172 -3.63572 -4.6047 0
M  V30 654 C 63.5692 -4.1634 -4.76281 0
M  V30 655 C 62.2332 -4.54675 -4.88699 0
M  V30 656 H 61.5032 -0.149644 -0.725732 0
M  V30 657 H 64.1502 -1.04521 -1.6046 0
M  V30 658 H 62.4552 0.163148 -3.9146 0
M  V30 659 H 64.1522 -0.217826 -4.00408 0
M  V30 660 H 60.7422 -1.65066 -3.95539 0
M  V30 661 H 64.9262 -2.59133 -4.23277 0
M  V30 662 H 60.1822 -3.93101 -4.68275 0
M  V30 663 H 64.3562 -4.87455 -4.97354 0
M  V30 664 H 61.9832 -5.54959 -5.19542 0
M  V30 665 N 63.5583 1.46682 -0.576371 0
M  V30 666 C 64.4913 2.27243 0.208731 0
M  V30 667 C 65.4693 1.35238 0.902746 0
M  V30 668 O 66.6533 1.64641 0.917904 0
M  V30 669 C 63.7803 3.12802 1.29896 0
M  V30 670 C 62.8263 4.20524 0.711457 0
M  V30 671 S 63.6593 5.33548 -0.456781 0
M  V30 672 C 64.8153 6.22673 0.634798 0
M  V30 673 H 65.0483 2.93484 -0.474838 0
M  V30 674 H 62.5813 1.50069 -0.363118 0
M  V30 675 H 64.5393 3.62661 1.92321 0
M  V30 676 H 63.2003 2.45887 1.95444 0
M  V30 677 H 62.3933 4.80191 1.53076 0
M  V30 678 H 61.9953 3.73645 0.162999 0
M  V30 679 H 64.2873 6.60181 1.52209 0
M  V30 680 H 65.2303 7.0806 0.0750311 0
M  V30 681 H 65.6383 5.56684 0.936092 0
M  V30 682 N 65.0364 0.313813 1.54444 0
M  V30 683 C 65.9664 -0.549454 2.26943 0
M  V30 684 C 66.9474 -1.12741 1.27372 0
M  V30 685 O 68.1324 -1.15436 1.56167 0
M  V30 686 C 65.2624 -1.71523 3.01989 0
M  V30 687 C 64.2164 -1.26703 4.08816 0
M  V30 688 C 63.5424 -2.51898 4.71647 0
M  V30 689 C 64.8424 -0.388962 5.2085 0
M  V30 690 H 66.5364 0.0552661 2.99349 0
M  V30 691 H 64.0824 0.0280207 1.43973 0
M  V30 692 H 66.0354 -2.32535 3.51433 0
M  V30 693 H 64.7594 -2.34639 2.27183 0
M  V30 694 H 63.4184 -0.679896 3.6024 0
M  V30 695 H 63.0664 -3.13356 3.93468 0
M  V30 696 H 62.7664 -2.22605 5.43802 0
M  V30 697 H 64.2904 -3.1369 5.23861 0
M  V30 698 H 65.7044 -0.905107 5.6611 0
M  V30 699 H 64.1014 -0.18924 5.99802 0
M  V30 700 H 65.1714 0.582699 4.81386 0
M  V30 701 N 66.5145 -1.57545 0.0417849 0
M  V30 702 C 67.7545 -1.94185 -0.63809 0
M  V30 703 C 68.1185 -0.919339 -1.68559 0
M  V30 704 O 69.3195 -1.17236 -2.41886 0
M  V30 705 C 67.5905 -3.35672 -1.22714 0
M  V30 706 S 69.1495 -3.94256 -1.92633 0
M  V30 707 H 65.9675 -0.679353 -0.209764 0
M  V30 708 H 68.5695 -1.95199 0.108479 0
M  V30 709 H 67.2735 -4.07898 -0.452503 0
M  V30 710 H 66.8045 -3.38132 -2.01073 0
M  V30 711 H 68.8195 -3.7872 -3.20602 0
M  V30 712 N 67.9926 0.231505 -1.5589 0
M  V30 713 C 69.4086 0.580748 -1.48659 0
M  V30 714 C 69.6086 1.87617 -0.73498 0
M  V30 715 O 68.6646 2.51046 -0.270586 0
M  V30 716 C 69.9776 0.669202 -2.93159 0
M  V30 717 C 71.5256 0.760499 -3.03621 0
M  V30 718 C 72.0006 0.880383 -4.49459 0
M  V30 719 N 73.4916 0.944861 -4.53461 0
M  V30 720 C 74.2266 1.05716 -5.63571 0
M  V30 721 N 73.7226 1.13403 -6.83456 0
M  V30 722 N 75.5156 1.09152 -5.514 0
M  V30 723 H 67.6666 -0.618695 -2.03189 0
M  V30 724 H 69.9296 -0.215728 -0.923128 0
M  V30 725 H 69.6356 -0.212904 -3.51055 0
M  V30 726 H 69.5096 1.5361 -3.44505 0
M  V30 727 H 71.8966 1.63305 -2.45796 0
M  V30 728 H 71.9776 -0.131864 -2.5546 0
M  V30 729 H 71.6216 0.0123284 -5.07899 0
M  V30 730 H 71.5516 1.78802 -4.95316 0
M  V30 731 H 74.0426 0.896176 -3.6712 0
M  V30 732 H 74.3556 1.21921 -7.63122 0
M  V30 733 H 72.7006 1.10333 -6.86186 0
M  V30 734 H 75.8916 1.02805 -4.56671 0
M  V30 735 H 76.0646 1.17558 -6.37247 0
M  V30 736 N 69.4707 1.49531 0.497807 0
M  V30 737 C 70.7167 1.60388 1.25089 0
M  V30 738 C 71.0717 0.288328 1.90227 0
M  V30 739 O 70.3647 -0.711706 1.77891 0
M  V30 740 C 70.5587 2.70252 2.33878 0
M  V30 741 C 70.3877 4.12363 1.79408 0
M  V30 742 C 69.1577 4.7911 1.60566 0
M  V30 743 C 71.3557 4.97491 1.30412 0
M  V30 744 N 69.3377 6.05525 1.01059 0
M  V30 745 C 70.7087 6.14411 0.830595 0
M  V30 746 C 72.7637 4.83466 1.19015 0
M  V30 747 C 71.4667 7.1885 0.254371 0
M  V30 748 C 73.4927 5.88057 0.627892 0
M  V30 749 C 72.8547 7.04208 0.16461 0
M  V30 750 H 68.9537 0.641246 0.447579 0
M  V30 751 H 71.5377 1.86549 0.557441 0
M  V30 752 H 69.7087 2.45858 3.0068 0
M  V30 753 H 71.4407 2.70613 3.00917 0
M  V30 754 H 68.1957 4.35961 1.85026 0
M  V30 755 H 68.6197 6.73028 0.732236 0
M  V30 756 H 73.2617 3.93978 1.53431 0
M  V30 757 H 70.9797 8.08036 -0.102052 0
M  V30 758 H 74.5657 5.79266 0.542444 0
M  V30 759 H 73.4457 7.83757 -0.263669 0
M  V30 760 N 70.9488 -0.749086 1.3866 0
M  V30 761 C 71.8588 -1.89358 1.38494 0
M  V30 762 C 72.8748 -1.71708 0.281476 0
M  V30 763 O 74.0508 -1.94554 0.520643 0
M  V30 764 C 71.1158 -3.24782 1.21316 0
M  V30 765 C 70.1768 -3.54926 2.41508 0
M  V30 766 C 69.4098 -4.83888 2.2514 0
M  V30 767 O 69.6328 -5.56592 1.24746 0
M  V30 768 O 68.5668 -5.13612 3.13826 0
M  V30 769 H 72.3928 -1.92452 2.34938 0
M  V30 770 H 69.9778 -0.894981 1.19626 0
M  V30 771 H 71.8598 -4.05739 1.13814 0
M  V30 772 H 70.5348 -3.2249 0.279592 0
M  V30 773 H 69.4418 -2.74112 2.54585 0
M  V30 774 H 70.7748 -3.61983 3.3351 0
M  V30 775 N 72.4269 -1.23603 -0.977757 0
M  V30 776 C 73.3369 -1.03632 -2.1047 0
M  V30 777 C 74.3529 0.0199435 -1.73989 0
M  V30 778 O 75.5289 -0.176076 -2.00629 0
M  V30 779 C 72.5939 -0.63276 -3.40877 0
M  V30 780 C 71.6549 -1.76437 -3.91367 0
M  V30 781 C 70.8879 -1.37997 -5.15551 0
M  V30 782 O 71.1109 -0.265357 -5.69782 0
M  V30 783 O 70.0449 -2.20201 -5.60174 0
M  V30 784 H 73.8709 -1.98086 -2.30208 0
M  V30 785 H 71.4559 -1.02332 -1.08851 0
M  V30 786 H 73.3379 -0.418761 -4.19314 0
M  V30 787 H 72.0129 0.282754 -3.22463 0
M  V30 788 H 70.9199 -2.03304 -3.14036 0
M  V30 789 H 72.2529 -2.6583 -4.14241 0
M  V30 790 N 73.905 1.17692 -1.04816 0
M  V30 791 C 74.852 2.21581 -0.645797 0
M  V30 792 C 75.822 1.62367 0.350159 0
M  V30 793 O 77.007 1.89254 0.242433 0
M  V30 794 C 74.147 3.45092 -0.0227568 0
M  V30 795 C 73.26 4.18613 -1.06709 0
M  V30 796 C 72.395 5.29602 -0.411767 0
M  V30 797 C 71.434 5.94904 -1.44067 0
M  V30 798 N 70.571 6.97414 -0.809781 0
M  V30 799 H 75.411 2.55353 -1.5362 0
M  V30 800 H 72.948 1.25438 -0.768364 0
M  V30 801 H 74.906 4.15679 0.35588 0
M  V30 802 H 73.536 3.11917 0.831122 0
M  V30 803 H 72.588 3.46779 -1.5636 0
M  V30 804 H 73.9 4.63293 -1.84827 0
M  V30 805 H 73.054 6.06696 0.0206623 0
M  V30 806 H 71.793 4.86045 0.401438 0
M  V30 807 H 70.798 5.16544 -1.88316 0
M  V30 808 H 72.023 6.40542 -2.25571 0
M  V30 809 H 69.969 6.55998 -0.0170186 0
M  V30 810 H 69.886 7.40386 -1.52856 0
M  V30 811 H 71.154 7.78463 -0.401999 0
M  V30 812 N 75.3831 0.828654 1.34056 0
M  V30 813 C 76.6601 0.341809 1.9259 0
M  V30 814 C 77.0401 -1.17158 1.75605 0
M  V30 815 O 76.3881 -1.98132 1.13824 0
M  V30 816 C 76.5981 0.777453 3.4023 0
M  V30 817 C 77.9461 0.779579 4.17382 0
M  V30 818 O 78.9701 0.7204 3.48839 0
M  V30 819 O 77.8291 0.857996 5.39723 0
M  V30 820 H 74.9231 0.0946085 0.821571 0
M  V30 821 H 77.4691 0.913827 1.42994 0
M  V30 822 H 76.2411 1.8196 3.46419 0
M  V30 823 H 75.8641 0.181444 3.97186 0
M  V30 824 N 76.8612 -1.46375 0.584142 0
M  V30 825 C 78.2722 -1.86031 0.157959 0
M  V30 826 C 78.6232 -1.48753 -1.27933 0
M  V30 827 O 77.7482 -0.903098 -1.96655 0
M  V30 828 C 78.3432 -3.37642 0.279892 0
M  V30 829 C 76.9022 -3.76289 -0.09143 0
M  V30 830 C 76.0492 -2.7039 0.615178 0
M  V30 831 H 79.0002 -1.37509 0.792274 0
M  V30 832 H 79.0212 -3.77275 -0.494364 0
M  V30 833 H 78.5332 -3.64742 1.32607 0
M  V30 834 H 76.6342 -3.54806 -1.13769 0
M  V30 835 H 76.7472 -4.78246 0.285886 0
M  V30 836 H 75.1112 -2.5464 0.0552833 0
M  V30 837 H 75.8942 -3.0033 1.66303 0
M  V30 838 N 78.3393 -0.321999 -1.54275 0
M  V30 839 C 79.7553 0.0306999 -1.5957 0
M  V30 840 C 79.9553 1.50614 -1.33857 0
M  V30 841 O 79.0113 2.2619 -1.12223 0
M  V30 842 C 80.3243 -0.386122 -2.98211 0
M  V30 843 C 81.8723 -0.336647 -3.11184 0
M  V30 844 C 82.3473 -0.728607 -4.52167 0
M  V30 845 N 83.8383 -0.681952 -4.58152 0
M  V30 846 C 84.5733 -0.957449 -5.6535 0
M  V30 847 N 84.0693 -1.3 -6.80494 0
M  V30 848 N 85.8623 -0.883113 -5.55119 0
M  V30 849 H 78.0133 -1.28332 -1.69247 0
M  V30 850 H 80.2763 -0.521716 -0.791528 0
M  V30 851 H 79.9823 -1.41404 -3.22022 0
M  V30 852 H 79.8563 0.249662 -3.76373 0
M  V30 853 H 82.2433 0.682058 -2.8711 0
M  V30 854 H 82.3243 -1.00734 -2.3513 0
M  V30 855 H 81.9683 -1.74522 -4.76974 0
M  V30 856 H 81.8983 -0.0356152 -5.26588 0
M  V30 857 H 84.3893 -0.428985 -3.75457 0
M  V30 858 H 84.7023 -1.49563 -7.58189 0
M  V30 859 H 83.0473 -1.33824 -6.81994 0
M  V30 860 H 86.2383 -0.615001 -4.64042 0
M  V30 861 H 86.4113 -1.10118 -6.38575 0
M  V30 862 N 79.8174 1.5752 -0.0501392 0
M  V30 863 C 81.2334 1.56631 0.306402 0
M  V30 864 C 81.4334 1.0577 1.71508 0
M  V30 865 O 80.4894 0.713837 2.422 0
M  V30 866 C 81.8024 3.00393 0.135811 0
M  V30 867 C 83.3504 3.12315 0.206993 0
M  V30 868 C 83.8254 4.57954 0.064944 0
M  V30 869 N 85.3164 4.63041 0.121254 0
M  V30 870 C 86.0514 5.73389 0.0354381 0
M  V30 871 N 85.5474 6.92724 -0.102666 0
M  V30 872 N 87.3404 5.62026 0.090946 0
M  V30 873 H 79.4914 1.88903 -0.971046 0
M  V30 874 H 81.7544 0.869876 -0.376855 0
M  V30 875 H 81.4604 3.41635 -0.835384 0
M  V30 876 H 81.3344 3.66373 0.897275 0
M  V30 877 H 83.7214 2.70973 1.16866 0
M  V30 878 H 83.8024 2.49016 -0.585208 0
M  V30 879 H 83.4464 4.99981 -0.893394 0
M  V30 880 H 83.3764 5.19258 0.876277 0
M  V30 881 H 85.8674 3.77216 0.227284 0
M  V30 882 H 86.1804 7.72633 -0.160882 0
M  V30 883 H 84.5254 6.94864 -0.137737 0
M  V30 884 H 87.7164 4.67684 0.197388 0
M  V30 885 H 87.8894 6.47997 0.0206089 0
M  V30 886 N 81.2955 -0.223234 1.56011 0
M  V30 887 C 82.5355 -0.954962 1.8072 0
M  V30 888 C 82.8995 -1.81598 0.623384 0
M  V30 889 O 84.1005 -2.58132 0.749745 0
M  V30 890 C 82.3715 -1.77313 3.10314 0
M  V30 891 S 83.9305 -2.56073 3.56332 0
M  V30 892 H 80.7485 -0.320812 0.634508 0
M  V30 893 H 83.3505 -0.220686 1.9425 0
M  V30 894 H 82.0545 -1.13071 3.94516 0
M  V30 895 H 81.5855 -2.54974 2.99586 0
M  V30 896 H 83.6005 -3.79619 3.19536 0
M  V30 897 N 82.7736 -1.49793 -0.48987 0
M  V30 898 C 83.7036 -1.70201 -1.59856 0
M  V30 899 C 84.6846 -0.55076 -1.60937 0
M  V30 900 O 85.8696 -0.787841 -1.77501 0
M  V30 901 C 82.9996 -1.77882 -2.98287 0
M  V30 902 C 81.9536 -2.92907 -3.12073 0
M  V30 903 C 81.2796 -2.85712 -4.51965 0
M  V30 904 C 82.5796 -4.3369 -2.91051 0
M  V30 905 H 84.2736 -2.63025 -1.43032 0
M  V30 906 H 81.8196 -1.26574 -0.686664 0
M  V30 907 H 83.7726 -1.90744 -3.75759 0
M  V30 908 H 82.4966 -0.816653 -3.16225 0
M  V30 909 H 81.1556 -2.79665 -2.37029 0
M  V30 910 H 80.8036 -1.8738 -4.66795 0
M  V30 911 H 80.5036 -3.62921 -4.62128 0
M  V30 912 H 82.0276 -3.00598 -5.31482 0
M  V30 913 H 83.4416 -4.47555 -3.58284 0
M  V30 914 H 81.8386 -5.12205 -3.12675 0
M  V30 915 H 82.9086 -4.47362 -1.87071 0
M  V30 916 N 84.2517 0.741722 -1.39055 0
M  V30 917 C 85.1617 1.88621 -1.39496 0
M  V30 918 C 86.1777 1.71557 -0.290578 0
M  V30 919 O 87.3537 1.94275 -0.530954 0
M  V30 920 C 84.4187 3.24134 -1.23037 0
M  V30 921 C 83.4797 3.5364 -2.43387 0
M  V30 922 C 82.7127 4.82687 -2.27703 0
M  V30 923 O 82.9357 5.55922 -1.27696 0
M  V30 924 O 81.8697 5.1194 -3.16545 0
M  V30 925 H 85.6957 1.91203 -2.35956 0
M  V30 926 H 83.2807 0.888625 -1.20099 0
M  V30 927 H 85.1627 4.0513 -1.15964 0
M  V30 928 H 83.8377 3.22337 -0.296691 0
M  V30 929 H 82.7447 2.72758 -2.56035 0
M  V30 930 H 84.0777 3.60209 -3.35425 0
M  V30 931 N 85.7298 1.2412 0.971189 0
M  V30 932 C 86.6398 1.04747 2.09917 0
M  V30 933 C 87.6558 -0.0107162 1.73997 0
M  V30 934 O 88.8318 0.186714 2.00533 0
M  V30 935 C 85.8968 0.650828 3.40537 0
M  V30 936 C 84.9578 1.7851 3.90426 0
M  V30 937 C 84.1908 1.40729 5.14812 0
M  V30 938 O 84.4138 0.29557 5.69634 0
M  V30 939 O 83.3478 2.23168 5.58999 0
M  V30 940 H 87.1738 1.99304 2.29154 0
M  V30 941 H 84.7588 1.02908 1.08307 0
M  V30 942 H 86.6408 0.440992 4.19086 0
M  V30 943 H 85.3158 -0.265649 3.22608 0
M  V30 944 H 84.2228 2.04966 3.12953 0
M  V30 945 H 85.5558 2.68023 4.12825 0
M  V30 946 N 87.2079 -1.17134 1.05439 0
M  V30 947 C 88.4559 -1.87085 0.764429 0
M  V30 948 C 88.7769 -1.81584 -0.710787 0
M  V30 949 O 88.0469 -1.24349 -1.51374 0
M  V30 950 H 86.6269 -0.692627 0.279779 0
M  V30 951 H 89.2889 -1.42087 1.33406 0
M  V30 952 H 88.3849 -2.92759 1.0816 0
M  V30 953 N 88.686 -0.835752 -1.33615 0
M  V30 954 C 89.633 -0.26473 -2.29277 0
M  V30 955 C 90.603 0.617712 -1.54187 0
M  V30 956 O 91.788 0.556641 -1.825 0
M  V30 957 C 88.928 0.556777 -3.40579 0
M  V30 958 C 88.041 -0.349339 -4.30585 0
M  V30 959 C 87.176 0.482969 -5.29 0
M  V30 960 C 86.215 -0.421732 -6.10645 0
M  V30 961 N 85.352 0.372262 -7.01112 0
M  V30 962 H 90.192 -1.08582 -2.77514 0
M  V30 963 H 87.729 -0.546927 -1.36554 0
M  V30 964 H 89.687 1.04852 -4.03809 0
M  V30 965 H 88.317 1.34286 -2.93542 0
M  V30 966 H 87.369 -0.959372 -3.68104 0
M  V30 967 H 88.681 -1.04445 -4.87742 0
M  V30 968 H 87.835 1.03866 -5.97743 0
M  V30 969 H 86.574 1.21153 -4.72412 0
M  V30 970 H 85.579 -0.989464 -5.40823 0
M  V30 971 H 86.804 -1.14861 -6.69316 0
M  V30 972 H 84.75 1.08426 -6.46977 0
M  V30 973 H 84.667 -0.264198 -7.55538 0
M  V30 974 H 85.935 0.910293 -7.74167 0
M  V30 975 N 90.1641 1.46063 -0.591896 0
M  V30 976 C 91.0941 2.33172 0.123673 0
M  V30 977 C 92.0751 1.45897 0.87453 0
M  V30 978 O 93.2601 1.74698 0.848181 0
M  V30 979 C 90.3901 3.28336 1.13194 0
M  V30 980 C 89.3441 4.25124 0.495324 0
M  V30 981 C 88.6701 5.09863 1.61071 0
M  V30 982 C 89.9701 5.19143 -0.573425 0
M  V30 983 H 91.6641 2.93252 -0.603646 0
M  V30 984 H 89.2101 1.41014 -0.291741 0
M  V30 985 H 91.1631 3.88137 1.64097 0
M  V30 986 H 89.8871 2.66383 1.88965 0
M  V30 987 H 88.5461 3.66599 0.00729452 0
M  V30 988 H 88.1941 4.44288 2.35832 0
M  V30 989 H 87.8941 5.75417 1.19035 0
M  V30 990 H 89.4181 5.72529 2.12233 0
M  V30 991 H 90.8321 5.73106 -0.1491 0
M  V30 992 H 89.2291 5.93089 -0.914636 0
M  V30 993 H 90.2991 4.62519 -1.45617 0
M  V30 994 N 91.6422 0.330177 1.54103 0
M  V30 995 C 92.8882 -0.270806 2.00984 0
M  V30 996 C 93.2212 -1.51265 1.21789 0
M  V30 997 O 92.4962 -1.92142 0.301927 0
M  V30 998 C 92.7792 -0.598339 3.55094 0
M  V30 999 C 92.6322 0.654674 4.4501 0
M  V30 1000 C 93.9512 -1.41334 4.16789 0
M  V30 1001 H 91.0702 -0.0969531 0.730595 0
M  V30 1002 H 93.7122 0.448066 1.84641 0
M  V30 1003 H 91.8622 -1.21078 3.69151 0
M  V30 1004 H 93.5342 1.29285 4.42813 0
M  V30 1005 H 91.7772 1.28224 4.14416 0
M  V30 1006 H 92.4482 0.380944 5.50684 0
M  V30 1007 H 94.9242 -0.895597 4.06347 0
M  V30 1008 H 93.8002 -1.61127 5.24718 0
M  V30 1009 H 94.0612 -2.41146 3.70541 0
M  V30 1010 N 93.1203 -1.57491 0.0584922 0
M  V30 1011 C 94.0683 -2.13148 -0.931168 0
M  V30 1012 C 95.0623 -1.06507 -1.31729 0
M  V30 1013 O 96.2683 -1.24906 -1.29609 0
M  V30 1014 H 92.6433 -0.68137 -0.31818 0
M  V30 1015 H 94.6143 -2.95187 -0.436707 0
M  V30 1016 C 93.3633 -2.69732 -2.19408 0
M  V30 1017 H 92.6863 -3.51454 -1.90578 0
M  V30 1018 H 94.1263 -3.12287 -2.86798 0
M  V30 1019 C 92.5853 -1.63855 -2.94369 0
M  V30 1020 O 93.1153 -1.05565 -3.87581 0
M  V30 1021 N 91.3213 -1.35202 -2.57233 0
M  V30 1022 H 90.8683 -1.82791 -1.81508 0
M  V30 1023 H 90.8263 -0.645922 -3.07693 0
M  V30 1024 N 94.5984 0.214957 -1.56127 0
M  V30 1025 C 95.5454 1.26642 -1.92952 0
M  V30 1026 C 96.5154 1.46244 -0.78753 0
M  V30 1027 O 97.7004 1.59704 -1.04399 0
M  V30 1028 C 94.8404 2.6104 -2.25726 0
M  V30 1029 C 93.9534 2.49183 -3.52891 0
M  V30 1030 C 93.0884 3.76149 -3.7508 0
M  V30 1031 C 92.1274 3.59041 -4.95738 0
M  V30 1032 N 91.2644 4.77972 -5.14283 0
M  V30 1033 H 96.1044 0.945384 -2.82607 0
M  V30 1034 H 93.6414 0.455489 -1.3987 0
M  V30 1035 H 95.5994 3.39313 -2.42739 0
M  V30 1036 H 94.2294 2.91227 -1.39236 0
M  V30 1037 H 93.2814 1.6231 -3.44034 0
M  V30 1038 H 94.5934 2.32466 -4.41318 0
M  V30 1039 H 93.7474 4.62865 -3.92226 0
M  V30 1040 H 92.4864 3.95799 -2.84947 0
M  V30 1041 H 91.4914 2.7071 -4.78535 0
M  V30 1042 H 92.7164 3.40856 -5.87362 0
M  V30 1043 H 90.6624 4.97923 -4.27093 0
M  V30 1044 H 90.5794 4.64006 -5.96853 0
M  V30 1045 H 91.8474 5.66096 -5.35869 0
M  V30 1046 N 96.0765 1.50051 0.48192 0
M  V30 1047 C 97.3165 1.62128 1.24474 0
M  V30 1048 C 97.6805 0.309742 1.89485 0
M  V30 1049 O 98.8815 0.305854 2.67054 0
M  V30 1050 C 97.1525 2.76151 2.26882 0
M  V30 1051 S 98.7115 3.08297 3.12247 0
M  V30 1052 H 95.5295 0.571661 0.422759 0
M  V30 1053 H 98.1315 1.87791 0.54359 0
M  V30 1054 H 96.8355 3.69942 1.77683 0
M  V30 1055 H 96.3665 2.52541 3.0164 0
M  V30 1056 H 98.3815 2.51287 4.27866 0
M  V30 1057 N 97.5546 -0.734337 1.39446 0
M  V30 1058 C 98.5176 -1.83004 1.37994 0
M  V30 1059 C 99.5176 -1.58397 0.276938 0
M  V30 1060 O 100.708 -1.65785 0.534875 0
M  V30 1061 C 97.8396 -3.20802 1.1532 0
M  V30 1062 H 99.0326 -1.85694 2.35494 0
M  V30 1063 H 96.5856 -0.938059 1.25021 0
M  V30 1064 H 97.3206 -3.23772 0.185036 0
M  V30 1065 H 97.1056 -3.4006 1.95197 0
M  V30 1066 H 98.5956 -4.00862 1.17046 0
M  V30 1067 N 99.0327 -1.24633 -0.964593 0
M  V30 1068 C 99.9627 -1.06611 -2.07741 0
M  V30 1069 C 100.944 0.0218666 -1.70086 0
M  V30 1070 O 102.129 -0.145793 -1.93652 0
M  V30 1071 C 99.2587 -0.673444 -3.40708 0
M  V30 1072 C 98.2127 -1.71054 -3.92332 0
M  V30 1073 C 97.5387 -1.17285 -5.21678 0
M  V30 1074 C 98.8387 -3.10718 -4.19824 0
M  V30 1075 H 100.533 -1.99693 -2.23076 0
M  V30 1076 H 98.0787 -0.96152 -1.07195 0
M  V30 1077 H 100.032 -0.534345 -4.17998 0
M  V30 1078 H 98.7557 0.293073 -3.25282 0
M  V30 1079 H 97.4147 -1.83791 -3.17201 0
M  V30 1080 H 97.0627 -0.196847 -5.02615 0
M  V30 1081 H 96.7627 -1.86592 -5.57187 0
M  V30 1082 H 98.2867 -1.04593 -6.01575 0
M  V30 1083 H 99.7007 -3.01192 -4.87808 0
M  V30 1084 H 98.0977 -3.77406 -4.66567 0
M  V30 1085 H 99.1677 -3.58524 -3.26479 0
M  V30 1086 N 100.511 1.16574 -1.06058 0
M  V30 1087 C 101.788 1.83048 -0.689416 0
M  V30 1088 C 102.168 1.94122 0.829443 0
M  V30 1089 O 101.516 1.48249 1.7388 0
M  V30 1090 C 101.726 3.20186 -1.38859 0
M  V30 1091 C 103.074 3.95989 -1.53226 0
M  V30 1092 O 104.098 3.29696 -1.3483 0
M  V30 1093 O 102.957 5.14813 -1.83384 0
M  V30 1094 H 100.051 0.790258 -0.243764 0
M  V30 1095 H 102.597 1.23797 -1.16071 0
M  V30 1096 H 101.369 3.07146 -2.4244 0
M  V30 1097 H 100.992 3.87112 -0.907216 0
M  V30 1098 N 101.989 0.842826 1.3317 0
M  V30 1099 C 103.236 0.440447 1.97652 0
M  V30 1100 C 103.564 -1.00123 1.6675 0
M  V30 1101 O 102.819 -1.7155 0.941761 0
M  V30 1102 C 103.118 0.612607 3.52111 0
M  V30 1103 C 102.784 2.02297 4.02972 0
M  V30 1104 C 101.446 2.40874 4.16573 0
M  V30 1105 C 103.798 2.94402 4.30089 0
M  V30 1106 C 101.126 3.70852 4.54627 0
M  V30 1107 C 103.478 4.23865 4.69597 0
M  V30 1108 C 102.142 4.62392 4.81404 0
M  V30 1109 H 101.412 0.161171 0.72326 0
M  V30 1110 H 104.059 1.07061 1.58777 0
M  V30 1111 H 102.364 -0.100849 3.9167 0
M  V30 1112 H 104.061 0.2815 4.00011 0
M  V30 1113 H 100.651 1.71338 3.92863 0
M  V30 1114 H 104.835 2.65835 4.19101 0
M  V30 1115 H 100.091 4.00501 4.61962 0
M  V30 1116 H 104.265 4.95306 4.89536 0
M  V30 1117 H 101.892 5.63154 5.10648 0
M  V30 1118 N 103.467 -1.45747 0.599634 0
M  V30 1119 C 104.714 -2.02292 0.0917284 0
M  V30 1120 C 105.042 -1.46906 -1.27472 0
M  V30 1121 O 104.297 -0.630652 -1.8526 0
M  V30 1122 C 104.596 -3.57399 -0.00602758 0
M  V30 1123 C 104.262 -4.31902 1.29503 0
M  V30 1124 C 102.924 -4.51974 1.65144 0
M  V30 1125 C 105.276 -4.74551 2.15525 0
M  V30 1126 C 102.604 -5.11949 2.86574 0
M  V30 1127 C 104.956 -5.35868 3.36196 0
M  V30 1128 C 103.62 -5.54165 3.72099 0
M  V30 1129 H 102.89 -0.740239 0.0335658 0
M  V30 1130 H 105.537 -1.7491 0.779661 0
M  V30 1131 H 103.842 -3.84014 -0.777183 0
M  V30 1132 H 105.539 -3.98846 -0.415038 0
M  V30 1133 H 102.129 -4.16588 1.00761 0
M  V30 1134 H 106.313 -4.58784 1.8929 0
M  V30 1135 H 101.569 -5.24305 3.14507 0
M  V30 1136 H 105.743 -5.6787 4.03109 0
M  V30 1137 H 103.37 -6.00406 4.6628 0
M  V30 1138 N 104.945 -0.338344 -1.53925 0
M  V30 1139 C 106.361 0.0137736 -1.59594 0
M  V30 1140 C 106.561 1.49186 -1.35447 0
M  V30 1141 O 105.617 2.24987 -1.14616 0
M  V30 1142 C 106.93 -0.41773 -2.97784 0
M  V30 1143 C 108.478 -0.369633 -3.1081 0
M  V30 1144 C 108.953 -0.776524 -4.51369 0
M  V30 1145 N 110.444 -0.730506 -4.57403 0
M  V30 1146 C 111.179 -1.01736 -5.64303 0
M  V30 1147 N 110.675 -1.3721 -6.79077 0
M  V30 1148 N 112.468 -0.941942 -5.54151 0
M  V30 1149 H 104.619 -1.3012 -1.67876 0
M  V30 1150 H 106.882 -0.530082 -0.78595 0
M  V30 1151 H 106.588 -1.44811 -3.20504 0
M  V30 1152 H 106.462 0.209729 -3.76616 0
M  V30 1153 H 108.849 0.651568 -2.87817 0
M  V30 1154 H 108.93 -1.03223 -2.34049 0
M  V30 1155 H 108.574 -1.79571 -4.75096 0
M  V30 1156 H 108.504 -0.0914649 -5.26521 0
M  V30 1157 H 110.995 -0.468783 -3.74981 0
M  V30 1158 H 111.308 -1.57597 -7.5656 0
M  V30 1159 H 109.653 -1.4105 -6.80536 0
M  V30 1160 H 112.844 -0.664184 -4.63364 0
M  V30 1161 H 113.017 -1.16884 -6.37371 0
M  V30 1162 N 106.423 1.57458 -0.0668435 0
M  V30 1163 C 107.355 2.09413 0.931601 0
M  V30 1164 C 108.368 1.02522 1.26464 0
M  V30 1165 O 109.557 1.30049 1.22269 0
M  V30 1166 C 106.657 2.53537 2.24882 0
M  V30 1167 C 105.83 3.83944 2.09537 0
M  V30 1168 C 104.889 4.14214 3.2452 0
M  V30 1169 O 103.915 4.83891 2.9973 0
M  V30 1170 N 105.117 3.67367 4.49469 0
M  V30 1171 H 107.882 2.95699 0.488048 0
M  V30 1172 H 105.443 1.61462 0.119009 0
M  V30 1173 H 107.435 2.70853 3.00701 0
M  V30 1174 H 106.005 1.72415 2.60753 0
M  V30 1175 H 105.225 3.76057 1.18215 0
M  V30 1176 H 106.513 4.69312 1.96529 0
M  V30 1177 H 105.911 3.11068 4.72497 0
M  V30 1178 H 104.468 3.89891 5.2233 0
M  V30 1179 N 107.901 -0.206675 1.56239 0
M  V30 1180 C 109.15 -0.926964 1.79138 0
M  V30 1181 C 109.463 -1.84901 0.638043 0
M  V30 1182 O 110.669 -2.60906 0.751033 0
M  V30 1183 C 109.125 -1.6986 3.17294 0
M  V30 1184 C 108.733 -0.821956 4.40395 0
M  V30 1185 C 110.477 -2.40922 3.4951 0
M  V30 1186 C 108.384 -1.59179 5.69575 0
M  V30 1187 H 107.314 -0.349864 0.667915 0
M  V30 1188 H 109.965 -0.180487 1.8261 0
M  V30 1189 H 108.347 -2.48853 3.08039 0
M  V30 1190 H 109.521 -0.0715019 4.60745 0
M  V30 1191 H 107.836 -0.222741 4.15804 0
M  V30 1192 H 110.433 -2.99047 4.43255 0
M  V30 1193 H 110.776 -3.14542 2.72707 0
M  V30 1194 H 111.309 -1.68905 3.60161 0
M  V30 1195 H 108.048 -0.898589 6.49312 0
M  V30 1196 H 107.568 -2.31648 5.53262 0
M  V30 1197 H 109.247 -2.14862 6.10281 0
M  V30 1198 N 109.379 -1.50304 -0.473955 0
M  V30 1199 C 110.326 -1.68959 -1.57231 0
M  V30 1200 C 111.296 -0.530899 -1.57387 0
M  V30 1201 O 112.481 -0.761133 -1.74961 0
M  V30 1202 C 109.621 -1.7871 -2.95223 0
M  V30 1203 C 108.734 -3.06061 -3.04878 0
M  V30 1204 C 107.869 -3.06626 -4.33767 0
M  V30 1205 C 106.908 -4.28443 -4.37154 0
M  V30 1206 N 106.045 -4.26763 -5.5751 0
M  V30 1207 H 110.885 -2.6273 -1.40631 0
M  V30 1208 H 108.422 -1.30241 -0.683789 0
M  V30 1209 H 110.38 -1.82344 -3.75242 0
M  V30 1210 H 109.01 -0.883806 -3.10465 0
M  V30 1211 H 108.062 -3.11911 -2.17751 0
M  V30 1212 H 109.374 -3.96039 -3.0324 0
M  V30 1213 H 108.528 -3.08973 -5.22131 0
M  V30 1214 H 107.267 -2.14473 -4.3801 0
M  V30 1215 H 106.272 -4.2631 -3.47188 0
M  V30 1216 H 107.497 -5.2182 -4.34605 0
M  V30 1217 H 105.443 -3.37462 -5.62544 0
M  V30 1218 H 105.36 -5.10507 -5.57601 0
M  V30 1219 H 106.628 -4.33253 -6.48006 0
M  V30 1220 N 110.857 0.726932 -1.39834 0
M  V30 1221 C 112.273 1.03354 -1.21615 0
M  V30 1222 C 112.473 2.01327 -0.08338 0
M  V30 1223 O 111.529 2.46158 0.56238 0
M  V30 1224 C 112.842 1.58811 -2.55342 0
M  V30 1225 C 114.39 1.70851 -2.62257 0
M  V30 1226 C 114.865 2.29716 -3.96225 0
M  V30 1227 N 116.356 2.37116 -3.97907 0
M  V30 1228 C 117.091 2.83619 -4.98345 0
M  V30 1229 N 116.587 3.29958 -6.09179 0
M  V30 1230 N 118.38 2.82901 -4.8572 0
M  V30 1231 H 110.531 0.0773069 -2.12259 0
M  V30 1232 H 112.794 0.0969102 -0.943034 0
M  V30 1233 H 112.5 0.942855 -3.38826 0
M  V30 1234 H 112.374 2.57502 -2.75632 0
M  V30 1235 H 114.761 2.34497 -1.79152 0
M  V30 1236 H 114.842 0.707913 -2.45809 0
M  V30 1237 H 114.486 1.66696 -4.79765 0
M  V30 1238 H 114.416 3.30469 -4.09997 0
M  V30 1239 H 116.907 2.04374 -3.17868 0
M  V30 1240 H 117.22 3.63976 -6.8172 0
M  V30 1241 H 115.565 3.27946 -6.12761 0
M  V30 1242 H 118.756 2.46027 -3.98231 0
M  V30 1243 H 118.929 3.18827 -5.6414 0
M  V30 1244 N 112.336 1.25143 0.95797 0
M  V30 1245 C 113.286 1.01924 2.0395 0
M  V30 1246 C 114.27 -0.0427175 1.60843 0
M  V30 1247 O 115.462 0.17221 1.7616 0
M  V30 1248 C 112.591 0.636373 3.3735 0
M  V30 1249 C 111.677 1.73492 3.8699 0
M  V30 1250 N 112.068 2.96945 4.0946 0
M  V30 1251 C 110.366 1.61467 4.15746 0
M  V30 1252 C 111.067 3.68228 4.50315 0
M  V30 1253 N 110.043 2.95833 4.56053 0
M  V30 1254 H 113.845 1.95653 2.19311 0
M  V30 1255 H 111.359 1.15413 1.14253 0
M  V30 1256 H 113.356 0.451233 4.14451 0
M  V30 1257 H 112.016 -0.293621 3.2337 0
M  V30 1258 H 113.027 3.33025 3.96629 0
M  V30 1259 H 109.704 0.753394 4.10646 0
M  V30 1260 H 111.094 4.74178 4.76031 0
M  V30 1261 N 113.814 -1.1601 1.06675 0
M  V30 1262 C 115.054 -1.88304 0.795037 0
M  V30 1263 C 115.418 -1.80062 -0.666466 0
M  V30 1264 O 116.619 -2.47319 -1.05293 0
M  V30 1265 C 114.89 -3.33664 1.28076 0
M  V30 1266 S 116.449 -4.23768 1.13868 0
M  V30 1267 H 113.267 -0.649928 0.288296 0
M  V30 1268 H 115.869 -1.4001 1.36445 0
M  V30 1269 H 114.573 -3.37203 2.33927 0
M  V30 1270 H 114.104 -3.87009 0.706253 0
M  V30 1271 H 116.119 -4.96148 0.0719668 0
M  V30 1272 N 115.292 -0.849877 -1.32721 0
M  V30 1273 C 116.255 -0.296122 -2.27279 0
M  V30 1274 C 117.255 0.541458 -1.5141 0
M  V30 1275 O 118.445 0.353658 -1.70572 0
M  V30 1276 C 115.577 0.581579 -3.35902 0
M  V30 1277 H 116.77 -1.13064 -2.77771 0
M  V30 1278 H 114.323 -0.62383 -1.43311 0
M  V30 1279 H 115.058 1.43809 -2.9067 0
M  V30 1280 H 114.843 -0.0178814 -3.92096 0
M  V30 1281 H 116.333 0.961951 -4.0637 0
M  V30 1282 N 116.77 1.45427 -0.607355 0
M  V30 1283 C 117.68 2.34325 0.113463 0
M  V30 1284 C 118.696 1.51226 0.860617 0
M  V30 1285 O 119.872 1.84029 0.818255 0
M  V30 1286 C 116.937 3.28839 1.09844 0
M  V30 1287 C 115.998 4.27844 0.353271 0
M  V30 1288 C 115.231 5.17842 1.29133 0
M  V30 1289 O 115.454 5.11264 2.52913 0
M  V30 1290 O 114.388 5.96713 0.788523 0
M  V30 1291 H 118.214 2.97364 -0.617094 0
M  V30 1292 H 115.799 1.44807 -0.367619 0
M  V30 1293 H 117.681 3.8708 1.66575 0
M  V30 1294 H 116.356 2.68365 1.81003 0
M  V30 1295 H 115.263 3.7322 -0.256494 0
M  V30 1296 H 116.596 4.91173 -0.317822 0
M  V30 1297 N 118.248 0.346503 1.53744 0
M  V30 1298 C 119.659 -0.136779 1.86198 0
M  V30 1299 C 120.01 -1.49749 1.26766 0
M  V30 1300 O 119.135 -2.08417 0.582355 0
M  V30 1301 C 119.73 -0.254966 3.37839 0
M  V30 1302 C 118.289 -0.682482 3.70161 0
M  V30 1303 C 117.436 0.181981 2.76702 0
M  V30 1304 H 120.387 0.565994 1.48264 0
M  V30 1305 H 120.408 -1.08195 3.64793 0
M  V30 1306 H 119.92 0.735526 3.81066 0
M  V30 1307 H 118.021 -1.68189 3.3248 0
M  V30 1308 H 118.134 -0.470326 4.76786 0
M  V30 1309 H 116.498 -0.34615 2.52337 0
M  V30 1310 H 117.281 1.16966 3.2276 0
M  V30 1311 N 119.726 -1.57421 0.075193 0
M  V30 1312 C 120.973 -1.93618 -0.593146 0
M  V30 1313 C 121.301 -0.955484 -1.69413 0
M  V30 1314 O 120.556 0.0283251 -1.9568 0
M  V30 1315 C 120.855 -3.36428 -1.20626 0
M  V30 1316 C 120.521 -4.50307 -0.231078 0
M  V30 1317 C 119.183 -4.81186 0.0371936 0
M  V30 1318 C 121.535 -5.19374 0.435888 0
M  V30 1319 C 118.863 -5.78466 0.979461 0
M  V30 1320 C 121.215 -6.17665 1.3665 0
M  V30 1321 C 119.879 -6.46958 1.6432 0
M  V30 1322 H 119.149 -0.708499 -0.217047 0
M  V30 1323 H 121.796 -1.90937 0.146793 0
M  V30 1324 H 120.101 -3.35592 -2.02201 0
M  V30 1325 H 121.798 -3.61727 -1.73073 0
M  V30 1326 H 118.388 -4.26227 -0.450357 0
M  V30 1327 H 122.572 -4.95711 0.241748 0
M  V30 1328 H 117.828 -5.99487 1.20106 0
M  V30 1329 H 122.002 -6.70284 1.88924 0
M  V30 1330 H 119.629 -7.2215 2.37494 0
M  V30 1331 N 121.204 0.198386 -1.56346 0
M  V30 1332 C 122.432 0.935572 -1.84539 0
M  V30 1333 C 122.847 1.76989 -0.657281 0
M  V30 1334 O 122.204 1.78626 0.374043 0
M  V30 1335 C 122.255 1.8344 -3.11499 0
M  V30 1336 O 121.976 1.03377 -4.25728 0
M  V30 1337 C 123.477 2.68355 -3.52846 0
M  V30 1338 H 120.697 0.273126 -0.612897 0
M  V30 1339 H 123.241 0.20663 -2.03453 0
M  V30 1340 H 121.396 2.51701 -2.94492 0
M  V30 1341 H 121.81 1.64599 -4.98003 0
M  V30 1342 H 123.284 3.27085 -4.44657 0
M  V30 1343 H 123.761 3.41901 -2.75681 0
M  V30 1344 H 124.367 2.05471 -3.72373 0
M  V30 1345 N 122.682 1.50554 0.465978 0
M  V30 1346 C 123.592 1.72585 1.58907 0
M  V30 1347 C 124.608 0.60911 1.6299 0
M  V30 1348 O 125.784 0.88804 1.80765 0
M  V30 1349 C 122.849 1.81995 2.95091 0
M  V30 1350 C 121.91 3.05751 3.01355 0
M  V30 1351 C 121.143 3.14702 4.31043 0
M  V30 1352 O 121.366 2.30313 5.21835 0
M  V30 1353 O 120.3 4.07468 4.43005 0
M  V30 1354 H 124.126 2.67799 1.43239 0
M  V30 1355 H 121.711 1.34711 0.646013 0
M  V30 1356 H 123.593 1.90335 3.75966 0
M  V30 1357 H 122.268 0.899659 3.10947 0
M  V30 1358 H 121.175 3.02908 2.19539 0
M  V30 1359 H 122.508 3.97375 2.90437 0
M  V30 1360 N 124.16 -0.719506 1.40217 0
M  V30 1361 C 125.39 -1.50646 1.41384 0
M  V30 1362 C 125.798 -1.89197 0.0107743 0
M  V30 1363 O 125.141 -1.55709 -0.974708 0
M  V30 1364 C 125.203 -2.81405 2.23722 0
M  V30 1365 C 124.867 -2.65199 3.72181 0
M  V30 1366 C 125.864 -2.32717 4.64907 0
M  V30 1367 C 123.549 -2.81586 4.1595 0
M  V30 1368 C 125.543 -2.16827 5.99387 0
M  V30 1369 C 123.23 -2.65313 5.50502 0
M  V30 1370 C 124.228 -2.32981 6.42035 0
M  V30 1371 O 123.916 -2.16827 7.74107 0
M  V30 1372 H 123.648 -0.471606 0.484318 0
M  V30 1373 H 126.202 -0.895456 1.84853 0
M  V30 1374 H 124.432 -3.44823 1.75026 0
M  V30 1375 H 126.121 -3.43102 2.16878 0
M  V30 1376 H 126.887 -2.19694 4.32388 0
M  V30 1377 H 122.766 -3.0574 3.45027 0
M  V30 1378 H 126.31 -1.91513 6.70797 0
M  V30 1379 H 122.207 -2.7792 5.82607 0
M  V30 1380 H 122.975 -2.31778 7.84998 0
M  V30 1381 N 125.638 -1.25649 -0.95132 0
M  V30 1382 C 126.884 -1.11766 -1.69941 0
M  V30 1383 C 127.239 0.33735 -1.89419 0
M  V30 1384 O 126.532 1.24491 -1.45645 0
M  V30 1385 C 126.726 -1.80909 -3.08231 0
M  V30 1386 C 126.555 -3.32984 -3.02245 0
M  V30 1387 C 125.325 -4.02247 -3.05819 0
M  V30 1388 C 127.523 -4.29332 -2.83157 0
M  V30 1389 N 125.505 -5.41072 -2.90024 0
M  V30 1390 C 126.876 -5.55265 -2.75828 0
M  V30 1391 C 128.931 -4.19707 -2.67863 0
M  V30 1392 C 127.634 -6.72671 -2.54767 0
M  V30 1393 C 129.66 -5.36809 -2.48173 0
M  V30 1394 C 129.022 -6.61683 -2.41567 0
M  V30 1395 H 125.121 -0.463708 -0.629682 0
M  V30 1396 H 127.705 -1.58796 -1.12659 0
M  V30 1397 H 125.876 -1.36369 -3.63673 0
M  V30 1398 H 127.608 -1.59739 -3.71841 0
M  V30 1399 H 124.363 -3.53531 -3.15139 0
M  V30 1400 H 124.787 -6.13938 -2.85323 0
M  V30 1401 H 129.429 -3.23907 -2.71743 0
M  V30 1402 H 127.147 -7.68577 -2.49629 0
M  V30 1403 H 130.733 -5.31224 -2.37259 0
M  V30 1404 H 129.613 -7.50768 -2.26531 0
M  V30 1405 N 127.117 1.15442 -1.07289 0
M  V30 1406 C 128.345 1.90096 -0.81676 0
M  V30 1407 C 128.76 1.7798 0.629966 0
M  V30 1408 O 128.117 1.1313 1.43206 0
M  V30 1409 C 128.168 3.40466 -1.21512 0
M  V30 1410 O 127.889 3.52232 -2.60508 0
M  V30 1411 C 129.39 4.32145 -0.988198 0
M  V30 1412 H 126.61 0.602495 -0.295366 0
M  V30 1413 H 129.154 1.4627 -1.42918 0
M  V30 1414 H 127.309 3.81958 -0.647039 0
M  V30 1415 H 127.723 4.45549 -2.76742 0
M  V30 1416 H 129.197 5.36072 -1.31645 0
M  V30 1417 H 129.674 4.39135 0.0755063 0
M  V30 1418 H 130.28 3.96395 -1.54115 0
M  V30 1419 N 128.595 0.856903 1.32268 0
M  V30 1420 C 129.835 0.467705 1.98977 0
M  V30 1421 C 130.199 -0.959231 1.66321 0
M  V30 1422 O 131.4 -1.4531 2.26138 0
M  V30 1423 C 129.671 0.70256 3.50427 0
M  V30 1424 S 131.23 0.411269 4.36868 0
M  V30 1425 H 128.048 0.175121 0.689096 0
M  V30 1426 H 130.65 1.1101 1.60925 0
M  V30 1427 H 129.354 1.74012 3.71683 0
M  V30 1428 H 128.885 0.0466707 3.93372 0
M  V30 1429 H 130.9 -0.761799 4.90317 0
M  V30 1430 N 130.073 -1.45103 0.615059 0
M  V30 1431 C 131.322 -2.01396 0.110718 0
M  V30 1432 C 131.635 -1.48834 -1.26916 0
M  V30 1433 O 132.841 -1.97152 -1.86664 0
M  V30 1434 C 131.297 -3.59599 0.14723 0
M  V30 1435 C 130.905 -4.21158 1.52743 0
M  V30 1436 C 132.649 -4.23428 -0.30148 0
M  V30 1437 C 130.556 -5.71535 1.51992 0
M  V30 1438 H 129.486 -0.753061 0.0376241 0
M  V30 1439 H 132.137 -1.66494 0.77149 0
M  V30 1440 H 130.519 -3.91724 -0.580339 0
M  V30 1441 H 131.693 -4.00594 2.2773 0
M  V30 1442 H 130.008 -3.69552 1.91886 0
M  V30 1443 H 132.605 -5.33703 -0.326392 0
M  V30 1444 H 132.948 -3.94629 -1.32565 0
M  V30 1445 H 133.481 -3.96047 0.373065 0
M  V30 1446 H 130.22 -6.05044 2.52193 0
M  V30 1447 H 129.74 -5.94268 0.81274 0
M  V30 1448 H 131.419 -6.34873 1.24681 0
M  V30 1449 N 131.551 -0.354651 -1.53558 0
M  V30 1450 C 132.828 0.294281 -1.93374 0
M  V30 1451 C 133.208 1.67313 -1.28723 0
M  V30 1452 O 132.556 2.24179 -0.442247 0
M  V30 1453 C 132.766 0.355445 -3.47185 0
M  V30 1454 C 134.114 0.601007 -4.20325 0
M  V30 1455 O 135.138 0.437106 -3.53508 0
M  V30 1456 O 133.997 0.919322 -5.38712 0
M  V30 1457 H 131.091 0.174033 -0.808481 0
M  V30 1458 H 133.637 -0.406638 -1.64756 0
M  V30 1459 H 132.409 -0.611729 -3.86489 0
M  V30 1460 H 132.032 1.1027 -3.82003 0
M  V30 1461 N 133.029 1.57378 -0.0835403 0
M  V30 1462 C 134.259 1.97975 0.590713 0
M  V30 1463 C 134.667 0.961083 1.62972 0
M  V30 1464 O 134.01 -0.0590879 1.83605 0
M  V30 1465 C 134.072 3.34915 1.3066 0
M  V30 1466 C 133.736 4.55069 0.419698 0
M  V30 1467 C 134.733 5.18868 -0.32749 0
M  V30 1468 C 132.418 5.0114 0.341137 0
M  V30 1469 C 134.412 6.27098 -1.14134 0
M  V30 1470 C 132.099 6.0924 -0.476374 0
M  V30 1471 C 133.097 6.72083 -1.21627 0
M  V30 1472 O 132.785 7.781 -2.02028 0
M  V30 1473 H 132.517 0.655818 0.163947 0
M  V30 1474 H 135.071 2.04807 -0.156021 0
M  V30 1475 H 133.301 3.24733 2.09966 0
M  V30 1476 H 134.99 3.60037 1.87424 0
M  V30 1477 H 135.756 4.84211 -0.276459 0
M  V30 1478 H 131.635 4.51996 0.90668 0
M  V30 1479 H 135.179 6.7608 -1.71935 0
M  V30 1480 H 131.076 6.43329 -0.528927 0
M  V30 1481 H 131.844 7.95034 -1.94586 0
M  V30 1482 N 134.507 -0.190092 1.56449 0
M  V30 1483 C 135.735 -0.925772 1.85033 0
M  V30 1484 C 136.15 -1.76638 0.666658 0
M  V30 1485 O 135.507 -1.78822 -0.364565 0
M  V30 1486 C 135.558 -1.81786 3.12468 0
M  V30 1487 O 135.279 -1.01118 4.26271 0
M  V30 1488 C 136.78 -2.6648 3.54265 0
M  V30 1489 H 134 -0.269872 0.614337 0
M  V30 1490 H 136.544 -0.195837 2.0356 0
M  V30 1491 H 134.699 -2.50136 2.95822 0
M  V30 1492 H 135.113 -1.61956 4.98869 0
M  V30 1493 H 136.587 -3.24722 4.46385 0
M  V30 1494 H 137.064 -3.40434 2.77491 0
M  V30 1495 H 137.67 -2.03493 3.73458 0
M  V30 1496 N 135.985 -1.50799 -0.457987 0
M  V30 1497 C 137.233 -1.62121 -1.2067 0
M  V30 1498 C 137.554 -0.329793 -1.92191 0
M  V30 1499 O 136.824 0.653409 -1.84682 0
M  V30 1500 H 135.404 -0.597441 -0.448411 0
M  V30 1501 H 138.066 -1.87637 -0.527096 0
M  V30 1502 H 137.162 -2.43882 -1.94751 0
M  V30 1503 N 137.463 0.71206 -1.40597 0
M  V30 1504 C 138.395 1.83704 -1.37061 0
M  V30 1505 C 139.408 1.60453 -0.275426 0
M  V30 1506 O 140.597 1.70262 -0.53602 0
M  V30 1507 C 137.697 3.20172 -1.11099 0
M  V30 1508 C 136.87 3.7059 -2.3234 0
M  V30 1509 C 135.929 4.85681 -2.02485 0
M  V30 1510 O 134.955 4.9815 -2.75382 0
M  V30 1511 N 136.157 5.71735 -1.00497 0
M  V30 1512 H 138.922 1.87235 -2.34016 0
M  V30 1513 H 136.483 0.893739 -1.34996 0
M  V30 1514 H 138.475 3.94768 -0.891064 0
M  V30 1515 H 137.045 3.11767 -0.227989 0
M  V30 1516 H 136.265 2.87085 -2.7014 0
M  V30 1517 H 137.553 4.01011 -3.13157 0
M  V30 1518 H 136.951 5.64275 -0.401298 0
M  V30 1519 H 135.508 6.463 -0.844942 0
M  V30 1520 N 138.941 1.26152 0.944643 0
M  V30 1521 C 139.873 1.03199 2.04652 0
M  V30 1522 C 140.886 -0.00642356 1.62799 0
M  V30 1523 O 142.075 0.233263 1.76969 0
M  V30 1524 C 139.175 0.540111 3.34568 0
M  V30 1525 C 138.348 1.64697 4.05208 0
M  V30 1526 C 137.407 1.15374 5.13396 0
M  V30 1527 O 136.433 1.85013 5.38293 0
M  V30 1528 N 137.635 0.00031529 5.805 0
M  V30 1529 H 140.4 1.9808 2.2491 0
M  V30 1530 H 137.961 1.17491 1.11389 0
M  V30 1531 H 139.953 0.194401 4.04233 0
M  V30 1532 H 138.523 -0.315021 3.11009 0
M  V30 1533 H 137.743 2.16379 3.29506 0
M  V30 1534 H 139.031 2.3903 4.49157 0
M  V30 1535 H 138.429 -0.581336 5.62705 0
M  V30 1536 H 136.986 -0.286346 6.51171 0
M  V30 1537 N 140.419 -1.14872 1.07899 0
M  V30 1538 C 141.349 -2.2193 0.725887 0
M  V30 1539 C 142.33 -1.67622 -0.28927 0
M  V30 1540 O 143.515 -1.93533 -0.160787 0
M  V30 1541 C 140.645 -3.47061 0.128856 0
M  V30 1542 C 139.599 -4.14363 1.07178 0
M  V30 1543 C 138.925 -5.33636 0.337229 0
M  V30 1544 C 140.225 -4.63492 2.40775 0
M  V30 1545 H 141.919 -2.51724 1.62097 0
M  V30 1546 H 139.465 -1.20991 0.780838 0
M  V30 1547 H 141.418 -4.21199 -0.130147 0
M  V30 1548 H 140.142 -3.16617 -0.80134 0
M  V30 1549 H 138.801 -3.42173 1.3158 0
M  V30 1550 H 138.449 -4.99449 -0.596606 0
M  V30 1551 H 138.149 -5.79609 0.965788 0
M  V30 1552 H 139.673 -6.10539 0.0861567 0
M  V30 1553 H 141.087 -5.2913 2.20669 0
M  V30 1554 H 139.484 -5.20148 2.99276 0
M  V30 1555 H 140.554 -3.78834 3.02676 0
M  V30 1556 N 141.898 -0.863906 -1.31812 0
M  V30 1557 C 143.145 -0.471836 -1.96926 0
M  V30 1558 C 143.473 0.974578 -1.68322 0
M  V30 1559 O 142.728 1.7003 -0.968933 0
M  V30 1560 C 143.027 -0.668547 -3.51091 0
M  V30 1561 C 142.693 -2.08683 -3.99703 0
M  V30 1562 C 141.355 -2.47471 -4.12688 0
M  V30 1563 C 143.707 -3.01207 -4.25351 0
M  V30 1564 C 141.035 -3.78037 -4.4867 0
M  V30 1565 C 143.387 -4.31282 -4.62794 0
M  V30 1566 C 142.051 -4.69992 -4.73987 0
M  V30 1567 H 141.321 -0.172657 -0.720604 0
M  V30 1568 H 143.968 -1.09573 -1.57054 0
M  V30 1569 H 142.273 0.0385252 -3.91781 0
M  V30 1570 H 143.97 -0.345102 -3.99512 0
M  V30 1571 H 140.56 -1.77566 -3.90087 0
M  V30 1572 H 144.744 -2.72469 -4.14819 0
M  V30 1573 H 140 -4.078 -4.55532 0
M  V30 1574 H 144.174 -5.03031 -4.81594 0
M  V30 1575 H 141.801 -5.71207 -5.01624 0
M  V30 1576 N 143.376 1.44774 -0.622745 0
M  V30 1577 C 144.792 1.56986 -0.287652 0
M  V30 1578 C 144.992 1.61167 1.20944 0
M  V30 1579 O 144.048 1.55015 1.99315 0
M  V30 1580 C 145.361 2.84551 -0.972188 0
M  V30 1581 C 146.909 2.9825 -0.949536 0
M  V30 1582 C 147.384 4.28605 -1.61437 0
M  V30 1583 N 148.875 4.35399 -1.58057 0
M  V30 1584 C 149.61 5.34964 -2.064 0
M  V30 1585 N 149.106 6.40981 -2.62897 0
M  V30 1586 N 150.899 5.26419 -1.97078 0
M  V30 1587 H 143.05 1.40304 -1.59463 0
M  V30 1588 H 145.313 0.671794 -0.668878 0
M  V30 1589 H 145.019 2.87417 -2.02693 0
M  V30 1590 H 144.893 3.73807 -0.504771 0
M  V30 1591 H 147.28 2.94941 0.0967067 0
M  V30 1592 H 147.361 2.10364 -1.45536 0
M  V30 1593 H 147.005 4.32672 -2.66002 0
M  V30 1594 H 146.935 5.15334 -1.08344 0
M  V30 1595 H 149.426 3.59397 -1.16801 0
M  V30 1596 H 149.739 7.13225 -2.97539 0
M  V30 1597 H 148.084 6.4169 -2.66943 0
M  V30 1598 H 151.275 4.42504 -1.52669 0
M  V30 1599 H 151.448 6.03861 -2.35066 0
M  V30 1600 N 144.854 0.36279 1.53368 0
M  V30 1601 C 145.804 -0.501391 2.22419 0
M  V30 1602 C 146.788 -1.0509 1.2184 0
M  V30 1603 O 147.98 -0.981404 1.47301 0
M  V30 1604 C 145.109 -1.64201 3.01484 0
M  V30 1605 C 144.195 -1.10552 4.09438 0
M  V30 1606 N 144.586 -0.291788 5.04958 0
M  V30 1607 C 142.884 -1.3806 4.24094 0
M  V30 1608 C 143.585 0.00162655 5.817 0
M  V30 1609 N 142.561 -0.595244 5.40331 0
M  V30 1610 H 146.363 0.127159 2.93625 0
M  V30 1611 H 143.877 0.170658 1.61501 0
M  V30 1612 H 145.874 -2.27326 3.49469 0
M  V30 1613 H 144.534 -2.27365 2.31809 0
M  V30 1614 H 145.545 0.0687731 5.17854 0
M  V30 1615 H 142.222 -2.01522 3.65644 0
M  V30 1616 H 143.612 0.659278 6.68658 0
M  V30 1617 N 146.332 -1.57332 0.0918853 0
M  V30 1618 C 147.572 -1.96117 -0.575988 0
M  V30 1619 C 147.936 -0.972499 -1.65549 0
M  V30 1620 O 149.137 -1.24872 -2.38034 0
M  V30 1621 C 147.408 -3.39407 -1.11973 0
M  V30 1622 S 148.967 -4.00185 -1.79992 0
M  V30 1623 H 145.785 -0.685682 -0.188045 0
M  V30 1624 H 148.387 -1.94755 0.170525 0
M  V30 1625 H 147.091 -4.09131 -0.322504 0
M  V30 1626 H 146.622 -3.44358 -1.90214 0
M  V30 1627 H 148.637 -3.88728 -3.08391 0
M  V30 1628 N 147.81 0.181792 -1.56548 0
M  V30 1629 C 149.226 0.53316 -1.50431 0
M  V30 1630 C 149.426 1.85184 -0.794297 0
M  V30 1631 O 148.482 2.50058 -0.350318 0
M  V30 1632 C 149.795 0.575597 -2.9514 0
M  V30 1633 C 151.343 0.663519 -3.05886 0
M  V30 1634 C 151.818 0.736946 -4.52032 0
M  V30 1635 N 153.309 0.800118 -4.56237 0
M  V30 1636 C 154.044 0.877327 -5.66649 0
M  V30 1637 N 153.54 0.916016 -6.86718 0
M  V30 1638 N 155.333 0.915542 -5.54594 0
M  V30 1639 H 147.484 -0.683025 -2.01118 0
M  V30 1640 H 149.747 -0.244988 -0.915797 0
M  V30 1641 H 149.453 -0.324482 -3.502 0
M  V30 1642 H 149.327 1.42572 -3.49218 0
M  V30 1643 H 151.714 1.55403 -2.50867 0
M  V30 1644 H 151.795 -0.21307 -2.54911 0
M  V30 1645 H 151.439 -0.149262 -5.07681 0
M  V30 1646 H 151.369 1.62953 -5.00753 0
M  V30 1647 H 153.86 0.778926 -3.69785 0
M  V30 1648 H 154.173 0.975813 -7.66614 0
M  V30 1649 H 152.518 0.884469 -6.89349 0
M  V30 1650 H 155.709 0.882245 -4.59711 0
M  V30 1651 H 155.882 0.972253 -6.40665 0
M  V30 1652 N 149.288 1.51039 0.449983 0
M  V30 1653 C 150.235 1.71439 1.54523 0
M  V30 1654 C 151.205 0.555871 1.56522 0
M  V30 1655 O 152.39 0.788871 1.73728 0
M  V30 1656 C 149.53 1.83384 2.92343 0
M  V30 1657 C 148.643 3.10873 2.9997 0
M  V30 1658 C 147.778 3.13488 4.28834 0
M  V30 1659 C 146.817 4.35343 4.30282 0
M  V30 1660 N 145.954 4.35579 5.5065 0
M  V30 1661 H 150.794 2.64934 1.36433 0
M  V30 1662 H 148.331 1.31312 0.662982 0
M  V30 1663 H 150.289 1.88291 3.72293 0
M  V30 1664 H 148.919 0.933086 3.0902 0
M  V30 1665 H 147.971 3.15336 2.12761 0
M  V30 1666 H 149.283 4.00814 2.96901 0
M  V30 1667 H 148.437 3.17241 5.17149 0
M  V30 1668 H 147.176 2.21414 4.34543 0
M  V30 1669 H 146.181 4.3178 3.40362 0
M  V30 1670 H 147.406 5.28668 4.26248 0
M  V30 1671 H 145.352 3.46369 5.57104 0
M  V30 1672 H 145.269 5.19313 5.49409 0
M  V30 1673 H 146.537 4.43507 6.41032 0
M  V30 1674 N 150.766 -0.704594 1.40972 0
M  V30 1675 C 151.698 -1.82974 1.38033 0
M  V30 1676 C 152.711 -1.60305 0.283931 0
M  V30 1677 O 153.9 -1.69975 0.545042 0
M  V30 1678 C 151 -3.19578 1.12795 0
M  V30 1679 C 150.173 -3.69352 2.34302 0
M  V30 1680 C 149.232 -4.84601 2.05058 0
M  V30 1681 O 148.258 -4.96682 2.7802 0
M  V30 1682 N 149.46 -5.71194 1.03528 0
M  V30 1683 H 152.225 -1.85991 2.35005 0
M  V30 1684 H 149.786 -0.886567 1.35468 0
M  V30 1685 H 151.778 -3.9429 0.911987 0
M  V30 1686 H 150.348 -3.11642 0.24452 0
M  V30 1687 H 149.568 -2.85649 2.71659 0
M  V30 1688 H 150.856 -3.99345 3.1528 0
M  V30 1689 H 150.254 -5.64054 0.431217 0
M  V30 1690 H 148.811 -6.45843 0.879205 0
M  V30 1691 N 152.244 -1.26651 -0.937939 0
M  V30 1692 C 153.176 -1.04283 -2.04102 0
M  V30 1693 C 154.189 -0.00221014 -1.628 0
M  V30 1694 O 155.378 -0.242645 -1.76843 0
M  V30 1695 C 152.478 -0.557846 -3.34277 0
M  V30 1696 C 151.651 -1.66843 -4.04329 0
M  V30 1697 C 150.71 -1.18095 -5.12777 0
M  V30 1698 O 149.736 -1.87865 -5.37304 0
M  V30 1699 N 150.938 -0.0311006 -5.80492 0
M  V30 1700 H 153.703 -1.9927 -2.23856 0
M  V30 1701 H 151.264 -1.1808 -1.10764 0
M  V30 1702 H 153.256 -0.215836 -4.04124 0
M  V30 1703 H 151.826 0.298523 -3.11171 0
M  V30 1704 H 151.046 -2.18123 -3.28353 0
M  V30 1705 H 152.334 -2.41408 -4.47883 0
M  V30 1706 H 151.732 0.551486 -5.63005 0
M  V30 1707 H 150.289 0.251809 -6.51313 0
M  V30 1708 N 153.722 1.14298 -1.08507 0
M  V30 1709 C 154.685 2.17607 -0.719711 0
M  V30 1710 C 155.685 1.58907 0.245997 0
M  V30 1711 O 156.875 1.74181 0.0254081 0
M  V30 1712 C 154.007 3.40842 -0.0627695 0
M  V30 1713 H 155.2 2.51443 -1.63452 0
M  V30 1714 H 152.753 1.28963 -0.88307 0
M  V30 1715 H 153.488 3.12587 0.863716 0
M  V30 1716 H 153.273 3.84713 -0.757504 0
M  V30 1717 H 154.763 4.17221 0.177786 0
M  V30 1718 N 155.201 0.870884 1.31352 0
M  V30 1719 C 156.148 0.325425 2.28494 0
M  V30 1720 C 157.118 -0.576615 1.5577 0
M  V30 1721 O 158.303 -0.508059 1.83911 0
M  V30 1722 C 155.443 -0.466283 3.41935 0
M  V30 1723 C 154.556 0.463378 4.29508 0
M  V30 1724 C 153.691 -0.342544 5.30094 0
M  V30 1725 C 152.73 0.583486 6.09313 0
M  V30 1726 N 151.867 -0.186244 7.01853 0
M  V30 1727 H 156.707 1.15901 2.74538 0
M  V30 1728 H 154.244 0.58294 1.35056 0
M  V30 1729 H 156.202 -0.941085 4.06447 0
M  V30 1730 H 154.832 -1.26456 2.97 0
M  V30 1731 H 153.884 1.05663 3.65431 0
M  V30 1732 H 155.196 1.1734 4.84802 0
M  V30 1733 H 154.35 -0.879816 6.00287 0
M  V30 1734 H 153.089 -1.08585 4.75458 0
M  V30 1735 H 152.094 1.13251 5.3801 0
M  V30 1736 H 153.319 1.32566 6.66035 0
M  V30 1737 H 151.265 -0.912348 6.49625 0
M  V30 1738 H 151.182 0.464422 7.54572 0
M  V30 1739 H 152.45 -0.704716 7.76308 0
M  V30 1740 N 156.679 -1.44442 0.630414 0
M  V30 1741 C 157.926 -2.02052 0.134617 0
M  V30 1742 C 158.254 -1.49576 -1.24327 0
M  V30 1743 O 157.509 -0.669806 -1.83881 0
M  V30 1744 C 157.808 -3.57332 0.0697835 0
M  V30 1745 C 157.474 -4.29058 1.38635 0
M  V30 1746 C 156.136 -4.4837 1.74694 0
M  V30 1747 C 158.488 -4.69872 2.25543 0
M  V30 1748 C 155.816 -5.05756 2.97369 0
M  V30 1749 C 158.168 -5.28616 3.47487 0
M  V30 1750 C 156.832 -5.46147 3.8377 0
M  V30 1751 H 156.102 -0.739361 0.0492598 0
M  V30 1752 H 158.749 -1.73217 0.816586 0
M  V30 1753 H 157.054 -3.85577 -0.695553 0
M  V30 1754 H 158.751 -3.99637 -0.330344 0
M  V30 1755 H 155.341 -4.14357 1.09574 0
M  V30 1756 H 159.525 -4.54666 1.98979 0
M  V30 1757 H 154.781 -5.17515 3.25558 0
M  V30 1758 H 158.955 -5.59192 4.15063 0
M  V30 1759 H 156.582 -5.9038 4.7891 0
M  V30 1760 N 158.157 -0.370918 -1.53173 0
M  V30 1761 C 159.434 0.273754 -1.93675 0
M  V30 1762 C 159.814 1.65938 -1.3049 0
M  V30 1763 O 159.162 2.23698 -0.465999 0
M  V30 1764 C 159.372 0.318602 -3.47543 0
M  V30 1765 C 160.72 0.556392 -4.20939 0
M  V30 1766 O 161.744 0.399587 -3.53952 0
M  V30 1767 O 160.603 0.862133 -5.39657 0
M  V30 1768 H 157.697 0.165448 -0.810281 0
M  V30 1769 H 160.243 -0.42409 -1.64315 0
M  V30 1770 H 159.015 -0.652687 -3.85818 0
M  V30 1771 H 158.638 1.06212 -3.83151 0
M  V30 1772 N 159.635 1.57281 -0.100228 0
M  V30 1773 C 160.545 2.17833 0.870965 0
M  V30 1774 C 161.561 1.14921 1.30649 0
M  V30 1775 O 162.737 1.47313 1.37335 0
M  V30 1776 C 159.802 2.75085 2.1102 0
M  V30 1777 C 158.863 3.9297 1.72838 0
M  V30 1778 C 158.096 4.47482 2.90854 0
M  V30 1779 O 158.319 4.00922 4.05731 0
M  V30 1780 O 157.253 5.38433 2.69023 0
M  V30 1781 H 161.079 3.0124 0.38575 0
M  V30 1782 H 158.664 1.48881 0.124397 0
M  V30 1783 H 160.546 3.11656 2.83634 0
M  V30 1784 H 159.221 1.94721 2.58584 0
M  V30 1785 H 158.128 3.61201 0.973883 0
M  V30 1786 H 159.461 4.74713 1.30033 0
M  V30 1787 N 161.113 -0.173488 1.56642 0
M  V30 1788 C 162.353 -0.896984 1.83667 0
M  V30 1789 C 162.717 -1.79523 0.680842 0
M  V30 1790 O 163.918 -2.55616 0.831488 0
M  V30 1791 C 162.189 -1.67351 3.15798 0
M  V30 1792 S 163.748 -2.44607 3.64298 0
M  V30 1793 H 160.566 -0.300464 0.644393 0
M  V30 1794 H 163.168 -0.158775 1.94854 0
M  V30 1795 H 161.872 -1.00462 3.97914 0
M  V30 1796 H 161.403 -2.45313 3.07546 0
M  V30 1797 H 163.418 -3.69261 3.31452 0
M  V30 1798 N 162.591 -1.51276 -0.441967 0
M  V30 1799 C 163.837 -1.63958 -1.19355 0
M  V30 1800 C 164.17 -0.352543 -1.90973 0
M  V30 1801 O 163.445 0.647627 -1.83401 0
M  V30 1802 C 163.728 -2.83979 -2.21422 0
M  V30 1803 C 163.581 -4.22646 -1.53918 0
M  V30 1804 C 164.9 -2.99521 -3.22451 0
M  V30 1805 H 162.019 -0.596709 -0.432559 0
M  V30 1806 H 164.661 -1.83748 -0.483398 0
M  V30 1807 H 162.811 -2.67237 -2.81987 0
M  V30 1808 H 164.483 -4.51045 -0.967256 0
M  V30 1809 H 162.726 -4.25558 -0.841615 0
M  V30 1810 H 163.397 -5.02609 -2.28229 0
M  V30 1811 H 165.873 -3.14944 -2.71937 0
M  V30 1812 H 164.749 -3.85072 -3.91166 0
M  V30 1813 H 165.01 -2.11391 -3.88287 0
M  V30 1814 N 164.069 0.697108 -1.41344 0
M  V30 1815 C 164.999 1.82353 -1.45841 0
M  V30 1816 C 165.98 1.67115 -0.317247 0
M  V30 1817 O 167.165 1.86871 -0.528474 0
M  V30 1818 C 164.295 3.20476 -1.33838 0
M  V30 1819 C 163.249 3.50415 -2.4575 0
M  V30 1820 C 162.575 4.87878 -2.18813 0
M  V30 1821 C 163.875 3.49546 -3.88091 0
M  V30 1822 H 165.569 1.78846 -2.40113 0
M  V30 1823 H 163.115 0.859028 -1.15571 0
M  V30 1824 H 165.068 3.98988 -1.35596 0
M  V30 1825 H 163.792 3.24604 -0.360498 0
M  V30 1826 H 162.451 2.74253 -2.43271 0
M  V30 1827 H 162.099 4.8863 -1.19371 0
M  V30 1828 H 161.799 5.08875 -2.93803 0
M  V30 1829 H 163.323 5.68702 -2.22284 0
M  V30 1830 H 164.737 4.18066 -3.92293 0
M  V30 1831 H 163.134 3.82075 -4.62751 0
M  V30 1832 H 164.204 2.48552 -4.16353 0
M  V30 1833 N 165.547 1.27147 0.931209 0
M  V30 1834 C 166.824 1.0401 1.65654 0
M  V30 1835 C 167.204 -0.426297 2.06751 0
M  V30 1836 O 166.552 -1.40879 1.79904 0
M  V30 1837 C 166.762 1.99834 2.86125 0
M  V30 1838 C 168.11 2.29007 3.57549 0
M  V30 1839 O 169.134 1.97779 2.96246 0
M  V30 1840 O 167.993 2.82222 4.67989 0
M  V30 1841 H 165.087 0.396239 0.725895 0
M  V30 1842 H 167.633 1.38397 0.982056 0
M  V30 1843 H 166.405 2.98744 2.52721 0
M  V30 1844 H 166.028 1.65987 3.61295 0
M  V30 1845 N 167.025 -1.13721 1.09112 0
M  V30 1846 C 167.972 -2.19031 0.727591 0
M  V30 1847 C 168.942 -1.63555 -0.289656 0
M  V30 1848 O 170.127 -1.90023 -0.172026 0
M  V30 1849 C 167.267 -3.4477 0.15082 0
M  V30 1850 C 166.38 -4.14365 1.22172 0
M  V30 1851 C 165.515 -5.27709 0.608042 0
M  V30 1852 C 164.554 -5.89147 1.66047 0
M  V30 1853 N 163.691 -6.93929 1.06806 0
M  V30 1854 H 168.531 -2.49475 1.62991 0
M  V30 1855 H 166.068 -1.22499 0.81439 0
M  V30 1856 H 168.026 -4.16714 -0.201358 0
M  V30 1857 H 166.656 -3.14787 -0.714783 0
M  V30 1858 H 165.708 -3.40737 1.69122 0
M  V30 1859 H 167.02 -4.56114 2.01895 0
M  V30 1860 H 166.174 -6.06355 0.204523 0
M  V30 1861 H 164.913 -4.872 -0.220769 0
M  V30 1862 H 163.918 -5.09198 2.07357 0
M  V30 1863 H 165.143 -6.31729 2.49189 0
M  V30 1864 H 163.089 -6.55483 0.260476 0
M  V30 1865 H 163.006 -7.34202 1.8023 0
M  V30 1866 H 164.274 -7.76434 0.690644 0
M  V30 1867 N 168.503 -0.877838 -1.30888 0
M  V30 1868 C 169.433 -0.35534 -2.3078 0
M  V30 1869 C 170.414 0.557994 -1.60687 0
M  V30 1870 O 171.599 0.473355 -1.88343 0
M  V30 1871 C 168.729 0.437221 -3.44537 0
M  V30 1872 C 167.683 -0.383715 -4.26276 0
M  V30 1873 C 167.009 0.535014 -5.32017 0
M  V30 1874 C 168.309 -1.62201 -4.96476 0
M  V30 1875 H 170.003 -1.19007 -2.74732 0
M  V30 1876 H 167.549 -0.573698 -1.32078 0
M  V30 1877 H 169.502 0.813334 -4.13477 0
M  V30 1878 H 168.226 1.30553 -2.99372 0
M  V30 1879 H 166.885 -0.741874 -3.59015 0
M  V30 1880 H 166.533 1.40083 -4.831 0
M  V30 1881 H 166.233 -0.0104211 -5.87599 0
M  V30 1882 H 167.757 0.907799 -6.03814 0
M  V30 1883 H 169.171 -1.31689 -5.5797 0
M  V30 1884 H 167.568 -2.10711 -5.61891 0
M  V30 1885 H 168.638 -2.37044 -4.23011 0
M  V30 1886 N 169.982 1.44106 -0.638065 0
M  V30 1887 C 171.23 2.01579 -0.145043 0
M  V30 1888 C 171.551 1.50496 1.24 0
M  V30 1889 O 170.821 0.711374 1.82527 0
M  V30 1890 H 169.401 0.745282 -0.05063 0
M  V30 1891 H 172.063 1.76516 -0.826327 0
M  V30 1892 H 171.159 3.11877 -0.118039 0
M  V30 1893 N 171.46 0.379036 1.52974 0
M  V30 1894 C 172.706 -0.199244 2.02422 0
M  V30 1895 C 173.061 -1.4532 1.26095 0
M  V30 1896 O 172.354 -1.88377 0.34996 0
M  V30 1897 C 172.548 -0.53096 3.53434 0
M  V30 1898 C 172.377 0.689298 4.44386 0
M  V30 1899 C 171.147 1.20546 4.9071 0
M  V30 1900 C 173.345 1.55856 4.90116 0
M  V30 1901 N 171.327 2.38434 5.65705 0
M  V30 1902 C 172.698 2.58396 5.63588 0
M  V30 1903 C 174.753 1.57986 4.7217 0
M  V30 1904 C 173.456 3.62939 6.21022 0
M  V30 1905 C 175.482 2.6143 5.30479 0
M  V30 1906 C 174.844 3.62693 6.03849 0
M  V30 1907 H 170.943 -0.0352671 0.781204 0
M  V30 1908 H 173.527 0.526614 1.87443 0
M  V30 1909 H 171.698 -1.22588 3.68547 0
M  V30 1910 H 173.43 -1.0955 3.89591 0
M  V30 1911 H 170.185 0.768022 4.67331 0
M  V30 1912 H 170.609 2.98055 6.07859 0
M  V30 1913 H 175.251 0.810475 4.14959 0
M  V30 1914 H 172.969 4.40751 6.77321 0
M  V30 1915 H 176.555 2.63949 5.18481 0
M  V30 1916 H 175.435 4.41424 6.48163 0
M  V30 1917 N 172.938 -1.57226 0.108567 0
M  V30 1918 C 174.184 -1.95121 -0.552761 0
M  V30 1919 C 174.517 -0.991345 -1.66991 0
M  V30 1920 O 173.792 -0.0267211 -1.94482 0
M  V30 1921 C 174.075 -3.43039 -1.09528 0
M  V30 1922 C 173.928 -4.49797 0.0177332 0
M  V30 1923 C 175.247 -3.92567 -1.98945 0
M  V30 1924 H 172.366 -0.709496 -0.199461 0
M  V30 1925 H 175.008 -1.89126 0.182011 0
M  V30 1926 H 173.158 -3.48279 -1.72146 0
M  V30 1927 H 174.83 -4.56661 0.652584 0
M  V30 1928 H 173.073 -4.284 0.682309 0
M  V30 1929 H 173.744 -5.50528 -0.402919 0
M  V30 1930 H 176.22 -3.89565 -1.46214 0
M  V30 1931 H 175.096 -4.96605 -2.33827 0
M  V30 1932 H 175.357 -3.32648 -2.91201 0
M  V30 1933 N 174.416 0.165178 -1.56732 0
M  V30 1934 C 175.832 0.517174 -1.50988 0
M  V30 1935 C 176.032 1.84331 -0.813894 0
M  V30 1936 O 175.088 2.49672 -0.37682 0
M  V30 1937 C 176.401 0.544261 -2.95733 0
M  V30 1938 C 177.949 0.631039 -3.06573 0
M  V30 1939 C 178.424 0.68896 -4.52788 0
M  V30 1940 N 179.915 0.751683 -4.5706 0
M  V30 1941 C 180.65 0.817177 -5.67547 0
M  V30 1942 N 180.146 0.843129 -6.8765 0
M  V30 1943 N 181.939 0.856668 -5.55534 0
M  V30 1944 H 174.09 -0.704318 -2.00382 0
M  V30 1945 H 176.353 -0.254687 -0.913148 0
M  V30 1946 H 176.059 -0.361607 -3.49836 0
M  V30 1947 H 175.933 1.3886 -3.5071 0
M  V30 1948 H 178.32 1.52733 -2.52501 0
M  V30 1949 H 178.401 -0.240095 -2.54671 0
M  V30 1950 H 178.045 -0.2031 -5.07494 0
M  V30 1951 H 177.975 1.57633 -5.02454 0
M  V30 1952 H 180.466 0.739661 -3.70591 0
M  V30 1953 H 180.779 0.894448 -7.67606 0
M  V30 1954 H 179.124 0.811304 -6.90248 0
M  V30 1955 H 182.315 0.833437 -4.60621 0
M  V30 1956 H 182.488 0.904247 -6.4166 0
M  V30 1957 N 175.894 1.51508 0.433938 0
M  V30 1958 C 177.305 1.56784 1.01369 0
M  V30 1959 C 177.656 0.393349 1.92217 0
M  V30 1960 O 176.781 -0.489441 2.10792 0
M  V30 1961 C 177.376 2.84144 1.8452 0
M  V30 1962 C 175.935 2.9198 2.37539 0
M  V30 1963 C 175.082 2.51482 1.16843 0
M  V30 1964 H 178.033 1.57236 0.215081 0
M  V30 1965 H 178.054 2.68098 2.70007 0
M  V30 1966 H 177.566 3.69607 1.18373 0
M  V30 1967 H 175.667 2.10955 3.0713 0
M  V30 1968 H 175.78 3.95704 2.70103 0
M  V30 1969 H 174.144 2.04758 1.51481 0
M  V30 1970 H 174.927 3.39293 0.523015 0
M  V30 1971 N 177.372 -0.689602 1.41712 0
M  V30 1972 C 178.649 -1.44457 1.31877 0
M  V30 1973 C 179.029 -2.11039 -0.0508537 0
M  V30 1974 O 178.377 -2.02138 -1.06547 0
M  V30 1975 C 178.587 -2.45913 2.47645 0
M  V30 1976 C 179.935 -3.10991 2.89084 0
M  V30 1977 O 180.959 -2.56238 2.47428 0
M  V30 1978 O 179.818 -4.10174 3.61137 0
M  V30 1979 H 176.912 -0.64362 0.519309 0
M  V30 1980 H 179.458 -0.719576 1.53689 0
M  V30 1981 H 178.23 -1.95409 3.39015 0
M  V30 1982 H 177.853 -3.25913 2.27742 0
M  V30 1983 N 178.85 -1.27639 -0.924453 0
M  V30 1984 C 179.78 -1.13166 -2.04244 0
M  V30 1985 C 180.761 -0.032256 -1.70069 0
M  V30 1986 O 181.946 -0.207328 -1.9309 0
M  V30 1987 C 179.076 -0.781496 -3.38393 0
M  V30 1988 C 178.03 -1.83449 -3.86692 0
M  V30 1989 C 177.356 -1.33822 -5.17683 0
M  V30 1990 C 178.656 -3.23917 -4.09726 0
M  V30 1991 H 180.35 -2.06689 -2.1661 0
M  V30 1992 H 177.896 -0.995136 -1.04082 0
M  V30 1993 H 179.849 -0.667057 -4.16087 0
M  V30 1994 H 178.573 0.189439 -3.2605 0
M  V30 1995 H 177.232 -1.93789 -3.11193 0
M  V30 1996 H 176.88 -0.35665 -5.01734 0
M  V30 1997 H 176.58 -2.04224 -5.50968 0
M  V30 1998 H 178.104 -1.23679 -5.97943 0
M  V30 1999 H 179.518 -3.16559 -4.77978 0
M  V30 2000 H 177.915 -3.92059 -4.54324 0
M  V30 2001 H 178.985 -3.68729 -3.14908 0
M  V30 2002 N 180.328 1.1314 -1.09713 0
M  V30 2003 C 181.576 1.84119 -0.833338 0
M  V30 2004 C 181.897 1.84097 0.642904 0
M  V30 2005 O 181.167 1.29881 1.46655 0
M  V30 2006 H 179.747 0.681766 -0.305293 0
M  V30 2007 H 182.409 1.37038 -1.38588 0
M  V30 2008 H 181.505 2.88543 -1.18951 0
M  V30 2009 N 181.806 0.884767 1.30421 0
M  V30 2010 C 182.716 0.355398 2.31892 0
M  V30 2011 C 183.732 -0.542261 1.65335 0
M  V30 2012 O 184.908 -0.435432 1.96637 0
M  V30 2013 C 181.973 -0.421661 3.44126 0
M  V30 2014 C 181.034 0.505727 4.26311 0
M  V30 2015 C 180.267 -0.234343 5.33185 0
M  V30 2016 O 180.49 -1.46045 5.51386 0
M  V30 2017 O 179.424 0.415443 6.00465 0
M  V30 2018 H 183.25 1.19685 2.79122 0
M  V30 2019 H 180.835 0.648596 1.34587 0
M  V30 2020 H 182.717 -0.861641 4.12497 0
M  V30 2021 H 181.392 -1.23942 2.99032 0
M  V30 2022 H 180.299 0.994513 3.60639 0
M  V30 2023 H 181.632 1.28948 4.75009 0
M  V30 2024 N 183.284 -1.43765 0.645699 0
M  V30 2025 C 184.214 -2.33471 -0.0370477 0
M  V30 2026 C 185.195 -1.49042 -0.819779 0
M  V30 2027 O 186.38 -1.77726 -0.782758 0
M  V30 2028 C 183.51 -3.32311 -1.0093 0
M  V30 2029 C 182.464 -4.2667 -0.337201 0
M  V30 2030 C 181.79 -5.1549 -1.42037 0
M  V30 2031 C 183.09 -5.16657 0.765706 0
M  V30 2032 H 184.784 -2.90809 0.712069 0
M  V30 2033 H 182.33 -1.39834 0.343876 0
M  V30 2034 H 184.283 -3.9396 -1.49578 0
M  V30 2035 H 183.007 -2.73213 -1.78948 0
M  V30 2036 H 181.666 -3.66374 0.128771 0
M  V30 2037 H 181.314 -4.52735 -2.1918 0
M  V30 2038 H 181.014 -5.79438 -0.975966 0
M  V30 2039 H 182.538 -5.80012 -1.90838 0
M  V30 2040 H 183.952 -5.72158 0.361702 0
M  V30 2041 H 182.349 -5.89286 1.13413 0
M  V30 2042 H 183.419 -4.56796 1.62683 0
M  V30 2043 N 184.763 -0.387143 -1.52771 0
M  V30 2044 C 185.988 0.198407 -2.06449 0
M  V30 2045 C 186.413 1.39918 -1.25716 0
M  V30 2046 O 185.771 1.79099 -0.281657 0
M  V30 2047 C 185.819 0.548893 -3.56398 0
M  V30 2048 O 184.923 1.64315 -3.78252 0
M  V30 2049 H 184.264 0.0237731 -0.663574 0
M  V30 2050 H 186.794 -0.553989 -1.96957 0
M  V30 2051 H 186.804 0.813812 -3.99801 0
M  V30 2052 H 185.479 -0.329005 -4.14597 0
M  V30 2053 H 184.056 1.37211 -3.46738 0
M  V30 2054 N 186.241 1.57166 -0.116904 0
M  V30 2055 C 187.188 2.15202 0.83408 0
M  V30 2056 C 188.158 1.07644 1.26499 0
M  V30 2057 O 189.343 1.35541 1.34288 0
M  V30 2058 C 186.483 2.75405 2.07957 0
M  V30 2059 C 185.596 3.97264 1.69721 0
M  V30 2060 C 184.731 4.45561 2.89221 0
M  V30 2061 C 183.77 5.59956 2.47215 0
M  V30 2062 N 182.907 6.03006 3.59622 0
M  V30 2063 H 187.747 2.96141 0.332335 0
M  V30 2064 H 185.284 1.46309 0.152349 0
M  V30 2065 H 187.242 3.08439 2.80929 0
M  V30 2066 H 185.872 1.97159 2.55594 0
M  V30 2067 H 184.924 3.70404 0.866316 0
M  V30 2068 H 186.236 4.80226 1.34849 0
M  V30 2069 H 185.39 4.80493 3.7042 0
M  V30 2070 H 184.129 3.61544 3.27318 0
M  V30 2071 H 183.134 5.2463 1.64448 0
M  V30 2072 H 184.359 6.45738 2.10238 0
M  V30 2073 H 182.305 5.21931 3.97396 0
M  V30 2074 H 182.222 6.80819 3.28667 0
M  V30 2075 H 183.49 6.42576 4.41267 0
M  V30 2076 N 187.719 -0.156864 1.56817 0
M  V30 2077 C 188.965 -0.872416 1.83076 0
M  V30 2078 C 189.298 -1.81261 0.697001 0
M  V30 2079 O 188.573 -1.92171 -0.30008 0
M  V30 2080 C 188.856 -1.65551 3.19789 0
M  V30 2081 C 188.709 -0.737467 4.43713 0
M  V30 2082 C 190.028 -2.62012 3.53606 0
M  V30 2083 H 187.147 -0.315715 0.665953 0
M  V30 2084 H 189.789 -0.138004 1.89498 0
M  V30 2085 H 187.939 -2.28159 3.14445 0
M  V30 2086 H 189.611 -0.123143 4.61136 0
M  V30 2087 H 187.854 -0.0464067 4.33775 0
M  V30 2088 H 188.525 -1.32122 5.35955 0
M  V30 2089 H 191.001 -2.09525 3.59497 0
M  V30 2090 H 189.877 -3.13861 4.50314 0
M  V30 2091 H 190.138 -3.42902 2.79053 0
M  V30 2092 N 189.197 -1.51736 -0.425897 0
M  V30 2093 C 190.425 -1.68794 -1.1965 0
M  V30 2094 C 190.84 -0.390164 -1.84725 0
M  V30 2095 O 190.197 0.632376 -1.71194 0
M  V30 2096 C 190.248 -2.81174 -2.27208 0
M  V30 2097 O 189.969 -4.05925 -1.64793 0
M  V30 2098 C 191.47 -3.09599 -3.17275 0
M  V30 2099 H 188.69 -0.566128 -0.360194 0
M  V30 2100 H 191.234 -1.98211 -0.503249 0
M  V30 2101 H 189.389 -2.54324 -2.9223 0
M  V30 2102 H 189.803 -4.68423 -2.35967 0
M  V30 2103 H 191.277 -3.91786 -3.88854 0
M  V30 2104 H 191.754 -2.22468 -3.78688 0
M  V30 2105 H 192.36 -3.38151 -2.57941 0
M  V30 2106 N 190.675 0.682077 -1.42076 0
M  V30 2107 C 191.622 1.79578 -1.44984 0
M  V30 2108 C 192.592 1.6332 -0.302614 0
M  V30 2109 O 193.777 1.83978 -0.505633 0
M  V30 2110 C 190.917 3.1756 -1.35091 0
M  V30 2111 C 190.03 3.45156 -2.59791 0
M  V30 2112 C 189.165 4.72826 -2.42093 0
M  V30 2113 C 188.204 4.93433 -3.62202 0
M  V30 2114 N 187.341 6.12338 -3.43491 0
M  V30 2115 H 192.181 1.76427 -2.40161 0
M  V30 2116 H 189.718 0.861376 -1.19242 0
M  V30 2117 H 191.676 3.97287 -1.27354 0
M  V30 2118 H 190.306 3.19854 -0.435133 0
M  V30 2119 H 189.358 2.59736 -2.77923 0
M  V30 2120 H 190.67 3.5628 -3.49094 0
M  V30 2121 H 189.824 5.60631 -2.319 0
M  V30 2122 H 188.563 4.63973 -1.50268 0
M  V30 2123 H 187.568 4.04073 -3.72834 0
M  V30 2124 H 188.793 5.04136 -4.54998 0
M  V30 2125 H 186.739 6.04672 -2.54377 0
M  V30 2126 H 186.656 6.2429 -4.26377 0
M  V30 2127 H 187.924 7.02841 -3.37097 0
M  V30 2128 N 192.153 1.28127 0.917671 0
M  V30 2129 C 193.399 1.15223 1.66888 0
M  V30 2130 C 193.732 -0.299293 1.9188 0
M  V30 2131 O 193.007 -1.21805 1.51637 0
M  V30 2132 C 193.29 1.94706 3.02922 0
M  V30 2133 C 193.143 3.47898 2.85109 0
M  V30 2134 C 194.462 1.75939 4.03402 0
M  V30 2135 H 191.581 0.419946 0.605652 0
M  V30 2136 H 194.223 1.57398 1.06423 0
M  V30 2137 H 192.373 1.58864 3.54534 0
M  V30 2138 H 194.045 3.93624 2.40537 0
M  V30 2139 H 192.288 3.7373 2.20246 0
M  V30 2140 H 192.959 3.98765 3.81694 0
M  V30 2141 H 195.435 2.07209 3.60837 0
M  V30 2142 H 194.311 2.33931 4.96556 0
M  V30 2143 H 194.572 0.709877 4.36364 0
M  V30 2144 N 193.631 -1.12557 1.10312 0
M  V30 2145 C 194.578 -2.18247 0.750781 0
M  V30 2146 C 195.548 -1.63853 -0.272293 0
M  V30 2147 O 196.733 -1.90195 -0.151862 0
M  V30 2148 C 193.873 -3.44591 0.187379 0
M  V30 2149 C 192.986 -4.13046 1.2656 0
M  V30 2150 C 192.121 -5.27034 0.663978 0
M  V30 2151 C 191.16 -5.87353 1.72287 0
M  V30 2152 N 190.297 -6.92757 1.1416 0
M  V30 2153 H 195.137 -2.47732 1.65628 0
M  V30 2154 H 192.674 -1.21629 0.827337 0
M  V30 2155 H 194.632 -4.16904 -0.157148 0
M  V30 2156 H 193.262 -3.15527 -0.681355 0
M  V30 2157 H 192.314 -3.38924 1.72727 0
M  V30 2158 H 193.626 -4.53947 2.06721 0
M  V30 2159 H 192.78 -6.06104 0.268824 0
M  V30 2160 H 191.519 -4.87407 -0.169082 0
M  V30 2161 H 190.524 -5.06971 2.12746 0
M  V30 2162 H 191.749 -6.29051 2.55875 0
M  V30 2163 H 189.695 -6.5517 0.329984 0
M  V30 2164 H 189.612 -7.3225 1.88007 0
M  V30 2165 H 190.88 -7.75658 0.772956 0
M  V30 2166 N 195.109 -0.891671 -1.2995 0
M  V30 2167 C 196.337 -0.52866 -2.00032 0
M  V30 2168 C 196.752 0.884574 -1.66795 0
M  V30 2169 O 196.109 1.5827 -0.908669 0
M  V30 2170 C 196.16 -0.701814 -3.54622 0
M  V30 2171 O 195.881 -2.05942 -3.86678 0
M  V30 2172 C 197.382 -0.342683 -4.41973 0
M  V30 2173 H 194.602 -0.203659 -0.639347 0
M  V30 2174 H 197.146 -1.19881 -1.65677 0
M  V30 2175 H 195.301 -0.0789468 -3.8732 0
M  V30 2176 H 195.715 -2.08291 -4.81368 0
M  V30 2177 H 197.189 -0.514709 -5.49595 0
M  V30 2178 H 197.666 0.71975 -4.33262 0
M  V30 2179 H 198.272 -0.942154 -4.14733 0
M  V30 2180 N 196.587 1.43421 -0.653314 0
M  V30 2181 C 197.864 1.95361 -0.0966581 0
M  V30 2182 C 198.244 1.59461 1.38331 0
M  V30 2183 O 197.592 0.879777 2.10884 0
M  V30 2184 C 197.802 3.47311 -0.342988 0
M  V30 2185 C 199.15 4.23875 -0.24798 0
M  V30 2186 O 200.174 3.55133 -0.275553 0
M  V30 2187 O 199.033 5.4623 -0.171771 0
M  V30 2188 H 196.127 0.826945 0.00956291 0
M  V30 2189 H 198.673 1.5336 -0.726558 0
M  V30 2190 H 197.445 3.66569 -1.36906 0
M  V30 2191 H 197.068 3.9631 0.319975 0
M  V30 2192 N 198.065 0.39524 1.52563 0
M  V30 2193 C 199.481 0.0454682 1.59535 0
M  V30 2194 C 199.681 -1.44056 1.4089 0
M  V30 2195 O 198.737 -2.20579 1.22888 0
M  V30 2196 C 200.05 0.527963 2.96029 0
M  V30 2197 C 201.598 0.484733 3.09224 0
M  V30 2198 C 202.073 0.943512 4.48176 0
M  V30 2199 N 203.564 0.899765 4.54377 0
M  V30 2200 C 204.299 1.22609 5.60138 0
M  V30 2201 N 203.795 1.62319 6.73516 0
M  V30 2202 N 205.588 1.14696 5.50274 0
M  V30 2203 H 197.739 1.36261 1.62931 0
M  V30 2204 H 200.002 0.558887 0.765735 0
M  V30 2205 H 199.708 1.56607 3.14908 0
M  V30 2206 H 199.582 -0.0698056 3.77135 0
M  V30 2207 H 201.969 -0.544298 2.90037 0
M  V30 2208 H 202.05 1.11838 2.30056 0
M  V30 2209 H 201.694 1.9708 4.68104 0
M  V30 2210 H 201.624 0.286817 5.25818 0
M  V30 2211 H 204.115 0.607632 3.72983 0
M  V30 2212 H 204.428 1.85567 7.5019 0
M  V30 2213 H 202.773 1.66211 6.74833 0
M  V30 2214 H 205.964 0.835701 4.6058 0
M  V30 2215 H 206.137 1.40459 6.32594 0
M  V30 2216 N 199.544 -1.57102 0.125237 0
M  V30 2217 C 200.955 -1.82384 -0.399142 0
M  V30 2218 C 201.306 -1.04276 -1.66195 0
M  V30 2219 O 200.431 -0.281269 -2.14564 0
M  V30 2220 C 201.026 -3.30821 -0.730932 0
M  V30 2221 C 199.585 -3.56762 -1.19992 0
M  V30 2222 C 198.732 -2.7649 -0.211792 0
M  V30 2223 H 201.683 -1.54786 0.350277 0
M  V30 2224 H 201.704 -3.4579 -1.58775 0
M  V30 2225 H 201.216 -3.87643 0.188345 0
M  V30 2226 H 199.317 -3.05305 -2.13588 0
M  V30 2227 H 199.43 -4.65317 -1.14093 0
M  V30 2228 H 197.794 -2.4489 -0.700085 0
M  V30 2229 H 198.577 -3.36073 0.700691 0
M  V30 2230 N 201.022 0.148545 -1.56898 0
M  V30 2231 C 201.952 1.18524 -2.01182 0
M  V30 2232 C 202.933 1.4489 -0.891123 0
M  V30 2233 O 204.118 1.55836 -1.15882 0
M  V30 2234 C 201.248 2.51879 -2.39112 0
M  V30 2235 C 200.202 2.40038 -3.54353 0
M  V30 2236 C 199.528 3.78089 -3.78091 0
M  V30 2237 C 200.828 1.88577 -4.87069 0
M  V30 2238 H 202.522 0.817029 -2.88036 0
M  V30 2239 H 200.068 0.391575 -1.38574 0
M  V30 2240 H 202.021 3.24627 -2.68692 0
M  V30 2241 H 200.745 2.90532 -1.49193 0
M  V30 2242 H 199.404 1.69742 -3.24936 0
M  V30 2243 H 199.052 4.14175 -2.85426 0
M  V30 2244 H 198.752 3.71028 -4.55645 0
M  V30 2245 H 200.276 4.52387 -4.10095 0
M  V30 2246 H 201.69 2.51117 -5.15377 0
M  V30 2247 H 200.087 1.9241 -5.68417 0
M  V30 2248 H 201.157 0.84136 -4.77545 0
M  V30 2249 N 202.5 1.5196 0.417844 0
M  V30 2250 C 203.911 1.57851 0.997 0
M  V30 2251 C 204.262 0.413714 1.91789 0
M  V30 2252 O 203.387 -0.467057 2.113 0
M  V30 2253 C 203.982 2.86085 1.81496 0
M  V30 2254 C 202.541 2.94483 2.34428 0
M  V30 2255 C 201.688 2.52707 1.14169 0
M  V30 2256 H 204.639 1.57455 0.198392 0
M  V30 2257 H 204.66 2.70947 2.67148 0
M  V30 2258 H 204.172 3.70842 1.14446 0
M  V30 2259 H 202.273 2.142 3.04875 0
M  V30 2260 H 202.386 3.98546 2.65891 0
M  V30 2261 H 200.75 2.06353 1.49301 0
M  V30 2262 H 201.533 3.39828 0.486999 0
M  V30 2263 N 203.978 -0.674533 1.42435 0
M  V30 2264 C 204.888 -1.81751 1.48337 0
M  V30 2265 C 205.904 -1.69975 0.372099 0
M  V30 2266 O 207.08 -1.91521 0.62304 0
M  V30 2267 C 204.145 -3.17895 1.38361 0
M  V30 2268 C 203.206 -3.41625 2.59982 0
M  V30 2269 C 202.439 -4.71274 2.50473 0
M  V30 2270 O 202.662 -5.49197 1.54075 0
M  V30 2271 O 201.596 -4.96254 3.4061 0
M  V30 2272 H 205.422 -1.79728 2.44809 0
M  V30 2273 H 203.007 -0.830312 1.24202 0
M  V30 2274 H 204.889 -3.99136 1.35161 0
M  V30 2275 H 203.564 -3.20555 0.450144 0
M  V30 2276 H 202.471 -2.60231 2.68757 0
M  V30 2277 H 203.804 -3.43796 3.52229 0
M  V30 2278 N 205.456 -1.28612 -0.910864 0
M  V30 2279 C 206.404 -1.1265 -2.03501 0
M  V30 2280 C 207.398 -0.0450054 -1.6934 0
M  V30 2281 O 208.604 -0.203988 -1.7884 0
M  V30 2282 H 204.979 -0.347639 -0.666822 0
M  V30 2283 H 206.95 -2.07849 -2.14106 0
M  V30 2284 C 205.699 -0.808143 -3.38178 0
M  V30 2285 H 205.022 -1.63231 -3.6496 0
M  V30 2286 H 206.462 -0.736426 -4.17556 0
M  V30 2287 C 204.921 0.488226 -3.33344 0
M  V30 2288 O 205.451 1.51766 -3.71927 0
M  V30 2289 N 203.657 0.490009 -2.86439 0
M  V30 2290 H 203.204 -0.348161 -2.55236 0
M  V30 2291 H 203.162 1.35741 -2.83587 0
M  V30 2292 N 206.934 1.1197 -1.10907 0
M  V30 2293 C 208.345 1.65114 -0.871446 0
M  V30 2294 C 208.696 1.86885 0.597353 0
M  V30 2295 O 207.821 1.59896 1.45816 0
M  V30 2296 C 208.416 2.99944 -1.5754 0
M  V30 2297 C 206.975 3.50018 -1.38435 0
M  V30 2298 C 206.122 2.24941 -1.62164 0
M  V30 2299 H 209.073 0.956851 -1.2661 0
M  V30 2300 H 209.094 3.66651 -1.01721 0
M  V30 2301 H 208.606 2.84067 -2.64438 0
M  V30 2302 H 206.707 3.71071 -0.337214 0
M  V30 2303 H 206.82 4.29165 -2.12965 0
M  V30 2304 H 205.184 2.3229 -1.04467 0
M  V30 2305 H 205.967 2.11612 -2.70324 0
M  V30 2306 N 208.412 0.89855 1.29475 0
M  V30 2307 C 209.642 0.538479 1.99459 0
M  V30 2308 C 210.05 -0.880922 1.67441 0
M  V30 2309 O 209.393 -1.59283 0.915127 0
M  V30 2310 C 209.455 0.649564 3.53583 0
M  V30 2311 C 209.119 2.03573 4.09154 0
M  V30 2312 C 210.116 3.00675 4.24135 0
M  V30 2313 C 207.801 2.3448 4.44212 0
M  V30 2314 C 209.795 4.26809 4.73405 0
M  V30 2315 C 207.482 3.60857 4.93179 0
M  V30 2316 C 208.48 4.56836 5.0773 0
M  V30 2317 O 208.168 5.80969 5.55635 0
M  V30 2318 H 207.9 0.205372 0.644048 0
M  V30 2319 H 210.454 1.20958 1.66007 0
M  V30 2320 H 208.684 -0.0785592 3.8662 0
M  V30 2321 H 210.373 0.29881 4.04799 0
M  V30 2322 H 211.139 2.78112 3.97339 0
M  V30 2323 H 207.018 1.60534 4.32145 0
M  V30 2324 H 210.562 5.0173 4.84678 0
M  V30 2325 H 206.459 3.83251 5.19412 0
M  V30 2326 H 207.227 5.83542 5.73952 0
M  V30 2327 N 209.89 -1.43072 0.660911 0
M  V30 2328 C 210.84 -2.27948 -0.04847 0
M  V30 2329 C 211.824 -1.40325 -0.787246 0
M  V30 2330 O 213.016 -1.63893 -0.668446 0
M  V30 2331 C 210.145 -3.28143 -1.00881 0
M  V30 2332 C 209.231 -4.23252 -0.268108 0
M  V30 2333 N 209.622 -5.00656 0.719528 0
M  V30 2334 C 207.92 -4.43092 -0.508493 0
M  V30 2335 C 208.621 -5.70019 1.15988 0
M  V30 2336 N 207.597 -5.41364 0.492584 0
M  V30 2337 H 211.399 -2.85213 0.709279 0
M  V30 2338 H 208.913 -1.54869 0.488822 0
M  V30 2339 H 210.91 -3.87736 -1.53188 0
M  V30 2340 H 209.57 -2.7244 -1.76654 0
M  V30 2341 H 210.581 -5.06115 1.09855 0
M  V30 2342 H 207.258 -3.98449 -1.24679 0
M  V30 2343 H 208.648 -6.4214 1.97751 0
M  V30 2344 N 211.368 -0.403325 -1.52352 0
M  V30 2345 C 212.593 0.176499 -2.06648 0
M  V30 2346 C 213.018 1.38577 -1.27193 0
M  V30 2347 O 212.376 1.7879 -0.300637 0
M  V30 2348 C 212.424 0.511061 -3.5696 0
M  V30 2349 O 211.528 1.60294 -3.79973 0
M  V30 2350 H 210.869 0.0167337 -0.663789 0
M  V30 2351 H 213.399 -0.574848 -1.96359 0
M  V30 2352 H 213.409 0.771362 -4.00642 0
M  V30 2353 H 212.084 -0.37296 -4.14224 0
M  V30 2354 H 210.661 1.33526 -3.48174 0
M  V30 2355 N 212.846 1.57033 -0.133567 0
M  V30 2356 C 214.262 1.58035 0.222944 0
M  V30 2357 C 214.462 1.14713 1.6566 0
M  V30 2358 O 213.518 0.841218 2.38075 0
M  V30 2359 C 214.831 3.00691 -0.0236116 0
M  V30 2360 C 216.379 3.12973 0.0411512 0
M  V30 2361 C 216.854 4.57654 -0.177899 0
M  V30 2362 N 218.345 4.63033 -0.124365 0
M  V30 2363 C 219.08 5.72771 -0.268553 0
M  V30 2364 N 218.576 6.91206 -0.46972 0
M  V30 2365 N 220.369 5.61718 -0.2071 0
M  V30 2366 H 212.52 1.8349 -1.06981 0
M  V30 2367 H 214.783 0.848677 -0.422436 0
M  V30 2368 H 214.489 3.36726 -1.0153 0
M  V30 2369 H 214.363 3.70614 0.701808 0
M  V30 2370 H 216.75 2.76787 1.02338 0
M  V30 2371 H 216.831 2.45564 -0.716383 0
M  V30 2372 H 216.475 4.94542 -1.15717 0
M  V30 2373 H 216.405 5.23173 0.599797 0
M  V30 2374 H 218.896 3.7789 0.027011 0
M  V30 2375 H 219.209 7.70693 -0.570212 0
M  V30 2376 H 217.554 6.93156 -0.505876 0
M  V30 2377 H 220.745 4.68072 -0.0507986 0
M  V30 2378 H 220.918 6.47195 -0.322909 0
M  V30 2379 N 214.325 -0.140222 1.56975 0
M  V30 2380 C 215.736 -0.699596 1.73097 0
M  V30 2381 C 216.087 -1.8134 0.749022 0
M  V30 2382 O 215.212 -2.16241 -0.0828503 0
M  V30 2383 C 215.807 -1.27582 3.1386 0
M  V30 2384 C 214.366 -1.78169 3.31561 0
M  V30 2385 C 213.513 -0.672855 2.69013 0
M  V30 2386 H 216.464 0.0855115 1.58469 0
M  V30 2387 H 216.485 -2.14561 3.14235 0
M  V30 2388 H 215.997 -0.464955 3.85305 0
M  V30 2389 H 214.098 -2.61801 2.65124 0
M  V30 2390 H 214.211 -1.90574 4.39566 0
M  V30 2391 H 212.575 -1.10118 2.29665 0
M  V30 2392 H 213.358 0.126679 3.43066 0
M  V30 2393 N 215.803 -1.52179 -0.40978 0
M  V30 2394 C 217.219 -1.40968 -0.74835 0
M  V30 2395 C 217.419 -0.513657 -1.94843 0
M  V30 2396 O 216.475 0.0208026 -2.52491 0
M  V30 2397 C 217.788 -2.83483 -1.0029 0
M  V30 2398 C 219.336 -2.92821 -1.10565 0
M  V30 2399 C 219.811 -4.36303 -1.39296 0
M  V30 2400 N 221.302 -4.39535 -1.46162 0
M  V30 2401 C 222.037 -5.47614 -1.70018 0
M  V30 2402 N 221.533 -6.65812 -1.91483 0
M  V30 2403 N 223.326 -5.35129 -1.72027 0
M  V30 2404 H 215.477 -2.0897 0.380186 0
M  V30 2405 H 217.74 -0.94185 0.107805 0
M  V30 2406 H 217.446 -3.51168 -0.193461 0
M  V30 2407 H 217.32 -3.24487 -1.92323 0
M  V30 2408 H 219.707 -2.25318 -1.90568 0
M  V30 2409 H 219.788 -2.55276 -0.16369 0
M  V30 2410 H 219.432 -5.04366 -0.598109 0
M  V30 2411 H 219.362 -4.71385 -2.34743 0
M  V30 2412 H 221.853 -3.54332 -1.31367 0
M  V30 2413 H 222.166 -7.43964 -2.09134 0
M  V30 2414 H 220.511 -6.68879 -1.88749 0
M  V30 2415 H 223.702 -4.41764 -1.54796 0
M  V30 2416 H 223.875 -6.19433 -1.9028 0
M  V30 2417 N 217.281 0.66697 -1.42791 0
M  V30 2418 C 218.692 1.2478 -1.38877 0
M  V30 2419 C 219.043 1.96012 -0.0859426 0
M  V30 2420 O 218.168 2.00463 0.815081 0
M  V30 2421 C 218.763 2.26938 -2.51564 0
M  V30 2422 C 217.322 2.80529 -2.50959 0
M  V30 2423 C 216.469 1.54965 -2.29959 0
M  V30 2424 H 219.42 0.459853 -1.51892 0
M  V30 2425 H 219.441 3.08834 -2.22265 0
M  V30 2426 H 218.953 1.75065 -3.46372 0
M  V30 2427 H 217.054 3.36502 -1.59991 0
M  V30 2428 H 217.167 3.29012 -3.48265 0
M  V30 2429 H 215.531 1.81817 -1.78366 0
M  V30 2430 H 216.314 1.05047 -3.26833 0
M  V30 2431 N 218.759 1.29093 0.90403 0
M  V30 2432 C 220.036 1.075 1.63411 0
M  V30 2433 C 220.416 -0.382346 2.07609 0
M  V30 2434 O 219.764 -1.37031 1.82851 0
M  V30 2435 C 219.974 2.05858 2.81822 0
M  V30 2436 C 221.322 2.36539 3.52611 0
M  V30 2437 O 222.346 2.04019 2.91984 0
M  V30 2438 O 221.205 2.92085 4.61897 0
M  V30 2439 H 218.299 0.411547 0.717327 0
M  V30 2440 H 220.845 1.40449 0.952479 0
M  V30 2441 H 219.617 3.04037 2.46327 0
M  V30 2442 H 219.24 1.73613 3.57693 0
M  V30 2443 N 220.237 -1.11381 1.11499 0
M  V30 2444 C 221.648 -1.6465 0.880191 0
M  V30 2445 C 221.999 -1.87199 -0.587434 0
M  V30 2446 O 221.124 -1.60667 -1.44966 0
M  V30 2447 C 221.719 -2.99105 1.59128 0
M  V30 2448 C 220.278 -3.49279 1.40289 0
M  V30 2449 C 219.425 -2.24077 1.63354 0
M  V30 2450 H 222.376 -0.950123 1.27116 0
M  V30 2451 H 222.397 -3.66107 1.03664 0
M  V30 2452 H 221.909 -2.82661 2.65941 0
M  V30 2453 H 220.01 -3.70887 0.356888 0
M  V30 2454 H 220.123 -4.2803 2.15238 0
M  V30 2455 H 218.487 -2.31733 1.05698 0
M  V30 2456 H 219.27 -2.10175 2.71443 0
M  V30 2457 N 221.715 -0.905404 -1.28997 0
M  V30 2458 C 222.94 -0.549175 -1.99997 0
M  V30 2459 C 223.365 0.860276 -1.67275 0
M  V30 2460 O 222.723 1.57355 -0.900502 0
M  V30 2461 C 222.771 -0.755185 -3.52604 0
M  V30 2462 O 221.875 0.189692 -4.11964 0
M  V30 2463 H 221.216 -0.213899 -0.628604 0
M  V30 2464 H 223.746 -1.21856 -1.64354 0
M  V30 2465 H 223.756 -0.662045 -4.02593 0
M  V30 2466 H 222.431 -1.78271 -3.75755 0
M  V30 2467 H 221.008 0.0485257 -3.72868 0
M  V30 2468 N 223.193 1.4272 -0.668489 0
M  V30 2469 C 224.604 1.84793 -0.266151 0
M  V30 2470 C 224.955 1.55959 1.19043 0
M  V30 2471 O 224.08 1.01622 1.91055 0
M  V30 2472 C 224.675 3.35436 -0.476271 0
M  V30 2473 C 223.234 3.76182 -0.128113 0
M  V30 2474 C 222.381 2.66344 -0.771777 0
M  V30 2475 H 225.332 1.32656 -0.871098 0
M  V30 2476 H 225.353 3.79515 0.273561 0
M  V30 2477 H 224.865 3.5639 -1.53647 0
M  V30 2478 H 222.966 3.60836 0.928891 0
M  V30 2479 H 223.079 4.75766 -0.564231 0
M  V30 2480 H 221.443 2.53885 -0.203652 0
M  V30 2481 H 222.226 2.90123 -1.83531 0
M  V30 2482 N 224.671 0.411399 1.52136 0
M  V30 2483 C 225.581 -0.419774 2.30814 0
M  V30 2484 C 226.597 -1.0515 1.38634 0
M  V30 2485 O 227.773 -1.05252 1.71709 0
M  V30 2486 C 224.838 -1.52019 3.11594 0
M  V30 2487 C 223.899 -0.91129 4.19516 0
M  V30 2488 C 223.132 -1.95927 4.96436 0
M  V30 2489 O 223.355 -3.17775 4.73683 0
M  V30 2490 O 222.289 -1.56423 5.81219 0
M  V30 2491 H 226.115 0.221805 3.02889 0
M  V30 2492 H 223.7 0.174547 1.48377 0
M  V30 2493 H 225.582 -2.15898 3.61892 0
M  V30 2494 H 224.257 -2.14633 2.42311 0
M  V30 2495 H 223.164 -0.235157 3.7336 0
M  V30 2496 H 224.497 -0.32904 4.91099 0
M  V30 2497 N 226.149 -1.5696 0.141893 0
M  V30 2498 C 227.398 -1.95135 -0.510427 0
M  V30 2499 C 227.711 -1.02896 -1.66348 0
M  V30 2500 O 228.917 -1.30629 -2.38009 0
M  V30 2501 C 227.373 -3.46876 -0.959427 0
M  V30 2502 C 226.981 -4.47691 0.166419 0
M  V30 2503 C 228.725 -3.93927 -1.58183 0
M  V30 2504 C 226.632 -5.90636 -0.300565 0
M  V30 2505 H 225.562 -0.728494 -0.194454 0
M  V30 2506 H 228.213 -1.8211 0.22542 0
M  V30 2507 H 226.595 -3.55215 -1.75038 0
M  V30 2508 H 227.769 -4.51043 0.94325 0
M  V30 2509 H 226.084 -4.10527 0.696905 0
M  V30 2510 H 228.681 -4.98158 -1.94275 0
M  V30 2511 H 229.024 -3.3519 -2.46888 0
M  V30 2512 H 229.557 -3.88484 -0.855863 0
M  V30 2513 H 226.296 -6.5318 0.550989 0
M  V30 2514 H 225.816 -5.90655 -1.04338 0
M  V30 2515 H 227.495 -6.42588 -0.754265 0
M  V30 2516 N 227.627 0.131896 -1.57047 0
M  V30 2517 C 228.537 1.1815 -2.02676 0
M  V30 2518 C 229.553 1.46113 -0.944824 0
M  V30 2519 O 230.729 1.57485 -1.25541 0
M  V30 2520 C 227.794 2.49139 -2.41103 0
M  V30 2521 C 226.855 2.28688 -3.63318 0
M  V30 2522 C 226.088 3.53431 -3.99903 0
M  V30 2523 O 226.311 4.60223 -3.36973 0
M  V30 2524 O 225.245 3.45198 -4.93074 0
M  V30 2525 H 229.071 0.824069 -2.92306 0
M  V30 2526 H 226.656 0.341745 -1.45439 0
M  V30 2527 H 228.538 3.26338 -2.66611 0
M  V30 2528 H 227.213 2.84382 -1.54624 0
M  V30 2529 H 226.12 1.4939 -3.42977 0
M  V30 2530 H 227.453 1.98355 -4.50462 0
M  V30 2531 N 229.106 1.52395 0.401703 0
M  V30 2532 C 230.354 1.66488 1.14569 0
M  V30 2533 C 230.675 0.400897 1.90835 0
M  V30 2534 O 229.945 -0.584415 1.8698 0
M  V30 2535 H 228.525 0.613672 0.425929 0
M  V30 2536 H 231.187 1.89464 0.457093 0
M  V30 2537 H 230.283 2.50942 1.85566 0
M  V30 2538 N 230.584 -0.659388 1.43143 0
M  V30 2539 C 231.861 -1.41627 1.34912 0
M  V30 2540 C 232.241 -2.11099 -0.00607785 0
M  V30 2541 O 231.589 -2.04353 -1.02236 0
M  V30 2542 C 231.799 -2.40604 2.52805 0
M  V30 2543 C 233.147 -3.04789 2.95616 0
M  V30 2544 O 234.171 -2.50932 2.52807 0
M  V30 2545 O 233.03 -4.02421 3.69756 0
M  V30 2546 H 230.124 -0.63246 0.532844 0
M  V30 2547 H 232.67 -0.686814 1.5518 0
M  V30 2548 H 231.442 -1.88174 3.43083 0
M  V30 2549 H 231.065 -3.21009 2.34604 0
M  V30 2550 N 232.062 -1.29571 -0.897171 0
M  V30 2551 C 232.992 -1.17473 -2.01798 0
M  V30 2552 C 233.973 -0.068323 -1.69963 0
M  V30 2553 O 235.158 -0.248239 -1.92607 0
M  V30 2554 C 232.288 -0.853099 -3.36659 0
M  V30 2555 C 231.242 -1.9161 -3.82713 0
M  V30 2556 C 230.568 -1.44773 -5.14728 0
M  V30 2557 C 231.868 -3.32535 -4.02763 0
M  V30 2558 H 233.562 -2.11237 -2.12177 0
M  V30 2559 H 231.108 -1.01699 -1.01948 0
M  V30 2560 H 233.061 -0.755165 -4.14578 0
M  V30 2561 H 231.785 0.120236 -3.26379 0
M  V30 2562 H 230.444 -2.00346 -3.07013 0
M  V30 2563 H 230.092 -0.462995 -5.00865 0
M  V30 2564 H 229.792 -2.15865 -5.46513 0
M  V30 2565 H 231.316 -1.36334 -5.95185 0
M  V30 2566 H 232.73 -3.26626 -4.71156 0
M  V30 2567 H 231.127 -4.01607 -4.45905 0
M  V30 2568 H 232.197 -3.75326 -3.07016 0
M  V30 2569 N 233.54 1.10788 -1.12088 0
M  V30 2570 C 234.472 2.16816 -0.743213 0
M  V30 2571 C 235.485 1.6119 0.228412 0
M  V30 2572 O 236.674 1.78497 0.0102931 0
M  V30 2573 C 233.774 3.38809 -0.0787313 0
M  V30 2574 C 232.947 4.23885 -1.0789 0
M  V30 2575 C 232.006 5.24334 -0.442713 0
M  V30 2576 O 231.032 5.58497 -1.09864 0
M  V30 2577 N 232.234 5.75079 0.791457 0
M  V30 2578 H 234.999 2.49825 -1.65552 0
M  V30 2579 H 232.56 1.26373 -1.012 0
M  V30 2580 H 234.552 4.03107 0.358766 0
M  V30 2581 H 233.122 3.03805 0.736275 0
M  V30 2582 H 232.342 3.55939 -1.69414 0
M  V30 2583 H 233.63 4.77562 -1.75533 0
M  V30 2584 H 233.028 5.49517 1.3434 0
M  V30 2585 H 231.585 6.4118 1.17183 0
M  V30 2586 N 235.018 0.912232 1.28515 0
M  V30 2587 C 236.429 0.591352 1.77087 0
M  V30 2588 C 236.78 -0.8933 1.74684 0
M  V30 2589 O 235.905 -1.69876 1.34056 0
M  V30 2590 C 236.5 1.06668 3.2157 0
M  V30 2591 C 235.059 0.79675 3.67871 0
M  V30 2592 C 234.206 1.23427 2.48316 0
M  V30 2593 H 237.157 1.09365 1.15 0
M  V30 2594 H 237.178 0.407455 3.78312 0
M  V30 2595 H 236.69 2.14726 3.23287 0
M  V30 2596 H 234.791 -0.270679 3.71616 0
M  V30 2597 H 234.904 1.40343 4.58084 0
M  V30 2598 H 233.268 0.653036 2.46186 0
M  V30 2599 H 234.051 2.32316 2.52753 0
M  V30 2600 N 236.496 -1.42363 0.676048 0
M  V30 2601 C 237.459 -2.29199 0.00766941 0
M  V30 2602 C 238.459 -1.43389 -0.727745 0
M  V30 2603 O 239.649 -1.64764 -0.56556 0
M  V30 2604 C 236.781 -3.2591 -0.999785 0
M  V30 2605 H 237.974 -2.89794 0.771988 0
M  V30 2606 H 235.527 -1.50024 0.438468 0
M  V30 2607 H 236.262 -2.70256 -1.79255 0
M  V30 2608 H 236.047 -3.89202 -0.475829 0
M  V30 2609 H 237.537 -3.91028 -1.46583 0
M  V30 2610 N 237.974 -0.419461 -1.51915 0
M  V30 2611 C 239.202 0.152136 -2.0634 0
M  V30 2612 C 239.617 1.37988 -1.28859 0
M  V30 2613 O 238.974 1.79243 -0.343232 0
M  V30 2614 C 239.025 0.492266 -3.58133 0
M  V30 2615 O 238.746 -0.686736 -4.32684 0
M  V30 2616 C 240.247 1.11648 -4.2901 0
M  V30 2617 H 237.467 0.0158325 -0.670813 0
M  V30 2618 H 240.011 -0.593394 -1.95702 0
M  V30 2619 H 238.166 1.18769 -3.68745 0
M  V30 2620 H 238.58 -0.400341 -5.2297 0
M  V30 2621 H 240.054 1.3046 -5.36362 0
M  V30 2622 H 240.531 2.09251 -3.86148 0
M  V30 2623 H 241.137 0.460958 -4.22795 0
M  V30 2624 N 239.452 1.56882 -0.150215 0
M  V30 2625 C 240.402 2.13501 0.800071 0
M  V30 2626 C 241.386 1.06368 1.20726 0
M  V30 2627 O 242.578 1.32538 1.17314 0
M  V30 2628 C 239.707 2.76271 2.03787 0
M  V30 2629 C 238.793 3.90533 1.65364 0
M  V30 2630 N 239.184 4.96259 0.977794 0
M  V30 2631 C 237.482 4.013 1.94613 0
M  V30 2632 C 238.183 5.76286 0.791794 0
M  V30 2633 N 237.159 5.27163 1.32666 0
M  V30 2634 H 240.961 2.92615 0.274517 0
M  V30 2635 H 238.475 1.62319 0.0512144 0
M  V30 2636 H 240.472 3.15197 2.72867 0
M  V30 2637 H 239.132 1.98631 2.56857 0
M  V30 2638 H 240.143 5.13953 0.638193 0
M  V30 2639 H 236.82 3.3474 2.4951 0
M  V30 2640 H 238.21 6.71401 0.258894 0
M  V30 2641 N 240.93 -0.123565 1.57115 0
M  V30 2642 C 242.178 -0.83051 1.84247 0
M  V30 2643 C 242.499 -1.80629 0.73471 0
M  V30 2644 O 241.769 -1.94403 -0.241688 0
M  V30 2645 H 240.349 -0.309694 0.679778 0
M  V30 2646 H 243.011 -0.111976 1.94578 0
M  V30 2647 H 242.107 -1.37852 2.80006 0
M  V30 2648 N 242.408 -1.52605 -0.393616 0
M  V30 2649 C 243.633 -1.71592 -1.16495 0
M  V30 2650 C 244.058 -0.43133 -1.83088 0
M  V30 2651 O 243.416 0.612523 -1.7064 0
M  V30 2652 C 243.464 -2.86318 -2.19213 0
M  V30 2653 O 242.568 -2.52969 -3.257 0
M  V30 2654 H 241.909 -0.570734 -0.33935 0
M  V30 2655 H 244.439 -1.99377 -0.459324 0
M  V30 2656 H 244.449 -3.1168 -2.63286 0
M  V30 2657 H 243.124 -3.79511 -1.7013 0
M  V30 2658 H 241.701 -2.38332 -2.86797 0
M  V30 2659 N 243.887 0.651787 -1.4349 0
M  V30 2660 C 245.303 0.96762 -1.26922 0
M  V30 2661 C 245.503 2.00602 -0.189982 0
M  V30 2662 O 244.559 2.48793 0.431107 0
M  V30 2663 C 245.872 1.45052 -2.63401 0
M  V30 2664 C 247.42 1.5671 -2.70945 0
M  V30 2665 C 247.895 2.0839 -4.07845 0
M  V30 2666 N 249.386 2.1569 -4.09917 0
M  V30 2667 C 250.121 2.56804 -5.12679 0
M  V30 2668 N 249.617 2.97203 -6.25813 0
M  V30 2669 N 251.41 2.56756 -5.00033 0
M  V30 2670 H 243.561 -0.0353158 -2.12371 0
M  V30 2671 H 245.824 0.0467858 -0.946845 0
M  V30 2672 H 245.53 0.761926 -3.43348 0
M  V30 2673 H 245.404 2.42529 -2.88894 0
M  V30 2674 H 247.791 2.2467 -1.9133 0
M  V30 2675 H 247.872 0.57662 -2.49216 0
M  V30 2676 H 247.516 1.41031 -4.87927 0
M  V30 2677 H 247.446 3.08271 -4.26938 0
M  V30 2678 H 249.937 1.87237 -3.28254 0
M  V30 2679 H 250.25 3.27328 -7.00055 0
M  V30 2680 H 248.595 2.95004 -6.29283 0
M  V30 2681 H 251.786 2.24572 -4.10713 0
M  V30 2682 H 251.959 2.88475 -5.80247 0
M  V30 2683 N 245.365 1.30045 0.890287 0
M  V30 2684 C 246.612 1.18561 1.64163 0
M  V30 2685 C 246.94 -0.260852 1.92743 0
M  V30 2686 O 246.195 -1.20376 1.54299 0
M  V30 2687 C 246.494 1.95409 2.99249 0
M  V30 2688 C 246.16 3.45066 2.90242 0
M  V30 2689 C 244.822 3.85878 2.87492 0
M  V30 2690 C 247.174 4.4039 2.78758 0
M  V30 2691 C 244.502 5.20314 2.7109 0
M  V30 2692 C 246.854 5.74928 2.63894 0
M  V30 2693 C 245.518 6.14986 2.59516 0
M  V30 2694 H 244.788 0.433846 0.600715 0
M  V30 2695 H 247.435 1.61088 1.03552 0
M  V30 2696 H 245.74 1.45501 3.63781 0
M  V30 2697 H 247.437 1.8392 3.56334 0
M  V30 2698 H 244.027 3.12631 2.93189 0
M  V30 2699 H 248.211 4.09806 2.79952 0
M  V30 2700 H 243.467 5.50449 2.66112 0
M  V30 2701 H 247.641 6.48434 2.53981 0
M  V30 2702 H 245.268 7.19104 2.46565 0
M  V30 2703 N 246.843 -1.10192 1.12674 0
M  V30 2704 C 248.073 -1.85713 0.905213 0
M  V30 2705 C 248.481 -1.81056 -0.549108 0
M  V30 2706 O 247.824 -1.19927 -1.39151 0
M  V30 2707 C 247.886 -3.34972 1.30516 0
M  V30 2708 C 247.55 -3.63385 2.77129 0
M  V30 2709 C 248.547 -3.59772 3.75313 0
M  V30 2710 C 246.232 -3.91981 3.14096 0
M  V30 2711 C 248.226 -3.84354 5.08479 0
M  V30 2712 C 245.913 -4.16218 4.47443 0
M  V30 2713 C 246.911 -4.12395 5.44444 0
M  V30 2714 O 246.599 -4.36014 6.75387 0
M  V30 2715 H 246.331 -0.593719 0.323223 0
M  V30 2716 H 248.885 -1.40198 1.50112 0
M  V30 2717 H 247.115 -3.81156 0.652463 0
M  V30 2718 H 248.804 -3.91886 1.05736 0
M  V30 2719 H 249.57 -3.37716 3.48099 0
M  V30 2720 H 245.449 -3.94085 2.39202 0
M  V30 2721 H 248.993 -3.81285 5.84181 0
M  V30 2722 H 244.89 -4.37754 4.74386 0
M  V30 2723 H 245.658 -4.53516 6.8137 0
M  V30 2724 N 248.321 -0.919034 -1.28029 0
M  V30 2725 C 249.568 -0.554934 -1.94748 0
M  V30 2726 C 249.896 0.90231 -1.72304 0
M  V30 2727 O 249.151 1.65767 -1.04018 0
M  V30 2728 C 249.45 -0.816855 -3.4794 0
M  V30 2729 C 249.116 -2.25448 -3.90492 0
M  V30 2730 C 247.778 -2.64752 -4.01821 0
M  V30 2731 C 250.13 -3.18977 -4.12193 0
M  V30 2732 C 247.458 -3.96727 -4.32232 0
M  V30 2733 C 249.81 -4.50523 -4.44086 0
M  V30 2734 C 248.474 -4.89673 -4.53626 0
M  V30 2735 H 247.744 -0.203065 -0.712633 0
M  V30 2736 H 250.391 -1.16136 -1.52265 0
M  V30 2737 H 248.696 -0.127677 -3.91592 0
M  V30 2738 H 250.393 -0.514238 -3.97689 0
M  V30 2739 H 246.983 -1.93952 -3.82205 0
M  V30 2740 H 251.167 -2.89817 -4.02889 0
M  V30 2741 H 246.423 -4.26754 -4.37825 0
M  V30 2742 H 250.597 -5.23005 -4.59825 0
M  V30 2743 H 248.224 -5.91969 -4.76946 0
M  V30 2744 N 249.799 1.42003 -0.683588 0
M  V30 2745 C 251.045 2.02223 -0.218536 0
M  V30 2746 C 251.4 1.53126 1.16492 0
M  V30 2747 O 250.693 0.727459 1.77253 0
M  V30 2748 C 250.887 3.56827 -0.202357 0
M  V30 2749 C 250.716 4.20928 -1.5827 0
M  V30 2750 C 249.486 4.5573 -2.18262 0
M  V30 2751 C 251.684 4.47933 -2.52706 0
M  V30 2752 N 249.666 5.05056 -3.48986 0
M  V30 2753 C 251.037 4.98906 -3.68094 0
M  V30 2754 C 253.092 4.29931 -2.51125 0
M  V30 2755 C 251.795 5.33768 -4.82166 0
M  V30 2756 C 253.821 4.65875 -3.643 0
M  V30 2757 C 253.183 5.17008 -4.78417 0
M  V30 2758 H 249.282 0.771931 -0.125088 0
M  V30 2759 H 251.866 1.72729 -0.898479 0
M  V30 2760 H 250.037 3.85819 0.447029 0
M  V30 2761 H 251.769 4.03755 0.276399 0
M  V30 2762 H 248.524 4.41781 -1.70665 0
M  V30 2763 H 248.948 5.34139 -4.15962 0
M  V30 2764 H 253.59 3.89647 -1.6412 0
M  V30 2765 H 251.308 5.72981 -5.6984 0
M  V30 2766 H 254.894 4.53615 -3.64314 0
M  V30 2767 H 253.774 5.44301 -5.64541 0
M  V30 2768 N 251.277 0.427512 1.51691 0
M  V30 2769 C 252.505 -0.141191 2.06418 0
M  V30 2770 C 252.92 -1.37303 1.29589 0
M  V30 2771 O 252.277 -1.79059 0.352732 0
M  V30 2772 C 252.328 -0.473266 3.58389 0
M  V30 2773 O 252.049 0.709673 4.32314 0
M  V30 2774 C 253.55 -1.09371 4.29596 0
M  V30 2775 H 250.77 -0.0122747 0.670888 0
M  V30 2776 H 253.314 0.603764 1.95384 0
M  V30 2777 H 251.469 -1.16812 3.69369 0
M  V30 2778 H 251.883 0.42807 5.2275 0
M  V30 2779 H 253.357 -1.27613 5.37046 0
M  V30 2780 H 253.834 -2.072 3.87253 0
M  V30 2781 H 254.44 -0.43853 4.23033 0
M  V30 2782 N 252.755 -1.56801 0.158532 0
M  V30 2783 C 253.702 -2.17337 -0.776729 0
M  V30 2784 C 254.672 -1.1096 -1.23601 0
M  V30 2785 O 255.857 -1.39054 -1.30647 0
M  V30 2786 C 252.997 -2.80822 -2.00582 0
M  V30 2787 C 252.11 -4.01624 -1.59129 0
M  V30 2788 C 251.245 -4.53072 -2.77306 0
M  V30 2789 C 250.284 -5.66314 -2.32282 0
M  V30 2790 N 249.421 -6.12329 -3.43508 0
M  V30 2791 H 254.261 -2.96918 -0.253701 0
M  V30 2792 H 251.798 -1.46661 -0.113504 0
M  V30 2793 H 253.756 -3.15779 -2.72652 0
M  V30 2794 H 252.386 -2.03866 -2.50277 0
M  V30 2795 H 251.438 -3.72571 -0.767806 0
M  V30 2796 H 252.75 -4.83633 -1.2207 0
M  V30 2797 H 251.904 -4.90145 -3.57551 0
M  V30 2798 H 250.643 -3.70095 -3.17617 0
M  V30 2799 H 249.648 -5.28806 -1.5048 0
M  V30 2800 H 250.873 -6.51085 -1.93043 0
M  V30 2801 H 248.819 -5.32284 -3.83418 0
M  V30 2802 H 248.736 -6.89293 -3.105 0
M  V30 2803 H 250.004 -6.5405 -4.24075 0
M  V30 2804 O 254.272 -0.0202813 -1.61487 0
M  V30 2805 H 254.963 0.593557 -1.84382 0
M  V30 END ATOM
M  V30 BEGIN BOND
M  V30 END BOND
M  V30 END CTAB
M  END
$$$$
