drugbank_target|P52045 Methylmalonyl-CoA decarboxylase (DB03117)
 OpenBabel12092119563D

  0  0  0     0  0            999 V3000
M  V30 BEGIN CTAB
M  V30 COUNTS 4108 4149 0 0 0
M  V30 BEGIN ATOM
M  V30 1 H -0.908 1.98254 -0.117106 0
M  V30 2 N 0 1.576 0 0
M  V30 3 C 0.933 2.03868 1.02534 0
M  V30 4 C 1.911 0.928543 1.3348 0
M  V30 5 O 3.095 1.19667 1.45644 0
M  V30 6 C 0.222 2.43627 2.35294 0
M  V30 7 C -0.732 3.65373 2.2001 0
M  V30 8 S 0.101 5.13292 1.52614 0
M  V30 9 C 1.257 5.56322 2.86805 0
M  V30 10 H 1.49 2.90518 0.631377 0
M  V30 11 H -0.977 1.52953 0.210867 0
M  V30 12 H 0.981 2.67203 3.11629 0
M  V30 13 H -0.358 1.57376 2.7183 0
M  V30 14 H -1.165 3.90944 3.18086 0
M  V30 15 H -1.563 3.418 1.51819 0
M  V30 16 H 0.729 5.58782 3.83104 0
M  V30 17 H 1.672 6.56266 2.65933 0
M  V30 18 H 2.08 4.83886 2.90714 0
M  V30 19 N 1.4781 -0.272755 1.55222 0
M  V30 20 C 2.7031 -1.02683 1.80197 0
M  V30 21 C 3.1281 -1.79142 0.573551 0
M  V30 22 O 2.4861 -1.74917 -0.476849 0
M  V30 23 C 2.5341 -1.9609 3.02624 0
M  V30 24 O 1.6381 -3.04863 2.77727 0
M  V30 25 H 0.9791 -0.293557 0.595584 0
M  V30 26 H 3.5091 -0.30159 2.02365 0
M  V30 27 H 3.5191 -2.38039 3.31363 0
M  V30 28 H 2.1941 -1.39851 3.91682 0
M  V30 29 H 0.7711 -2.67228 2.60084 0
M  V30 30 N 2.9562 -1.48159 -0.537278 0
M  V30 31 C 4.1862 -1.59223 -1.3165 0
M  V30 32 C 4.5942 -0.248849 -1.87556 0
M  V30 33 O 3.9372 0.770949 -1.6674 0
M  V30 34 C 3.9992 -2.57365 -2.51005 0
M  V30 35 C 3.6632 -4.02603 -2.16239 0
M  V30 36 C 4.6602 -4.90503 -1.72344 0
M  V30 37 C 2.3452 -4.48088 -2.26986 0
M  V30 38 C 4.3392 -6.21913 -1.39651 0
M  V30 39 C 2.0262 -5.7952 -1.93906 0
M  V30 40 C 3.0242 -6.66255 -1.50309 0
M  V30 41 O 2.7122 -7.95243 -1.17659 0
M  V30 42 H 2.4442 -0.539831 -0.406889 0
M  V30 43 H 4.9982 -1.94655 -0.655641 0
M  V30 44 H 3.2282 -2.1704 -3.20048 0
M  V30 45 H 4.9172 -2.58342 -3.13072 0
M  V30 46 H 5.6832 -4.56604 -1.63517 0
M  V30 47 H 1.5622 -3.80769 -2.59877 0
M  V30 48 H 5.1062 -6.89569 -1.0555 0
M  V30 49 H 1.0032 -6.12957 -2.02371 0
M  V30 50 H 1.7712 -8.0793 -1.31119 0
M  V30 51 N 4.4343 0.785586 -1.36625 0
M  V30 52 C 5.3663 1.90711 -1.2713 0
M  V30 53 C 6.3793 1.61688 -0.189986 0
M  V30 54 O 7.5683 1.72864 -0.445014 0
M  V30 55 C 4.6683 3.25611 -0.939713 0
M  V30 56 C 3.8413 3.82385 -2.12369 0
M  V30 57 C 2.9003 4.95732 -1.76456 0
M  V30 58 O 1.9263 5.12047 -2.48589 0
M  V30 59 N 3.1283 5.76258 -0.700492 0
M  V30 60 H 5.8933 1.99376 -2.23762 0
M  V30 61 H 3.4543 0.964041 -1.30069 0
M  V30 62 H 5.4463 3.98937 -0.680554 0
M  V30 63 H 4.0163 3.12538 -0.0624074 0
M  V30 64 H 3.2363 3.01001 -2.54543 0
M  V30 65 H 4.5243 4.17047 -2.9146 0
M  V30 66 H 3.9223 5.65609 -0.101624 0
M  V30 67 H 2.4793 6.4987 -0.501165 0
M  V30 68 N 5.9124 1.20967 1.01018 0
M  V30 69 C 7.1424 1.04803 1.78044 0
M  V30 70 C 7.5504 -0.405462 1.84804 0
M  V30 71 O 6.8934 -1.2932 1.30468 0
M  V30 72 C 6.9554 1.56377 3.23707 0
M  V30 73 C 6.6194 3.04767 3.40538 0
M  V30 74 C 7.6164 4.02366 3.29239 0
M  V30 75 C 5.3014 3.43862 3.66147 0
M  V30 76 C 7.2954 5.37049 3.43304 0
M  V30 77 C 4.9824 4.78699 3.79855 0
M  V30 78 C 5.9804 5.75101 3.68439 0
M  V30 79 O 5.6684 7.07493 3.81719 0
M  V30 80 H 5.4004 0.368778 0.56655 0
M  V30 81 H 7.9544 1.60642 1.27997 0
M  V30 82 H 6.1844 0.949297 3.74867 0
M  V30 83 H 7.8734 1.36136 3.8239 0
M  V30 84 H 8.6394 3.73506 3.09384 0
M  V30 85 H 4.5184 2.69364 3.74118 0
M  V30 86 H 8.0624 6.12277 3.34309 0
M  V30 87 H 3.9594 5.07247 3.99213 0
M  V30 88 H 4.7274 7.1483 3.98697 0
M  V30 89 N 7.3905 -1.2043 1.01659 0
M  V30 90 C 8.6365 -1.90079 0.706963 0
M  V30 91 C 8.9695 -1.78648 -0.761474 0
M  V30 92 O 8.2445 -1.17069 -1.55323 0
M  V30 93 C 8.5275 -3.41469 1.14327 0
M  V30 94 C 8.3805 -3.61833 2.67201 0
M  V30 95 C 9.6995 -4.34261 0.714529 0
M  V30 96 H 6.8185 -0.690254 0.2583 0
M  V30 97 H 9.4605 -1.41826 1.26433 0
M  V30 98 H 7.6105 -3.82696 0.669056 0
M  V30 99 H 9.2825 -3.2986 3.22475 0
M  V30 100 H 7.5255 -3.05304 3.08175 0
M  V30 101 H 8.1965 -4.67955 2.92783 0
M  V30 102 H 10.6725 -4.00682 1.12221 0
M  V30 103 H 9.5485 -5.38806 1.04784 0
M  V30 104 H 9.8095 -4.40431 -0.383799 0
M  V30 105 N 8.8686 -0.792821 -1.36206 0
M  V30 106 C 9.8166 -0.181555 -2.3189 0
M  V30 107 C 10.8106 0.661025 -1.55971 0
M  V30 108 O 12.0166 0.555728 -1.71206 0
M  V30 109 H 8.3916 -0.0399382 -0.750939 0
M  V30 110 H 10.3626 -1.00394 -2.81005 0
M  V30 111 C 9.1116 0.666444 -3.41253 0
M  V30 112 H 8.4346 0.0274489 -3.99791 0
M  V30 113 H 9.8746 1.06076 -4.10517 0
M  V30 114 C 8.3336 1.82614 -2.83114 0
M  V30 115 O 8.8636 2.9229 -2.75553 0
M  V30 116 N 7.0696 1.63333 -2.40356 0
M  V30 117 H 6.6166 0.741217 -2.46706 0
M  V30 118 H 6.5746 2.41087 -2.01803 0
M  V30 119 N 10.3467 1.47872 -0.545128 0
M  V30 120 C 11.5927 2.02793 -0.0166104 0
M  V30 121 C 11.9257 1.41987 1.32489 0
M  V30 122 O 11.2007 0.571045 1.85928 0
M  V30 123 C 11.4837 3.59989 0.0893294 0
M  V30 124 C 11.3367 4.3125 -1.27841 0
M  V30 125 C 12.6557 4.32606 0.808724 0
M  V30 126 H 9.7747 0.736962 -0.00751035 0
M  V30 127 H 12.4167 1.76433 -0.705085 0
M  V30 128 H 10.5667 3.82579 0.675681 0
M  V30 129 H 12.2387 4.20035 -1.90704 0
M  V30 130 H 10.4817 3.92076 -1.85632 0
M  V30 131 H 11.1527 5.39736 -1.15713 0
M  V30 132 H 13.6287 4.14936 0.310992 0
M  V30 133 H 12.5047 5.42251 0.851782 0
M  V30 134 H 12.7657 4.00963 1.86229 0
M  V30 135 N 11.8248 0.280983 1.55075 0
M  V30 136 C 13.0708 -0.33461 2.00021 0
M  V30 137 C 13.4038 -1.55063 1.16915 0
M  V30 138 O 12.6788 -1.93006 0.240646 0
M  V30 139 C 12.9618 -0.711007 3.53011 0
M  V30 140 C 12.8148 0.512766 4.46868 0
M  V30 141 C 14.1338 -1.54522 4.12081 0
M  V30 142 H 11.2528 -0.120147 0.727141 0
M  V30 143 H 13.8948 0.389097 1.85973 0
M  V30 144 H 12.0448 -1.32761 3.65112 0
M  V30 145 H 13.7168 1.15131 4.46702 0
M  V30 146 H 11.9598 1.14975 4.18286 0
M  V30 147 H 12.6308 0.205556 5.51617 0
M  V30 148 H 15.1068 -1.02442 4.03293 0
M  V30 149 H 13.9828 -1.77739 5.19327 0
M  V30 150 H 14.2438 -2.52813 3.62682 0
M  V30 151 N 13.3029 -1.57598 0.00835791 0
M  V30 152 C 14.5309 -1.95214 -0.68549 0
M  V30 153 C 14.9459 -0.883706 -1.66841 0
M  V30 154 O 14.3029 0.136565 -1.81988 0
M  V30 155 C 14.3539 -3.32865 -1.41007 0
M  V30 156 O 14.0749 -4.35609 -0.466552 0
M  V30 157 C 15.5759 -3.84991 -2.19765 0
M  V30 158 H 12.7959 -0.643422 -0.190392 0
M  V30 159 H 15.3399 -2.04406 0.0619607 0
M  V30 160 H 13.4949 -3.24956 -2.10908 0
M  V30 161 H 13.9089 -5.15288 -0.978699 0
M  V30 162 H 15.3829 -4.8371 -2.65948 0
M  V30 163 H 15.8599 -3.18137 -3.02796 0
M  V30 164 H 16.4659 -3.96103 -1.54864 0
M  V30 165 N 14.781 0.264519 -1.55364 0
M  V30 166 C 16.03 0.992812 -1.75574 0
M  V30 167 C 16.343 1.87142 -0.568979 0
M  V30 168 O 17.549 2.63513 -0.653682 0
M  V30 169 C 16.005 1.81519 -3.10771 0
M  V30 170 C 15.613 0.984839 -4.37041 0
M  V30 171 C 17.357 2.53727 -3.40327 0
M  V30 172 C 15.264 1.80209 -5.63275 0
M  V30 173 H 14.194 0.374412 -0.65447 0
M  V30 174 H 16.845 0.248138 -1.81815 0
M  V30 175 H 15.227 2.60115 -2.98591 0
M  V30 176 H 16.401 0.242455 -4.60162 0
M  V30 177 H 14.716 0.37691 -4.14691 0
M  V30 178 H 17.313 3.15292 -4.3185 0
M  V30 179 H 17.656 3.24447 -2.60845 0
M  V30 180 H 18.189 1.82156 -3.53644 0
M  V30 181 H 14.928 1.13896 -6.45529 0
M  V30 182 H 14.448 2.52022 -5.44284 0
M  V30 183 H 16.127 2.37364 -6.01887 0
M  V30 184 N 16.2591 1.48442 0.529413 0
M  V30 185 C 17.2071 1.63452 1.65487 0
M  V30 186 C 18.2011 0.500955 1.61823 0
M  V30 187 O 19.4071 0.679695 1.66674 0
M  V30 188 H 15.7821 0.514905 0.548066 0
M  V30 189 H 17.7531 2.57975 1.49971 0
M  V30 190 C 16.5021 1.69196 3.03756 0
M  V30 191 H 15.8251 2.55784 3.07269 0
M  V30 192 H 17.2651 1.83743 3.82119 0
M  V30 193 C 15.7241 0.430765 3.34135 0
M  V30 194 O 16.2541 -0.4561 3.99102 0
M  V30 195 N 14.4601 0.302293 2.89023 0
M  V30 196 H 14.0071 1.02496 2.36331 0
M  V30 197 H 13.9651 -0.540546 3.09718 0
M  V30 198 N 17.7372 -0.778329 1.37039 0
M  V30 199 C 18.6842 -1.89139 1.32269 0
M  V30 200 C 19.6542 -1.65017 0.189387 0
M  V30 201 O 20.8392 -1.87024 0.377693 0
M  V30 202 C 17.9792 -3.26112 1.12894 0
M  V30 203 C 17.0922 -3.62233 2.35396 0
M  V30 204 C 16.2272 -4.8838 2.08946 0
M  V30 205 C 15.2662 -5.17212 3.2735 0
M  V30 206 N 14.4032 -6.34546 3.00492 0
M  V30 207 H 19.2432 -1.92552 2.27437 0
M  V30 208 H 16.7802 -0.941473 1.13025 0
M  V30 209 H 18.7382 -4.05116 0.996835 0
M  V30 210 H 17.3682 -3.22091 0.213758 0
M  V30 211 H 16.4202 -2.78265 2.5937 0
M  V30 212 H 17.7322 -3.79481 3.23721 0
M  V30 213 H 16.8862 -5.75274 1.92729 0
M  V30 214 H 15.6252 -4.73222 1.17949 0
M  V30 215 H 14.6302 -4.28796 3.44113 0
M  V30 216 H 15.8552 -5.34283 4.19188 0
M  V30 217 H 13.8012 -6.20759 2.12118 0
M  V30 218 H 13.7182 -6.52179 3.82358 0
M  V30 219 H 14.9862 -7.24394 2.87879 0
M  V30 220 N 19.2153 -1.21501 -1.00376 0
M  V30 221 C 20.4613 -1.03452 -1.74429 0
M  V30 222 C 20.7943 0.430764 -1.89362 0
M  V30 223 O 20.0693 1.31962 -1.42886 0
M  V30 224 C 20.3523 -1.73375 -3.15615 0
M  V30 225 C 20.2053 -3.27431 -3.08397 0
M  V30 226 C 21.5243 -1.47732 -4.14564 0
M  V30 227 H 18.6433 -0.377226 -0.633143 0
M  V30 228 H 21.2853 -1.49693 -1.17013 0
M  V30 229 H 19.4353 -1.34064 -3.64636 0
M  V30 230 H 21.1073 -3.76119 -2.67081 0
M  V30 231 H 19.3503 -3.5767 -2.45468 0
M  V30 232 H 20.0213 -3.71524 -4.08258 0
M  V30 233 H 22.4973 -1.8186 -3.74254 0
M  V30 234 H 21.3733 -1.99169 -5.11491 0
M  V30 235 H 21.6343 -0.407589 -4.40217 0
M  V30 236 N 20.6934 1.19889 -1.02296 0
M  V30 237 C 21.6564 2.21116 -0.603351 0
M  V30 238 C 22.6564 1.5738 0.329884 0
M  V30 239 O 23.8464 1.73802 0.117702 0
M  V30 240 C 20.9784 3.40696 0.117992 0
M  V30 241 H 22.1714 2.59754 -1.49893 0
M  V30 242 H 19.7244 1.33463 -0.813468 0
M  V30 243 H 20.4594 3.07569 1.0282 0
M  V30 244 H 20.2444 3.88188 -0.552511 0
M  V30 245 H 21.7344 4.15692 0.398696 0
M  V30 246 N 22.1715 0.800033 1.35784 0
M  V30 247 C 23.4175 0.377901 1.99248 0
M  V30 248 C 23.7505 -1.05052 1.63333 0
M  V30 249 O 23.0255 -1.72768 0.893385 0
M  V30 250 C 23.3085 0.553922 3.55814 0
M  V30 251 C 23.1615 2.0268 4.01548 0
M  V30 252 C 24.4805 -0.0244802 4.40093 0
M  V30 253 H 21.5995 0.138782 0.723815 0
M  V30 254 H 24.2415 1.00835 1.61035 0
M  V30 255 H 22.3915 0.0172398 3.88496 0
M  V30 256 H 24.0635 2.62536 3.79305 0
M  V30 257 H 22.3065 2.5256 3.52698 0
M  V30 258 H 22.9775 2.10087 5.10458 0
M  V30 259 H 25.4535 0.433775 4.13833 0
M  V30 260 H 24.3295 0.128637 5.48749 0
M  V30 261 H 24.5905 -1.11758 4.27741 0
M  V30 262 N 23.6496 -1.47581 0.552962 0
M  V30 263 C 24.8986 -2.01684 0.0251995 0
M  V30 264 C 25.2116 -1.43317 -1.33115 0
M  V30 265 O 26.4176 -1.89057 -1.94858 0
M  V30 266 C 24.8736 -3.599 -0.00542052 0
M  V30 267 C 24.4816 -4.27257 1.34742 0
M  V30 268 C 26.2256 -4.21768 -0.4808 0
M  V30 269 C 24.1326 -5.77467 1.27614 0
M  V30 270 H 23.0626 -0.753979 0.00565033 0
M  V30 271 H 25.7136 -1.69616 0.70018 0
M  V30 272 H 24.0956 -3.88911 -0.745961 0
M  V30 273 H 25.2696 -4.09893 2.10534 0
M  V30 274 H 23.5846 -3.77358 1.76039 0
M  V30 275 H 26.1816 -5.31838 -0.55246 0
M  V30 276 H 26.5246 -3.88651 -1.49184 0
M  V30 277 H 27.0576 -3.97273 0.204752 0
M  V30 278 H 23.7966 -6.15196 2.26304 0
M  V30 279 H 23.3166 -5.9718 0.55996 0
M  V30 280 H 24.9956 -6.3959 0.976421 0
M  V30 281 N 25.1277 -0.289203 -1.54924 0
M  V30 282 C 26.0377 0.601863 -2.26748 0
M  V30 283 C 27.0537 1.15834 -1.2984 0
M  V30 284 O 28.2297 1.18564 -1.62802 0
M  V30 285 C 25.2947 1.76299 -2.98529 0
M  V30 286 C 24.3557 1.24178 -4.10948 0
M  V30 287 C 23.5887 2.34757 -4.79296 0
M  V30 288 O 23.8117 3.54411 -4.46933 0
M  V30 289 O 22.7457 2.02115 -5.66951 0
M  V30 290 H 26.5717 0.0195879 -3.03694 0
M  V30 291 H 24.1567 -0.0560868 -1.49295 0
M  V30 292 H 26.0387 2.43973 -3.43592 0
M  V30 293 H 24.7137 2.33209 -2.24488 0
M  V30 294 H 23.6207 0.531104 -3.70311 0
M  V30 295 H 24.9537 0.718252 -4.86931 0
M  V30 296 N 26.6058 1.57591 -0.0167156 0
M  V30 297 C 27.8528 1.91283 0.664597 0
M  V30 298 C 28.1808 0.891949 1.72842 0
M  V30 299 O 27.4358 -0.100931 1.9544 0
M  V30 300 C 27.7348 3.3172 1.33029 0
M  V30 301 C 27.4008 4.4914 0.398047 0
M  V30 302 C 26.0628 4.80992 0.141421 0
M  V30 303 C 28.4148 5.20634 -0.242825 0
M  V30 304 C 25.7428 5.81703 -0.764092 0
M  V30 305 C 28.0948 6.22311 -1.13632 0
M  V30 306 C 26.7588 6.52611 -1.40196 0
M  V30 307 H 26.0288 0.699956 0.243193 0
M  V30 308 H 28.6758 1.9135 -0.0758267 0
M  V30 309 H 26.9808 3.27856 2.14517 0
M  V30 310 H 28.6778 3.55055 1.86379 0
M  V30 311 H 25.2678 4.24262 0.608238 0
M  V30 312 H 29.4518 4.96267 -0.0576019 0
M  V30 313 H 24.7078 6.03532 -0.977732 0
M  V30 314 H 28.8818 6.76834 -1.63917 0
M  V30 315 H 26.5088 7.30467 -2.10529 0
M  V30 316 N 28.0839 -0.256276 1.55502 0
M  V30 317 C 29.0319 -1.33694 1.90338 0
M  V30 318 C 30.0259 -1.50299 0.781441 0
M  V30 319 O 31.2319 -1.51885 0.965966 0
M  V30 320 H 27.6069 -0.447483 0.60437 0
M  V30 321 H 29.5779 -1.01574 2.8058 0
M  V30 322 C 28.3269 -2.68724 2.20642 0
M  V30 323 H 27.6499 -2.56743 3.06469 0
M  V30 324 H 29.0899 -3.43237 2.48926 0
M  V30 325 C 27.5489 -3.21101 1.01959 0
M  V30 326 O 28.0789 -4.0084 0.262762 0
M  V30 327 N 26.2849 -2.79003 0.812746 0
M  V30 328 H 25.8319 -2.14271 1.42989 0
M  V30 329 H 25.7899 -3.14393 0.0203076 0
M  V30 330 N 29.562 -1.4872 -0.521534 0
M  V30 331 C 30.792 -1.6061 -1.29954 0
M  V30 332 C 31.2 -0.268728 -1.87282 0
M  V30 333 O 30.543 0.753221 -1.67548 0
M  V30 334 C 30.605 -2.60013 -2.48261 0
M  V30 335 C 30.269 -4.04874 -2.11957 0
M  V30 336 C 31.266 -4.92304 -1.67132 0
M  V30 337 C 28.951 -4.5047 -2.22221 0
M  V30 338 C 30.945 -6.2336 -1.33047 0
M  V30 339 C 28.632 -5.81544 -1.87748 0
M  V30 340 C 29.63 -6.67812 -1.43234 0
M  V30 341 O 29.318 -7.96446 -1.09217 0
M  V30 342 H 29.05 -0.544116 -0.401141 0
M  V30 343 H 31.604 -1.95339 -0.634958 0
M  V30 344 H 29.834 -2.20422 -3.17728 0
M  V30 345 H 31.523 -2.61648 -3.10315 0
M  V30 346 H 32.289 -4.58312 -1.58665 0
M  V30 347 H 28.168 -3.83504 -2.55823 0
M  V30 348 H 31.712 -6.90649 -0.982299 0
M  V30 349 H 27.609 -6.15069 -1.95858 0
M  V30 350 H 28.377 -8.09275 -1.22542 0
M  V30 351 N 31.0401 0.771051 -1.3745 0
M  V30 352 C 32.2881 1.52661 -1.32435 0
M  V30 353 C 32.6091 1.9479 0.0905024 0
M  V30 354 O 31.8791 1.66348 1.03466 0
M  V30 355 H 30.4591 0.566218 -0.487244 0
M  V30 356 H 33.1211 0.917636 -1.71946 0
M  V30 357 H 32.2171 2.42568 -1.96385 0
M  V30 358 N 32.5182 1.22032 0.997298 0
M  V30 359 C 33.9342 0.979326 1.26021 0
M  V30 360 C 34.1342 -0.32972 1.98784 0
M  V30 361 O 33.1902 -1.05345 2.29475 0
M  V30 362 C 34.5032 2.17509 2.07631 0
M  V30 363 C 36.0512 2.21817 2.2083 0
M  V30 364 C 36.5262 3.40933 3.05825 0
M  V30 365 N 38.0172 3.41067 3.13412 0
M  V30 366 C 38.7522 4.29885 3.79455 0
M  V30 367 N 38.2482 5.28914 4.47462 0
M  V30 368 N 40.0412 4.17673 3.76173 0
M  V30 369 H 32.1922 2.06202 0.509352 0
M  V30 370 H 34.4552 0.90334 0.287541 0
M  V30 371 H 34.1612 3.12415 1.61524 0
M  V30 372 H 34.0352 2.17206 3.08385 0
M  V30 373 H 36.4222 1.27462 2.66153 0
M  V30 374 H 36.5032 2.2616 1.1952 0
M  V30 375 H 36.1472 4.35586 2.61203 0
M  V30 376 H 36.0772 3.33829 4.07266 0
M  V30 377 H 38.5682 2.69406 2.65007 0
M  V30 378 H 38.8812 5.92973 4.95583 0
M  V30 379 H 37.2262 5.32831 4.46224 0
M  V30 380 H 40.4172 3.39564 3.22202 0
M  V30 381 H 40.5902 4.87098 4.27363 0
M  V30 382 N 33.9963 -1.19345 1.0293 0
M  V30 383 C 34.9433 -2.2258 0.610464 0
M  V30 384 C 35.9133 -1.6179 -0.375946 0
M  V30 385 O 37.0983 -1.88844 -0.272511 0
M  V30 386 C 34.2383 -3.45085 -0.0321473 0
M  V30 387 C 33.3513 -4.20258 1.00035 0
M  V30 388 C 32.4863 -5.3019 0.32746 0
M  V30 389 C 31.5253 -5.97121 1.34584 0
M  V30 390 N 30.6623 -6.98615 0.698726 0
M  V30 391 H 35.5023 -2.57764 1.49538 0
M  V30 392 H 33.0393 -1.26644 0.748311 0
M  V30 393 H 34.9973 -4.15061 -0.421966 0
M  V30 394 H 33.6273 -3.10555 -0.88064 0
M  V30 395 H 32.6793 -3.49223 1.50823 0
M  V30 396 H 33.9913 -4.66175 1.77433 0
M  V30 397 H 33.1453 -6.06587 -0.11718 0
M  V30 398 H 31.8843 -4.85345 -0.478713 0
M  V30 399 H 30.8893 -5.19474 1.80074 0
M  V30 400 H 32.1143 -6.4405 2.15352 0
M  V30 401 H 30.0603 -6.55942 -0.0873471 0
M  V30 402 H 29.9773 -7.42724 1.41058 0
M  V30 403 H 31.2453 -7.79004 0.278102 0
M  V30 404 N 35.4744 -0.807222 -1.35358 0
M  V30 405 C 36.4044 -0.232509 -2.3234 0
M  V30 406 C 37.3854 0.642386 -1.57504 0
M  V30 407 O 38.5704 0.572526 -1.85569 0
M  V30 408 C 35.7004 0.619238 -3.41735 0
M  V30 409 C 34.6544 -0.157215 -4.27711 0
M  V30 410 C 33.9804 0.816273 -5.28433 0
M  V30 411 C 35.2804 -1.35656 -5.04376 0
M  V30 412 H 36.9744 -1.04276 -2.80654 0
M  V30 413 H 34.5204 -0.50288 -1.34934 0
M  V30 414 H 36.4734 1.03137 -4.08584 0
M  V30 415 H 35.1974 1.46239 -2.92031 0
M  V30 416 H 33.8564 -0.550525 -3.62443 0
M  V30 417 H 33.5044 1.65494 -4.74996 0
M  V30 418 H 33.2044 0.301067 -5.86828 0
M  V30 419 H 34.7284 1.22659 -5.98153 0
M  V30 420 H 36.1424 -1.01927 -5.64166 0
M  V30 421 H 34.5394 -1.8063 -5.7227 0
M  V30 422 H 35.6094 -2.14288 -4.34981 0
M  V30 423 N 36.9525 1.47285 -0.560781 0
M  V30 424 C 37.9005 2.31756 0.197942 0
M  V30 425 C 38.8945 1.43146 0.905854 0
M  V30 426 O 40.1005 1.59891 0.826733 0
M  V30 427 H 36.4755 0.747438 0.0827049 0
M  V30 428 H 38.4465 2.9359 -0.533629 0
M  V30 429 C 37.1955 3.25874 1.21249 0
M  V30 430 H 36.5185 3.94023 0.67719 0
M  V30 431 H 37.9585 3.87803 1.71419 0
M  V30 432 C 36.4175 2.49651 2.26221 0
M  V30 433 O 36.9475 2.24355 3.33208 0
M  V30 434 N 35.1535 2.10597 2.00243 0
M  V30 435 H 34.7005 2.31369 1.13252 0
M  V30 436 H 34.6585 1.59913 2.70694 0
M  V30 437 N 38.4306 0.297415 1.54768 0
M  V30 438 C 39.3936 -0.567375 2.22066 0
M  V30 439 C 40.3936 -1.06409 1.20556 0
M  V30 440 O 41.5836 -0.960691 1.45315 0
M  V30 441 C 38.7156 -1.78517 2.90421 0
M  V30 442 H 39.9086 0.0205534 2.99893 0
M  V30 443 H 37.4616 0.0482163 1.56226 0
M  V30 444 H 38.1966 -2.41303 2.16664 0
M  V30 445 H 37.9816 -1.43669 3.64831 0
M  V30 446 H 39.4716 -2.39964 3.41771 0
M  V30 447 N 39.9087 -1.5758 0.0250728 0
M  V30 448 C 40.8387 -2.13007 -0.956575 0
M  V30 449 C 41.8197 -1.0452 -1.342 0
M  V30 450 O 43.0047 -1.32332 -1.42133 0
M  V30 451 C 40.1347 -2.65386 -2.24026 0
M  V30 452 C 39.0887 -3.78623 -1.99571 0
M  V30 453 C 38.4147 -4.17414 -3.3417 0
M  V30 454 C 39.7147 -5.04867 -1.33814 0
M  V30 455 H 41.4087 -2.9528 -0.494991 0
M  V30 456 H 38.9547 -1.42042 -0.236651 0
M  V30 457 H 40.9077 -3.02794 -2.93076 0
M  V30 458 H 39.6317 -1.80268 -2.72343 0
M  V30 459 H 38.2907 -3.41646 -1.32941 0
M  V30 460 H 37.9387 -3.29284 -3.80238 0
M  V30 461 H 37.6387 -4.93719 -3.18615 0
M  V30 462 H 39.1627 -4.57402 -4.04495 0
M  V30 463 H 40.5767 -5.39888 -1.92857 0
M  V30 464 H 38.9737 -5.86144 -1.28669 0
M  V30 465 H 40.0437 -4.83904 -0.310561 0
M  V30 466 N 41.3868 0.248026 -1.55636 0
M  V30 467 C 42.6118 0.998028 -1.81808 0
M  V30 468 C 43.0368 1.78207 -0.601979 0
M  V30 469 O 42.3948 1.75653 0.448961 0
M  V30 470 C 42.4428 1.9125 -3.05705 0
M  V30 471 O 41.5468 3.00406 -2.82542 0
M  V30 472 H 40.8878 0.284045 -0.600179 0
M  V30 473 H 43.4178 0.269357 -2.02819 0
M  V30 474 H 43.4278 2.32737 -3.35108 0
M  V30 475 H 42.1028 1.33602 -3.93857 0
M  V30 476 H 40.6798 2.63056 -2.64303 0
M  V30 477 N 42.8649 1.48995 0.513639 0
M  V30 478 C 43.8119 1.6473 1.61656 0
M  V30 479 C 44.7819 0.488984 1.58739 0
M  V30 480 O 45.9669 0.714478 1.76918 0
M  V30 481 C 43.1069 1.7082 2.99858 0
M  V30 482 C 42.2199 2.9787 3.12885 0
M  V30 483 C 41.3549 2.95017 4.41744 0
M  V30 484 C 40.3939 4.16702 4.48359 0
M  V30 485 N 39.5309 4.11832 5.68629 0
M  V30 486 H 44.3709 2.58909 1.47547 0
M  V30 487 H 41.9079 1.28382 0.71808 0
M  V30 488 H 43.8659 1.72331 3.79944 0
M  V30 489 H 42.4959 0.801181 3.12699 0
M  V30 490 H 41.5479 3.06029 2.25944 0
M  V30 491 H 42.8599 3.8786 3.13633 0
M  V30 492 H 42.0139 2.95021 5.30139 0
M  V30 493 H 40.7529 2.02784 4.43542 0
M  V30 494 H 39.7579 4.16955 3.58369 0
M  V30 495 H 40.9829 5.10113 4.48287 0
M  V30 496 H 38.9289 3.22428 5.71293 0
M  V30 497 H 38.8459 4.95543 5.7094 0
M  V30 498 H 40.1139 4.1592 6.59266 0
M  V30 499 N 44.343 -0.763751 1.37857 0
M  V30 500 C 45.589 -1.52483 1.33704 0
M  V30 501 C 45.922 -1.94051 -0.0759612 0
M  V30 502 O 45.197 -1.64675 -1.03501 0
M  V30 503 C 45.48 -2.78441 2.28348 0
M  V30 504 C 45.333 -2.43075 3.78463 0
M  V30 505 C 46.652 -3.80415 2.21298 0
M  V30 506 H 43.771 -0.553169 0.487005 0
M  V30 507 H 46.413 -0.875562 1.68624 0
M  V30 508 H 44.563 -3.33842 1.987 0
M  V30 509 H 46.235 -1.93527 4.18742 0
M  V30 510 H 44.478 -1.75666 3.96641 0
M  V30 511 H 45.149 -3.33149 4.40132 0
M  V30 512 H 47.625 -3.34527 2.47449 0
M  V30 513 H 46.501 -4.66257 2.89647 0
M  V30 514 H 46.762 -4.25262 1.20849 0
M  V30 515 N 45.8211 -1.22559 -0.990812 0
M  V30 516 C 47.0681 -1.05141 -1.73065 0
M  V30 517 C 47.3961 0.413191 -1.9006 0
M  V30 518 O 46.6511 1.32257 -1.44245 0
M  V30 519 C 46.9501 -1.71011 -3.13831 0
M  V30 520 C 46.6161 -3.20911 -3.16745 0
M  V30 521 C 45.2781 -3.61812 -3.17247 0
M  V30 522 C 47.6301 -4.16846 -3.12872 0
M  V30 523 C 44.9581 -4.97127 -3.1158 0
M  V30 524 C 47.3101 -5.5214 -3.08746 0
M  V30 525 C 45.9741 -5.92419 -3.07565 0
M  V30 526 H 45.2441 -0.384738 -0.633291 0
M  V30 527 H 47.8911 -1.5235 -1.16025 0
M  V30 528 H 46.1961 -1.16133 -3.74193 0
M  V30 529 H 47.8931 -1.55023 -3.69823 0
M  V30 530 H 44.4831 -2.88344 -3.17105 0
M  V30 531 H 48.6671 -3.86263 -3.11632 0
M  V30 532 H 43.9231 -5.27562 -3.09012 0
M  V30 533 H 48.0971 -6.26201 -3.04705 0
M  V30 534 H 45.7241 -6.97236 -3.02929 0
M  V30 535 N 47.2992 1.18797 -1.03562 0
M  V30 536 C 48.5482 1.87978 -0.731235 0
M  V30 537 C 48.8612 1.80911 0.743671 0
M  V30 538 O 50.0672 2.45407 1.16137 0
M  V30 539 C 48.5232 3.3721 -1.25768 0
M  V30 540 C 48.1312 3.52818 -2.76085 0
M  V30 541 C 49.8752 4.11825 -1.0296 0
M  V30 542 C 47.7822 4.9598 -3.22114 0
M  V30 543 H 46.7122 0.704063 -0.269835 0
M  V30 544 H 49.3632 1.34266 -1.25079 0
M  V30 545 H 47.7452 3.90359 -0.666011 0
M  V30 546 H 48.9192 3.09965 -3.40966 0
M  V30 547 H 47.2342 2.91602 -2.97249 0
M  V30 548 H 49.8312 5.17411 -1.34869 0
M  V30 549 H 50.1742 4.16287 0.0333546 0
M  V30 550 H 50.7072 3.64833 -1.58562 0
M  V30 551 H 47.4462 4.96684 -4.27768 0
M  V30 552 H 46.9662 5.39569 -2.61965 0
M  V30 553 H 48.6452 5.6467 -3.15844 0
M  V30 554 N 48.7773 0.814389 1.34928 0
M  V30 555 C 50.0543 0.321363 1.92942 0
M  V30 556 C 50.4343 -1.19014 1.74353 0
M  V30 557 O 49.7823 -1.99328 1.11716 0
M  V30 558 C 49.9923 0.741323 3.41036 0
M  V30 559 C 51.3403 0.735266 4.18185 0
M  V30 560 O 52.3643 0.68336 3.49584 0
M  V30 561 O 51.2233 0.800703 5.40602 0
M  V30 562 H 48.3173 0.0858893 0.822528 0
M  V30 563 H 50.8633 0.898609 1.43955 0
M  V30 564 H 49.6353 1.78276 3.4833 0
M  V30 565 H 49.2583 0.139307 3.97356 0
M  V30 566 N 50.2554 -1.46986 0.568584 0
M  V30 567 C 51.5324 -1.95592 -0.0174074 0
M  V30 568 C 51.9124 -1.51124 -1.47393 0
M  V30 569 O 51.2604 -0.755329 -2.15655 0
M  V30 570 C 51.4704 -3.48719 0.139913 0
M  V30 571 C 52.8184 -4.246 0.000426376 0
M  V30 572 O 53.8424 -3.56135 0.0680316 0
M  V30 573 O 52.7014 -5.46302 -0.146988 0
M  V30 574 H 49.7954 -0.82498 -0.0577599 0
M  V30 575 H 52.3414 -1.57335 0.635909 0
M  V30 576 H 51.1134 -3.73927 1.15301 0
M  V30 577 H 50.7364 -3.93771 -0.550491 0
M  V30 578 N 51.7335 -0.305618 -1.54608 0
M  V30 579 C 52.6635 0.561482 -2.26649 0
M  V30 580 C 53.6445 1.13415 -1.26772 0
M  V30 581 O 54.8295 1.16262 -1.55553 0
M  V30 582 C 51.9595 1.73122 -3.01075 0
M  V30 583 C 50.9135 1.2887 -4.08138 0
M  V30 584 C 50.2395 2.54396 -4.70305 0
M  V30 585 C 51.5395 0.416578 -5.20636 0
M  V30 586 H 53.2335 -0.0393902 -2.99374 0
M  V30 587 H 50.7795 -0.020385 -1.43986 0
M  V30 588 H 52.7325 2.34396 -3.50195 0
M  V30 589 H 51.4565 2.3584 -2.25936 0
M  V30 590 H 50.1155 0.698991 -3.59875 0
M  V30 591 H 49.7635 3.15439 -3.918 0
M  V30 592 H 49.4635 2.25486 -5.42614 0
M  V30 593 H 50.9875 3.16464 -5.2219 0
M  V30 594 H 52.4015 0.935116 -5.65622 0
M  V30 595 H 50.7985 0.221046 -5.99693 0
M  V30 596 H 51.8685 -0.557162 -4.81688 0
M  V30 597 N 53.2116 1.57565 -0.0334293 0
M  V30 598 C 54.1446 2.05997 0.981866 0
M  V30 599 C 55.1226 0.956647 1.3148 0
M  V30 600 O 56.3066 1.22729 1.43073 0
M  V30 601 C 53.4336 2.48564 2.30074 0
M  V30 602 C 52.4796 3.69958 2.12211 0
M  V30 603 S 53.3126 5.16414 1.41692 0
M  V30 604 C 54.4686 5.6228 2.7494 0
M  V30 605 H 54.7016 2.91792 0.569612 0
M  V30 606 H 52.2346 1.53366 0.178376 0
M  V30 607 H 54.1926 2.73753 3.05892 0
M  V30 608 H 52.8536 1.63106 2.68431 0
M  V30 609 H 52.0466 3.97603 3.09722 0
M  V30 610 H 51.6486 3.44943 1.44535 0
M  V30 611 H 53.9406 5.66783 3.71165 0
M  V30 612 H 54.8836 6.61759 2.51953 0
M  V30 613 H 55.2916 4.89944 2.80384 0
M  V30 614 N 54.6897 -0.239769 1.55765 0
M  V30 615 C 55.6217 -1.32001 1.87372 0
M  V30 616 C 56.6347 -1.43944 0.760522 0
M  V30 617 O 57.8237 -1.45167 1.0387 0
M  V30 618 C 54.9237 -2.69779 2.05115 0
M  V30 619 C 54.0967 -2.80014 3.36022 0
M  V30 620 C 53.1557 -3.98684 3.4342 0
M  V30 621 O 52.1817 -3.87877 4.16582 0
M  V30 622 N 53.3837 -5.12176 2.73232 0
M  V30 623 H 56.1487 -1.0522 2.80622 0
M  V30 624 H 53.7097 -0.429857 1.56089 0
M  V30 625 H 55.7017 -3.47517 2.07399 0
M  V30 626 H 54.2717 -2.89237 1.18577 0
M  V30 627 H 53.4917 -1.88896 3.45994 0
M  V30 628 H 54.7797 -2.83808 4.22292 0
M  V30 629 H 54.1777 -5.2385 2.13536 0
M  V30 630 H 52.7347 -5.88022 2.81199 0
M  V30 631 N 56.1678 -1.49265 -0.50573 0
M  V30 632 C 57.1308 -1.65075 -1.59006 0
M  V30 633 C 58.1308 -0.522768 -1.52065 0
M  V30 634 O 59.3208 -0.789117 -1.55302 0
M  V30 635 C 56.4528 -1.64369 -2.98656 0
M  V30 636 H 57.6458 -2.61784 -1.46319 0
M  V30 637 H 55.1988 -1.38226 -0.729616 0
M  V30 638 H 55.9338 -0.692272 -3.16825 0
M  V30 639 H 55.7188 -2.46282 -3.05103 0
M  V30 640 H 57.2088 -1.78674 -3.77446 0
M  V30 641 N 57.6459 0.756429 -1.3826 0
M  V30 642 C 58.5759 1.88374 -1.37976 0
M  V30 643 C 59.5569 1.68311 -0.246082 0
M  V30 644 O 60.7419 1.88944 -0.44874 0
M  V30 645 C 57.8719 3.25864 -1.20125 0
M  V30 646 C 56.8259 3.60523 -2.30666 0
M  V30 647 C 56.1519 4.9672 -1.97923 0
M  V30 648 C 57.4519 3.65692 -3.72916 0
M  V30 649 H 59.1459 1.88869 -2.32312 0
M  V30 650 H 56.6919 0.907272 -1.11824 0
M  V30 651 H 58.6449 4.0438 -1.18552 0
M  V30 652 H 57.3689 3.25841 -0.222498 0
M  V30 653 H 56.0279 2.84324 -2.3142 0
M  V30 654 H 55.6759 4.93253 -0.985393 0
M  V30 655 H 55.3759 5.20878 -2.71955 0
M  V30 656 H 56.8999 5.77618 -1.97964 0
M  V30 657 H 58.3139 4.34328 -3.74208 0
M  V30 658 H 56.7109 4.01358 -4.4613 0
M  V30 659 H 57.7809 2.65987 -4.05436 0
M  V30 660 N 59.124 1.23083 0.984299 0
M  V30 661 C 60.349 1.088 1.76571 0
M  V30 662 C 60.774 -0.356657 1.84688 0
M  V30 663 O 60.132 -1.25788 1.30565 0
M  V30 664 C 60.18 1.71371 3.17277 0
M  V30 665 O 59.284 0.973213 4.00752 0
M  V30 666 H 58.625 0.381599 0.543395 0
M  V30 667 H 61.155 1.63057 1.23587 0
M  V30 668 H 61.165 1.76449 3.67872 0
M  V30 669 H 59.84 2.76493 3.10684 0
M  V30 670 H 58.417 0.999078 3.59267 0
M  V30 671 N 60.6021 -1.18246 1.0419 0
M  V30 672 C 61.8791 -1.84121 0.660208 0
M  V30 673 C 62.2591 -1.92778 -0.860221 0
M  V30 674 O 61.6071 -1.45464 -1.76217 0
M  V30 675 C 61.8171 -3.22355 1.33747 0
M  V30 676 C 63.1651 -3.98376 1.46906 0
M  V30 677 O 64.1891 -3.31799 1.29568 0
M  V30 678 O 63.0481 -5.17665 1.75171 0
M  V30 679 H 60.1421 -0.794036 0.231161 0
M  V30 680 H 62.6881 -1.25628 1.14087 0
M  V30 681 H 61.4601 -3.10964 2.37522 0
M  V30 682 H 61.0831 -3.88506 0.845515 0
M  V30 683 N 62.0802 -0.821533 -1.34494 0
M  V30 684 C 63.0102 -0.257138 -2.3208 0
M  V30 685 C 63.9912 0.625645 -1.58176 0
M  V30 686 O 65.1762 0.552811 -1.86166 0
M  V30 687 C 62.3062 0.582958 -3.42372 0
M  V30 688 C 61.2602 -0.202571 -4.2752 0
M  V30 689 C 60.5862 0.760179 -5.29269 0
M  V30 690 C 61.8862 -1.40998 -5.02908 0
M  V30 691 H 63.5802 -1.07247 -2.79532 0
M  V30 692 H 61.1262 -0.517163 -1.34393 0
M  V30 693 H 63.0792 0.987972 -4.09655 0
M  V30 694 H 61.8032 1.43133 -2.93565 0
M  V30 695 H 60.4622 -0.588936 -3.61838 0
M  V30 696 H 60.1102 1.60447 -4.76724 0
M  V30 697 H 59.8102 0.238809 -5.87115 0
M  V30 698 H 61.3342 1.16308 -5.9942 0
M  V30 699 H 62.7482 -1.07905 -5.63054 0
M  V30 700 H 61.1452 -1.86689 -5.70322 0
M  V30 701 H 62.2152 -2.1889 -4.32684 0
M  V30 702 N 63.5583 1.46682 -0.576371 0
M  V30 703 C 64.5063 2.31953 0.17335 0
M  V30 704 C 65.5003 1.44098 0.89062 0
M  V30 705 O 66.7063 1.60759 0.809728 0
M  V30 706 H 63.0813 0.748273 0.0747727 0
M  V30 707 H 65.0523 2.93007 -0.564738 0
M  V30 708 C 63.8013 3.27142 1.17786 0
M  V30 709 H 63.1243 3.94719 0.635361 0
M  V30 710 H 64.5643 3.896 1.67296 0
M  V30 711 C 63.0233 2.52036 2.23561 0
M  V30 712 O 63.5533 2.27877 3.3081 0
M  V30 713 N 61.7593 2.12709 1.97998 0
M  V30 714 H 61.3063 2.32557 1.10792 0
M  V30 715 H 61.2643 1.62776 2.68982 0
M  V30 716 N 65.0364 0.313813 1.54444 0
M  V30 717 C 66.4524 -0.0391619 1.59552 0
M  V30 718 C 66.6524 -1.51322 1.33056 0
M  V30 719 O 65.7084 -2.26782 1.11022 0
M  V30 720 C 67.0214 0.370302 2.98411 0
M  V30 721 C 68.5694 0.320139 3.11358 0
M  V30 722 C 69.0444 0.704617 4.52547 0
M  V30 723 N 70.5354 0.657645 4.58508 0
M  V30 724 C 71.2704 0.927453 5.6585 0
M  V30 725 N 70.7664 1.26389 6.81174 0
M  V30 726 N 72.5594 0.853662 5.5558 0
M  V30 727 H 64.7104 1.27433 1.69925 0
M  V30 728 H 66.9734 0.517511 0.794284 0
M  V30 729 H 66.6794 1.39694 3.22767 0
M  V30 730 H 66.5534 -0.269619 3.76235 0
M  V30 731 H 68.9404 -0.697275 2.86744 0
M  V30 732 H 69.0214 0.99486 2.35661 0
M  V30 733 H 68.6654 1.7199 4.77893 0
M  V30 734 H 68.5954 0.00768843 5.26599 0
M  V30 735 H 71.0864 0.409067 3.75679 0
M  V30 736 H 71.3994 1.4554 7.58972 0
M  V30 737 H 69.7444 1.30206 6.82694 0
M  V30 738 H 72.9354 0.590383 4.64362 0
M  V30 739 H 73.1084 1.0673 6.3915 0
M  V30 740 N 66.5145 -1.57545 0.0417849 0
M  V30 741 C 67.9255 -1.80011 -0.495259 0
M  V30 742 C 68.2765 -0.953199 -1.71489 0
M  V30 743 O 67.4015 -0.167138 -2.15754 0
M  V30 744 C 67.9965 -3.26482 -0.905265 0
M  V30 745 C 66.5555 -3.499 -1.38734 0
M  V30 746 C 65.7025 -2.74979 -0.358056 0
M  V30 747 H 68.6535 -1.56425 0.267736 0
M  V30 748 H 68.6745 -3.36887 -1.76882 0
M  V30 749 H 68.1865 -3.88096 -0.017401 0
M  V30 750 H 66.2875 -2.93553 -2.29471 0
M  V30 751 H 66.4005 -4.58615 -1.38598 0
M  V30 752 H 64.7645 -2.40834 -0.828912 0
M  V30 753 H 65.5475 -3.39315 0.521561 0
M  V30 754 N 67.9926 0.231505 -1.5589 0
M  V30 755 C 68.9026 1.308 -1.94752 0
M  V30 756 C 69.9186 1.51826 -0.849989 0
M  V30 757 O 71.0946 1.6515 -1.15271 0
M  V30 758 C 68.1596 2.63968 -2.24771 0
M  V30 759 C 67.2206 2.51331 -3.48039 0
M  V30 760 C 66.4536 3.78148 -3.76616 0
M  V30 761 O 66.6766 4.80722 -3.07022 0
M  V30 762 O 65.6106 3.75857 -4.70123 0
M  V30 763 H 69.4366 1.0083 -2.86474 0
M  V30 764 H 67.0216 0.433547 -1.42971 0
M  V30 765 H 68.9036 3.42633 -2.45318 0
M  V30 766 H 67.5786 2.9364 -1.36225 0
M  V30 767 H 66.4856 1.709 -3.32782 0
M  V30 768 H 67.8186 2.26601 -4.36936 0
M  V30 769 N 69.4707 1.49531 0.497807 0
M  V30 770 C 70.7197 1.58426 1.24837 0
M  V30 771 C 71.0327 0.277643 1.93619 0
M  V30 772 O 72.2387 0.24517 2.70391 0
M  V30 773 C 70.6947 2.79538 2.26686 0
M  V30 774 C 70.3027 4.16971 1.63828 0
M  V30 775 C 72.0467 2.97764 3.0255 0
M  V30 776 C 69.9537 5.29301 2.63807 0
M  V30 777 H 68.8837 0.58989 0.469623 0
M  V30 778 H 71.5347 1.75923 0.521857 0
M  V30 779 H 69.9167 2.55542 3.02514 0
M  V30 780 H 71.0907 4.51116 0.939711 0
M  V30 781 H 69.4057 4.04129 1.00342 0
M  V30 782 H 72.0027 3.78856 3.77323 0
M  V30 783 H 72.3457 2.08448 3.60354 0
M  V30 784 H 72.8787 3.21815 2.33838 0
M  V30 785 H 69.6177 6.20687 2.10779 0
M  V30 786 H 69.1377 4.99606 3.31894 0
M  V30 787 H 70.8167 5.58768 3.2617 0
M  V30 788 N 70.9488 -0.749086 1.3866 0
M  V30 789 C 72.3648 -1.05276 1.19955 0
M  V30 790 C 72.5648 -2.01435 0.05134 0
M  V30 791 O 71.6208 -2.45232 -0.60147 0
M  V30 792 C 72.9338 -1.62853 2.52783 0
M  V30 793 C 74.4818 -1.75002 2.59506 0
M  V30 794 C 74.9568 -2.35991 3.92521 0
M  V30 795 N 76.4478 -2.43416 3.94085 0
M  V30 796 C 77.1828 -2.91511 4.9377 0
M  V30 797 N 76.6788 -3.39608 6.03853 0
M  V30 798 N 78.4718 -2.90592 4.81157 0
M  V30 799 H 70.6228 -0.111066 2.12109 0
M  V30 800 H 72.8858 -0.111901 0.941373 0
M  V30 801 H 72.5918 -0.99664 3.37283 0
M  V30 802 H 72.4658 -2.61854 2.715 0
M  V30 803 H 74.8528 -2.37317 1.75398 0
M  V30 804 H 74.9338 -0.74693 2.44652 0
M  V30 805 H 74.5778 -1.74308 4.77053 0
M  V30 806 H 74.5078 -3.3695 4.04688 0
M  V30 807 H 76.9988 -2.09405 3.14576 0
M  V30 808 H 77.3118 -3.74775 6.75843 0
M  V30 809 H 75.6568 -3.37653 6.07466 0
M  V30 810 H 78.8478 -2.52332 3.94267 0
M  V30 811 H 79.0208 -3.27762 5.58996 0
M  V30 812 N 72.4269 -1.23603 -0.977757 0
M  V30 813 C 73.6669 -1.08148 -1.73446 0
M  V30 814 C 74.0309 0.374785 -1.88307 0
M  V30 815 O 75.2319 0.650588 -2.60808 0
M  V30 816 C 73.5029 -1.78991 -3.0935 0
M  V30 817 S 75.0619 -1.79141 -4.00567 0
M  V30 818 H 71.8799 -0.386987 -0.596458 0
M  V30 819 H 74.4819 -1.5678 -1.16792 0
M  V30 820 H 73.1859 -2.8408 -2.96187 0
M  V30 821 H 72.7169 -1.30651 -3.71071 0
M  V30 822 H 74.7319 -0.851892 -4.88833 0
M  V30 823 N 73.905 1.17692 -1.04816 0
M  V30 824 C 75.154 1.87192 -0.751132 0
M  V30 825 C 75.467 1.8169 0.724441 0
M  V30 826 O 76.673 2.46625 1.13527 0
M  V30 827 C 75.129 3.35857 -1.29338 0
M  V30 828 C 74.737 3.4987 -2.79812 0
M  V30 829 C 76.481 4.10709 -1.07322 0
M  V30 830 C 74.388 4.92536 -3.27356 0
M  V30 831 H 73.318 0.701162 -0.277288 0
M  V30 832 H 75.969 1.32932 -1.26496 0
M  V30 833 H 74.351 3.89631 -0.707376 0
M  V30 834 H 75.525 3.06332 -3.44235 0
M  V30 835 H 73.84 2.88433 -3.00325 0
M  V30 836 H 76.437 5.15952 -1.4035 0
M  V30 837 H 76.78 4.16299 -0.0108001 0
M  V30 838 H 77.313 3.6313 -1.62423 0
M  V30 839 H 74.052 4.92119 -4.33012 0
M  V30 840 H 73.572 5.3676 -2.67673 0
M  V30 841 H 75.251 5.61288 -3.21815 0
M  V30 842 N 75.3831 0.828654 1.34056 0
M  V30 843 C 76.6321 0.415828 1.97367 0
M  V30 844 C 76.9451 -1.02796 1.6641 0
M  V30 845 O 78.1511 -1.54497 2.23255 0
M  V30 846 C 76.6071 0.692601 3.53173 0
M  V30 847 C 76.2151 2.15038 3.93017 0
M  V30 848 C 77.9591 0.346222 4.23086 0
M  V30 849 C 75.8661 2.37174 5.41758 0
M  V30 850 H 74.7961 0.151755 0.738571 0
M  V30 851 H 77.4471 1.01581 1.52819 0
M  V30 852 H 75.8291 0.0223764 3.95994 0
M  V30 853 H 77.0031 2.86024 3.61285 0
M  V30 854 H 75.3181 2.45875 3.36057 0
M  V30 855 H 77.9151 0.48937 5.32456 0
M  V30 856 H 78.2581 -0.709842 4.10204 0
M  V30 857 H 78.7911 0.971258 3.85761 0
M  V30 858 H 75.5301 3.41308 5.59633 0
M  V30 859 H 75.0501 1.70738 5.74986 0
M  V30 860 H 76.7291 2.19818 6.08514 0
M  V30 861 N 76.8612 -1.46375 0.584142 0
M  V30 862 C 77.7912 -2.33103 -0.136037 0
M  V30 863 C 78.7722 -1.45431 -0.882255 0
M  V30 864 O 79.9572 -1.74246 -0.857434 0
M  V30 865 C 77.0872 -3.27731 -1.14933 0
M  V30 866 C 76.0412 -4.24855 -0.517862 0
M  V30 867 C 75.3672 -5.09001 -1.63773 0
M  V30 868 C 76.6672 -5.19439 0.545886 0
M  V30 869 H 78.3612 -2.93568 0.588086 0
M  V30 870 H 75.9072 -1.41166 0.284259 0
M  V30 871 H 77.8602 -3.87261 -1.66153 0
M  V30 872 H 76.5842 -2.65377 -1.90375 0
M  V30 873 H 75.2432 -3.6659 -0.0267361 0
M  V30 874 H 74.8912 -4.43031 -2.38185 0
M  V30 875 H 74.5912 -5.74777 -1.22085 0
M  V30 876 H 76.1152 -5.71396 -2.15266 0
M  V30 877 H 77.5292 -5.73177 0.118704 0
M  V30 878 H 75.9262 -5.93566 0.88317 0
M  V30 879 H 76.9962 -4.63285 1.43162 0
M  V30 880 N 78.3393 -0.321999 -1.54275 0
M  V30 881 C 79.7553 0.0306999 -1.5957 0
M  V30 882 C 79.9553 1.50614 -1.33857 0
M  V30 883 O 79.0113 2.2619 -1.12223 0
M  V30 884 C 80.3243 -0.386122 -2.98211 0
M  V30 885 C 81.8723 -0.336647 -3.11184 0
M  V30 886 C 82.3473 -0.728607 -4.52167 0
M  V30 887 N 83.8383 -0.681952 -4.58152 0
M  V30 888 C 84.5733 -0.957449 -5.6535 0
M  V30 889 N 84.0693 -1.3 -6.80494 0
M  V30 890 N 85.8623 -0.883113 -5.55119 0
M  V30 891 H 78.0133 -1.28332 -1.69247 0
M  V30 892 H 80.2763 -0.521716 -0.791528 0
M  V30 893 H 79.9823 -1.41404 -3.22022 0
M  V30 894 H 79.8563 0.249662 -3.76373 0
M  V30 895 H 82.2433 0.682058 -2.8711 0
M  V30 896 H 82.3243 -1.00734 -2.3513 0
M  V30 897 H 81.9683 -1.74522 -4.76974 0
M  V30 898 H 81.8983 -0.0356152 -5.26588 0
M  V30 899 H 84.3893 -0.428985 -3.75457 0
M  V30 900 H 84.7023 -1.49563 -7.58189 0
M  V30 901 H 83.0473 -1.33824 -6.81994 0
M  V30 902 H 86.2383 -0.615001 -4.64042 0
M  V30 903 H 86.4113 -1.10118 -6.38575 0
M  V30 904 N 79.8174 1.5752 -0.0501392 0
M  V30 905 C 80.7804 2.1037 0.909786 0
M  V30 906 C 81.7804 1.02308 1.24056 0
M  V30 907 O 82.9704 1.28385 1.17741 0
M  V30 908 C 80.1024 2.58708 2.21998 0
M  V30 909 H 81.2954 2.96479 0.451665 0
M  V30 910 H 78.8484 1.55038 0.198248 0
M  V30 911 H 79.5834 1.75989 2.72394 0
M  V30 912 H 79.3684 3.37675 1.99295 0
M  V30 913 H 80.8584 2.99747 2.9076 0
M  V30 914 N 81.2955 -0.223234 1.56011 0
M  V30 915 C 82.7065 -0.790368 1.69145 0
M  V30 916 C 83.0575 -1.85055 0.651845 0
M  V30 917 O 82.1825 -2.15498 -0.197359 0
M  V30 918 C 82.7775 -1.4404 3.06656 0
M  V30 919 C 81.3365 -1.95494 3.2165 0
M  V30 920 C 80.4835 -0.814506 2.65068 0
M  V30 921 H 83.4345 0.00139011 1.587 0
M  V30 922 H 83.4555 -2.30916 3.0242 0
M  V30 923 H 82.9675 -0.668543 3.82298 0
M  V30 924 H 81.0685 -2.75487 2.50874 0
M  V30 925 H 81.1815 -2.13607 4.28846 0
M  V30 926 H 79.5455 -1.22137 2.23505 0
M  V30 927 H 80.3285 -0.0553515 3.43255 0
M  V30 928 N 82.7736 -1.49793 -0.48987 0
M  V30 929 C 83.9986 -1.63836 -1.27172 0
M  V30 930 C 84.4236 -0.31402 -1.8546 0
M  V30 931 O 83.7816 0.719803 -1.66399 0
M  V30 932 C 83.8296 -2.71797 -2.36978 0
M  V30 933 O 82.9336 -2.31744 -3.41128 0
M  V30 934 H 82.2746 -0.547997 -0.37496 0
M  V30 935 H 84.8046 -1.96053 -0.585191 0
M  V30 936 H 84.8146 -2.94305 -2.82575 0
M  V30 937 H 83.4896 -3.67923 -1.93921 0
M  V30 938 H 82.0666 -2.1961 -3.01373 0
M  V30 939 N 84.2517 0.741722 -1.39055 0
M  V30 940 C 85.4997 1.49818 -1.35643 0
M  V30 941 C 85.8207 1.94938 0.0491642 0
M  V30 942 O 85.0907 1.68505 0.999141 0
M  V30 943 H 83.6707 0.555755 -0.499144 0
M  V30 944 H 86.3327 0.880957 -1.73854 0
M  V30 945 H 85.4287 2.38348 -2.01486 0
M  V30 946 N 85.7298 1.2412 0.971189 0
M  V30 947 C 86.9548 1.10667 1.75407 0
M  V30 948 C 87.3798 -0.337048 1.85056 0
M  V30 949 O 86.7378 -1.24396 1.31892 0
M  V30 950 C 86.7858 1.74726 3.15441 0
M  V30 951 O 85.8898 1.01566 3.99697 0
M  V30 952 H 85.2308 0.387341 0.539317 0
M  V30 953 H 87.7608 1.64358 1.2185 0
M  V30 954 H 87.7708 1.80341 3.6598 0
M  V30 955 H 86.4458 2.79773 3.07734 0
M  V30 956 H 85.0228 1.03713 3.58187 0
M  V30 957 N 87.2079 -1.17134 1.05439 0
M  V30 958 C 88.1549 -2.21235 0.657539 0
M  V30 959 C 89.1249 -1.62551 -0.341543 0
M  V30 960 O 90.3099 -1.89379 -0.232393 0
M  V30 961 C 87.4499 -3.45076 0.0410575 0
M  V30 962 C 86.5629 -4.18042 1.08927 0
M  V30 963 C 85.6979 -5.29376 0.439848 0
M  V30 964 C 84.7369 -5.94132 1.4722 0
M  V30 965 N 83.8739 -6.96975 0.846756 0
M  V30 966 H 88.7139 -2.54534 1.54972 0
M  V30 967 H 86.2509 -1.25028 0.775006 0
M  V30 968 H 88.2089 -4.15862 -0.33383 0
M  V30 969 H 86.8389 -3.12353 -0.814568 0
M  V30 970 H 85.8909 -3.45945 1.58196 0
M  V30 971 H 87.2029 -4.62306 1.87282 0
M  V30 972 H 86.3569 -6.06699 0.0115125 0
M  V30 973 H 85.0959 -4.86251 -0.375656 0
M  V30 974 H 84.1009 -5.15538 1.91052 0
M  V30 975 H 85.3259 -6.39337 2.28965 0
M  V30 976 H 83.2719 -6.5598 0.0518075 0
M  V30 977 H 83.1889 -7.39565 1.5678 0
M  V30 978 H 84.4569 -7.78239 0.443277 0
M  V30 979 N 88.686 -0.835752 -1.33615 0
M  V30 980 C 89.932 -0.430596 -1.98176 0
M  V30 981 C 90.265 1.00684 -1.66061 0
M  V30 982 O 89.54 1.70339 -0.938877 0
M  V30 983 C 89.823 -0.648065 -3.5422 0
M  V30 984 C 89.676 -2.13255 -3.96033 0
M  V30 985 C 90.995 -0.0922113 -4.40003 0
M  V30 986 H 88.114 -0.157924 -0.719881 0
M  V30 987 H 90.756 -1.05069 -1.58305 0
M  V30 988 H 88.906 -0.120237 -3.88314 0
M  V30 989 H 90.578 -2.725 -3.72211 0
M  V30 990 H 88.821 -2.61823 -3.45878 0
M  V30 991 H 89.492 -2.23547 -5.04708 0
M  V30 992 H 91.968 -0.543343 -4.12537 0
M  V30 993 H 90.844 -0.274083 -5.48215 0
M  V30 994 H 91.105 1.00378 -4.30554 0
M  V30 995 N 90.1641 1.46063 -0.591896 0
M  V30 996 C 91.4111 2.02338 -0.0809991 0
M  V30 997 C 91.7391 1.46228 1.28249 0
M  V30 998 O 90.9941 0.620818 1.85592 0
M  V30 999 C 91.2931 3.57391 0.0249813 0
M  V30 1000 C 90.9591 4.32583 -1.27211 0
M  V30 1001 C 89.6211 4.52844 -1.62745 0
M  V30 1002 C 91.9731 4.75687 -2.13005 0
M  V30 1003 C 89.3011 5.13462 -2.83855 0
M  V30 1004 C 91.6531 5.37644 -3.3335 0
M  V30 1005 C 90.3171 5.5613 -3.69155 0
M  V30 1006 H 89.5871 0.740407 -0.0296397 0
M  V30 1007 H 92.2341 1.75321 -0.770374 0
M  V30 1008 H 90.5391 3.83597 0.797537 0
M  V30 1009 H 92.2361 3.98621 0.436184 0
M  V30 1010 H 88.8261 4.17116 -0.985499 0
M  V30 1011 H 93.0101 4.59782 -1.86855 0
M  V30 1012 H 88.2661 5.25965 -3.11722 0
M  V30 1013 H 92.4401 5.7 -4.00092 0
M  V30 1014 H 90.0671 6.0287 -4.63089 0
M  V30 1015 N 91.6422 0.330177 1.54103 0
M  V30 1016 C 92.8672 -0.274893 2.0557 0
M  V30 1017 C 93.2922 -1.44487 1.20437 0
M  V30 1018 O 92.6502 -1.80021 0.214991 0
M  V30 1019 C 92.6982 -0.68079 3.54115 0
M  V30 1020 O 91.8022 -1.7824 3.71893 0
M  V30 1021 H 91.1432 -0.0483849 0.662235 0
M  V30 1022 H 93.6732 0.480508 1.98878 0
M  V30 1023 H 93.6832 -0.961635 3.96505 0
M  V30 1024 H 92.3582 0.174903 4.15532 0
M  V30 1025 H 90.9352 -1.49985 3.41407 0
M  V30 1026 N 93.1203 -1.57491 0.0584922 0
M  V30 1027 C 94.0833 -2.1085 -0.898617 0
M  V30 1028 C 95.0833 -1.02964 -1.23511 0
M  V30 1029 O 96.2733 -1.29007 -1.17059 0
M  V30 1030 C 93.4053 -2.59881 -2.20623 0
M  V30 1031 H 94.5983 -2.96715 -0.435936 0
M  V30 1032 H 92.1513 -1.55141 -0.190023 0
M  V30 1033 H 92.8863 -1.77431 -2.71457 0
M  V30 1034 H 92.6713 -3.38727 -1.97501 0
M  V30 1035 H 94.1613 -3.01285 -2.89166 0
M  V30 1036 N 94.5984 0.214957 -1.56127 0
M  V30 1037 C 95.8464 0.936518 -1.79091 0
M  V30 1038 C 96.1674 1.84606 -0.628148 0
M  V30 1039 O 95.4374 1.92664 0.35462 0
M  V30 1040 H 94.0174 0.3488 -0.660566 0
M  V30 1041 H 96.6794 0.22523 -1.93594 0
M  V30 1042 H 95.7754 1.53943 -2.71492 0
M  V30 1043 N 96.0765 1.50051 0.48192 0
M  V30 1044 C 97.0265 1.64512 1.5786 0
M  V30 1045 C 98.0105 0.500073 1.52932 0
M  V30 1046 O 99.2025 0.753964 1.60139 0
M  V30 1047 C 96.3315 1.73263 2.9637 0
M  V30 1048 C 95.4175 2.93409 3.06222 0
M  V30 1049 N 95.8085 4.17236 2.85915 0
M  V30 1050 C 94.1065 2.91742 3.37346 0
M  V30 1051 C 94.8075 4.981 3.00451 0
M  V30 1052 N 93.7835 4.3184 3.30174 0
M  V30 1053 H 97.5855 2.57955 1.40842 0
M  V30 1054 H 95.0995 1.47086 0.688439 0
M  V30 1055 H 97.0965 1.81724 3.75209 0
M  V30 1056 H 95.7565 0.809711 3.14442 0
M  V30 1057 H 96.7675 4.46909 2.6171 0
M  V30 1058 H 93.4445 2.08907 3.61475 0
M  V30 1059 H 94.8345 6.06532 2.89082 0
M  V30 1060 N 97.5546 -0.734337 1.39446 0
M  V30 1061 C 98.8316 -1.48579 1.27215 0
M  V30 1062 C 99.2116 -2.1077 -0.117968 0
M  V30 1063 O 98.5596 -1.98646 -1.12924 0
M  V30 1064 C 98.7696 -2.53667 2.39696 0
M  V30 1065 C 100.118 -3.20031 2.79044 0
M  V30 1066 O 101.142 -2.6398 2.39151 0
M  V30 1067 O 100.001 -4.21455 3.47905 0
M  V30 1068 H 97.0946 -0.659816 0.49857 0
M  V30 1069 H 99.6406 -0.768106 1.51322 0
M  V30 1070 H 98.4126 -2.06096 3.32626 0
M  V30 1071 H 98.0356 -3.32994 2.17258 0
M  V30 1072 N 99.0327 -1.24633 -0.964593 0
M  V30 1073 C 100.282 -1.08188 -1.7023 0
M  V30 1074 C 100.595 0.37873 -1.91898 0
M  V30 1075 O 101.801 0.663427 -2.6327 0
M  V30 1076 C 100.257 -1.88773 -3.06419 0
M  V30 1077 C 99.8647 -3.39263 -2.92582 0
M  V30 1078 C 101.609 -1.80867 -3.84041 0
M  V30 1079 C 99.5157 -4.1218 -4.24101 0
M  V30 1080 H 98.4457 -0.401245 -0.638372 0
M  V30 1081 H 101.097 -1.48742 -1.07462 0
M  V30 1082 H 99.4787 -1.41035 -3.70034 0
M  V30 1083 H 100.653 -3.94603 -2.37961 0
M  V30 1084 H 98.9677 -3.48154 -2.28424 0
M  V30 1085 H 101.565 -2.32646 -4.81435 0
M  V30 1086 H 101.908 -0.774543 -4.09031 0
M  V30 1087 H 102.441 -2.26301 -3.27159 0
M  V30 1088 H 99.1797 -5.15965 -4.04303 0
M  V30 1089 H 98.6997 -3.61626 -4.78526 0
M  V30 1090 H 100.379 -4.19349 -4.92702 0
M  V30 1091 N 100.511 1.16574 -1.06058 0
M  V30 1092 C 101.461 2.18854 -0.63929 0
M  V30 1093 C 102.445 1.57505 0.328798 0
M  V30 1094 O 103.637 1.76408 0.144623 0
M  V30 1095 C 100.766 3.43291 -0.0247203 0
M  V30 1096 C 99.8518 4.11722 -1.01716 0
M  V30 1097 N 100.243 4.55841 -2.19186 0
M  V30 1098 C 98.5408 4.37872 -0.847569 0
M  V30 1099 C 99.2418 5.08751 -2.82042 0
M  V30 1100 N 98.2178 5.01489 -2.09784 0
M  V30 1101 H 102.02 2.5068 -1.53417 0
M  V30 1102 H 99.5338 1.32999 -0.931935 0
M  V30 1103 H 101.531 4.15856 0.294915 0
M  V30 1104 H 100.191 3.12954 0.865448 0
M  V30 1105 H 101.202 4.49649 -2.56975 0
M  V30 1106 H 97.8788 4.17499 -0.00918848 0
M  V30 1107 H 99.2688 5.52944 -3.81709 0
M  V30 1108 N 101.989 0.842826 1.3317 0
M  V30 1109 C 102.899 0.281444 2.32906 0
M  V30 1110 C 103.915 -0.594587 1.63526 0
M  V30 1111 O 105.091 -0.49777 1.95152 0
M  V30 1112 C 102.156 -0.530929 3.42611 0
M  V30 1113 C 101.217 0.369843 4.27704 0
M  V30 1114 C 100.45 -0.403853 5.3217 0
M  V30 1115 O 100.673 -1.63513 5.46461 0
M  V30 1116 O 99.6069 0.224199 6.01482 0
M  V30 1117 H 103.433 1.10744 2.82789 0
M  V30 1118 H 101.018 0.60545 1.36582 0
M  V30 1119 H 102.9 -0.992437 4.09547 0
M  V30 1120 H 101.575 -1.33392 2.94938 0
M  V30 1121 H 100.482 0.879275 3.6362 0
M  V30 1122 H 101.815 1.13771 4.78871 0
M  V30 1123 N 103.467 -1.45747 0.599634 0
M  V30 1124 C 104.397 -2.33235 -0.111306 0
M  V30 1125 C 105.378 -1.46359 -0.866781 0
M  V30 1126 O 106.563 -1.75146 -0.838904 0
M  V30 1127 C 103.693 -3.28932 -1.11451 0
M  V30 1128 C 102.647 -4.25381 -0.472772 0
M  V30 1129 C 101.973 -5.1071 -1.58365 0
M  V30 1130 C 103.273 -5.18831 0.600948 0
M  V30 1131 H 104.967 -2.92927 0.61919 0
M  V30 1132 H 102.513 -1.40857 0.299215 0
M  V30 1133 H 104.466 -3.89002 -1.62036 0
M  V30 1134 H 103.19 -2.67381 -1.8755 0
M  V30 1135 H 101.849 -3.66598 0.0121472 0
M  V30 1136 H 101.497 -4.45533 -2.33473 0
M  V30 1137 H 101.197 -5.7604 -1.15982 0
M  V30 1138 H 102.721 -5.73647 -2.09194 0
M  V30 1139 H 104.135 -5.73019 0.179491 0
M  V30 1140 H 102.532 -5.92595 0.946076 0
M  V30 1141 H 103.602 -4.6174 1.48068 0
M  V30 1142 N 104.945 -0.338344 -1.53925 0
M  V30 1143 C 106.356 0.146651 -1.86123 0
M  V30 1144 C 106.707 1.5042 -1.2597 0
M  V30 1145 O 105.832 2.08723 -0.571294 0
M  V30 1146 C 106.427 0.272879 -3.37699 0
M  V30 1147 C 104.986 0.702103 -3.69794 0
M  V30 1148 C 104.133 -0.167304 -2.76795 0
M  V30 1149 H 107.084 -0.558123 -1.48562 0
M  V30 1150 H 107.105 1.10128 -3.64214 0
M  V30 1151 H 106.617 -0.715307 -3.81451 0
M  V30 1152 H 104.718 1.6995 -3.31584 0
M  V30 1153 H 104.831 0.495604 -4.7653 0
M  V30 1154 H 103.195 0.359527 -2.5215 0
M  V30 1155 H 103.978 -1.15253 -3.23375 0
M  V30 1156 N 106.423 1.57458 -0.0668435 0
M  V30 1157 C 107.648 1.9804 0.616027 0
M  V30 1158 C 108.073 0.944771 1.62652 0
M  V30 1159 O 107.431 -0.0902094 1.81075 0
M  V30 1160 C 107.479 3.37665 1.26549 0
M  V30 1161 O 106.583 3.36701 2.38131 0
M  V30 1162 H 105.924 0.644719 0.158849 0
M  V30 1163 H 108.454 2.04121 -0.139891 0
M  V30 1164 H 108.464 3.7474 1.6135 0
M  V30 1165 H 107.139 4.12573 0.525016 0
M  V30 1166 H 105.716 3.1139 2.0516 0
M  V30 1167 N 107.901 -0.206675 1.56239 0
M  V30 1168 C 109.149 -0.927007 1.79586 0
M  V30 1169 C 109.47 -1.8427 0.637929 0
M  V30 1170 O 108.74 -1.92849 -0.344398 0
M  V30 1171 H 107.32 -0.345292 0.662407 0
M  V30 1172 H 109.982 -0.21496 1.93711 0
M  V30 1173 H 109.078 -1.52501 2.72305 0
M  V30 1174 N 109.379 -1.50304 -0.473955 0
M  V30 1175 C 110.627 -1.60832 -1.22382 0
M  V30 1176 C 110.948 -0.30939 -1.9253 0
M  V30 1177 O 110.218 0.67296 -1.83978 0
M  V30 1178 H 108.798 -0.592652 -0.454723 0
M  V30 1179 H 111.46 -1.87068 -0.546968 0
M  V30 1180 H 110.556 -2.41803 -1.97327 0
M  V30 1181 N 110.857 0.726932 -1.39834 0
M  V30 1182 C 112.273 1.03354 -1.21615 0
M  V30 1183 C 112.473 2.01327 -0.08338 0
M  V30 1184 O 111.529 2.46158 0.56238 0
M  V30 1185 C 112.842 1.58811 -2.55342 0
M  V30 1186 C 114.39 1.70851 -2.62257 0
M  V30 1187 C 114.865 2.29716 -3.96225 0
M  V30 1188 N 116.356 2.37116 -3.97907 0
M  V30 1189 C 117.091 2.83619 -4.98345 0
M  V30 1190 N 116.587 3.29958 -6.09179 0
M  V30 1191 N 118.38 2.82901 -4.8572 0
M  V30 1192 H 110.531 0.0773069 -2.12259 0
M  V30 1193 H 112.794 0.0969102 -0.943034 0
M  V30 1194 H 112.5 0.942855 -3.38826 0
M  V30 1195 H 112.374 2.57502 -2.75632 0
M  V30 1196 H 114.761 2.34497 -1.79152 0
M  V30 1197 H 114.842 0.707913 -2.45809 0
M  V30 1198 H 114.486 1.66696 -4.79765 0
M  V30 1199 H 114.416 3.30469 -4.09997 0
M  V30 1200 H 116.907 2.04374 -3.17868 0
M  V30 1201 H 117.22 3.63976 -6.8172 0
M  V30 1202 H 115.565 3.27946 -6.12761 0
M  V30 1203 H 118.756 2.46027 -3.98231 0
M  V30 1204 H 118.929 3.18827 -5.6414 0
M  V30 1205 N 112.336 1.25143 0.95797 0
M  V30 1206 C 113.613 1.00472 1.67823 0
M  V30 1207 C 113.993 -0.470056 2.058 0
M  V30 1208 O 113.341 -1.44663 1.76875 0
M  V30 1209 C 113.551 1.9372 2.90299 0
M  V30 1210 C 114.899 2.21371 3.62326 0
M  V30 1211 O 115.923 1.91451 3.00375 0
M  V30 1212 O 114.782 2.72231 4.7387 0
M  V30 1213 H 111.876 0.380752 0.734137 0
M  V30 1214 H 114.422 1.36283 1.01119 0
M  V30 1215 H 113.194 2.93316 2.59001 0
M  V30 1216 H 112.817 1.58286 3.64735 0
M  V30 1217 N 113.814 -1.1601 1.06675 0
M  V30 1218 C 115.225 -1.68235 0.809565 0
M  V30 1219 C 115.576 -1.8454 -0.666303 0
M  V30 1220 O 114.701 -1.54374 -1.5165 0
M  V30 1221 C 115.296 -3.05585 1.46299 0
M  V30 1222 C 113.855 -3.54915 1.25349 0
M  V30 1223 C 113.002 -2.30804 1.53703 0
M  V30 1224 H 115.953 -1.00318 1.22971 0
M  V30 1225 H 115.974 -3.70174 0.880431 0
M  V30 1226 H 115.486 -2.93686 2.53713 0
M  V30 1227 H 113.587 -3.72067 0.199261 0
M  V30 1228 H 113.7 -4.36774 1.9689 0
M  V30 1229 H 112.064 -2.36007 0.957739 0
M  V30 1230 H 112.847 -2.21499 2.62284 0
M  V30 1231 N 115.292 -0.849877 -1.32721 0
M  V30 1232 C 116.222 -0.306308 -2.31482 0
M  V30 1233 C 117.203 0.591952 -1.59468 0
M  V30 1234 O 118.388 0.513199 -1.87296 0
M  V30 1235 C 115.518 0.510204 -3.43532 0
M  V30 1236 C 114.472 -0.293209 -4.26994 0
M  V30 1237 C 113.798 0.647743 -5.30762 0
M  V30 1238 C 115.098 -1.51634 -4.99804 0
M  V30 1239 H 116.792 -1.13153 -2.77195 0
M  V30 1240 H 114.338 -0.545553 -1.33266 0
M  V30 1241 H 116.291 0.900856 -4.11658 0
M  V30 1242 H 115.015 1.36874 -2.96535 0
M  V30 1243 H 113.674 -0.665555 -3.60508 0
M  V30 1244 H 113.322 1.50299 -4.8002 0
M  V30 1245 H 113.022 0.11422 -5.87489 0
M  V30 1246 H 114.546 1.03567 -6.01753 0
M  V30 1247 H 115.96 -1.19824 -5.60638 0
M  V30 1248 H 114.357 -1.98745 -5.66234 0
M  V30 1249 H 115.427 -2.28018 -4.27943 0
M  V30 1250 N 116.77 1.45427 -0.607355 0
M  V30 1251 C 117.995 2.07124 -0.107006 0
M  V30 1252 C 118.42 1.44906 1.19933 0
M  V30 1253 O 117.778 0.541687 1.73019 0
M  V30 1254 C 117.826 3.60595 0.0194119 0
M  V30 1255 O 116.93 3.98285 1.0697 0
M  V30 1256 H 116.271 0.659868 -0.0739597 0
M  V30 1257 H 118.801 1.86683 -0.837297 0
M  V30 1258 H 118.811 4.07419 0.2177 0
M  V30 1259 H 117.486 4.05266 -0.934453 0
M  V30 1260 H 116.063 3.63133 0.847889 0
M  V30 1261 N 118.248 0.346503 1.53744 0
M  V30 1262 C 119.478 -0.250047 2.05081 0
M  V30 1263 C 119.886 -1.44529 1.22098 0
M  V30 1264 O 119.229 -1.81992 0.249917 0
M  V30 1265 C 119.291 -0.725934 3.52094 0
M  V30 1266 C 118.955 0.350053 4.55657 0
M  V30 1267 C 119.952 1.19372 5.0601 0
M  V30 1268 C 117.637 0.504827 4.99757 0
M  V30 1269 C 119.631 2.17768 5.99046 0
M  V30 1270 C 117.318 1.49218 5.92602 0
M  V30 1271 C 118.316 2.32706 6.42135 0
M  V30 1272 O 118.004 3.2976 7.33153 0
M  V30 1273 H 117.736 -0.0515469 0.674032 0
M  V30 1274 H 120.29 0.497559 1.99282 0
M  V30 1275 H 118.52 -1.52483 3.55367 0
M  V30 1276 H 120.209 -1.24336 3.86388 0
M  V30 1277 H 120.975 1.08525 4.72702 0
M  V30 1278 H 116.854 -0.135178 4.60802 0
M  V30 1279 H 120.398 2.82971 6.37631 0
M  V30 1280 H 116.295 1.6012 6.25325 0
M  V30 1281 H 117.063 3.25265 7.51096 0
M  V30 1282 N 119.726 -1.57421 0.075193 0
M  V30 1283 C 121.003 -1.85029 -0.634329 0
M  V30 1284 C 121.383 -0.968305 -1.87582 0
M  V30 1285 O 120.731 -0.0354749 -2.28472 0
M  V30 1286 C 120.941 -3.35286 -0.968742 0
M  V30 1287 C 122.289 -4.02875 -1.34077 0
M  V30 1288 O 123.313 -3.40051 -1.06037 0
M  V30 1289 O 122.172 -5.13691 -1.86506 0
M  V30 1290 H 119.266 -0.7645 -0.315387 0
M  V30 1291 H 121.812 -1.69366 0.106382 0
M  V30 1292 H 120.584 -3.91203 -0.0871376 0
M  V30 1293 H 120.207 -3.56223 -1.7661 0
M  V30 1294 N 121.204 0.198386 -1.56346 0
M  V30 1295 C 122.481 0.944982 -1.71258 0
M  V30 1296 C 122.861 2.0151 -0.629048 0
M  V30 1297 O 122.209 2.25639 0.360473 0
M  V30 1298 C 122.419 1.5344 -3.1346 0
M  V30 1299 C 123.767 2.01778 -3.73591 0
M  V30 1300 O 124.791 1.63288 -3.16568 0
M  V30 1301 O 123.65 2.72594 -4.73661 0
M  V30 1302 H 120.744 0.442939 -0.69838 0
M  V30 1303 H 123.29 0.188342 -1.68652 0
M  V30 1304 H 122.062 0.762869 -3.83792 0
M  V30 1305 H 121.685 2.35596 -3.20282 0
M  V30 1306 N 122.682 1.50554 0.465978 0
M  V30 1307 C 124.093 1.54599 1.04671 0
M  V30 1308 C 124.444 0.352488 1.93008 0
M  V30 1309 O 123.569 -0.534044 2.09707 0
M  V30 1310 C 124.164 2.80166 1.90505 0
M  V30 1311 C 122.723 2.86876 2.43678 0
M  V30 1312 C 121.87 2.48947 1.22151 0
M  V30 1313 H 124.821 1.56744 0.248384 0
M  V30 1314 H 124.842 2.62311 2.75633 0
M  V30 1315 H 124.354 3.67013 1.26186 0
M  V30 1316 H 122.455 2.04393 3.11536 0
M  V30 1317 H 122.568 3.89885 2.78436 0
M  V30 1318 H 120.932 2.01498 1.5579 0
M  V30 1319 H 121.715 3.38107 0.594866 0
M  V30 1320 N 124.16 -0.719506 1.40217 0
M  V30 1321 C 125.09 -1.8465 1.42922 0
M  V30 1322 C 126.071 -1.67599 0.29062 0
M  V30 1323 O 127.256 -1.87688 0.498677 0
M  V30 1324 C 124.386 -3.22565 1.28722 0
M  V30 1325 C 123.34 -3.54281 2.40144 0
M  V30 1326 C 122.666 -4.91298 2.11023 0
M  V30 1327 C 123.966 -3.55676 3.82481 0
M  V30 1328 H 125.66 -1.82644 2.37237 0
M  V30 1329 H 123.206 -0.877305 1.1419 0
M  V30 1330 H 125.159 -4.01095 1.29232 0
M  V30 1331 H 123.883 -3.25137 0.308811 0
M  V30 1332 H 122.542 -2.78088 2.38877 0
M  V30 1333 H 122.19 -4.90468 1.11582 0
M  V30 1334 H 121.89 -5.13485 2.8567 0
M  V30 1335 H 123.414 -5.72166 2.13209 0
M  V30 1336 H 124.828 -4.24254 3.85592 0
M  V30 1337 H 123.225 -3.89388 4.56614 0
M  V30 1338 H 124.295 -2.55144 4.12346 0
M  V30 1339 N 125.638 -1.25649 -0.95132 0
M  V30 1340 C 127.054 -1.02542 -1.223 0
M  V30 1341 C 127.254 0.255715 -1.99871 0
M  V30 1342 O 126.31 0.967558 -2.33226 0
M  V30 1343 C 127.623 -2.25065 -1.99415 0
M  V30 1344 C 129.171 -2.29861 -2.12446 0
M  V30 1345 C 129.646 -3.52048 -2.92961 0
M  V30 1346 N 131.137 -3.52465 -3.00538 0
M  V30 1347 C 131.872 -4.43672 -3.63239 0
M  V30 1348 N 131.368 -5.45157 -4.27523 0
M  V30 1349 N 133.161 -4.31346 -3.60412 0
M  V30 1350 H 125.312 -2.07951 -0.432471 0
M  V30 1351 H 127.575 -0.91339 -0.253816 0
M  V30 1352 H 127.281 -3.18194 -1.49817 0
M  V30 1353 H 127.155 -2.28502 -3.00111 0
M  V30 1354 H 129.542 -1.37252 -2.61239 0
M  V30 1355 H 129.623 -2.3044 -1.11044 0
M  V30 1356 H 129.267 -4.44981 -2.44856 0
M  V30 1357 H 129.197 -3.48715 -3.94596 0
M  V30 1358 H 131.688 -2.79056 -2.54826 0
M  V30 1359 H 132.001 -6.10958 -4.73234 0
M  V30 1360 H 130.346 -5.49025 -4.26141 0
M  V30 1361 H 133.537 -3.51288 -3.09377 0
M  V30 1362 H 133.71 -5.02624 -4.0899 0
M  V30 1363 N 127.117 1.15442 -1.07289 0
M  V30 1364 C 128.049 2.19773 -0.650585 0
M  V30 1365 C 129.062 1.60076 0.296572 0
M  V30 1366 O 130.251 1.78293 0.0859905 0
M  V30 1367 C 127.351 3.38838 0.0650398 0
M  V30 1368 C 126.524 4.2808 -0.898141 0
M  V30 1369 C 125.583 5.2574 -0.219926 0
M  V30 1370 O 124.609 5.62654 -0.860773 0
M  V30 1371 N 125.811 5.71205 1.03466 0
M  V30 1372 H 128.576 2.56622 -1.54808 0
M  V30 1373 H 126.137 1.30551 -0.957494 0
M  V30 1374 H 128.129 4.01222 0.529415 0
M  V30 1375 H 126.699 3.00409 0.864466 0
M  V30 1376 H 125.919 3.62804 -1.54165 0
M  V30 1377 H 127.207 4.84577 -1.5512 0
M  V30 1378 H 126.605 5.43325 1.57526 0
M  V30 1379 H 125.162 6.35633 1.44272 0
M  V30 1380 N 128.595 0.856903 1.32268 0
M  V30 1381 C 129.844 0.457599 1.96441 0
M  V30 1382 C 130.157 -0.992426 1.68553 0
M  V30 1383 O 131.363 -1.49727 2.26482 0
M  V30 1384 C 129.819 0.767358 3.51624 0
M  V30 1385 C 129.427 2.23326 3.88367 0
M  V30 1386 C 131.171 0.435887 4.22256 0
M  V30 1387 C 129.078 2.48613 5.36606 0
M  V30 1388 H 128.008 0.167387 0.735185 0
M  V30 1389 H 130.659 1.048 1.5063 0
M  V30 1390 H 129.041 0.106367 3.95857 0
M  V30 1391 H 130.215 2.93623 3.55137 0
M  V30 1392 H 128.53 2.52948 3.30766 0
M  V30 1393 H 131.127 0.602202 5.31298 0
M  V30 1394 H 131.47 -0.622672 4.11617 0
M  V30 1395 H 132.003 1.05286 3.83614 0
M  V30 1396 H 128.742 3.53101 5.52268 0
M  V30 1397 H 128.262 1.82896 5.71235 0
M  V30 1398 H 129.941 2.32676 6.03714 0
M  V30 1399 N 130.073 -1.45103 0.615059 0
M  V30 1400 C 131.301 -2.06553 0.11977 0
M  V30 1401 C 131.716 -1.45842 -1.19898 0
M  V30 1402 O 131.073 -0.575325 -1.73194 0
M  V30 1403 C 131.124 -3.61495 -0.018364 0
M  V30 1404 O 130.845 -4.19942 1.24822 0
M  V30 1405 C 132.346 -4.39947 -0.544237 0
M  V30 1406 H 129.566 -0.667096 0.0722739 0
M  V30 1407 H 132.11 -1.8623 0.84491 0
M  V30 1408 H 130.265 -3.81135 -0.693865 0
M  V30 1409 H 130.679 -5.13204 1.0827 0
M  V30 1410 H 132.153 -5.48838 -0.589953 0
M  V30 1411 H 132.63 -4.10255 -1.56805 0
M  V30 1412 H 133.236 -4.25188 0.0974703 0
M  V30 1413 N 131.551 -0.354651 -1.53558 0
M  V30 1414 C 132.967 -0.00315426 -1.596 0
M  V30 1415 C 133.167 1.47741 -1.37021 0
M  V30 1416 O 132.223 2.23759 -1.16996 0
M  V30 1417 C 133.536 -0.44929 -2.97325 0
M  V30 1418 C 135.084 -0.402578 -3.104 0
M  V30 1419 C 135.559 -0.824355 -4.5052 0
M  V30 1420 N 137.05 -0.778979 -4.56603 0
M  V30 1421 C 137.785 -1.07715 -5.63192 0
M  V30 1422 N 137.281 -1.44405 -6.77583 0
M  V30 1423 N 139.074 -1.00066 -5.53121 0
M  V30 1424 H 131.225 -1.31893 -1.66487 0
M  V30 1425 H 133.488 -0.538388 -0.780284 0
M  V30 1426 H 133.194 -1.48202 -3.1895 0
M  V30 1427 H 133.068 0.169772 -3.76818 0
M  V30 1428 H 135.455 0.621004 -2.88492 0
M  V30 1429 H 135.536 -1.05699 -2.32941 0
M  V30 1430 H 135.18 -1.846 -4.73165 0
M  V30 1431 H 135.11 -0.147304 -5.26394 0
M  V30 1432 H 137.601 -0.508528 -3.74463 0
M  V30 1433 H 137.914 -1.65612 -7.54846 0
M  V30 1434 H 136.259 -1.4826 -6.79002 0
M  V30 1435 H 139.45 -0.713293 -4.62633 0
M  V30 1436 H 139.623 -1.23638 -6.36096 0
M  V30 1437 N 133.029 1.57378 -0.0835403 0
M  V30 1438 C 133.962 2.09016 0.915833 0
M  V30 1439 C 134.94 0.997993 1.2837 0
M  V30 1440 O 136.124 1.27219 1.39096 0
M  V30 1441 C 133.251 2.55757 2.22049 0
M  V30 1442 C 132.297 3.76522 2.00333 0
M  V30 1443 S 133.13 5.20661 1.25191 0
M  V30 1444 C 134.286 5.70743 2.56912 0
M  V30 1445 H 134.519 2.93457 0.476492 0
M  V30 1446 H 132.052 1.53856 0.129493 0
M  V30 1447 H 134.01 2.83346 2.97027 0
M  V30 1448 H 132.671 1.71564 2.63106 0
M  V30 1449 H 131.864 4.07256 2.96916 0
M  V30 1450 H 131.466 3.49367 1.33488 0
M  V30 1451 H 133.758 5.78304 3.52946 0
M  V30 1452 H 134.701 6.6944 2.30772 0
M  V30 1453 H 135.109 4.98616 2.64655 0
M  V30 1454 N 134.507 -0.190092 1.56449 0
M  V30 1455 C 135.756 -0.907912 1.80111 0
M  V30 1456 C 136.069 -1.84214 0.657619 0
M  V30 1457 O 137.275 -2.60094 0.778663 0
M  V30 1458 C 135.731 -1.66485 3.19078 0
M  V30 1459 C 135.339 -0.7752 4.41242 0
M  V30 1460 C 137.083 -2.37201 3.52045 0
M  V30 1461 C 134.99 -1.53129 5.71231 0
M  V30 1462 H 133.92 -0.34276 0.671589 0
M  V30 1463 H 136.571 -0.161109 1.82791 0
M  V30 1464 H 134.953 -2.45572 3.10661 0
M  V30 1465 H 136.127 -0.0226298 4.60794 0
M  V30 1466 H 134.442 -0.178627 4.16017 0
M  V30 1467 H 137.039 -2.94329 4.46402 0
M  V30 1468 H 137.382 -3.11632 2.76028 0
M  V30 1469 H 137.915 -1.65075 3.61932 0
M  V30 1470 H 134.654 -0.82967 6.50228 0
M  V30 1471 H 134.174 -2.25767 5.55688 0
M  V30 1472 H 135.853 -2.08377 6.12526 0
M  V30 1473 N 135.985 -1.50799 -0.457987 0
M  V30 1474 C 136.917 -1.66786 -1.57211 0
M  V30 1475 C 137.93 -0.548962 -1.53265 0
M  V30 1476 O 139.119 -0.8226 -1.58416 0
M  V30 1477 C 136.219 -1.64834 -2.96113 0
M  V30 1478 C 135.392 -2.92971 -3.24787 0
M  V30 1479 C 134.451 -2.83485 -4.43309 0
M  V30 1480 O 133.477 -3.5744 -4.42973 0
M  V30 1481 N 134.679 -1.97929 -5.45714 0
M  V30 1482 H 137.444 -2.62889 -1.43909 0
M  V30 1483 H 135.005 -1.48427 -0.646617 0
M  V30 1484 H 136.997 -1.56084 -3.7339 0
M  V30 1485 H 135.567 -0.764118 -3.03117 0
M  V30 1486 H 134.787 -3.15749 -2.36 0
M  V30 1487 H 136.075 -3.77834 -3.40762 0
M  V30 1488 H 135.473 -1.37182 -5.48815 0
M  V30 1489 H 134.03 -1.95073 -6.21924 0
M  V30 1490 N 137.463 0.71206 -1.40597 0
M  V30 1491 C 138.41 1.82613 -1.41142 0
M  V30 1492 C 139.38 1.63925 -0.267903 0
M  V30 1493 O 140.565 1.85009 -0.466495 0
M  V30 1494 C 137.705 3.20354 -1.28324 0
M  V30 1495 C 136.818 3.50589 -2.52411 0
M  V30 1496 C 135.953 4.77855 -2.32009 0
M  V30 1497 C 134.992 5.01005 -3.51654 0
M  V30 1498 N 134.129 6.19487 -3.30425 0
M  V30 1499 H 138.969 1.81482 -2.36365 0
M  V30 1500 H 136.506 0.886475 -1.17388 0
M  V30 1501 H 138.464 3.99899 -1.18899 0
M  V30 1502 H 137.094 3.20705 -0.367189 0
M  V30 1503 H 136.146 2.65573 -2.72351 0
M  V30 1504 H 137.458 3.63604 -3.41458 0
M  V30 1505 H 136.612 5.65424 -2.19956 0
M  V30 1506 H 135.351 4.67056 -1.40392 0
M  V30 1507 H 134.356 4.1189 -3.64179 0
M  V30 1508 H 135.581 5.13674 -4.44202 0
M  V30 1509 H 133.527 6.09932 -2.41494 0
M  V30 1510 H 133.444 6.33194 -4.13039 0
M  V30 1511 H 134.712 7.09834 -3.22113 0
M  V30 1512 N 138.941 1.26152 0.944643 0
M  V30 1513 C 140.188 1.11492 1.69044 0
M  V30 1514 C 140.516 -0.342366 1.91463 0
M  V30 1515 O 139.771 -1.26812 1.49054 0
M  V30 1516 C 140.07 1.82541 3.07268 0
M  V30 1517 C 139.736 3.32445 3.04616 0
M  V30 1518 C 138.398 3.73337 3.036 0
M  V30 1519 C 140.75 4.28171 2.97185 0
M  V30 1520 C 138.078 5.08348 2.92915 0
M  V30 1521 C 140.43 5.63218 2.88041 0
M  V30 1522 C 139.094 6.03426 2.85366 0
M  V30 1523 H 138.364 0.407977 0.618576 0
M  V30 1524 H 141.011 1.56551 1.10291 0
M  V30 1525 H 139.316 1.29941 3.69625 0
M  V30 1526 H 141.013 1.68642 3.63815 0
M  V30 1527 H 137.603 2.99915 3.06185 0
M  V30 1528 H 141.787 3.97563 2.97081 0
M  V30 1529 H 137.043 5.38667 2.89219 0
M  V30 1530 H 141.217 6.37078 2.81254 0
M  V30 1531 H 138.844 7.07999 2.76842 0
M  V30 1532 N 140.419 -1.14872 1.07899 0
M  V30 1533 C 141.83 -1.67367 0.827363 0
M  V30 1534 C 142.181 -1.85236 -0.646693 0
M  V30 1535 O 141.306 -1.55974 -1.50004 0
M  V30 1536 C 141.901 -3.04016 1.49532 0
M  V30 1537 C 140.46 -3.53566 1.29106 0
M  V30 1538 C 139.607 -2.29161 1.56143 0
M  V30 1539 H 142.558 -0.990083 1.24028 0
M  V30 1540 H 142.579 -3.69219 0.919643 0
M  V30 1541 H 142.091 -2.90978 2.56814 0
M  V30 1542 H 140.192 -3.71835 0.238713 0
M  V30 1543 H 140.305 -4.34661 2.01511 0
M  V30 1544 H 138.669 -2.34978 0.982717 0
M  V30 1545 H 139.452 -2.18705 2.64619 0
M  V30 1546 N 141.898 -0.863906 -1.31812 0
M  V30 1547 C 142.845 -0.313303 -2.28664 0
M  V30 1548 C 143.815 0.584868 -1.55462 0
M  V30 1549 O 145 0.517805 -1.83639 0
M  V30 1550 C 142.14 0.48441 -3.41683 0
M  V30 1551 C 141.253 -0.440594 -4.29747 0
M  V30 1552 C 140.388 0.370652 -5.29905 0
M  V30 1553 C 139.427 -0.551164 -6.09613 0
M  V30 1554 N 138.564 0.223462 -7.01744 0
M  V30 1555 H 143.404 -1.14444 -2.75148 0
M  V30 1556 H 140.941 -0.575769 -1.35364 0
M  V30 1557 H 142.899 0.962627 -4.05943 0
M  V30 1558 H 141.529 1.28029 -2.96325 0
M  V30 1559 H 140.581 -1.03724 -3.65986 0
M  V30 1560 H 141.893 -1.14767 -4.85417 0
M  V30 1561 H 141.047 0.911638 -5.99812 0
M  V30 1562 H 139.786 1.11105 -4.74876 0
M  V30 1563 H 138.791 -1.10396 -5.38603 0
M  V30 1564 H 140.016 -1.29032 -6.66729 0
M  V30 1565 H 137.962 0.946787 -6.49132 0
M  V30 1566 H 137.879 -0.424399 -7.54808 0
M  V30 1567 H 139.147 0.745876 -7.75923 0
M  V30 1568 N 143.376 1.44774 -0.622745 0
M  V30 1569 C 144.787 1.85546 -0.207226 0
M  V30 1570 C 145.138 1.52093 1.23944 0
M  V30 1571 O 144.263 0.95492 1.94191 0
M  V30 1572 C 144.858 3.36781 -0.369313 0
M  V30 1573 C 143.417 3.76399 -0.00836847 0
M  V30 1574 C 142.564 2.68664 -0.686651 0
M  V30 1575 H 145.515 1.3536 -0.828454 0
M  V30 1576 H 145.536 3.78453 0.394162 0
M  V30 1577 H 145.048 3.61098 -1.42231 0
M  V30 1578 H 143.149 3.57698 1.04322 0
M  V30 1579 H 143.262 4.7732 -0.412584 0
M  V30 1580 H 141.626 2.54404 -0.122777 0
M  V30 1581 H 142.409 2.95815 -1.74208 0
M  V30 1582 N 144.854 0.36279 1.53368 0
M  V30 1583 C 146.103 -0.22888 2.00397 0
M  V30 1584 C 146.416 -1.50096 1.25421 0
M  V30 1585 O 147.622 -2.17106 1.63025 0
M  V30 1586 C 146.078 -0.458417 3.56969 0
M  V30 1587 C 145.686 0.798877 4.4082 0
M  V30 1588 C 147.43 -1.00789 4.12361 0
M  V30 1589 C 145.337 0.539078 5.88938 0
M  V30 1590 H 144.267 -0.089305 0.748693 0
M  V30 1591 H 146.918 0.481099 1.77081 0
M  V30 1592 H 145.3 -1.22959 3.76427 0
M  V30 1593 H 146.474 1.57262 4.33134 0
M  V30 1594 H 144.789 1.27137 3.96516 0
M  V30 1595 H 147.386 -1.21754 5.20653 0
M  V30 1596 H 147.729 -1.9692 3.66781 0
M  V30 1597 H 148.262 -0.296961 3.9669 0
M  V30 1598 H 145.001 1.47064 6.3879 0
M  V30 1599 H 144.521 -0.196222 5.99479 0
M  V30 1600 H 146.2 0.163542 6.46793 0
M  V30 1601 N 146.332 -1.57332 0.0918853 0
M  V30 1602 C 147.581 -1.93412 -0.572249 0
M  V30 1603 C 147.894 -0.975515 -1.69538 0
M  V30 1604 O 149.1 -1.22991 -2.42045 0
M  V30 1605 C 147.556 -3.43648 -1.0693 0
M  V30 1606 C 147.164 -4.47994 0.0239049 0
M  V30 1607 C 148.908 -3.88695 -1.70635 0
M  V30 1608 C 146.815 -5.89381 -0.488319 0
M  V30 1609 H 145.745 -0.721939 -0.217532 0
M  V30 1610 H 148.396 -1.82735 0.167369 0
M  V30 1611 H 146.778 -3.49466 -1.8625 0
M  V30 1612 H 147.952 -4.53815 0.799277 0
M  V30 1613 H 146.267 -4.12536 0.565946 0
M  V30 1614 H 148.864 -4.91725 -2.10025 0
M  V30 1615 H 149.207 -3.27166 -2.57426 0
M  V30 1616 H 149.74 -3.85564 -0.979023 0
M  V30 1617 H 146.479 -6.54602 0.342906 0
M  V30 1618 H 145.999 -5.87037 -1.23077 0
M  V30 1619 H 147.678 -6.39863 -0.958317 0
M  V30 1620 N 147.81 0.181792 -1.56548 0
M  V30 1621 C 149.035 0.920019 -1.85877 0
M  V30 1622 C 149.46 1.75494 -0.677021 0
M  V30 1623 O 148.818 1.77399 0.374056 0
M  V30 1624 C 148.866 1.78112 -3.13542 0
M  V30 1625 O 147.97 2.88152 -2.95029 0
M  V30 1626 H 147.311 0.258334 -0.611686 0
M  V30 1627 H 149.841 0.183092 -2.03779 0
M  V30 1628 H 149.851 2.18314 -3.44678 0
M  V30 1629 H 148.526 1.16777 -3.99169 0
M  V30 1630 H 147.103 2.51609 -2.75222 0
M  V30 1631 N 149.288 1.51039 0.449983 0
M  V30 1632 C 150.221 1.66105 1.56474 0
M  V30 1633 C 151.199 0.508776 1.54435 0
M  V30 1634 O 152.383 0.731005 1.73749 0
M  V30 1635 C 149.51 1.66304 2.9506 0
M  V30 1636 C 148.556 2.87346 3.15174 0
M  V30 1637 S 149.389 4.4835 2.92818 0
M  V30 1638 C 150.545 4.51274 4.33708 0
M  V30 1639 H 150.778 2.60397 1.43459 0
M  V30 1640 H 148.311 1.40565 0.638805 0
M  V30 1641 H 150.269 1.67103 3.74949 0
M  V30 1642 H 148.93 0.732108 3.05449 0
M  V30 1643 H 148.123 2.83849 4.16468 0
M  V30 1644 H 147.725 2.84223 2.43091 0
M  V30 1645 H 150.017 4.26136 5.26701 0
M  V30 1646 H 150.96 5.53017 4.42242 0
M  V30 1647 H 151.368 3.80738 4.16772 0
M  V30 1648 N 150.766 -0.704594 1.40972 0
M  V30 1649 C 152.012 -1.46675 1.40051 0
M  V30 1650 C 152.345 -1.94199 0.00641102 0
M  V30 1651 O 151.62 -1.68916 -0.964235 0
M  V30 1652 C 151.903 -2.68505 2.39952 0
M  V30 1653 C 151.756 -2.26805 3.88432 0
M  V30 1654 C 153.075 -3.70686 2.37233 0
M  V30 1655 H 150.194 -0.532015 0.510028 0
M  V30 1656 H 152.836 -0.803255 1.72185 0
M  V30 1657 H 150.986 -3.25114 2.1268 0
M  V30 1658 H 152.658 -1.75592 4.26574 0
M  V30 1659 H 150.901 -1.58685 4.03734 0
M  V30 1660 H 151.572 -3.14181 4.53866 0
M  V30 1661 H 154.048 -3.23731 2.61415 0
M  V30 1662 H 152.924 -4.53553 3.09162 0
M  V30 1663 H 153.185 -4.19754 1.38777 0
M  V30 1664 N 152.244 -1.26651 -0.937939 0
M  V30 1665 C 153.154 -1.10276 -2.07066 0
M  V30 1666 C 154.17 -0.0354197 -1.73964 0
M  V30 1667 O 155.346 -0.239816 -1.99967 0
M  V30 1668 C 152.411 -0.740887 -3.38691 0
M  V30 1669 C 151.472 -1.88799 -3.85556 0
M  V30 1670 C 150.705 -1.54329 -5.10899 0
M  V30 1671 O 150.928 -0.446494 -5.6865 0
M  V30 1672 O 149.862 -2.37911 -5.52885 0
M  V30 1673 H 153.688 -2.05309 -2.23789 0
M  V30 1674 H 151.273 -1.05743 -1.0554 0
M  V30 1675 H 153.155 -0.55195 -4.1777 0
M  V30 1676 H 151.83 0.180022 -3.23199 0
M  V30 1677 H 150.737 -2.13191 -3.07409 0
M  V30 1678 H 152.07 -2.78874 -4.05574 0
M  V30 1679 N 153.722 1.14298 -1.08507 0
M  V30 1680 C 154.97 1.84993 -0.813763 0
M  V30 1681 C 155.291 1.83405 0.662393 0
M  V30 1682 O 154.561 1.28319 1.48024 0
M  V30 1683 H 153.141 0.684966 -0.298045 0
M  V30 1684 H 155.803 1.385 -1.37126 0
M  V30 1685 H 154.899 2.89788 -1.15884 0
M  V30 1686 N 155.201 0.870884 1.31352 0
M  V30 1687 C 156.426 0.495957 2.01383 0
M  V30 1688 C 156.851 -0.904324 1.64935 0
M  V30 1689 O 156.209 -1.59687 0.858466 0
M  V30 1690 C 156.257 0.661433 3.54482 0
M  V30 1691 O 155.361 -0.298851 4.11316 0
M  V30 1692 H 154.702 0.197158 0.634054 0
M  V30 1693 H 157.232 1.17455 1.67527 0
M  V30 1694 H 157.242 0.555072 4.04207 0
M  V30 1695 H 155.917 1.68246 3.8035 0
M  V30 1696 H 154.494 -0.147368 3.72609 0
M  V30 1697 N 156.679 -1.44442 0.630414 0
M  V30 1698 C 157.925 -2.02351 0.134816 0
M  V30 1699 C 158.258 -1.4947 -1.23986 0
M  V30 1700 O 157.533 -0.678475 -1.82283 0
M  V30 1701 C 157.816 -3.59898 0.120707 0
M  V30 1702 C 157.669 -4.23063 1.52767 0
M  V30 1703 C 158.988 -4.36585 -0.555127 0
M  V30 1704 H 156.107 -0.73527 0.0504646 0
M  V30 1705 H 158.749 -1.72022 0.806751 0
M  V30 1706 H 156.899 -3.85868 -0.451477 0
M  V30 1707 H 158.571 -4.08202 2.14869 0
M  V30 1708 H 156.814 -3.80586 2.08175 0
M  V30 1709 H 157.485 -5.32071 1.46984 0
M  V30 1710 H 159.961 -4.16044 -0.0685429 0
M  V30 1711 H 158.837 -5.46294 -0.534185 0
M  V30 1712 H 159.098 -4.11138 -1.62535 0
M  V30 1713 N 158.157 -0.370918 -1.53173 0
M  V30 1714 C 159.403 0.209976 -2.02313 0
M  V30 1715 C 159.758 1.45987 -1.25322 0
M  V30 1716 O 159.051 1.8856 -0.339965 0
M  V30 1717 C 159.245 0.549696 -3.53147 0
M  V30 1718 C 159.074 -0.665721 -4.44745 0
M  V30 1719 C 157.844 -1.17942 -4.91343 0
M  V30 1720 C 160.042 -1.53255 -4.90935 0
M  V30 1721 N 158.024 -2.35431 -5.66962 0
M  V30 1722 C 159.395 -2.55403 -5.64951 0
M  V30 1723 C 161.45 -1.5548 -4.73002 0
M  V30 1724 C 160.153 -3.5964 -6.22938 0
M  V30 1725 C 162.179 -2.58613 -5.31858 0
M  V30 1726 C 161.541 -3.59485 -6.05764 0
M  V30 1727 H 157.64 0.0394095 -0.781006 0
M  V30 1728 H 160.224 -0.516666 -1.8772 0
M  V30 1729 H 158.395 1.24541 -3.67891 0
M  V30 1730 H 160.127 1.11614 -3.89004 0
M  V30 1731 H 156.882 -0.743228 -4.67732 0
M  V30 1732 H 157.306 -2.94827 -6.09431 0
M  V30 1733 H 161.948 -0.788457 -4.15383 0
M  V30 1734 H 159.666 -4.37153 -6.79649 0
M  V30 1735 H 163.252 -2.61195 -5.19873 0
M  V30 1736 H 162.132 -4.3798 -6.50495 0
M  V30 1737 N 159.635 1.57281 -0.100228 0
M  V30 1738 C 160.883 1.94153 0.561157 0
M  V30 1739 C 161.204 0.983157 1.68401 0
M  V30 1740 O 160.474 0.0361132 1.95867 0
M  V30 1741 H 159.054 0.716791 0.210283 0
M  V30 1742 H 161.716 1.94202 -0.164765 0
M  V30 1743 H 160.812 2.96709 0.968008 0
M  V30 1744 N 161.113 -0.173488 1.56642 0
M  V30 1745 C 162.361 -0.888706 1.81512 0
M  V30 1746 C 162.682 -1.82875 0.676872 0
M  V30 1747 O 161.952 -1.93536 -0.303414 0
M  V30 1748 H 160.532 -0.331164 0.669582 0
M  V30 1749 H 163.194 -0.173823 1.94123 0
M  V30 1750 H 162.29 -1.46691 2.75478 0
M  V30 1751 N 162.591 -1.51276 -0.441967 0
M  V30 1752 C 163.554 -1.7167 -1.51862 0
M  V30 1753 C 164.554 -0.586793 -1.49711 0
M  V30 1754 O 165.744 -0.854276 -1.51815 0
M  V30 1755 C 162.876 -1.76889 -2.91416 0
M  V30 1756 H 164.069 -2.67754 -1.35084 0
M  V30 1757 H 161.622 -1.41196 -0.670333 0
M  V30 1758 H 162.357 -0.826026 -3.13604 0
M  V30 1759 H 162.142 -2.59001 -2.94382 0
M  V30 1760 H 163.632 -1.94522 -3.69528 0
M  V30 1761 N 164.069 0.697108 -1.41344 0
M  V30 1762 C 165.316 1.45714 -1.40619 0
M  V30 1763 C 165.644 1.94494 -0.0147907 0
M  V30 1764 O 164.899 1.69794 0.973066 0
M  V30 1765 C 165.198 2.68553 -2.35826 0
M  V30 1766 C 164.864 2.38438 -3.82698 0
M  V30 1767 C 163.526 2.29936 -4.22709 0
M  V30 1768 C 165.878 2.13567 -4.75435 0
M  V30 1769 C 163.206 1.94656 -5.53467 0
M  V30 1770 C 165.558 1.79797 -6.06511 0
M  V30 1771 C 164.222 1.69789 -6.45545 0
M  V30 1772 H 163.492 0.533206 -0.51456 0
M  V30 1773 H 166.139 0.796901 -1.74131 0
M  V30 1774 H 164.444 3.39503 -1.95563 0
M  V30 1775 H 166.141 3.2669 -2.32539 0
M  V30 1776 H 162.731 2.4595 -3.51008 0
M  V30 1777 H 166.915 2.19082 -4.45328 0
M  V30 1778 H 162.171 1.8546 -5.82593 0
M  V30 1779 H 166.345 1.59572 -6.77872 0
M  V30 1780 H 163.972 1.4222 -7.46778 0
M  V30 1781 N 165.547 1.27147 0.931209 0
M  V30 1782 C 166.457 1.11372 2.06478 0
M  V30 1783 C 167.473 0.044645 1.73943 0
M  V30 1784 O 168.649 0.250417 1.99837 0
M  V30 1785 C 165.714 0.758838 3.38294 0
M  V30 1786 C 164.775 1.90841 3.84549 0
M  V30 1787 C 164.008 1.57036 5.10074 0
M  V30 1788 O 164.231 0.476645 5.68405 0
M  V30 1789 O 163.165 2.40839 5.51616 0
M  V30 1790 H 166.991 2.06493 2.22698 0
M  V30 1791 H 164.576 1.06301 1.04978 0
M  V30 1792 H 166.458 0.574098 4.17471 0
M  V30 1793 H 165.133 -0.162879 3.2329 0
M  V30 1794 H 164.04 2.14819 3.06274 0
M  V30 1795 H 165.373 2.81021 4.04089 0
M  V30 1796 N 167.025 -1.13721 1.09112 0
M  V30 1797 C 167.958 -2.18094 0.67158 0
M  V30 1798 C 168.936 -1.59414 -0.320299 0
M  V30 1799 O 170.12 -1.87183 -0.222444 0
M  V30 1800 C 167.247 -3.38698 -0.0111189 0
M  V30 1801 C 166.293 -4.15966 0.942055 0
M  V30 1802 S 167.126 -4.7604 2.45246 0
M  V30 1803 C 168.282 -5.99994 1.78208 0
M  V30 1804 H 168.515 -2.53344 1.55577 0
M  V30 1805 H 166.048 -1.24967 0.906789 0
M  V30 1806 H 168.006 -4.08559 -0.398716 0
M  V30 1807 H 166.667 -3.01756 -0.871905 0
M  V30 1808 H 165.86 -5.02318 0.411396 0
M  V30 1809 H 165.462 -3.51745 1.2709 0
M  V30 1810 H 167.754 -6.68441 1.10424 0
M  V30 1811 H 168.697 -6.57662 2.62463 0
M  V30 1812 H 169.105 -5.50432 1.25238 0
M  V30 1813 N 168.503 -0.877838 -1.30888 0
M  V30 1814 C 169.752 -0.488793 -1.95688 0
M  V30 1815 C 170.065 0.965485 -1.70111 0
M  V30 1816 O 171.271 1.46104 -2.28836 0
M  V30 1817 C 169.727 -0.823201 -3.50359 0
M  V30 1818 C 169.335 -2.29477 -3.84765 0
M  V30 1819 C 171.079 -0.503009 -4.21509 0
M  V30 1820 C 168.986 -2.57118 -5.32583 0
M  V30 1821 H 167.916 -0.179062 -0.732429 0
M  V30 1822 H 170.567 -1.07183 -1.48943 0
M  V30 1823 H 168.949 -0.169331 -3.95638 0
M  V30 1824 H 170.123 -2.99236 -3.5042 0
M  V30 1825 H 168.438 -2.58178 -3.267 0
M  V30 1826 H 171.035 -0.68665 -5.30273 0
M  V30 1827 H 171.378 0.557109 -4.12555 0
M  V30 1828 H 171.911 -1.11376 -3.8189 0
M  V30 1829 H 168.65 -3.61843 -5.4658 0
M  V30 1830 H 168.17 -1.91961 -5.68253 0
M  V30 1831 H 169.849 -2.42251 -5.99936 0
M  V30 1832 N 169.982 1.44106 -0.638065 0
M  V30 1833 C 170.915 2.27924 0.112161 0
M  V30 1834 C 171.893 1.38945 0.844574 0
M  V30 1835 O 173.077 1.68386 0.847248 0
M  V30 1836 C 170.204 3.18029 1.16512 0
M  V30 1837 C 169.25 4.23163 0.532458 0
M  V30 1838 S 170.083 5.31131 -0.682666 0
M  V30 1839 C 171.239 6.24805 0.37013 0
M  V30 1840 H 171.472 2.91205 -0.598887 0
M  V30 1841 H 169.005 1.48394 -0.426441 0
M  V30 1842 H 170.963 3.70492 1.76766 0
M  V30 1843 H 169.624 2.53955 1.8484 0
M  V30 1844 H 168.817 4.86252 1.32571 0
M  V30 1845 H 168.419 3.74 0.00437644 0
M  V30 1846 H 170.711 6.66042 1.24071 0
M  V30 1847 H 171.654 7.07741 -0.225349 0
M  V30 1848 H 172.062 5.60154 0.699141 0
M  V30 1849 N 171.46 0.379036 1.52974 0
M  V30 1850 C 172.685 -0.209353 2.06341 0
M  V30 1851 C 173.11 -1.40583 1.24972 0
M  V30 1852 O 172.468 -1.79246 0.272155 0
M  V30 1853 C 172.516 -0.567786 3.56102 0
M  V30 1854 O 171.62 -1.66318 3.77375 0
M  V30 1855 H 170.961 -0.0272919 0.663439 0
M  V30 1856 H 173.491 0.543536 1.97248 0
M  V30 1857 H 173.501 -0.835003 3.99364 0
M  V30 1858 H 172.176 0.307013 4.14765 0
M  V30 1859 H 170.753 -1.39048 3.46006 0
M  V30 1860 N 172.938 -1.57226 0.108567 0
M  V30 1861 C 174.163 -1.99604 -0.563303 0
M  V30 1862 C 174.588 -0.987563 -1.6009 0
M  V30 1863 O 173.946 0.0421687 -1.81251 0
M  V30 1864 C 173.994 -3.40902 -1.17552 0
M  V30 1865 O 173.098 -3.42896 -2.2912 0
M  V30 1866 H 172.439 -0.648704 -0.1417 0
M  V30 1867 H 174.969 -2.03679 0.193961 0
M  V30 1868 H 174.979 -3.78886 -1.51357 0
M  V30 1869 H 173.654 -4.1382 -0.415445 0
M  V30 1870 H 172.231 -3.1672 -1.96832 0
M  V30 1871 N 174.416 0.165178 -1.56732 0
M  V30 1872 C 175.693 0.908443 -1.73224 0
M  V30 1873 C 176.073 2.0013 -0.67165 0
M  V30 1874 O 175.421 2.26353 0.31253 0
M  V30 1875 C 175.631 1.46756 -3.16644 0
M  V30 1876 C 176.979 1.93809 -3.77787 0
M  V30 1877 O 178.003 1.56537 -3.1996 0
M  V30 1878 O 176.862 2.62486 -4.79336 0
M  V30 1879 H 173.956 0.428025 -0.707618 0
M  V30 1880 H 176.502 0.152526 -1.69013 0
M  V30 1881 H 175.274 0.68129 -3.85323 0
M  V30 1882 H 174.897 2.28749 -3.25207 0
M  V30 1883 N 175.894 1.51508 0.433938 0
M  V30 1884 C 176.824 1.76016 1.53429 0
M  V30 1885 C 177.805 0.610112 1.58782 0
M  V30 1886 O 178.99 0.853177 1.74455 0
M  V30 1887 C 176.12 1.88831 2.9148 0
M  V30 1888 C 175.074 3.04288 3.00987 0
M  V30 1889 C 174.4 3.0229 4.4105 0
M  V30 1890 C 175.7 4.44193 2.74754 0
M  V30 1891 H 177.394 2.68152 1.33171 0
M  V30 1892 H 174.94 1.29035 0.639214 0
M  V30 1893 H 176.893 2.04559 3.6842 0
M  V30 1894 H 175.617 0.933455 3.12976 0
M  V30 1895 H 174.276 2.8827 2.26486 0
M  V30 1896 H 173.924 2.04576 4.59519 0
M  V30 1897 H 173.624 3.79822 4.4834 0
M  V30 1898 H 175.148 3.20116 5.1996 0
M  V30 1899 H 176.562 4.60544 3.41426 0
M  V30 1900 H 174.959 5.23457 2.9345 0
M  V30 1901 H 176.029 4.53996 1.70339 0
M  V30 1902 N 177.372 -0.689602 1.41712 0
M  V30 1903 C 178.621 -1.44534 1.40686 0
M  V30 1904 C 178.934 -1.95588 0.0213352 0
M  V30 1905 O 180.14 -2.71271 -0.111534 0
M  V30 1906 C 178.596 -2.61387 2.47396 0
M  V30 1907 C 178.204 -2.17094 3.91885 0
M  V30 1908 C 179.948 -3.38986 2.55517 0
M  V30 1909 C 177.855 -3.3094 4.90135 0
M  V30 1910 H 176.785 -0.542925 0.52321 0
M  V30 1911 H 179.436 -0.748054 1.6756 0
M  V30 1912 H 177.818 -3.33412 2.13664 0
M  V30 1913 H 178.992 -1.52318 4.34897 0
M  V30 1914 H 177.307 -1.52473 3.8748 0
M  V30 1915 H 179.904 -4.23747 3.26102 0
M  V30 1916 H 180.247 -3.84578 1.59391 0
M  V30 1917 H 180.78 -2.74021 2.8837 0
M  V30 1918 H 177.519 -2.90355 5.87685 0
M  V30 1919 H 177.039 -3.94546 4.51767 0
M  V30 1920 H 178.718 -3.9663 5.11169 0
M  V30 1921 N 178.85 -1.27639 -0.924453 0
M  V30 1922 C 180.099 -1.13549 -1.66702 0
M  V30 1923 C 180.412 0.317487 -1.93006 0
M  V30 1924 O 181.618 0.579333 -2.65247 0
M  V30 1925 C 180.074 -1.98426 -3.00259 0
M  V30 1926 C 179.682 -3.484 -2.81641 0
M  V30 1927 C 181.426 -1.92993 -3.78092 0
M  V30 1928 C 179.333 -4.25464 -4.10773 0
M  V30 1929 H 178.263 -0.421351 -0.625283 0
M  V30 1930 H 180.914 -1.52085 -1.02676 0
M  V30 1931 H 179.296 -1.52736 -3.6536 0
M  V30 1932 H 180.47 -4.01973 -2.25287 0
M  V30 1933 H 178.785 -3.55245 -2.17232 0
M  V30 1934 H 181.382 -2.47844 -4.7379 0
M  V30 1935 H 181.725 -0.904281 -4.0636 0
M  V30 1936 H 182.258 -2.36595 -3.19793 0
M  V30 1937 H 178.997 -5.28566 -3.87683 0
M  V30 1938 H 178.517 -3.76667 -4.66779 0
M  V30 1939 H 180.196 -4.34812 -4.79111 0
M  V30 1940 N 180.328 1.1314 -1.09713 0
M  V30 1941 C 181.291 2.16831 -0.742751 0
M  V30 1942 C 182.291 1.59159 0.229129 0
M  V30 1943 O 183.481 1.74199 0.00693237 0
M  V30 1944 C 180.613 3.40756 -0.0989168 0
M  V30 1945 H 181.806 2.49695 -1.66109 0
M  V30 1946 H 179.359 1.2802 -0.896699 0
M  V30 1947 H 180.094 3.13485 0.830514 0
M  V30 1948 H 179.879 3.83888 -0.798265 0
M  V30 1949 H 181.369 4.17386 0.133524 0
M  V30 1950 N 181.806 0.884767 1.30421 0
M  V30 1951 C 182.769 0.356277 2.26414 0
M  V30 1952 C 183.769 -0.501124 1.52792 0
M  V30 1953 O 184.959 -0.30831 1.7145 0
M  V30 1954 C 182.091 -0.492316 3.37326 0
M  V30 1955 H 183.284 1.20389 2.74675 0
M  V30 1956 H 180.837 0.661607 1.41607 0
M  V30 1957 H 181.572 -1.36052 2.94381 0
M  V30 1958 H 181.357 0.121832 3.91911 0
M  V30 1959 H 182.847 -0.853871 4.08777 0
M  V30 1960 N 183.284 -1.43765 0.645699 0
M  V30 1961 C 184.509 -2.06767 0.161883 0
M  V30 1962 C 184.934 -1.48034 -1.16049 0
M  V30 1963 O 184.292 -0.587369 -1.71522 0
M  V30 1964 C 184.34 -3.60519 0.0762003 0
M  V30 1965 O 183.444 -4.00982 -0.963721 0
M  V30 1966 H 182.785 -0.657675 0.091429 0
M  V30 1967 H 185.315 -1.84397 0.886499 0
M  V30 1968 H 185.325 -4.07853 -0.109604 0
M  V30 1969 H 184 -4.02646 1.04157 0
M  V30 1970 H 182.577 -3.65253 -0.751312 0
M  V30 1971 N 184.763 -0.387143 -1.52771 0
M  V30 1972 C 185.991 0.195869 -2.05971 0
M  V30 1973 C 186.406 1.40691 -1.25903 0
M  V30 1974 O 185.763 1.79931 -0.305134 0
M  V30 1975 C 185.814 0.56812 -3.57008 0
M  V30 1976 O 185.535 -0.594803 -4.34043 0
M  V30 1977 C 187.036 1.20723 -4.26545 0
M  V30 1978 H 184.256 0.0300578 -0.670326 0
M  V30 1979 H 186.8 -0.551749 -1.96916 0
M  V30 1980 H 184.955 1.26564 -3.66143 0
M  V30 1981 H 185.369 -0.289322 -5.23701 0
M  V30 1982 H 186.843 1.41807 -5.33474 0
M  V30 1983 H 187.32 2.17395 -3.81623 0
M  V30 1984 H 187.926 0.550535 -4.21722 0
M  V30 1985 N 186.241 1.57166 -0.116904 0
M  V30 1986 C 187.466 1.999 0.55271 0
M  V30 1987 C 187.891 0.996039 1.59564 0
M  V30 1988 O 187.249 -0.032556 1.81271 0
M  V30 1989 C 187.297 3.4152 1.15742 0
M  V30 1990 O 186.401 3.44106 2.27299 0
M  V30 1991 H 185.742 0.649447 0.138258 0
M  V30 1992 H 188.272 2.03573 -0.204759 0
M  V30 1993 H 188.282 3.79684 1.49346 0
M  V30 1994 H 186.957 4.14034 0.393493 0
M  V30 1995 H 185.534 3.17759 1.9515 0
M  V30 1996 N 187.719 -0.156864 1.56817 0
M  V30 1997 C 188.947 -0.886316 1.86955 0
M  V30 1998 C 189.362 -1.75185 0.703975 0
M  V30 1999 O 188.719 -1.79555 -0.326552 0
M  V30 2000 C 188.77 -1.75117 3.16253 0
M  V30 2001 O 188.491 -0.920537 4.2832 0
M  V30 2002 C 189.992 -2.58905 3.59837 0
M  V30 2003 H 187.212 -0.25678 0.619923 0
M  V30 2004 H 189.756 -0.152615 2.0393 0
M  V30 2005 H 187.911 -2.43805 3.01062 0
M  V30 2006 H 188.325 -1.51337 5.02192 0
M  V30 2007 H 189.799 -3.1518 4.53172 0
M  V30 2008 H 190.276 -3.34472 2.84649 0
M  V30 2009 H 190.882 -1.95526 3.7769 0
M  V30 2010 N 189.197 -1.51736 -0.425897 0
M  V30 2011 C 190.444 -1.6497 -1.17436 0
M  V30 2012 C 190.772 -0.371445 -1.9092 0
M  V30 2013 O 190.027 0.644963 -1.84767 0
M  V30 2014 C 190.326 -2.81103 -2.20717 0
M  V30 2015 C 189.992 -4.19954 -1.64162 0
M  V30 2016 C 188.654 -4.57725 -1.48462 0
M  V30 2017 C 191.006 -5.06552 -1.22696 0
M  V30 2018 C 188.334 -5.79789 -0.897873 0
M  V30 2019 C 190.686 -6.29205 -0.654464 0
M  V30 2020 C 189.35 -6.6574 -0.484456 0
M  V30 2021 H 188.62 -0.603668 -0.429727 0
M  V30 2022 H 191.267 -1.85798 -0.463829 0
M  V30 2023 H 189.572 -2.54542 -2.97852 0
M  V30 2024 H 191.269 -2.8854 -2.78471 0
M  V30 2025 H 187.859 -3.90181 -1.77361 0
M  V30 2026 H 192.043 -4.77968 -1.33642 0
M  V30 2027 H 187.299 -6.06733 -0.75402 0
M  V30 2028 H 191.473 -6.95643 -0.324694 0
M  V30 2029 H 189.1 -7.60195 -0.0276833 0
M  V30 2030 N 190.675 0.682077 -1.42076 0
M  V30 2031 C 191.9 1.47558 -1.45744 0
M  V30 2032 C 192.325 1.87977 -0.0680981 0
M  V30 2033 O 191.683 1.55522 0.9318 0
M  V30 2034 C 191.731 2.70575 -2.38373 0
M  V30 2035 O 190.835 3.68573 -1.85007 0
M  V30 2036 H 190.176 0.443585 -0.494093 0
M  V30 2037 H 192.706 0.837238 -1.86686 0
M  V30 2038 H 192.716 3.18729 -2.54707 0
M  V30 2039 H 191.391 2.40495 -3.39315 0
M  V30 2040 H 189.968 3.2757 -1.78192 0
M  V30 2041 N 192.153 1.28127 0.917671 0
M  V30 2042 C 193.086 1.06039 2.02067 0
M  V30 2043 C 194.064 -0.0223285 1.62585 0
M  V30 2044 O 195.248 0.124823 1.88086 0
M  V30 2045 C 192.375 0.610596 3.33151 0
M  V30 2046 C 191.421 1.68937 3.91615 0
M  V30 2047 S 192.254 3.28437 4.22953 0
M  V30 2048 C 193.41 2.85283 5.57103 0
M  V30 2049 H 193.643 1.99425 2.20493 0
M  V30 2050 H 191.176 1.12071 1.06205 0
M  V30 2051 H 193.134 0.357778 4.08938 0
M  V30 2052 H 191.795 -0.303364 3.12632 0
M  V30 2053 H 190.988 1.32619 4.86239 0
M  V30 2054 H 190.59 1.89478 3.2245 0
M  V30 2055 H 192.882 2.3121 6.36827 0
M  V30 2056 H 193.825 3.7869 5.98331 0
M  V30 2057 H 194.233 2.24118 5.18104 0
M  V30 2058 N 193.631 -1.12557 1.10312 0
M  V30 2059 C 194.859 -1.87864 0.866873 0
M  V30 2060 C 195.274 -1.79588 -0.582557 0
M  V30 2061 O 194.631 -1.16887 -1.40156 0
M  V30 2062 C 194.682 -3.37125 1.30496 0
M  V30 2063 O 194.403 -3.45201 2.69755 0
M  V30 2064 C 195.904 -4.29373 1.10243 0
M  V30 2065 H 193.124 -0.594452 0.311236 0
M  V30 2066 H 195.668 -1.42429 1.46745 0
M  V30 2067 H 193.823 -3.80109 0.748081 0
M  V30 2068 H 194.237 -4.38056 2.88457 0
M  V30 2069 H 195.711 -5.32394 1.45811 0
M  V30 2070 H 196.188 -4.39181 0.0409492 0
M  V30 2071 H 196.794 -3.92169 1.64571 0
M  V30 2072 N 195.109 -0.891671 -1.2995 0
M  V30 2073 C 196.52 -0.563104 -1.78006 0
M  V30 2074 C 196.871 0.920978 -1.73241 0
M  V30 2075 O 195.996 1.71987 -1.31337 0
M  V30 2076 C 196.591 -1.01539 -3.23226 0
M  V30 2077 C 195.15 -0.738124 -3.69092 0
M  V30 2078 C 194.297 -1.19461 -2.50249 0
M  V30 2079 H 197.248 -1.07522 -1.16725 0
M  V30 2080 H 197.269 -0.347217 -3.78912 0
M  V30 2081 H 196.781 -2.09555 -3.26662 0
M  V30 2082 H 194.882 0.329766 -3.71138 0
M  V30 2083 H 194.995 -1.33037 -4.60259 0
M  V30 2084 H 193.359 -0.613787 -2.47194 0
M  V30 2085 H 194.142 -2.28265 -2.56417 0
M  V30 2086 N 196.587 1.43421 -0.653314 0
M  V30 2087 C 197.833 2.02111 -0.166992 0
M  V30 2088 C 198.166 1.51423 1.21592 0
M  V30 2089 O 197.441 0.707389 1.8118 0
M  V30 2090 C 197.724 3.5966 -0.177948 0
M  V30 2091 C 197.577 4.20579 -1.59478 0
M  V30 2092 C 198.896 4.37413 0.4856 0
M  V30 2093 H 196.015 0.734374 -0.0621557 0
M  V30 2094 H 198.657 1.70717 -0.834016 0
M  V30 2095 H 196.807 3.86537 0.390032 0
M  V30 2096 H 198.479 4.04732 -2.21336 0
M  V30 2097 H 196.722 3.77226 -2.14204 0
M  V30 2098 H 197.393 5.29665 -1.5543 0
M  V30 2099 H 199.869 4.161 0.00234528 0
M  V30 2100 H 198.745 5.47075 0.447207 0
M  V30 2101 H 199.006 4.13672 1.55974 0
M  V30 2102 N 198.065 0.39524 1.52563 0
M  V30 2103 C 199.013 -0.451859 2.28169 0
M  V30 2104 C 200.007 -1.05792 1.32304 0
M  V30 2105 O 201.213 -0.997718 1.49818 0
M  V30 2106 H 197.588 -0.164481 0.733792 0
M  V30 2107 H 199.559 0.207199 2.9768 0
M  V30 2108 C 198.308 -1.56385 3.10546 0
M  V30 2109 H 197.631 -1.10682 3.84174 0
M  V30 2110 H 199.071 -2.13067 3.66577 0
M  V30 2111 C 197.53 -2.52328 2.23231 0
M  V30 2112 O 198.06 -3.5588 1.86312 0
M  V30 2113 N 196.266 -2.22209 1.87274 0
M  V30 2114 H 195.813 -1.38033 2.17496 0
M  V30 2115 H 195.771 -2.86652 1.29143 0
M  V30 2116 N 199.544 -1.57102 0.125237 0
M  V30 2117 C 200.474 -2.18659 -0.819174 0
M  V30 2118 C 201.455 -1.12843 -1.27281 0
M  V30 2119 O 202.64 -1.41104 -1.33429 0
M  V30 2120 C 199.77 -2.79096 -2.06695 0
M  V30 2121 C 198.724 -3.90548 -1.75088 0
M  V30 2122 C 198.05 -4.37821 -3.06948 0
M  V30 2123 C 199.35 -5.12356 -1.01435 0
M  V30 2124 H 201.044 -2.9783 -0.306202 0
M  V30 2125 H 198.59 -1.4326 -0.145839 0
M  V30 2126 H 200.543 -3.2082 -2.73226 0
M  V30 2127 H 199.267 -1.97223 -2.60328 0
M  V30 2128 H 197.926 -3.49409 -1.10944 0
M  V30 2129 H 197.574 -3.52799 -3.58527 0
M  V30 2130 H 197.274 -5.12982 -2.86571 0
M  V30 2131 H 198.798 -4.822 -3.74587 0
M  V30 2132 H 200.212 -5.5106 -1.58132 0
M  V30 2133 H 198.609 -5.9314 -0.911319 0
M  V30 2134 H 199.679 -4.849 -0.00218681 0
M  V30 2135 N 201.022 0.148545 -1.56898 0
M  V30 2136 C 202.27 0.859717 -1.82902 0
M  V30 2137 C 202.591 1.81775 -0.70588 0
M  V30 2138 O 201.861 1.93994 0.272586 0
M  V30 2139 H 200.441 0.320469 -0.674766 0
M  V30 2140 H 203.103 0.142918 -1.94375 0
M  V30 2141 H 202.199 1.4229 -2.77777 0
M  V30 2142 N 202.5 1.5196 0.417844 0
M  V30 2143 C 203.746 1.65836 1.16732 0
M  V30 2144 C 204.079 0.382881 1.90388 0
M  V30 2145 O 203.354 -0.618368 1.84408 0
M  V30 2146 C 203.637 2.87466 2.16876 0
M  V30 2147 C 203.49 4.25041 1.47174 0
M  V30 2148 C 204.809 3.04613 3.17646 0
M  V30 2149 H 201.928 0.603515 0.423011 0
M  V30 2150 H 204.57 1.84494 0.454105 0
M  V30 2151 H 202.72 2.71689 2.777 0
M  V30 2152 H 204.392 4.52527 0.895376 0
M  V30 2153 H 202.635 4.26843 0.773806 0
M  V30 2154 H 203.306 5.06176 2.20204 0
M  V30 2155 H 205.782 3.1923 2.66892 0
M  V30 2156 H 204.658 3.91247 3.8499 0
M  V30 2157 H 204.919 2.17541 3.84874 0
M  V30 2158 N 203.978 -0.674533 1.42435 0
M  V30 2159 C 205.389 -1.25514 1.38214 0
M  V30 2160 C 205.74 -1.96055 0.0755464 0
M  V30 2161 O 204.865 -2.00028 -0.8257 0
M  V30 2162 C 205.46 -2.28269 2.50357 0
M  V30 2163 C 204.019 -2.81856 2.49467 0
M  V30 2164 C 203.166 -1.56182 2.29134 0
M  V30 2165 H 206.117 -0.467902 1.51646 0
M  V30 2166 H 206.138 -3.10009 2.20624 0
M  V30 2167 H 205.65 -1.769 3.45439 0
M  V30 2168 H 203.751 -3.37346 1.58204 0
M  V30 2169 H 203.864 -3.30854 3.46515 0
M  V30 2170 H 202.228 -1.82761 1.774 0
M  V30 2171 H 203.011 -1.06778 3.26272 0
M  V30 2172 N 205.456 -1.28612 -0.910864 0
M  V30 2173 C 206.686 -1.1862 -1.69153 0
M  V30 2174 C 207.094 0.257324 -1.87442 0
M  V30 2175 O 206.437 1.18543 -1.40332 0
M  V30 2176 C 206.499 -1.81606 -3.10257 0
M  V30 2177 C 206.163 -3.30864 -3.15243 0
M  V30 2178 C 207.16 -4.27256 -2.96223 0
M  V30 2179 C 204.845 -3.71871 -3.37664 0
M  V30 2180 C 206.839 -5.62631 -2.99541 0
M  V30 2181 C 204.526 -5.07371 -3.40614 0
M  V30 2182 C 205.524 -6.02561 -3.21573 0
M  V30 2183 O 205.212 -7.35589 -3.2429 0
M  V30 2184 H 204.944 -0.412633 -0.535453 0
M  V30 2185 H 207.498 -1.70306 -1.14827 0
M  V30 2186 H 205.728 -1.24418 -3.66138 0
M  V30 2187 H 207.417 -1.66092 -3.70362 0
M  V30 2188 H 208.183 -3.9691 -2.78725 0
M  V30 2189 H 204.062 -2.98241 -3.5153 0
M  V30 2190 H 207.606 -6.36907 -2.84597 0
M  V30 2191 H 203.503 -5.37366 -3.57642 0
M  V30 2192 H 204.271 -7.44252 -3.40633 0
M  V30 2193 N 206.934 1.1197 -1.10907 0
M  V30 2194 C 207.882 2.19927 -0.757303 0
M  V30 2195 C 208.876 1.67564 0.248747 0
M  V30 2196 O 210.082 1.79672 0.108605 0
M  V30 2197 H 206.457 0.716925 -0.226987 0
M  V30 2198 H 208.428 2.46847 -1.67658 0
M  V30 2199 C 207.177 3.47061 -0.210671 0
M  V30 2200 H 206.5 3.87703 -0.976049 0
M  V30 2201 H 207.94 4.24 -0.0026584 0
M  V30 2202 C 206.399 3.19864 1.05777 0
M  V30 2203 O 206.929 3.40049 2.13845 0
M  V30 2204 N 205.135 2.73636 0.978349 0
M  V30 2205 H 204.682 2.5741 0.0988246 0
M  V30 2206 H 204.64 2.55815 1.82773 0
M  V30 2207 N 208.412 0.89855 1.29475 0
M  V30 2208 C 209.342 0.39201 2.30186 0
M  V30 2209 C 210.323 -0.532359 1.61555 0
M  V30 2210 O 211.508 -0.443331 1.89072 0
M  V30 2211 C 208.638 -0.382353 3.45189 0
M  V30 2212 C 207.592 0.451483 4.25612 0
M  V30 2213 C 206.918 -0.450307 5.328 0
M  V30 2214 C 208.218 1.70079 4.93832 0
M  V30 2215 H 209.912 1.23362 2.72804 0
M  V30 2216 H 207.458 0.594638 1.31149 0
M  V30 2217 H 209.411 -0.747451 4.14718 0
M  V30 2218 H 208.135 -1.25774 3.01411 0
M  V30 2219 H 206.794 0.798897 3.57789 0
M  V30 2220 H 206.442 -1.32379 4.85268 0
M  V30 2221 H 206.142 0.103902 5.87508 0
M  V30 2222 H 207.666 -0.811623 6.05182 0
M  V30 2223 H 209.08 1.40549 5.55805 0
M  V30 2224 H 207.477 2.19623 5.58467 0
M  V30 2225 H 208.547 2.43744 4.19186 0
M  V30 2226 N 209.89 -1.43072 0.660911 0
M  V30 2227 C 211.136 -2.0202 0.177708 0
M  V30 2228 C 211.469 -1.52066 -1.20787 0
M  V30 2229 O 210.744 -0.716987 -1.80802 0
M  V30 2230 C 211.027 -3.59561 0.197019 0
M  V30 2231 C 210.88 -4.19727 1.61706 0
M  V30 2232 C 212.199 -4.37664 -0.462396 0
M  V30 2233 H 209.318 -0.734034 0.0660494 0
M  V30 2234 H 211.96 -1.70272 0.843058 0
M  V30 2235 H 210.11 -3.86739 -0.369527 0
M  V30 2236 H 211.782 -4.03553 2.23479 0
M  V30 2237 H 210.025 -3.76084 2.16201 0
M  V30 2238 H 210.696 -5.28834 1.58237 0
M  V30 2239 H 213.172 -4.16095 0.0197215 0
M  V30 2240 H 212.048 -5.47305 -0.418188 0
M  V30 2241 H 212.309 -4.14493 -1.53778 0
M  V30 2242 N 211.368 -0.403325 -1.52352 0
M  V30 2243 C 212.616 0.174003 -2.0135 0
M  V30 2244 C 212.937 1.46139 -1.29106 0
M  V30 2245 O 212.207 1.91448 -0.415253 0
M  V30 2246 H 210.787 0.0672911 -0.743963 0
M  V30 2247 H 213.449 -0.538235 -1.87321 0
M  V30 2248 H 212.545 0.374254 -3.09848 0
M  V30 2249 N 212.846 1.57033 -0.133567 0
M  V30 2250 C 214.095 1.94861 0.520768 0
M  V30 2251 C 214.408 1.02012 1.66892 0
M  V30 2252 O 215.614 1.29365 2.38699 0
M  V30 2253 C 214.07 3.46362 0.977809 0
M  V30 2254 C 213.678 4.47773 -0.142674 0
M  V30 2255 C 215.422 3.93083 1.60269 0
M  V30 2256 C 213.329 5.90468 0.331883 0
M  V30 2257 H 212.259 0.727453 0.198315 0
M  V30 2258 H 214.91 1.82227 -0.215759 0
M  V30 2259 H 213.292 3.54282 1.7692 0
M  V30 2260 H 214.466 4.51536 -0.919317 0
M  V30 2261 H 212.781 4.10891 -0.675124 0
M  V30 2262 H 215.378 4.97121 1.96914 0
M  V30 2263 H 215.721 3.33876 2.48662 0
M  V30 2264 H 216.254 3.88025 0.876453 0
M  V30 2265 H 212.993 6.53463 -0.516341 0
M  V30 2266 H 212.513 5.90094 1.07469 0
M  V30 2267 H 214.192 6.42179 0.788332 0
M  V30 2268 N 214.325 -0.140222 1.56975 0
M  V30 2269 C 215.275 -1.17827 1.95194 0
M  V30 2270 C 216.259 -1.38195 0.824075 0
M  V30 2271 O 217.451 -1.39643 1.0876 0
M  V30 2272 C 214.58 -2.51024 2.34184 0
M  V30 2273 C 213.666 -2.3422 3.53556 0
M  V30 2274 N 214.057 -1.87185 4.69889 0
M  V30 2275 C 212.355 -2.64949 3.58773 0
M  V30 2276 C 213.056 -1.83586 5.5197 0
M  V30 2277 N 212.032 -2.2715 4.93866 0
M  V30 2278 H 215.834 -0.806817 2.82609 0
M  V30 2279 H 213.348 -0.348208 1.58623 0
M  V30 2280 H 215.345 -3.26074 2.59772 0
M  V30 2281 H 214.005 -2.88945 1.48124 0
M  V30 2282 H 215.016 -1.57048 4.93514 0
M  V30 2283 H 211.693 -3.067 2.8327 0
M  V30 2284 H 213.083 -1.48655 6.55249 0
M  V30 2285 N 215.803 -1.52179 -0.40978 0
M  V30 2286 C 216.751 -1.76086 -1.51975 0
M  V30 2287 C 217.745 -0.627964 -1.57331 0
M  V30 2288 O 218.951 -0.809993 -1.60745 0
M  V30 2289 H 215.326 -0.556829 -0.505416 0
M  V30 2290 H 217.297 -2.69077 -1.28996 0
M  V30 2291 C 216.046 -1.92799 -2.8935 0
M  V30 2292 H 215.369 -2.79392 -2.85972 0
M  V30 2293 H 216.809 -2.13527 -3.66309 0
M  V30 2294 C 215.268 -0.694923 -3.29655 0
M  V30 2295 O 215.798 0.13751 -4.01465 0
M  V30 2296 N 214.004 -0.53101 -2.85707 0
M  V30 2297 H 213.551 -1.20952 -2.27439 0
M  V30 2298 H 213.509 0.292718 -3.13034 0
M  V30 2299 N 217.281 0.66697 -1.42791 0
M  V30 2300 C 218.211 1.79218 -1.49677 0
M  V30 2301 C 219.192 1.66405 -0.352623 0
M  V30 2302 O 220.377 1.85708 -0.567993 0
M  V30 2303 C 217.507 3.17565 -1.40605 0
M  V30 2304 C 216.461 3.45124 -2.53127 0
M  V30 2305 C 215.787 4.83127 -2.29112 0
M  V30 2306 C 217.087 3.41236 -3.95418 0
M  V30 2307 H 218.781 1.73713 -2.43853 0
M  V30 2308 H 216.327 0.83432 -1.17367 0
M  V30 2309 H 218.28 3.96022 -1.44029 0
M  V30 2310 H 217.004 3.23767 -0.429271 0
M  V30 2311 H 215.663 2.69031 -2.49034 0
M  V30 2312 H 215.311 4.85988 -1.29709 0
M  V30 2313 H 215.011 5.02528 -3.04531 0
M  V30 2314 H 216.535 5.63859 -2.34297 0
M  V30 2315 H 217.949 4.09651 -4.01073 0
M  V30 2316 H 216.346 3.72173 -4.70752 0
M  V30 2317 H 217.416 2.39665 -4.21532 0
M  V30 2318 N 218.759 1.29093 0.90403 0
M  V30 2319 C 219.987 1.19689 1.68766 0
M  V30 2320 C 220.402 -0.243113 1.87228 0
M  V30 2321 O 219.759 -1.16326 1.40621 0
M  V30 2322 C 219.81 1.90144 3.07453 0
M  V30 2323 O 219.531 3.2852 2.89838 0
M  V30 2324 C 221.032 1.87162 4.01852 0
M  V30 2325 H 218.252 0.415035 0.527244 0
M  V30 2326 H 220.796 1.7039 1.13082 0
M  V30 2327 H 218.951 1.43289 3.59926 0
M  V30 2328 H 219.365 3.63944 3.77684 0
M  V30 2329 H 220.839 2.41032 4.96596 0
M  V30 2330 H 221.316 0.84617 4.30972 0
M  V30 2331 H 221.922 2.33741 3.5531 0
M  V30 2332 N 220.237 -1.11381 1.11499 0
M  V30 2333 C 221.653 -1.35143 0.849031 0
M  V30 2334 C 221.853 -1.94515 -0.525938 0
M  V30 2335 O 220.909 -2.1785 -1.27662 0
M  V30 2336 C 222.222 -2.28249 1.95762 0
M  V30 2337 C 223.77 -2.41812 1.98736 0
M  V30 2338 C 224.245 -3.3824 3.088 0
M  V30 2339 N 225.736 -3.45803 3.08179 0
M  V30 2340 C 226.471 -4.20358 3.89982 0
M  V30 2341 N 225.967 -4.97884 4.8175 0
M  V30 2342 N 227.76 -4.15877 3.78157 0
M  V30 2343 H 219.911 -0.712062 2.00109 0
M  V30 2344 H 222.174 -0.376025 0.870235 0
M  V30 2345 H 221.88 -1.91817 2.94787 0
M  V30 2346 H 221.754 -3.28473 1.85433 0
M  V30 2347 H 224.141 -2.77518 1.00338 0
M  V30 2348 H 224.222 -1.41437 2.13141 0
M  V30 2349 H 223.866 -3.03261 4.07425 0
M  V30 2350 H 223.796 -4.38471 2.91635 0
M  V30 2351 H 226.287 -2.90506 2.41691 0
M  V30 2352 H 226.6 -5.52142 5.40702 0
M  V30 2353 H 224.945 -4.97043 4.85771 0
M  V30 2354 H 228.136 -3.544 3.05808 0
M  V30 2355 H 228.309 -4.73723 4.42143 0
M  V30 2356 N 221.715 -0.905404 -1.28997 0
M  V30 2357 C 222.992 -0.453513 -1.9027 0
M  V30 2358 C 223.372 1.06721 -1.82137 0
M  V30 2359 O 222.72 1.91159 -1.25182 0
M  V30 2360 C 222.93 -0.974494 -3.35119 0
M  V30 2361 C 224.278 -1.0216 -4.12127 0
M  V30 2362 O 225.302 -0.922557 -3.44046 0
M  V30 2363 O 224.161 -1.17121 -5.33802 0
M  V30 2364 H 221.255 -0.142347 -0.814657 0
M  V30 2365 H 223.801 -0.995642 -1.37423 0
M  V30 2366 H 222.573 -2.01848 -3.35221 0
M  V30 2367 H 222.196 -0.412706 -3.95452 0
M  V30 2368 N 223.193 1.4272 -0.668489 0
M  V30 2369 C 224.156 2.292 0.00448567 0
M  V30 2370 C 225.156 1.43001 0.735339 0
M  V30 2371 O 226.346 1.64461 0.57429 0
M  V30 2372 C 223.478 3.25375 1.01705 0
M  V30 2373 H 224.671 2.90199 -0.756608 0
M  V30 2374 H 222.224 1.50254 -0.430506 0
M  V30 2375 H 222.959 2.69301 1.80686 0
M  V30 2376 H 222.744 3.88944 0.496463 0
M  V30 2377 H 224.234 3.90245 1.48655 0
M  V30 2378 N 224.671 0.411399 1.52136 0
M  V30 2379 C 225.919 -0.163322 2.01439 0
M  V30 2380 C 226.24 -1.45453 1.29879 0
M  V30 2381 O 225.51 -1.91225 0.4254 0
M  V30 2382 H 224.09 -0.0633447 0.744309 0
M  V30 2383 H 226.752 0.548161 1.87033 0
M  V30 2384 H 225.848 -0.357817 3.10042 0
M  V30 2385 N 226.149 -1.5696 0.141893 0
M  V30 2386 C 227.396 -1.9596 -0.510492 0
M  V30 2387 C 227.724 -1.02648 -1.65208 0
M  V30 2388 O 226.979 -0.0546947 -1.95624 0
M  V30 2389 C 227.278 -3.41242 -1.06249 0
M  V30 2390 C 226.944 -4.50882 -0.0398791 0
M  V30 2391 C 225.606 -4.80595 0.241247 0
M  V30 2392 C 227.958 -5.17058 0.65578 0
M  V30 2393 C 225.286 -5.73792 1.22393 0
M  V30 2394 C 227.638 -6.11313 1.62724 0
M  V30 2395 C 226.302 -6.39407 1.91612 0
M  V30 2396 H 225.572 -0.717068 -0.186802 0
M  V30 2397 H 228.219 -1.90142 0.227643 0
M  V30 2398 H 226.524 -3.43866 -1.87785 0
M  V30 2399 H 228.221 -3.68742 -1.57576 0
M  V30 2400 H 224.811 -4.27754 -0.269174 0
M  V30 2401 H 228.995 -4.94239 0.451779 0
M  V30 2402 H 224.251 -5.93853 1.45424 0
M  V30 2403 H 228.425 -6.61668 2.17183 0
M  V30 2404 H 226.052 -7.11427 2.6791 0
M  V30 2405 N 227.627 0.131896 -1.57047 0
M  V30 2406 C 228.577 1.1679 -1.95816 0
M  V30 2407 C 229.561 1.37756 -0.831393 0
M  V30 2408 O 230.753 1.39065 -1.09499 0
M  V30 2409 C 227.882 2.49778 -2.35512 0
M  V30 2410 C 226.968 2.32342 -3.54793 0
M  V30 2411 N 227.359 1.8469 -4.70875 0
M  V30 2412 C 225.657 2.63043 -3.60173 0
M  V30 2413 C 226.358 1.80656 -5.52936 0
M  V30 2414 N 225.334 2.24528 -4.95064 0
M  V30 2415 H 229.136 0.791818 -2.83033 0
M  V30 2416 H 226.65 0.339791 -1.58805 0
M  V30 2417 H 228.647 3.24692 -2.61498 0
M  V30 2418 H 227.307 2.88156 -1.49654 0
M  V30 2419 H 228.318 1.54429 -4.9434 0
M  V30 2420 H 224.995 3.05193 -2.84892 0
M  V30 2421 H 226.385 1.45178 -6.56028 0
M  V30 2422 N 229.106 1.52395 0.401703 0
M  V30 2423 C 230.355 1.66044 1.14509 0
M  V30 2424 C 230.668 0.400216 1.91462 0
M  V30 2425 O 231.874 0.416632 2.68284 0
M  V30 2426 C 230.33 2.93388 2.0845 0
M  V30 2427 C 229.938 4.26545 1.36978 0
M  V30 2428 C 231.682 3.16402 2.83001 0
M  V30 2429 C 229.589 5.45007 2.29611 0
M  V30 2430 H 228.519 0.618562 0.431158 0
M  V30 2431 H 231.17 1.78886 0.40892 0
M  V30 2432 H 229.552 2.74263 2.8565 0
M  V30 2433 H 230.726 4.56179 0.650916 0
M  V30 2434 H 229.041 4.09692 0.74438 0
M  V30 2435 H 231.638 4.02085 3.52465 0
M  V30 2436 H 231.981 2.30943 3.46368 0
M  V30 2437 H 232.514 3.36034 2.12898 0
M  V30 2438 H 229.253 6.32835 1.70879 0
M  V30 2439 H 228.773 5.19702 2.9945 0
M  V30 2440 H 230.452 5.7838 2.89974 0
M  V30 2441 N 230.584 -0.659388 1.43143 0
M  V30 2442 C 231.83 -1.42145 1.44647 0
M  V30 2443 C 232.163 -1.9408 0.0681907 0
M  V30 2444 O 231.438 -1.71899 -0.910007 0
M  V30 2445 C 231.721 -2.60735 2.48373 0
M  V30 2446 C 231.574 -2.14332 3.95451 0
M  V30 2447 C 232.893 -3.62951 2.48906 0
M  V30 2448 H 230.012 -0.51552 0.526696 0
M  V30 2449 H 232.654 -0.748069 1.74654 0
M  V30 2450 H 230.804 -3.18184 2.22916 0
M  V30 2451 H 232.476 -1.61932 4.31944 0
M  V30 2452 H 230.719 -1.4576 4.08578 0
M  V30 2453 H 231.39 -2.99583 4.63631 0
M  V30 2454 H 233.866 -3.1525 2.71582 0
M  V30 2455 H 232.742 -4.43487 3.23435 0
M  V30 2456 H 233.003 -4.15126 1.52061 0
M  V30 2457 N 232.062 -1.29571 -0.897171 0
M  V30 2458 C 233.009 -1.14916 -2.00158 0
M  V30 2459 C 233.979 -0.0418149 -1.66047 0
M  V30 2460 O 235.164 -0.209793 -1.89643 0
M  V30 2461 C 232.304 -0.834307 -3.34863 0
M  V30 2462 C 231.417 -2.02234 -3.8174 0
M  V30 2463 C 230.552 -1.64664 -5.05034 0
M  V30 2464 C 229.591 -2.80033 -5.44286 0
M  V30 2465 N 228.728 -2.42843 -6.58765 0
M  V30 2466 H 233.568 -2.09403 -2.12025 0
M  V30 2467 H 231.105 -1.042 -1.0383 0
M  V30 2468 H 233.063 -0.632436 -4.12379 0
M  V30 2469 H 231.693 0.0736656 -3.22716 0
M  V30 2470 H 230.745 -2.33583 -3.00238 0
M  V30 2471 H 232.057 -2.88673 -4.06779 0
M  V30 2472 H 231.211 -1.4078 -5.9014 0
M  V30 2473 H 229.95 -0.753766 -4.8184 0
M  V30 2474 H 228.955 -3.04596 -4.57713 0
M  V30 2475 H 230.18 -3.69989 -5.6946 0
M  V30 2476 H 228.126 -1.56046 -6.3717 0
M  V30 2477 H 228.043 -3.22815 -6.83613 0
M  V30 2478 H 229.311 -2.22285 -7.47134 0
M  V30 2479 N 233.54 1.10788 -1.12088 0
M  V30 2480 C 234.45 2.20599 -0.798338 0
M  V30 2481 C 235.466 1.72712 0.21135 0
M  V30 2482 O 236.642 2.01348 0.0458477 0
M  V30 2483 C 233.707 3.45771 -0.253674 0
M  V30 2484 C 232.768 4.08411 -1.32283 0
M  V30 2485 C 232.001 5.27608 -0.80406 0
M  V30 2486 O 232.224 5.69241 0.363478 0
M  V30 2487 O 231.158 5.8101 -1.57198 0
M  V30 2488 H 234.984 2.50614 -1.7154 0
M  V30 2489 H 232.569 1.19454 -0.897275 0
M  V30 2490 H 234.451 4.21376 0.0453691 0
M  V30 2491 H 233.126 3.1739 0.636005 0
M  V30 2492 H 232.033 3.34507 -1.67499 0
M  V30 2493 H 233.366 4.40986 -2.18614 0
M  V30 2494 N 235.018 0.912232 1.28515 0
M  V30 2495 C 235.948 0.416403 2.29757 0
M  V30 2496 C 236.929 -0.515194 1.6211 0
M  V30 2497 O 238.114 -0.423253 1.89532 0
M  V30 2498 C 235.244 -0.34572 3.45575 0
M  V30 2499 C 234.198 0.496599 4.25109 0
M  V30 2500 C 233.524 -0.393771 5.33248 0
M  V30 2501 C 234.824 1.75307 4.92001 0
M  V30 2502 H 236.518 1.26249 2.7148 0
M  V30 2503 H 234.064 0.608515 1.30511 0
M  V30 2504 H 236.017 -0.703422 4.15488 0
M  V30 2505 H 234.741 -1.2257 3.02728 0
M  V30 2506 H 233.4 0.8368 3.56922 0
M  V30 2507 H 233.048 -1.27225 4.86644 0
M  V30 2508 H 232.748 0.166209 5.87365 0
M  V30 2509 H 234.272 -0.747389 6.06009 0
M  V30 2510 H 235.686 1.46437 5.54283 0
M  V30 2511 H 234.083 2.25534 5.56106 0
M  V30 2512 H 235.153 2.48176 4.16577 0
M  V30 2513 N 236.496 -1.42363 0.676048 0
M  V30 2514 C 237.745 -2.00745 0.196037 0
M  V30 2515 C 238.058 -1.54083 -1.20489 0
M  V30 2516 O 239.264 -2.04891 -1.78134 0
M  V30 2517 C 237.72 -3.58651 0.299616 0
M  V30 2518 C 237.328 -4.143 1.70468 0
M  V30 2519 C 239.072 -4.24326 -0.121619 0
M  V30 2520 C 236.979 -5.64574 1.76096 0
M  V30 2521 H 235.909 -0.750787 0.0695301 0
M  V30 2522 H 238.56 -1.63072 0.841412 0
M  V30 2523 H 236.942 -3.93833 -0.413673 0
M  V30 2524 H 238.116 -3.90575 2.44515 0
M  V30 2525 H 236.431 -3.61081 2.07387 0
M  V30 2526 H 239.028 -5.34607 -0.0997362 0
M  V30 2527 H 239.371 -3.99897 -1.15708 0
M  V30 2528 H 239.904 -3.94108 0.540706 0
M  V30 2529 H 236.643 -5.93804 2.77628 0
M  V30 2530 H 236.163 -5.90286 1.06406 0
M  V30 2531 H 237.842 -6.29013 1.51496 0
M  V30 2532 N 237.974 -0.419461 -1.51915 0
M  V30 2533 C 239.221 0.152939 -2.01922 0
M  V30 2534 C 239.549 1.4426 -1.30458 0
M  V30 2535 O 238.804 1.91514 -0.402593 0
M  V30 2536 C 239.103 0.437067 -3.54717 0
M  V30 2537 C 238.769 -0.764632 -4.44369 0
M  V30 2538 C 237.431 -1.09423 -4.68594 0
M  V30 2539 C 239.783 -1.56713 -4.97082 0
M  V30 2540 C 237.111 -2.22732 -5.42777 0
M  V30 2541 C 239.463 -2.69107 -5.72507 0
M  V30 2542 C 238.127 -3.02541 -5.95 0
M  V30 2543 H 237.397 0.0559644 -0.738884 0
M  V30 2544 H 240.044 -0.562998 -1.83037 0
M  V30 2545 H 238.349 1.23469 -3.71837 0
M  V30 2546 H 240.046 0.893083 -3.90928 0
M  V30 2547 H 236.636 -0.497775 -4.257 0
M  V30 2548 H 240.82 -1.32571 -4.78266 0
M  V30 2549 H 236.076 -2.48971 -5.58411 0
M  V30 2550 H 240.25 -3.31671 -6.12346 0
M  V30 2551 H 237.877 -3.90457 -6.52264 0
M  V30 2552 N 239.452 1.56882 -0.150215 0
M  V30 2553 C 240.68 2.00593 0.506948 0
M  V30 2554 C 241.095 1.03033 1.58208 0
M  V30 2555 O 240.452 0.0278396 1.82479 0
M  V30 2556 C 240.503 3.44209 1.10465 0
M  V30 2557 O 240.224 4.3804 0.0724636 0
M  V30 2558 C 241.725 4.03214 1.84211 0
M  V30 2559 H 238.945 0.65795 0.13169 0
M  V30 2560 H 241.489 2.03018 -0.245743 0
M  V30 2561 H 239.644 3.42625 1.80795 0
M  V30 2562 H 240.058 5.22007 0.510793 0
M  V30 2563 H 241.532 5.0569 2.21318 0
M  V30 2564 H 242.009 3.44107 2.72923 0
M  V30 2565 H 242.615 4.08437 1.18572 0
M  V30 2566 N 240.93 -0.123565 1.57115 0
M  V30 2567 C 241.893 -1.13583 1.99076 0
M  V30 2568 C 242.893 -1.34564 0.880296 0
M  V30 2569 O 244.083 -1.31158 1.14644 0
M  V30 2570 C 241.215 -2.49128 2.32698 0
M  V30 2571 H 242.408 -0.775287 2.89706 0
M  V30 2572 H 239.961 -0.36771 1.51913 0
M  V30 2573 H 240.696 -2.90111 1.44934 0
M  V30 2574 H 240.481 -2.35255 3.13684 0
M  V30 2575 H 241.971 -3.2199 2.65918 0
M  V30 2576 N 242.408 -1.52605 -0.393616 0
M  V30 2577 C 243.633 -1.71592 -1.16495 0
M  V30 2578 C 244.058 -0.43133 -1.83088 0
M  V30 2579 O 243.416 0.612523 -1.7064 0
M  V30 2580 C 243.464 -2.86318 -2.19213 0
M  V30 2581 O 242.568 -2.52969 -3.257 0
M  V30 2582 H 241.909 -0.570734 -0.33935 0
M  V30 2583 H 244.439 -1.99377 -0.459324 0
M  V30 2584 H 244.449 -3.1168 -2.63286 0
M  V30 2585 H 243.124 -3.79511 -1.7013 0
M  V30 2586 H 241.701 -2.38332 -2.86797 0
M  V30 2587 N 243.887 0.651787 -1.4349 0
M  V30 2588 C 245.298 1.233 -1.40193 0
M  V30 2589 C 245.649 1.9591 -0.106727 0
M  V30 2590 O 244.774 2.01316 0.793773 0
M  V30 2591 C 245.369 2.24257 -2.53957 0
M  V30 2592 C 243.928 2.77852 -2.5392 0
M  V30 2593 C 243.075 1.52517 -2.3159 0
M  V30 2594 H 246.026 0.443717 -1.52371 0
M  V30 2595 H 246.047 3.0646 -2.25528 0
M  V30 2596 H 245.559 1.71382 -3.4821 0
M  V30 2597 H 243.66 3.34786 -1.63551 0
M  V30 2598 H 243.773 3.25299 -3.51735 0
M  V30 2599 H 242.137 1.79915 -1.80285 0
M  V30 2600 H 242.92 1.01574 -3.27929 0
M  V30 2601 N 245.365 1.30045 0.890287 0
M  V30 2602 C 246.614 1.17929 1.63633 0
M  V30 2603 C 246.927 -0.266204 1.9378 0
M  V30 2604 O 248.133 -0.508804 2.6669 0
M  V30 2605 C 246.589 2.06317 2.94892 0
M  V30 2606 C 246.197 3.55745 2.72305 0
M  V30 2607 C 247.941 2.0295 3.72843 0
M  V30 2608 C 245.848 4.36205 3.99348 0
M  V30 2609 H 244.778 0.437782 0.613892 0
M  V30 2610 H 247.429 1.54754 0.986075 0
M  V30 2611 H 245.811 1.6237 3.61182 0
M  V30 2612 H 246.985 4.07805 2.1455 0
M  V30 2613 H 245.3 3.6088 2.07737 0
M  V30 2614 H 247.897 2.60319 4.67053 0
M  V30 2615 H 248.24 1.0117 4.0382 0
M  V30 2616 H 248.773 2.4499 3.13408 0
M  V30 2617 H 245.512 5.38659 3.73533 0
M  V30 2618 H 245.032 3.8891 4.56628 0
M  V30 2619 H 246.711 4.47362 4.67415 0
M  V30 2620 N 246.843 -1.10192 1.12674 0
M  V30 2621 C 248.071 -1.85983 0.906527 0
M  V30 2622 C 248.486 -1.80783 -0.544333 0
M  V30 2623 O 247.843 -1.19834 -1.37645 0
M  V30 2624 C 247.894 -3.34281 1.37618 0
M  V30 2625 O 247.615 -3.39401 2.77017 0
M  V30 2626 C 249.116 -4.26938 1.19325 0
M  V30 2627 H 246.336 -0.587716 0.323775 0
M  V30 2628 H 248.88 -1.39284 1.49734 0
M  V30 2629 H 247.035 -3.78436 0.828539 0
M  V30 2630 H 247.449 -4.31838 2.97684 0
M  V30 2631 H 248.923 -5.29181 1.57071 0
M  V30 2632 H 249.4 -4.38995 0.134097 0
M  V30 2633 H 250.006 -3.8859 1.72852 0
M  V30 2634 N 248.321 -0.919034 -1.28029 0
M  V30 2635 C 249.284 -0.416182 -2.2539 0
M  V30 2636 C 250.284 0.460438 -1.54067 0
M  V30 2637 O 251.474 0.262744 -1.72207 0
M  V30 2638 C 248.606 0.402707 -3.38513 0
M  V30 2639 H 249.799 -1.27629 -2.71387 0
M  V30 2640 H 247.352 -0.698919 -1.39803 0
M  V30 2641 H 248.087 1.282 -2.97885 0
M  V30 2642 H 247.872 -0.225698 -3.9145 0
M  V30 2643 H 249.362 0.745191 -4.10897 0
M  V30 2644 N 249.799 1.42003 -0.683588 0
M  V30 2645 C 250.731 2.29183 0.0283068 0
M  V30 2646 C 251.744 1.4415 0.756611 0
M  V30 2647 O 252.933 1.67779 0.609306 0
M  V30 2648 C 250.033 3.21765 1.06398 0
M  V30 2649 C 249.206 4.35496 0.407723 0
M  V30 2650 C 248.265 5.08737 1.34437 0
M  V30 2651 O 247.291 5.62948 0.841318 0
M  V30 2652 N 248.493 5.15075 2.67728 0
M  V30 2653 H 251.258 2.9092 -0.720105 0
M  V30 2654 H 248.819 1.53025 -0.528682 0
M  V30 2655 H 250.811 3.6763 1.69204 0
M  V30 2656 H 249.381 2.61418 1.71404 0
M  V30 2657 H 248.601 3.92165 -0.400012 0
M  V30 2658 H 249.889 5.08776 -0.0490956 0
M  V30 2659 H 249.287 4.72457 3.11129 0
M  V30 2660 H 247.844 5.64556 3.2576 0
M  V30 2661 N 251.277 0.427512 1.51691 0
M  V30 2662 C 252.693 0.0792977 1.59403 0
M  V30 2663 C 252.893 -1.41035 1.43914 0
M  V30 2664 O 251.949 -2.17922 1.27539 0
M  V30 2665 C 253.262 0.590636 2.94842 0
M  V30 2666 C 254.81 0.550215 3.08126 0
M  V30 2667 C 255.285 1.03836 4.46074 0
M  V30 2668 N 256.776 0.995943 4.52366 0
M  V30 2669 C 257.511 1.34463 5.57411 0
M  V30 2670 N 257.007 1.76569 6.69922 0
M  V30 2671 N 258.8 1.26343 5.47717 0
M  V30 2672 H 250.951 1.39687 1.60004 0
M  V30 2673 H 253.214 0.575003 0.753708 0
M  V30 2674 H 252.92 1.63251 3.11516 0
M  V30 2675 H 252.794 0.0102061 3.77199 0
M  V30 2676 H 255.181 -0.482654 2.91126 0
M  V30 2677 H 255.262 1.16693 2.27632 0
M  V30 2678 H 254.906 2.06965 4.63819 0
M  V30 2679 H 254.836 0.398286 5.25092 0
M  V30 2680 H 257.327 0.68661 3.7161 0
M  V30 2681 H 257.64 2.01438 7.46085 0
M  V30 2682 H 255.985 1.80488 6.71155 0
M  V30 2683 H 259.176 0.933209 4.58703 0
M  V30 2684 H 259.349 1.53846 6.29472 0
M  V30 2685 N 252.755 -1.56801 0.158532 0
M  V30 2686 C 253.718 -2.16138 -0.762705 0
M  V30 2687 C 254.718 -1.1061 -1.16713 0
M  V30 2688 O 255.908 -1.36191 -1.08617 0
M  V30 2689 C 253.04 -2.73386 -2.03649 0
M  V30 2690 H 254.233 -2.98886 -0.246354 0
M  V30 2691 H 251.786 -1.56035 -0.0909744 0
M  V30 2692 H 252.521 -1.94335 -2.59623 0
M  V30 2693 H 252.306 -3.50601 -1.75559 0
M  V30 2694 H 253.796 -3.19065 -2.6942 0
M  V30 2695 N 254.233 0.115231 -1.57178 0
M  V30 2696 C 255.163 1.1423 -2.03651 0
M  V30 2697 C 256.144 1.42967 -0.921655 0
M  V30 2698 O 257.329 1.53343 -1.19162 0
M  V30 2699 C 254.459 2.4675 -2.44401 0
M  V30 2700 C 253.413 2.32467 -3.59365 0
M  V30 2701 C 252.739 3.69984 -3.86026 0
M  V30 2702 C 254.039 1.78203 -4.90959 0
M  V30 2703 H 255.733 0.755749 -2.89705 0
M  V30 2704 H 253.279 0.362093 -1.39373 0
M  V30 2705 H 255.232 3.18854 -2.75517 0
M  V30 2706 H 253.956 2.87302 -1.55322 0
M  V30 2707 H 252.615 1.62811 -3.28463 0
M  V30 2708 H 252.263 4.08028 -2.94147 0
M  V30 2709 H 251.963 3.61279 -4.63412 0
M  V30 2710 H 253.487 4.43587 -4.19599 0
M  V30 2711 H 254.901 2.40128 -5.20587 0
M  V30 2712 H 253.298 1.8031 -5.72371 0
M  V30 2713 H 254.368 0.739876 -4.79222 0
M  V30 2714 N 255.711 1.52812 0.385517 0
M  V30 2715 C 256.674 1.77188 1.45386 0
M  V30 2716 C 257.674 0.641953 1.4743 0
M  V30 2717 O 258.864 0.910033 1.4854 0
M  V30 2718 C 255.996 1.87582 2.8465 0
M  V30 2719 H 257.189 2.72583 1.25054 0
M  V30 2720 H 254.742 1.43586 0.617467 0
M  V30 2721 H 255.477 0.941849 3.10322 0
M  V30 2722 H 255.262 2.69748 2.84567 0
M  V30 2723 H 256.752 2.08102 3.62054 0
M  V30 2724 N 257.189 -0.644168 1.43834 0
M  V30 2725 C 258.435 -1.40603 1.46146 0
M  V30 2726 C 258.768 -1.93997 0.0887717 0
M  V30 2727 O 258.043 -1.72854 -0.891724 0
M  V30 2728 C 258.326 -2.58086 2.51124 0
M  V30 2729 C 258.179 -2.10126 3.97702 0
M  V30 2730 C 259.498 -3.60291 2.52742 0
M  V30 2731 H 256.617 -0.509905 0.532134 0
M  V30 2732 H 259.259 -0.729502 1.75437 0
M  V30 2733 H 257.409 -3.15801 2.26278 0
M  V30 2734 H 259.081 -1.57342 4.33637 0
M  V30 2735 H 257.324 -1.41419 4.10101 0
M  V30 2736 H 257.995 -2.94649 4.66783 0
M  V30 2737 H 260.471 -3.12352 2.7491 0
M  V30 2738 H 259.347 -4.40032 3.28121 0
M  V30 2739 H 259.608 -4.1349 1.56455 0
M  V30 2740 N 258.668 -1.30515 -0.883378 0
M  V30 2741 C 259.916 -1.19194 -1.63209 0
M  V30 2742 C 260.237 0.253205 -1.93349 0
M  V30 2743 O 259.507 1.17025 -1.57105 0
M  V30 2744 H 258.087 -0.438148 -0.605009 0
M  V30 2745 H 260.749 -1.63663 -1.05832 0
M  V30 2746 H 259.845 -1.75396 -2.58153 0
M  V30 2747 N 260.146 1.09593 -1.13257 0
M  V30 2748 C 261.395 1.81105 -0.887917 0
M  V30 2749 C 261.708 1.86563 0.587672 0
M  V30 2750 O 262.914 2.54367 0.949204 0
M  V30 2751 C 261.37 3.25338 -1.53895 0
M  V30 2752 C 260.978 3.28151 -3.04994 0
M  V30 2753 C 262.722 4.01617 -1.37492 0
M  V30 2754 C 260.629 4.66897 -3.6299 0
M  V30 2755 H 259.559 0.678661 -0.328534 0
M  V30 2756 H 262.21 1.23183 -1.36008 0
M  V30 2757 H 260.592 3.8331 -0.994446 0
M  V30 2758 H 261.766 2.79953 -3.66009 0
M  V30 2759 H 260.081 2.65361 -3.20893 0
M  V30 2760 H 262.678 5.04119 -1.78235 0
M  V30 2761 H 263.021 4.15072 -0.31957 0
M  V30 2762 H 263.554 3.50082 -1.88912 0
M  V30 2763 H 260.293 4.58643 -4.68323 0
M  V30 2764 H 259.813 5.15426 -3.06752 0
M  V30 2765 H 261.492 5.3587 -3.62563 0
M  V30 2766 N 261.624 0.925811 1.2754 0
M  V30 2767 C 262.554 0.440748 2.29303 0
M  V30 2768 C 263.535 -0.497971 1.62648 0
M  V30 2769 O 264.72 -0.403126 1.8997 0
M  V30 2770 C 261.85 -0.309048 3.45922 0
M  V30 2771 C 260.804 0.54166 4.24559 0
M  V30 2772 C 260.13 -0.337191 5.33636 0
M  V30 2773 C 261.43 1.80516 4.90114 0
M  V30 2774 H 263.124 1.29121 2.70126 0
M  V30 2775 H 260.67 0.622323 1.29858 0
M  V30 2776 H 262.623 -0.659315 4.1621 0
M  V30 2777 H 261.347 -1.19352 3.04011 0
M  V30 2778 H 260.006 0.874609 3.56014 0
M  V30 2779 H 259.654 -1.22056 4.87966 0
M  V30 2780 H 259.354 0.228497 5.87156 0
M  V30 2781 H 260.878 -0.683072 6.06767 0
M  V30 2782 H 262.292 1.52307 5.52698 0
M  V30 2783 H 260.689 2.3142 5.53683 0
M  V30 2784 H 261.759 2.52581 4.13921 0
M  V30 2785 N 263.102 -1.41638 0.69111 0
M  V30 2786 C 264.05 -2.32597 0.0115199 0
M  V30 2787 C 265.044 -1.5072 -0.773296 0
M  V30 2788 O 266.25 -1.66685 -0.67942 0
M  V30 2789 H 262.625 -0.751849 -0.0150746 0
M  V30 2790 H 264.596 -2.87593 0.795791 0
M  V30 2791 C 263.345 -3.35467 -0.914172 0
M  V30 2792 H 262.668 -3.9852 -0.319687 0
M  V30 2793 H 264.108 -4.01662 -1.35808 0
M  V30 2794 C 262.567 -2.69004 -2.02826 0
M  V30 2795 O 263.097 -2.53444 -3.11655 0
M  V30 2796 N 261.303 -2.2777 -1.80469 0
M  V30 2797 H 260.85 -2.40626 -0.919615 0
M  V30 2798 H 260.808 -1.83635 -2.55197 0
M  V30 2799 N 264.58 -0.43555 -1.51462 0
M  V30 2800 C 265.53 0.394701 -2.24558 0
M  V30 2801 C 266.514 0.99157 -1.26715 0
M  V30 2802 O 267.706 0.910007 -1.51815 0
M  V30 2803 C 264.835 1.4963 -3.08975 0
M  V30 2804 C 263.921 0.908912 -4.14246 0
M  V30 2805 N 264.312 0.0505335 -5.05775 0
M  V30 2806 C 262.61 1.17668 -4.30198 0
M  V30 2807 C 263.311 -0.279161 -5.8103 0
M  V30 2808 N 262.287 0.336767 -5.42556 0
M  V30 2809 H 266.089 -0.267106 -2.92684 0
M  V30 2810 H 263.603 -0.247518 -1.60503 0
M  V30 2811 H 265.6 2.10394 -3.59917 0
M  V30 2812 H 264.26 2.16046 -2.42393 0
M  V30 2813 H 265.271 -0.31577 -5.16936 0
M  V30 2814 H 261.948 1.83847 -3.74842 0
M  V30 2815 H 263.338 -0.977553 -6.64751 0
M  V30 2816 N 266.058 1.56714 -0.166846 0
M  V30 2817 C 267.304 1.97039 0.479962 0
M  V30 2818 C 267.637 1.05264 1.63197 0
M  V30 2819 O 266.912 0.0988833 1.94248 0
M  V30 2820 C 267.195 3.46867 0.967212 0
M  V30 2821 C 267.048 4.49421 -0.18466 0
M  V30 2822 C 268.367 3.9968 1.84238 0
M  V30 2823 H 265.486 0.71641 0.172992 0
M  V30 2824 H 268.128 1.8832 -0.252079 0
M  V30 2825 H 266.278 3.54428 1.59101 0
M  V30 2826 H 267.95 4.53924 -0.821621 0
M  V30 2827 H 266.193 4.25573 -0.840837 0
M  V30 2828 H 266.864 5.51644 0.198317 0
M  V30 2829 H 269.34 3.94723 1.31655 0
M  V30 2830 H 268.216 5.04941 2.15234 0
M  V30 2831 H 268.477 3.43226 2.78654 0
M  V30 2832 N 267.536 -0.106894 1.57237 0
M  V30 2833 C 268.782 -0.81373 1.85759 0
M  V30 2834 C 269.115 -1.78952 0.754315 0
M  V30 2835 O 268.39 -1.93029 -0.23879 0
M  V30 2836 C 268.673 -1.55293 3.24894 0
M  V30 2837 C 268.526 -0.595929 4.45835 0
M  V30 2838 C 269.845 -2.5063 3.61763 0
M  V30 2839 H 266.964 -0.294369 0.67566 0
M  V30 2840 H 269.606 -0.0776472 1.89841 0
M  V30 2841 H 267.756 -2.1804 3.21544 0
M  V30 2842 H 269.428 0.0236262 4.61294 0
M  V30 2843 H 267.671 0.0916191 4.33703 0
M  V30 2844 H 268.342 -1.15004 5.39887 0
M  V30 2845 H 270.818 -1.97982 3.65981 0
M  V30 2846 H 269.694 -2.99376 4.60071 0
M  V30 2847 H 269.955 -3.3385 2.89821 0
M  V30 2848 N 269.014 -1.53014 -0.377408 0
M  V30 2849 C 269.924 -1.81557 -1.48574 0
M  V30 2850 C 270.94 -0.703102 -1.59162 0
M  V30 2851 O 272.116 -0.99192 -1.75279 0
M  V30 2852 C 269.181 -1.9889 -2.83978 0
M  V30 2853 C 268.242 -3.22801 -2.83016 0
M  V30 2854 C 267.475 -3.39298 -4.11962 0
M  V30 2855 O 267.698 -2.60345 -5.0752 0
M  V30 2856 O 266.632 -4.32604 -4.18494 0
M  V30 2857 H 270.458 -2.75695 -1.27382 0
M  V30 2858 H 268.043 -1.38248 -0.566373 0
M  V30 2859 H 269.925 -2.11931 -3.6423 0
M  V30 2860 H 268.6 -1.07942 -3.05172 0
M  V30 2861 H 267.507 -3.15193 -2.01505 0
M  V30 2862 H 268.84 -4.13632 -2.66775 0
M  V30 2863 N 270.492 0.636531 -1.44174 0
M  V30 2864 C 271.738 1.39826 -1.4689 0
M  V30 2865 C 272.071 1.93947 -0.0990585 0
M  V30 2866 O 271.346 1.73325 0.882544 0
M  V30 2867 C 271.629 2.56751 -2.5249 0
M  V30 2868 C 271.482 2.08014 -3.98811 0
M  V30 2869 C 272.801 3.58946 -2.54649 0
M  V30 2870 H 269.92 0.507075 -0.53483 0
M  V30 2871 H 272.562 0.720188 -1.75822 0
M  V30 2872 H 270.712 3.14597 -2.2795 0
M  V30 2873 H 272.384 1.5504 -4.34466 0
M  V30 2874 H 270.627 1.39242 -4.10846 0
M  V30 2875 H 271.298 2.92169 -4.68339 0
M  V30 2876 H 273.774 3.1089 -2.76563 0
M  V30 2877 H 272.65 4.38286 -3.3045 0
M  V30 2878 H 272.911 4.12655 -1.58646 0
M  V30 2879 N 271.97 1.30982 0.876444 0
M  V30 2880 C 272.88 1.2003 2.01569 0
M  V30 2881 C 273.896 0.11838 1.73597 0
M  V30 2882 O 275.072 0.33495 1.98595 0
M  V30 2883 C 272.137 0.901637 3.34771 0
M  V30 2884 C 271.198 2.06979 3.76109 0
M  V30 2885 C 270.431 1.78529 5.02954 0
M  V30 2886 O 270.654 0.717296 5.65872 0
M  V30 2887 O 269.588 2.64019 5.40905 0
M  V30 2888 H 273.414 2.15753 2.13739 0
M  V30 2889 H 270.999 1.10658 1.00375 0
M  V30 2890 H 272.881 0.750645 4.1466 0
M  V30 2891 H 271.556 -0.0256141 3.2369 0
M  V30 2892 H 270.463 2.27616 2.96887 0
M  V30 2893 H 271.796 2.97907 3.91807 0
M  V30 2894 N 273.449 -1.08991 1.13837 0
M  V30 2895 C 274.359 -2.19301 0.833333 0
M  V30 2896 C 275.375 -1.73026 -0.183847 0
M  V30 2897 O 276.551 -2.01395 -0.0138092 0
M  V30 2898 C 273.616 -3.45323 0.308651 0
M  V30 2899 C 272.677 -4.06255 1.38764 0
M  V30 2900 C 271.91 -5.26262 0.887896 0
M  V30 2901 O 272.133 -5.69747 -0.27287 0
M  V30 2902 O 271.067 -5.78435 1.66421 0
M  V30 2903 H 274.893 -2.47854 1.75506 0
M  V30 2904 H 272.478 -1.18012 0.916166 0
M  V30 2905 H 274.36 -4.21394 0.0216739 0
M  V30 2906 H 273.035 -3.18362 -0.585431 0
M  V30 2907 H 271.942 -3.318 1.72799 0
M  V30 2908 H 273.275 -4.37452 2.25602 0
M  V30 2909 N 274.927 -0.932562 -1.27047 0
M  V30 2910 C 275.857 -0.452902 -2.29066 0
M  V30 2911 C 276.838 0.489338 -1.62909 0
M  V30 2912 O 278.023 0.393046 -1.90181 0
M  V30 2913 C 275.153 0.290698 -3.46081 0
M  V30 2914 C 274.107 -0.564168 -4.24265 0
M  V30 2915 C 273.433 0.308886 -5.33807 0
M  V30 2916 C 274.733 -1.83112 -4.89149 0
M  V30 2917 H 276.427 -1.30552 -2.69437 0
M  V30 2918 H 273.973 -0.629201 -1.29526 0
M  V30 2919 H 275.926 0.637233 -4.16554 0
M  V30 2920 H 274.65 1.17738 -3.0464 0
M  V30 2921 H 273.309 -0.893477 -3.55545 0
M  V30 2922 H 272.957 1.19467 -4.88607 0
M  V30 2923 H 272.657 -0.259633 -5.87026 0
M  V30 2924 H 274.181 0.650884 -6.07121 0
M  V30 2925 H 275.595 -1.55236 -5.51883 0
M  V30 2926 H 273.992 -2.34353 -5.52448 0
M  V30 2927 H 275.062 -2.54772 -4.12576 0
M  V30 2928 N 276.405 1.4127 -0.698611 0
M  V30 2929 C 277.315 2.34573 -0.0357891 0
M  V30 2930 C 278.331 1.56393 0.762701 0
M  V30 2931 O 279.507 1.8886 0.699564 0
M  V30 2932 C 276.572 3.35159 0.887089 0
M  V30 2933 C 275.633 4.29225 0.0804634 0
M  V30 2934 C 274.866 5.25006 0.959387 0
M  V30 2935 O 275.089 5.26314 2.19886 0
M  V30 2936 O 274.023 6.00519 0.407439 0
M  V30 2937 H 277.849 2.92838 -0.804957 0
M  V30 2938 H 275.434 1.42175 -0.458966 0
M  V30 2939 H 277.316 3.9689 1.41621 0
M  V30 2940 H 275.991 2.79333 1.6357 0
M  V30 2941 H 274.898 3.70833 -0.493328 0
M  V30 2942 H 276.231 4.88157 -0.629547 0
M  V30 2943 N 277.883 0.443576 1.51229 0
M  V30 2944 C 279.16 -0.181038 1.9476 0
M  V30 2945 C 279.54 -1.59523 1.38259 0
M  V30 2946 O 278.888 -2.2122 0.572198 0
M  V30 2947 C 279.098 -0.152422 3.48667 0
M  V30 2948 C 280.446 -0.354923 4.23114 0
M  V30 2949 O 281.47 -0.230257 3.55455 0
M  V30 2950 O 280.329 -0.603674 5.43156 0
M  V30 2951 H 277.423 -0.1266 0.817252 0
M  V30 2952 H 279.969 0.502004 1.62105 0
M  V30 2953 H 278.741 0.836022 3.82265 0
M  V30 2954 H 278.364 -0.878107 3.87782 0
M  V30 2955 N 279.361 -1.56624 0.175154 0
M  V30 2956 C 280.608 -1.96999 -0.468811 0
M  V30 2957 C 280.936 -1.06129 -1.62994 0
M  V30 2958 O 280.191 -0.0961771 -1.95464 0
M  V30 2959 C 280.49 -3.43419 -0.989864 0
M  V30 2960 C 280.156 -4.50866 0.0557687 0
M  V30 2961 C 278.818 -4.79975 0.343134 0
M  V30 2962 C 281.17 -5.15551 0.765308 0
M  V30 2963 C 278.498 -5.71066 1.34536 0
M  V30 2964 C 280.85 -6.07724 1.75654 0
M  V30 2965 C 279.514 -6.35199 2.05132 0
M  V30 2966 H 278.784 -0.720869 -0.17155 0
M  V30 2967 H 281.431 -1.89616 0.267924 0
M  V30 2968 H 279.736 -3.47772 -1.80449 0
M  V30 2969 H 281.433 -3.72002 -1.49719 0
M  V30 2970 H 278.023 -4.28229 -0.178381 0
M  V30 2971 H 282.207 -4.9317 0.556513 0
M  V30 2972 H 277.463 -5.90635 1.57988 0
M  V30 2973 H 281.637 -6.56912 2.31169 0
M  V30 2974 H 279.264 -7.05584 2.8294 0
M  V30 2975 N 280.839 0.0985539 -1.57292 0
M  V30 2976 C 282.067 0.816318 -1.90115 0
M  V30 2977 C 282.482 1.72451 -0.768509 0
M  V30 2978 O 281.839 1.80643 0.259687 0
M  V30 2979 C 281.89 1.63259 -3.22535 0
M  V30 2980 O 281.611 0.760934 -4.31441 0
M  V30 2981 C 283.112 2.45372 -3.69199 0
M  V30 2982 H 280.332 0.233595 -0.629027 0
M  V30 2983 H 282.876 0.0768229 -2.04356 0
M  V30 2984 H 281.031 2.32463 -3.09903 0
M  V30 2985 H 281.445 1.32595 -5.07463 0
M  V30 2986 H 282.919 2.98144 -4.64558 0
M  V30 2987 H 283.396 3.23677 -2.96867 0
M  V30 2988 H 284.002 1.81373 -3.84687 0
M  V30 2989 N 282.317 1.53212 0.369288 0
M  V30 2990 C 283.247 1.82365 1.45826 0
M  V30 2991 C 284.228 0.676907 1.56051 0
M  V30 2992 O 285.413 0.926401 1.70679 0
M  V30 2993 C 282.543 2.01023 2.83208 0
M  V30 2994 C 281.497 3.1678 2.8781 0
M  V30 2995 C 280.823 3.20724 4.27832 0
M  V30 2996 C 282.123 4.55447 2.55667 0
M  V30 2997 H 283.817 2.73559 1.21678 0
M  V30 2998 H 281.363 1.3163 0.583911 0
M  V30 2999 H 283.316 2.20001 3.59413 0
M  V30 3000 H 282.04 1.06536 3.08736 0
M  V30 3001 H 280.699 2.97616 2.14056 0
M  V30 3002 H 280.347 2.23882 4.50429 0
M  V30 3003 H 280.047 3.98496 4.31827 0
M  V30 3004 H 281.571 3.41881 5.05915 0
M  V30 3005 H 282.985 4.74611 3.21586 0
M  V30 3006 H 281.382 5.35432 2.70984 0
M  V30 3007 H 282.452 4.60812 1.5093 0
M  V30 3008 N 283.795 -0.628877 1.44509 0
M  V30 3009 C 284.727 -1.754 1.47538 0
M  V30 3010 C 285.74 -1.58575 0.368506 0
M  V30 3011 O 286.929 -1.66847 0.634376 0
M  V30 3012 C 284.029 -3.1315 1.29577 0
M  V30 3013 C 283.202 -3.56413 2.53551 0
M  V30 3014 C 282.261 -4.7305 2.30457 0
M  V30 3015 O 281.287 -4.81247 3.03957 0
M  V30 3016 N 282.489 -5.64903 1.3366 0
M  V30 3017 H 285.254 -1.73272 2.44534 0
M  V30 3018 H 282.815 -0.813512 1.39977 0
M  V30 3019 H 284.807 -3.88902 1.11971 0
M  V30 3020 H 283.377 -3.09908 0.409371 0
M  V30 3021 H 282.597 -2.70847 2.86419 0
M  V30 3022 H 283.885 -3.82071 3.36005 0
M  V30 3023 H 283.283 -5.60975 0.729604 0
M  V30 3024 H 281.84 -6.40275 1.22032 0
M  V30 3025 N 285.273 -1.31445 -0.869486 0
M  V30 3026 C 286.206 -1.13465 -1.97992 0
M  V30 3027 C 287.184 -0.0380291 -1.62556 0
M  V30 3028 O 288.368 -0.194544 -1.87493 0
M  V30 3029 C 285.495 -0.733822 -3.30655 0
M  V30 3030 C 284.541 -1.83356 -3.85075 0
M  V30 3031 S 285.374 -3.43909 -4.10472 0
M  V30 3032 C 286.53 -3.05763 -5.46132 0
M  V30 3033 H 286.763 -2.07471 -2.1294 0
M  V30 3034 H 284.296 -1.15936 -1.01972 0
M  V30 3035 H 286.254 -0.509306 -4.07328 0
M  V30 3036 H 284.915 0.187123 -3.13542 0
M  V30 3037 H 284.108 -1.50574 -4.80982 0
M  V30 3038 H 283.71 -2.01315 -3.15195 0
M  V30 3039 H 286.002 -2.54686 -6.27807 0
M  V30 3040 H 286.945 -4.00635 -5.83864 0
M  V30 3041 H 287.353 -2.43192 -5.09429 0
M  V30 3042 N 286.751 1.08385 -1.14413 0
M  V30 3043 C 287.714 2.13486 -0.834048 0
M  V30 3044 C 288.714 1.59988 0.161418 0
M  V30 3045 O 289.904 1.74071 -0.0669575 0
M  V30 3046 C 287.036 3.4003 -0.243354 0
M  V30 3047 H 288.229 2.42425 -1.7655 0
M  V30 3048 H 285.782 1.24101 -0.950189 0
M  V30 3049 H 286.517 3.16726 0.696807 0
M  V30 3050 H 286.302 3.80157 -0.960367 0
M  V30 3051 H 287.792 4.17577 -0.0436242 0
M  V30 3052 N 288.23 0.939286 1.26551 0
M  V30 3053 C 289.18 0.418284 2.2413 0
M  V30 3054 C 290.164 -0.483935 1.5345 0
M  V30 3055 O 291.356 -0.319489 1.74093 0
M  V30 3056 C 288.485 -0.31709 3.41832 0
M  V30 3057 C 287.571 0.602311 4.19801 0
M  V30 3058 N 287.962 1.72726 4.75394 0
M  V30 3059 C 286.26 0.407534 4.44134 0
M  V30 3060 C 286.961 2.30004 5.34297 0
M  V30 3061 N 285.937 1.58828 5.1988 0
M  V30 3062 H 289.739 1.27705 2.64705 0
M  V30 3063 H 287.253 0.794929 1.41614 0
M  V30 3064 H 289.25 -0.707364 4.10855 0
M  V30 3065 H 287.91 -1.17264 3.02786 0
M  V30 3066 H 288.921 2.10944 4.72994 0
M  V30 3067 H 285.598 -0.406406 4.15517 0
M  V30 3068 H 286.988 3.24778 5.88191 0
M  V30 3069 N 289.708 -1.40897 0.706093 0
M  V30 3070 C 290.658 -2.27987 0.0240746 0
M  V30 3071 C 291.642 -1.42759 -0.742204 0
M  V30 3072 O 292.834 -1.65936 -0.615966 0
M  V30 3073 C 289.963 -3.31186 -0.903907 0
M  V30 3074 C 289.049 -4.2389 -0.133318 0
M  V30 3075 N 289.44 -4.98113 0.878444 0
M  V30 3076 C 287.738 -4.44485 -0.367269 0
M  V30 3077 C 288.439 -5.6604 1.34064 0
M  V30 3078 N 287.415 -5.39522 0.664565 0
M  V30 3079 H 291.217 -2.82812 0.799658 0
M  V30 3080 H 288.731 -1.53235 0.537845 0
M  V30 3081 H 290.728 -3.92413 -1.40775 0
M  V30 3082 H 289.388 -2.77922 -1.67897 0
M  V30 3083 H 290.399 -5.02364 1.25901 0
M  V30 3084 H 287.076 -4.02213 -1.1194 0
M  V30 3085 H 288.466 -6.35524 2.1808 0
M  V30 3086 N 291.186 -0.45159 -1.50991 0
M  V30 3087 C 292.435 0.111653 -2.01391 0
M  V30 3088 C 292.748 1.42529 -1.33959 0
M  V30 3089 O 293.954 2.07232 -1.75405 0
M  V30 3090 C 292.41 0.249514 -3.59034 0
M  V30 3091 C 292.018 -1.05453 -4.35412 0
M  V30 3092 C 293.762 0.765762 -4.17536 0
M  V30 3093 C 291.669 -0.881529 -5.84793 0
M  V30 3094 H 290.599 0.0455022 -0.752626 0
M  V30 3095 H 293.25 -0.583524 -1.73975 0
M  V30 3096 H 291.632 1.00803 -3.82955 0
M  V30 3097 H 292.806 -1.82248 -4.23229 0
M  V30 3098 H 291.121 -1.50039 -3.88429 0
M  V30 3099 H 293.718 0.911913 -5.26866 0
M  V30 3100 H 294.061 1.75201 -3.77638 0
M  V30 3101 H 294.594 0.0651744 -3.97747 0
M  V30 3102 H 291.333 -1.84057 -6.29129 0
M  V30 3103 H 290.853 -0.153625 -5.99603 0
M  V30 3104 H 292.532 -0.540363 -6.4474 0
M  V30 3105 N 292.664 1.56529 -0.183458 0
M  V30 3106 C 293.889 2.02064 0.467428 0
M  V30 3107 C 294.314 1.06282 1.55196 0
M  V30 3108 O 293.672 0.0443565 1.81246 0
M  V30 3109 C 293.72 3.46122 1.01153 0
M  V30 3110 O 292.824 3.53437 2.12499 0
M  V30 3111 H 292.165 0.654726 0.110588 0
M  V30 3112 H 294.695 2.02521 -0.290917 0
M  V30 3113 H 294.705 3.85676 1.33108 0
M  V30 3114 H 293.38 4.15331 0.217533 0
M  V30 3115 H 291.957 3.2575 1.81497 0
M  V30 3116 N 294.142 -0.090211 1.57342 0
M  V30 3117 C 295.052 -1.12735 2.05738 0
M  V30 3118 C 296.068 -1.43557 0.983231 0
M  V30 3119 O 297.244 -1.54101 1.29672 0
M  V30 3120 C 294.309 -2.42659 2.47624 0
M  V30 3121 C 293.37 -2.18975 3.69254 0
M  V30 3122 C 292.603 -3.42704 4.09133 0
M  V30 3123 O 292.826 -4.51127 3.49057 0
M  V30 3124 O 291.76 -3.32003 5.02053 0
M  V30 3125 H 295.586 -0.746279 2.94388 0
M  V30 3126 H 293.171 -0.303064 1.46294 0
M  V30 3127 H 295.053 -3.19155 2.7517 0
M  V30 3128 H 293.728 -2.80182 1.62109 0
M  V30 3129 H 292.635 -1.40244 3.46818 0
M  V30 3130 H 293.968 -1.86342 4.55563 0
M  V30 3131 N 295.62 -1.53406 -0.361157 0
M  V30 3132 C 296.567 -1.80156 -1.44265 0
M  V30 3133 C 297.537 -0.646183 -1.53015 0
M  V30 3134 O 298.722 -0.888818 -1.68833 0
M  V30 3135 C 295.862 -2.00116 -2.81154 0
M  V30 3136 C 294.975 -3.27833 -2.81335 0
M  V30 3137 C 294.11 -3.37957 -4.09828 0
M  V30 3138 C 293.149 -4.59689 -4.04168 0
M  V30 3139 N 292.286 -4.66942 -5.24318 0
M  V30 3140 H 297.126 -2.72438 -1.20754 0
M  V30 3141 H 294.663 -1.34954 -0.585296 0
M  V30 3142 H 296.621 -2.09677 -3.60682 0
M  V30 3143 H 295.251 -1.11167 -3.03054 0
M  V30 3144 H 294.303 -3.27204 -1.94014 0
M  V30 3145 H 295.615 -4.17442 -2.73027 0
M  V30 3146 H 294.769 -3.46853 -4.97773 0
M  V30 3147 H 293.508 -2.46372 -4.20894 0
M  V30 3148 H 292.513 -4.50889 -3.14609 0
M  V30 3149 H 293.738 -5.5262 -3.947 0
M  V30 3150 H 291.684 -3.7826 -5.35962 0
M  V30 3151 H 291.601 -5.50462 -5.18197 0
M  V30 3152 H 292.869 -4.80127 -6.14084 0
M  V30 3153 N 297.098 0.621204 -1.44841 0
M  V30 3154 C 298.061 1.71459 -1.521 0
M  V30 3155 C 299.061 1.55696 -0.401933 0
M  V30 3156 O 300.251 1.61011 -0.664925 0
M  V30 3157 C 297.383 3.10624 -1.40447 0
M  V30 3158 H 298.576 1.66394 -2.49506 0
M  V30 3159 H 296.129 0.835745 -1.3208 0
M  V30 3160 H 296.864 3.21277 -0.441737 0
M  V30 3161 H 296.649 3.23473 -2.21602 0
M  V30 3162 H 298.139 3.90293 -1.4853 0
M  V30 3163 N 298.576 1.31904 0.862503 0
M  V30 3164 C 299.987 1.19803 1.43193 0
M  V30 3165 C 300.338 -0.192567 1.95253 0
M  V30 3166 O 299.463 -1.09081 1.86896 0
M  V30 3167 C 300.058 2.16883 2.60283 0
M  V30 3168 C 298.617 2.08692 3.13248 0
M  V30 3169 C 297.764 2.05691 1.85975 0
M  V30 3170 H 300.715 1.43846 0.670365 0
M  V30 3171 H 300.736 1.76278 3.37204 0
M  V30 3172 H 300.248 3.18083 2.22363 0
M  V30 3173 H 298.349 1.10713 3.55771 0
M  V30 3174 H 298.462 2.9815 3.75025 0
M  V30 3175 H 296.826 1.50814 2.05249 0
M  V30 3176 H 297.609 3.08659 1.50282 0
M  V30 3177 N 300.054 -1.07777 1.14986 0
M  V30 3178 C 300.984 -2.16865 0.865557 0
M  V30 3179 C 301.965 -1.69123 -0.182083 0
M  V30 3180 O 303.15 -1.94164 -0.0373815 0
M  V30 3181 C 300.28 -3.45539 0.349313 0
M  V30 3182 C 299.234 -4.06708 1.33313 0
M  V30 3183 C 298.56 -5.30411 0.675918 0
M  V30 3184 C 299.86 -4.47241 2.69764 0
M  V30 3185 H 301.554 -2.40905 1.77778 0
M  V30 3186 H 299.1 -1.15781 0.856203 0
M  V30 3187 H 301.053 -4.21174 0.137983 0
M  V30 3188 H 299.777 -3.21072 -0.598362 0
M  V30 3189 H 298.436 -3.33112 1.53075 0
M  V30 3190 H 298.084 -5.02232 -0.277767 0
M  V30 3191 H 297.784 -5.72293 1.33244 0
M  V30 3192 H 299.308 -6.08755 0.474262 0
M  V30 3193 H 300.722 -5.14025 2.53873 0
M  V30 3194 H 299.119 -5.00062 3.3175 0
M  V30 3195 H 300.189 -3.58818 3.26156 0
M  V30 3196 N 301.532 -0.945985 -1.26051 0
M  V30 3197 C 302.495 -0.463897 -2.24456 0
M  V30 3198 C 303.495 0.427655 -1.55009 0
M  V30 3199 O 304.685 0.226157 -1.72726 0
M  V30 3200 C 301.817 0.330812 -3.39291 0
M  V30 3201 H 303.01 -1.33357 -2.68619 0
M  V30 3202 H 300.563 -0.728416 -1.38289 0
M  V30 3203 H 301.298 1.21852 -3.00537 0
M  V30 3204 H 301.083 -0.308679 -3.90883 0
M  V30 3205 H 302.573 0.657865 -4.12386 0
M  V30 3206 N 303.011 1.40521 -0.713556 0
M  V30 3207 C 304.26 2.00155 -0.249192 0
M  V30 3208 C 304.573 1.57224 1.16362 0
M  V30 3209 O 305.779 2.09542 1.72639 0
M  V30 3210 C 304.235 3.5773 -0.3946 0
M  V30 3211 C 303.843 4.09635 -1.81392 0
M  V30 3212 C 305.587 4.24499 0.00907364 0
M  V30 3213 C 303.494 5.59707 -1.91003 0
M  V30 3214 H 302.424 0.74868 -0.0894114 0
M  V30 3215 H 305.075 1.60784 -0.884352 0
M  V30 3216 H 303.457 3.94792 0.30911 0
M  V30 3217 H 304.631 3.83955 -2.54785 0
M  V30 3218 H 302.946 3.55456 -2.16888 0
M  V30 3219 H 305.543 5.34683 -0.0420404 0
M  V30 3220 H 305.886 4.02824 1.05065 0
M  V30 3221 H 306.419 3.92536 -0.645007 0
M  V30 3222 H 303.158 5.86234 -2.93275 0
M  V30 3223 H 302.678 5.87258 -1.22019 0
M  V30 3224 H 304.357 6.24776 -1.6812 0
M  V30 3225 N 304.489 0.459591 1.5075 0
M  V30 3226 C 305.452 -0.329093 2.26825 0
M  V30 3227 C 306.452 -0.930481 1.31144 0
M  V30 3228 O 307.642 -0.801453 1.54669 0
M  V30 3229 C 304.774 -1.46768 3.07688 0
M  V30 3230 H 305.967 0.337924 2.9799 0
M  V30 3231 H 303.52 0.213336 1.54837 0
M  V30 3232 H 304.255 -2.17009 2.40993 0
M  V30 3233 H 304.04 -1.04238 3.77991 0
M  V30 3234 H 305.53 -2.02433 3.65254 0
M  V30 3235 N 305.967 -1.56429 0.191757 0
M  V30 3236 C 307.213 -1.97777 -0.448554 0
M  V30 3237 C 307.546 -1.07847 -1.61501 0
M  V30 3238 O 306.821 -0.129774 -1.94067 0
M  V30 3239 C 307.104 -3.48362 -0.911906 0
M  V30 3240 C 306.957 -4.4907 0.256136 0
M  V30 3241 C 308.276 -4.02561 -1.77857 0
M  V30 3242 H 305.395 -0.719071 -0.161572 0
M  V30 3243 H 308.037 -1.87896 0.282007 0
M  V30 3244 H 306.187 -3.56914 -1.53442 0
M  V30 3245 H 307.859 -4.5256 0.893733 0
M  V30 3246 H 306.102 -4.24181 0.908436 0
M  V30 3247 H 306.773 -5.51889 -0.11053 0
M  V30 3248 H 309.249 -3.96767 -1.25359 0
M  V30 3249 H 308.125 -5.08301 -2.07174 0
M  V30 3250 H 308.386 -3.47616 -2.73158 0
M  V30 3251 N 307.445 0.0818655 -1.57387 0
M  V30 3252 C 308.694 0.781681 -1.85937 0
M  V30 3253 C 309.007 1.79246 -0.782957 0
M  V30 3254 O 310.213 2.54112 -0.955987 0
M  V30 3255 C 308.669 1.44109 -3.29789 0
M  V30 3256 C 308.277 0.469396 -4.45534 0
M  V30 3257 C 310.021 2.12386 -3.67549 0
M  V30 3258 C 307.928 1.13415 -5.80423 0
M  V30 3259 H 306.858 0.295682 -0.693605 0
M  V30 3260 H 309.509 0.0348051 -1.83467 0
M  V30 3261 H 307.891 2.23588 -3.2684 0
M  V30 3262 H 309.065 -0.294856 -4.59856 0
M  V30 3263 H 307.38 -0.108383 -4.16259 0
M  V30 3264 H 309.977 2.62878 -4.65617 0
M  V30 3265 H 310.32 2.91877 -2.96839 0
M  V30 3266 H 310.853 1.39751 -3.72444 0
M  V30 3267 H 307.592 0.379771 -6.54399 0
M  V30 3268 H 307.112 1.8695 -5.69921 0
M  V30 3269 H 308.791 1.65686 -6.25426 0
M  V30 3270 N 308.923 1.53595 0.353017 0
M  V30 3271 C 309.87 1.80919 1.43308 0
M  V30 3272 C 310.84 0.654288 1.5267 0
M  V30 3273 O 312.025 0.897759 1.6836 0
M  V30 3274 C 309.165 2.01605 2.80089 0
M  V30 3275 C 308.278 3.29321 2.79593 0
M  V30 3276 C 307.413 3.40125 4.0803 0
M  V30 3277 C 306.452 4.61826 4.01725 0
M  V30 3278 N 305.589 4.69716 5.21834 0
M  V30 3279 H 310.429 2.73074 1.19308 0
M  V30 3280 H 307.966 1.35263 0.578131 0
M  V30 3281 H 309.924 2.11586 3.59565 0
M  V30 3282 H 308.554 1.12772 3.0246 0
M  V30 3283 H 307.606 3.28229 1.92276 0
M  V30 3284 H 308.918 4.18884 2.70809 0
M  V30 3285 H 308.072 3.49488 4.95927 0
M  V30 3286 H 306.811 2.48601 4.19582 0
M  V30 3287 H 305.816 4.52552 3.12213 0
M  V30 3288 H 307.041 5.54705 3.91764 0
M  V30 3289 H 304.987 3.81097 5.33948 0
M  V30 3290 H 304.904 5.53202 5.1527 0
M  V30 3291 H 306.172 4.83376 6.11529 0
M  V30 3292 N 310.401 -0.613514 1.45168 0
M  V30 3293 C 311.311 -1.75296 1.55912 0
M  V30 3294 C 312.327 -1.68244 0.443856 0
M  V30 3295 O 313.503 -1.88706 0.70371 0
M  V30 3296 C 310.568 -3.1174 1.5172 0
M  V30 3297 C 309.629 -3.30291 2.74238 0
M  V30 3298 C 308.862 -4.60226 2.70236 0
M  V30 3299 O 309.085 -5.42168 1.77229 0
M  V30 3300 O 308.019 -4.81361 3.61352 0
M  V30 3301 H 311.845 -1.69183 2.52212 0
M  V30 3302 H 309.43 -0.776886 1.27612 0
M  V30 3303 H 311.312 -3.93044 1.51968 0
M  V30 3304 H 309.987 -3.18357 0.585697 0
M  V30 3305 H 308.894 -2.48598 2.79553 0
M  V30 3306 H 310.227 -3.28547 3.66494 0
M  V30 3307 N 311.879 -1.3236 -0.855495 0
M  V30 3308 C 312.789 -1.23221 -1.99634 0
M  V30 3309 C 313.805 -0.145983 -1.73387 0
M  V30 3310 O 314.981 -0.366502 -1.98037 0
M  V30 3311 C 312.046 -0.954782 -3.33294 0
M  V30 3312 C 311.107 -2.12937 -3.72769 0
M  V30 3313 C 310.34 -1.86508 -5.00051 0
M  V30 3314 O 310.563 -0.807231 -5.64659 0
M  V30 3315 O 309.497 -2.72591 -5.36636 0
M  V30 3316 H 313.323 -2.19126 -2.1028 0
M  V30 3317 H 310.908 -1.12241 -0.986018 0
M  V30 3318 H 312.79 -0.816519 -4.13414 0
M  V30 3319 H 311.465 -0.0258854 -3.2369 0
M  V30 3320 H 310.372 -2.3231 -2.93228 0
M  V30 3321 H 311.705 -3.04102 -3.87018 0
M  V30 3322 N 313.357 1.07166 -1.15556 0
M  V30 3323 C 314.287 2.16403 -0.877046 0
M  V30 3324 C 315.268 1.69217 0.173111 0
M  V30 3325 O 316.453 1.94181 0.027084 0
M  V30 3326 C 313.583 3.45349 -0.367632 0
M  V30 3327 C 312.537 4.05995 -1.35468 0
M  V30 3328 C 311.863 5.30045 -0.704038 0
M  V30 3329 C 313.163 4.45804 -2.72132 0
M  V30 3330 H 314.857 2.39959 -1.79053 0
M  V30 3331 H 312.403 1.15325 -0.862331 0
M  V30 3332 H 314.356 4.21095 -0.160317 0
M  V30 3333 H 313.08 3.21385 0.581326 0
M  V30 3334 H 311.739 3.32296 -1.54839 0
M  V30 3335 H 311.387 5.02373 0.251128 0
M  V30 3336 H 311.087 5.71579 -1.36277 0
M  V30 3337 H 312.611 6.08495 -0.50654 0
M  V30 3338 H 314.025 5.12671 -2.56595 0
M  V30 3339 H 312.422 4.98296 -3.34397 0
M  V30 3340 H 313.492 3.57083 -3.28054 0
M  V30 3341 N 314.835 0.952656 1.25548 0
M  V30 3342 C 316.251 0.656769 1.4546 0
M  V30 3343 C 316.451 -0.78633 1.85524 0
M  V30 3344 O 315.507 -1.56183 1.98402 0
M  V30 3345 C 316.82 1.62801 2.52817 0
M  V30 3346 C 318.368 1.63897 2.66659 0
M  V30 3347 C 318.843 2.5978 3.77198 0
M  V30 3348 N 320.334 2.58133 3.84606 0
M  V30 3349 C 321.069 3.29003 4.69621 0
M  V30 3350 N 320.565 4.09339 5.58939 0
M  V30 3351 N 322.358 3.179 4.63569 0
M  V30 3352 H 314.509 1.88526 0.978344 0
M  V30 3353 H 316.772 0.810815 0.491206 0
M  V30 3354 H 316.478 2.65869 2.30232 0
M  V30 3355 H 316.352 1.38898 3.50695 0
M  V30 3356 H 318.739 0.615481 2.8861 0
M  V30 3357 H 318.82 1.91858 1.69187 0
M  V30 3358 H 318.464 3.62254 3.55997 0
M  V30 3359 H 318.394 2.29105 4.7415 0
M  V30 3360 H 320.885 1.99809 3.20757 0
M  V30 3361 H 321.198 4.6034 6.20731 0
M  V30 3362 H 319.543 4.13438 5.58654 0
M  V30 3363 H 322.734 2.54612 3.92798 0
M  V30 3364 H 322.907 3.73398 5.29602 0
M  V30 3365 N 316.313 -1.40141 0.720998 0
M  V30 3366 C 317.559 -2.01084 0.263231 0
M  V30 3367 C 317.892 -1.57052 -1.14229 0
M  V30 3368 O 317.167 -0.793027 -1.77599 0
M  V30 3369 C 317.45 -3.58401 0.349344 0
M  V30 3370 C 317.303 -4.12491 1.79363 0
M  V30 3371 C 318.622 -4.39231 -0.276351 0
M  V30 3372 H 315.741 -0.730572 0.0971228 0
M  V30 3373 H 318.383 -1.66543 0.914518 0
M  V30 3374 H 316.533 -3.87958 -0.205165 0
M  V30 3375 H 318.205 -3.93711 2.40394 0
M  V30 3376 H 316.448 -3.66576 2.31958 0
M  V30 3377 H 317.119 -5.21646 1.80524 0
M  V30 3378 H 319.595 -4.15637 0.196184 0
M  V30 3379 H 318.471 -5.48586 -0.185681 0
M  V30 3380 H 318.732 -4.20643 -1.36059 0
M  V30 3381 N 317.792 -0.46758 -1.50504 0
M  V30 3382 C 318.722 0.318381 -2.31319 0
M  V30 3383 C 319.703 0.993564 -1.38066 0
M  V30 3384 O 320.888 0.991411 -1.66987 0
M  V30 3385 C 318.018 1.40275 -3.17711 0
M  V30 3386 C 316.972 0.849373 -4.19487 0
M  V30 3387 C 316.298 2.03177 -4.94594 0
M  V30 3388 C 317.598 -0.136942 -5.2212 0
M  V30 3389 H 319.292 -0.356106 -2.97275 0
M  V30 3390 H 316.838 -0.172703 -1.42961 0
M  V30 3391 H 318.791 1.96004 -3.73042 0
M  V30 3392 H 317.515 2.10596 -2.49634 0
M  V30 3393 H 316.174 0.314076 -3.65252 0
M  V30 3394 H 315.822 2.72187 -4.22993 0
M  V30 3395 H 315.522 1.66774 -5.63436 0
M  V30 3396 H 317.046 2.59403 -5.52759 0
M  V30 3397 H 318.46 0.331056 -5.72343 0
M  V30 3398 H 316.857 -0.41507 -5.98663 0
M  V30 3399 H 317.927 -1.06398 -4.73083 0
M  V30 3400 N 319.27 1.56325 -0.20005 0
M  V30 3401 C 320.518 1.97329 0.436547 0
M  V30 3402 C 320.839 1.08826 1.61808 0
M  V30 3403 O 320.109 0.160604 1.95241 0
M  V30 3404 H 318.689 0.728714 0.164272 0
M  V30 3405 H 321.351 1.92761 -0.287937 0
M  V30 3406 H 320.447 3.02264 0.777353 0
M  V30 3407 N 320.748 -0.0735177 1.57428 0
M  V30 3408 C 321.658 -1.10547 2.06922 0
M  V30 3409 C 322.674 -1.42506 0.998402 0
M  V30 3410 O 323.85 -1.52717 1.31299 0
M  V30 3411 C 320.915 -2.40019 2.50184 0
M  V30 3412 C 319.976 -2.15046 3.71556 0
M  V30 3413 C 319.209 -3.38345 4.12745 0
M  V30 3414 O 319.432 -4.47399 3.53822 0
M  V30 3415 O 318.366 -3.2666 5.05546 0
M  V30 3416 H 322.192 -0.715013 2.95163 0
M  V30 3417 H 319.777 -0.287531 1.46607 0
M  V30 3418 H 321.659 -3.16218 2.78539 0
M  V30 3419 H 320.334 -2.78447 1.65072 0
M  V30 3420 H 319.241 -1.36558 3.48285 0
M  V30 3421 H 320.574 -1.81499 4.57514 0
M  V30 3422 N 322.226 -1.5378 -0.344866 0
M  V30 3423 C 323.189 -1.80981 -1.40637 0
M  V30 3424 C 324.189 -0.680816 -1.45676 0
M  V30 3425 O 325.379 -0.949095 -1.46075 0
M  V30 3426 C 322.511 -1.95063 -2.79577 0
M  V30 3427 H 323.704 -2.75803 -1.17783 0
M  V30 3428 H 321.257 -1.45173 -0.579181 0
M  V30 3429 H 321.992 -1.02379 -3.07716 0
M  V30 3430 H 321.777 -2.77198 -2.77315 0
M  V30 3431 H 323.267 -2.17629 -3.56409 0
M  V30 3432 N 323.704 0.605807 -1.45491 0
M  V30 3433 C 324.654 1.71074 -1.50724 0
M  V30 3434 C 325.638 1.5658 -0.37033 0
M  V30 3435 O 326.83 1.65887 -0.617299 0
M  V30 3436 C 323.959 3.0983 -1.47852 0
M  V30 3437 C 323.045 3.29704 -2.66751 0
M  V30 3438 N 323.436 3.19831 -3.91844 0
M  V30 3439 C 321.734 3.60579 -2.62486 0
M  V30 3440 C 322.435 3.41083 -4.71208 0
M  V30 3441 N 321.411 3.65157 -4.02693 0
M  V30 3442 H 325.213 1.61937 -2.45263 0
M  V30 3443 H 322.727 0.80912 -1.40808 0
M  V30 3444 H 324.724 3.89101 -1.49686 0
M  V30 3445 H 323.384 3.20115 -0.543714 0
M  V30 3446 H 324.395 2.98194 -4.23439 0
M  V30 3447 H 321.072 3.7769 -1.77922 0
M  V30 3448 H 322.462 3.38828 -5.80211 0
M  V30 3449 N 325.182 1.32811 0.848464 0
M  V30 3450 C 326.41 1.26739 1.63538 0
M  V30 3451 C 326.825 -0.163484 1.88091 0
M  V30 3452 O 326.182 -1.10258 1.45429 0
M  V30 3453 C 326.233 2.03013 2.99112 0
M  V30 3454 O 325.954 3.40518 2.75643 0
M  V30 3455 C 327.455 2.04038 3.93552 0
M  V30 3456 H 324.675 0.437024 0.509167 0
M  V30 3457 H 327.219 1.75033 1.05753 0
M  V30 3458 H 325.374 1.58426 3.53525 0
M  V30 3459 H 325.788 3.79635 3.61908 0
M  V30 3460 H 327.262 2.61877 4.85926 0
M  V30 3461 H 327.739 1.0282 4.26995 0
M  V30 3462 H 328.345 2.486 3.45077 0
M  V30 3463 N 326.66 -1.06551 1.16123 0
M  V30 3464 C 327.593 -2.13382 0.80892 0
M  V30 3465 C 328.571 -1.61128 -0.21827 0
M  V30 3466 O 329.755 -1.88219 -0.102952 0
M  V30 3467 C 326.882 -3.38083 0.204303 0
M  V30 3468 C 325.928 -4.09133 1.20469 0
M  V30 3469 S 326.761 -4.5948 2.75024 0
M  V30 3470 C 327.917 -5.87446 2.16005 0
M  V30 3471 H 328.15 -2.42937 1.71373 0
M  V30 3472 H 325.683 -1.18947 0.984428 0
M  V30 3473 H 327.641 -4.10268 -0.138081 0
M  V30 3474 H 326.302 -3.0669 -0.678234 0
M  V30 3475 H 325.495 -4.98685 0.730019 0
M  V30 3476 H 325.097 -3.4295 1.49202 0
M  V30 3477 H 327.389 -6.60065 1.5271 0
M  V30 3478 H 328.332 -6.39639 3.03756 0
M  V30 3479 H 328.74 -5.41354 1.59989 0
M  V30 3480 N 328.138 -0.959301 -1.25041 0
M  V30 3481 C 329.086 -0.474437 -2.2771 0
M  V30 3482 C 330.08 0.457697 -1.631 0
M  V30 3483 O 331.286 0.333912 -1.76876 0
M  V30 3484 H 327.661 -0.134936 -0.739795 0
M  V30 3485 H 329.632 -1.35251 -2.65988 0
M  V30 3486 C 328.381 0.227884 -3.46952 0
M  V30 3487 H 327.704 -0.480248 -3.96905 0
M  V30 3488 H 329.144 0.531091 -4.20661 0
M  V30 3489 C 327.603 1.452 -3.04004 0
M  V30 3490 O 328.133 2.54949 -3.10426 0
M  V30 3491 N 326.339 1.31502 -2.59144 0
M  V30 3492 H 325.886 0.422065 -2.54119 0
M  V30 3493 H 325.844 2.13521 -2.30773 0
M  V30 3494 N 329.616 1.39756 -0.72842 0
M  V30 3495 C 330.841 2.05472 -0.282159 0
M  V30 3496 C 331.266 1.54549 1.07221 0
M  V30 3497 O 330.624 0.686372 1.67805 0
M  V30 3498 C 330.672 3.59462 -0.286264 0
M  V30 3499 O 329.776 4.05918 0.728298 0
M  V30 3500 H 329.117 0.651226 -0.129618 0
M  V30 3501 H 331.647 1.78915 -0.992499 0
M  V30 3502 H 331.657 4.07798 -0.128373 0
M  V30 3503 H 330.332 3.95889 -1.27456 0
M  V30 3504 H 328.909 3.69012 0.537081 0
M  V30 3505 N 331.094 0.475555 1.50254 0
M  V30 3506 C 332.371 -0.139685 1.95101 0
M  V30 3507 C 332.751 -1.56555 1.41611 0
M  V30 3508 O 332.099 -2.19956 0.618993 0
M  V30 3509 C 332.309 -0.0784298 3.48912 0
M  V30 3510 C 333.657 -0.265095 4.23772 0
M  V30 3511 O 334.681 -0.154808 3.55863 0
M  V30 3512 O 333.54 -0.488327 5.44314 0
M  V30 3513 H 330.634 -0.109236 0.819754 0
M  V30 3514 H 333.18 0.536276 1.61004 0
M  V30 3515 H 331.952 0.916918 3.80405 0
M  V30 3516 H 331.575 -0.795655 3.89558 0
M  V30 3517 N 332.573 -1.56217 0.208337 0
M  V30 3518 C 333.483 -2.23316 -0.718836 0
M  V30 3519 C 334.499 -1.23648 -1.22422 0
M  V30 3520 O 335.675 -1.56423 -1.26861 0
M  V30 3521 C 332.74 -2.88968 -1.91568 0
M  V30 3522 C 331.801 -4.03943 -1.45357 0
M  V30 3523 C 331.034 -4.66455 -2.59337 0
M  V30 3524 O 331.257 -4.27919 -3.77149 0
M  V30 3525 O 330.191 -5.55686 -2.31293 0
M  V30 3526 H 334.017 -3.03182 -0.177315 0
M  V30 3527 H 331.602 -1.49384 -0.0215402 0
M  V30 3528 H 333.484 -3.30455 -2.61491 0
M  V30 3529 H 332.159 -2.12071 -2.44556 0
M  V30 3530 H 331.066 -3.67052 -0.722746 0
M  V30 3531 H 332.399 -4.82543 -0.970219 0
M  V30 3532 N 334.051 0.0651679 -1.57465 0
M  V30 3533 C 335.298 0.763063 -1.87573 0
M  V30 3534 C 335.626 1.77242 -0.800961 0
M  V30 3535 O 334.881 1.94651 0.202316 0
M  V30 3536 C 335.18 1.50081 -3.24362 0
M  V30 3537 C 334.846 0.630816 -4.46466 0
M  V30 3538 C 333.508 0.391082 -4.79608 0
M  V30 3539 C 335.86 0.0279465 -5.21193 0
M  V30 3540 C 333.188 -0.460894 -5.84887 0
M  V30 3541 C 335.54 -0.811522 -6.27373 0
M  V30 3542 C 334.204 -1.06106 -6.59013 0
M  V30 3543 H 333.474 0.279224 -0.686378 0
M  V30 3544 H 336.121 0.0236726 -1.91485 0
M  V30 3545 H 334.426 2.31258 -3.16271 0
M  V30 3546 H 336.123 2.04571 -3.44894 0
M  V30 3547 H 332.713 0.8278 -4.2053 0
M  V30 3548 H 336.897 0.200262 -4.95896 0
M  V30 3549 H 332.153 -0.662907 -6.07796 0
M  V30 3550 H 336.327 -1.28537 -6.84435 0
M  V30 3551 H 333.954 -1.723 -7.40417 0
M  V30 3552 N 335.529 1.53961 0.336706 0
M  V30 3553 C 336.439 1.85432 1.43708 0
M  V30 3554 C 337.455 0.745053 1.57242 0
M  V30 3555 O 338.631 1.03804 1.72588 0
M  V30 3556 C 335.696 2.06349 2.78605 0
M  V30 3557 C 334.757 3.30191 2.74358 0
M  V30 3558 C 333.99 3.50101 4.02822 0
M  V30 3559 O 334.213 2.7371 5.00439 0
M  V30 3560 O 333.147 4.43547 4.06878 0
M  V30 3561 H 336.973 2.78975 1.20028 0
M  V30 3562 H 334.558 1.39701 0.52952 0
M  V30 3563 H 336.44 2.21513 3.58483 0
M  V30 3564 H 335.115 1.15995 3.02203 0
M  V30 3565 H 334.022 3.20425 1.93078 0
M  V30 3566 H 335.355 4.2056 2.55715 0
M  V30 3567 N 337.007 -0.598083 1.45811 0
M  V30 3568 C 338.423 -0.919847 1.30426 0
M  V30 3569 C 338.623 -1.99759 0.264303 0
M  V30 3570 O 337.679 -2.50221 -0.338472 0
M  V30 3571 C 338.992 -1.35176 2.68603 0
M  V30 3572 C 340.54 -1.46546 2.76574 0
M  V30 3573 C 341.015 -1.9311 4.15298 0
M  V30 3574 N 342.506 -2.00328 4.1764 0
M  V30 3575 C 343.241 -2.37599 5.21856 0
M  V30 3576 N 342.737 -2.73771 6.36413 0
M  V30 3577 N 344.53 -2.38021 5.09218 0
M  V30 3578 H 336.681 0.114111 2.12093 0
M  V30 3579 H 338.944 -0.0116121 0.947929 0
M  V30 3580 H 338.65 -0.633969 3.45939 0
M  V30 3581 H 338.524 -2.3164 2.97696 0
M  V30 3582 H 340.911 -2.17415 1.99537 0
M  V30 3583 H 340.992 -0.483727 2.51185 0
M  V30 3584 H 340.636 -1.22824 4.92825 0
M  V30 3585 H 340.566 -2.92213 4.38086 0
M  V30 3586 H 343.057 -1.74925 3.34977 0
M  V30 3587 H 343.37 -3.0112 7.11721 0
M  V30 3588 H 341.715 -2.71445 6.39799 0
M  V30 3589 H 344.906 -2.09174 4.18765 0
M  V30 3590 H 345.079 -2.66741 5.90554 0
M  V30 3591 N 338.485 -1.33259 -0.841409 0
M  V30 3592 C 339.734 -1.23921 -1.59143 0
M  V30 3593 C 340.047 0.1941 -1.94635 0
M  V30 3594 O 341.253 0.409474 -2.68394 0
M  V30 3595 C 339.709 -2.17119 -2.87032 0
M  V30 3596 C 339.317 -3.65606 -2.58914 0
M  V30 3597 C 341.061 -2.16648 -3.65053 0
M  V30 3598 C 338.968 -4.50726 -3.82884 0
M  V30 3599 H 337.898 -0.460264 -0.597221 0
M  V30 3600 H 340.549 -1.58307 -0.927959 0
M  V30 3601 H 338.931 -1.75663 -3.54906 0
M  V30 3602 H 340.105 -4.15487 -1.99267 0
M  V30 3603 H 338.42 -3.68341 -1.942 0
M  V30 3604 H 341.017 -2.77474 -4.57069 0
M  V30 3605 H 341.36 -1.16088 -3.99787 0
M  V30 3606 H 341.893 -2.56453 -3.041 0
M  V30 3607 H 338.632 -5.52151 -3.53283 0
M  V30 3608 H 338.152 -4.0559 -4.41879 0
M  V30 3609 H 339.831 -4.64401 -4.50489 0
M  V30 3610 N 339.963 1.05934 -1.16686 0
M  V30 3611 C 340.895 2.13468 -0.834503 0
M  V30 3612 C 341.908 1.62013 0.15984 0
M  V30 3613 O 343.097 1.7838 -0.0654228 0
M  V30 3614 C 340.197 3.3817 -0.222361 0
M  V30 3615 C 339.37 4.18928 -1.25771 0
M  V30 3616 C 338.429 5.21985 -0.664703 0
M  V30 3617 O 337.455 5.53334 -1.33453 0
M  V30 3618 N 338.657 5.77919 0.546834 0
M  V30 3619 H 341.422 2.42578 -1.75999 0
M  V30 3620 H 338.983 1.21967 -1.06469 0
M  V30 3621 H 340.975 4.04266 0.187472 0
M  V30 3622 H 339.545 3.06655 0.606758 0
M  V30 3623 H 338.765 3.48433 -1.84358 0
M  V30 3624 H 340.053 4.69687 -1.95631 0
M  V30 3625 H 339.451 5.54721 1.10912 0
M  V30 3626 H 338.008 6.45573 0.898829 0
M  V30 3627 N 341.441 0.965919 1.2453 0
M  V30 3628 C 342.689 0.625593 1.92174 0
M  V30 3629 C 343.01 -0.841652 1.75901 0
M  V30 3630 O 342.28 -1.60061 1.12948 0
M  V30 3631 H 340.86 0.228388 0.71123 0
M  V30 3632 H 343.522 1.2266 1.51461 0
M  V30 3633 H 342.618 0.864653 2.99884 0
M  V30 3634 N 342.919 -1.39368 0.735821 0
M  V30 3635 C 343.852 -2.28155 0.0451175 0
M  V30 3636 C 344.83 -1.44433 -0.746852 0
M  V30 3637 O 346.014 -1.73823 -0.729237 0
M  V30 3638 C 343.141 -3.253 -0.943266 0
M  V30 3639 C 342.187 -4.25826 -0.239685 0
M  V30 3640 S 343.02 -5.25166 1.04693 0
M  V30 3641 C 344.176 -6.2587 0.0611639 0
M  V30 3642 H 344.409 -2.86388 0.79807 0
M  V30 3643 H 341.942 -1.45104 0.527653 0
M  V30 3644 H 343.9 -3.81789 -1.50824 0
M  V30 3645 H 342.561 -2.66085 -1.66906 0
M  V30 3646 H 341.754 -4.94229 -0.987596 0
M  V30 3647 H 341.356 -3.73141 0.253274 0
M  V30 3648 H 343.648 -6.73007 -0.778941 0
M  V30 3649 H 344.591 -7.04508 0.712362 0
M  V30 3650 H 344.999 -5.63639 -0.311602 0
M  V30 3651 N 344.397 -0.483516 -1.5 0
M  V30 3652 C 345.813 -0.138404 -1.58999 0
M  V30 3653 C 346.013 1.35597 -1.4905 0
M  V30 3654 O 345.069 2.13039 -1.35539 0
M  V30 3655 C 346.382 -0.699658 -2.92447 0
M  V30 3656 C 347.93 -0.664195 -3.05872 0
M  V30 3657 C 348.405 -1.20321 -4.41913 0
M  V30 3658 N 349.896 -1.16315 -4.48358 0
M  V30 3659 C 350.631 -1.55058 -5.52037 0
M  V30 3660 N 350.127 -2.01311 -6.62907 0
M  V30 3661 N 351.92 -1.46584 -5.42651 0
M  V30 3662 H 344.071 -1.45529 -1.5471 0
M  V30 3663 H 346.334 -0.60258 -0.731848 0
M  V30 3664 H 346.04 -1.747 -3.05242 0
M  V30 3665 H 345.914 -0.150194 -3.76901 0
M  V30 3666 H 348.301 0.374272 -2.92717 0
M  V30 3667 H 348.382 -1.25061 -2.23144 0
M  V30 3668 H 348.026 -2.24037 -4.55818 0
M  V30 3669 H 347.956 -0.592896 -5.23252 0
M  V30 3670 H 350.447 -0.824058 -3.68806 0
M  V30 3671 H 350.76 -2.2899 -7.38095 0
M  V30 3672 H 349.105 -2.05273 -6.63994 0
M  V30 3673 H 352.296 -1.10281 -4.54924 0
M  V30 3674 H 352.469 -1.77103 -6.23329 0
M  V30 3675 N 345.875 1.56104 -0.216619 0
M  V30 3676 C 347.291 1.58995 0.13886 0
M  V30 3677 C 347.491 1.23333 1.59346 0
M  V30 3678 O 346.547 0.966234 2.33281 0
M  V30 3679 C 347.86 3.00143 -0.182968 0
M  V30 3680 C 349.408 3.12751 -0.124807 0
M  V30 3681 C 349.883 4.56068 -0.420241 0
M  V30 3682 N 351.374 4.61723 -0.369634 0
M  V30 3683 C 352.109 5.70542 -0.571789 0
M  V30 3684 N 351.605 6.87744 -0.835453 0
M  V30 3685 N 353.398 5.59831 -0.504563 0
M  V30 3686 H 345.549 1.77562 -1.16557 0
M  V30 3687 H 347.812 0.825091 -0.466828 0
M  V30 3688 H 347.518 3.30871 -1.19237 0
M  V30 3689 H 347.392 3.73813 0.504367 0
M  V30 3690 H 349.779 2.81822 0.875223 0
M  V30 3691 H 349.86 2.41421 -0.845544 0
M  V30 3692 H 349.504 4.87713 -1.41769 0
M  V30 3693 H 349.434 5.25617 0.321631 0
M  V30 3694 H 351.925 3.77502 -0.173338 0
M  V30 3695 H 352.238 7.66587 -0.977938 0
M  V30 3696 H 350.583 6.895 -0.872592 0
M  V30 3697 H 353.774 4.67145 -0.298842 0
M  V30 3698 H 353.947 6.44573 -0.665519 0
M  V30 3699 N 347.353 -0.0568162 1.57498 0
M  V30 3700 C 348.316 -1.05038 2.03715 0
M  V30 3701 C 349.316 -1.30709 0.936577 0
M  V30 3702 O 350.506 -1.26178 1.20103 0
M  V30 3703 C 347.638 -2.39034 2.43055 0
M  V30 3704 H 348.831 -0.651715 2.92733 0
M  V30 3705 H 346.384 -0.302947 1.53336 0
M  V30 3706 H 347.119 -2.83703 1.57108 0
M  V30 3707 H 346.904 -2.21739 3.2338 0
M  V30 3708 H 348.394 -3.10421 2.79336 0
M  V30 3709 N 348.832 -1.54138 -0.328536 0
M  V30 3710 C 350.078 -1.7236 -1.06865 0
M  V30 3711 C 350.411 -0.493231 -1.87832 0
M  V30 3712 O 349.686 0.5098 -1.877 0
M  V30 3713 C 349.969 -2.99621 -1.99747 0
M  V30 3714 C 349.822 -4.32899 -1.22143 0
M  V30 3715 C 351.141 -3.22615 -2.99345 0
M  V30 3716 H 348.26 -0.627151 -0.387105 0
M  V30 3717 H 350.902 -1.86827 -0.345767 0
M  V30 3718 H 349.052 -2.87418 -2.61387 0
M  V30 3719 H 350.724 -4.56978 -0.630017 0
M  V30 3720 H 348.967 -4.30628 -0.523628 0
M  V30 3721 H 349.638 -5.18154 -1.90318 0
M  V30 3722 H 352.114 -3.34248 -2.47826 0
M  V30 3723 H 350.99 -4.13027 -3.61524 0
M  V30 3724 H 351.251 -2.3961 -3.71536 0
M  V30 3725 N 350.31 0.590341 -1.46126 0
M  V30 3726 C 351.54 1.37304 -1.54373 0
M  V30 3727 C 351.948 1.88332 -0.181071 0
M  V30 3728 O 351.291 1.63852 0.830559 0
M  V30 3729 C 351.353 2.6012 -2.48149 0
M  V30 3730 C 351.017 2.30613 -3.94546 0
M  V30 3731 C 352.014 1.89915 -4.83971 0
M  V30 3732 C 349.699 2.42993 -4.39613 0
M  V30 3733 C 351.693 1.61981 -6.16475 0
M  V30 3734 C 349.38 2.14672 -5.72153 0
M  V30 3735 C 350.378 1.7423 -6.60404 0
M  V30 3736 O 350.066 1.46251 -7.90485 0
M  V30 3737 H 349.798 0.426086 -0.524811 0
M  V30 3738 H 352.352 0.72539 -1.92165 0
M  V30 3739 H 350.582 3.27664 -2.05361 0
M  V30 3740 H 352.271 3.22182 -2.46887 0
M  V30 3741 H 353.037 1.79872 -4.50412 0
M  V30 3742 H 348.916 2.73435 -3.71153 0
M  V30 3743 H 352.46 1.30341 -6.85315 0
M  V30 3744 H 348.357 2.24337 -6.05263 0
M  V30 3745 H 349.125 1.6016 -8.02677 0
M  V30 3746 N 351.788 1.33704 0.83433 0
M  V30 3747 C 353.065 1.16011 1.57483 0
M  V30 3748 C 353.445 -0.27176 2.09343 0
M  V30 3749 O 352.793 -1.27146 1.89858 0
M  V30 3750 C 353.003 2.20507 2.70514 0
M  V30 3751 C 354.351 2.54898 3.39577 0
M  V30 3752 O 355.375 2.19209 2.80759 0
M  V30 3753 O 354.234 3.16158 4.45765 0
M  V30 3754 H 351.328 0.448992 0.694503 0
M  V30 3755 H 353.874 1.453 0.876691 0
M  V30 3756 H 352.646 3.16667 2.29865 0
M  V30 3757 H 352.269 1.92329 3.47987 0
M  V30 3758 N 353.266 -1.05314 1.17247 0
M  V30 3759 C 354.491 -1.82509 0.985148 0
M  V30 3760 C 354.916 -1.82343 -0.461788 0
M  V30 3761 O 354.274 -1.23151 -1.33055 0
M  V30 3762 C 354.322 -3.26566 1.52929 0
M  V30 3763 O 353.426 -4.05666 0.742225 0
M  V30 3764 H 352.767 -0.564347 0.349869 0
M  V30 3765 H 355.297 -1.32718 1.55715 0
M  V30 3766 H 355.307 -3.77369 1.55103 0
M  V30 3767 H 353.982 -3.26001 2.58256 0
M  V30 3768 H 352.559 -3.64397 0.791794 0
M  V30 3769 N 354.744 -0.972509 -1.24016 0
M  V30 3770 C 355.654 -0.5143 -2.28893 0
M  V30 3771 C 356.67 0.427078 -1.68677 0
M  V30 3772 O 357.846 0.298939 -1.99169 0
M  V30 3773 C 354.911 0.183598 -3.46214 0
M  V30 3774 C 353.972 -0.798202 -4.21814 0
M  V30 3775 C 353.205 -0.133514 -5.33533 0
M  V30 3776 O 353.428 1.07714 -5.60137 0
M  V30 3777 O 352.362 -0.828103 -5.96176 0
M  V30 3778 H 356.188 -1.38629 -2.70214 0
M  V30 3779 H 353.773 -0.739769 -1.29799 0
M  V30 3780 H 355.655 0.575433 -4.17453 0
M  V30 3781 H 354.33 1.03048 -3.0686 0
M  V30 3782 H 353.237 -1.24059 -3.52931 0
M  V30 3783 H 354.57 -1.61364 -4.64997 0
M  V30 3784 N 356.222 1.38976 -0.743202 0
M  V30 3785 C 357.499 1.94351 -0.220705 0
M  V30 3786 C 357.879 1.67935 1.2791 0
M  V30 3787 O 357.227 1.01211 2.04862 0
M  V30 3788 C 357.437 3.44426 -0.563171 0
M  V30 3789 C 358.785 4.2144 -0.517046 0
M  V30 3790 O 359.809 3.52661 -0.500846 0
M  V30 3791 O 358.668 5.44032 -0.518806 0
M  V30 3792 H 355.762 0.825879 -0.043047 0
M  V30 3793 H 358.308 1.48429 -0.822618 0
M  V30 3794 H 357.08 3.5712 -1.59941 0
M  V30 3795 H 356.703 3.97543 0.0672883 0
M  V30 3796 N 357.7 0.491464 1.49741 0
M  V30 3797 C 358.93 -0.0534375 2.06531 0
M  V30 3798 C 359.338 -1.32233 1.35318 0
M  V30 3799 O 358.681 -1.78781 0.422243 0
M  V30 3800 C 358.743 -0.387034 3.57411 0
M  V30 3801 C 358.407 0.782764 4.50246 0
M  V30 3802 C 359.404 1.67059 4.92329 0
M  V30 3803 C 357.089 0.978866 4.9267 0
M  V30 3804 C 359.083 2.73874 5.75562 0
M  V30 3805 C 356.77 2.05022 5.75682 0
M  V30 3806 C 357.768 2.92851 6.17031 0
M  V30 3807 O 357.456 3.98138 6.98385 0
M  V30 3808 H 357.188 0.0129324 0.675876 0
M  V30 3809 H 359.742 0.685238 1.93633 0
M  V30 3810 H 357.972 -1.17918 3.68283 0
M  V30 3811 H 359.661 -0.869419 3.96479 0
M  V30 3812 H 360.427 1.53086 4.60206 0
M  V30 3813 H 356.306 0.304646 4.59992 0
M  V30 3814 H 359.85 3.42458 6.07757 0
M  V30 3815 H 355.747 2.18993 6.07217 0
M  V30 3816 H 356.515 3.95374 7.16674 0
M  V30 3817 N 359.178 -1.55987 0.224894 0
M  V30 3818 C 360.11 -2.17722 -0.716224 0
M  V30 3819 C 361.123 -1.14723 -1.15509 0
M  V30 3820 O 362.312 -1.41688 -1.08567 0
M  V30 3821 C 359.412 -2.74873 -1.98238 0
M  V30 3822 C 358.585 -4.03074 -1.69853 0
M  V30 3823 C 357.644 -4.44757 -2.81208 0
M  V30 3824 O 356.67 -5.11587 -2.49534 0
M  V30 3825 N 357.872 -4.10716 -4.10235 0
M  V30 3826 H 360.637 -2.99109 -0.188123 0
M  V30 3827 H 358.198 -1.6184 0.0440123 0
M  V30 3828 H 360.19 -2.99727 -2.7193 0
M  V30 3829 H 358.76 -1.9777 -2.42086 0
M  V30 3830 H 357.98 -3.86041 -0.797875 0
M  V30 3831 H 359.268 -4.86701 -1.48324 0
M  V30 3832 H 358.666 -3.57019 -4.38809 0
M  V30 3833 H 357.223 -4.40455 -4.80461 0
M  V30 3834 N 360.656 0.0484629 -1.57525 0
M  V30 3835 C 361.566 1.07241 -2.08654 0
M  V30 3836 C 362.582 1.409 -1.02095 0
M  V30 3837 O 363.758 1.50609 -1.33712 0
M  V30 3838 C 360.823 2.36008 -2.5397 0
M  V30 3839 C 359.884 2.09108 -3.7493 0
M  V30 3840 C 359.117 3.31736 -4.18075 0
M  V30 3841 O 359.34 4.41714 -3.60895 0
M  V30 3842 O 358.274 3.18576 -5.10679 0
M  V30 3843 H 362.1 0.667965 -2.96263 0
M  V30 3844 H 359.685 0.26417 -1.47046 0
M  V30 3845 H 361.567 3.11747 -2.83535 0
M  V30 3846 H 360.242 2.75786 -1.69481 0
M  V30 3847 H 359.149 1.31 -3.50414 0
M  V30 3848 H 360.482 1.74198 -4.60343 0
M  V30 3849 N 362.134 1.5431 0.320358 0
M  V30 3850 C 363.382 1.72327 1.05583 0
M  V30 3851 C 363.703 0.50149 1.88441 0
M  V30 3852 O 362.973 -0.48448 1.89815 0
M  V30 3853 H 361.553 0.635387 0.3928 0
M  V30 3854 H 364.215 1.91621 0.356019 0
M  V30 3855 H 363.311 2.60426 1.72003 0
M  V30 3856 N 363.613 -0.582584 1.46437 0
M  V30 3857 C 364.546 -1.70633 1.51524 0
M  V30 3858 C 365.524 -1.58349 0.369351 0
M  V30 3859 O 366.708 -1.79563 0.573516 0
M  V30 3860 C 363.835 -3.08687 1.39392 0
M  V30 3861 C 362.881 -3.3949 2.58164 0
M  V30 3862 S 363.714 -3.31548 4.20519 0
M  V30 3863 C 364.87 -4.72139 4.10896 0
M  V30 3864 H 365.103 -1.66058 2.46601 0
M  V30 3865 H 362.636 -0.761337 1.34324 0
M  V30 3866 H 364.594 -3.8833 1.33079 0
M  V30 3867 H 363.255 -3.10751 0.457436 0
M  V30 3868 H 362.448 -4.40071 2.45669 0
M  V30 3869 H 362.05 -2.67415 2.61468 0
M  V30 3870 H 364.342 -5.62527 3.77584 0
M  V30 3871 H 365.285 -4.89692 5.11476 0
M  V30 3872 H 365.693 -4.48995 3.42146 0
M  V30 3873 N 365.091 -1.34144 -0.827227 0
M  V30 3874 C 366.039 -1.25364 -1.95925 0
M  V30 3875 C 367.033 -0.152608 -1.68711 0
M  V30 3876 O 368.239 -0.317311 -1.77181 0
M  V30 3877 H 364.614 -0.389342 -0.643364 0
M  V30 3878 H 366.585 -2.21045 -2.00454 0
M  V30 3879 C 365.334 -1.02158 -3.32354 0
M  V30 3880 H 364.657 -1.86111 -3.5384 0
M  V30 3881 H 366.097 -1.00048 -4.12027 0
M  V30 3882 C 364.556 0.275244 -3.35774 0
M  V30 3883 O 365.086 1.27806 -3.80826 0
M  V30 3884 N 363.292 0.306853 -2.88975 0
M  V30 3885 H 362.839 -0.509777 -2.52506 0
M  V30 3886 H 362.797 1.17432 -2.91646 0
M  V30 3887 N 366.569 1.04691 -1.17803 0
M  V30 3888 C 367.532 2.10724 -0.901545 0
M  V30 3889 C 368.532 1.6042 0.110437 0
M  V30 3890 O 369.722 1.7377 -0.122303 0
M  V30 3891 C 366.854 3.39084 -0.351409 0
M  V30 3892 H 368.047 2.36686 -1.84174 0
M  V30 3893 H 365.6 1.21015 -0.98919 0
M  V30 3894 H 366.335 3.18782 0.59569 0
M  V30 3895 H 366.12 3.76909 -1.08083 0
M  V30 3896 H 367.61 4.17227 -0.176451 0
M  V30 3897 N 368.047 0.979072 1.23499 0
M  V30 3898 C 369.294 0.647219 1.91878 0
M  V30 3899 C 369.622 -0.819074 1.76413 0
M  V30 3900 O 368.877 -1.60616 1.11808 0
M  V30 3901 C 369.176 0.981932 3.43646 0
M  V30 3902 C 368.842 2.43822 3.79291 0
M  V30 3903 C 367.504 2.83622 3.88731 0
M  V30 3904 C 369.856 3.3828 3.96505 0
M  V30 3905 C 367.184 4.16897 4.12812 0
M  V30 3906 C 369.536 4.71197 4.22085 0
M  V30 3907 C 368.2 5.10758 4.29747 0
M  V30 3908 H 367.47 0.236834 0.702133 0
M  V30 3909 H 370.117 1.23268 1.46551 0
M  V30 3910 H 368.422 0.314365 3.90537 0
M  V30 3911 H 370.119 0.703395 3.94783 0
M  V30 3912 H 366.709 2.11966 3.72516 0
M  V30 3913 H 370.893 3.0871 3.88603 0
M  V30 3914 H 366.149 4.47157 4.16966 0
M  V30 3915 H 370.323 5.44348 4.34348 0
M  V30 3916 H 367.95 6.1405 4.48159 0
M  V30 3917 N 369.525 -1.3858 0.750561 0
M  V30 3918 C 370.455 -2.33102 0.136237 0
M  V30 3919 C 371.436 -1.54713 -0.706965 0
M  V30 3920 O 372.621 -1.83043 -0.648769 0
M  V30 3921 C 369.751 -3.38882 -0.760017 0
M  V30 3922 C 368.705 -4.27995 -0.0197785 0
M  V30 3923 C 368.031 -5.24605 -1.03408 0
M  V30 3924 C 369.331 -5.09554 1.14684 0
M  V30 3925 H 371.025 -2.84726 0.925822 0
M  V30 3926 H 368.571 -1.36898 0.446654 0
M  V30 3927 H 370.524 -4.0397 -1.19943 0
M  V30 3928 H 369.248 -2.85734 -1.58189 0
M  V30 3929 H 367.907 -3.64409 0.400184 0
M  V30 3930 H 367.555 -4.67746 -1.84994 0
M  V30 3931 H 367.255 -5.85081 -0.543464 0
M  V30 3932 H 368.779 -5.9257 -1.47288 0
M  V30 3933 H 370.193 -5.67899 0.785118 0
M  V30 3934 H 368.59 -5.7925 1.56812 0
M  V30 3935 H 369.66 -4.4347 1.96118 0
M  V30 3936 N 371.003 -0.499398 -1.49478 0
M  V30 3937 C 371.913 0.284489 -2.32869 0
M  V30 3938 C 372.929 0.968885 -1.44529 0
M  V30 3939 O 374.105 0.95062 -1.77553 0
M  V30 3940 C 371.17 1.33594 -3.19928 0
M  V30 3941 C 370.231 0.665149 -4.24116 0
M  V30 3942 C 369.464 1.6665 -5.07014 0
M  V30 3943 O 369.687 2.89618 -4.91404 0
M  V30 3944 O 368.621 1.22271 -5.8935 0
M  V30 3945 H 372.447 -0.39802 -3.01081 0
M  V30 3946 H 370.032 -0.260758 -1.47107 0
M  V30 3947 H 371.914 1.94431 -3.73864 0
M  V30 3948 H 370.589 2.0014 -2.54412 0
M  V30 3949 H 369.496 0.0170769 -3.74096 0
M  V30 3950 H 370.829 0.0421555 -4.92182 0
M  V30 3951 N 372.481 1.55866 -0.233164 0
M  V30 3952 C 373.428 2.20796 0.67215 0
M  V30 3953 C 374.398 1.16731 1.18166 0
M  V30 3954 O 375.583 1.45129 1.23864 0
M  V30 3955 C 372.723 2.90072 1.86955 0
M  V30 3956 C 371.836 4.08759 1.39786 0
M  V30 3957 C 370.971 4.65787 2.55374 0
M  V30 3958 C 370.01 5.76752 2.04998 0
M  V30 3959 N 369.147 6.28021 3.13901 0
M  V30 3960 H 373.987 2.9779 0.111749 0
M  V30 3961 H 371.524 1.47036 0.0434007 0
M  V30 3962 H 373.482 3.28428 2.57276 0
M  V30 3963 H 372.112 2.15575 2.40265 0
M  V30 3964 H 371.164 3.7581 0.589173 0
M  V30 3965 H 372.476 4.88906 0.98856 0
M  V30 3966 H 371.63 5.06646 3.33758 0
M  V30 3967 H 370.369 3.84828 2.99598 0
M  V30 3968 H 369.374 5.35383 1.25079 0
M  V30 3969 H 370.599 6.59553 1.61759 0
M  V30 3970 H 368.545 5.49971 3.57586 0
M  V30 3971 H 368.462 7.03323 2.7726 0
M  V30 3972 H 369.73 6.73538 3.92386 0
M  V30 3973 N 373.959 -0.0401083 1.57549 0
M  V30 3974 C 375.375 -0.395556 1.54621 0
M  V30 3975 C 375.575 -1.77281 0.957799 0
M  V30 3976 O 374.631 -2.45888 0.574031 0
M  V30 3977 C 375.944 -0.307535 2.99123 0
M  V30 3978 C 377.492 -0.385425 3.10618 0
M  V30 3979 C 377.967 -0.326973 4.56831 0
M  V30 3980 N 379.458 -0.386102 4.61588 0
M  V30 3981 C 380.193 -0.363591 5.72246 0
M  V30 3982 N 379.689 -0.29402 6.92176 0
M  V30 3983 N 381.482 -0.412503 5.60584 0
M  V30 3984 H 373.633 0.861325 1.94152 0
M  V30 3985 H 375.896 0.326445 0.890021 0
M  V30 3986 H 375.602 0.638461 3.45856 0
M  V30 3987 H 375.476 -1.10552 3.60636 0
M  V30 3988 H 377.863 -1.32185 2.63839 0
M  V30 3989 H 377.944 0.44171 2.51957 0
M  V30 3990 H 377.588 0.605738 5.04275 0
M  V30 3991 H 377.518 -1.17207 5.13391 0
M  V30 3992 H 380.009 -0.442832 3.75296 0
M  V30 3993 H 380.322 -0.28164 7.72287 0
M  V30 3994 H 378.667 -0.260232 6.94513 0
M  V30 3995 H 381.858 -0.464769 4.65787 0
M  V30 3996 H 382.031 -0.391492 6.46816 0
M  V30 3997 N 375.437 -1.54477 -0.31217 0
M  V30 3998 C 376.384 -1.84655 -1.38461 0
M  V30 3999 C 377.354 -0.694536 -1.50882 0
M  V30 4000 O 378.539 -0.942081 -1.6592 0
M  V30 4001 C 375.679 -2.0896 -2.74645 0
M  V30 4002 C 374.792 -3.36618 -2.70763 0
M  V30 4003 C 373.927 -3.50824 -3.98868 0
M  V30 4004 C 372.966 -4.72315 -3.89339 0
M  V30 4005 N 372.103 -4.83387 -5.09197 0
M  V30 4006 H 376.943 -2.76142 -1.12026 0
M  V30 4007 H 374.48 -1.36748 -0.542065 0
M  V30 4008 H 376.438 -2.21045 -3.53829 0
M  V30 4009 H 375.068 -1.20752 -2.99364 0
M  V30 4010 H 374.12 -3.33211 -1.83506 0
M  V30 4011 H 375.432 -4.25917 -2.59608 0
M  V30 4012 H 374.586 -3.62513 -4.86486 0
M  V30 4013 H 373.325 -2.59638 -4.12843 0
M  V30 4014 H 372.33 -4.6067 -3.00105 0
M  V30 4015 H 373.555 -5.64897 -3.76919 0
M  V30 4016 H 371.501 -3.9512 -5.23657 0
M  V30 4017 H 371.418 -5.66669 -5.00422 0
M  V30 4018 H 372.686 -4.9942 -5.98498 0
M  V30 4019 N 376.915 0.57481 -1.46744 0
M  V30 4020 C 378.326 1.15695 -1.46532 0
M  V30 4021 C 378.677 1.95068 -0.210425 0
M  V30 4022 O 377.802 2.05241 0.685944 0
M  V30 4023 C 378.397 2.1048 -2.65487 0
M  V30 4024 C 376.956 2.64002 -2.68291 0
M  V30 4025 C 376.103 1.40026 -2.39349 0
M  V30 4026 H 379.054 0.362325 -1.54509 0
M  V30 4027 H 379.075 2.94074 -2.41455 0
M  V30 4028 H 378.587 1.52683 -3.56805 0
M  V30 4029 H 376.688 3.25646 -1.81067 0
M  V30 4030 H 376.801 3.06197 -3.68483 0
M  V30 4031 H 375.165 1.70106 -1.89568 0
M  V30 4032 H 375.948 0.840485 -3.32852 0
M  V30 4033 N 378.394 1.34581 0.820102 0
M  V30 4034 C 379.342 1.26401 1.95258 0
M  V30 4035 C 380.336 0.161553 1.68628 0
M  V30 4036 O 381.542 0.326703 1.7701 0
M  V30 4037 H 377.917 0.392749 0.64129 0
M  V30 4038 H 379.888 2.22105 1.99279 0
M  V30 4039 C 378.637 1.03919 3.31807 0
M  V30 4040 H 377.96 1.87984 3.52848 0
M  V30 4041 H 379.4 1.02232 4.11491 0
M  V30 4042 C 377.859 -0.257433 3.35915 0
M  V30 4043 O 378.389 -1.25784 3.81499 0
M  V30 4044 N 376.595 -0.291524 2.89134 0
M  V30 4045 H 376.142 0.523161 2.52232 0
M  V30 4046 H 376.1 -1.15883 2.92264 0
M  V30 4047 N 379.872 -1.04064 1.18357 0
M  V30 4048 C 381.119 -1.77265 0.978947 0
M  V30 4049 C 381.447 -1.88189 -0.491428 0
M  V30 4050 O 380.702 -1.38653 -1.38108 0
M  V30 4051 C 381.001 -3.20634 1.57888 0
M  V30 4052 C 380.667 -3.29743 3.07539 0
M  V30 4053 C 379.329 -3.31937 3.48384 0
M  V30 4054 C 381.681 -3.29841 4.03552 0
M  V30 4055 C 379.009 -3.3187 4.83818 0
M  V30 4056 C 381.361 -3.31313 5.38901 0
M  V30 4057 C 380.025 -3.31799 5.79194 0
M  V30 4058 H 379.295 -0.648659 0.358222 0
M  V30 4059 H 381.942 -1.22225 1.47422 0
M  V30 4060 H 380.247 -3.78675 1.00561 0
M  V30 4061 H 381.944 -3.75917 1.39598 0
M  V30 4062 H 378.534 -3.28757 2.74986 0
M  V30 4063 H 382.718 -3.27337 3.73047 0
M  V30 4064 H 377.974 -3.30562 5.14333 0
M  V30 4065 H 382.148 -3.30338 6.13066 0
M  V30 4066 H 379.775 -3.315 6.84114 0
M  V30 4067 N 381.35 -0.985608 -1.22978 0
M  V30 4068 C 382.596 -0.65836 -1.91816 0
M  V30 4069 C 382.929 0.806692 -1.76653 0
M  V30 4070 O 382.204 1.58252 -1.13078 0
M  V30 4071 C 382.487 -1.056 -3.44268 0
M  V30 4072 C 382.34 -2.57906 -3.68516 0
M  V30 4073 C 383.659 -0.603781 -4.35939 0
M  V30 4074 H 380.778 -0.24065 -0.696604 0
M  V30 4075 H 383.42 -1.22783 -1.44998 0
M  V30 4076 H 381.57 -0.571445 -3.84274 0
M  V30 4077 H 383.242 -3.13976 -3.3796 0
M  V30 4078 H 381.485 -3.00305 -3.13048 0
M  V30 4079 H 382.156 -2.80779 -4.75255 0
M  V30 4080 H 384.632 -1.01987 -4.03408 0
M  V30 4081 H 383.508 -0.910383 -5.41298 0
M  V30 4082 H 383.769 0.495761 -4.39312 0
M  V30 4083 N 382.828 1.3818 -0.7579 0
M  V30 4084 C 384.076 1.99624 -0.315361 0
M  V30 4085 C 384.397 1.60464 1.10799 0
M  V30 4086 O 383.667 0.863507 1.75842 0
M  V30 4087 H 382.247 0.73831 -0.113611 0
M  V30 4088 H 384.909 1.68878 -0.972952 0
M  V30 4089 H 384.005 3.09754 -0.381931 0
M  V30 4090 N 384.306 0.507319 1.49211 0
M  V30 4091 C 385.256 -0.287112 2.26185 0
M  V30 4092 C 386.24 -0.929983 1.31302 0
M  V30 4093 O 387.432 -0.836538 1.55984 0
M  V30 4094 C 384.561 -1.34718 3.15763 0
M  V30 4095 C 383.647 -0.710235 4.18111 0
M  V30 4096 N 384.038 0.190836 5.0544 0
M  V30 4097 C 382.336 -0.97009 4.35322 0
M  V30 4098 C 383.037 0.55606 5.79036 0
M  V30 4099 N 382.013 -0.0775232 5.43545 0
M  V30 4100 H 385.815 0.406445 2.91076 0
M  V30 4101 H 383.329 0.323814 1.59139 0
M  V30 4102 H 385.326 -1.92982 3.69545 0
M  V30 4103 H 383.986 -2.04235 2.52424 0
M  V30 4104 H 384.997 0.562047 5.14841 0
M  V30 4105 H 381.674 -1.65753 3.83187 0
M  V30 4106 H 383.064 1.2936 6.5933 0
M  V30 4107 O 385.823 -1.56889 0.38316 0
M  V30 4108 H 386.514 -1.93009 -0.163415 0
M  V30 END ATOM
M  V30 BEGIN BOND
M  V30 END BOND
M  V30 END CTAB
M  END
$$$$
