drugbank_target|P52209 6-phosphogluconate dehydrogenase, decarboxylating (DB00789; DB00851; DB00920; DB02076; DB03962)
 OpenBabel12092120343D

  0  0  0     0  0            999 V3000
M  V30 BEGIN CTAB
M  V30 COUNTS 7460 7536 0 0 0
M  V30 BEGIN ATOM
M  V30 1 H -0.908 1.98254 -0.117106 0
M  V30 2 N 0 1.576 0 0
M  V30 3 C 0.933 2.03868 1.02534 0
M  V30 4 C 1.911 0.928543 1.3348 0
M  V30 5 O 3.095 1.19667 1.45644 0
M  V30 6 C 0.222 2.43627 2.35294 0
M  V30 7 C -0.732 3.65373 2.2001 0
M  V30 8 S 0.101 5.13292 1.52614 0
M  V30 9 C 1.257 5.56322 2.86805 0
M  V30 10 H 1.49 2.90518 0.631377 0
M  V30 11 H -0.977 1.52953 0.210867 0
M  V30 12 H 0.981 2.67203 3.11629 0
M  V30 13 H -0.358 1.57376 2.7183 0
M  V30 14 H -1.165 3.90944 3.18086 0
M  V30 15 H -1.563 3.418 1.51819 0
M  V30 16 H 0.729 5.58782 3.83104 0
M  V30 17 H 1.672 6.56266 2.65933 0
M  V30 18 H 2.08 4.83886 2.90714 0
M  V30 19 N 1.4781 -0.272755 1.55222 0
M  V30 20 C 2.4411 -1.32041 1.87344 0
M  V30 21 C 3.4411 -1.42342 0.74803 0
M  V30 22 O 4.6311 -1.41488 1.0162 0
M  V30 23 C 1.7631 -2.70173 2.07893 0
M  V30 24 H 2.9561 -1.04789 2.80997 0
M  V30 25 H 0.5091 -0.51083 1.47717 0
M  V30 26 H 1.2441 -3.02605 1.16622 0
M  V30 27 H 1.0291 -2.64082 2.89833 0
M  V30 28 H 2.5191 -3.45869 2.34017 0
M  V30 29 N 2.9562 -1.48159 -0.537278 0
M  V30 30 C 3.8882 -1.58218 -1.65831 0
M  V30 31 C 4.9012 -0.466948 -1.5596 0
M  V30 32 O 6.0902 -0.73747 -1.62553 0
M  V30 33 C 3.1902 -1.48906 -3.04434 0
M  V30 34 C 2.3632 -2.75343 -3.3986 0
M  V30 35 C 1.4222 -2.59588 -4.57712 0
M  V30 36 O 0.4482 -3.33457 -4.61297 0
M  V30 37 N 1.6502 -1.68724 -5.55439 0
M  V30 38 H 4.4152 -2.54891 -1.57641 0
M  V30 39 H 1.9762 -1.4479 -0.724386 0
M  V30 40 H 3.9682 -1.36072 -3.81139 0
M  V30 41 H 2.5382 -0.602368 -3.06741 0
M  V30 42 H 1.7582 -3.02795 -2.52406 0
M  V30 43 H 3.0462 -3.5924 -3.60311 0
M  V30 44 H 2.4442 -1.07898 -5.55315 0
M  V30 45 H 1.0012 -1.61832 -6.3139 0
M  V30 46 N 4.4343 0.785586 -1.36625 0
M  V30 47 C 5.3973 1.87999 -1.31107 0
M  V30 48 C 6.3973 1.59316 -0.217959 0
M  V30 49 O 7.5873 1.67656 -0.472977 0
M  V30 50 C 4.7193 3.24861 -1.03334 0
M  V30 51 H 5.9123 1.94307 -2.2844 0
M  V30 52 H 3.4653 0.983813 -1.21453 0
M  V30 53 H 4.2003 3.24235 -0.0647432 0
M  V30 54 H 3.9853 3.4707 -1.82441 0
M  V30 55 H 5.4753 4.04929 -1.02088 0
M  V30 56 N 5.9124 1.20967 1.01018 0
M  V30 57 C 7.1894 0.93264 1.71934 0
M  V30 58 C 7.5694 -0.55692 2.03621 0
M  V30 59 O 6.9174 -1.52035 1.7058 0
M  V30 60 C 7.1274 1.81233 2.98254 0
M  V30 61 C 8.4754 2.05804 3.71389 0
M  V30 62 O 9.4994 1.78539 3.08225 0
M  V30 63 O 8.3584 2.51888 4.84989 0
M  V30 64 H 5.4524 0.349272 0.749625 0
M  V30 65 H 7.9984 1.31871 1.06808 0
M  V30 66 H 6.7704 2.82067 2.71208 0
M  V30 67 H 6.3934 1.42674 3.7112 0
M  V30 68 N 7.3905 -1.2043 1.01659 0
M  V30 69 C 8.6395 -1.89118 0.701237 0
M  V30 70 C 8.9525 -1.79705 -0.772358 0
M  V30 71 O 10.1585 -2.43528 -1.20026 0
M  V30 72 C 8.6145 -3.39168 1.20388 0
M  V30 73 C 8.2225 -3.57166 2.70438 0
M  V30 74 C 9.9665 -4.1341 0.963953 0
M  V30 75 C 7.8735 -5.01042 3.14183 0
M  V30 76 H 6.8035 -0.708267 0.2586 0
M  V30 77 H 9.4545 -1.36239 1.22927 0
M  V30 78 H 7.8365 -3.91369 0.603824 0
M  V30 79 H 9.0105 -3.15351 3.35992 0
M  V30 80 H 7.3255 -2.96294 2.92572 0
M  V30 81 H 9.9225 -5.19491 1.26621 0
M  V30 82 H 10.2655 -4.16181 -0.099578 0
M  V30 83 H 10.7985 -3.67309 1.52738 0
M  V30 84 H 7.5375 -5.03426 4.19812 0
M  V30 85 H 7.0575 -5.43668 2.53348 0
M  V30 86 H 8.7365 -5.69623 3.0682 0
M  V30 87 N 8.8686 -0.792821 -1.36206 0
M  V30 88 C 9.8316 -0.199459 -2.2833 0
M  V30 89 C 10.8316 0.605189 -1.48977 0
M  V30 90 O 12.0216 0.425685 -1.68919 0
M  V30 91 C 9.1536 0.723523 -3.33134 0
M  V30 92 H 10.3466 -1.01181 -2.82316 0
M  V30 93 H 7.8996 -0.562485 -1.45828 0
M  V30 94 H 8.6346 1.56008 -2.84309 0
M  V30 95 H 8.4196 0.148436 -3.91819 0
M  V30 96 H 9.9096 1.13344 -4.01924 0
M  V30 97 N 10.3467 1.47872 -0.545128 0
M  V30 98 C 11.2767 2.32661 0.197793 0
M  V30 99 C 12.2577 1.43041 0.920504 0
M  V30 100 O 13.4427 1.71912 0.90333 0
M  V30 101 C 10.5727 3.24569 1.23582 0
M  V30 102 C 9.5267 4.23333 0.630323 0
M  V30 103 C 8.8527 5.0448 1.77211 0
M  V30 104 C 10.1527 5.20704 -0.407974 0
M  V30 105 H 11.8467 2.95024 -0.510045 0
M  V30 106 H 9.3927 1.4187 -0.246731 0
M  V30 107 H 11.3457 3.8272 1.76362 0
M  V30 108 H 10.0697 2.60236 1.97344 0
M  V30 109 H 8.7287 3.6639 0.123922 0
M  V30 110 H 8.3767 4.36561 2.49847 0
M  V30 111 H 8.0767 5.71339 1.37281 0
M  V30 112 H 9.6007 5.65487 2.3034 0
M  V30 113 H 11.0147 5.7329 0.033305 0
M  V30 114 H 9.4117 5.95699 -0.725486 0
M  V30 115 H 10.4817 4.66917 -1.30828 0
M  V30 116 N 11.8248 0.280983 1.55075 0
M  V30 117 C 13.0738 -0.334784 1.98902 0
M  V30 118 C 13.3868 -1.56534 1.17288 0
M  V30 119 O 14.5928 -2.25443 1.51287 0
M  V30 120 C 13.0488 -0.646994 3.54037 0
M  V30 121 C 12.6568 0.564085 4.44435 0
M  V30 122 C 14.4008 -1.22506 4.06439 0
M  V30 123 C 12.3078 0.226137 5.90967 0
M  V30 124 H 11.2378 -0.128866 0.742906 0
M  V30 125 H 13.8888 0.386556 1.79382 0
M  V30 126 H 12.2708 -1.42739 3.6938 0
M  V30 127 H 13.4448 1.34082 4.40861 0
M  V30 128 H 11.7598 1.0594 4.02698 0
M  V30 129 H 14.3568 -1.49182 5.13468 0
M  V30 130 H 14.6998 -2.16085 3.55827 0
M  V30 131 H 15.2328 -0.50682 3.94558 0
M  V30 132 H 11.9718 1.12996 6.45687 0
M  V30 133 H 11.4918 -0.513717 5.97596 0
M  V30 134 H 13.1708 -0.179539 6.46751 0
M  V30 135 N 13.3029 -1.57598 0.00835791 0
M  V30 136 C 14.5509 -1.90551 -0.6734 0
M  V30 137 C 14.8719 -0.883301 -1.73847 0
M  V30 138 O 14.1419 0.0781442 -1.95744 0
M  V30 139 H 12.7219 -0.703312 -0.251717 0
M  V30 140 H 15.3839 -1.94833 0.0512592 0
M  V30 141 H 14.4799 -2.9056 -1.13935 0
M  V30 142 N 14.781 0.264519 -1.55364 0
M  V30 143 C 15.711 1.33121 -1.91836 0
M  V30 144 C 16.692 1.51101 -0.781192 0
M  V30 145 O 17.877 1.64003 -1.04003 0
M  V30 146 C 15.007 2.68921 -2.19769 0
M  V30 147 C 13.961 2.65661 -3.35571 0
M  V30 148 C 13.287 4.05093 -3.49004 0
M  V30 149 C 14.587 2.24187 -4.71739 0
M  V30 150 H 16.281 1.02844 -2.81182 0
M  V30 151 H 13.827 0.493286 -1.35287 0
M  V30 152 H 15.78 3.43663 -2.43872 0
M  V30 153 H 14.504 3.00799 -1.27231 0
M  V30 154 H 13.163 1.93377 -3.1145 0
M  V30 155 H 12.811 4.34206 -2.53917 0
M  V30 156 H 12.511 4.03804 -4.26868 0
M  V30 157 H 14.035 4.81561 -3.75408 0
M  V30 158 H 15.449 2.88654 -4.9533 0
M  V30 159 H 13.846 2.34044 -5.52579 0
M  V30 160 H 14.916 1.19327 -4.69988 0
M  V30 161 N 16.2591 1.48442 0.529413 0
M  V30 162 C 17.2221 1.62524 1.61612 0
M  V30 163 C 18.2221 0.498509 1.52877 0
M  V30 164 O 19.4121 0.76431 1.56537 0
M  V30 165 C 16.5441 1.59597 3.01233 0
M  V30 166 H 17.7371 2.59423 1.50465 0
M  V30 167 H 15.2901 1.37047 0.751514 0
M  V30 168 H 16.0251 0.641781 3.17886 0
M  V30 169 H 15.8101 2.41397 3.08982 0
M  V30 170 H 17.3001 1.72646 3.80241 0
M  V30 171 N 17.7372 -0.778329 1.37039 0
M  V30 172 C 18.9832 -1.53892 1.32079 0
M  V30 173 C 19.3162 -1.9396 -0.0965386 0
M  V30 174 O 18.5912 -1.63568 -1.05242 0
M  V30 175 C 18.8742 -2.80847 2.25382 0
M  V30 176 C 18.7272 -2.47076 3.75864 0
M  V30 177 C 20.0462 -3.82741 2.1725 0
M  V30 178 H 17.1652 -0.558303 0.48111 0
M  V30 179 H 19.8072 -0.893397 1.67685 0
M  V30 180 H 17.9572 -3.35931 1.95148 0
M  V30 181 H 19.6292 -1.97957 4.16666 0
M  V30 182 H 17.8722 -1.79863 3.94755 0
M  V30 183 H 18.5432 -3.37798 4.36574 0
M  V30 184 H 21.0192 -3.37133 2.43887 0
M  V30 185 H 19.8952 -4.69303 2.84686 0
M  V30 186 H 20.1562 -4.2652 1.16331 0
M  V30 187 N 19.2153 -1.21501 -1.00376 0
M  V30 188 C 20.1483 -0.918669 -2.08892 0
M  V30 189 C 21.1263 0.134277 -1.62045 0
M  V30 190 O 22.3103 0.00504255 -1.88499 0
M  V30 191 C 19.4373 -0.379645 -3.36566 0
M  V30 192 C 18.4833 -1.41559 -4.02323 0
M  V30 193 S 19.3163 -2.98521 -4.44574 0
M  V30 194 C 20.4723 -2.46228 -5.75433 0
M  V30 195 H 20.7053 -1.83761 -2.33707 0
M  V30 196 H 18.2383 -1.04489 -1.13673 0
M  V30 197 H 20.1963 -0.0752195 -4.10431 0
M  V30 198 H 18.8573 0.518008 -3.09799 0
M  V30 199 H 18.0503 -0.988076 -4.9422 0
M  V30 200 H 17.6523 -1.66815 -3.34737 0
M  V30 201 H 19.9443 -1.86791 -6.51241 0
M  V30 202 H 20.8873 -3.36572 -6.22997 0
M  V30 203 H 21.2953 -1.87894 -5.32312 0
M  V30 204 N 20.6934 1.19889 -1.02296 0
M  V30 205 C 21.9414 1.89046 -0.714558 0
M  V30 206 C 22.2624 1.79636 0.758681 0
M  V30 207 O 21.5324 1.20292 1.54618 0
M  V30 208 H 20.1124 0.699802 -0.261317 0
M  V30 209 H 22.7744 1.45574 -1.29592 0
M  V30 210 H 21.8704 2.95524 -1.0036 0
M  V30 211 N 22.1715 0.800033 1.35784 0
M  V30 212 C 23.1035 0.163596 2.28615 0
M  V30 213 C 24.1165 -0.633317 1.49976 0
M  V30 214 O 25.3055 -0.466754 1.72289 0
M  V30 215 C 22.4055 -0.790958 3.29541 0
M  V30 216 C 21.5785 -0.0418255 4.3738 0
M  V30 217 C 20.6375 -0.91389 5.18203 0
M  V30 218 O 19.6635 -0.367234 5.68014 0
M  V30 219 N 20.8655 -2.23682 5.35674 0
M  V30 220 H 23.6305 0.96105 2.83873 0
M  V30 221 H 21.1915 0.654894 1.48063 0
M  V30 222 H 23.1835 -1.37844 3.80501 0
M  V30 223 H 21.7535 -1.48925 2.74846 0
M  V30 224 H 20.9735 0.726813 3.87442 0
M  V30 225 H 22.2615 0.474719 5.06581 0
M  V30 226 H 21.6595 -2.70497 4.96838 0
M  V30 227 H 20.2165 -2.77369 5.89839 0
M  V30 228 N 23.6496 -1.47581 0.552962 0
M  V30 229 C 24.5976 -2.31648 -0.21023 0
M  V30 230 C 25.5916 -1.42663 -0.913432 0
M  V30 231 O 26.7976 -1.5945 -0.835201 0
M  V30 232 H 23.1726 -0.746989 -0.0866676 0
M  V30 233 H 25.1436 -2.93869 0.518051 0
M  V30 234 C 23.8926 -3.25226 -1.22976 0
M  V30 235 H 23.2156 -3.93658 -0.698077 0
M  V30 236 H 24.6556 -3.86889 -1.73473 0
M  V30 237 C 23.1146 -2.48448 -2.27542 0
M  V30 238 O 23.6446 -2.22585 -3.34393 0
M  V30 239 N 21.8506 -2.09532 -2.01357 0
M  V30 240 H 21.3976 -2.30765 -1.14478 0
M  V30 241 H 21.3556 -1.58476 -2.71538 0
M  V30 242 N 25.1277 -0.289203 -1.54924 0
M  V30 243 C 26.0577 0.58549 -2.2604 0
M  V30 244 C 27.0387 1.14753 -1.25562 0
M  V30 245 O 28.2237 1.17906 -1.54311 0
M  V30 246 C 25.3537 1.76305 -2.99222 0
M  V30 247 C 24.3077 1.33191 -4.06748 0
M  V30 248 C 23.6337 2.5937 -4.6758 0
M  V30 249 C 24.9337 0.471775 -5.20165 0
M  V30 250 H 26.6277 -0.00763532 -2.99399 0
M  V30 251 H 24.1737 -0.00511229 -1.43999 0
M  V30 252 H 26.1267 2.38097 -3.47689 0
M  V30 253 H 24.8507 2.38223 -2.23422 0
M  V30 254 H 23.5097 0.737121 -3.59113 0
M  V30 255 H 23.1577 3.19576 -3.88433 0
M  V30 256 H 22.8577 2.31228 -5.40192 0
M  V30 257 H 24.3817 3.21985 -5.18804 0
M  V30 258 H 25.7957 0.995056 -5.64599 0
M  V30 259 H 24.1927 0.284639 -5.99425 0
M  V30 260 H 25.2627 -0.506041 -4.82252 0
M  V30 261 N 26.6058 1.57591 -0.0167156 0
M  V30 262 C 27.8548 1.90461 0.663877 0
M  V30 263 C 28.1678 0.893515 1.73999 0
M  V30 264 O 29.3738 1.11302 2.47637 0
M  V30 265 C 27.8298 3.38155 1.23204 0
M  V30 266 C 27.4378 4.47597 0.189866 0
M  V30 267 C 29.1818 3.80111 1.88986 0
M  V30 268 C 27.0888 5.86379 0.768964 0
M  V30 269 H 26.0188 0.710738 0.251729 0
M  V30 270 H 28.6698 1.83326 -0.0799926 0
M  V30 271 H 27.0518 3.40182 2.02712 0
M  V30 272 H 28.2258 4.57112 -0.581846 0
M  V30 273 H 26.5408 4.14766 -0.368475 0
M  V30 274 H 29.1378 4.81145 2.33247 0
M  V30 275 H 29.4808 3.14511 2.72743 0
M  V30 276 H 30.0138 3.80454 1.16187 0
M  V30 277 H 26.7528 6.55493 -0.0301957 0
M  V30 278 H 26.2728 5.80496 1.50945 0
M  V30 279 H 27.9518 6.34563 1.26251 0
M  V30 280 N 28.0839 -0.256276 1.55502 0
M  V30 281 C 29.0139 -1.32102 1.92539 0
M  V30 282 C 29.9949 -1.50684 0.789194 0
M  V30 283 O 31.1799 -1.63449 1.04872 0
M  V30 284 C 28.3099 -2.67752 2.21192 0
M  V30 285 C 27.2639 -2.63878 3.36975 0
M  V30 286 C 26.5899 -4.03236 3.51147 0
M  V30 287 C 27.8899 -2.21682 4.72921 0
M  V30 288 H 29.5839 -1.01351 2.81724 0
M  V30 289 H 27.1299 -0.486105 1.35547 0
M  V30 290 H 29.0829 -3.42365 2.45691 0
M  V30 291 H 27.8069 -3.0012 1.28824 0
M  V30 292 H 26.4659 -1.91722 3.12471 0
M  V30 293 H 26.1139 -4.32854 2.56216 0
M  V30 294 H 25.8139 -4.01535 4.29003 0
M  V30 295 H 27.3379 -4.79563 3.77957 0
M  V30 296 H 28.7519 -2.86023 4.96854 0
M  V30 297 H 27.1489 -2.3111 5.53812 0
M  V30 298 H 28.2189 -1.16833 4.70615 0
M  V30 299 N 29.562 -1.4872 -0.521534 0
M  V30 300 C 30.51 -1.64328 -1.64618 0
M  V30 301 C 31.504 -0.50953 -1.61555 0
M  V30 302 O 32.71 -0.688525 -1.66311 0
M  V30 303 H 29.085 -0.517805 -0.545328 0
M  V30 304 H 31.056 -2.58767 -1.48601 0
M  V30 305 C 29.805 -1.70805 -3.02855 0
M  V30 306 H 29.128 -2.5741 -3.05909 0
M  V30 307 H 30.568 -1.85766 -3.81139 0
M  V30 308 C 29.027 -0.448479 -3.33902 0
M  V30 309 O 29.557 0.434928 -3.99339 0
M  V30 310 N 27.763 -0.317616 -2.88859 0
M  V30 311 H 27.31 -1.03748 -2.35784 0
M  V30 312 H 27.268 0.524113 -3.10001 0
M  V30 313 N 31.0401 0.771051 -1.3745 0
M  V30 314 C 31.9731 1.89166 -1.27638 0
M  V30 315 C 32.9511 1.61842 -0.156782 0
M  V30 316 O 34.1351 1.85569 -0.331111 0
M  V30 317 C 31.2621 3.24405 -0.973621 0
M  V30 318 C 30.3081 3.70638 -2.1102 0
M  V30 319 S 31.1411 3.84228 -3.73 0
M  V30 320 C 32.2971 5.22313 -3.44876 0
M  V30 321 H 32.5301 1.972 -2.22485 0
M  V30 322 H 30.0631 0.932224 -1.23081 0
M  V30 323 H 32.0211 4.02514 -0.805766 0
M  V30 324 H 30.6821 3.14071 -0.0426279 0
M  V30 325 H 29.8751 4.68685 -1.85338 0
M  V30 326 H 29.4771 2.99632 -2.23822 0
M  V30 327 H 31.7691 6.07505 -2.99908 0
M  V30 328 H 32.7121 5.53008 -4.42253 0
M  V30 329 H 33.1201 4.90284 -2.79789 0
M  V30 330 N 32.5182 1.22032 0.997298 0
M  V30 331 C 33.4662 0.983634 2.10778 0
M  V30 332 C 34.4602 -0.0717564 1.69248 0
M  V30 333 O 35.6662 0.080304 1.79821 0
M  V30 334 H 32.0412 0.300877 0.689186 0
M  V30 335 H 34.0122 1.92606 2.27916 0
M  V30 336 C 32.7612 0.57326 3.42942 0
M  V30 337 H 32.0842 1.37702 3.75338 0
M  V30 338 H 33.5242 0.447031 4.21637 0
M  V30 339 C 31.9832 -0.7167 3.29188 0
M  V30 340 O 32.5132 -1.77027 3.60589 0
M  V30 341 N 30.7192 -0.686167 2.82383 0
M  V30 342 H 30.2662 0.171507 2.57028 0
M  V30 343 H 30.2242 -1.54955 2.73562 0
M  V30 344 N 33.9963 -1.19345 1.0293 0
M  V30 345 C 35.2733 -1.84811 0.640642 0
M  V30 346 C 35.6533 -1.91855 -0.88062 0
M  V30 347 O 35.0013 -1.43587 -1.7775 0
M  V30 348 C 35.2113 -3.23755 1.30321 0
M  V30 349 C 36.5593 -3.99912 1.42673 0
M  V30 350 O 37.5833 -3.33155 1.26041 0
M  V30 351 O 36.4423 -5.19494 1.6967 0
M  V30 352 H 33.5363 -0.796443 0.222726 0
M  V30 353 H 36.0823 -1.26831 1.12748 0
M  V30 354 H 34.8543 -3.13466 2.34211 0
M  V30 355 H 34.4773 -3.89381 0.804261 0
M  V30 356 N 35.4744 -0.807222 -1.35358 0
M  V30 357 C 36.4244 -0.190706 -2.27201 0
M  V30 358 C 37.4084 0.635838 -1.47804 0
M  V30 359 O 38.6004 0.492991 -1.69996 0
M  V30 360 C 35.7294 0.659337 -3.36909 0
M  V30 361 C 34.8154 -0.176971 -4.23731 0
M  V30 362 N 35.2064 -1.24029 -4.90357 0
M  V30 363 C 33.5044 0.0412953 -4.45981 0
M  V30 364 C 34.2054 -1.75092 -5.54723 0
M  V30 365 N 33.1814 -1.05727 -5.33219 0
M  V30 366 H 36.9834 -1.0043 -2.76208 0
M  V30 367 H 34.4974 -0.648445 -1.48892 0
M  V30 368 H 36.4944 1.11706 -4.01656 0
M  V30 369 H 35.1544 1.47127 -2.89454 0
M  V30 370 H 36.1654 -1.62295 -4.91814 0
M  V30 371 H 32.8424 0.82232 -4.09322 0
M  V30 372 H 34.2324 -2.63963 -6.17878 0
M  V30 373 N 36.9525 1.47285 -0.560781 0
M  V30 374 C 38.2005 2.02064 -0.0379868 0
M  V30 375 C 38.5215 1.43711 1.31803 0
M  V30 376 O 37.7915 0.61362 1.86042 0
M  V30 377 H 36.3715 0.746918 -0.0110531 0
M  V30 378 H 39.0335 1.80648 -0.731598 0
M  V30 379 H 38.1295 3.12064 0.0474463 0
M  V30 380 N 38.4306 0.297415 1.54768 0
M  V30 381 C 39.6776 -0.312913 2.00068 0
M  V30 382 C 40.0056 -1.54171 1.18582 0
M  V30 383 O 39.2606 -1.94108 0.249133 0
M  V30 384 C 39.5596 -0.717561 3.50123 0
M  V30 385 C 39.2256 0.409095 4.4904 0
M  V30 386 C 37.8876 0.718399 4.75807 0
M  V30 387 C 40.2396 1.16717 5.07963 0
M  V30 388 C 37.5676 1.78896 5.5876 0
M  V30 389 C 39.9196 2.22762 5.92081 0
M  V30 390 C 38.5836 2.54303 6.1716 0
M  V30 391 H 37.8536 -0.114503 0.7321 0
M  V30 392 H 40.5006 0.415767 1.86932 0
M  V30 393 H 38.8056 -1.52627 3.60849 0
M  V30 394 H 40.5026 -1.20091 3.82595 0
M  V30 395 H 37.0926 0.157918 4.28309 0
M  V30 396 H 41.2766 0.941466 4.87289 0
M  V30 397 H 36.5326 2.0381 5.7643 0
M  V30 398 H 40.7066 2.81962 6.36765 0
M  V30 399 H 38.3336 3.3739 6.81229 0
M  V30 400 N 39.9087 -1.5758 0.0250728 0
M  V30 401 C 41.1547 -1.91917 -0.655413 0
M  V30 402 C 41.4877 -0.901433 -1.72011 0
M  V30 403 O 40.7627 0.0764069 -1.9435 0
M  V30 404 C 41.0457 -3.36751 -1.27558 0
M  V30 405 C 40.8987 -4.49258 -0.220719 0
M  V30 406 C 42.2177 -3.81469 -2.19475 0
M  V30 407 H 39.3367 -0.697925 -0.23679 0
M  V30 408 H 41.9787 -1.89825 0.0815036 0
M  V30 409 H 40.1287 -3.38664 -1.90365 0
M  V30 410 H 41.8007 -4.59478 0.409601 0
M  V30 411 H 40.0437 -4.31415 0.454264 0
M  V30 412 H 40.7147 -5.47618 -0.694175 0
M  V30 413 H 43.1907 -3.81266 -1.66659 0
M  V30 414 H 42.0667 -4.83512 -2.59822 0
M  V30 415 H 42.3277 -3.16744 -3.08424 0
M  V30 416 N 41.3868 0.248026 -1.55636 0
M  V30 417 C 42.6328 0.97767 -1.77678 0
M  V30 418 C 42.9658 1.85016 -0.590135 0
M  V30 419 O 42.2408 1.90095 0.411611 0
M  V30 420 C 42.5238 1.83914 -3.09593 0
M  V30 421 C 42.3768 0.99491 -4.38659 0
M  V30 422 C 43.6958 2.82183 -3.37729 0
M  V30 423 H 40.8148 0.354005 -0.646413 0
M  V30 424 H 43.4568 0.248253 -1.88371 0
M  V30 425 H 41.6068 2.46104 -3.00608 0
M  V30 426 H 43.2788 0.391789 -4.59633 0
M  V30 427 H 41.5218 0.299231 -4.32767 0
M  V30 428 H 42.1928 1.63145 -5.2734 0
M  V30 429 H 44.6688 2.30129 -3.4667 0
M  V30 430 H 43.5448 3.39582 -4.31249 0
M  V30 431 H 43.8058 3.58588 -2.58586 0
M  V30 432 N 42.8649 1.48995 0.513639 0
M  V30 433 C 44.1049 1.59452 1.27885 0
M  V30 434 C 44.4689 0.269479 1.90099 0
M  V30 435 O 45.6699 0.249139 2.67643 0
M  V30 436 C 43.9409 2.71277 2.32688 0
M  V30 437 S 45.4999 3.01604 3.18717 0
M  V30 438 H 42.3179 0.562565 0.434789 0
M  V30 439 H 44.9199 1.86595 0.583301 0
M  V30 440 H 43.6239 3.66089 1.8549 0
M  V30 441 H 43.1549 2.46086 3.06929 0
M  V30 442 H 45.1699 2.42155 4.331 0
M  V30 443 N 44.343 -0.763751 1.37857 0
M  V30 444 C 45.306 -1.85889 1.34081 0
M  V30 445 C 46.306 -1.58949 0.243277 0
M  V30 446 O 47.496 -1.66882 0.499589 0
M  V30 447 C 44.628 -3.23176 1.08489 0
M  V30 448 H 45.821 -1.90648 2.31502 0
M  V30 449 H 43.374 -0.964367 1.23003 0
M  V30 450 H 44.109 -3.24091 0.116318 0
M  V30 451 H 43.894 -3.44124 1.8794 0
M  V30 452 H 45.384 -4.03254 1.08517 0
M  V30 453 N 45.8211 -1.22559 -0.990812 0
M  V30 454 C 47.0681 -1.05141 -1.73065 0
M  V30 455 C 47.3961 0.413191 -1.9006 0
M  V30 456 O 46.6511 1.32257 -1.44245 0
M  V30 457 C 46.9501 -1.71011 -3.13831 0
M  V30 458 C 46.6161 -3.20911 -3.16745 0
M  V30 459 C 45.2781 -3.61812 -3.17247 0
M  V30 460 C 47.6301 -4.16846 -3.12872 0
M  V30 461 C 44.9581 -4.97127 -3.1158 0
M  V30 462 C 47.3101 -5.5214 -3.08746 0
M  V30 463 C 45.9741 -5.92419 -3.07565 0
M  V30 464 H 45.2441 -0.384738 -0.633291 0
M  V30 465 H 47.8911 -1.5235 -1.16025 0
M  V30 466 H 46.1961 -1.16133 -3.74193 0
M  V30 467 H 47.8931 -1.55023 -3.69823 0
M  V30 468 H 44.4831 -2.88344 -3.17105 0
M  V30 469 H 48.6671 -3.86263 -3.11632 0
M  V30 470 H 43.9231 -5.27562 -3.09012 0
M  V30 471 H 48.0971 -6.26201 -3.04705 0
M  V30 472 H 45.7241 -6.97236 -3.02929 0
M  V30 473 N 47.2992 1.18797 -1.03562 0
M  V30 474 C 48.2472 2.24297 -0.615905 0
M  V30 475 C 49.2412 1.65643 0.354808 0
M  V30 476 O 50.4472 1.78618 0.22265 0
M  V30 477 H 46.8222 0.729909 -0.180934 0
M  V30 478 H 48.7932 2.5701 -1.5162 0
M  V30 479 C 47.5422 3.47698 0.0104735 0
M  V30 480 H 46.8652 3.93125 -0.727509 0
M  V30 481 H 48.3052 4.23159 0.266995 0
M  V30 482 C 46.7642 3.12489 1.25905 0
M  V30 483 O 47.2942 3.25761 2.35038 0
M  V30 484 N 45.5002 2.6686 1.15039 0
M  V30 485 H 45.0472 2.56261 0.262328 0
M  V30 486 H 45.0052 2.43674 1.98672 0
M  V30 487 N 48.7773 0.814389 1.34928 0
M  V30 488 C 50.1933 0.499084 1.51596 0
M  V30 489 C 50.3933 -0.978319 1.76157 0
M  V30 490 O 49.4493 -1.76309 1.80752 0
M  V30 491 C 50.7623 1.35121 2.68631 0
M  V30 492 C 52.3103 1.34746 2.82511 0
M  V30 493 C 52.7853 2.18388 4.0258 0
M  V30 494 N 54.2763 2.15966 4.09772 0
M  V30 495 C 55.0113 2.77437 5.01813 0
M  V30 496 N 54.5073 3.47866 5.99134 0
M  V30 497 N 56.3003 2.67037 4.94619 0
M  V30 498 H 48.4513 1.7711 1.17243 0
M  V30 499 H 50.7143 0.754256 0.574284 0
M  V30 500 H 50.4203 2.40001 2.57085 0
M  V30 501 H 50.2943 1.00991 3.63429 0
M  V30 502 H 52.6813 0.30648 2.93504 0
M  V30 503 H 52.7623 1.72869 1.88547 0
M  V30 504 H 52.4063 3.2253 3.92347 0
M  V30 505 H 52.3363 1.77621 4.9574 0
M  V30 506 H 54.8273 1.64729 3.40107 0
M  V30 507 H 55.1403 3.92038 6.65977 0
M  V30 508 H 53.4853 3.51972 5.99284 0
M  V30 509 H 56.6763 2.11597 4.17546 0
M  V30 510 H 56.8493 3.15232 5.66156 0
M  V30 511 N 50.2554 -1.46986 0.568584 0
M  V30 512 C 51.4834 -2.0683 0.0539956 0
M  V30 513 C 51.8984 -1.41953 -1.24478 0
M  V30 514 O 51.2554 -0.519933 -1.74937 0
M  V30 515 C 51.3064 -3.61254 -0.133362 0
M  V30 516 O 51.0274 -4.237 1.11399 0
M  V30 517 C 52.5284 -4.37992 -0.683927 0
M  V30 518 H 49.7484 -0.669058 0.0510141 0
M  V30 519 H 52.2924 -1.88824 0.785234 0
M  V30 520 H 50.4474 -3.78735 -0.81477 0
M  V30 521 H 50.8614 -5.16388 0.91888 0
M  V30 522 H 52.3354 -5.46684 -0.764263 0
M  V30 523 H 52.8124 -4.05058 -1.69778 0
M  V30 524 H 53.4184 -4.25283 -0.0378494 0
M  V30 525 N 51.7335 -0.305618 -1.54608 0
M  V30 526 C 52.9795 0.302746 -2.00528 0
M  V30 527 C 53.3125 1.53184 -1.19367 0
M  V30 528 O 52.5875 1.92598 -0.271321 0
M  V30 529 C 52.8705 0.654756 -3.54097 0
M  V30 530 C 52.7235 -0.583793 -4.45995 0
M  V30 531 C 54.0425 1.47947 -4.14487 0
M  V30 532 H 51.1615 0.108564 -0.72896 0
M  V30 533 H 53.8035 -0.418634 -1.85331 0
M  V30 534 H 51.9535 1.26935 -3.67178 0
M  V30 535 H 53.6255 -1.22224 -4.44814 0
M  V30 536 H 51.8685 -1.21615 -4.16404 0
M  V30 537 H 52.5395 -0.293287 -5.5122 0
M  V30 538 H 55.0155 0.96013 -4.04871 0
M  V30 539 H 53.8915 1.69454 -5.22088 0
M  V30 540 H 54.1525 2.47011 -3.66658 0
M  V30 541 N 53.2116 1.57565 -0.0334293 0
M  V30 542 C 54.4366 1.96689 0.657895 0
M  V30 543 C 54.8616 0.910057 1.64619 0
M  V30 544 O 54.2196 -0.128598 1.80843 0
M  V30 545 C 54.2676 3.34905 1.33683 0
M  V30 546 O 53.3716 3.31574 2.45219 0
M  V30 547 H 52.7126 0.641205 0.172489 0
M  V30 548 H 55.2426 2.04372 -0.0965621 0
M  V30 549 H 55.2526 3.71234 1.69262 0
M  V30 550 H 53.9276 4.11366 0.612411 0
M  V30 551 H 52.5046 3.06968 2.11719 0
M  V30 552 N 54.6897 -0.239769 1.55765 0
M  V30 553 C 55.6367 -1.29696 1.90913 0
M  V30 554 C 56.6067 -1.47478 0.764164 0
M  V30 555 O 57.7917 -1.61345 1.01845 0
M  V30 556 C 54.9317 -2.64598 2.21544 0
M  V30 557 C 54.0447 -2.54765 3.48882 0
M  V30 558 C 53.1797 -3.82069 3.69049 0
M  V30 559 C 52.2187 -3.66883 4.89963 0
M  V30 560 N 51.3557 -4.86094 5.06614 0
M  V30 561 H 56.1957 -0.990224 2.81067 0
M  V30 562 H 53.7327 -0.477684 1.39128 0
M  V30 563 H 55.6907 -3.43132 2.3731 0
M  V30 564 H 54.3207 -2.93405 1.34585 0
M  V30 565 H 53.3727 -1.67763 3.41409 0
M  V30 566 H 54.6847 -2.39457 4.37563 0
M  V30 567 H 53.8387 -4.69046 3.84812 0
M  V30 568 H 52.5777 -4.00282 2.78614 0
M  V30 569 H 51.5827 -2.78289 4.74168 0
M  V30 570 H 52.8077 -3.50157 5.81865 0
M  V30 571 H 50.7537 -5.04655 4.19117 0
M  V30 572 H 50.6707 -4.73443 5.89396 0
M  V30 573 H 51.9387 -5.74549 5.26795 0
M  V30 574 N 56.1678 -1.49265 -0.50573 0
M  V30 575 C 57.4138 -1.58748 -1.26202 0
M  V30 576 C 57.7468 -0.271227 -1.92297 0
M  V30 577 O 57.0218 0.724831 -1.80489 0
M  V30 578 C 57.3048 -2.74332 -2.33268 0
M  V30 579 C 57.1578 -4.15737 -1.71705 0
M  V30 580 C 58.4768 -2.85576 -3.34865 0
M  V30 581 H 55.5958 -0.577826 -0.457478 0
M  V30 582 H 58.2378 -1.81532 -0.560897 0
M  V30 583 H 56.3878 -2.55036 -2.93068 0
M  V30 584 H 58.0598 -4.46537 -1.15769 0
M  V30 585 H 56.3028 -4.21605 -1.02135 0
M  V30 586 H 56.9738 -4.92477 -2.49341 0
M  V30 587 H 59.4498 -3.03127 -2.8505 0
M  V30 588 H 58.3258 -3.68135 -4.07146 0
M  V30 589 H 58.5868 -1.94732 -3.96903 0
M  V30 590 N 57.6459 0.756429 -1.3826 0
M  V30 591 C 58.9229 1.50584 -1.24835 0
M  V30 592 C 59.3029 2.10556 0.151485 0
M  V30 593 O 58.6509 1.96825 1.1607 0
M  V30 594 C 58.8609 2.57448 -2.3563 0
M  V30 595 C 60.2089 3.24429 -2.73917 0
M  V30 596 O 61.2329 2.67751 -2.34921 0
M  V30 597 O 60.0919 4.26937 -3.41156 0
M  V30 598 H 57.1859 0.667664 -0.48801 0
M  V30 599 H 59.7319 0.792083 -1.5008 0
M  V30 600 H 58.5039 2.11362 -3.29305 0
M  V30 601 H 58.1269 3.36408 -2.11933 0
M  V30 602 N 59.124 1.23083 0.984299 0
M  V30 603 C 60.401 0.9689 1.69917 0
M  V30 604 C 60.781 -0.513604 2.04757 0
M  V30 605 O 60.129 -1.48383 1.73767 0
M  V30 606 C 60.339 1.87518 2.94343 0
M  V30 607 C 61.687 2.13636 3.6694 0
M  V30 608 O 62.711 1.85036 3.04368 0
M  V30 609 O 61.57 2.62119 4.79537 0
M  V30 610 H 58.664 0.365095 0.742048 0
M  V30 611 H 61.21 1.34107 1.03987 0
M  V30 612 H 59.982 2.87756 2.65164 0
M  V30 613 H 59.605 1.50514 3.6801 0
M  V30 614 N 60.6021 -1.18246 1.0419 0
M  V30 615 C 61.8491 -1.88257 0.746017 0
M  V30 616 C 62.1771 -1.80429 -0.726331 0
M  V30 617 O 61.4321 -1.2 -1.54591 0
M  V30 618 C 61.7311 -3.38082 1.15911 0
M  V30 619 C 61.3971 -3.66114 2.63195 0
M  V30 620 C 60.0591 -3.73474 3.03432 0
M  V30 621 C 62.4111 -3.78398 3.5842 0
M  V30 622 C 59.7391 -3.90599 4.37778 0
M  V30 623 C 62.0911 -3.97039 4.92487 0
M  V30 624 C 60.7551 -4.02635 5.32392 0
M  V30 625 H 60.0251 -0.688883 0.272987 0
M  V30 626 H 62.6721 -1.3995 1.30715 0
M  V30 627 H 60.9771 -3.88377 0.516806 0
M  V30 628 H 62.6741 -3.90596 0.907516 0
M  V30 629 H 59.2641 -3.61003 2.3103 0
M  V30 630 H 63.4481 -3.72042 3.28479 0
M  V30 631 H 58.7041 -3.93175 4.68213 0
M  V30 632 H 62.8781 -4.05486 5.66175 0
M  V30 633 H 60.5051 -4.15657 6.36501 0
M  V30 634 N 62.0802 -0.821533 -1.34494 0
M  V30 635 C 63.0102 -0.257138 -2.3208 0
M  V30 636 C 63.9912 0.625645 -1.58176 0
M  V30 637 O 65.1762 0.552811 -1.86166 0
M  V30 638 C 62.3062 0.582958 -3.42372 0
M  V30 639 C 61.2602 -0.202571 -4.2752 0
M  V30 640 C 60.5862 0.760179 -5.29269 0
M  V30 641 C 61.8862 -1.40998 -5.02908 0
M  V30 642 H 63.5802 -1.07247 -2.79532 0
M  V30 643 H 61.1262 -0.517163 -1.34393 0
M  V30 644 H 63.0792 0.987972 -4.09655 0
M  V30 645 H 61.8032 1.43133 -2.93565 0
M  V30 646 H 60.4622 -0.588936 -3.61838 0
M  V30 647 H 60.1102 1.60447 -4.76724 0
M  V30 648 H 59.8102 0.238809 -5.87115 0
M  V30 649 H 61.3342 1.16308 -5.9942 0
M  V30 650 H 62.7482 -1.07905 -5.63054 0
M  V30 651 H 61.1452 -1.86689 -5.70322 0
M  V30 652 H 62.2152 -2.1889 -4.32684 0
M  V30 653 N 63.5583 1.46682 -0.576371 0
M  V30 654 C 64.5213 2.28707 0.150239 0
M  V30 655 C 65.5213 1.38035 0.824794 0
M  V30 656 O 66.7113 1.60476 0.677719 0
M  V30 657 C 63.8433 3.18248 1.22192 0
M  V30 658 H 65.0363 2.94423 -0.570521 0
M  V30 659 H 62.5893 1.52688 -0.334078 0
M  V30 660 H 63.3243 2.57265 1.97447 0
M  V30 661 H 63.1093 3.85 0.742812 0
M  V30 662 H 64.5993 3.80001 1.73172 0
M  V30 663 N 65.0364 0.313813 1.54444 0
M  V30 664 C 65.9844 -0.572171 2.25453 0
M  V30 665 C 66.9784 -1.12657 1.2651 0
M  V30 666 O 68.1844 -1.07573 1.44319 0
M  V30 667 H 64.5594 -0.203146 0.724041 0
M  V30 668 H 66.5304 0.0491145 2.9836 0
M  V30 669 C 65.2794 -1.72626 3.0182 0
M  V30 670 H 64.6024 -1.30891 3.77767 0
M  V30 671 H 66.0424 -2.32199 3.54767 0
M  V30 672 C 64.5014 -2.63806 2.09542 0
M  V30 673 O 65.0314 -3.65256 1.67185 0
M  V30 674 N 63.2374 -2.31824 1.75232 0
M  V30 675 H 62.7844 -1.49368 2.09873 0
M  V30 676 H 62.7424 -2.93095 1.13767 0
M  V30 677 N 66.5145 -1.57545 0.0417849 0
M  V30 678 C 67.4245 -2.14451 -0.951213 0
M  V30 679 C 68.4405 -1.09992 -1.34825 0
M  V30 680 O 69.6165 -1.42114 -1.42708 0
M  V30 681 C 66.6815 -2.67063 -2.21084 0
M  V30 682 C 65.7425 -3.86284 -1.87304 0
M  V30 683 C 64.9755 -4.36378 -3.07261 0
M  V30 684 O 65.1985 -3.85587 -4.20332 0
M  V30 685 O 64.1325 -5.28077 -2.88822 0
M  V30 686 H 67.9585 -2.99601 -0.497287 0
M  V30 687 H 65.5435 -1.48317 -0.179567 0
M  V30 688 H 67.4255 -3.00914 -2.95006 0
M  V30 689 H 66.1005 -1.84989 -2.65633 0
M  V30 690 H 65.0075 -3.57338 -1.10727 0
M  V30 691 H 66.3405 -4.6956 -1.47562 0
M  V30 692 N 67.9926 0.231505 -1.5589 0
M  V30 693 C 68.9556 1.27028 -1.90779 0
M  V30 694 C 69.9556 1.40308 -0.785507 0
M  V30 695 O 71.1456 1.38744 -1.05336 0
M  V30 696 C 68.2776 2.64566 -2.14983 0
M  V30 697 H 69.4706 0.973017 -2.83677 0
M  V30 698 H 67.0236 0.471486 -1.49019 0
M  V30 699 H 67.7586 2.99406 -1.24604 0
M  V30 700 H 67.5436 2.56305 -2.96732 0
M  V30 701 H 69.0336 3.39543 -2.43105 0
M  V30 702 N 69.4707 1.49531 0.497807 0
M  V30 703 C 70.4177 1.66436 1.59899 0
M  V30 704 C 71.3877 0.505793 1.58212 0
M  V30 705 O 72.5727 0.733202 1.7615 0
M  V30 706 C 69.7127 1.7399 2.98029 0
M  V30 707 C 68.8257 3.01172 3.09708 0
M  V30 708 C 67.9607 2.99686 4.38591 0
M  V30 709 C 66.9997 4.21434 4.43914 0
M  V30 710 N 66.1367 4.1784 5.64229 0
M  V30 711 H 70.9767 2.60459 1.44793 0
M  V30 712 H 68.5137 1.29137 0.704423 0
M  V30 713 H 70.4717 1.76352 3.78095 0
M  V30 714 H 69.1017 0.834301 3.11832 0
M  V30 715 H 68.1537 3.08408 2.22685 0
M  V30 716 H 69.4657 3.91165 3.09502 0
M  V30 717 H 68.6197 3.00628 5.2698 0
M  V30 718 H 67.3587 2.07477 4.41367 0
M  V30 719 H 66.3637 4.20733 3.53926 0
M  V30 720 H 67.5887 5.14839 4.42851 0
M  V30 721 H 65.5347 3.28469 5.67841 0
M  V30 722 H 65.4517 5.01571 5.65652 0
M  V30 723 H 66.7197 4.22889 6.54817 0
M  V30 724 N 70.9488 -0.749086 1.3866 0
M  V30 725 C 72.1968 -1.50535 1.34847 0
M  V30 726 C 72.5178 -1.94909 -0.0595016 0
M  V30 727 O 71.7878 -1.67973 -1.00806 0
M  V30 728 H 70.3678 -0.558395 0.49619 0
M  V30 729 H 73.0298 -0.890165 1.73384 0
M  V30 730 H 72.1258 -2.39413 2.00219 0
M  V30 731 N 72.4269 -1.23603 -0.977757 0
M  V30 732 C 73.6549 -1.09646 -1.75458 0
M  V30 733 C 74.0699 0.351859 -1.85492 0
M  V30 734 O 73.4269 1.24327 -1.336 0
M  V30 735 C 73.4779 -1.71895 -3.18016 0
M  V30 736 O 73.1989 -3.11063 -3.08498 0
M  V30 737 C 74.6999 -1.63415 -4.12081 0
M  V30 738 H 71.9199 -0.38359 -0.550545 0
M  V30 739 H 74.4639 -1.63507 -1.22824 0
M  V30 740 H 72.6189 -1.22061 -3.67668 0
M  V30 741 H 73.0329 -3.41305 -3.9826 0
M  V30 742 H 74.5069 -2.11669 -5.09804 0
M  V30 743 H 74.9839 -0.593462 -4.35172 0
M  V30 744 H 75.5899 -2.12628 -3.68334 0
M  V30 745 N 73.905 1.17692 -1.04816 0
M  V30 746 C 74.852 2.21581 -0.645797 0
M  V30 747 C 75.822 1.62367 0.350159 0
M  V30 748 O 77.007 1.89254 0.242433 0
M  V30 749 C 74.147 3.45092 -0.0227568 0
M  V30 750 C 73.26 4.18613 -1.06709 0
M  V30 751 C 72.395 5.29602 -0.411767 0
M  V30 752 C 71.434 5.94904 -1.44067 0
M  V30 753 N 70.571 6.97414 -0.809781 0
M  V30 754 H 75.411 2.55353 -1.5362 0
M  V30 755 H 72.948 1.25438 -0.768364 0
M  V30 756 H 74.906 4.15679 0.35588 0
M  V30 757 H 73.536 3.11917 0.831122 0
M  V30 758 H 72.588 3.46779 -1.5636 0
M  V30 759 H 73.9 4.63293 -1.84827 0
M  V30 760 H 73.054 6.06696 0.0206623 0
M  V30 761 H 71.793 4.86045 0.401438 0
M  V30 762 H 70.798 5.16544 -1.88316 0
M  V30 763 H 72.023 6.40542 -2.25571 0
M  V30 764 H 69.969 6.55998 -0.0170186 0
M  V30 765 H 69.886 7.40386 -1.52856 0
M  V30 766 H 71.154 7.78463 -0.401999 0
M  V30 767 N 75.3831 0.828654 1.34056 0
M  V30 768 C 76.6291 0.42008 1.98402 0
M  V30 769 C 76.9621 -1.01564 1.65525 0
M  V30 770 O 76.2371 -1.70834 0.929831 0
M  V30 771 C 76.5201 0.62927 3.54559 0
M  V30 772 C 76.3731 2.11152 3.97159 0
M  V30 773 C 77.6921 0.0688756 4.40046 0
M  V30 774 H 74.8111 0.154104 0.720709 0
M  V30 775 H 77.4531 1.04228 1.5886 0
M  V30 776 H 75.6031 0.0996418 3.88372 0
M  V30 777 H 77.2751 2.70522 3.73651 0
M  V30 778 H 75.5181 2.59985 3.47261 0
M  V30 779 H 76.1891 2.20868 5.05887 0
M  V30 780 H 78.6651 0.521458 4.1282 0
M  V30 781 H 77.5411 0.245006 5.48353 0
M  V30 782 H 77.8021 -1.0266 4.30015 0
M  V30 783 N 76.8612 -1.46375 0.584142 0
M  V30 784 C 78.1072 -2.02678 0.0703716 0
M  V30 785 C 78.4402 -1.4545 -1.28678 0
M  V30 786 O 77.7152 -0.62014 -1.84349 0
M  V30 787 C 77.9982 -3.60099 0.00614674 0
M  V30 788 C 77.8512 -4.27709 1.3923 0
M  V30 789 C 79.1702 -4.34598 -0.693742 0
M  V30 790 H 76.2892 -0.736504 0.027047 0
M  V30 791 H 78.9312 -1.74501 0.751615 0
M  V30 792 H 77.0812 -3.84236 -0.574009 0
M  V30 793 H 78.7532 -4.14832 2.01773 0
M  V30 794 H 76.9962 -3.87016 1.95962 0
M  V30 795 H 77.6672 -5.36478 1.29982 0
M  V30 796 H 80.1432 -4.15615 -0.200869 0
M  V30 797 H 79.0192 -5.44318 -0.707714 0
M  V30 798 H 79.2802 -4.05759 -1.75533 0
M  V30 799 N 78.3393 -0.321999 -1.54275 0
M  V30 800 C 79.5873 0.280489 -2.00144 0
M  V30 801 C 79.9083 1.52777 -1.21178 0
M  V30 802 O 79.1783 1.9338 -0.313187 0
M  V30 803 H 77.7583 0.106632 -0.73935 0
M  V30 804 H 80.4203 -0.438184 -1.8991 0
M  V30 805 H 79.5163 0.537972 -3.07428 0
M  V30 806 N 79.8174 1.5752 -0.0501392 0
M  V30 807 C 80.7804 2.1037 0.909786 0
M  V30 808 C 81.7804 1.02308 1.24056 0
M  V30 809 O 82.9704 1.28385 1.17741 0
M  V30 810 C 80.1024 2.58708 2.21998 0
M  V30 811 H 81.2954 2.96479 0.451665 0
M  V30 812 H 78.8484 1.55038 0.198248 0
M  V30 813 H 79.5834 1.75989 2.72394 0
M  V30 814 H 79.3684 3.37675 1.99295 0
M  V30 815 H 80.8584 2.99747 2.9076 0
M  V30 816 N 81.2955 -0.223234 1.56011 0
M  V30 817 C 82.2275 -1.30006 1.88762 0
M  V30 818 C 83.2405 -1.43129 0.775746 0
M  V30 819 O 84.4295 -1.44057 1.05403 0
M  V30 820 C 81.5295 -2.67589 2.07965 0
M  V30 821 C 80.7025 -2.76434 3.38973 0
M  V30 822 C 79.7615 -3.95019 3.47629 0
M  V30 823 O 78.7875 -3.83436 4.20672 0
M  V30 824 N 79.9895 -5.09249 2.78649 0
M  V30 825 H 82.7545 -1.02238 2.81722 0
M  V30 826 H 80.3155 -0.413278 1.56536 0
M  V30 827 H 82.3075 -3.45297 2.11073 0
M  V30 828 H 80.8775 -2.87964 1.21638 0
M  V30 829 H 80.0975 -1.85216 3.47978 0
M  V30 830 H 81.3855 -2.79313 4.25278 0
M  V30 831 H 80.7835 -5.21556 2.19081 0
M  V30 832 H 79.3405 -5.85007 2.8742 0
M  V30 833 N 82.7736 -1.49793 -0.48987 0
M  V30 834 C 83.9986 -1.63836 -1.27172 0
M  V30 835 C 84.4236 -0.31402 -1.8546 0
M  V30 836 O 83.7816 0.719803 -1.66399 0
M  V30 837 C 83.8296 -2.71797 -2.36978 0
M  V30 838 O 82.9336 -2.31744 -3.41128 0
M  V30 839 H 82.2746 -0.547997 -0.37496 0
M  V30 840 H 84.8046 -1.96053 -0.585191 0
M  V30 841 H 84.8146 -2.94305 -2.82575 0
M  V30 842 H 83.4896 -3.67923 -1.93921 0
M  V30 843 H 82.0666 -2.1961 -3.01373 0
M  V30 844 N 84.2517 0.741722 -1.39055 0
M  V30 845 C 85.1817 1.869 -1.39966 0
M  V30 846 C 86.1627 1.6804 -0.26392 0
M  V30 847 O 87.3477 1.88458 -0.468755 0
M  V30 848 C 84.4777 3.24572 -1.23574 0
M  V30 849 C 83.4317 3.58056 -2.34477 0
M  V30 850 C 82.7577 4.94593 -2.0318 0
M  V30 851 C 84.0577 3.61716 -3.76774 0
M  V30 852 H 85.7517 1.86395 -2.34302 0
M  V30 853 H 83.2977 0.895361 -1.1278 0
M  V30 854 H 85.2507 4.031 -1.22834 0
M  V30 855 H 83.9747 3.25587 -0.257045 0
M  V30 856 H 82.6337 2.81854 -2.34423 0
M  V30 857 H 82.2817 4.92181 -1.03765 0
M  V30 858 H 81.9817 5.17964 -2.77465 0
M  V30 859 H 83.5057 5.75486 -2.04079 0
M  V30 860 H 84.9197 4.30335 -3.78794 0
M  V30 861 H 83.3167 3.96603 -4.50362 0
M  V30 862 H 84.3867 2.61672 -4.08235 0
M  V30 863 N 85.7298 1.2412 0.971189 0
M  V30 864 C 86.6768 1.0305 2.06517 0
M  V30 865 C 87.6468 -0.0550666 1.66009 0
M  V30 866 O 88.8318 0.0988688 1.90544 0
M  V30 867 C 85.9718 0.637653 3.39158 0
M  V30 868 C 85.0848 1.79633 3.92882 0
M  V30 869 C 84.2198 1.34939 5.13775 0
M  V30 870 C 83.2588 2.47823 5.59687 0
M  V30 871 N 82.3958 2.04022 6.71803 0
M  V30 872 H 87.2358 1.96685 2.23873 0
M  V30 873 H 84.7728 0.979694 1.09729 0
M  V30 874 H 86.7308 0.390931 4.15364 0
M  V30 875 H 85.3608 -0.261693 3.21737 0
M  V30 876 H 84.4128 2.15681 3.13346 0
M  V30 877 H 85.7248 2.64466 4.22918 0
M  V30 878 H 84.8788 1.06134 5.97345 0
M  V30 879 H 83.6178 0.471557 4.85415 0
M  V30 880 H 82.6228 2.77392 4.74693 0
M  V30 881 H 83.8478 3.36158 5.90063 0
M  V30 882 H 81.7938 1.18632 6.45184 0
M  V30 883 H 81.7108 2.82409 7.01271 0
M  V30 884 H 82.9788 1.78347 7.58823 0
M  V30 885 N 87.2079 -1.17134 1.05439 0
M  V30 886 C 88.1179 -2.24878 0.668365 0
M  V30 887 C 89.1339 -1.71186 -0.311687 0
M  V30 888 O 90.3099 -2.00738 -0.163161 0
M  V30 889 C 87.3749 -3.46662 0.051648 0
M  V30 890 C 86.4359 -4.15429 1.08246 0
M  V30 891 C 85.6689 -5.31399 0.495082 0
M  V30 892 O 85.8919 -5.66153 -0.694743 0
M  V30 893 O 84.8259 -5.89187 1.23056 0
M  V30 894 H 88.6519 -2.60189 1.56637 0
M  V30 895 H 86.2369 -1.24482 0.826104 0
M  V30 896 H 88.1189 -4.20394 -0.290966 0
M  V30 897 H 86.7939 -3.13142 -0.819971 0
M  V30 898 H 85.7009 -3.43704 1.47711 0
M  V30 899 H 87.0339 -4.52982 1.92532 0
M  V30 900 N 88.686 -0.835752 -1.33615 0
M  V30 901 C 89.619 -0.211815 -2.27215 0
M  V30 902 C 90.597 0.639249 -1.49507 0
M  V30 903 O 91.781 0.600193 -1.78689 0
M  V30 904 C 88.908 0.702893 -3.31326 0
M  V30 905 C 87.954 -0.0723049 -4.26439 0
M  V30 906 S 88.787 -1.42811 -5.16106 0
M  V30 907 C 89.943 -0.518613 -6.23748 0
M  V30 908 H 90.176 -1.00533 -2.79786 0
M  V30 909 H 87.709 -0.632336 -1.40858 0
M  V30 910 H 89.667 1.22505 -3.91794 0
M  V30 911 H 88.328 1.47004 -2.77576 0
M  V30 912 H 87.521 0.62359 -5.00127 0
M  V30 913 H 87.123 -0.525424 -3.70291 0
M  V30 914 H 89.415 0.284778 -6.76901 0
M  V30 915 H 90.358 -1.22556 -6.97413 0
M  V30 916 H 90.766 -0.101344 -5.64409 0
M  V30 917 N 90.1641 1.46063 -0.591896 0
M  V30 918 C 91.4101 2.02638 -0.0811191 0
M  V30 919 C 91.7431 1.4613 1.27905 0
M  V30 920 O 91.0181 0.629908 1.84017 0
M  V30 921 C 91.3011 3.60091 -0.0252436 0
M  V30 922 C 91.1541 4.26965 -1.41496 0
M  V30 923 C 92.4731 4.3496 0.670685 0
M  V30 924 H 89.5921 0.73635 -0.0309524 0
M  V30 925 H 92.2341 1.741 -0.760859 0
M  V30 926 H 90.3841 3.84535 0.553624 0
M  V30 927 H 92.0561 4.13756 -2.0397 0
M  V30 928 H 90.2991 3.85971 -1.98011 0
M  V30 929 H 90.9701 5.35781 -1.32825 0
M  V30 930 H 93.4461 4.15716 0.178825 0
M  V30 931 H 92.3221 5.44686 0.678837 0
M  V30 932 H 92.5831 4.06685 1.73379 0
M  V30 933 N 91.6422 0.330177 1.54103 0
M  V30 934 C 92.8672 -0.274893 2.0557 0
M  V30 935 C 93.2922 -1.44487 1.20437 0
M  V30 936 O 92.6502 -1.80021 0.214991 0
M  V30 937 C 92.6982 -0.68079 3.54115 0
M  V30 938 O 91.8022 -1.7824 3.71893 0
M  V30 939 H 91.1432 -0.0483849 0.662235 0
M  V30 940 H 93.6732 0.480508 1.98878 0
M  V30 941 H 93.6832 -0.961635 3.96505 0
M  V30 942 H 92.3582 0.174903 4.15532 0
M  V30 943 H 90.9352 -1.49985 3.41407 0
M  V30 944 N 93.1203 -1.57491 0.0584922 0
M  V30 945 C 94.0673 -2.11958 -0.913376 0
M  V30 946 C 95.0373 -1.02875 -1.30407 0
M  V30 947 O 96.2223 -1.30464 -1.39226 0
M  V30 948 C 93.3623 -2.67497 -2.18035 0
M  V30 949 C 92.4753 -3.90691 -1.84349 0
M  V30 950 C 91.6103 -4.3452 -3.05559 0
M  V30 951 C 90.6493 -5.50395 -2.67827 0
M  V30 952 N 89.7863 -5.89244 -3.81754 0
M  V30 953 H 94.6263 -2.94704 -0.442017 0
M  V30 954 H 92.1633 -1.45643 -0.206545 0
M  V30 955 H 94.1213 -2.978 -2.92183 0
M  V30 956 H 92.7513 -1.87537 -2.62735 0
M  V30 957 H 91.8033 -3.66934 -1.00319 0
M  V30 958 H 93.1153 -4.7489 -1.5258 0
M  V30 959 H 92.2693 -4.66414 -3.87998 0
M  V30 960 H 91.0083 -3.49147 -3.40511 0
M  V30 961 H 90.0133 -5.18165 -1.83806 0
M  V30 962 H 91.2383 -6.3749 -2.34059 0
M  V30 963 H 89.1843 -5.06823 -4.16493 0
M  V30 964 H 89.1013 -6.68151 -3.53708 0
M  V30 965 H 90.3693 -6.25756 -4.64811 0
M  V30 966 N 94.5984 0.214957 -1.56127 0
M  V30 967 C 95.5284 1.2695 -1.95974 0
M  V30 968 C 96.5094 1.48539 -0.828868 0
M  V30 969 O 97.6944 1.60611 -1.09168 0
M  V30 970 C 94.8244 2.61794 -2.28214 0
M  V30 971 C 93.7784 2.54851 -3.43853 0
M  V30 972 C 93.1044 3.93785 -3.61715 0
M  V30 973 C 94.4044 2.09065 -4.78632 0
M  V30 974 H 96.0984 0.93846 -2.84312 0
M  V30 975 H 93.6444 0.449996 -1.36788 0
M  V30 976 H 95.5974 3.35731 -2.54682 0
M  V30 977 H 94.3214 2.96599 -1.36736 0
M  V30 978 H 92.9804 1.8337 -3.17444 0
M  V30 979 H 92.6284 4.25908 -2.67602 0
M  V30 980 H 92.3284 3.90019 -4.39498 0
M  V30 981 H 93.8524 4.69374 -3.90539 0
M  V30 982 H 95.2664 2.7275 -5.04262 0
M  V30 983 H 93.6634 2.16346 -5.59745 0
M  V30 984 H 94.7334 1.04315 -4.73547 0
M  V30 985 N 96.0765 1.50051 0.48192 0
M  V30 986 C 97.0235 1.68122 1.58125 0
M  V30 987 C 97.9935 0.522545 1.57666 0
M  V30 988 O 99.1785 0.751844 1.75362 0
M  V30 989 C 96.3185 1.77142 2.96167 0
M  V30 990 C 95.4315 3.0444 3.06497 0
M  V30 991 C 94.5665 3.04321 4.35387 0
M  V30 992 C 93.6055 4.26118 4.3942 0
M  V30 993 N 92.7425 4.238 5.59766 0
M  V30 994 H 97.5825 2.6198 1.42022 0
M  V30 995 H 95.1195 1.29877 0.690687 0
M  V30 996 H 97.0775 1.80352 3.76203 0
M  V30 997 H 95.7075 0.867329 3.1093 0
M  V30 998 H 94.7595 3.10752 2.19402 0
M  V30 999 H 96.0715 3.94426 3.05336 0
M  V30 1000 H 95.2255 3.062 5.23762 0
M  V30 1001 H 93.9645 2.12147 4.39141 0
M  V30 1002 H 92.9695 4.24463 3.49444 0
M  V30 1003 H 94.1945 5.19507 4.37366 0
M  V30 1004 H 92.1405 3.34474 5.64326 0
M  V30 1005 H 92.0575 5.07542 5.60301 0
M  V30 1006 H 93.3255 4.2981 6.50295 0
M  V30 1007 N 97.5546 -0.734337 1.39446 0
M  V30 1008 C 98.5016 -1.84835 1.38219 0
M  V30 1009 C 99.4716 -1.64331 0.24179 0
M  V30 1010 O 100.657 -1.85728 0.437002 0
M  V30 1011 C 97.7966 -3.22355 1.23212 0
M  V30 1012 C 96.9096 -3.5456 2.46801 0
M  V30 1013 C 96.0446 -4.81485 2.24377 0
M  V30 1014 C 95.0836 -5.06536 3.43639 0
M  V30 1015 N 94.2206 -6.24665 3.20528 0
M  V30 1016 H 99.0606 -1.85219 2.33448 0
M  V30 1017 H 96.5976 -0.905039 1.15963 0
M  V30 1018 H 98.5556 -4.0174 1.12522 0
M  V30 1019 H 97.1856 -3.21248 0.316121 0
M  V30 1020 H 96.2376 -2.69872 2.68092 0
M  V30 1021 H 97.5496 -3.6899 3.3563 0
M  V30 1022 H 96.7036 -5.68852 2.10933 0
M  V30 1023 H 95.4426 -4.6923 1.32944 0
M  V30 1024 H 94.4476 -4.17632 3.5758 0
M  V30 1025 H 95.6726 -5.20676 4.35974 0
M  V30 1026 H 93.6186 -6.13696 2.3176 0
M  V30 1027 H 93.5356 -6.39685 4.02913 0
M  V30 1028 H 94.8036 -7.14868 3.10779 0
M  V30 1029 N 99.0327 -1.24633 -0.964593 0
M  V30 1030 C 100.444 -1.08045 -1.5226 0
M  V30 1031 C 100.795 0.347116 -1.93105 0
M  V30 1032 O 99.9197 1.23588 -1.77637 0
M  V30 1033 C 100.515 -1.95514 -2.76695 0
M  V30 1034 C 99.0737 -1.8314 -3.28841 0
M  V30 1035 C 98.2207 -1.90262 -2.01732 0
M  V30 1036 H 101.172 -1.38064 -0.782553 0
M  V30 1037 H 101.193 -1.48925 -3.50145 0
M  V30 1038 H 100.705 -2.99407 -2.46936 0
M  V30 1039 H 98.8057 -0.82092 -3.63444 0
M  V30 1040 H 98.9187 -2.67406 -3.97531 0
M  V30 1041 H 97.2827 -1.34027 -2.16584 0
M  V30 1042 H 98.0657 -2.9574 -1.74334 0
M  V30 1043 N 100.511 1.16574 -1.06058 0
M  V30 1044 C 101.927 1.3904 -0.783585 0
M  V30 1045 C 102.127 1.91784 0.618145 0
M  V30 1046 O 101.183 2.11511 1.37911 0
M  V30 1047 C 102.496 2.37329 -1.84649 0
M  V30 1048 C 104.044 2.51018 -1.86973 0
M  V30 1049 C 104.519 3.52588 -2.92311 0
M  V30 1050 N 106.01 3.60113 -2.91329 0
M  V30 1051 C 106.745 4.38486 -3.69482 0
M  V30 1052 N 106.241 5.20302 -4.57447 0
M  V30 1053 N 108.034 4.33446 -3.57885 0
M  V30 1054 H 100.185 0.806725 -1.96483 0
M  V30 1055 H 102.448 0.417117 -0.851303 0
M  V30 1056 H 102.154 2.05663 -2.85299 0
M  V30 1057 H 102.028 3.36946 -1.6955 0
M  V30 1058 H 104.415 2.81989 -0.869827 0
M  V30 1059 H 104.496 1.51445 -2.0615 0
M  V30 1060 H 104.14 3.22354 -3.92492 0
M  V30 1061 H 104.07 4.51886 -2.70383 0
M  V30 1062 H 106.561 3.01707 -2.27555 0
M  V30 1063 H 106.874 5.77311 -5.13743 0
M  V30 1064 H 105.219 5.19653 -4.61503 0
M  V30 1065 H 108.41 3.68586 -2.88551 0
M  V30 1066 H 108.583 4.94279 -4.19037 0
M  V30 1067 N 101.989 0.842826 1.3317 0
M  V30 1068 C 103.405 0.531128 1.50503 0
M  V30 1069 C 103.605 -0.940734 1.78192 0
M  V30 1070 O 102.661 -1.72436 1.84451 0
M  V30 1071 C 103.974 1.40789 2.65705 0
M  V30 1072 C 105.522 1.40708 2.79589 0
M  V30 1073 C 105.997 2.26878 3.97857 0
M  V30 1074 N 107.488 2.24609 4.05099 0
M  V30 1075 C 108.223 2.88019 4.95815 0
M  V30 1076 N 107.719 3.60496 5.9162 0
M  V30 1077 N 109.512 2.77469 4.88843 0
M  V30 1078 H 101.663 1.79557 1.1346 0
M  V30 1079 H 103.926 0.766267 0.558156 0
M  V30 1080 H 103.632 2.454 2.51936 0
M  V30 1081 H 103.506 1.08677 3.61205 0
M  V30 1082 H 105.893 0.368668 2.92788 0
M  V30 1083 H 105.974 1.76829 1.84838 0
M  V30 1084 H 105.618 3.3078 3.85418 0
M  V30 1085 H 105.548 1.88096 4.91861 0
M  V30 1086 H 108.039 1.71906 3.36536 0
M  V30 1087 H 108.352 4.06076 6.57512 0
M  V30 1088 H 106.697 3.64604 5.91683 0
M  V30 1089 H 109.888 2.20406 4.12963 0
M  V30 1090 H 110.061 3.2717 5.59342 0
M  V30 1091 N 103.467 -1.45747 0.599634 0
M  V30 1092 C 104.716 -2.01502 0.0893511 0
M  V30 1093 C 105.029 -1.4748 -1.28488 0
M  V30 1094 O 106.235 -1.95161 -1.88745 0
M  V30 1095 C 104.691 -3.59735 0.109082 0
M  V30 1096 C 104.299 -4.22754 1.48267 0
M  V30 1097 C 106.043 -4.23085 -0.346374 0
M  V30 1098 C 103.95 -5.73115 1.45921 0
M  V30 1099 H 102.88 -0.753417 0.0296347 0
M  V30 1100 H 105.531 -1.67303 0.753788 0
M  V30 1101 H 103.913 -3.91087 -0.621854 0
M  V30 1102 H 105.087 -4.02987 2.23468 0
M  V30 1103 H 103.402 -3.71567 1.87955 0
M  V30 1104 H 105.999 -5.33327 -0.38298 0
M  V30 1105 H 106.342 -3.93201 -1.36743 0
M  V30 1106 H 106.875 -3.9642 0.331038 0
M  V30 1107 H 103.614 -6.07685 2.45762 0
M  V30 1108 H 103.134 -5.95097 0.749665 0
M  V30 1109 H 104.813 -6.3616 1.17941 0
M  V30 1110 N 104.945 -0.338344 -1.53925 0
M  V30 1111 C 106.194 0.260732 -2.00008 0
M  V30 1112 C 106.507 1.52073 -1.23017 0
M  V30 1113 O 107.713 2.19672 -1.5955 0
M  V30 1114 C 106.169 0.51515 -3.56194 0
M  V30 1115 C 105.777 -0.728645 -4.42035 0
M  V30 1116 C 107.521 1.07337 -4.10706 0
M  V30 1117 C 105.428 -0.445315 -5.89721 0
M  V30 1118 H 104.358 0.101205 -0.747177 0
M  V30 1119 H 107.009 -0.452866 -1.77824 0
M  V30 1120 H 105.391 1.28932 -3.74423 0
M  V30 1121 H 106.565 -1.50352 -4.35581 0
M  V30 1122 H 104.88 -1.20813 -3.98489 0
M  V30 1123 H 107.477 1.30022 -5.18651 0
M  V30 1124 H 107.82 2.0273 -3.63602 0
M  V30 1125 H 108.353 0.360034 -3.96167 0
M  V30 1126 H 105.092 -1.36883 -6.41049 0
M  V30 1127 H 104.612 0.291569 -5.99091 0
M  V30 1128 H 106.291 -0.0606218 -6.46972 0
M  V30 1129 N 106.423 1.57458 -0.0668435 0
M  V30 1130 C 107.353 2.15468 0.899764 0
M  V30 1131 C 108.334 1.08042 1.31381 0
M  V30 1132 O 109.519 1.36054 1.38574 0
M  V30 1133 C 106.649 2.71232 2.16911 0
M  V30 1134 C 105.603 3.83781 1.89463 0
M  V30 1135 C 104.929 4.26127 3.22986 0
M  V30 1136 C 106.229 5.08238 1.20381 0
M  V30 1137 H 107.923 2.96488 0.416529 0
M  V30 1138 H 105.469 1.4262 0.198908 0
M  V30 1139 H 107.422 3.10458 2.84945 0
M  V30 1140 H 106.146 1.87426 2.67468 0
M  V30 1141 H 104.805 3.45051 1.23836 0
M  V30 1142 H 104.453 3.39249 3.71374 0
M  V30 1143 H 104.153 5.01993 3.05413 0
M  V30 1144 H 105.677 4.67966 3.92225 0
M  V30 1145 H 107.091 5.44811 1.78475 0
M  V30 1146 H 105.488 5.89349 1.13083 0
M  V30 1147 H 106.558 4.84558 0.182153 0
M  V30 1148 N 107.901 -0.206675 1.56239 0
M  V30 1149 C 108.831 -1.25909 1.96645 0
M  V30 1150 C 109.812 -1.48097 0.836734 0
M  V30 1151 O 110.997 -1.6003 1.10019 0
M  V30 1152 C 108.127 -2.6058 2.29599 0
M  V30 1153 C 107.081 -2.53024 3.452 0
M  V30 1154 C 106.407 -3.91861 3.63798 0
M  V30 1155 C 107.707 -2.06524 4.79734 0
M  V30 1156 H 109.401 -0.923369 2.84806 0
M  V30 1157 H 106.947 -0.442735 1.37025 0
M  V30 1158 H 108.9 -3.34375 2.56459 0
M  V30 1159 H 107.624 -2.95869 1.38307 0
M  V30 1160 H 106.283 -1.81684 3.18412 0
M  V30 1161 H 105.931 -4.24483 2.69857 0
M  V30 1162 H 105.631 -3.87683 4.4156 0
M  V30 1163 H 107.155 -4.67296 3.93022 0
M  V30 1164 H 108.569 -2.70072 5.05702 0
M  V30 1165 H 106.966 -2.13374 5.60885 0
M  V30 1166 H 108.036 -1.01802 4.74093 0
M  V30 1167 N 109.379 -1.50304 -0.473955 0
M  V30 1168 C 110.625 -1.61389 -1.22806 0
M  V30 1169 C 110.958 -0.311955 -1.91678 0
M  V30 1170 O 110.233 0.686384 -1.81986 0
M  V30 1171 C 110.516 -2.79219 -2.27396 0
M  V30 1172 C 110.369 -4.19286 -1.62848 0
M  V30 1173 C 111.688 -2.92614 -3.28732 0
M  V30 1174 H 108.807 -0.587399 -0.445119 0
M  V30 1175 H 111.449 -1.82681 -0.522265 0
M  V30 1176 H 109.599 -2.61195 -2.87592 0
M  V30 1177 H 111.271 -4.48892 -1.06271 0
M  V30 1178 H 109.514 -4.23677 -0.931693 0
M  V30 1179 H 110.185 -4.97655 -2.38838 0
M  V30 1180 H 112.661 -3.09105 -2.78556 0
M  V30 1181 H 111.537 -3.76688 -3.99246 0
M  V30 1182 H 111.798 -2.03107 -3.92683 0
M  V30 1183 N 110.857 0.726932 -1.39834 0
M  V30 1184 C 111.804 1.841 -1.39197 0
M  V30 1185 C 112.774 1.642 -0.250502 0
M  V30 1186 O 113.959 1.85494 -0.446846 0
M  V30 1187 C 111.099 3.21697 -1.24919 0
M  V30 1188 C 110.212 3.53247 -2.48678 0
M  V30 1189 C 109.347 4.80289 -2.26928 0
M  V30 1190 C 108.386 5.04707 -3.4632 0
M  V30 1191 N 107.523 6.22956 -3.23836 0
M  V30 1192 H 112.363 1.83979 -2.34427 0
M  V30 1193 H 109.9 0.898876 -1.16442 0
M  V30 1194 H 111.858 4.01137 -1.1465 0
M  V30 1195 H 110.488 3.21076 -0.333153 0
M  V30 1196 H 109.54 2.68447 -2.69519 0
M  V30 1197 H 110.852 3.67205 -3.37582 0
M  V30 1198 H 110.006 5.67725 -2.13947 0
M  V30 1199 H 108.745 4.68519 -1.35431 0
M  V30 1200 H 107.75 4.1573 -3.5979 0
M  V30 1201 H 108.975 5.18357 -4.38729 0
M  V30 1202 H 106.921 6.12459 -2.35011 0
M  V30 1203 H 106.838 6.37539 -4.063 0
M  V30 1204 H 108.106 7.1321 -3.14566 0
M  V30 1205 N 112.336 1.25143 0.95797 0
M  V30 1206 C 113.299 1.05321 2.03569 0
M  V30 1207 C 114.299 0.007152 1.60798 0
M  V30 1208 O 115.489 0.24903 1.72411 0
M  V30 1209 C 112.621 0.598394 3.35607 0
M  V30 1210 H 113.814 2.00986 2.22586 0
M  V30 1211 H 111.367 1.07502 1.13459 0
M  V30 1212 H 112.102 -0.361014 3.22284 0
M  V30 1213 H 111.887 1.35351 3.67998 0
M  V30 1214 H 113.377 0.48104 4.1482 0
M  V30 1215 N 113.814 -1.1601 1.06675 0
M  V30 1216 C 115.062 -1.86264 0.784229 0
M  V30 1217 C 115.383 -1.82328 -0.691488 0
M  V30 1218 O 114.653 -1.25947 -1.50047 0
M  V30 1219 H 113.233 -0.689621 0.28711 0
M  V30 1220 H 115.895 -1.40664 1.34906 0
M  V30 1221 H 114.991 -2.91595 1.11259 0
M  V30 1222 N 115.292 -0.849877 -1.32721 0
M  V30 1223 C 116.224 -0.248332 -2.27851 0
M  V30 1224 C 117.237 0.577218 -1.52224 0
M  V30 1225 O 118.426 0.402489 -1.73903 0
M  V30 1226 C 115.526 0.668107 -3.32249 0
M  V30 1227 C 114.699 -0.120534 -4.37234 0
M  V30 1228 C 113.758 0.720932 -5.21238 0
M  V30 1229 O 112.784 0.156166 -5.68986 0
M  V30 1230 N 113.986 2.03647 -5.43607 0
M  V30 1231 H 116.751 -1.06575 -2.80111 0
M  V30 1232 H 114.312 -0.709395 -1.45531 0
M  V30 1233 H 116.304 1.23627 -3.85355 0
M  V30 1234 H 114.874 1.38621 -2.80184 0
M  V30 1235 H 114.094 -0.870108 -3.84477 0
M  V30 1236 H 115.382 -0.662406 -5.0447 0
M  V30 1237 H 114.78 2.51871 -5.06535 0
M  V30 1238 H 113.337 2.55287 -5.99727 0
M  V30 1239 N 116.77 1.45427 -0.607355 0
M  V30 1240 C 117.733 2.28974 0.101693 0
M  V30 1241 C 118.733 1.39754 0.795329 0
M  V30 1242 O 119.923 1.61878 0.643527 0
M  V30 1243 C 117.055 3.20768 1.15414 0
M  V30 1244 H 118.248 2.93147 -0.632844 0
M  V30 1245 H 115.801 1.51945 -0.366391 0
M  V30 1246 H 116.536 2.61395 1.91945 0
M  V30 1247 H 116.321 3.86489 0.66098 0
M  V30 1248 H 117.811 3.83589 1.65073 0
M  V30 1249 N 118.248 0.346503 1.53744 0
M  V30 1250 C 119.494 -0.249473 2.0126 0
M  V30 1251 C 119.827 -1.49965 1.23386 0
M  V30 1252 O 119.102 -1.91811 0.32229 0
M  V30 1253 C 119.385 -0.560643 3.55709 0
M  V30 1254 C 119.238 0.701836 4.44291 0
M  V30 1255 C 120.557 -1.36905 4.18264 0
M  V30 1256 H 117.676 -0.0891987 0.731582 0
M  V30 1257 H 120.318 0.467624 1.84156 0
M  V30 1258 H 118.468 -1.17156 3.70414 0
M  V30 1259 H 120.14 1.33974 4.41417 0
M  V30 1260 H 118.383 1.32612 4.13033 0
M  V30 1261 H 119.054 0.43933 5.50249 0
M  V30 1262 H 121.53 -0.852448 4.07275 0
M  V30 1263 H 120.406 -1.55553 5.26398 0
M  V30 1264 H 120.667 -2.37203 3.73078 0
M  V30 1265 N 119.726 -1.57421 0.075193 0
M  V30 1266 C 121.003 -1.85029 -0.634329 0
M  V30 1267 C 121.383 -0.968305 -1.87582 0
M  V30 1268 O 120.731 -0.0354749 -2.28472 0
M  V30 1269 C 120.941 -3.35286 -0.968742 0
M  V30 1270 C 122.289 -4.02875 -1.34077 0
M  V30 1271 O 123.313 -3.40051 -1.06037 0
M  V30 1272 O 122.172 -5.13691 -1.86506 0
M  V30 1273 H 119.266 -0.7645 -0.315387 0
M  V30 1274 H 121.812 -1.69366 0.106382 0
M  V30 1275 H 120.584 -3.91203 -0.0871376 0
M  V30 1276 H 120.207 -3.56223 -1.7661 0
M  V30 1277 N 121.204 0.198386 -1.56346 0
M  V30 1278 C 122.481 0.944982 -1.71258 0
M  V30 1279 C 122.861 2.0151 -0.629048 0
M  V30 1280 O 122.209 2.25639 0.360473 0
M  V30 1281 C 122.419 1.5344 -3.1346 0
M  V30 1282 C 123.767 2.01778 -3.73591 0
M  V30 1283 O 124.791 1.63288 -3.16568 0
M  V30 1284 O 123.65 2.72594 -4.73661 0
M  V30 1285 H 120.744 0.442939 -0.69838 0
M  V30 1286 H 123.29 0.188342 -1.68652 0
M  V30 1287 H 122.062 0.762869 -3.83792 0
M  V30 1288 H 121.685 2.35596 -3.20282 0
M  V30 1289 N 122.682 1.50554 0.465978 0
M  V30 1290 C 123.929 1.61798 1.21768 0
M  V30 1291 C 124.257 0.320696 1.91838 0
M  V30 1292 O 123.512 -0.693724 1.82992 0
M  V30 1293 C 123.811 2.75152 2.28093 0
M  V30 1294 C 123.477 4.15454 1.75239 0
M  V30 1295 C 122.139 4.53628 1.60546 0
M  V30 1296 C 124.491 5.03121 1.36083 0
M  V30 1297 C 121.819 5.77204 1.05128 0
M  V30 1298 C 124.171 6.27249 0.821056 0
M  V30 1299 C 122.835 6.64221 0.660795 0
M  V30 1300 H 122.105 0.592063 0.445582 0
M  V30 1301 H 124.752 1.84503 0.512927 0
M  V30 1302 H 123.057 2.46556 3.04496 0
M  V30 1303 H 124.754 2.81055 2.86023 0
M  V30 1304 H 121.344 3.85341 1.87644 0
M  V30 1305 H 125.528 4.74257 1.46267 0
M  V30 1306 H 120.784 6.0452 0.91462 0
M  V30 1307 H 124.958 6.94537 0.509018 0
M  V30 1308 H 122.585 7.59854 0.229226 0
M  V30 1309 N 124.16 -0.719506 1.40217 0
M  V30 1310 C 125.409 -1.47486 1.37589 0
M  V30 1311 C 125.722 -1.9559 -0.0201568 0
M  V30 1312 O 126.928 -2.70973 -0.169049 0
M  V30 1313 C 125.384 -2.66575 2.41796 0
M  V30 1314 C 124.992 -2.25358 3.87192 0
M  V30 1315 C 126.736 -3.4433 2.48269 0
M  V30 1316 C 124.643 -3.41262 4.83005 0
M  V30 1317 H 123.573 -0.553901 0.511576 0
M  V30 1318 H 126.224 -0.783427 1.65936 0
M  V30 1319 H 124.606 -3.3787 2.06543 0
M  V30 1320 H 125.78 -1.61509 4.31569 0
M  V30 1321 H 124.095 -1.60657 3.84159 0
M  V30 1322 H 126.692 -4.30569 3.17041 0
M  V30 1323 H 127.035 -3.87872 1.51198 0
M  V30 1324 H 127.568 -2.80076 2.82493 0
M  V30 1325 H 124.307 -3.02755 5.81394 0
M  V30 1326 H 123.827 -4.0404 4.43297 0
M  V30 1327 H 125.506 -4.07383 5.02641 0
M  V30 1328 N 125.638 -1.25649 -0.95132 0
M  V30 1329 C 126.548 -1.08073 -2.08224 0
M  V30 1330 C 127.564 -0.0169666 -1.73992 0
M  V30 1331 O 128.74 -0.218593 -2.0021 0
M  V30 1332 C 125.805 -0.704922 -3.39458 0
M  V30 1333 C 124.866 -1.84699 -3.87537 0
M  V30 1334 C 124.099 -1.48902 -5.12508 0
M  V30 1335 O 124.322 -0.386156 -5.69091 0
M  V30 1336 O 123.256 -2.32033 -5.55378 0
M  V30 1337 H 127.082 -2.02924 -2.25954 0
M  V30 1338 H 124.667 -1.04618 -1.06656 0
M  V30 1339 H 126.549 -0.507609 -4.18332 0
M  V30 1340 H 125.224 0.214291 -3.2299 0
M  V30 1341 H 124.131 -2.09919 -3.09653 0
M  V30 1342 H 125.464 -2.74557 -4.08509 0
M  V30 1343 N 127.117 1.15442 -1.07289 0
M  V30 1344 C 128.064 2.20161 -0.692653 0
M  V30 1345 C 129.034 1.63073 0.31564 0
M  V30 1346 O 130.219 1.89725 0.202235 0
M  V30 1347 C 127.359 3.44967 -0.0959509 0
M  V30 1348 C 126.472 4.16256 -1.15564 0
M  V30 1349 C 125.607 5.28609 -0.524011 0
M  V30 1350 C 124.646 5.91715 -1.56653 0
M  V30 1351 N 123.783 6.9554 -0.957531 0
M  V30 1352 H 128.623 2.52037 -1.59002 0
M  V30 1353 H 126.16 1.2378 -0.794798 0
M  V30 1354 H 128.118 4.16341 0.267628 0
M  V30 1355 H 126.748 3.1361 0.764772 0
M  V30 1356 H 125.8 3.43385 -1.6368 0
M  V30 1357 H 127.112 4.59268 -1.94613 0
M  V30 1358 H 126.266 6.06604 -0.108032 0
M  V30 1359 H 125.005 4.86787 0.29825 0
M  V30 1360 H 124.01 5.12433 -1.9923 0
M  V30 1361 H 125.235 6.35614 -2.39107 0
M  V30 1362 H 123.181 6.55814 -0.156162 0
M  V30 1363 H 123.098 7.36977 -1.68526 0
M  V30 1364 H 124.366 7.77435 -0.567032 0
M  V30 1365 N 128.595 0.856903 1.32268 0
M  V30 1366 C 129.525 0.31858 2.31316 0
M  V30 1367 C 130.506 -0.583487 1.59779 0
M  V30 1368 O 131.691 -0.503259 1.87566 0
M  V30 1369 C 128.821 -0.491979 3.43798 0
M  V30 1370 C 127.775 0.315849 4.26833 0
M  V30 1371 C 127.101 -0.619586 5.31098 0
M  V30 1372 C 128.401 1.54282 4.98993 0
M  V30 1373 H 130.095 1.14621 2.76591 0
M  V30 1374 H 127.641 0.552613 1.32974 0
M  V30 1375 H 129.594 -0.879012 4.1213 0
M  V30 1376 H 128.318 -1.35299 2.97257 0
M  V30 1377 H 126.977 0.684664 3.6015 0
M  V30 1378 H 126.625 -1.47751 4.8081 0
M  V30 1379 H 126.325 -0.0830621 5.87541 0
M  V30 1380 H 127.849 -1.00375 6.02293 0
M  V30 1381 H 129.263 1.22796 5.59995 0
M  V30 1382 H 127.66 2.01745 5.65172 0
M  V30 1383 H 128.73 2.30285 4.26728 0
M  V30 1384 N 130.073 -1.45103 0.615059 0
M  V30 1385 C 131.319 -2.02483 0.113347 0
M  V30 1386 C 131.652 -1.48146 -1.25564 0
M  V30 1387 O 130.927 -0.659104 -1.82992 0
M  V30 1388 C 131.21 -3.60005 0.0825278 0
M  V30 1389 C 131.063 -4.2466 1.48271 0
M  V30 1390 C 132.382 -4.35972 -0.601401 0
M  V30 1391 H 129.501 -0.735764 0.0426632 0
M  V30 1392 H 132.143 -1.72868 0.788461 0
M  V30 1393 H 130.293 -3.85367 -0.492378 0
M  V30 1394 H 131.965 -4.10458 2.10527 0
M  V30 1395 H 130.208 -3.82772 2.04127 0
M  V30 1396 H 130.879 -5.336 1.41332 0
M  V30 1397 H 133.355 -4.15947 -0.112666 0
M  V30 1398 H 132.231 -5.45697 -0.592097 0
M  V30 1399 H 132.492 -4.09391 -1.66887 0
M  V30 1400 N 131.551 -0.354651 -1.53558 0
M  V30 1401 C 132.962 0.126902 -1.86268 0
M  V30 1402 C 133.313 1.49075 -1.27558 0
M  V30 1403 O 132.438 2.08105 -0.5934 0
M  V30 1404 C 133.033 0.237046 -3.3797 0
M  V30 1405 C 131.592 0.662842 -3.70518 0
M  V30 1406 C 130.739 -0.196652 -2.76602 0
M  V30 1407 H 133.69 -0.573849 -1.47962 0
M  V30 1408 H 133.711 1.06259 -3.65362 0
M  V30 1409 H 133.223 -0.755725 -3.80671 0
M  V30 1410 H 131.324 1.66424 -3.33367 0
M  V30 1411 H 131.437 0.445034 -4.77029 0
M  V30 1412 H 129.801 0.332763 -2.52517 0
M  V30 1413 H 130.584 -1.18676 -3.22135 0
M  V30 1414 N 133.029 1.57378 -0.0835403 0
M  V30 1415 C 133.959 2.1641 0.87686 0
M  V30 1416 C 134.94 1.09429 1.30228 0
M  V30 1417 O 136.125 1.37516 1.37124 0
M  V30 1418 C 133.255 2.73517 2.14022 0
M  V30 1419 C 132.209 3.85769 1.85381 0
M  V30 1420 C 131.535 4.29529 3.18448 0
M  V30 1421 C 132.835 5.09486 1.14984 0
M  V30 1422 H 134.529 2.96914 0.385059 0
M  V30 1423 H 132.075 1.42823 0.18377 0
M  V30 1424 H 134.028 3.13463 2.81636 0
M  V30 1425 H 132.752 1.90252 2.65465 0
M  V30 1426 H 131.411 3.46345 1.20169 0
M  V30 1427 H 131.059 3.43169 3.67755 0
M  V30 1428 H 130.759 5.05204 3.00071 0
M  V30 1429 H 132.283 4.72099 3.8724 0
M  V30 1430 H 133.697 5.46674 1.72687 0
M  V30 1431 H 132.094 5.90515 1.06826 0
M  V30 1432 H 133.164 4.84724 0.130749 0
M  V30 1433 N 134.507 -0.190092 1.56449 0
M  V30 1434 C 135.437 -1.23816 1.97969 0
M  V30 1435 C 136.418 -1.47201 0.852395 0
M  V30 1436 O 137.603 -1.58854 1.1171 0
M  V30 1437 C 134.733 -2.5813 2.3235 0
M  V30 1438 C 133.687 -2.49348 3.47864 0
M  V30 1439 C 133.013 -3.8798 3.67934 0
M  V30 1440 C 134.313 -2.01424 4.81898 0
M  V30 1441 H 136.007 -0.89311 2.85769 0
M  V30 1442 H 133.553 -0.428177 1.37487 0
M  V30 1443 H 135.506 -3.31637 2.59991 0
M  V30 1444 H 134.23 -2.94386 1.41438 0
M  V30 1445 H 132.889 -1.78297 3.20321 0
M  V30 1446 H 132.537 -4.21597 2.74344 0
M  V30 1447 H 132.237 -3.82978 4.45648 0
M  V30 1448 H 133.761 -4.63101 3.97957 0
M  V30 1449 H 135.175 -2.64693 5.08538 0
M  V30 1450 H 133.572 -2.07413 5.63116 0
M  V30 1451 H 134.642 -0.967677 4.75146 0
M  V30 1452 N 135.985 -1.50799 -0.457987 0
M  V30 1453 C 137.262 -1.52968 -1.21902 0
M  V30 1454 C 137.642 -0.281906 -2.09209 0
M  V30 1455 O 136.99 0.734076 -2.16388 0
M  V30 1456 C 137.2 -2.8326 -2.03875 0
M  V30 1457 C 138.548 -3.34425 -2.6162 0
M  V30 1458 O 139.572 -2.8467 -2.14106 0
M  V30 1459 O 138.431 -4.21188 -3.48228 0
M  V30 1460 H 135.525 -0.614129 -0.553873 0
M  V30 1461 H 138.071 -1.63098 -0.468739 0
M  V30 1462 H 136.843 -3.65543 -1.39621 0
M  V30 1463 H 136.466 -2.76195 -2.8601 0
M  V30 1464 N 137.463 0.71206 -1.40597 0
M  V30 1465 C 138.691 1.50111 -1.42388 0
M  V30 1466 C 139.106 1.88784 -0.0245395 0
M  V30 1467 O 138.463 1.55681 0.952351 0
M  V30 1468 C 138.514 2.7742 -2.31776 0
M  V30 1469 O 138.235 2.40382 -3.66262 0
M  V30 1470 C 139.736 3.7129 -2.42196 0
M  V30 1471 H 136.956 0.46314 -0.485533 0
M  V30 1472 H 139.5 0.878068 -1.8469 0
M  V30 1473 H 137.655 3.36001 -1.92827 0
M  V30 1474 H 138.069 3.22324 -4.13772 0
M  V30 1475 H 139.543 4.57448 -3.08943 0
M  V30 1476 H 140.02 4.14641 -1.44809 0
M  V30 1477 H 140.626 3.18619 -2.81712 0
M  V30 1478 N 138.941 1.26152 0.944643 0
M  V30 1479 C 140.189 1.11271 1.6871 0
M  V30 1480 C 140.51 -0.345166 1.91921 0
M  V30 1481 O 139.78 -1.24387 1.51343 0
M  V30 1482 H 138.36 0.408783 0.625224 0
M  V30 1483 H 141.022 1.58427 1.1352 0
M  V30 1484 H 140.118 1.62879 2.66227 0
M  V30 1485 N 140.419 -1.14872 1.07899 0
M  V30 1486 C 141.696 -1.81928 0.71845 0
M  V30 1487 C 142.076 -1.95417 -0.798455 0
M  V30 1488 O 141.424 -1.50997 -1.715 0
M  V30 1489 C 141.634 -3.17937 1.43935 0
M  V30 1490 C 142.982 -3.93501 1.59506 0
M  V30 1491 O 144.006 -3.27509 1.40058 0
M  V30 1492 O 142.865 -5.1183 1.91551 0
M  V30 1493 H 139.959 -0.78628 0.256305 0
M  V30 1494 H 142.505 -1.21934 1.18026 0
M  V30 1495 H 141.277 -3.0325 2.47295 0
M  V30 1496 H 140.9 -3.85619 0.968687 0
M  V30 1497 N 141.898 -0.863906 -1.31812 0
M  V30 1498 C 143.147 -0.46801 -1.96195 0
M  V30 1499 C 143.46 0.983474 -1.69077 0
M  V30 1500 O 144.666 1.48523 -2.27273 0
M  V30 1501 C 143.122 -0.785995 -3.51212 0
M  V30 1502 C 142.73 -2.25383 -3.87178 0
M  V30 1503 C 144.474 -0.458274 -4.22019 0
M  V30 1504 C 142.381 -2.51455 -5.3528 0
M  V30 1505 H 141.311 -0.171283 -0.734287 0
M  V30 1506 H 143.962 -1.05597 -1.50072 0
M  V30 1507 H 142.344 -0.127359 -3.95795 0
M  V30 1508 H 143.518 -2.95502 -3.53575 0
M  V30 1509 H 141.833 -2.54698 -3.2942 0
M  V30 1510 H 144.43 -0.630369 -5.30971 0
M  V30 1511 H 144.773 0.600834 -4.11941 0
M  V30 1512 H 145.306 -1.07319 -3.8305 0
M  V30 1513 H 142.045 -3.56025 -5.50387 0
M  V30 1514 H 141.565 -1.85923 -5.70257 0
M  V30 1515 H 143.244 -2.35874 -6.02472 0
M  V30 1516 N 143.376 1.44774 -0.622745 0
M  V30 1517 C 144.625 2.01334 -0.121397 0
M  V30 1518 C 144.938 1.49505 1.26125 0
M  V30 1519 O 146.144 1.98139 1.85616 0
M  V30 1520 C 144.6 3.59516 -0.166298 0
M  V30 1521 C 144.208 4.20342 -1.54974 0
M  V30 1522 C 145.952 4.23582 0.279021 0
M  V30 1523 C 143.859 5.70721 -1.55021 0
M  V30 1524 H 142.789 0.752851 -0.0416172 0
M  V30 1525 H 145.44 1.66083 -0.780309 0
M  V30 1526 H 143.822 3.92027 0.559557 0
M  V30 1527 H 144.996 3.99381 -2.29851 0
M  V30 1528 H 143.311 3.68529 -1.93843 0
M  V30 1529 H 145.908 5.33868 0.298083 0
M  V30 1530 H 146.251 3.95327 1.30471 0
M  V30 1531 H 146.784 3.95843 -0.394063 0
M  V30 1532 H 143.523 6.03698 -2.55399 0
M  V30 1533 H 143.043 5.93829 -0.844245 0
M  V30 1534 H 144.722 6.34203 -1.28047 0
M  V30 1535 N 144.854 0.36279 1.53368 0
M  V30 1536 C 146.103 -0.22888 2.00397 0
M  V30 1537 C 146.416 -1.50096 1.25421 0
M  V30 1538 O 147.622 -2.17106 1.63025 0
M  V30 1539 C 146.078 -0.458417 3.56969 0
M  V30 1540 C 145.686 0.798877 4.4082 0
M  V30 1541 C 147.43 -1.00789 4.12361 0
M  V30 1542 C 145.337 0.539078 5.88938 0
M  V30 1543 H 144.267 -0.089305 0.748693 0
M  V30 1544 H 146.918 0.481099 1.77081 0
M  V30 1545 H 145.3 -1.22959 3.76427 0
M  V30 1546 H 146.474 1.57262 4.33134 0
M  V30 1547 H 144.789 1.27137 3.96516 0
M  V30 1548 H 147.386 -1.21754 5.20653 0
M  V30 1549 H 147.729 -1.9692 3.66781 0
M  V30 1550 H 148.262 -0.296961 3.9669 0
M  V30 1551 H 145.001 1.47064 6.3879 0
M  V30 1552 H 144.521 -0.196222 5.99479 0
M  V30 1553 H 146.2 0.163542 6.46793 0
M  V30 1554 N 146.332 -1.57332 0.0918853 0
M  V30 1555 C 147.609 -1.85691 -0.614668 0
M  V30 1556 C 147.989 -0.988146 -1.86545 0
M  V30 1557 O 147.337 -0.0597055 -2.28422 0
M  V30 1558 C 147.547 -3.36294 -0.933126 0
M  V30 1559 C 148.895 -4.04275 -1.29796 0
M  V30 1560 O 149.919 -3.41157 -1.02424 0
M  V30 1561 O 148.778 -5.1564 -1.81047 0
M  V30 1562 H 145.872 -0.767802 -0.307261 0
M  V30 1563 H 148.418 -1.69244 0.12434 0
M  V30 1564 H 147.19 -3.91273 -0.0456404 0
M  V30 1565 H 146.813 -3.58076 -1.72822 0
M  V30 1566 N 147.81 0.181792 -1.56548 0
M  V30 1567 C 149.058 0.89832 -1.81038 0
M  V30 1568 C 149.379 1.83232 -0.667164 0
M  V30 1569 O 148.649 1.93372 0.313673 0
M  V30 1570 H 147.229 0.33471 -0.667816 0
M  V30 1571 H 149.891 0.184116 -1.94028 0
M  V30 1572 H 148.987 1.4815 -2.74696 0
M  V30 1573 N 149.288 1.51039 0.449983 0
M  V30 1574 C 150.536 1.62759 1.19808 0
M  V30 1575 C 150.857 0.339981 1.92013 0
M  V30 1576 O 150.127 -0.643606 1.85026 0
M  V30 1577 H 148.707 0.599811 0.445237 0
M  V30 1578 H 151.369 1.87914 0.517138 0
M  V30 1579 H 150.465 2.44911 1.93455 0
M  V30 1580 N 150.766 -0.704594 1.40972 0
M  V30 1581 C 151.714 -1.83994 1.42299 0
M  V30 1582 C 152.708 -1.66684 0.302111 0
M  V30 1583 O 153.914 -1.73655 0.473697 0
M  V30 1584 H 150.289 -0.606171 0.44504 0
M  V30 1585 H 152.26 -1.79992 2.38003 0
M  V30 1586 C 151.009 -3.21946 1.31323 0
M  V30 1587 H 150.332 -3.35878 2.16855 0
M  V30 1588 H 151.772 -4.01491 1.36311 0
M  V30 1589 C 150.231 -3.36891 0.0245977 0
M  V30 1590 O 150.761 -3.90687 -0.934153 0
M  V30 1591 N 148.967 -2.90559 -0.0485243 0
M  V30 1592 H 148.514 -2.46968 0.732419 0
M  V30 1593 H 148.472 -3.00937 -0.910171 0
M  V30 1594 N 152.244 -1.26651 -0.937939 0
M  V30 1595 C 153.469 -1.15279 -1.72411 0
M  V30 1596 C 153.894 0.287866 -1.85884 0
M  V30 1597 O 153.252 1.20855 -1.35143 0
M  V30 1598 C 153.3 -1.83028 -3.10698 0
M  V30 1599 O 152.404 -1.12128 -3.96864 0
M  V30 1600 H 151.745 -0.401504 -0.528858 0
M  V30 1601 H 154.275 -1.67531 -1.1745 0
M  V30 1602 H 154.285 -1.89981 -3.6107 0
M  V30 1603 H 152.96 -2.87833 -3.00208 0
M  V30 1604 H 151.537 -1.13173 -3.55312 0
M  V30 1605 N 153.722 1.14298 -1.08507 0
M  V30 1606 C 154.632 2.23027 -0.727753 0
M  V30 1607 C 155.648 1.71952 0.26619 0
M  V30 1608 O 156.824 2.011 0.109882 0
M  V30 1609 C 153.889 3.46403 -0.143541 0
M  V30 1610 C 152.95 4.12413 -1.19223 0
M  V30 1611 C 152.183 5.29899 -0.635798 0
M  V30 1612 O 152.406 5.67796 0.544393 0
M  V30 1613 O 151.34 5.85717 -1.38634 0
M  V30 1614 H 155.166 2.55945 -1.63481 0
M  V30 1615 H 152.751 1.22248 -0.858817 0
M  V30 1616 H 154.633 4.21018 0.179404 0
M  V30 1617 H 153.308 3.15206 0.736659 0
M  V30 1618 H 152.215 3.39667 -1.56772 0
M  V30 1619 H 153.548 4.47718 -2.04474 0
M  V30 1620 N 155.201 0.870884 1.31352 0
M  V30 1621 C 156.431 0.496049 2.00557 0
M  V30 1622 C 156.839 -0.916241 1.65534 0
M  V30 1623 O 156.182 -1.61188 0.881134 0
M  V30 1624 C 156.244 0.574418 3.54881 0
M  V30 1625 C 155.908 1.94849 4.1338 0
M  V30 1626 C 156.905 2.91611 4.30417 0
M  V30 1627 C 154.59 2.25005 4.49086 0
M  V30 1628 C 156.584 4.16672 4.82352 0
M  V30 1629 C 154.271 3.50315 5.00722 0
M  V30 1630 C 155.269 4.45964 5.17306 0
M  V30 1631 O 154.957 5.69052 5.67833 0
M  V30 1632 H 154.689 0.191664 0.64826 0
M  V30 1633 H 157.243 1.17409 1.68536 0
M  V30 1634 H 155.473 -0.160549 3.86367 0
M  V30 1635 H 157.162 0.212879 4.05341 0
M  V30 1636 H 157.928 2.69622 4.03149 0
M  V30 1637 H 153.807 1.51332 4.35453 0
M  V30 1638 H 157.351 4.91336 4.95211 0
M  V30 1639 H 153.248 3.72147 5.27424 0
M  V30 1640 H 154.016 5.71236 5.86201 0
M  V30 1641 N 156.679 -1.44442 0.630414 0
M  V30 1642 C 158.095 -1.56832 0.295973 0
M  V30 1643 C 158.295 -1.61806 -1.20088 0
M  V30 1644 O 157.351 -1.5607 -1.9849 0
M  V30 1645 C 158.664 -2.84031 0.987264 0
M  V30 1646 C 160.212 -2.97742 0.96534 0
M  V30 1647 C 160.687 -4.27743 1.63708 0
M  V30 1648 N 162.178 -4.34555 1.60364 0
M  V30 1649 C 162.913 -5.33862 2.09234 0
M  V30 1650 N 162.409 -6.39578 2.66292 0
M  V30 1651 N 164.202 -5.25366 1.99867 0
M  V30 1652 H 156.353 -1.39457 1.60205 0
M  V30 1653 H 158.616 -0.668237 0.672431 0
M  V30 1654 H 158.322 -2.86338 2.04215 0
M  V30 1655 H 158.196 -3.73534 0.524588 0
M  V30 1656 H 160.583 -2.94989 -0.0810639 0
M  V30 1657 H 160.664 -2.09589 1.4665 0
M  V30 1658 H 160.308 -4.31255 2.68293 0
M  V30 1659 H 160.238 -5.14752 1.11076 0
M  V30 1660 H 162.729 -3.58772 1.18705 0
M  V30 1661 H 163.042 -7.11637 3.01317 0
M  V30 1662 H 161.387 -6.40265 2.70343 0
M  V30 1663 H 164.578 -4.41688 1.55013 0
M  V30 1664 H 164.751 -6.02606 2.38265 0
M  V30 1665 N 158.157 -0.370918 -1.53173 0
M  V30 1666 C 159.434 0.273754 -1.93675 0
M  V30 1667 C 159.814 1.65938 -1.3049 0
M  V30 1668 O 159.162 2.23698 -0.465999 0
M  V30 1669 C 159.372 0.318602 -3.47543 0
M  V30 1670 C 160.72 0.556392 -4.20939 0
M  V30 1671 O 161.744 0.399587 -3.53952 0
M  V30 1672 O 160.603 0.862133 -5.39657 0
M  V30 1673 H 157.697 0.165448 -0.810281 0
M  V30 1674 H 160.243 -0.42409 -1.64315 0
M  V30 1675 H 159.015 -0.652687 -3.85818 0
M  V30 1676 H 158.638 1.06212 -3.83151 0
M  V30 1677 N 159.635 1.57281 -0.100228 0
M  V30 1678 C 160.863 1.98879 0.570509 0
M  V30 1679 C 161.278 0.979476 1.61405 0
M  V30 1680 O 160.635 -0.0302288 1.82475 0
M  V30 1681 C 160.686 3.4052 1.2136 0
M  V30 1682 O 160.407 4.37588 0.211786 0
M  V30 1683 C 161.908 3.97149 1.96945 0
M  V30 1684 H 159.128 0.653428 0.152555 0
M  V30 1685 H 161.672 2.03697 -0.18103 0
M  V30 1686 H 159.827 3.367 1.91603 0
M  V30 1687 H 160.241 5.20118 0.676607 0
M  V30 1688 H 161.715 4.98393 2.37294 0
M  V30 1689 H 162.192 3.3525 2.83733 0
M  V30 1690 H 162.798 4.04458 1.31506 0
M  V30 1691 N 161.113 -0.173488 1.56642 0
M  V30 1692 C 162.341 -0.906095 1.86004 0
M  V30 1693 C 162.756 -1.75921 0.685355 0
M  V30 1694 O 162.113 -1.79198 -0.345578 0
M  V30 1695 C 162.164 -1.78462 3.14378 0
M  V30 1696 O 161.885 -0.965914 4.27319 0
M  V30 1697 C 163.386 -2.62707 3.57071 0
M  V30 1698 H 160.606 -0.263341 0.617165 0
M  V30 1699 H 163.15 -0.174236 2.03756 0
M  V30 1700 H 161.305 -2.46984 2.98459 0
M  V30 1701 H 161.719 -1.56655 5.00559 0
M  V30 1702 H 163.193 -3.19969 4.49804 0
M  V30 1703 H 163.67 -3.37472 2.81086 0
M  V30 1704 H 164.276 -1.99521 3.75595 0
M  V30 1705 N 162.591 -1.51276 -0.441967 0
M  V30 1706 C 164.007 -1.39349 -0.778083 0
M  V30 1707 C 164.207 -0.472212 -1.95889 0
M  V30 1708 O 163.263 0.0743551 -2.5239 0
M  V30 1709 C 164.576 -2.81292 -1.0628 0
M  V30 1710 C 166.124 -2.9041 -1.16751 0
M  V30 1711 C 166.599 -4.33251 -1.48519 0
M  V30 1712 N 168.09 -4.36336 -1.55453 0
M  V30 1713 C 168.825 -5.43885 -1.81596 0
M  V30 1714 N 168.321 -6.61601 -2.05562 0
M  V30 1715 N 170.114 -5.3136 -1.8334 0
M  V30 1716 H 162.265 -2.09729 0.335774 0
M  V30 1717 H 164.528 -0.943925 0.0878028 0
M  V30 1718 H 164.234 -3.50678 -0.267905 0
M  V30 1719 H 164.108 -3.20334 -1.99163 0
M  V30 1720 H 166.495 -2.21225 -1.95304 0
M  V30 1721 H 166.576 -2.54871 -0.217801 0
M  V30 1722 H 166.22 -5.02984 -0.704958 0
M  V30 1723 H 166.15 -4.66299 -2.44689 0
M  V30 1724 H 168.641 -3.51466 -1.38853 0
M  V30 1725 H 168.954 -7.39361 -2.24867 0
M  V30 1726 H 167.299 -6.64725 -2.02894 0
M  V30 1727 H 170.49 -4.38382 -1.64132 0
M  V30 1728 H 170.663 -6.15258 -2.03377 0
M  V30 1729 N 164.069 0.697108 -1.41344 0
M  V30 1730 C 165.485 1.00751 -1.2378 0
M  V30 1731 C 165.685 2.01105 -0.126066 0
M  V30 1732 O 164.741 2.47295 0.51004 0
M  V30 1733 C 166.054 1.53359 -2.58653 0
M  V30 1734 C 167.602 1.6525 -2.65822 0
M  V30 1735 C 168.077 2.2126 -4.01009 0
M  V30 1736 N 169.568 2.28622 -4.02847 0
M  V30 1737 C 170.303 2.72984 -5.04249 0
M  V30 1738 N 169.799 3.16962 -6.16041 0
M  V30 1739 N 171.592 2.72534 -4.91611 0
M  V30 1740 H 163.743 0.0322662 -2.12375 0
M  V30 1741 H 166.006 0.0768853 -0.944877 0
M  V30 1742 H 165.712 0.870773 -3.4075 0
M  V30 1743 H 165.586 2.51597 -2.81032 0
M  V30 1744 H 167.973 2.30644 -1.84086 0
M  V30 1745 H 168.054 0.655614 -2.47256 0
M  V30 1746 H 167.698 1.56482 -4.83193 0
M  V30 1747 H 167.628 3.21698 -4.16915 0
M  V30 1748 H 170.119 1.97585 -3.22131 0
M  V30 1749 H 170.432 3.49434 -6.89287 0
M  V30 1750 H 168.777 3.14875 -6.1958 0
M  V30 1751 H 171.968 2.37525 -4.0336 0
M  V30 1752 H 172.141 3.06789 -5.70775 0
M  V30 1753 N 165.547 1.27147 0.931209 0
M  V30 1754 C 166.787 1.14511 1.69312 0
M  V30 1755 C 167.151 -0.304638 1.89568 0
M  V30 1756 O 168.352 -0.553343 2.63043 0
M  V30 1757 C 166.623 1.90349 3.02493 0
M  V30 1758 S 168.182 1.93884 3.93642 0
M  V30 1759 H 165 0.408858 0.581684 0
M  V30 1760 H 167.602 1.61006 1.10893 0
M  V30 1761 H 166.306 2.94877 2.85439 0
M  V30 1762 H 165.837 1.44333 3.65966 0
M  V30 1763 H 167.852 1.03273 4.85334 0
M  V30 1764 N 167.025 -1.13721 1.09112 0
M  V30 1765 C 168.441 -1.36914 0.820174 0
M  V30 1766 C 168.641 -1.93356 -0.567079 0
M  V30 1767 O 167.697 -2.15093 -1.32255 0
M  V30 1768 C 169.01 -2.3235 1.90877 0
M  V30 1769 C 170.558 -2.45973 1.93562 0
M  V30 1770 C 171.033 -3.44714 3.01556 0
M  V30 1771 N 172.524 -3.52263 3.00775 0
M  V30 1772 C 173.259 -4.28536 3.80978 0
M  V30 1773 N 172.755 -5.07991 4.71081 0
M  V30 1774 N 174.548 -4.23804 3.69251 0
M  V30 1775 H 166.699 -0.754348 1.98553 0
M  V30 1776 H 168.962 -0.3944 0.862063 0
M  V30 1777 H 168.668 -1.98027 2.90651 0
M  V30 1778 H 168.542 -3.32332 1.78424 0
M  V30 1779 H 170.929 -2.79584 0.944286 0
M  V30 1780 H 171.01 -1.45926 2.10093 0
M  V30 1781 H 170.654 -3.11835 4.00901 0
M  V30 1782 H 170.584 -4.44558 2.82269 0
M  V30 1783 H 173.075 -2.95567 2.35475 0
M  V30 1784 H 173.388 -5.63487 5.28869 0
M  V30 1785 H 171.733 -5.07235 4.75119 0
M  V30 1786 H 174.924 -3.60806 2.98222 0
M  V30 1787 H 175.097 -4.82995 4.31995 0
M  V30 1788 N 168.503 -0.877838 -1.30888 0
M  V30 1789 C 169.78 -0.413052 -1.91189 0
M  V30 1790 C 170.16 1.1056 -1.79832 0
M  V30 1791 O 169.508 1.93771 -1.21099 0
M  V30 1792 C 169.718 -0.903191 -3.3711 0
M  V30 1793 C 171.066 -0.93395 -4.14201 0
M  V30 1794 O 172.09 -0.849373 -3.45925 0
M  V30 1795 O 170.949 -1.05772 -5.36167 0
M  V30 1796 H 168.043 -0.125035 -0.817493 0
M  V30 1797 H 170.589 -0.966269 -1.39504 0
M  V30 1798 H 169.361 -1.94692 -3.39427 0
M  V30 1799 H 168.984 -0.328732 -3.96239 0
M  V30 1800 N 169.982 1.44106 -0.638065 0
M  V30 1801 C 170.912 2.33448 0.0494287 0
M  V30 1802 C 171.893 1.48606 0.827672 0
M  V30 1803 O 173.078 1.77308 0.792173 0
M  V30 1804 C 170.208 3.31771 1.02691 0
M  V30 1805 C 169.162 4.26485 0.359823 0
M  V30 1806 C 168.488 5.14729 1.44769 0
M  V30 1807 C 169.788 5.17056 -0.738296 0
M  V30 1808 H 171.482 2.91183 -0.696636 0
M  V30 1809 H 169.028 1.40014 -0.336456 0
M  V30 1810 H 170.981 3.93161 1.51666 0
M  V30 1811 H 169.705 2.7226 1.80395 0
M  V30 1812 H 168.364 3.66437 -0.10934 0
M  V30 1813 H 168.012 4.51566 2.21578 0
M  V30 1814 H 167.712 5.78913 1.00668 0
M  V30 1815 H 169.236 5.78991 1.93911 0
M  V30 1816 H 170.65 5.72342 -0.331354 0
M  V30 1817 H 169.047 5.89879 -1.10286 0
M  V30 1818 H 170.117 4.57652 -1.60258 0
M  V30 1819 N 171.46 0.379036 1.52974 0
M  V30 1820 C 172.407 -0.461048 2.26148 0
M  V30 1821 C 173.377 -1.06637 1.27349 0
M  V30 1822 O 174.562 -1.09633 1.56157 0
M  V30 1823 C 171.702 -1.58782 3.06402 0
M  V30 1824 C 170.815 -1.00636 4.20115 0
M  V30 1825 C 169.95 -2.10334 4.87784 0
M  V30 1826 C 168.989 -1.49724 5.93506 0
M  V30 1827 N 168.126 -2.5331 6.54812 0
M  V30 1828 H 172.966 0.169429 2.97518 0
M  V30 1829 H 170.503 0.0953806 1.4679 0
M  V30 1830 H 172.461 -2.25174 3.51215 0
M  V30 1831 H 171.091 -2.18876 2.37261 0
M  V30 1832 H 170.143 -0.232332 3.7969 0
M  V30 1833 H 171.455 -0.523343 4.96047 0
M  V30 1834 H 170.609 -2.84519 5.35849 0
M  V30 1835 H 169.348 -2.61992 4.11353 0
M  V30 1836 H 168.353 -0.740598 5.44789 0
M  V30 1837 H 169.578 -0.988732 6.71864 0
M  V30 1838 H 167.524 -3.04156 5.81227 0
M  V30 1839 H 167.441 -2.09734 7.26325 0
M  V30 1840 H 168.709 -3.27155 7.07524 0
M  V30 1841 N 172.938 -1.57226 0.108567 0
M  V30 1842 C 173.901 -2.13602 -0.831082 0
M  V30 1843 C 174.901 -1.06841 -1.20173 0
M  V30 1844 O 176.091 -1.32666 -1.12895 0
M  V30 1845 C 173.223 -2.66769 -2.12243 0
M  V30 1846 H 174.416 -2.97951 -0.341317 0
M  V30 1847 H 171.969 -1.55667 -0.14057 0
M  V30 1848 H 172.704 -1.85977 -2.65675 0
M  V30 1849 H 172.489 -3.44839 -1.86625 0
M  V30 1850 H 173.979 -3.10332 -2.79435 0
M  V30 1851 N 174.416 0.165178 -1.56732 0
M  V30 1852 C 175.363 1.2044 -1.96883 0
M  V30 1853 C 176.333 1.43664 -0.833657 0
M  V30 1854 O 177.518 1.56302 -1.09427 0
M  V30 1855 C 174.658 2.53727 -2.33916 0
M  V30 1856 C 173.771 2.3783 -3.6064 0
M  V30 1857 C 172.906 3.64026 -3.86857 0
M  V30 1858 C 171.945 3.43088 -5.06909 0
M  V30 1859 N 171.082 4.61369 -5.29229 0
M  V30 1860 H 175.922 0.854996 -2.85471 0
M  V30 1861 H 173.459 0.41076 -1.41249 0
M  V30 1862 H 175.417 3.31419 -2.53411 0
M  V30 1863 H 174.047 2.8665 -1.48431 0
M  V30 1864 H 173.099 1.51282 -3.49024 0
M  V30 1865 H 174.411 2.18308 -4.4849 0
M  V30 1866 H 173.565 4.50152 -4.06753 0
M  V30 1867 H 172.304 3.86533 -2.97394 0
M  V30 1868 H 171.309 2.55349 -4.86906 0
M  V30 1869 H 172.534 3.21997 -5.97909 0
M  V30 1870 H 170.48 4.84084 -4.42718 0
M  V30 1871 H 170.397 4.44783 -6.11313 0
M  V30 1872 H 171.665 5.48761 -5.53608 0
M  V30 1873 N 175.894 1.51508 0.433938 0
M  V30 1874 C 177.142 1.6402 1.18075 0
M  V30 1875 C 177.463 0.360328 1.91642 0
M  V30 1876 O 176.733 -0.623945 1.85698 0
M  V30 1877 H 175.313 0.6045 0.43885 0
M  V30 1878 H 177.975 1.88452 0.497178 0
M  V30 1879 H 177.071 2.46949 1.90847 0
M  V30 1880 N 177.372 -0.689602 1.41712 0
M  V30 1881 C 178.621 -1.44534 1.40686 0
M  V30 1882 C 178.934 -1.95588 0.0213352 0
M  V30 1883 O 180.14 -2.71271 -0.111534 0
M  V30 1884 C 178.596 -2.61387 2.47396 0
M  V30 1885 C 178.204 -2.17094 3.91885 0
M  V30 1886 C 179.948 -3.38986 2.55517 0
M  V30 1887 C 177.855 -3.3094 4.90135 0
M  V30 1888 H 176.785 -0.542925 0.52321 0
M  V30 1889 H 179.436 -0.748054 1.6756 0
M  V30 1890 H 177.818 -3.33412 2.13664 0
M  V30 1891 H 178.992 -1.52318 4.34897 0
M  V30 1892 H 177.307 -1.52473 3.8748 0
M  V30 1893 H 179.904 -4.23747 3.26102 0
M  V30 1894 H 180.247 -3.84578 1.59391 0
M  V30 1895 H 180.78 -2.74021 2.8837 0
M  V30 1896 H 177.519 -2.90355 5.87685 0
M  V30 1897 H 177.039 -3.94546 4.51767 0
M  V30 1898 H 178.718 -3.9663 5.11169 0
M  V30 1899 N 178.85 -1.27639 -0.924453 0
M  V30 1900 C 179.78 -1.13166 -2.04244 0
M  V30 1901 C 180.761 -0.032256 -1.70069 0
M  V30 1902 O 181.946 -0.207328 -1.9309 0
M  V30 1903 C 179.076 -0.781496 -3.38393 0
M  V30 1904 C 178.03 -1.83449 -3.86692 0
M  V30 1905 C 177.356 -1.33822 -5.17683 0
M  V30 1906 C 178.656 -3.23917 -4.09726 0
M  V30 1907 H 180.35 -2.06689 -2.1661 0
M  V30 1908 H 177.896 -0.995136 -1.04082 0
M  V30 1909 H 179.849 -0.667057 -4.16087 0
M  V30 1910 H 178.573 0.189439 -3.2605 0
M  V30 1911 H 177.232 -1.93789 -3.11193 0
M  V30 1912 H 176.88 -0.35665 -5.01734 0
M  V30 1913 H 176.58 -2.04224 -5.50968 0
M  V30 1914 H 178.104 -1.23679 -5.97943 0
M  V30 1915 H 179.518 -3.16559 -4.77978 0
M  V30 1916 H 177.915 -3.92059 -4.54324 0
M  V30 1917 H 178.985 -3.68729 -3.14908 0
M  V30 1918 N 180.328 1.1314 -1.09713 0
M  V30 1919 C 181.575 1.84484 -0.834987 0
M  V30 1920 C 181.903 1.83689 0.639418 0
M  V30 1921 O 181.158 1.2724 1.4869 0
M  V30 1922 C 181.457 3.32167 -1.3191 0
M  V30 1923 C 181.123 3.53139 -2.80363 0
M  V30 1924 C 179.785 3.58571 -3.20905 0
M  V30 1925 C 182.137 3.60866 -3.76065 0
M  V30 1926 C 179.465 3.69267 -4.55916 0
M  V30 1927 C 181.817 3.73089 -5.10869 0
M  V30 1928 C 180.481 3.76775 -5.50996 0
M  V30 1929 H 179.751 0.675073 -0.305544 0
M  V30 1930 H 182.398 1.33554 -1.37243 0
M  V30 1931 H 180.703 3.85469 -0.701517 0
M  V30 1932 H 182.4 3.85821 -1.09284 0
M  V30 1933 H 178.99 3.49569 -2.47991 0
M  V30 1934 H 183.174 3.55946 -3.45855 0
M  V30 1935 H 178.43 3.70388 -4.86438 0
M  V30 1936 H 182.604 3.78011 -5.84877 0
M  V30 1937 H 180.231 3.84815 -6.55608 0
M  V30 1938 N 181.806 0.884767 1.30421 0
M  V30 1939 C 183.052 0.503851 1.96441 0
M  V30 1940 C 183.385 -0.944518 1.69684 0
M  V30 1941 O 182.66 -1.66737 1.00145 0
M  V30 1942 C 182.943 0.779085 3.51571 0
M  V30 1943 C 182.796 2.27807 3.87846 0
M  V30 1944 C 184.115 0.255452 4.39358 0
M  V30 1945 H 181.234 0.184533 0.713524 0
M  V30 1946 H 183.876 1.10872 1.54297 0
M  V30 1947 H 182.026 0.264274 3.876 0
M  V30 1948 H 183.698 2.86127 3.61841 0
M  V30 1949 H 181.941 2.74479 3.35922 0
M  V30 1950 H 182.612 2.42125 4.96064 0
M  V30 1951 H 185.088 0.696079 4.10236 0
M  V30 1952 H 183.964 0.477361 5.4682 0
M  V30 1953 H 184.225 -0.843293 4.33983 0
M  V30 1954 N 183.284 -1.43765 0.645699 0
M  V30 1955 C 184.532 -2.01499 0.155731 0
M  V30 1956 C 184.853 -1.51151 -1.232 0
M  V30 1957 O 184.123 -0.721044 -1.82148 0
M  V30 1958 H 182.703 -0.745003 0.0545817 0
M  V30 1959 H 185.365 -1.76075 0.835677 0
M  V30 1960 H 184.461 -3.1181 0.134577 0
M  V30 1961 N 184.763 -0.387143 -1.52771 0
M  V30 1962 C 185.988 0.198407 -2.06449 0
M  V30 1963 C 186.413 1.39918 -1.25716 0
M  V30 1964 O 185.771 1.79099 -0.281657 0
M  V30 1965 C 185.819 0.548893 -3.56398 0
M  V30 1966 O 184.923 1.64315 -3.78252 0
M  V30 1967 H 184.264 0.0237731 -0.663574 0
M  V30 1968 H 186.794 -0.553989 -1.96957 0
M  V30 1969 H 186.804 0.813812 -3.99801 0
M  V30 1970 H 185.479 -0.329005 -4.14597 0
M  V30 1971 H 184.056 1.37211 -3.46738 0
M  V30 1972 N 186.241 1.57166 -0.116904 0
M  V30 1973 C 187.489 1.94737 0.540533 0
M  V30 1974 C 187.81 1.00096 1.67349 0
M  V30 1975 O 187.08 0.0568854 1.95817 0
M  V30 1976 H 185.66 0.718981 0.202669 0
M  V30 1977 H 188.322 1.94017 -0.185353 0
M  V30 1978 H 187.418 2.97719 0.936483 0
M  V30 1979 N 187.719 -0.156864 1.56817 0
M  V30 1980 C 188.965 -0.872416 1.83076 0
M  V30 1981 C 189.298 -1.81261 0.697001 0
M  V30 1982 O 188.573 -1.92171 -0.30008 0
M  V30 1983 C 188.856 -1.65551 3.19789 0
M  V30 1984 C 188.709 -0.737467 4.43713 0
M  V30 1985 C 190.028 -2.62012 3.53606 0
M  V30 1986 H 187.147 -0.315715 0.665953 0
M  V30 1987 H 189.789 -0.138004 1.89498 0
M  V30 1988 H 187.939 -2.28159 3.14445 0
M  V30 1989 H 189.611 -0.123143 4.61136 0
M  V30 1990 H 187.854 -0.0464067 4.33775 0
M  V30 1991 H 188.525 -1.32122 5.35955 0
M  V30 1992 H 191.001 -2.09525 3.59497 0
M  V30 1993 H 189.877 -3.13861 4.50314 0
M  V30 1994 H 190.138 -3.42902 2.79053 0
M  V30 1995 N 189.197 -1.51736 -0.425897 0
M  V30 1996 C 190.422 -1.69082 -1.20108 0
M  V30 1997 C 190.847 -0.392398 -1.83962 0
M  V30 1998 O 190.205 0.64858 -1.69302 0
M  V30 1999 C 190.253 -2.81604 -2.25237 0
M  V30 2000 O 189.357 -2.46004 -3.30992 0
M  V30 2001 H 188.698 -0.563408 -0.35138 0
M  V30 2002 H 191.228 -1.98358 -0.501512 0
M  V30 2003 H 191.238 -3.06025 -2.69838 0
M  V30 2004 H 189.913 -3.75817 -1.78142 0
M  V30 2005 H 188.49 -2.32195 -2.91787 0
M  V30 2006 N 190.675 0.682077 -1.42076 0
M  V30 2007 C 191.923 1.4393 -1.41876 0
M  V30 2008 C 192.244 1.94971 -0.0335599 0
M  V30 2009 O 191.514 1.72591 0.926773 0
M  V30 2010 H 190.094 0.534085 -0.522267 0
M  V30 2011 H 192.756 0.806427 -1.77434 0
M  V30 2012 H 191.852 2.29588 -2.11414 0
M  V30 2013 N 192.153 1.28127 0.917671 0
M  V30 2014 C 193.401 1.14825 1.66312 0
M  V30 2015 C 193.722 -0.304379 1.9261 0
M  V30 2016 O 192.992 -1.21149 1.53947 0
M  V30 2017 H 191.572 0.421953 0.616413 0
M  V30 2018 H 194.234 1.608 1.10134 0
M  V30 2019 H 193.33 1.68489 2.62712 0
M  V30 2020 N 193.631 -1.12557 1.10312 0
M  V30 2021 C 194.541 -2.21841 0.763142 0
M  V30 2022 C 195.557 -1.72354 -0.238801 0
M  V30 2023 O 196.733 -2.01249 -0.0778746 0
M  V30 2024 C 193.798 -3.46131 0.198632 0
M  V30 2025 C 192.859 -4.10464 1.25769 0
M  V30 2026 C 192.092 -5.28821 0.72002 0
M  V30 2027 O 192.315 -5.6859 -0.453993 0
M  V30 2028 O 191.249 -5.83437 1.47935 0
M  V30 2029 H 195.075 -2.53312 1.67532 0
M  V30 2030 H 192.66 -1.20867 0.878157 0
M  V30 2031 H 194.542 -4.2125 -0.112401 0
M  V30 2032 H 193.217 -3.16338 -0.686419 0
M  V30 2033 H 192.124 -3.3713 1.62156 0
M  V30 2034 H 193.457 -4.44408 2.11571 0
M  V30 2035 N 195.109 -0.891671 -1.2995 0
M  V30 2036 C 196.019 -0.367691 -2.31701 0
M  V30 2037 C 197.035 0.533486 -1.6562 0
M  V30 2038 O 198.211 0.424997 -1.96865 0
M  V30 2039 C 195.276 0.403406 -3.44345 0
M  V30 2040 C 194.337 -0.528328 -4.26037 0
M  V30 2041 C 193.57 0.206063 -5.33302 0
M  V30 2042 O 193.793 1.43119 -5.52153 0
M  V30 2043 O 192.727 -0.447281 -6.00236 0
M  V30 2044 H 196.553 -1.21163 -2.78484 0
M  V30 2045 H 194.138 -0.655725 -1.34241 0
M  V30 2046 H 196.02 0.839753 -4.12948 0
M  V30 2047 H 194.695 1.22354 -2.99685 0
M  V30 2048 H 193.602 -1.01362 -3.60106 0
M  V30 2049 H 194.935 -1.31465 -4.74318 0
M  V30 2050 N 196.587 1.43421 -0.653314 0
M  V30 2051 C 197.835 2.01414 -0.166415 0
M  V30 2052 C 198.156 1.51803 1.22397 0
M  V30 2053 O 197.426 0.730693 1.81763 0
M  V30 2054 H 196.006 0.744703 -0.0585319 0
M  V30 2055 H 198.668 1.75629 -0.845003 0
M  V30 2056 H 197.764 3.11734 -0.151111 0
M  V30 2057 N 198.065 0.39524 1.52563 0
M  V30 2058 C 199.028 -0.425001 2.25225 0
M  V30 2059 C 200.028 -0.985266 1.27079 0
M  V30 2060 O 201.218 -0.866332 1.5113 0
M  V30 2061 C 198.35 -1.59686 3.01186 0
M  V30 2062 H 199.543 0.211233 2.99155 0
M  V30 2063 H 197.096 0.147472 1.55603 0
M  V30 2064 H 197.831 -2.27035 2.31572 0
M  V30 2065 H 197.616 -1.20176 3.73229 0
M  V30 2066 H 199.106 -2.17743 3.5634 0
M  V30 2067 N 199.544 -1.57102 0.125237 0
M  V30 2068 C 200.96 -1.57915 -0.231322 0
M  V30 2069 C 201.16 -1.13833 -1.66266 0
M  V30 2070 O 200.216 -0.828581 -2.38518 0
M  V30 2071 C 201.529 -3.00699 0.00766489 0
M  V30 2072 C 203.077 -3.12947 -0.0577483 0
M  V30 2073 C 203.552 -4.57742 0.153626 0
M  V30 2074 N 205.043 -4.63092 0.0998073 0
M  V30 2075 C 205.778 -5.72905 0.238174 0
M  V30 2076 N 205.274 -6.91445 0.433057 0
M  V30 2077 N 207.067 -5.6182 0.177308 0
M  V30 2078 H 199.218 -1.84055 1.06007 0
M  V30 2079 H 201.481 -0.850905 0.417929 0
M  V30 2080 H 201.187 -3.3726 0.997431 0
M  V30 2081 H 201.061 -3.70236 -0.721452 0
M  V30 2082 H 203.448 -2.7624 -1.03804 0
M  V30 2083 H 203.529 -2.4594 0.70335 0
M  V30 2084 H 203.173 -4.95149 1.13092 0
M  V30 2085 H 203.103 -5.22848 -0.627534 0
M  V30 2086 H 205.594 -3.77871 -0.047051 0
M  V30 2087 H 205.907 -7.70985 0.529332 0
M  V30 2088 H 204.252 -6.93415 0.469109 0
M  V30 2089 H 207.443 -4.68093 0.0259748 0
M  V30 2090 H 207.616 -6.47357 0.288582 0
M  V30 2091 N 201.022 0.148545 -1.56898 0
M  V30 2092 C 202.252 0.875118 -1.8715 0
M  V30 2093 C 202.66 1.75322 -0.711262 0
M  V30 2094 O 202.003 1.80745 0.328151 0
M  V30 2095 C 202.065 1.7844 -3.12089 0
M  V30 2096 C 201.729 1.08361 -4.43967 0
M  V30 2097 C 202.726 0.438247 -5.1805 0
M  V30 2098 C 200.411 1.07358 -4.90693 0
M  V30 2099 C 202.405 -0.20779 -6.37061 0
M  V30 2100 C 200.092 0.42373 -6.09629 0
M  V30 2101 C 201.09 -0.215829 -6.82659 0
M  V30 2102 O 200.778 -0.855378 -7.99336 0
M  V30 2103 H 200.51 0.258504 -0.624621 0
M  V30 2104 H 203.064 0.14652 -2.04877 0
M  V30 2105 H 201.294 2.55389 -2.90367 0
M  V30 2106 H 202.983 2.38279 -3.286 0
M  V30 2107 H 203.749 0.437817 -4.8302 0
M  V30 2108 H 199.628 1.5608 -4.33774 0
M  V30 2109 H 203.172 -0.70758 -6.94002 0
M  V30 2110 H 199.069 0.421822 -6.4412 0
M  V30 2111 H 199.837 -0.756892 -8.14993 0
M  V30 2112 N 202.5 1.5196 0.417844 0
M  V30 2113 C 203.748 1.65263 1.16329 0
M  V30 2114 C 204.069 0.380634 1.91249 0
M  V30 2115 O 203.339 -0.604214 1.86349 0
M  V30 2116 H 201.919 0.60912 0.432414 0
M  V30 2117 H 204.581 1.88969 0.477162 0
M  V30 2118 H 203.677 2.4896 1.88217 0
M  V30 2119 N 203.978 -0.674533 1.42435 0
M  V30 2120 C 205.389 -1.25514 1.38214 0
M  V30 2121 C 205.74 -1.96055 0.0755464 0
M  V30 2122 O 204.865 -2.00028 -0.8257 0
M  V30 2123 C 205.46 -2.28269 2.50357 0
M  V30 2124 C 204.019 -2.81856 2.49467 0
M  V30 2125 C 203.166 -1.56182 2.29134 0
M  V30 2126 H 206.117 -0.467902 1.51646 0
M  V30 2127 H 206.138 -3.10009 2.20624 0
M  V30 2128 H 205.65 -1.769 3.45439 0
M  V30 2129 H 203.751 -3.37346 1.58204 0
M  V30 2130 H 203.864 -3.30854 3.46515 0
M  V30 2131 H 202.228 -1.82761 1.774 0
M  V30 2132 H 203.011 -1.06778 3.26272 0
M  V30 2133 N 205.456 -1.28612 -0.910864 0
M  V30 2134 C 206.681 -1.1891 -1.69927 0
M  V30 2135 C 207.106 0.248372 -1.86453 0
M  V30 2136 O 206.464 1.17961 -1.37676 0
M  V30 2137 C 206.512 -1.89578 -3.06745 0
M  V30 2138 O 205.616 -1.20521 -3.94396 0
M  V30 2139 H 204.957 -0.412632 -0.520222 0
M  V30 2140 H 207.487 -1.69985 -1.1387 0
M  V30 2141 H 207.497 -1.97597 -3.56958 0
M  V30 2142 H 206.172 -2.94136 -2.94035 0
M  V30 2143 H 204.749 -1.20684 -3.52831 0
M  V30 2144 N 206.934 1.1197 -1.10907 0
M  V30 2145 C 207.864 2.19928 -0.784473 0
M  V30 2146 C 208.845 1.6833 0.244726 0
M  V30 2147 O 210.03 1.93892 0.109418 0
M  V30 2148 C 207.16 3.46597 -0.220827 0
M  V30 2149 C 206.114 4.11376 -1.18127 0
M  V30 2150 C 205.44 5.32554 -0.478594 0
M  V30 2151 C 206.74 4.56945 -2.52979 0
M  V30 2152 H 208.434 2.47337 -1.68715 0
M  V30 2153 H 205.98 1.18879 -0.812642 0
M  V30 2154 H 207.933 4.21396 0.0184278 0
M  V30 2155 H 206.657 3.1863 0.717113 0
M  V30 2156 H 205.316 3.38564 -1.40606 0
M  V30 2157 H 204.964 5.00856 0.463976 0
M  V30 2158 H 204.664 5.76844 -1.11912 0
M  V30 2159 H 206.188 6.10096 -0.248 0
M  V30 2160 H 207.602 5.23093 -2.3462 0
M  V30 2161 H 205.999 5.1203 -3.12962 0
M  V30 2162 H 207.069 3.70676 -3.12614 0
M  V30 2163 N 208.412 0.89855 1.29475 0
M  V30 2164 C 209.345 0.319981 2.25945 0
M  V30 2165 C 210.323 -0.567189 1.52387 0
M  V30 2166 O 211.507 -0.514254 1.8135 0
M  V30 2167 C 208.634 -0.544013 3.34303 0
M  V30 2168 C 207.68 0.275682 4.25608 0
M  V30 2169 S 208.513 1.67272 5.08704 0
M  V30 2170 C 209.669 0.815621 6.20563 0
M  V30 2171 H 209.902 1.13767 2.74671 0
M  V30 2172 H 207.435 0.69882 1.3768 0
M  V30 2173 H 209.393 -1.03673 3.97193 0
M  V30 2174 H 208.054 -1.33593 2.84274 0
M  V30 2175 H 207.247 -0.384263 5.02533 0
M  V30 2176 H 206.849 0.701496 3.67362 0
M  V30 2177 H 209.141 0.0385042 6.77489 0
M  V30 2178 H 210.084 1.55691 6.90772 0
M  V30 2179 H 210.492 0.370516 5.63283 0
M  V30 2180 N 209.89 -1.43072 0.660911 0
M  V30 2181 C 211.301 -1.84932 0.256348 0
M  V30 2182 C 211.652 -1.55325 -1.19868 0
M  V30 2183 O 210.777 -1.00607 -1.91591 0
M  V30 2184 C 211.372 -3.35684 0.458475 0
M  V30 2185 C 209.931 -3.76245 0.108161 0
M  V30 2186 C 209.078 -2.66749 0.757641 0
M  V30 2187 H 212.029 -1.33116 0.864051 0
M  V30 2188 H 212.05 -3.79365 -0.293683 0
M  V30 2189 H 211.562 -3.572 1.51755 0
M  V30 2190 H 209.663 -3.60338 -0.948014 0
M  V30 2191 H 209.776 -4.76058 0.538992 0
M  V30 2192 H 208.14 -2.53989 0.190185 0
M  V30 2193 H 208.923 -2.91092 1.81989 0
M  V30 2194 N 211.368 -0.403325 -1.52352 0
M  V30 2195 C 212.616 0.174003 -2.0135 0
M  V30 2196 C 212.937 1.46139 -1.29106 0
M  V30 2197 O 212.207 1.91448 -0.415253 0
M  V30 2198 H 210.787 0.0672911 -0.743963 0
M  V30 2199 H 213.449 -0.538235 -1.87321 0
M  V30 2200 H 212.545 0.374254 -3.09848 0
M  V30 2201 N 212.846 1.57033 -0.133567 0
M  V30 2202 C 214.094 1.953 0.519848 0
M  V30 2203 C 214.415 1.01866 1.66278 0
M  V30 2204 O 213.685 0.0776513 1.95746 0
M  V30 2205 H 212.265 0.721091 0.195032 0
M  V30 2206 H 214.927 1.93809 -0.205921 0
M  V30 2207 H 214.023 2.98695 0.904854 0
M  V30 2208 N 214.325 -0.140222 1.56975 0
M  V30 2209 C 215.273 -1.19207 1.99731 0
M  V30 2210 C 216.267 -1.44089 0.890777 0
M  V30 2211 O 217.473 -1.44301 1.07597 0
M  V30 2212 H 213.848 -0.40142 0.635898 0
M  V30 2213 H 215.819 -0.804813 2.87342 0
M  V30 2214 C 214.568 -2.51617 2.39967 0
M  V30 2215 H 213.891 -2.33303 3.24669 0
M  V30 2216 H 215.331 -3.23827 2.73701 0
M  V30 2217 C 213.79 -3.12654 1.25496 0
M  V30 2218 O 214.32 -3.97786 0.559371 0
M  V30 2219 N 212.526 -2.72206 1.01746 0
M  V30 2220 H 212.073 -2.03074 1.58489 0
M  V30 2221 H 212.031 -3.13377 0.253461 0
M  V30 2222 N 215.803 -1.52179 -0.40978 0
M  V30 2223 C 216.75 -1.75475 -1.49924 0
M  V30 2224 C 217.72 -0.597175 -1.54994 0
M  V30 2225 O 218.905 -0.834655 -1.71575 0
M  V30 2226 C 216.045 -1.9107 -2.87378 0
M  V30 2227 C 215.158 -3.18717 -2.91622 0
M  V30 2228 C 214.293 -3.24747 -4.20372 0
M  V30 2229 C 213.332 -4.46598 -4.18588 0
M  V30 2230 N 212.469 -4.50025 -5.38908 0
M  V30 2231 H 217.309 -2.68458 -1.29361 0
M  V30 2232 H 214.846 -1.33024 -0.627934 0
M  V30 2233 H 216.804 -1.98096 -3.6717 0
M  V30 2234 H 215.434 -1.01469 -3.06437 0
M  V30 2235 H 214.486 -3.20866 -2.04326 0
M  V30 2236 H 215.798 -4.08544 -2.86169 0
M  V30 2237 H 214.952 -3.30841 -5.08556 0
M  V30 2238 H 213.691 -2.32857 -4.28519 0
M  V30 2239 H 212.696 -4.40652 -3.28794 0
M  V30 2240 H 213.921 -5.39783 -4.12081 0
M  V30 2241 H 211.867 -3.61017 -5.47725 0
M  V30 2242 H 211.784 -5.33697 -5.35447 0
M  V30 2243 H 213.052 -4.60347 -6.29048 0
M  V30 2244 N 217.281 0.66697 -1.42791 0
M  V30 2245 C 218.191 1.80962 -1.49299 0
M  V30 2246 C 219.207 1.69775 -0.381108 0
M  V30 2247 O 220.383 1.91188 -0.633188 0
M  V30 2248 C 217.448 3.17156 -1.40045 0
M  V30 2249 C 216.509 3.40242 -2.6179 0
M  V30 2250 C 215.742 4.69939 -2.52969 0
M  V30 2251 O 215.965 5.48372 -1.56985 0
M  V30 2252 O 214.899 4.94441 -3.43237 0
M  V30 2253 H 218.725 1.78427 -2.45759 0
M  V30 2254 H 216.31 0.823713 -1.24641 0
M  V30 2255 H 218.192 3.98413 -1.37276 0
M  V30 2256 H 216.867 3.20312 -0.467138 0
M  V30 2257 H 215.774 2.58802 -2.70134 0
M  V30 2258 H 217.107 3.41923 -3.54047 0
M  V30 2259 N 218.759 1.29093 0.90403 0
M  V30 2260 C 219.722 1.1386 1.98919 0
M  V30 2261 C 220.722 0.0753457 1.60623 0
M  V30 2262 O 221.912 0.321931 1.71199 0
M  V30 2263 C 219.044 0.740198 3.32767 0
M  V30 2264 H 220.237 2.10246 2.13861 0
M  V30 2265 H 217.79 1.12218 1.08797 0
M  V30 2266 H 218.525 -0.223997 3.23525 0
M  V30 2267 H 218.31 1.50838 3.61926 0
M  V30 2268 H 219.8 0.656546 4.12407 0
M  V30 2269 N 220.237 -1.11381 1.11499 0
M  V30 2270 C 221.483 -1.83597 0.875423 0
M  V30 2271 C 221.838 -1.83048 -0.592555 0
M  V30 2272 O 221.131 -1.27304 -1.43193 0
M  V30 2273 C 221.325 -3.30026 1.37177 0
M  V30 2274 C 221.154 -3.44837 2.88647 0
M  V30 2275 C 219.924 -3.57825 3.56776 0
M  V30 2276 C 222.122 -3.3907 3.86699 0
M  V30 2277 N 220.104 -3.61113 4.96458 0
M  V30 2278 C 221.475 -3.48986 5.12454 0
M  V30 2279 C 223.53 -3.22605 3.7925 0
M  V30 2280 C 222.233 -3.44135 6.31636 0
M  V30 2281 C 224.259 -3.19072 4.97943 0
M  V30 2282 C 223.621 -3.29559 6.22551 0
M  V30 2283 H 219.72 -0.687044 0.37349 0
M  V30 2284 H 222.304 -1.33265 1.41946 0
M  V30 2285 H 220.475 -3.78874 0.854919 0
M  V30 2286 H 222.207 -3.90153 1.07529 0
M  V30 2287 H 218.962 -3.60414 3.07244 0
M  V30 2288 H 219.386 -3.66394 5.69284 0
M  V30 2289 H 224.028 -3.13382 2.83816 0
M  V30 2290 H 221.746 -3.52126 7.27347 0
M  V30 2291 H 225.332 -3.07498 4.93899 0
M  V30 2292 H 224.212 -3.26815 7.12855 0
M  V30 2293 N 221.715 -0.905404 -1.28997 0
M  V30 2294 C 223.126 -0.581953 -1.77398 0
M  V30 2295 C 223.477 0.902552 -1.74208 0
M  V30 2296 O 222.602 1.70584 -1.33154 0
M  V30 2297 C 223.197 -1.04961 -3.22131 0
M  V30 2298 C 221.756 -0.777229 -3.68288 0
M  V30 2299 C 220.903 -1.22109 -2.48967 0
M  V30 2300 H 223.854 -1.08754 -1.15578 0
M  V30 2301 H 223.875 -0.387387 -3.78523 0
M  V30 2302 H 223.387 -2.13008 -3.24421 0
M  V30 2303 H 221.488 0.290383 -3.71467 0
M  V30 2304 H 221.601 -1.37911 -4.58822 0
M  V30 2305 H 219.965 -0.639971 -2.46529 0
M  V30 2306 H 220.748 -2.30972 -2.53982 0
M  V30 2307 N 223.193 1.4272 -0.668489 0
M  V30 2308 C 224.143 2.27971 0.0363806 0
M  V30 2309 C 225.127 1.40741 0.779794 0
M  V30 2310 O 226.319 1.64245 0.659745 0
M  V30 2311 C 223.448 3.28673 0.991398 0
M  V30 2312 C 222.534 4.23388 0.245658 0
M  V30 2313 N 222.925 5.00267 -0.746069 0
M  V30 2314 C 221.223 4.43355 0.484988 0
M  V30 2315 C 221.924 5.69396 -1.19009 0
M  V30 2316 N 220.9 5.41095 -0.521287 0
M  V30 2317 H 224.702 2.84833 -0.724394 0
M  V30 2318 H 222.216 1.54607 -0.497028 0
M  V30 2319 H 224.213 3.88543 1.51129 0
M  V30 2320 H 222.873 2.73373 1.75207 0
M  V30 2321 H 223.884 5.05525 -1.12537 0
M  V30 2322 H 220.561 3.99104 1.22565 0
M  V30 2323 H 221.951 6.41083 -2.01153 0
M  V30 2324 N 224.671 0.411399 1.52136 0
M  V30 2325 C 225.92 -0.165009 2.01024 0
M  V30 2326 C 226.233 -1.4603 1.30133 0
M  V30 2327 O 227.439 -2.1181 1.69849 0
M  V30 2328 C 225.895 -0.344618 3.58246 0
M  V30 2329 C 225.503 0.938716 4.38055 0
M  V30 2330 C 227.247 -0.876195 4.15359 0
M  V30 2331 C 225.154 0.726172 5.86925 0
M  V30 2332 H 224.084 -0.0654407 0.751155 0
M  V30 2333 H 226.735 0.537192 1.75461 0
M  V30 2334 H 225.117 -1.10921 3.80148 0
M  V30 2335 H 226.291 1.70963 4.27912 0
M  V30 2336 H 224.606 1.39688 3.92271 0
M  V30 2337 H 227.203 -1.05128 5.24263 0
M  V30 2338 H 227.546 -1.85152 3.7286 0
M  V30 2339 H 228.079 -0.170607 3.97434 0
M  V30 2340 H 224.818 1.67312 6.33788 0
M  V30 2341 H 224.338 -0.00540283 5.998 0
M  V30 2342 H 226.017 0.369231 6.45946 0
M  V30 2343 N 226.149 -1.5696 0.141893 0
M  V30 2344 C 227.096 -2.16501 -0.799737 0
M  V30 2345 C 228.066 -1.09643 -1.24771 0
M  V30 2346 O 229.251 -1.3766 -1.32115 0
M  V30 2347 C 226.391 -2.78679 -2.03549 0
M  V30 2348 C 225.504 -3.99914 -1.6338 0
M  V30 2349 C 224.639 -4.50106 -2.82096 0
M  V30 2350 C 223.678 -5.63819 -2.38275 0
M  V30 2351 N 222.815 -6.08651 -3.49983 0
M  V30 2352 H 227.655 -2.96632 -0.285179 0
M  V30 2353 H 225.192 -1.46533 -0.129053 0
M  V30 2354 H 227.15 -3.1287 -2.75986 0
M  V30 2355 H 225.78 -2.012 -2.52425 0
M  V30 2356 H 224.832 -3.71735 -0.807279 0
M  V30 2357 H 226.144 -4.82311 -1.27192 0
M  V30 2358 H 225.298 -4.86325 -3.62729 0
M  V30 2359 H 224.037 -3.66706 -3.21525 0
M  V30 2360 H 223.042 -5.2718 -1.56081 0
M  V30 2361 H 224.267 -6.49 -1.99938 0
M  V30 2362 H 222.213 -5.28188 -3.89042 0
M  V30 2363 H 222.13 -6.85961 -3.17794 0
M  V30 2364 H 223.398 -6.49515 -4.30988 0
M  V30 2365 N 227.627 0.131896 -1.57047 0
M  V30 2366 C 228.855 0.856461 -1.88341 0
M  V30 2367 C 229.27 1.74042 -0.731757 0
M  V30 2368 O 228.627 1.80051 0.297945 0
M  V30 2369 C 228.678 1.70064 -3.18999 0
M  V30 2370 O 228.399 0.852278 -4.2973 0
M  V30 2371 C 229.9 2.53148 -3.63911 0
M  V30 2372 H 227.12 0.246885 -0.62393 0
M  V30 2373 H 229.664 0.120152 -2.04147 0
M  V30 2374 H 227.819 2.38984 -3.04902 0
M  V30 2375 H 228.233 1.43329 -5.04537 0
M  V30 2376 H 229.707 3.07931 -4.58129 0
M  V30 2377 H 230.184 3.29901 -2.89935 0
M  V30 2378 H 230.79 1.89492 -3.80753 0
M  V30 2379 N 229.106 1.52395 0.401703 0
M  V30 2380 C 230.355 1.66044 1.14509 0
M  V30 2381 C 230.668 0.400216 1.91462 0
M  V30 2382 O 231.874 0.416632 2.68284 0
M  V30 2383 C 230.33 2.93388 2.0845 0
M  V30 2384 C 229.938 4.26545 1.36978 0
M  V30 2385 C 231.682 3.16402 2.83001 0
M  V30 2386 C 229.589 5.45007 2.29611 0
M  V30 2387 H 228.519 0.618562 0.431158 0
M  V30 2388 H 231.17 1.78886 0.40892 0
M  V30 2389 H 229.552 2.74263 2.8565 0
M  V30 2390 H 230.726 4.56179 0.650916 0
M  V30 2391 H 229.041 4.09692 0.74438 0
M  V30 2392 H 231.638 4.02085 3.52465 0
M  V30 2393 H 231.981 2.30943 3.46368 0
M  V30 2394 H 232.514 3.36034 2.12898 0
M  V30 2395 H 229.253 6.32835 1.70879 0
M  V30 2396 H 228.773 5.19702 2.9945 0
M  V30 2397 H 230.452 5.7838 2.89974 0
M  V30 2398 N 230.584 -0.659388 1.43143 0
M  V30 2399 C 231.831 -1.41935 1.44433 0
M  V30 2400 C 232.159 -1.94387 0.0663522 0
M  V30 2401 O 231.414 -1.72314 -0.927706 0
M  V30 2402 C 231.713 -2.62206 2.42864 0
M  V30 2403 C 231.379 -2.28208 3.88886 0
M  V30 2404 C 230.041 -2.18647 4.28657 0
M  V30 2405 C 232.393 -2.00887 4.8093 0
M  V30 2406 C 229.721 -1.79914 5.58433 0
M  V30 2407 C 232.073 -1.63653 6.11065 0
M  V30 2408 C 230.737 -1.52614 6.49819 0
M  V30 2409 H 230.007 -0.519376 0.528517 0
M  V30 2410 H 232.654 -0.750453 1.76183 0
M  V30 2411 H 230.959 -3.34199 2.04495 0
M  V30 2412 H 232.656 -3.2041 2.41119 0
M  V30 2413 H 229.246 -2.36557 3.57406 0
M  V30 2414 H 233.43 -2.07198 4.5098 0
M  V30 2415 H 228.686 -1.69948 5.87305 0
M  V30 2416 H 232.86 -1.41543 6.81864 0
M  V30 2417 H 230.487 -1.22371 7.50286 0
M  V30 2418 N 232.062 -1.29571 -0.897171 0
M  V30 2419 C 232.994 -1.10724 -2.00681 0
M  V30 2420 C 234.007 -0.0540026 -1.6271 0
M  V30 2421 O 235.196 -0.298783 -1.75982 0
M  V30 2422 C 232.296 -0.663912 -3.32333 0
M  V30 2423 C 231.469 -1.79622 -3.98816 0
M  V30 2424 C 230.528 -1.34349 -5.0876 0
M  V30 2425 O 229.554 -2.04864 -5.31055 0
M  V30 2426 N 230.756 -0.215764 -5.80099 0
M  V30 2427 H 233.521 -2.06291 -2.17403 0
M  V30 2428 H 231.082 -1.21544 -1.06951 0
M  V30 2429 H 233.074 -0.344295 -4.03233 0
M  V30 2430 H 231.644 0.199375 -3.11964 0
M  V30 2431 H 230.864 -2.28459 -3.21248 0
M  V30 2432 H 232.152 -2.55535 -4.39976 0
M  V30 2433 H 231.55 0.372091 -5.64475 0
M  V30 2434 H 230.107 0.0444707 -6.51785 0
M  V30 2435 N 233.54 1.10788 -1.12088 0
M  V30 2436 C 234.788 1.8231 -0.872205 0
M  V30 2437 C 235.109 1.85419 0.603709 0
M  V30 2438 O 234.379 1.32963 1.43867 0
M  V30 2439 H 232.959 0.675137 -0.319686 0
M  V30 2440 H 235.621 1.34068 -1.41463 0
M  V30 2441 H 234.717 2.85955 -1.25045 0
M  V30 2442 N 235.018 0.912232 1.28515 0
M  V30 2443 C 236.267 0.540504 1.94323 0
M  V30 2444 C 236.58 -0.920044 1.72611 0
M  V30 2445 O 237.786 -1.39986 2.32629 0
M  V30 2446 C 236.242 0.915803 3.48053 0
M  V30 2447 C 235.85 2.39598 3.78546 0
M  V30 2448 C 237.594 0.614588 4.20027 0
M  V30 2449 C 235.501 2.71148 5.25578 0
M  V30 2450 H 234.431 0.198418 0.727424 0
M  V30 2451 H 237.082 1.11094 1.46049 0
M  V30 2452 H 235.464 0.274168 3.9505 0
M  V30 2453 H 236.638 3.08422 3.42364 0
M  V30 2454 H 234.953 2.66749 3.1974 0
M  V30 2455 H 237.55 0.827002 5.28266 0
M  V30 2456 H 237.893 -0.447531 4.13887 0
M  V30 2457 H 238.426 1.21462 3.78803 0
M  V30 2458 H 235.165 3.76207 5.36794 0
M  V30 2459 H 234.685 2.0696 5.62963 0
M  V30 2460 H 236.364 2.58072 5.93302 0
M  V30 2461 N 236.496 -1.42363 0.676048 0
M  V30 2462 C 237.459 -2.29199 0.00766941 0
M  V30 2463 C 238.459 -1.43389 -0.727745 0
M  V30 2464 O 239.649 -1.64764 -0.56556 0
M  V30 2465 C 236.781 -3.2591 -0.999785 0
M  V30 2466 H 237.974 -2.89794 0.771988 0
M  V30 2467 H 235.527 -1.50024 0.438468 0
M  V30 2468 H 236.262 -2.70256 -1.79255 0
M  V30 2469 H 236.047 -3.89202 -0.475829 0
M  V30 2470 H 237.537 -3.91028 -1.46583 0
M  V30 2471 N 237.974 -0.419461 -1.51915 0
M  V30 2472 C 238.937 0.389116 -2.25873 0
M  V30 2473 C 239.937 0.964924 -1.28631 0
M  V30 2474 O 241.127 0.842179 -1.52489 0
M  V30 2475 C 238.259 1.54874 -3.03689 0
M  V30 2476 H 239.452 -0.258799 -2.98781 0
M  V30 2477 H 237.005 -0.172209 -1.55348 0
M  V30 2478 H 237.74 2.23323 -2.35154 0
M  V30 2479 H 237.525 1.14223 -3.75094 0
M  V30 2480 H 239.015 2.12046 -3.59759 0
M  V30 2481 N 239.452 1.56882 -0.150215 0
M  V30 2482 C 240.399 2.16922 0.788244 0
M  V30 2483 C 241.369 1.10303 1.24187 0
M  V30 2484 O 242.554 1.38359 1.31383 0
M  V30 2485 C 239.694 2.79754 2.02068 0
M  V30 2486 C 238.807 4.00775 1.61257 0
M  V30 2487 C 237.942 4.51595 2.79705 0
M  V30 2488 C 236.981 5.65074 2.35282 0
M  V30 2489 N 236.118 6.10499 3.4675 0
M  V30 2490 H 240.958 2.96779 0.269444 0
M  V30 2491 H 238.495 1.46599 0.12128 0
M  V30 2492 H 240.453 3.14329 2.74323 0
M  V30 2493 H 239.083 2.02536 2.51354 0
M  V30 2494 H 238.135 3.72158 0.787553 0
M  V30 2495 H 239.447 4.82978 1.24633 0
M  V30 2496 H 238.601 4.88242 3.60145 0
M  V30 2497 H 237.34 3.68406 3.19576 0
M  V30 2498 H 236.345 5.28 1.53283 0
M  V30 2499 H 237.57 6.50052 1.96493 0
M  V30 2500 H 235.516 5.30243 3.86236 0
M  V30 2501 H 235.433 6.87637 3.14152 0
M  V30 2502 H 236.701 6.51791 4.27537 0
M  V30 2503 N 240.93 -0.123565 1.57115 0
M  V30 2504 C 242.176 -0.833386 1.84885 0
M  V30 2505 C 242.509 -1.79742 0.735292 0
M  V30 2506 O 241.784 -1.92764 -0.25925 0
M  V30 2507 C 242.067 -1.5873 3.23228 0
M  V30 2508 C 241.92 -0.643183 4.45178 0
M  V30 2509 C 243.239 -2.54453 3.59085 0
M  V30 2510 H 240.358 -0.301518 0.6725 0
M  V30 2511 H 243 -0.097778 1.89748 0
M  V30 2512 H 241.15 -2.21438 3.19214 0
M  V30 2513 H 242.822 -0.0253015 4.61293 0
M  V30 2514 H 241.065 0.0456139 4.33776 0
M  V30 2515 H 241.736 -1.20724 5.38637 0
M  V30 2516 H 244.212 -2.01853 3.63861 0
M  V30 2517 H 243.088 -3.04238 4.5687 0
M  V30 2518 H 243.349 -3.36906 2.86264 0
M  V30 2519 N 242.408 -1.52605 -0.393616 0
M  V30 2520 C 243.656 -1.67093 -1.13685 0
M  V30 2521 C 243.977 -0.411011 -1.90619 0
M  V30 2522 O 243.247 0.574491 -1.87287 0
M  V30 2523 H 241.827 -0.615923 -0.422668 0
M  V30 2524 H 244.489 -1.89704 -0.447039 0
M  V30 2525 H 243.585 -2.51922 -1.84232 0
M  V30 2526 N 243.887 0.651787 -1.4349 0
M  V30 2527 C 245.115 1.43937 -1.48626 0
M  V30 2528 C 245.53 1.8851 -0.104587 0
M  V30 2529 O 244.887 1.5958 0.885464 0
M  V30 2530 C 244.938 2.6734 -2.43334 0
M  V30 2531 O 244.659 2.24631 -3.76128 0
M  V30 2532 C 246.16 3.60683 -2.57726 0
M  V30 2533 H 243.38 0.44213 -0.504739 0
M  V30 2534 H 245.924 0.798944 -1.88248 0
M  V30 2535 H 244.079 3.2752 -2.06904 0
M  V30 2536 H 244.493 3.04485 -4.2707 0
M  V30 2537 H 245.967 4.43933 -3.28067 0
M  V30 2538 H 246.444 4.08126 -1.62265 0
M  V30 2539 H 247.05 3.06384 -2.94973 0
M  V30 2540 N 245.365 1.30045 0.890287 0
M  V30 2541 C 246.613 1.18327 1.63839 0
M  V30 2542 C 246.934 -0.263455 1.93212 0
M  V30 2543 O 246.204 -1.17856 1.56482 0
M  V30 2544 H 244.784 0.434933 0.607324 0
M  V30 2545 H 247.446 1.631 1.06698 0
M  V30 2546 H 246.542 1.74024 2.59079 0
M  V30 2547 N 246.843 -1.10192 1.12674 0
M  V30 2548 C 247.753 -2.20172 0.810026 0
M  V30 2549 C 248.769 -1.72821 -0.202188 0
M  V30 2550 O 249.945 -2.01369 -0.0351691 0
M  V30 2551 C 247.01 -3.45631 0.272007 0
M  V30 2552 C 246.071 -4.07704 1.34447 0
M  V30 2553 C 245.304 -5.27175 0.832029 0
M  V30 2554 O 245.527 -5.69425 -0.333284 0
M  V30 2555 O 244.461 -5.80168 1.60277 0
M  V30 2556 H 248.287 -2.49701 1.72867 0
M  V30 2557 H 245.872 -1.18977 0.903597 0
M  V30 2558 H 247.754 -4.21394 -0.0230219 0
M  V30 2559 H 246.429 -3.17723 -0.619164 0
M  V30 2560 H 245.336 -3.33614 1.6927 0
M  V30 2561 H 246.669 -4.3982 2.2095 0
M  V30 2562 N 248.321 -0.919034 -1.28029 0
M  V30 2563 C 249.732 -0.600735 -1.76771 0
M  V30 2564 C 250.083 0.884024 -1.75156 0
M  V30 2565 O 249.208 1.69163 -1.34956 0
M  V30 2566 C 249.803 -1.08372 -3.21 0
M  V30 2567 C 248.362 -0.816248 -3.67443 0
M  V30 2568 C 247.509 -1.24742 -2.47658 0
M  V30 2569 H 250.46 -1.09974 -1.14418 0
M  V30 2570 H 250.481 -0.427512 -3.78091 0
M  V30 2571 H 249.993 -2.16437 -3.22144 0
M  V30 2572 H 248.094 0.250968 -3.71754 0
M  V30 2573 H 248.207 -1.4277 -4.57333 0
M  V30 2574 H 246.571 -0.666083 -2.45836 0
M  V30 2575 H 247.354 -2.33653 -2.51518 0
M  V30 2576 N 249.799 1.42003 -0.683588 0
M  V30 2577 C 251.039 2.03282 -0.213513 0
M  V30 2578 C 251.403 1.52924 1.16097 0
M  V30 2579 O 252.604 2.06048 1.7262 0
M  V30 2580 C 250.875 3.56483 -0.255856 0
M  V30 2581 S 252.434 4.3857 0.14193 0
M  V30 2582 H 249.252 0.705659 -0.0869853 0
M  V30 2583 H 251.854 1.73619 -0.8987 0
M  V30 2584 H 250.558 3.90631 -1.25841 0
M  V30 2585 H 250.089 3.90831 0.448875 0
M  V30 2586 H 252.104 4.76828 1.37295 0
M  V30 2587 N 251.277 0.427512 1.51691 0
M  V30 2588 C 252.517 -0.141524 2.03909 0
M  V30 2589 C 252.881 -1.40811 1.30523 0
M  V30 2590 O 254.082 -2.05676 1.73063 0
M  V30 2591 C 252.353 -0.364962 3.55532 0
M  V30 2592 S 253.912 -0.898812 4.29496 0
M  V30 2593 H 250.73 -0.0364542 0.710065 0
M  V30 2594 H 253.332 0.584659 1.86553 0
M  V30 2595 H 252.036 0.56336 4.06515 0
M  V30 2596 H 251.567 -1.1185 3.77164 0
M  V30 2597 H 253.582 -2.17747 4.45871 0
M  V30 2598 N 252.755 -1.56801 0.158532 0
M  V30 2599 C 254.032 -1.88131 -0.535357 0
M  V30 2600 C 254.412 -1.06638 -1.82186 0
M  V30 2601 O 253.76 -0.156533 -2.27963 0
M  V30 2602 C 253.97 -3.39949 -0.789653 0
M  V30 2603 C 255.318 -4.09416 -1.12533 0
M  V30 2604 O 256.342 -3.45194 -0.878622 0
M  V30 2605 O 255.201 -5.22855 -1.59014 0
M  V30 2606 H 252.295 -0.780143 -0.27442 0
M  V30 2607 H 254.841 -1.68564 0.19601 0
M  V30 2608 H 253.613 -3.91115 0.120353 0
M  V30 2609 H 253.236 -3.65084 -1.57479 0
M  V30 2610 N 254.233 0.115231 -1.57178 0
M  V30 2611 C 255.479 0.818565 -1.86202 0
M  V30 2612 C 255.834 1.77316 -0.746785 0
M  V30 2613 O 255.127 1.89923 0.25291 0
M  V30 2614 C 255.321 1.60324 -3.19423 0
M  V30 2615 C 255.15 0.726138 -4.43799 0
M  V30 2616 C 253.92 0.379535 -5.03873 0
M  V30 2617 C 256.118 0.0420774 -5.14283 0
M  V30 2618 N 254.1 -0.507841 -6.11796 0
M  V30 2619 C 255.471 -0.704152 -6.15988 0
M  V30 2620 C 257.526 -0.0339486 -4.97888 0
M  V30 2621 C 256.229 -1.51927 -7.03072 0
M  V30 2622 C 258.255 -0.835906 -5.85463 0
M  V30 2623 C 257.617 -1.57031 -6.86673 0
M  V30 2624 H 253.716 0.276343 -0.731545 0
M  V30 2625 H 256.3 0.0821032 -1.94527 0
M  V30 2626 H 254.471 2.31072 -3.12186 0
M  V30 2627 H 256.203 2.2522 -3.36241 0
M  V30 2628 H 252.958 0.722634 -4.68054 0
M  V30 2629 H 253.382 -0.94349 -6.70393 0
M  V30 2630 H 258.024 0.519496 -4.19596 0
M  V30 2631 H 255.742 -2.08386 -7.80769 0
M  V30 2632 H 259.328 -0.89714 -5.74841 0
M  V30 2633 H 258.208 -2.18088 -7.53264 0
M  V30 2634 N 255.711 1.52812 0.385517 0
M  V30 2635 C 256.957 1.68275 1.13188 0
M  V30 2636 C 257.29 0.423179 1.89533 0
M  V30 2637 O 256.565 -0.579113 1.85679 0
M  V30 2638 C 256.848 2.92001 2.1073 0
M  V30 2639 C 256.701 4.28067 1.38125 0
M  V30 2640 C 258.02 3.11283 3.11113 0
M  V30 2641 H 255.139 0.612352 0.410115 0
M  V30 2642 H 257.781 1.85415 0.414869 0
M  V30 2643 H 255.931 2.77519 2.71874 0
M  V30 2644 H 257.603 4.54324 0.799187 0
M  V30 2645 H 255.846 4.28388 0.683092 0
M  V30 2646 H 256.517 5.10733 2.09417 0
M  V30 2647 H 258.993 3.2482 2.6006 0
M  V30 2648 H 257.869 3.99325 3.76605 0
M  V30 2649 H 258.13 2.25656 3.80173 0
M  V30 2650 N 257.189 -0.644168 1.43834 0
M  V30 2651 C 258.437 -1.40117 1.45642 0
M  V30 2652 C 258.758 -1.94814 0.0852413 0
M  V30 2653 O 258.028 -1.74988 -0.880688 0
M  V30 2654 H 256.608 -0.52005 0.536243 0
M  V30 2655 H 259.27 -0.7591 1.7951 0
M  V30 2656 H 258.366 -2.23902 2.17427 0
M  V30 2657 N 258.668 -1.30515 -0.883378 0
M  V30 2658 C 259.945 -1.10086 -1.6168 0
M  V30 2659 C 260.325 0.349269 -2.08191 0
M  V30 2660 O 259.673 1.34105 -1.85008 0
M  V30 2661 C 259.883 -2.10315 -2.78511 0
M  V30 2662 C 261.231 -2.42119 -3.48803 0
M  V30 2663 O 262.255 -2.08638 -2.88702 0
M  V30 2664 O 261.114 -2.99396 -4.57192 0
M  V30 2665 H 258.208 -0.422907 -0.710689 0
M  V30 2666 H 260.754 -1.41947 -0.930015 0
M  V30 2667 H 259.526 -3.07917 -2.41459 0
M  V30 2668 H 259.149 -1.79282 -3.54886 0
M  V30 2669 N 260.146 1.09593 -1.13257 0
M  V30 2670 C 261.056 2.19739 -0.821691 0
M  V30 2671 C 262.072 1.72926 0.19302 0
M  V30 2672 O 263.248 2.01385 0.0244895 0
M  V30 2673 C 260.313 3.45482 -0.290333 0
M  V30 2674 C 259.374 4.06985 -1.36607 0
M  V30 2675 C 258.607 5.26726 -0.859975 0
M  V30 2676 O 258.83 5.69594 0.303082 0
M  V30 2677 O 257.764 5.7931 -1.63351 0
M  V30 2678 H 261.59 2.48781 -1.74189 0
M  V30 2679 H 259.175 1.18496 -0.909894 0
M  V30 2680 H 261.057 4.214 0.000674022 0
M  V30 2681 H 259.732 3.18047 0.602306 0
M  V30 2682 H 258.639 3.32712 -1.71037 0
M  V30 2683 H 259.972 4.38643 -2.23279 0
M  V30 2684 N 261.624 0.925811 1.2754 0
M  V30 2685 C 262.872 0.564138 1.94067 0
M  V30 2686 C 263.193 -0.897188 1.73134 0
M  V30 2687 O 262.463 -1.63573 1.07799 0
M  V30 2688 H 261.043 0.205645 0.718136 0
M  V30 2689 H 263.705 1.1778 1.55287 0
M  V30 2690 H 262.801 0.76881 3.02483 0
M  V30 2691 N 263.102 -1.41638 0.69111 0
M  V30 2692 C 264.065 -2.29178 0.0319786 0
M  V30 2693 C 265.065 -1.44153 -0.712496 0
M  V30 2694 O 266.255 -1.65354 -0.548053 0
M  V30 2695 C 263.387 -3.26952 -0.965161 0
M  V30 2696 H 264.58 -2.88959 0.802681 0
M  V30 2697 H 262.133 -1.4955 0.454356 0
M  V30 2698 H 262.868 -2.72142 -1.76378 0
M  V30 2699 H 262.653 -3.89685 -0.434522 0
M  V30 2700 H 264.143 -3.92561 -1.42428 0
M  V30 2701 N 264.58 -0.43555 -1.51462 0
M  V30 2702 C 265.828 0.131254 -2.01673 0
M  V30 2703 C 266.149 1.43368 -1.32177 0
M  V30 2704 O 265.419 1.90524 -0.455769 0
M  V30 2705 H 263.999 0.0514954 -0.745223 0
M  V30 2706 H 266.661 -0.577847 -1.86137 0
M  V30 2707 H 265.757 0.308446 -3.10572 0
M  V30 2708 N 266.058 1.56714 -0.166846 0
M  V30 2709 C 267.008 2.14338 0.777382 0
M  V30 2710 C 267.992 1.07642 1.19591 0
M  V30 2711 O 269.184 1.33775 1.15902 0
M  V30 2712 C 266.313 2.78417 2.00846 0
M  V30 2713 C 265.399 3.92264 1.61212 0
M  V30 2714 N 265.79 4.97268 0.925104 0
M  V30 2715 C 264.088 4.03342 1.90346 0
M  V30 2716 C 264.789 5.77093 0.730627 0
M  V30 2717 N 263.765 5.2854 1.27067 0
M  V30 2718 H 267.567 2.9289 0.243466 0
M  V30 2719 H 265.081 1.62364 0.0339954 0
M  V30 2720 H 267.078 3.18073 2.69509 0
M  V30 2721 H 265.738 2.01344 2.54736 0
M  V30 2722 H 266.749 5.14601 0.583646 0
M  V30 2723 H 263.426 3.37368 2.45946 0
M  V30 2724 H 264.816 6.71638 0.187668 0
M  V30 2725 N 267.536 -0.106894 1.57237 0
M  V30 2726 C 268.783 -0.812526 1.85484 0
M  V30 2727 C 269.111 -1.79304 0.753687 0
M  V30 2728 O 268.366 -1.94047 -0.253853 0
M  V30 2729 C 268.665 -1.58628 3.20268 0
M  V30 2730 C 268.331 -0.748967 4.44636 0
M  V30 2731 C 266.993 -0.518104 4.78403 0
M  V30 2732 C 269.345 -0.166122 5.20935 0
M  V30 2733 C 266.673 0.305659 5.85903 0
M  V30 2734 C 269.025 0.644899 6.29304 0
M  V30 2735 C 267.689 0.885965 6.61594 0
M  V30 2736 H 266.959 -0.297324 0.678734 0
M  V30 2737 H 269.606 -0.0744332 1.91355 0
M  V30 2738 H 267.911 -2.39562 3.10028 0
M  V30 2739 H 269.608 -2.13643 3.39349 0
M  V30 2740 H 266.198 -0.939006 4.18187 0
M  V30 2741 H 270.382 -0.33167 4.95191 0
M  V30 2742 H 265.638 0.501528 6.0934 0
M  V30 2743 H 269.812 1.10345 6.87602 0
M  V30 2744 H 267.439 1.52609 7.44725 0
M  V30 2745 N 269.014 -1.53014 -0.377408 0
M  V30 2746 C 270.26 -1.68872 -1.12294 0
M  V30 2747 C 270.593 -0.433224 -1.89306 0
M  V30 2748 O 269.868 0.569258 -1.85983 0
M  V30 2749 C 270.151 -2.93115 -2.09179 0
M  V30 2750 C 270.004 -4.28794 -1.35853 0
M  V30 2751 C 271.323 -3.12928 -3.09458 0
M  V30 2752 H 268.442 -0.614518 -0.406862 0
M  V30 2753 H 271.084 -1.85633 -0.40503 0
M  V30 2754 H 269.234 -2.78956 -2.70399 0
M  V30 2755 H 270.906 -4.54742 -0.775082 0
M  V30 2756 H 269.149 -4.28744 -0.660364 0
M  V30 2757 H 269.82 -5.11837 -2.06706 0
M  V30 2758 H 272.296 -3.26194 -2.58334 0
M  V30 2759 H 271.172 -4.01316 -3.74482 0
M  V30 2760 H 271.433 -2.27669 -3.78971 0
M  V30 2761 N 270.492 0.636531 -1.44174 0
M  V30 2762 C 271.439 1.74875 -1.50624 0
M  V30 2763 C 272.409 1.62275 -0.35442 0
M  V30 2764 O 273.594 1.82276 -0.563908 0
M  V30 2765 C 270.734 3.13102 -1.45125 0
M  V30 2766 C 269.847 3.36717 -2.7064 0
M  V30 2767 C 268.982 4.64885 -2.57013 0
M  V30 2768 C 268.021 4.8166 -3.77717 0
M  V30 2769 N 267.158 6.01101 -3.62798 0
M  V30 2770 H 271.998 1.68697 -2.45653 0
M  V30 2771 H 269.535 0.823004 -1.21922 0
M  V30 2772 H 271.493 3.93034 -1.39929 0
M  V30 2773 H 270.123 3.18308 -0.536671 0
M  V30 2774 H 269.175 2.50763 -2.86046 0
M  V30 2775 H 270.487 3.44993 -3.60252 0
M  V30 2776 H 269.641 5.52969 -2.49619 0
M  V30 2777 H 268.38 4.58957 -1.64953 0
M  V30 2778 H 267.385 3.92007 -3.85501 0
M  V30 2779 H 268.61 4.89406 -4.70807 0
M  V30 2780 H 266.556 5.96273 -2.73486 0
M  V30 2781 H 266.473 6.10409 -4.46023 0
M  V30 2782 H 267.741 6.91761 -3.59286 0
M  V30 2783 N 271.97 1.30982 0.876444 0
M  V30 2784 C 272.903 1.12414 1.98591 0
M  V30 2785 C 273.881 0.0294078 1.62573 0
M  V30 2786 O 275.065 0.184598 1.87594 0
M  V30 2787 C 272.192 0.716276 3.3104 0
M  V30 2788 C 271.238 1.81311 3.86042 0
M  V30 2789 S 272.071 3.41727 4.1229 0
M  V30 2790 C 273.227 3.02863 5.47745 0
M  V30 2791 H 273.46 2.06338 2.14037 0
M  V30 2792 H 270.993 1.15393 1.02586 0
M  V30 2793 H 272.951 0.487697 4.07593 0
M  V30 2794 H 271.612 -0.203749 3.13438 0
M  V30 2795 H 270.805 1.48021 4.81774 0
M  V30 2796 H 270.407 1.99641 3.16259 0
M  V30 2797 H 272.699 2.51353 6.29148 0
M  V30 2798 H 273.642 3.97533 5.8598 0
M  V30 2799 H 274.05 2.40487 5.10711 0
M  V30 2800 N 273.449 -1.08991 1.13837 0
M  V30 2801 C 274.695 -1.81526 0.90422 0
M  V30 2802 C 275.028 -1.85706 -0.568066 0
M  V30 2803 O 274.303 -1.32855 -1.42056 0
M  V30 2804 C 274.586 -3.27447 1.49835 0
M  V30 2805 C 274.439 -3.31512 3.04006 0
M  V30 2806 C 275.758 -4.24256 1.17025 0
M  V30 2807 H 272.877 -0.659029 0.329923 0
M  V30 2808 H 275.519 -1.27644 1.40737 0
M  V30 2809 H 273.669 -3.73462 1.07044 0
M  V30 2810 H 275.341 -2.93867 3.55584 0
M  V30 2811 H 273.584 -2.70963 3.38765 0
M  V30 2812 H 274.255 -4.34329 3.40679 0
M  V30 2813 H 276.731 -3.86549 1.54009 0
M  V30 2814 H 275.607 -5.24684 1.61237 0
M  V30 2815 H 275.868 -4.42019 0.0846274 0
M  V30 2816 N 274.927 -0.932562 -1.27047 0
M  V30 2817 C 275.877 -0.406392 -2.24349 0
M  V30 2818 C 276.861 0.492066 -1.53191 0
M  V30 2819 O 278.053 0.328717 -1.73921 0
M  V30 2820 C 275.182 0.335214 -3.41659 0
M  V30 2821 C 274.268 -0.58004 -4.20115 0
M  V30 2822 N 274.659 -1.70203 -4.76303 0
M  V30 2823 C 272.957 -0.383974 -4.44344 0
M  V30 2824 C 273.658 -2.27167 -5.35509 0
M  V30 2825 N 272.634 -1.56068 -5.20715 0
M  V30 2826 H 276.436 -1.26299 -2.65378 0
M  V30 2827 H 273.95 -0.787408 -1.42034 0
M  V30 2828 H 275.947 0.729142 -4.10474 0
M  V30 2829 H 274.607 1.18868 -3.0216 0
M  V30 2830 H 275.618 -2.08433 -4.74106 0
M  V30 2831 H 272.295 0.428436 -4.15296 0
M  V30 2832 H 273.685 -3.21654 -5.89905 0
M  V30 2833 N 276.405 1.4127 -0.698611 0
M  V30 2834 C 277.353 2.32588 -0.023855 0
M  V30 2835 C 278.347 1.51128 0.765292 0
M  V30 2836 O 279.553 1.67043 0.670571 0
M  V30 2837 H 275.928 0.751918 0.0110871 0
M  V30 2838 H 277.899 2.87167 -0.811031 0
M  V30 2839 C 276.648 3.35947 0.896369 0
M  V30 2840 H 275.971 3.98684 0.298548 0
M  V30 2841 H 277.411 4.02376 1.33676 0
M  V30 2842 C 275.87 2.70076 2.01396 0
M  V30 2843 O 276.4 2.55093 3.10307 0
M  V30 2844 N 274.606 2.28724 1.79259 0
M  V30 2845 H 274.153 2.4111 0.906841 0
M  V30 2846 H 274.111 1.84986 2.54219 0
M  V30 2847 N 277.883 0.443576 1.51229 0
M  V30 2848 C 279.131 -0.120557 2.0174 0
M  V30 2849 C 279.452 -1.42665 1.32935 0
M  V30 2850 O 278.722 -1.9028 0.465866 0
M  V30 2851 H 277.302 -0.0475426 0.745486 0
M  V30 2852 H 279.964 0.587711 1.85828 0
M  V30 2853 H 279.06 -0.291972 3.10731 0
M  V30 2854 N 279.361 -1.56624 0.175154 0
M  V30 2855 C 280.61 -1.96173 -0.468921 0
M  V30 2856 C 280.923 -1.06401 -1.64128 0
M  V30 2857 O 282.129 -1.35648 -2.35185 0
M  V30 2858 C 280.585 -3.48833 -0.885633 0
M  V30 2859 C 280.193 -4.47237 0.261343 0
M  V30 2860 C 281.937 -3.97194 -1.49791 0
M  V30 2861 C 279.844 -5.9114 -0.175214 0
M  V30 2862 H 278.774 -0.732455 -0.178958 0
M  V30 2863 H 281.425 -1.81591 0.263997 0
M  V30 2864 H 279.807 -3.58848 -1.67464 0
M  V30 2865 H 280.981 -4.4894 1.03871 0
M  V30 2866 H 279.296 -4.08956 0.783827 0
M  V30 2867 H 281.893 -5.02167 -1.83665 0
M  V30 2868 H 282.236 -3.40351 -2.39722 0
M  V30 2869 H 282.769 -3.90212 -0.773267 0
M  V30 2870 H 279.508 -6.51865 0.689414 0
M  V30 2871 H 279.028 -5.92735 -0.91786 0
M  V30 2872 H 280.707 -6.44044 -0.617792 0
M  V30 2873 N 280.839 0.0985539 -1.57292 0
M  V30 2874 C 281.749 1.13824 -2.05137 0
M  V30 2875 C 282.765 1.44076 -0.975604 0
M  V30 2876 O 283.941 1.54786 -1.28853 0
M  V30 2877 C 281.006 2.43969 -2.46333 0
M  V30 2878 C 280.067 2.2093 -3.68087 0
M  V30 2879 C 279.3 3.44869 -4.0731 0
M  V30 2880 O 279.523 4.52972 -3.46659 0
M  V30 2881 O 278.457 3.34661 -5.00285 0
M  V30 2882 H 282.283 0.761881 -2.93988 0
M  V30 2883 H 279.868 0.310818 -1.46131 0
M  V30 2884 H 281.75 3.20609 -2.73473 0
M  V30 2885 H 280.425 2.81038 -1.60621 0
M  V30 2886 H 279.332 1.42081 -3.46069 0
M  V30 2887 H 280.665 1.88755 -4.54568 0
M  V30 2888 N 282.317 1.53212 0.369288 0
M  V30 2889 C 283.547 1.72868 1.13139 0
M  V30 2890 C 283.955 0.455754 1.83629 0
M  V30 2891 O 283.298 -0.580861 1.74275 0
M  V30 2892 C 283.36 2.83667 2.20847 0
M  V30 2893 C 283.024 4.24142 1.70155 0
M  V30 2894 C 284.021 5.06619 1.16763 0
M  V30 2895 C 281.706 4.70539 1.7578 0
M  V30 2896 C 283.7 6.33581 0.696678 0
M  V30 2897 C 281.387 5.97481 1.28297 0
M  V30 2898 C 282.385 6.78833 0.753307 0
M  V30 2899 O 282.073 8.03393 0.285475 0
M  V30 2900 H 281.805 0.581707 0.344373 0
M  V30 2901 H 284.359 2.00736 0.435243 0
M  V30 2902 H 282.589 2.51265 2.93944 0
M  V30 2903 H 284.278 2.91536 2.82421 0
M  V30 2904 H 285.044 4.71948 1.11758 0
M  V30 2905 H 280.923 4.07293 2.15949 0
M  V30 2906 H 284.467 6.97027 0.282581 0
M  V30 2907 H 280.364 6.31651 1.32994 0
M  V30 2908 H 281.132 8.17497 0.405145 0
M  V30 2909 N 283.795 -0.628877 1.44509 0
M  V30 2910 C 285.043 -1.38565 1.4712 0
M  V30 2911 C 285.364 -1.94712 0.105899 0
M  V30 2912 O 284.634 -1.75912 -0.862079 0
M  V30 2913 H 283.214 -0.514333 0.541729 0
M  V30 2914 H 285.876 -0.740018 1.80305 0
M  V30 2915 H 284.972 -2.21583 2.19789 0
M  V30 2916 N 285.273 -1.31445 -0.869486 0
M  V30 2917 C 286.55 -1.11795 -1.60503 0
M  V30 2918 C 286.93 0.327168 -2.08549 0
M  V30 2919 O 286.278 1.32135 -1.8642 0
M  V30 2920 C 286.488 -2.13258 -2.76265 0
M  V30 2921 C 287.836 -2.45805 -3.46215 0
M  V30 2922 O 288.86 -2.11688 -2.86473 0
M  V30 2923 O 287.719 -3.04228 -4.5399 0
M  V30 2924 H 284.813 -0.430421 -0.706163 0
M  V30 2925 H 287.359 -1.42925 -0.914907 0
M  V30 2926 H 286.131 -3.10461 -2.3818 0
M  V30 2927 H 285.754 -1.83035 -3.52964 0
M  V30 2928 N 286.751 1.08385 -1.14413 0
M  V30 2929 C 287.684 2.14642 -0.774871 0
M  V30 2930 C 288.662 1.60761 0.243876 0
M  V30 2931 O 289.846 1.88031 0.132883 0
M  V30 2932 C 286.973 3.38366 -0.150491 0
M  V30 2933 C 286.019 4.10997 -1.13945 0
M  V30 2934 S 286.852 4.63797 -2.67679 0
M  V30 2935 C 288.008 5.90808 -2.06631 0
M  V30 2936 H 288.241 2.45633 -1.67487 0
M  V30 2937 H 285.774 1.20498 -0.96538 0
M  V30 2938 H 287.732 4.09996 0.203334 0
M  V30 2939 H 286.393 3.05572 0.72694 0
M  V30 2940 H 285.586 4.99783 -0.65059 0
M  V30 2941 H 285.188 3.4528 -1.43727 0
M  V30 2942 H 287.48 6.62411 -1.4219 0
M  V30 2943 H 288.423 6.4439 -2.93542 0
M  V30 2944 H 288.831 5.4383 -1.51357 0
M  V30 2945 N 288.23 0.939286 1.26551 0
M  V30 2946 C 289.162 0.404704 2.25599 0
M  V30 2947 C 290.175 -0.470983 1.55838 0
M  V30 2948 O 291.364 -0.281734 1.76263 0
M  V30 2949 C 288.464 -0.43764 3.36062 0
M  V30 2950 C 287.637 0.421449 4.35365 0
M  V30 2951 C 286.696 -0.36015 5.24966 0
M  V30 2952 O 285.722 0.236167 5.6871 0
M  V30 2953 N 286.924 -1.65715 5.56344 0
M  V30 2954 H 289.689 1.25618 2.72103 0
M  V30 2955 H 287.25 0.807963 1.40298 0
M  V30 2956 H 289.242 -0.967866 3.92956 0
M  V30 2957 H 287.812 -1.18991 2.89067 0
M  V30 2958 H 287.032 1.1329 3.7757 0
M  V30 2959 H 288.32 1.00835 4.98708 0
M  V30 2960 H 287.718 -2.16378 5.22682 0
M  V30 2961 H 286.275 -2.13366 6.15888 0
M  V30 2962 N 289.708 -1.40897 0.706093 0
M  V30 2963 C 290.638 -2.33418 0.0620085 0
M  V30 2964 C 291.619 -1.52385 -0.755827 0
M  V30 2965 O 292.804 -1.80886 -0.706674 0
M  V30 2966 C 289.934 -3.36293 -0.867445 0
M  V30 2967 C 288.888 -4.27716 -0.155932 0
M  V30 2968 C 288.214 -5.2105 -1.20046 0
M  V30 2969 C 289.514 -5.12944 0.984149 0
M  V30 2970 H 291.208 -2.87527 0.83477 0
M  V30 2971 H 288.754 -1.38249 0.402875 0
M  V30 2972 H 290.707 -3.99949 -1.32735 0
M  V30 2973 H 289.431 -2.80556 -1.67199 0
M  V30 2974 H 288.09 -3.65498 0.284047 0
M  V30 2975 H 287.738 -4.61624 -1.99781 0
M  V30 2976 H 287.438 -5.83056 -0.729328 0
M  V30 2977 H 288.962 -5.87584 -1.66066 0
M  V30 2978 H 290.376 -5.70109 0.604048 0
M  V30 2979 H 288.773 -5.83945 1.38304 0
M  V30 2980 H 289.843 -4.49485 1.81911 0
M  V30 2981 N 291.186 -0.45159 -1.50991 0
M  V30 2982 C 292.435 0.111653 -2.01391 0
M  V30 2983 C 292.748 1.42529 -1.33959 0
M  V30 2984 O 293.954 2.07232 -1.75405 0
M  V30 2985 C 292.41 0.249514 -3.59034 0
M  V30 2986 C 292.018 -1.05453 -4.35412 0
M  V30 2987 C 293.762 0.765762 -4.17536 0
M  V30 2988 C 291.669 -0.881529 -5.84793 0
M  V30 2989 H 290.599 0.0455022 -0.752626 0
M  V30 2990 H 293.25 -0.583524 -1.73975 0
M  V30 2991 H 291.632 1.00803 -3.82955 0
M  V30 2992 H 292.806 -1.82248 -4.23229 0
M  V30 2993 H 291.121 -1.50039 -3.88429 0
M  V30 2994 H 293.718 0.911913 -5.26866 0
M  V30 2995 H 294.061 1.75201 -3.77638 0
M  V30 2996 H 294.594 0.0651744 -3.97747 0
M  V30 2997 H 291.333 -1.84057 -6.29129 0
M  V30 2998 H 290.853 -0.153625 -5.99603 0
M  V30 2999 H 292.532 -0.540363 -6.4474 0
M  V30 3000 N 292.664 1.56529 -0.183458 0
M  V30 3001 C 293.904 1.99141 0.460667 0
M  V30 3002 C 294.268 1.06736 1.59597 0
M  V30 3003 O 295.469 1.38538 2.30349 0
M  V30 3004 C 293.74 3.45358 0.919939 0
M  V30 3005 S 295.299 4.09999 1.56354 0
M  V30 3006 H 292.117 0.695479 0.147748 0
M  V30 3007 H 294.719 1.93429 -0.283782 0
M  V30 3008 H 293.423 4.10315 0.0834208 0
M  V30 3009 H 292.954 3.54862 1.69814 0
M  V30 3010 H 294.969 4.06046 2.85203 0
M  V30 3011 N 294.142 -0.090211 1.57342 0
M  V30 3012 C 295.052 -1.12735 2.05738 0
M  V30 3013 C 296.068 -1.43557 0.983231 0
M  V30 3014 O 297.244 -1.54101 1.29672 0
M  V30 3015 C 294.309 -2.42659 2.47624 0
M  V30 3016 C 293.37 -2.18975 3.69254 0
M  V30 3017 C 292.603 -3.42704 4.09133 0
M  V30 3018 O 292.826 -4.51127 3.49057 0
M  V30 3019 O 291.76 -3.32003 5.02053 0
M  V30 3020 H 295.586 -0.746279 2.94388 0
M  V30 3021 H 293.171 -0.303064 1.46294 0
M  V30 3022 H 295.053 -3.19155 2.7517 0
M  V30 3023 H 293.728 -2.80182 1.62109 0
M  V30 3024 H 292.635 -1.40244 3.46818 0
M  V30 3025 H 293.968 -1.86342 4.55563 0
M  V30 3026 N 295.62 -1.53406 -0.361157 0
M  V30 3027 C 296.583 -1.79479 -1.42548 0
M  V30 3028 C 297.583 -0.665327 -1.4639 0
M  V30 3029 O 298.773 -0.933549 -1.47073 0
M  V30 3030 C 295.905 -1.92087 -2.8163 0
M  V30 3031 H 297.098 -2.74538 -1.20701 0
M  V30 3032 H 294.651 -1.4455 -0.594546 0
M  V30 3033 H 295.386 -0.991099 -3.08784 0
M  V30 3034 H 295.171 -2.74241 -2.80239 0
M  V30 3035 H 296.661 -2.13836 -3.58697 0
M  V30 3036 N 297.098 0.621204 -1.44841 0
M  V30 3037 C 298.328 1.40548 -1.51426 0
M  V30 3038 C 298.736 1.88673 -0.141083 0
M  V30 3039 O 298.079 1.62053 0.865128 0
M  V30 3040 C 298.141 2.65325 -2.42576 0
M  V30 3041 C 297.805 2.3893 -3.89566 0
M  V30 3042 C 298.802 2.00138 -4.79834 0
M  V30 3043 C 296.487 2.52263 -4.3436 0
M  V30 3044 C 298.481 1.75021 -6.129 0
M  V30 3045 C 296.168 2.2676 -5.67471 0
M  V30 3046 C 297.166 1.88199 -6.56559 0
M  V30 3047 O 296.854 1.62986 -7.87204 0
M  V30 3048 H 296.586 0.437122 -0.515655 0
M  V30 3049 H 299.14 0.765987 -1.90583 0
M  V30 3050 H 297.37 3.31947 -1.98364 0
M  V30 3051 H 299.059 3.27347 -2.39998 0
M  V30 3052 H 299.825 1.89386 -4.46495 0
M  V30 3053 H 295.704 2.81246 -3.65269 0
M  V30 3054 H 299.248 1.44848 -6.82396 0
M  V30 3055 H 295.145 2.37125 -6.00368 0
M  V30 3056 H 295.913 1.7715 -7.991 0
M  V30 3057 N 298.576 1.31904 0.862503 0
M  V30 3058 C 299.526 1.16772 1.95827 0
M  V30 3059 C 300.51 0.0767098 1.60717 0
M  V30 3060 O 301.702 0.302407 1.74398 0
M  V30 3061 C 298.831 0.884858 3.317 0
M  V30 3062 C 297.917 2.0172 3.73055 0
M  V30 3063 N 298.308 3.265 3.86305 0
M  V30 3064 C 296.606 1.91861 4.02623 0
M  V30 3065 C 297.307 4.00616 4.2176 0
M  V30 3066 N 296.283 3.28847 4.32852 0
M  V30 3067 H 300.085 2.11382 2.04193 0
M  V30 3068 H 297.599 1.2357 1.05377 0
M  V30 3069 H 299.596 0.757419 4.09962 0
M  V30 3070 H 298.256 -0.0529448 3.24657 0
M  V30 3071 H 299.267 3.61529 3.70833 0
M  V30 3072 H 295.944 1.05593 4.03926 0
M  V30 3073 H 297.334 5.08182 4.39546 0
M  V30 3074 N 300.054 -1.07777 1.14986 0
M  V30 3075 C 300.984 -2.16865 0.865557 0
M  V30 3076 C 301.965 -1.69123 -0.182083 0
M  V30 3077 O 303.15 -1.94164 -0.0373815 0
M  V30 3078 C 300.28 -3.45539 0.349313 0
M  V30 3079 C 299.234 -4.06708 1.33313 0
M  V30 3080 C 298.56 -5.30411 0.675918 0
M  V30 3081 C 299.86 -4.47241 2.69764 0
M  V30 3082 H 301.554 -2.40905 1.77778 0
M  V30 3083 H 299.1 -1.15781 0.856203 0
M  V30 3084 H 301.053 -4.21174 0.137983 0
M  V30 3085 H 299.777 -3.21072 -0.598362 0
M  V30 3086 H 298.436 -3.33112 1.53075 0
M  V30 3087 H 298.084 -5.02232 -0.277767 0
M  V30 3088 H 297.784 -5.72293 1.33244 0
M  V30 3089 H 299.308 -6.08755 0.474262 0
M  V30 3090 H 300.722 -5.14025 2.53873 0
M  V30 3091 H 299.119 -5.00062 3.3175 0
M  V30 3092 H 300.189 -3.58818 3.26156 0
M  V30 3093 N 301.532 -0.945985 -1.26051 0
M  V30 3094 C 302.465 -0.403619 -2.24602 0
M  V30 3095 C 303.443 0.510241 -1.54387 0
M  V30 3096 O 304.627 0.446593 -1.83133 0
M  V30 3097 C 301.754 0.419564 -3.36091 0
M  V30 3098 C 300.8 -0.433454 -4.24292 0
M  V30 3099 S 301.633 -1.86037 -5.02146 0
M  V30 3100 C 302.789 -1.04538 -6.17108 0
M  V30 3101 H 303.022 -1.23883 -2.7026 0
M  V30 3102 H 300.555 -0.749438 -1.34992 0
M  V30 3103 H 302.513 0.888595 -4.00767 0
M  V30 3104 H 301.174 1.22951 -2.89036 0
M  V30 3105 H 300.367 0.197486 -5.03613 0
M  V30 3106 H 299.969 -0.837357 -3.64506 0
M  V30 3107 H 302.261 -0.289923 -6.76879 0
M  V30 3108 H 303.204 -1.81222 -6.84518 0
M  V30 3109 H 303.612 -0.579319 -5.61519 0
M  V30 3110 N 303.011 1.40521 -0.713556 0
M  V30 3111 C 303.958 2.30723 -0.059684 0
M  V30 3112 C 304.928 1.48079 0.752448 0
M  V30 3113 O 306.113 1.76823 0.71681 0
M  V30 3114 C 303.253 3.34274 0.857594 0
M  V30 3115 C 302.366 4.31986 0.0351536 0
M  V30 3116 C 301.501 5.22605 0.951724 0
M  V30 3117 C 300.54 6.11976 0.123253 0
M  V30 3118 N 299.677 6.9502 0.99459 0
M  V30 3119 H 304.517 2.86074 -0.834596 0
M  V30 3120 H 302.054 1.40879 -0.42326 0
M  V30 3121 H 304.012 3.92879 1.40364 0
M  V30 3122 H 302.642 2.8043 1.59871 0
M  V30 3123 H 301.694 3.7518 -0.628052 0
M  V30 3124 H 303.006 4.95101 -0.606347 0
M  V30 3125 H 302.16 5.86131 1.56638 0
M  V30 3126 H 300.899 4.59759 1.62705 0
M  V30 3127 H 299.904 5.47482 -0.50435 0
M  V30 3128 H 301.129 6.76881 -0.548539 0
M  V30 3129 H 299.075 6.34764 1.6556 0
M  V30 3130 H 298.992 7.54892 0.40908 0
M  V30 3131 H 300.26 7.62997 1.59549 0
M  V30 3132 N 304.489 0.459591 1.5075 0
M  V30 3133 C 305.766 -0.160371 1.94941 0
M  V30 3134 C 306.146 -1.58048 1.39943 0
M  V30 3135 O 305.494 -2.206 0.595629 0
M  V30 3136 C 305.704 -0.115432 3.48809 0
M  V30 3137 C 307.052 -0.310026 4.23467 0
M  V30 3138 O 308.076 -0.192543 3.55679 0
M  V30 3139 O 306.935 -0.546031 5.43765 0
M  V30 3140 H 304.029 -0.117925 0.818549 0
M  V30 3141 H 306.575 0.519169 1.61563 0
M  V30 3142 H 305.347 0.87652 3.81357 0
M  V30 3143 H 304.97 -0.836928 3.88692 0
M  V30 3144 N 305.967 -1.56429 0.191757 0
M  V30 3145 C 307.213 -1.97777 -0.448554 0
M  V30 3146 C 307.546 -1.07847 -1.61501 0
M  V30 3147 O 306.821 -0.129774 -1.94067 0
M  V30 3148 C 307.104 -3.48362 -0.911906 0
M  V30 3149 C 306.957 -4.4907 0.256136 0
M  V30 3150 C 308.276 -4.02561 -1.77857 0
M  V30 3151 H 305.395 -0.719071 -0.161572 0
M  V30 3152 H 308.037 -1.87896 0.282007 0
M  V30 3153 H 306.187 -3.56914 -1.53442 0
M  V30 3154 H 307.859 -4.5256 0.893733 0
M  V30 3155 H 306.102 -4.24181 0.908436 0
M  V30 3156 H 306.773 -5.51889 -0.11053 0
M  V30 3157 H 309.249 -3.96767 -1.25359 0
M  V30 3158 H 308.125 -5.08301 -2.07174 0
M  V30 3159 H 308.386 -3.47616 -2.73158 0
M  V30 3160 N 307.445 0.0818655 -1.57387 0
M  V30 3161 C 308.375 1.09885 -2.06028 0
M  V30 3162 C 309.356 1.4098 -0.951774 0
M  V30 3163 O 310.541 1.50781 -1.22387 0
M  V30 3164 C 307.671 2.4151 -2.4958 0
M  V30 3165 C 306.625 2.24792 -3.64215 0
M  V30 3166 C 305.951 3.61712 -3.93787 0
M  V30 3167 C 307.251 1.67749 -4.94629 0
M  V30 3168 H 308.945 0.694128 -2.91243 0
M  V30 3169 H 306.491 0.332448 -1.4011 0
M  V30 3170 H 308.444 3.12939 -2.82219 0
M  V30 3171 H 307.168 2.83943 -1.61381 0
M  V30 3172 H 305.827 1.55807 -3.31843 0
M  V30 3173 H 305.475 4.01697 -3.02735 0
M  V30 3174 H 305.175 3.51368 -4.70971 0
M  V30 3175 H 306.699 4.34587 -4.28913 0
M  V30 3176 H 308.113 2.29032 -5.25564 0
M  V30 3177 H 306.51 1.68128 -5.76067 0
M  V30 3178 H 307.58 0.638059 -4.80684 0
M  V30 3179 N 308.923 1.53595 0.353017 0
M  V30 3180 C 310.171 1.70049 1.09215 0
M  V30 3181 C 310.492 0.461406 1.89463 0
M  V30 3182 O 309.762 -0.524633 1.88744 0
M  V30 3183 H 308.342 0.626912 0.40619 0
M  V30 3184 H 311.004 1.90822 0.396585 0
M  V30 3185 H 310.1 2.56718 1.77488 0
M  V30 3186 N 310.401 -0.613514 1.45168 0
M  V30 3187 C 311.334 -1.73809 1.47871 0
M  V30 3188 C 312.312 -1.59097 0.33568 0
M  V30 3189 O 313.496 -1.8074 0.535299 0
M  V30 3190 C 310.623 -3.11574 1.32813 0
M  V30 3191 C 309.669 -3.4489 2.50905 0
M  V30 3192 S 310.502 -3.40393 4.13392 0
M  V30 3193 C 311.658 -4.80749 4.00789 0
M  V30 3194 H 311.891 -1.71252 2.43023 0
M  V30 3195 H 309.424 -0.789658 1.32679 0
M  V30 3196 H 311.382 -3.91065 1.24812 0
M  V30 3197 H 310.043 -3.11652 0.391418 0
M  V30 3198 H 309.236 -4.45183 2.36279 0
M  V30 3199 H 308.838 -2.72901 2.55736 0
M  V30 3200 H 311.13 -5.7041 3.65567 0
M  V30 3201 H 312.073 -5.00431 5.00974 0
M  V30 3202 H 312.481 -4.56151 3.32545 0
M  V30 3203 N 311.879 -1.3236 -0.855495 0
M  V30 3204 C 312.842 -1.21164 -1.94556 0
M  V30 3205 C 313.842 -0.134908 -1.60233 0
M  V30 3206 O 315.032 -0.385249 -1.69887 0
M  V30 3207 C 312.164 -0.863192 -3.29791 0
M  V30 3208 H 313.357 -2.18038 -2.05911 0
M  V30 3209 H 310.91 -1.16179 -1.04557 0
M  V30 3210 H 311.645 0.103769 -3.24134 0
M  V30 3211 H 311.43 -1.64166 -3.56078 0
M  V30 3212 H 312.92 -0.809156 -4.09686 0
M  V30 3213 N 313.357 1.07166 -1.15556 0
M  V30 3214 C 314.289 2.14341 -0.811815 0
M  V30 3215 C 315.302 1.61835 0.177015 0
M  V30 3216 O 316.491 1.78439 -0.0464996 0
M  V30 3217 C 313.591 3.38387 -0.186481 0
M  V30 3218 C 312.764 4.20238 -1.21321 0
M  V30 3219 C 311.823 5.2266 -0.609302 0
M  V30 3220 O 310.849 5.54719 -1.27576 0
M  V30 3221 N 312.051 5.77306 0.608099 0
M  V30 3222 H 314.816 2.44431 -1.73417 0
M  V30 3223 H 312.377 1.23089 -1.0517 0
M  V30 3224 H 314.369 4.04044 0.230339 0
M  V30 3225 H 312.939 3.05994 0.639249 0
M  V30 3226 H 312.159 3.50369 -1.80652 0
M  V30 3227 H 313.447 4.71736 -1.90638 0
M  V30 3228 H 312.845 5.53513 1.1679 0
M  V30 3229 H 311.402 6.44583 0.96725 0
M  V30 3230 N 314.835 0.952656 1.25548 0
M  V30 3231 C 316.112 0.523818 1.88456 0
M  V30 3232 C 316.492 -0.998871 1.85973 0
M  V30 3233 O 315.84 -1.86381 1.3219 0
M  V30 3234 C 316.05 1.0982 3.31271 0
M  V30 3235 C 317.398 1.17385 4.08051 0
M  V30 3236 O 318.422 1.04961 3.40384 0
M  V30 3237 O 317.281 1.36852 5.29088 0
M  V30 3238 H 314.375 0.172485 0.808813 0
M  V30 3239 H 316.921 1.04596 1.33633 0
M  V30 3240 H 315.693 2.1415 3.27499 0
M  V30 3241 H 315.316 0.559191 3.93648 0
M  V30 3242 N 316.313 -1.40141 0.720998 0
M  V30 3243 C 317.223 -2.34486 0.0731031 0
M  V30 3244 C 318.239 -1.57587 -0.737723 0
M  V30 3245 O 319.415 -1.89949 -0.669429 0
M  V30 3246 C 316.48 -3.36528 -0.833656 0
M  V30 3247 C 315.541 -4.29298 -0.0121673 0
M  V30 3248 C 314.774 -5.26466 -0.875742 0
M  V30 3249 O 314.997 -5.29745 -2.11485 0
M  V30 3250 O 313.931 -6.01092 -0.31185 0
M  V30 3251 H 317.757 -2.9152 0.851444 0
M  V30 3252 H 315.342 -1.41427 0.481527 0
M  V30 3253 H 317.224 -3.99093 -1.35289 0
M  V30 3254 H 315.899 -2.81899 -1.59105 0
M  V30 3255 H 314.806 -3.70001 0.552262 0
M  V30 3256 H 316.139 -4.87094 0.707129 0
M  V30 3257 N 317.792 -0.46758 -1.50504 0
M  V30 3258 C 318.725 0.374324 -2.25109 0
M  V30 3259 C 319.703 0.99921 -1.28275 0
M  V30 3260 O 320.887 1.03583 -1.57489 0
M  V30 3261 C 318.014 1.52419 -3.02467 0
M  V30 3262 C 317.06 1.01702 -4.14197 0
M  V30 3263 S 317.893 -0.0654477 -5.3546 0
M  V30 3264 C 319.049 1.08837 -6.16365 0
M  V30 3265 H 319.282 -0.258983 -2.9617 0
M  V30 3266 H 316.815 -0.252421 -1.52323 0
M  V30 3267 H 318.773 2.18322 -3.47628 0
M  V30 3268 H 317.434 2.129 -2.30938 0
M  V30 3269 H 316.627 1.87776 -4.67714 0
M  V30 3270 H 316.229 0.435757 -3.71453 0
M  V30 3271 H 318.521 2.00071 -6.47285 0
M  V30 3272 H 319.464 0.592538 -7.05616 0
M  V30 3273 H 319.872 1.34061 -5.4835 0
M  V30 3274 N 319.27 1.56325 -0.20005 0
M  V30 3275 C 320.233 2.18084 0.705132 0
M  V30 3276 C 321.233 1.13666 1.1374 0
M  V30 3277 O 322.423 1.39023 1.04968 0
M  V30 3278 C 319.555 2.78689 1.96329 0
M  V30 3279 H 320.748 2.99435 0.167023 0
M  V30 3280 H 318.301 1.56221 0.0495725 0
M  V30 3281 H 319.036 2.0115 2.5438 0
M  V30 3282 H 318.821 3.55133 1.66202 0
M  V30 3283 H 320.311 3.26096 2.60866 0
M  V30 3284 N 320.748 -0.0735177 1.57428 0
M  V30 3285 C 321.68 -1.11423 2.00294 0
M  V30 3286 C 322.693 -1.35084 0.908637 0
M  V30 3287 O 323.882 -1.33355 1.18654 0
M  V30 3288 C 320.982 -2.46548 2.32523 0
M  V30 3289 C 320.155 -2.42867 3.63778 0
M  V30 3290 C 319.214 -3.60087 3.83697 0
M  V30 3291 O 318.24 -3.41595 4.55304 0
M  V30 3292 N 319.442 -4.80372 3.25919 0
M  V30 3293 H 322.207 -0.749206 2.90184 0
M  V30 3294 H 319.768 -0.262195 1.59763 0
M  V30 3295 H 321.76 -3.23607 2.43024 0
M  V30 3296 H 320.33 -2.75059 1.48531 0
M  V30 3297 H 319.55 -1.51206 3.64047 0
M  V30 3298 H 320.838 -2.37506 4.49965 0
M  V30 3299 H 320.236 -4.983 2.67795 0
M  V30 3300 H 318.793 -5.54948 3.41871 0
M  V30 3301 N 322.226 -1.5378 -0.344866 0
M  V30 3302 C 323.189 -1.80981 -1.40637 0
M  V30 3303 C 324.189 -0.680816 -1.45676 0
M  V30 3304 O 325.379 -0.949095 -1.46075 0
M  V30 3305 C 322.511 -1.95063 -2.79577 0
M  V30 3306 H 323.704 -2.75803 -1.17783 0
M  V30 3307 H 321.257 -1.45173 -0.579181 0
M  V30 3308 H 321.992 -1.02379 -3.07716 0
M  V30 3309 H 321.777 -2.77198 -2.77315 0
M  V30 3310 H 323.267 -2.17629 -3.56409 0
M  V30 3311 N 323.704 0.605807 -1.45491 0
M  V30 3312 C 324.951 1.36476 -1.49601 0
M  V30 3313 C 325.279 1.94007 -0.138452 0
M  V30 3314 O 324.534 1.75638 0.863114 0
M  V30 3315 C 324.833 2.53012 -2.52428 0
M  V30 3316 C 324.499 2.13617 -3.97087 0
M  V30 3317 C 323.161 2.02587 -4.36477 0
M  V30 3318 C 325.513 1.82899 -4.88055 0
M  V30 3319 C 322.841 1.59064 -5.64726 0
M  V30 3320 C 325.193 1.40861 -6.16718 0
M  V30 3321 C 323.857 1.28391 -6.55036 0
M  V30 3322 H 323.127 0.499402 -0.547429 0
M  V30 3323 H 325.774 0.684546 -1.78847 0
M  V30 3324 H 324.079 3.26379 -2.16758 0
M  V30 3325 H 325.776 3.1124 -2.52845 0
M  V30 3326 H 322.366 2.23129 -3.65939 0
M  V30 3327 H 326.55 1.90317 -4.58359 0
M  V30 3328 H 321.806 1.48034 -5.93208 0
M  V30 3329 H 325.98 1.16138 -6.86648 0
M  V30 3330 H 323.607 0.944403 -7.54311 0
M  V30 3331 N 325.182 1.32811 0.848464 0
M  V30 3332 C 326.092 1.24278 1.98978 0
M  V30 3333 C 327.108 0.155176 1.73307 0
M  V30 3334 O 328.284 0.376999 1.9784 0
M  V30 3335 C 325.349 0.972444 3.32783 0
M  V30 3336 C 324.41 2.14911 3.71634 0
M  V30 3337 C 323.643 1.89157 4.99054 0
M  V30 3338 O 323.866 0.837165 5.64223 0
M  V30 3339 O 322.8 2.75433 5.35183 0
M  V30 3340 H 326.626 2.20238 2.09115 0
M  V30 3341 H 324.211 1.12762 0.980052 0
M  V30 3342 H 326.093 0.838432 4.12975 0
M  V30 3343 H 324.768 0.043051 3.23671 0
M  V30 3344 H 323.675 2.33862 2.91992 0
M  V30 3345 H 325.008 3.06151 3.85399 0
M  V30 3346 N 326.66 -1.06551 1.16123 0
M  V30 3347 C 327.937 -1.76097 0.85142 0
M  V30 3348 C 328.317 -2.00802 -0.6513 0
M  V30 3349 O 327.665 -1.63302 -1.59827 0
M  V30 3350 C 327.875 -3.06384 1.67122 0
M  V30 3351 C 329.223 -3.80585 1.88255 0
M  V30 3352 O 330.247 -3.16218 1.63966 0
M  V30 3353 O 329.106 -4.96212 2.2899 0
M  V30 3354 H 326.2 -0.765102 0.313923 0
M  V30 3355 H 328.746 -1.12844 1.26745 0
M  V30 3356 H 327.518 -2.84071 2.69108 0
M  V30 3357 H 327.141 -3.77371 1.25206 0
M  V30 3358 N 328.138 -0.959301 -1.25041 0
M  V30 3359 C 329.384 -0.627096 -1.93492 0
M  V30 3360 C 329.739 0.827484 -1.73696 0
M  V30 3361 O 329.032 1.58651 -1.07427 0
M  V30 3362 C 329.226 -0.927136 -3.45165 0
M  V30 3363 C 329.055 -2.40933 -3.79712 0
M  V30 3364 C 327.825 -3.0677 -4.01522 0
M  V30 3365 C 330.023 -3.38894 -3.86853 0
M  V30 3366 N 328.005 -4.44815 -4.231 0
M  V30 3367 C 329.376 -4.62263 -4.13174 0
M  V30 3368 C 331.431 -3.33668 -3.69554 0
M  V30 3369 C 330.134 -5.81052 -4.23995 0
M  V30 3370 C 332.16 -4.518 -3.81616 0
M  V30 3371 C 331.522 -5.73957 -4.08354 0
M  V30 3372 H 327.621 -0.280166 -0.73009 0
M  V30 3373 H 330.205 -1.23244 -1.50729 0
M  V30 3374 H 328.376 -0.350685 -3.86814 0
M  V30 3375 H 330.108 -0.554361 -4.00885 0
M  V30 3376 H 326.863 -2.57327 -3.97593 0
M  V30 3377 H 327.287 -5.16319 -4.37885 0
M  V30 3378 H 331.929 -2.40268 -3.47895 0
M  V30 3379 H 329.647 -6.74888 -4.44468 0
M  V30 3380 H 333.233 -4.49309 -3.69612 0
M  V30 3381 H 332.113 -6.6384 -4.17475 0
M  V30 3382 N 329.616 1.39756 -0.72842 0
M  V30 3383 C 330.564 2.32485 -0.0731849 0
M  V30 3384 C 331.558 1.52717 0.733063 0
M  V30 3385 O 332.764 1.68428 0.634988 0
M  V30 3386 H 329.139 0.751984 -0.00486469 0
M  V30 3387 H 331.11 2.85382 -0.871761 0
M  V30 3388 C 329.859 3.37773 0.824908 0
M  V30 3389 H 329.182 3.99227 0.213915 0
M  V30 3390 H 330.622 4.05121 1.25111 0
M  V30 3391 C 329.081 2.74287 1.95622 0
M  V30 3392 O 329.611 2.61618 3.04826 0
M  V30 3393 N 327.817 2.32475 1.74367 0
M  V30 3394 H 327.364 2.4298 0.855494 0
M  V30 3395 H 327.322 1.90337 2.50238 0
M  V30 3396 N 331.094 0.475555 1.50254 0
M  V30 3397 C 332.041 -0.316293 2.28622 0
M  V30 3398 C 333.011 -0.983227 1.33873 0
M  V30 3399 O 334.196 -0.994805 1.62814 0
M  V30 3400 C 331.336 -1.38975 3.1588 0
M  V30 3401 C 330.449 -0.737146 4.25664 0
M  V30 3402 C 329.584 -1.78887 5.00173 0
M  V30 3403 C 328.623 -1.11676 6.01826 0
M  V30 3404 N 327.76 -2.11154 6.69596 0
M  V30 3405 H 332.6 0.358297 2.95838 0
M  V30 3406 H 330.137 0.188541 1.45887 0
M  V30 3407 H 332.095 -2.02383 3.64825 0
M  V30 3408 H 330.725 -2.03344 2.50701 0
M  V30 3409 H 329.777 0.0096065 3.80399 0
M  V30 3410 H 331.089 -0.206816 4.98371 0
M  V30 3411 H 330.243 -2.49865 5.52859 0
M  V30 3412 H 328.982 -2.35302 4.27182 0
M  V30 3413 H 327.987 -0.392633 5.48396 0
M  V30 3414 H 329.212 -0.55945 6.76792 0
M  V30 3415 H 327.158 -2.66577 5.99394 0
M  V30 3416 H 327.075 -1.63118 7.38193 0
M  V30 3417 H 328.343 -2.81497 7.26897 0
M  V30 3418 N 332.573 -1.56217 0.208337 0
M  V30 3419 C 333.801 -2.02337 -0.43215 0
M  V30 3420 C 334.216 -1.08834 -1.54275 0
M  V30 3421 O 333.573 -0.0955462 -1.8225 0
M  V30 3422 C 333.624 -3.48072 -0.976138 0
M  V30 3423 O 333.345 -4.38007 0.0901621 0
M  V30 3424 C 334.846 -4.09773 -1.69119 0
M  V30 3425 H 332.066 -0.662385 -0.10718 0
M  V30 3426 H 334.61 -2.01966 0.320923 0
M  V30 3427 H 332.765 -3.49099 -1.67954 0
M  V30 3428 H 333.179 -5.23543 -0.316701 0
M  V30 3429 H 334.653 -5.13556 -2.02397 0
M  V30 3430 H 335.13 -3.53999 -2.59964 0
M  V30 3431 H 335.736 -4.12556 -1.03332 0
M  V30 3432 N 334.051 0.0651679 -1.57465 0
M  V30 3433 C 334.961 1.09448 -2.07505 0
M  V30 3434 C 335.977 1.41974 -1.00595 0
M  V30 3435 O 337.153 1.52018 -1.32107 0
M  V30 3436 C 334.218 2.38689 -2.51453 0
M  V30 3437 C 333.279 2.13073 -3.72691 0
M  V30 3438 C 332.512 3.36152 -4.14533 0
M  V30 3439 O 332.735 4.45517 -3.56189 0
M  V30 3440 O 331.669 3.23974 -5.07272 0
M  V30 3441 H 335.495 0.69935 -2.95538 0
M  V30 3442 H 333.08 0.279752 -1.46757 0
M  V30 3443 H 334.962 3.14736 -2.80212 0
M  V30 3444 H 333.637 2.77568 -1.66546 0
M  V30 3445 H 332.544 1.34709 -3.49005 0
M  V30 3446 H 333.877 1.79071 -4.5847 0
M  V30 3447 N 335.529 1.53961 0.336706 0
M  V30 3448 C 336.459 1.85417 1.41925 0
M  V30 3449 C 337.44 0.709856 1.5458 0
M  V30 3450 O 338.625 0.962396 1.68676 0
M  V30 3451 C 335.755 2.06985 2.78881 0
M  V30 3452 C 334.709 3.22813 2.81026 0
M  V30 3453 C 334.035 3.29727 4.20932 0
M  V30 3454 C 335.335 4.60767 2.45949 0
M  V30 3455 H 337.029 2.76079 1.15848 0
M  V30 3456 H 334.575 1.32839 0.555859 0
M  V30 3457 H 336.528 2.27575 3.54665 0
M  V30 3458 H 335.252 1.13061 3.06406 0
M  V30 3459 H 333.911 3.0209 2.07695 0
M  V30 3460 H 333.559 2.33385 4.45579 0
M  V30 3461 H 333.259 4.07566 4.23277 0
M  V30 3462 H 334.783 3.52536 4.98549 0
M  V30 3463 H 336.197 4.81325 3.11446 0
M  V30 3464 H 334.594 5.4106 2.59566 0
M  V30 3465 H 335.664 4.6391 1.41122 0
M  V30 3466 N 337.007 -0.598083 1.45811 0
M  V30 3467 C 338.284 -1.35777 1.40797 0
M  V30 3468 C 338.664 -2.10935 0.083462 0
M  V30 3469 O 338.012 -2.08505 -0.934763 0
M  V30 3470 C 338.222 -2.29666 2.62783 0
M  V30 3471 C 339.57 -2.91977 3.08277 0
M  V30 3472 O 340.594 -2.39984 2.63223 0
M  V30 3473 O 339.453 -3.86376 3.86491 0
M  V30 3474 H 336.547 -0.609291 0.55919 0
M  V30 3475 H 339.093 -0.620379 1.57954 0
M  V30 3476 H 337.865 -1.73454 3.50756 0
M  V30 3477 H 337.488 -3.1077 2.48008 0
M  V30 3478 N 338.485 -1.33259 -0.841409 0
M  V30 3479 C 339.71 -1.2775 -1.63385 0
M  V30 3480 C 340.135 0.149188 -1.87507 0
M  V30 3481 O 339.493 1.10498 -1.43736 0
M  V30 3482 C 339.541 -2.05571 -2.96265 0
M  V30 3483 O 338.645 -1.41257 -3.87453 0
M  V30 3484 H 337.986 -0.439627 -0.497618 0
M  V30 3485 H 340.516 -1.75782 -1.04699 0
M  V30 3486 H 340.526 -2.16241 -3.45982 0
M  V30 3487 H 339.201 -3.09309 -2.7803 0
M  V30 3488 H 337.778 -1.39217 -3.45938 0
M  V30 3489 N 339.963 1.05934 -1.16686 0
M  V30 3490 C 341.21 1.788 -0.950622 0
M  V30 3491 C 341.538 1.87384 0.521305 0
M  V30 3492 O 340.793 1.36438 1.40297 0
M  V30 3493 C 341.092 3.23105 -1.52767 0
M  V30 3494 C 340.758 3.34594 -3.02254 0
M  V30 3495 C 339.42 3.37437 -3.43059 0
M  V30 3496 C 341.772 3.36219 -3.98254 0
M  V30 3497 C 339.1 3.39525 -4.78477 0
M  V30 3498 C 341.452 3.39845 -5.33562 0
M  V30 3499 C 340.116 3.40971 -5.73842 0
M  V30 3500 H 339.386 0.654275 -0.347857 0
M  V30 3501 H 342.033 1.24555 -1.45459 0
M  V30 3502 H 340.338 3.80227 -0.94524 0
M  V30 3503 H 342.035 3.7809 -1.336 0
M  V30 3504 H 338.625 3.3309 -2.6972 0
M  V30 3505 H 342.809 3.33231 -3.67792 0
M  V30 3506 H 338.065 3.38703 -5.09009 0
M  V30 3507 H 342.239 3.4005 -6.07733 0
M  V30 3508 H 339.866 3.42342 -6.78753 0
M  V30 3509 N 341.441 0.965919 1.2453 0
M  V30 3510 C 342.371 0.513476 2.27784 0
M  V30 3511 C 343.352 -0.445974 1.6415 0
M  V30 3512 O 344.537 -0.342485 1.91156 0
M  V30 3513 C 341.667 -0.198839 3.4673 0
M  V30 3514 C 340.621 0.676456 4.2262 0
M  V30 3515 C 339.947 -0.167248 5.34438 0
M  V30 3516 C 341.247 1.96017 4.84123 0
M  V30 3517 H 342.941 1.3765 2.65881 0
M  V30 3518 H 340.487 0.663321 1.27813 0
M  V30 3519 H 342.44 -0.526567 4.18097 0
M  V30 3520 H 341.164 -1.0962 3.07654 0
M  V30 3521 H 339.823 0.98743 3.53052 0
M  V30 3522 H 339.471 -1.0647 4.91603 0
M  V30 3523 H 339.171 0.415181 5.86131 0
M  V30 3524 H 340.695 -0.489688 6.08633 0
M  V30 3525 H 342.109 1.69814 5.47573 0
M  V30 3526 H 340.506 2.48918 5.4604 0
M  V30 3527 H 341.576 2.65622 4.05676 0
M  V30 3528 N 342.919 -1.39368 0.735821 0
M  V30 3529 C 344.168 -1.99733 0.281004 0
M  V30 3530 C 344.481 -1.59055 -1.13846 0
M  V30 3531 O 345.687 -2.12262 -1.69284 0
M  V30 3532 C 344.143 -3.57057 0.451462 0
M  V30 3533 C 343.751 -4.06697 1.87886 0
M  V30 3534 C 345.495 -4.2446 0.0584616 0
M  V30 3535 C 343.402 -5.56598 1.99883 0
M  V30 3536 H 342.332 -0.747163 0.101311 0
M  V30 3537 H 344.983 -1.59357 0.909819 0
M  V30 3538 H 343.365 -3.95234 -0.246263 0
M  V30 3539 H 344.539 -3.79853 2.60861 0
M  V30 3540 H 342.854 -3.5196 2.22515 0
M  V30 3541 H 345.451 -5.34549 0.127099 0
M  V30 3542 H 345.794 -4.04444 -0.986433 0
M  V30 3543 H 346.327 -3.9146 0.707374 0
M  V30 3544 H 343.066 -5.81494 3.02564 0
M  V30 3545 H 342.586 -5.85242 1.31346 0
M  V30 3546 H 344.265 -6.22022 1.78039 0
M  V30 3547 N 344.397 -0.483516 -1.5 0
M  V30 3548 C 345.307 0.309172 -2.32554 0
M  V30 3549 C 346.323 0.984159 -1.43493 0
M  V30 3550 O 347.499 0.969399 -1.76535 0
M  V30 3551 C 344.564 1.36979 -3.18493 0
M  V30 3552 C 343.625 0.710095 -4.23387 0
M  V30 3553 C 342.858 1.72018 -5.05218 0
M  V30 3554 O 343.081 2.94813 -4.88305 0
M  V30 3555 O 342.015 1.28515 -5.8802 0
M  V30 3556 H 345.841 -0.366064 -3.01486 0
M  V30 3557 H 343.426 -0.24514 -1.47375 0
M  V30 3558 H 345.308 1.98385 -3.71781 0
M  V30 3559 H 343.983 2.02828 -2.52275 0
M  V30 3560 H 342.89 0.0567539 -3.74057 0
M  V30 3561 H 344.223 0.0943557 -4.9211 0
M  V30 3562 N 345.875 1.56104 -0.216619 0
M  V30 3563 C 347.124 1.97348 0.416744 0
M  V30 3564 C 347.437 1.10715 1.6125 0
M  V30 3565 O 348.643 1.41836 2.31506 0
M  V30 3566 C 347.099 3.51059 0.792835 0
M  V30 3567 C 346.707 4.46387 -0.379828 0
M  V30 3568 C 348.451 4.01026 1.39208 0
M  V30 3569 C 346.358 5.91397 0.0184223 0
M  V30 3570 H 345.288 0.736942 0.159475 0
M  V30 3571 H 347.939 1.80827 -0.31205 0
M  V30 3572 H 346.321 3.63162 1.57891 0
M  V30 3573 H 347.495 4.46029 -1.15737 0
M  V30 3574 H 345.81 4.06734 -0.891979 0
M  V30 3575 H 348.407 5.0686 1.70286 0
M  V30 3576 H 348.75 3.46587 2.30614 0
M  V30 3577 H 349.283 3.92125 0.669537 0
M  V30 3578 H 346.022 6.49807 -0.862002 0
M  V30 3579 H 345.542 5.94961 0.760384 0
M  V30 3580 H 347.221 6.45455 0.446818 0
M  V30 3581 N 347.353 -0.0568162 1.57498 0
M  V30 3582 C 348.581 -0.765626 1.92213 0
M  V30 3583 C 348.996 -1.70353 0.813961 0
M  V30 3584 O 348.353 -1.81268 -0.211701 0
M  V30 3585 C 348.404 -1.5465 3.2675 0
M  V30 3586 O 348.125 -0.646278 4.33307 0
M  V30 3587 C 349.626 -2.35497 3.75574 0
M  V30 3588 H 346.846 -0.216835 0.634999 0
M  V30 3589 H 349.39 -0.0226146 2.04487 0
M  V30 3590 H 347.545 -2.24165 3.15957 0
M  V30 3591 H 347.959 -1.19093 5.108 0
M  V30 3592 H 349.433 -2.85722 4.72299 0
M  V30 3593 H 349.91 -3.15692 3.05344 0
M  V30 3594 H 350.516 -1.7111 3.8936 0
M  V30 3595 N 348.832 -1.54138 -0.328536 0
M  V30 3596 C 349.795 -1.82462 -1.38709 0
M  V30 3597 C 350.795 -0.696229 -1.44946 0
M  V30 3598 O 351.985 -0.964535 -1.4506 0
M  V30 3599 C 349.117 -1.98018 -2.77492 0
M  V30 3600 H 350.31 -2.77037 -1.14851 0
M  V30 3601 H 347.863 -1.45779 -0.563751 0
M  V30 3602 H 348.598 -1.05637 -3.06613 0
M  V30 3603 H 348.383 -2.80124 -2.74359 0
M  V30 3604 H 349.873 -2.21396 -3.54081 0
M  V30 3605 N 350.31 0.590341 -1.46126 0
M  V30 3606 C 351.258 1.72105 -1.5647 0
M  V30 3607 C 352.252 1.63756 -0.433612 0
M  V30 3608 O 353.458 1.69342 -0.610194 0
M  V30 3609 H 349.833 0.568889 -0.491802 0
M  V30 3610 H 351.804 1.6051 -2.51553 0
M  V30 3611 C 350.553 3.10493 -1.56491 0
M  V30 3612 H 349.876 3.17583 -2.4286 0
M  V30 3613 H 351.316 3.8939 -1.67785 0
M  V30 3614 C 349.775 3.3563 -0.292231 0
M  V30 3615 O 350.305 3.96875 0.620739 0
M  V30 3616 N 348.511 2.90026 -0.182523 0
M  V30 3617 H 348.058 2.40367 -0.926356 0
M  V30 3618 H 348.016 3.07218 0.668152 0
M  V30 3619 N 351.788 1.33704 0.83433 0
M  V30 3620 C 353.037 1.24763 1.58484 0
M  V30 3621 C 353.35 -0.183775 1.94735 0
M  V30 3622 O 354.556 -0.395234 2.68608 0
M  V30 3623 C 353.012 2.18638 2.85876 0
M  V30 3624 C 352.62 3.66974 2.56971 0
M  V30 3625 C 354.364 2.18581 3.63899 0
M  V30 3626 C 352.271 4.5275 3.80488 0
M  V30 3627 H 351.201 0.463425 0.594772 0
M  V30 3628 H 353.852 1.58797 0.919551 0
M  V30 3629 H 352.234 1.77542 3.5397 0
M  V30 3630 H 353.408 4.16538 1.9706 0
M  V30 3631 H 351.723 3.69366 1.92244 0
M  V30 3632 H 354.32 2.79894 4.55591 0
M  V30 3633 H 354.663 1.18207 3.99165 0
M  V30 3634 H 355.196 2.58062 3.02735 0
M  V30 3635 H 351.935 5.54017 3.5035 0
M  V30 3636 H 351.455 4.07927 4.39722 0
M  V30 3637 H 353.134 4.66784 4.4802 0
M  V30 3638 N 353.266 -1.05314 1.17247 0
M  V30 3639 C 354.196 -2.1498 0.911362 0
M  V30 3640 C 355.177 -1.69471 -0.146169 0
M  V30 3641 O 356.362 -1.942 0.003812 0
M  V30 3642 C 353.492 -3.4472 0.422528 0
M  V30 3643 C 352.446 -4.03789 1.4191 0
M  V30 3644 C 351.772 -5.28858 0.788274 0
M  V30 3645 C 353.072 -4.41418 2.7919 0
M  V30 3646 H 354.766 -2.3708 1.82848 0
M  V30 3647 H 352.312 -1.13938 0.880569 0
M  V30 3648 H 354.265 -4.20787 0.227289 0
M  V30 3649 H 352.989 -3.22269 -0.530123 0
M  V30 3650 H 351.648 -3.2979 1.60106 0
M  V30 3651 H 351.296 -5.02709 -0.171173 0
M  V30 3652 H 350.996 -5.69338 1.45353 0
M  V30 3653 H 352.52 -6.07612 0.603282 0
M  V30 3654 H 353.934 -5.08524 2.64719 0
M  V30 3655 H 352.331 -4.92913 3.42282 0
M  V30 3656 H 353.401 -3.51819 3.33693 0
M  V30 3657 N 354.744 -0.972509 -1.24016 0
M  V30 3658 C 355.691 -0.505969 -2.25186 0
M  V30 3659 C 356.661 0.451009 -1.5986 0
M  V30 3660 O 357.846 0.360307 -1.87367 0
M  V30 3661 C 354.986 0.193089 -3.44559 0
M  V30 3662 C 354.099 -0.803222 -4.24467 0
M  V30 3663 C 353.234 -0.0797793 -5.3114 0
M  V30 3664 C 352.273 -1.06583 -6.02749 0
M  V30 3665 N 351.41 -0.372074 -7.01113 0
M  V30 3666 H 356.25 -1.37351 -2.64459 0
M  V30 3667 H 353.787 -0.688419 -1.29997 0
M  V30 3668 H 355.745 0.615125 -4.1264 0
M  V30 3669 H 354.375 1.02455 -3.06109 0
M  V30 3670 H 353.427 -1.34368 -3.55878 0
M  V30 3671 H 354.739 -1.55494 -4.73944 0
M  V30 3672 H 353.893 0.400015 -6.0538 0
M  V30 3673 H 352.632 0.704597 -4.82583 0
M  V30 3674 H 351.637 -1.55645 -5.27309 0
M  V30 3675 H 352.862 -1.85074 -6.53395 0
M  V30 3676 H 350.808 0.393238 -6.5482 0
M  V30 3677 H 350.725 -1.06258 -7.48495 0
M  V30 3678 H 351.993 0.0855932 -7.79453 0
M  V30 3679 N 356.222 1.38976 -0.743202 0
M  V30 3680 C 357.469 2.00343 -0.294752 0
M  V30 3681 C 357.797 1.58983 1.12047 0
M  V30 3682 O 357.052 0.813809 1.77977 0
M  V30 3683 C 357.351 3.55647 -0.353517 0
M  V30 3684 C 357.017 4.16685 -1.72292 0
M  V30 3685 C 355.679 4.3307 -2.09771 0
M  V30 3686 C 358.031 4.50464 -2.62168 0
M  V30 3687 C 355.359 4.80526 -3.36618 0
M  V30 3688 C 357.711 4.99332 -3.88395 0
M  V30 3689 C 356.375 5.13924 -4.25956 0
M  V30 3690 H 355.645 0.733108 -0.107857 0
M  V30 3691 H 358.292 1.6618 -0.951651 0
M  V30 3692 H 356.597 3.89884 0.386954 0
M  V30 3693 H 358.294 4.00998 0.0117269 0
M  V30 3694 H 354.884 4.04339 -1.42155 0
M  V30 3695 H 359.068 4.37416 -2.3448 0
M  V30 3696 H 354.324 4.90008 -3.65653 0
M  V30 3697 H 358.498 5.2444 -4.58187 0
M  V30 3698 H 356.125 5.50457 -5.2431 0
M  V30 3699 N 357.7 0.491464 1.49741 0
M  V30 3700 C 358.632 -0.328609 2.26832 0
M  V30 3701 C 359.645 -0.939113 1.32983 0
M  V30 3702 O 360.834 -0.824067 1.58339 0
M  V30 3703 C 357.934 -1.47675 3.05033 0
M  V30 3704 C 357.107 -0.975305 4.26388 0
M  V30 3705 C 356.166 -1.99991 4.86714 0
M  V30 3706 O 355.192 -1.57229 5.47054 0
M  V30 3707 N 356.394 -3.32962 4.75517 0
M  V30 3708 H 359.159 0.332377 2.97851 0
M  V30 3709 H 356.72 0.323441 1.58636 0
M  V30 3710 H 358.712 -2.15954 3.42266 0
M  V30 3711 H 357.282 -2.04206 2.36683 0
M  V30 3712 H 356.502 -0.117723 3.94024 0
M  V30 3713 H 357.79 -0.618531 5.05026 0
M  V30 3714 H 357.188 -3.70399 4.27576 0
M  V30 3715 H 355.745 -3.96982 5.16961 0
M  V30 3716 N 359.178 -1.55987 0.224894 0
M  V30 3717 C 360.455 -1.90232 -0.455083 0
M  V30 3718 C 360.835 -1.14269 -1.77499 0
M  V30 3719 O 360.183 -0.253079 -2.27094 0
M  V30 3720 C 360.393 -3.42993 -0.644758 0
M  V30 3721 C 361.741 -4.13821 -0.950669 0
M  V30 3722 O 362.765 -3.4861 -0.731423 0
M  V30 3723 O 361.624 -5.29128 -1.36695 0
M  V30 3724 H 358.718 -0.79108 -0.241084 0
M  V30 3725 H 361.264 -1.67581 0.267327 0
M  V30 3726 H 360.036 -3.90252 0.28613 0
M  V30 3727 H 359.659 -3.71434 -1.41853 0
M  V30 3728 N 360.656 0.0484629 -1.57525 0
M  V30 3729 C 361.884 0.755421 -1.92616 0
M  V30 3730 C 362.299 1.69919 -0.822984 0
M  V30 3731 O 361.656 1.81378 0.202085 0
M  V30 3732 C 361.707 1.52915 -3.27566 0
M  V30 3733 O 361.428 0.62329 -4.33644 0
M  V30 3734 C 362.929 2.33502 -3.76818 0
M  V30 3735 H 360.149 0.213465 -0.63614 0
M  V30 3736 H 362.693 0.0117698 -2.04497 0
M  V30 3737 H 360.848 2.22486 -3.17142 0
M  V30 3738 H 361.262 1.16383 -5.11425 0
M  V30 3739 H 362.736 2.83214 -4.73808 0
M  V30 3740 H 363.213 3.14068 -3.07014 0
M  V30 3741 H 363.819 1.69043 -3.90262 0
M  V30 3742 N 362.134 1.5431 0.320358 0
M  V30 3743 C 363.411 1.63322 1.07635 0
M  V30 3744 C 363.791 0.46912 2.05821 0
M  V30 3745 O 363.139 -0.536274 2.22118 0
M  V30 3746 C 363.349 3.00465 1.77544 0
M  V30 3747 C 364.697 3.56621 2.30449 0
M  V30 3748 O 365.721 3.02791 1.87606 0
M  V30 3749 O 364.58 4.5083 3.08892 0
M  V30 3750 H 361.674 0.661502 0.496331 0
M  V30 3751 H 364.22 1.66656 0.319992 0
M  V30 3752 H 362.992 3.76629 1.06143 0
M  V30 3753 H 362.615 3.00824 2.59982 0
M  V30 3754 N 363.613 -0.582584 1.46437 0
M  V30 3755 C 364.861 -1.33814 1.51453 0
M  V30 3756 C 365.182 -1.94277 0.167792 0
M  V30 3757 O 364.452 -1.78566 -0.805677 0
M  V30 3758 H 363.032 -0.496838 0.557818 0
M  V30 3759 H 365.694 -0.682281 1.82568 0
M  V30 3760 H 364.79 -2.14479 2.26728 0
M  V30 3761 N 365.091 -1.34144 -0.827227 0
M  V30 3762 C 366.038 -1.25364 -1.93785 0
M  V30 3763 C 367.008 -0.129774 -1.65592 0
M  V30 3764 O 368.193 -0.310024 -1.88264 0
M  V30 3765 C 365.333 -1.01064 -3.2997 0
M  V30 3766 C 364.446 -2.22185 -3.70484 0
M  V30 3767 C 363.581 -1.91203 -4.95595 0
M  V30 3768 C 362.62 -3.08491 -5.28677 0
M  V30 3769 N 361.757 -2.77421 -6.44967 0
M  V30 3770 H 366.597 -2.20347 -2.00627 0
M  V30 3771 H 364.134 -1.09558 -0.981608 0
M  V30 3772 H 366.092 -0.850139 -4.08446 0
M  V30 3773 H 364.722 -0.0975026 -3.22653 0
M  V30 3774 H 363.774 -2.4917 -2.87434 0
M  V30 3775 H 365.086 -3.0983 -3.90905 0
M  V30 3776 H 364.24 -1.71864 -5.81848 0
M  V30 3777 H 362.979 -1.00812 -4.77167 0
M  V30 3778 H 361.984 -3.28431 -4.40923 0
M  V30 3779 H 363.209 -3.99655 -5.49047 0
M  V30 3780 H 361.155 -1.89601 -6.28003 0
M  V30 3781 H 361.072 -3.58598 -6.6554 0
M  V30 3782 H 362.34 -2.61577 -7.34301 0
M  V30 3783 N 366.569 1.04691 -1.17803 0
M  V30 3784 C 367.519 2.10856 -0.867391 0
M  V30 3785 C 368.503 1.601 0.160206 0
M  V30 3786 O 369.695 1.76948 -0.042947 0
M  V30 3787 C 366.824 3.411 -0.388012 0
M  V30 3788 C 365.91 3.9864 -1.44732 0
M  V30 3789 N 366.301 4.30075 -2.66212 0
M  V30 3790 C 364.599 4.26439 -1.30637 0
M  V30 3791 C 365.3 4.76033 -3.34317 0
M  V30 3792 N 364.276 4.76462 -2.61696 0
M  V30 3793 H 368.078 2.33029 -1.79094 0
M  V30 3794 H 365.592 1.22386 -1.0675 0
M  V30 3795 H 367.589 4.16641 -0.146994 0
M  V30 3796 H 366.249 3.20357 0.529271 0
M  V30 3797 H 367.26 4.19917 -3.03134 0
M  V30 3798 H 363.937 4.15056 -0.451129 0
M  V30 3799 H 365.327 5.09427 -4.38103 0
M  V30 3800 N 368.047 0.979072 1.23499 0
M  V30 3801 C 368.977 0.537606 2.27227 0
M  V30 3802 C 369.958 -0.428539 1.64613 0
M  V30 3803 O 371.143 -0.322191 1.91509 0
M  V30 3804 C 368.273 -0.162052 3.46922 0
M  V30 3805 C 367.227 0.721242 4.21879 0
M  V30 3806 C 366.553 -0.110555 5.34586 0
M  V30 3807 C 367.853 2.01141 4.82016 0
M  V30 3808 H 369.547 1.40462 2.64406 0
M  V30 3809 H 367.093 0.67684 1.27102 0
M  V30 3810 H 369.046 -0.482192 4.18632 0
M  V30 3811 H 367.77 -1.06351 3.08799 0
M  V30 3812 H 366.429 1.02482 3.51984 0
M  V30 3813 H 366.077 -1.0125 4.92704 0
M  V30 3814 H 365.777 0.477325 5.85658 0
M  V30 3815 H 367.301 -0.425107 6.09118 0
M  V30 3816 H 368.715 1.75612 5.45741 0
M  V30 3817 H 367.112 2.54695 5.43369 0
M  V30 3818 H 368.182 2.69909 4.02836 0
M  V30 3819 N 369.525 -1.3858 0.750561 0
M  V30 3820 C 370.455 -2.33102 0.136237 0
M  V30 3821 C 371.436 -1.54713 -0.706965 0
M  V30 3822 O 372.621 -1.83043 -0.648769 0
M  V30 3823 C 369.751 -3.38882 -0.760017 0
M  V30 3824 C 368.705 -4.27995 -0.0197785 0
M  V30 3825 C 368.031 -5.24605 -1.03408 0
M  V30 3826 C 369.331 -5.09554 1.14684 0
M  V30 3827 H 371.025 -2.84726 0.925822 0
M  V30 3828 H 368.571 -1.36898 0.446654 0
M  V30 3829 H 370.524 -4.0397 -1.19943 0
M  V30 3830 H 369.248 -2.85734 -1.58189 0
M  V30 3831 H 367.907 -3.64409 0.400184 0
M  V30 3832 H 367.555 -4.67746 -1.84994 0
M  V30 3833 H 367.255 -5.85081 -0.543464 0
M  V30 3834 H 368.779 -5.9257 -1.47288 0
M  V30 3835 H 370.193 -5.67899 0.785118 0
M  V30 3836 H 368.59 -5.7925 1.56812 0
M  V30 3837 H 369.66 -4.4347 1.96118 0
M  V30 3838 N 371.003 -0.499398 -1.49478 0
M  V30 3839 C 372.414 -0.051215 -1.8663 0
M  V30 3840 C 372.765 1.36238 -1.41186 0
M  V30 3841 O 371.89 2.01502 -0.789051 0
M  V30 3842 C 372.485 -0.0861651 -3.3869 0
M  V30 3843 C 371.044 0.30667 -3.75149 0
M  V30 3844 C 370.191 -0.459397 -2.73468 0
M  V30 3845 H 373.142 -0.712264 -1.41818 0
M  V30 3846 H 373.163 0.709507 -3.73826 0
M  V30 3847 H 372.675 -1.11512 -3.71735 0
M  V30 3848 H 370.776 1.33892 -3.47712 0
M  V30 3849 H 370.889 -0.0116669 -4.79099 0
M  V30 3850 H 369.253 0.0905645 -2.54539 0
M  V30 3851 H 370.036 -1.4884 -3.09357 0
M  V30 3852 N 372.481 1.55866 -0.233164 0
M  V30 3853 C 373.428 2.20796 0.67215 0
M  V30 3854 C 374.398 1.16731 1.18166 0
M  V30 3855 O 375.583 1.45129 1.23864 0
M  V30 3856 C 372.723 2.90072 1.86955 0
M  V30 3857 C 371.836 4.08759 1.39786 0
M  V30 3858 C 370.971 4.65787 2.55374 0
M  V30 3859 C 370.01 5.76752 2.04998 0
M  V30 3860 N 369.147 6.28021 3.13901 0
M  V30 3861 H 373.987 2.9779 0.111749 0
M  V30 3862 H 371.524 1.47036 0.0434007 0
M  V30 3863 H 373.482 3.28428 2.57276 0
M  V30 3864 H 372.112 2.15575 2.40265 0
M  V30 3865 H 371.164 3.7581 0.589173 0
M  V30 3866 H 372.476 4.88906 0.98856 0
M  V30 3867 H 371.63 5.06646 3.33758 0
M  V30 3868 H 370.369 3.84828 2.99598 0
M  V30 3869 H 369.374 5.35383 1.25079 0
M  V30 3870 H 370.599 6.59553 1.61759 0
M  V30 3871 H 368.545 5.49971 3.57586 0
M  V30 3872 H 368.462 7.03323 2.7726 0
M  V30 3873 H 369.73 6.73538 3.92386 0
M  V30 3874 N 373.959 -0.0401083 1.57549 0
M  V30 3875 C 375.208 -0.732108 1.87944 0
M  V30 3876 C 375.521 -1.77107 0.830206 0
M  V30 3877 O 376.727 -2.51488 1.02302 0
M  V30 3878 C 375.183 -1.35315 3.33494 0
M  V30 3879 C 374.791 -0.351105 4.46622 0
M  V30 3880 C 376.535 -2.02566 3.73051 0
M  V30 3881 C 374.442 -0.979859 5.83226 0
M  V30 3882 H 373.372 -0.277188 0.701201 0
M  V30 3883 H 376.023 0.0138501 1.83495 0
M  V30 3884 H 374.405 -2.14844 3.32653 0
M  V30 3885 H 375.579 0.416674 4.58912 0
M  V30 3886 H 373.894 0.218708 4.15825 0
M  V30 3887 H 376.491 -2.50441 4.72423 0
M  V30 3888 H 376.834 -2.83904 3.04474 0
M  V30 3889 H 377.367 -1.29827 3.76018 0
M  V30 3890 H 374.106 -0.206135 6.55176 0
M  V30 3891 H 373.626 -1.71774 5.74677 0
M  V30 3892 H 375.305 -1.49046 6.29599 0
M  V30 3893 N 375.437 -1.54477 -0.31217 0
M  V30 3894 C 376.853 -1.45442 -0.657185 0
M  V30 3895 C 377.053 -0.63653 -1.91182 0
M  V30 3896 O 376.109 -0.139815 -2.52113 0
M  V30 3897 C 377.422 -2.89287 -0.82058 0
M  V30 3898 C 378.97 -2.9926 -0.917188 0
M  V30 3899 C 379.445 -4.44279 -1.11267 0
M  V30 3900 N 380.936 -4.4794 -1.17914 0
M  V30 3901 C 381.671 -5.57318 -1.34848 0
M  V30 3902 N 381.167 -6.76642 -1.48752 0
M  V30 3903 N 382.96 -5.44986 -1.37647 0
M  V30 3904 H 375.111 -2.06129 0.512313 0
M  V30 3905 H 377.374 -0.933088 0.167485 0
M  V30 3906 H 377.08 -3.51687 0.0302604 0
M  V30 3907 H 376.954 -3.36061 -1.71298 0
M  V30 3908 H 379.341 -2.36981 -1.75852 0
M  V30 3909 H 379.422 -2.558 -0.00101257 0
M  V30 3910 H 379.066 -5.07149 -0.27614 0
M  V30 3911 H 378.996 -4.85359 -2.04289 0
M  V30 3912 H 381.487 -3.61969 -1.08567 0
M  V30 3913 H 381.8 -7.55758 -1.61397 0
M  V30 3914 H 380.145 -6.79529 -1.45828 0
M  V30 3915 H 383.336 -4.50715 -1.26388 0
M  V30 3916 H 383.509 -6.3028 -1.50501 0
M  V30 3917 N 376.915 0.57481 -1.46744 0
M  V30 3918 C 378.192 1.3352 -1.4294 0
M  V30 3919 C 378.572 2.10775 -0.117009 0
M  V30 3920 O 377.92 2.09966 0.901474 0
M  V30 3921 C 378.13 2.25456 -2.66403 0
M  V30 3922 C 379.478 2.87035 -3.12883 0
M  V30 3923 O 380.502 2.35766 -2.67007 0
M  V30 3924 O 379.361 3.80179 -3.92589 0
M  V30 3925 H 376.455 0.600318 -0.568812 0
M  V30 3926 H 379.001 0.595171 -1.58921 0
M  V30 3927 H 377.773 1.67851 -3.53471 0
M  V30 3928 H 377.396 3.06785 -2.52921 0
M  V30 3929 N 378.394 1.34581 0.820102 0
M  V30 3930 C 379.619 1.30333 1.61332 0
M  V30 3931 C 380.044 -0.119339 1.87721 0
M  V30 3932 O 379.402 -1.08197 1.45475 0
M  V30 3933 C 379.45 2.10258 2.92957 0
M  V30 3934 O 378.554 1.47404 3.85157 0
M  V30 3935 H 377.895 0.447488 0.490561 0
M  V30 3936 H 380.425 1.77425 1.01889 0
M  V30 3937 H 380.435 2.21718 3.42498 0
M  V30 3938 H 379.11 3.13693 2.73074 0
M  V30 3939 H 377.687 1.44703 3.43679 0
M  V30 3940 N 379.872 -1.04064 1.18357 0
M  V30 3941 C 380.835 -2.10243 0.912707 0
M  V30 3942 C 381.835 -1.60477 -0.101928 0
M  V30 3943 O 383.025 -1.73703 0.131517 0
M  V30 3944 C 380.157 -3.38893 0.369387 0
M  V30 3945 H 381.35 -2.35706 1.85426 0
M  V30 3946 H 378.903 -1.20489 0.995594 0
M  V30 3947 H 379.638 -3.19094 -0.578776 0
M  V30 3948 H 379.423 -3.76331 1.1008 0
M  V30 3949 H 380.913 -4.17128 0.198575 0
M  V30 3950 N 381.35 -0.985608 -1.22978 0
M  V30 3951 C 382.598 -0.656087 -1.91154 0
M  V30 3952 C 382.919 0.813561 -1.77218 0
M  V30 3953 O 382.189 1.58244 -1.1548 0
M  V30 3954 H 380.769 -0.239674 -0.707506 0
M  V30 3955 H 383.431 -1.25054 -1.49491 0
M  V30 3956 H 382.527 -0.912253 -2.9847 0
M  V30 3957 N 382.828 1.3818 -0.7579 0
M  V30 3958 C 383.76 2.2901 -0.0932177 0
M  V30 3959 C 384.773 1.47958 0.679136 0
M  V30 3960 O 385.962 1.70773 0.519514 0
M  V30 3961 C 383.062 3.26953 0.89192 0
M  V30 3962 C 382.235 4.37045 0.176303 0
M  V30 3963 C 381.294 5.15148 1.07281 0
M  V30 3964 O 380.32 5.66616 0.541728 0
M  V30 3965 N 381.522 5.28542 2.40049 0
M  V30 3966 H 384.287 2.86694 -0.873303 0
M  V30 3967 H 381.848 1.50007 -0.609054 0
M  V30 3968 H 383.84 3.76083 1.49479 0
M  V30 3969 H 382.41 2.70136 1.57306 0
M  V30 3970 H 381.63 3.89493 -0.607328 0
M  V30 3971 H 382.918 5.07801 -0.318718 0
M  V30 3972 H 382.316 4.88285 2.85647 0
M  V30 3973 H 380.873 5.8103 2.95376 0
M  V30 3974 N 384.306 0.507319 1.49211 0
M  V30 3975 C 385.253 -0.267728 2.29242 0
M  V30 3976 C 386.223 -0.954609 1.35928 0
M  V30 3977 O 387.408 -0.960046 1.64887 0
M  V30 3978 C 384.548 -1.32243 3.18756 0
M  V30 3979 C 383.661 -0.64669 4.27132 0
M  V30 3980 C 382.796 -1.68238 5.03855 0
M  V30 3981 C 381.835 -0.98885 6.0406 0
M  V30 3982 N 380.972 -1.96903 6.73924 0
M  V30 3983 H 385.812 0.420968 2.95012 0
M  V30 3984 H 383.349 0.219443 1.45454 0
M  V30 3985 H 385.307 -1.94599 3.69036 0
M  V30 3986 H 383.937 -1.97981 2.54958 0
M  V30 3987 H 382.989 0.0902926 3.80293 0
M  V30 3988 H 384.301 -0.101058 4.98698 0
M  V30 3989 H 383.455 -2.38081 5.58034 0
M  V30 3990 H 382.194 -2.26187 4.32077 0
M  V30 3991 H 381.199 -0.276222 5.49106 0
M  V30 3992 H 382.424 -0.415767 6.77826 0
M  V30 3993 H 380.37 -2.53803 6.04913 0
M  V30 3994 H 380.287 -1.47423 7.41487 0
M  V30 3995 H 381.555 -2.66015 7.32705 0
M  V30 3996 N 385.784 -1.5574 0.241426 0
M  V30 3997 C 387.032 -1.98417 -0.384075 0
M  V30 3998 C 387.353 -1.13078 -1.58866 0
M  V30 3999 O 386.623 -0.212312 -1.94746 0
M  V30 4000 H 385.203 -0.732813 -0.144894 0
M  V30 4001 H 387.865 -1.9193 0.338943 0
M  V30 4002 H 386.961 -3.04219 -0.696939 0
M  V30 4003 N 387.262 0.0317525 -1.57568 0
M  V30 4004 C 388.49 0.734949 -1.93407 0
M  V30 4005 C 388.905 1.69036 -0.84096 0
M  V30 4006 O 388.262 1.81582 0.182836 0
M  V30 4007 C 388.313 1.49432 -3.29169 0
M  V30 4008 O 388.034 0.577261 -4.3428 0
M  V30 4009 C 389.535 2.29492 -3.79273 0
M  V30 4010 H 386.755 0.206706 -0.638368 0
M  V30 4011 H 389.299 -0.00992046 -2.04498 0
M  V30 4012 H 387.454 2.1911 -3.19483 0
M  V30 4013 H 387.868 1.10952 -5.1263 0
M  V30 4014 H 389.342 2.78172 -4.76785 0
M  V30 4015 H 389.819 3.10794 -3.10328 0
M  V30 4016 H 390.425 1.64894 -3.92033 0
M  V30 4017 N 388.74 1.54641 0.303973 0
M  V30 4018 C 389.988 1.73437 1.0375 0
M  V30 4019 C 390.309 0.521449 1.87899 0
M  V30 4020 O 389.579 -0.46432 1.90318 0
M  V30 4021 H 388.159 0.639518 0.386039 0
M  V30 4022 H 390.821 1.91988 0.335675 0
M  V30 4023 H 389.917 2.62235 1.69231 0
M  V30 4024 N 390.218 -0.567019 1.47046 0
M  V30 4025 C 391.165 -1.67489 1.58796 0
M  V30 4026 C 392.135 -1.60399 0.43144 0
M  V30 4027 O 393.32 -1.79378 0.650233 0
M  V30 4028 C 390.46 -3.05821 1.59899 0
M  V30 4029 C 389.573 -3.2342 2.86397 0
M  V30 4030 C 388.708 -4.52093 2.789 0
M  V30 4031 C 387.747 -4.6309 4.00267 0
M  V30 4032 N 386.884 -5.83106 3.91064 0
M  V30 4033 H 391.724 -1.56785 2.53422 0
M  V30 4034 H 389.261 -0.763896 1.2571 0
M  V30 4035 H 391.219 -3.8591 1.58522 0
M  V30 4036 H 389.849 -3.15384 0.687929 0
M  V30 4037 H 388.901 -2.3683 2.97684 0
M  V30 4038 H 390.213 -3.27412 3.76301 0
M  V30 4039 H 389.367 -5.4043 2.75718 0
M  V30 4040 H 388.106 -4.50565 1.86662 0
M  V30 4041 H 387.111 -3.73168 4.03765 0
M  V30 4042 H 388.336 -4.66386 4.93621 0
M  V30 4043 H 386.282 -5.82546 3.01623 0
M  V30 4044 H 386.199 -5.88434 4.74638 0
M  V30 4045 H 387.467 -6.73831 3.91882 0
M  V30 4046 N 391.696 -1.35014 -0.812953 0
M  V30 4047 C 392.942 -1.29129 -1.57154 0
M  V30 4048 C 393.297 0.134922 -1.91926 0
M  V30 4049 O 392.59 1.08373 -1.58006 0
M  V30 4050 C 392.784 -2.12524 -2.87347 0
M  V30 4051 C 392.613 -3.6311 -2.65294 0
M  V30 4052 C 391.383 -4.32363 -2.61516 0
M  V30 4053 C 393.581 -4.56897 -2.36114 0
M  V30 4054 N 391.563 -5.68735 -2.31113 0
M  V30 4055 C 392.934 -5.81345 -2.15494 0
M  V30 4056 C 394.989 -4.45706 -2.21925 0
M  V30 4057 C 393.692 -6.95862 -1.82122 0
M  V30 4058 C 395.718 -5.60066 -1.89948 0
M  V30 4059 C 395.08 -6.83539 -1.7016 0
M  V30 4060 H 391.179 -0.527764 -0.577052 0
M  V30 4061 H 393.763 -1.6983 -0.952146 0
M  V30 4062 H 391.934 -1.74104 -3.47192 0
M  V30 4063 H 393.666 -1.98207 -3.5284 0
M  V30 4064 H 390.421 -3.84907 -2.75941 0
M  V30 4065 H 390.845 -6.40694 -2.18724 0
M  V30 4066 H 395.487 -3.50855 -2.35925 0
M  V30 4067 H 393.205 -7.90685 -1.6686 0
M  V30 4068 H 396.791 -5.53357 -1.79687 0
M  V30 4069 H 395.671 -7.70531 -1.45777 0
M  V30 4070 N 393.175 1.03435 -1.18907 0
M  V30 4071 C 394.403 1.80381 -1.01342 0
M  V30 4072 C 394.818 1.83649 0.438005 0
M  V30 4073 O 394.175 1.27655 1.30424 0
M  V30 4074 C 394.226 3.25689 -1.56873 0
M  V30 4075 O 393.947 3.22673 -2.96334 0
M  V30 4076 C 395.448 4.19255 -1.44014 0
M  V30 4077 H 392.668 0.56784 -0.35749 0
M  V30 4078 H 395.212 1.30317 -1.576 0
M  V30 4079 H 393.367 3.72962 -1.04777 0
M  V30 4080 H 393.781 4.13748 -3.22355 0
M  V30 4081 H 395.255 5.19123 -1.87657 0
M  V30 4082 H 395.732 4.37467 -0.389815 0
M  V30 4083 H 396.338 3.77851 -1.95214 0
M  V30 4084 N 394.653 0.992116 1.22453 0
M  V30 4085 C 395.616 0.546883 2.2258 0
M  V30 4086 C 396.616 -0.369829 1.56489 0
M  V30 4087 O 397.806 -0.161896 1.73446 0
M  V30 4088 C 394.938 -0.204659 3.40285 0
M  V30 4089 H 396.131 1.43234 2.63484 0
M  V30 4090 H 393.684 0.779239 1.3549 0
M  V30 4091 H 394.419 -1.10614 3.04853 0
M  V30 4092 H 394.204 0.45354 3.89468 0
M  V30 4093 H 395.694 -0.504358 4.14543 0
M  V30 4094 N 396.131 -1.37776 0.765217 0
M  V30 4095 C 397.38 -1.99092 0.323307 0
M  V30 4096 C 397.693 -1.61434 -1.10446 0
M  V30 4097 O 398.899 -2.15805 -1.64743 0
M  V30 4098 C 397.355 -3.56019 0.527098 0
M  V30 4099 C 396.963 -4.0262 1.96471 0
M  V30 4100 C 398.707 -4.2424 0.148483 0
M  V30 4101 C 396.614 -5.52233 2.11644 0
M  V30 4102 H 395.544 -0.744846 0.117137 0
M  V30 4103 H 398.195 -1.57391 0.943417 0
M  V30 4104 H 396.577 -3.95667 -0.162372 0
M  V30 4105 H 397.751 -3.74234 2.68859 0
M  V30 4106 H 396.066 -3.47161 2.29931 0
M  V30 4107 H 398.663 -5.34159 0.240456 0
M  V30 4108 H 399.006 -4.06446 -0.900422 0
M  V30 4109 H 399.539 -3.89872 0.79025 0
M  V30 4110 H 396.278 -5.74945 3.1483 0
M  V30 4111 H 395.798 -5.82324 1.4373 0
M  V30 4112 H 397.477 -6.18106 1.91193 0
M  V30 4113 N 397.609 -0.515225 -1.4894 0
M  V30 4114 C 398.834 0.022727 -2.07388 0
M  V30 4115 C 399.259 1.2876 -1.37122 0
M  V30 4116 O 398.617 1.76067 -0.432431 0
M  V30 4117 C 398.665 0.244869 -3.59768 0
M  V30 4118 O 397.769 1.31667 -3.90817 0
M  V30 4119 H 397.11 -0.0325506 -0.663202 0
M  V30 4120 H 399.64 -0.718918 -1.91553 0
M  V30 4121 H 399.65 0.47205 -4.0526 0
M  V30 4122 H 398.325 -0.679194 -4.10317 0
M  V30 4123 H 396.902 1.07331 -3.5712 0
M  V30 4124 N 399.087 1.5561 -0.249682 0
M  V30 4125 C 400.05 2.20217 0.635394 0
M  V30 4126 C 401.05 1.17227 1.10066 0
M  V30 4127 O 402.24 1.42292 1.00492 0
M  V30 4128 C 399.372 2.84794 1.87363 0
M  V30 4129 H 400.565 2.99814 0.0716752 0
M  V30 4130 H 398.118 1.563 -0.000153234 0
M  V30 4131 H 398.853 2.09142 2.47851 0
M  V30 4132 H 398.638 3.60241 1.5482 0
M  V30 4133 H 400.128 3.3423 2.5036 0
M  V30 4134 N 400.565 -0.0233959 1.57583 0
M  V30 4135 C 401.495 -1.02162 2.09965 0
M  V30 4136 C 402.476 -1.3735 1.00344 0
M  V30 4137 O 403.661 -1.46135 1.27899 0
M  V30 4138 C 400.791 -2.32081 2.58371 0
M  V30 4139 C 399.745 -2.1112 3.72307 0
M  V30 4140 C 399.071 -3.46848 4.06941 0
M  V30 4141 C 400.371 -1.49276 5.00514 0
M  V30 4142 H 402.065 -0.585557 2.93618 0
M  V30 4143 H 399.611 -0.280218 1.41247 0
M  V30 4144 H 401.564 -3.02249 2.93639 0
M  V30 4145 H 400.288 -2.77758 1.71808 0
M  V30 4146 H 398.947 -1.43384 3.37397 0
M  V30 4147 H 398.595 -3.90184 3.17436 0
M  V30 4148 H 398.295 -3.33646 4.83688 0
M  V30 4149 H 399.819 -4.18369 4.44747 0
M  V30 4150 H 401.233 -2.09368 5.33702 0
M  V30 4151 H 399.63 -1.46632 5.8191 0
M  V30 4152 H 400.7 -0.459217 4.82721 0
M  V30 4153 N 402.043 -1.548 -0.295768 0
M  V30 4154 C 402.953 -1.89177 -1.38742 0
M  V30 4155 C 403.969 -0.786481 -1.55211 0
M  V30 4156 O 405.145 -1.08344 -1.69775 0
M  V30 4157 C 402.21 -2.13663 -2.73036 0
M  V30 4158 C 401.271 -3.37349 -2.65508 0
M  V30 4159 C 400.504 -3.60658 -3.93398 0
M  V30 4160 O 400.727 -2.86882 -4.93006 0
M  V30 4161 O 399.661 -4.54179 -3.94975 0
M  V30 4162 H 403.487 -2.82059 -1.12589 0
M  V30 4163 H 401.072 -1.41056 -0.492295 0
M  V30 4164 H 402.954 -2.3094 -3.52484 0
M  V30 4165 H 401.629 -1.23967 -2.99022 0
M  V30 4166 H 400.536 -3.25431 -1.84514 0
M  V30 4167 H 401.869 -4.27192 -2.44474 0
M  V30 4168 N 403.521 0.559213 -1.47345 0
M  V30 4169 C 404.751 1.33999 -1.57251 0
M  V30 4170 C 405.159 1.87905 -0.220978 0
M  V30 4171 O 404.502 1.65577 0.795617 0
M  V30 4172 C 404.564 2.54798 -2.53611 0
M  V30 4173 C 404.228 2.22192 -3.99349 0
M  V30 4174 C 405.225 1.79607 -4.87891 0
M  V30 4175 C 402.91 2.33613 -4.44669 0
M  V30 4176 C 404.904 1.48868 -6.19772 0
M  V30 4177 C 402.591 2.02487 -5.76578 0
M  V30 4178 C 403.589 1.60183 -6.63951 0
M  V30 4179 O 403.277 1.29451 -7.93409 0
M  V30 4180 H 403.009 0.414858 -0.533731 0
M  V30 4181 H 405.563 0.684465 -1.9366 0
M  V30 4182 H 403.793 3.23235 -2.12265 0
M  V30 4183 H 405.482 3.16873 -2.53666 0
M  V30 4184 H 406.248 1.70278 -4.54126 0
M  V30 4185 H 402.127 2.65501 -3.76869 0
M  V30 4186 H 405.671 1.15775 -6.87926 0
M  V30 4187 H 401.568 2.11448 -6.09885 0
M  V30 4188 H 402.336 1.43098 -8.05894 0
M  V30 4189 N 404.999 1.35443 0.805782 0
M  V30 4190 C 406.247 1.28507 1.55982 0
M  V30 4191 C 406.568 -0.140046 1.94496 0
M  V30 4192 O 405.838 -1.07666 1.63661 0
M  V30 4193 H 404.418 0.472676 0.578434 0
M  V30 4194 H 407.08 1.69555 0.961098 0
M  V30 4195 H 406.176 1.90148 2.47488 0
M  V30 4196 N 406.477 -1.02803 1.19454 0
M  V30 4197 C 407.723 -1.76478 0.999171 0
M  V30 4198 C 408.056 -1.88456 -0.468828 0
M  V30 4199 O 407.331 -1.40198 -1.34814 0
M  V30 4200 C 407.614 -3.19044 1.66981 0
M  V30 4201 C 407.467 -3.14932 3.21151 0
M  V30 4202 C 408.786 -4.17456 1.39349 0
M  V30 4203 H 405.905 -0.640614 0.364393 0
M  V30 4204 H 408.547 -1.20005 1.47305 0
M  V30 4205 H 406.697 -3.67263 1.2669 0
M  V30 4206 H 408.369 -2.74605 3.70661 0
M  V30 4207 H 406.612 -2.52625 3.52652 0
M  V30 4208 H 407.283 -4.1566 3.63223 0
M  V30 4209 H 409.759 -3.77842 1.74283 0
M  V30 4210 H 408.635 -5.154 1.88823 0
M  V30 4211 H 408.896 -4.40949 0.318813 0
M  V30 4212 N 407.956 -0.998596 -1.21925 0
M  V30 4213 C 409.367 -0.711939 -1.72593 0
M  V30 4214 C 409.718 0.770842 -1.80423 0
M  V30 4215 O 408.843 1.60237 -1.4544 0
M  V30 4216 C 409.438 -1.28567 -3.13458 0
M  V30 4217 C 407.997 -1.04828 -3.61508 0
M  V30 4218 C 407.144 -1.4024 -2.39224 0
M  V30 4219 H 410.095 -1.17027 -1.07193 0
M  V30 4220 H 410.116 -0.667098 -3.74607 0
M  V30 4221 H 409.628 -2.36486 -3.07727 0
M  V30 4222 H 407.729 0.0140383 -3.72597 0
M  V30 4223 H 407.842 -1.71566 -4.47328 0
M  V30 4224 H 406.206 -0.821077 -2.41103 0
M  V30 4225 H 406.989 -2.49176 -2.36149 0
M  V30 4226 N 409.434 1.37368 -0.772513 0
M  V30 4227 C 410.68 1.99969 -0.337681 0
M  V30 4228 C 411.013 1.61184 1.08321 0
M  V30 4229 O 410.288 0.858395 1.74533 0
M  V30 4230 C 410.571 3.56858 -0.482121 0
M  V30 4231 C 410.424 4.0555 -1.94549 0
M  V30 4232 C 411.743 4.39955 0.113143 0
M  V30 4233 H 408.862 0.726464 -0.124171 0
M  V30 4234 H 411.504 1.63034 -0.975699 0
M  V30 4235 H 409.654 3.88452 0.0610361 0
M  V30 4236 H 411.326 3.84518 -2.54841 0
M  V30 4237 H 409.569 3.57715 -2.45403 0
M  V30 4238 H 410.24 5.14587 -1.9976 0
M  V30 4239 H 412.716 4.14623 -0.35031 0
M  V30 4240 H 411.592 5.48897 -0.0180514 0
M  V30 4241 H 411.853 4.25403 1.20354 0
M  V30 4242 N 410.912 0.523116 1.48665 0
M  V30 4243 C 412.14 -0.0096312 2.06898 0
M  V30 4244 C 412.555 -1.28784 1.38059 0
M  V30 4245 O 411.912 -1.76453 0.465893 0
M  V30 4246 C 411.963 -0.244386 3.60673 0
M  V30 4247 O 411.684 0.983172 4.26925 0
M  V30 4248 C 413.185 -0.818289 4.35682 0
M  V30 4249 H 410.405 0.0304161 0.67031 0
M  V30 4250 H 412.949 0.726799 1.91149 0
M  V30 4251 H 411.104 -0.930847 3.76051 0
M  V30 4252 H 411.518 0.759653 5.1897 0
M  V30 4253 H 412.992 -0.93201 5.44075 0
M  V30 4254 H 413.469 -1.82153 3.99646 0
M  V30 4255 H 414.075 -0.168609 4.24966 0
M  V30 4256 N 412.39 -1.55475 0.257931 0
M  V30 4257 C 413.32 -2.24815 -0.630912 0
M  V30 4258 C 414.301 -1.23224 -1.17259 0
M  V30 4259 O 415.486 -1.51904 -1.20991 0
M  V30 4260 C 412.616 -2.95609 -1.82298 0
M  V30 4261 C 411.57 -4.03982 -1.41359 0
M  V30 4262 C 410.896 -4.6226 -2.68738 0
M  V30 4263 C 412.196 -5.19109 -0.57648 0
M  V30 4264 H 413.89 -2.99354 -0.0526878 0
M  V30 4265 H 411.436 -1.4398 -0.023901 0
M  V30 4266 H 413.389 -3.42822 -2.45054 0
M  V30 4267 H 412.113 -2.18577 -2.42676 0
M  V30 4268 H 410.772 -3.57555 -0.809324 0
M  V30 4269 H 410.42 -3.81915 -3.27338 0
M  V30 4270 H 410.12 -5.35424 -2.42065 0
M  V30 4271 H 411.644 -5.12212 -3.32372 0
M  V30 4272 H 413.058 -5.62479 -1.10861 0
M  V30 4273 H 411.455 -5.98729 -0.405351 0
M  V30 4274 H 412.525 -4.83174 0.408776 0
M  V30 4275 N 413.868 0.0150385 -1.57593 0
M  V30 4276 C 415.117 0.702115 -1.89085 0
M  V30 4277 C 415.43 1.75764 -0.858277 0
M  V30 4278 O 416.636 2.49829 -1.0629 0
M  V30 4279 C 415.092 1.29992 -3.35604 0
M  V30 4280 C 414.7 0.280007 -4.47124 0
M  V30 4281 C 416.444 1.96606 -3.76227 0
M  V30 4282 C 414.351 0.886949 -5.84711 0
M  V30 4283 H 413.281 0.265997 -0.705522 0
M  V30 4284 H 415.932 -0.0430408 -1.8345 0
M  V30 4285 H 414.314 2.09525 -3.36029 0
M  V30 4286 H 415.488 -0.489631 -4.58191 0
M  V30 4287 H 413.803 -0.284835 -4.15425 0
M  V30 4288 H 416.4 2.42893 -4.76347 0
M  V30 4289 H 416.743 2.79024 -3.08952 0
M  V30 4290 H 417.276 1.23828 -3.78036 0
M  V30 4291 H 414.015 0.101876 -6.55421 0
M  V30 4292 H 413.535 1.6261 -5.77337 0
M  V30 4293 H 415.214 1.39011 -6.3189 0
M  V30 4294 N 415.346 1.54954 0.287554 0
M  V30 4295 C 416.594 1.74528 1.01904 0
M  V30 4296 C 416.915 0.541349 1.87335 0
M  V30 4297 O 416.185 -0.444108 1.908 0
M  V30 4298 H 414.765 0.643576 0.379235 0
M  V30 4299 H 417.427 1.92333 0.315294 0
M  V30 4300 H 416.523 2.64015 1.6644 0
M  V30 4301 N 416.824 -0.551391 1.4764 0
M  V30 4302 C 417.734 -1.68525 1.63207 0
M  V30 4303 C 418.75 -1.6621 0.514815 0
M  V30 4304 O 419.926 -1.85551 0.783113 0
M  V30 4305 C 416.991 -3.05025 1.64805 0
M  V30 4306 C 416.052 -3.18362 2.88 0
M  V30 4307 C 415.285 -4.4835 2.89513 0
M  V30 4308 O 415.508 -5.34163 2.00065 0
M  V30 4309 O 414.442 -4.65602 3.81443 0
M  V30 4310 H 418.268 -1.58333 2.59161 0
M  V30 4311 H 415.853 -0.722063 1.30792 0
M  V30 4312 H 417.735 -3.86245 1.68502 0
M  V30 4313 H 416.41 -3.15587 0.720197 0
M  V30 4314 H 415.317 -2.36518 2.89845 0
M  V30 4315 H 416.65 -3.12707 3.80099 0
M  V30 4316 N 418.302 -1.35869 -0.798587 0
M  V30 4317 C 419.265 -1.29307 -1.89242 0
M  V30 4318 C 420.265 -0.202747 -1.59517 0
M  V30 4319 O 421.455 -0.456957 -1.681 0
M  V30 4320 C 418.587 -1.00229 -3.25833 0
M  V30 4321 H 419.78 -2.26576 -1.96478 0
M  V30 4322 H 417.333 -1.20509 -0.995358 0
M  V30 4323 H 418.068 -0.033801 -3.24282 0
M  V30 4324 H 417.853 -1.79121 -3.48795 0
M  V30 4325 H 419.343 -0.98219 -4.05885 0
M  V30 4326 N 419.78 1.02168 -1.19998 0
M  V30 4327 C 421.026 1.75945 -1.00852 0
M  V30 4328 C 421.359 1.88702 0.458828 0
M  V30 4329 O 420.634 1.40911 1.34069 0
M  V30 4330 C 420.917 3.18154 -1.68671 0
M  V30 4331 C 420.77 3.13224 -3.22817 0
M  V30 4332 C 422.089 4.16711 -1.41561 0
M  V30 4333 H 419.208 0.638673 -0.367785 0
M  V30 4334 H 421.85 1.19222 -1.4794 0
M  V30 4335 H 420 3.66586 -1.28636 0
M  V30 4336 H 421.672 2.72635 -3.72112 0
M  V30 4337 H 419.915 2.50751 -3.53986 0
M  V30 4338 H 420.586 4.13728 -3.65422 0
M  V30 4339 H 423.062 3.76913 -1.76284 0
M  V30 4340 H 421.938 5.14391 -1.91553 0
M  V30 4341 H 422.199 4.40774 -0.342193 0
M  V30 4342 N 421.258 1.00505 1.21394 0
M  V30 4343 C 422.505 0.687774 1.90462 0
M  V30 4344 C 422.833 -0.78147 1.7811 0
M  V30 4345 O 422.088 -1.58208 1.1519 0
M  V30 4346 C 422.387 1.0546 3.41486 0
M  V30 4347 C 422.053 2.51812 3.74034 0
M  V30 4348 C 420.715 2.91804 3.82628 0
M  V30 4349 C 423.067 3.46614 3.8924 0
M  V30 4350 C 420.395 4.2556 4.03876 0
M  V30 4351 C 422.747 4.80044 4.11995 0
M  V30 4352 C 421.411 5.19759 4.18816 0
M  V30 4353 H 420.681 0.251674 0.696951 0
M  V30 4354 H 423.328 1.26349 1.43903 0
M  V30 4355 H 421.633 0.397133 3.89782 0
M  V30 4356 H 423.33 0.786976 3.93202 0
M  V30 4357 H 419.92 2.1982 3.67936 0
M  V30 4358 H 424.104 3.16883 3.81967 0
M  V30 4359 H 419.36 4.55901 4.07387 0
M  V30 4360 H 423.534 5.53439 4.22704 0
M  V30 4361 H 421.161 6.23418 4.35033 0
M  V30 4362 N 422.737 -1.36956 0.779787 0
M  V30 4363 C 423.7 -2.2851 0.177662 0
M  V30 4364 C 424.7 -1.48393 -0.619377 0
M  V30 4365 O 425.89 -1.68505 -0.441785 0
M  V30 4366 C 423.022 -3.32428 -0.755279 0
M  V30 4367 H 424.215 -2.83269 0.984823 0
M  V30 4368 H 421.768 -1.46358 0.548544 0
M  V30 4369 H 422.503 -2.82808 -1.58714 0
M  V30 4370 H 422.288 -3.91659 -0.185817 0
M  V30 4371 H 423.778 -4.00824 -1.17174 0
M  V30 4372 N 424.215 -0.530993 -1.48385 0
M  V30 4373 C 425.631 -0.188919 -1.58478 0
M  V30 4374 C 425.831 1.30786 -1.53288 0
M  V30 4375 O 424.887 2.08619 -1.42248 0
M  V30 4376 C 426.2 -0.792343 -2.90073 0
M  V30 4377 C 427.748 -0.76117 -3.03604 0
M  V30 4378 C 428.223 -1.34319 -4.37861 0
M  V30 4379 N 429.714 -1.3052 -4.44431 0
M  V30 4380 C 430.449 -1.72543 -5.46824 0
M  V30 4381 N 429.945 -2.22299 -6.56167 0
M  V30 4382 N 431.738 -1.63773 -5.37712 0
M  V30 4383 H 423.889 -1.50377 -1.50002 0
M  V30 4384 H 426.152 -0.625559 -0.712306 0
M  V30 4385 H 425.858 -1.84323 -2.99529 0
M  V30 4386 H 425.732 -0.270026 -3.76232 0
M  V30 4387 H 428.119 0.280957 -2.93759 0
M  V30 4388 H 428.2 -1.32097 -2.19053 0
M  V30 4389 H 427.844 -2.38425 -4.4846 0
M  V30 4390 H 427.774 -0.759064 -5.21101 0
M  V30 4391 H 430.265 -0.940973 -3.65997 0
M  V30 4392 H 430.578 -2.52356 -7.30436 0
M  V30 4393 H 428.923 -2.26293 -6.57127 0
M  V30 4394 H 432.114 -1.24698 -4.51185 0
M  V30 4395 H 432.287 -1.96844 -6.17379 0
M  V30 4396 N 425.693 1.55336 -0.266172 0
M  V30 4397 C 426.933 2.01303 0.354459 0
M  V30 4398 C 427.297 1.15046 1.53715 0
M  V30 4399 O 428.498 1.50554 2.22681 0
M  V30 4400 C 426.769 3.49748 0.735579 0
M  V30 4401 S 428.328 4.1771 1.34401 0
M  V30 4402 H 425.146 0.702333 0.110674 0
M  V30 4403 H 427.748 1.91653 -0.385916 0
M  V30 4404 H 426.452 4.10181 -0.134196 0
M  V30 4405 H 425.983 3.63364 1.50764 0
M  V30 4406 H 427.998 4.20594 2.63278 0
M  V30 4407 N 427.171 -0.0066808 1.57599 0
M  V30 4408 C 428.101 -0.999296 2.11036 0
M  V30 4409 C 429.082 -1.36278 1.01795 0
M  V30 4410 O 430.267 -1.4477 1.29442 0
M  V30 4411 C 427.397 -2.29328 2.60818 0
M  V30 4412 C 426.351 -2.07159 3.74525 0
M  V30 4413 C 425.677 -3.42512 4.10596 0
M  V30 4414 C 426.977 -1.43959 5.02069 0
M  V30 4415 H 428.671 -0.554382 2.94223 0
M  V30 4416 H 426.217 -0.265221 1.41536 0
M  V30 4417 H 428.17 -2.99117 2.96828 0
M  V30 4418 H 426.894 -2.7592 1.74745 0
M  V30 4419 H 425.553 -1.39797 3.38899 0
M  V30 4420 H 425.201 -3.86795 3.21556 0
M  V30 4421 H 424.901 -3.28498 4.87199 0
M  V30 4422 H 426.425 -4.13628 4.4916 0
M  V30 4423 H 427.839 -2.03696 5.35893 0
M  V30 4424 H 426.236 -1.40452 5.83432 0
M  V30 4425 H 427.306 -0.407992 4.83181 0
M  V30 4426 N 428.649 -1.55105 -0.279332 0
M  V30 4427 C 429.874 -1.7976 -1.03446 0
M  V30 4428 C 430.299 -0.565952 -1.79384 0
M  V30 4429 O 429.657 0.484259 -1.74713 0
M  V30 4430 C 429.705 -3.0179 -1.97371 0
M  V30 4431 O 428.809 -2.76432 -3.06038 0
M  V30 4432 H 428.15 -0.594334 -0.29608 0
M  V30 4433 H 430.68 -2.02235 -0.310165 0
M  V30 4434 H 430.69 -3.30351 -2.39441 0
M  V30 4435 H 429.365 -3.91085 -1.4151 0
M  V30 4436 H 427.942 -2.58949 -2.68328 0
M  V30 4437 N 430.127 0.543554 -1.4793 0
M  V30 4438 C 431.352 1.32995 -1.59145 0
M  V30 4439 C 431.777 1.86472 -0.246956 0
M  V30 4440 O 431.135 1.63696 0.779324 0
M  V30 4441 C 431.183 2.46623 -2.63077 0
M  V30 4442 O 430.287 3.49261 -2.19295 0
M  V30 4443 H 429.628 0.394472 -0.534124 0
M  V30 4444 H 432.158 0.655489 -1.93816 0
M  V30 4445 H 432.168 2.93001 -2.83926 0
M  V30 4446 H 430.843 2.07059 -3.60693 0
M  V30 4447 H 429.42 3.09094 -2.08603 0
M  V30 4448 N 431.605 1.3629 0.791371 0
M  V30 4449 C 432.535 1.33137 1.91825 0
M  V30 4450 C 433.516 0.203168 1.68882 0
M  V30 4451 O 434.701 0.400509 1.90025 0
M  V30 4452 C 431.831 1.11793 3.28816 0
M  V30 4453 C 430.785 2.21417 3.66277 0
M  V30 4454 C 430.111 1.85218 5.01596 0
M  V30 4455 C 431.411 3.63489 3.75064 0
M  V30 4456 H 433.105 2.2743 1.9472 0
M  V30 4457 H 430.651 1.09479 0.935437 0
M  V30 4458 H 432.604 1.08222 4.07266 0
M  V30 4459 H 431.328 0.139501 3.26302 0
M  V30 4460 H 429.987 2.2411 2.90121 0
M  V30 4461 H 429.635 0.859544 4.95602 0
M  V30 4462 H 429.335 2.58611 5.27631 0
M  V30 4463 H 430.859 1.832 5.82469 0
M  V30 4464 H 432.273 3.63034 4.43711 0
M  V30 4465 H 430.67 4.35771 4.12582 0
M  V30 4466 H 431.74 3.98536 2.76219 0
M  V30 4467 N 433.083 -1.0153 1.20538 0
M  V30 4468 C 434.03 -2.10098 0.955383 0
M  V30 4469 C 435 -1.65702 -0.114878 0
M  V30 4470 O 436.185 -1.90776 0.0301118 0
M  V30 4471 C 433.325 -3.41236 0.514969 0
M  V30 4472 C 432.438 -3.99102 1.65353 0
M  V30 4473 C 431.573 -5.18306 1.16329 0
M  V30 4474 C 430.612 -5.68258 2.27485 0
M  V30 4475 N 429.749 -6.78722 1.7967 0
M  V30 4476 H 434.589 -2.30818 1.88486 0
M  V30 4477 H 432.126 -1.13189 0.939499 0
M  V30 4478 H 434.084 -4.16504 0.240935 0
M  V30 4479 H 432.714 -3.20585 -0.377512 0
M  V30 4480 H 431.766 -3.20918 2.04245 0
M  V30 4481 H 433.078 -4.32177 2.49047 0
M  V30 4482 H 432.232 -6.00782 0.845302 0
M  V30 4483 H 430.971 -4.86799 0.296254 0
M  V30 4484 H 429.976 -4.84385 2.60099 0
M  V30 4485 H 431.201 -6.01798 3.14667 0
M  V30 4486 H 429.147 -6.49042 0.95295 0
M  V30 4487 H 429.064 -7.10996 2.56944 0
M  V30 4488 H 430.332 -7.64759 1.50875 0
M  V30 4489 N 434.561 -1.01147 -1.20859 0
M  V30 4490 C 435.838 -0.613136 -1.85742 0
M  V30 4491 C 436.218 0.909004 -1.90526 0
M  V30 4492 O 435.566 1.79862 -1.40932 0
M  V30 4493 C 435.776 -1.255 -3.25654 0
M  V30 4494 C 437.124 -1.3672 -4.01986 0
M  V30 4495 O 438.148 -1.21082 -3.34989 0
M  V30 4496 O 437.007 -1.6194 -5.21956 0
M  V30 4497 H 434.101 -0.210878 -0.799662 0
M  V30 4498 H 436.647 -1.10853 -1.2849 0
M  V30 4499 H 435.419 -2.29532 -3.16908 0
M  V30 4500 H 435.042 -0.746369 -3.90532 0
M  V30 4501 N 436.039 1.36541 -0.78704 0
M  V30 4502 C 436.949 2.3387 -0.184896 0
M  V30 4503 C 437.965 1.60927 0.661697 0
M  V30 4504 O 439.141 1.92927 0.57804 0
M  V30 4505 C 436.206 3.40122 0.672145 0
M  V30 4506 C 435.267 4.28867 -0.19267 0
M  V30 4507 C 434.5 5.30045 0.623561 0
M  V30 4508 O 434.723 5.39232 1.8597 0
M  V30 4509 O 433.657 6.01895 0.0247068 0
M  V30 4510 H 437.483 2.87126 -0.989562 0
M  V30 4511 H 435.068 1.38969 -0.548455 0
M  V30 4512 H 436.95 4.05093 1.16094 0
M  V30 4513 H 435.625 2.89169 1.45474 0
M  V30 4514 H 434.532 3.66945 -0.728166 0
M  V30 4515 H 435.865 4.83165 -0.938722 0
M  V30 4516 N 437.518 0.538854 1.48102 0
M  V30 4517 C 438.934 0.19732 1.58376 0
M  V30 4518 C 439.134 -1.29971 1.5398 0
M  V30 4519 O 438.19 -2.07861 1.43352 0
M  V30 4520 C 439.503 0.807716 2.89649 0
M  V30 4521 C 441.051 0.77726 3.03196 0
M  V30 4522 C 441.526 1.36639 4.37143 0
M  V30 4523 N 443.017 1.32875 4.43732 0
M  V30 4524 C 443.752 1.7544 5.45901 0
M  V30 4525 N 443.248 2.25776 6.54979 0
M  V30 4526 N 445.041 1.66623 5.36836 0
M  V30 4527 H 437.192 1.5117 1.49202 0
M  V30 4528 H 439.455 0.629327 0.708979 0
M  V30 4529 H 439.161 1.85909 2.98548 0
M  V30 4530 H 439.035 0.289975 3.76084 0
M  V30 4531 H 441.422 -0.265374 2.93904 0
M  V30 4532 H 441.503 1.33256 2.18349 0
M  V30 4533 H 441.147 2.408 4.47189 0
M  V30 4534 H 441.077 0.786689 5.20691 0
M  V30 4535 H 443.568 0.96037 3.65493 0
M  V30 4536 H 443.881 2.56226 7.29087 0
M  V30 4537 H 442.226 2.29775 6.55918 0
M  V30 4538 H 445.417 1.27089 4.50517 0
M  V30 4539 H 445.59 2.00115 6.16326 0
M  V30 4540 N 438.996 -1.55193 0.274407 0
M  V30 4541 C 440.245 -1.98758 -0.343213 0
M  V30 4542 C 440.558 -1.16624 -1.5703 0
M  V30 4543 O 441.764 -1.5033 -2.26082 0
M  V30 4544 C 440.22 -3.53759 -0.661996 0
M  V30 4545 C 439.828 -4.4467 0.54524 0
M  V30 4546 C 441.572 -4.05916 -1.24228 0
M  V30 4547 C 439.479 -5.91058 0.201084 0
M  V30 4548 H 438.409 -0.742353 -0.132014 0
M  V30 4549 H 441.06 -1.79545 0.378948 0
M  V30 4550 H 439.442 -3.68772 -1.44304 0
M  V30 4551 H 440.616 -4.41426 1.32212 0
M  V30 4552 H 438.931 -4.03143 1.04232 0
M  V30 4553 H 441.528 -5.12831 -1.51357 0
M  V30 4554 H 441.871 -3.54908 -2.17592 0
M  V30 4555 H 442.404 -3.9434 -0.523542 0
M  V30 4556 H 439.143 -6.46161 1.10258 0
M  V30 4557 H 438.663 -5.97373 -0.539045 0
M  V30 4558 H 440.342 -6.46669 -0.206954 0
M  V30 4559 N 440.474 -0.00167713 -1.576 0
M  V30 4560 C 441.406 1.0174 -2.05382 0
M  V30 4561 C 442.419 1.30595 -0.972052 0
M  V30 4562 O 443.608 1.27542 -1.24882 0
M  V30 4563 C 440.708 2.35174 -2.44022 0
M  V30 4564 C 439.881 2.25234 -3.74951 0
M  V30 4565 C 438.94 3.4137 -4.00441 0
M  V30 4566 O 437.966 3.19483 -4.71083 0
M  V30 4567 N 439.168 4.64275 -3.48467 0
M  V30 4568 H 441.933 0.609902 -2.93428 0
M  V30 4569 H 439.494 0.185672 -1.60832 0
M  V30 4570 H 441.486 3.11643 -2.58187 0
M  V30 4571 H 440.056 2.67659 -1.61485 0
M  V30 4572 H 439.276 1.33664 -3.70847 0
M  V30 4573 H 440.564 2.15767 -4.60784 0
M  V30 4574 H 439.962 4.84955 -2.91264 0
M  V30 4575 H 438.519 5.38005 -3.67959 0
M  V30 4576 N 441.952 1.55251 0.271103 0
M  V30 4577 C 442.915 1.87484 1.31842 0
M  V30 4578 C 443.915 0.749545 1.42262 0
M  V30 4579 O 445.105 1.01771 1.4138 0
M  V30 4580 C 442.237 2.0818 2.69951 0
M  V30 4581 H 443.43 2.81108 1.0449 0
M  V30 4582 H 440.983 1.47771 0.509258 0
M  V30 4583 H 441.718 1.16944 3.02481 0
M  V30 4584 H 441.503 2.90114 2.63774 0
M  V30 4585 H 442.993 2.34385 3.4562 0
M  V30 4586 N 443.43 -0.535701 1.48216 0
M  V30 4587 C 444.655 -1.32149 1.59848 0
M  V30 4588 C 445.08 -1.86338 0.256842 0
M  V30 4589 O 444.438 -1.64107 -0.770632 0
M  V30 4590 C 444.486 -2.45224 2.64381 0
M  V30 4591 O 443.59 -3.48093 2.21144 0
M  V30 4592 H 442.931 -0.391634 0.536208 0
M  V30 4593 H 445.461 -0.645202 1.94161 0
M  V30 4594 H 445.471 -2.91491 2.85476 0
M  V30 4595 H 444.146 -2.05143 3.61786 0
M  V30 4596 H 442.723 -3.07984 2.10239 0
M  V30 4597 N 444.908 -1.36708 -0.784132 0
M  V30 4598 C 445.855 -1.31466 -1.89698 0
M  V30 4599 C 446.825 -0.18239 -1.65096 0
M  V30 4600 O 448.01 -0.369762 -1.87183 0
M  V30 4601 C 445.15 -1.1151 -3.26588 0
M  V30 4602 C 444.263 -2.33859 -3.63227 0
M  V30 4603 C 443.398 -2.06873 -4.89262 0
M  V30 4604 C 442.437 -3.25154 -5.18595 0
M  V30 4605 N 441.574 -2.978 -6.35814 0
M  V30 4606 H 446.414 -2.26619 -1.93515 0
M  V30 4607 H 443.951 -1.12625 -0.946256 0
M  V30 4608 H 445.909 -0.979653 -4.05535 0
M  V30 4609 H 444.539 -0.200103 -3.22179 0
M  V30 4610 H 443.591 -2.58188 -2.79362 0
M  V30 4611 H 444.903 -3.22109 -3.8085 0
M  V30 4612 H 444.057 -1.90289 -5.76086 0
M  V30 4613 H 442.796 -1.15942 -4.73718 0
M  V30 4614 H 441.801 -3.42292 -4.30251 0
M  V30 4615 H 443.026 -4.1692 -5.36055 0
M  V30 4616 H 440.972 -2.09485 -6.21653 0
M  V30 4617 H 440.889 -3.7959 -6.53794 0
M  V30 4618 H 442.157 -2.84805 -7.25607 0
M  V30 4619 N 446.386 1.0089 -1.21074 0
M  V30 4620 C 447.333 2.09588 -0.966512 0
M  V30 4621 C 448.303 1.65761 0.106089 0
M  V30 4622 O 449.488 1.90758 -0.0402287 0
M  V30 4623 C 446.628 3.40958 -0.533058 0
M  V30 4624 C 445.741 3.9822 -1.67467 0
M  V30 4625 C 444.876 5.17682 -1.19076 0
M  V30 4626 C 443.915 5.67043 -2.30496 0
M  V30 4627 N 443.052 6.77759 -1.83267 0
M  V30 4628 H 447.892 2.29815 -1.89708 0
M  V30 4629 H 445.429 1.12689 -0.945489 0
M  V30 4630 H 447.387 4.1637 -0.263019 0
M  V30 4631 H 446.017 3.20781 0.360505 0
M  V30 4632 H 445.069 3.1983 -2.05944 0
M  V30 4633 H 446.381 4.3085 -2.51336 0
M  V30 4634 H 445.535 6.00326 -0.877151 0
M  V30 4635 H 444.274 4.86635 -0.322066 0
M  V30 4636 H 443.279 4.82999 -2.62664 0
M  V30 4637 H 444.504 6.00121 -3.17855 0
M  V30 4638 H 442.45 6.48527 -0.987356 0
M  V30 4639 H 442.367 7.09624 -2.60711 0
M  V30 4640 H 443.635 7.63949 -1.54928 0
M  V30 4641 N 447.864 1.01787 1.20321 0
M  V30 4642 C 448.794 0.609625 2.25401 0
M  V30 4643 C 449.775 -0.375951 1.65893 0
M  V30 4644 O 450.96 -0.261101 1.92437 0
M  V30 4645 C 448.09 -0.0515995 3.47262 0
M  V30 4646 C 447.044 0.855095 4.19371 0
M  V30 4647 C 446.37 0.0595757 5.34667 0
M  V30 4648 C 447.67 2.16374 4.75373 0
M  V30 4649 H 449.364 1.48803 2.59804 0
M  V30 4650 H 446.91 0.716934 1.24884 0
M  V30 4651 H 448.863 -0.348764 4.19954 0
M  V30 4652 H 447.587 -0.964726 3.12027 0
M  V30 4653 H 446.246 1.13628 3.48546 0
M  V30 4654 H 445.894 -0.85524 4.95676 0
M  V30 4655 H 445.594 0.663406 5.83843 0
M  V30 4656 H 447.118 -0.231105 6.10162 0
M  V30 4657 H 448.532 1.92885 5.39878 0
M  V30 4658 H 446.929 2.71853 5.34991 0
M  V30 4659 H 447.999 2.82589 3.94045 0
M  V30 4660 N 449.342 -1.36122 0.79427 0
M  V30 4661 C 450.289 -2.29982 0.194101 0
M  V30 4662 C 451.259 -1.52214 -0.664833 0
M  V30 4663 O 452.444 -1.80702 -0.612498 0
M  V30 4664 C 449.584 -3.38706 -0.661244 0
M  V30 4665 C 448.697 -4.31456 0.216766 0
M  V30 4666 C 447.832 -5.27265 -0.645411 0
M  V30 4667 C 446.871 -6.11653 0.233756 0
M  V30 4668 N 446.008 -6.99636 -0.587682 0
M  V30 4669 H 450.848 -2.80722 0.999965 0
M  V30 4670 H 448.385 -1.38172 0.504677 0
M  V30 4671 H 450.343 -4.00394 -1.17219 0
M  V30 4672 H 448.973 -2.89274 -1.43249 0
M  V30 4673 H 448.025 -3.7088 0.845724 0
M  V30 4674 H 449.337 -4.90724 0.893973 0
M  V30 4675 H 448.491 -5.94266 -1.22198 0
M  V30 4676 H 447.23 -4.68463 -1.35623 0
M  V30 4677 H 446.235 -5.4361 0.82269 0
M  V30 4678 H 447.46 -6.72531 0.942247 0
M  V30 4679 H 445.406 -6.43337 -1.2827 0
M  V30 4680 H 445.323 -7.55993 0.0317402 0
M  V30 4681 H 446.591 -7.71001 -1.14792 0
M  V30 4682 N 450.82 -0.546701 -1.47814 0
M  V30 4683 C 452.068 -0.0187037 -2.02091 0
M  V30 4684 C 452.389 1.33168 -1.42447 0
M  V30 4685 O 451.659 1.86619 -0.595839 0
M  V30 4686 H 450.239 -0.00392531 -0.74699 0
M  V30 4687 H 452.901 -0.714327 -1.81338 0
M  V30 4688 H 451.997 0.0772219 -3.12004 0
M  V30 4689 N 452.299 1.55045 -0.282633 0
M  V30 4690 C 453.71 1.85473 0.213655 0
M  V30 4691 C 454.061 1.20465 1.54863 0
M  V30 4692 O 453.186 0.495676 2.10647 0
M  V30 4693 C 453.781 3.36496 0.394445 0
M  V30 4694 C 452.34 3.67022 0.834961 0
M  V30 4695 C 451.487 2.77218 -0.0674081 0
M  V30 4696 H 454.438 1.50478 -0.504202 0
M  V30 4697 H 454.459 3.60007 1.23186 0
M  V30 4698 H 453.971 3.83782 -0.577326 0
M  V30 4699 H 452.072 3.25241 1.81794 0
M  V30 4700 H 452.185 4.74433 0.667075 0
M  V30 4701 H 450.549 2.5069 0.450196 0
M  V30 4702 H 451.332 3.2732 -1.0352 0
M  V30 4703 N 453.777 0.010035 1.57597 0
M  V30 4704 C 454.709 -1.00649 2.05918 0
M  V30 4705 C 455.722 -1.30077 0.978964 0
M  V30 4706 O 456.911 -1.26878 1.25556 0
M  V30 4707 C 454.011 -2.33876 2.45265 0
M  V30 4708 C 453.184 -2.23242 3.7614 0
M  V30 4709 C 452.243 -3.39242 4.02245 0
M  V30 4710 O 451.269 -3.1698 4.72771 0
M  V30 4711 N 452.471 -4.6242 3.50924 0
M  V30 4712 H 455.236 -0.594333 2.93748 0
M  V30 4713 H 452.797 -0.17714 1.60928 0
M  V30 4714 H 454.789 -3.1027 2.59836 0
M  V30 4715 H 453.359 -2.66799 1.62902 0
M  V30 4716 H 452.579 -1.31696 3.71551 0
M  V30 4717 H 453.867 -2.13321 4.61922 0
M  V30 4718 H 453.265 -4.83404 2.93832 0
M  V30 4719 H 451.822 -5.36046 3.70807 0
M  V30 4720 N 455.255 -1.55392 -0.262866 0
M  V30 4721 C 456.202 -1.88966 -1.32516 0
M  V30 4722 C 457.172 -0.742187 -1.48596 0
M  V30 4723 O 458.357 -0.99439 -1.62839 0
M  V30 4724 C 455.497 -2.17592 -2.67858 0
M  V30 4725 C 454.61 -3.45061 -2.59917 0
M  V30 4726 C 453.745 -3.63336 -3.87505 0
M  V30 4727 C 452.784 -4.84462 -3.74116 0
M  V30 4728 N 451.921 -4.99342 -4.93561 0
M  V30 4729 H 456.761 -2.79566 -1.03184 0
M  V30 4730 H 454.298 -1.38404 -0.498285 0
M  V30 4731 H 456.256 -2.3219 -3.46617 0
M  V30 4732 H 454.886 -1.30215 -2.95371 0
M  V30 4733 H 453.938 -3.38881 -1.72812 0
M  V30 4734 H 455.25 -4.3396 -2.45926 0
M  V30 4735 H 454.404 -3.77807 -4.74707 0
M  V30 4736 H 453.143 -2.72641 -4.04374 0
M  V30 4737 H 452.148 -4.69985 -2.85297 0
M  V30 4738 H 453.373 -5.76603 -3.58757 0
M  V30 4739 H 451.319 -4.1158 -5.10821 0
M  V30 4740 H 451.236 -5.82303 -4.82141 0
M  V30 4741 H 452.504 -5.18208 -5.82306 0
M  V30 4742 N 456.733 0.527833 -1.48498 0
M  V30 4743 C 457.98 1.28354 -1.56625 0
M  V30 4744 C 458.308 1.93 -0.241096 0
M  V30 4745 O 457.563 1.79967 0.768798 0
M  V30 4746 C 457.862 2.39275 -2.65485 0
M  V30 4747 C 457.528 1.92268 -4.07853 0
M  V30 4748 C 456.19 1.79166 -4.46602 0
M  V30 4749 C 458.542 1.56771 -4.97064 0
M  V30 4750 C 455.87 1.28905 -5.72364 0
M  V30 4751 C 458.222 1.07972 -6.23318 0
M  V30 4752 C 456.886 0.934887 -6.60921 0
M  V30 4753 H 456.156 0.469682 -0.573131 0
M  V30 4754 H 458.803 0.588781 -1.82224 0
M  V30 4755 H 457.108 3.1443 -2.33754 0
M  V30 4756 H 458.805 2.974 -2.68988 0
M  V30 4757 H 455.395 2.03417 -3.77252 0
M  V30 4758 H 459.579 1.65753 -4.67803 0
M  V30 4759 H 454.835 1.16381 -6.00221 0
M  V30 4760 H 459.009 0.795775 -6.91838 0
M  V30 4761 H 456.636 0.543231 -7.58257 0
M  V30 4762 N 458.211 1.37122 0.776871 0
M  V30 4763 C 459.143 1.28342 1.89897 0
M  V30 4764 C 460.156 0.200277 1.61563 0
M  V30 4765 O 461.345 0.456012 1.72577 0
M  V30 4766 C 458.445 0.960427 3.25006 0
M  V30 4767 C 457.618 2.148 3.81025 0
M  V30 4768 C 456.677 1.79608 4.94598 0
M  V30 4769 O 455.703 2.51845 5.10454 0
M  V30 4770 N 456.905 0.737171 5.758 0
M  V30 4771 H 459.67 2.25027 1.97947 0
M  V30 4772 H 457.231 1.3068 0.955739 0
M  V30 4773 H 459.223 0.705942 3.98495 0
M  V30 4774 H 457.793 0.0823066 3.12492 0
M  V30 4775 H 457.013 2.56454 2.99374 0
M  V30 4776 H 458.301 2.9411 4.15183 0
M  V30 4777 H 457.699 0.137637 5.65533 0
M  V30 4778 H 456.256 0.542534 6.49538 0
M  V30 4779 N 459.689 -1.00246 1.21608 0
M  V30 4780 C 460.936 -1.74061 1.03485 0
M  V30 4781 C 461.264 -1.89658 -0.431308 0
M  V30 4782 O 460.519 -1.42976 -1.33627 0
M  V30 4783 C 460.818 -3.15448 1.68009 0
M  V30 4784 C 460.484 -3.19792 3.17874 0
M  V30 4785 C 459.146 -3.20685 3.58768 0
M  V30 4786 C 461.498 -3.16835 4.13842 0
M  V30 4787 C 458.826 -3.16309 4.94131 0
M  V30 4788 C 461.178 -3.14001 5.49169 0
M  V30 4789 C 459.842 -3.13204 5.89457 0
M  V30 4790 H 459.112 -0.636934 0.378677 0
M  V30 4791 H 461.759 -1.17473 1.51236 0
M  V30 4792 H 460.064 -3.75284 1.12557 0
M  V30 4793 H 461.761 -3.71285 1.51487 0
M  V30 4794 H 458.351 -3.19842 2.85305 0
M  V30 4795 H 462.535 -3.15303 3.83272 0
M  V30 4796 H 457.791 -3.14032 5.24589 0
M  V30 4797 H 461.965 -3.10667 6.23265 0
M  V30 4798 H 459.592 -3.09568 6.94314 0
M  V30 4799 N 461.167 -1.02423 -1.1978 0
M  V30 4800 C 462.444 -0.632802 -1.85081 0
M  V30 4801 C 462.824 0.888745 -1.9148 0
M  V30 4802 O 462.172 1.78357 -1.42832 0
M  V30 4803 C 462.382 -1.28947 -3.24305 0
M  V30 4804 C 463.73 -1.40976 -4.00513 0
M  V30 4805 O 464.754 -1.24628 -3.33686 0
M  V30 4806 O 463.613 -1.67467 -5.20209 0
M  V30 4807 H 460.707 -0.219348 -0.79738 0
M  V30 4808 H 463.253 -1.12209 -1.27307 0
M  V30 4809 H 462.025 -2.3288 -3.14456 0
M  V30 4810 H 461.648 -0.787748 -3.89718 0
M  V30 4811 N 462.645 1.35699 -0.801477 0
M  V30 4812 C 463.893 1.9852 -0.37871 0
M  V30 4813 C 464.214 1.63907 1.05638 0
M  V30 4814 O 463.484 0.919013 1.73006 0
M  V30 4815 H 462.064 0.734322 -0.137042 0
M  V30 4816 H 464.726 1.65697 -1.02619 0
M  V30 4817 H 463.822 3.08382 -0.480284 0
M  V30 4818 N 464.123 0.554532 1.47522 0
M  V30 4819 C 465.4 -0.0360704 1.95567 0
M  V30 4820 C 465.78 -1.48828 1.49711 0
M  V30 4821 O 465.128 -2.16366 0.734717 0
M  V30 4822 C 465.338 0.106631 3.48837 0
M  V30 4823 C 466.686 -0.0400899 4.24581 0
M  V30 4824 O 467.71 0.0340453 3.56184 0
M  V30 4825 O 466.569 -0.199111 5.46137 0
M  V30 4826 H 463.663 -0.0656294 0.824392 0
M  V30 4827 H 466.209 0.620867 1.57935 0
M  V30 4828 H 464.981 1.11727 3.7501 0
M  V30 4829 H 464.604 -0.58804 3.93227 0
M  V30 4830 N 465.601 -1.54893 0.290851 0
M  V30 4831 C 466.548 -2.23138 -0.58974 0
M  V30 4832 C 467.518 -1.21036 -1.13752 0
M  V30 4833 O 468.703 -1.49626 -1.18392 0
M  V30 4834 C 465.843 -2.96811 -1.76061 0
M  V30 4835 C 464.956 -4.13665 -1.24519 0
M  V30 4836 C 464.091 -4.74944 -2.3791 0
M  V30 4837 C 463.13 -5.83963 -1.83451 0
M  V30 4838 N 462.267 -6.39239 -2.90376 0
M  V30 4839 H 467.107 -2.98 -0.00114915 0
M  V30 4840 H 464.644 -1.47096 0.0112006 0
M  V30 4841 H 466.602 -3.37751 -2.44909 0
M  V30 4842 H 465.232 -2.24344 -2.32098 0
M  V30 4843 H 464.284 -3.77737 -0.449288 0
M  V30 4844 H 465.596 -4.92238 -0.806424 0
M  V30 4845 H 464.75 -5.18684 -3.14724 0
M  V30 4846 H 463.489 -3.95682 -2.85109 0
M  V30 4847 H 462.494 -5.39657 -1.05122 0
M  V30 4848 H 463.719 -6.65103 -1.37169 0
M  V30 4849 H 461.665 -5.62864 -3.36927 0
M  V30 4850 H 461.582 -7.13129 -2.50965 0
M  V30 4851 H 462.85 -6.87637 -3.67118 0
M  V30 4852 N 467.08 -0.0183926 -1.57589 0
M  V30 4853 C 468.027 0.967022 -2.09565 0
M  V30 4854 C 468.997 1.32983 -0.995225 0
M  V30 4855 O 470.182 1.42501 -1.26878 0
M  V30 4856 C 467.322 2.24772 -2.61861 0
M  V30 4857 C 466.435 1.94232 -3.85873 0
M  V30 4858 C 465.57 3.16518 -4.26603 0
M  V30 4859 C 464.609 2.81748 -5.43401 0
M  V30 4860 N 463.746 3.96626 -5.79338 0
M  V30 4861 H 468.586 0.516874 -2.93483 0
M  V30 4862 H 466.123 0.243544 -1.4507 0
M  V30 4863 H 468.081 2.99667 -2.90268 0
M  V30 4864 H 466.711 2.67423 -1.8079 0
M  V30 4865 H 465.763 1.09625 -3.64262 0
M  V30 4866 H 467.075 1.64616 -4.70853 0
M  V30 4867 H 466.229 3.99743 -4.56389 0
M  V30 4868 H 464.968 3.49286 -3.40368 0
M  V30 4869 H 463.973 1.96933 -5.1332 0
M  V30 4870 H 465.198 2.50207 -6.31327 0
M  V30 4871 H 463.144 4.29257 -4.96059 0
M  V30 4872 H 463.061 3.70598 -6.58933 0
M  V30 4873 H 464.329 4.80586 -6.13724 0
M  V30 4874 N 468.558 1.5553 0.254621 0
M  V30 4875 C 469.783 1.81383 1.00573 0
M  V30 4876 C 470.208 0.594419 1.78461 0
M  V30 4877 O 469.566 -0.456403 1.75461 0
M  V30 4878 C 469.614 3.04892 1.92545 0
M  V30 4879 O 468.718 2.81266 3.01601 0
M  V30 4880 H 468.059 0.598969 0.286587 0
M  V30 4881 H 470.589 2.02703 0.277952 0
M  V30 4882 H 470.599 3.34119 2.34155 0
M  V30 4883 H 469.274 3.93287 1.3527 0
M  V30 4884 H 467.851 2.63185 2.64174 0
M  V30 4885 N 470.036 -0.519951 1.48776 0
M  V30 4886 C 471.283 -1.27522 1.57303 0
M  V30 4887 C 471.611 -1.92869 0.251328 0
M  V30 4888 O 470.866 -1.80372 -0.759243 0
M  V30 4889 C 471.165 -2.37864 2.6675 0
M  V30 4890 C 470.831 -1.90103 4.08867 0
M  V30 4891 C 469.493 -1.76795 4.47546 0
M  V30 4892 C 471.845 -1.54133 4.97888 0
M  V30 4893 C 469.173 -1.25868 5.73039 0
M  V30 4894 C 471.525 -1.04665 6.23881 0
M  V30 4895 C 470.189 -0.899823 6.61407 0
M  V30 4896 H 469.459 -0.466636 0.575614 0
M  V30 4897 H 472.106 -0.579109 1.82534 0
M  V30 4898 H 470.411 -3.13186 2.35418 0
M  V30 4899 H 472.108 -2.95969 2.70561 0
M  V30 4900 H 468.698 -2.01414 3.78326 0
M  V30 4901 H 472.882 -1.6327 4.68675 0
M  V30 4902 H 468.138 -1.13196 6.0083 0
M  V30 4903 H 472.312 -0.759074 6.92251 0
M  V30 4904 H 469.939 -0.503011 7.58534 0
M  V30 4905 N 471.514 -1.37532 -0.769588 0
M  V30 4906 C 472.444 -1.36172 -1.89682 0
M  V30 4907 C 473.425 -0.23001 -1.68538 0
M  V30 4908 O 474.61 -0.43069 -1.89364 0
M  V30 4909 C 471.74 -1.1701 -3.26995 0
M  V30 4910 C 470.694 -2.27216 -3.62708 0
M  V30 4911 C 470.02 -1.93174 -4.98586 0
M  V30 4912 C 471.32 -3.6941 -3.69234 0
M  V30 4913 H 473.014 -2.30499 -1.91078 0
M  V30 4914 H 470.56 -1.10953 -0.917902 0
M  V30 4915 H 472.513 -1.14688 -4.05493 0
M  V30 4916 H 471.237 -0.191395 -3.26039 0
M  V30 4917 H 469.896 -2.28697 -2.86519 0
M  V30 4918 H 469.544 -0.938281 -4.94171 0
M  V30 4919 H 469.244 -2.66973 -5.23449 0
M  V30 4920 H 470.768 -1.92443 -5.79481 0
M  V30 4921 H 472.182 -3.70047 -4.37879 0
M  V30 4922 H 470.579 -4.4228 -4.05597 0
M  V30 4923 H 471.649 -4.0288 -2.69844 0
M  V30 4924 N 472.992 0.995999 -1.22138 0
M  V30 4925 C 473.902 2.11985 -1.00496 0
M  V30 4926 C 474.918 1.7394 0.0457701 0
M  V30 4927 O 476.094 2.00868 -0.146273 0
M  V30 4928 C 473.159 3.41779 -0.582086 0
M  V30 4929 C 472.22 3.93943 -1.70608 0
M  V30 4930 C 471.453 5.17542 -1.30328 0
M  V30 4931 O 471.676 5.70114 -0.180743 0
M  V30 4932 O 470.61 5.63382 -2.11861 0
M  V30 4933 H 474.436 2.33123 -1.94647 0
M  V30 4934 H 472.021 1.10358 -1.00705 0
M  V30 4935 H 473.903 4.1989 -0.356467 0
M  V30 4936 H 472.578 3.22007 0.330592 0
M  V30 4937 H 471.485 3.17019 -1.98619 0
M  V30 4938 H 472.818 4.18141 -2.59651 0
M  V30 4939 N 474.47 1.03057 1.19235 0
M  V30 4940 C 475.747 0.642608 1.84743 0
M  V30 4941 C 476.127 -0.878577 1.91948 0
M  V30 4942 O 475.475 -1.77597 1.43776 0
M  V30 4943 C 475.685 1.30665 3.23616 0
M  V30 4944 C 477.033 1.43098 3.9976 0
M  V30 4945 O 478.057 1.26396 3.3302 0
M  V30 4946 O 476.916 1.70223 5.19313 0
M  V30 4947 H 474.01 0.223573 0.796206 0
M  V30 4948 H 476.556 1.12883 1.26711 0
M  V30 4949 H 475.328 2.34544 3.13217 0
M  V30 4950 H 474.951 0.808405 3.89295 0
M  V30 4951 N 475.948 -1.35272 0.808662 0
M  V30 4952 C 477.197 -1.97963 0.386483 0
M  V30 4953 C 477.51 -1.64866 -1.05255 0
M  V30 4954 O 478.716 -2.20937 -1.57794 0
M  V30 4955 C 477.172 -3.54162 0.640096 0
M  V30 4956 C 476.78 -3.96166 2.0918 0
M  V30 4957 C 478.524 -4.23553 0.283376 0
M  V30 4958 C 476.431 -5.4522 2.29106 0
M  V30 4959 H 475.361 -0.740742 0.140774 0
M  V30 4960 H 478.012 -1.5431 0.993012 0
M  V30 4961 H 476.394 -3.95983 -0.0364117 0
M  V30 4962 H 477.568 -3.65491 2.80629 0
M  V30 4963 H 475.883 -3.3967 2.40859 0
M  V30 4964 H 478.48 -5.33124 0.410273 0
M  V30 4965 H 478.823 -4.09105 -0.770659 0
M  V30 4966 H 479.356 -3.8716 0.913884 0
M  V30 4967 H 476.095 -5.64638 3.32962 0
M  V30 4968 H 475.615 -5.77457 1.62184 0
M  V30 4969 H 477.294 -6.1171 2.1076 0
M  V30 4970 N 477.426 -0.562348 -1.47226 0
M  V30 4971 C 478.842 -0.222492 -1.58042 0
M  V30 4972 C 479.042 1.27505 -1.56028 0
M  V30 4973 O 478.098 2.05555 -1.46641 0
M  V30 4974 C 479.411 -0.853694 -2.88327 0
M  V30 4975 C 480.959 -0.825397 -3.01921 0
M  V30 4976 C 481.434 -1.43576 -4.34914 0
M  V30 4977 N 482.925 -1.39918 -4.41562 0
M  V30 4978 C 483.66 -1.84103 -5.43041 0
M  V30 4979 N 483.156 -2.36167 -6.51304 0
M  V30 4980 N 484.949 -1.75142 -5.34118 0
M  V30 4981 H 477.1 -1.53525 -1.46778 0
M  V30 4982 H 479.363 -0.640527 -0.698877 0
M  V30 4983 H 479.069 -1.90635 -2.95552 0
M  V30 4984 H 478.943 -0.34977 -3.75575 0
M  V30 4985 H 481.33 0.218583 -2.94289 0
M  V30 4986 H 481.411 -1.36713 -2.16202 0
M  V30 4987 H 481.055 -2.47884 -4.43301 0
M  V30 4988 H 480.985 -0.869427 -5.19373 0
M  V30 4989 H 483.476 -1.0184 -3.63919 0
M  V30 4990 H 483.789 -2.67793 -7.24919 0
M  V30 4991 H 482.134 -2.40181 -6.52179 0
M  V30 4992 H 485.325 -1.34241 -4.48439 0
M  V30 4993 H 485.498 -2.09895 -6.13065 0
M  V30 4994 N 478.904 1.54736 -0.299062 0
M  V30 4995 C 479.851 2.23448 0.577899 0
M  V30 4996 C 480.821 1.21637 1.13109 0
M  V30 4997 O 482.006 1.50252 1.17597 0
M  V30 4998 C 479.146 2.9774 1.74484 0
M  V30 4999 C 478.259 4.1432 1.22323 0
M  V30 5000 C 477.394 4.76199 2.35388 0
M  V30 5001 C 476.433 5.84927 1.80351 0
M  V30 5002 N 475.57 6.4077 2.86982 0
M  V30 5003 H 480.41 2.97996 -0.0146545 0
M  V30 5004 H 477.947 1.47088 -0.0190013 0
M  V30 5005 H 479.905 3.39045 2.43114 0
M  V30 5006 H 478.535 2.25572 2.30905 0
M  V30 5007 H 477.587 3.7797 0.429249 0
M  V30 5008 H 478.899 4.92659 0.780309 0
M  V30 5009 H 478.053 5.20346 3.11969 0
M  V30 5010 H 476.792 3.97188 2.83006 0
M  V30 5011 H 475.797 5.40207 1.02259 0
M  V30 5012 H 477.022 6.65821 1.3364 0
M  V30 5013 H 474.968 5.64643 3.33938 0
M  V30 5014 H 474.885 7.1445 2.4718 0
M  V30 5015 H 476.153 6.89574 3.63466 0
M  V30 5016 N 480.382 0.0267497 1.57577 0
M  V30 5017 C 481.345 -0.940916 2.08996 0
M  V30 5018 C 482.345 -1.25561 1.00455 0
M  V30 5019 O 483.535 -1.19634 1.26623 0
M  V30 5020 C 480.667 -2.25814 2.55384 0
M  V30 5021 H 481.86 -0.495628 2.95776 0
M  V30 5022 H 479.413 -0.221241 1.54726 0
M  V30 5023 H 480.148 -2.74976 1.71926 0
M  V30 5024 H 479.933 -2.04285 3.34679 0
M  V30 5025 H 481.423 -2.95178 2.95398 0
M  V30 5026 N 481.861 -1.55662 -0.24637 0
M  V30 5027 C 482.791 -1.93377 -1.30873 0
M  V30 5028 C 483.772 -0.798773 -1.50179 0
M  V30 5029 O 484.957 -1.0591 -1.62778 0
M  V30 5030 C 482.087 -2.22893 -2.66338 0
M  V30 5031 C 481.041 -3.38649 -2.61727 0
M  V30 5032 C 480.367 -3.53708 -4.00992 0
M  V30 5033 C 481.667 -4.74323 -2.18666 0
M  V30 5034 H 483.361 -2.82363 -0.995552 0
M  V30 5035 H 480.907 -1.35854 -0.477464 0
M  V30 5036 H 482.86 -2.47866 -3.40794 0
M  V30 5037 H 481.584 -1.30733 -2.99293 0
M  V30 5038 H 480.243 -3.13685 -1.89729 0
M  V30 5039 H 479.891 -2.58967 -4.31214 0
M  V30 5040 H 479.591 -4.31551 -3.98795 0
M  V30 5041 H 481.115 -3.81003 -4.77147 0
M  V30 5042 H 482.529 -4.98665 -2.82854 0
M  V30 5043 H 480.926 -5.55273 -2.27579 0
M  V30 5044 H 481.996 -4.71349 -1.13834 0
M  V30 5045 N 483.339 0.512053 -1.4905 0
M  V30 5046 C 484.569 1.28928 -1.61434 0
M  V30 5047 C 484.977 1.87107 -0.280647 0
M  V30 5048 O 484.32 1.68024 0.742537 0
M  V30 5049 C 484.382 2.466 -2.61588 0
M  V30 5050 C 484.046 2.09375 -4.06216 0
M  V30 5051 C 485.043 1.63994 -4.93358 0
M  V30 5052 C 482.728 2.19348 -4.51876 0
M  V30 5053 C 484.722 1.29076 -6.24194 0
M  V30 5054 C 482.409 1.84041 -5.82728 0
M  V30 5055 C 483.407 1.38978 -6.68711 0
M  V30 5056 O 483.095 1.04144 -7.97126 0
M  V30 5057 H 482.827 0.397668 -0.546659 0
M  V30 5058 H 485.381 0.622507 -1.9574 0
M  V30 5059 H 483.611 3.16318 -2.22441 0
M  V30 5060 H 485.3 3.08642 -2.63619 0
M  V30 5061 H 486.066 1.55744 -4.59313 0
M  V30 5062 H 481.945 2.53376 -3.85125 0
M  V30 5063 H 485.489 0.938303 -6.91261 0
M  V30 5064 H 481.386 1.91938 -6.16304 0
M  V30 5065 H 482.154 1.17387 -8.10039 0
M  V30 5066 N 484.817 1.37938 0.762283 0
M  V30 5067 C 485.78 1.34279 1.85747 0
M  V30 5068 C 486.78 0.244969 1.58923 0
M  V30 5069 O 487.97 0.501365 1.66829 0
M  V30 5070 C 485.102 1.08833 3.23061 0
M  V30 5071 H 486.295 2.31705 1.90401 0
M  V30 5072 H 483.848 1.23105 0.963057 0
M  V30 5073 H 484.583 0.119767 3.24079 0
M  V30 5074 H 484.368 1.88306 3.43923 0
M  V30 5075 H 485.858 1.08946 4.03138 0
M  V30 5076 N 486.295 -0.989507 1.22664 0
M  V30 5077 C 487.52 -1.77031 1.08051 0
M  V30 5078 C 487.945 -1.84535 -0.364483 0
M  V30 5079 O 487.303 -1.3003 -1.2634 0
M  V30 5080 C 487.351 -3.18 1.70024 0
M  V30 5081 O 486.455 -4.01161 0.956216 0
M  V30 5082 H 485.796 -0.545008 0.379292 0
M  V30 5083 H 488.326 -1.24277 1.62531 0
M  V30 5084 H 488.336 -3.68616 1.74888 0
M  V30 5085 H 487.011 -3.11853 2.75174 0
M  V30 5086 H 485.588 -3.59687 0.98384 0
M  V30 5087 N 487.773 -1.03688 -1.18687 0
M  V30 5088 C 488.72 -0.624624 -2.22187 0
M  V30 5089 C 489.69 0.365636 -1.62026 0
M  V30 5090 O 490.875 0.260481 -1.89014 0
M  V30 5091 C 488.015 0.0101738 -3.45099 0
M  V30 5092 C 487.128 -1.02709 -4.19613 0
M  V30 5093 C 486.263 -0.361213 -5.2997 0
M  V30 5094 C 485.302 -1.38384 -5.96252 0
M  V30 5095 N 484.439 -0.743196 -6.98155 0
M  V30 5096 H 489.279 -1.51176 -2.56807 0
M  V30 5097 H 486.816 -0.75636 -1.26165 0
M  V30 5098 H 488.774 0.395528 -4.15321 0
M  V30 5099 H 487.404 0.860848 -3.1111 0
M  V30 5100 H 486.456 -1.53043 -3.48256 0
M  V30 5101 H 487.768 -1.80398 -4.65036 0
M  V30 5102 H 486.922 0.0785537 -6.06649 0
M  V30 5103 H 485.661 0.447799 -4.8564 0
M  V30 5104 H 484.666 -1.83378 -5.18317 0
M  V30 5105 H 485.891 -2.19448 -6.42666 0
M  V30 5106 H 483.837 0.0455789 -6.55984 0
M  V30 5107 H 483.754 -1.45784 -7.41811 0
M  V30 5108 H 485.022 -0.327698 -7.78811 0
M  V30 5109 N 489.251 1.34841 -0.815825 0
M  V30 5110 C 490.5 1.97755 -0.396976 0
M  V30 5111 C 490.813 1.65422 1.04379 0
M  V30 5112 O 492.019 2.21771 1.5662 0
M  V30 5113 C 490.475 3.53818 -0.658869 0
M  V30 5114 C 490.083 3.95051 -2.11278 0
M  V30 5115 C 491.827 4.23397 -0.305834 0
M  V30 5116 C 489.734 5.43997 -2.31994 0
M  V30 5117 H 488.664 0.739985 -0.1447 0
M  V30 5118 H 491.315 1.53781 -1.00118 0
M  V30 5119 H 489.697 3.95997 0.0154112 0
M  V30 5120 H 490.871 3.63998 -2.82564 0
M  V30 5121 H 489.186 3.38388 -2.42657 0
M  V30 5122 H 491.783 5.32899 -0.43854 0
M  V30 5123 H 492.126 4.09508 0.748952 0
M  V30 5124 H 492.659 3.8667 -0.934403 0
M  V30 5125 H 489.398 5.62865 -3.35952 0
M  V30 5126 H 488.918 5.76589 -1.65244 0
M  V30 5127 H 490.597 6.10584 -2.14001 0
M  V30 5128 N 490.729 0.570148 1.46925 0
M  V30 5129 C 491.978 0.0487352 2.01641 0
M  V30 5130 C 492.291 -1.31433 1.44861 0
M  V30 5131 O 493.497 -1.92638 1.91318 0
M  V30 5132 C 491.953 0.0365817 3.59881 0
M  V30 5133 C 491.561 1.39719 4.25655 0
M  V30 5134 C 493.305 -0.431545 4.22301 0
M  V30 5135 C 491.212 1.34345 5.75939 0
M  V30 5136 H 490.142 0.0144492 0.753862 0
M  V30 5137 H 492.793 0.719928 1.68788 0
M  V30 5138 H 491.175 -0.700522 3.89755 0
M  V30 5139 H 492.349 2.15303 4.07408 0
M  V30 5140 H 490.664 1.80431 3.75278 0
M  V30 5141 H 493.261 -0.490354 5.32447 0
M  V30 5142 H 493.604 -1.44638 3.90366 0
M  V30 5143 H 494.137 0.251102 3.97007 0
M  V30 5144 H 490.876 2.33469 6.12513 0
M  V30 5145 H 490.396 0.629615 5.96486 0
M  V30 5146 H 492.075 1.051 6.38407 0
M  V30 5147 N 492.207 -1.54576 0.307264 0
M  V30 5148 C 493.432 -2.05139 -0.305379 0
M  V30 5149 C 493.857 -1.18278 -1.46259 0
M  V30 5150 O 493.215 -0.188243 -1.8032 0
M  V30 5151 C 493.263 -3.53066 -0.733283 0
M  V30 5152 O 492.367 -3.69206 -1.83741 0
M  V30 5153 H 491.708 -0.661444 -0.0582105 0
M  V30 5154 H 494.238 -1.99569 0.450931 0
M  V30 5155 H 494.248 -3.95034 -1.02039 0
M  V30 5156 H 492.923 -4.15746 0.113198 0
M  V30 5157 H 491.5 -3.39143 -1.55037 0
M  V30 5158 N 493.685 -0.035106 -1.57561 0
M  V30 5159 C 494.915 0.651312 -1.96065 0
M  V30 5160 C 495.323 1.6585 -0.910514 0
M  V30 5161 O 494.666 1.83336 0.11552 0
M  V30 5162 C 494.728 1.40897 -3.30739 0
M  V30 5163 C 494.392 0.559436 -4.53563 0
M  V30 5164 C 495.389 -0.16778 -5.19629 0
M  V30 5165 C 493.074 0.495079 -4.99854 0
M  V30 5166 C 495.068 -0.947963 -6.30311 0
M  V30 5167 C 492.755 -0.288804 -6.10417 0
M  V30 5168 C 493.753 -1.00903 -6.75505 0
M  V30 5169 O 493.441 -1.78005 -7.83945 0
M  V30 5170 H 493.173 0.184036 -0.650467 0
M  V30 5171 H 495.727 -0.0929677 -2.05189 0
M  V30 5172 H 493.957 2.19852 -3.18123 0
M  V30 5173 H 495.646 1.98407 -3.54104 0
M  V30 5174 H 496.412 -0.12743 -4.84833 0
M  V30 5175 H 492.291 1.04524 -4.48994 0
M  V30 5176 H 495.835 -1.51064 -6.81047 0
M  V30 5177 H 491.732 -0.33085 -6.44652 0
M  V30 5178 H 492.5 -1.70046 -8.00641 0
M  V30 5179 N 495.163 1.55791 0.238111 0
M  V30 5180 C 496.126 1.90239 1.27835 0
M  V30 5181 C 497.126 0.779552 1.4064 0
M  V30 5182 O 498.316 1.04747 1.3919 0
M  V30 5183 C 495.448 2.13859 2.65475 0
M  V30 5184 H 496.641 2.83262 0.985034 0
M  V30 5185 H 494.194 1.48818 0.477799 0
M  V30 5186 H 494.929 1.23334 2.99932 0
M  V30 5187 H 494.714 2.95643 2.57561 0
M  V30 5188 H 496.204 2.41664 3.40571 0
M  V30 5189 N 496.642 -0.504142 1.49319 0
M  V30 5190 C 497.574 -1.62265 1.61872 0
M  V30 5191 C 498.587 -1.54881 0.501573 0
M  V30 5192 O 499.776 -1.6087 0.773497 0
M  V30 5193 C 496.876 -3.01042 1.55651 0
M  V30 5194 C 496.049 -3.33642 2.82845 0
M  V30 5195 C 495.108 -4.51816 2.69719 0
M  V30 5196 O 494.134 -4.53755 3.4365 0
M  V30 5197 N 495.336 -5.51543 1.81055 0
M  V30 5198 H 498.101 -1.51924 2.58339 0
M  V30 5199 H 495.662 -0.691954 1.46368 0
M  V30 5200 H 497.654 -3.78013 1.44528 0
M  V30 5201 H 496.224 -3.05323 0.670546 0
M  V30 5202 H 495.444 -2.45598 3.08343 0
M  V30 5203 H 496.732 -3.5222 3.67177 0
M  V30 5204 H 496.13 -5.52774 1.20241 0
M  V30 5205 H 494.687 -6.27629 1.75856 0
M  V30 5206 N 498.12 -1.38341 -0.754957 0
M  V30 5207 C 499.368 -1.34208 -1.51105 0
M  V30 5208 C 499.689 0.0677634 -1.94882 0
M  V30 5209 O 498.959 1.01517 -1.67544 0
M  V30 5210 H 497.539 -0.493819 -0.560493 0
M  V30 5211 H 500.201 -1.73005 -0.897507 0
M  V30 5212 H 499.297 -1.99203 -2.4026 0
M  V30 5213 N 499.598 0.982988 -1.23187 0
M  V30 5214 C 500.845 1.72392 -1.06241 0
M  V30 5215 C 501.173 1.9032 0.40108 0
M  V30 5216 O 500.428 1.45084 1.31336 0
M  V30 5217 C 500.727 3.12736 -1.73006 0
M  V30 5218 C 500.393 3.14695 -3.22921 0
M  V30 5219 C 499.055 3.14937 -3.63824 0
M  V30 5220 C 501.407 3.10211 -4.1883 0
M  V30 5221 C 498.735 3.08408 -4.99101 0
M  V30 5222 C 501.087 3.05224 -5.54095 0
M  V30 5223 C 499.751 3.03787 -5.94365 0
M  V30 5224 H 499.021 0.630829 -0.388762 0
M  V30 5225 H 501.668 1.15053 -1.53085 0
M  V30 5226 H 499.973 3.73446 -1.18514 0
M  V30 5227 H 501.67 3.68828 -1.57374 0
M  V30 5228 H 498.26 3.15262 -2.90358 0
M  V30 5229 H 502.444 3.09166 -3.8824 0
M  V30 5230 H 497.7 3.05646 -5.29519 0
M  V30 5231 H 501.874 3.00712 -6.28128 0
M  V30 5232 H 499.501 2.98483 -6.99151 0
M  V30 5233 N 501.076 1.04316 1.18135 0
M  V30 5234 C 502.009 0.580823 2.20685 0
M  V30 5235 C 502.987 -0.385943 1.57953 0
M  V30 5236 O 504.171 -0.299654 1.86103 0
M  V30 5237 C 501.298 -0.151162 3.38363 0
M  V30 5238 C 500.344 0.769247 4.19505 0
M  V30 5239 S 501.177 2.25352 4.85774 0
M  V30 5240 C 502.333 1.53246 6.0685 0
M  V30 5241 H 502.566 1.44968 2.5956 0
M  V30 5242 H 500.099 0.85434 1.28609 0
M  V30 5243 H 502.057 -0.567315 4.06561 0
M  V30 5244 H 500.718 -0.995936 2.97892 0
M  V30 5245 H 499.911 0.203335 5.0359 0
M  V30 5246 H 499.513 1.12436 3.56699 0
M  V30 5247 H 501.805 0.82689 6.72435 0
M  V30 5248 H 502.748 2.35044 6.67952 0
M  V30 5249 H 503.156 1.0237 5.5514 0
M  V30 5250 N 502.554 -1.34406 0.822964 0
M  V30 5251 C 503.484 -2.32052 0.259608 0
M  V30 5252 C 504.465 -1.58243 -0.623961 0
M  V30 5253 O 505.65 -1.86224 -0.55083 0
M  V30 5254 C 502.78 -3.42434 -0.579314 0
M  V30 5255 C 501.734 -4.27499 0.20712 0
M  V30 5256 C 501.06 -5.29349 -0.754547 0
M  V30 5257 C 502.36 -5.02758 1.41533 0
M  V30 5258 H 504.054 -2.79418 1.07545 0
M  V30 5259 H 501.6 -1.34338 0.518593 0
M  V30 5260 H 503.553 -4.0976 -0.983612 0
M  V30 5261 H 502.277 -2.93717 -1.4282 0
M  V30 5262 H 500.936 -3.61776 0.592787 0
M  V30 5263 H 500.584 -4.76895 -1.59939 0
M  V30 5264 H 500.284 -5.8714 -0.232561 0
M  V30 5265 H 501.808 -5.99544 -1.1567 0
M  V30 5266 H 503.222 -5.62938 1.08504 0
M  V30 5267 H 501.619 -5.70123 1.87296 0
M  V30 5268 H 502.689 -4.32451 2.1935 0
M  V30 5269 N 504.032 -0.577932 -1.46621 0
M  V30 5270 C 504.962 0.145917 -2.33044 0
M  V30 5271 C 505.943 0.888412 -1.45056 0
M  V30 5272 O 507.128 0.864812 -1.73881 0
M  V30 5273 C 504.258 1.16322 -3.27241 0
M  V30 5274 C 503.212 0.535868 -4.24632 0
M  V30 5275 C 502.538 1.65929 -5.08303 0
M  V30 5276 C 503.838 -0.523861 -5.19666 0
M  V30 5277 H 505.532 -0.575636 -2.93814 0
M  V30 5278 H 503.078 -0.278272 -1.41286 0
M  V30 5279 H 505.031 1.67793 -3.86553 0
M  V30 5280 H 503.755 1.91498 -2.64567 0
M  V30 5281 H 502.414 0.0422759 -3.66576 0
M  V30 5282 H 502.062 2.40061 -4.42018 0
M  V30 5283 H 501.762 1.2452 -5.74255 0
M  V30 5284 H 503.286 2.17686 -5.70478 0
M  V30 5285 H 504.7 -0.0944059 -5.73222 0
M  V30 5286 H 503.097 -0.858 -5.93935 0
M  V30 5287 H 504.167 -1.41197 -4.63887 0
M  V30 5288 N 505.51 1.54411 -0.315457 0
M  V30 5289 C 506.926 1.59556 0.037464 0
M  V30 5290 C 507.126 1.33217 1.5118 0
M  V30 5291 O 506.182 1.11264 2.26664 0
M  V30 5292 C 507.495 2.98372 -0.373477 0
M  V30 5293 C 509.043 3.11324 -0.323452 0
M  V30 5294 C 509.518 4.52472 -0.709433 0
M  V30 5295 N 511.009 4.58437 -0.662524 0
M  V30 5296 C 511.744 5.65751 -0.933474 0
M  V30 5297 N 511.24 6.81039 -1.27114 0
M  V30 5298 N 513.033 5.55489 -0.859573 0
M  V30 5299 H 505.184 1.6979 -1.27614 0
M  V30 5300 H 507.447 0.793732 -0.518356 0
M  V30 5301 H 507.153 3.22618 -1.40037 0
M  V30 5302 H 507.027 3.76264 0.265615 0
M  V30 5303 H 509.414 2.86818 0.694223 0
M  V30 5304 H 509.495 2.35555 -0.997367 0
M  V30 5305 H 509.139 4.7771 -1.72498 0
M  V30 5306 H 509.069 5.26598 -0.0132923 0
M  V30 5307 H 511.56 3.75636 -0.413065 0
M  V30 5308 H 511.873 7.58816 -1.46348 0
M  V30 5309 H 510.218 6.82555 -1.30932 0
M  V30 5310 H 513.409 4.64299 -0.595324 0
M  V30 5311 H 513.582 6.39036 -1.0741 0
M  V30 5312 N 506.988 0.0434614 1.5754 0
M  V30 5313 C 507.92 -0.962586 2.08007 0
M  V30 5314 C 508.933 -1.27972 1.00634 0
M  V30 5315 O 510.122 -1.24186 1.28219 0
M  V30 5316 C 507.222 -2.28621 2.50171 0
M  V30 5317 C 506.395 -2.15214 3.80791 0
M  V30 5318 C 505.454 -3.30633 4.09351 0
M  V30 5319 O 504.48 -3.0688 4.79388 0
M  V30 5320 N 505.682 -4.54873 3.60654 0
M  V30 5321 H 508.447 -0.531891 2.94942 0
M  V30 5322 H 506.008 -0.142965 1.61268 0
M  V30 5323 H 508 -3.04689 2.66359 0
M  V30 5324 H 506.57 -2.63283 1.68525 0
M  V30 5325 H 505.79 -1.23785 3.74261 0
M  V30 5326 H 507.078 -2.03475 4.66343 0
M  V30 5327 H 506.476 -4.77063 3.04019 0
M  V30 5328 H 505.033 -5.2806 3.82094 0
M  V30 5329 N 508.466 -1.55915 -0.229846 0
M  V30 5330 C 509.429 -1.90914 -1.26824 0
M  V30 5331 C 510.429 -0.786999 -1.40225 0
M  V30 5332 O 511.619 -1.05484 -1.38632 0
M  V30 5333 C 508.751 -2.15264 -2.64337 0
M  V30 5334 H 509.944 -2.8378 -0.969998 0
M  V30 5335 H 507.497 -1.49069 -0.4699 0
M  V30 5336 H 508.232 -1.24923 -2.99274 0
M  V30 5337 H 508.017 -2.97005 -2.55989 0
M  V30 5338 H 509.507 -2.43467 -3.39284 0
M  V30 5339 N 509.944 0.496216 -1.49584 0
M  V30 5340 C 510.907 1.57952 -1.66084 0
M  V30 5341 C 511.907 1.51729 -0.53244 0
M  V30 5342 O 513.097 1.54796 -0.79899 0
M  V30 5343 C 510.229 2.97604 -1.66268 0
M  V30 5344 H 511.422 1.44649 -2.6271 0
M  V30 5345 H 508.975 0.7208 -1.38687 0
M  V30 5346 H 509.71 3.16378 -0.712432 0
M  V30 5347 H 509.495 3.03528 -2.4822 0
M  V30 5348 H 510.985 3.76301 -1.81073 0
M  V30 5349 N 511.423 1.38739 0.74761 0
M  V30 5350 C 512.651 1.38521 1.53686 0
M  V30 5351 C 513.066 -0.0235129 1.88785 0
M  V30 5352 O 512.423 -0.991662 1.53207 0
M  V30 5353 C 512.474 2.24641 2.83229 0
M  V30 5354 O 512.195 3.60026 2.49625 0
M  V30 5355 C 513.696 2.32669 3.77333 0
M  V30 5356 H 510.916 0.473589 0.475347 0
M  V30 5357 H 513.46 1.82395 0.924786 0
M  V30 5358 H 511.615 1.84213 3.40799 0
M  V30 5359 H 512.029 4.05435 3.3275 0
M  V30 5360 H 513.503 2.97201 4.65162 0
M  V30 5361 H 513.98 1.3421 4.18192 0
M  V30 5362 H 514.586 2.73512 3.25685 0
M  V30 5363 N 512.901 -0.976442 1.23707 0
M  V30 5364 C 513.811 -2.10359 1.03856 0
M  V30 5365 C 514.827 -1.73991 -0.0180919 0
M  V30 5366 O 516.003 -2.0061 0.178211 0
M  V30 5367 C 513.068 -3.40809 0.636387 0
M  V30 5368 C 512.129 -3.91179 1.76854 0
M  V30 5369 C 511.362 -5.15404 1.38546 0
M  V30 5370 O 511.585 -5.69754 0.27142 0
M  V30 5371 O 510.519 -5.5994 2.20797 0
M  V30 5372 H 514.345 -2.29997 1.98331 0
M  V30 5373 H 511.93 -1.08742 1.02448 0
M  V30 5374 H 513.812 -4.19269 0.423223 0
M  V30 5375 H 512.487 -3.22493 -0.279322 0
M  V30 5376 H 511.394 -3.13819 2.03638 0
M  V30 5377 H 512.727 -4.13958 2.6627 0
M  V30 5378 N 514.379 -1.04941 -1.1758 0
M  V30 5379 C 515.626 -0.757989 -1.87779 0
M  V30 5380 C 515.954 0.714827 -1.80888 0
M  V30 5381 O 515.209 1.53824 -1.20982 0
M  V30 5382 C 515.508 -1.18062 -3.37337 0
M  V30 5383 C 515.174 -2.65521 -3.6443 0
M  V30 5384 C 513.836 -3.05804 -3.71534 0
M  V30 5385 C 516.188 -3.60822 -3.76108 0
M  V30 5386 C 513.516 -4.40256 -3.87803 0
M  V30 5387 C 515.868 -4.95005 -3.93895 0
M  V30 5388 C 514.532 -5.34945 -3.99237 0
M  V30 5389 H 513.802 -0.277368 -0.68713 0
M  V30 5390 H 516.449 -1.31603 -1.39115 0
M  V30 5391 H 514.754 -0.541525 -3.8804 0
M  V30 5392 H 516.451 -0.932368 -3.9001 0
M  V30 5393 H 513.041 -2.33324 -3.59524 0
M  V30 5394 H 517.225 -3.30841 -3.69943 0
M  V30 5395 H 512.481 -4.70707 -3.90186 0
M  V30 5396 H 516.655 -5.68746 -4.01872 0
M  V30 5397 H 514.282 -6.39135 -4.11596 0
M  V30 5398 N 515.857 1.33968 -0.830081 0
M  V30 5399 C 517.105 1.97672 -0.420734 0
M  V30 5400 C 517.426 1.66111 1.02138 0
M  V30 5401 O 516.696 0.955503 1.71017 0
M  V30 5402 H 515.276 0.73125 -0.152587 0
M  V30 5403 H 517.938 1.63483 -1.0611 0
M  V30 5404 H 517.034 3.07294 -0.545588 0
M  V30 5405 N 517.335 0.585699 1.46312 0
M  V30 5406 C 518.581 0.0808731 2.03239 0
M  V30 5407 C 518.936 -1.26609 1.44872 0
M  V30 5408 O 518.229 -1.81779 0.60556 0
M  V30 5409 C 518.423 -0.0401312 3.57377 0
M  V30 5410 C 518.252 1.29356 4.30694 0
M  V30 5411 C 517.022 1.86849 4.69484 0
M  V30 5412 C 519.22 2.21742 4.64042 0
M  V30 5413 N 517.202 3.13926 5.27564 0
M  V30 5414 C 518.573 3.33408 5.22723 0
M  V30 5415 C 520.628 2.21386 4.45974 0
M  V30 5416 C 519.331 4.44852 5.65242 0
M  V30 5417 C 521.357 3.31862 4.89511 0
M  V30 5418 C 520.719 4.42248 5.48266 0
M  V30 5419 H 516.818 0.072443 0.778637 0
M  V30 5420 H 519.402 0.779254 1.78426 0
M  V30 5421 H 517.573 -0.707686 3.81898 0
M  V30 5422 H 519.305 -0.549615 4.00951 0
M  V30 5423 H 516.06 1.40307 4.52339 0
M  V30 5424 H 516.484 3.78775 5.61122 0
M  V30 5425 H 521.126 1.37314 3.99881 0
M  V30 5426 H 518.844 5.29665 6.10312 0
M  V30 5427 H 522.43 3.32708 4.7728 0
M  V30 5428 H 521.31 5.26323 5.81338 0
M  V30 5429 N 518.813 -1.54241 0.323641 0
M  V30 5430 C 520.041 -2.04985 -0.280871 0
M  V30 5431 C 520.456 -1.19978 -1.45777 0
M  V30 5432 O 519.813 -0.230471 -1.81039 0
M  V30 5433 C 519.864 -3.54353 -0.715258 0
M  V30 5434 O 519.585 -4.36132 0.414817 0
M  V30 5435 C 521.086 -4.21189 -1.38257 0
M  V30 5436 H 518.306 -0.66851 -0.0577502 0
M  V30 5437 H 520.85 -1.99029 0.469852 0
M  V30 5438 H 519.005 -3.60596 -1.41596 0
M  V30 5439 H 519.419 -5.2445 0.0725227 0
M  V30 5440 H 520.893 -5.27154 -1.63745 0
M  V30 5441 H 521.37 -3.72307 -2.32989 0
M  V30 5442 H 521.976 -4.19085 -0.724447 0
M  V30 5443 N 520.291 -0.0518155 -1.57515 0
M  V30 5444 C 521.221 0.920283 -2.146 0
M  V30 5445 C 522.202 1.32406 -1.06783 0
M  V30 5446 O 523.387 1.39866 -1.34726 0
M  V30 5447 C 520.517 2.1949 -2.6915 0
M  V30 5448 C 519.471 1.93116 -3.81956 0
M  V30 5449 C 518.797 3.27037 -4.23026 0
M  V30 5450 C 520.097 1.25225 -5.07066 0
M  V30 5451 H 521.791 0.444801 -2.96077 0
M  V30 5452 H 519.337 0.212508 -1.42423 0
M  V30 5453 H 521.29 2.87894 -3.07725 0
M  V30 5454 H 520.014 2.69244 -1.84865 0
M  V30 5455 H 518.673 1.27123 -3.43854 0
M  V30 5456 H 518.321 3.74595 -3.3569 0
M  V30 5457 H 518.021 3.10189 -4.99056 0
M  V30 5458 H 519.545 3.96673 -4.64202 0
M  V30 5459 H 520.959 1.83666 -5.43083 0
M  V30 5460 H 519.356 1.18702 -5.88243 0
M  V30 5461 H 520.426 0.228382 -4.84362 0
M  V30 5462 N 521.769 1.56035 0.221574 0
M  V30 5463 C 522.717 1.93269 1.29421 0
M  V30 5464 C 523.711 0.814727 1.48521 0
M  V30 5465 O 524.917 0.999559 1.49696 0
M  V30 5466 H 521.292 0.614188 0.43391 0
M  V30 5467 H 523.263 2.82773 0.952987 0
M  V30 5468 C 522.012 2.26573 2.63742 0
M  V30 5469 H 521.335 3.12112 2.49853 0
M  V30 5470 H 522.775 2.5651 3.37607 0
M  V30 5471 C 521.234 1.09086 3.1875 0
M  V30 5472 O 521.764 0.351985 4.00155 0
M  V30 5473 N 519.97 0.874693 2.77124 0
M  V30 5474 H 519.517 1.47726 2.11033 0
M  V30 5475 H 519.475 0.0903349 3.1427 0
M  V30 5476 N 523.247 -0.488276 1.49845 0
M  V30 5477 C 524.477 -1.26344 1.63465 0
M  V30 5478 C 524.885 -1.86637 0.310379 0
M  V30 5479 O 524.228 -1.69184 -0.715712 0
M  V30 5480 C 524.29 -2.42407 2.65479 0
M  V30 5481 C 523.954 -2.02886 4.09495 0
M  V30 5482 C 524.951 -1.56124 4.95904 0
M  V30 5483 C 522.636 -2.12131 4.55308 0
M  V30 5484 C 524.63 -1.19129 6.26169 0
M  V30 5485 C 522.317 -1.74747 5.85582 0
M  V30 5486 C 523.315 -1.28322 6.70837 0
M  V30 5487 O 523.003 -0.914491 7.98682 0
M  V30 5488 H 522.735 -0.388921 0.552916 0
M  V30 5489 H 525.289 -0.591288 1.96705 0
M  V30 5490 H 523.519 -3.12739 2.27445 0
M  V30 5491 H 525.208 -3.04409 2.68495 0
M  V30 5492 H 525.974 -1.48417 4.61733 0
M  V30 5493 H 521.853 -2.47217 3.89107 0
M  V30 5494 H 525.397 -0.828211 6.92666 0
M  V30 5495 H 521.294 -1.82109 6.19279 0
M  V30 5496 H 522.062 -1.04485 8.11804 0
M  V30 5497 N 524.725 -1.39134 -0.740242 0
M  V30 5498 C 525.973 -1.35803 -1.49673 0
M  V30 5499 C 526.294 0.0470897 -1.94943 0
M  V30 5500 O 525.564 0.997347 -1.68611 0
M  V30 5501 H 524.144 -0.499736 -0.555224 0
M  V30 5502 H 526.806 -1.73947 -0.879107 0
M  V30 5503 H 525.902 -2.0174 -2.38133 0
M  V30 5504 N 526.204 0.969867 -1.24223 0
M  V30 5505 C 527.452 1.70918 -1.0785 0
M  V30 5506 C 527.773 1.91186 0.383763 0
M  V30 5507 O 527.043 1.48806 1.27411 0
M  V30 5508 H 525.623 0.633334 -0.396103 0
M  V30 5509 H 528.285 1.16689 -1.56108 0
M  V30 5510 H 527.381 2.69455 -1.57482 0
M  V30 5511 N 527.682 1.05563 1.17022 0
M  V30 5512 C 528.931 0.763036 1.8671 0
M  V30 5513 C 529.244 -0.712857 1.82147 0
M  V30 5514 O 530.45 -1.11955 2.47343 0
M  V30 5515 C 528.906 1.31474 3.35026 0
M  V30 5516 C 528.514 2.82034 3.48081 0
M  V30 5517 C 530.258 1.09935 4.10018 0
M  V30 5518 C 528.165 3.30486 4.90442 0
M  V30 5519 H 527.095 0.281747 0.699382 0
M  V30 5520 H 529.746 1.2734 1.32124 0
M  V30 5521 H 528.128 0.732171 3.89173 0
M  V30 5522 H 529.302 3.46178 3.04133 0
M  V30 5523 H 527.617 3.02156 2.86515 0
M  V30 5524 H 530.214 1.43632 5.15048 0
M  V30 5525 H 530.557 0.0373072 4.16283 0
M  V30 5526 H 531.09 1.64732 3.62089 0
M  V30 5527 H 527.829 4.36137 4.89352 0
M  V30 5528 H 527.349 2.71086 5.35044 0
M  V30 5529 H 529.028 3.25382 5.59227 0
M  V30 5530 N 529.16 -1.33526 0.837174 0
M  V30 5531 C 530.123 -2.27551 0.274421 0
M  V30 5532 C 531.123 -1.50886 -0.555881 0
M  V30 5533 O 532.313 -1.70227 -0.369918 0
M  V30 5534 C 529.445 -3.35332 -0.613605 0
M  V30 5535 H 530.638 -2.78837 1.10408 0
M  V30 5536 H 528.191 -1.439 0.610126 0
M  V30 5537 H 528.926 -2.89285 -1.46577 0
M  V30 5538 H 528.711 -3.92095 -0.0195341 0
M  V30 5539 H 530.201 -4.05433 -1.00068 0
M  V30 5540 N 530.638 -0.59345 -1.46 0
M  V30 5541 C 531.568 0.121192 -2.33185 0
M  V30 5542 C 532.549 0.872977 -1.4599 0
M  V30 5543 O 533.734 0.846321 -1.74789 0
M  V30 5544 C 530.864 1.12844 -3.28456 0
M  V30 5545 C 529.818 0.4908 -4.25177 0
M  V30 5546 C 529.144 1.60529 -5.10034 0
M  V30 5547 C 530.444 -0.578949 -5.19081 0
M  V30 5548 H 532.138 -0.606767 -2.93187 0
M  V30 5549 H 529.684 -0.293242 -1.40983 0
M  V30 5550 H 531.637 1.63684 -3.88311 0
M  V30 5551 H 530.361 1.88681 -2.66584 0
M  V30 5552 H 529.02 0.00339328 -3.666 0
M  V30 5553 H 528.668 2.35359 -4.44539 0
M  V30 5554 H 528.368 1.18422 -5.75543 0
M  V30 5555 H 529.892 2.11623 -5.72755 0
M  V30 5556 H 531.306 -0.155199 -5.7309 0
M  V30 5557 H 529.703 -0.920947 -5.92991 0
M  V30 5558 H 530.773 -1.46109 -4.62364 0
M  V30 5559 N 532.116 1.54067 -0.331816 0
M  V30 5560 C 533.049 2.20886 0.573127 0
M  V30 5561 C 534.027 1.18876 1.10938 0
M  V30 5562 O 535.211 1.47649 1.17184 0
M  V30 5563 C 532.338 2.87706 1.78726 0
M  V30 5564 C 531.384 4.03505 1.38152 0
M  V30 5565 S 532.217 5.33919 0.41123 0
M  V30 5566 C 533.373 6.04236 1.63246 0
M  V30 5567 H 533.606 2.97299 0.00555737 0
M  V30 5568 H 531.139 1.53964 -0.115893 0
M  V30 5569 H 533.097 3.26825 2.48386 0
M  V30 5570 H 531.758 2.1108 2.32603 0
M  V30 5571 H 530.951 4.49152 2.28645 0
M  V30 5572 H 530.553 3.66102 0.764524 0
M  V30 5573 H 532.845 6.26917 2.56869 0
M  V30 5574 H 533.788 6.97546 1.218 0
M  V30 5575 H 534.196 5.34247 1.82318 0
M  V30 5576 N 533.594 0.0601682 1.57485 0
M  V30 5577 C 534.84 -0.606552 1.94146 0
M  V30 5578 C 535.195 -1.67918 0.939225 0
M  V30 5579 O 534.488 -1.91558 -0.0402649 0
M  V30 5580 C 534.682 -1.23831 3.35262 0
M  V30 5581 C 534.511 -0.228408 4.4912 0
M  V30 5582 C 533.281 0.182813 5.04969 0
M  V30 5583 C 535.479 0.52975 5.11564 0
M  V30 5584 N 533.461 1.18464 6.02362 0
M  V30 5585 C 534.832 1.38439 6.04346 0
M  V30 5586 C 536.887 0.587084 4.94427 0
M  V30 5587 C 535.59 2.29125 6.81832 0
M  V30 5588 C 537.616 1.4814 5.72546 0
M  V30 5589 C 536.978 2.32375 6.64967 0
M  V30 5590 H 533.077 -0.193328 0.757726 0
M  V30 5591 H 535.661 0.1346 1.94234 0
M  V30 5592 H 533.832 -1.94944 3.35933 0
M  V30 5593 H 535.564 -1.86456 3.59188 0
M  V30 5594 H 532.319 -0.197968 4.73186 0
M  V30 5595 H 532.743 1.68271 6.55754 0
M  V30 5596 H 537.385 -0.049944 4.22771 0
M  V30 5597 H 535.103 2.93868 7.52773 0
M  V30 5598 H 538.689 1.53045 5.6131 0
M  V30 5599 H 537.569 3.00454 7.2436 0
M  V30 5600 N 535.072 -1.5615 -0.213296 0
M  V30 5601 C 536.488 -1.49327 -0.56336 0
M  V30 5602 C 536.688 -0.756826 -1.86747 0
M  V30 5603 O 535.744 -0.299866 -2.50713 0
M  V30 5604 C 537.057 -2.9392 -0.634944 0
M  V30 5605 C 538.605 -3.04487 -0.725013 0
M  V30 5606 C 539.08 -4.50456 -0.82787 0
M  V30 5607 N 540.571 -4.54533 -0.891876 0
M  V30 5608 C 541.306 -5.64766 -0.991315 0
M  V30 5609 N 540.802 -6.84733 -1.05419 0
M  V30 5610 N 542.595 -5.52637 -1.02709 0
M  V30 5611 H 534.746 -2.02453 0.642366 0
M  V30 5612 H 537.009 -0.920548 0.226487 0
M  V30 5613 H 536.715 -3.50783 0.253859 0
M  V30 5614 H 536.589 -3.46274 -1.49579 0
M  V30 5615 H 538.976 -2.47685 -1.60425 0
M  V30 5616 H 539.057 -2.55289 0.161669 0
M  V30 5617 H 538.701 -5.07878 0.0469464 0
M  V30 5618 H 538.631 -4.97369 -1.73009 0
M  V30 5619 H 541.122 -3.68141 -0.85327 0
M  V30 5620 H 541.435 -7.64493 -1.13007 0
M  V30 5621 H 539.78 -6.87427 -1.02318 0
M  V30 5622 H 542.971 -4.5784 -0.974687 0
M  V30 5623 H 543.144 -6.38576 -1.10113 0
M  V30 5624 N 536.55 0.480323 -1.50102 0
M  V30 5625 C 537.798 1.23063 -1.60312 0
M  V30 5626 C 538.119 1.92659 -0.301226 0
M  V30 5627 O 537.389 1.83691 0.680753 0
M  V30 5628 H 535.969 0.457231 -0.590719 0
M  V30 5629 H 538.631 0.554893 -1.86834 0
M  V30 5630 H 537.727 1.9835 -2.40964 0
M  V30 5631 N 538.028 1.39524 0.732853 0
M  V30 5632 C 539.276 1.36594 1.48951 0
M  V30 5633 C 539.597 -0.0367507 1.94965 0
M  V30 5634 O 538.867 -0.988391 1.69138 0
M  V30 5635 H 537.447 0.502673 0.552566 0
M  V30 5636 H 540.109 1.74411 0.869869 0
M  V30 5637 H 539.205 2.03 2.3706 0
M  V30 5638 N 539.506 -0.963266 1.24736 0
M  V30 5639 C 540.746 -1.72172 1.10165 0
M  V30 5640 C 541.11 -1.88731 -0.352784 0
M  V30 5641 O 542.311 -2.61549 -0.620107 0
M  V30 5642 C 540.582 -3.0724 1.82589 0
M  V30 5643 S 542.141 -3.98449 1.83803 0
M  V30 5644 H 538.959 -0.591901 0.393922 0
M  V30 5645 H 541.561 -1.14955 1.58132 0
M  V30 5646 H 540.265 -2.92851 2.87518 0
M  V30 5647 H 539.796 -3.69521 1.34973 0
M  V30 5648 H 541.811 -4.87805 0.908883 0
M  V30 5649 N 540.985 -1.06182 -1.16461 0
M  V30 5650 C 542.234 -0.772927 -1.86303 0
M  V30 5651 C 542.547 0.703187 -1.82523 0
M  V30 5652 O 543.753 1.10641 -2.47933 0
M  V30 5653 C 542.209 -1.33249 -3.34324 0
M  V30 5654 C 541.817 -2.83876 -3.46581 0
M  V30 5655 C 543.561 -1.12108 -4.09429 0
M  V30 5656 C 541.468 -3.33082 -4.88682 0
M  V30 5657 H 540.398 -0.285452 -0.697878 0
M  V30 5658 H 543.049 -1.28039 -1.31447 0
M  V30 5659 H 541.431 -0.7528 -3.88779 0
M  V30 5660 H 542.605 -3.47786 -3.02293 0
M  V30 5661 H 540.92 -3.03671 -2.84909 0
M  V30 5662 H 543.517 -1.46361 -5.14279 0
M  V30 5663 H 543.86 -0.0593832 -4.16258 0
M  V30 5664 H 544.393 -1.6665 -3.6121 0
M  V30 5665 H 541.132 -4.38726 -4.87032 0
M  V30 5666 H 540.652 -2.73919 -5.33599 0
M  V30 5667 H 542.331 -3.28344 -5.57494 0
M  V30 5668 N 542.463 1.3308 -0.844243 0
M  V30 5669 C 543.712 1.96868 -0.438833 0
M  V30 5670 C 544.025 1.67599 1.00846 0
M  V30 5671 O 545.231 2.25043 1.51881 0
M  V30 5672 C 543.687 3.5234 -0.73377 0
M  V30 5673 C 543.295 3.90481 -2.1961 0
M  V30 5674 C 545.039 4.22653 -0.395574 0
M  V30 5675 C 542.946 5.38954 -2.43481 0
M  V30 5676 H 541.876 0.736749 -0.160364 0
M  V30 5677 H 544.527 1.51623 -1.03358 0
M  V30 5678 H 542.909 3.95941 -0.068589 0
M  V30 5679 H 544.083 3.57922 -2.90221 0
M  V30 5680 H 542.398 3.33165 -2.4978 0
M  V30 5681 H 544.995 5.31848 -0.551477 0
M  V30 5682 H 545.338 4.11004 0.661921 0
M  V30 5683 H 545.871 3.84601 -1.01621 0
M  V30 5684 H 542.61 5.55612 -3.47816 0
M  V30 5685 H 542.13 5.72954 -1.77437 0
M  V30 5686 H 543.809 6.05907 -2.26905 0
M  V30 5687 N 543.941 0.601185 1.45683 0
M  V30 5688 C 545.357 0.264315 1.57396 0
M  V30 5689 C 545.557 -1.23324 1.59353 0
M  V30 5690 O 544.613 -2.01594 1.52039 0
M  V30 5691 C 545.926 0.929839 2.85962 0
M  V30 5692 C 547.474 0.905156 2.99626 0
M  V30 5693 C 547.949 1.55057 4.30954 0
M  V30 5694 N 549.44 1.51576 4.37697 0
M  V30 5695 C 550.175 1.98436 5.37969 0
M  V30 5696 N 549.671 2.53352 6.44813 0
M  V30 5697 N 551.464 1.89242 5.29286 0
M  V30 5698 H 543.615 1.57363 1.42656 0
M  V30 5699 H 545.878 0.658831 0.681649 0
M  V30 5700 H 545.584 1.98404 2.90394 0
M  V30 5701 H 545.458 0.449224 3.74515 0
M  V30 5702 H 547.845 -0.14048 2.94765 0
M  V30 5703 H 547.926 1.42397 2.12501 0
M  V30 5704 H 547.57 2.5955 4.36573 0
M  V30 5705 H 547.5 1.00682 5.16886 0
M  V30 5706 H 549.991 1.11452 3.61091 0
M  V30 5707 H 550.304 2.86918 7.17564 0
M  V30 5708 H 548.649 2.57388 6.45582 0
M  V30 5709 H 551.84 1.46083 4.44722 0
M  V30 5710 H 552.013 2.26075 6.07284 0
M  V30 5711 N 545.419 -1.53889 0.339982 0
M  V30 5712 C 546.644 -2.05741 -0.261798 0
M  V30 5713 C 547.069 -1.21354 -1.43718 0
M  V30 5714 O 546.427 -0.22645 -1.7988 0
M  V30 5715 C 546.475 -3.54542 -0.658228 0
M  V30 5716 O 545.579 -3.7302 -1.75869 0
M  V30 5717 H 544.92 -0.662529 -0.0441672 0
M  V30 5718 H 547.45 -1.98568 0.493161 0
M  V30 5719 H 547.46 -3.9711 -0.936368 0
M  V30 5720 H 546.135 -4.15412 0.201358 0
M  V30 5721 H 544.712 -3.42355 -1.47809 0
M  V30 5722 N 546.897 -0.0685191 -1.57451 0
M  V30 5723 C 548.143 0.602239 -1.93652 0
M  V30 5724 C 548.476 1.6946 -0.948526 0
M  V30 5725 O 547.751 1.94487 0.022782 0
M  V30 5726 C 548.034 1.18223 -3.4014 0
M  V30 5727 C 547.887 0.0967431 -4.49696 0
M  V30 5728 C 549.206 2.08872 -3.87377 0
M  V30 5729 H 546.325 0.217453 -0.70419 0
M  V30 5730 H 548.967 -0.133821 -1.89528 0
M  V30 5731 H 547.117 1.80953 -3.43785 0
M  V30 5732 H 548.789 -0.536155 -4.58174 0
M  V30 5733 H 547.032 -0.573063 -4.29998 0
M  V30 5734 H 547.703 0.542894 -5.49324 0
M  V30 5735 H 550.179 1.56081 -3.85717 0
M  V30 5736 H 549.055 2.46389 -4.90493 0
M  V30 5737 H 549.316 2.99572 -3.25129 0
M  V30 5738 N 548.375 1.56261 0.205012 0
M  V30 5739 C 549.622 1.8004 0.926927 0
M  V30 5740 C 549.95 0.640086 1.83666 0
M  V30 5741 O 549.205 -0.374702 1.92079 0
M  V30 5742 C 549.504 3.09722 1.78345 0
M  V30 5743 C 549.17 4.39082 1.02555 0
M  V30 5744 C 547.832 4.74226 0.816256 0
M  V30 5745 C 550.184 5.18877 0.491559 0
M  V30 5746 C 547.512 5.86668 0.0613287 0
M  V30 5747 C 549.864 6.32105 -0.250107 0
M  V30 5748 C 548.528 6.6584 -0.470508 0
M  V30 5749 H 547.798 0.658812 0.339187 0
M  V30 5750 H 550.445 1.90515 0.19395 0
M  V30 5751 H 548.75 2.9444 2.5848 0
M  V30 5752 H 550.447 3.25324 2.34446 0
M  V30 5753 H 547.037 4.11497 1.19868 0
M  V30 5754 H 551.221 4.92147 0.640684 0
M  V30 5755 H 546.477 6.11283 -0.119501 0
M  V30 5756 H 550.651 6.93157 -0.671307 0
M  V30 5757 H 548.278 7.5281 -1.05739 0
M  V30 5758 N 549.853 -0.472356 1.50355 0
M  V30 5759 C 550.783 -1.57859 1.72055 0
M  V30 5760 C 551.764 -1.60283 0.569505 0
M  V30 5761 O 552.949 -1.7657 0.808503 0
M  V30 5762 C 550.079 -2.96191 1.81351 0
M  V30 5763 C 549.033 -3.08633 2.96529 0
M  V30 5764 C 548.359 -4.486 2.90968 0
M  V30 5765 C 549.659 -2.85969 4.37057 0
M  V30 5766 H 551.353 -1.39953 2.64676 0
M  V30 5767 H 548.899 -0.671846 1.27367 0
M  V30 5768 H 550.852 -3.73507 1.95117 0
M  V30 5769 H 549.576 -3.15251 0.853502 0
M  V30 5770 H 548.235 -2.33749 2.82413 0
M  V30 5771 H 547.883 -4.64577 1.92815 0
M  V30 5772 H 547.583 -4.57861 3.68289 0
M  V30 5773 H 549.107 -5.27938 3.0678 0
M  V30 5774 H 550.521 -3.53036 4.51706 0
M  V30 5775 H 548.918 -3.06677 5.15819 0
M  V30 5776 H 549.988 -1.81838 4.49514 0
M  V30 5777 N 551.331 -1.39911 -0.725443 0
M  V30 5778 C 552.579 -1.37382 -1.48224 0
M  V30 5779 C 552.9 0.0264107 -1.94982 0
M  V30 5780 O 552.17 0.979408 -1.6966 0
M  V30 5781 H 550.75 -0.505596 -0.549892 0
M  V30 5782 H 553.412 -1.7487 -0.860608 0
M  V30 5783 H 552.508 -2.04254 -2.3598 0
M  V30 5784 N 552.809 0.956637 -1.25245 0
M  V30 5785 C 553.756 2.053 -1.05454 0
M  V30 5786 C 554.726 1.66062 0.0356889 0
M  V30 5787 O 555.911 1.90415 -0.121099 0
M  V30 5788 C 553.051 3.38391 -0.677191 0
M  V30 5789 C 552.164 3.90758 -1.84206 0
M  V30 5790 C 551.299 5.12165 -1.40926 0
M  V30 5791 C 550.338 5.56757 -2.54338 0
M  V30 5792 N 549.475 6.69376 -2.11848 0
M  V30 5793 H 554.315 2.21562 -1.99284 0
M  V30 5794 H 551.852 1.08578 -0.992434 0
M  V30 5795 H 553.81 4.1488 -0.43938 0
M  V30 5796 H 552.44 3.22021 0.224127 0
M  V30 5797 H 551.492 3.10808 -2.19323 0
M  V30 5798 H 552.804 4.19802 -2.69383 0
M  V30 5799 H 551.958 5.96065 -1.13098 0
M  V30 5800 H 550.697 4.84832 -0.528175 0
M  V30 5801 H 549.702 4.71423 -2.82913 0
M  V30 5802 H 550.927 5.861 -3.43022 0
M  V30 5803 H 548.873 6.43756 -1.26153 0
M  V30 5804 H 548.79 6.97927 -2.90574 0
M  V30 5805 H 550.058 7.5669 -1.87191 0
M  V30 5806 N 554.287 1.06798 1.15896 0
M  V30 5807 C 555.536 0.782796 1.8589 0
M  V30 5808 C 555.849 -0.693498 1.82893 0
M  V30 5809 O 557.055 -1.09325 2.48516 0
M  V30 5810 C 555.511 1.3502 3.33613 0
M  V30 5811 C 555.119 2.8571 3.45071 0
M  V30 5812 C 556.863 1.14278 4.08829 0
M  V30 5813 C 554.77 3.35669 4.86909 0
M  V30 5814 H 553.7 0.289149 0.696354 0
M  V30 5815 H 556.351 1.28734 1.30766 0
M  V30 5816 H 554.733 0.773407 3.88374 0
M  V30 5817 H 555.907 3.49385 3.00445 0
M  V30 5818 H 554.222 3.05178 2.83294 0
M  V30 5819 H 556.819 1.49087 5.13495 0
M  V30 5820 H 557.162 0.0814575 4.1622 0
M  V30 5821 H 557.695 1.68563 3.60321 0
M  V30 5822 H 554.434 4.41302 4.84698 0
M  V30 5823 H 553.954 2.76745 5.32139 0
M  V30 5824 H 555.633 3.31296 5.55745 0
M  V30 5825 N 555.766 -1.3263 0.851289 0
M  V30 5826 C 556.713 -2.28952 0.291469 0
M  V30 5827 C 557.683 -1.54897 -0.599676 0
M  V30 5828 O 558.868 -1.83137 -0.535305 0
M  V30 5829 C 556.008 -3.41206 -0.516992 0
M  V30 5830 C 555.121 -4.30148 0.399566 0
M  V30 5831 C 554.256 -5.29527 -0.4212 0
M  V30 5832 C 553.295 -6.10112 0.492969 0
M  V30 5833 N 552.432 -7.01499 -0.290414 0
M  V30 5834 H 557.272 -2.76228 1.11813 0
M  V30 5835 H 554.809 -1.35907 0.562826 0
M  V30 5836 H 556.767 -4.05005 -1.00132 0
M  V30 5837 H 555.397 -2.9509 -1.30851 0
M  V30 5838 H 554.449 -3.66959 1.00227 0
M  V30 5839 H 555.761 -4.8649 1.1013 0
M  V30 5840 H 554.915 -5.98914 -0.968832 0
M  V30 5841 H 553.654 -4.73794 -1.15632 0
M  V30 5842 H 552.659 -5.39632 1.05251 0
M  V30 5843 H 553.884 -6.6793 1.22664 0
M  V30 5844 H 551.83 -6.48199 -1.00868 0
M  V30 5845 H 551.747 -7.55178 0.352354 0
M  V30 5846 H 553.015 -7.75176 -0.819882 0
M  V30 5847 N 557.244 -0.608902 -1.45362 0
M  V30 5848 C 558.521 -0.0365378 -1.95566 0
M  V30 5849 C 558.901 1.43169 -1.55131 0
M  V30 5850 O 558.249 2.1349 -0.814513 0
M  V30 5851 C 558.459 -0.236026 -3.48201 0
M  V30 5852 C 559.807 -0.117518 -4.24437 0
M  V30 5853 O 560.831 -0.166217 -3.55812 0
M  V30 5854 O 559.69 -0.00372127 -5.465 0
M  V30 5855 H 556.784 0.0349874 -0.82626 0
M  V30 5856 H 559.33 -0.679055 -1.55521 0
M  V30 5857 H 558.102 -1.25569 -3.70605 0
M  V30 5858 H 557.725 0.441691 -3.95139 0
M  V30 5859 N 558.722 1.53707 -0.348139 0
M  V30 5860 C 559.685 2.23812 0.494058 0
M  V30 5861 C 560.685 1.23989 1.02388 0
M  V30 5862 O 561.875 1.48395 0.912396 0
M  V30 5863 C 559.007 2.96133 1.68872 0
M  V30 5864 H 560.2 2.99663 -0.119141 0
M  V30 5865 H 557.753 1.55983 -0.0995539 0
M  V30 5866 H 558.488 2.24481 2.34049 0
M  V30 5867 H 558.273 3.69357 1.31596 0
M  V30 5868 H 559.763 3.49475 2.28597 0
M  V30 5869 N 560.2 0.0768682 1.57412 0
M  V30 5870 C 561.447 -0.591085 1.93681 0
M  V30 5871 C 561.775 -1.69311 0.957286 0
M  V30 5872 O 561.03 -1.95682 -0.0262428 0
M  V30 5873 C 561.329 -1.20268 3.36557 0
M  V30 5874 C 560.995 -0.226286 4.50332 0
M  V30 5875 C 559.657 0.0423142 4.81181 0
M  V30 5876 C 562.009 0.441415 5.19327 0
M  V30 5877 C 559.337 0.985616 5.78362 0
M  V30 5878 C 561.689 1.37307 6.17519 0
M  V30 5879 C 560.353 1.65009 6.46783 0
M  V30 5880 H 559.623 -0.216293 0.70873 0
M  V30 5881 H 562.27 0.148824 1.90921 0
M  V30 5882 H 560.575 -2.01844 3.35807 0
M  V30 5883 H 562.272 -1.72688 3.61911 0
M  V30 5884 H 558.862 -0.445821 4.26275 0
M  V30 5885 H 563.046 0.247023 4.95685 0
M  V30 5886 H 558.302 1.20743 5.99359 0
M  V30 5887 H 562.476 1.89637 6.70083 0
M  V30 5888 H 560.103 2.38263 7.21897 0
M  V30 5889 N 561.678 -1.56367 -0.196722 0
M  V30 5890 C 562.955 -1.71359 -0.943159 0
M  V30 5891 C 563.335 -0.631192 -2.01443 0
M  V30 5892 O 562.683 0.358071 -2.25677 0
M  V30 5893 C 562.893 -3.13623 -1.53106 0
M  V30 5894 C 564.241 -3.73806 -2.01381 0
M  V30 5895 O 565.265 -3.16742 -1.62951 0
M  V30 5896 O 564.124 -4.73951 -2.7209 0
M  V30 5897 H 561.218 -0.698851 -0.442195 0
M  V30 5898 H 563.764 -1.68672 -0.186547 0
M  V30 5899 H 562.536 -3.83873 -0.758785 0
M  V30 5900 H 562.159 -3.20532 -2.35255 0
M  V30 5901 N 563.156 0.464375 -1.50603 0
M  V30 5902 C 564.572 0.798684 -1.38178 0
M  V30 5903 C 564.772 1.96568 -0.44308 0
M  V30 5904 O 563.828 2.52252 0.111814 0
M  V30 5905 C 565.141 1.10444 -2.79683 0
M  V30 5906 C 566.689 1.2105 -2.88645 0
M  V30 5907 C 567.164 1.54934 -4.30998 0
M  V30 5908 N 568.655 1.61913 -4.3398 0
M  V30 5909 C 569.39 1.8965 -5.41129 0
M  V30 5910 N 568.886 2.15361 -6.58477 0
M  V30 5911 N 570.679 1.91207 -5.28579 0
M  V30 5912 H 562.83 -0.304603 -2.10204 0
M  V30 5913 H 565.093 -0.0737804 -0.945125 0
M  V30 5914 H 564.799 0.319934 -3.50242 0
M  V30 5915 H 564.673 2.03896 -3.17342 0
M  V30 5916 H 567.06 1.98567 -2.18301 0
M  V30 5917 H 567.141 0.255613 -2.5452 0
M  V30 5918 H 566.785 0.779549 -5.01882 0
M  V30 5919 H 566.715 2.51584 -4.62615 0
M  V30 5920 H 569.206 1.44055 -3.49366 0
M  V30 5921 H 569.519 2.35818 -7.35941 0
M  V30 5922 H 567.864 2.1274 -6.6164 0
M  V30 5923 H 571.055 1.70622 -4.35897 0
M  V30 5924 H 571.228 2.12488 -6.12171 0
M  V30 5925 N 564.634 1.40294 0.718013 0
M  V30 5926 C 565.582 1.40536 1.85344 0
M  V30 5927 C 566.576 0.286192 1.66965 0
M  V30 5928 O 567.782 0.457105 1.74099 0
M  V30 5929 H 564.157 0.439236 0.61039 0
M  V30 5930 H 566.128 2.36275 1.82255 0
M  V30 5931 C 564.877 1.28245 3.23185 0
M  V30 5932 H 564.2 2.1364 3.37932 0
M  V30 5933 H 565.64 1.32474 4.02774 0
M  V30 5934 C 564.099 -0.0075503 3.36899 0
M  V30 5935 O 564.629 -0.971391 3.89778 0
M  V30 5936 N 562.835 -0.0762479 2.905 0
M  V30 5937 H 562.382 0.708819 2.47656 0
M  V30 5938 H 562.34 -0.938846 3.00055 0
M  V30 5939 N 566.112 -0.949982 1.2575 0
M  V30 5940 C 567.523 -1.50989 1.09815 0
M  V30 5941 C 567.874 -1.93497 -0.324556 0
M  V30 5942 O 566.999 -1.79068 -1.21506 0
M  V30 5943 C 567.594 -2.74394 1.98729 0
M  V30 5944 C 566.153 -3.26682 1.86965 0
M  V30 5945 C 565.3 -1.99498 1.92603 0
M  V30 5946 H 568.251 -0.766387 1.38968 0
M  V30 5947 H 568.272 -3.48383 1.53001 0
M  V30 5948 H 567.784 -2.43425 3.02268 0
M  V30 5949 H 565.885 -3.62461 0.863279 0
M  V30 5950 H 565.998 -3.94383 2.72027 0
M  V30 5951 H 564.362 -2.15005 1.36546 0
M  V30 5952 H 565.145 -1.70871 2.97755 0
M  V30 5953 N 567.59 -1.07411 -1.15328 0
M  V30 5954 C 568.5 -0.706438 -2.23711 0
M  V30 5955 C 569.516 0.282586 -1.7169 0
M  V30 5956 O 570.692 0.129066 -2.00986 0
M  V30 5957 C 567.757 -0.11048 -3.46524 0
M  V30 5958 C 566.818 -1.15282 -4.13532 0
M  V30 5959 C 566.051 -0.585205 -5.30482 0
M  V30 5960 O 566.274 0.598549 -5.67251 0
M  V30 5961 O 565.208 -1.33039 -5.87013 0
M  V30 5962 H 569.034 -1.61031 -2.57493 0
M  V30 5963 H 566.619 -0.847113 -1.23062 0
M  V30 5964 H 568.501 0.21957 -4.20828 0
M  V30 5965 H 567.176 0.766703 -3.14489 0
M  V30 5966 H 566.083 -1.53523 -3.41147 0
M  V30 5967 H 567.416 -2.00192 -4.49649 0
M  V30 5968 N 569.068 1.32177 -0.85831 0
M  V30 5969 C 569.998 2.31282 -0.321041 0
M  V30 5970 C 570.979 1.59841 0.581786 0
M  V30 5971 O 572.164 1.87619 0.501262 0
M  V30 5972 C 569.294 3.4385 0.48832 0
M  V30 5973 C 568.248 4.26799 -0.320391 0
M  V30 5974 C 567.574 5.31164 0.613934 0
M  V30 5975 C 568.874 4.98829 -1.54813 0
M  V30 5976 H 570.568 2.76469 -1.14915 0
M  V30 5977 H 568.114 1.32916 -0.554028 0
M  V30 5978 H 570.067 4.12224 0.874626 0
M  V30 5979 H 568.791 2.97401 1.34983 0
M  V30 5980 H 567.45 3.60077 -0.688497 0
M  V30 5981 H 567.098 4.80967 1.47239 0
M  V30 5982 H 566.798 5.8755 0.0768097 0
M  V30 5983 H 568.322 6.024 0.997336 0
M  V30 5984 H 569.736 5.59864 -1.23392 0
M  V30 5985 H 568.133 5.64957 -2.02346 0
M  V30 5986 H 569.203 4.26483 -2.30739 0
M  V30 5987 N 570.547 0.616602 1.45037 0
M  V30 5988 C 571.479 -0.135186 2.28801 0
M  V30 5989 C 572.492 -0.82303 1.40464 0
M  V30 5990 O 573.681 -0.686909 1.64754 0
M  V30 5991 C 570.781 -1.21292 3.16451 0
M  V30 5992 C 569.954 -0.61043 4.3312 0
M  V30 5993 C 569.013 -1.58022 5.01912 0
M  V30 5994 O 568.039 -1.10301 5.58411 0
M  V30 5995 N 569.241 -2.91464 5.02025 0
M  V30 5996 H 572.006 0.583612 2.93963 0
M  V30 5997 H 569.567 0.456723 1.55324 0
M  V30 5998 H 571.559 -1.86169 3.59337 0
M  V30 5999 H 570.129 -1.83412 2.53138 0
M  V30 6000 H 569.349 0.216638 3.93604 0
M  V30 6001 H 570.637 -0.188293 5.08451 0
M  V30 6002 H 570.035 -3.32829 4.57429 0
M  V30 6003 H 568.592 -3.51741 5.48745 0
M  V30 6004 N 572.025 -1.5352 0.356285 0
M  V30 6005 C 572.973 -2.26945 -0.50978 0
M  V30 6006 C 573.967 -1.29569 -1.09125 0
M  V30 6007 O 575.173 -1.47231 -1.03552 0
M  V30 6008 H 571.548 -0.729368 -0.183102 0
M  V30 6009 H 573.519 -2.98111 0.131374 0
M  V30 6010 C 572.268 -3.06466 -1.64237 0
M  V30 6011 H 571.591 -3.81233 -1.20423 0
M  V30 6012 H 573.031 -3.61035 -2.22327 0
M  V30 6013 C 571.49 -2.16737 -2.57928 0
M  V30 6014 O 572.02 -1.77195 -3.60507 0
M  V30 6015 N 570.226 -1.81558 -2.26903 0
M  V30 6016 H 569.773 -2.13913 -1.43524 0
M  V30 6017 H 569.731 -1.21806 -2.89846 0
M  V30 6018 N 573.503 -0.0852151 -1.57369 0
M  V30 6019 C 574.433 0.874556 -2.16503 0
M  V30 6020 C 575.414 1.30111 -1.09568 0
M  V30 6021 O 576.599 1.36977 -1.37662 0
M  V30 6022 C 573.729 2.13731 -2.73745 0
M  V30 6023 C 572.683 1.84971 -3.85966 0
M  V30 6024 C 572.009 3.17991 -4.29867 0
M  V30 6025 C 573.309 1.14442 -5.09608 0
M  V30 6026 H 575.003 0.381899 -2.96954 0
M  V30 6027 H 572.549 0.18225 -1.42842 0
M  V30 6028 H 574.502 2.81302 -3.13763 0
M  V30 6029 H 573.226 2.65263 -1.90534 0
M  V30 6030 H 571.885 1.19801 -3.46473 0
M  V30 6031 H 571.533 3.6739 -3.4356 0
M  V30 6032 H 571.233 2.99534 -5.05523 0
M  V30 6033 H 572.757 3.86737 -4.72511 0
M  V30 6034 H 574.171 1.72105 -5.46857 0
M  V30 6035 H 572.568 1.06197 -5.90629 0
M  V30 6036 H 573.638 0.12559 -4.84737 0
M  V30 6037 N 574.981 1.5647 0.188427 0
M  V30 6038 C 575.911 1.98101 1.23606 0
M  V30 6039 C 576.892 0.853961 1.47111 0
M  V30 6040 O 578.077 1.11879 1.58735 0
M  V30 6041 C 575.207 2.32624 2.57882 0
M  V30 6042 C 574.161 3.48129 2.48978 0
M  V30 6043 C 573.487 3.68347 3.87588 0
M  V30 6044 C 574.787 4.82112 2.00911 0
M  V30 6045 H 576.481 2.85864 0.890068 0
M  V30 6046 H 574.027 1.37532 0.426714 0
M  V30 6047 H 575.98 2.60343 3.3136 0
M  V30 6048 H 574.704 1.41751 2.94235 0
M  V30 6049 H 573.363 3.20511 1.77956 0
M  V30 6050 H 573.011 2.74793 4.21305 0
M  V30 6051 H 572.711 4.46055 3.82503 0
M  V30 6052 H 574.235 3.98449 4.62678 0
M  V30 6053 H 575.649 5.08819 2.64151 0
M  V30 6054 H 574.046 5.63337 2.06814 0
M  V30 6055 H 575.116 4.75249 0.96262 0
M  V30 6056 N 576.459 -0.456382 1.50847 0
M  V30 6057 C 577.389 -1.56025 1.73719 0
M  V30 6058 C 578.37 -1.5967 0.586473 0
M  V30 6059 O 579.555 -1.75702 0.827185 0
M  V30 6060 C 576.685 -2.94251 1.84483 0
M  V30 6061 C 575.639 -3.05471 2.99786 0
M  V30 6062 C 574.965 -4.45489 2.95709 0
M  V30 6063 C 576.265 -2.81318 4.40065 0
M  V30 6064 H 577.959 -1.37138 2.66146 0
M  V30 6065 H 575.505 -0.658299 1.28072 0
M  V30 6066 H 577.458 -3.71417 1.99067 0
M  V30 6067 H 576.182 -3.14328 0.886891 0
M  V30 6068 H 574.841 -2.30741 2.84876 0
M  V30 6069 H 574.489 -4.62505 1.97732 0
M  V30 6070 H 574.189 -4.53929 3.73125 0
M  V30 6071 H 575.713 -5.24655 3.12362 0
M  V30 6072 H 577.127 -3.48226 4.55425 0
M  V30 6073 H 575.524 -3.01188 5.19043 0
M  V30 6074 H 576.594 -1.7706 4.51418 0
M  V30 6075 N 577.937 -1.40673 -0.710563 0
M  V30 6076 C 579.214 -1.29718 -1.46398 0
M  V30 6077 C 579.594 0.082177 -2.1094 0
M  V30 6078 O 578.942 1.09536 -2.00534 0
M  V30 6079 C 579.152 -2.43967 -2.49562 0
M  V30 6080 C 580.5 -2.84436 -3.15248 0
M  V30 6081 O 581.524 -2.43597 -2.59883 0
M  V30 6082 O 580.383 -3.55008 -4.1549 0
M  V30 6083 H 577.477 -0.509697 -0.651258 0
M  V30 6084 H 580.023 -1.52603 -0.742312 0
M  V30 6085 H 578.795 -3.36076 -2.0042 0
M  V30 6086 H 578.418 -2.22879 -3.29258 0
M  V30 6087 N 579.415 0.9433 -1.26252 0
M  V30 6088 C 580.692 1.66639 -1.02424 0
M  V30 6089 C 581.072 2.06335 0.446006 0
M  V30 6090 O 580.42 1.78551 1.42589 0
M  V30 6091 C 580.63 2.88019 -1.97094 0
M  V30 6092 C 581.978 3.59718 -2.25584 0
M  V30 6093 O 583.002 2.9812 -1.94943 0
M  V30 6094 O 581.861 4.7066 -2.77743 0
M  V30 6095 H 578.955 0.729643 -0.389294 0
M  V30 6096 H 581.501 0.995218 -1.37454 0
M  V30 6097 H 580.273 2.5556 -2.96319 0
M  V30 6098 H 579.896 3.62863 -1.62532 0
M  V30 6099 N 580.893 1.08022 1.14757 0
M  V30 6100 C 582.14 0.807509 1.85703 0
M  V30 6101 C 582.468 -0.666617 1.8272 0
M  V30 6102 O 581.723 -1.50562 1.25018 0
M  V30 6103 C 582.022 1.26964 3.34088 0
M  V30 6104 C 581.688 2.7509 3.57262 0
M  V30 6105 C 580.35 3.15547 3.63296 0
M  V30 6106 C 582.702 3.70667 3.66409 0
M  V30 6107 C 580.03 4.50384 3.75994 0
M  V30 6108 C 582.382 5.05274 3.80632 0
M  V30 6109 C 581.046 5.45342 3.84913 0
M  V30 6110 H 580.316 0.295488 0.679535 0
M  V30 6111 H 582.963 1.35245 1.35577 0
M  V30 6112 H 581.268 0.644216 3.86467 0
M  V30 6113 H 582.965 1.03544 3.87401 0
M  V30 6114 H 579.555 2.42775 3.53212 0
M  V30 6115 H 583.739 3.40533 3.61041 0
M  V30 6116 H 578.995 4.80886 3.77569 0
M  V30 6117 H 583.169 5.79201 3.86652 0
M  V30 6118 H 580.796 6.49823 3.94505 0
M  V30 6119 N 582.371 -1.3172 0.865308 0
M  V30 6120 C 583.618 -1.96876 0.473931 0
M  V30 6121 C 583.946 -1.68425 -0.972786 0
M  V30 6122 O 583.201 -0.970742 -1.69927 0
M  V30 6123 C 583.5 -3.5102 0.672283 0
M  V30 6124 C 583.166 -3.9948 2.09108 0
M  V30 6125 C 581.828 -4.12425 2.4791 0
M  V30 6126 C 584.18 -4.2503 3.0166 0
M  V30 6127 C 581.508 -4.48267 3.78515 0
M  V30 6128 C 583.86 -4.62335 4.31774 0
M  V30 6129 C 582.524 -4.73486 4.70497 0
M  V30 6130 H 581.794 -0.72042 0.173424 0
M  V30 6131 H 584.441 -1.56937 1.0974 0
M  V30 6132 H 582.746 -3.91785 -0.034356 0
M  V30 6133 H 584.443 -3.99475 0.349353 0
M  V30 6134 H 581.033 -3.89898 1.77981 0
M  V30 6135 H 585.217 -4.14529 2.7291 0
M  V30 6136 H 580.473 -4.55097 4.08285 0
M  V30 6137 H 584.647 -4.81058 5.03543 0
M  V30 6138 H 582.274 -5.01016 5.71741 0
M  V30 6139 N 583.85 -0.624285 -1.44708 0
M  V30 6140 C 584.797 0.0847135 -2.30644 0
M  V30 6141 C 585.767 0.843575 -1.43084 0
M  V30 6142 O 586.952 0.825982 -1.71995 0
M  V30 6143 C 584.091 1.06495 -3.28257 0
M  V30 6144 C 583.205 0.305224 -4.3092 0
M  V30 6145 C 582.34 1.27667 -5.1563 0
M  V30 6146 C 581.379 0.505706 -6.10007 0
M  V30 6147 N 580.516 1.42727 -6.8744 0
M  V30 6148 H 585.356 -0.654068 -2.90733 0
M  V30 6149 H 582.893 -0.334334 -1.4325 0
M  V30 6150 H 584.851 1.64658 -3.83332 0
M  V30 6151 H 583.481 1.77094 -2.69884 0
M  V30 6152 H 582.533 -0.392207 -3.78373 0
M  V30 6153 H 583.845 -0.295553 -4.97924 0
M  V30 6154 H 582.999 1.92984 -5.75189 0
M  V30 6155 H 581.738 1.91137 -4.48685 0
M  V30 6156 H 580.743 -0.160999 -5.49564 0
M  V30 6157 H 581.968 -0.124183 -6.78986 0
M  V30 6158 H 579.913 2.04931 -6.23169 0
M  V30 6159 H 579.831 0.880345 -7.50857 0
M  V30 6160 H 581.099 2.0695 -7.51526 0
M  V30 6161 N 585.328 1.53329 -0.364422 0
M  V30 6162 C 586.553 2.06132 0.229033 0
M  V30 6163 C 586.978 1.23625 1.41769 0
M  V30 6164 O 586.336 0.255038 1.79497 0
M  V30 6165 C 586.384 3.55544 0.60174 0
M  V30 6166 O 585.488 3.75771 1.69912 0
M  V30 6167 H 584.829 0.663148 0.0336213 0
M  V30 6168 H 587.359 1.97758 -0.524689 0
M  V30 6169 H 587.369 3.98549 0.873073 0
M  V30 6170 H 586.044 4.15039 -0.267421 0
M  V30 6171 H 584.621 3.44663 1.42343 0
M  V30 6172 N 586.806 0.0935595 1.57322 0
M  V30 6173 C 587.769 -0.851426 2.12799 0
M  V30 6174 C 588.769 -1.21187 1.0569 0
M  V30 6175 O 589.959 -1.14156 1.31583 0
M  V30 6176 C 587.091 -2.14779 2.64731 0
M  V30 6177 H 588.284 -0.369733 2.97612 0
M  V30 6178 H 585.837 -0.155417 1.55525 0
M  V30 6179 H 586.572 -2.67437 1.83434 0
M  V30 6180 H 586.357 -1.89907 3.43042 0
M  V30 6181 H 587.847 -2.82383 3.07651 0
M  V30 6182 N 588.284 -1.56567 -0.180126 0
M  V30 6183 C 589.53 -1.81761 -0.899497 0
M  V30 6184 C 589.863 -0.670015 -1.82276 0
M  V30 6185 O 589.138 0.328575 -1.91705 0
M  V30 6186 C 589.421 -3.17296 -1.7028 0
M  V30 6187 C 589.274 -4.4257 -0.803255 0
M  V30 6188 C 590.593 -3.49678 -2.67233 0
M  V30 6189 H 587.712 -0.661192 -0.325567 0
M  V30 6190 H 590.354 -1.89272 -0.16612 0
M  V30 6191 H 588.504 -3.11023 -2.32802 0
M  V30 6192 H 590.176 -4.60902 -0.191585 0
M  V30 6193 H 588.419 -4.33658 -0.110796 0
M  V30 6194 H 589.09 -5.33935 -1.40064 0
M  V30 6195 H 591.566 -3.56347 -2.14839 0
M  V30 6196 H 590.442 -4.45605 -3.20511 0
M  V30 6197 H 590.703 -2.73932 -3.47007 0
M  V30 6198 N 589.762 0.448376 -1.51087 0
M  V30 6199 C 590.672 1.56882 -1.74428 0
M  V30 6200 C 591.688 1.62268 -0.62809 0
M  V30 6201 O 592.864 1.79716 -0.909075 0
M  V30 6202 C 589.929 2.92947 -1.85426 0
M  V30 6203 C 588.99 2.97766 -3.09247 0
M  V30 6204 C 588.223 4.27341 -3.19711 0
M  V30 6205 O 588.446 5.19112 -2.36387 0
M  V30 6206 O 587.38 4.38219 -4.12611 0
M  V30 6207 H 591.206 1.40104 -2.69452 0
M  V30 6208 H 588.791 0.630247 -1.35456 0
M  V30 6209 H 590.673 3.73719 -1.94709 0
M  V30 6210 H 589.348 3.09876 -0.935887 0
M  V30 6211 H 588.255 2.15989 -3.0545 0
M  V30 6212 H 589.588 2.8578 -4.00738 0
M  V30 6213 N 591.24 1.41047 0.703093 0
M  V30 6214 C 592.188 1.42494 1.83843 0
M  V30 6215 C 593.182 0.303885 1.66652 0
M  V30 6216 O 594.388 0.475544 1.73605 0
M  V30 6217 H 590.763 0.445685 0.605697 0
M  V30 6218 H 592.734 2.38194 1.79739 0
M  V30 6219 C 591.483 1.31666 3.21807 0
M  V30 6220 H 590.806 2.17212 3.35647 0
M  V30 6221 H 592.246 1.36738 4.01346 0
M  V30 6222 C 590.705 0.0281828 3.36888 0
M  V30 6223 O 591.235 -0.929995 3.90786 0
M  V30 6224 N 589.441 -0.0454322 2.90564 0
M  V30 6225 H 588.988 0.735046 2.4689 0
M  V30 6226 H 588.946 -0.906968 3.01034 0
M  V30 6227 N 592.718 -0.936591 1.26751 0
M  V30 6228 C 593.958 -1.69796 1.13792 0
M  V30 6229 C 594.322 -1.89437 -0.312671 0
M  V30 6230 O 595.523 -2.62806 -0.564489 0
M  V30 6231 C 593.794 -3.03297 1.89065 0
M  V30 6232 S 595.353 -3.94461 1.92214 0
M  V30 6233 H 592.171 -0.583412 0.406389 0
M  V30 6234 H 594.773 -1.11575 1.60535 0
M  V30 6235 H 593.477 -2.86687 2.93665 0
M  V30 6236 H 593.008 -3.66575 1.42781 0
M  V30 6237 H 595.023 -4.85767 1.01215 0
M  V30 6238 N 594.196 -1.08629 -1.14182 0
M  V30 6239 C 595.128 -0.676189 -2.18998 0
M  V30 6240 C 596.141 0.277871 -1.60411 0
M  V30 6241 O 597.33 0.0651771 -1.78381 0
M  V30 6242 C 594.43 0.0254916 -3.3889 0
M  V30 6243 C 593.603 -0.948039 -4.27002 0
M  V30 6244 C 592.662 -0.281268 -5.25448 0
M  V30 6245 O 591.688 -0.926378 -5.61611 0
M  V30 6246 N 592.89 0.967923 -5.72374 0
M  V30 6247 H 595.655 -1.57792 -2.54798 0
M  V30 6248 H 593.216 -0.972665 -1.29425 0
M  V30 6249 H 595.208 0.482554 -4.01813 0
M  V30 6250 H 593.778 0.829348 -3.01398 0
M  V30 6251 H 592.998 -1.58388 -3.6098 0
M  V30 6252 H 594.286 -1.60765 -4.82734 0
M  V30 6253 H 593.684 1.51175 -5.45126 0
M  V30 6254 H 592.241 1.36844 -6.37273 0
M  V30 6255 N 595.674 1.31259 -0.872281 0
M  V30 6256 C 596.951 1.91362 -0.404943 0
M  V30 6257 C 597.331 1.79362 1.11321 0
M  V30 6258 O 596.679 1.20277 1.94283 0
M  V30 6259 C 596.889 3.3749 -0.888893 0
M  V30 6260 C 598.237 4.14593 -0.916384 0
M  V30 6261 O 599.261 3.46282 -0.834701 0
M  V30 6262 O 598.12 5.3661 -1.03498 0
M  V30 6263 H 595.214 0.818016 -0.121569 0
M  V30 6264 H 597.76 1.39912 -0.960346 0
M  V30 6265 H 596.532 3.40249 -1.93251 0
M  V30 6266 H 596.155 3.96375 -0.311932 0
M  V30 6267 N 597.152 0.631951 1.44375 0
M  V30 6268 C 598.377 0.142146 2.06912 0
M  V30 6269 C 598.802 -1.17456 1.4692 0
M  V30 6270 O 598.16 -1.72074 0.570975 0
M  V30 6271 C 598.208 0.0417952 3.60576 0
M  V30 6272 O 597.312 -1.00194 4.00044 0
M  V30 6273 H 596.653 0.0851491 0.658518 0
M  V30 6274 H 599.183 0.868863 1.85235 0
M  V30 6275 H 599.193 -0.148517 4.0773 0
M  V30 6276 H 597.868 1.0031 4.03622 0
M  V30 6277 H 596.445 -0.786131 3.64519 0
M  V30 6278 N 598.631 -1.53133 0.372548 0
M  V30 6279 C 599.877 -2.02336 -0.207823 0
M  V30 6280 C 600.232 -1.25477 -1.45853 0
M  V30 6281 O 599.525 -0.341971 -1.88524 0
M  V30 6282 C 599.719 -3.53206 -0.545938 0
M  V30 6283 C 599.548 -4.44674 0.670454 0
M  V30 6284 C 598.318 -4.91217 1.18465 0
M  V30 6285 C 600.516 -4.90772 1.53777 0
M  V30 6286 N 598.498 -5.66711 2.36034 0
M  V30 6287 C 599.869 -5.64678 2.56004 0
M  V30 6288 C 601.924 -4.72836 1.55983 0
M  V30 6289 C 600.627 -6.22555 3.60303 0
M  V30 6290 C 602.653 -5.31583 2.59179 0
M  V30 6291 C 602.015 -6.05381 3.6013 0
M  V30 6292 H 598.114 -0.781048 -0.0385783 0
M  V30 6293 H 600.698 -1.87665 0.518664 0
M  V30 6294 H 598.869 -3.68024 -1.24149 0
M  V30 6295 H 600.601 -3.89123 -1.112 0
M  V30 6296 H 597.356 -4.67652 0.748205 0
M  V30 6297 H 597.78 -6.09117 2.95475 0
M  V30 6298 H 602.422 -4.15299 0.792877 0
M  V30 6299 H 600.14 -6.79183 4.37876 0
M  V30 6300 H 603.726 -5.19595 2.61749 0
M  V30 6301 H 602.606 -6.50028 4.38672 0
M  V30 6302 N 600.109 -0.101901 -1.5727 0
M  V30 6303 C 601.525 0.254739 -1.57554 0
M  V30 6304 C 601.725 1.67937 -1.11352 0
M  V30 6305 O 600.781 2.39722 -0.793081 0
M  V30 6306 C 602.094 0.036975 -3.00677 0
M  V30 6307 C 603.642 0.104199 -3.12827 0
M  V30 6308 C 604.117 -0.0856565 -4.5792 0
M  V30 6309 N 605.608 -0.0310498 -4.6319 0
M  V30 6310 C 606.343 -0.153099 -5.73196 0
M  V30 6311 N 605.839 -0.330364 -6.92012 0
M  V30 6312 N 607.632 -0.0938854 -5.62022 0
M  V30 6313 H 599.783 -1.03263 -1.85609 0
M  V30 6314 H 602.046 -0.405251 -0.857016 0
M  V30 6315 H 601.752 -0.947254 -3.38703 0
M  V30 6316 H 601.626 0.776335 -3.69124 0
M  V30 6317 H 604.013 1.07894 -2.74669 0
M  V30 6318 H 604.094 -0.666762 -2.46957 0
M  V30 6319 H 603.738 -1.05729 -4.96773 0
M  V30 6320 H 603.668 0.705082 -5.21858 0
M  V30 6321 H 606.159 0.103141 -3.77759 0
M  V30 6322 H 606.472 -0.41482 -7.71686 0
M  V30 6323 H 604.817 -0.366119 -6.94035 0
M  V30 6324 H 608.008 0.0435168 -4.6808 0
M  V30 6325 H 608.181 -0.19245 -6.47714 0
M  V30 6326 N 601.587 1.56661 0.17182 0
M  V30 6327 C 603.003 1.50768 0.52357 0
M  V30 6328 C 603.203 0.806072 1.84675 0
M  V30 6329 O 602.259 0.366233 2.4983 0
M  V30 6330 C 603.572 2.955 0.556793 0
M  V30 6331 C 605.12 3.06303 0.644029 0
M  V30 6332 C 605.595 4.52492 0.708148 0
M  V30 6333 N 607.086 4.56737 0.771051 0
M  V30 6334 C 607.821 5.67196 0.841229 0
M  V30 6335 N 607.317 6.87287 0.872272 0
M  V30 6336 N 609.11 5.55165 0.88021 0
M  V30 6337 H 601.261 2.00679 -0.695817 0
M  V30 6338 H 603.524 0.914219 -0.250814 0
M  V30 6339 H 603.23 3.49986 -0.346774 0
M  V30 6340 H 603.104 3.50119 1.40346 0
M  V30 6341 H 605.491 2.51851 1.53802 0
M  V30 6342 H 605.572 2.5477 -0.229297 0
M  V30 6343 H 605.216 5.07575 -0.181585 0
M  V30 6344 H 605.146 5.01781 1.59761 0
M  V30 6345 H 607.637 3.70274 0.755364 0
M  V30 6346 H 607.95 7.6722 0.92698 0
M  V30 6347 H 606.295 6.89898 0.840557 0
M  V30 6348 H 609.486 4.60263 0.852956 0
M  V30 6349 H 609.659 6.41271 0.931439 0
M  V30 6350 N 603.065 -0.440357 1.51323 0
M  V30 6351 C 604.028 -1.51679 1.71832 0
M  V30 6352 C 605.028 -1.49648 0.588386 0
M  V30 6353 O 606.218 -1.51724 0.855891 0
M  V30 6354 C 603.35 -2.91228 1.77199 0
M  V30 6355 H 604.543 -1.34799 2.67898 0
M  V30 6356 H 602.096 -0.66883 1.41267 0
M  V30 6357 H 602.831 -3.13516 0.829363 0
M  V30 6358 H 602.616 -2.94107 2.59314 0
M  V30 6359 H 604.106 -3.69321 1.94915 0
M  V30 6360 N 604.543 -1.41418 -0.695603 0
M  V30 6361 C 605.789 -1.40982 -1.4578 0
M  V30 6362 C 606.122 -0.0187763 -1.94191 0
M  V30 6363 O 605.397 0.95346 -1.69527 0
M  V30 6364 C 605.68 -2.41657 -2.66972 0
M  V30 6365 C 605.533 -3.89869 -2.24327 0
M  V30 6366 C 606.852 -2.39589 -3.69168 0
M  V30 6367 H 603.971 -0.513405 -0.528757 0
M  V30 6368 H 606.613 -1.72693 -0.792275 0
M  V30 6369 H 604.763 -2.14746 -3.23754 0
M  V30 6370 H 606.435 -4.27683 -1.72872 0
M  V30 6371 H 604.678 -4.04737 -1.56111 0
M  V30 6372 H 605.349 -4.55857 -3.11285 0
M  V30 6373 H 607.825 -2.63471 -3.2206 0
M  V30 6374 H 606.701 -3.12044 -4.51575 0
M  V30 6375 H 606.962 -1.41447 -4.18862 0
M  V30 6376 N 606.021 0.929856 -1.27246 0
M  V30 6377 C 607.246 1.71674 -1.16374 0
M  V30 6378 C 607.671 1.86064 0.276024 0
M  V30 6379 O 607.029 1.3591 1.19992 0
M  V30 6380 C 607.077 3.09526 -1.85003 0
M  V30 6381 O 606.181 3.96142 -1.14653 0
M  V30 6382 H 605.522 0.52629 -0.404863 0
M  V30 6383 H 608.052 1.16381 -1.68276 0
M  V30 6384 H 608.062 3.59852 -1.92276 0
M  V30 6385 H 606.737 2.98369 -2.89739 0
M  V30 6386 H 605.314 3.54584 -1.15433 0
M  V30 6387 N 607.499 1.09233 1.13605 0
M  V30 6388 C 608.727 0.848908 1.88683 0
M  V30 6389 C 609.142 -0.599667 1.79024 0
M  V30 6390 O 608.499 -1.41265 1.15544 0
M  V30 6391 C 608.55 1.27273 3.38355 0
M  V30 6392 O 608.271 2.66449 3.47759 0
M  V30 6393 C 609.772 1.0614 4.30406 0
M  V30 6394 H 606.992 0.305549 0.597395 0
M  V30 6395 H 609.536 1.4538 1.43823 0
M  V30 6396 H 607.691 0.711776 3.80805 0
M  V30 6397 H 608.105 2.84264 4.40788 0
M  V30 6398 H 609.579 1.40725 5.33761 0
M  V30 6399 H 610.056 -0.000960332 4.392 0
M  V30 6400 H 610.662 1.60821 3.93722 0
M  V30 6401 N 608.977 -1.30795 0.87923 0
M  V30 6402 C 610.225 -1.95974 0.493809 0
M  V30 6403 C 610.546 -1.69787 -0.959021 0
M  V30 6404 O 609.816 -1.01832 -1.67353 0
M  V30 6405 H 608.396 -0.725083 0.179622 0
M  V30 6406 H 611.058 -1.59432 1.12105 0
M  V30 6407 H 610.154 -3.05058 0.659263 0
M  V30 6408 N 610.455 -0.639598 -1.44038 0
M  V30 6409 C 611.701 -0.147698 -2.02261 0
M  V30 6410 C 612.034 1.23031 -1.50256 0
M  V30 6411 O 611.309 1.81847 -0.690068 0
M  V30 6412 C 611.592 -0.14362 -3.59813 0
M  V30 6413 C 611.445 -1.55458 -4.22082 0
M  V30 6414 C 612.764 0.527317 -4.36929 0
M  V30 6415 H 609.883 -0.0551453 -0.734934 0
M  V30 6416 H 612.525 -0.817688 -1.71505 0
M  V30 6417 H 610.675 0.426898 -3.86147 0
M  V30 6418 H 612.347 -2.17464 -4.06826 0
M  V30 6419 H 610.59 -2.10594 -3.79253 0
M  V30 6420 H 611.261 -1.50369 -5.31124 0
M  V30 6421 H 613.737 0.0420504 -4.16079 0
M  V30 6422 H 612.613 0.499389 -5.46624 0
M  V30 6423 H 612.874 1.59914 -4.12165 0
M  V30 6424 N 611.933 1.52934 -0.380664 0
M  V30 6425 C 612.865 2.23822 0.493581 0
M  V30 6426 C 613.878 1.25761 1.03383 0
M  V30 6427 O 615.067 1.5189 0.937633 0
M  V30 6428 C 612.167 2.9342 1.69582 0
M  V30 6429 C 611.34 4.18115 1.28445 0
M  V30 6430 C 610.399 4.70788 2.35042 0
M  V30 6431 O 609.425 5.34093 1.96807 0
M  V30 6432 N 610.627 4.49899 3.66839 0
M  V30 6433 H 613.392 2.99484 -0.11371 0
M  V30 6434 H 610.953 1.60577 -0.206587 0
M  V30 6435 H 612.945 3.2556 2.40401 0
M  V30 6436 H 611.515 2.21119 2.20965 0
M  V30 6437 H 610.735 3.92109 0.405503 0
M  V30 6438 H 612.023 4.99152 0.986132 0
M  V30 6439 H 611.421 3.99349 4.0067 0
M  V30 6440 H 609.978 4.86551 4.33718 0
M  V30 6441 N 613.412 0.11024 1.57214 0
M  V30 6442 C 614.375 -0.828808 2.1369 0
M  V30 6443 C 615.375 -1.20059 1.06969 0
M  V30 6444 O 616.565 -1.12754 1.32786 0
M  V30 6445 C 613.697 -2.11959 2.66994 0
M  V30 6446 H 614.89 -0.338146 2.97988 0
M  V30 6447 H 612.443 -0.138913 1.55681 0
M  V30 6448 H 613.178 -2.65476 1.8626 0
M  V30 6449 H 612.963 -1.86258 3.45037 0
M  V30 6450 H 614.453 -2.79105 3.10629 0
M  V30 6451 N 614.89 -1.56749 -0.16351 0
M  V30 6452 C 616.138 -1.82074 -0.87713 0
M  V30 6453 C 616.459 -0.688503 -1.82441 0
M  V30 6454 O 615.729 0.291085 -1.93725 0
M  V30 6455 H 614.309 -0.671677 -0.326893 0
M  V30 6456 H 616.971 -1.9423 -0.161459 0
M  V30 6457 H 616.067 -2.76407 -1.44934 0
M  V30 6458 N 616.368 0.432326 -1.51554 0
M  V30 6459 C 617.617 1.17831 -1.63703 0
M  V30 6460 C 617.93 1.92229 -0.36156 0
M  V30 6461 O 619.136 2.69069 -0.362495 0
M  V30 6462 C 617.592 2.14318 -2.89129 0
M  V30 6463 C 617.2 1.45544 -4.23699 0
M  V30 6464 C 618.944 2.89319 -3.10636 0
M  V30 6465 C 616.851 2.40545 -5.4027 0
M  V30 6466 H 615.781 0.443533 -0.60975 0
M  V30 6467 H 618.432 0.444878 -1.78026 0
M  V30 6468 H 616.814 2.91117 -2.68452 0
M  V30 6469 H 617.988 0.742693 -4.54775 0
M  V30 6470 H 616.303 0.826772 -4.0811 0
M  V30 6471 H 618.9 3.60495 -3.94902 0
M  V30 6472 H 619.243 3.50951 -2.23918 0
M  V30 6473 H 619.776 2.19625 -3.31677 0
M  V30 6474 H 616.515 1.83594 -6.29264 0
M  V30 6475 H 616.035 3.09859 -5.13563 0
M  V30 6476 H 617.714 3.01569 -5.72421 0
M  V30 6477 N 617.846 1.41785 0.688094 0
M  V30 6478 C 619.257 1.3701 1.26828 0
M  V30 6479 C 619.608 0.056835 1.96118 0
M  V30 6480 O 618.733 -0.84475 1.99231 0
M  V30 6481 C 619.328 2.48168 2.30648 0
M  V30 6482 C 617.887 2.46766 2.84224 0
M  V30 6483 C 617.034 2.27633 1.58361 0
M  V30 6484 H 619.985 1.51192 0.482351 0
M  V30 6485 H 620.006 2.17655 3.121 0
M  V30 6486 H 619.518 3.43735 1.80188 0
M  V30 6487 H 617.619 1.54978 3.3884 0
M  V30 6488 H 617.732 3.43342 3.34145 0
M  V30 6489 H 616.096 1.75648 1.84445 0
M  V30 6490 H 616.879 3.25238 1.09887 0
M  V30 6491 N 619.324 -0.923095 1.27737 0
M  V30 6492 C 620.257 -2.02515 1.05181 0
M  V30 6493 C 621.235 -1.62574 -0.0292204 0
M  V30 6494 O 622.419 -1.88137 0.116848 0
M  V30 6495 C 619.546 -3.33407 0.596468 0
M  V30 6496 C 618.592 -3.92328 1.67276 0
M  V30 6497 S 619.425 -4.24342 3.26641 0
M  V30 6498 C 620.581 -5.58308 2.82919 0
M  V30 6499 H 620.814 -2.21336 1.98488 0
M  V30 6500 H 618.347 -1.06679 1.1162 0
M  V30 6501 H 620.305 -4.09086 0.34044 0
M  V30 6502 H 618.966 -3.125 -0.316614 0
M  V30 6503 H 618.159 -4.86797 1.30556 0
M  V30 6504 H 617.761 -3.2325 1.8811 0
M  V30 6505 H 620.053 -6.37801 2.28509 0
M  V30 6506 H 620.996 -5.99931 3.7615 0
M  V30 6507 H 621.404 -5.19049 2.21919 0
M  V30 6508 N 620.802 -1.09834 -1.13024 0
M  V30 6509 C 622.213 -0.855651 -1.65938 0
M  V30 6510 C 622.564 0.615159 -1.86307 0
M  V30 6511 O 621.689 1.47335 -1.58497 0
M  V30 6512 C 622.284 -1.5467 -3.01434 0
M  V30 6513 C 620.843 -1.35088 -3.51323 0
M  V30 6514 C 619.99 -1.6001 -2.26478 0
M  V30 6515 H 622.941 -1.25691 -0.968889 0
M  V30 6516 H 622.962 -0.982179 -3.67605 0
M  V30 6517 H 622.474 -2.61715 -2.86578 0
M  V30 6518 H 620.575 -0.30179 -3.71376 0
M  V30 6519 H 620.688 -2.0886 -4.31178 0
M  V30 6520 H 619.052 -1.02246 -2.33276 0
M  V30 6521 H 619.835 -2.68293 -2.14182 0
M  V30 6522 N 622.28 1.30327 -0.886154 0
M  V30 6523 C 623.52 1.97886 -0.511912 0
M  V30 6524 C 623.884 1.68417 0.921944 0
M  V30 6525 O 625.085 2.29319 1.40237 0
M  V30 6526 C 623.356 3.48775 -0.780444 0
M  V30 6527 S 624.915 4.35844 -0.508482 0
M  V30 6528 H 621.733 0.685024 -0.190428 0
M  V30 6529 H 624.335 1.58413 -1.14567 0
M  V30 6530 H 623.039 3.67714 -1.82248 0
M  V30 6531 H 622.57 3.93171 -0.134284 0
M  V30 6532 H 624.585 4.91893 0.65239 0
M  V30 6533 N 623.758 0.647228 1.43697 0
M  V30 6534 C 625.005 0.158188 2.01881 0
M  V30 6535 C 625.333 -1.22573 1.51017 0
M  V30 6536 O 624.588 -1.83086 0.69122 0
M  V30 6537 C 624.887 0.111481 3.57226 0
M  V30 6538 C 624.553 1.43633 4.27411 0
M  V30 6539 C 623.215 1.79915 4.463 0
M  V30 6540 C 625.567 2.31011 4.67208 0
M  V30 6541 C 622.895 3.03251 5.02251 0
M  V30 6542 C 625.247 3.53633 5.24525 0
M  V30 6543 C 623.911 3.90118 5.41631 0
M  V30 6544 H 623.181 0.0578851 0.738736 0
M  V30 6545 H 625.828 0.836746 1.72252 0
M  V30 6546 H 624.133 -0.650507 3.86362 0
M  V30 6547 H 625.83 -0.283682 3.99995 0
M  V30 6548 H 622.42 1.14403 4.1305 0
M  V30 6549 H 626.604 2.04272 4.52313 0
M  V30 6550 H 621.86 3.31575 5.13681 0
M  V30 6551 H 626.034 4.21561 5.5431 0
M  V30 6552 H 623.661 4.85768 5.84751 0
M  V30 6553 N 625.236 -1.5273 0.388769 0
M  V30 6554 C 626.464 -2.05992 -0.193677 0
M  V30 6555 C 626.879 -1.26053 -1.40557 0
M  V30 6556 O 626.236 -0.307049 -1.79898 0
M  V30 6557 C 626.287 -3.57068 -0.564321 0
M  V30 6558 O 626.008 -4.3398 0.599422 0
M  V30 6559 C 627.509 -4.26674 -1.20269 0
M  V30 6560 H 624.729 -0.670358 -0.0293445 0
M  V30 6561 H 627.273 -1.96857 0.553844 0
M  V30 6562 H 625.428 -3.66277 -1.26174 0
M  V30 6563 H 625.842 -5.2367 0.294895 0
M  V30 6564 H 627.316 -5.33625 -1.4124 0
M  V30 6565 H 627.793 -3.81854 -2.16989 0
M  V30 6566 H 628.399 -4.2178 -0.546047 0
M  V30 6567 N 626.714 -0.118576 -1.57153 0
M  V30 6568 C 627.942 0.54726 -1.99531 0
M  V30 6569 C 628.357 1.60251 -0.998246 0
M  V30 6570 O 627.714 1.82498 0.00893106 0
M  V30 6571 C 627.765 1.17378 -3.41913 0
M  V30 6572 O 627.486 0.160703 -4.37805 0
M  V30 6573 C 628.987 1.92297 -3.9942 0
M  V30 6574 H 626.207 0.144919 -0.655164 0
M  V30 6575 H 628.751 -0.20479 -2.03472 0
M  V30 6576 H 626.906 1.87661 -3.38913 0
M  V30 6577 H 627.32 0.61586 -5.20872 0
M  V30 6578 H 628.794 2.31462 -5.01128 0
M  V30 6579 H 629.271 2.79801 -3.38538 0
M  V30 6580 H 629.877 1.26777 -4.05965 0
M  V30 6581 N 628.193 1.56834 0.155195 0
M  V30 6582 C 629.156 1.96748 1.17571 0
M  V30 6583 C 630.156 0.853006 1.3631 0
M  V30 6584 O 631.346 1.11978 1.33441 0
M  V30 6585 C 628.478 2.27631 2.53765 0
M  V30 6586 H 629.671 2.88085 0.833498 0
M  V30 6587 H 627.224 1.51141 0.398242 0
M  V30 6588 H 627.959 1.39059 2.92973 0
M  V30 6589 H 627.744 3.0888 2.41527 0
M  V30 6590 H 629.234 2.59377 3.27282 0
M  V30 6591 N 629.671 -0.424282 1.51781 0
M  V30 6592 C 630.601 -1.52305 1.7699 0
M  V30 6593 C 631.582 -1.5839 0.620209 0
M  V30 6594 O 632.767 -1.73908 0.864268 0
M  V30 6595 C 629.897 -2.90271 1.90683 0
M  V30 6596 C 628.851 -2.99043 3.06198 0
M  V30 6597 C 628.177 -4.39116 3.05092 0
M  V30 6598 C 629.477 -2.7192 4.45934 0
M  V30 6599 H 631.171 -1.31461 2.68995 0
M  V30 6600 H 628.717 -0.630985 1.29439 0
M  V30 6601 H 630.67 -3.6711 2.06901 0
M  V30 6602 H 629.394 -3.12376 0.953365 0
M  V30 6603 H 628.053 -2.24646 2.89706 0
M  V30 6604 H 627.701 -4.58207 2.07498 0
M  V30 6605 H 627.401 -4.45912 3.82669 0
M  V30 6606 H 628.925 -5.17911 3.2342 0
M  V30 6607 H 630.339 -3.38487 4.62709 0
M  V30 6608 H 628.736 -2.90111 5.25315 0
M  V30 6609 H 629.806 -1.67445 4.55072 0
M  V30 6610 N 631.149 -1.42148 -0.680565 0
M  V30 6611 C 632.374 -1.45901 -1.47403 0
M  V30 6612 C 632.799 -0.0700985 -1.87969 0
M  V30 6613 O 632.157 0.930145 -1.55621 0
M  V30 6614 C 632.205 -2.38661 -2.70321 0
M  V30 6615 O 631.309 -1.85399 -3.68376 0
M  V30 6616 H 630.65 -0.494565 -0.443059 0
M  V30 6617 H 633.18 -1.86774 -0.835251 0
M  V30 6618 H 633.19 -2.55046 -3.18458 0
M  V30 6619 H 631.865 -3.39571 -2.40134 0
M  V30 6620 H 630.442 -1.78541 -3.2738 0
M  V30 6621 N 632.627 0.916307 -1.28225 0
M  V30 6622 C 633.874 1.66518 -1.1523 0
M  V30 6623 C 634.202 1.92178 0.299632 0
M  V30 6624 O 633.457 1.51842 1.2346 0
M  V30 6625 C 633.756 3.03125 -1.8934 0
M  V30 6626 C 633.422 2.97135 -3.39148 0
M  V30 6627 C 632.084 2.95208 -3.80007 0
M  V30 6628 C 634.436 2.87574 -4.34685 0
M  V30 6629 C 631.764 2.81518 -5.14747 0
M  V30 6630 C 634.116 2.75424 -5.69495 0
M  V30 6631 C 632.78 2.71854 -6.09632 0
M  V30 6632 H 632.05 0.609334 -0.421655 0
M  V30 6633 H 634.697 1.06776 -1.58969 0
M  V30 6634 H 633.002 3.66639 -1.38143 0
M  V30 6635 H 634.699 3.59968 -1.76704 0
M  V30 6636 H 631.289 2.99428 -3.06661 0
M  V30 6637 H 635.473 2.88152 -4.04082 0
M  V30 6638 H 630.729 2.77148 -5.44976 0
M  V30 6639 H 634.903 2.66993 -6.43185 0
M  V30 6640 H 632.53 2.61003 -7.1399 0
M  V30 6641 N 634.105 1.10431 1.1244 0
M  V30 6642 C 635.335 0.867612 1.87499 0
M  V30 6643 C 635.743 -0.585475 1.79913 0
M  V30 6644 O 635.086 -1.41539 1.171 0
M  V30 6645 C 635.148 1.2374 3.37533 0
M  V30 6646 C 634.812 2.69751 3.68895 0
M  V30 6647 C 635.809 3.67988 3.67261 0
M  V30 6648 C 633.494 3.06135 3.98229 0
M  V30 6649 C 635.488 5.00632 3.9452 0
M  V30 6650 C 633.175 4.38967 4.25149 0
M  V30 6651 C 634.173 5.36025 4.23281 0
M  V30 6652 O 633.861 6.66465 4.49533 0
M  V30 6653 H 633.593 0.311196 0.600111 0
M  V30 6654 H 636.147 1.47257 1.43194 0
M  V30 6655 H 634.377 0.575537 3.82393 0
M  V30 6656 H 636.066 0.978187 3.93937 0
M  V30 6657 H 636.832 3.41224 3.44661 0
M  V30 6658 H 632.711 2.31214 3.98825 0
M  V30 6659 H 636.255 5.7638 3.92978 0
M  V30 6660 H 632.152 4.6547 4.47223 0
M  V30 6661 H 632.92 6.72095 4.67152 0
M  V30 6662 N 635.583 -1.29855 0.893053 0
M  V30 6663 C 636.86 -1.90694 0.435336 0
M  V30 6664 C 637.24 -1.8111 -1.08454 0
M  V30 6665 O 636.588 -1.23352 -1.92345 0
M  V30 6666 C 636.798 -3.36033 0.942472 0
M  V30 6667 C 638.146 -4.13083 0.982226 0
M  V30 6668 O 639.17 -3.4491 0.889686 0
M  V30 6669 O 638.029 -5.34896 1.12022 0
M  V30 6670 H 635.123 -0.815978 0.134567 0
M  V30 6671 H 637.669 -1.38367 0.982484 0
M  V30 6672 H 636.441 -3.37132 1.9864 0
M  V30 6673 H 636.064 -3.95828 0.374952 0
M  V30 6674 N 637.061 -0.65484 -1.43351 0
M  V30 6675 C 638.309 -0.168559 -2.01396 0
M  V30 6676 C 638.63 1.22235 -1.51933 0
M  V30 6677 O 637.9 1.81685 -0.732627 0
M  V30 6678 H 636.48 -0.0593244 -0.744641 0
M  V30 6679 H 639.142 -0.846871 -1.75539 0
M  V30 6680 H 638.238 -0.154428 -3.11718 0
M  V30 6681 N 638.539 1.52521 -0.396863 0
M  V30 6682 C 639.769 2.05792 0.182485 0
M  V30 6683 C 640.177 1.26784 1.40436 0
M  V30 6684 O 639.52 0.309617 1.81072 0
M  V30 6685 C 639.582 3.54291 0.609781 0
M  V30 6686 C 639.246 4.5426 -0.499674 0
M  V30 6687 C 640.243 5.01812 -1.35944 0
M  V30 6688 C 637.928 4.97827 -0.668864 0
M  V30 6689 C 639.922 5.91562 -2.37346 0
M  V30 6690 C 637.609 5.87376 -1.68621 0
M  V30 6691 C 638.607 6.34137 -2.53692 0
M  V30 6692 O 638.295 7.21915 -3.53686 0
M  V30 6693 H 638.027 0.675362 0.0293583 0
M  V30 6694 H 640.581 1.97539 -0.56281 0
M  V30 6695 H 638.811 3.60188 1.40717 0
M  V30 6696 H 640.5 3.90267 1.11565 0
M  V30 6697 H 641.266 4.68879 -1.24008 0
M  V30 6698 H 637.145 4.60997 -0.0163971 0
M  V30 6699 H 640.689 6.27983 -3.03782 0
M  V30 6700 H 636.586 6.19723 -1.80593 0
M  V30 6701 H 637.354 7.39996 -3.49784 0
M  V30 6702 N 640.017 0.126909 1.57088 0
M  V30 6703 C 641.433 -0.229641 1.57939 0
M  V30 6704 C 641.633 -1.66145 1.1401 0
M  V30 6705 O 640.689 -2.3843 0.831119 0
M  V30 6706 C 642.002 0.0108648 3.00698 0
M  V30 6707 C 643.55 -0.054418 3.12953 0
M  V30 6708 C 644.025 0.158497 4.57726 0
M  V30 6709 N 645.516 0.104735 4.63082 0
M  V30 6710 C 646.251 0.24427 5.72879 0
M  V30 6711 N 645.747 0.440415 6.91399 0
M  V30 6712 N 647.54 0.183286 5.61801 0
M  V30 6713 H 639.691 1.06203 1.83942 0
M  V30 6714 H 641.954 0.418834 0.85046 0
M  V30 6715 H 641.66 1.00102 3.37154 0
M  V30 6716 H 641.534 -0.717512 3.70313 0
M  V30 6717 H 643.921 -1.0351 2.7635 0
M  V30 6718 H 644.002 0.705967 2.45865 0
M  V30 6719 H 643.646 1.13619 4.95028 0
M  V30 6720 H 643.576 -0.62197 5.22914 0
M  V30 6721 H 646.067 -0.0430298 3.77876 0
M  V30 6722 H 646.38 0.537536 7.70928 0
M  V30 6723 H 644.725 0.476488 6.93365 0
M  V30 6724 H 647.916 0.0309561 4.6809 0
M  V30 6725 H 648.089 0.295471 6.47326 0
M  V30 6726 N 641.495 -1.56914 -0.146875 0
M  V30 6727 C 642.445 -1.94693 -1.18653 0
M  V30 6728 C 643.429 -0.81821 -1.38543 0
M  V30 6729 O 644.621 -1.08167 -1.40103 0
M  V30 6730 C 641.75 -2.33117 -2.52014 0
M  V30 6731 C 640.836 -3.5256 -2.35717 0
M  V30 6732 N 641.227 -4.69091 -1.89175 0
M  V30 6733 C 639.525 -3.57647 -2.66467 0
M  V30 6734 C 640.226 -5.51187 -1.85924 0
M  V30 6735 N 639.202 -4.92899 -2.29242 0
M  V30 6736 H 643.004 -2.82264 -0.81879 0
M  V30 6737 H 640.518 -1.58474 -0.354929 0
M  V30 6738 H 642.515 -2.58387 -3.27172 0
M  V30 6739 H 641.175 -1.46898 -2.89571 0
M  V30 6740 H 642.186 -4.92844 -1.59139 0
M  V30 6741 H 638.863 -2.81967 -3.07898 0
M  V30 6742 H 640.253 -6.54613 -1.51431 0
M  V30 6743 N 642.974 0.416227 -1.52004 0
M  V30 6744 C 643.884 1.53147 -1.77717 0
M  V30 6745 C 644.9 1.609 -0.662368 0
M  V30 6746 O 646.076 1.77747 -0.946991 0
M  V30 6747 C 643.141 2.88948 -1.91598 0
M  V30 6748 C 642.202 2.9114 -3.15493 0
M  V30 6749 C 641.435 4.20464 -3.28703 0
M  V30 6750 O 641.658 5.13981 -2.47345 0
M  V30 6751 O 640.592 4.29368 -4.21813 0
M  V30 6752 H 644.418 1.34357 -2.72363 0
M  V30 6753 H 642.003 0.601373 -1.36762 0
M  V30 6754 H 643.885 3.69505 -2.02593 0
M  V30 6755 H 642.56 3.07821 -1.00141 0
M  V30 6756 H 641.467 2.09461 -3.09962 0
M  V30 6757 H 642.8 2.77216 -4.06709 0
M  V30 6758 N 644.452 1.42507 0.673017 0
M  V30 6759 C 645.385 1.40557 1.79774 0
M  V30 6760 C 646.363 0.269606 1.60349 0
M  V30 6761 O 647.547 0.460105 1.82798 0
M  V30 6762 C 644.674 1.19815 3.168 0
M  V30 6763 C 643.72 2.36429 3.5497 0
M  V30 6764 S 644.553 3.98963 3.57196 0
M  V30 6765 C 645.709 3.80567 4.9691 0
M  V30 6766 H 645.942 2.35734 1.81154 0
M  V30 6767 H 643.475 1.293 0.843846 0
M  V30 6768 H 645.433 1.08535 3.95892 0
M  V30 6769 H 644.094 0.262215 3.13004 0
M  V30 6770 H 643.287 2.17669 4.54573 0
M  V30 6771 H 642.889 2.44233 2.83242 0
M  V30 6772 H 645.181 3.41668 5.85038 0
M  V30 6773 H 646.124 4.79852 5.20718 0
M  V30 6774 H 646.532 3.13399 4.69512 0
M  V30 6775 N 645.93 -0.909495 1.28709 0
M  V30 6776 C 646.86 -2.0291 1.15542 0
M  V30 6777 C 647.841 -1.7002 0.0521017 0
M  V30 6778 O 649.026 -1.92835 0.229849 0
M  V30 6779 C 646.156 -3.37458 0.820935 0
M  V30 6780 C 645.11 -3.84524 1.87949 0
M  V30 6781 C 644.436 -5.16086 1.39854 0
M  V30 6782 C 645.736 -4.05918 3.28676 0
M  V30 6783 H 647.43 -2.14183 2.09203 0
M  V30 6784 H 644.976 -1.02913 1.00722 0
M  V30 6785 H 646.929 -4.1528 0.715571 0
M  V30 6786 H 645.653 -3.26249 -0.151374 0
M  V30 6787 H 644.312 -3.08911 1.97408 0
M  V30 6788 H 643.96 -5.01284 0.41518 0
M  V30 6789 H 643.66 -5.48547 2.1064 0
M  V30 6790 H 645.184 -5.96459 1.30649 0
M  V30 6791 H 646.598 -4.74252 3.22115 0
M  V30 6792 H 644.995 -4.49717 3.97334 0
M  V30 6793 H 646.065 -3.10583 3.72379 0
M  V30 6794 N 647.408 -1.11026 -1.11852 0
M  V30 6795 C 648.819 -0.873203 -1.65021 0
M  V30 6796 C 649.17 0.595364 -1.86949 0
M  V30 6797 O 648.295 1.45645 -1.60051 0
M  V30 6798 C 648.89 -1.57859 -2.99777 0
M  V30 6799 C 647.449 -1.38807 -3.49871 0
M  V30 6800 C 646.596 -1.62403 -2.24768 0
M  V30 6801 H 649.547 -1.26712 -0.955503 0
M  V30 6802 H 649.568 -1.02111 -3.66543 0
M  V30 6803 H 649.08 -2.6474 -2.83786 0
M  V30 6804 H 647.181 -0.341163 -3.71035 0
M  V30 6805 H 647.294 -2.13421 -4.28938 0
M  V30 6806 H 645.658 -1.04714 -2.32179 0
M  V30 6807 H 646.441 -2.70549 -2.11324 0
M  V30 6808 N 648.886 1.2938 -0.899927 0
M  V30 6809 C 649.849 2.25983 -0.382677 0
M  V30 6810 C 650.849 1.53366 0.483259 0
M  V30 6811 O 652.039 1.71798 0.28828 0
M  V30 6812 C 649.171 3.37878 0.452915 0
M  V30 6813 H 650.364 2.73252 -1.23586 0
M  V30 6814 H 647.917 1.40825 -0.678088 0
M  V30 6815 H 648.652 2.95949 1.32608 0
M  V30 6816 H 648.437 3.91742 -0.167562 0
M  V30 6817 H 649.927 4.09746 0.806107 0
M  V30 6818 N 650.364 0.662433 1.43002 0
M  V30 6819 C 651.589 0.186003 2.06564 0
M  V30 6820 C 652.014 -1.14314 1.49379 0
M  V30 6821 O 651.372 -1.70824 0.607346 0
M  V30 6822 C 651.42 0.118269 3.60406 0
M  V30 6823 O 650.524 -0.916859 4.02079 0
M  V30 6824 H 649.865 0.0990981 0.656563 0
M  V30 6825 H 652.395 0.907958 1.8335 0
M  V30 6826 H 652.405 -0.0619981 4.07953 0
M  V30 6827 H 651.08 1.08849 4.01403 0
M  V30 6828 H 649.657 -0.708635 3.66105 0
M  V30 6829 N 651.842 -1.52309 0.404946 0
M  V30 6830 C 652.772 -2.29805 -0.41376 0
M  V30 6831 C 653.753 -1.3384 -1.0498 0
M  V30 6832 O 654.938 -1.62745 -1.05961 0
M  V30 6833 C 652.068 -3.11639 -1.53292 0
M  V30 6834 C 651.022 -4.15616 -1.02211 0
M  V30 6835 C 650.348 -4.8577 -2.23455 0
M  V30 6836 C 651.648 -5.2224 -0.0790725 0
M  V30 6837 H 653.342 -2.98493 0.232878 0
M  V30 6838 H 650.888 -1.43552 0.113441 0
M  V30 6839 H 652.841 -3.64618 -2.11262 0
M  V30 6840 H 651.565 -2.40712 -2.20738 0
M  V30 6841 H 650.224 -3.63641 -0.46484 0
M  V30 6842 H 649.872 -4.11376 -2.89445 0
M  V30 6843 H 649.572 -5.56058 -1.89929 0
M  V30 6844 H 651.096 -5.4156 -2.82038 0
M  V30 6845 H 652.51 -5.70485 -0.567438 0
M  V30 6846 H 650.907 -5.99867 0.167167 0
M  V30 6847 H 651.977 -4.77078 0.867447 0
M  V30 6848 N 653.32 -0.135238 -1.57019 0
M  V30 6849 C 654.569 0.518694 -1.94917 0
M  V30 6850 C 654.882 1.66783 -1.0219 0
M  V30 6851 O 656.088 2.38561 -1.29619 0
M  V30 6852 C 654.544 0.974123 -3.46466 0
M  V30 6853 C 654.152 -0.147439 -4.47757 0
M  V30 6854 C 655.896 1.59851 -3.93253 0
M  V30 6855 C 653.803 0.325599 -5.90503 0
M  V30 6856 H 652.733 0.19754 -0.727663 0
M  V30 6857 H 655.384 -0.217698 -1.82204 0
M  V30 6858 H 653.766 1.76542 -3.5447 0
M  V30 6859 H 654.94 -0.924122 -4.51438 0
M  V30 6860 H 653.255 -0.679496 -4.10818 0
M  V30 6861 H 655.852 1.96385 -4.9733 0
M  V30 6862 H 656.195 2.48306 -3.3414 0
M  V30 6863 H 656.728 0.872323 -3.88118 0
M  V30 6864 H 653.467 -0.523295 -6.53408 0
M  V30 6865 H 652.987 1.06841 -5.90208 0
M  V30 6866 H 654.666 0.781498 -6.42263 0
M  V30 6867 N 654.798 1.5699 0.138552 0
M  V30 6868 C 655.73 1.95515 1.1961 0
M  V30 6869 C 656.743 0.852002 1.38726 0
M  V30 6870 O 657.932 1.13038 1.38147 0
M  V30 6871 C 655.032 2.2213 2.55952 0
M  V30 6872 C 654.205 3.53424 2.57702 0
M  V30 6873 C 653.264 3.6848 3.75645 0
M  V30 6874 O 652.29 4.4079 3.60129 0
M  V30 6875 N 653.492 3.05777 4.93438 0
M  V30 6876 H 656.257 2.86838 0.868557 0
M  V30 6877 H 653.818 1.58542 0.328033 0
M  V30 6878 H 655.81 2.29435 3.33379 0
M  V30 6879 H 654.38 1.3703 2.80965 0
M  V30 6880 H 653.6 3.57484 1.6613 0
M  V30 6881 H 654.888 4.39759 2.55909 0
M  V30 6882 H 654.286 2.46961 5.08947 0
M  V30 6883 H 652.843 3.18631 5.6861 0
M  V30 6884 N 656.276 -0.40816 1.52223 0
M  V30 6885 C 657.239 -1.48 1.7501 0
M  V30 6886 C 658.239 -1.48367 0.619996 0
M  V30 6887 O 659.429 -1.49874 0.887881 0
M  V30 6888 C 656.561 -2.87403 1.83336 0
M  V30 6889 H 657.754 -1.29086 2.70697 0
M  V30 6890 H 655.307 -0.638715 1.42654 0
M  V30 6891 H 656.042 -3.11686 0.895677 0
M  V30 6892 H 655.827 -2.8854 2.65494 0
M  V30 6893 H 657.317 -3.65103 2.02705 0
M  V30 6894 N 657.755 -1.42862 -0.66545 0
M  V30 6895 C 658.687 -1.43026 -1.79098 0
M  V30 6896 C 659.7 -0.32803 -1.59461 0
M  V30 6897 O 660.889 -0.591709 -1.68407 0
M  V30 6898 C 657.989 -1.21566 -3.16346 0
M  V30 6899 C 657.162 -2.44399 -3.62751 0
M  V30 6900 C 656.221 -2.18344 -4.78761 0
M  V30 6901 O 655.247 -2.91611 -4.88827 0
M  V30 6902 N 656.449 -1.1924 -5.68122 0
M  V30 6903 H 659.214 -2.40045 -1.79439 0
M  V30 6904 H 656.775 -1.37861 -0.848872 0
M  V30 6905 H 658.767 -1.02037 -3.91625 0
M  V30 6906 H 657.337 -0.330368 -3.10849 0
M  V30 6907 H 656.557 -2.79433 -2.78048 0
M  V30 6908 H 657.845 -3.26173 -3.90498 0
M  V30 6909 H 657.243 -0.586603 -5.6265 0
M  V30 6910 H 655.8 -1.05698 -6.43173 0
M  V30 6911 N 659.233 0.902656 -1.29189 0
M  V30 6912 C 660.649 1.18296 -1.07137 0
M  V30 6913 C 660.849 2.00701 0.179223 0
M  V30 6914 O 659.905 2.3675 0.877812 0
M  V30 6915 C 661.218 1.90677 -2.32514 0
M  V30 6916 C 662.766 2.03515 -2.37804 0
M  V30 6917 C 663.241 2.79307 -3.62976 0
M  V30 6918 N 664.732 2.86862 -3.63681 0
M  V30 6919 C 665.467 3.46035 -4.57217 0
M  V30 6920 N 664.963 4.06399 -5.61081 0
M  V30 6921 N 666.756 3.43681 -4.44792 0
M  V30 6922 H 658.907 0.352765 -2.0945 0
M  V30 6923 H 661.17 0.21876 -0.922414 0
M  V30 6924 H 660.876 1.3756 -3.23682 0
M  V30 6925 H 660.75 2.91169 -2.39793 0
M  V30 6926 H 663.137 2.55809 -1.47125 0
M  V30 6927 H 663.218 1.02166 -2.34512 0
M  V30 6928 H 662.862 2.2769 -4.54004 0
M  V30 6929 H 662.792 3.80995 -3.63525 0
M  V30 6930 H 665.283 2.43987 -2.88581 0
M  V30 6931 H 665.596 4.49564 -6.2858 0
M  V30 6932 H 663.941 4.0487 -5.64894 0
M  V30 6933 H 667.132 2.9574 -3.62843 0
M  V30 6934 H 667.305 3.89503 -5.17872 0
M  V30 6935 N 660.711 1.11618 1.11262 0
M  V30 6936 C 661.988 0.777876 1.79467 0
M  V30 6937 C 662.368 -0.733774 1.97937 0
M  V30 6938 O 661.716 -1.66443 1.56554 0
M  V30 6939 C 661.926 1.5431 3.13032 0
M  V30 6940 C 663.274 1.72357 3.88044 0
M  V30 6941 O 664.298 1.5075 3.22727 0
M  V30 6942 O 663.157 2.08276 5.05256 0
M  V30 6943 H 660.251 0.282018 0.777428 0
M  V30 6944 H 662.797 1.21971 1.17988 0
M  V30 6945 H 661.569 2.57132 2.94956 0
M  V30 6946 H 661.192 1.09495 3.82226 0
M  V30 6947 N 662.189 -1.289 0.906776 0
M  V30 6948 C 663.419 -1.99112 0.551168 0
M  V30 6949 C 663.827 -1.67998 -0.870243 0
M  V30 6950 O 663.17 -0.92525 -1.58697 0
M  V30 6951 C 663.232 -3.53162 0.672065 0
M  V30 6952 C 662.896 -4.07849 2.06174 0
M  V30 6953 C 663.893 -4.22212 3.0337 0
M  V30 6954 C 661.578 -4.4271 2.37304 0
M  V30 6955 C 663.572 -4.70678 4.29815 0
M  V30 6956 C 661.259 -4.90871 3.6399 0
M  V30 6957 C 662.257 -5.04811 4.6006 0
M  V30 6958 O 661.945 -5.51925 5.84495 0
M  V30 6959 H 661.677 -0.642728 0.209469 0
M  V30 6960 H 664.231 -1.65234 1.22012 0
M  V30 6961 H 662.461 -3.86662 -0.05394 0
M  V30 6962 H 664.15 -4.046 0.324579 0
M  V30 6963 H 664.916 -3.9556 2.80637 0
M  V30 6964 H 660.795 -4.31114 1.63283 0
M  V30 6965 H 664.339 -4.81474 5.04806 0
M  V30 6966 H 660.236 -5.16961 3.86551 0
M  V30 6967 H 661.004 -5.70225 5.87185 0
M  V30 6968 N 663.667 -0.670007 -1.42649 0
M  V30 6969 C 664.914 -0.190286 -2.01604 0
M  V30 6970 C 665.242 1.20155 -1.52948 0
M  V30 6971 O 664.497 1.81964 -0.72026 0
M  V30 6972 C 664.796 -0.168298 -3.57004 0
M  V30 6973 C 664.462 -1.50415 -4.25072 0
M  V30 6974 C 663.124 -1.86992 -4.43382 0
M  V30 6975 C 665.476 -2.38414 -4.63474 0
M  V30 6976 C 662.804 -3.11203 -4.97363 0
M  V30 6977 C 665.156 -3.61933 -5.18833 0
M  V30 6978 C 663.82 -3.98685 -5.35356 0
M  V30 6979 H 663.09 -0.0696305 -0.737721 0
M  V30 6980 H 665.737 -0.864044 -1.70899 0
M  V30 6981 H 664.042 0.588958 -3.87348 0
M  V30 6982 H 665.739 0.22001 -4.00396 0
M  V30 6983 H 662.329 -1.20959 -4.11177 0
M  V30 6984 H 666.513 -2.11442 -4.49006 0
M  V30 6985 H 661.769 -3.39705 -5.08341 0
M  V30 6986 H 665.943 -4.30326 -5.47533 0
M  V30 6987 H 663.57 -4.95009 -5.76949 0
M  V30 6988 N 665.145 1.52092 -0.413018 0
M  V30 6989 C 666.393 2.01456 0.161178 0
M  V30 6990 C 666.714 1.30034 1.45314 0
M  V30 6991 O 665.984 0.427435 1.9118 0
M  V30 6992 H 664.564 0.744376 0.0625526 0
M  V30 6993 H 667.226 1.86974 -0.550151 0
M  V30 6994 H 666.322 3.1008 0.354517 0
M  V30 6995 N 666.623 0.143563 1.56945 0
M  V30 6996 C 667.586 -0.783295 2.154 0
M  V30 6997 C 668.586 -1.17763 1.09492 0
M  V30 6998 O 669.776 -1.09912 1.35148 0
M  V30 6999 C 666.908 -2.06248 2.7143 0
M  V30 7000 H 668.101 -0.274863 2.98638 0
M  V30 7001 H 665.654 -0.105859 1.55941 0
M  V30 7002 H 666.389 -2.61466 1.91849 0
M  V30 7003 H 666.174 -1.78897 3.4891 0
M  V30 7004 H 667.664 -2.72453 3.16479 0
M  V30 7005 N 668.101 -1.57061 -0.130224 0
M  V30 7006 C 669.051 -1.95941 -1.16582 0
M  V30 7007 C 670.035 -0.832858 -1.37667 0
M  V30 7008 O 671.227 -1.09647 -1.38948 0
M  V30 7009 C 668.356 -2.35777 -2.49528 0
M  V30 7010 C 667.442 -3.5504 -2.31964 0
M  V30 7011 N 667.833 -4.71071 -1.84189 0
M  V30 7012 C 666.131 -3.60453 -2.62659 0
M  V30 7013 C 666.832 -5.53128 -1.80068 0
M  V30 7014 N 665.808 -4.95303 -2.24001 0
M  V30 7015 H 669.61 -2.83117 -0.788806 0
M  V30 7016 H 667.124 -1.58842 -0.3381 0
M  V30 7017 H 669.121 -2.61843 -3.24413 0
M  V30 7018 H 667.781 -1.49961 -2.87996 0
M  V30 7019 H 668.792 -4.94504 -1.53903 0
M  V30 7020 H 665.469 -2.85217 -3.0489 0
M  V30 7021 H 666.859 -6.56182 -1.4448 0
M  V30 7022 N 669.579 0.400081 -1.52437 0
M  V30 7023 C 670.807 1.16768 -1.70801 0
M  V30 7024 C 671.222 1.84036 -0.421462 0
M  V30 7025 O 670.579 1.72242 0.603228 0
M  V30 7026 C 670.63 2.22403 -2.8499 0
M  V30 7027 O 670.351 1.57879 -4.08663 0
M  V30 7028 C 671.852 3.11974 -3.1494 0
M  V30 7029 H 669.072 0.350533 -0.57216 0
M  V30 7030 H 671.616 0.469534 -1.99037 0
M  V30 7031 H 669.771 2.87871 -2.59247 0
M  V30 7032 H 670.185 2.27982 -4.7236 0
M  V30 7033 H 671.659 3.82148 -3.9833 0
M  V30 7034 H 672.136 3.74858 -2.28863 0
M  V30 7035 H 672.742 2.52165 -3.42481 0
M  V30 7036 N 671.057 1.43213 0.657864 0
M  V30 7037 C 672.287 1.478 1.44356 0
M  V30 7038 C 672.695 0.0930206 1.88971 0
M  V30 7039 O 672.038 -0.906089 1.59799 0
M  V30 7040 C 672.1 2.35745 2.71412 0
M  V30 7041 C 671.764 3.83359 2.48767 0
M  V30 7042 C 672.761 4.74585 2.12285 0
M  V30 7043 C 670.446 4.27799 2.63235 0
M  V30 7044 C 672.44 6.08247 1.90562 0
M  V30 7045 C 670.127 5.61516 2.41128 0
M  V30 7046 C 671.125 6.51557 2.04847 0
M  V30 7047 O 670.813 7.82802 1.82967 0
M  V30 7048 H 670.545 0.504363 0.450104 0
M  V30 7049 H 673.099 1.88572 0.814241 0
M  V30 7050 H 671.329 1.89852 3.36887 0
M  V30 7051 H 673.018 2.31589 3.33348 0
M  V30 7052 H 673.784 4.41531 2.00687 0
M  V30 7053 H 669.663 3.57993 2.90451 0
M  V30 7054 H 673.207 6.78489 1.62168 0
M  V30 7055 H 669.104 5.94139 2.52327 0
M  V30 7056 H 669.872 7.94332 1.97429 0
M  V30 7057 N 672.536 -0.895792 1.29666 0
M  V30 7058 C 673.446 -2.03329 1.17024 0
M  V30 7059 C 674.462 -1.73753 0.0925962 0
M  V30 7060 O 675.638 -1.99071 0.305431 0
M  V30 7061 C 672.703 -3.36072 0.851841 0
M  V30 7062 C 671.764 -3.7914 2.01373 0
M  V30 7063 C 670.997 -5.05549 1.71043 0
M  V30 7064 O 671.22 -5.66874 0.633213 0
M  V30 7065 O 670.154 -5.44764 2.5596 0
M  V30 7066 H 673.98 -2.16918 2.12556 0
M  V30 7067 H 671.565 -1.02007 1.09156 0
M  V30 7068 H 673.447 -4.15729 0.689006 0
M  V30 7069 H 672.122 -3.23616 -0.0736634 0
M  V30 7070 H 671.029 -3.00233 2.23183 0
M  V30 7071 H 672.362 -3.96186 2.92058 0
M  V30 7072 N 674.014 -1.12206 -1.10668 0
M  V30 7073 C 674.944 -0.810086 -2.18997 0
M  V30 7074 C 675.925 0.225065 -1.68604 0
M  V30 7075 O 677.11 0.086783 -1.94006 0
M  V30 7076 C 674.24 -0.261262 -3.46316 0
M  V30 7077 C 673.194 -1.2292 -4.09969 0
M  V30 7078 C 672.52 -0.540713 -5.31959 0
M  V30 7079 C 673.82 -2.58295 -4.53962 0
M  V30 7080 H 675.514 -1.7159 -2.45352 0
M  V30 7081 H 673.06 -0.82646 -1.17922 0
M  V30 7082 H 675.013 -0.0307522 -4.21389 0
M  V30 7083 H 673.737 0.679879 -3.19445 0
M  V30 7084 H 672.396 -1.44548 -3.369 0
M  V30 7085 H 672.044 0.405492 -5.01363 0
M  V30 7086 H 671.744 -1.18637 -5.75499 0
M  V30 7087 H 673.268 -0.319184 -6.09765 0
M  V30 7088 H 674.682 -2.40709 -5.20319 0
M  V30 7089 H 673.079 -3.18916 -5.08343 0
M  V30 7090 H 674.149 -3.16918 -3.67002 0
M  V30 7091 N 675.492 1.28418 -0.913599 0
M  V30 7092 C 676.422 2.29713 -0.418847 0
M  V30 7093 C 677.403 1.62165 0.513469 0
M  V30 7094 O 678.588 1.89576 0.421235 0
M  V30 7095 C 675.718 3.45612 0.342042 0
M  V30 7096 C 674.672 4.25056 -0.501123 0
M  V30 7097 C 673.998 5.3329 0.388097 0
M  V30 7098 C 675.298 4.91814 -1.75831 0
M  V30 7099 H 676.992 2.71346 -1.26538 0
M  V30 7100 H 674.538 1.30446 -0.609903 0
M  V30 7101 H 676.491 4.15562 0.699 0
M  V30 7102 H 675.215 3.02858 1.22248 0
M  V30 7103 H 673.874 3.56833 -0.840598 0
M  V30 7104 H 673.522 4.8678 1.26707 0
M  V30 7105 H 673.222 5.87347 -0.172459 0
M  V30 7106 H 674.746 6.06088 0.74094 0
M  V30 7107 H 676.16 5.54126 -1.47026 0
M  V30 7108 H 674.557 5.55866 -2.26126 0
M  V30 7109 H 675.627 4.16313 -2.4862 0
M  V30 7110 N 676.97 0.677563 1.42291 0
M  V30 7111 C 677.933 0.0101085 2.29198 0
M  V30 7112 C 678.933 -0.726219 1.43467 0
M  V30 7113 O 680.123 -0.563807 1.64824 0
M  V30 7114 C 677.255 -0.996316 3.26016 0
M  V30 7115 H 678.448 0.775071 2.89711 0
M  V30 7116 H 676.001 0.440065 1.49977 0
M  V30 7117 H 676.736 -1.78967 2.70446 0
M  V30 7118 H 676.521 -0.471687 3.89253 0
M  V30 7119 H 678.011 -1.46167 3.91184 0
M  V30 7120 N 678.448 -1.51871 0.421078 0
M  V30 7121 C 679.395 -2.27334 -0.398508 0
M  V30 7122 C 680.365 -1.30241 -1.03085 0
M  V30 7123 O 681.55 -1.59121 -1.05285 0
M  V30 7124 C 678.69 -3.10664 -1.50272 0
M  V30 7125 C 677.803 -4.2273 -0.890122 0
M  V30 7126 C 676.938 -4.93399 -1.96803 0
M  V30 7127 C 675.977 -5.97409 -1.333 0
M  V30 7128 N 675.114 -6.61548 -2.35156 0
M  V30 7129 H 679.954 -2.96938 0.251411 0
M  V30 7130 H 677.491 -1.46472 0.135825 0
M  V30 7131 H 679.449 -3.57292 -2.15403 0
M  V30 7132 H 678.079 -2.43207 -2.1225 0
M  V30 7133 H 677.131 -3.80186 -0.127537 0
M  V30 7134 H 678.443 -4.97302 -0.386349 0
M  V30 7135 H 677.597 -5.43491 -2.69633 0
M  V30 7136 H 676.336 -4.18421 -2.50549 0
M  V30 7137 H 675.341 -5.46624 -0.59008 0
M  V30 7138 H 676.566 -6.74335 -0.803076 0
M  V30 7139 H 674.512 -5.89394 -2.88012 0
M  V30 7140 H 674.429 -7.31832 -1.89624 0
M  V30 7141 H 675.697 -7.16276 -3.0752 0
M  V30 7142 N 679.926 -0.151884 -1.56866 0
M  V30 7143 C 681.337 0.368128 -1.83035 0
M  V30 7144 C 681.688 1.64402 -1.07082 0
M  V30 7145 O 680.813 2.14056 -0.317647 0
M  V30 7146 C 681.408 0.674676 -3.32014 0
M  V30 7147 C 679.967 1.13919 -3.58747 0
M  V30 7148 C 679.114 0.164833 -2.7681 0
M  V30 7149 H 682.065 -0.376499 -1.54169 0
M  V30 7150 H 682.086 1.52883 -3.48435 0
M  V30 7151 H 681.598 -0.254113 -3.87267 0
M  V30 7152 H 679.699 2.08375 -3.08886 0
M  V30 7153 H 679.812 1.06179 -4.67186 0
M  V30 7154 H 678.176 0.658419 -2.46043 0
M  V30 7155 H 678.959 -0.757633 -3.34836 0
M  V30 7156 N 681.404 1.57128 0.121893 0
M  V30 7157 C 682.652 1.84335 0.828548 0
M  V30 7158 C 682.973 0.736632 1.80551 0
M  V30 7159 O 682.243 -0.23962 1.94429 0
M  V30 7160 H 680.823 0.680108 0.30897 0
M  V30 7161 H 683.485 1.9459 0.109906 0
M  V30 7162 H 682.581 2.80152 1.37554 0
M  V30 7163 N 682.882 -0.391992 1.52647 0
M  V30 7164 C 683.814 -1.49811 1.73463 0
M  V30 7165 C 684.827 -1.50734 0.615078 0
M  V30 7166 O 686.016 -1.5469 0.890696 0
M  V30 7167 C 683.116 -2.88667 1.77552 0
M  V30 7168 C 682.289 -3.11743 3.06815 0
M  V30 7169 C 681.348 -4.30564 3.02491 0
M  V30 7170 O 680.374 -4.27014 3.76361 0
M  V30 7171 N 681.576 -5.36593 2.21468 0
M  V30 7172 H 684.341 -1.32343 2.68897 0
M  V30 7173 H 681.902 -0.581475 1.51098 0
M  V30 7174 H 683.894 -3.66251 1.7217 0
M  V30 7175 H 682.464 -2.99508 0.895181 0
M  V30 7176 H 681.684 -2.2205 3.25711 0
M  V30 7177 H 682.972 -3.24013 3.92292 0
M  V30 7178 H 682.37 -5.42332 1.60913 0
M  V30 7179 H 680.927 -6.12855 2.21928 0
M  V30 7180 N 684.36 -1.4356 -0.65026 0
M  V30 7181 C 685.607 -1.45333 -1.41012 0
M  V30 7182 C 685.935 -0.0787282 -1.94341 0
M  V30 7183 O 685.19 0.916715 -1.72901 0
M  V30 7184 C 685.489 -2.44528 -2.60654 0
M  V30 7185 C 685.155 -3.90331 -2.25727 0
M  V30 7186 C 683.817 -4.3004 -2.15914 0
M  V30 7187 C 686.169 -4.822 -1.97821 0
M  V30 7188 C 683.497 -5.59568 -1.76354 0
M  V30 7189 C 685.849 -6.12095 -1.59759 0
M  V30 7190 C 684.513 -6.50778 -1.48473 0
M  V30 7191 H 683.783 -0.531813 -0.516 0
M  V30 7192 H 686.43 -1.76657 -0.739219 0
M  V30 7193 H 684.735 -2.06619 -3.3289 0
M  V30 7194 H 686.432 -2.43155 -3.18868 0
M  V30 7195 H 683.022 -3.58905 -2.34276 0
M  V30 7196 H 687.206 -4.5229 -2.04322 0
M  V30 7197 H 682.462 -5.88376 -1.66205 0
M  V30 7198 H 686.636 -6.82751 -1.37198 0
M  V30 7199 H 684.263 -7.5105 -1.17591 0
M  V30 7200 N 685.838 0.888903 -1.30139 0
M  V30 7201 C 687.087 1.63507 -1.18103 0
M  V30 7202 C 687.4 1.93808 0.264141 0
M  V30 7203 O 688.606 2.66744 0.505966 0
M  V30 7204 C 687.062 2.94673 -2.0663 0
M  V30 7205 C 686.67 2.71926 -3.56034 0
M  V30 7206 C 688.414 3.72626 -2.03346 0
M  V30 7207 C 686.321 3.98884 -4.3663 0
M  V30 7208 H 685.251 0.613426 -0.438435 0
M  V30 7209 H 687.902 0.984427 -1.54859 0
M  V30 7210 H 686.284 3.61009 -1.62754 0
M  V30 7211 H 687.458 2.14116 -4.08033 0
M  V30 7212 H 685.773 2.07353 -3.61101 0
M  V30 7213 H 688.37 4.66775 -2.60816 0
M  V30 7214 H 688.713 4.03712 -1.016 0
M  V30 7215 H 689.246 3.13147 -2.45324 0
M  V30 7216 H 685.985 3.72959 -5.39056 0
M  V30 7217 H 685.505 4.56214 -3.89396 0
M  V30 7218 H 687.184 4.66938 -4.47859 0
M  V30 7219 N 687.317 1.12792 1.10072 0
M  V30 7220 C 688.267 0.768086 2.14673 0
M  V30 7221 C 689.251 -0.234716 1.59179 0
M  V30 7222 O 690.443 -0.039643 1.76956 0
M  V30 7223 C 687.572 0.228472 3.42539 0
M  V30 7224 C 686.658 1.25979 4.04957 0
M  V30 7225 N 687.049 2.4586 4.42025 0
M  V30 7226 C 685.347 1.10602 4.32069 0
M  V30 7227 C 686.048 3.11747 4.9111 0
M  V30 7228 N 685.024 2.39185 4.88151 0
M  V30 7229 H 688.826 1.68029 2.4113 0
M  V30 7230 H 686.34 1.00925 1.27232 0
M  V30 7231 H 688.337 -0.0475216 4.16873 0
M  V30 7232 H 686.997 -0.678136 3.1754 0
M  V30 7233 H 688.008 2.83215 4.33601 0
M  V30 7234 H 684.685 0.257021 4.16708 0
M  V30 7235 H 686.075 4.13862 5.29309 0
M  V30 7236 N 688.795 -1.27931 0.920396 0
M  V30 7237 C 690.023 -1.98805 0.573087 0
M  V30 7238 C 690.438 -1.68724 -0.847201 0
M  V30 7239 O 689.795 -0.943699 -1.56207 0
M  V30 7240 C 689.846 -3.52971 0.780633 0
M  V30 7241 O 689.567 -3.81994 2.14504 0
M  V30 7242 C 691.068 -4.411 0.44105 0
M  V30 7243 H 688.288 -0.634651 0.21785 0
M  V30 7244 H 690.832 -1.62965 1.23542 0
M  V30 7245 H 688.987 -3.87048 0.165204 0
M  V30 7246 H 689.401 -4.76609 2.18962 0
M  V30 7247 H 690.875 -5.48312 0.637006 0
M  V30 7248 H 691.352 -4.34758 -0.62306 0
M  V30 7249 H 691.958 -4.12532 1.0343 0
M  V30 7250 N 690.273 -0.685099 -1.4193 0
M  V30 7251 C 691.221 -0.00165985 -2.326 0
M  V30 7252 C 692.215 0.779678 -1.50391 0
M  V30 7253 O 693.421 0.68648 -1.66395 0
M  V30 7254 H 689.796 0.0182616 -0.751778 0
M  V30 7255 H 691.767 -0.783592 -2.87928 0
M  V30 7256 C 690.516 0.928385 -3.35077 0
M  V30 7257 H 689.839 0.336578 -3.98381 0
M  V30 7258 H 691.279 1.37509 -4.01083 0
M  V30 7259 C 689.738 2.03964 -2.68142 0
M  V30 7260 O 690.268 3.12727 -2.5212 0
M  V30 7261 N 688.474 1.81433 -2.27003 0
M  V30 7262 H 688.021 0.929807 -2.40234 0
M  V30 7263 H 687.979 2.55973 -1.82552 0
M  V30 7264 N 691.751 1.51645 -0.429126 0
M  V30 7265 C 692.997 2.02967 0.132584 0
M  V30 7266 C 693.352 1.30804 1.41096 0
M  V30 7267 O 692.645 0.411705 1.87124 0
M  V30 7268 C 692.839 3.54989 0.414472 0
M  V30 7269 C 692.668 4.41879 -0.83503 0
M  V30 7270 C 691.438 4.86482 -1.36614 0
M  V30 7271 C 693.636 4.84727 -1.71886 0
M  V30 7272 N 691.618 5.5756 -2.56904 0
M  V30 7273 C 692.989 5.54788 -2.76786 0
M  V30 7274 C 695.044 4.66721 -1.73425 0
M  V30 7275 C 693.747 6.08753 -3.8316 0
M  V30 7276 C 695.773 5.21597 -2.7873 0
M  V30 7277 C 695.135 5.91598 -3.8235 0
M  V30 7278 H 691.234 0.781942 0.00956367 0
M  V30 7279 H 693.818 1.8561 -0.587957 0
M  V30 7280 H 691.989 3.72378 1.10405 0
M  V30 7281 H 693.721 3.92982 0.966817 0
M  V30 7282 H 690.476 4.64553 -0.921255 0
M  V30 7283 H 690.9 5.97731 -3.17879 0
M  V30 7284 H 695.542 4.1207 -0.946467 0
M  V30 7285 H 693.26 6.62464 -4.62782 0
M  V30 7286 H 696.846 5.09522 -2.80853 0
M  V30 7287 H 695.726 6.33299 -4.62495 0
M  V30 7288 N 693.229 0.160201 1.56784 0
M  V30 7289 C 694.457 -0.494165 2.00912 0
M  V30 7290 C 694.872 -1.57548 1.04038 0
M  V30 7291 O 694.229 -1.82457 0.0394581 0
M  V30 7292 C 694.28 -1.08271 3.44905 0
M  V30 7293 O 694.001 -0.0445704 4.38077 0
M  V30 7294 C 695.502 -1.8164 4.04378 0
M  V30 7295 H 692.722 -0.127498 0.658776 0
M  V30 7296 H 695.266 0.258665 2.02858 0
M  V30 7297 H 693.421 -1.78609 3.4377 0
M  V30 7298 H 693.835 -0.477544 5.22322 0
M  V30 7299 H 695.309 -2.18094 5.07089 0
M  V30 7300 H 695.786 -2.70727 3.45838 0
M  V30 7301 H 696.392 -1.15969 4.09184 0
M  V30 7302 N 694.707 -1.5719 -0.113559 0
M  V30 7303 C 695.955 -1.84772 -0.818761 0
M  V30 7304 C 696.276 -0.746196 -1.80158 0
M  V30 7305 O 695.546 0.229305 -1.94553 0
M  V30 7306 H 694.126 -0.681737 -0.305359 0
M  V30 7307 H 696.788 -1.94645 -0.0995845 0
M  V30 7308 H 695.884 -2.80878 -1.36067 0
M  V30 7309 N 696.185 0.383891 -1.52853 0
M  V30 7310 C 697.135 1.46892 -1.74375 0
M  V30 7311 C 698.119 1.49378 -0.597909 0
M  V30 7312 O 699.311 1.54929 -0.855929 0
M  V30 7313 C 696.44 2.84547 -1.92063 0
M  V30 7314 C 695.526 2.8661 -3.12594 0
M  V30 7315 N 695.917 2.58339 -4.3485 0
M  V30 7316 C 694.215 3.17777 -3.12944 0
M  V30 7317 C 694.916 2.67616 -5.16485 0
M  V30 7318 N 693.892 3.01561 -4.52285 0
M  V30 7319 H 697.694 1.23869 -2.66522 0
M  V30 7320 H 695.208 0.591895 -1.51229 0
M  V30 7321 H 697.205 3.62674 -2.05604 0
M  V30 7322 H 695.865 3.08549 -1.01133 0
M  V30 7323 H 696.876 2.32266 -4.62896 0
M  V30 7324 H 693.553 3.47211 -2.31842 0
M  V30 7325 H 694.943 2.4926 -6.23955 0
M  V30 7326 N 697.663 1.43903 0.642637 0
M  V30 7327 C 698.911 1.45791 1.39962 0
M  V30 7328 C 699.232 0.0873144 1.94804 0
M  V30 7329 O 698.502 -0.878825 1.75081 0
M  V30 7330 H 697.082 0.536797 0.519479 0
M  V30 7331 H 699.744 1.7959 0.757189 0
M  V30 7332 H 698.84 2.17665 2.2367 0
M  V30 7333 N 699.141 -0.881989 1.30609 0
M  V30 7334 C 700.389 -1.63082 1.19368 0
M  V30 7335 C 700.71 -1.93376 -0.251147 0
M  V30 7336 O 699.98 -1.5723 -1.16857 0
M  V30 7337 H 698.56 -0.604542 0.438791 0
M  V30 7338 H 701.222 -1.05658 1.63776 0
M  V30 7339 H 700.318 -2.57966 1.7567 0
M  V30 7340 N 700.619 -1.13374 -1.09472 0
M  V30 7341 C 701.847 -0.918351 -1.85402 0
M  V30 7342 C 702.262 0.53281 -1.81126 0
M  V30 7343 O 701.619 1.36879 -1.20708 0
M  V30 7344 C 701.67 -1.39743 -3.33398 0
M  V30 7345 O 701.391 -2.79172 -3.37631 0
M  V30 7346 C 702.892 -1.22042 -4.2617 0
M  V30 7347 H 700.112 -0.327511 -0.585643 0
M  V30 7348 H 702.656 -1.50617 -1.38328 0
M  V30 7349 H 700.811 -0.852619 -3.77901 0
M  V30 7350 H 701.225 -3.00428 -4.29934 0
M  V30 7351 H 702.699 -1.60438 -5.2817 0
M  V30 7352 H 703.176 -0.162047 -4.38901 0
M  V30 7353 H 703.782 -1.75323 -3.87482 0
M  V30 7354 N 702.098 1.27442 -0.927168 0
M  V30 7355 C 703.344 1.94679 -0.568164 0
M  V30 7356 C 703.677 1.72697 0.888219 0
M  V30 7357 O 702.952 1.05573 1.63354 0
M  V30 7358 C 703.235 3.4882 -0.894253 0
M  V30 7359 C 703.088 3.80146 -2.40435 0
M  V30 7360 C 704.407 4.38281 -0.399766 0
M  V30 7361 H 701.526 0.707071 -0.207892 0
M  V30 7362 H 704.168 1.50568 -1.15885 0
M  V30 7363 H 702.318 3.86522 -0.391566 0
M  V30 7364 H 703.99 3.52238 -2.97869 0
M  V30 7365 H 702.233 3.26716 -2.85375 0
M  V30 7366 H 702.904 4.87835 -2.58304 0
M  V30 7367 H 705.38 4.07726 -0.83058 0
M  V30 7368 H 704.256 5.44955 -0.656885 0
M  V30 7369 H 704.517 4.36521 0.700153 0
M  V30 7370 N 703.576 0.692616 1.41565 0
M  V30 7371 C 704.801 0.229776 2.06123 0
M  V30 7372 C 705.226 -1.11119 1.5177 0
M  V30 7373 O 704.584 -1.69498 0.643444 0
M  V30 7374 C 704.632 0.19469 3.60074 0
M  V30 7375 O 703.736 -0.831366 4.03933 0
M  V30 7376 H 703.077 0.113002 0.654314 0
M  V30 7377 H 705.607 0.946645 1.81383 0
M  V30 7378 H 705.617 0.0245487 4.07993 0
M  V30 7379 H 704.292 1.17339 3.99004 0
M  V30 7380 H 702.869 -0.630819 3.67526 0
M  V30 7381 N 705.054 -1.51416 0.437162 0
M  V30 7382 C 706.279 -2.0699 -0.130424 0
M  V30 7383 C 706.704 -1.30249 -1.35709 0
M  V30 7384 O 706.062 -0.340388 -1.78076 0
M  V30 7385 C 706.11 -3.5801 -0.43142 0
M  V30 7386 O 705.214 -3.8345 -1.5179 0
M  V30 7387 H 704.555 -0.663997 -0.00194339 0
M  V30 7388 H 707.085 -1.95029 0.618445 0
M  V30 7389 H 707.095 -4.02261 -0.681926 0
M  V30 7390 H 705.77 -4.13291 0.465137 0
M  V30 7391 H 704.347 -3.51062 -1.25737 0
M  V30 7392 N 706.532 -0.168513 -1.56696 0
M  V30 7393 C 707.757 0.486688 -2.01609 0
M  V30 7394 C 708.182 1.56203 -1.04796 0
M  V30 7395 O 707.54 1.8128 -0.0270596 0
M  V30 7396 C 707.588 1.04451 -3.45141 0
M  V30 7397 O 706.692 2.15862 -3.51393 0
M  V30 7398 H 706.033 0.116831 -0.653641 0
M  V30 7399 H 708.563 -0.271579 -2.0279 0
M  V30 7400 H 708.573 1.36782 -3.84389 0
M  V30 7401 H 707.248 0.257155 -4.15104 0
M  V30 7402 H 705.825 1.84597 -3.24004 0
M  V30 7403 N 708.01 1.57248 0.105221 0
M  V30 7404 C 709.235 1.90143 0.828264 0
M  V30 7405 C 709.66 0.761811 1.71983 0
M  V30 7406 O 709.018 -0.287086 1.79013 0
M  V30 7407 C 709.066 3.21856 1.62608 0
M  V30 7408 O 708.17 3.08732 2.7342 0
M  V30 7409 H 707.511 0.623558 0.228192 0
M  V30 7410 H 710.041 2.0443 0.0834826 0
M  V30 7411 H 710.051 3.54916 2.01243 0
M  V30 7412 H 708.726 4.0439 0.971687 0
M  V30 7413 H 707.303 2.87167 2.37886 0
M  V30 7414 N 709.488 -0.375779 1.53054 0
M  V30 7415 C 710.718 -1.1387 1.72386 0
M  V30 7416 C 711.126 -1.8382 0.447966 0
M  V30 7417 O 710.469 -1.74027 -0.588244 0
M  V30 7418 C 710.531 -2.22047 2.82728 0
M  V30 7419 C 710.195 -1.71951 4.23417 0
M  V30 7420 C 711.192 -1.18909 5.06119 0
M  V30 7421 C 708.877 -1.77773 4.69789 0
M  V30 7422 C 710.871 -0.723529 6.3328 0
M  V30 7423 C 708.558 -1.30829 5.96931 0
M  V30 7424 C 709.556 -0.782077 6.78508 0
M  V30 7425 O 709.244 -0.319529 8.03265 0
M  V30 7426 H 708.976 -0.346835 0.580242 0
M  V30 7427 H 711.53 -0.443748 2.00549 0
M  V30 7428 H 709.76 -2.95006 2.50017 0
M  V30 7429 H 711.449 -2.83654 2.90336 0
M  V30 7430 H 712.215 -1.13758 4.7147 0
M  V30 7431 H 708.094 -2.17673 4.06373 0
M  V30 7432 H 711.638 -0.312126 6.96901 0
M  V30 7433 H 707.535 -1.3567 6.31081 0
M  V30 7434 H 708.303 -0.439796 8.17318 0
M  V30 7435 N 710.966 -1.44241 -0.634997 0
M  V30 7436 C 711.914 -1.51103 -1.76835 0
M  V30 7437 C 712.908 -0.383051 -1.65012 0
M  V30 7438 O 714.114 -0.557832 -1.71138 0
M  V30 7439 H 710.489 -0.474076 -0.583743 0
M  V30 7440 H 712.46 -2.46499 -1.68169 0
M  V30 7441 C 711.209 -1.4687 -3.15158 0
M  V30 7442 H 710.532 -2.32979 -3.24901 0
M  V30 7443 H 711.972 -1.55731 -3.94365 0
M  V30 7444 C 710.431 -0.188884 -3.3637 0
M  V30 7445 O 710.961 0.742487 -3.94778 0
M  V30 7446 N 709.167 -0.0932516 -2.9045 0
M  V30 7447 H 708.714 -0.852004 -2.43102 0
M  V30 7448 H 708.672 0.762308 -3.05018 0
M  V30 7449 N 712.444 0.87505 -1.31075 0
M  V30 7450 C 713.407 1.96333 -1.18263 0
M  V30 7451 C 714.407 1.60416 -0.111106 0
M  V30 7452 O 715.597 1.7044 -0.359987 0
M  V30 7453 C 712.729 3.31036 -0.81414 0
M  V30 7454 H 713.922 2.09125 -2.14958 0
M  V30 7455 H 711.475 1.06271 -1.14614 0
M  V30 7456 H 712.21 3.23944 0.151875 0
M  V30 7457 H 711.995 3.58476 -1.58862 0
M  V30 7458 H 713.485 4.10842 -0.748249 0
M  V30 7459 O 713.961 1.25897 1.01154 0
M  V30 7460 H 714.652 1.04518 1.63082 0
M  V30 END ATOM
M  V30 BEGIN BOND
M  V30 END BOND
M  V30 END CTAB
M  END
$$$$
