drugbank_target|P52429 Diacylglycerol kinase epsilon (DB14001)
 OpenBabel12092121233D

  0  0  0     0  0            999 V3000
M  V30 BEGIN CTAB
M  V30 COUNTS 8940 9041 0 0 0
M  V30 BEGIN ATOM
M  V30 1 H -0.908 1.98254 -0.117106 0
M  V30 2 N 0 1.576 0 0
M  V30 3 C 0.933 2.03868 1.02534 0
M  V30 4 C 1.911 0.928543 1.3348 0
M  V30 5 O 3.095 1.19667 1.45644 0
M  V30 6 C 0.222 2.43627 2.35294 0
M  V30 7 C -0.732 3.65373 2.2001 0
M  V30 8 S 0.101 5.13292 1.52614 0
M  V30 9 C 1.257 5.56322 2.86805 0
M  V30 10 H 1.49 2.90518 0.631377 0
M  V30 11 H -0.977 1.52953 0.210867 0
M  V30 12 H 0.981 2.67203 3.11629 0
M  V30 13 H -0.358 1.57376 2.7183 0
M  V30 14 H -1.165 3.90944 3.18086 0
M  V30 15 H -1.563 3.418 1.51819 0
M  V30 16 H 0.729 5.58782 3.83104 0
M  V30 17 H 1.672 6.56266 2.65933 0
M  V30 18 H 2.08 4.83886 2.90714 0
M  V30 19 N 1.4781 -0.272755 1.55222 0
M  V30 20 C 2.3881 -1.35918 1.91216 0
M  V30 21 C 3.4041 -1.54026 0.809436 0
M  V30 22 O 4.5801 -1.68148 1.10852 0
M  V30 23 C 1.6451 -2.69834 2.17693 0
M  V30 24 C 0.7061 -2.6047 3.41253 0
M  V30 25 C -0.0609 -3.88 3.66458 0
M  V30 26 O 0.1621 -4.88693 2.94169 0
M  V30 27 O -0.9039 -3.88189 4.59992 0
M  V30 28 H 2.9221 -1.0839 2.83699 0
M  V30 29 H 0.5071 -0.471301 1.41771 0
M  V30 30 H 2.3891 -3.49017 2.36147 0
M  V30 31 H 1.0641 -2.97148 1.28392 0
M  V30 32 H -0.0289 -1.79663 3.28134 0
M  V30 33 H 1.3041 -2.38106 4.30774 0
M  V30 34 N 2.9562 -1.48159 -0.537278 0
M  V30 35 C 3.9192 -1.61665 -1.62472 0
M  V30 36 C 4.9192 -0.490395 -1.5314 0
M  V30 37 O 6.1092 -0.755998 -1.5694 0
M  V30 38 C 3.2412 -1.57997 -3.02076 0
M  V30 39 H 4.4342 -2.58621 -1.51839 0
M  V30 40 H 1.9872 -1.36647 -0.758771 0
M  V30 41 H 2.7222 -0.624913 -3.18222 0
M  V30 42 H 2.5072 -2.39755 -3.10258 0
M  V30 43 H 3.9972 -1.70627 -3.81151 0
M  V30 44 N 4.4343 0.785586 -1.36625 0
M  V30 45 C 5.3443 1.92964 -1.33425 0
M  V30 46 C 6.3603 1.72394 -0.235851 0
M  V30 47 O 7.5363 1.95866 -0.468878 0
M  V30 48 C 4.6013 3.27884 -1.12662 0
M  V30 49 C 3.6623 3.61204 -2.32013 0
M  V30 50 C 2.8953 4.89687 -2.12231 0
M  V30 51 O 3.1183 5.59704 -1.09945 0
M  V30 52 O 2.0523 5.21752 -3.00098 0
M  V30 53 H 5.8783 1.98613 -2.29753 0
M  V30 54 H 3.4633 0.926384 -1.17211 0
M  V30 55 H 5.3453 4.08614 -1.03016 0
M  V30 56 H 4.0203 3.23118 -0.193991 0
M  V30 57 H 2.9273 2.80765 -2.47228 0
M  V30 58 H 4.2603 3.70698 -3.23796 0
M  V30 59 N 5.9124 1.20967 1.01018 0
M  V30 60 C 7.3284 0.965905 1.27053 0
M  V30 61 C 7.5284 -0.350785 1.98423 0
M  V30 62 O 6.5844 -1.07773 2.28344 0
M  V30 63 C 7.8974 2.15294 2.09926 0
M  V30 64 C 9.4454 2.19463 2.23171 0
M  V30 65 C 9.9204 3.3767 3.09424 0
M  V30 66 N 11.4114 3.37724 3.17012 0
M  V30 67 C 12.1464 4.25837 3.83993 0
M  V30 68 N 11.6424 5.24138 4.53047 0
M  V30 69 N 13.4354 4.1366 3.80581 0
M  V30 70 H 5.5864 2.0565 0.531194 0
M  V30 71 H 7.8494 0.90024 0.297106 0
M  V30 72 H 7.5554 3.10684 1.64828 0
M  V30 73 H 7.4294 2.13923 3.10672 0
M  V30 74 H 9.8164 1.24632 2.6749 0
M  V30 75 H 9.8974 2.2488 1.21912 0
M  V30 76 H 9.5414 4.32791 2.65808 0
M  V30 77 H 9.4714 3.29491 4.10784 0
M  V30 78 H 11.9624 2.6658 2.6785 0
M  V30 79 H 12.2754 5.87684 5.01844 0
M  V30 80 H 10.6204 5.28068 4.5185 0
M  V30 81 H 13.8114 3.36127 3.25785 0
M  V30 82 H 13.9844 4.82538 4.32505 0
M  V30 83 N 7.3905 -1.2043 1.01659 0
M  V30 84 C 8.8065 -1.41852 0.731442 0
M  V30 85 C 9.0065 -1.89358 -0.688898 0
M  V30 86 O 8.0625 -2.06247 -1.45666 0
M  V30 87 C 9.3755 -2.44019 1.75714 0
M  V30 88 C 10.9235 -2.57785 1.77527 0
M  V30 89 C 11.3985 -3.63194 2.79023 0
M  V30 90 N 12.8895 -3.70678 2.77763 0
M  V30 91 C 13.6245 -4.51897 3.52954 0
M  V30 92 N 13.1205 -5.36921 4.37821 0
M  V30 93 N 14.9135 -4.4643 3.41551 0
M  V30 94 H 7.0645 -0.879093 1.93354 0
M  V30 95 H 9.3275 -0.448425 0.835236 0
M  V30 96 H 9.0335 -2.1611 2.77469 0
M  V30 97 H 8.9075 -3.43007 1.56927 0
M  V30 98 H 11.2945 -2.85023 0.764569 0
M  V30 99 H 11.3755 -1.58992 2.00387 0
M  V30 100 H 11.0195 -3.36699 3.80258 0
M  V30 101 H 10.9495 -4.61609 2.53425 0
M  V30 102 H 13.4405 -3.09944 2.16201 0
M  V30 103 H 13.7535 -5.95981 4.91962 0
M  V30 104 H 12.0985 -5.36424 4.41899 0
M  V30 105 H 15.2895 -3.79042 2.74672 0
M  V30 106 H 15.4625 -5.09491 4.00404 0
M  V30 107 N 8.8686 -0.792821 -1.36206 0
M  V30 108 C 10.2796 -0.429513 -1.81692 0
M  V30 109 C 10.6306 1.04695 -1.65932 0
M  V30 110 O 9.7556 1.81256 -1.18218 0
M  V30 111 C 10.3506 -0.772831 -3.29868 0
M  V30 112 C 8.9096 -0.462307 -3.7355 0
M  V30 113 C 8.0566 -1.00569 -2.5842 0
M  V30 114 H 11.0076 -0.985672 -1.24379 0
M  V30 115 H 11.0286 -0.0651928 -3.80444 0
M  V30 116 H 10.5406 -1.84747 -3.41307 0
M  V30 117 H 8.6416 0.604158 -3.67669 0
M  V30 118 H 8.7546 -0.985299 -4.68859 0
M  V30 119 H 7.1186 -0.428734 -2.51066 0
M  V30 120 H 7.9016 -2.08616 -2.72643 0
M  V30 121 N 10.3467 1.47872 -0.545128 0
M  V30 122 C 11.3097 2.28337 0.198717 0
M  V30 123 C 12.3097 1.36255 0.853888 0
M  V30 124 O 13.4997 1.59003 0.711606 0
M  V30 125 C 10.6317 3.15585 1.28915 0
M  V30 126 H 11.8247 2.95567 -0.507941 0
M  V30 127 H 9.3777 1.53362 -0.301616 0
M  V30 128 H 10.1127 2.53019 2.02859 0
M  V30 129 H 9.8977 3.83337 0.824309 0
M  V30 130 H 11.3877 3.76243 1.81194 0
M  V30 131 N 11.8248 0.280983 1.55075 0
M  V30 132 C 13.2358 -0.215629 1.85451 0
M  V30 133 C 13.5868 -1.54991 1.203 0
M  V30 134 O 12.7118 -2.10699 0.493435 0
M  V30 135 C 13.3068 -0.398026 3.36454 0
M  V30 136 C 11.8658 -0.838866 3.66933 0
M  V30 137 C 11.0128 0.064458 2.77225 0
M  V30 138 H 13.9638 0.502601 1.50531 0
M  V30 139 H 13.9848 -1.23569 3.59876 0
M  V30 140 H 13.4968 0.573241 3.83843 0
M  V30 141 H 11.5978 -1.8214 3.25048 0
M  V30 142 H 11.7108 -0.672123 4.74362 0
M  V30 143 H 10.0748 -0.452863 2.50642 0
M  V30 144 H 10.8578 1.03172 3.2743 0
M  V30 145 N 13.3029 -1.57598 0.00835791 0
M  V30 146 C 14.5509 -1.90551 -0.6734 0
M  V30 147 C 14.8719 -0.883301 -1.73847 0
M  V30 148 O 14.1419 0.0781442 -1.95744 0
M  V30 149 H 12.7219 -0.703312 -0.251717 0
M  V30 150 H 15.3839 -1.94833 0.0512592 0
M  V30 151 H 14.4799 -2.9056 -1.13935 0
M  V30 152 N 14.781 0.264519 -1.55364 0
M  V30 153 C 16.006 1.01726 -1.80739 0
M  V30 154 C 16.431 1.78836 -0.583044 0
M  V30 155 O 15.789 1.75167 0.467566 0
M  V30 156 C 15.837 1.94482 -3.03659 0
M  V30 157 O 14.941 3.03386 -2.7934 0
M  V30 158 H 14.282 0.290395 -0.597132 0
M  V30 159 H 16.812 0.290854 -2.02522 0
M  V30 160 H 16.822 2.36278 -3.32621 0
M  V30 161 H 15.497 1.37772 -3.92418 0
M  V30 162 H 14.074 2.65844 -2.61498 0
M  V30 163 N 16.2591 1.48442 0.529413 0
M  V30 164 C 17.6701 1.5002 1.11134 0
M  V30 165 C 18.0211 0.27031 1.94329 0
M  V30 166 O 17.1461 -0.622507 2.07253 0
M  V30 167 C 17.7411 2.71834 2.02217 0
M  V30 168 C 16.3001 2.76283 2.55627 0
M  V30 169 C 15.4471 2.43542 1.326 0
M  V30 170 H 18.3981 1.5555 0.314641 0
M  V30 171 H 18.4191 2.50384 2.8651 0
M  V30 172 H 17.9311 3.61331 1.41639 0
M  V30 173 H 16.0321 1.90995 3.19924 0
M  V30 174 H 16.1451 3.77725 2.94721 0
M  V30 175 H 14.5091 1.94709 1.64196 0
M  V30 176 H 15.2921 3.3528 0.737734 0
M  V30 177 N 17.7372 -0.778329 1.37039 0
M  V30 178 C 18.9622 -1.57248 1.35233 0
M  V30 179 C 19.3872 -1.87999 -0.0615568 0
M  V30 180 O 18.7452 -1.48734 -1.03672 0
M  V30 181 C 18.7932 -2.86353 2.19167 0
M  V30 182 O 17.8972 -3.80442 1.59178 0
M  V30 183 H 17.2382 -0.476569 0.462362 0
M  V30 184 H 19.7682 -0.963853 1.80474 0
M  V30 185 H 19.7782 -3.35519 2.32145 0
M  V30 186 H 18.4532 -2.63299 3.21942 0
M  V30 187 H 17.0302 -3.39067 1.55203 0
M  V30 188 N 19.2153 -1.21501 -1.00376 0
M  V30 189 C 20.1253 -0.991447 -2.12621 0
M  V30 190 C 21.1413 0.0568446 -1.73907 0
M  V30 191 O 22.3173 -0.13348 -2.00957 0
M  V30 192 C 19.3823 -0.560312 -3.42142 0
M  V30 193 C 18.4433 -1.68096 -3.95022 0
M  V30 194 C 17.6763 -1.2703 -5.18362 0
M  V30 195 O 17.8993 -0.144438 -5.70217 0
M  V30 196 O 16.8333 -2.08269 -5.64719 0
M  V30 197 H 20.6593 -1.93158 -2.34358 0
M  V30 198 H 18.2443 -0.999999 -1.10997 0
M  V30 199 H 20.1263 -0.329724 -4.20108 0
M  V30 200 H 18.8013 0.351089 -3.2179 0
M  V30 201 H 17.7083 -1.96597 -3.18278 0
M  V30 202 H 19.0413 -2.56983 -4.19786 0
M  V30 203 N 20.6934 1.19889 -1.02296 0
M  V30 204 C 21.9414 1.89046 -0.714558 0
M  V30 205 C 22.2624 1.79636 0.758681 0
M  V30 206 O 21.5324 1.20292 1.54618 0
M  V30 207 H 20.1124 0.699802 -0.261317 0
M  V30 208 H 22.7744 1.45574 -1.29592 0
M  V30 209 H 21.8704 2.95524 -1.0036 0
M  V30 210 N 22.1715 0.800033 1.35784 0
M  V30 211 C 23.1015 0.220184 2.3246 0
M  V30 212 C 24.0825 -0.65073 1.57161 0
M  V30 213 O 25.2675 -0.582359 1.85263 0
M  V30 214 C 22.3975 -0.637353 3.41402 0
M  V30 215 C 21.3515 0.134531 4.27789 0
M  V30 216 C 20.6775 -0.844285 5.27992 0
M  V30 217 C 21.9775 1.32979 5.05088 0
M  V30 218 H 23.6715 1.02787 2.81203 0
M  V30 219 H 21.2175 0.495717 1.35199 0
M  V30 220 H 23.1705 -1.05302 4.08031 0
M  V30 221 H 21.8945 -1.47785 2.91251 0
M  V30 222 H 20.5535 0.531296 3.6273 0
M  V30 223 H 20.2015 -1.68011 4.74111 0
M  V30 224 H 19.9015 -0.332184 5.8666 0
M  V30 225 H 21.4255 -1.2583 5.97494 0
M  V30 226 H 22.8395 0.98934 5.64699 0
M  V30 227 H 21.2365 1.77593 5.7322 0
M  V30 228 H 22.3065 2.11978 4.36111 0
M  V30 229 N 23.6496 -1.47581 0.552962 0
M  V30 230 C 24.8966 -2.02482 0.0273243 0
M  V30 231 C 25.2246 -1.42776 -1.32081 0
M  V30 232 O 24.4796 -0.571393 -1.87173 0
M  V30 233 C 24.7786 -3.57199 -0.119728 0
M  V30 234 C 24.4446 -4.35804 1.15697 0
M  V30 235 C 23.1066 -4.57 1.50681 0
M  V30 236 C 25.4586 -4.81167 2.00319 0
M  V30 237 C 22.7866 -5.20807 2.70142 0
M  V30 238 C 25.1386 -5.46293 3.18978 0
M  V30 239 C 23.8026 -5.65722 3.54281 0
M  V30 240 H 23.0726 -0.740933 0.00999866 0
M  V30 241 H 25.7196 -1.77302 0.72362 0
M  V30 242 H 24.0246 -3.81348 -0.89896 0
M  V30 243 H 25.7216 -3.97324 -0.541718 0
M  V30 244 H 22.3116 -4.19582 0.874561 0
M  V30 245 H 26.4956 -4.64574 1.74599 0
M  V30 246 H 21.7516 -5.34045 2.97668 0
M  V30 247 H 25.9256 -5.80407 3.84838 0
M  V30 248 H 23.5526 -6.14936 4.46942 0
M  V30 249 N 25.1277 -0.289203 -1.54924 0
M  V30 250 C 26.0907 0.579144 -2.21762 0
M  V30 251 C 27.0907 1.07047 -1.1999 0
M  V30 252 O 28.2807 0.968384 -1.44803 0
M  V30 253 C 25.4127 1.80055 -2.8947 0
M  V30 254 H 26.6057 -0.00464908 -2.999 0
M  V30 255 H 24.1587 -0.0399306 -1.56249 0
M  V30 256 H 24.8937 2.42449 -2.15381 0
M  V30 257 H 24.6787 1.45602 -3.64064 0
M  V30 258 H 26.1687 2.41773 -3.40493 0
M  V30 259 N 26.6058 1.57591 -0.0167156 0
M  V30 260 C 27.8828 1.82547 0.702564 0
M  V30 261 C 28.2628 0.898018 1.91047 0
M  V30 262 O 27.6108 -0.0493456 2.28447 0
M  V30 263 C 27.8208 3.31459 1.09251 0
M  V30 264 C 29.1688 3.97622 1.48937 0
M  V30 265 O 30.1928 3.35881 1.18584 0
M  V30 266 O 29.0518 5.06415 2.05442 0
M  V30 267 H 26.1458 0.752268 0.343544 0
M  V30 268 H 28.6918 1.69644 -0.0434495 0
M  V30 269 H 27.4638 3.9061 0.23227 0
M  V30 270 H 27.0868 3.49422 1.89709 0
M  V30 271 N 28.0839 -0.256276 1.55502 0
M  V30 272 C 29.3319 -0.983672 1.76545 0
M  V30 273 C 29.6529 -1.86206 0.578982 0
M  V30 274 O 28.9229 -1.91656 -0.405577 0
M  V30 275 H 27.5029 -0.366191 0.651086 0
M  V30 276 H 30.1649 -0.276479 1.92929 0
M  V30 277 H 29.2609 -1.61087 2.67315 0
M  V30 278 N 29.562 -1.4872 -0.521534 0
M  V30 279 C 30.512 -1.60269 -1.62166 0
M  V30 280 C 31.496 -0.45935 -1.54204 0
M  V30 281 O 32.688 -0.711241 -1.62081 0
M  V30 282 C 29.817 -1.65344 -3.00859 0
M  V30 283 C 28.903 -2.85187 -3.13894 0
M  V30 284 N 29.294 -4.09509 -2.96877 0
M  V30 285 C 27.592 -2.82695 -3.44963 0
M  V30 286 C 28.293 -4.89959 -3.13552 0
M  V30 287 N 27.269 -4.22934 -3.41508 0
M  V30 288 H 31.071 -2.5413 -1.47632 0
M  V30 289 H 28.585 -1.45209 -0.727194 0
M  V30 290 H 30.582 -1.71713 -3.79895 0
M  V30 291 H 29.242 -0.726058 -3.16478 0
M  V30 292 H 30.253 -4.39814 -2.73467 0
M  V30 293 H 26.93 -1.99249 -3.66887 0
M  V30 294 H 28.32 -5.98654 -3.05061 0
M  V30 295 N 31.0401 0.771051 -1.3745 0
M  V30 296 C 31.9701 1.89827 -1.3597 0
M  V30 297 C 32.9511 1.68562 -0.228216 0
M  V30 298 O 34.1361 1.8941 -0.428675 0
M  V30 299 C 31.2661 3.2712 -1.16662 0
M  V30 300 C 30.2201 3.6295 -2.2683 0
M  V30 301 C 29.5461 4.98791 -1.92644 0
M  V30 302 C 30.8461 3.69627 -3.69017 0
M  V30 303 H 32.5401 1.91323 -2.30295 0
M  V30 304 H 30.0861 0.919082 -1.10855 0
M  V30 305 H 32.0391 4.05615 -1.14256 0
M  V30 306 H 30.7631 3.26059 -0.187926 0
M  V30 307 H 29.4221 2.86763 -2.28392 0
M  V30 308 H 29.0701 4.94271 -0.933021 0
M  V30 309 H 28.7701 5.23733 -2.66416 0
M  V30 310 H 30.2941 5.79685 -1.91826 0
M  V30 311 H 31.7081 4.38273 -3.69581 0
M  V30 312 H 30.1051 4.06067 -4.41848 0
M  V30 313 H 31.1751 2.70273 -4.02592 0
M  V30 314 N 32.5182 1.22032 0.997298 0
M  V30 315 C 33.7672 1.03637 1.73038 0
M  V30 316 C 34.0802 -0.429475 1.90827 0
M  V30 317 O 35.2862 -0.732995 2.61418 0
M  V30 318 C 33.7422 1.80582 3.11317 0
M  V30 319 C 33.3502 3.31387 3.01474 0
M  V30 320 C 35.0942 1.70621 3.88701 0
M  V30 321 C 33.0012 4.00791 4.3488 0
M  V30 322 H 31.9312 0.384179 0.648785 0
M  V30 323 H 34.5822 1.4584 1.11368 0
M  V30 324 H 32.9642 1.31175 3.73643 0
M  V30 325 H 34.1382 3.88155 2.4834 0
M  V30 326 H 32.4532 3.41976 2.37575 0
M  V30 327 H 35.0502 2.19799 4.87434 0
M  V30 328 H 35.3932 0.665823 4.10941 0
M  V30 329 H 35.9262 2.17547 3.33044 0
M  V30 330 H 32.6652 5.05064 4.1784 0
M  V30 331 H 32.1852 3.48811 4.87945 0
M  V30 332 H 33.8642 4.06139 5.03647 0
M  V30 333 N 33.9963 -1.19345 1.0293 0
M  V30 334 C 34.9263 -2.2481 0.631105 0
M  V30 335 C 35.9073 -1.66245 -0.360104 0
M  V30 336 O 37.0923 -1.92677 -0.242726 0
M  V30 337 C 34.2223 -3.47295 -0.0184607 0
M  V30 338 C 33.1763 -4.18536 0.895073 0
M  V30 339 C 32.5023 -5.34586 0.110592 0
M  V30 340 C 33.8023 -4.73287 2.209 0
M  V30 341 H 35.4963 -2.58372 1.51275 0
M  V30 342 H 33.0423 -1.24194 0.728818 0
M  V30 343 H 34.9953 -4.20268 -0.308675 0
M  V30 344 H 33.7193 -3.12933 -0.934907 0
M  V30 345 H 32.3783 -3.47446 1.16949 0
M  V30 346 H 32.0263 -4.96469 -0.807902 0
M  V30 347 H 31.7263 -5.83183 0.719087 0
M  V30 348 H 33.2503 -6.10355 -0.172871 0
M  V30 349 H 34.6643 -5.38013 1.98028 0
M  V30 350 H 33.0613 -5.32373 2.76946 0
M  V30 351 H 34.1313 -3.91331 2.86336 0
M  V30 352 N 35.4744 -0.807222 -1.35358 0
M  V30 353 C 36.7204 -0.397594 -1.99476 0
M  V30 354 C 37.0754 1.02405 -1.62883 0
M  V30 355 O 36.3684 1.70077 -0.882282 0
M  V30 356 C 36.5624 -0.519036 -3.53611 0
M  V30 357 C 36.3914 -1.95094 -4.05177 0
M  V30 358 C 35.1614 -2.57945 -4.34503 0
M  V30 359 C 37.3594 -2.91558 -4.23673 0
M  V30 360 N 35.3414 -3.92539 -4.72003 0
M  V30 361 C 36.7124 -4.11024 -4.64176 0
M  V30 362 C 38.7674 -2.88381 -4.05883 0
M  V30 363 C 37.4704 -5.27745 -4.88751 0
M  V30 364 C 39.4964 -4.04306 -4.31614 0
M  V30 365 C 38.8584 -5.22519 -4.72391 0
M  V30 366 H 34.9574 -0.193274 -0.75774 0
M  V30 367 H 37.5414 -1.0486 -1.6405 0
M  V30 368 H 35.7124 0.101979 -3.88266 0
M  V30 369 H 37.4444 -0.0839321 -4.04613 0
M  V30 370 H 34.1994 -2.09295 -4.24844 0
M  V30 371 H 34.6234 -4.61836 -4.95011 0
M  V30 372 H 39.2654 -1.98137 -3.73499 0
M  V30 373 H 36.9834 -6.1856 -5.20008 0
M  V30 374 H 40.5694 -4.03229 -4.19402 0
M  V30 375 H 39.4494 -6.1073 -4.91913 0
M  V30 376 N 36.9525 1.47285 -0.560781 0
M  V30 377 C 38.1805 2.06855 -0.0430262 0
M  V30 378 C 38.5955 1.41291 1.25229 0
M  V30 379 O 37.9525 0.510648 1.7521 0
M  V30 380 C 38.0035 3.61178 0.152518 0
M  V30 381 O 37.7245 4.24285 -1.0915 0
M  V30 382 C 39.2255 4.37624 0.707145 0
M  V30 383 H 36.4455 0.669319 -0.0474652 0
M  V30 384 H 38.9895 1.89237 -0.77521 0
M  V30 385 H 37.1445 3.78298 0.834843 0
M  V30 386 H 37.5585 5.16868 -0.891482 0
M  V30 387 H 39.0325 5.46271 0.793244 0
M  V30 388 H 39.5095 4.04152 1.71923 0
M  V30 389 H 40.1155 4.25257 0.0604027 0
M  V30 390 N 38.4306 0.297415 1.54768 0
M  V30 391 C 39.3606 -0.573494 2.26348 0
M  V30 392 C 40.3416 -1.14085 1.26169 0
M  V30 393 O 41.5266 -1.17086 1.54934 0
M  V30 394 C 38.6566 -1.74716 3.00153 0
M  V30 395 C 37.6106 -1.31032 4.07449 0
M  V30 396 C 36.9366 -2.56887 4.68949 0
M  V30 397 C 38.2366 -0.444183 5.20408 0
M  V30 398 H 39.9306 0.0235131 2.99391 0
M  V30 399 H 37.4766 0.0127488 1.43994 0
M  V30 400 H 39.4296 -2.3625 3.48947 0
M  V30 401 H 38.1536 -2.37035 2.24682 0
M  V30 402 H 36.8126 -0.718066 3.59499 0
M  V30 403 H 36.4606 -3.17512 3.90122 0
M  V30 404 H 36.1606 -2.2836 5.41411 0
M  V30 405 H 37.6846 -3.19229 5.20505 0
M  V30 406 H 39.0986 -0.9651 5.65118 0
M  V30 407 H 37.4956 -0.252846 5.99567 0
M  V30 408 H 38.5656 0.531609 4.81977 0
M  V30 409 N 39.9087 -1.5758 0.0250728 0
M  V30 410 C 41.1487 -1.93497 -0.65865 0
M  V30 411 C 41.5127 -0.901409 -1.69525 0
M  V30 412 O 42.7137 -1.14664 -2.43116 0
M  V30 413 C 40.9847 -3.34352 -1.26267 0
M  V30 414 S 42.5437 -3.92191 -1.96803 0
M  V30 415 H 39.3617 -0.67709 -0.216958 0
M  V30 416 H 41.9637 -1.95303 0.0877692 0
M  V30 417 H 40.6677 -4.07395 -0.495741 0
M  V30 418 H 40.1987 -3.3598 -2.04648 0
M  V30 419 H 42.2137 -3.75298 -3.24601 0
M  V30 420 N 41.3868 0.248026 -1.55636 0
M  V30 421 C 42.6118 0.998028 -1.81808 0
M  V30 422 C 43.0368 1.78207 -0.601979 0
M  V30 423 O 42.3948 1.75653 0.448961 0
M  V30 424 C 42.4428 1.9125 -3.05705 0
M  V30 425 O 41.5468 3.00406 -2.82542 0
M  V30 426 H 40.8878 0.284045 -0.600179 0
M  V30 427 H 43.4178 0.269357 -2.02819 0
M  V30 428 H 43.4278 2.32737 -3.35108 0
M  V30 429 H 42.1028 1.33602 -3.93857 0
M  V30 430 H 40.6798 2.63056 -2.64303 0
M  V30 431 N 42.8649 1.48995 0.513639 0
M  V30 432 C 44.1109 1.58076 1.27042 0
M  V30 433 C 44.4439 0.261026 1.92438 0
M  V30 434 O 43.7189 -0.734393 1.80103 0
M  V30 435 C 44.0019 2.73091 2.34719 0
M  V30 436 C 43.8549 4.14821 1.73907 0
M  V30 437 C 45.1739 2.83796 3.36375 0
M  V30 438 H 42.2929 0.575391 0.460536 0
M  V30 439 H 44.9349 1.81232 0.570516 0
M  V30 440 H 43.0849 2.53479 2.94416 0
M  V30 441 H 44.7569 4.45917 1.18135 0
M  V30 442 H 42.9999 4.21058 1.0437 0
M  V30 443 H 43.6709 4.91147 2.51949 0
M  V30 444 H 46.1469 3.01611 2.86653 0
M  V30 445 H 45.0229 3.65971 4.09093 0
M  V30 446 H 45.2839 1.92624 3.9793 0
M  V30 447 N 44.343 -0.763751 1.37857 0
M  V30 448 C 45.273 -1.89103 1.36975 0
M  V30 449 C 46.254 -1.68439 0.237152 0
M  V30 450 O 47.439 -1.8918 0.438713 0
M  V30 451 C 44.569 -3.26496 1.18395 0
M  V30 452 C 43.523 -3.61741 2.28751 0
M  V30 453 C 42.849 -4.97762 1.95286 0
M  V30 454 C 44.149 -3.67665 3.70972 0
M  V30 455 H 45.843 -1.90099 2.31307 0
M  V30 456 H 43.389 -0.91319 1.11341 0
M  V30 457 H 45.342 -4.05003 1.16406 0
M  V30 458 H 44.066 -3.25955 0.205215 0
M  V30 459 H 42.725 -2.85547 2.29909 0
M  V30 460 H 42.373 -4.93769 0.959221 0
M  V30 461 H 42.073 -5.22313 2.69189 0
M  V30 462 H 43.597 -5.7866 1.94898 0
M  V30 463 H 45.011 -4.36307 3.719 0
M  V30 464 H 43.408 -4.03718 4.43995 0
M  V30 465 H 44.478 -2.68134 4.0402 0
M  V30 466 N 45.8211 -1.22559 -0.990812 0
M  V30 467 C 46.7511 -1.0218 -2.09956 0
M  V30 468 C 47.7321 0.0579394 -1.70001 0
M  V30 469 O 48.9171 -0.104684 -1.93918 0
M  V30 470 C 46.0471 -0.601023 -3.4206 0
M  V30 471 C 45.0011 -1.62694 -3.95872 0
M  V30 472 C 44.3271 -1.06193 -5.24049 0
M  V30 473 C 45.6271 -3.01743 -4.2632 0
M  V30 474 H 47.3211 -1.94916 -2.27262 0
M  V30 475 H 44.8671 -0.938566 -1.09211 0
M  V30 476 H 46.8201 -0.445561 -4.19038 0
M  V30 477 H 45.5441 0.362005 -3.24588 0
M  V30 478 H 44.2031 -1.77021 -3.21028 0
M  V30 479 H 43.8511 -0.0901903 -5.02919 0
M  V30 480 H 43.5511 -1.74732 -5.61019 0
M  V30 481 H 45.0751 -0.918092 -6.03658 0
M  V30 482 H 46.4891 -2.90777 -4.94087 0
M  V30 483 H 44.8861 -3.67425 -4.74467 0
M  V30 484 H 45.9561 -3.51518 -3.34011 0
M  V30 485 N 47.2992 1.18797 -1.03562 0
M  V30 486 C 48.7102 1.70322 -0.764676 0
M  V30 487 C 49.0612 1.82708 0.714996 0
M  V30 488 O 48.1862 1.50299 1.55689 0
M  V30 489 C 48.7812 3.09356 -1.38145 0
M  V30 490 C 47.3402 3.58114 -1.15895 0
M  V30 491 C 46.4872 2.34798 -1.4753 0
M  V30 492 H 49.4382 1.03543 -1.20268 0
M  V30 493 H 49.4592 3.72378 -0.781977 0
M  V30 494 H 48.9712 3.00309 -2.45837 0
M  V30 495 H 47.0722 3.72464 -0.100544 0
M  V30 496 H 47.1852 4.4184 -1.8524 0
M  V30 497 H 45.5492 2.38464 -0.894829 0
M  V30 498 H 46.3322 2.28375 -2.56319 0
M  V30 499 N 48.7773 0.814389 1.34928 0
M  V30 500 C 50.0233 0.399013 1.98836 0
M  V30 501 C 50.3563 -1.03314 1.64438 0
M  V30 502 O 49.6313 -1.71811 0.911659 0
M  V30 503 C 49.9143 0.591629 3.55207 0
M  V30 504 C 49.7673 2.06928 3.99376 0
M  V30 505 C 51.0863 0.022199 4.40094 0
M  V30 506 H 48.2053 0.146451 0.722303 0
M  V30 507 H 50.8473 1.02537 1.59957 0
M  V30 508 H 48.9973 0.0584441 3.88456 0
M  V30 509 H 50.6693 2.66544 3.76499 0
M  V30 510 H 48.9123 2.56287 3.49999 0
M  V30 511 H 49.5833 2.1549 5.08201 0
M  V30 512 H 52.0593 0.477643 4.13349 0
M  V30 513 H 50.9353 0.186832 5.48582 0
M  V30 514 H 51.1963 -1.07215 4.28902 0
M  V30 515 N 50.2554 -1.46986 0.568584 0
M  V30 516 C 51.5024 -2.02441 0.0487986 0
M  V30 517 C 51.8304 -1.44169 -1.30559 0
M  V30 518 O 51.0854 -0.591213 -1.86556 0
M  V30 519 C 51.3844 -3.57306 -0.081836 0
M  V30 520 C 51.0504 -4.34552 1.20313 0
M  V30 521 C 49.7124 -4.55376 1.5552 0
M  V30 522 C 52.0644 -4.79016 2.05411 0
M  V30 523 C 49.3924 -5.17913 2.7565 0
M  V30 524 C 51.7444 -5.42879 3.24754 0
M  V30 525 C 50.4084 -5.61933 3.60261 0
M  V30 526 H 49.6784 -0.740785 0.0178567 0
M  V30 527 H 52.3254 -1.76525 0.742384 0
M  V30 528 H 50.6304 -3.8228 -0.858463 0
M  V30 529 H 52.3274 -3.97876 -0.499546 0
M  V30 530 H 48.9174 -4.18631 0.919014 0
M  V30 531 H 53.1014 -4.62696 1.79516 0
M  V30 532 H 48.3574 -5.30858 3.03315 0
M  V30 533 H 52.5314 -5.76293 3.90973 0
M  V30 534 H 50.1584 -6.10161 4.53439 0
M  V30 535 N 51.7335 -0.305618 -1.54608 0
M  V30 536 C 52.9825 0.303098 -1.9941 0
M  V30 537 C 53.2955 1.54648 -1.19764 0
M  V30 538 O 54.5015 2.23007 -1.54855 0
M  V30 539 C 52.9575 0.590588 -3.55021 0
M  V30 540 C 52.5655 -0.634719 -4.43481 0
M  V30 541 C 54.3095 1.16025 -4.08336 0
M  V30 542 C 52.2165 -0.320126 -5.90533 0
M  V30 543 H 51.1465 0.117031 -0.744862 0
M  V30 544 H 53.7975 -0.415045 -1.78745 0
M  V30 545 H 52.1795 1.36845 -3.71604 0
M  V30 546 H 53.3535 -1.41079 -4.38672 0
M  V30 547 H 51.6685 -1.12333 -4.00962 0
M  V30 548 H 54.2655 1.40994 -5.15776 0
M  V30 549 H 54.6085 2.10397 -3.5922 0
M  V30 550 H 55.1415 0.443985 -3.95315 0
M  V30 551 H 51.8805 -1.23254 -6.43808 0
M  V30 552 H 51.4005 0.418579 -5.98338 0
M  V30 553 H 53.0795 0.0766241 -6.46955 0
M  V30 554 N 53.2116 1.57565 -0.0334293 0
M  V30 555 C 54.4396 1.9628 0.654347 0
M  V30 556 C 54.8546 0.910138 1.65414 0
M  V30 557 O 54.2116 -0.107595 1.82183 0
M  V30 558 C 54.2626 3.35067 1.35693 0
M  V30 559 O 53.9836 4.36296 0.397191 0
M  V30 560 C 55.4846 3.88439 2.13613 0
M  V30 561 H 52.7046 0.646369 0.180132 0
M  V30 562 H 55.2486 2.04282 -0.0944721 0
M  V30 563 H 53.4036 3.2827 2.05712 0
M  V30 564 H 53.8176 5.1678 0.896597 0
M  V30 565 H 55.2916 4.8788 2.58219 0
M  V30 566 H 55.7686 3.22914 2.97696 0
M  V30 567 H 56.3746 3.98516 1.48543 0
M  V30 568 N 54.6897 -0.239769 1.55765 0
M  V30 569 C 55.9367 -0.966801 1.7793 0
M  V30 570 C 56.2647 -1.85046 0.599015 0
M  V30 571 O 55.5197 -1.91197 -0.417395 0
M  V30 572 C 55.8187 -1.852 3.05672 0
M  V30 573 C 55.4847 -1.1231 4.36689 0
M  V30 574 C 54.1467 -0.921689 4.72291 0
M  V30 575 C 56.4987 -0.607019 5.17653 0
M  V30 576 C 53.8267 -0.191996 5.86386 0
M  V30 577 C 56.1787 0.109241 6.32506 0
M  V30 578 C 54.8427 0.322073 6.66723 0
M  V30 579 H 54.1127 -0.353778 0.651093 0
M  V30 580 H 56.7597 -0.23634 1.90036 0
M  V30 581 H 55.0647 -2.64975 2.8861 0
M  V30 582 H 56.7617 -2.41635 3.20021 0
M  V30 583 H 53.3517 -1.29004 4.08725 0
M  V30 584 H 57.5357 -0.750153 4.90598 0
M  V30 585 H 52.7917 -0.0166949 6.11398 0
M  V30 586 H 56.9657 0.516737 6.9448 0
M  V30 587 H 54.5927 0.88944 7.54979 0
M  V30 588 N 56.1678 -1.49265 -0.50573 0
M  V30 589 C 57.4138 -1.59723 -1.25937 0
M  V30 590 C 57.7688 -0.278236 -1.90378 0
M  V30 591 O 57.0618 0.72113 -1.77511 0
M  V30 592 C 57.2558 -2.69008 -2.35308 0
M  V30 593 C 57.0848 -4.11405 -1.81592 0
M  V30 594 C 55.8548 -4.78252 -1.63105 0
M  V30 595 C 58.0528 -4.96792 -1.33048 0
M  V30 596 N 56.0348 -6.0498 -1.04269 0
M  V30 597 C 57.4058 -6.13962 -0.863168 0
M  V30 598 C 59.4608 -4.82828 -1.21577 0
M  V30 599 C 58.1638 -7.18705 -0.292489 0
M  V30 600 C 60.1898 -5.87716 -0.65907 0
M  V30 601 C 59.5518 -7.0411 -0.201954 0
M  V30 602 H 55.6508 -0.638864 -0.450973 0
M  V30 603 H 58.2348 -1.86251 -0.567326 0
M  V30 604 H 56.4058 -2.4426 -3.01979 0
M  V30 605 H 58.1378 -2.69013 -3.02348 0
M  V30 606 H 54.8928 -4.34974 -1.87336 0
M  V30 607 H 55.3168 -6.72631 -0.767919 0
M  V30 608 H 59.9588 -3.93159 -1.55518 0
M  V30 609 H 57.6768 -8.08078 0.0591987 0
M  V30 610 H 61.2628 -5.7897 -0.573156 0
M  V30 611 H 60.1428 -7.83885 0.222101 0
M  V30 612 N 57.6459 0.756429 -1.3826 0
M  V30 613 C 58.8859 1.52833 -1.35725 0
M  V30 614 C 59.2499 1.91926 0.0534106 0
M  V30 615 O 60.4509 2.68028 0.203613 0
M  V30 616 C 58.7219 2.74919 -2.28373 0
M  V30 617 S 60.2809 3.64817 -2.43832 0
M  V30 618 H 57.0989 0.523043 -0.481608 0
M  V30 619 H 59.7009 0.888212 -1.74158 0
M  V30 620 H 58.4049 2.44304 -3.29763 0
M  V30 621 H 57.9359 3.43878 -1.91079 0
M  V30 622 H 59.9509 4.676 -1.66027 0
M  V30 623 N 59.124 1.23083 0.984299 0
M  V30 624 C 60.349 1.088 1.76571 0
M  V30 625 C 60.774 -0.356657 1.84688 0
M  V30 626 O 60.132 -1.25788 1.30565 0
M  V30 627 C 60.18 1.71371 3.17277 0
M  V30 628 O 59.284 0.973213 4.00752 0
M  V30 629 H 58.625 0.381599 0.543395 0
M  V30 630 H 61.155 1.63057 1.23587 0
M  V30 631 H 61.165 1.76449 3.67872 0
M  V30 632 H 59.84 2.76493 3.10684 0
M  V30 633 H 58.417 0.999078 3.59267 0
M  V30 634 N 60.6021 -1.18246 1.0419 0
M  V30 635 C 61.5321 -2.24127 0.654914 0
M  V30 636 C 62.5131 -1.66617 -0.342451 0
M  V30 637 O 63.6981 -1.92924 -0.222277 0
M  V30 638 C 60.8281 -3.47295 0.0183757 0
M  V30 639 C 59.7821 -4.17563 0.939414 0
M  V30 640 C 59.1081 -5.34438 0.167286 0
M  V30 641 C 60.4081 -4.70917 2.25908 0
M  V30 642 H 62.1021 -2.56753 1.54007 0
M  V30 643 H 59.6481 -1.23414 0.74195 0
M  V30 644 H 61.6011 -4.20572 -0.264082 0
M  V30 645 H 60.3251 -3.13907 -0.901664 0
M  V30 646 H 58.9841 -3.46186 1.20628 0
M  V30 647 H 58.6321 -4.97298 -0.7552 0
M  V30 648 H 58.3321 -5.82388 0.780901 0
M  V30 649 H 59.8561 -6.10504 -0.108125 0
M  V30 650 H 61.2701 -5.35882 2.03724 0
M  V30 651 H 59.6671 -5.29406 2.82577 0
M  V30 652 H 60.7371 -3.88272 2.9047 0
M  V30 653 N 62.0802 -0.821533 -1.34494 0
M  V30 654 C 63.0122 -0.199946 -2.28326 0
M  V30 655 C 64.0252 0.609377 -1.50965 0
M  V30 656 O 65.2142 0.439285 -1.7301 0
M  V30 657 C 62.3142 0.738431 -3.30757 0
M  V30 658 C 61.4872 -0.0277632 -4.37391 0
M  V30 659 C 60.5462 0.831332 -5.19591 0
M  V30 660 O 59.5722 0.276822 -5.68526 0
M  V30 661 N 60.7742 2.15132 -5.39165 0
M  V30 662 H 63.5392 -1.00609 -2.82308 0
M  V30 663 H 61.1002 -0.678366 -1.47003 0
M  V30 664 H 63.0922 1.31773 -3.82646 0
M  V30 665 H 61.6622 1.44533 -2.7718 0
M  V30 666 H 60.8822 -0.788359 -3.86236 0
M  V30 667 H 62.1702 -0.555251 -5.05761 0
M  V30 668 H 61.5682 2.62559 -5.01078 0
M  V30 669 H 60.1252 2.6795 -5.94177 0
M  V30 670 N 63.5583 1.46682 -0.576371 0
M  V30 671 C 64.9743 1.57822 -0.237562 0
M  V30 672 C 65.1743 1.57237 1.26011 0
M  V30 673 O 64.2303 1.48596 2.04146 0
M  V30 674 C 65.5433 2.87499 -0.881168 0
M  V30 675 C 67.0913 3.01119 -0.85417 0
M  V30 676 C 67.5663 4.33524 -1.4772 0
M  V30 677 N 69.0573 4.40207 -1.44125 0
M  V30 678 C 69.7923 5.4126 -1.89276 0
M  V30 679 N 69.2883 6.49021 -2.42371 0
M  V30 680 N 71.0813 5.32422 -1.80231 0
M  V30 681 H 63.2323 1.45306 -1.54919 0
M  V30 682 H 65.4953 0.692733 -0.647167 0
M  V30 683 H 65.2013 2.9372 -1.93447 0
M  V30 684 H 65.0753 3.75224 -0.385592 0
M  V30 685 H 67.4623 2.94485 0.190491 0
M  V30 686 H 67.5433 2.14887 -1.3877 0
M  V30 687 H 67.1873 4.40916 -2.52103 0
M  V30 688 H 67.1173 5.1852 -0.918947 0
M  V30 689 H 69.6083 3.62931 -1.05307 0
M  V30 690 H 69.9213 7.2233 -2.74698 0
M  V30 691 H 68.2663 6.49858 -2.46393 0
M  V30 692 H 71.4573 4.47137 -1.38514 0
M  V30 693 H 71.6303 6.11034 -2.15735 0
M  V30 694 N 65.0364 0.313813 1.54444 0
M  V30 695 C 66.2614 -0.296681 2.05267 0
M  V30 696 C 66.6864 -1.45757 1.18897 0
M  V30 697 O 66.0444 -1.80239 0.195886 0
M  V30 698 C 66.0924 -0.71831 3.53373 0
M  V30 699 O 65.1964 -1.82175 3.69981 0
M  V30 700 H 64.5374 -0.0554061 0.661684 0
M  V30 701 H 67.0674 0.459387 1.99376 0
M  V30 702 H 67.0774 -1.00364 3.95463 0
M  V30 703 H 65.7524 0.130821 4.15694 0
M  V30 704 H 64.3294 -1.53598 3.39797 0
M  V30 705 N 66.5145 -1.57545 0.0417849 0
M  V30 706 C 67.9305 -1.56467 -0.314704 0
M  V30 707 C 68.1305 -1.04859 -1.72066 0
M  V30 708 O 67.1865 -0.700983 -2.42575 0
M  V30 709 C 68.4995 -3.00317 -0.15174 0
M  V30 710 C 70.0475 -3.12201 -0.223553 0
M  V30 711 C 70.5225 -4.57913 -0.0892295 0
M  V30 712 N 72.0135 -4.6297 -0.145808 0
M  V30 713 C 72.7485 -5.73362 -0.0658459 0
M  V30 714 N 72.2445 -6.92769 0.0659282 0
M  V30 715 N 74.0375 -5.6197 -0.12075 0
M  V30 716 H 66.1885 -1.89416 0.961014 0
M  V30 717 H 68.4515 -0.871862 0.372237 0
M  V30 718 H 68.1575 -3.42073 0.817254 0
M  V30 719 H 68.0315 -3.65892 -0.916692 0
M  V30 720 H 70.4185 -2.70349 -1.18301 0
M  V30 721 H 70.4995 -2.49323 0.571994 0
M  V30 722 H 70.1435 -5.00448 0.866867 0
M  V30 723 H 70.0735 -5.18786 -0.903802 0
M  V30 724 H 72.5645 -3.7709 -0.247286 0
M  V30 725 H 72.8775 -7.72707 0.119905 0
M  V30 726 H 71.2225 -6.94927 0.100885 0
M  V30 727 H 74.4135 -4.67572 -0.222187 0
M  V30 728 H 74.5865 -6.47977 -0.0549735 0
M  V30 729 N 67.9926 0.231505 -1.5589 0
M  V30 730 C 69.4086 0.580748 -1.48659 0
M  V30 731 C 69.6086 1.87617 -0.73498 0
M  V30 732 O 68.6646 2.51046 -0.270586 0
M  V30 733 C 69.9776 0.669202 -2.93159 0
M  V30 734 C 71.5256 0.760499 -3.03621 0
M  V30 735 C 72.0006 0.880383 -4.49459 0
M  V30 736 N 73.4916 0.944861 -4.53461 0
M  V30 737 C 74.2266 1.05716 -5.63571 0
M  V30 738 N 73.7226 1.13403 -6.83456 0
M  V30 739 N 75.5156 1.09152 -5.514 0
M  V30 740 H 67.6666 -0.618695 -2.03189 0
M  V30 741 H 69.9296 -0.215728 -0.923128 0
M  V30 742 H 69.6356 -0.212904 -3.51055 0
M  V30 743 H 69.5096 1.5361 -3.44505 0
M  V30 744 H 71.8966 1.63305 -2.45796 0
M  V30 745 H 71.9776 -0.131864 -2.5546 0
M  V30 746 H 71.6216 0.0123284 -5.07899 0
M  V30 747 H 71.5516 1.78802 -4.95316 0
M  V30 748 H 74.0426 0.896176 -3.6712 0
M  V30 749 H 74.3556 1.21921 -7.63122 0
M  V30 750 H 72.7006 1.10333 -6.86186 0
M  V30 751 H 75.8916 1.02805 -4.56671 0
M  V30 752 H 76.0646 1.17558 -6.37247 0
M  V30 753 N 69.4707 1.49531 0.497807 0
M  V30 754 C 70.4027 1.62559 1.61578 0
M  V30 755 C 71.4157 0.508134 1.54667 0
M  V30 756 O 72.6047 0.780309 1.60541 0
M  V30 757 C 69.7047 1.56925 3.00379 0
M  V30 758 C 68.8777 2.84257 3.3244 0
M  V30 759 C 67.9367 2.71632 4.50669 0
M  V30 760 O 66.9627 3.4557 4.52294 0
M  V30 761 N 68.1647 1.83391 5.5077 0
M  V30 762 H 70.9297 2.58981 1.50828 0
M  V30 763 H 68.4907 1.4666 0.685743 0
M  V30 764 H 70.4827 1.46129 3.77397 0
M  V30 765 H 69.0527 0.683483 3.05037 0
M  V30 766 H 68.2727 3.09381 2.44289 0
M  V30 767 H 69.5607 3.68666 3.5066 0
M  V30 768 H 68.9587 1.22583 5.52259 0
M  V30 769 H 67.5157 1.78515 6.26878 0
M  V30 770 N 70.9488 -0.749086 1.3866 0
M  V30 771 C 71.8788 -1.8764 1.38973 0
M  V30 772 C 72.8598 -1.68178 0.255004 0
M  V30 773 O 74.0448 -1.88704 0.458754 0
M  V30 774 C 71.1748 -3.25222 1.21851 0
M  V30 775 C 70.1288 -3.59295 2.32575 0
M  V30 776 C 69.4548 -4.95663 2.00555 0
M  V30 777 C 70.7548 -3.63709 3.7485 0
M  V30 778 H 72.4488 -1.87635 2.3331 0
M  V30 779 H 69.9948 -0.901329 1.12303 0
M  V30 780 H 71.9478 -4.03746 1.20695 0
M  V30 781 H 70.6718 -3.25719 0.239775 0
M  V30 782 H 69.3308 -2.83093 2.32925 0
M  V30 783 H 68.9788 -4.92724 1.01154 0
M  V30 784 H 68.6788 -5.19429 2.74714 0
M  V30 785 H 70.2028 -5.7656 2.01024 0
M  V30 786 H 71.6168 -4.32338 3.76506 0
M  V30 787 H 70.0138 -3.98986 4.48252 0
M  V30 788 H 71.0838 -2.63834 4.06841 0
M  V30 789 N 72.4269 -1.23603 -0.977757 0
M  V30 790 C 73.3769 -0.986664 -2.05545 0
M  V30 791 C 74.3609 0.0683009 -1.60755 0
M  V30 792 O 75.5529 -0.144162 -1.76412 0
M  V30 793 C 72.6819 -0.582623 -3.3832 0
M  V30 794 C 71.7679 -1.67313 -3.89701 0
M  V30 795 N 72.1589 -2.90394 -4.14132 0
M  V30 796 C 70.4569 -1.54832 -4.18262 0
M  V30 797 C 71.1579 -3.61017 -4.56116 0
M  V30 798 N 70.1339 -2.8854 -4.60701 0
M  V30 799 H 73.9359 -1.92139 -2.22396 0
M  V30 800 H 71.4499 -1.1358 -1.16074 0
M  V30 801 H 73.4469 -0.38524 -4.15116 0
M  V30 802 H 72.1069 0.34503 -3.22862 0
M  V30 803 H 73.1179 -3.26673 -4.01877 0
M  V30 804 H 69.7949 -0.687969 -4.11793 0
M  V30 805 H 71.1849 -4.66544 -4.83514 0
M  V30 806 N 73.905 1.17692 -1.04816 0
M  V30 807 C 75.321 1.39863 -0.768794 0
M  V30 808 C 75.521 1.91118 0.638451 0
M  V30 809 O 74.577 2.10036 1.40146 0
M  V30 810 C 75.89 2.39274 -1.82122 0
M  V30 811 C 77.438 2.52987 -1.843 0
M  V30 812 C 77.913 3.55669 -2.88555 0
M  V30 813 N 79.404 3.63183 -2.87493 0
M  V30 814 C 80.139 4.42381 -3.64811 0
M  V30 815 N 79.635 5.25125 -4.51903 0
M  V30 816 N 81.428 4.37217 -3.53267 0
M  V30 817 H 73.579 0.82752 -1.95617 0
M  V30 818 H 75.842 0.426123 -0.846831 0
M  V30 819 H 75.548 2.08678 -2.83102 0
M  V30 820 H 75.422 3.38725 -1.65967 0
M  V30 821 H 77.809 2.82896 -0.839869 0
M  V30 822 H 77.89 1.53623 -2.04532 0
M  V30 823 H 77.534 3.26499 -3.89051 0
M  V30 824 H 77.464 4.54728 -2.65575 0
M  V30 825 H 79.955 3.04103 -2.24343 0
M  V30 826 H 80.268 5.82728 -5.07591 0
M  V30 827 H 78.613 5.24519 -4.55966 0
M  V30 828 H 81.804 3.71626 -2.84625 0
M  V30 829 H 81.977 4.98696 -4.13771 0
M  V30 830 N 75.3831 0.828654 1.34056 0
M  V30 831 C 76.7991 0.515135 1.51058 0
M  V30 832 C 76.9991 -0.959581 1.77184 0
M  V30 833 O 76.0551 -1.74382 1.82612 0
M  V30 834 C 77.3681 1.37963 2.67183 0
M  V30 835 C 78.9161 1.37735 2.81066 0
M  V30 836 C 79.3911 2.22645 4.00241 0
M  V30 837 N 80.8821 2.203 4.07458 0
M  V30 838 C 81.6171 2.82744 4.98842 0
M  V30 839 N 81.1131 3.54201 5.9541 0
M  V30 840 N 82.9061 2.72268 4.91759 0
M  V30 841 H 75.0571 1.78343 1.15358 0
M  V30 842 H 77.3201 0.760304 0.566252 0
M  V30 843 H 77.0261 2.42714 2.54525 0
M  V30 844 H 76.9001 1.0484 3.62338 0
M  V30 845 H 79.2871 0.337593 2.93163 0
M  V30 846 H 79.3681 1.74859 1.86703 0
M  V30 847 H 79.0121 3.26674 3.88905 0
M  V30 848 H 78.9421 1.82869 4.93829 0
M  V30 849 H 81.4331 1.68327 3.38341 0
M  V30 850 H 81.7461 3.9908 6.61782 0
M  V30 851 H 80.0911 3.58308 5.95517 0
M  V30 852 H 83.2821 2.16014 4.15278 0
M  V30 853 H 83.4551 3.21219 5.62781 0
M  V30 854 N 76.8612 -1.46375 0.584142 0
M  V30 855 C 78.1382 -1.956 0.0033388 0
M  V30 856 C 78.5182 -1.52679 -1.45782 0
M  V30 857 O 77.8662 -0.77816 -2.14842 0
M  V30 858 C 78.0762 -3.48551 0.176891 0
M  V30 859 C 79.4242 -4.24576 0.0454609 0
M  V30 860 O 80.4482 -3.56043 0.105801 0
M  V30 861 O 79.3072 -5.46427 -0.0890376 0
M  V30 862 H 76.4012 -0.825547 -0.0490066 0
M  V30 863 H 78.9472 -1.56652 0.65256 0
M  V30 864 H 77.7192 -3.72683 1.1926 0
M  V30 865 H 77.3422 -3.94332 -0.508695 0
M  V30 866 N 78.3393 -0.321999 -1.54275 0
M  V30 867 C 79.5883 0.281931 -1.9972 0
M  V30 868 C 79.9013 1.53369 -1.21397 0
M  V30 869 O 81.1073 2.21352 -1.57211 0
M  V30 870 C 79.5633 0.5529 -3.55628 0
M  V30 871 C 79.1713 -0.681721 -4.42783 0
M  V30 872 C 80.9153 1.11687 -4.09544 0
M  V30 873 C 78.8223 -0.382742 -5.9016 0
M  V30 874 H 77.7523 0.109124 -0.746062 0
M  V30 875 H 80.4033 -0.43398 -1.78294 0
M  V30 876 H 78.7853 1.32896 -3.73035 0
M  V30 877 H 79.9593 -1.45723 -4.37151 0
M  V30 878 H 78.2743 -1.1658 -3.99748 0
M  V30 879 H 80.8713 1.35515 -5.17242 0
M  V30 880 H 81.2143 2.06575 -3.61431 0
M  V30 881 H 81.7473 0.402032 -3.95763 0
M  V30 882 H 78.4863 -1.30076 -6.42464 0
M  V30 883 H 78.0063 0.355094 -5.98748 0
M  V30 884 H 79.6853 0.00800157 -6.47 0
M  V30 885 N 79.8174 1.5752 -0.0501392 0
M  V30 886 C 81.0644 1.9265 0.623874 0
M  V30 887 C 81.3924 0.928411 1.70912 0
M  V30 888 O 80.6474 -0.0594525 1.9561 0
M  V30 889 C 80.9464 3.34467 1.25963 0
M  V30 890 C 80.6124 4.49883 0.302689 0
M  V30 891 C 79.2744 4.81184 0.0393636 0
M  V30 892 C 81.6264 5.20002 -0.353205 0
M  V30 893 C 78.9544 5.79951 -0.887308 0
M  V30 894 C 81.3064 6.1976 -1.26806 0
M  V30 895 C 79.9704 6.49491 -1.54007 0
M  V30 896 H 79.2404 0.704957 0.228292 0
M  V30 897 H 81.8874 1.91146 -0.116398 0
M  V30 898 H 80.1924 3.32333 2.07514 0
M  V30 899 H 81.8894 3.58928 1.78806 0
M  V30 900 H 78.4794 4.25457 0.518109 0
M  V30 901 H 82.6634 4.96033 -0.162854 0
M  V30 902 H 77.9194 6.01322 -1.10553 0
M  V30 903 H 82.0934 6.73205 -1.78236 0
M  V30 904 H 79.7204 7.25837 -2.25976 0
M  V30 905 N 81.2955 -0.223234 1.56011 0
M  V30 906 C 82.7115 -0.572856 1.48965 0
M  V30 907 C 82.9115 -1.87225 0.74492 0
M  V30 908 O 81.9675 -2.50899 0.283896 0
M  V30 909 C 83.2805 -0.653646 2.9351 0
M  V30 910 C 84.8285 -0.744386 3.0402 0
M  V30 911 C 85.3035 -0.856535 4.49919 0
M  V30 912 N 86.7945 -0.9208 4.53955 0
M  V30 913 C 87.5295 -1.02726 5.64123 0
M  V30 914 N 87.0255 -1.09777 6.84047 0
M  V30 915 N 88.8185 -1.06226 5.51971 0
M  V30 916 H 80.9695 0.629462 2.02858 0
M  V30 917 H 83.2325 0.220621 0.921971 0
M  V30 918 H 82.9385 0.231518 3.50937 0
M  V30 919 H 82.8125 -1.51781 3.45315 0
M  V30 920 H 85.1995 -1.61999 2.46658 0
M  V30 921 H 85.2805 0.14541 2.55386 0
M  V30 922 H 84.9245 0.0146069 5.07898 0
M  V30 923 H 84.8545 -1.76172 4.96257 0
M  V30 924 H 87.3455 -0.876694 3.6759 0
M  V30 925 H 87.6585 -1.17872 7.63758 0
M  V30 926 H 86.0035 -1.06693 6.86762 0
M  V30 927 H 89.1945 -1.00382 4.5721 0
M  V30 928 H 89.3675 -1.14177 6.37862 0
M  V30 929 N 82.7736 -1.49793 -0.48987 0
M  V30 930 C 83.7206 -1.67281 -1.59014 0
M  V30 931 C 84.6906 -0.514177 -1.57941 0
M  V30 932 O 85.8756 -0.742533 -1.75759 0
M  V30 933 C 83.0156 -1.75569 -2.97102 0
M  V30 934 C 82.1286 -3.0281 -3.08107 0
M  V30 935 C 81.2636 -3.02008 -4.36995 0
M  V30 936 C 80.3026 -4.23782 -4.41673 0
M  V30 937 N 79.4396 -4.20826 -5.62005 0
M  V30 938 H 84.2796 -2.61224 -1.43409 0
M  V30 939 H 81.8166 -1.29508 -0.697565 0
M  V30 940 H 83.7746 -1.78354 -3.77155 0
M  V30 941 H 82.4046 -0.850827 -3.11385 0
M  V30 942 H 81.4566 -3.09584 -2.21047 0
M  V30 943 H 82.7686 -3.92801 -3.07423 0
M  V30 944 H 81.9226 -3.03418 -5.25378 0
M  V30 945 H 80.6616 -2.09815 -4.4026 0
M  V30 946 H 79.6666 -4.22604 -3.5169 0
M  V30 947 H 80.8916 -5.17181 -4.40115 0
M  V30 948 H 78.8376 -3.31476 -5.66091 0
M  V30 949 H 78.7546 -5.04564 -5.62984 0
M  V30 950 H 80.0226 -4.26355 -6.52565 0
M  V30 951 N 84.2517 0.741722 -1.39055 0
M  V30 952 C 85.4767 1.53607 -1.39354 0
M  V30 953 C 85.9017 1.88096 0.0116905 0
M  V30 954 O 85.2597 1.5143 0.996924 0
M  V30 955 C 85.3077 2.80441 -2.26682 0
M  V30 956 O 84.4117 3.76088 -1.69208 0
M  V30 957 H 83.7527 0.464142 -0.474835 0
M  V30 958 H 86.2827 0.915665 -1.82967 0
M  V30 959 H 86.2927 3.29246 -2.40959 0
M  V30 960 H 84.9677 2.5467 -3.2881 0
M  V30 961 H 83.5447 3.34833 -1.64138 0
M  V30 962 N 85.7298 1.2412 0.971189 0
M  V30 963 C 86.6768 1.0305 2.06517 0
M  V30 964 C 87.6468 -0.0550666 1.66009 0
M  V30 965 O 88.8318 0.0988688 1.90544 0
M  V30 966 C 85.9718 0.637653 3.39158 0
M  V30 967 C 85.0848 1.79633 3.92882 0
M  V30 968 C 84.2198 1.34939 5.13775 0
M  V30 969 C 83.2588 2.47823 5.59687 0
M  V30 970 N 82.3958 2.04022 6.71803 0
M  V30 971 H 87.2358 1.96685 2.23873 0
M  V30 972 H 84.7728 0.979694 1.09729 0
M  V30 973 H 86.7308 0.390931 4.15364 0
M  V30 974 H 85.3608 -0.261693 3.21737 0
M  V30 975 H 84.4128 2.15681 3.13346 0
M  V30 976 H 85.7248 2.64466 4.22918 0
M  V30 977 H 84.8788 1.06134 5.97345 0
M  V30 978 H 83.6178 0.471557 4.85415 0
M  V30 979 H 82.6228 2.77392 4.74693 0
M  V30 980 H 83.8478 3.36158 5.90063 0
M  V30 981 H 81.7938 1.18632 6.45184 0
M  V30 982 H 81.7108 2.82409 7.01271 0
M  V30 983 H 82.9788 1.78347 7.58823 0
M  V30 984 N 87.2079 -1.17134 1.05439 0
M  V30 985 C 88.1579 -2.1919 0.627675 0
M  V30 986 C 89.1419 -1.57328 -0.337147 0
M  V30 987 O 90.3339 -1.76329 -0.153976 0
M  V30 988 C 87.4629 -3.43299 0.00651435 0
M  V30 989 C 86.5489 -4.12255 0.995312 0
M  V30 990 N 86.9399 -4.56997 2.16765 0
M  V30 991 C 85.2379 -4.38316 0.824336 0
M  V30 992 C 85.9389 -5.10239 2.7934 0
M  V30 993 N 84.9149 -5.02595 2.07122 0
M  V30 994 H 88.7169 -2.5149 1.52086 0
M  V30 995 H 86.2309 -1.33491 0.924868 0
M  V30 996 H 88.2279 -4.15693 -0.316965 0
M  V30 997 H 86.8879 -3.1249 -0.882033 0
M  V30 998 H 87.8989 -4.51006 2.54587 0
M  V30 999 H 84.5759 -4.17498 -0.0129526 0
M  V30 1000 H 85.9659 -5.54961 3.78772 0
M  V30 1001 N 88.686 -0.835752 -1.33615 0
M  V30 1002 C 89.934 -0.429109 -1.97492 0
M  V30 1003 C 90.255 1.01433 -1.66543 0
M  V30 1004 O 89.525 1.70611 -0.962744 0
M  V30 1005 H 88.105 -0.155686 -0.730596 0
M  V30 1006 H 90.767 -1.06802 -1.63031 0
M  V30 1007 H 89.863 -0.55861 -3.0706 0
M  V30 1008 N 90.1641 1.46063 -0.591896 0
M  V30 1009 C 91.4101 2.03203 -0.0894879 0
M  V30 1010 C 91.7651 1.45407 1.25994 0
M  V30 1011 O 91.0581 0.61326 1.8152 0
M  V30 1012 C 91.2521 3.57391 0.0249813 0
M  V30 1013 C 91.0811 4.30142 -1.3118 0
M  V30 1014 C 89.8511 4.68688 -1.88838 0
M  V30 1015 C 92.0491 4.63098 -2.23708 0
M  V30 1016 N 90.0311 5.26228 -3.1616 0
M  V30 1017 C 91.4021 5.21305 -3.3562 0
M  V30 1018 C 93.4571 4.45031 -2.23274 0
M  V30 1019 C 92.1601 5.63351 -4.47245 0
M  V30 1020 C 94.1861 4.881 -3.33935 0
M  V30 1021 C 93.5481 5.46386 -4.44569 0
M  V30 1022 H 89.6471 0.778323 -0.0757431 0
M  V30 1023 H 92.2311 1.78094 -0.78681 0
M  V30 1024 H 90.4021 3.82195 0.69149 0
M  V30 1025 H 92.1341 4.0118 0.532613 0
M  V30 1026 H 88.8891 4.5174 -1.42223 0
M  V30 1027 H 89.3131 5.59512 -3.8115 0
M  V30 1028 H 93.9551 3.99295 -1.39008 0
M  V30 1029 H 91.6731 6.08061 -5.32247 0
M  V30 1030 H 95.2591 4.75866 -3.34728 0
M  V30 1031 H 94.1391 5.79102 -5.28782 0
M  V30 1032 N 91.6422 0.330177 1.54103 0
M  V30 1033 C 93.0582 -0.0222371 1.59585 0
M  V30 1034 C 93.2582 -1.49902 1.34654 0
M  V30 1035 O 92.3142 -2.25592 1.13421 0
M  V30 1036 C 93.6272 0.401932 2.98002 0
M  V30 1037 C 95.1752 0.353145 3.11001 0
M  V30 1038 C 95.6502 0.752576 4.51775 0
M  V30 1039 N 97.1412 0.706239 4.57784 0
M  V30 1040 C 97.8762 0.987417 5.64834 0
M  V30 1041 N 97.3722 1.33607 6.79795 0
M  V30 1042 N 99.1652 0.91254 5.54643 0
M  V30 1043 H 91.3162 1.29228 1.68564 0
M  V30 1044 H 93.5792 0.525906 0.78875 0
M  V30 1045 H 93.2852 1.4311 3.21267 0
M  V30 1046 H 93.1592 -0.229699 3.765 0
M  V30 1047 H 95.5462 -0.666822 2.87467 0
M  V30 1048 H 95.6272 1.0198 2.34593 0
M  V30 1049 H 95.2712 1.77049 4.76042 0
M  V30 1050 H 95.2012 0.0635409 5.26562 0
M  V30 1051 H 97.6922 0.44889 3.75224 0
M  V30 1052 H 98.0052 1.53582 7.57385 0
M  V30 1053 H 96.3502 1.37439 6.81275 0
M  V30 1054 H 99.5412 0.639601 4.6371 0
M  V30 1055 H 99.7142 1.13503 6.37982 0
M  V30 1056 N 93.1203 -1.57491 0.0584922 0
M  V30 1057 C 94.3973 -1.84346 -0.653918 0
M  V30 1058 C 94.7773 -0.948355 -1.88599 0
M  V30 1059 O 94.1253 -0.0112403 -2.28497 0
M  V30 1060 C 94.3353 -3.34239 -1.00425 0
M  V30 1061 C 95.6833 -4.01431 -1.38342 0
M  V30 1062 O 96.7073 -3.38907 -1.09637 0
M  V30 1063 O 95.5663 -5.11683 -1.91943 0
M  V30 1064 H 92.6603 -0.761112 -0.323478 0
M  V30 1065 H 95.2063 -1.6947 0.0884125 0
M  V30 1066 H 93.9783 -3.91089 -0.128625 0
M  V30 1067 H 93.6013 -3.54329 -1.80378 0
M  V30 1068 N 94.5984 0.214957 -1.56127 0
M  V30 1069 C 95.8264 0.955092 -1.83536 0
M  V30 1070 C 96.2414 1.77677 -0.638472 0
M  V30 1071 O 95.5984 1.78219 0.392968 0
M  V30 1072 C 95.6494 1.86734 -3.09536 0
M  V30 1073 O 95.3704 1.07887 -4.24608 0
M  V30 1074 C 96.8714 2.72082 -3.4998 0
M  V30 1075 H 94.0914 0.279611 -0.609966 0
M  V30 1076 H 96.6354 0.228197 -2.03223 0
M  V30 1077 H 94.7904 2.5481 -2.91806 0
M  V30 1078 H 95.2044 1.69872 -4.9623 0
M  V30 1079 H 96.6784 3.31782 -4.41163 0
M  V30 1080 H 97.1554 3.44806 -2.7204 0
M  V30 1081 H 97.7614 2.09409 -3.70173 0
M  V30 1082 N 96.0765 1.50051 0.48192 0
M  V30 1083 C 97.3535 1.51009 1.2432 0
M  V30 1084 C 97.7335 0.248587 2.09631 0
M  V30 1085 O 97.0815 -0.768409 2.15192 0
M  V30 1086 C 97.2915 2.79981 2.08355 0
M  V30 1087 C 98.6395 3.3022 2.66908 0
M  V30 1088 O 99.6635 2.81228 2.18607 0
M  V30 1089 O 98.5225 4.15595 3.54884 0
M  V30 1090 H 95.6165 0.605239 0.563573 0
M  V30 1091 H 98.1625 1.62332 0.494627 0
M  V30 1092 H 96.9345 3.63275 1.45419 0
M  V30 1093 H 96.5575 2.7161 2.90368 0
M  V30 1094 N 97.5546 -0.734337 1.39446 0
M  V30 1095 C 98.4846 -1.86155 1.40955 0
M  V30 1096 C 99.4656 -1.67898 0.272827 0
M  V30 1097 O 100.651 -1.88207 0.478743 0
M  V30 1098 C 97.7806 -3.23912 1.25294 0
M  V30 1099 C 96.7346 -3.56808 2.36373 0
M  V30 1100 C 96.0606 -4.93508 2.058 0
M  V30 1101 C 97.3606 -3.59713 3.78687 0
M  V30 1102 H 99.0546 -1.8515 2.35287 0
M  V30 1103 H 96.6006 -0.889367 1.13253 0
M  V30 1104 H 98.5536 -4.02443 1.2497 0
M  V30 1105 H 97.2776 -3.25446 0.274308 0
M  V30 1106 H 95.9366 -2.80606 2.35914 0
M  V30 1107 H 95.5846 -4.91623 1.06374 0
M  V30 1108 H 95.2846 -5.16486 2.80208 0
M  V30 1109 H 96.8086 -5.74396 2.07128 0
M  V30 1110 H 98.2226 -4.2832 3.81071 0
M  V30 1111 H 96.6196 -3.94209 4.52459 0
M  V30 1112 H 97.6896 -2.59504 4.09617 0
M  V30 1113 N 99.0327 -1.24633 -0.964593 0
M  V30 1114 C 100.28 -1.08788 -1.70796 0
M  V30 1115 C 100.608 0.372783 -1.90894 0
M  V30 1116 O 99.8627 1.29167 -1.47018 0
M  V30 1117 C 100.162 -1.7763 -3.10133 0
M  V30 1118 C 99.8277 -3.27557 -3.09866 0
M  V30 1119 C 98.4897 -3.6846 -3.09501 0
M  V30 1120 C 100.842 -4.23389 -3.03959 0
M  V30 1121 C 98.1697 -5.03624 -3.00965 0
M  V30 1122 C 100.522 -5.58565 -2.96965 0
M  V30 1123 C 99.1857 -5.98809 -2.9493 0
M  V30 1124 H 98.4557 -0.398084 -0.624988 0
M  V30 1125 H 101.103 -1.54777 -1.12767 0
M  V30 1126 H 99.4077 -1.24044 -3.71645 0
M  V30 1127 H 101.105 -1.62832 -3.66451 0
M  V30 1128 H 97.6947 -2.95006 -3.10917 0
M  V30 1129 H 101.879 -3.92787 -3.03368 0
M  V30 1130 H 97.1347 -5.33998 -2.97752 0
M  V30 1131 H 101.309 -6.32523 -2.91354 0
M  V30 1132 H 98.9357 -7.03505 -2.88071 0
M  V30 1133 N 100.511 1.16574 -1.06058 0
M  V30 1134 C 101.736 1.91493 -0.796562 0
M  V30 1135 C 102.161 1.76773 0.642868 0
M  V30 1136 O 101.519 1.09142 1.44768 0
M  V30 1137 C 101.567 3.40293 -1.19303 0
M  V30 1138 O 100.671 4.11074 -0.330394 0
M  V30 1139 H 100.012 0.596678 -0.291326 0
M  V30 1140 H 102.542 1.47708 -1.41575 0
M  V30 1141 H 102.552 3.91057 -1.16356 0
M  V30 1142 H 101.227 3.50326 -2.24153 0
M  V30 1143 H 99.8038 3.70513 -0.421225 0
M  V30 1144 N 101.989 0.842826 1.3317 0
M  V30 1145 C 102.921 0.236245 2.27979 0
M  V30 1146 C 103.934 -0.585282 1.51915 0
M  V30 1147 O 105.123 -0.411705 1.73687 0
M  V30 1148 C 102.223 -0.685717 3.3189 0
M  V30 1149 C 101.396 0.0973448 4.37292 0
M  V30 1150 C 100.455 -0.748565 5.20848 0
M  V30 1151 O 99.4809 -0.186339 5.68895 0
M  V30 1152 N 100.683 -2.06527 5.42519 0
M  V30 1153 H 103.448 1.05088 2.80672 0
M  V30 1154 H 101.009 0.701667 1.45905 0
M  V30 1155 H 103.001 -1.25669 3.84694 0
M  V30 1156 H 101.571 -1.40105 2.79445 0
M  V30 1157 H 100.791 0.849706 3.84933 0
M  V30 1158 H 102.079 0.635643 5.04814 0
M  V30 1159 H 101.477 -2.54554 5.05192 0
M  V30 1160 H 100.034 -2.58464 5.98364 0
M  V30 1161 N 103.467 -1.45747 0.599634 0
M  V30 1162 C 104.878 -1.85853 0.177681 0
M  V30 1163 C 105.229 -1.50102 -1.26348 0
M  V30 1164 O 104.354 -0.923905 -1.95686 0
M  V30 1165 C 104.949 -3.37326 0.315688 0
M  V30 1166 C 103.508 -3.76365 -0.0515144 0
M  V30 1167 C 102.655 -2.69722 0.643822 0
M  V30 1168 H 105.606 -1.36661 0.806814 0
M  V30 1169 H 105.627 -3.77778 -0.454321 0
M  V30 1170 H 105.139 -3.63315 1.36468 0
M  V30 1171 H 103.24 -3.55993 -1.09999 0
M  V30 1172 H 103.353 -4.77916 0.336594 0
M  V30 1173 H 101.717 -2.54567 0.0822881 0
M  V30 1174 H 102.5 -2.98549 1.6948 0
M  V30 1175 N 104.945 -0.338344 -1.53925 0
M  V30 1176 C 106.173 0.261298 -2.05243 0
M  V30 1177 C 106.588 1.44625 -1.21363 0
M  V30 1178 O 105.945 1.80811 -0.247736 0
M  V30 1179 C 105.996 0.681412 -3.5502 0
M  V30 1180 O 105.717 -0.456414 -4.35716 0
M  V30 1181 C 107.218 1.34232 -4.22489 0
M  V30 1182 H 104.438 0.0513685 -0.669031 0
M  V30 1183 H 106.982 -0.488822 -1.98572 0
M  V30 1184 H 105.137 1.38148 -3.61931 0
M  V30 1185 H 105.551 -0.122564 -5.24357 0
M  V30 1186 H 107.025 1.58708 -5.28693 0
M  V30 1187 H 107.502 2.29426 -3.74514 0
M  V30 1188 H 108.108 0.684424 -4.19757 0
M  V30 1189 N 106.423 1.57458 -0.0668435 0
M  V30 1190 C 107.653 1.97337 0.611677 0
M  V30 1191 C 108.061 0.943744 1.63982 0
M  V30 1192 O 107.404 -0.0785584 1.83532 0
M  V30 1193 C 107.466 3.33511 1.34205 0
M  V30 1194 C 107.13 4.54598 0.467941 0
M  V30 1195 C 108.127 5.19186 -0.272439 0
M  V30 1196 C 105.812 5.0075 0.39427 0
M  V30 1197 C 107.806 6.28274 -1.07476 0
M  V30 1198 C 105.493 6.09711 -0.411729 0
M  V30 1199 C 106.491 6.73335 -1.14492 0
M  V30 1200 O 106.179 7.80199 -1.93763 0
M  V30 1201 H 105.911 0.654042 0.170893 0
M  V30 1202 H 108.465 2.04961 -0.134289 0
M  V30 1203 H 106.695 3.22487 2.13398 0
M  V30 1204 H 108.384 3.58029 1.91233 0
M  V30 1205 H 109.15 4.84477 -0.225086 0
M  V30 1206 H 105.029 4.51009 0.954569 0
M  V30 1207 H 108.573 6.77866 -1.64755 0
M  V30 1208 H 104.47 6.43854 -0.460664 0
M  V30 1209 H 105.238 7.97053 -1.86142 0
M  V30 1210 N 107.901 -0.206675 1.56239 0
M  V30 1211 C 109.141 -0.93574 1.81723 0
M  V30 1212 C 109.505 -1.80927 0.642609 0
M  V30 1213 O 110.706 -2.57323 0.777081 0
M  V30 1214 C 108.977 -1.74012 3.12177 0
M  V30 1215 S 110.536 -2.52279 3.59028 0
M  V30 1216 H 107.354 -0.314065 0.637875 0
M  V30 1217 H 109.956 -0.200071 1.94474 0
M  V30 1218 H 108.66 -1.0888 3.95693 0
M  V30 1219 H 108.191 -2.51782 3.02274 0
M  V30 1220 H 110.206 -3.76209 3.23545 0
M  V30 1221 N 109.379 -1.50304 -0.473955 0
M  V30 1222 C 110.619 -1.62786 -1.23612 0
M  V30 1223 C 110.983 -0.319786 -1.89318 0
M  V30 1224 O 112.184 -0.320012 -2.66888 0
M  V30 1225 C 110.455 -2.77351 -2.25414 0
M  V30 1226 S 112.014 -3.09948 -3.10608 0
M  V30 1227 H 108.832 -0.573895 -0.419721 0
M  V30 1228 H 111.434 -1.88076 -0.533623 0
M  V30 1229 H 110.138 -3.70879 -1.75719 0
M  V30 1230 H 109.669 -2.54137 -3.00296 0
M  V30 1231 H 111.684 -2.53553 -4.26527 0
M  V30 1232 N 110.857 0.726932 -1.39834 0
M  V30 1233 C 112.103 1.48884 -1.377 0
M  V30 1234 C 112.436 1.94185 0.0244852 0
M  V30 1235 O 111.711 1.67361 0.990986 0
M  V30 1236 C 111.994 2.72288 -2.3565 0
M  V30 1237 C 111.847 2.32956 -3.84775 0
M  V30 1238 C 113.166 3.74414 -2.31306 0
M  V30 1239 H 110.285 0.540062 -0.5015 0
M  V30 1240 H 112.927 0.830547 -1.70886 0
M  V30 1241 H 111.077 3.28457 -2.07481 0
M  V30 1242 H 112.749 1.82356 -4.23726 0
M  V30 1243 H 110.992 1.65088 -4.01159 0
M  V30 1244 H 111.663 3.21362 -4.4881 0
M  V30 1245 H 114.139 3.27849 -2.56231 0
M  V30 1246 H 113.015 4.58414 -3.01907 0
M  V30 1247 H 113.276 4.21909 -1.32081 0
M  V30 1248 N 112.336 1.25143 0.95797 0
M  V30 1249 C 113.576 1.10893 1.71703 0
M  V30 1250 C 113.94 -0.34478 1.88879 0
M  V30 1251 O 115.141 -0.609014 2.6181 0
M  V30 1252 C 113.412 1.83889 3.06463 0
M  V30 1253 S 114.971 1.85491 3.97666 0
M  V30 1254 H 111.789 0.396428 0.590226 0
M  V30 1255 H 114.391 1.58618 1.14283 0
M  V30 1256 H 113.095 2.88756 2.9163 0
M  V30 1257 H 112.626 1.36538 3.68946 0
M  V30 1258 H 114.641 0.929553 4.87415 0
M  V30 1259 N 113.814 -1.1601 1.06675 0
M  V30 1260 C 114.777 -2.18724 0.685001 0
M  V30 1261 C 115.777 -1.58496 -0.271246 0
M  V30 1262 O 116.967 -1.74119 -0.0531156 0
M  V30 1263 C 114.099 -3.40899 0.00853648 0
M  V30 1264 H 115.292 -2.54011 1.59431 0
M  V30 1265 H 112.845 -1.30352 0.862441 0
M  V30 1266 H 113.58 -3.11173 -0.913337 0
M  V30 1267 H 113.365 -3.8587 0.696204 0
M  V30 1268 H 114.855 -4.16886 -0.24414 0
M  V30 1269 N 115.292 -0.849877 -1.32721 0
M  V30 1270 C 116.224 -0.248332 -2.27851 0
M  V30 1271 C 117.237 0.577218 -1.52224 0
M  V30 1272 O 118.426 0.402489 -1.73903 0
M  V30 1273 C 115.526 0.668107 -3.32249 0
M  V30 1274 C 114.699 -0.120534 -4.37234 0
M  V30 1275 C 113.758 0.720932 -5.21238 0
M  V30 1276 O 112.784 0.156166 -5.68986 0
M  V30 1277 N 113.986 2.03647 -5.43607 0
M  V30 1278 H 116.751 -1.06575 -2.80111 0
M  V30 1279 H 114.312 -0.709395 -1.45531 0
M  V30 1280 H 116.304 1.23627 -3.85355 0
M  V30 1281 H 114.874 1.38621 -2.80184 0
M  V30 1282 H 114.094 -0.870108 -3.84477 0
M  V30 1283 H 115.382 -0.662406 -5.0447 0
M  V30 1284 H 114.78 2.51871 -5.06535 0
M  V30 1285 H 113.337 2.55287 -5.99727 0
M  V30 1286 N 116.77 1.45427 -0.607355 0
M  V30 1287 C 117.72 2.27612 0.133038 0
M  V30 1288 C 118.704 1.37307 0.838785 0
M  V30 1289 O 119.896 1.61299 0.728813 0
M  V30 1290 C 117.025 3.24173 1.12991 0
M  V30 1291 C 116.111 4.21965 0.425011 0
M  V30 1292 N 116.502 5.02982 -0.533217 0
M  V30 1293 C 114.8 4.40899 0.672593 0
M  V30 1294 C 115.501 5.73931 -0.947518 0
M  V30 1295 N 114.477 5.42819 -0.291321 0
M  V30 1296 H 118.279 2.87649 -0.602935 0
M  V30 1297 H 115.793 1.56576 -0.431006 0
M  V30 1298 H 117.79 3.81783 1.67473 0
M  V30 1299 H 116.45 2.65696 1.86644 0
M  V30 1300 H 117.461 5.09843 -0.90995 0
M  V30 1301 H 114.138 3.93547 1.39382 0
M  V30 1302 H 115.528 6.49037 -1.73782 0
M  V30 1303 N 118.248 0.346503 1.53744 0
M  V30 1304 C 119.497 -0.250122 2.00143 0
M  V30 1305 C 119.81 -1.51418 1.23822 0
M  V30 1306 O 121.016 -2.18823 1.60713 0
M  V30 1307 C 119.472 -0.496252 3.56462 0
M  V30 1308 C 119.08 0.752077 4.41642 0
M  V30 1309 C 120.824 -1.05157 4.11269 0
M  V30 1310 C 118.731 0.476583 5.89477 0
M  V30 1311 H 117.661 -0.0972409 0.747703 0
M  V30 1312 H 120.312 0.46229 1.77581 0
M  V30 1313 H 118.694 -1.26944 3.75102 0
M  V30 1314 H 119.868 1.5266 4.34778 0
M  V30 1315 H 118.183 1.22925 3.97842 0
M  V30 1316 H 120.78 -1.27269 5.19333 0
M  V30 1317 H 121.123 -2.00799 3.64672 0
M  V30 1318 H 121.656 -0.339019 3.96353 0
M  V30 1319 H 118.395 1.4028 6.40314 0
M  V30 1320 H 117.915 -0.259794 5.99237 0
M  V30 1321 H 119.594 0.0949315 6.4693 0
M  V30 1322 N 119.726 -1.57421 0.075193 0
M  V30 1323 C 120.656 -2.15942 -0.888324 0
M  V30 1324 C 121.637 -1.08737 -1.30806 0
M  V30 1325 O 122.822 -1.36787 -1.37851 0
M  V30 1326 C 119.952 -2.72379 -2.1547 0
M  V30 1327 C 118.906 -3.8478 -1.87425 0
M  V30 1328 C 118.232 -4.27834 -3.20721 0
M  V30 1329 C 119.532 -5.08869 -1.17684 0
M  V30 1330 H 121.226 -2.96705 -0.400799 0
M  V30 1331 H 118.772 -1.42723 -0.191342 0
M  V30 1332 H 120.725 -3.11965 -2.83295 0
M  V30 1333 H 119.449 -1.88841 -2.6647 0
M  V30 1334 H 118.108 -3.45703 -1.22004 0
M  V30 1335 H 117.756 -3.41214 -3.6957 0
M  V30 1336 H 117.456 -5.03605 -3.02746 0
M  V30 1337 H 118.98 -4.70039 -3.89738 0
M  V30 1338 H 120.394 -5.4575 -1.75584 0
M  V30 1339 H 118.791 -5.8994 -1.09956 0
M  V30 1340 H 119.861 -4.84648 -0.156453 0
M  V30 1341 N 121.204 0.198386 -1.56346 0
M  V30 1342 C 122.136 1.26987 -1.90806 0
M  V30 1343 C 123.149 1.41877 -0.798419 0
M  V30 1344 O 124.338 1.42362 -1.07682 0
M  V30 1345 C 121.438 2.64246 -2.12196 0
M  V30 1346 C 120.611 2.71007 -3.43328 0
M  V30 1347 C 119.67 3.89439 -3.5387 0
M  V30 1348 O 118.696 3.76695 -4.26719 0
M  V30 1349 N 119.898 5.04752 -2.86715 0
M  V30 1350 H 122.663 0.977433 -2.83313 0
M  V30 1351 H 120.224 0.388322 -1.57174 0
M  V30 1352 H 122.216 3.41896 -2.1654 0
M  V30 1353 H 120.786 2.85992 -1.26204 0
M  V30 1354 H 120.006 1.79657 -3.50881 0
M  V30 1355 H 121.294 2.72512 -4.29668 0
M  V30 1356 H 120.692 5.18004 -2.2735 0
M  V30 1357 H 119.249 5.8036 -2.96691 0
M  V30 1358 N 122.682 1.50554 0.465978 0
M  V30 1359 C 123.93 1.61479 1.21528 0
M  V30 1360 C 124.251 0.319596 1.92363 0
M  V30 1361 O 123.521 -0.663194 1.84333 0
M  V30 1362 H 122.101 0.595055 0.451573 0
M  V30 1363 H 124.763 1.87355 0.53704 0
M  V30 1364 H 123.859 2.42846 1.96042 0
M  V30 1365 N 124.16 -0.719506 1.40217 0
M  V30 1366 C 125.123 -1.8153 1.39927 0
M  V30 1367 C 126.123 -1.58095 0.293723 0
M  V30 1368 O 127.313 -1.65209 0.552429 0
M  V30 1369 C 124.445 -3.19561 1.18716 0
M  V30 1370 H 125.638 -1.83186 2.37451 0
M  V30 1371 H 123.191 -0.924746 1.26008 0
M  V30 1372 H 123.926 -3.23557 0.219366 0
M  V30 1373 H 123.711 -3.3797 1.98793 0
M  V30 1374 H 125.201 -3.99598 1.21291 0
M  V30 1375 N 125.638 -1.25649 -0.95132 0
M  V30 1376 C 126.885 -1.10594 -1.69633 0
M  V30 1377 C 127.213 0.352515 -1.91279 0
M  V30 1378 O 126.468 1.27601 -1.4838 0
M  V30 1379 C 126.767 -1.80909 -3.08231 0
M  V30 1380 C 126.433 -3.30825 -3.06375 0
M  V30 1381 C 125.095 -3.71722 -3.05576 0
M  V30 1382 C 127.447 -4.26589 -2.99452 0
M  V30 1383 C 124.775 -5.06788 -2.95606 0
M  V30 1384 C 127.127 -5.61683 -2.91024 0
M  V30 1385 C 125.791 -6.01904 -2.88562 0
M  V30 1386 H 125.061 -0.404691 -0.620731 0
M  V30 1387 H 127.708 -1.55964 -1.11119 0
M  V30 1388 H 126.013 -1.27979 -3.70309 0
M  V30 1389 H 127.71 -1.6671 -3.64704 0
M  V30 1390 H 124.3 -2.98287 -3.07771 0
M  V30 1391 H 128.484 -3.95982 -2.99185 0
M  V30 1392 H 123.74 -5.37126 -2.92071 0
M  V30 1393 H 127.914 -6.35578 -2.84629 0
M  V30 1394 H 125.541 -7.06521 -2.80593 0
M  V30 1395 N 127.117 1.15442 -1.07289 0
M  V30 1396 C 128.357 1.8788 -0.805012 0
M  V30 1397 C 128.721 1.80413 0.656907 0
M  V30 1398 O 129.922 2.47874 1.0398 0
M  V30 1399 C 128.193 3.3298 -1.29843 0
M  V30 1400 S 129.752 4.23158 -1.16114 0
M  V30 1401 H 126.57 0.64839 -0.291739 0
M  V30 1402 H 129.172 1.39285 -1.37186 0
M  V30 1403 H 127.876 3.35958 -2.35712 0
M  V30 1404 H 127.407 3.86629 -0.726767 0
M  V30 1405 H 129.422 4.96103 -0.0982778 0
M  V30 1406 N 128.595 0.856903 1.32268 0
M  V30 1407 C 129.872 0.382583 1.91822 0
M  V30 1408 C 130.252 -1.13407 1.78051 0
M  V30 1409 O 129.6 -1.95673 1.18001 0
M  V30 1410 C 129.81 0.849446 3.38505 0
M  V30 1411 C 131.158 0.867936 4.15634 0
M  V30 1412 O 132.182 0.794232 3.47232 0
M  V30 1413 O 131.041 0.972286 5.37781 0
M  V30 1414 H 128.135 0.112014 0.819379 0
M  V30 1415 H 130.681 0.943952 1.41024 0
M  V30 1416 H 129.453 1.89267 3.42482 0
M  V30 1417 H 129.076 0.265652 3.96712 0
M  V30 1418 N 130.073 -1.45103 0.615059 0
M  V30 1419 C 131.313 -2.04069 0.116282 0
M  V30 1420 C 131.677 -1.4721 -1.2326 0
M  V30 1421 O 132.878 -1.97577 -1.82255 0
M  V30 1422 C 131.149 -3.57298 0.085482 0
M  V30 1423 S 132.708 -4.37394 -0.351015 0
M  V30 1424 H 129.526 -0.709006 0.0532183 0
M  V30 1425 H 132.128 -1.77709 0.81484 0
M  V30 1426 H 130.832 -3.9619 1.0706 0
M  V30 1427 H 130.363 -3.88244 -0.634835 0
M  V30 1428 H 132.378 -4.69734 -1.59889 0
M  V30 1429 N 131.551 -0.354651 -1.53558 0
M  V30 1430 C 132.791 0.238651 -2.03002 0
M  V30 1431 C 133.155 1.46878 -1.23656 0
M  V30 1432 O 134.356 2.13699 -1.63053 0
M  V30 1433 C 132.627 0.534175 -3.53386 0
M  V30 1434 S 134.186 1.10271 -4.24719 0
M  V30 1435 H 131.004 0.0702908 -0.707517 0
M  V30 1436 H 133.606 -0.494987 -1.8913 0
M  V30 1437 H 132.31 -0.368765 -4.0874 0
M  V30 1438 H 131.841 1.29718 -3.71398 0
M  V30 1439 H 133.856 2.38772 -4.34974 0
M  V30 1440 N 133.029 1.57378 -0.0835403 0
M  V30 1441 C 134.277 1.93547 0.581718 0
M  V30 1442 C 134.598 0.96524 1.69435 0
M  V30 1443 O 133.868 0.0153369 1.95894 0
M  V30 1444 H 132.448 0.714521 0.217874 0
M  V30 1445 H 135.11 1.94366 -0.144158 0
M  V30 1446 H 134.206 2.95665 0.999423 0
M  V30 1447 N 134.507 -0.190092 1.56449 0
M  V30 1448 C 135.437 -1.23816 1.97969 0
M  V30 1449 C 136.418 -1.47201 0.852395 0
M  V30 1450 O 137.603 -1.58854 1.1171 0
M  V30 1451 C 134.733 -2.5813 2.3235 0
M  V30 1452 C 133.687 -2.49348 3.47864 0
M  V30 1453 C 133.013 -3.8798 3.67934 0
M  V30 1454 C 134.313 -2.01424 4.81898 0
M  V30 1455 H 136.007 -0.89311 2.85769 0
M  V30 1456 H 133.553 -0.428177 1.37487 0
M  V30 1457 H 135.506 -3.31637 2.59991 0
M  V30 1458 H 134.23 -2.94386 1.41438 0
M  V30 1459 H 132.889 -1.78297 3.20321 0
M  V30 1460 H 132.537 -4.21597 2.74344 0
M  V30 1461 H 132.237 -3.82978 4.45648 0
M  V30 1462 H 133.761 -4.63101 3.97957 0
M  V30 1463 H 135.175 -2.64693 5.08538 0
M  V30 1464 H 133.572 -2.07413 5.63116 0
M  V30 1465 H 134.642 -0.967677 4.75146 0
M  V30 1466 N 135.985 -1.50799 -0.457987 0
M  V30 1467 C 137.401 -1.38515 -0.792819 0
M  V30 1468 C 137.601 -0.451409 -1.96379 0
M  V30 1469 O 136.657 0.10112 -2.52297 0
M  V30 1470 C 137.97 -2.80149 -1.09258 0
M  V30 1471 C 139.518 -2.89156 -1.19825 0
M  V30 1472 C 139.993 -4.31651 -1.53106 0
M  V30 1473 N 141.484 -4.34662 -1.60072 0
M  V30 1474 C 142.219 -5.41928 -1.87354 0
M  V30 1475 N 141.715 -6.59384 -2.12568 0
M  V30 1476 N 143.508 -5.29385 -1.88965 0
M  V30 1477 H 135.659 -2.10073 0.313511 0
M  V30 1478 H 137.922 -0.944803 0.0777862 0
M  V30 1479 H 137.628 -3.50374 -0.305084 0
M  V30 1480 H 137.502 -3.18204 -2.02549 0
M  V30 1481 H 139.889 -2.19141 -1.97639 0
M  V30 1482 H 139.97 -2.54626 -0.244821 0
M  V30 1483 H 139.614 -5.02208 -0.758266 0
M  V30 1484 H 139.544 -4.63678 -2.49621 0
M  V30 1485 H 142.035 -3.49973 -1.42573 0
M  V30 1486 H 142.348 -7.36934 -2.32696 0
M  V30 1487 H 140.693 -6.62535 -2.09933 0
M  V30 1488 H 143.884 -4.36616 -1.68772 0
M  V30 1489 H 144.057 -6.13066 -2.09891 0
M  V30 1490 N 137.463 0.71206 -1.40597 0
M  V30 1491 C 138.709 1.47416 -1.39271 0
M  V30 1492 C 139.042 1.942 0.00388791 0
M  V30 1493 O 138.317 1.68403 0.973179 0
M  V30 1494 C 138.6 2.69774 -2.38525 0
M  V30 1495 C 138.453 2.28861 -3.87224 0
M  V30 1496 C 139.772 3.71939 -2.35264 0
M  V30 1497 H 136.891 0.534713 -0.5072 0
M  V30 1498 H 139.533 0.812375 -1.71757 0
M  V30 1499 H 137.683 3.26238 -2.10953 0
M  V30 1500 H 139.355 1.77852 -4.25636 0
M  V30 1501 H 137.598 1.60824 -4.02887 0
M  V30 1502 H 138.269 3.16584 -4.52193 0
M  V30 1503 H 140.745 3.25113 -2.59694 0
M  V30 1504 H 139.621 4.55186 -3.06753 0
M  V30 1505 H 139.882 4.20484 -1.36549 0
M  V30 1506 N 138.941 1.26152 0.944643 0
M  V30 1507 C 140.218 1.02247 1.66748 0
M  V30 1508 C 140.598 -0.448202 2.06287 0
M  V30 1509 O 139.946 -1.42779 1.78399 0
M  V30 1510 C 140.156 1.96788 2.88228 0
M  V30 1511 C 141.504 2.25201 3.59958 0
M  V30 1512 O 142.528 1.94626 2.98327 0
M  V30 1513 O 141.387 2.77242 4.70956 0
M  V30 1514 H 138.481 0.388517 0.730057 0
M  V30 1515 H 141.027 1.37348 0.99668 0
M  V30 1516 H 139.799 2.96047 2.55875 0
M  V30 1517 H 139.422 1.62145 3.63035 0
M  V30 1518 N 140.419 -1.14872 1.07899 0
M  V30 1519 C 141.329 -2.2341 0.715915 0
M  V30 1520 C 142.345 -1.71808 -0.275306 0
M  V30 1521 O 143.521 -2.01039 -0.120545 0
M  V30 1522 C 140.586 -3.46474 0.125168 0
M  V30 1523 C 139.647 -4.13039 1.17034 0
M  V30 1524 C 138.88 -5.30229 0.607688 0
M  V30 1525 O 139.103 -5.675 -0.574497 0
M  V30 1526 O 138.037 -5.86444 1.35526 0
M  V30 1527 H 141.863 -2.56808 1.62121 0
M  V30 1528 H 139.448 -1.22702 0.852322 0
M  V30 1529 H 141.33 -4.20917 -0.201729 0
M  V30 1530 H 140.005 -3.14811 -0.753364 0
M  V30 1531 H 138.912 -3.40493 1.54968 0
M  V30 1532 H 140.245 -4.48796 2.02097 0
M  V30 1533 N 141.898 -0.863906 -1.31812 0
M  V30 1534 C 143.146 -0.470904 -1.96537 0
M  V30 1535 C 143.467 0.978771 -1.68657 0
M  V30 1536 O 142.737 1.6853 -0.998717 0
M  V30 1537 H 141.317 -0.171148 -0.72713 0
M  V30 1538 H 143.979 -1.10236 -1.60729 0
M  V30 1539 H 143.075 -0.623616 -3.05806 0
M  V30 1540 N 143.376 1.44774 -0.622745 0
M  V30 1541 C 144.616 2.04004 -0.127102 0
M  V30 1542 C 144.98 1.47862 1.22478 0
M  V30 1543 O 146.181 1.98541 1.81204 0
M  V30 1544 C 144.452 3.57247 -0.104429 0
M  V30 1545 S 146.011 4.37574 0.327814 0
M  V30 1546 H 142.829 0.708713 -0.0569776 0
M  V30 1547 H 145.431 1.77275 -0.824253 0
M  V30 1548 H 144.135 3.95616 -1.09159 0
M  V30 1549 H 143.666 3.88575 0.614236 0
M  V30 1550 H 145.681 4.70575 1.57395 0
M  V30 1551 N 144.854 0.36279 1.53368 0
M  V30 1552 C 145.784 -0.476976 2.28576 0
M  V30 1553 C 146.765 -1.08631 1.30894 0
M  V30 1554 O 147.95 -1.10409 1.59761 0
M  V30 1555 C 145.08 -1.61828 3.07293 0
M  V30 1556 C 144.034 -1.13633 4.1264 0
M  V30 1557 C 143.36 -2.36766 4.79423 0
M  V30 1558 C 144.66 -0.223061 5.21823 0
M  V30 1559 H 146.354 0.150474 2.99022 0
M  V30 1560 H 143.9 0.0738103 1.43811 0
M  V30 1561 H 145.853 -2.21237 3.58653 0
M  V30 1562 H 144.577 -2.27292 2.34533 0
M  V30 1563 H 143.236 -0.564945 3.62221 0
M  V30 1564 H 142.884 -3.0068 4.03238 0
M  V30 1565 H 142.584 -2.05192 5.50609 0
M  V30 1566 H 144.108 -2.96865 5.33576 0
M  V30 1567 H 145.522 -0.724545 5.68703 0
M  V30 1568 H 143.919 0.001678 6.001 0
M  V30 1569 H 144.989 0.735553 4.79289 0
M  V30 1570 N 146.332 -1.57332 0.0918853 0
M  V30 1571 C 147.748 -1.57389 -0.264766 0
M  V30 1572 C 147.948 -1.10281 -1.68643 0
M  V30 1573 O 147.004 -0.777801 -2.40222 0
M  V30 1574 C 148.317 -3.00648 -0.0561195 0
M  V30 1575 C 149.865 -3.12754 -0.124116 0
M  V30 1576 C 150.34 -4.57965 0.0564972 0
M  V30 1577 N 151.831 -4.632 0.00155611 0
M  V30 1578 C 152.566 -5.73281 0.116598 0
M  V30 1579 N 152.062 -6.92208 0.286294 0
M  V30 1580 N 153.855 -5.6207 0.0580973 0
M  V30 1581 H 146.006 -1.86262 1.02079 0
M  V30 1582 H 148.269 -0.859579 0.399786 0
M  V30 1583 H 147.975 -3.393 0.925669 0
M  V30 1584 H 147.849 -3.68623 -0.799823 0
M  V30 1585 H 150.236 -2.73976 -1.09641 0
M  V30 1586 H 150.317 -2.47377 0.651024 0
M  V30 1587 H 149.961 -4.97436 1.02564 0
M  V30 1588 H 149.891 -5.21399 -0.738297 0
M  V30 1589 H 152.382 -3.77686 -0.127192 0
M  V30 1590 H 152.695 -7.71934 0.365676 0
M  V30 1591 H 151.04 -6.94254 0.32192 0
M  V30 1592 H 154.231 -4.68043 -0.0733204 0
M  V30 1593 H 154.404 -6.47824 0.151203 0
M  V30 1594 N 147.81 0.181792 -1.56548 0
M  V30 1595 C 148.757 1.22521 -1.95595 0
M  V30 1596 C 149.727 1.4454 -0.818373 0
M  V30 1597 O 150.912 1.57454 -1.07763 0
M  V30 1598 C 148.052 2.56193 -2.31212 0
M  V30 1599 C 147.165 2.41641 -3.58097 0
M  V30 1600 C 146.3 3.68108 -3.82975 0
M  V30 1601 C 145.339 3.48445 -5.03242 0
M  V30 1602 N 144.476 4.66956 -5.24306 0
M  V30 1603 H 149.316 0.885226 -2.84548 0
M  V30 1604 H 146.853 0.425718 -1.40805 0
M  V30 1605 H 148.811 3.34088 -2.49882 0
M  V30 1606 H 147.441 2.88208 -1.45382 0
M  V30 1607 H 146.493 1.54976 -3.474 0
M  V30 1608 H 147.805 2.23052 -4.46149 0
M  V30 1609 H 146.959 4.54441 -4.01956 0
M  V30 1610 H 145.698 3.89666 -2.93278 0
M  V30 1611 H 144.703 2.60499 -4.8417 0
M  V30 1612 H 145.928 3.2832 -5.9446 0
M  V30 1613 H 143.874 4.88752 -4.37559 0
M  V30 1614 H 143.791 4.51242 -6.06561 0
M  V30 1615 H 145.059 5.54602 -5.47756 0
M  V30 1616 N 149.288 1.51039 0.449983 0
M  V30 1617 C 150.251 1.70863 1.5277 0
M  V30 1618 C 151.251 0.578846 1.5002 0
M  V30 1619 O 152.441 0.846213 1.52266 0
M  V30 1620 C 149.573 1.75341 2.9235 0
M  V30 1621 H 150.766 2.67034 1.36502 0
M  V30 1622 H 148.319 1.40838 0.677812 0
M  V30 1623 H 149.054 0.809383 3.14037 0
M  V30 1624 H 148.839 2.57436 2.95752 0
M  V30 1625 H 150.329 1.92559 3.70555 0
M  V30 1626 N 150.766 -0.704594 1.40972 0
M  V30 1627 C 152.043 -1.45847 1.30338 0
M  V30 1628 C 152.423 -2.10973 -0.0732344 0
M  V30 1629 O 151.771 -2.00997 -1.08685 0
M  V30 1630 C 151.981 -2.48525 2.45023 0
M  V30 1631 C 153.329 -3.1404 2.8577 0
M  V30 1632 O 154.353 -2.58848 2.44696 0
M  V30 1633 O 153.212 -4.13981 3.56766 0
M  V30 1634 H 150.306 -0.649092 0.512454 0
M  V30 1635 H 152.852 -0.735836 1.52917 0
M  V30 1636 H 151.624 -1.98994 3.36923 0
M  V30 1637 H 151.247 -3.2831 2.24272 0
M  V30 1638 N 152.244 -1.26651 -0.937939 0
M  V30 1639 C 153.191 -1.0849 -2.03712 0
M  V30 1640 C 154.161 0.011033 -1.66096 0
M  V30 1641 O 155.346 -0.149353 -1.90215 0
M  V30 1642 C 152.486 -0.72735 -3.37348 0
M  V30 1643 C 151.599 -1.89986 -3.87981 0
M  V30 1644 C 150.734 -1.48513 -5.10017 0
M  V30 1645 C 149.773 -2.62575 -5.5292 0
M  V30 1646 N 148.91 -2.21762 -6.66158 0
M  V30 1647 H 153.75 -2.02551 -2.18579 0
M  V30 1648 H 151.287 -1.00844 -1.07093 0
M  V30 1649 H 153.245 -0.50092 -4.14182 0
M  V30 1650 H 151.875 0.176298 -3.22318 0
M  V30 1651 H 150.927 -2.23913 -3.07518 0
M  V30 1652 H 152.239 -2.75586 -4.15757 0
M  V30 1653 H 151.393 -1.21934 -5.94321 0
M  V30 1654 H 150.132 -0.60009 -4.83994 0
M  V30 1655 H 149.137 -2.8988 -4.67172 0
M  V30 1656 H 150.362 -3.51685 -5.80943 0
M  V30 1657 H 148.308 -1.35696 -6.41812 0
M  V30 1658 H 148.225 -3.00903 -6.93537 0
M  V30 1659 H 149.493 -1.98403 -7.53828 0
M  V30 1660 N 153.722 1.14298 -1.08507 0
M  V30 1661 C 155.138 1.37347 -0.812901 0
M  V30 1662 C 155.338 1.93052 0.577325 0
M  V30 1663 O 154.394 2.14389 1.33393 0
M  V30 1664 C 155.707 2.33359 -1.89642 0
M  V30 1665 C 157.255 2.46996 -1.92255 0
M  V30 1666 C 157.73 3.46309 -2.99724 0
M  V30 1667 N 159.221 3.53853 -2.98902 0
M  V30 1668 C 159.956 4.3055 -3.787 0
M  V30 1669 N 159.452 5.10482 -4.6838 0
M  V30 1670 N 161.245 4.25757 -3.66998 0
M  V30 1671 H 153.396 0.764867 -1.9815 0
M  V30 1672 H 155.659 0.398966 -0.859959 0
M  V30 1673 H 155.365 1.99565 -2.89597 0
M  V30 1674 H 155.239 3.33274 -1.76659 0
M  V30 1675 H 157.626 2.80081 -0.929445 0
M  V30 1676 H 157.707 1.47039 -2.09316 0
M  V30 1677 H 157.351 3.13957 -3.99241 0
M  V30 1678 H 157.281 4.46049 -2.79907 0
M  V30 1679 H 159.772 2.96812 -2.33904 0
M  V30 1680 H 160.085 5.66284 -5.25873 0
M  V30 1681 H 158.43 5.09747 -4.72422 0
M  V30 1682 H 161.621 3.62383 -2.96304 0
M  V30 1683 H 161.794 4.85279 -4.29427 0
M  V30 1684 N 155.201 0.870884 1.31352 0
M  V30 1685 C 156.448 0.482273 1.96673 0
M  V30 1686 C 156.776 -0.965638 1.68836 0
M  V30 1687 O 156.031 -1.69514 0.977937 0
M  V30 1688 C 156.33 0.687157 3.50732 0
M  V30 1689 C 155.996 2.108 3.9859 0
M  V30 1690 C 154.658 2.49656 4.1137 0
M  V30 1691 C 157.01 3.03459 4.23748 0
M  V30 1692 C 154.338 3.80412 4.46659 0
M  V30 1693 C 156.69 4.3373 4.60501 0
M  V30 1694 C 155.354 4.725 4.71487 0
M  V30 1695 H 154.624 0.176476 0.719679 0
M  V30 1696 H 157.271 1.10405 1.56471 0
M  V30 1697 H 155.576 -0.0177476 3.91796 0
M  V30 1698 H 157.273 0.366284 3.99324 0
M  V30 1699 H 153.863 1.79633 3.8914 0
M  V30 1700 H 158.047 2.74665 4.13368 0
M  V30 1701 H 153.303 4.1021 4.53362 0
M  V30 1702 H 157.477 5.05578 4.78919 0
M  V30 1703 H 155.104 5.73859 4.98588 0
M  V30 1704 N 156.679 -1.44442 0.630414 0
M  V30 1705 C 157.611 -2.2892 -0.113347 0
M  V30 1706 C 158.624 -1.41243 -0.80959 0
M  V30 1707 O 159.813 -1.65402 -0.671156 0
M  V30 1708 C 156.913 -3.17594 -1.18266 0
M  V30 1709 C 156.086 -4.33682 -0.569073 0
M  V30 1710 C 155.145 -5.03397 -1.53226 0
M  V30 1711 O 154.171 -5.59438 -1.04967 0
M  V30 1712 N 155.373 -5.04783 -2.86661 0
M  V30 1713 H 158.138 -2.93392 0.611636 0
M  V30 1714 H 155.699 -1.54881 0.471523 0
M  V30 1715 H 157.691 -3.61097 -1.82732 0
M  V30 1716 H 156.261 -2.54876 -1.80988 0
M  V30 1717 H 155.481 -3.9338 0.254187 0
M  V30 1718 H 156.769 -5.08608 -0.139767 0
M  V30 1719 H 156.167 -4.60584 -3.28449 0
M  V30 1720 H 154.724 -5.52077 -3.46489 0
M  V30 1721 N 158.157 -0.370918 -1.53173 0
M  V30 1722 C 159.397 0.217106 -2.03244 0
M  V30 1723 C 159.761 1.45558 -1.25207 0
M  V30 1724 O 160.962 2.11957 -1.65311 0
M  V30 1725 C 159.233 0.496664 -3.53932 0
M  V30 1726 S 160.792 1.0576 -4.25864 0
M  V30 1727 H 157.61 0.0627827 -0.708223 0
M  V30 1728 H 160.212 -0.515019 -1.88594 0
M  V30 1729 H 158.916 -0.412096 -4.08326 0
M  V30 1730 H 158.447 1.25772 -3.72753 0
M  V30 1731 H 160.462 2.34145 -4.37482 0
M  V30 1732 N 159.635 1.57281 -0.100228 0
M  V30 1733 C 160.582 2.14305 0.856858 0
M  V30 1734 C 161.552 1.06296 1.27634 0
M  V30 1735 O 162.737 1.34109 1.35718 0
M  V30 1736 C 159.877 2.73184 2.10866 0
M  V30 1737 C 158.99 3.95442 1.73925 0
M  V30 1738 C 158.125 4.42468 2.93931 0
M  V30 1739 C 157.164 5.57303 2.5314 0
M  V30 1740 N 156.301 5.99158 3.65997 0
M  V30 1741 H 161.141 2.95772 0.363726 0
M  V30 1742 H 158.678 1.46139 0.167858 0
M  V30 1743 H 160.636 3.05442 2.84185 0
M  V30 1744 H 159.266 1.94437 2.57671 0
M  V30 1745 H 158.318 3.69464 0.905554 0
M  V30 1746 H 159.63 4.78769 1.39935 0
M  V30 1747 H 158.784 4.76537 3.75496 0
M  V30 1748 H 157.523 3.58052 3.31134 0
M  V30 1749 H 156.528 5.22857 1.70003 0
M  V30 1750 H 157.753 6.43471 2.17075 0
M  V30 1751 H 155.699 5.17687 4.02909 0
M  V30 1752 H 155.616 6.77295 3.35869 0
M  V30 1753 H 156.884 6.3786 4.48057 0
M  V30 1754 N 161.113 -0.173488 1.56642 0
M  V30 1755 C 162.023 -1.23482 1.99473 0
M  V30 1756 C 163.039 -1.48567 0.905752 0
M  V30 1757 O 164.215 -1.60758 1.21321 0
M  V30 1758 C 161.28 -2.55444 2.34413 0
M  V30 1759 C 160.341 -2.38241 3.57127 0
M  V30 1760 C 159.574 -3.63909 3.90392 0
M  V30 1761 O 159.797 -4.68996 3.24653 0
M  V30 1762 O 158.731 -3.58149 4.83749 0
M  V30 1763 H 162.557 -0.901279 2.90018 0
M  V30 1764 H 160.142 -0.380185 1.44482 0
M  V30 1765 H 162.024 -3.33292 2.57865 0
M  V30 1766 H 160.699 -2.88382 1.4703 0
M  V30 1767 H 159.606 -1.58431 3.38896 0
M  V30 1768 H 160.939 -2.10228 4.45045 0
M  V30 1769 N 162.591 -1.51276 -0.441967 0
M  V30 1770 C 163.84 -1.6295 -1.18871 0
M  V30 1771 C 164.153 -0.349312 -1.92456 0
M  V30 1772 O 165.359 -0.345355 -2.69295 0
M  V30 1773 C 163.815 -2.87759 -2.16155 0
M  V30 1774 C 163.423 -4.22764 -1.48239 0
M  V30 1775 C 165.167 -3.08788 -2.91291 0
M  V30 1776 C 163.074 -5.38728 -2.4398 0
M  V30 1777 H 162.004 -0.606913 -0.447406 0
M  V30 1778 H 164.655 -1.77739 -0.456205 0
M  V30 1779 H 163.037 -2.66593 -2.92821 0
M  V30 1780 H 164.211 -4.54293 -0.771635 0
M  V30 1781 H 162.526 -4.07575 -0.852741 0
M  V30 1782 H 165.123 -3.92599 -3.63002 0
M  V30 1783 H 165.466 -2.21679 -3.5237 0
M  V30 1784 H 165.999 -3.30272 -2.21733 0
M  V30 1785 H 162.738 -6.28082 -1.87598 0
M  V30 1786 H 162.258 -5.1158 -3.13123 0
M  V30 1787 H 163.937 -5.70489 -3.05207 0
M  V30 1788 N 164.069 0.697108 -1.41344 0
M  V30 1789 C 165.002 1.82134 -1.37486 0
M  V30 1790 C 165.98 1.60784 -0.242351 0
M  V30 1791 O 167.164 1.83553 -0.429012 0
M  V30 1792 C 164.291 3.18788 -1.14421 0
M  V30 1793 C 163.337 3.58932 -2.3037 0
M  V30 1794 S 164.17 3.63916 -3.92843 0
M  V30 1795 C 165.326 5.03298 -3.72078 0
M  V30 1796 H 165.559 1.85129 -2.32625 0
M  V30 1797 H 163.092 0.865671 -1.2785 0
M  V30 1798 H 165.05 3.97677 -1.018 0
M  V30 1799 H 163.711 3.13404 -0.20905 0
M  V30 1800 H 162.904 4.58202 -2.09922 0
M  V30 1801 H 162.506 2.87347 -2.39391 0
M  V30 1802 H 164.798 5.90753 -3.31688 0
M  V30 1803 H 165.741 5.28788 -4.70945 0
M  V30 1804 H 166.149 4.74764 -3.05384 0
M  V30 1805 N 165.547 1.27147 0.931209 0
M  V30 1806 C 166.477 1.12081 2.04842 0
M  V30 1807 C 167.458 0.0232364 1.70084 0
M  V30 1808 O 168.643 0.197085 1.93197 0
M  V30 1809 C 165.773 0.76354 3.38803 0
M  V30 1810 C 164.727 1.81396 3.87659 0
M  V30 1811 C 164.053 1.31075 5.18385 0
M  V30 1812 C 165.353 3.21739 4.11438 0
M  V30 1813 H 167.047 2.05537 2.17703 0
M  V30 1814 H 164.593 0.989603 1.04608 0
M  V30 1815 H 166.546 0.644982 4.16435 0
M  V30 1816 H 165.27 -0.206727 3.25945 0
M  V30 1817 H 163.929 1.92136 3.12217 0
M  V30 1818 H 163.577 0.330037 5.01916 0
M  V30 1819 H 163.277 2.013 5.52044 0
M  V30 1820 H 164.801 1.20506 5.98591 0
M  V30 1821 H 166.215 3.14019 4.79651 0
M  V30 1822 H 164.612 3.89644 4.56397 0
M  V30 1823 H 165.682 3.67054 3.16859 0
M  V30 1824 N 167.025 -1.13721 1.09112 0
M  V30 1825 C 167.972 -2.19031 0.727591 0
M  V30 1826 C 168.942 -1.63555 -0.289656 0
M  V30 1827 O 170.127 -1.90023 -0.172026 0
M  V30 1828 C 167.267 -3.4477 0.15082 0
M  V30 1829 C 166.38 -4.14365 1.22172 0
M  V30 1830 C 165.515 -5.27709 0.608042 0
M  V30 1831 C 164.554 -5.89147 1.66047 0
M  V30 1832 N 163.691 -6.93929 1.06806 0
M  V30 1833 H 168.531 -2.49475 1.62991 0
M  V30 1834 H 166.068 -1.22499 0.81439 0
M  V30 1835 H 168.026 -4.16714 -0.201358 0
M  V30 1836 H 166.656 -3.14787 -0.714783 0
M  V30 1837 H 165.708 -3.40737 1.69122 0
M  V30 1838 H 167.02 -4.56114 2.01895 0
M  V30 1839 H 166.174 -6.06355 0.204523 0
M  V30 1840 H 164.913 -4.872 -0.220769 0
M  V30 1841 H 163.918 -5.09198 2.07357 0
M  V30 1842 H 165.143 -6.31729 2.49189 0
M  V30 1843 H 163.089 -6.55483 0.260476 0
M  V30 1844 H 163.006 -7.34202 1.8023 0
M  V30 1845 H 164.274 -7.76434 0.690644 0
M  V30 1846 N 168.503 -0.877838 -1.30888 0
M  V30 1847 C 169.451 -0.328662 -2.30266 0
M  V30 1848 C 170.445 0.560496 -1.59859 0
M  V30 1849 O 171.651 0.445722 -1.74394 0
M  V30 1850 H 168.026 -0.0876142 -0.746879 0
M  V30 1851 H 169.997 -1.18061 -2.74051 0
M  V30 1852 C 168.746 0.448071 -3.44801 0
M  V30 1853 H 168.069 -0.226859 -3.99156 0
M  V30 1854 H 169.509 0.797541 -4.16432 0
M  V30 1855 C 167.968 1.64239 -2.94155 0
M  V30 1856 O 168.498 2.74175 -2.93583 0
M  V30 1857 N 166.704 1.47716 -2.50256 0
M  V30 1858 H 166.251 0.582821 -2.5092 0
M  V30 1859 H 166.209 2.27765 -2.16727 0
M  V30 1860 N 169.982 1.44106 -0.638065 0
M  V30 1861 C 171.259 1.95453 -0.0759321 0
M  V30 1862 C 171.639 1.57984 1.40015 0
M  V30 1863 O 170.987 0.857361 2.11806 0
M  V30 1864 C 171.197 3.47655 -0.306132 0
M  V30 1865 C 172.545 4.24114 -0.203008 0
M  V30 1866 O 173.569 3.55405 -0.237871 0
M  V30 1867 O 172.428 5.46381 -0.113827 0
M  V30 1868 H 169.522 0.826797 0.0183332 0
M  V30 1869 H 172.068 1.54122 -0.710251 0
M  V30 1870 H 170.84 3.68 -1.3301 0
M  V30 1871 H 170.463 3.95949 0.361991 0
M  V30 1872 N 171.46 0.379036 1.52974 0
M  V30 1873 C 172.688 -0.20679 2.05864 0
M  V30 1874 C 173.103 -1.41356 1.25155 0
M  V30 1875 O 172.46 -1.8009 0.295588 0
M  V30 1876 C 172.511 -0.587045 3.56702 0
M  V30 1877 O 172.232 0.571776 4.34353 0
M  V30 1878 C 173.733 -1.22983 4.25899 0
M  V30 1879 H 170.953 -0.0336123 0.670158 0
M  V30 1880 H 173.497 0.541298 1.97206 0
M  V30 1881 H 171.652 -1.28504 3.65466 0
M  V30 1882 H 172.066 0.261544 5.23847 0
M  V30 1883 H 173.54 -1.44635 5.32715 0
M  V30 1884 H 174.017 -2.19416 3.80465 0
M  V30 1885 H 174.623 -0.572892 4.21424 0
M  V30 1886 N 172.938 -1.57226 0.108567 0
M  V30 1887 C 173.885 -2.14756 -0.845481 0
M  V30 1888 C 174.855 -1.06971 -1.27068 0
M  V30 1889 O 176.04 -1.34827 -1.35005 0
M  V30 1890 C 173.18 -2.74298 -2.09415 0
M  V30 1891 C 172.293 -3.96358 -1.71826 0
M  V30 1892 C 171.428 -4.44021 -2.9158 0
M  V30 1893 C 170.467 -5.58637 -2.50181 0
M  V30 1894 N 169.604 -6.01091 -3.62814 0
M  V30 1895 H 174.444 -2.95961 -0.348035 0
M  V30 1896 H 171.981 -1.46226 -0.160106 0
M  V30 1897 H 173.939 -3.06945 -2.82561 0
M  V30 1898 H 172.569 -1.95801 -2.56636 0
M  V30 1899 H 171.621 -3.69939 -0.885947 0
M  V30 1900 H 172.933 -4.79504 -1.37394 0
M  V30 1901 H 172.087 -4.78522 -3.72963 0
M  V30 1902 H 170.826 -3.59803 -3.29231 0
M  V30 1903 H 169.831 -5.23751 -1.67228 0
M  V30 1904 H 171.056 -6.44613 -2.13659 0
M  V30 1905 H 169.002 -5.19817 -4.00158 0
M  V30 1906 H 168.919 -6.79066 -3.32273 0
M  V30 1907 H 170.187 -6.40227 -4.44668 0
M  V30 1908 N 174.416 0.165178 -1.56732 0
M  V30 1909 C 175.662 0.882112 -1.82611 0
M  V30 1910 C 175.995 1.81628 -0.687378 0
M  V30 1911 O 175.27 1.92009 0.310267 0
M  V30 1912 C 175.553 1.67245 -3.18906 0
M  V30 1913 C 175.406 0.760987 -4.43316 0
M  V30 1914 C 176.725 2.63884 -3.52212 0
M  V30 1915 H 173.844 0.319242 -0.664269 0
M  V30 1916 H 176.486 0.148052 -1.89422 0
M  V30 1917 H 174.636 2.29824 -3.1323 0
M  V30 1918 H 176.308 0.147596 -4.61064 0
M  V30 1919 H 174.551 0.0694102 -4.33744 0
M  V30 1920 H 175.222 1.34962 -5.35247 0
M  V30 1921 H 177.698 2.11429 -3.58381 0
M  V30 1922 H 176.574 3.16245 -4.48643 0
M  V30 1923 H 176.835 3.44377 -2.77231 0
M  V30 1924 N 175.894 1.51508 0.433938 0
M  V30 1925 C 176.824 1.76016 1.53429 0
M  V30 1926 C 177.805 0.610112 1.58782 0
M  V30 1927 O 178.99 0.853177 1.74455 0
M  V30 1928 C 176.12 1.88831 2.9148 0
M  V30 1929 C 175.074 3.04288 3.00987 0
M  V30 1930 C 174.4 3.0229 4.4105 0
M  V30 1931 C 175.7 4.44193 2.74754 0
M  V30 1932 H 177.394 2.68152 1.33171 0
M  V30 1933 H 174.94 1.29035 0.639214 0
M  V30 1934 H 176.893 2.04559 3.6842 0
M  V30 1935 H 175.617 0.933455 3.12976 0
M  V30 1936 H 174.276 2.8827 2.26486 0
M  V30 1937 H 173.924 2.04576 4.59519 0
M  V30 1938 H 173.624 3.79822 4.4834 0
M  V30 1939 H 175.148 3.20116 5.1996 0
M  V30 1940 H 176.562 4.60544 3.41426 0
M  V30 1941 H 174.959 5.23457 2.9345 0
M  V30 1942 H 176.029 4.53996 1.70339 0
M  V30 1943 N 177.372 -0.689602 1.41712 0
M  V30 1944 C 178.649 -1.44457 1.31877 0
M  V30 1945 C 179.029 -2.11039 -0.0508537 0
M  V30 1946 O 178.377 -2.02138 -1.06547 0
M  V30 1947 C 178.587 -2.45913 2.47645 0
M  V30 1948 C 179.935 -3.10991 2.89084 0
M  V30 1949 O 180.959 -2.56238 2.47428 0
M  V30 1950 O 179.818 -4.10174 3.61137 0
M  V30 1951 H 176.912 -0.64362 0.519309 0
M  V30 1952 H 179.458 -0.719576 1.53689 0
M  V30 1953 H 178.23 -1.95409 3.39015 0
M  V30 1954 H 177.853 -3.25913 2.27742 0
M  V30 1955 N 178.85 -1.27639 -0.924453 0
M  V30 1956 C 179.813 -1.10681 -2.00705 0
M  V30 1957 C 180.813 -0.0497823 -1.60723 0
M  V30 1958 O 182.003 -0.294654 -1.7169 0
M  V30 1959 C 179.135 -0.687164 -3.33902 0
M  V30 1960 H 180.328 -2.06817 -2.17179 0
M  V30 1961 H 177.881 -1.10473 -1.10569 0
M  V30 1962 H 178.616 0.275439 -3.23128 0
M  V30 1963 H 178.401 -1.45061 -3.6428 0
M  V30 1964 H 179.891 -0.590853 -4.13399 0
M  V30 1965 N 180.328 1.1314 -1.09713 0
M  V30 1966 C 181.261 2.17735 -0.683137 0
M  V30 1967 C 182.239 1.59582 0.311841 0
M  V30 1968 O 183.423 1.87298 0.212514 0
M  V30 1969 C 180.55 3.38699 -0.00684324 0
M  V30 1970 C 179.596 4.1546 -0.964102 0
M  V30 1971 S 180.429 4.74733 -2.47767 0
M  V30 1972 C 181.585 5.9904 -1.81387 0
M  V30 1973 H 181.818 2.52515 -1.56918 0
M  V30 1974 H 179.351 1.24484 -0.913404 0
M  V30 1975 H 181.309 4.08765 0.377044 0
M  V30 1976 H 179.97 3.02214 0.85589 0
M  V30 1977 H 179.163 5.02093 -0.43803 0
M  V30 1978 H 178.765 3.51066 -1.28953 0
M  V30 1979 H 181.057 6.67846 -1.13967 0
M  V30 1980 H 182 6.56261 -2.65947 0
M  V30 1981 H 182.408 5.4976 -1.28155 0
M  V30 1982 N 181.806 0.884767 1.30421 0
M  V30 1983 C 183.217 0.553656 1.78302 0
M  V30 1984 C 183.568 -0.930153 1.7275 0
M  V30 1985 O 182.693 -1.72681 1.30423 0
M  V30 1986 C 183.288 0.998234 3.2376 0
M  V30 1987 C 181.847 0.71854 3.69478 0
M  V30 1988 C 180.994 1.18132 2.50879 0
M  V30 1989 H 183.945 1.06901 1.17294 0
M  V30 1990 H 183.966 0.327118 3.79091 0
M  V30 1991 H 183.478 2.0782 3.27769 0
M  V30 1992 H 181.579 -0.349444 3.70958 0
M  V30 1993 H 181.692 1.30595 4.60958 0
M  V30 1994 H 180.056 0.600669 2.47516 0
M  V30 1995 H 180.839 2.26902 2.57624 0
M  V30 1996 N 183.284 -1.43765 0.645699 0
M  V30 1997 C 184.234 -2.27884 -0.0726442 0
M  V30 1998 C 185.218 -1.39483 -0.802086 0
M  V30 1999 O 186.41 -1.63174 -0.685791 0
M  V30 2000 C 183.539 -3.27055 -1.04356 0
M  V30 2001 C 182.625 -4.22944 -0.312985 0
M  V30 2002 N 183.016 -5.01391 0.666386 0
M  V30 2003 C 181.314 -4.42528 -0.55546 0
M  V30 2004 C 182.015 -5.71217 1.09935 0
M  V30 2005 N 180.991 -5.41856 0.435137 0
M  V30 2006 H 184.793 -2.85949 0.678988 0
M  V30 2007 H 182.307 -1.55378 0.472368 0
M  V30 2008 H 184.304 -3.86089 -1.57292 0
M  V30 2009 H 182.964 -2.70551 -1.79534 0
M  V30 2010 H 183.975 -5.07252 1.04481 0
M  V30 2011 H 180.652 -3.97104 -1.28899 0
M  V30 2012 H 182.042 -6.44202 1.90929 0
M  V30 2013 N 184.763 -0.387143 -1.52771 0
M  V30 2014 C 185.713 0.465942 -2.23188 0
M  V30 2015 C 186.697 1.03138 -1.23496 0
M  V30 2016 O 187.889 0.957845 -1.48843 0
M  V30 2017 C 185.018 1.59384 -3.04059 0
M  V30 2018 C 184.104 1.04024 -4.11144 0
M  V30 2019 N 184.495 0.211416 -5.05358 0
M  V30 2020 C 182.793 1.31295 -4.26237 0
M  V30 2021 C 183.494 -0.0941698 -5.81624 0
M  V30 2022 N 182.47 0.509207 -5.4121 0
M  V30 2023 H 186.272 -0.173856 -2.93385 0
M  V30 2024 H 183.786 -0.19633 -1.61209 0
M  V30 2025 H 185.783 2.21738 -3.53041 0
M  V30 2026 H 184.443 2.23648 -2.35397 0
M  V30 2027 H 185.454 -0.151151 -5.17679 0
M  V30 2028 H 182.131 1.95679 -3.68803 0
M  V30 2029 H 183.521 -0.765572 -6.67524 0
M  V30 2030 N 186.241 1.57166 -0.116904 0
M  V30 2031 C 187.487 1.96206 0.536166 0
M  V30 2032 C 187.842 0.99915 1.64422 0
M  V30 2033 O 187.135 0.0288195 1.91578 0
M  V30 2034 C 187.329 3.39508 1.11664 0
M  V30 2035 C 187.158 4.49651 0.0663474 0
M  V30 2036 C 185.928 5.03982 -0.36474 0
M  V30 2037 C 188.126 5.09322 -0.713829 0
M  V30 2038 N 186.108 5.97699 -1.40102 0
M  V30 2039 C 187.479 5.98963 -1.60136 0
M  V30 2040 C 189.534 4.91989 -0.764948 0
M  V30 2041 C 188.237 6.73128 -2.53556 0
M  V30 2042 C 190.263 5.66833 -1.68685 0
M  V30 2043 C 189.625 6.56158 -2.56196 0
M  V30 2044 H 185.724 0.764203 0.165886 0
M  V30 2045 H 188.308 1.93623 -0.204535 0
M  V30 2046 H 186.479 3.42743 1.82707 0
M  V30 2047 H 188.211 3.65677 1.73386 0
M  V30 2048 H 184.966 4.73592 0.027252 0
M  V30 2049 H 185.39 6.49262 -1.91802 0
M  V30 2050 H 190.032 4.22676 -0.102501 0
M  V30 2051 H 187.75 7.41689 -3.20816 0
M  V30 2052 H 191.336 5.55427 -1.73181 0
M  V30 2053 H 190.216 7.13057 -3.26372 0
M  V30 2054 N 187.719 -0.156864 1.56817 0
M  V30 2055 C 188.968 -0.869504 1.81996 0
M  V30 2056 C 189.281 -1.82777 0.696545 0
M  V30 2057 O 190.487 -2.58384 0.833658 0
M  V30 2058 C 188.943 -1.59679 3.22538 0
M  V30 2059 C 188.551 -0.681431 4.42787 0
M  V30 2060 C 190.295 -2.2968 3.56997 0
M  V30 2061 C 188.202 -1.40978 5.74351 0
M  V30 2062 H 187.132 -0.328438 0.678708 0
M  V30 2063 H 189.783 -0.1223 1.83092 0
M  V30 2064 H 188.165 -2.38927 3.158 0
M  V30 2065 H 189.339 0.0751166 4.60739 0
M  V30 2066 H 187.654 -0.0903431 4.16302 0
M  V30 2067 H 190.251 -2.84794 4.52544 0
M  V30 2068 H 190.594 -3.05707 2.82576 0
M  V30 2069 H 191.127 -1.57361 3.65352 0
M  V30 2070 H 187.866 -0.691561 6.51842 0
M  V30 2071 H 187.386 -2.13929 5.60352 0
M  V30 2072 H 189.065 -1.95337 6.16808 0
M  V30 2073 N 189.197 -1.51736 -0.425897 0
M  V30 2074 C 190.613 -1.40166 -0.76326 0
M  V30 2075 C 190.813 -0.492962 -1.95377 0
M  V30 2076 O 189.869 0.0475815 -2.52455 0
M  V30 2077 C 191.182 -2.82403 -1.03291 0
M  V30 2078 C 192.73 -2.91632 -1.13665 0
M  V30 2079 C 193.205 -4.34801 -1.43916 0
M  V30 2080 N 194.696 -4.3796 -1.50816 0
M  V30 2081 C 195.431 -5.4578 -1.75817 0
M  V30 2082 N 194.927 -6.63744 -1.98534 0
M  V30 2083 N 196.72 -5.33274 -1.77694 0
M  V30 2084 H 188.871 -2.09361 0.358 0
M  V30 2085 H 191.134 -0.942941 0.0978094 0
M  V30 2086 H 190.84 -3.50943 -0.230696 0
M  V30 2087 H 190.714 -3.22428 -1.95754 0
M  V30 2088 H 193.101 -2.23284 -1.92947 0
M  V30 2089 H 193.182 -2.55088 -0.190756 0
M  V30 2090 H 192.826 -5.03703 -0.65157 0
M  V30 2091 H 192.756 -4.68868 -2.39729 0
M  V30 2092 H 195.247 -3.52919 -1.35118 0
M  V30 2093 H 195.56 -7.41704 -2.17013 0
M  V30 2094 H 193.905 -6.66839 -1.95832 0
M  V30 2095 H 197.096 -4.40098 -1.59473 0
M  V30 2096 H 197.269 -6.1738 -1.9684 0
M  V30 2097 N 190.675 0.682077 -1.42076 0
M  V30 2098 C 191.923 1.4393 -1.41876 0
M  V30 2099 C 192.244 1.94971 -0.0335599 0
M  V30 2100 O 191.514 1.72591 0.926773 0
M  V30 2101 H 190.094 0.534085 -0.522267 0
M  V30 2102 H 192.756 0.806427 -1.77434 0
M  V30 2103 H 191.852 2.29588 -2.11414 0
M  V30 2104 N 192.153 1.28127 0.917671 0
M  V30 2105 C 193.101 1.11569 2.04096 0
M  V30 2106 C 194.095 0.0360242 1.69362 0
M  V30 2107 O 195.301 0.194501 1.78946 0
M  V30 2108 H 191.676 0.344097 0.668656 0
M  V30 2109 H 193.647 2.06711 2.15205 0
M  V30 2110 C 192.396 0.790197 3.38602 0
M  V30 2111 H 191.719 1.61293 3.6582 0
M  V30 2112 H 193.159 0.714271 4.1794 0
M  V30 2113 C 191.618 -0.505897 3.3308 0
M  V30 2114 O 192.148 -1.53736 3.71117 0
M  V30 2115 N 190.354 -0.505193 2.86175 0
M  V30 2116 H 189.901 0.334621 2.55417 0
M  V30 2117 H 189.859 -1.37243 2.82863 0
M  V30 2118 N 193.631 -1.12557 1.10312 0
M  V30 2119 C 194.877 -1.84311 0.846011 0
M  V30 2120 C 195.21 -1.83805 -0.626859 0
M  V30 2121 O 194.485 -1.28268 -1.46211 0
M  V30 2122 C 194.768 -3.32048 1.39341 0
M  V30 2123 C 194.621 -3.41016 2.93305 0
M  V30 2124 C 195.94 -4.27764 1.03468 0
M  V30 2125 H 193.059 -0.669192 0.30879 0
M  V30 2126 H 195.701 -1.32057 1.36605 0
M  V30 2127 H 193.851 -3.76678 0.951087 0
M  V30 2128 H 195.523 -3.05031 3.46055 0
M  V30 2129 H 193.766 -2.81603 3.29973 0
M  V30 2130 H 194.437 -4.44948 3.26689 0
M  V30 2131 H 196.913 -3.91253 1.41633 0
M  V30 2132 H 195.789 -5.29549 1.44463 0
M  V30 2133 H 196.05 -4.42064 -0.0560404 0
M  V30 2134 N 195.109 -0.891671 -1.2995 0
M  V30 2135 C 196.52 -0.563104 -1.78006 0
M  V30 2136 C 196.871 0.920978 -1.73241 0
M  V30 2137 O 195.996 1.71987 -1.31337 0
M  V30 2138 C 196.591 -1.01539 -3.23226 0
M  V30 2139 C 195.15 -0.738124 -3.69092 0
M  V30 2140 C 194.297 -1.19461 -2.50249 0
M  V30 2141 H 197.248 -1.07522 -1.16725 0
M  V30 2142 H 197.269 -0.347217 -3.78912 0
M  V30 2143 H 196.781 -2.09555 -3.26662 0
M  V30 2144 H 194.882 0.329766 -3.71138 0
M  V30 2145 H 194.995 -1.33037 -4.60259 0
M  V30 2146 H 193.359 -0.613787 -2.47194 0
M  V30 2147 H 194.142 -2.28265 -2.56417 0
M  V30 2148 N 196.587 1.43421 -0.653314 0
M  V30 2149 C 197.517 2.33487 0.0246656 0
M  V30 2150 C 198.498 1.49475 0.811863 0
M  V30 2151 O 199.683 1.78139 0.773322 0
M  V30 2152 C 196.813 3.32841 0.99166 0
M  V30 2153 C 195.767 4.26842 0.314568 0
M  V30 2154 C 195.093 5.16236 1.39302 0
M  V30 2155 C 196.393 5.16243 -0.793095 0
M  V30 2156 H 198.087 2.90427 -0.727481 0
M  V30 2157 H 195.633 1.39649 -0.351287 0
M  V30 2158 H 197.586 3.94747 1.47487 0
M  V30 2159 H 196.31 2.74158 1.77497 0
M  V30 2160 H 194.969 3.663 -0.148199 0
M  V30 2161 H 194.617 4.53891 2.16776 0
M  V30 2162 H 194.317 5.79948 0.945223 0
M  V30 2163 H 195.841 5.81015 1.87759 0
M  V30 2164 H 197.255 5.71958 -0.392039 0
M  V30 2165 H 195.652 5.88676 -1.16536 0
M  V30 2166 H 196.722 4.55927 -1.65103 0
M  V30 2167 N 198.065 0.39524 1.52563 0
M  V30 2168 C 199.305 -0.184744 2.03563 0
M  V30 2169 C 199.669 -1.43548 1.27507 0
M  V30 2170 O 200.87 -2.093 1.68662 0
M  V30 2171 C 199.141 -0.440294 3.54678 0
M  V30 2172 S 200.7 -0.989712 4.27493 0
M  V30 2173 H 197.518 -0.0515075 0.709132 0
M  V30 2174 H 200.12 0.544957 1.87751 0
M  V30 2175 H 198.824 0.477005 4.07618 0
M  V30 2176 H 198.355 -1.19825 3.74707 0
M  V30 2177 H 200.37 -2.27155 4.41152 0
M  V30 2178 N 199.544 -1.57102 0.125237 0
M  V30 2179 C 200.769 -2.0019 -0.542101 0
M  V30 2180 C 201.194 -1.00449 -1.59034 0
M  V30 2181 O 200.552 0.0229423 -1.81285 0
M  V30 2182 C 200.6 -3.42129 -1.13929 0
M  V30 2183 O 199.704 -3.45307 -2.2547 0
M  V30 2184 H 199.045 -0.650171 -0.134812 0
M  V30 2185 H 201.575 -2.03461 0.215553 0
M  V30 2186 H 201.585 -3.80471 -1.4733 0
M  V30 2187 H 200.26 -4.14237 -0.371531 0
M  V30 2188 H 198.837 -3.1879 -1.93462 0
M  V30 2189 N 201.022 0.148545 -1.56898 0
M  V30 2190 C 202.252 0.875118 -1.8715 0
M  V30 2191 C 202.66 1.75322 -0.711262 0
M  V30 2192 O 202.003 1.80745 0.328151 0
M  V30 2193 C 202.065 1.7844 -3.12089 0
M  V30 2194 C 201.729 1.08361 -4.43967 0
M  V30 2195 C 202.726 0.438247 -5.1805 0
M  V30 2196 C 200.411 1.07358 -4.90693 0
M  V30 2197 C 202.405 -0.20779 -6.37061 0
M  V30 2198 C 200.092 0.42373 -6.09629 0
M  V30 2199 C 201.09 -0.215829 -6.82659 0
M  V30 2200 O 200.778 -0.855378 -7.99336 0
M  V30 2201 H 200.51 0.258504 -0.624621 0
M  V30 2202 H 203.064 0.14652 -2.04877 0
M  V30 2203 H 201.294 2.55389 -2.90367 0
M  V30 2204 H 202.983 2.38279 -3.286 0
M  V30 2205 H 203.749 0.437817 -4.8302 0
M  V30 2206 H 199.628 1.5608 -4.33774 0
M  V30 2207 H 203.172 -0.70758 -6.94002 0
M  V30 2208 H 199.069 0.421822 -6.4412 0
M  V30 2209 H 199.837 -0.756892 -8.14993 0
M  V30 2210 N 202.5 1.5196 0.417844 0
M  V30 2211 C 203.74 1.67262 1.17486 0
M  V30 2212 C 204.104 0.38983 1.88001 0
M  V30 2213 O 205.305 0.418845 2.65517 0
M  V30 2214 C 203.576 2.85526 2.14965 0
M  V30 2215 S 205.135 3.21263 2.98891 0
M  V30 2216 H 201.953 0.589077 0.398132 0
M  V30 2217 H 204.555 1.89927 0.463452 0
M  V30 2218 H 203.259 3.77145 1.61833 0
M  V30 2219 H 202.79 2.65107 2.90657 0
M  V30 2220 H 204.805 2.69208 4.16823 0
M  V30 2221 N 203.978 -0.674533 1.42435 0
M  V30 2222 C 204.911 -1.79924 1.40366 0
M  V30 2223 C 205.889 -1.60378 0.267899 0
M  V30 2224 O 207.073 -1.82847 0.458159 0
M  V30 2225 C 204.2 -3.16927 1.19478 0
M  V30 2226 C 203.246 -3.55221 2.36051 0
M  V30 2227 S 204.079 -3.5762 3.98583 0
M  V30 2228 C 205.235 -4.97315 3.80038 0
M  V30 2229 H 205.468 -1.81405 2.35541 0
M  V30 2230 H 203.001 -0.845221 1.29211 0
M  V30 2231 H 204.959 -3.96007 1.08114 0
M  V30 2232 H 203.62 -3.13031 0.258883 0
M  V30 2233 H 202.813 -4.54804 2.17185 0
M  V30 2234 H 202.415 -2.83502 2.43932 0
M  V30 2235 H 204.707 -5.85401 3.41045 0
M  V30 2236 H 205.65 -5.21228 4.79298 0
M  V30 2237 H 206.058 -4.69845 3.12899 0
M  V30 2238 N 205.456 -1.28612 -0.910864 0
M  V30 2239 C 206.702 -1.16106 -1.66274 0
M  V30 2240 C 207.035 0.289113 -1.92036 0
M  V30 2241 O 206.31 1.21 -1.52281 0
M  V30 2242 C 206.593 -1.96309 -3.01885 0
M  V30 2243 C 206.446 -3.49405 -2.8326 0
M  V30 2244 C 207.765 -1.78076 -4.02463 0
M  V30 2245 H 204.884 -0.423152 -0.603417 0
M  V30 2246 H 207.526 -1.57961 -1.05586 0
M  V30 2247 H 205.676 -1.60742 -3.53687 0
M  V30 2248 H 207.348 -3.94894 -2.38446 0
M  V30 2249 H 205.591 -3.74893 -2.18261 0
M  V30 2250 H 206.262 -4.00784 -3.79574 0
M  V30 2251 H 208.738 -2.0912 -3.59733 0
M  V30 2252 H 207.614 -2.36561 -4.95308 0
M  V30 2253 H 207.875 -0.733008 -4.35981 0
M  V30 2254 N 206.934 1.1197 -1.10907 0
M  V30 2255 C 208.174 1.85224 -0.864378 0
M  V30 2256 C 208.538 1.82411 0.599178 0
M  V30 2257 O 209.739 2.51057 0.960416 0
M  V30 2258 C 208.01 3.2868 -1.40371 0
M  V30 2259 S 209.569 4.1925 -1.29518 0
M  V30 2260 H 206.387 0.63878 -0.312219 0
M  V30 2261 H 208.989 1.3485 -1.41548 0
M  V30 2262 H 207.693 3.28289 -2.46281 0
M  V30 2263 H 207.224 3.84121 -0.849402 0
M  V30 2264 H 209.239 4.95539 -0.256059 0
M  V30 2265 N 208.412 0.89855 1.29475 0
M  V30 2266 C 209.359 0.373819 2.27753 0
M  V30 2267 C 210.329 -0.543444 1.56958 0
M  V30 2268 O 211.514 -0.468934 1.84948 0
M  V30 2269 C 208.654 -0.393648 3.42848 0
M  V30 2270 C 207.767 0.554379 4.28428 0
M  V30 2271 C 206.902 -0.230026 5.30702 0
M  V30 2272 C 205.941 0.712599 6.07938 0
M  V30 2273 N 205.078 -0.0373283 7.0209 0
M  V30 2274 H 209.918 1.21699 2.72017 0
M  V30 2275 H 207.455 0.611456 1.33789 0
M  V30 2276 H 209.413 -0.85466 4.08352 0
M  V30 2277 H 208.043 -1.20128 2.99615 0
M  V30 2278 H 207.095 1.13391 3.63107 0
M  V30 2279 H 208.407 1.27597 4.82204 0
M  V30 2280 H 207.561 -0.752288 6.02018 0
M  V30 2281 H 206.3 -0.984758 4.77654 0
M  V30 2282 H 205.305 1.24637 5.35486 0
M  V30 2283 H 206.53 1.46664 6.63074 0
M  V30 2284 H 204.476 -0.774348 6.51414 0
M  V30 2285 H 204.393 0.624374 7.53417 0
M  V30 2286 H 205.661 -0.539891 7.77628 0
M  V30 2287 N 209.89 -1.43072 0.660911 0
M  V30 2288 C 210.822 -2.29108 -0.0647641 0
M  V30 2289 C 211.835 -1.42928 -0.779448 0
M  V30 2290 O 213.024 -1.66788 -0.635921 0
M  V30 2291 C 210.124 -3.20032 -1.11503 0
M  V30 2292 C 209.297 -4.34792 -0.476955 0
M  V30 2293 C 208.356 -5.06534 -1.42513 0
M  V30 2294 O 207.382 -5.61538 -0.930771 0
M  V30 2295 N 208.584 -5.1075 -2.75889 0
M  V30 2296 H 211.349 -2.92029 0.673731 0
M  V30 2297 H 208.91 -1.53846 0.50427 0
M  V30 2298 H 210.902 -3.64892 -1.75032 0
M  V30 2299 H 209.472 -2.58658 -1.75541 0
M  V30 2300 H 208.692 -3.92752 0.337572 0
M  V30 2301 H 209.98 -5.0879 -0.0318525 0
M  V30 2302 H 209.378 -4.67447 -3.18606 0
M  V30 2303 H 207.935 -5.59302 -3.347 0
M  V30 2304 N 211.368 -0.403325 -1.52352 0
M  V30 2305 C 212.3 0.4603 -2.2453 0
M  V30 2306 C 213.313 1.01505 -1.27282 0
M  V30 2307 O 214.502 0.914982 -1.53266 0
M  V30 2308 C 211.602 1.65208 -2.95905 0
M  V30 2309 C 210.775 1.22224 -4.19976 0
M  V30 2310 C 209.834 2.28028 -4.74226 0
M  V30 2311 O 208.86 1.88857 -5.36956 0
M  V30 2312 N 210.062 3.6012 -4.55295 0
M  V30 2313 H 212.827 -0.158156 -2.99282 0
M  V30 2314 H 210.388 -0.230402 -1.60252 0
M  V30 2315 H 212.38 2.35541 -3.29093 0
M  V30 2316 H 210.95 2.17658 -2.24374 0
M  V30 2317 H 210.17 0.34725 -3.92668 0
M  V30 2318 H 211.458 0.911924 -5.00561 0
M  V30 2319 H 210.856 3.94698 -4.05253 0
M  V30 2320 H 209.413 4.26447 -4.92936 0
M  V30 2321 N 212.846 1.57033 -0.133567 0
M  V30 2322 C 214.086 1.97575 0.523789 0
M  V30 2323 C 214.45 1.01605 1.62912 0
M  V30 2324 O 215.651 1.3114 2.3464 0
M  V30 2325 C 213.922 3.42256 1.02935 0
M  V30 2326 S 215.481 4.04817 1.69319 0
M  V30 2327 H 212.299 0.690427 0.169799 0
M  V30 2328 H 214.901 1.94234 -0.222101 0
M  V30 2329 H 213.605 4.09842 0.213917 0
M  V30 2330 H 213.136 3.4928 1.81017 0
M  V30 2331 H 215.151 3.96767 2.97977 0
M  V30 2332 N 214.325 -0.140222 1.56975 0
M  V30 2333 C 215.573 -0.850005 1.83356 0
M  V30 2334 C 215.894 -1.81399 0.71551 0
M  V30 2335 O 215.164 -1.94136 -0.262294 0
M  V30 2336 H 213.744 -0.316886 0.676456 0
M  V30 2337 H 216.406 -0.132608 1.94448 0
M  V30 2338 H 215.502 -1.40814 2.78528 0
M  V30 2339 N 215.803 -1.52179 -0.40978 0
M  V30 2340 C 217.043 -1.67882 -1.16597 0
M  V30 2341 C 217.407 -0.399795 -1.87791 0
M  V30 2342 O 218.608 -0.43292 -2.65291 0
M  V30 2343 C 216.879 -2.86662 -2.13448 0
M  V30 2344 S 218.438 -3.22843 -2.97183 0
M  V30 2345 H 215.256 -0.59118 -0.395002 0
M  V30 2346 H 217.858 -1.9017 -0.453373 0
M  V30 2347 H 216.562 -3.77998 -1.59831 0
M  V30 2348 H 216.093 -2.66645 -2.89247 0
M  V30 2349 H 218.108 -2.71415 -4.15389 0
M  V30 2350 N 217.281 0.66697 -1.42791 0
M  V30 2351 C 218.213 1.7925 -1.42836 0
M  V30 2352 C 219.226 1.59496 -0.326333 0
M  V30 2353 O 220.415 1.6847 -0.589916 0
M  V30 2354 C 217.515 3.16476 -1.21229 0
M  V30 2355 C 216.688 3.63011 -2.44013 0
M  V30 2356 C 215.747 4.78993 -2.17834 0
M  V30 2357 O 214.773 4.89137 -2.91091 0
M  V30 2358 N 215.975 5.68248 -1.18635 0
M  V30 2359 H 218.74 1.79695 -2.39854 0
M  V30 2360 H 216.301 0.850338 -1.37771 0
M  V30 2361 H 218.293 3.91734 -1.01621 0
M  V30 2362 H 216.863 3.10884 -0.32706 0
M  V30 2363 H 216.083 2.78346 -2.79137 0
M  V30 2364 H 217.371 3.90845 -3.25757 0
M  V30 2365 H 216.769 5.62712 -0.580615 0
M  V30 2366 H 215.326 6.43285 -1.05013 0
M  V30 2367 N 218.759 1.29093 0.90403 0
M  V30 2368 C 220.17 1.15186 1.46932 0
M  V30 2369 C 220.521 -0.254587 1.94541 0
M  V30 2370 O 219.646 -1.14972 1.83332 0
M  V30 2371 C 220.241 2.08492 2.67051 0
M  V30 2372 C 218.8 1.98621 3.19729 0
M  V30 2373 C 217.947 1.9967 1.92425 0
M  V30 2374 H 220.898 1.41641 0.715789 0
M  V30 2375 H 220.919 1.65461 3.42641 0
M  V30 2376 H 220.431 3.10847 2.3237 0
M  V30 2377 H 218.532 0.993389 3.59114 0
M  V30 2378 H 218.645 2.86068 3.8432 0
M  V30 2379 H 217.009 1.44208 2.09943 0
M  V30 2380 H 217.792 3.03721 1.60026 0
M  V30 2381 N 220.237 -1.11381 1.11499 0
M  V30 2382 C 221.184 -2.17439 0.773887 0
M  V30 2383 C 222.154 -1.64132 -0.254899 0
M  V30 2384 O 223.339 -1.90345 -0.13168 0
M  V30 2385 C 220.479 -3.44373 0.223917 0
M  V30 2386 C 219.592 -4.1168 1.30934 0
M  V30 2387 C 218.727 -5.263 0.71984 0
M  V30 2388 C 217.766 -5.85493 1.78507 0
M  V30 2389 N 216.903 -6.91507 1.21502 0
M  V30 2390 H 221.743 -2.45962 1.68246 0
M  V30 2391 H 219.28 -1.20744 0.840191 0
M  V30 2392 H 221.238 -4.17047 -0.112921 0
M  V30 2393 H 219.868 -3.16232 -0.647851 0
M  V30 2394 H 218.92 -3.37073 1.76312 0
M  V30 2395 H 220.232 -4.51729 2.11524 0
M  V30 2396 H 219.386 -6.05785 0.333094 0
M  V30 2397 H 218.125 -4.87559 -0.117377 0
M  V30 2398 H 217.13 -5.04686 2.18111 0
M  V30 2399 H 218.355 -6.26301 2.62533 0
M  V30 2400 H 216.301 -6.54783 0.399455 0
M  V30 2401 H 216.218 -7.30214 1.95763 0
M  V30 2402 H 217.486 -7.74795 0.855181 0
M  V30 2403 N 221.715 -0.905404 -1.28997 0
M  V30 2404 C 222.645 -0.404212 -2.29975 0
M  V30 2405 C 223.626 0.523784 -1.61835 0
M  V30 2406 O 224.811 0.433298 -1.89304 0
M  V30 2407 C 221.941 0.364042 -3.45387 0
M  V30 2408 C 220.895 -0.474048 -4.25367 0
M  V30 2409 C 220.221 0.422045 -5.33032 0
M  V30 2410 C 221.521 -1.72696 -4.92923 0
M  V30 2411 H 223.215 -1.24807 -2.72146 0
M  V30 2412 H 220.761 -0.601585 -1.30832 0
M  V30 2413 H 222.714 0.725447 -4.15109 0
M  V30 2414 H 221.438 1.24174 -3.02074 0
M  V30 2415 H 220.097 -0.81786 -3.57361 0
M  V30 2416 H 219.745 1.29804 -4.85963 0
M  V30 2417 H 219.445 -0.135057 -5.87445 0
M  V30 2418 H 220.969 0.779517 -6.05604 0
M  V30 2419 H 222.383 -1.43495 -5.55051 0
M  V30 2420 H 220.78 -2.22582 -5.57295 0
M  V30 2421 H 221.85 -2.45964 -4.17887 0
M  V30 2422 N 223.193 1.4272 -0.668489 0
M  V30 2423 C 224.433 2.03497 -0.19194 0
M  V30 2424 C 224.797 1.51684 1.17712 0
M  V30 2425 O 225.998 2.04205 1.74796 0
M  V30 2426 C 224.269 3.56734 -0.218032 0
M  V30 2427 S 225.828 4.38395 0.188438 0
M  V30 2428 H 222.646 0.706542 -0.0794959 0
M  V30 2429 H 225.248 1.74563 -0.880235 0
M  V30 2430 H 223.952 3.91943 -1.2169 0
M  V30 2431 H 223.483 3.90333 0.490303 0
M  V30 2432 H 225.498 4.75345 1.42345 0
M  V30 2433 N 224.671 0.411399 1.52136 0
M  V30 2434 C 225.948 -0.222308 1.94333 0
M  V30 2435 C 226.328 -1.6242 1.34844 0
M  V30 2436 O 225.676 -2.22384 0.525145 0
M  V30 2437 C 225.886 -0.226345 3.48265 0
M  V30 2438 C 227.234 -0.444592 4.22266 0
M  V30 2439 O 228.258 -0.305602 3.54887 0
M  V30 2440 O 227.117 -0.718749 5.41753 0
M  V30 2441 H 224.211 -0.143907 0.814383 0
M  V30 2442 H 226.757 0.467506 1.63133 0
M  V30 2443 H 225.529 0.75475 3.83952 0
M  V30 2444 H 225.152 -0.960163 3.85832 0
M  V30 2445 N 226.149 -1.5696 0.141893 0
M  V30 2446 C 227.379 -2.00031 -0.516828 0
M  V30 2447 C 227.787 -1.02091 -1.59293 0
M  V30 2448 O 227.13 -0.00909657 -1.83698 0
M  V30 2449 C 227.192 -3.39534 -1.1814 0
M  V30 2450 C 226.856 -4.56313 -0.250513 0
M  V30 2451 C 227.853 -5.17295 0.519839 0
M  V30 2452 C 225.538 -5.02061 -0.154907 0
M  V30 2453 C 227.532 -6.2243 1.3733 0
M  V30 2454 C 225.219 -6.07053 0.702161 0
M  V30 2455 C 226.217 -6.67106 1.46487 0
M  V30 2456 O 225.905 -7.70066 2.30767 0
M  V30 2457 H 225.637 -0.661451 -0.139493 0
M  V30 2458 H 228.191 -2.04086 0.231926 0
M  V30 2459 H 226.421 -3.32302 -1.97769 0
M  V30 2460 H 228.11 -3.66745 -1.73933 0
M  V30 2461 H 228.876 -4.82852 0.45598 0
M  V30 2462 H 224.755 -4.5505 -0.7383 0
M  V30 2463 H 228.299 -6.69233 1.96909 0
M  V30 2464 H 224.196 -6.40923 0.76733 0
M  V30 2465 H 224.964 -7.87264 2.23959 0
M  V30 2466 N 227.627 0.131896 -1.57047 0
M  V30 2467 C 229.043 0.485031 -1.52051 0
M  V30 2468 C 229.243 1.82563 -0.85281 0
M  V30 2469 O 228.299 2.48817 -0.429694 0
M  V30 2470 C 229.612 0.481409 -2.96821 0
M  V30 2471 C 231.16 0.565868 -3.07842 0
M  V30 2472 C 231.635 0.592762 -4.54148 0
M  V30 2473 N 233.126 0.654564 -4.58552 0
M  V30 2474 C 233.861 0.696608 -5.69153 0
M  V30 2475 N 233.357 0.697078 -6.89284 0
M  V30 2476 N 235.15 0.738639 -5.57226 0
M  V30 2477 H 227.301 -0.746664 -1.98843 0
M  V30 2478 H 229.564 -0.273999 -0.90754 0
M  V30 2479 H 229.27 -0.435731 -3.4899 0
M  V30 2480 H 229.144 1.3139 -3.53577 0
M  V30 2481 H 231.531 1.47343 -2.55684 0
M  V30 2482 H 231.612 -0.29406 -2.54104 0
M  V30 2483 H 231.256 -0.310701 -5.06949 0
M  V30 2484 H 231.186 1.46939 -5.05684 0
M  V30 2485 H 233.677 0.660887 -3.72076 0
M  V30 2486 H 233.99 0.731426 -7.69331 0
M  V30 2487 H 232.335 0.66471 -6.91814 0
M  V30 2488 H 235.526 0.735545 -4.62285 0
M  V30 2489 H 235.699 0.767938 -6.43434 0
M  V30 2490 N 229.106 1.52395 0.401703 0
M  V30 2491 C 230.346 1.68498 1.15705 0
M  V30 2492 C 230.71 0.409748 1.87577 0
M  V30 2493 O 231.911 0.446983 2.65058 0
M  V30 2494 C 230.182 2.87789 2.11924 0
M  V30 2495 S 231.741 3.24415 2.95466 0
M  V30 2496 H 228.559 0.593267 0.391862 0
M  V30 2497 H 231.161 1.90408 0.443282 0
M  V30 2498 H 229.865 3.7884 1.57824 0
M  V30 2499 H 229.396 2.68175 2.87829 0
M  V30 2500 H 231.411 2.73614 4.13944 0
M  V30 2501 N 230.584 -0.659388 1.43143 0
M  V30 2502 C 231.833 -1.41518 1.43721 0
M  V30 2503 C 232.146 -1.95499 0.0628176 0
M  V30 2504 O 233.352 -2.71446 -0.0539683 0
M  V30 2505 C 231.808 -2.5608 2.52885 0
M  V30 2506 C 231.416 -2.08733 3.96402 0
M  V30 2507 C 233.16 -3.3349 2.62649 0
M  V30 2508 C 231.067 -3.20469 4.97045 0
M  V30 2509 H 229.997 -0.531705 0.534608 0
M  V30 2510 H 232.648 -0.712343 1.69109 0
M  V30 2511 H 231.03 -3.28805 2.20688 0
M  V30 2512 H 232.204 -1.43059 4.3803 0
M  V30 2513 H 230.519 -1.44219 3.90627 0
M  V30 2514 H 233.116 -4.16734 3.35017 0
M  V30 2515 H 233.459 -3.8111 1.67513 0
M  V30 2516 H 233.992 -2.67842 2.94118 0
M  V30 2517 H 230.731 -2.77824 5.93712 0
M  V30 2518 H 230.251 -3.84874 4.60034 0
M  V30 2519 H 231.93 -3.85698 5.19467 0
M  V30 2520 N 232.062 -1.29571 -0.897171 0
M  V30 2521 C 233.308 -1.18873 -1.65048 0
M  V30 2522 C 233.663 0.256707 -1.9068 0
M  V30 2523 O 232.956 1.18202 -1.50794 0
M  V30 2524 C 233.15 -1.9382 -3.00281 0
M  V30 2525 C 232.979 -3.45503 -2.8785 0
M  V30 2526 C 231.749 -4.14856 -2.88483 0
M  V30 2527 C 233.947 -4.40956 -2.64693 0
M  V30 2528 N 231.929 -5.52886 -2.66815 0
M  V30 2529 C 233.3 -5.66464 -2.5203 0
M  V30 2530 C 235.355 -4.3069 -2.49821 0
M  V30 2531 C 234.058 -6.82871 -2.26008 0
M  V30 2532 C 236.084 -5.46852 -2.25182 0
M  V30 2533 C 235.446 -6.71333 -2.13286 0
M  V30 2534 H 231.545 -0.489998 -0.609447 0
M  V30 2535 H 234.129 -1.63431 -1.05822 0
M  V30 2536 H 232.3 -1.51671 -3.57562 0
M  V30 2537 H 234.032 -1.75366 -3.64731 0
M  V30 2538 H 230.787 -3.66579 -2.99861 0
M  V30 2539 H 231.211 -6.25487 -2.59027 0
M  V30 2540 H 235.853 -3.35141 -2.5776 0
M  V30 2541 H 233.571 -7.78473 -2.16806 0
M  V30 2542 H 237.157 -5.40809 -2.14515 0
M  V30 2543 H 236.037 -7.59701 -1.94485 0
M  V30 2544 N 233.54 1.10788 -1.12088 0
M  V30 2545 C 234.78 1.84297 -0.883974 0
M  V30 2546 C 235.144 1.83036 0.579797 0
M  V30 2547 O 236.345 2.52061 0.933734 0
M  V30 2548 C 234.616 3.27173 -1.43849 0
M  V30 2549 S 236.175 4.17853 -1.33957 0
M  V30 2550 H 232.993 0.635433 -0.318977 0
M  V30 2551 H 235.595 1.33341 -1.4297 0
M  V30 2552 H 234.299 3.25658 -2.49749 0
M  V30 2553 H 233.83 3.83198 -0.890096 0
M  V30 2554 H 235.845 4.95239 -0.308603 0
M  V30 2555 N 235.018 0.912232 1.28515 0
M  V30 2556 C 235.95 0.35676 2.26406 0
M  V30 2557 C 236.963 -0.503933 1.54804 0
M  V30 2558 O 238.152 -0.319059 1.75625 0
M  V30 2559 C 235.252 -0.508825 3.35058 0
M  V30 2560 C 234.425 0.329007 4.36161 0
M  V30 2561 C 233.484 -0.471422 5.24084 0
M  V30 2562 O 232.51 0.115482 5.69083 0
M  V30 2563 N 233.712 -1.77479 5.52704 0
M  V30 2564 H 236.477 1.19818 2.74707 0
M  V30 2565 H 234.038 0.778022 1.4198 0
M  V30 2566 H 236.03 -1.051 3.90815 0
M  V30 2567 H 234.6 -1.25095 2.86478 0
M  V30 2568 H 233.82 1.05256 3.79888 0
M  V30 2569 H 235.108 0.90234 5.00735 0
M  V30 2570 H 234.506 -2.27417 5.17975 0
M  V30 2571 H 233.063 -2.26382 6.11224 0
M  V30 2572 N 236.496 -1.42363 0.676048 0
M  V30 2573 C 237.443 -2.308 -0.00150904 0
M  V30 2574 C 238.413 -1.46032 -0.791444 0
M  V30 2575 O 239.598 -1.74861 -0.76344 0
M  V30 2576 C 236.738 -3.31883 -0.945919 0
M  V30 2577 C 235.851 -4.31741 -0.149675 0
M  V30 2578 C 234.986 -5.19898 -1.08995 0
M  V30 2579 C 234.025 -6.11434 -0.285465 0
M  V30 2580 N 233.162 -6.92138 -1.17851 0
M  V30 2581 H 238.002 -2.88187 0.758455 0
M  V30 2582 H 235.539 -1.41952 0.38576 0
M  V30 2583 H 237.497 -3.89019 -1.50731 0
M  V30 2584 H 236.127 -2.76093 -1.6725 0
M  V30 2585 H 235.179 -3.76713 0.528359 0
M  V30 2586 H 236.491 -4.96534 0.474866 0
M  V30 2587 H 235.645 -5.81772 -1.72123 0
M  V30 2588 H 234.384 -4.55284 -1.74837 0
M  V30 2589 H 233.389 -5.48627 0.359018 0
M  V30 2590 H 234.614 -6.78097 0.368883 0
M  V30 2591 H 232.56 -6.30152 -1.82332 0
M  V30 2592 H 232.477 -7.53542 -0.609082 0
M  V30 2593 H 233.745 -7.58499 -1.79722 0
M  V30 2594 N 237.974 -0.419461 -1.51915 0
M  V30 2595 C 239.202 0.152136 -2.0634 0
M  V30 2596 C 239.617 1.37988 -1.28859 0
M  V30 2597 O 238.974 1.79243 -0.343232 0
M  V30 2598 C 239.025 0.492266 -3.58133 0
M  V30 2599 O 238.746 -0.686736 -4.32684 0
M  V30 2600 C 240.247 1.11648 -4.2901 0
M  V30 2601 H 237.467 0.0158325 -0.670813 0
M  V30 2602 H 240.011 -0.593394 -1.95702 0
M  V30 2603 H 238.166 1.18769 -3.68745 0
M  V30 2604 H 238.58 -0.400341 -5.2297 0
M  V30 2605 H 240.054 1.3046 -5.36362 0
M  V30 2606 H 240.531 2.09251 -3.86148 0
M  V30 2607 H 241.137 0.460958 -4.22795 0
M  V30 2608 N 239.452 1.56882 -0.150215 0
M  V30 2609 C 240.698 1.96518 0.500834 0
M  V30 2610 C 241.031 1.03527 1.64304 0
M  V30 2611 O 240.306 0.0782751 1.94342 0
M  V30 2612 C 240.589 3.45822 1.00395 0
M  V30 2613 C 240.442 4.49591 -0.136983 0
M  V30 2614 C 241.761 3.97704 1.88467 0
M  V30 2615 H 238.88 0.714535 0.18058 0
M  V30 2616 H 241.522 1.88577 -0.232091 0
M  V30 2617 H 239.672 3.5272 1.62851 0
M  V30 2618 H 241.344 4.5477 -0.77343 0
M  V30 2619 H 239.587 4.26441 -0.795652 0
M  V30 2620 H 240.258 5.51402 0.256815 0
M  V30 2621 H 242.734 3.93304 1.35834 0
M  V30 2622 H 241.61 5.0263 2.20578 0
M  V30 2623 H 241.871 3.40252 2.82279 0
M  V30 2624 N 240.93 -0.123565 1.57115 0
M  V30 2625 C 241.88 -1.1575 1.96433 0
M  V30 2626 C 242.864 -1.37313 0.838686 0
M  V30 2627 O 244.056 -1.38482 1.10235 0
M  V30 2628 C 241.185 -2.48526 2.36833 0
M  V30 2629 C 240.271 -2.30457 3.5602 0
M  V30 2630 N 240.662 -1.8219 4.71848 0
M  V30 2631 C 238.96 -2.61129 3.61563 0
M  V30 2632 C 239.661 -1.77721 5.53886 0
M  V30 2633 N 238.637 -2.21899 4.96248 0
M  V30 2634 H 242.439 -0.776797 2.83449 0
M  V30 2635 H 239.953 -0.331364 1.58983 0
M  V30 2636 H 241.95 -3.233 2.63216 0
M  V30 2637 H 240.61 -2.87358 1.5118 0
M  V30 2638 H 241.621 -1.51805 4.95152 0
M  V30 2639 H 238.298 -3.03678 2.86507 0
M  V30 2640 H 239.688 -1.41697 6.56789 0
M  V30 2641 N 242.408 -1.52605 -0.393616 0
M  V30 2642 C 243.685 -1.58001 -1.15304 0
M  V30 2643 C 244.065 -0.370385 -2.07825 0
M  V30 2644 O 243.413 0.641638 -2.19306 0
M  V30 2645 C 243.623 -2.91652 -1.91677 0
M  V30 2646 C 244.971 -3.4522 -2.47201 0
M  V30 2647 O 245.995 -2.93495 -2.01839 0
M  V30 2648 O 244.854 -4.35579 -3.3005 0
M  V30 2649 H 241.948 -0.637068 -0.527327 0
M  V30 2650 H 244.494 -1.64939 -0.399141 0
M  V30 2651 H 243.266 -3.71136 -1.23992 0
M  V30 2652 H 242.889 -2.88077 -2.74039 0
M  V30 2653 N 243.887 0.651787 -1.4349 0
M  V30 2654 C 244.797 1.79368 -1.5121 0
M  V30 2655 C 245.813 1.69361 -0.399093 0
M  V30 2656 O 246.989 1.90505 -0.653431 0
M  V30 2657 C 244.054 3.15653 -1.43401 0
M  V30 2658 C 243.115 3.37446 -2.65384 0
M  V30 2659 C 242.348 4.67229 -2.57939 0
M  V30 2660 O 242.571 5.46676 -1.62792 0
M  V30 2661 O 241.505 4.90773 -3.48462 0
M  V30 2662 H 245.331 1.7581 -2.47638 0
M  V30 2663 H 242.916 0.810447 -1.25507 0
M  V30 2664 H 244.798 3.96935 -1.41494 0
M  V30 2665 H 243.473 3.19798 -0.501085 0
M  V30 2666 H 242.38 2.55923 -2.72863 0
M  V30 2667 H 243.713 3.38148 -3.57654 0
M  V30 2668 N 245.365 1.30045 0.890287 0
M  V30 2669 C 246.605 1.19839 1.65584 0
M  V30 2670 C 246.969 -0.244175 1.90441 0
M  V30 2671 O 248.17 -0.469378 2.6467 0
M  V30 2672 C 246.441 1.99876 2.96284 0
M  V30 2673 S 248 2.06309 3.87275 0
M  V30 2674 H 244.818 0.427157 0.568382 0
M  V30 2675 H 247.42 1.64453 1.05715 0
M  V30 2676 H 246.124 3.03809 2.75913 0
M  V30 2677 H 245.655 1.55903 3.61189 0
M  V30 2678 H 247.67 1.18661 4.81803 0
M  V30 2679 N 246.843 -1.10192 1.12674 0
M  V30 2680 C 247.776 -2.15847 0.740625 0
M  V30 2681 C 248.754 -1.60352 -0.269421 0
M  V30 2682 O 249.938 -1.87796 -0.16278 0
M  V30 2683 C 247.065 -3.38562 0.096641 0
M  V30 2684 C 246.111 -4.12758 1.07391 0
M  V30 2685 S 246.944 -4.67997 2.60267 0
M  V30 2686 C 248.1 -5.94021 1.97206 0
M  V30 2687 H 248.333 -2.48266 1.63558 0
M  V30 2688 H 245.866 -1.22019 0.946087 0
M  V30 2689 H 247.824 -4.09621 -0.268535 0
M  V30 2690 H 246.485 -3.04377 -0.775462 0
M  V30 2691 H 245.678 -5.00755 0.570997 0
M  V30 2692 H 245.28 -3.47523 1.38216 0
M  V30 2693 H 247.572 -6.64589 1.31634 0
M  V30 2694 H 248.515 -6.48979 2.83253 0
M  V30 2695 H 248.923 -5.46169 1.42686 0
M  V30 2696 N 248.321 -0.919034 -1.28029 0
M  V30 2697 C 249.268 -0.410005 -2.27129 0
M  V30 2698 C 250.238 0.518405 -1.57803 0
M  V30 2699 O 251.423 0.439451 -1.8567 0
M  V30 2700 C 248.563 0.339054 -3.4343 0
M  V30 2701 C 247.676 -0.622468 -4.27492 0
M  V30 2702 C 246.811 0.145567 -5.31001 0
M  V30 2703 C 245.85 -0.809226 -6.06727 0
M  V30 2704 N 244.987 -0.0743728 -7.02061 0
M  V30 2705 H 249.827 -1.26011 -2.70047 0
M  V30 2706 H 247.364 -0.632663 -1.328 0
M  V30 2707 H 249.322 0.789586 -4.0966 0
M  V30 2708 H 247.952 1.15346 -3.01488 0
M  V30 2709 H 247.004 -1.19153 -3.61257 0
M  V30 2710 H 248.316 -1.35252 -4.80113 0
M  V30 2711 H 247.47 0.656417 -6.03139 0
M  V30 2712 H 246.209 0.908643 -4.79161 0
M  V30 2713 H 245.214 -1.3314 -5.33436 0
M  V30 2714 H 246.439 -1.57194 -6.60656 0
M  V30 2715 H 244.385 0.670616 -6.52563 0
M  V30 2716 H 244.302 -0.744157 -7.52329 0
M  V30 2717 H 245.57 0.416109 -7.78389 0
M  V30 2718 N 249.799 1.42003 -0.683588 0
M  V30 2719 C 250.747 2.326 0.000815408 0
M  V30 2720 C 251.741 1.50308 0.781278 0
M  V30 2721 O 252.947 1.66322 0.688251 0
M  V30 2722 H 249.322 0.751758 0.0190616 0
M  V30 2723 H 251.293 2.88011 -0.780528 0
M  V30 2724 C 250.042 3.34978 0.93195 0
M  V30 2725 H 249.365 3.98345 0.340817 0
M  V30 2726 H 250.805 4.00936 1.37936 0
M  V30 2727 C 249.264 2.67925 2.04249 0
M  V30 2728 O 249.794 2.51788 3.12995 0
M  V30 2729 N 248 2.2681 1.81675 0
M  V30 2730 H 247.547 2.40135 0.932363 0
M  V30 2731 H 247.505 1.8228 2.56167 0
M  V30 2732 N 251.277 0.427512 1.51691 0
M  V30 2733 C 252.502 -0.143601 2.06902 0
M  V30 2734 C 252.927 -1.36536 1.29382 0
M  V30 2735 O 252.285 -1.78289 0.329043 0
M  V30 2736 C 252.333 -0.454207 3.57728 0
M  V30 2737 O 251.437 -1.54228 3.82475 0
M  V30 2738 H 250.778 -0.00617128 0.663971 0
M  V30 2739 H 253.308 0.606014 1.95419 0
M  V30 2740 H 253.318 -0.707525 4.01818 0
M  V30 2741 H 251.993 0.438812 4.13579 0
M  V30 2742 H 250.57 -1.2797 3.50254 0
M  V30 2743 N 252.755 -1.56801 0.158532 0
M  V30 2744 C 253.685 -2.20347 -0.772609 0
M  V30 2745 C 254.666 -1.15518 -1.24859 0
M  V30 2746 O 255.851 -1.43902 -1.30406 0
M  V30 2747 C 252.981 -2.83417 -2.00729 0
M  V30 2748 C 251.935 -3.94174 -1.66765 0
M  V30 2749 C 251.261 -4.44233 -2.97592 0
M  V30 2750 C 252.561 -5.14392 -0.905447 0
M  V30 2751 H 254.255 -2.98413 -0.242959 0
M  V30 2752 H 251.801 -1.43537 -0.115419 0
M  V30 2753 H 253.754 -3.26543 -2.6636 0
M  V30 2754 H 252.478 -2.02701 -2.56086 0
M  V30 2755 H 251.137 -3.51684 -1.03508 0
M  V30 2756 H 250.785 -3.60325 -3.50963 0
M  V30 2757 H 250.485 -5.18945 -2.75626 0
M  V30 2758 H 252.009 -4.90037 -3.64274 0
M  V30 2759 H 253.423 -5.5429 -1.46408 0
M  V30 2760 H 251.82 -5.9494 -0.7853 0
M  V30 2761 H 252.89 -4.84795 0.100668 0
M  V30 2762 N 254.233 0.115231 -1.57178 0
M  V30 2763 C 255.18 1.14115 -2.00615 0
M  V30 2764 C 256.15 1.40939 -0.878941 0
M  V30 2765 O 257.335 1.52741 -1.14345 0
M  V30 2766 C 254.475 2.46156 -2.4187 0
M  V30 2767 C 253.588 2.26236 -3.68024 0
M  V30 2768 C 252.723 3.51534 -3.98243 0
M  V30 2769 C 251.762 3.26787 -5.17568 0
M  V30 2770 N 250.899 4.44298 -5.43639 0
M  V30 2771 H 255.739 0.763743 -2.88047 0
M  V30 2772 H 253.276 0.365615 -1.42484 0
M  V30 2773 H 255.234 3.23189 -2.63827 0
M  V30 2774 H 253.864 2.81783 -1.57475 0
M  V30 2775 H 252.916 1.40102 -3.5366 0
M  V30 2776 H 254.228 2.03929 -4.55208 0
M  V30 2777 H 253.382 4.36984 -4.20868 0
M  V30 2778 H 252.121 3.76876 -3.09541 0
M  V30 2779 H 251.126 2.39729 -4.94783 0
M  V30 2780 H 252.351 3.02812 -6.0785 0
M  V30 2781 H 250.297 4.69754 -4.57895 0
M  V30 2782 H 250.214 4.25109 -6.25154 0
M  V30 2783 H 251.482 5.3087 -5.70786 0
M  V30 2784 N 255.711 1.52812 0.385517 0
M  V30 2785 C 256.659 1.78482 1.49155 0
M  V30 2786 C 257.653 0.652914 1.56312 0
M  V30 2787 O 258.859 0.835464 1.59436 0
M  V30 2788 H 255.234 0.5648 0.496493 0
M  V30 2789 H 257.205 2.71095 1.24699 0
M  V30 2790 C 255.954 1.97378 2.86247 0
M  V30 2791 H 255.277 2.83907 2.81491 0
M  V30 2792 H 256.717 2.19327 3.62866 0
M  V30 2793 C 255.176 0.74728 3.28508 0
M  V30 2794 O 255.706 -0.0736232 4.01633 0
M  V30 2795 N 253.912 0.576396 2.84826 0
M  V30 2796 H 253.459 1.24555 2.25486 0
M  V30 2797 H 253.417 -0.24288 3.1346 0
M  V30 2798 N 257.189 -0.644168 1.43834 0
M  V30 2799 C 258.099 -1.78563 1.52159 0
M  V30 2800 C 259.115 -1.69147 0.408069 0
M  V30 2801 O 260.291 -1.90156 0.663524 0
M  V30 2802 C 257.356 -3.14888 1.45073 0
M  V30 2803 C 256.417 -3.36034 2.6717 0
M  V30 2804 C 255.65 -4.65855 2.60413 0
M  V30 2805 O 255.873 -5.45805 1.65689 0
M  V30 2806 O 254.807 -4.88918 3.5106 0
M  V30 2807 H 258.633 -1.74494 2.48567 0
M  V30 2808 H 256.218 -0.80378 1.25935 0
M  V30 2809 H 258.1 -3.96179 1.43597 0
M  V30 2810 H 256.775 -3.19528 0.518037 0
M  V30 2811 H 255.682 -2.54472 2.74217 0
M  V30 2812 H 257.015 -3.36247 3.59442 0
M  V30 2813 N 258.668 -1.30515 -0.883378 0
M  V30 2814 C 259.615 -1.17032 -1.98927 0
M  V30 2815 C 260.585 -0.0594241 -1.65994 0
M  V30 2816 O 261.77 -0.229895 -1.8941 0
M  V30 2817 C 258.91 -0.869777 -3.33959 0
M  V30 2818 C 258.023 -2.06271 -3.79574 0
M  V30 2819 C 257.158 -1.70011 -5.03259 0
M  V30 2820 C 256.197 -2.8579 -5.41286 0
M  V30 2821 N 255.334 -2.49816 -6.56153 0
M  V30 2822 H 260.174 -2.1164 -2.09792 0
M  V30 2823 H 257.711 -1.05296 -1.02719 0
M  V30 2824 H 259.669 -0.676138 -4.11685 0
M  V30 2825 H 258.299 0.0394332 -3.22776 0
M  V30 2826 H 257.351 -2.36755 -2.97744 0
M  V30 2827 H 258.663 -2.92971 -4.03694 0
M  V30 2828 H 257.817 -1.47032 -5.88614 0
M  V30 2829 H 256.556 -0.804829 -4.81013 0
M  V30 2830 H 255.561 -3.09434 -4.54456 0
M  V30 2831 H 256.786 -3.76008 -5.65504 0
M  V30 2832 H 254.732 -1.62795 -6.35479 0
M  V30 2833 H 254.649 -3.30048 -6.8015 0
M  V30 2834 H 255.917 -2.30197 -7.44735 0
M  V30 2835 N 260.146 1.09593 -1.13257 0
M  V30 2836 C 261.386 1.83349 -0.903472 0
M  V30 2837 C 261.75 1.83641 0.560351 0
M  V30 2838 O 262.951 2.53037 0.906947 0
M  V30 2839 C 261.222 3.25629 -1.47311 0
M  V30 2840 S 262.781 4.16408 -1.38382 0
M  V30 2841 H 259.599 0.632014 -0.325699 0
M  V30 2842 H 262.201 1.31817 -1.44376 0
M  V30 2843 H 260.905 3.22991 -2.53189 0
M  V30 2844 H 260.436 3.82233 -0.930689 0
M  V30 2845 H 262.451 4.94884 -0.361113 0
M  V30 2846 N 261.624 0.925811 1.2754 0
M  V30 2847 C 262.901 0.483726 1.89524 0
M  V30 2848 C 263.281 -1.03809 1.83812 0
M  V30 2849 O 262.629 -1.89143 1.28207 0
M  V30 2850 C 262.839 1.02769 3.33526 0
M  V30 2851 C 264.187 1.08703 4.10449 0
M  V30 2852 O 265.211 0.977175 3.42534 0
M  V30 2853 O 264.07 1.25599 5.31871 0
M  V30 2854 H 261.164 0.15529 0.812289 0
M  V30 2855 H 263.71 1.01738 1.35822 0
M  V30 2856 H 262.482 2.07155 3.31967 0
M  V30 2857 H 262.105 0.475567 3.94746 0
M  V30 2858 N 263.102 -1.41638 0.69111 0
M  V30 2859 C 264.349 -2.01299 0.220193 0
M  V30 2860 C 264.677 -1.54715 -1.17871 0
M  V30 2861 O 263.932 -0.747193 -1.80874 0
M  V30 2862 C 264.231 -3.56714 0.221277 0
M  V30 2863 C 263.897 -4.22792 1.56709 0
M  V30 2864 C 262.559 -4.40557 1.93554 0
M  V30 2865 C 264.911 -4.59883 2.45268 0
M  V30 2866 C 262.239 -4.92688 3.18552 0
M  V30 2867 C 264.591 -5.13403 3.69595 0
M  V30 2868 C 263.255 -5.29379 4.06589 0
M  V30 2869 H 262.525 -0.736606 0.0805743 0
M  V30 2870 H 265.172 -1.69598 0.889319 0
M  V30 2871 H 263.477 -3.8818 -0.531391 0
M  V30 2872 H 265.174 -4.00678 -0.160547 0
M  V30 2873 H 261.764 -4.09336 1.2705 0
M  V30 2874 H 265.948 -4.45817 2.18084 0
M  V30 2875 H 261.204 -5.03242 3.47214 0
M  V30 2876 H 265.378 -5.41084 4.38407 0
M  V30 2877 H 263.005 -5.69537 5.03519 0
M  V30 2878 N 264.58 -0.43555 -1.51462 0
M  V30 2879 C 265.828 0.131254 -2.01673 0
M  V30 2880 C 266.149 1.43368 -1.32177 0
M  V30 2881 O 265.419 1.90524 -0.455769 0
M  V30 2882 H 263.999 0.0514954 -0.745223 0
M  V30 2883 H 266.661 -0.577847 -1.86137 0
M  V30 2884 H 265.757 0.308446 -3.10572 0
M  V30 2885 N 266.058 1.56714 -0.166846 0
M  V30 2886 C 266.968 2.21331 0.777791 0
M  V30 2887 C 267.984 1.20358 1.25658 0
M  V30 2888 O 269.16 1.53005 1.30964 0
M  V30 2889 C 266.225 2.83787 1.99163 0
M  V30 2890 C 265.286 3.99947 1.56016 0
M  V30 2891 C 264.519 4.59415 2.71613 0
M  V30 2892 O 264.742 4.17769 3.88362 0
M  V30 2893 O 263.676 5.49359 2.45945 0
M  V30 2894 H 267.502 3.02605 0.257636 0
M  V30 2895 H 265.087 1.49275 0.0611393 0
M  V30 2896 H 266.969 3.23405 2.70161 0
M  V30 2897 H 265.644 2.05513 2.50092 0
M  V30 2898 H 264.551 3.65007 0.819809 0
M  V30 2899 H 265.884 4.79801 1.09782 0
M  V30 2900 N 267.536 -0.106894 1.57237 0
M  V30 2901 C 268.783 -0.812526 1.85484 0
M  V30 2902 C 269.111 -1.79304 0.753687 0
M  V30 2903 O 268.366 -1.94047 -0.253853 0
M  V30 2904 C 268.665 -1.58628 3.20268 0
M  V30 2905 C 268.331 -0.748967 4.44636 0
M  V30 2906 C 266.993 -0.518104 4.78403 0
M  V30 2907 C 269.345 -0.166122 5.20935 0
M  V30 2908 C 266.673 0.305659 5.85903 0
M  V30 2909 C 269.025 0.644899 6.29304 0
M  V30 2910 C 267.689 0.885965 6.61594 0
M  V30 2911 H 266.959 -0.297324 0.678734 0
M  V30 2912 H 269.606 -0.0744332 1.91355 0
M  V30 2913 H 267.911 -2.39562 3.10028 0
M  V30 2914 H 269.608 -2.13643 3.39349 0
M  V30 2915 H 266.198 -0.939006 4.18187 0
M  V30 2916 H 270.382 -0.33167 4.95191 0
M  V30 2917 H 265.638 0.501528 6.0934 0
M  V30 2918 H 269.812 1.10345 6.87602 0
M  V30 2919 H 267.439 1.52609 7.44725 0
M  V30 2920 N 269.014 -1.53014 -0.377408 0
M  V30 2921 C 269.961 -1.78616 -1.46168 0
M  V30 2922 C 270.931 -0.629917 -1.53692 0
M  V30 2923 O 272.116 -0.870861 -1.69766 0
M  V30 2924 C 269.256 -1.97123 -2.8326 0
M  V30 2925 C 268.369 -3.24831 -2.84796 0
M  V30 2926 C 267.504 -3.33591 -4.13389 0
M  V30 2927 C 266.543 -4.55377 -4.09021 0
M  V30 2928 N 265.68 -4.61355 -5.29241 0
M  V30 2929 H 270.52 -2.71142 -1.23637 0
M  V30 2930 H 268.057 -1.34326 -0.599577 0
M  V30 2931 H 270.015 -2.05839 -3.62886 0
M  V30 2932 H 268.645 -1.07946 -3.04216 0
M  V30 2933 H 267.697 -3.25128 -1.97474 0
M  V30 2934 H 269.009 -4.14523 -2.77439 0
M  V30 2935 H 268.163 -3.41554 -5.01424 0
M  V30 2936 H 266.902 -2.41894 -4.23484 0
M  V30 2937 H 265.907 -4.47527 -3.19373 0
M  V30 2938 H 267.132 -5.48402 -4.00539 0
M  V30 2939 H 265.078 -3.72554 -5.39944 0
M  V30 2940 H 264.995 -5.44935 -5.24006 0
M  V30 2941 H 266.263 -4.73586 -6.19141 0
M  V30 2942 N 270.492 0.636531 -1.44174 0
M  V30 2943 C 271.44 1.76995 -1.50915 0
M  V30 2944 C 272.434 1.65053 -0.381295 0
M  V30 2945 O 273.64 1.71197 -0.55601 0
M  V30 2946 H 270.015 0.584247 -0.473455 0
M  V30 2947 H 271.986 1.68432 -2.4632 0
M  V30 2948 C 270.735 3.15314 -1.46534 0
M  V30 2949 H 270.058 3.25149 -2.32633 0
M  V30 2950 H 271.498 3.9453 -1.55312 0
M  V30 2951 C 269.957 3.3639 -0.185305 0
M  V30 2952 O 270.487 3.94699 0.746688 0
M  V30 2953 N 268.693 2.9046 -0.0901606 0
M  V30 2954 H 268.24 2.43193 -0.849416 0
M  V30 2955 H 268.198 3.04937 0.765553 0
M  V30 2956 N 271.97 1.30982 0.876444 0
M  V30 2957 C 272.9 1.20668 1.99903 0
M  V30 2958 C 273.881 0.095354 1.69833 0
M  V30 2959 O 275.066 0.27885 1.92188 0
M  V30 2960 C 272.196 0.90655 3.3526 0
M  V30 2961 C 271.15 1.97675 3.79617 0
M  V30 2962 C 270.476 1.52943 5.1236 0
M  V30 2963 C 271.776 3.389 3.97422 0
M  V30 2964 H 273.47 2.14586 2.0879 0
M  V30 2965 H 271.016 1.03308 1.00317 0
M  V30 2966 H 272.969 0.821025 4.13324 0
M  V30 2967 H 271.693 -0.0682969 3.26529 0
M  V30 2968 H 270.352 2.05205 3.03787 0
M  V30 2969 H 270 0.54262 5.00065 0
M  V30 2970 H 269.7 2.24532 5.43009 0
M  V30 2971 H 271.224 1.45786 5.92941 0
M  V30 2972 H 272.638 3.34081 4.659 0
M  V30 2973 H 271.035 4.0865 4.3946 0
M  V30 2974 H 272.105 3.80163 3.01006 0
M  V30 2975 N 273.449 -1.08991 1.13837 0
M  V30 2976 C 274.698 -1.80631 0.897509 0
M  V30 2977 C 275.011 -1.86872 -0.57777 0
M  V30 2978 O 276.217 -2.54866 -0.935701 0
M  V30 2979 C 274.673 -3.24517 1.55618 0
M  V30 2980 C 274.281 -3.26529 3.0673 0
M  V30 2981 C 276.025 -4.00882 1.3962 0
M  V30 2982 C 273.932 -4.64965 3.65461 0
M  V30 2983 H 272.862 -0.67691 0.332129 0
M  V30 2984 H 275.513 -1.2246 1.3666 0
M  V30 2985 H 273.895 -3.82778 1.01476 0
M  V30 2986 H 275.069 -2.78008 3.67489 0
M  V30 2987 H 273.384 -2.63656 3.22296 0
M  V30 2988 H 275.981 -5.03167 1.80906 0
M  V30 2989 H 276.324 -4.14896 0.341578 0
M  V30 2990 H 276.857 -3.49075 1.90766 0
M  V30 2991 H 273.596 -4.56153 4.70749 0
M  V30 2992 H 273.116 -5.13792 3.09481 0
M  V30 2993 H 274.795 -5.3394 3.654 0
M  V30 2994 N 274.927 -0.932562 -1.27047 0
M  V30 2995 C 276.176 -0.571351 -1.93439 0
M  V30 2996 C 276.489 0.892467 -1.74053 0
M  V30 2997 O 277.695 1.36267 -2.34826 0
M  V30 2998 C 276.151 -0.97106 -3.46552 0
M  V30 2999 C 275.759 -2.4559 -3.74686 0
M  V30 3000 C 277.503 -0.681333 -4.18997 0
M  V30 3001 C 275.41 -2.79475 -5.21198 0
M  V30 3002 H 274.34 -0.209966 -0.724176 0
M  V30 3003 H 276.991 -1.13403 -1.44263 0
M  V30 3004 H 275.373 -0.336983 -3.94564 0
M  V30 3005 H 276.547 -3.13829 -3.37414 0
M  V30 3006 H 274.862 -2.71802 -3.15456 0
M  V30 3007 H 277.459 -0.910939 -5.26883 0
M  V30 3008 H 277.802 0.381628 -4.14547 0
M  V30 3009 H 278.335 -1.27473 -3.76823 0
M  V30 3010 H 275.074 -3.847 -5.30741 0
M  V30 3011 H 274.594 -2.1589 -5.596 0
M  V30 3012 H 276.273 -2.67478 -5.89122 0
M  V30 3013 N 276.405 1.4127 -0.698611 0
M  V30 3014 C 277.816 1.84187 -0.305289 0
M  V30 3015 C 278.167 1.58449 1.15708 0
M  V30 3016 O 277.292 1.05651 1.88856 0
M  V30 3017 C 277.887 3.3435 -0.547314 0
M  V30 3018 C 276.446 3.75826 -0.207878 0
M  V30 3019 C 275.593 2.64647 -0.828099 0
M  V30 3020 H 278.544 1.30778 -0.89904 0
M  V30 3021 H 278.565 3.8001 0.192998 0
M  V30 3022 H 278.077 3.53051 -1.61172 0
M  V30 3023 H 276.178 3.62725 0.852143 0
M  V30 3024 H 276.291 4.74462 -0.665021 0
M  V30 3025 H 274.655 2.53395 -0.257458 0
M  V30 3026 H 275.438 2.86165 -1.89643 0
M  V30 3027 N 277.883 0.443576 1.51229 0
M  V30 3028 C 279.294 -0.0180867 1.86691 0
M  V30 3029 C 279.645 -1.41384 1.36033 0
M  V30 3030 O 278.77 -2.04291 0.713722 0
M  V30 3031 C 279.365 -0.039597 3.38777 0
M  V30 3032 C 277.924 -0.445692 3.73752 0
M  V30 3033 C 277.071 0.357584 2.74985 0
M  V30 3034 H 280.022 0.659138 1.44364 0
M  V30 3035 H 280.043 -0.847761 3.70936 0
M  V30 3036 H 279.555 0.976382 3.75617 0
M  V30 3037 H 277.656 -1.46704 3.42503 0
M  V30 3038 H 277.769 -0.166155 4.78812 0
M  V30 3039 H 276.133 -0.184973 2.54027 0
M  V30 3040 H 276.916 1.37256 3.14668 0
M  V30 3041 N 279.361 -1.56624 0.175154 0
M  V30 3042 C 280.586 -2.01813 -0.478137 0
M  V30 3043 C 281.011 -1.05457 -1.55757 0
M  V30 3044 O 280.369 -0.0347439 -1.81267 0
M  V30 3045 C 280.417 -3.45581 -1.02987 0
M  V30 3046 O 279.521 -3.52305 -2.14371 0
M  V30 3047 H 278.862 -0.65413 -0.114059 0
M  V30 3048 H 281.392 -2.02673 0.280173 0
M  V30 3049 H 281.402 -3.84965 -1.35151 0
M  V30 3050 H 280.077 -4.1521 -0.239556 0
M  V30 3051 H 278.654 -3.24783 -1.83222 0
M  V30 3052 N 280.839 0.0985539 -1.57292 0
M  V30 3053 C 282.069 0.815135 -1.8984 0
M  V30 3054 C 282.477 1.7297 -0.766679 0
M  V30 3055 O 281.82 1.81698 0.270483 0
M  V30 3056 C 281.882 1.6842 -3.17608 0
M  V30 3057 C 281.546 0.94182 -4.4719 0
M  V30 3058 C 282.543 0.273212 -5.19182 0
M  V30 3059 C 280.228 0.916927 -4.9386 0
M  V30 3060 C 282.222 -0.410361 -6.36078 0
M  V30 3061 C 279.909 0.229567 -6.10669 0
M  V30 3062 C 280.907 -0.432902 -6.81627 0
M  V30 3063 O 280.595 -1.10925 -7.9621 0
M  V30 3064 H 280.327 0.238501 -0.632529 0
M  V30 3065 H 282.881 0.0812659 -2.05239 0
M  V30 3066 H 281.111 2.46022 -2.98345 0
M  V30 3067 H 282.8 2.27704 -3.36015 0
M  V30 3068 H 283.566 0.283927 -4.84168 0
M  V30 3069 H 279.445 1.42201 -4.3852 0
M  V30 3070 H 282.989 -0.928013 -6.914 0
M  V30 3071 H 278.886 0.216686 -6.45136 0
M  V30 3072 H 279.654 -1.01579 -8.12172 0
M  V30 3073 N 282.317 1.53212 0.369288 0
M  V30 3074 C 283.247 1.82365 1.45826 0
M  V30 3075 C 284.228 0.676907 1.56051 0
M  V30 3076 O 285.413 0.926401 1.70679 0
M  V30 3077 C 282.543 2.01023 2.83208 0
M  V30 3078 C 281.497 3.1678 2.8781 0
M  V30 3079 C 280.823 3.20724 4.27832 0
M  V30 3080 C 282.123 4.55447 2.55667 0
M  V30 3081 H 283.817 2.73559 1.21678 0
M  V30 3082 H 281.363 1.3163 0.583911 0
M  V30 3083 H 283.316 2.20001 3.59413 0
M  V30 3084 H 282.04 1.06536 3.08736 0
M  V30 3085 H 280.699 2.97616 2.14056 0
M  V30 3086 H 280.347 2.23882 4.50429 0
M  V30 3087 H 280.047 3.98496 4.31827 0
M  V30 3088 H 281.571 3.41881 5.05915 0
M  V30 3089 H 282.985 4.74611 3.21586 0
M  V30 3090 H 281.382 5.35432 2.70984 0
M  V30 3091 H 282.452 4.60812 1.5093 0
M  V30 3092 N 283.795 -0.628877 1.44509 0
M  V30 3093 C 285.023 -1.41554 1.50897 0
M  V30 3094 C 285.438 -1.8832 0.134564 0
M  V30 3095 O 284.795 -1.60969 -0.859965 0
M  V30 3096 C 284.846 -2.63435 2.47556 0
M  V30 3097 O 284.567 -2.18619 3.79654 0
M  V30 3098 C 286.068 -3.56537 2.63431 0
M  V30 3099 H 283.288 -0.434044 0.511709 0
M  V30 3100 H 285.832 -0.768895 1.89495 0
M  V30 3101 H 283.987 -3.24187 2.12089 0
M  V30 3102 H 284.401 -2.97652 4.31861 0
M  V30 3103 H 285.875 -4.38657 3.35088 0
M  V30 3104 H 286.352 -4.05493 1.68738 0
M  V30 3105 H 286.958 -3.01653 2.9981 0
M  V30 3106 N 285.273 -1.31445 -0.869486 0
M  V30 3107 C 286.498 -1.24256 -1.66058 0
M  V30 3108 C 286.923 0.188928 -1.87149 0
M  V30 3109 O 286.281 1.13522 -1.4136 0
M  V30 3110 C 286.329 -1.9924 -3.00559 0
M  V30 3111 O 285.433 -1.33007 -3.90362 0
M  V30 3112 H 284.774 -0.428973 -0.506831 0
M  V30 3113 H 287.304 -1.73521 -1.08404 0
M  V30 3114 H 287.314 -2.08854 -3.50491 0
M  V30 3115 H 285.989 -3.03342 -2.84528 0
M  V30 3116 H 284.566 -1.31848 -3.48813 0
M  V30 3117 N 286.751 1.08385 -1.14413 0
M  V30 3118 C 288 1.80153 -0.907076 0
M  V30 3119 C 288.313 1.87176 0.567851 0
M  V30 3120 O 289.519 2.55359 0.922172 0
M  V30 3121 C 287.975 3.23687 -1.57336 0
M  V30 3122 C 287.583 3.24897 -3.08457 0
M  V30 3123 C 289.327 4.00136 -1.41744 0
M  V30 3124 C 287.234 4.6302 -3.67921 0
M  V30 3125 H 286.164 0.675139 -0.335714 0
M  V30 3126 H 288.815 1.21733 -1.37307 0
M  V30 3127 H 287.197 3.82234 -1.03505 0
M  V30 3128 H 288.371 2.76055 -3.68958 0
M  V30 3129 H 286.686 2.61943 -3.2369 0
M  V30 3130 H 289.283 5.02201 -1.83572 0
M  V30 3131 H 289.626 4.14709 -0.363576 0
M  V30 3132 H 290.159 3.48058 -1.92614 0
M  V30 3133 H 286.898 4.5365 -4.73161 0
M  V30 3134 H 286.418 5.12143 -3.12201 0
M  V30 3135 H 288.097 5.31994 -3.68227 0
M  V30 3136 N 288.23 0.939286 1.26551 0
M  V30 3137 C 289.178 0.43815 2.28436 0
M  V30 3138 C 290.172 -0.483587 1.62351 0
M  V30 3139 O 291.378 -0.362009 1.76322 0
M  V30 3140 H 287.753 0.123149 0.741848 0
M  V30 3141 H 289.724 1.31002 2.68106 0
M  V30 3142 C 288.473 -0.283052 3.46546 0
M  V30 3143 H 287.796 0.417043 3.97619 0
M  V30 3144 H 289.236 -0.597948 4.19763 0
M  V30 3145 C 287.695 -1.50018 3.01656 0
M  V30 3146 O 288.225 -2.59855 3.0633 0
M  V30 3147 N 286.431 -1.35608 2.57019 0
M  V30 3148 H 285.978 -0.46244 2.53415 0
M  V30 3149 H 285.936 -2.17165 2.27347 0
M  V30 3150 N 289.708 -1.40897 0.706093 0
M  V30 3151 C 290.64 -2.29199 0.00815776 0
M  V30 3152 C 291.653 -1.45336 -0.733582 0
M  V30 3153 O 292.842 -1.68727 -0.582537 0
M  V30 3154 C 289.942 -3.23417 -1.01265 0
M  V30 3155 C 289.115 -4.36089 -0.338387 0
M  V30 3156 C 288.174 -5.10811 -1.26326 0
M  V30 3157 O 287.2 -5.64215 -0.751651 0
M  V30 3158 N 288.402 -5.19269 -2.595 0
M  V30 3159 H 291.167 -2.89738 0.766297 0
M  V30 3160 H 288.728 -1.52164 0.55296 0
M  V30 3161 H 290.72 -3.70276 -1.63334 0
M  V30 3162 H 289.29 -2.64112 -1.67223 0
M  V30 3163 H 288.51 -3.91479 0.462352 0
M  V30 3164 H 289.798 -5.08634 0.130031 0
M  V30 3165 H 289.196 -4.77347 -3.03573 0
M  V30 3166 H 287.753 -5.69667 -3.16737 0
M  V30 3167 N 291.186 -0.45159 -1.50991 0
M  V30 3168 C 292.119 0.398179 -2.24699 0
M  V30 3169 C 293.097 1.01276 -1.27208 0
M  V30 3170 O 294.281 1.05247 -1.56382 0
M  V30 3171 C 291.408 1.55618 -3.00833 0
M  V30 3172 C 290.454 1.0609 -4.13095 0
M  V30 3173 S 291.287 -0.00865136 -5.35499 0
M  V30 3174 C 292.443 1.15369 -6.15175 0
M  V30 3175 H 292.676 -0.227555 -2.96428 0
M  V30 3176 H 290.209 -0.236251 -1.52582 0
M  V30 3177 H 292.167 2.21997 -3.45293 0
M  V30 3178 H 290.828 2.15337 -2.28667 0
M  V30 3179 H 290.021 1.92726 -4.65696 0
M  V30 3180 H 289.623 0.47513 -3.7097 0
M  V30 3181 H 291.915 2.06925 -6.45126 0
M  V30 3182 H 292.858 0.667344 -7.04948 0
M  V30 3183 H 293.266 1.3987 -5.46897 0
M  V30 3184 N 292.664 1.56529 -0.183458 0
M  V30 3185 C 294.08 1.58664 0.172554 0
M  V30 3186 C 294.28 1.19925 1.61926 0
M  V30 3187 O 293.336 0.916534 2.35278 0
M  V30 3188 C 294.649 3.00463 -0.119262 0
M  V30 3189 C 296.197 3.12945 -0.0584396 0
M  V30 3190 C 296.672 4.56857 -0.323408 0
M  V30 3191 N 298.163 4.62403 -0.271612 0
M  V30 3192 C 298.898 5.71626 -0.450639 0
M  V30 3193 N 298.394 6.89362 -0.689384 0
M  V30 3194 N 300.187 5.60775 -0.385701 0
M  V30 3195 H 292.338 1.79994 -1.12765 0
M  V30 3196 H 294.601 0.834808 -0.449222 0
M  V30 3197 H 294.307 3.33326 -1.12192 0
M  V30 3198 H 294.181 3.72659 0.583544 0
M  V30 3199 H 296.568 2.79902 0.934805 0
M  V30 3200 H 296.649 2.4316 -0.794144 0
M  V30 3201 H 296.293 4.9061 -1.31392 0
M  V30 3202 H 296.223 5.24816 0.43305 0
M  V30 3203 H 298.714 3.77785 -0.0932256 0
M  V30 3204 H 299.027 7.68489 -0.815113 0
M  V30 3205 H 297.372 6.91196 -0.726142 0
M  V30 3206 H 300.563 4.67674 -0.199687 0
M  V30 3207 H 300.736 6.4584 -0.528646 0
M  V30 3208 N 294.142 -0.090211 1.57342 0
M  V30 3209 C 295.089 -1.10909 2.02405 0
M  V30 3210 C 296.059 -1.39523 0.901252 0
M  V30 3211 O 297.244 -1.50903 1.1676 0
M  V30 3212 C 294.384 -2.42277 2.45755 0
M  V30 3213 C 293.497 -2.20352 3.71576 0
M  V30 3214 C 292.632 -3.45154 4.03785 0
M  V30 3215 C 291.671 -3.18512 5.22701 0
M  V30 3216 N 290.808 -4.35593 5.50639 0
M  V30 3217 H 295.648 -0.71782 2.89225 0
M  V30 3218 H 293.185 -0.342901 1.43048 0
M  V30 3219 H 295.143 -3.18951 2.68935 0
M  V30 3220 H 293.773 -2.79242 1.61938 0
M  V30 3221 H 292.825 -1.34458 3.55844 0
M  V30 3222 H 294.137 -1.96661 4.58395 0
M  V30 3223 H 293.291 -4.30233 4.27767 0
M  V30 3224 H 292.03 -3.71904 3.15498 0
M  V30 3225 H 291.035 -2.31827 4.98534 0
M  V30 3226 H 292.26 -2.93103 6.12591 0
M  V30 3227 H 290.206 -4.6241 4.6531 0
M  V30 3228 H 290.123 -4.1511 6.31838 0
M  V30 3229 H 291.391 -5.21723 5.7916 0
M  V30 3230 N 295.62 -1.53406 -0.361157 0
M  V30 3231 C 296.897 -1.60411 -1.11927 0
M  V30 3232 C 297.277 -0.414385 -2.06993 0
M  V30 3233 O 296.625 0.594976 -2.20618 0
M  V30 3234 C 296.835 -2.95652 -1.85448 0
M  V30 3235 C 298.183 -3.50386 -2.39823 0
M  V30 3236 O 299.207 -2.97711 -1.95568 0
M  V30 3237 O 298.066 -4.42482 -3.20737 0
M  V30 3238 H 295.16 -0.64811 -0.513695 0
M  V30 3239 H 297.706 -1.65749 -0.364065 0
M  V30 3240 H 296.478 -3.73682 -1.16091 0
M  V30 3241 H 296.101 -2.93825 -2.67866 0
M  V30 3242 N 297.098 0.621204 -1.44841 0
M  V30 3243 C 298.045 1.73267 -1.5247 0
M  V30 3244 C 299.015 1.6189 -0.371611 0
M  V30 3245 O 300.2 1.81668 -0.58321 0
M  V30 3246 C 297.34 3.11545 -1.48438 0
M  V30 3247 C 296.453 3.33827 -2.74196 0
M  V30 3248 C 295.588 4.62133 -2.61929 0
M  V30 3249 C 294.627 4.77627 -3.82804 0
M  V30 3250 N 293.764 5.97219 -3.69153 0
M  V30 3251 H 298.604 1.66082 -2.47428 0
M  V30 3252 H 296.141 0.810026 -1.22788 0
M  V30 3253 H 298.099 3.91528 -1.4409 0
M  V30 3254 H 296.729 3.1772 -0.570402 0
M  V30 3255 H 295.781 2.47715 -2.88689 0
M  V30 3256 H 297.093 3.41153 -3.6389 0
M  V30 3257 H 296.247 5.50291 -2.5547 0
M  V30 3258 H 294.986 4.57182 -1.69811 0
M  V30 3259 H 293.991 3.87896 -3.89637 0
M  V30 3260 H 295.216 4.84385 -4.75971 0
M  V30 3261 H 293.162 5.93339 -2.79794 0
M  V30 3262 H 293.079 6.05644 -4.52472 0
M  V30 3263 H 294.347 6.87912 -3.66603 0
M  V30 3264 N 298.576 1.31904 0.862503 0
M  V30 3265 C 299.523 1.20182 1.9704 0
M  V30 3266 C 300.493 0.0858247 1.65878 0
M  V30 3267 O 301.678 0.26 1.8902 0
M  V30 3268 C 298.818 0.922797 3.32533 0
M  V30 3269 C 297.931 2.12284 3.76244 0
M  V30 3270 C 297.066 1.77996 5.00491 0
M  V30 3271 C 296.105 2.94366 5.36671 0
M  V30 3272 N 295.242 2.60223 6.52095 0
M  V30 3273 H 300.082 2.14951 2.06398 0
M  V30 3274 H 297.619 1.06917 1.01031 0
M  V30 3275 H 299.577 0.741548 4.10557 0
M  V30 3276 H 298.207 0.0119227 3.22798 0
M  V30 3277 H 297.259 2.41461 2.9394 0
M  V30 3278 H 298.571 2.99357 3.98982 0
M  V30 3279 H 297.725 1.56377 5.862 0
M  V30 3280 H 296.464 0.881252 4.79672 0
M  V30 3281 H 295.469 3.16625 4.49476 0
M  V30 3282 H 296.694 3.84957 5.59451 0
M  V30 3283 H 294.64 1.72884 6.32809 0
M  V30 3284 H 294.557 3.40827 6.74814 0
M  V30 3285 H 295.825 2.42016 7.40978 0
M  V30 3286 N 300.054 -1.07777 1.14986 0
M  V30 3287 C 301.282 -1.84018 0.945773 0
M  V30 3288 C 301.697 -1.81897 -0.505863 0
M  V30 3289 O 301.054 -1.22726 -1.35072 0
M  V30 3290 C 301.105 -3.31287 1.44677 0
M  V30 3291 O 300.826 -3.33449 2.84154 0
M  V30 3292 C 302.327 -4.24311 1.28355 0
M  V30 3293 H 299.547 -0.580716 0.336169 0
M  V30 3294 H 302.091 -1.36077 1.52654 0
M  V30 3295 H 300.246 -3.76594 0.908625 0
M  V30 3296 H 300.66 -4.25427 3.06777 0
M  V30 3297 H 302.134 -5.2573 1.68261 0
M  V30 3298 H 302.611 -4.38612 0.227184 0
M  V30 3299 H 303.217 -3.84836 1.81056 0
M  V30 3300 N 301.532 -0.945985 -1.26051 0
M  V30 3301 C 302.809 -0.513816 -1.88731 0
M  V30 3302 C 303.189 1.00872 -1.8544 0
M  V30 3303 O 302.537 1.8708 -1.312 0
M  V30 3304 C 302.747 -1.08062 -3.31849 0
M  V30 3305 C 304.095 -1.1522 -4.08668 0
M  V30 3306 O 305.119 -1.03155 -3.40936 0
M  V30 3307 O 303.978 -1.34044 -5.29806 0
M  V30 3308 H 301.072 -0.168193 -0.809716 0
M  V30 3309 H 303.618 -1.03886 -1.34186 0
M  V30 3310 H 302.39 -2.1241 -3.2863 0
M  V30 3311 H 302.013 -0.538307 -3.93939 0
M  V30 3312 N 303.011 1.40521 -0.713556 0
M  V30 3313 C 304.241 2.0494 -0.261395 0
M  V30 3314 C 304.649 1.53861 1.10107 0
M  V30 3315 O 303.992 0.689321 1.70276 0
M  V30 3316 C 304.054 3.59138 -0.161227 0
M  V30 3317 C 303.718 4.33096 -1.45865 0
M  V30 3318 C 304.715 4.61182 -2.40016 0
M  V30 3319 C 302.4 4.72043 -1.71701 0
M  V30 3320 C 304.394 5.27196 -3.58251 0
M  V30 3321 C 302.081 5.37789 -2.90218 0
M  V30 3322 C 303.079 5.65295 -3.83315 0
M  V30 3323 O 302.767 6.29683 -4.99754 0
M  V30 3324 H 302.499 0.666041 -0.115608 0
M  V30 3325 H 305.053 1.80954 -0.971849 0
M  V30 3326 H 303.283 3.81936 0.605153 0
M  V30 3327 H 304.972 4.05091 0.256105 0
M  V30 3328 H 305.738 4.31559 -2.21318 0
M  V30 3329 H 301.617 4.50003 -1.00092 0
M  V30 3330 H 305.161 5.48582 -4.30934 0
M  V30 3331 H 301.058 5.66831 -3.08825 0
M  V30 3332 H 301.826 6.4818 -4.99805 0
M  V30 3333 N 304.489 0.459591 1.5075 0
M  V30 3334 C 305.399 -0.34613 2.32033 0
M  V30 3335 C 306.415 -1.00686 1.41909 0
M  V30 3336 O 307.591 -0.997361 1.7497 0
M  V30 3337 C 304.656 -1.42029 3.16273 0
M  V30 3338 C 303.717 -0.777362 4.22203 0
M  V30 3339 C 302.95 -1.80034 5.02418 0
M  V30 3340 O 303.173 -3.02544 4.83553 0
M  V30 3341 O 302.107 -1.37853 5.85901 0
M  V30 3342 H 305.933 0.318054 3.0203 0
M  V30 3343 H 303.518 0.221663 1.47746 0
M  V30 3344 H 305.4 -2.04275 3.68578 0
M  V30 3345 H 304.075 -2.06815 2.49016 0
M  V30 3346 H 302.982 -0.116256 3.73919 0
M  V30 3347 H 304.315 -0.172634 4.91897 0
M  V30 3348 N 305.967 -1.56429 0.191757 0
M  V30 3349 C 307.213 -1.97777 -0.448554 0
M  V30 3350 C 307.546 -1.07847 -1.61501 0
M  V30 3351 O 306.821 -0.129774 -1.94067 0
M  V30 3352 C 307.104 -3.48362 -0.911906 0
M  V30 3353 C 306.957 -4.4907 0.256136 0
M  V30 3354 C 308.276 -4.02561 -1.77857 0
M  V30 3355 H 305.395 -0.719071 -0.161572 0
M  V30 3356 H 308.037 -1.87896 0.282007 0
M  V30 3357 H 306.187 -3.56914 -1.53442 0
M  V30 3358 H 307.859 -4.5256 0.893733 0
M  V30 3359 H 306.102 -4.24181 0.908436 0
M  V30 3360 H 306.773 -5.51889 -0.11053 0
M  V30 3361 H 309.249 -3.96767 -1.25359 0
M  V30 3362 H 308.125 -5.08301 -2.07174 0
M  V30 3363 H 308.386 -3.47616 -2.73158 0
M  V30 3364 N 307.445 0.0818655 -1.57387 0
M  V30 3365 C 308.375 1.09885 -2.06028 0
M  V30 3366 C 309.356 1.4098 -0.951774 0
M  V30 3367 O 310.541 1.50781 -1.22387 0
M  V30 3368 C 307.671 2.4151 -2.4958 0
M  V30 3369 C 306.625 2.24792 -3.64215 0
M  V30 3370 C 305.951 3.61712 -3.93787 0
M  V30 3371 C 307.251 1.67749 -4.94629 0
M  V30 3372 H 308.945 0.694128 -2.91243 0
M  V30 3373 H 306.491 0.332448 -1.4011 0
M  V30 3374 H 308.444 3.12939 -2.82219 0
M  V30 3375 H 307.168 2.83943 -1.61381 0
M  V30 3376 H 305.827 1.55807 -3.31843 0
M  V30 3377 H 305.475 4.01697 -3.02735 0
M  V30 3378 H 305.175 3.51368 -4.70971 0
M  V30 3379 H 306.699 4.34587 -4.28913 0
M  V30 3380 H 308.113 2.29032 -5.25564 0
M  V30 3381 H 306.51 1.68128 -5.76067 0
M  V30 3382 H 307.58 0.638059 -4.80684 0
M  V30 3383 N 308.923 1.53595 0.353017 0
M  V30 3384 C 309.886 1.80232 1.41594 0
M  V30 3385 C 310.886 0.673081 1.46035 0
M  V30 3386 O 312.076 0.941335 1.46576 0
M  V30 3387 C 309.208 1.93578 2.80607 0
M  V30 3388 H 310.401 2.75174 1.19244 0
M  V30 3389 H 307.954 1.44864 0.586872 0
M  V30 3390 H 308.689 1.00746 3.08254 0
M  V30 3391 H 308.474 2.75724 2.78781 0
M  V30 3392 H 309.964 2.15735 3.57558 0
M  V30 3393 N 310.401 -0.613514 1.45168 0
M  V30 3394 C 311.626 -1.40437 1.52618 0
M  V30 3395 C 312.051 -1.87438 0.157707 0
M  V30 3396 O 311.409 -1.59791 -0.856537 0
M  V30 3397 C 311.457 -2.58894 2.51011 0
M  V30 3398 O 310.561 -3.59326 2.02382 0
M  V30 3399 H 309.902 -0.419506 0.514695 0
M  V30 3400 H 312.432 -0.747215 1.90467 0
M  V30 3401 H 312.442 -3.06214 2.69624 0
M  V30 3402 H 311.117 -2.24032 3.50403 0
M  V30 3403 H 309.694 -3.18695 1.93618 0
M  V30 3404 N 311.879 -1.3236 -0.855495 0
M  V30 3405 C 312.826 -1.21225 -1.964 0
M  V30 3406 C 313.796 -0.0946204 -1.6583 0
M  V30 3407 O 314.981 -0.27002 -1.8888 0
M  V30 3408 C 312.121 -0.940419 -3.32039 0
M  V30 3409 C 311.234 -2.14276 -3.75113 0
M  V30 3410 C 310.369 -1.80648 -4.9954 0
M  V30 3411 C 309.408 -2.97208 -5.35102 0
M  V30 3412 N 308.545 -2.63678 -6.50706 0
M  V30 3413 H 313.385 -2.16042 -2.05255 0
M  V30 3414 H 310.922 -1.07451 -1.00463 0
M  V30 3415 H 312.88 -0.763311 -4.10158 0
M  V30 3416 H 311.51 -0.0290413 -3.22787 0
M  V30 3417 H 310.562 -2.43017 -2.92655 0
M  V30 3418 H 311.874 -3.01468 -3.97389 0
M  V30 3419 H 311.028 -1.59484 -5.85363 0
M  V30 3420 H 309.767 -0.906678 -4.79198 0
M  V30 3421 H 308.772 -3.19004 -4.47791 0
M  V30 3422 H 309.997 -3.87918 -5.57401 0
M  V30 3423 H 307.943 -1.76238 -6.31883 0
M  V30 3424 H 307.86 -3.444 -6.72997 0
M  V30 3425 H 309.128 -2.45942 -7.39684 0
M  V30 3426 N 313.357 1.07166 -1.15556 0
M  V30 3427 C 314.287 2.16403 -0.877046 0
M  V30 3428 C 315.268 1.69217 0.173111 0
M  V30 3429 O 316.453 1.94181 0.027084 0
M  V30 3430 C 313.583 3.45349 -0.367632 0
M  V30 3431 C 312.537 4.05995 -1.35468 0
M  V30 3432 C 311.863 5.30045 -0.704038 0
M  V30 3433 C 313.163 4.45804 -2.72132 0
M  V30 3434 H 314.857 2.39959 -1.79053 0
M  V30 3435 H 312.403 1.15325 -0.862331 0
M  V30 3436 H 314.356 4.21095 -0.160317 0
M  V30 3437 H 313.08 3.21385 0.581326 0
M  V30 3438 H 311.739 3.32296 -1.54839 0
M  V30 3439 H 311.387 5.02373 0.251128 0
M  V30 3440 H 311.087 5.71579 -1.36277 0
M  V30 3441 H 312.611 6.08495 -0.50654 0
M  V30 3442 H 314.025 5.12671 -2.56595 0
M  V30 3443 H 312.422 4.98296 -3.34397 0
M  V30 3444 H 313.492 3.57083 -3.28054 0
M  V30 3445 N 314.835 0.952656 1.25548 0
M  V30 3446 C 316.083 0.605176 1.92826 0
M  V30 3447 C 316.404 -0.860261 1.74999 0
M  V30 3448 O 315.674 -1.6125 1.11244 0
M  V30 3449 H 314.254 0.220832 0.713612 0
M  V30 3450 H 316.916 1.21047 1.52754 0
M  V30 3451 H 316.012 0.832798 3.00784 0
M  V30 3452 N 316.313 -1.40141 0.720998 0
M  V30 3453 C 317.26 -2.30688 0.071919 0
M  V30 3454 C 318.23 -1.48476 -0.744584 0
M  V30 3455 O 319.415 -1.77201 -0.707423 0
M  V30 3456 C 316.555 -3.34724 -0.839855 0
M  V30 3457 C 315.668 -4.31998 -0.0122438 0
M  V30 3458 C 314.803 -5.23102 -0.923995 0
M  V30 3459 C 313.842 -6.12033 -0.0907969 0
M  V30 3460 N 312.979 -6.95537 -0.957718 0
M  V30 3461 H 317.819 -2.85628 0.849755 0
M  V30 3462 H 315.356 -1.40653 0.430726 0
M  V30 3463 H 317.314 -3.93618 -1.38279 0
M  V30 3464 H 315.944 -2.81274 -1.58381 0
M  V30 3465 H 314.996 -3.74841 0.64794 0
M  V30 3466 H 316.308 -4.94772 0.632595 0
M  V30 3467 H 315.462 -5.86953 -1.53527 0
M  V30 3468 H 314.201 -4.60615 -1.60264 0
M  V30 3469 H 313.206 -5.47207 0.533377 0
M  V30 3470 H 314.431 -6.76581 0.584428 0
M  V30 3471 H 312.377 -6.35633 -1.62192 0
M  V30 3472 H 312.294 -7.55099 -0.36904 0
M  V30 3473 H 313.562 -7.63832 -1.555 0
M  V30 3474 N 317.792 -0.46758 -1.50504 0
M  V30 3475 C 318.724 0.364655 -2.26281 0
M  V30 3476 C 319.737 0.960151 -1.31472 0
M  V30 3477 O 320.926 0.849153 -1.57008 0
M  V30 3478 C 318.026 1.52509 -3.02645 0
M  V30 3479 C 317.199 1.04302 -4.24782 0
M  V30 3480 C 316.258 2.07709 -4.8347 0
M  V30 3481 O 315.284 1.65913 -5.44483 0
M  V30 3482 N 316.486 3.40485 -4.70159 0
M  V30 3483 H 319.251 -0.28495 -2.98342 0
M  V30 3484 H 316.812 -0.298163 -1.59131 0
M  V30 3485 H 318.804 2.21371 -3.38787 0
M  V30 3486 H 317.374 2.07945 -2.33404 0
M  V30 3487 H 316.594 0.180393 -3.93787 0
M  V30 3488 H 317.882 0.698798 -5.03978 0
M  V30 3489 H 317.28 3.77155 -4.21629 0
M  V30 3490 H 315.837 4.05156 -5.1058 0
M  V30 3491 N 319.27 1.56325 -0.20005 0
M  V30 3492 C 320.516 1.98772 0.431408 0
M  V30 3493 C 320.871 1.0849 1.58895 0
M  V30 3494 O 320.164 0.130331 1.91156 0
M  V30 3495 C 320.358 3.4495 0.935103 0
M  V30 3496 C 320.187 4.49371 -0.172096 0
M  V30 3497 C 318.957 5.0134 -0.631377 0
M  V30 3498 C 321.155 5.04822 -0.982806 0
M  V30 3499 N 319.137 5.89433 -1.71588 0
M  V30 3500 C 320.508 5.89632 -1.91661 0
M  V30 3501 C 322.563 4.87242 -1.02467 0
M  V30 3502 C 321.266 6.58741 -2.88881 0
M  V30 3503 C 323.292 5.57094 -1.98494 0
M  V30 3504 C 322.654 6.41655 -2.90617 0
M  V30 3505 H 318.753 0.771922 0.125144 0
M  V30 3506 H 321.337 1.92266 -0.306883 0
M  V30 3507 H 319.508 3.51946 1.64282 0
M  V30 3508 H 321.24 3.74354 1.53758 0
M  V30 3509 H 317.995 4.73071 -0.223827 0
M  V30 3510 H 318.419 6.38182 -2.25948 0
M  V30 3511 H 323.061 4.21538 -0.326408 0
M  V30 3512 H 320.779 7.23641 -3.5968 0
M  V30 3513 H 324.365 5.45466 -2.0238 0
M  V30 3514 H 323.245 6.94755 -3.63711 0
M  V30 3515 N 320.748 -0.0735177 1.57428 0
M  V30 3516 C 321.976 -0.785969 1.9139 0
M  V30 3517 C 322.391 -1.71207 0.795847 0
M  V30 3518 O 321.748 -1.81033 -0.230915 0
M  V30 3519 C 321.799 -1.58107 3.25091 0
M  V30 3520 O 321.52 -0.6922 4.32597 0
M  V30 3521 C 323.021 -2.39467 3.73055 0
M  V30 3522 H 320.241 -0.223558 0.632663 0
M  V30 3523 H 322.785 -0.044302 2.04452 0
M  V30 3524 H 320.94 -2.27503 3.13562 0
M  V30 3525 H 321.354 -1.24504 5.09508 0
M  V30 3526 H 322.828 -2.90716 4.69242 0
M  V30 3527 H 323.305 -3.18913 3.01979 0
M  V30 3528 H 323.911 -1.7523 3.87523 0
M  V30 3529 N 322.226 -1.5378 -0.344866 0
M  V30 3530 C 323.637 -1.62428 -0.920552 0
M  V30 3531 C 323.988 -0.504747 -1.89596 0
M  V30 3532 O 323.113 0.365711 -2.13287 0
M  V30 3533 C 323.708 -2.94419 -1.67639 0
M  V30 3534 C 322.267 -3.05333 -2.20111 0
M  V30 3535 C 321.414 -2.57866 -1.01982 0
M  V30 3536 H 324.365 -1.58222 -0.123042 0
M  V30 3537 H 324.386 -2.83384 -2.53917 0
M  V30 3538 H 323.898 -3.7588 -0.966224 0
M  V30 3539 H 321.999 -2.28502 -2.94308 0
M  V30 3540 H 322.112 -4.10778 -2.46573 0
M  V30 3541 H 320.476 -2.13241 -1.39285 0
M  V30 3542 H 321.259 -3.41765 -0.324308 0
M  V30 3543 N 323.704 0.605807 -1.45491 0
M  V30 3544 C 324.634 1.72709 -1.57143 0
M  V30 3545 C 325.615 1.6476 -0.422884 0
M  V30 3546 O 326.8 1.83132 -0.646247 0
M  V30 3547 C 323.93 3.11316 -1.53948 0
M  V30 3548 C 322.884 3.34077 -2.67537 0
M  V30 3549 C 322.21 4.72975 -2.49397 0
M  V30 3550 C 323.51 3.24158 -4.09535 0
M  V30 3551 H 325.204 1.63214 -2.51001 0
M  V30 3552 H 322.75 0.78379 -1.208 0
M  V30 3553 H 324.703 3.89557 -1.60696 0
M  V30 3554 H 323.427 3.21655 -0.566205 0
M  V30 3555 H 322.086 2.58227 -2.6022 0
M  V30 3556 H 321.734 4.8005 -1.50205 0
M  V30 3557 H 321.434 4.8916 -3.25571 0
M  V30 3558 H 322.958 5.53414 -2.58002 0
M  V30 3559 H 324.372 3.92271 -4.18086 0
M  V30 3560 H 322.769 3.51872 -4.86113 0
M  V30 3561 H 323.839 2.2157 -4.31317 0
M  V30 3562 N 325.182 1.32811 0.848464 0
M  V30 3563 C 326.431 1.23075 1.59798 0
M  V30 3564 C 326.744 -0.204419 1.94529 0
M  V30 3565 O 327.95 -0.423701 2.68173 0
M  V30 3566 C 326.406 2.15594 2.88179 0
M  V30 3567 C 326.014 3.64228 2.60849 0
M  V30 3568 C 327.758 2.14709 3.66197 0
M  V30 3569 C 325.665 4.48689 3.85269 0
M  V30 3570 H 324.595 0.457091 0.599653 0
M  V30 3571 H 327.246 1.57813 0.936342 0
M  V30 3572 H 325.628 1.73778 3.55833 0
M  V30 3573 H 326.802 4.14424 2.01467 0
M  V30 3574 H 325.117 3.67306 1.96151 0
M  V30 3575 H 327.714 2.75046 4.58534 0
M  V30 3576 H 328.057 1.13966 4.00397 0
M  V30 3577 H 328.59 2.54837 3.05455 0
M  V30 3578 H 325.329 5.5027 3.56207 0
M  V30 3579 H 324.849 4.03241 4.44024 0
M  V30 3580 H 326.528 4.62006 4.52946 0
M  V30 3581 N 326.66 -1.06551 1.16123 0
M  V30 3582 C 327.909 -1.78687 0.935622 0
M  V30 3583 C 328.222 -1.88056 -0.538001 0
M  V30 3584 O 329.428 -2.56794 -0.88143 0
M  V30 3585 C 327.884 -3.21143 1.62466 0
M  V30 3586 C 327.492 -3.19949 3.13587 0
M  V30 3587 C 329.236 -3.9783 1.48092 0
M  V30 3588 C 327.143 -4.57108 3.75241 0
M  V30 3589 H 326.073 -0.669712 0.346412 0
M  V30 3590 H 328.724 -1.19534 1.39226 0
M  V30 3591 H 327.106 -3.80539 1.09572 0
M  V30 3592 H 328.28 -2.70151 3.73303 0
M  V30 3593 H 326.595 -2.5676 3.27816 0
M  V30 3594 H 329.192 -4.99217 1.91538 0
M  V30 3595 H 329.535 -4.14078 0.429507 0
M  V30 3596 H 330.068 -3.4495 1.98127 0
M  V30 3597 H 326.807 -4.46065 4.80319 0
M  V30 3598 H 326.327 -5.07111 3.20309 0
M  V30 3599 H 328.006 -5.26069 3.76644 0
M  V30 3600 N 328.138 -0.959301 -1.25041 0
M  V30 3601 C 329.068 -0.501388 -2.28053 0
M  V30 3602 C 330.049 0.454673 -1.63911 0
M  V30 3603 O 331.234 0.352618 -1.90972 0
M  V30 3604 C 328.364 0.217224 -3.4662 0
M  V30 3605 C 327.318 -0.654034 -4.22973 0
M  V30 3606 C 326.644 0.195589 -5.34342 0
M  V30 3607 C 327.944 -1.93447 -4.85155 0
M  V30 3608 H 329.638 -1.36238 -2.66608 0
M  V30 3609 H 327.184 -0.656534 -1.28163 0
M  V30 3610 H 329.137 0.548732 -4.17812 0
M  V30 3611 H 327.861 1.1125 -3.07068 0
M  V30 3612 H 326.52 -0.968693 -3.5357 0
M  V30 3613 H 326.168 1.09076 -4.91031 0
M  V30 3614 H 325.868 -0.384091 -5.86343 0
M  V30 3615 H 327.392 0.521958 -6.08365 0
M  V30 3616 H 328.806 -1.66908 -5.48466 0
M  V30 3617 H 327.203 -2.46018 -5.47353 0
M  V30 3618 H 328.273 -2.63466 -4.07079 0
M  V30 3619 N 329.616 1.39756 -0.72842 0
M  V30 3620 C 330.579 2.29012 -0.0927297 0
M  V30 3621 C 331.579 1.45992 0.674025 0
M  V30 3622 O 332.769 1.66749 0.50402 0
M  V30 3623 C 329.901 3.29396 0.878137 0
M  V30 3624 H 331.094 2.86729 -0.879011 0
M  V30 3625 H 328.647 1.48293 -0.493847 0
M  V30 3626 H 329.382 2.76722 1.69101 0
M  V30 3627 H 329.167 3.907 0.331051 0
M  V30 3628 H 330.657 3.96199 1.3197 0
M  V30 3629 N 331.094 0.475555 1.50254 0
M  V30 3630 C 332.042 -0.330276 2.30243 0
M  V30 3631 C 333.036 -0.986306 1.37726 0
M  V30 3632 O 334.242 -0.9169 1.54897 0
M  V30 3633 H 330.617 -0.125353 0.741479 0
M  V30 3634 H 332.588 0.364702 2.96163 0
M  V30 3635 C 331.337 -1.39704 3.18399 0
M  V30 3636 H 330.66 -0.901621 3.89501 0
M  V30 3637 H 332.1 -1.93336 3.77355 0
M  V30 3638 C 330.559 -2.4014 2.36293 0
M  V30 3639 O 331.089 -3.45504 2.04914 0
M  V30 3640 N 329.295 -2.1197 1.98789 0
M  V30 3641 H 328.842 -1.2631 2.24507 0
M  V30 3642 H 328.8 -2.79403 1.44157 0
M  V30 3643 N 332.573 -1.56217 0.208337 0
M  V30 3644 C 333.798 -2.02782 -0.435222 0
M  V30 3645 C 334.223 -1.08738 -1.53485 0
M  V30 3646 O 333.581 -0.0731855 -1.81152 0
M  V30 3647 C 333.629 -3.47687 -0.956335 0
M  V30 3648 O 332.733 -3.56773 -2.06849 0
M  V30 3649 H 332.074 -0.656403 -0.100158 0
M  V30 3650 H 334.604 -2.02033 0.3231 0
M  V30 3651 H 334.614 -3.87745 -1.26955 0
M  V30 3652 H 333.289 -4.15624 -0.15143 0
M  V30 3653 H 331.866 -3.28597 -1.76292 0
M  V30 3654 N 334.051 0.0651679 -1.57465 0
M  V30 3655 C 335.467 0.420105 -1.53972 0
M  V30 3656 C 335.667 1.78782 -0.929474 0
M  V30 3657 O 334.723 2.46771 -0.534839 0
M  V30 3658 C 336.036 0.355084 -2.98596 0
M  V30 3659 C 337.584 0.434792 -3.09965 0
M  V30 3660 C 338.059 0.399609 -4.56253 0
M  V30 3661 N 339.55 0.459488 -4.60915 0
M  V30 3662 C 340.285 0.454584 -5.71595 0
M  V30 3663 N 339.781 0.404102 -6.9162 0
M  V30 3664 N 341.574 0.501635 -5.59857 0
M  V30 3665 H 333.725 -0.830328 -1.95498 0
M  V30 3666 H 335.988 -0.312244 -0.895102 0
M  V30 3667 H 335.694 -0.583357 -3.46828 0
M  V30 3668 H 335.568 1.16275 -3.58831 0
M  V30 3669 H 337.955 1.36366 -2.61703 0
M  V30 3670 H 338.036 -0.40157 -2.52628 0
M  V30 3671 H 337.68 -0.525436 -5.05175 0
M  V30 3672 H 337.61 1.25359 -5.11461 0
M  V30 3673 H 340.101 0.502482 -3.74544 0
M  V30 3674 H 340.414 0.404468 -7.71741 0
M  V30 3675 H 338.759 0.37069 -6.94011 0
M  V30 3676 H 341.95 0.538812 -4.64989 0
M  V30 3677 H 342.123 0.494345 -6.46112 0
M  V30 3678 N 335.529 1.53961 0.336706 0
M  V30 3679 C 336.754 1.75797 1.10046 0
M  V30 3680 C 337.179 0.498985 1.81361 0
M  V30 3681 O 336.537 -0.548769 1.72795 0
M  V30 3682 C 336.585 2.94257 2.08436 0
M  V30 3683 O 335.689 2.64883 3.16087 0
M  V30 3684 H 335.03 0.582936 0.317934 0
M  V30 3685 H 337.56 2.00945 0.38501 0
M  V30 3686 H 337.57 3.21237 2.51537 0
M  V30 3687 H 336.245 3.85564 1.55927 0
M  V30 3688 H 334.822 2.48812 2.77753 0
M  V30 3689 N 337.007 -0.598083 1.45811 0
M  V30 3690 C 338.255 -1.35413 1.50026 0
M  V30 3691 C 338.576 -1.94444 0.147177 0
M  V30 3692 O 337.846 -1.77701 -0.824571 0
M  V30 3693 H 336.426 -0.502727 0.552517 0
M  V30 3694 H 339.088 -0.701606 1.81834 0
M  V30 3695 H 338.184 -2.16871 2.2444 0
M  V30 3696 N 338.485 -1.33259 -0.841409 0
M  V30 3697 C 339.713 -1.27605 -1.62864 0
M  V30 3698 C 340.128 0.153507 -1.88175 0
M  V30 3699 O 339.485 1.09485 -1.46011 0
M  V30 3700 C 339.536 -2.04596 -2.98031 0
M  V30 3701 O 339.257 -3.41975 -2.73834 0
M  V30 3702 C 340.758 -2.06122 -3.92465 0
M  V30 3703 H 337.978 -0.439718 -0.506842 0
M  V30 3704 H 340.522 -1.75591 -1.04824 0
M  V30 3705 H 338.677 -1.60299 -3.5268 0
M  V30 3706 H 339.091 -3.81549 -3.59889 0
M  V30 3707 H 340.565 -2.64451 -4.84531 0
M  V30 3708 H 341.042 -1.05083 -4.26444 0
M  V30 3709 H 341.648 -2.50427 -3.43753 0
M  V30 3710 N 339.963 1.05934 -1.16686 0
M  V30 3711 C 340.911 2.15603 -0.872817 0
M  V30 3712 C 341.905 1.68647 0.159576 0
M  V30 3713 O 343.111 1.79995 0.0132125 0
M  V30 3714 H 339.486 0.703885 -0.264671 0
M  V30 3715 H 341.457 2.37613 -1.80507 0
M  V30 3716 C 340.206 3.45457 -0.394344 0
M  V30 3717 H 339.529 3.81984 -1.18019 0
M  V30 3718 H 340.969 4.2339 -0.227408 0
M  V30 3719 C 339.428 3.25021 0.88673 0
M  V30 3720 O 339.958 3.50906 1.95519 0
M  V30 3721 N 338.164 2.78437 0.831925 0
M  V30 3722 H 337.711 2.57572 -0.0377619 0
M  V30 3723 H 337.669 2.65144 1.68956 0
M  V30 3724 N 341.441 0.965919 1.2453 0
M  V30 3725 C 342.374 0.4393 2.23932 0
M  V30 3726 C 343.352 -0.485615 1.55179 0
M  V30 3727 O 344.536 -0.417402 1.83821 0
M  V30 3728 C 341.663 -0.366042 3.36716 0
M  V30 3729 C 340.709 0.5009 4.23548 0
M  V30 3730 S 341.542 1.94002 4.99123 0
M  V30 3731 C 342.698 1.14342 6.15367 0
M  V30 3732 H 342.931 1.28167 2.68254 0
M  V30 3733 H 340.464 0.770819 1.33782 0
M  V30 3734 H 342.422 -0.824724 4.0213 0
M  V30 3735 H 341.083 -1.18337 2.90956 0
M  V30 3736 H 340.276 -0.117341 5.03863 0
M  V30 3737 H 339.878 0.89524 3.63127 0
M  V30 3738 H 342.17 0.397572 6.76332 0
M  V30 3739 H 343.113 1.92089 6.81548 0
M  V30 3740 H 343.521 0.668579 5.60527 0
M  V30 3741 N 342.919 -1.39368 0.735821 0
M  V30 3742 C 344.167 -2.00101 0.283562 0
M  V30 3743 C 344.488 -1.5868 -1.13338 0
M  V30 3744 O 343.758 -0.835423 -1.77193 0
M  V30 3745 H 342.338 -0.740024 0.101851 0
M  V30 3746 H 345 -1.70404 0.945962 0
M  V30 3747 H 344.096 -3.10323 0.332604 0
M  V30 3748 N 344.397 -0.483516 -1.5 0
M  V30 3749 C 345.307 0.309172 -2.32554 0
M  V30 3750 C 346.323 0.984159 -1.43493 0
M  V30 3751 O 347.499 0.969399 -1.76535 0
M  V30 3752 C 344.564 1.36979 -3.18493 0
M  V30 3753 C 343.625 0.710095 -4.23387 0
M  V30 3754 C 342.858 1.72018 -5.05218 0
M  V30 3755 O 343.081 2.94813 -4.88305 0
M  V30 3756 O 342.015 1.28515 -5.8802 0
M  V30 3757 H 345.841 -0.366064 -3.01486 0
M  V30 3758 H 343.426 -0.24514 -1.47375 0
M  V30 3759 H 345.308 1.98385 -3.71781 0
M  V30 3760 H 343.983 2.02828 -2.52275 0
M  V30 3761 H 342.89 0.0567539 -3.74057 0
M  V30 3762 H 344.223 0.0943557 -4.9211 0
M  V30 3763 N 345.875 1.56104 -0.216619 0
M  V30 3764 C 347.123 1.97781 0.415593 0
M  V30 3765 C 347.444 1.10536 1.60645 0
M  V30 3766 O 346.714 0.181303 1.95059 0
M  V30 3767 H 345.294 0.730415 0.156534 0
M  V30 3768 H 347.956 1.92445 -0.308366 0
M  V30 3769 H 347.052 3.03072 0.74525 0
M  V30 3770 N 347.353 -0.0568162 1.57498 0
M  V30 3771 C 348.283 -1.06593 2.0775 0
M  V30 3772 C 349.264 -1.39448 0.974082 0
M  V30 3773 O 350.449 -1.48815 1.24771 0
M  V30 3774 C 347.579 -2.37509 2.5339 0
M  V30 3775 C 346.533 -2.1897 3.67745 0
M  V30 3776 C 345.859 -3.55402 3.99492 0
M  V30 3777 C 347.159 -1.59859 4.97235 0
M  V30 3778 H 348.853 -0.647706 2.9231 0
M  V30 3779 H 346.399 -0.310116 1.40621 0
M  V30 3780 H 348.352 -3.08409 2.87162 0
M  V30 3781 H 347.076 -2.8134 1.65878 0
M  V30 3782 H 345.735 -1.50508 3.3428 0
M  V30 3783 H 345.383 -3.9683 3.09088 0
M  V30 3784 H 345.083 -3.43831 4.76502 0
M  V30 3785 H 346.607 -4.27708 4.35773 0
M  V30 3786 H 348.021 -2.20642 5.29141 0
M  V30 3787 H 346.418 -1.58942 5.78669 0
M  V30 3788 H 347.488 -0.561506 4.81638 0
M  V30 3789 N 348.832 -1.54138 -0.328536 0
M  V30 3790 C 349.762 -1.86167 -1.40939 0
M  V30 3791 C 350.743 -0.718044 -1.54202 0
M  V30 3792 O 351.928 -0.971328 -1.68163 0
M  V30 3793 C 349.058 -2.08461 -2.77779 0
M  V30 3794 C 348.012 -3.24299 -2.7931 0
M  V30 3795 C 347.338 -3.31955 -4.19178 0
M  V30 3796 C 348.638 -4.62065 -2.43502 0
M  V30 3797 H 350.332 -2.76689 -1.14383 0
M  V30 3798 H 347.878 -1.33132 -0.548806 0
M  V30 3799 H 349.831 -2.29453 -3.53454 0
M  V30 3800 H 348.555 -1.14684 -3.05802 0
M  V30 3801 H 347.214 -3.03187 -2.0609 0
M  V30 3802 H 346.862 -2.35745 -4.44335 0
M  V30 3803 H 346.562 -4.09805 -4.2111 0
M  V30 3804 H 348.086 -3.55175 -4.96672 0
M  V30 3805 H 349.5 -4.8297 -3.08889 0
M  V30 3806 H 347.897 -5.42429 -2.56693 0
M  V30 3807 H 348.967 -4.64652 -1.38659 0
M  V30 3808 N 350.31 0.590341 -1.46126 0
M  V30 3809 C 351.558 1.34616 -1.50742 0
M  V30 3810 C 351.879 1.94363 -0.157486 0
M  V30 3811 O 351.149 1.78136 0.815136 0
M  V30 3812 H 349.729 0.499789 -0.555175 0
M  V30 3813 H 352.391 0.691953 -1.82203 0
M  V30 3814 H 351.487 2.15678 -2.25587 0
M  V30 3815 N 351.788 1.33704 0.83433 0
M  V30 3816 C 352.698 1.26382 1.97648 0
M  V30 3817 C 353.714 0.173548 1.73132 0
M  V30 3818 O 354.89 0.397962 1.97429 0
M  V30 3819 C 351.955 1.00769 3.31733 0
M  V30 3820 C 351.016 2.1884 3.69334 0
M  V30 3821 C 350.249 1.9444 4.9702 0
M  V30 3822 O 350.472 0.896961 5.63303 0
M  V30 3823 O 349.406 2.81093 5.32231 0
M  V30 3824 H 353.232 2.22444 2.06767 0
M  V30 3825 H 350.817 1.13795 0.968037 0
M  V30 3826 H 352.699 0.882186 4.12062 0
M  V30 3827 H 351.374 0.0773783 3.23608 0
M  V30 3828 H 350.281 2.36946 2.89495 0
M  V30 3829 H 351.614 3.10221 3.82131 0
M  V30 3830 N 353.266 -1.05314 1.17247 0
M  V30 3831 C 354.513 -1.78293 0.960091 0
M  V30 3832 C 354.841 -1.87658 -0.51136 0
M  V30 3833 O 354.096 -1.3718 -1.39571 0
M  V30 3834 C 354.395 -3.2229 1.54479 0
M  V30 3835 C 354.061 -3.32987 3.04024 0
M  V30 3836 C 352.723 -3.35613 3.44844 0
M  V30 3837 C 355.075 -3.34102 4.00031 0
M  V30 3838 C 352.403 -3.36982 4.8027 0
M  V30 3839 C 354.755 -3.3701 5.35357 0
M  V30 3840 C 353.419 -3.37923 5.75642 0
M  V30 3841 H 352.689 -0.652422 0.351322 0
M  V30 3842 H 355.336 -1.23782 1.46117 0
M  V30 3843 H 353.641 -3.7972 0.965391 0
M  V30 3844 H 355.338 -3.77376 1.35603 0
M  V30 3845 H 351.928 -3.31655 2.71483 0
M  V30 3846 H 356.112 -3.31276 3.69554 0
M  V30 3847 H 351.368 -3.35999 5.10798 0
M  V30 3848 H 355.542 -3.36822 6.09528 0
M  V30 3849 H 353.169 -3.38738 6.80559 0
M  V30 3850 N 354.744 -0.972509 -1.24016 0
M  V30 3851 C 356.16 -0.679827 -1.44397 0
M  V30 3852 C 356.36 0.756716 -1.86751 0
M  V30 3853 O 355.416 1.53007 -2.00861 0
M  V30 3854 C 356.729 -1.66803 -2.50195 0
M  V30 3855 C 358.277 -1.68119 -2.64017 0
M  V30 3856 C 358.752 -2.65748 -3.73017 0
M  V30 3857 N 360.243 -2.64219 -3.8045 0
M  V30 3858 C 360.978 -3.36433 -4.64328 0
M  V30 3859 N 360.474 -4.1818 -5.52356 0
M  V30 3860 N 362.267 -3.25235 -4.58453 0
M  V30 3861 H 354.418 -1.90059 -0.948228 0
M  V30 3862 H 356.681 -0.818527 -0.478245 0
M  V30 3863 H 356.387 -2.69498 -2.25973 0
M  V30 3864 H 356.261 -1.4446 -3.48441 0
M  V30 3865 H 358.648 -0.661319 -2.87594 0
M  V30 3866 H 358.729 -1.94525 -1.66113 0
M  V30 3867 H 358.373 -3.67872 -3.50189 0
M  V30 3868 H 358.303 -2.36619 -4.70446 0
M  V30 3869 H 360.794 -2.04887 -3.17537 0
M  V30 3870 H 361.107 -4.70157 -6.13329 0
M  V30 3871 H 359.452 -4.22273 -5.52006 0
M  V30 3872 H 362.643 -2.60829 -3.88698 0
M  V30 3873 H 362.816 -3.81776 -5.23594 0
M  V30 3874 N 356.222 1.38976 -0.743202 0
M  V30 3875 C 357.471 1.99581 -0.291592 0
M  V30 3876 C 357.784 1.59656 1.13001 0
M  V30 3877 O 358.99 2.13157 1.68156 0
M  V30 3878 C 357.446 3.56813 -0.470391 0
M  V30 3879 C 357.054 4.05695 -1.90041 0
M  V30 3880 C 358.798 4.24423 -0.0809709 0
M  V30 3881 C 356.705 5.5553 -2.02832 0
M  V30 3882 H 355.635 0.746615 -0.105272 0
M  V30 3883 H 358.286 1.58872 -0.918258 0
M  V30 3884 H 356.668 3.95359 0.225299 0
M  V30 3885 H 357.842 3.78464 -2.62872 0
M  V30 3886 H 356.157 3.50775 -2.24379 0
M  V30 3887 H 358.754 5.34474 -0.155445 0
M  V30 3888 H 359.097 4.04962 0.96497 0
M  V30 3889 H 359.63 3.9108 -0.728124 0
M  V30 3890 H 356.369 5.79881 -3.05643 0
M  V30 3891 H 355.889 5.84537 -1.34448 0
M  V30 3892 H 357.568 6.21069 -1.81335 0
M  V30 3893 N 357.7 0.491464 1.49741 0
M  V30 3894 C 358.63 -0.28154 2.31796 0
M  V30 3895 C 359.611 -0.971473 1.3963 0
M  V30 3896 O 360.796 -0.964719 1.68543 0
M  V30 3897 C 357.926 -1.35203 3.19902 0
M  V30 3898 C 356.88 -0.782529 4.20786 0
M  V30 3899 C 356.206 -1.95283 4.97764 0
M  V30 3900 C 357.506 0.21999 5.21837 0
M  V30 3901 H 359.2 0.403355 2.96671 0
M  V30 3902 H 356.746 0.195425 1.42668 0
M  V30 3903 H 358.699 -1.90045 3.76113 0
M  V30 3904 H 357.423 -2.06598 2.52953 0
M  V30 3905 H 356.082 -0.255928 3.65706 0
M  V30 3906 H 355.73 -2.65423 4.2727 0
M  V30 3907 H 355.43 -1.57789 5.66018 0
M  V30 3908 H 356.954 -2.50577 5.56816 0
M  V30 3909 H 358.368 -0.23996 5.72798 0
M  V30 3910 H 356.765 0.51026 5.97927 0
M  V30 3911 H 357.835 1.13911 4.7133 0
M  V30 3912 N 359.178 -1.55987 0.224894 0
M  V30 3913 C 360.108 -2.23426 -0.678457 0
M  V30 3914 C 361.089 -1.20709 -1.19847 0
M  V30 3915 O 362.274 -1.49304 -1.24186 0
M  V30 3916 C 359.404 -2.91676 -1.88527 0
M  V30 3917 C 358.358 -4.00893 -1.49896 0
M  V30 3918 C 357.684 -4.56455 -2.78483 0
M  V30 3919 C 358.984 -5.17769 -0.686461 0
M  V30 3920 H 360.678 -2.99175 -0.116173 0
M  V30 3921 H 358.224 -1.43897 -0.054436 0
M  V30 3922 H 360.177 -3.37547 -2.5227 0
M  V30 3923 H 358.901 -2.1338 -2.47258 0
M  V30 3924 H 357.56 -3.55758 -0.884985 0
M  V30 3925 H 357.208 -3.74886 -3.35365 0
M  V30 3926 H 356.908 -5.30169 -2.53368 0
M  V30 3927 H 358.432 -5.05047 -3.43162 0
M  V30 3928 H 359.846 -5.60001 -1.22767 0
M  V30 3929 H 358.243 -5.97735 -0.532259 0
M  V30 3930 H 359.313 -4.83932 0.306196 0
M  V30 3931 N 360.656 0.0484629 -1.57525 0
M  V30 3932 C 361.604 1.07359 -2.06341 0
M  V30 3933 C 362.598 1.3865 -0.973269 0
M  V30 3934 O 363.804 1.37783 -1.15827 0
M  V30 3935 H 360.179 0.363662 -0.65822 0
M  V30 3936 H 362.15 0.635916 -2.91545 0
M  V30 3937 C 360.899 2.37198 -2.54229 0
M  V30 3938 H 360.222 2.13977 -3.37719 0
M  V30 3939 H 361.662 3.07319 -2.92115 0
M  V30 3940 C 360.121 3.04805 -1.43511 0
M  V30 3941 O 360.651 3.93848 -0.79034 0
M  V30 3942 N 358.857 2.65811 -1.17444 0
M  V30 3943 H 358.404 1.93488 -1.70059 0
M  V30 3944 H 358.362 3.11366 -0.435737 0
M  V30 3945 N 362.134 1.5431 0.320358 0
M  V30 3946 C 363.545 1.63872 0.894594 0
M  V30 3947 C 363.896 0.534847 1.88769 0
M  V30 3948 O 363.021 -0.331732 2.13842 0
M  V30 3949 C 363.616 2.97049 1.62934 0
M  V30 3950 C 362.175 3.08796 2.15226 0
M  V30 3951 C 361.322 2.59456 0.978671 0
M  V30 3952 H 364.273 1.58398 0.0978544 0
M  V30 3953 H 364.294 2.87388 2.49376 0
M  V30 3954 H 363.806 3.7737 0.906302 0
M  V30 3955 H 361.907 2.33156 2.90636 0
M  V30 3956 H 362.02 4.14649 2.40006 0
M  V30 3957 H 360.384 2.1543 1.35875 0
M  V30 3958 H 361.167 3.42237 0.269895 0
M  V30 3959 N 363.613 -0.582584 1.46437 0
M  V30 3960 C 364.859 -1.34278 1.51978 0
M  V30 3961 C 365.192 -1.93446 0.170973 0
M  V30 3962 O 364.467 -1.76481 -0.817608 0
M  V30 3963 C 364.75 -2.47203 2.61845 0
M  V30 3964 C 364.603 -1.93069 4.06257 0
M  V30 3965 C 365.922 -3.49247 2.67795 0
M  V30 3966 H 363.041 -0.486876 0.553282 0
M  V30 3967 H 365.683 -0.654437 1.78374 0
M  V30 3968 H 363.833 -3.0592 2.39469 0
M  V30 3969 H 365.505 -1.38808 4.3992 0
M  V30 3970 H 363.748 -1.23898 4.1573 0
M  V30 3971 H 364.419 -2.74586 4.7886 0
M  V30 3972 H 366.895 -3.00411 2.8791 0
M  V30 3973 H 365.771 -4.25719 3.46489 0
M  V30 3974 H 366.032 -4.06482 1.73852 0
M  V30 3975 N 365.091 -1.34144 -0.827227 0
M  V30 3976 C 366.023 -1.21206 -1.9453 0
M  V30 3977 C 367.036 -0.140176 -1.62195 0
M  V30 3978 O 368.225 -0.391647 -1.7415 0
M  V30 3979 C 365.325 -0.839141 -3.28347 0
M  V30 3980 C 364.498 -2.0051 -3.88734 0
M  V30 3981 C 363.557 -1.61128 -5.00923 0
M  V30 3982 O 362.583 -2.32726 -5.19449 0
M  V30 3983 N 363.785 -0.522958 -5.7814 0
M  V30 3984 H 366.55 -2.17525 -2.06162 0
M  V30 3985 H 364.111 -1.27043 -1.00358 0
M  V30 3986 H 366.103 -0.557556 -4.00841 0
M  V30 3987 H 364.673 0.0337293 -3.12582 0
M  V30 3988 H 363.893 -2.45166 -3.08686 0
M  V30 3989 H 365.181 -2.78498 -4.25812 0
M  V30 3990 H 364.579 0.0723518 -5.65654 0
M  V30 3991 H 363.136 -0.301089 -6.51104 0
M  V30 3992 N 366.569 1.04691 -1.17803 0
M  V30 3993 C 367.815 1.78045 -0.970969 0
M  V30 3994 C 368.148 1.87686 0.498751 0
M  V30 3995 O 367.423 1.38035 1.37027 0
M  V30 3996 C 367.706 3.2166 -1.61884 0
M  V30 3997 C 367.559 3.20001 -3.161 0
M  V30 3998 C 368.878 4.1962 -1.3269 0
M  V30 3999 H 365.997 0.64633 -0.354155 0
M  V30 4000 H 368.639 1.22333 -1.45378 0
M  V30 4001 H 366.789 3.69232 -1.20831 0
M  V30 4002 H 368.461 2.80467 -3.66246 0
M  V30 4003 H 366.704 2.58203 -3.48588 0
M  V30 4004 H 367.375 4.21386 -3.56564 0
M  V30 4005 H 369.851 3.80567 -1.68249 0
M  V30 4006 H 368.727 5.18339 -1.80599 0
M  V30 4007 H 368.988 4.414 -0.248622 0
M  V30 4008 N 368.047 0.979072 1.23499 0
M  V30 4009 C 369.294 0.647219 1.91878 0
M  V30 4010 C 369.622 -0.819074 1.76413 0
M  V30 4011 O 368.877 -1.60616 1.11808 0
M  V30 4012 C 369.176 0.981932 3.43646 0
M  V30 4013 C 368.842 2.43822 3.79291 0
M  V30 4014 C 367.504 2.83622 3.88731 0
M  V30 4015 C 369.856 3.3828 3.96505 0
M  V30 4016 C 367.184 4.16897 4.12812 0
M  V30 4017 C 369.536 4.71197 4.22085 0
M  V30 4018 C 368.2 5.10758 4.29747 0
M  V30 4019 H 367.47 0.236834 0.702133 0
M  V30 4020 H 370.117 1.23268 1.46551 0
M  V30 4021 H 368.422 0.314365 3.90537 0
M  V30 4022 H 370.119 0.703395 3.94783 0
M  V30 4023 H 366.709 2.11966 3.72516 0
M  V30 4024 H 370.893 3.0871 3.88603 0
M  V30 4025 H 366.149 4.47157 4.16966 0
M  V30 4026 H 370.323 5.44348 4.34348 0
M  V30 4027 H 367.95 6.1405 4.48159 0
M  V30 4028 N 369.525 -1.3858 0.750561 0
M  V30 4029 C 370.802 -1.94231 0.231009 0
M  V30 4030 C 371.182 -1.68611 -1.27018 0
M  V30 4031 O 370.53 -1.02296 -2.04323 0
M  V30 4032 C 370.74 -3.44123 0.581428 0
M  V30 4033 C 372.088 -4.2116 0.539389 0
M  V30 4034 O 373.112 -3.52391 0.519541 0
M  V30 4035 O 371.971 -5.43749 0.54765 0
M  V30 4036 H 369.065 -0.825639 0.0474263 0
M  V30 4037 H 371.611 -1.4799 0.830478 0
M  V30 4038 H 370.383 -3.56267 1.61833 0
M  V30 4039 H 370.006 -3.97573 -0.0462047 0
M  V30 4040 N 371.003 -0.499398 -1.49478 0
M  V30 4041 C 372.249 0.0457576 -2.02748 0
M  V30 4042 C 372.582 1.36793 -1.37846 0
M  V30 4043 O 371.857 1.87596 -0.513601 0
M  V30 4044 C 372.14 0.199986 -3.59544 0
M  V30 4045 C 371.993 -1.1452 -4.34977 0
M  V30 4046 C 373.312 0.94137 -4.29914 0
M  V30 4047 H 370.431 0.0151552 -0.736844 0
M  V30 4048 H 373.073 -0.650498 -1.78518 0
M  V30 4049 H 371.223 0.793007 -3.8032 0
M  V30 4050 H 372.895 -1.77697 -4.25701 0
M  V30 4051 H 371.138 -1.73488 -3.97598 0
M  V30 4052 H 371.809 -0.990607 -5.43039 0
M  V30 4053 H 374.285 0.43844 -4.13784 0
M  V30 4054 H 373.161 1.01812 -5.39375 0
M  V30 4055 H 373.422 1.98471 -3.95046 0
M  V30 4056 N 372.481 1.55866 -0.233164 0
M  V30 4057 C 373.709 2.02998 0.399905 0
M  V30 4058 C 374.124 1.11274 1.52524 0
M  V30 4059 O 373.481 0.124528 1.82075 0
M  V30 4060 C 373.532 3.4958 0.920639 0
M  V30 4061 O 373.253 4.37808 -0.159834 0
M  V30 4062 C 374.754 4.12411 1.62578 0
M  V30 4063 H 371.974 0.664006 0.0966281 0
M  V30 4064 H 374.518 2.0143 -0.353013 0
M  V30 4065 H 372.673 3.51727 1.62379 0
M  V30 4066 H 373.087 5.23981 0.23337 0
M  V30 4067 H 374.561 5.16711 1.94201 0
M  V30 4068 H 375.038 3.5809 2.54299 0
M  V30 4069 H 375.644 4.14148 0.967553 0
M  V30 4070 N 373.959 -0.0401083 1.57549 0
M  V30 4071 C 374.906 -1.04413 2.05831 0
M  V30 4072 C 375.876 -1.36585 0.945184 0
M  V30 4073 O 377.061 -1.47112 1.21502 0
M  V30 4074 C 374.201 -2.34336 2.53339 0
M  V30 4075 C 373.314 -2.08419 3.78398 0
M  V30 4076 C 372.449 -3.32133 4.14561 0
M  V30 4077 C 371.488 -3.01721 5.3257 0
M  V30 4078 N 370.625 -4.17855 5.64218 0
M  V30 4079 H 375.465 -0.625442 2.91363 0
M  V30 4080 H 373.002 -0.297218 1.44066 0
M  V30 4081 H 374.96 -3.10234 2.78946 0
M  V30 4082 H 373.59 -2.73948 1.7074 0
M  V30 4083 H 372.642 -1.23069 3.59942 0
M  V30 4084 H 373.954 -1.81978 4.64419 0
M  V30 4085 H 373.108 -4.16406 4.41238 0
M  V30 4086 H 371.847 -3.61678 3.2717 0
M  V30 4087 H 370.852 -2.15849 5.05657 0
M  V30 4088 H 372.077 -2.73466 6.21605 0
M  V30 4089 H 370.023 -4.47372 4.79786 0
M  V30 4090 H 369.94 -3.94798 6.44725 0
M  V30 4091 H 371.208 -5.03033 5.95465 0
M  V30 4092 N 375.437 -1.54477 -0.31217 0
M  V30 4093 C 376.665 -1.77205 -1.068 0
M  V30 4094 C 377.08 -0.526114 -1.81321 0
M  V30 4095 O 376.437 0.503647 -1.75413 0
M  V30 4096 C 376.488 -2.97253 -2.05725 0
M  V30 4097 O 376.209 -4.1703 -1.34228 0
M  V30 4098 C 377.71 -3.32281 -2.93435 0
M  V30 4099 H 374.93 -0.591287 -0.317208 0
M  V30 4100 H 377.474 -2.01398 -0.354834 0
M  V30 4101 H 375.629 -2.753 -2.72559 0
M  V30 4102 H 376.043 -4.84636 -2.00571 0
M  V30 4103 H 377.517 -4.19551 -3.58721 0
M  V30 4104 H 377.994 -2.49945 -3.61143 0
M  V30 4105 H 378.6 -3.56353 -2.32147 0
M  V30 4106 N 376.915 0.57481 -1.46744 0
M  V30 4107 C 378.326 1.15695 -1.46532 0
M  V30 4108 C 378.677 1.95068 -0.210425 0
M  V30 4109 O 377.802 2.05241 0.685944 0
M  V30 4110 C 378.397 2.1048 -2.65487 0
M  V30 4111 C 376.956 2.64002 -2.68291 0
M  V30 4112 C 376.103 1.40026 -2.39349 0
M  V30 4113 H 379.054 0.362325 -1.54509 0
M  V30 4114 H 379.075 2.94074 -2.41455 0
M  V30 4115 H 378.587 1.52683 -3.56805 0
M  V30 4116 H 376.688 3.25646 -1.81067 0
M  V30 4117 H 376.801 3.06197 -3.68483 0
M  V30 4118 H 375.165 1.70106 -1.89568 0
M  V30 4119 H 375.948 0.840485 -3.32852 0
M  V30 4120 N 378.394 1.34581 0.820102 0
M  V30 4121 C 379.805 1.24298 1.39309 0
M  V30 4122 C 380.156 -0.130351 1.95767 0
M  V30 4123 O 379.281 -1.0308 1.90272 0
M  V30 4124 C 379.876 2.25054 2.53251 0
M  V30 4125 C 378.435 2.18552 3.0645 0
M  V30 4126 C 377.582 2.11503 1.79337 0
M  V30 4127 H 380.533 1.45906 0.624262 0
M  V30 4128 H 380.554 1.86917 3.31425 0
M  V30 4129 H 380.066 3.24996 2.1213 0
M  V30 4130 H 378.167 1.21976 3.52069 0
M  V30 4131 H 378.28 3.0993 3.65349 0
M  V30 4132 H 376.644 1.57268 2.00347 0
M  V30 4133 H 377.427 3.13284 1.40386 0
M  V30 4134 N 379.872 -1.04064 1.18357 0
M  V30 4135 C 381.121 -1.76662 0.973313 0
M  V30 4136 C 381.434 -1.89154 -0.497991 0
M  V30 4137 O 382.64 -2.58606 -0.826762 0
M  V30 4138 C 381.096 -3.17624 1.69242 0
M  V30 4139 C 380.704 -3.13225 3.20303 0
M  V30 4140 C 382.448 -3.946 1.56497 0
M  V30 4141 C 380.355 -4.49046 3.84853 0
M  V30 4142 H 379.285 -0.662214 0.36054 0
M  V30 4143 H 381.936 -1.16553 1.41731 0
M  V30 4144 H 380.318 -3.78129 1.1762 0
M  V30 4145 H 381.492 -2.62172 3.78949 0
M  V30 4146 H 379.807 -2.49749 3.33189 0
M  V30 4147 H 382.404 -4.95042 2.02084 0
M  V30 4148 H 382.747 -4.13074 0.517243 0
M  V30 4149 H 383.28 -3.4067 2.05399 0
M  V30 4150 H 380.019 -4.35777 4.89672 0
M  V30 4151 H 379.539 -5.00203 3.30994 0
M  V30 4152 H 381.218 -5.17961 3.87718 0
M  V30 4153 N 381.35 -0.985608 -1.22978 0
M  V30 4154 C 382.297 -0.529825 -2.24636 0
M  V30 4155 C 383.267 0.434028 -1.60329 0
M  V30 4156 O 384.452 0.340414 -1.87739 0
M  V30 4157 C 381.592 0.156533 -3.44745 0
M  V30 4158 C 380.705 -0.848197 -4.23591 0
M  V30 4159 C 379.84 -0.136109 -5.31026 0
M  V30 4160 C 378.879 -1.1297 -6.01585 0
M  V30 4161 N 378.016 -0.446415 -7.00679 0
M  V30 4162 H 382.856 -1.40148 -2.62988 0
M  V30 4163 H 380.393 -0.702168 -1.29259 0
M  V30 4164 H 382.351 0.571324 -4.1327 0
M  V30 4165 H 380.981 0.992025 -3.07179 0
M  V30 4166 H 380.033 -1.38135 -3.54433 0
M  V30 4167 H 381.345 -1.60512 -4.72268 0
M  V30 4168 H 380.499 0.335784 -6.0577 0
M  V30 4169 H 379.238 0.653373 -4.83304 0
M  V30 4170 H 378.243 -1.6123 -5.25628 0
M  V30 4171 H 379.468 -1.91993 -6.51395 0
M  V30 4172 H 377.414 0.323763 -6.55201 0
M  V30 4173 H 377.331 -1.1419 -7.47326 0
M  V30 4174 H 378.599 0.00291697 -7.795 0
M  V30 4175 N 382.828 1.3818 -0.7579 0
M  V30 4176 C 383.791 2.28764 -0.141286 0
M  V30 4177 C 384.791 1.47388 0.642907 0
M  V30 4178 O 385.981 1.67781 0.468536 0
M  V30 4179 C 383.113 3.31184 0.808069 0
M  V30 4180 H 384.306 2.848 -0.939633 0
M  V30 4181 H 381.859 1.47212 -0.525191 0
M  V30 4182 H 382.594 2.80247 1.63193 0
M  V30 4183 H 382.379 3.91314 0.248104 0
M  V30 4184 H 383.869 3.98909 1.23536 0
M  V30 4185 N 384.306 0.507319 1.49211 0
M  V30 4186 C 385.236 -0.256939 2.32082 0
M  V30 4187 C 386.217 -0.956609 1.40652 0
M  V30 4188 O 387.402 -0.946788 1.69557 0
M  V30 4189 C 384.532 -1.31802 3.21318 0
M  V30 4190 C 383.486 -0.737855 4.21592 0
M  V30 4191 C 382.812 -1.89992 4.99807 0
M  V30 4192 C 384.112 0.275325 5.21574 0
M  V30 4193 H 385.806 0.434798 2.96226 0
M  V30 4194 H 383.352 0.210546 1.42452 0
M  V30 4195 H 385.305 -1.86045 3.78107 0
M  V30 4196 H 384.029 -2.03903 2.5513 0
M  V30 4197 H 382.688 -0.217126 3.65956 0
M  V30 4198 H 382.336 -2.60877 4.30061 0
M  V30 4199 H 382.036 -1.51777 5.6766 0
M  V30 4200 H 383.56 -2.44657 5.59442 0
M  V30 4201 H 384.974 -0.179193 5.7302 0
M  V30 4202 H 383.371 0.573649 5.97352 0
M  V30 4203 H 384.441 1.18903 4.70096 0
M  V30 4204 N 385.784 -1.5574 0.241426 0
M  V30 4205 C 386.716 -2.18469 -0.693091 0
M  V30 4206 C 387.729 -1.15942 -1.14286 0
M  V30 4207 O 388.918 -1.42832 -1.07058 0
M  V30 4208 C 386.018 -2.7696 -1.95311 0
M  V30 4209 C 385.191 -4.04853 -1.65568 0
M  V30 4210 C 384.25 -4.47715 -2.76474 0
M  V30 4211 O 383.276 -5.14205 -2.44094 0
M  V30 4212 N 384.478 -4.15044 -4.05855 0
M  V30 4213 H 387.243 -2.99292 -0.156388 0
M  V30 4214 H 384.804 -1.61784 0.0611752 0
M  V30 4215 H 386.796 -3.02594 -2.68736 0
M  V30 4216 H 385.366 -2.00326 -2.39975 0
M  V30 4217 H 384.586 -3.86865 -0.756886 0
M  V30 4218 H 385.874 -4.88246 -1.43153 0
M  V30 4219 H 385.272 -3.61654 -4.34998 0
M  V30 4220 H 383.829 -4.45526 -4.75762 0
M  V30 4221 N 387.262 0.0317525 -1.57568 0
M  V30 4222 C 388.192 1.03274 -2.0942 0
M  V30 4223 C 389.173 1.3788 -0.996143 0
M  V30 4224 O 390.358 1.46811 -1.27122 0
M  V30 4225 C 387.488 2.33448 -2.57137 0
M  V30 4226 C 386.442 2.13091 -3.71182 0
M  V30 4227 C 385.768 3.49001 -4.05095 0
M  V30 4228 C 387.068 1.51928 -4.99715 0
M  V30 4229 H 388.762 0.60112 -2.93303 0
M  V30 4230 H 386.308 0.287705 -1.41097 0
M  V30 4231 H 388.261 3.03802 -2.92032 0
M  V30 4232 H 386.985 2.78665 -1.70333 0
M  V30 4233 H 385.644 1.45171 -3.36632 0
M  V30 4234 H 385.292 3.91862 -3.15362 0
M  V30 4235 H 384.992 3.36207 -4.81911 0
M  V30 4236 H 386.516 4.20721 -4.42522 0
M  V30 4237 H 387.93 2.12196 -5.32584 0
M  V30 4238 H 386.327 1.49716 -5.81124 0
M  V30 4239 H 387.397 0.484811 -4.8247 0
M  V30 4240 N 388.74 1.54641 0.303973 0
M  V30 4241 C 389.98 1.75516 1.04755 0
M  V30 4242 C 390.344 0.528211 1.84591 0
M  V30 4243 O 391.545 0.614645 2.61678 0
M  V30 4244 C 389.816 3.00685 1.93193 0
M  V30 4245 S 391.375 3.42549 2.74237 0
M  V30 4246 H 388.193 0.616987 0.353339 0
M  V30 4247 H 390.795 1.92842 0.321292 0
M  V30 4248 H 389.499 3.8811 1.33411 0
M  V30 4249 H 389.03 2.85937 2.70191 0
M  V30 4250 H 391.045 2.99386 3.95705 0
M  V30 4251 N 390.218 -0.567019 1.47046 0
M  V30 4252 C 391.446 -1.35027 1.56765 0
M  V30 4253 C 391.861 -1.8758 0.214316 0
M  V30 4254 O 391.218 -1.64471 -0.790919 0
M  V30 4255 C 391.269 -2.52698 2.58507 0
M  V30 4256 O 390.99 -2.0232 3.88585 0
M  V30 4257 C 392.491 -3.45043 2.78316 0
M  V30 4258 H 389.711 -0.41195 0.529658 0
M  V30 4259 H 392.255 -0.687832 1.92585 0
M  V30 4260 H 390.41 -3.149 2.25648 0
M  V30 4261 H 390.824 -2.79068 4.44096 0
M  V30 4262 H 392.298 -4.2405 3.53391 0
M  V30 4263 H 392.775 -3.97971 1.85784 0
M  V30 4264 H 393.381 -2.88665 3.12334 0
M  V30 4265 N 391.696 -1.35014 -0.812953 0
M  V30 4266 C 392.626 -1.30069 -1.93919 0
M  V30 4267 C 393.607 -0.176275 -1.69184 0
M  V30 4268 O 394.792 -0.370227 -1.90638 0
M  V30 4269 C 391.922 -1.06547 -3.30552 0
M  V30 4270 C 390.876 -2.15561 -3.69753 0
M  V30 4271 C 390.202 -1.77214 -5.04479 0
M  V30 4272 C 391.502 -3.57476 -3.808 0
M  V30 4273 H 393.196 -2.24303 -1.98314 0
M  V30 4274 H 390.742 -1.07977 -0.952736 0
M  V30 4275 H 392.695 -1.01729 -4.08937 0
M  V30 4276 H 391.419 -0.0875719 -3.26483 0
M  V30 4277 H 390.078 -2.19466 -2.9365 0
M  V30 4278 H 389.726 -0.780589 -4.96906 0
M  V30 4279 H 389.426 -2.50184 -5.31678 0
M  V30 4280 H 390.95 -1.7391 -5.8531 0
M  V30 4281 H 392.364 -3.55929 -4.4943 0
M  V30 4282 H 390.761 -4.29152 -4.19462 0
M  V30 4283 H 391.831 -3.94091 -2.82525 0
M  V30 4284 N 393.175 1.03435 -1.18907 0
M  V30 4285 C 394.105 2.13503 -0.945448 0
M  V30 4286 C 395.086 1.69682 0.119189 0
M  V30 4287 O 396.271 1.94169 -0.034707 0
M  V30 4288 C 393.401 3.44004 -0.477316 0
M  V30 4289 C 392.355 4.0148 -1.48316 0
M  V30 4290 C 391.681 5.27537 -0.872311 0
M  V30 4291 C 392.981 4.36921 -2.86177 0
M  V30 4292 H 394.675 2.34141 -1.86597 0
M  V30 4293 H 392.221 1.12523 -0.898584 0
M  V30 4294 H 394.174 4.20372 -0.294204 0
M  V30 4295 H 392.898 3.23072 0.478786 0
M  V30 4296 H 391.557 3.27201 -1.65332 0
M  V30 4297 H 391.205 5.02917 0.0911752 0
M  V30 4298 H 390.905 5.66954 -1.54393 0
M  V30 4299 H 392.429 6.06576 -0.699871 0
M  V30 4300 H 393.843 5.04248 -2.72776 0
M  V30 4301 H 392.24 4.87405 -3.50081 0
M  V30 4302 H 393.31 3.46466 -3.39248 0
M  V30 4303 N 394.653 0.992116 1.22453 0
M  V30 4304 C 396.064 0.702776 1.72968 0
M  V30 4305 C 396.415 -0.780399 1.80012 0
M  V30 4306 O 395.54 -1.61007 1.44589 0
M  V30 4307 C 396.135 1.26903 3.14135 0
M  V30 4308 C 394.694 1.02909 3.62059 0
M  V30 4309 C 393.841 1.38969 2.39964 0
M  V30 4310 H 396.792 1.16457 1.07812 0
M  V30 4311 H 396.813 0.647223 3.74955 0
M  V30 4312 H 396.325 2.34851 3.08977 0
M  V30 4313 H 394.426 -0.0337979 3.72585 0
M  V30 4314 H 394.539 1.69191 4.48231 0
M  V30 4315 H 392.903 0.808279 2.41535 0
M  V30 4316 H 393.686 2.4792 2.37467 0
M  V30 4317 N 396.131 -1.37776 0.765217 0
M  V30 4318 C 397.361 -2.03828 0.337277 0
M  V30 4319 C 397.769 -1.57841 -1.04321 0
M  V30 4320 O 397.112 -0.752043 -1.67601 0
M  V30 4321 C 397.174 -3.58292 0.294407 0
M  V30 4322 C 396.838 -4.27384 1.61838 0
M  V30 4323 C 397.835 -4.51956 2.56967 0
M  V30 4324 C 395.52 -4.65345 1.89102 0
M  V30 4325 C 397.514 -5.13536 3.77571 0
M  V30 4326 C 395.201 -5.26647 3.09978 0
M  V30 4327 C 396.199 -5.50679 4.04032 0
M  V30 4328 O 395.887 -6.10702 5.2278 0
M  V30 4329 H 395.619 -0.661292 0.140248 0
M  V30 4330 H 398.173 -1.77222 1.03834 0
M  V30 4331 H 396.403 -3.83918 -0.462983 0
M  V30 4332 H 398.092 -4.05763 -0.105581 0
M  V30 4333 H 398.858 -4.23048 2.37183 0
M  V30 4334 H 394.737 -4.45978 1.16725 0
M  V30 4335 H 398.281 -5.3221 4.50997 0
M  V30 4336 H 394.178 -5.54979 3.29649 0
M  V30 4337 H 394.946 -6.29183 5.23517 0
M  V30 4338 N 397.609 -0.515225 -1.4894 0
M  V30 4339 C 398.839 0.0205735 -2.0659 0
M  V30 4340 C 399.247 1.30064 -1.37405 0
M  V30 4341 O 398.59 1.78087 -0.450632 0
M  V30 4342 C 398.652 0.330124 -3.57981 0
M  V30 4343 C 398.316 -0.854295 -4.48944 0
M  V30 4344 C 399.313 -1.7487 -4.89609 0
M  V30 4345 C 396.998 -1.05712 -4.9105 0
M  V30 4346 C 398.992 -2.82996 -5.71132 0
M  V30 4347 C 396.679 -2.14154 -5.72347 0
M  V30 4348 C 397.677 -3.0263 -6.12294 0
M  V30 4349 O 397.365 -4.09198 -6.91962 0
M  V30 4350 H 397.097 -0.0236833 -0.675585 0
M  V30 4351 H 399.651 -0.715956 -1.92518 0
M  V30 4352 H 397.881 1.12044 -3.70112 0
M  V30 4353 H 399.57 0.806233 -3.97812 0
M  V30 4354 H 400.336 -1.60388 -4.57712 0
M  V30 4355 H 396.215 -0.377788 -4.59449 0
M  V30 4356 H 399.759 -3.52083 -6.02232 0
M  V30 4357 H 395.656 -2.28626 -6.03656 0
M  V30 4358 H 396.424 -4.06726 -7.10293 0
M  V30 4359 N 399.087 1.5561 -0.249682 0
M  V30 4360 C 400.312 2.03865 0.381305 0
M  V30 4361 C 400.737 1.12769 1.50548 0
M  V30 4362 O 400.095 0.121189 1.80895 0
M  V30 4363 C 400.143 3.50101 0.863816 0
M  V30 4364 O 399.247 3.62132 1.97318 0
M  V30 4365 H 398.588 0.658827 0.0827194 0
M  V30 4366 H 401.118 2.01105 -0.376552 0
M  V30 4367 H 401.128 3.90975 1.1663 0
M  V30 4368 H 399.803 4.1588 0.0411816 0
M  V30 4369 H 398.38 3.33155 1.67517 0
M  V30 4370 N 400.565 -0.0233959 1.57583 0
M  V30 4371 C 401.528 -1.00693 2.05897 0
M  V30 4372 C 402.528 -1.28693 0.964092 0
M  V30 4373 O 403.718 -1.23602 1.22753 0
M  V30 4374 C 400.85 -2.33825 2.4807 0
M  V30 4375 H 402.043 -0.589476 2.9405 0
M  V30 4376 H 399.596 -0.270354 1.53944 0
M  V30 4377 H 400.331 -2.80307 1.6309 0
M  V30 4378 H 400.116 -2.1483 3.2801 0
M  V30 4379 H 401.606 -3.04426 2.85857 0
M  V30 4380 N 402.043 -1.548 -0.295768 0
M  V30 4381 C 403.459 -1.4613 -0.641722 0
M  V30 4382 C 403.659 -0.656771 -1.90496 0
M  V30 4383 O 402.715 -0.166547 -2.5195 0
M  V30 4384 C 404.028 -2.90141 -0.789852 0
M  V30 4385 C 405.576 -3.00216 -0.885396 0
M  V30 4386 C 406.051 -4.45434 -1.06548 0
M  V30 4387 N 407.542 -4.49166 -1.13156 0
M  V30 4388 C 408.277 -5.58717 -1.28929 0
M  V30 4389 N 407.773 -6.78182 -1.41567 0
M  V30 4390 N 409.566 -5.46415 -1.31859 0
M  V30 4391 H 401.717 -2.05574 0.534147 0
M  V30 4392 H 403.98 -0.931259 0.177372 0
M  V30 4393 H 403.686 -3.51635 0.0675598 0
M  V30 4394 H 403.56 -3.37859 -1.67724 0
M  V30 4395 H 405.947 -2.38833 -1.73329 0
M  V30 4396 H 406.028 -2.55787 0.0261185 0
M  V30 4397 H 405.672 -5.07413 -0.222335 0
M  V30 4398 H 405.602 -4.87499 -1.9913 0
M  V30 4399 H 408.093 -3.631 -1.04721 0
M  V30 4400 H 408.406 -7.57428 -1.53372 0
M  V30 4401 H 406.751 -6.81037 -1.38613 0
M  V30 4402 H 409.942 -4.5203 -1.21601 0
M  V30 4403 H 410.115 -6.31841 -1.43808 0
M  V30 4404 N 403.521 0.559213 -1.47345 0
M  V30 4405 C 404.767 1.31843 -1.54095 0
M  V30 4406 C 405.1 1.93149 -0.201726 0
M  V30 4407 O 404.375 1.77759 0.789428 0
M  V30 4408 C 404.658 2.43006 -2.65744 0
M  V30 4409 C 404.511 1.86581 -4.09277 0
M  V30 4410 C 405.83 3.44943 -2.73318 0
M  V30 4411 H 402.949 0.478012 -0.560957 0
M  V30 4412 H 405.591 0.625977 -1.79392 0
M  V30 4413 H 403.741 3.02072 -2.44305 0
M  V30 4414 H 405.413 1.31792 -4.42073 0
M  V30 4415 H 403.656 1.17268 -4.17649 0
M  V30 4416 H 404.327 2.66933 -4.83168 0
M  V30 4417 H 406.803 2.95793 -2.92653 0
M  V30 4418 H 405.679 4.20153 -3.53218 0
M  V30 4419 H 405.94 4.03665 -1.80296 0
M  V30 4420 N 404.999 1.35443 0.805782 0
M  V30 4421 C 405.929 1.31095 1.93226 0
M  V30 4422 C 406.91 0.185244 1.69088 0
M  V30 4423 O 408.095 0.380332 1.90439 0
M  V30 4424 C 405.225 1.08299 3.29983 0
M  V30 4425 C 404.179 2.17519 3.68605 0
M  V30 4426 C 403.505 1.79887 5.03532 0
M  V30 4427 C 404.805 3.5949 3.78898 0
M  V30 4428 H 406.499 2.25352 1.97122 0
M  V30 4429 H 404.045 1.0848 0.946996 0
M  V30 4430 H 405.998 1.03897 4.08391 0
M  V30 4431 H 404.722 0.104885 3.26432 0
M  V30 4432 H 403.381 2.2102 2.92482 0
M  V30 4433 H 403.029 0.80693 4.96485 0
M  V30 4434 H 402.729 2.53001 5.30344 0
M  V30 4435 H 404.253 1.77011 5.84379 0
M  V30 4436 H 405.667 3.58307 4.47536 0
M  V30 4437 H 404.064 4.31371 4.1718 0
M  V30 4438 H 405.134 3.95584 2.80431 0
M  V30 4439 N 406.477 -1.02803 1.19454 0
M  V30 4440 C 407.723 -1.76478 0.999171 0
M  V30 4441 C 408.056 -1.88456 -0.468828 0
M  V30 4442 O 407.331 -1.40198 -1.34814 0
M  V30 4443 C 407.614 -3.19044 1.66981 0
M  V30 4444 C 407.467 -3.14932 3.21151 0
M  V30 4445 C 408.786 -4.17456 1.39349 0
M  V30 4446 H 405.905 -0.640614 0.364393 0
M  V30 4447 H 408.547 -1.20005 1.47305 0
M  V30 4448 H 406.697 -3.67263 1.2669 0
M  V30 4449 H 408.369 -2.74605 3.70661 0
M  V30 4450 H 406.612 -2.52625 3.52652 0
M  V30 4451 H 407.283 -4.1566 3.63223 0
M  V30 4452 H 409.759 -3.77842 1.74283 0
M  V30 4453 H 408.635 -5.154 1.88823 0
M  V30 4454 H 408.896 -4.40949 0.318813 0
M  V30 4455 N 407.956 -0.998596 -1.21925 0
M  V30 4456 C 409.196 -0.685948 -1.92546 0
M  V30 4457 C 409.56 0.768441 -1.75952 0
M  V30 4458 O 410.761 1.19277 -2.40887 0
M  V30 4459 C 409.032 -1.08767 -3.40448 0
M  V30 4460 S 410.591 -0.894251 -4.29591 0
M  V30 4461 H 407.409 -0.250622 -0.665364 0
M  V30 4462 H 410.011 -1.28207 -1.47591 0
M  V30 4463 H 408.715 -2.14242 -3.50041 0
M  V30 4464 H 408.246 -0.48357 -3.90417 0
M  V30 4465 H 410.261 0.212149 -4.95746 0
M  V30 4466 N 409.434 1.37368 -0.772513 0
M  V30 4467 C 410.682 1.99279 -0.336516 0
M  V30 4468 C 411.003 1.6163 1.09091 0
M  V30 4469 O 410.273 0.882109 1.74916 0
M  V30 4470 H 408.853 0.737063 -0.121435 0
M  V30 4471 H 411.515 1.67836 -0.990809 0
M  V30 4472 H 410.611 3.09332 -0.414763 0
M  V30 4473 N 410.912 0.523116 1.48665 0
M  V30 4474 C 412.16 -0.0134497 2.02096 0
M  V30 4475 C 412.481 -1.35418 1.40311 0
M  V30 4476 O 411.751 -1.87543 0.566074 0
M  V30 4477 H 410.331 -0.00795915 0.746958 0
M  V30 4478 H 412.993 0.685388 1.82451 0
M  V30 4479 H 412.089 -0.126849 3.11842 0
M  V30 4480 N 412.39 -1.55475 0.257931 0
M  V30 4481 C 413.667 -1.91155 -0.414629 0
M  V30 4482 C 414.047 -1.18008 -1.75035 0
M  V30 4483 O 413.395 -0.301193 -2.26506 0
M  V30 4484 C 413.605 -3.44283 -0.571859 0
M  V30 4485 C 414.953 -4.15744 -0.862678 0
M  V30 4486 O 415.977 -3.50083 -0.657314 0
M  V30 4487 O 414.836 -5.31909 -1.2544 0
M  V30 4488 H 411.93 -0.796016 -0.22425 0
M  V30 4489 H 414.476 -1.66976 0.302814 0
M  V30 4490 H 413.248 -3.89558 0.368844 0
M  V30 4491 H 412.871 -3.7436 -1.33943 0
M  V30 4492 N 413.868 0.0150385 -1.57593 0
M  V30 4493 C 415.116 0.701613 -1.8953 0
M  V30 4494 C 415.437 1.75139 -0.857396 0
M  V30 4495 O 414.707 1.95607 0.107194 0
M  V30 4496 H 413.287 0.26213 -0.699498 0
M  V30 4497 H 415.949 -0.0223304 -1.94887 0
M  V30 4498 H 415.045 1.18236 -2.88837 0
M  V30 4499 N 415.346 1.54954 0.287554 0
M  V30 4500 C 416.574 1.78881 1.03967 0
M  V30 4501 C 416.989 0.554894 1.80462 0
M  V30 4502 O 416.346 -0.475676 1.76192 0
M  V30 4503 C 416.397 3.00488 2.0097 0
M  V30 4504 O 416.118 4.19113 1.27577 0
M  V30 4505 C 417.619 3.36907 2.88112 0
M  V30 4506 H 414.839 0.596259 0.307761 0
M  V30 4507 H 417.383 2.01937 0.322749 0
M  V30 4508 H 415.538 2.79601 2.68145 0
M  V30 4509 H 415.952 4.87765 1.92835 0
M  V30 4510 H 417.426 4.25205 3.52001 0
M  V30 4511 H 417.903 2.55659 3.57121 0
M  V30 4512 H 418.509 3.60001 2.26449 0
M  V30 4513 N 416.824 -0.551391 1.4764 0
M  V30 4514 C 418.07 -1.31024 1.54792 0
M  V30 4515 C 418.403 -1.9304 0.211967 0
M  V30 4516 O 417.678 -1.78175 -0.77999 0
M  V30 4517 C 417.961 -2.41593 2.67029 0
M  V30 4518 C 417.814 -1.84408 4.10261 0
M  V30 4519 C 419.133 -3.43488 2.75143 0
M  V30 4520 H 416.252 -0.475031 0.563485 0
M  V30 4521 H 418.894 -0.616454 1.79722 0
M  V30 4522 H 417.044 -3.00772 2.45904 0
M  V30 4523 H 418.716 -1.29445 4.42766 0
M  V30 4524 H 416.959 -1.15051 4.18265 0
M  V30 4525 H 417.63 -2.64367 4.84576 0
M  V30 4526 H 420.106 -2.94236 2.94218 0
M  V30 4527 H 418.982 -4.18274 3.55441 0
M  V30 4528 H 419.243 -4.02703 1.82435 0
M  V30 4529 N 418.302 -1.35869 -0.798587 0
M  V30 4530 C 419.55 -1.29332 -1.55298 0
M  V30 4531 C 419.871 0.129729 -1.94568 0
M  V30 4532 O 419.141 1.06796 -1.6423 0
M  V30 4533 H 417.721 -0.475737 -0.57592 0
M  V30 4534 H 420.383 -1.70062 -0.952093 0
M  V30 4535 H 419.479 -1.91458 -2.46476 0
M  V30 4536 N 419.78 1.02168 -1.19998 0
M  V30 4537 C 421.026 1.7606 -1.01855 0
M  V30 4538 C 421.381 1.87178 0.445222 0
M  V30 4539 O 420.674 1.3828 1.32624 0
M  V30 4540 C 420.868 3.18081 -1.62969 0
M  V30 4541 C 420.697 3.20809 -3.15137 0
M  V30 4542 C 419.467 3.28342 -3.84083 0
M  V30 4543 C 421.665 3.07268 -4.1242 0
M  V30 4544 N 419.647 3.2052 -5.23584 0
M  V30 4545 C 421.018 3.0716 -5.38566 0
M  V30 4546 C 423.073 2.91448 -4.03686 0
M  V30 4547 C 421.776 2.92853 -6.56985 0
M  V30 4548 C 423.802 2.78494 -5.21723 0
M  V30 4549 C 423.164 2.79046 -6.46771 0
M  V30 4550 H 419.263 0.655192 -0.426905 0
M  V30 4551 H 421.847 1.21564 -1.52087 0
M  V30 4552 H 420.018 3.70882 -1.15329 0
M  V30 4553 H 421.75 3.80375 -1.38192 0
M  V30 4554 H 418.505 3.34859 -3.34913 0
M  V30 4555 H 418.929 3.19997 -5.96599 0
M  V30 4556 H 423.571 2.89838 -3.07821 0
M  V30 4557 H 421.289 2.93213 -7.53028 0
M  V30 4558 H 424.875 2.67278 -5.16773 0
M  V30 4559 H 423.755 2.69134 -7.36571 0
M  V30 4560 N 421.258 1.00505 1.21394 0
M  V30 4561 C 422.504 0.688793 1.90745 0
M  V30 4562 C 422.837 -0.778486 1.77914 0
M  V30 4563 O 422.112 -1.56433 1.15581 0
M  V30 4564 C 422.395 1.11063 3.42545 0
M  V30 4565 C 422.248 2.63737 3.64367 0
M  V30 4566 C 423.567 0.673059 4.34923 0
M  V30 4567 H 420.686 0.251702 0.692687 0
M  V30 4568 H 423.328 1.25074 1.43026 0
M  V30 4569 H 421.478 0.632508 3.83317 0
M  V30 4570 H 423.15 3.19313 3.32922 0
M  V30 4571 H 421.393 3.05248 3.08231 0
M  V30 4572 H 422.064 2.88305 4.70727 0
M  V30 4573 H 424.54 1.08392 4.01734 0
M  V30 4574 H 423.416 0.996383 5.39781 0
M  V30 4575 H 423.677 -0.425808 4.40045 0
M  V30 4576 N 422.737 -1.36956 0.779787 0
M  V30 4577 C 423.667 -2.32761 0.185651 0
M  V30 4578 C 424.648 -1.56177 -0.673989 0
M  V30 4579 O 425.833 -1.84378 -0.609797 0
M  V30 4580 C 422.963 -3.40418 -0.687964 0
M  V30 4581 C 421.917 -4.27941 0.0710102 0
M  V30 4582 C 421.243 -5.26681 -0.922573 0
M  V30 4583 C 422.543 -5.07006 1.25467 0
M  V30 4584 H 424.237 -2.82698 0.986008 0
M  V30 4585 H 421.783 -1.3592 0.475592 0
M  V30 4586 H 423.736 -4.06423 -1.11348 0
M  V30 4587 H 422.46 -2.89025 -1.52093 0
M  V30 4588 H 421.119 -3.63478 0.47739 0
M  V30 4589 H 420.767 -4.71565 -1.7503 0
M  V30 4590 H 420.467 -5.86103 -0.419237 0
M  V30 4591 H 421.991 -5.9556 -1.34686 0
M  V30 4592 H 423.405 -5.66105 0.905401 0
M  V30 4593 H 421.802 -5.75793 1.69063 0
M  V30 4594 H 422.872 -4.3921 2.05481 0
M  V30 4595 N 424.215 -0.530993 -1.48385 0
M  V30 4596 C 425.492 0.0671788 -1.95485 0
M  V30 4597 C 425.872 1.51191 -1.47324 0
M  V30 4598 O 425.22 2.17507 -0.700202 0
M  V30 4599 C 425.43 -0.0511206 -3.48963 0
M  V30 4600 C 426.778 0.107632 -4.24464 0
M  V30 4601 O 427.802 0.0226248 -3.56193 0
M  V30 4602 O 426.661 0.285972 -5.45751 0
M  V30 4603 H 423.755 0.0787365 -0.823243 0
M  V30 4604 H 426.301 -0.595662 -1.58902 0
M  V30 4605 H 425.073 -1.05747 -3.7674 0
M  V30 4606 H 424.696 0.650525 -3.92242 0
M  V30 4607 N 425.693 1.55336 -0.266172 0
M  V30 4608 C 426.656 2.20878 0.612001 0
M  V30 4609 C 427.656 1.18388 1.08816 0
M  V30 4610 O 428.846 1.4335 0.989774 0
M  V30 4611 C 425.978 2.86765 1.84332 0
M  V30 4612 H 427.171 2.99873 0.0398718 0
M  V30 4613 H 424.724 1.56291 -0.0167309 0
M  V30 4614 H 425.459 2.11759 2.45619 0
M  V30 4615 H 425.244 3.61862 1.5099 0
M  V30 4616 H 426.734 3.36867 2.46801 0
M  V30 4617 N 427.171 -0.0066808 1.57599 0
M  V30 4618 C 428.417 -0.693947 1.90558 0
M  V30 4619 C 428.75 -1.73792 0.866594 0
M  V30 4620 O 428.025 -1.94156 -0.115548 0
M  V30 4621 C 428.308 -1.34317 3.34112 0
M  V30 4622 C 428.161 -0.311189 4.48722 0
M  V30 4623 C 429.48 -2.27116 3.7697 0
M  V30 4624 H 426.599 -0.250803 0.693013 0
M  V30 4625 H 429.241 0.043242 1.89951 0
M  V30 4626 H 427.391 -1.9715 3.3476 0
M  V30 4627 H 429.063 0.316944 4.6021 0
M  V30 4628 H 427.306 0.367253 4.32243 0
M  V30 4629 H 427.977 -0.804366 5.46108 0
M  V30 4630 H 430.453 -1.74306 3.77831 0
M  V30 4631 H 429.329 -2.69511 4.78179 0
M  V30 4632 H 429.59 -3.14743 3.10466 0
M  V30 4633 N 428.649 -1.55105 -0.279332 0
M  V30 4634 C 429.926 -1.66119 -1.03267 0
M  V30 4635 C 430.306 -0.523525 -2.04505 0
M  V30 4636 O 429.654 0.477194 -2.23462 0
M  V30 4637 C 429.864 -3.05067 -1.69515 0
M  V30 4638 C 431.212 -3.62606 -2.20912 0
M  V30 4639 O 432.236 -3.07659 -1.79512 0
M  V30 4640 O 431.095 -4.58861 -2.96831 0
M  V30 4641 H 428.189 -0.674429 -0.478618 0
M  V30 4642 H 430.735 -1.67446 -0.275694 0
M  V30 4643 H 429.507 -3.79311 -0.9612 0
M  V30 4644 H 429.13 -3.07611 -2.51915 0
M  V30 4645 N 430.127 0.543554 -1.4793 0
M  V30 4646 C 431.404 1.30458 -1.4574 0
M  V30 4647 C 431.784 2.1048 -0.161692 0
M  V30 4648 O 431.132 2.11831 0.856734 0
M  V30 4649 C 431.342 2.19754 -2.71126 0
M  V30 4650 C 432.69 2.80334 -3.18901 0
M  V30 4651 O 433.714 2.30049 -2.71948 0
M  V30 4652 O 432.573 3.71766 -4.00565 0
M  V30 4653 H 429.667 0.588117 -0.581418 0
M  V30 4654 H 432.213 0.561328 -1.60147 0
M  V30 4655 H 430.985 1.60316 -3.56952 0
M  V30 4656 H 430.608 3.01351 -2.59371 0
M  V30 4657 N 431.605 1.3629 0.791371 0
M  V30 4658 C 432.538 1.24816 1.9104 0
M  V30 4659 C 433.516 0.132739 1.62057 0
M  V30 4660 O 434.7 0.303527 1.8604 0
M  V30 4661 C 431.827 0.925355 3.25814 0
M  V30 4662 C 430.873 2.05495 3.7373 0
M  V30 4663 S 431.706 3.67255 3.89723 0
M  V30 4664 C 432.862 3.37084 5.27376 0
M  V30 4665 H 433.095 2.19533 2.00481 0
M  V30 4666 H 430.628 1.21684 0.950393 0
M  V30 4667 H 432.586 0.745924 4.03666 0
M  V30 4668 H 431.247 -0.00400098 3.141 0
M  V30 4669 H 430.44 1.7836 4.71385 0
M  V30 4670 H 430.042 2.1935 3.02922 0
M  V30 4671 H 432.334 2.90856 6.1189 0
M  V30 4672 H 433.277 4.33995 5.59512 0
M  V30 4673 H 433.685 2.7248 4.94383 0
M  V30 4674 N 433.083 -1.0153 1.20538 0
M  V30 4675 C 434.03 -2.10098 0.955383 0
M  V30 4676 C 435 -1.65702 -0.114878 0
M  V30 4677 O 436.185 -1.90776 0.0301118 0
M  V30 4678 C 433.325 -3.41236 0.514969 0
M  V30 4679 C 432.438 -3.99102 1.65353 0
M  V30 4680 C 431.573 -5.18306 1.16329 0
M  V30 4681 C 430.612 -5.68258 2.27485 0
M  V30 4682 N 429.749 -6.78722 1.7967 0
M  V30 4683 H 434.589 -2.30818 1.88486 0
M  V30 4684 H 432.126 -1.13189 0.939499 0
M  V30 4685 H 434.084 -4.16504 0.240935 0
M  V30 4686 H 432.714 -3.20585 -0.377512 0
M  V30 4687 H 431.766 -3.20918 2.04245 0
M  V30 4688 H 433.078 -4.32177 2.49047 0
M  V30 4689 H 432.232 -6.00782 0.845302 0
M  V30 4690 H 430.971 -4.86799 0.296254 0
M  V30 4691 H 429.976 -4.84385 2.60099 0
M  V30 4692 H 431.201 -6.01798 3.14667 0
M  V30 4693 H 429.147 -6.49042 0.95295 0
M  V30 4694 H 429.064 -7.10996 2.56944 0
M  V30 4695 H 430.332 -7.64759 1.50875 0
M  V30 4696 N 434.561 -1.01147 -1.20859 0
M  V30 4697 C 435.81 -0.693214 -1.89413 0
M  V30 4698 C 436.123 0.779969 -1.79376 0
M  V30 4699 O 437.329 1.21057 -2.43017 0
M  V30 4700 C 435.785 -1.18949 -3.39675 0
M  V30 4701 C 435.393 -2.68921 -3.58309 0
M  V30 4702 C 437.137 -0.94642 -4.13815 0
M  V30 4703 C 435.044 -3.12056 -5.0237 0
M  V30 4704 H 433.974 -0.255595 -0.709357 0
M  V30 4705 H 436.625 -1.22349 -1.36759 0
M  V30 4706 H 435.007 -0.587228 -3.91622 0
M  V30 4707 H 436.181 -3.34652 -3.16772 0
M  V30 4708 H 434.496 -2.91314 -2.97532 0
M  V30 4709 H 437.093 -1.24417 -5.20023 0
M  V30 4710 H 437.436 0.117219 -4.16135 0
M  V30 4711 H 437.969 -1.5118 -3.67953 0
M  V30 4712 H 434.708 -4.17674 -5.05202 0
M  V30 4713 H 434.228 -2.51041 -5.44737 0
M  V30 4714 H 435.907 -3.04403 -5.70918 0
M  V30 4715 N 436.039 1.36541 -0.78704 0
M  V30 4716 C 436.986 2.30082 -0.181901 0
M  V30 4717 C 437.956 1.5186 0.672896 0
M  V30 4718 O 439.141 1.80374 0.622072 0
M  V30 4719 C 436.281 3.3835 0.679197 0
M  V30 4720 C 435.394 4.31565 -0.193882 0
M  V30 4721 C 434.529 5.26915 0.673364 0
M  V30 4722 C 433.568 6.11769 -0.201315 0
M  V30 4723 N 432.705 6.99315 0.624777 0
M  V30 4724 H 437.545 2.81248 -0.985064 0
M  V30 4725 H 435.082 1.38437 -0.497342 0
M  V30 4726 H 437.04 3.99767 1.19341 0
M  V30 4727 H 435.67 2.8851 1.44781 0
M  V30 4728 H 434.722 3.71323 -0.826044 0
M  V30 4729 H 436.034 4.91191 -0.867937 0
M  V30 4730 H 435.188 5.9361 1.25348 0
M  V30 4731 H 433.927 4.67737 1.38105 0
M  V30 4732 H 432.932 5.44039 -0.793849 0
M  V30 4733 H 434.157 6.73022 -0.906568 0
M  V30 4734 H 432.103 6.42648 1.3168 0
M  V30 4735 H 432.02 7.56 0.00835237 0
M  V30 4736 H 433.288 7.70382 1.18879 0
M  V30 4737 N 437.518 0.538854 1.48102 0
M  V30 4738 C 438.766 0.00798599 2.02098 0
M  V30 4739 C 439.087 -1.33922 1.41739 0
M  V30 4740 O 438.357 -1.86932 0.585934 0
M  V30 4741 H 436.937 -3.62179e-05 0.747 0
M  V30 4742 H 439.599 0.7047 1.81714 0
M  V30 4743 H 438.695 -0.0937672 3.11959 0
M  V30 4744 N 438.996 -1.55193 0.274407 0
M  V30 4745 C 439.928 -2.1989 -0.646595 0
M  V30 4746 C 440.941 -1.1834 -1.11801 0
M  V30 4747 O 442.13 -1.4507 -1.04004 0
M  V30 4748 C 439.23 -2.8104 -1.89393 0
M  V30 4749 C 438.403 -4.08274 -1.56943 0
M  V30 4750 C 437.462 -4.53478 -2.66916 0
M  V30 4751 O 436.488 -5.19267 -2.33132 0
M  V30 4752 N 437.69 -4.2356 -3.9696 0
M  V30 4753 H 440.455 -2.99556 -0.0928686 0
M  V30 4754 H 438.016 -1.61618 0.0954783 0
M  V30 4755 H 440.008 -3.08226 -2.62257 0
M  V30 4756 H 438.578 -2.05372 -2.35672 0
M  V30 4757 H 437.798 -3.88384 -0.674655 0
M  V30 4758 H 439.086 -4.91173 -1.32764 0
M  V30 4759 H 438.484 -3.70799 -4.27229 0
M  V30 4760 H 437.041 -4.55518 -4.66205 0
M  V30 4761 N 440.474 -0.00167713 -1.576 0
M  V30 4762 C 441.384 1.00548 -2.1196 0
M  V30 4763 C 442.4 1.3758 -1.06526 0
M  V30 4764 O 443.576 1.46278 -1.38436 0
M  V30 4765 C 440.641 2.27809 -2.6135 0
M  V30 4766 C 439.702 1.97074 -3.81393 0
M  V30 4767 C 438.935 3.18267 -4.28417 0
M  V30 4768 O 439.158 4.30009 -3.74765 0
M  V30 4769 O 438.092 3.02167 -5.20556 0
M  V30 4770 H 441.918 0.573373 -2.98238 0
M  V30 4771 H 439.503 0.217255 -1.47812 0
M  V30 4772 H 441.385 3.02568 -2.93309 0
M  V30 4773 H 440.06 2.70254 -1.78169 0
M  V30 4774 H 438.967 1.19785 -3.54404 0
M  V30 4775 H 440.3 1.59464 -4.65652 0
M  V30 4776 N 441.952 1.55251 0.271103 0
M  V30 4777 C 442.899 1.88261 1.33516 0
M  V30 4778 C 443.869 0.734296 1.48988 0
M  V30 4779 O 445.054 0.985741 1.63364 0
M  V30 4780 C 442.194 2.16168 2.69008 0
M  V30 4781 C 441.307 3.43678 2.61743 0
M  V30 4782 C 440.442 3.61276 3.89427 0
M  V30 4783 C 439.481 4.82472 3.7668 0
M  V30 4784 N 438.618 4.96717 4.96202 0
M  V30 4785 H 443.458 2.79015 1.04665 0
M  V30 4786 H 440.995 1.38137 0.505618 0
M  V30 4787 H 442.953 2.30349 3.47844 0
M  V30 4788 H 441.583 1.28646 2.96057 0
M  V30 4789 H 440.635 3.37959 1.74607 0
M  V30 4790 H 441.947 4.3265 2.48224 0
M  V30 4791 H 441.101 3.75284 4.76704 0
M  V30 4792 H 439.84 2.70492 4.05814 0
M  V30 4793 H 438.845 4.68465 2.87786 0
M  V30 4794 H 440.07 5.74692 3.61809 0
M  V30 4795 H 438.016 4.08865 5.12997 0
M  V30 4796 H 437.933 5.79738 4.85222 0
M  V30 4797 H 439.201 5.15113 5.85046 0
M  V30 4798 N 443.43 -0.535701 1.48216 0
M  V30 4799 C 444.66 -1.3148 1.59363 0
M  V30 4800 C 445.068 -1.8753 0.250844 0
M  V30 4801 O 444.411 -1.66821 -0.769174 0
M  V30 4802 C 444.473 -2.50731 2.57632 0
M  V30 4803 C 444.137 -2.15811 4.02833 0
M  V30 4804 C 445.134 -1.71822 4.90686 0
M  V30 4805 C 442.819 -2.26509 4.48329 0
M  V30 4806 C 444.813 -1.3899 6.22062 0
M  V30 4807 C 442.5 -1.93289 5.79726 0
M  V30 4808 C 443.498 -1.49599 6.66415 0
M  V30 4809 O 443.186 -1.16812 7.95368 0
M  V30 4810 H 442.918 -0.406315 0.540263 0
M  V30 4811 H 445.472 -0.653569 1.94725 0
M  V30 4812 H 443.702 -3.19817 2.1738 0
M  V30 4813 H 445.391 -3.12797 2.58675 0
M  V30 4814 H 446.157 -1.63031 4.56778 0
M  V30 4815 H 442.036 -2.59471 3.81045 0
M  V30 4816 H 445.58 -1.04816 6.89681 0
M  V30 4817 H 441.477 -2.01718 6.13172 0
M  V30 4818 H 442.245 -1.30259 8.08069 0
M  V30 4819 N 444.908 -1.36708 -0.784132 0
M  V30 4820 C 446.157 -1.30559 -1.53744 0
M  V30 4821 C 446.47 0.111374 -1.95283 0
M  V30 4822 O 447.676 0.29527 -2.6989 0
M  V30 4823 C 446.132 -2.29098 -2.77565 0
M  V30 4824 C 445.74 -3.76258 -2.43174 0
M  V30 4825 C 447.484 -2.31936 -3.55536 0
M  V30 4826 C 445.391 -4.6656 -3.63422 0
M  V30 4827 H 444.321 -0.48518 -0.577162 0
M  V30 4828 H 446.972 -1.62101 -0.859981 0
M  V30 4829 H 445.354 -1.90557 -3.47137 0
M  V30 4830 H 446.528 -4.23565 -1.81465 0
M  V30 4831 H 444.843 -3.76246 -1.78403 0
M  V30 4832 H 447.44 -2.9661 -4.44889 0
M  V30 4833 H 447.783 -1.3294 -3.94503 0
M  V30 4834 H 448.316 -2.6912 -2.92949 0
M  V30 4835 H 445.055 -5.66638 -3.29547 0
M  V30 4836 H 444.575 -4.23966 -4.24279 0
M  V30 4837 H 446.254 -4.8309 -4.30387 0
M  V30 4838 N 446.386 1.0089 -1.21074 0
M  V30 4839 C 447.797 1.56056 -1.02486 0
M  V30 4840 C 448.148 1.91728 0.416506 0
M  V30 4841 O 447.273 1.73066 1.29912 0
M  V30 4842 C 447.868 2.83563 -1.85411 0
M  V30 4843 C 446.427 3.3523 -1.71166 0
M  V30 4844 C 445.574 2.0846 -1.82865 0
M  V30 4845 H 448.525 0.831818 -1.35154 0
M  V30 4846 H 448.546 3.55286 -1.36205 0
M  V30 4847 H 448.058 2.57569 -2.9031 0
M  V30 4848 H 446.159 3.66167 -0.689361 0
M  V30 4849 H 446.272 4.06913 -2.52901 0
M  V30 4850 H 444.636 2.21275 -1.26132 0
M  V30 4851 H 445.419 1.84883 -2.89263 0
M  V30 4852 N 447.864 1.01787 1.20321 0
M  V30 4853 C 448.796 0.547357 2.22568 0
M  V30 4854 C 449.809 -0.370922 1.58518 0
M  V30 4855 O 450.998 -0.169067 1.77698 0
M  V30 4856 C 448.098 -0.223031 3.38165 0
M  V30 4857 C 447.271 0.697472 4.31803 0
M  V30 4858 C 446.33 -0.025562 5.26194 0
M  V30 4859 O 445.356 0.597367 5.66057 0
M  V30 4860 N 446.558 -1.29999 5.65757 0
M  V30 4861 H 449.323 1.42668 2.63564 0
M  V30 4862 H 446.884 0.895552 1.34876 0
M  V30 4863 H 448.876 -0.716002 3.98316 0
M  V30 4864 H 447.446 -1.00366 2.9605 0
M  V30 4865 H 446.666 1.37073 3.69601 0
M  V30 4866 H 447.954 1.32347 4.91286 0
M  V30 4867 H 447.352 -1.827 5.35385 0
M  V30 4868 H 445.909 -1.73766 6.28211 0
M  V30 4869 N 449.342 -1.36122 0.79427 0
M  V30 4870 C 450.588 -1.99406 0.369452 0
M  V30 4871 C 450.921 -1.62886 -1.05743 0
M  V30 4872 O 450.196 -0.886053 -1.73145 0
M  V30 4873 C 450.479 -3.56046 0.538833 0
M  V30 4874 C 450.332 -4.02404 2.00976 0
M  V30 4875 C 451.651 -4.40079 -0.0431359 0
M  V30 4876 H 448.77 -0.724397 0.135712 0
M  V30 4877 H 451.412 -1.61461 1.00151 0
M  V30 4878 H 449.562 -3.885 0.000771004 0
M  V30 4879 H 451.234 -3.80415 2.60926 0
M  V30 4880 H 449.477 -3.53765 2.51063 0
M  V30 4881 H 450.148 -5.11344 2.07922 0
M  V30 4882 H 452.624 -4.14013 0.416228 0
M  V30 4883 H 451.5 -5.48799 0.105374 0
M  V30 4884 H 451.761 -4.27264 -1.13571 0
M  V30 4885 N 450.82 -0.546701 -1.47814 0
M  V30 4886 C 451.783 0.196287 -2.28358 0
M  V30 4887 C 452.783 0.852437 -1.36346 0
M  V30 4888 O 453.973 0.709913 -1.59078 0
M  V30 4889 C 451.105 1.28579 -3.15722 0
M  V30 4890 H 452.298 -0.511086 -2.95513 0
M  V30 4891 H 449.851 -0.303248 -1.5333 0
M  V30 4892 H 450.586 2.0259 -2.53235 0
M  V30 4893 H 450.371 0.820229 -3.83425 0
M  V30 4894 H 451.861 1.80793 -3.76435 0
M  V30 4895 N 452.299 1.55045 -0.282633 0
M  V30 4896 C 453.545 2.00056 0.332481 0
M  V30 4897 C 453.878 1.1708 1.54939 0
M  V30 4898 O 453.153 0.2427 1.9298 0
M  V30 4899 C 453.436 3.53086 0.70725 0
M  V30 4900 C 453.289 4.46813 -0.517521 0
M  V30 4901 C 454.608 4.12245 1.54084 0
M  V30 4902 H 451.727 0.727268 0.119373 0
M  V30 4903 H 454.369 1.85932 -0.391076 0
M  V30 4904 H 452.519 3.65253 1.32372 0
M  V30 4905 H 454.191 4.46579 -1.15607 0
M  V30 4906 H 452.434 4.18163 -1.1542 0
M  V30 4907 H 453.105 5.51595 -0.211426 0
M  V30 4908 H 455.581 4.03401 1.02013 0
M  V30 4909 H 454.457 5.19515 1.77186 0
M  V30 4910 H 454.718 3.62951 2.52427 0
M  V30 4911 N 453.777 0.010035 1.57597 0
M  V30 4912 C 454.707 -0.976857 2.12084 0
M  V30 4913 C 455.688 -1.35191 1.03235 0
M  V30 4914 O 456.873 -1.43389 1.3097 0
M  V30 4915 C 454.003 -2.26548 2.63236 0
M  V30 4916 C 452.957 -2.03175 3.76701 0
M  V30 4917 C 452.283 -3.38138 4.14206 0
M  V30 4918 C 453.583 -1.38625 5.03568 0
M  V30 4919 H 455.277 -0.523145 2.94794 0
M  V30 4920 H 452.823 -0.250195 1.4181 0
M  V30 4921 H 454.776 -2.95952 2.99984 0
M  V30 4922 H 453.5 -2.74051 1.77661 0
M  V30 4923 H 452.159 -1.36195 3.40362 0
M  V30 4924 H 451.807 -3.83363 3.25641 0
M  V30 4925 H 451.507 -3.23312 4.90656 0
M  V30 4926 H 453.031 -4.08841 4.53521 0
M  V30 4927 H 454.445 -1.98 5.38023 0
M  V30 4928 H 452.842 -1.34256 5.84889 0
M  V30 4929 H 453.912 -0.356722 4.83586 0
M  V30 4930 N 455.255 -1.55392 -0.262866 0
M  V30 4931 C 456.666 -1.67079 -0.833158 0
M  V30 4932 C 457.017 -0.604539 -1.86654 0
M  V30 4933 O 456.142 0.252138 -2.14926 0
M  V30 4934 C 456.737 -3.02891 -1.51797 0
M  V30 4935 C 455.296 -3.16571 -2.03617 0
M  V30 4936 C 454.443 -2.62909 -0.881701 0
M  V30 4937 H 457.394 -1.58652 -0.0389986 0
M  V30 4938 H 457.415 -2.96445 -2.38538 0
M  V30 4939 H 456.927 -3.80473 -0.765619 0
M  V30 4940 H 455.028 -2.43782 -2.81782 0
M  V30 4941 H 455.141 -4.23271 -2.24452 0
M  V30 4942 H 453.505 -2.20324 -1.27786 0
M  V30 4943 H 454.288 -3.43003 -0.14269 0
M  V30 4944 N 456.733 0.527833 -1.48498 0
M  V30 4945 C 457.663 1.64136 -1.66077 0
M  V30 4946 C 458.644 1.62286 -0.509625 0
M  V30 4947 O 459.829 1.79449 -0.742413 0
M  V30 4948 C 456.959 3.02717 -1.70234 0
M  V30 4949 C 455.913 3.19426 -2.8487 0
M  V30 4950 C 455.239 4.5909 -2.74118 0
M  V30 4951 C 456.539 3.01993 -4.26142 0
M  V30 4952 H 458.233 1.4968 -2.593 0
M  V30 4953 H 455.779 0.718654 -1.24785 0
M  V30 4954 H 457.732 3.80491 -1.8112 0
M  V30 4955 H 456.456 3.18201 -0.735911 0
M  V30 4956 H 455.115 2.4407 -2.73542 0
M  V30 4957 H 454.763 4.71413 -1.7544 0
M  V30 4958 H 454.463 4.71214 -3.51042 0
M  V30 4959 H 455.987 5.3896 -2.86974 0
M  V30 4960 H 457.401 3.69558 -4.38292 0
M  V30 4961 H 455.798 3.2561 -5.04082 0
M  V30 4962 H 456.868 1.98396 -4.42456 0
M  V30 4963 N 458.211 1.37122 0.776871 0
M  V30 4964 C 459.459 1.31787 1.53221 0
M  V30 4965 C 459.78 -0.0987589 1.9475 0
M  V30 4966 O 459.05 -1.0417 1.65908 0
M  V30 4967 H 457.63 0.484839 0.568278 0
M  V30 4968 H 460.292 1.71556 0.924917 0
M  V30 4969 H 459.388 1.95355 2.43398 0
M  V30 4970 N 459.689 -1.00246 1.21608 0
M  V30 4971 C 460.917 -1.77631 1.06089 0
M  V30 4972 C 461.332 -1.84746 -0.38916 0
M  V30 4973 O 460.689 -1.31068 -1.26994 0
M  V30 4974 C 460.74 -3.21415 1.65453 0
M  V30 4975 O 460.461 -3.14703 3.04785 0
M  V30 4976 C 461.962 -4.15289 1.55079 0
M  V30 4977 H 459.182 -0.558162 0.37242 0
M  V30 4978 H 461.726 -1.26093 1.60999 0
M  V30 4979 H 459.881 -3.70053 1.14629 0
M  V30 4980 H 460.295 -4.05056 3.33212 0
M  V30 4981 H 461.769 -5.13965 2.01355 0
M  V30 4982 H 462.246 -4.36279 0.505665 0
M  V30 4983 H 462.852 -3.72543 2.05163 0
M  V30 4984 N 461.167 -1.02423 -1.1978 0
M  V30 4985 C 462.415 -0.716569 -1.8897 0
M  V30 4986 C 462.736 0.756769 -1.79716 0
M  V30 4987 O 462.006 1.5449 -1.20456 0
M  V30 4988 H 460.586 -0.262062 -0.699523 0
M  V30 4989 H 463.248 -1.29747 -1.45436 0
M  V30 4990 H 462.344 -1.00675 -2.95417 0
M  V30 4991 N 462.645 1.35699 -0.801477 0
M  V30 4992 C 463.593 2.3177 -0.196317 0
M  V30 4993 C 464.587 1.56388 0.651081 0
M  V30 4994 O 465.793 1.71557 0.544815 0
M  V30 4995 H 462.168 0.750669 -0.0447189 0
M  V30 4996 H 464.139 2.8036 -1.02181 0
M  V30 4997 C 462.888 3.41671 0.644702 0
M  V30 4998 H 462.211 3.998 0.0019921 0
M  V30 4999 H 463.651 4.11184 1.0346 0
M  V30 5000 C 462.11 2.84271 1.80808 0
M  V30 5001 O 462.64 2.77408 2.9053 0
M  V30 5002 N 460.846 2.41391 1.61799 0
M  V30 5003 H 460.393 2.47173 0.725493 0
M  V30 5004 H 460.351 2.03334 2.39797 0
M  V30 5005 N 464.123 0.554532 1.47522 0
M  V30 5006 C 465.4 -0.0360704 1.95567 0
M  V30 5007 C 465.78 -1.48828 1.49711 0
M  V30 5008 O 465.128 -2.16366 0.734717 0
M  V30 5009 C 465.338 0.106631 3.48837 0
M  V30 5010 C 466.686 -0.0400899 4.24581 0
M  V30 5011 O 467.71 0.0340453 3.56184 0
M  V30 5012 O 466.569 -0.199111 5.46137 0
M  V30 5013 H 463.663 -0.0656294 0.824392 0
M  V30 5014 H 466.209 0.620867 1.57935 0
M  V30 5015 H 464.981 1.11727 3.7501 0
M  V30 5016 H 464.604 -0.58804 3.93227 0
M  V30 5017 N 465.601 -1.54893 0.290851 0
M  V30 5018 C 466.531 -2.26103 -0.583084 0
M  V30 5019 C 467.512 -1.25684 -1.14619 0
M  V30 5020 O 468.697 -1.54436 -1.17741 0
M  V30 5021 C 465.827 -2.99409 -1.75987 0
M  V30 5022 C 464.781 -4.0689 -1.32758 0
M  V30 5023 C 464.107 -4.67856 -2.58872 0
M  V30 5024 C 465.407 -5.20215 -0.46624 0
M  V30 5025 H 467.101 -2.99398 0.0108214 0
M  V30 5026 H 464.647 -1.43998 0.00664468 0
M  V30 5027 H 466.6 -3.47943 -2.37727 0
M  V30 5028 H 465.324 -2.23675 -2.37985 0
M  V30 5029 H 463.983 -3.59191 -0.733299 0
M  V30 5030 H 463.631 -3.88772 -3.19163 0
M  V30 5031 H 463.331 -5.40438 -2.30653 0
M  V30 5032 H 464.855 -5.19147 -3.21433 0
M  V30 5033 H 466.269 -5.64704 -0.989047 0
M  V30 5034 H 464.666 -5.99455 -0.27826 0
M  V30 5035 H 465.736 -4.82198 0.511173 0
M  V30 5036 N 467.08 -0.0183926 -1.57589 0
M  V30 5037 C 468.305 0.676634 -1.96052 0
M  V30 5038 C 468.73 1.6548 -0.894307 0
M  V30 5039 O 468.088 1.80712 0.145849 0
M  V30 5040 C 468.136 1.36872 -3.33614 0
M  V30 5041 O 467.24 2.48372 -3.29219 0
M  V30 5042 H 466.581 0.1786 -0.63953 0
M  V30 5043 H 469.111 -0.077056 -2.04455 0
M  V30 5044 H 469.121 1.72797 -3.69601 0
M  V30 5045 H 467.796 0.651636 -4.10763 0
M  V30 5046 H 466.373 2.14639 -3.04934 0
M  V30 5047 N 468.558 1.5553 0.254621 0
M  V30 5048 C 469.506 1.9048 1.33492 0
M  V30 5049 C 470.5 0.78304 1.50216 0
M  V30 5050 O 471.706 0.967582 1.51782 0
M  V30 5051 H 468.081 0.604846 0.44684 0
M  V30 5052 H 470.052 2.80688 1.01275 0
M  V30 5053 C 468.801 2.20928 2.68489 0
M  V30 5054 H 468.124 3.06742 2.56417 0
M  V30 5055 H 469.564 2.49291 3.42972 0
M  V30 5056 C 468.023 1.023 3.20993 0
M  V30 5057 O 468.553 0.267027 4.00811 0
M  V30 5058 N 466.759 0.815714 2.78917 0
M  V30 5059 H 466.306 1.43217 2.14119 0
M  V30 5060 H 466.264 0.0236532 3.14391 0
M  V30 5061 N 470.036 -0.519951 1.48776 0
M  V30 5062 C 471.264 -1.29971 1.60982 0
M  V30 5063 C 471.679 -1.86803 0.273885 0
M  V30 5064 O 471.036 -1.66904 -0.738193 0
M  V30 5065 C 471.087 -2.44346 2.66415 0
M  V30 5066 O 470.808 -1.89855 3.94825 0
M  V30 5067 C 472.309 -3.36014 2.89153 0
M  V30 5068 H 469.529 -0.394891 0.542496 0
M  V30 5069 H 472.073 -0.626214 1.94676 0
M  V30 5070 H 470.228 -3.07562 2.35552 0
M  V30 5071 H 470.642 -2.64798 4.5275 0
M  V30 5072 H 472.116 -4.12593 3.66703 0
M  V30 5073 H 472.593 -3.91859 1.98351 0
M  V30 5074 H 473.199 -2.78582 3.21359 0
M  V30 5075 N 471.514 -1.37532 -0.769588 0
M  V30 5076 C 472.444 -1.36172 -1.89682 0
M  V30 5077 C 473.425 -0.23001 -1.68538 0
M  V30 5078 O 474.61 -0.43069 -1.89364 0
M  V30 5079 C 471.74 -1.1701 -3.26995 0
M  V30 5080 C 470.694 -2.27216 -3.62708 0
M  V30 5081 C 470.02 -1.93174 -4.98586 0
M  V30 5082 C 471.32 -3.6941 -3.69234 0
M  V30 5083 H 473.014 -2.30499 -1.91078 0
M  V30 5084 H 470.56 -1.10953 -0.917902 0
M  V30 5085 H 472.513 -1.14688 -4.05493 0
M  V30 5086 H 471.237 -0.191395 -3.26039 0
M  V30 5087 H 469.896 -2.28697 -2.86519 0
M  V30 5088 H 469.544 -0.938281 -4.94171 0
M  V30 5089 H 469.244 -2.66973 -5.23449 0
M  V30 5090 H 470.768 -1.92443 -5.79481 0
M  V30 5091 H 472.182 -3.70047 -4.37879 0
M  V30 5092 H 470.579 -4.4228 -4.05597 0
M  V30 5093 H 471.649 -4.0288 -2.69844 0
M  V30 5094 N 472.992 0.995999 -1.22138 0
M  V30 5095 C 474.24 1.73167 -1.042 0
M  V30 5096 C 474.561 1.90329 0.42423 0
M  V30 5097 O 473.831 1.4607 1.30539 0
M  V30 5098 H 472.411 0.641593 -0.38258 0
M  V30 5099 H 475.073 1.19974 -1.53598 0
M  V30 5100 H 474.169 2.72734 -1.51731 0
M  V30 5101 N 474.47 1.03057 1.19235 0
M  V30 5102 C 475.716 0.738841 1.89506 0
M  V30 5103 C 476.071 -0.724807 1.78225 0
M  V30 5104 O 475.364 -1.52118 1.16494 0
M  V30 5105 C 475.558 1.1268 3.39172 0
M  V30 5106 C 475.387 2.62662 3.65019 0
M  V30 5107 C 474.157 3.29658 3.82954 0
M  V30 5108 C 476.355 3.60873 3.66436 0
M  V30 5109 N 474.337 4.68726 3.96446 0
M  V30 5110 C 475.708 4.85566 3.8552 0
M  V30 5111 C 477.763 3.54647 3.49471 0
M  V30 5112 C 476.466 6.04783 3.89397 0
M  V30 5113 C 478.492 4.73281 3.54625 0
M  V30 5114 C 477.854 5.96789 3.74196 0
M  V30 5115 H 473.953 0.322256 0.712513 0
M  V30 5116 H 476.537 1.31822 1.43287 0
M  V30 5117 H 474.708 0.575612 3.84111 0
M  V30 5118 H 476.44 0.787145 3.96971 0
M  V30 5119 H 473.195 2.8007 3.81913 0
M  V30 5120 H 473.619 5.40971 4.07037 0
M  V30 5121 H 478.261 2.60143 3.33295 0
M  V30 5122 H 475.979 6.99654 4.04364 0
M  V30 5123 H 479.565 4.70094 3.42787 0
M  V30 5124 H 478.445 6.87051 3.78061 0
M  V30 5125 N 475.948 -1.35272 0.808662 0
M  V30 5126 C 477.196 -1.98316 0.389233 0
M  V30 5127 C 477.517 -1.64465 -1.04767 0
M  V30 5128 O 476.787 -0.928175 -1.72516 0
M  V30 5129 H 475.367 -0.733585 0.140935 0
M  V30 5130 H 478.029 -1.6515 1.03496 0
M  V30 5131 H 477.125 -3.08123 0.496631 0
M  V30 5132 N 477.426 -0.562348 -1.47226 0
M  V30 5133 C 478.654 -0.0452275 -2.06851 0
M  V30 5134 C 479.069 1.25078 -1.41424 0
M  V30 5135 O 478.426 1.75156 -0.512513 0
M  V30 5136 C 478.477 0.148674 -3.61194 0
M  V30 5137 O 478.198 -1.09602 -4.24169 0
M  V30 5138 C 479.699 0.702488 -4.37699 0
M  V30 5139 H 476.919 -0.0481775 -0.669268 0
M  V30 5140 H 479.463 -0.777223 -1.89155 0
M  V30 5141 H 477.618 0.830817 -3.78386 0
M  V30 5142 H 478.032 -0.896982 -5.16773 0
M  V30 5143 H 479.506 0.78743 -5.46355 0
M  V30 5144 H 479.983 1.71493 -4.04335 0
M  V30 5145 H 480.589 0.0558772 -4.25263 0
M  V30 5146 N 478.904 1.54736 -0.299062 0
M  V30 5147 C 480.152 1.99706 0.31017 0
M  V30 5148 C 480.473 1.18896 1.54559 0
M  V30 5149 O 479.743 0.284445 1.93824 0
M  V30 5150 H 478.323 0.737686 0.117596 0
M  V30 5151 H 480.985 1.9054 -0.409943 0
M  V30 5152 H 480.081 3.06596 0.58355 0
M  V30 5153 N 480.382 0.0267497 1.57577 0
M  V30 5154 C 481.612 -0.6617 1.95717 0
M  V30 5155 C 482.02 -1.66331 0.901706 0
M  V30 5156 O 481.363 -1.83273 -0.125241 0
M  V30 5157 C 481.425 -1.42649 3.29987 0
M  V30 5158 C 481.089 -0.583482 4.5326 0
M  V30 5159 C 482.086 0.140221 5.19711 0
M  V30 5160 C 479.771 -0.521581 4.99585 0
M  V30 5161 C 481.765 0.914523 6.30805 0
M  V30 5162 C 479.452 0.256428 6.10562 0
M  V30 5163 C 480.45 0.973189 6.76031 0
M  V30 5164 O 480.138 1.73845 7.84878 0
M  V30 5165 H 479.87 -0.187483 0.649481 0
M  V30 5166 H 482.424 0.0820847 2.05236 0
M  V30 5167 H 480.654 -2.21536 3.16952 0
M  V30 5168 H 482.343 -2.00282 3.53047 0
M  V30 5169 H 483.109 0.101716 4.84893 0
M  V30 5170 H 478.988 -1.06904 4.48433 0
M  V30 5171 H 482.532 1.4745 6.81839 0
M  V30 5172 H 478.429 0.296657 6.44818 0
M  V30 5173 H 479.197 1.65797 8.01532 0
M  V30 5174 N 481.861 -1.55662 -0.24637 0
M  V30 5175 C 482.824 -1.89558 -1.28842 0
M  V30 5176 C 483.824 -0.772082 -1.41052 0
M  V30 5177 O 485.014 -1.04007 -1.39743 0
M  V30 5178 C 482.146 -2.12449 -2.66605 0
M  V30 5179 H 483.339 -2.82735 -1.00004 0
M  V30 5180 H 480.892 -1.48562 -0.485684 0
M  V30 5181 H 481.627 -1.21742 -3.00582 0
M  V30 5182 H 481.412 -2.94273 -2.59125 0
M  V30 5183 H 482.902 -2.39854 -3.41847 0
M  V30 5184 N 483.339 0.512053 -1.4905 0
M  V30 5185 C 484.587 1.26436 -1.57665 0
M  V30 5186 C 484.908 1.93255 -0.260293 0
M  V30 5187 O 484.178 1.82206 0.719564 0
M  V30 5188 H 482.758 0.469658 -0.580888 0
M  V30 5189 H 485.42 0.594398 -1.85615 0
M  V30 5190 H 484.516 2.03417 -2.36702 0
M  V30 5191 N 484.817 1.37938 0.762283 0
M  V30 5192 C 485.727 1.36681 1.90671 0
M  V30 5193 C 486.743 0.265078 1.71969 0
M  V30 5194 O 487.919 0.502055 1.95042 0
M  V30 5195 C 484.984 1.18211 3.25925 0
M  V30 5196 C 484.045 2.3811 3.57214 0
M  V30 5197 C 483.278 2.20512 4.86014 0
M  V30 5198 O 483.501 1.19429 5.57757 0
M  V30 5199 O 482.435 3.08911 5.16583 0
M  V30 5200 H 486.261 2.33091 1.94685 0
M  V30 5201 H 483.846 1.18767 0.906356 0
M  V30 5202 H 485.728 1.09937 4.06807 0
M  V30 5203 H 484.403 0.248807 3.22742 0
M  V30 5204 H 483.31 2.51958 2.76529 0
M  V30 5205 H 484.643 3.30041 3.65149 0
M  V30 5206 N 486.295 -0.989507 1.22664 0
M  V30 5207 C 487.544 -1.72375 1.04737 0
M  V30 5208 C 487.857 -1.91096 -0.417316 0
M  V30 5209 O 489.063 -2.6188 -0.716334 0
M  V30 5210 C 487.519 -3.10161 1.82561 0
M  V30 5211 C 487.127 -2.99358 3.333 0
M  V30 5212 C 488.871 -3.87607 1.73093 0
M  V30 5213 C 486.778 -4.32319 4.03552 0
M  V30 5214 H 485.708 -0.646326 0.388302 0
M  V30 5215 H 488.359 -1.10437 1.46546 0
M  V30 5216 H 486.741 -3.728 1.33552 0
M  V30 5217 H 487.915 -2.45863 3.89728 0
M  V30 5218 H 486.23 -2.35392 3.43481 0
M  V30 5219 H 488.827 -4.86025 2.22899 0
M  V30 5220 H 489.17 -4.10509 0.691976 0
M  V30 5221 H 489.703 -3.31652 2.19663 0
M  V30 5222 H 486.442 -4.14616 5.07714 0
M  V30 5223 H 485.962 -4.85714 3.51911 0
M  V30 5224 H 487.641 -5.01051 4.09337 0
M  V30 5225 N 487.773 -1.03688 -1.18687 0
M  V30 5226 C 489.184 -0.766488 -1.70241 0
M  V30 5227 C 489.535 0.713052 -1.82784 0
M  V30 5228 O 488.66 1.55529 -1.50465 0
M  V30 5229 C 489.255 -1.38475 -3.09209 0
M  V30 5230 C 487.814 -1.16276 -3.5799 0
M  V30 5231 C 486.961 -1.4778 -2.34641 0
M  V30 5232 H 489.912 -1.20378 -1.03415 0
M  V30 5233 H 489.933 -0.785939 -3.72295 0
M  V30 5234 H 489.445 -2.46157 -3.00048 0
M  V30 5235 H 487.546 -0.104508 -3.72453 0
M  V30 5236 H 487.659 -1.8571 -4.41643 0
M  V30 5237 H 486.023 -0.897366 -2.38368 0
M  V30 5238 H 486.806 -2.56562 -2.28102 0
M  V30 5239 N 489.251 1.34841 -0.815825 0
M  V30 5240 C 490.497 1.98793 -0.401129 0
M  V30 5241 C 490.83 1.64548 1.03139 0
M  V30 5242 O 490.105 0.913487 1.71714 0
M  V30 5243 C 490.388 3.55143 -0.595409 0
M  V30 5244 C 490.241 3.99155 -2.07352 0
M  V30 5245 C 491.56 4.40092 -0.0268823 0
M  V30 5246 H 488.679 0.722146 -0.14722 0
M  V30 5247 H 491.321 1.59847 -1.02707 0
M  V30 5248 H 489.471 3.8845 -0.0625779 0
M  V30 5249 H 491.143 3.76216 -2.66945 0
M  V30 5250 H 489.386 3.49726 -2.56659 0
M  V30 5251 H 490.057 5.07971 -2.1603 0
M  V30 5252 H 492.533 4.13298 -0.482042 0
M  V30 5253 H 491.409 5.48562 -0.19267 0
M  V30 5254 H 491.67 4.29016 1.06759 0
M  V30 5255 N 490.729 0.570148 1.46925 0
M  V30 5256 C 491.692 -0.159933 2.28641 0
M  V30 5257 C 492.692 -0.830638 1.37685 0
M  V30 5258 O 493.882 -0.684516 1.60187 0
M  V30 5259 C 491.014 -1.2354 3.17727 0
M  V30 5260 H 492.207 0.558035 2.94662 0
M  V30 5261 H 489.76 0.327603 1.52828 0
M  V30 5262 H 490.495 -1.98535 2.56426 0
M  V30 5263 H 490.28 -0.759125 3.84681 0
M  V30 5264 H 491.77 -1.74782 3.79264 0
M  V30 5265 N 492.207 -1.54576 0.307264 0
M  V30 5266 C 493.139 -2.21212 -0.599807 0
M  V30 5267 C 494.152 -1.20685 -1.09266 0
M  V30 5268 O 495.341 -1.47244 -1.00903 0
M  V30 5269 C 492.441 -2.84994 -1.83389 0
M  V30 5270 C 491.614 -4.11511 -1.48248 0
M  V30 5271 C 490.673 -4.59038 -2.57237 0
M  V30 5272 O 489.699 -5.24095 -2.22065 0
M  V30 5273 N 490.901 -4.31884 -3.87887 0
M  V30 5274 H 493.666 -2.99686 -0.0293075 0
M  V30 5275 H 491.227 -1.61379 0.129738 0
M  V30 5276 H 493.219 -3.1372 -2.5566 0
M  V30 5277 H 491.789 -2.10324 -2.31263 0
M  V30 5278 H 491.009 -3.89728 -0.592122 0
M  V30 5279 H 492.297 -4.93879 -1.22316 0
M  V30 5280 H 491.695 -3.79778 -4.19268 0
M  V30 5281 H 490.252 -4.65304 -4.56438 0
M  V30 5282 N 493.685 -0.035106 -1.57561 0
M  V30 5283 C 494.931 0.64318 -1.92331 0
M  V30 5284 C 495.264 1.71434 -0.912368 0
M  V30 5285 O 494.539 1.94395 0.0640303 0
M  V30 5286 C 494.822 1.25411 -3.37556 0
M  V30 5287 C 494.675 0.192109 -4.4939 0
M  V30 5288 C 495.994 2.17041 -3.82859 0
M  V30 5289 H 493.113 0.232341 -0.699419 0
M  V30 5290 H 495.755 -0.0935889 -1.89769 0
M  V30 5291 H 493.905 1.88205 -3.39869 0
M  V30 5292 H 495.577 -0.438849 -4.59208 0
M  V30 5293 H 493.82 -0.481725 -4.31117 0
M  V30 5294 H 494.491 0.659292 -5.48049 0
M  V30 5295 H 496.967 1.64228 -3.8232 0
M  V30 5296 H 495.843 2.56738 -4.85157 0
M  V30 5297 H 496.104 3.06401 -3.18702 0
M  V30 5298 N 495.163 1.55791 0.238111 0
M  V30 5299 C 496.093 1.94068 1.29846 0
M  V30 5300 C 497.074 0.806726 1.49753 0
M  V30 5301 O 498.259 1.06772 1.62214 0
M  V30 5302 C 495.389 2.24302 2.65153 0
M  V30 5303 C 494.343 3.40032 2.59927 0
M  V30 5304 C 493.669 3.55829 3.99111 0
M  V30 5305 C 494.969 4.75476 2.16148 0
M  V30 5306 H 496.663 2.82887 0.980563 0
M  V30 5307 H 494.209 1.36105 0.470253 0
M  V30 5308 H 496.162 2.4967 3.39475 0
M  V30 5309 H 494.886 1.32318 2.98596 0
M  V30 5310 H 493.545 3.14687 1.88063 0
M  V30 5311 H 493.193 2.6125 4.29834 0
M  V30 5312 H 492.893 4.3366 3.96501 0
M  V30 5313 H 494.417 3.83528 4.7512 0
M  V30 5314 H 495.831 5.00158 2.80205 0
M  V30 5315 H 494.228 5.56472 2.24631 0
M  V30 5316 H 495.298 4.71946 1.11333 0
M  V30 5317 N 496.642 -0.504142 1.49319 0
M  V30 5318 C 498.058 -0.835039 1.36012 0
M  V30 5319 C 498.258 -1.97674 0.390808 0
M  V30 5320 O 497.314 -2.51867 -0.178655 0
M  V30 5321 C 498.627 -1.17821 2.76656 0
M  V30 5322 C 500.175 -1.2866 2.85334 0
M  V30 5323 C 500.65 -1.66307 4.26739 0
M  V30 5324 N 502.141 -1.73362 4.29534 0
M  V30 5325 C 502.876 -2.0393 5.35911 0
M  V30 5326 N 502.372 -2.32744 6.52535 0
M  V30 5327 N 504.165 -2.05155 5.23324 0
M  V30 5328 H 496.316 0.248764 2.10938 0
M  V30 5329 H 498.579 0.0486962 0.946748 0
M  V30 5330 H 498.285 -0.412682 3.4927 0
M  V30 5331 H 498.159 -2.12239 3.11825 0
M  V30 5332 H 500.546 -2.04285 2.1296 0
M  V30 5333 H 500.627 -0.323004 2.53752 0
M  V30 5334 H 500.271 -0.91234 4.99639 0
M  V30 5335 H 500.201 -2.63761 4.55782 0
M  V30 5336 H 502.692 -1.53268 3.45424 0
M  V30 5337 H 503.005 -2.55248 7.2943 0
M  V30 5338 H 501.35 -2.30207 6.55767 0
M  V30 5339 H 504.541 -1.82119 4.3122 0
M  V30 5340 H 504.714 -2.28644 6.06322 0
M  V30 5341 N 498.12 -1.38341 -0.754957 0
M  V30 5342 C 499.068 -1.35573 -1.89005 0
M  V30 5343 C 500.062 -0.241824 -1.67665 0
M  V30 5344 O 501.268 -0.410785 -1.7525 0
M  V30 5345 H 497.643 -0.422898 -0.621821 0
M  V30 5346 H 499.614 -2.31359 -1.88455 0
M  V30 5347 C 498.363 -1.19631 -3.26471 0
M  V30 5348 H 497.686 -2.04605 -3.43477 0
M  V30 5349 H 499.126 -1.21748 -4.06144 0
M  V30 5350 C 497.585 0.0968705 -3.36761 0
M  V30 5351 O 498.115 1.07439 -3.87066 0
M  V30 5352 N 496.321 0.153242 -2.90196 0
M  V30 5353 H 495.868 -0.642908 -2.49448 0
M  V30 5354 H 495.826 1.01807 -2.9746 0
M  V30 5355 N 499.598 0.982988 -1.23187 0
M  V30 5356 C 500.844 1.72648 -1.06398 0
M  V30 5357 C 501.177 1.90066 0.398561 0
M  V30 5358 O 500.452 1.45105 1.29518 0
M  V30 5359 C 500.735 3.12627 -1.78707 0
M  V30 5360 C 500.588 3.02795 -3.32618 0
M  V30 5361 C 501.907 4.11997 -1.54747 0
M  V30 5362 H 499.026 0.626649 -0.387918 0
M  V30 5363 H 501.668 1.14455 -1.51658 0
M  V30 5364 H 499.818 3.62308 -1.40234 0
M  V30 5365 H 501.49 2.60659 -3.80598 0
M  V30 5366 H 499.733 2.39362 -3.61785 0
M  V30 5367 H 500.404 4.01893 -3.78399 0
M  V30 5368 H 502.88 3.71114 -1.88186 0
M  V30 5369 H 501.756 5.08037 -2.07821 0
M  V30 5370 H 502.017 4.39462 -0.482249 0
M  V30 5371 N 501.076 1.04316 1.18135 0
M  V30 5372 C 502.009 0.580823 2.20685 0
M  V30 5373 C 502.987 -0.385943 1.57953 0
M  V30 5374 O 504.171 -0.299654 1.86103 0
M  V30 5375 C 501.298 -0.151162 3.38363 0
M  V30 5376 C 500.344 0.769247 4.19505 0
M  V30 5377 S 501.177 2.25352 4.85774 0
M  V30 5378 C 502.333 1.53246 6.0685 0
M  V30 5379 H 502.566 1.44968 2.5956 0
M  V30 5380 H 500.099 0.85434 1.28609 0
M  V30 5381 H 502.057 -0.567315 4.06561 0
M  V30 5382 H 500.718 -0.995936 2.97892 0
M  V30 5383 H 499.911 0.203335 5.0359 0
M  V30 5384 H 499.513 1.12436 3.56699 0
M  V30 5385 H 501.805 0.82689 6.72435 0
M  V30 5386 H 502.748 2.35044 6.67952 0
M  V30 5387 H 503.156 1.0237 5.5514 0
M  V30 5388 N 502.554 -1.34406 0.822964 0
M  V30 5389 C 503.464 -2.33298 0.246838 0
M  V30 5390 C 504.48 -1.62625 -0.618797 0
M  V30 5391 O 505.656 -1.94391 -0.526685 0
M  V30 5392 C 502.721 -3.41785 -0.581731 0
M  V30 5393 C 501.782 -4.28206 0.306309 0
M  V30 5394 C 501.015 -5.31512 -0.48281 0
M  V30 5395 O 501.238 -5.43973 -1.71607 0
M  V30 5396 O 500.172 -6.01749 0.134884 0
M  V30 5397 H 503.998 -2.84401 1.06534 0
M  V30 5398 H 501.583 -1.37466 0.585108 0
M  V30 5399 H 503.465 -4.08028 -1.05313 0
M  V30 5400 H 502.14 -2.92925 -1.37756 0
M  V30 5401 H 501.047 -3.64885 0.825199 0
M  V30 5402 H 502.38 -4.80507 1.06649 0
M  V30 5403 N 504.032 -0.577932 -1.46621 0
M  V30 5404 C 504.995 0.147805 -2.28723 0
M  V30 5405 C 505.995 0.823325 -1.38123 0
M  V30 5406 O 507.185 0.676011 -1.60548 0
M  V30 5407 C 504.317 1.21853 -3.18378 0
M  V30 5408 H 505.51 -0.573654 -2.94362 0
M  V30 5409 H 503.063 -0.335703 -1.52652 0
M  V30 5410 H 503.798 1.97173 -2.57475 0
M  V30 5411 H 503.583 0.738714 -3.85078 0
M  V30 5412 H 505.073 1.72768 -3.80186 0
M  V30 5413 N 505.51 1.54411 -0.315457 0
M  V30 5414 C 506.787 1.92562 0.343398 0
M  V30 5415 C 507.167 1.24423 1.70535 0
M  V30 5416 O 506.515 0.385051 2.25232 0
M  V30 5417 C 506.725 3.46168 0.443687 0
M  V30 5418 C 508.073 4.18659 0.707783 0
M  V30 5419 O 509.097 3.52281 0.52693 0
M  V30 5420 O 507.956 5.36198 1.05612 0
M  V30 5421 H 505.05 0.80379 0.194552 0
M  V30 5422 H 507.596 1.65738 -0.364577 0
M  V30 5423 H 506.368 3.8792 -0.513172 0
M  V30 5424 H 505.991 3.79073 1.19956 0
M  V30 5425 N 506.988 0.0434614 1.5754 0
M  V30 5426 C 508.236 -0.630786 1.92004 0
M  V30 5427 C 508.557 -1.71836 0.921807 0
M  V30 5428 O 507.827 -1.9587 -0.034522 0
M  V30 5429 H 506.407 -0.235988 0.708745 0
M  V30 5430 H 509.069 0.0946462 1.9467 0
M  V30 5431 H 508.165 -1.07434 2.93026 0
M  V30 5432 N 508.466 -1.55915 -0.229846 0
M  V30 5433 C 509.715 -1.77742 -0.953455 0
M  V30 5434 C 510.028 -0.610524 -1.85828 0
M  V30 5435 O 511.234 -0.712219 -2.61992 0
M  V30 5436 C 509.69 -3.14738 -1.74551 0
M  V30 5437 C 509.298 -4.39126 -0.887242 0
M  V30 5438 C 511.042 -3.45895 -2.46084 0
M  V30 5439 C 508.949 -5.67149 -1.67617 0
M  V30 5440 H 507.879 -0.662648 -0.359741 0
M  V30 5441 H 510.53 -1.82322 -0.207576 0
M  V30 5442 H 508.912 -3.04311 -2.53399 0
M  V30 5443 H 510.086 -4.60588 -0.139892 0
M  V30 5444 H 508.401 -4.15427 -0.284443 0
M  V30 5445 H 510.998 -4.38767 -3.05594 0
M  V30 5446 H 511.341 -2.68007 -3.18556 0
M  V30 5447 H 511.874 -3.57614 -1.74233 0
M  V30 5448 H 508.613 -6.47906 -0.994881 0
M  V30 5449 H 508.133 -5.49763 -2.39836 0
M  V30 5450 H 509.812 -6.07025 -2.23898 0
M  V30 5451 N 509.944 0.496216 -1.49584 0
M  V30 5452 C 510.891 1.59722 -1.66606 0
M  V30 5453 C 511.861 1.58158 -0.507477 0
M  V30 5454 O 513.046 1.76072 -0.735076 0
M  V30 5455 C 510.186 2.97844 -1.74308 0
M  V30 5456 C 509.299 3.09388 -3.01502 0
M  V30 5457 C 508.434 4.38271 -3.00153 0
M  V30 5458 C 507.473 4.43466 -4.21906 0
M  V30 5459 N 506.61 5.63784 -4.1844 0
M  V30 5460 H 511.45 1.44515 -2.60613 0
M  V30 5461 H 508.987 0.703048 -1.29212 0
M  V30 5462 H 510.945 3.77907 -1.76754 0
M  V30 5463 H 509.575 3.11743 -0.837619 0
M  V30 5464 H 508.627 2.22357 -3.08645 0
M  V30 5465 H 509.939 3.09085 -3.91494 0
M  V30 5466 H 509.093 5.2666 -3.01188 0
M  V30 5467 H 507.832 4.41146 -2.07947 0
M  V30 5468 H 506.837 3.53478 -4.21109 0
M  V30 5469 H 508.062 4.42303 -5.1531 0
M  V30 5470 H 506.008 5.67491 -3.29074 0
M  V30 5471 H 505.925 5.65118 -5.02173 0
M  V30 5472 H 507.193 6.54367 -4.23585 0
M  V30 5473 N 511.423 1.38739 0.74761 0
M  V30 5474 C 512.353 1.39173 1.87492 0
M  V30 5475 C 513.334 0.256794 1.6815 0
M  V30 5476 O 514.519 0.460762 1.88655 0
M  V30 5477 C 511.649 1.22197 3.25093 0
M  V30 5478 C 510.603 2.32957 3.59047 0
M  V30 5479 C 509.929 2.01082 4.95449 0
M  V30 5480 C 511.229 3.75237 3.6331 0
M  V30 5481 H 512.923 2.3351 1.87386 0
M  V30 5482 H 510.469 1.12399 0.900134 0
M  V30 5483 H 512.422 1.21124 4.03617 0
M  V30 5484 H 511.146 0.243241 3.25693 0
M  V30 5485 H 509.805 2.33226 2.82845 0
M  V30 5486 H 509.453 1.01678 4.92616 0
M  V30 5487 H 509.153 2.75267 5.19136 0
M  V30 5488 H 510.677 2.01638 5.76346 0
M  V30 5489 H 512.091 3.76966 4.31937 0
M  V30 5490 H 510.488 4.48677 3.98509 0
M  V30 5491 H 511.558 4.07122 2.634 0
M  V30 5492 N 512.901 -0.976442 1.23707 0
M  V30 5493 C 514.178 -1.69296 0.979699 0
M  V30 5494 C 514.558 -2.0508 -0.500555 0
M  V30 5495 O 513.906 -1.74708 -1.47273 0
M  V30 5496 C 514.116 -2.93143 1.89389 0
M  V30 5497 C 515.464 -3.65572 2.15968 0
M  V30 5498 O 516.488 -3.03184 1.86971 0
M  V30 5499 O 515.347 -4.77859 2.65167 0
M  V30 5500 H 512.441 -0.739708 0.369812 0
M  V30 5501 H 514.987 -1.03131 1.34767 0
M  V30 5502 H 513.759 -2.63327 2.89439 0
M  V30 5503 H 513.382 -3.67044 1.52854 0
M  V30 5504 N 514.379 -1.04941 -1.1758 0
M  V30 5505 C 515.795 -0.770282 -1.39781 0
M  V30 5506 C 515.995 0.636417 -1.91186 0
M  V30 5507 O 515.051 1.39923 -2.10185 0
M  V30 5508 C 516.364 -1.82376 -2.3908 0
M  V30 5509 C 517.912 -1.84569 -2.52791 0
M  V30 5510 C 518.387 -2.88933 -3.55361 0
M  V30 5511 N 519.878 -2.8788 -3.62877 0
M  V30 5512 C 520.613 -3.65282 -4.41992 0
M  V30 5513 N 520.109 -4.52461 -5.24643 0
M  V30 5514 N 521.902 -3.53732 -4.36841 0
M  V30 5515 H 514.053 -1.95705 -0.825438 0
M  V30 5516 H 516.316 -0.847284 -0.425222 0
M  V30 5517 H 516.022 -2.83323 -2.08376 0
M  V30 5518 H 515.896 -1.66327 -3.38549 0
M  V30 5519 H 518.283 -0.842879 -2.82807 0
M  V30 5520 H 518.364 -2.04696 -1.53406 0
M  V30 5521 H 518.008 -3.89398 -3.26085 0
M  V30 5522 H 517.938 -2.66059 -4.54445 0
M  V30 5523 H 520.429 -2.24666 -3.03864 0
M  V30 5524 H 520.742 -5.08211 -5.82187 0
M  V30 5525 H 519.087 -4.56524 -5.24033 0
M  V30 5526 H 522.278 -2.85021 -3.71323 0
M  V30 5527 H 522.451 -4.14302 -4.98255 0
M  V30 5528 N 515.857 1.33968 -0.830081 0
M  V30 5529 C 517.103 1.98773 -0.431394 0
M  V30 5530 C 517.458 1.64598 0.99626 0
M  V30 5531 O 516.751 0.911022 1.68555 0
M  V30 5532 C 516.945 3.52679 -0.57898 0
M  V30 5533 C 516.774 4.01807 -2.01943 0
M  V30 5534 C 515.544 4.30062 -2.65282 0
M  V30 5535 C 517.742 4.18663 -2.98707 0
M  V30 5536 N 515.724 4.65272 -4.00493 0
M  V30 5537 C 517.095 4.57133 -4.18843 0
M  V30 5538 C 519.15 4.00929 -2.95229 0
M  V30 5539 C 517.853 4.79723 -5.35965 0
M  V30 5540 C 519.879 4.2469 -4.11573 0
M  V30 5541 C 519.241 4.63454 -5.30462 0
M  V30 5542 H 515.34 0.75435 -0.206107 0
M  V30 5543 H 517.924 1.62247 -1.07629 0
M  V30 5544 H 516.095 3.88383 0.0360632 0
M  V30 5545 H 517.827 4.04412 -0.152596 0
M  V30 5546 H 514.582 4.21231 -2.16475 0
M  V30 5547 H 515.006 4.87101 -4.70172 0
M  V30 5548 H 519.648 3.70082 -2.04448 0
M  V30 5549 H 517.366 5.09434 -6.27297 0
M  V30 5550 H 520.952 4.12497 -4.10289 0
M  V30 5551 H 519.832 4.81476 -6.18992 0
M  V30 5552 N 517.335 0.585699 1.46312 0
M  V30 5553 C 518.282 -0.145835 2.30339 0
M  V30 5554 C 519.252 -0.881215 1.40797 0
M  V30 5555 O 520.437 -0.871293 1.69744 0
M  V30 5556 C 517.577 -1.15161 3.25318 0
M  V30 5557 C 516.69 -0.419367 4.2996 0
M  V30 5558 C 515.825 -1.41293 5.12064 0
M  V30 5559 C 514.864 -0.667261 6.08452 0
M  V30 5560 N 514.001 -1.60903 6.83414 0
M  V30 5561 H 518.841 0.576755 2.92365 0
M  V30 5562 H 516.378 0.296237 1.44086 0
M  V30 5563 H 518.336 -1.74763 3.78832 0
M  V30 5564 H 516.966 -1.84188 2.65094 0
M  V30 5565 H 516.018 0.291751 3.7928 0
M  V30 5566 H 517.33 0.163433 4.98532 0
M  V30 5567 H 516.484 -2.08167 5.6987 0
M  V30 5568 H 515.223 -2.02966 4.43459 0
M  V30 5569 H 514.228 0.0152356 5.49798 0
M  V30 5570 H 515.453 -0.0558817 6.79077 0
M  V30 5571 H 513.399 -2.21381 6.17516 0
M  V30 5572 H 513.316 -1.07911 7.48259 0
M  V30 5573 H 514.584 -2.26802 7.45775 0
M  V30 5574 N 518.813 -1.54241 0.323641 0
M  V30 5575 C 520.059 -2.00867 -0.279323 0
M  V30 5576 C 520.392 -1.21146 -1.5178 0
M  V30 5577 O 519.667 -0.29378 -1.92269 0
M  V30 5578 C 519.95 -3.54837 -0.613387 0
M  V30 5579 C 519.803 -4.45284 0.635803 0
M  V30 5580 C 521.122 -4.16186 -1.43099 0
M  V30 5581 H 518.241 -0.730177 -0.100049 0
M  V30 5582 H 520.883 -1.84829 0.440235 0
M  V30 5583 H 519.033 -3.68634 -1.22641 0
M  V30 5584 H 520.705 -4.43357 1.27406 0
M  V30 5585 H 518.948 -4.14956 1.26466 0
M  V30 5586 H 519.619 -5.5084 0.357597 0
M  V30 5587 H 522.095 -4.05964 -0.912814 0
M  V30 5588 H 520.971 -5.24031 -1.6335 0
M  V30 5589 H 521.232 -3.69516 -2.42715 0
M  V30 5590 N 520.291 -0.0518155 -1.57515 0
M  V30 5591 C 521.223 0.951542 -2.08515 0
M  V30 5592 C 522.236 1.27436 -1.01311 0
M  V30 5593 O 523.425 1.23504 -1.28876 0
M  V30 5594 C 520.525 2.27291 -2.5138 0
M  V30 5595 C 519.698 2.13191 -3.81927 0
M  V30 5596 C 518.757 3.28458 -4.11098 0
M  V30 5597 O 517.783 3.04334 -4.81009 0
M  V30 5598 N 518.985 4.52954 -3.63061 0
M  V30 5599 H 521.75 0.516242 -2.9522 0
M  V30 5600 H 519.311 0.13441 -1.61341 0
M  V30 5601 H 521.303 3.03272 -2.67971 0
M  V30 5602 H 519.873 2.62386 -1.69919 0
M  V30 5603 H 519.093 1.21798 -3.74912 0
M  V30 5604 H 520.381 2.00999 -4.67415 0
M  V30 5605 H 519.779 4.75444 -3.06545 0
M  V30 5606 H 518.336 5.26026 -3.84889 0
M  V30 5607 N 521.769 1.56035 0.221574 0
M  V30 5608 C 523.015 1.79312 0.947372 0
M  V30 5609 C 523.348 0.621453 1.83988 0
M  V30 5610 O 522.623 -0.379287 1.90766 0
M  V30 5611 C 522.906 3.1267 1.78633 0
M  V30 5612 C 522.759 4.40284 0.920312 0
M  V30 5613 C 524.078 3.4247 2.7641 0
M  V30 5614 H 521.197 0.652328 0.342982 0
M  V30 5615 H 523.839 1.88765 0.216244 0
M  V30 5616 H 521.989 3.04741 2.40967 0
M  V30 5617 H 523.661 4.60232 0.313718 0
M  V30 5618 H 521.904 4.33212 0.225734 0
M  V30 5619 H 522.575 5.30033 1.54171 0
M  V30 5620 H 525.051 3.50526 2.24211 0
M  V30 5621 H 523.927 4.3695 3.32213 0
M  V30 5622 H 524.188 2.64635 3.54148 0
M  V30 5623 N 523.247 -0.488276 1.49845 0
M  V30 5624 C 524.475 -1.26527 1.63702 0
M  V30 5625 C 524.89 -1.8618 0.313447 0
M  V30 5626 O 524.247 -1.68432 -0.702624 0
M  V30 5627 C 524.298 -2.3864 2.71538 0
M  V30 5628 O 524.019 -1.81437 3.98763 0
M  V30 5629 C 525.52 -3.29805 2.96215 0
M  V30 5630 H 522.74 -0.383295 0.55075 0
M  V30 5631 H 525.284 -0.584779 1.95961 0
M  V30 5632 H 523.439 -3.02496 2.42023 0
M  V30 5633 H 523.853 -2.55135 4.58265 0
M  V30 5634 H 525.327 -4.04722 3.75372 0
M  V30 5635 H 525.804 -3.87563 2.06619 0
M  V30 5636 H 526.41 -2.71703 3.27196 0
M  V30 5637 N 524.725 -1.39134 -0.740242 0
M  V30 5638 C 525.673 -1.3757 -1.87556 0
M  V30 5639 C 526.667 -0.259593 -1.67399 0
M  V30 5640 O 527.873 -0.429349 -1.74804 0
M  V30 5641 H 524.248 -0.42947 -0.6173 0
M  V30 5642 H 526.219 -2.33345 -1.85991 0
M  V30 5643 C 524.968 -1.23087 -3.25184 0
M  V30 5644 H 524.291 -2.08237 -3.41288 0
M  V30 5645 H 525.731 -1.26049 -4.0483 0
M  V30 5646 C 524.19 0.0611471 -3.36845 0
M  V30 5647 O 524.72 1.03328 -3.88183 0
M  V30 5648 N 522.926 0.122454 -2.90342 0
M  V30 5649 H 522.473 -0.669329 -2.48752 0
M  V30 5650 H 522.431 0.986463 -2.98523 0
M  V30 5651 N 526.204 0.969867 -1.24223 0
M  V30 5652 C 527.151 2.06407 -1.0327 0
M  V30 5653 C 528.121 1.66014 0.0533 0
M  V30 5654 O 529.306 1.90533 -0.100896 0
M  V30 5655 C 526.446 3.3909 -0.641262 0
M  V30 5656 C 525.559 3.9269 -1.80051 0
M  V30 5657 C 524.694 5.13631 -1.35486 0
M  V30 5658 C 523.733 5.59423 -2.48419 0
M  V30 5659 N 522.87 6.71586 -2.04737 0
M  V30 5660 H 527.71 2.23663 -1.96923 0
M  V30 5661 H 525.247 1.09624 -0.980862 0
M  V30 5662 H 527.205 4.15323 -0.395351 0
M  V30 5663 H 525.835 3.21765 0.258269 0
M  V30 5664 H 524.887 3.13116 -2.16014 0
M  V30 5665 H 526.199 4.22636 -2.64916 0
M  V30 5666 H 525.353 5.97231 -1.0677 0
M  V30 5667 H 524.092 4.85364 -0.476722 0
M  V30 5668 H 523.097 4.74398 -2.77897 0
M  V30 5669 H 524.322 5.89705 -3.36786 0
M  V30 5670 H 522.268 6.45058 -1.19318 0
M  V30 5671 H 522.185 7.0097 -2.83156 0
M  V30 5672 H 523.453 7.58633 -1.79154 0
M  V30 5673 N 527.682 1.05563 1.17022 0
M  V30 5674 C 528.93 0.76642 1.87004 0
M  V30 5675 C 529.251 -0.708854 1.8166 0
M  V30 5676 O 528.521 -1.51242 1.2451 0
M  V30 5677 H 527.101 0.280516 0.692329 0
M  V30 5678 H 529.763 1.33557 1.41945 0
M  V30 5679 H 528.859 1.08472 2.92644 0
M  V30 5680 N 529.16 -1.33526 0.837174 0
M  V30 5681 C 530.39 -2.01754 0.444848 0
M  V30 5682 C 530.798 -1.63149 -0.958072 0
M  V30 5683 O 530.141 -0.839827 -1.63379 0
M  V30 5684 C 530.203 -3.56228 0.483917 0
M  V30 5685 C 529.867 -4.18205 1.84265 0
M  V30 5686 C 530.864 -4.37699 2.80563 0
M  V30 5687 C 528.549 -4.54667 2.13503 0
M  V30 5688 C 530.543 -4.928 4.04261 0
M  V30 5689 C 528.23 -5.09475 3.37458 0
M  V30 5690 C 529.228 -5.28488 4.32654 0
M  V30 5691 O 528.916 -5.82132 5.54417 0
M  V30 5692 H 528.648 -0.652928 0.175104 0
M  V30 5693 H 531.202 -1.71469 1.13082 0
M  V30 5694 H 529.432 -3.85833 -0.258826 0
M  V30 5695 H 531.121 -4.05752 0.109653 0
M  V30 5696 H 531.887 -4.0988 2.59274 0
M  V30 5697 H 527.766 -4.39164 1.40201 0
M  V30 5698 H 531.31 -5.07555 4.78574 0
M  V30 5699 H 527.207 -5.36725 3.58604 0
M  V30 5700 H 527.975 -6.00548 5.56133 0
M  V30 5701 N 530.638 -0.59345 -1.46 0
M  V30 5702 C 531.868 -0.0889642 -2.06408 0
M  V30 5703 C 532.276 1.22597 -1.44106 0
M  V30 5704 O 531.619 1.75448 -0.544398 0
M  V30 5705 C 531.681 0.139902 -3.59228 0
M  V30 5706 C 531.345 -1.09107 -4.43784 0
M  V30 5707 C 532.342 -2.00577 -4.79651 0
M  V30 5708 C 530.027 -1.31593 -4.84756 0
M  V30 5709 C 532.021 -3.12873 -5.55328 0
M  V30 5710 C 529.708 -2.44192 -5.60191 0
M  V30 5711 C 530.706 -3.34661 -5.95392 0
M  V30 5712 O 530.394 -4.45302 -6.69299 0
M  V30 5713 H 530.126 -0.0594613 -0.67338 0
M  V30 5714 H 532.68 -0.817 -1.88452 0
M  V30 5715 H 530.91 0.922672 -3.75531 0
M  V30 5716 H 532.599 0.594228 -4.01527 0
M  V30 5717 H 533.365 -1.84425 -4.48567 0
M  V30 5718 H 529.244 -0.620801 -4.56801 0
M  V30 5719 H 532.788 -3.83511 -5.82722 0
M  V30 5720 H 528.685 -2.60303 -5.90688 0
M  V30 5721 H 529.453 -4.43805 -6.87735 0
M  V30 5722 N 532.116 1.54067 -0.331816 0
M  V30 5723 C 533.064 2.26105 0.54582 0
M  V30 5724 C 534.058 1.27816 1.11173 0
M  V30 5725 O 535.264 1.45565 1.05882 0
M  V30 5726 H 531.639 0.726363 0.194683 0
M  V30 5727 H 533.61 2.98282 -0.083931 0
M  V30 5728 C 532.359 3.03814 1.69092 0
M  V30 5729 H 531.682 3.79269 1.26473 0
M  V30 5730 H 533.122 3.57453 2.28043 0
M  V30 5731 C 531.581 2.12606 2.61343 0
M  V30 5732 O 532.111 1.71437 3.6328 0
M  V30 5733 N 530.317 1.77925 2.29763 0
M  V30 5734 H 529.864 2.11602 1.46909 0
M  V30 5735 H 529.822 1.1718 2.91747 0
M  V30 5736 N 533.594 0.0601682 1.57485 0
M  V30 5737 C 534.524 -0.90889 2.15085 0
M  V30 5738 C 535.505 -1.31838 1.07484 0
M  V30 5739 O 536.69 -1.3915 1.35466 0
M  V30 5740 C 533.82 -2.18059 2.7031 0
M  V30 5741 C 532.774 -1.91088 3.82974 0
M  V30 5742 C 532.1 -3.24789 4.24754 0
M  V30 5743 C 533.4 -1.22535 5.07723 0
M  V30 5744 H 535.094 -0.429093 2.96309 0
M  V30 5745 H 532.64 -0.204952 1.42534 0
M  V30 5746 H 534.593 -2.86258 3.09248 0
M  V30 5747 H 533.317 -2.6826 1.8629 0
M  V30 5748 H 531.976 -1.25297 3.44523 0
M  V30 5749 H 531.624 -3.72809 3.37672 0
M  V30 5750 H 531.324 -3.07538 5.00694 0
M  V30 5751 H 532.848 -3.94205 4.66299 0
M  V30 5752 H 534.262 -1.80783 5.4405 0
M  V30 5753 H 532.659 -1.1558 5.88864 0
M  V30 5754 H 533.729 -0.202692 4.84476 0
M  V30 5755 N 535.072 -1.5615 -0.213296 0
M  V30 5756 C 536.488 -1.49327 -0.56336 0
M  V30 5757 C 536.688 -0.756826 -1.86747 0
M  V30 5758 O 535.744 -0.299866 -2.50713 0
M  V30 5759 C 537.057 -2.9392 -0.634944 0
M  V30 5760 C 538.605 -3.04487 -0.725013 0
M  V30 5761 C 539.08 -4.50456 -0.82787 0
M  V30 5762 N 540.571 -4.54533 -0.891876 0
M  V30 5763 C 541.306 -5.64766 -0.991315 0
M  V30 5764 N 540.802 -6.84733 -1.05419 0
M  V30 5765 N 542.595 -5.52637 -1.02709 0
M  V30 5766 H 534.746 -2.02453 0.642366 0
M  V30 5767 H 537.009 -0.920548 0.226487 0
M  V30 5768 H 536.715 -3.50783 0.253859 0
M  V30 5769 H 536.589 -3.46274 -1.49579 0
M  V30 5770 H 538.976 -2.47685 -1.60425 0
M  V30 5771 H 539.057 -2.55289 0.161669 0
M  V30 5772 H 538.701 -5.07878 0.0469464 0
M  V30 5773 H 538.631 -4.97369 -1.73009 0
M  V30 5774 H 541.122 -3.68141 -0.85327 0
M  V30 5775 H 541.435 -7.64493 -1.13007 0
M  V30 5776 H 539.78 -6.87427 -1.02318 0
M  V30 5777 H 542.971 -4.5784 -0.974687 0
M  V30 5778 H 543.144 -6.38576 -1.10113 0
M  V30 5779 N 536.55 0.480323 -1.50102 0
M  V30 5780 C 537.497 1.57946 -1.6829 0
M  V30 5781 C 538.467 1.57611 -0.524223 0
M  V30 5782 O 539.652 1.75282 -0.753709 0
M  V30 5783 C 536.792 2.95978 -1.77457 0
M  V30 5784 C 535.905 3.06173 -3.04766 0
M  V30 5785 C 535.04 4.35063 -3.04784 0
M  V30 5786 C 534.079 4.38966 -4.26586 0
M  V30 5787 N 533.216 5.59314 -4.24396 0
M  V30 5788 H 538.056 1.41743 -2.62131 0
M  V30 5789 H 535.593 0.689304 -1.2995 0
M  V30 5790 H 537.551 3.76011 -1.80752 0
M  V30 5791 H 536.181 3.10837 -0.870637 0
M  V30 5792 H 535.233 2.19071 -3.10986 0
M  V30 5793 H 536.545 3.04916 -3.9475 0
M  V30 5794 H 535.699 5.23436 -3.06757 0
M  V30 5795 H 534.438 4.38915 -2.12614 0
M  V30 5796 H 533.443 3.48992 -4.24835 0
M  V30 5797 H 534.668 4.36813 -5.19972 0
M  V30 5798 H 532.614 5.63969 -3.35074 0
M  V30 5799 H 532.531 5.5976 -5.08138 0
M  V30 5800 H 533.799 6.49837 -4.30502 0
M  V30 5801 N 538.028 1.39524 0.732853 0
M  V30 5802 C 539.439 1.32905 1.31122 0
M  V30 5803 C 539.79 -0.00558708 1.96199 0
M  V30 5804 O 538.915 -0.907706 1.96443 0
M  V30 5805 C 539.51 2.40704 2.38426 0
M  V30 5806 C 538.069 2.37599 2.91931 0
M  V30 5807 C 537.216 2.2248 1.65523 0
M  V30 5808 H 540.167 1.49581 0.530207 0
M  V30 5809 H 540.188 2.07616 3.18867 0
M  V30 5810 H 539.7 3.37829 1.91033 0
M  V30 5811 H 537.801 1.44119 3.43599 0
M  V30 5812 H 537.914 3.32538 3.44899 0
M  V30 5813 H 536.278 1.69691 1.8994 0
M  V30 5814 H 537.061 3.21577 1.20178 0
M  V30 5815 N 539.506 -0.963266 1.24736 0
M  V30 5816 C 540.453 -2.05857 1.04363 0
M  V30 5817 C 541.423 -1.6604 -0.0444951 0
M  V30 5818 O 542.608 -1.90477 0.110999 0
M  V30 5819 C 539.748 -3.38745 0.659235 0
M  V30 5820 C 538.861 -3.9173 1.82131 0
M  V30 5821 C 537.996 -5.12906 1.38208 0
M  V30 5822 C 537.035 -5.58098 2.51382 0
M  V30 5823 N 536.172 -6.7049 2.08295 0
M  V30 5824 H 541.012 -2.22616 1.98107 0
M  V30 5825 H 538.549 -1.09103 0.986661 0
M  V30 5826 H 540.507 -4.15107 0.417371 0
M  V30 5827 H 539.137 -3.21898 -0.241201 0
M  V30 5828 H 538.189 -3.11966 2.17672 0
M  V30 5829 H 539.501 -4.21225 2.67153 0
M  V30 5830 H 538.655 -5.96657 1.09935 0
M  V30 5831 H 537.394 -4.85105 0.502456 0
M  V30 5832 H 536.399 -4.72917 2.80409 0
M  V30 5833 H 537.624 -5.87911 3.39909 0
M  V30 5834 H 535.57 -6.44416 1.22737 0
M  V30 5835 H 535.487 -6.99458 2.86869 0
M  V30 5836 H 536.755 -7.57672 1.83175 0
M  V30 5837 N 540.985 -1.06182 -1.16461 0
M  V30 5838 C 541.895 -0.682671 -2.24448 0
M  V30 5839 C 542.911 0.30078 -1.71381 0
M  V30 5840 O 544.087 0.150376 -2.00838 0
M  V30 5841 C 541.152 -0.0737202 -3.46622 0
M  V30 5842 C 540.213 -1.10889 -4.14731 0
M  V30 5843 C 539.446 -0.528908 -5.31073 0
M  V30 5844 O 539.669 0.65868 -5.66584 0
M  V30 5845 O 538.603 -1.26805 -5.88391 0
M  V30 5846 H 542.429 -1.58291 -2.59187 0
M  V30 5847 H 540.014 -0.834013 -1.23954 0
M  V30 5848 H 541.896 0.264192 -4.20571 0
M  V30 5849 H 540.571 0.800015 -3.13658 0
M  V30 5850 H 539.478 -1.49896 -3.42756 0
M  V30 5851 H 540.811 -1.95412 -4.51747 0
M  V30 5852 N 542.463 1.3308 -0.844243 0
M  V30 5853 C 543.71 1.97605 -0.44255 0
M  V30 5854 C 544.038 1.66856 0.999458 0
M  V30 5855 O 543.293 0.943586 1.7145 0
M  V30 5856 C 543.592 3.52045 -0.616354 0
M  V30 5857 C 543.258 4.02757 -2.02726 0
M  V30 5858 C 541.92 4.16316 -2.41317 0
M  V30 5859 C 544.272 4.29776 -2.9486 0
M  V30 5860 C 541.6 4.54232 -3.71335 0
M  V30 5861 C 543.952 4.69146 -4.24364 0
M  V30 5862 C 542.616 4.80911 -4.62904 0
M  V30 5863 H 541.886 0.723088 -0.161941 0
M  V30 5864 H 544.533 1.58663 -1.0723 0
M  V30 5865 H 542.838 3.91681 0.0966812 0
M  V30 5866 H 544.535 3.99981 -0.285756 0
M  V30 5867 H 541.125 3.9268 -1.71756 0
M  V30 5868 H 545.309 4.18818 -2.6628 0
M  V30 5869 H 540.565 4.61535 -4.00993 0
M  V30 5870 H 544.739 4.89008 -4.95827 0
M  V30 5871 H 542.366 5.10048 -5.63698 0
M  V30 5872 N 543.941 0.601185 1.45683 0
M  V30 5873 C 545.169 0.100054 2.06658 0
M  V30 5874 C 545.584 -1.21285 1.44691 0
M  V30 5875 O 544.941 -1.73735 0.558772 0
M  V30 5876 C 544.992 -0.0528579 3.61461 0
M  V30 5877 O 544.713 1.20809 4.21114 0
M  V30 5878 C 546.214 -0.586193 4.39407 0
M  V30 5879 H 543.434 0.065905 0.667756 0
M  V30 5880 H 545.978 0.827101 1.87028 0
M  V30 5881 H 544.133 -0.730203 3.80456 0
M  V30 5882 H 544.547 1.03368 5.14213 0
M  V30 5883 H 546.021 -0.642297 5.4825 0
M  V30 5884 H 546.498 -1.60713 4.0874 0
M  V30 5885 H 547.104 0.0568935 4.25262 0
M  V30 5886 N 545.419 -1.53889 0.339982 0
M  V30 5887 C 546.352 -2.21187 -0.561405 0
M  V30 5888 C 547.33 -1.19463 -1.10306 0
M  V30 5889 O 548.514 -1.48268 -1.164 0
M  V30 5890 C 545.641 -2.8865 -1.77198 0
M  V30 5891 C 544.687 -4.04232 -1.3601 0
M  V30 5892 S 545.52 -5.34129 -0.382909 0
M  V30 5893 C 546.676 -6.05094 -1.60039 0
M  V30 5894 H 546.909 -2.97298 0.0102092 0
M  V30 5895 H 544.442 -1.53901 0.124056 0
M  V30 5896 H 546.4 -3.28138 -2.4665 0
M  V30 5897 H 545.061 -2.12311 -2.3148 0
M  V30 5898 H 544.254 -4.50358 -2.2626 0
M  V30 5899 H 543.856 -3.66503 -0.745098 0
M  V30 5900 H 546.148 -6.2827 -2.53541 0
M  V30 5901 H 547.091 -6.98182 -1.18099 0
M  V30 5902 H 547.499 -5.35207 -1.79483 0
M  V30 5903 N 546.897 -0.0685191 -1.57451 0
M  V30 5904 C 547.845 0.917577 -2.13736 0
M  V30 5905 C 548.839 1.31049 -1.07344 0
M  V30 5906 O 550.045 1.28811 -1.25728 0
M  V30 5907 H 546.42 0.313835 -0.683382 0
M  V30 5908 H 548.391 0.417903 -2.95459 0
M  V30 5909 C 547.14 2.17686 -2.71123 0
M  V30 5910 H 546.463 1.88336 -3.52661 0
M  V30 5911 H 547.903 2.84803 -3.14107 0
M  V30 5912 C 546.362 2.9332 -1.65726 0
M  V30 5913 O 546.892 3.86901 -1.08031 0
M  V30 5914 N 545.098 2.56367 -1.36837 0
M  V30 5915 H 544.645 1.80341 -1.83943 0
M  V30 5916 H 544.603 3.07276 -0.665501 0
M  V30 5917 N 548.375 1.56261 0.205012 0
M  V30 5918 C 549.323 1.94631 1.27364 0
M  V30 5919 C 550.317 0.830434 1.47649 0
M  V30 5920 O 551.523 1.01538 1.48627 0
M  V30 5921 H 547.898 0.618755 0.427371 0
M  V30 5922 H 549.869 2.83768 0.922941 0
M  V30 5923 C 548.618 2.29358 2.61324 0
M  V30 5924 H 547.941 3.14744 2.46528 0
M  V30 5925 H 549.381 2.60076 3.34868 0
M  V30 5926 C 547.84 1.12461 3.17575 0
M  V30 5927 O 548.37 0.394407 3.99759 0
M  V30 5928 N 546.576 0.904036 2.7618 0
M  V30 5929 H 546.123 1.49956 2.09454 0
M  V30 5930 H 546.081 0.123662 3.14157 0
M  V30 5931 N 549.853 -0.472356 1.50355 0
M  V30 5932 C 551.083 -1.24603 1.64796 0
M  V30 5933 C 551.491 -1.86297 0.330156 0
M  V30 5934 O 550.834 -1.69934 -0.697728 0
M  V30 5935 C 550.896 -2.39578 2.68035 0
M  V30 5936 C 550.56 -1.98531 4.11624 0
M  V30 5937 C 551.557 -1.50856 4.97532 0
M  V30 5938 C 549.242 -2.0729 4.57532 0
M  V30 5939 C 551.236 -1.12481 6.27397 0
M  V30 5940 C 548.923 -1.68527 5.87403 0
M  V30 5941 C 549.921 -1.212 6.7216 0
M  V30 5942 O 549.609 -0.829728 7.99607 0
M  V30 5943 H 549.341 -0.383035 0.55701 0
M  V30 5944 H 551.895 -0.570392 1.97321 0
M  V30 5945 H 550.125 -3.10309 2.30749 0
M  V30 5946 H 551.814 -3.01544 2.71709 0
M  V30 5947 H 552.58 -1.43511 4.63281 0
M  V30 5948 H 548.459 -2.43076 3.91708 0
M  V30 5949 H 552.003 -0.754698 6.93506 0
M  V30 5950 H 547.9 -1.7553 6.21176 0
M  V30 5951 H 548.668 -0.958689 8.12866 0
M  V30 5952 N 551.331 -1.39911 -0.725443 0
M  V30 5953 C 552.578 -1.37654 -1.48518 0
M  V30 5954 C 552.906 0.0243982 -1.94485 0
M  V30 5955 O 552.161 1.00708 -1.67799 0
M  V30 5956 C 552.46 -2.30368 -2.7325 0
M  V30 5957 C 552.126 -3.77817 -2.461 0
M  V30 5958 C 550.788 -4.17991 -2.38405 0
M  V30 5959 C 553.14 -4.71036 -2.23103 0
M  V30 5960 C 550.468 -5.49433 -2.05768 0
M  V30 5961 C 552.82 -6.02766 -1.9198 0
M  V30 5962 C 551.484 -6.41993 -1.82761 0
M  V30 5963 H 550.754 -0.503713 -0.543465 0
M  V30 5964 H 553.401 -1.7249 -0.831822 0
M  V30 5965 H 551.706 -1.88683 -3.43375 0
M  V30 5966 H 553.403 -2.2591 -3.31309 0
M  V30 5967 H 549.993 -3.45982 -2.52972 0
M  V30 5968 H 554.177 -4.40823 -2.2801 0
M  V30 5969 H 549.433 -5.78738 -1.9716 0
M  V30 5970 H 553.607 -6.74519 -1.73197 0
M  V30 5971 H 551.234 -7.43761 -1.57237 0
M  V30 5972 N 552.809 0.956637 -1.25245 0
M  V30 5973 C 554.034 1.74104 -1.12706 0
M  V30 5974 C 554.459 1.85436 0.315429 0
M  V30 5975 O 553.817 1.33334 1.22848 0
M  V30 5976 C 553.865 3.1338 -1.78396 0
M  V30 5977 O 552.969 3.98485 -1.06224 0
M  V30 5978 H 552.31 0.53476 -0.393609 0
M  V30 5979 H 554.84 1.19924 -1.65769 0
M  V30 5980 H 554.85 3.6385 -1.846 0
M  V30 5981 H 553.525 3.04448 -2.83345 0
M  V30 5982 H 552.102 3.56952 -1.07886 0
M  V30 5983 N 554.287 1.06798 1.15896 0
M  V30 5984 C 555.533 0.788934 1.86825 0
M  V30 5985 C 555.866 -0.683084 1.8179 0
M  V30 5986 O 555.141 -1.50086 1.23711 0
M  V30 5987 C 555.424 1.29065 3.36176 0
M  V30 5988 C 555.277 2.8268 3.49874 0
M  V30 5989 C 556.596 0.902655 4.30744 0
M  V30 5990 H 553.715 0.288066 0.678371 0
M  V30 5991 H 556.357 1.32479 1.36195 0
M  V30 5992 H 554.507 0.834806 3.79425 0
M  V30 5993 H 556.179 3.36511 3.15528 0
M  V30 5994 H 554.422 3.21157 2.91617 0
M  V30 5995 H 555.093 3.12852 4.54783 0
M  V30 5996 H 557.569 1.29535 3.95424 0
M  V30 5997 H 556.445 1.28111 5.3374 0
M  V30 5998 H 556.706 -0.191951 4.41683 0
M  V30 5999 N 555.766 -1.3263 0.851289 0
M  V30 6000 C 557.014 -1.96978 0.452128 0
M  V30 6001 C 557.335 -1.67715 -0.99482 0
M  V30 6002 O 556.605 -0.98259 -1.69476 0
M  V30 6003 H 555.185 -0.72873 0.164202 0
M  V30 6004 H 557.847 -1.61774 1.08698 0
M  V30 6005 H 556.943 -3.06387 0.594407 0
M  V30 6006 N 557.244 -0.608902 -1.45362 0
M  V30 6007 C 558.655 -0.189511 -1.85736 0
M  V30 6008 C 559.006 1.2539 -1.50903 0
M  V30 6009 O 558.131 1.95094 -0.936347 0
M  V30 6010 C 558.726 -0.33716 -3.37118 0
M  V30 6011 C 557.285 0.0275487 -3.7639 0
M  V30 6012 C 556.432 -0.660983 -2.69307 0
M  V30 6013 H 559.383 -0.815499 -1.36144 0
M  V30 6014 H 559.404 0.430257 -3.7806 0
M  V30 6015 H 558.916 -1.38779 -3.62439 0
M  V30 6016 H 557.017 1.0773 -3.56686 0
M  V30 6017 H 557.13 -0.367018 -4.77692 0
M  V30 6018 H 555.494 -0.0984958 -2.54509 0
M  V30 6019 H 556.277 -1.71377 -2.97464 0
M  V30 6020 N 558.722 1.53707 -0.348139 0
M  V30 6021 C 559.999 1.93247 0.302475 0
M  V30 6022 C 560.379 1.28012 1.67857 0
M  V30 6023 O 559.727 0.43274 2.24365 0
M  V30 6024 C 559.937 3.47031 0.370159 0
M  V30 6025 C 561.285 4.20066 0.61882 0
M  V30 6026 O 562.309 3.53319 0.452087 0
M  V30 6027 O 561.168 5.38318 0.94215 0
M  V30 6028 H 558.262 0.807736 0.177458 0
M  V30 6029 H 560.808 1.64927 -0.399651 0
M  V30 6030 H 559.58 3.86745 -0.59534 0
M  V30 6031 H 559.203 3.81532 1.11888 0
M  V30 6032 N 560.2 0.0768682 1.57412 0
M  V30 6033 C 561.163 -0.873949 2.11884 0
M  V30 6034 C 562.163 -1.22301 1.04398 0
M  V30 6035 O 563.353 -1.15545 1.30365 0
M  V30 6036 C 560.485 -2.17575 2.62438 0
M  V30 6037 H 561.678 -0.401278 2.97203 0
M  V30 6038 H 559.231 -0.171904 1.55352 0
M  V30 6039 H 559.966 -2.69368 1.80587 0
M  V30 6040 H 559.751 -1.93534 3.41009 0
M  V30 6041 H 561.241 -2.85631 3.04639 0
M  V30 6042 N 561.678 -1.56367 -0.196722 0
M  V30 6043 C 562.608 -1.97442 -1.24655 0
M  V30 6044 C 563.589 -0.846147 -1.47561 0
M  V30 6045 O 564.774 -1.11035 -1.59326 0
M  V30 6046 C 561.904 -2.31253 -2.59112 0
M  V30 6047 C 560.858 -3.46804 -2.50821 0
M  V30 6048 C 560.184 -3.66286 -3.89536 0
M  V30 6049 C 561.484 -4.8104 -2.03465 0
M  V30 6050 H 563.178 -2.85388 -0.905216 0
M  V30 6051 H 560.724 -1.37304 -0.434002 0
M  V30 6052 H 562.677 -2.58583 -3.32736 0
M  V30 6053 H 561.401 -1.40188 -2.94983 0
M  V30 6054 H 560.06 -3.19563 -1.79653 0
M  V30 6055 H 559.708 -2.72555 -4.22756 0
M  V30 6056 H 559.408 -4.4402 -3.84864 0
M  V30 6057 H 560.932 -3.9599 -4.64784 0
M  V30 6058 H 562.346 -5.07411 -2.66846 0
M  V30 6059 H 560.743 -5.62232 -2.09798 0
M  V30 6060 H 561.813 -4.74732 -0.98781 0
M  V30 6061 N 563.156 0.464375 -1.50603 0
M  V30 6062 C 564.089 1.58052 -1.64605 0
M  V30 6063 C 565.067 1.54914 -0.494016 0
M  V30 6064 O 566.251 1.74438 -0.714393 0
M  V30 6065 C 563.378 2.96634 -1.63481 0
M  V30 6066 C 562.424 3.17901 -2.84325 0
M  V30 6067 S 563.257 2.97083 -4.45536 0
M  V30 6068 C 564.413 4.37994 -4.47115 0
M  V30 6069 H 564.646 1.45937 -2.59017 0
M  V30 6070 H 562.179 0.652189 -1.39949 0
M  V30 6071 H 564.137 3.76527 -1.63517 0
M  V30 6072 H 562.798 3.06134 -0.702928 0
M  V30 6073 H 561.991 4.19158 -2.79862 0
M  V30 6074 H 561.593 2.45792 -2.81891 0
M  V30 6075 H 563.885 5.30743 -4.21091 0
M  V30 6076 H 564.828 4.47499 -5.48772 0
M  V30 6077 H 565.236 4.20386 -3.76743 0
M  V30 6078 N 564.634 1.40294 0.718013 0
M  V30 6079 C 565.597 1.4012 1.81381 0
M  V30 6080 C 566.597 0.295405 1.58063 0
M  V30 6081 O 567.787 0.554187 1.6515 0
M  V30 6082 C 564.919 1.19056 3.19435 0
M  V30 6083 H 566.112 2.37645 1.82933 0
M  V30 6084 H 563.665 1.26107 0.923405 0
M  V30 6085 H 564.4 0.222809 3.23534 0
M  V30 6086 H 564.185 1.99152 3.37758 0
M  V30 6087 H 565.675 1.21716 3.99468 0
M  V30 6088 N 566.112 -0.949982 1.2575 0
M  V30 6089 C 567.042 -2.06483 1.09028 0
M  V30 6090 C 568.023 -1.701 -0.00201532 0
M  V30 6091 O 569.208 -1.93469 0.168383 0
M  V30 6092 C 566.338 -3.39899 0.71316 0
M  V30 6093 C 565.292 -3.90309 1.75621 0
M  V30 6094 C 564.618 -5.20274 1.23365 0
M  V30 6095 C 565.918 -4.16169 3.15596 0
M  V30 6096 H 567.612 -2.20731 2.02283 0
M  V30 6097 H 565.158 -1.06066 0.973964 0
M  V30 6098 H 567.111 -4.17346 0.58309 0
M  V30 6099 H 565.835 -3.25602 -0.255091 0
M  V30 6100 H 564.494 -3.15035 1.8748 0
M  V30 6101 H 564.142 -5.02351 0.255491 0
M  V30 6102 H 563.842 -5.54971 1.93082 0
M  V30 6103 H 565.366 -6.00314 1.11607 0
M  V30 6104 H 566.78 -4.84259 3.06864 0
M  V30 6105 H 565.177 -4.62131 3.82825 0
M  V30 6106 H 566.247 -3.22273 3.6231 0
M  V30 6107 N 567.59 -1.07411 -1.15328 0
M  V30 6108 C 568.538 -0.689316 -2.22151 0
M  V30 6109 C 569.532 0.300156 -1.6672 0
M  V30 6110 O 570.738 0.163804 -1.79253 0
M  V30 6111 H 567.113 -0.204834 -0.723566 0
M  V30 6112 H 569.084 -1.59988 -2.51886 0
M  V30 6113 C 567.833 -0.103848 -3.47545 0
M  V30 6114 H 567.156 -0.856367 -3.90521 0
M  V30 6115 H 568.596 0.127725 -4.23808 0
M  V30 6116 C 567.055 1.15563 -3.1646 0
M  V30 6117 O 567.585 2.242 -3.33312 0
M  V30 6118 N 565.791 1.06203 -2.70498 0
M  V30 6119 H 565.338 0.177933 -2.56985 0
M  V30 6120 H 565.296 1.90553 -2.50074 0
M  V30 6121 N 569.068 1.32177 -0.85831 0
M  V30 6122 C 570.315 1.97125 -0.463484 0
M  V30 6123 C 570.643 1.67907 0.981705 0
M  V30 6124 O 569.898 0.961717 1.70439 0
M  V30 6125 C 570.197 3.51372 -0.653658 0
M  V30 6126 C 569.863 4.00584 -2.06987 0
M  V30 6127 C 568.525 4.13733 -2.4572 0
M  V30 6128 C 570.877 4.26624 -2.99402 0
M  V30 6129 C 568.205 4.50268 -3.76132 0
M  V30 6130 C 570.557 4.64618 -4.29316 0
M  V30 6131 C 569.221 4.75975 -4.67979 0
M  V30 6132 H 568.491 0.72133 -0.169601 0
M  V30 6133 H 571.138 1.57517 -1.08907 0
M  V30 6134 H 569.443 3.91761 0.0551328 0
M  V30 6135 H 571.14 3.99655 -0.328163 0
M  V30 6136 H 567.73 3.90837 -1.75911 0
M  V30 6137 H 571.914 4.1597 -2.70708 0
M  V30 6138 H 567.17 4.57256 -4.05865 0
M  V30 6139 H 571.344 4.83722 -5.00985 0
M  V30 6140 H 568.971 5.04041 -5.69076 0
M  V30 6141 N 570.547 0.616602 1.45037 0
M  V30 6142 C 571.497 -0.118543 2.27692 0
M  V30 6143 C 572.481 -0.830025 1.37838 0
M  V30 6144 O 573.673 -0.718528 1.6176 0
M  V30 6145 C 570.802 -1.10924 3.24886 0
M  V30 6146 C 569.888 -0.398134 4.22227 0
M  V30 6147 N 570.279 0.565233 5.02632 0
M  V30 6148 C 568.577 -0.644506 4.41319 0
M  V30 6149 C 569.278 0.984043 5.73316 0
M  V30 6150 N 568.254 0.325879 5.42622 0
M  V30 6151 H 572.056 0.621239 2.87259 0
M  V30 6152 H 569.57 0.440968 1.56299 0
M  V30 6153 H 571.567 -1.65038 3.82842 0
M  V30 6154 H 570.227 -1.84948 2.66879 0
M  V30 6155 H 571.238 0.942395 5.09254 0
M  V30 6156 H 567.915 -1.36873 3.94426 0
M  V30 6157 H 569.305 1.77911 6.47918 0
M  V30 6158 N 572.025 -1.5352 0.356285 0
M  V30 6159 C 572.988 -2.24071 -0.482182 0
M  V30 6160 C 573.988 -1.24531 -1.01729 0
M  V30 6161 O 575.178 -1.48876 -0.904513 0
M  V30 6162 C 572.31 -2.97025 -1.67299 0
M  V30 6163 H 573.503 -2.99596 0.135031 0
M  V30 6164 H 571.056 -1.55928 0.107825 0
M  V30 6165 H 571.791 -2.25719 -2.32855 0
M  V30 6166 H 571.576 -3.7005 -1.29636 0
M  V30 6167 H 573.066 -3.50683 -2.26741 0
M  V30 6168 N 573.503 -0.0852151 -1.57369 0
M  V30 6169 C 574.453 0.88767 -2.10011 0
M  V30 6170 C 575.437 1.25021 -1.01285 0
M  V30 6171 O 576.629 1.22694 -1.27574 0
M  V30 6172 C 573.758 2.15037 -2.67608 0
M  V30 6173 C 572.844 1.81371 -3.83361 0
M  V30 6174 N 573.235 1.18216 -4.91791 0
M  V30 6175 C 571.533 2.11041 -3.92909 0
M  V30 6176 C 572.234 1.02941 -5.72519 0
M  V30 6177 N 571.21 1.54351 -5.21226 0
M  V30 6178 H 575.012 0.395279 -2.9123 0
M  V30 6179 H 572.526 0.11829 -1.61969 0
M  V30 6180 H 574.523 2.85667 -3.03644 0
M  V30 6181 H 573.183 2.64851 -1.8784 0
M  V30 6182 H 574.194 0.850168 -5.10874 0
M  V30 6183 H 570.871 2.63138 -3.24136 0
M  V30 6184 H 572.261 0.536298 -6.69756 0
M  V30 6185 N 574.981 1.5647 0.188427 0
M  V30 6186 C 576.397 1.50204 0.539532 0
M  V30 6187 C 576.597 0.78644 1.85519 0
M  V30 6188 O 575.653 0.339714 2.50204 0
M  V30 6189 C 576.966 2.94893 0.588103 0
M  V30 6190 C 578.514 3.05602 0.67648 0
M  V30 6191 C 578.989 4.51716 0.756101 0
M  V30 6192 N 580.48 4.55894 0.819451 0
M  V30 6193 C 581.215 5.66272 0.90134 0
M  V30 6194 N 580.711 6.86323 0.945118 0
M  V30 6195 N 582.504 5.54201 0.939043 0
M  V30 6196 H 574.655 2.01406 -0.674493 0
M  V30 6197 H 576.918 0.916828 -0.241103 0
M  V30 6198 H 576.624 3.50334 -0.309633 0
M  V30 6199 H 576.498 3.4861 1.44051 0
M  V30 6200 H 578.885 2.50206 1.56465 0
M  V30 6201 H 578.966 2.54999 -0.202262 0
M  V30 6202 H 578.61 5.07739 -0.12774 0
M  V30 6203 H 578.54 5.00058 1.65074 0
M  V30 6204 H 581.031 3.69452 0.794594 0
M  V30 6205 H 581.344 7.66194 1.0083 0
M  V30 6206 H 579.689 6.88968 0.913683 0
M  V30 6207 H 582.88 4.59333 0.901725 0
M  V30 6208 H 583.053 6.40247 0.999402 0
M  V30 6209 N 576.459 -0.456382 1.50847 0
M  V30 6210 C 577.369 -1.57805 1.73594 0
M  V30 6211 C 578.385 -1.62599 0.619476 0
M  V30 6212 O 579.561 -1.80195 0.899532 0
M  V30 6213 C 576.626 -2.93926 1.8387 0
M  V30 6214 C 575.687 -2.99402 3.07663 0
M  V30 6215 C 574.92 -4.29031 3.1744 0
M  V30 6216 O 575.143 -5.20358 2.33631 0
M  V30 6217 O 574.077 -4.40401 4.10281 0
M  V30 6218 H 577.903 -1.41531 2.68705 0
M  V30 6219 H 575.488 -0.637422 1.3512 0
M  V30 6220 H 577.37 -3.74747 1.92725 0
M  V30 6221 H 576.045 -3.10368 0.91944 0
M  V30 6222 H 574.952 -2.17606 3.043 0
M  V30 6223 H 576.285 -2.87901 3.99216 0
M  V30 6224 N 577.937 -1.40673 -0.710563 0
M  V30 6225 C 578.884 -1.41336 -1.82463 0
M  V30 6226 C 579.854 -0.269648 -1.63897 0
M  V30 6227 O 581.039 -0.468463 -1.8496 0
M  V30 6228 C 578.179 -1.28665 -3.20218 0
M  V30 6229 C 577.292 -2.52784 -3.5032 0
M  V30 6230 C 576.427 -2.32517 -4.77608 0
M  V30 6231 C 575.466 -3.52187 -5.0063 0
M  V30 6232 N 574.603 -3.31084 -6.19135 0
M  V30 6233 H 579.443 -2.36558 -1.8123 0
M  V30 6234 H 576.98 -1.17483 -0.885226 0
M  V30 6235 H 578.938 -1.19324 -3.99772 0
M  V30 6236 H 577.568 -0.370602 -3.20666 0
M  V30 6237 H 576.62 -2.72634 -2.65283 0
M  V30 6238 H 577.932 -3.41845 -3.63241 0
M  V30 6239 H 577.086 -2.20558 -5.65189 0
M  V30 6240 H 575.825 -1.40889 -4.66906 0
M  V30 6241 H 574.83 -3.64617 -4.11502 0
M  V30 6242 H 576.055 -4.44749 -5.13201 0
M  V30 6243 H 574.001 -2.42143 -6.09674 0
M  V30 6244 H 573.918 -4.13713 -6.32754 0
M  V30 6245 H 575.186 -3.22868 -7.0949 0
M  V30 6246 N 579.415 0.9433 -1.26252 0
M  V30 6247 C 580.378 2.02326 -1.07689 0
M  V30 6248 C 581.378 1.60779 -0.0259174 0
M  V30 6249 O 582.568 1.72108 -0.269134 0
M  V30 6250 C 579.7 3.34886 -0.63752 0
M  V30 6251 H 580.893 2.20225 -2.0357 0
M  V30 6252 H 578.446 1.12197 -1.08819 0
M  V30 6253 H 579.181 3.22684 0.323377 0
M  V30 6254 H 578.966 3.66393 -1.39637 0
M  V30 6255 H 580.456 4.14231 -0.529418 0
M  V30 6256 N 580.893 1.08022 1.14757 0
M  V30 6257 C 582.304 0.829144 1.67279 0
M  V30 6258 C 582.655 -0.644721 1.85305 0
M  V30 6259 O 581.78 -1.49838 1.56133 0
M  V30 6260 C 582.375 1.49855 3.03857 0
M  V30 6261 C 580.934 1.29482 3.53428 0
M  V30 6262 C 580.081 1.56386 2.28995 0
M  V30 6263 H 583.032 1.24134 0.988762 0
M  V30 6264 H 583.053 0.923572 3.69121 0
M  V30 6265 H 582.565 2.57123 2.90705 0
M  V30 6266 H 580.666 0.242669 3.71809 0
M  V30 6267 H 580.779 2.01974 4.34446 0
M  V30 6268 H 579.143 0.985217 2.34874 0
M  V30 6269 H 579.926 2.64851 2.18423 0
M  V30 6270 N 582.371 -1.3172 0.865308 0
M  V30 6271 C 583.596 -2.01591 0.487415 0
M  V30 6272 C 584.021 -1.6455 -0.911307 0
M  V30 6273 O 583.379 -0.851689 -1.6005 0
M  V30 6274 C 583.427 -3.54759 0.646401 0
M  V30 6275 O 582.531 -4.11185 -0.316284 0
M  V30 6276 H 581.872 -0.634884 0.194468 0
M  V30 6277 H 584.402 -1.68024 1.16744 0
M  V30 6278 H 584.412 -4.04438 0.537932 0
M  V30 6279 H 583.087 -3.8106 1.66632 0
M  V30 6280 H 581.664 -3.72543 -0.163162 0
M  V30 6281 N 583.85 -0.624285 -1.44708 0
M  V30 6282 C 584.779 0.0717025 -2.3339 0
M  V30 6283 C 585.76 0.841814 -1.47809 0
M  V30 6284 O 586.946 0.809056 -1.76544 0
M  V30 6285 C 584.076 1.05852 -3.30776 0
M  V30 6286 C 583.029 0.400503 -4.26122 0
M  V30 6287 C 582.356 1.49674 -5.13324 0
M  V30 6288 C 583.656 -0.688924 -5.17737 0
M  V30 6289 H 585.35 -0.668819 -2.91834 0
M  V30 6290 H 582.896 -0.32308 -1.40329 0
M  V30 6291 H 584.849 1.5541 -3.91696 0
M  V30 6292 H 583.572 1.82984 -2.70526 0
M  V30 6293 H 582.231 -0.0743687 -3.66525 0
M  V30 6294 H 581.88 2.25877 -4.49431 0
M  V30 6295 H 581.58 1.06188 -5.77926 0
M  V30 6296 H 583.104 1.99427 -5.77115 0
M  V30 6297 H 584.518 -0.276724 -5.72632 0
M  V30 6298 H 582.915 -1.04652 -5.90904 0
M  V30 6299 H 583.985 -1.55884 -4.5916 0
M  V30 6300 N 585.328 1.53329 -0.364422 0
M  V30 6301 C 586.575 2.01239 0.225634 0
M  V30 6302 C 586.903 1.25172 1.48869 0
M  V30 6303 O 586.158 0.333289 1.92841 0
M  V30 6304 C 586.457 3.52911 0.564661 0
M  V30 6305 C 586.123 4.46837 -0.603936 0
M  V30 6306 C 584.785 4.72234 -0.924585 0
M  V30 6307 C 587.137 5.02409 -1.38691 0
M  V30 6308 C 584.465 5.50454 -2.0302 0
M  V30 6309 C 586.817 5.81836 -2.48293 0
M  V30 6310 C 585.481 6.0552 -2.80894 0
M  V30 6311 H 584.751 0.736386 0.0825654 0
M  V30 6312 H 587.398 1.84948 -0.496645 0
M  V30 6313 H 585.703 3.67144 1.36794 0
M  V30 6314 H 587.4 3.87455 1.03344 0
M  V30 6315 H 583.99 4.27217 -0.343983 0
M  V30 6316 H 588.174 4.82735 -1.15243 0
M  V30 6317 H 583.43 5.67024 -2.28678 0
M  V30 6318 H 587.604 6.23905 -3.0938 0
M  V30 6319 H 585.231 6.65916 -3.66688 0
M  V30 6320 N 586.806 0.0935595 1.57322 0
M  V30 6321 C 588.031 -0.582324 1.99057 0
M  V30 6322 C 588.456 -1.61025 0.972242 0
M  V30 6323 O 587.814 -1.81202 -0.0594622 0
M  V30 6324 C 587.862 -1.20799 3.39765 0
M  V30 6325 O 586.966 -2.32382 3.40694 0
M  V30 6326 H 586.307 -0.147884 0.647323 0
M  V30 6327 H 588.837 0.174516 2.03854 0
M  V30 6328 H 588.847 -1.54966 3.77425 0
M  V30 6329 H 587.522 -0.454914 4.13405 0
M  V30 6330 H 586.099 -1.99845 3.14827 0
M  V30 6331 N 588.284 -1.56567 -0.180126 0
M  V30 6332 C 589.509 -1.85975 -0.918041 0
M  V30 6333 C 589.934 -0.678888 -1.75422 0
M  V30 6334 O 589.292 0.372168 -1.77439 0
M  V30 6335 C 589.34 -3.13731 -1.77779 0
M  V30 6336 O 588.444 -2.95335 -2.87838 0
M  V30 6337 H 587.785 -0.61196 -0.257683 0
M  V30 6338 H 590.315 -2.03798 -0.180923 0
M  V30 6339 H 590.325 -3.4491 -2.17948 0
M  V30 6340 H 589 -3.99293 -1.16352 0
M  V30 6341 H 587.577 -2.7549 -2.51316 0
M  V30 6342 N 589.762 0.448376 -1.51087 0
M  V30 6343 C 591.178 0.783984 -1.39017 0
M  V30 6344 C 591.378 1.96087 -0.463904 0
M  V30 6345 O 590.434 2.52357 0.0850534 0
M  V30 6346 C 591.747 1.07471 -2.80839 0
M  V30 6347 C 593.295 1.17981 -2.89913 0
M  V30 6348 C 593.77 1.50354 -4.32617 0
M  V30 6349 N 595.261 1.57301 -4.35673 0
M  V30 6350 C 595.996 1.839 -5.4311 0
M  V30 6351 N 595.492 2.08365 -6.60724 0
M  V30 6352 N 597.285 1.8559 -5.30578 0
M  V30 6353 H 589.436 -0.326881 -2.0987 0
M  V30 6354 H 591.699 -0.0838006 -0.944289 0
M  V30 6355 H 591.405 0.282768 -3.50561 0
M  V30 6356 H 591.279 2.00519 -3.19487 0
M  V30 6357 H 593.666 1.9624 -2.20395 0
M  V30 6358 H 593.747 0.228603 -2.54776 0
M  V30 6359 H 593.391 0.726273 -5.0268 0
M  V30 6360 H 593.321 2.46663 -4.65258 0
M  V30 6361 H 595.812 1.40342 -3.50874 0
M  V30 6362 H 596.125 2.27999 -7.38401 0
M  V30 6363 H 594.47 2.0571 -6.63859 0
M  V30 6364 H 597.661 1.65989 -4.37682 0
M  V30 6365 H 597.834 2.05983 -6.1439 0
M  V30 6366 N 591.24 1.41047 0.703093 0
M  V30 6367 C 592.489 1.39301 1.4587 0
M  V30 6368 C 592.802 0.00267077 1.956 0
M  V30 6369 O 594.008 -0.137414 2.71152 0
M  V30 6370 C 592.464 2.44891 2.63735 0
M  V30 6371 C 592.072 3.89796 2.20824 0
M  V30 6372 C 593.816 2.5227 3.41409 0
M  V30 6373 C 591.723 4.86955 3.35602 0
M  V30 6374 H 590.653 0.518005 0.547893 0
M  V30 6375 H 593.304 1.66839 0.764009 0
M  V30 6376 H 591.686 2.10472 3.35436 0
M  V30 6377 H 592.86 4.33424 1.56461 0
M  V30 6378 H 591.175 3.86008 1.56163 0
M  V30 6379 H 593.772 3.22044 4.26839 0
M  V30 6380 H 594.115 1.55714 3.86081 0
M  V30 6381 H 594.648 2.85742 2.7676 0
M  V30 6382 H 591.387 5.84888 2.9595 0
M  V30 6383 H 590.907 4.47982 3.98839 0
M  V30 6384 H 592.586 5.07361 4.01489 0
M  V30 6385 N 592.718 -0.936591 1.26751 0
M  V30 6386 C 593.648 -2.05315 1.11212 0
M  V30 6387 C 594.629 -1.70092 0.0160262 0
M  V30 6388 O 595.814 -1.93279 0.188894 0
M  V30 6389 C 592.944 -3.39123 0.749171 0
M  V30 6390 C 591.898 -3.88425 1.79751 0
M  V30 6391 C 591.224 -5.18936 1.28876 0
M  V30 6392 C 592.524 -4.12798 3.19992 0
M  V30 6393 H 594.218 -2.18573 2.04613 0
M  V30 6394 H 591.764 -1.05027 0.985159 0
M  V30 6395 H 593.717 -4.16704 0.627323 0
M  V30 6396 H 592.441 -3.25855 -0.220543 0
M  V30 6397 H 591.1 -3.13028 1.90811 0
M  V30 6398 H 590.748 -5.02051 0.308757 0
M  V30 6399 H 590.448 -5.52892 1.98958 0
M  V30 6400 H 591.972 -5.99096 1.17967 0
M  V30 6401 H 593.386 -4.80977 3.11983 0
M  V30 6402 H 591.783 -4.58044 3.87705 0
M  V30 6403 H 592.853 -3.18412 3.65707 0
M  V30 6404 N 594.196 -1.08629 -1.14182 0
M  V30 6405 C 595.144 -0.71284 -2.21408 0
M  V30 6406 C 596.138 0.282457 -1.67029 0
M  V30 6407 O 597.344 0.144783 -1.79417 0
M  V30 6408 H 593.719 -0.212497 -0.721352 0
M  V30 6409 H 595.69 -1.6265 -2.50175 0
M  V30 6410 C 594.439 -0.140704 -3.47415 0
M  V30 6411 H 593.762 -0.897739 -3.8959 0
M  V30 6412 H 595.202 0.0827677 -4.23919 0
M  V30 6413 C 593.661 1.122 -3.17668 0
M  V30 6414 O 594.191 2.20652 -3.35672 0
M  V30 6415 N 592.397 1.03328 -2.71609 0
M  V30 6416 H 591.944 0.150666 -2.57159 0
M  V30 6417 H 591.902 1.8789 -2.52081 0
M  V30 6418 N 595.674 1.31259 -0.872281 0
M  V30 6419 C 596.621 2.28459 -0.327857 0
M  V30 6420 C 597.591 1.55831 0.574957 0
M  V30 6421 O 598.776 1.83965 0.506101 0
M  V30 6422 C 595.916 3.41985 0.462644 0
M  V30 6423 C 595.029 4.29458 -0.467949 0
M  V30 6424 C 594.164 5.30131 0.336903 0
M  V30 6425 C 593.203 6.0925 -0.58997 0
M  V30 6426 N 592.34 7.01872 0.178775 0
M  V30 6427 H 597.18 2.74414 -1.16193 0
M  V30 6428 H 594.717 1.34994 -0.584376 0
M  V30 6429 H 596.675 4.06547 0.936759 0
M  V30 6430 H 595.305 2.97134 1.2614 0
M  V30 6431 H 594.357 3.65318 -1.06052 0
M  V30 6432 H 595.669 4.84677 -1.17856 0
M  V30 6433 H 594.823 6.0038 0.873427 0
M  V30 6434 H 593.562 4.75573 1.08079 0
M  V30 6435 H 592.567 5.37889 -1.13823 0
M  V30 6436 H 593.792 6.65894 -1.33275 0
M  V30 6437 H 591.738 6.49721 0.905435 0
M  V30 6438 H 591.655 7.54522 -0.472452 0
M  V30 6439 H 592.923 7.76382 0.696454 0
M  V30 6440 N 597.152 0.631951 1.44375 0
M  V30 6441 C 598.115 -0.0628142 2.29114 0
M  V30 6442 C 599.115 -0.771494 1.41084 0
M  V30 6443 O 600.305 -0.615959 1.62947 0
M  V30 6444 C 597.437 -1.09953 3.22681 0
M  V30 6445 H 598.63 0.682509 2.92031 0
M  V30 6446 H 596.183 0.392128 1.51301 0
M  V30 6447 H 596.918 -1.87481 2.64616 0
M  V30 6448 H 596.703 -0.595286 3.87555 0
M  V30 6449 H 598.193 -1.58538 3.86336 0
M  V30 6450 N 598.631 -1.53133 0.372548 0
M  V30 6451 C 599.877 -2.01654 -0.215277 0
M  V30 6452 C 600.21 -1.25914 -1.47849 0
M  V30 6453 O 599.485 -0.3548 -1.91237 0
M  V30 6454 C 599.768 -3.56609 -0.500187 0
M  V30 6455 C 599.621 -4.43036 0.777145 0
M  V30 6456 C 600.94 -4.20528 -1.29786 0
M  V30 6457 H 598.059 -0.732991 -0.0767686 0
M  V30 6458 H 600.701 -1.83335 0.498814 0
M  V30 6459 H 598.851 -3.7235 -1.10852 0
M  V30 6460 H 600.523 -4.39079 1.41447 0
M  V30 6461 H 598.766 -4.10723 1.39604 0
M  V30 6462 H 599.437 -5.49424 0.532662 0
M  V30 6463 H 601.913 -4.08663 -0.783198 0
M  V30 6464 H 600.789 -5.28962 -1.46596 0
M  V30 6465 H 601.05 -3.77051 -2.30836 0
M  V30 6466 N 600.109 -0.101901 -1.5727 0
M  V30 6467 C 601.339 0.567568 -1.98651 0
M  V30 6468 C 601.747 1.61839 -0.980037 0
M  V30 6469 O 601.09 1.83661 0.0376564 0
M  V30 6470 C 601.152 1.26742 -3.36417 0
M  V30 6471 C 600.816 0.366561 -4.55528 0
M  V30 6472 C 601.813 -0.388022 -5.1845 0
M  V30 6473 C 599.498 0.282629 -5.01504 0
M  V30 6474 C 601.492 -1.21445 -6.25724 0
M  V30 6475 C 599.179 -0.547443 -6.08643 0
M  V30 6476 C 600.177 -1.29462 -6.70618 0
M  V30 6477 O 599.865 -2.11095 -7.7569 0
M  V30 6478 H 599.597 0.156282 -0.657687 0
M  V30 6479 H 602.151 -0.179912 -2.04611 0
M  V30 6480 H 600.381 2.06162 -3.27161 0
M  V30 6481 H 602.07 1.8321 -3.622 0
M  V30 6482 H 602.836 -0.332949 -4.83856 0
M  V30 6483 H 598.715 0.853868 -4.53023 0
M  V30 6484 H 602.259 -1.79814 -6.74027 0
M  V30 6485 H 598.156 -0.603971 -6.42668 0
M  V30 6486 H 598.924 -2.03851 -7.92709 0
M  V30 6487 N 601.587 1.56661 0.17182 0
M  V30 6488 C 602.517 1.99401 1.21498 0
M  V30 6489 C 603.498 0.869516 1.46197 0
M  V30 6490 O 604.683 1.13556 1.57539 0
M  V30 6491 C 601.813 2.35346 2.55401 0
M  V30 6492 C 600.767 3.5075 2.45272 0
M  V30 6493 C 600.093 3.72437 3.8366 0
M  V30 6494 C 601.393 4.84216 1.95787 0
M  V30 6495 H 603.087 2.86792 0.859699 0
M  V30 6496 H 600.633 1.37977 0.412103 0
M  V30 6497 H 602.586 2.63843 3.2858 0
M  V30 6498 H 601.31 1.44864 2.92715 0
M  V30 6499 H 599.969 3.2238 1.74547 0
M  V30 6500 H 599.617 2.79246 4.18367 0
M  V30 6501 H 599.317 4.50087 3.77751 0
M  V30 6502 H 600.841 4.03334 4.58426 0
M  V30 6503 H 602.255 5.11592 2.5874 0
M  V30 6504 H 600.652 5.65498 2.00827 0
M  V30 6505 H 601.722 4.76243 0.912159 0
M  V30 6506 N 603.065 -0.440357 1.51323 0
M  V30 6507 C 604.312 -1.19004 1.63842 0
M  V30 6508 C 604.64 -1.91266 0.35321 0
M  V30 6509 O 603.895 -1.84143 -0.662565 0
M  V30 6510 C 604.194 -2.2339 2.78984 0
M  V30 6511 C 603.86 -1.68162 4.18369 0
M  V30 6512 C 602.522 -1.52823 4.56288 0
M  V30 6513 C 604.874 -1.27524 5.05358 0
M  V30 6514 C 602.202 -0.953157 5.78906 0
M  V30 6515 C 604.554 -0.714474 6.28552 0
M  V30 6516 C 603.218 -0.547961 6.65247 0
M  V30 6517 H 602.488 -0.435468 0.59954 0
M  V30 6518 H 605.135 -0.481538 1.85347 0
M  V30 6519 H 603.44 -3.00267 2.51688 0
M  V30 6520 H 605.137 -2.81211 2.85869 0
M  V30 6521 H 601.727 -1.81077 3.8847 0
M  V30 6522 H 605.911 -1.38197 4.76671 0
M  V30 6523 H 601.167 -0.811882 6.05986 0
M  V30 6524 H 605.341 -0.391059 6.95301 0
M  V30 6525 H 602.968 -0.100222 7.60134 0
M  V30 6526 N 604.543 -1.41418 -0.695603 0
M  V30 6527 C 605.773 -1.43921 -1.48224 0
M  V30 6528 C 606.181 -0.0428855 -1.89151 0
M  V30 6529 O 605.524 0.948138 -1.5734 0
M  V30 6530 C 605.586 -2.28466 -2.77567 0
M  V30 6531 C 605.25 -3.76629 -2.58844 0
M  V30 6532 C 606.247 -4.6879 -2.24793 0
M  V30 6533 C 603.932 -4.2067 -2.74485 0
M  V30 6534 C 605.926 -6.02981 -2.06622 0
M  V30 6535 C 603.613 -5.54926 -2.55931 0
M  V30 6536 C 604.611 -6.45897 -2.2205 0
M  V30 6537 O 604.299 -7.77675 -2.03657 0
M  V30 6538 H 604.031 -0.492252 -0.463318 0
M  V30 6539 H 606.585 -1.86347 -0.863952 0
M  V30 6540 H 604.815 -1.80853 -3.41802 0
M  V30 6541 H 606.504 -2.2267 -3.39371 0
M  V30 6542 H 607.27 -4.36055 -2.12323 0
M  V30 6543 H 603.149 -3.50167 -2.9984 0
M  V30 6544 H 606.693 -6.73951 -1.80099 0
M  V30 6545 H 602.59 -5.8724 -2.67991 0
M  V30 6546 H 603.358 -7.88819 -2.1842 0
M  V30 6547 N 606.021 0.929856 -1.27246 0
M  V30 6548 C 607.269 1.674 -1.13233 0
M  V30 6549 C 607.59 1.92311 0.322744 0
M  V30 6550 O 606.86 1.52784 1.22612 0
M  V30 6551 H 605.44 0.620411 -0.416052 0
M  V30 6552 H 608.102 1.11663 -1.59741 0
M  V30 6553 H 607.198 2.64308 -1.65975 0
M  V30 6554 N 607.499 1.09233 1.13605 0
M  V30 6555 C 608.727 0.848908 1.88683 0
M  V30 6556 C 609.142 -0.599667 1.79024 0
M  V30 6557 O 608.499 -1.41265 1.15544 0
M  V30 6558 C 608.55 1.27273 3.38355 0
M  V30 6559 O 608.271 2.66449 3.47759 0
M  V30 6560 C 609.772 1.0614 4.30406 0
M  V30 6561 H 606.992 0.305549 0.597395 0
M  V30 6562 H 609.536 1.4538 1.43823 0
M  V30 6563 H 607.691 0.711776 3.80805 0
M  V30 6564 H 608.105 2.84264 4.40788 0
M  V30 6565 H 609.579 1.40725 5.33761 0
M  V30 6566 H 610.056 -0.000960332 4.392 0
M  V30 6567 H 610.662 1.60821 3.93722 0
M  V30 6568 N 608.977 -1.30795 0.87923 0
M  V30 6569 C 609.924 -2.28282 0.339968 0
M  V30 6570 C 610.894 -1.56134 -0.566685 0
M  V30 6571 O 612.079 -1.84231 -0.496338 0
M  V30 6572 C 609.219 -3.42225 -0.444501 0
M  V30 6573 C 608.332 -4.29204 0.490717 0
M  V30 6574 C 607.467 -5.30302 -0.308784 0
M  V30 6575 C 606.506 -6.08929 0.622272 0
M  V30 6576 N 605.643 -7.01957 -0.14155 0
M  V30 6577 H 610.483 -2.73794 1.17647 0
M  V30 6578 H 608.02 -1.34682 0.591527 0
M  V30 6579 H 609.978 -4.07038 -0.915186 0
M  V30 6580 H 608.608 -2.97799 -1.24562 0
M  V30 6581 H 607.66 -3.6475 1.07988 0
M  V30 6582 H 608.972 -4.84045 1.20425 0
M  V30 6583 H 608.126 -6.00835 -0.841575 0
M  V30 6584 H 606.865 -4.7614 -1.05556 0
M  V30 6585 H 605.87 -5.37278 1.16674 0
M  V30 6586 H 607.095 -6.65178 1.36804 0
M  V30 6587 H 605.041 -6.50192 -0.870966 0
M  V30 6588 H 604.958 -7.54261 0.51246 0
M  V30 6589 H 606.226 -7.76741 -0.655271 0
M  V30 6590 N 610.455 -0.639598 -1.44038 0
M  V30 6591 C 611.732 -0.078012 -1.95444 0
M  V30 6592 C 612.112 1.39847 -1.58133 0
M  V30 6593 O 611.46 2.11714 -0.859614 0
M  V30 6594 C 611.67 -0.309832 -3.47622 0
M  V30 6595 C 613.018 -0.207521 -4.24093 0
M  V30 6596 O 614.042 -0.241653 -3.55379 0
M  V30 6597 O 612.901 -0.119641 -5.46369 0
M  V30 6598 H 609.995 0.0174534 -0.826816 0
M  V30 6599 H 612.541 -0.711891 -1.54046 0
M  V30 6600 H 611.313 -1.33401 -3.67858 0
M  V30 6601 H 610.936 0.357777 -3.95987 0
M  V30 6602 N 611.933 1.52934 -0.380664 0
M  V30 6603 C 613.173 2.03378 0.204161 0
M  V30 6604 C 613.537 1.26132 1.44758 0
M  V30 6605 O 614.738 1.66657 2.109 0
M  V30 6606 C 613.009 3.54241 0.474118 0
M  V30 6607 S 614.568 4.26529 1.03046 0
M  V30 6608 H 611.386 0.708608 0.0582719 0
M  V30 6609 H 613.988 1.88263 -0.527017 0
M  V30 6610 H 612.692 4.08055 -0.438088 0
M  V30 6611 H 612.223 3.73547 1.23396 0
M  V30 6612 H 614.238 4.38964 2.31354 0
M  V30 6613 N 613.412 0.11024 1.57214 0
M  V30 6614 C 614.342 -0.840002 2.17867 0
M  V30 6615 C 615.323 -1.28352 1.11624 0
M  V30 6616 O 616.508 -1.3477 1.39824 0
M  V30 6617 C 613.638 -2.09349 2.77111 0
M  V30 6618 C 612.592 -1.78807 3.8886 0
M  V30 6619 C 611.918 -3.11112 4.34872 0
M  V30 6620 C 613.218 -1.0632 5.11364 0
M  V30 6621 H 614.912 -0.334608 2.97524 0
M  V30 6622 H 612.458 -0.159502 1.43114 0
M  V30 6623 H 614.411 -2.76275 3.18198 0
M  V30 6624 H 613.135 -2.62198 1.9473 0
M  V30 6625 H 611.794 -1.14273 3.48335 0
M  V30 6626 H 611.442 -3.61877 3.49362 0
M  V30 6627 H 611.142 -2.91453 5.10224 0
M  V30 6628 H 612.666 -3.79171 4.78604 0
M  V30 6629 H 614.08 -1.63383 5.49526 0
M  V30 6630 H 612.477 -0.967876 5.92243 0
M  V30 6631 H 613.547 -0.0484569 4.84876 0
M  V30 6632 N 614.89 -1.56749 -0.16351 0
M  V30 6633 C 616.136 -1.82704 -0.880168 0
M  V30 6634 C 616.469 -0.689311 -1.81555 0
M  V30 6635 O 615.744 0.308224 -1.92042 0
M  V30 6636 C 616.027 -3.19084 -1.66905 0
M  V30 6637 C 615.88 -4.43397 -0.756269 0
M  V30 6638 C 617.199 -3.52493 -2.63509 0
M  V30 6639 H 614.318 -0.664608 -0.318535 0
M  V30 6640 H 616.96 -1.89438 -0.146036 0
M  V30 6641 H 615.11 -3.13475 -2.2949 0
M  V30 6642 H 616.782 -4.61079 -0.14269 0
M  V30 6643 H 615.025 -4.33752 -0.0647944 0
M  V30 6644 H 615.696 -5.3539 -1.34393 0
M  V30 6645 H 618.172 -3.58606 -2.11047 0
M  V30 6646 H 617.048 -4.48979 -3.15767 0
M  V30 6647 H 617.309 -2.77597 -3.44082 0
M  V30 6648 N 616.368 0.432326 -1.51554 0
M  V30 6649 C 617.3 1.54357 -1.6943 0
M  V30 6650 C 618.313 1.52311 -0.574897 0
M  V30 6651 O 619.502 1.56997 -0.849369 0
M  V30 6652 C 616.602 2.93273 -1.69836 0
M  V30 6653 C 615.775 3.19768 -2.98442 0
M  V30 6654 C 614.834 4.38433 -2.90969 0
M  V30 6655 O 613.86 4.36842 -3.64908 0
M  V30 6656 N 615.062 5.42276 -2.07163 0
M  V30 6657 H 617.827 1.39426 -2.65293 0
M  V30 6658 H 615.388 0.621331 -1.49503 0
M  V30 6659 H 617.38 3.70687 -1.62399 0
M  V30 6660 H 615.95 3.01777 -0.815456 0
M  V30 6661 H 615.17 2.30607 -3.19709 0
M  V30 6662 H 616.458 3.343 -3.83563 0
M  V30 6663 H 615.856 5.46407 -1.46477 0
M  V30 6664 H 614.413 6.18524 -2.05601 0
M  V30 6665 N 617.846 1.41785 0.688094 0
M  V30 6666 C 618.756 1.46596 1.83158 0
M  V30 6667 C 619.772 0.355862 1.70322 0
M  V30 6668 O 620.948 0.604737 1.92106 0
M  V30 6669 C 618.013 1.35322 3.192 0
M  V30 6670 C 617.074 2.56711 3.4409 0
M  V30 6671 C 616.307 2.45965 4.73642 0
M  V30 6672 O 616.53 1.48827 5.50642 0
M  V30 6673 O 615.464 3.35859 4.99482 0
M  V30 6674 H 619.29 2.43083 1.82056 0
M  V30 6675 H 616.875 1.23404 0.842126 0
M  V30 6676 H 618.757 1.31347 4.00407 0
M  V30 6677 H 617.432 0.419536 3.2097 0
M  V30 6678 H 616.339 2.66262 2.62784 0
M  V30 6679 H 617.672 3.48933 3.47141 0
M  V30 6680 N 619.324 -0.923095 1.27737 0
M  V30 6681 C 620.564 -1.6858 1.15586 0
M  V30 6682 C 620.928 -1.89758 -0.292562 0
M  V30 6683 O 622.129 -2.6339 -0.536583 0
M  V30 6684 C 620.4 -3.01275 1.92271 0
M  V30 6685 S 621.959 -3.924 1.96387 0
M  V30 6686 H 618.777 -0.579069 0.412554 0
M  V30 6687 H 621.379 -1.09866 1.61709 0
M  V30 6688 H 620.083 -2.83556 2.96689 0
M  V30 6689 H 619.614 -3.6504 1.46661 0
M  V30 6690 H 621.629 -4.84667 1.06361 0
M  V30 6691 N 620.802 -1.09834 -1.13024 0
M  V30 6692 C 621.749 -0.741522 -2.18564 0
M  V30 6693 C 622.719 0.279236 -1.63736 0
M  V30 6694 O 623.904 0.159923 -1.90129 0
M  V30 6695 C 621.044 -0.17277 -3.44667 0
M  V30 6696 C 620.157 -1.24808 -4.13578 0
M  V30 6697 C 619.292 -0.641631 -5.27311 0
M  V30 6698 C 618.331 -1.69795 -5.88078 0
M  V30 6699 N 617.468 -1.11223 -6.93234 0
M  V30 6700 H 622.308 -1.64576 -2.48432 0
M  V30 6701 H 619.845 -0.822174 -1.21978 0
M  V30 6702 H 621.803 0.17482 -4.16834 0
M  V30 6703 H 620.433 0.694725 -3.15235 0
M  V30 6704 H 619.485 -1.71288 -3.39653 0
M  V30 6705 H 620.797 -2.04795 -4.54819 0
M  V30 6706 H 619.951 -0.243128 -6.06213 0
M  V30 6707 H 618.69 0.189742 -4.87331 0
M  V30 6708 H 617.695 -2.10595 -5.07868 0
M  V30 6709 H 618.92 -2.53206 -6.3013 0
M  V30 6710 H 616.866 -0.302208 -6.55304 0
M  V30 6711 H 616.783 -1.84901 -7.3304 0
M  V30 6712 H 618.051 -0.740068 -7.75979 0
M  V30 6713 N 622.28 1.30327 -0.886154 0
M  V30 6714 C 623.557 1.90922 -0.425217 0
M  V30 6715 C 623.937 1.80533 1.09413 0
M  V30 6716 O 623.285 1.2233 1.92996 0
M  V30 6717 C 623.495 3.36529 -0.924638 0
M  V30 6718 C 624.843 4.13598 -0.960305 0
M  V30 6719 O 625.867 3.45377 -0.871382 0
M  V30 6720 O 624.726 5.35482 -1.09184 0
M  V30 6721 H 621.82 0.81668 -0.130238 0
M  V30 6722 H 624.366 1.38886 -0.975132 0
M  V30 6723 H 623.138 3.38181 -1.96849 0
M  V30 6724 H 622.761 3.96021 -0.353955 0
M  V30 6725 N 623.758 0.647228 1.43697 0
M  V30 6726 C 624.688 -0.0345631 2.33474 0
M  V30 6727 C 625.669 -0.818193 1.4913 0
M  V30 6728 O 626.854 -0.780867 1.77809 0
M  V30 6729 C 623.984 -1.00576 3.32418 0
M  V30 6730 C 622.938 -0.33266 4.26705 0
M  V30 6731 C 622.264 -1.41489 5.1564 0
M  V30 6732 C 623.564 0.771204 5.16575 0
M  V30 6733 H 625.258 0.715163 2.90733 0
M  V30 6734 H 622.804 0.345364 1.39797 0
M  V30 6735 H 624.757 -1.49159 3.94119 0
M  V30 6736 H 623.481 -1.78657 2.73403 0
M  V30 6737 H 622.14 0.13267 3.6636 0
M  V30 6738 H 621.788 -2.18698 4.52968 0
M  V30 6739 H 621.488 -0.969799 5.79542 0
M  V30 6740 H 623.012 -1.9022 5.80214 0
M  V30 6741 H 624.426 0.36779 5.72119 0
M  V30 6742 H 622.823 1.1404 5.89165 0
M  V30 6743 H 623.893 1.63169 4.56622 0
M  V30 6744 N 625.236 -1.5273 0.388769 0
M  V30 6745 C 626.184 -2.27975 -0.461527 0
M  V30 6746 C 627.178 -1.31854 -1.06352 0
M  V30 6747 O 628.384 -1.49394 -1.00406 0
M  V30 6748 H 624.759 -0.733088 -0.16759 0
M  V30 6749 H 626.73 -2.97765 0.194579 0
M  V30 6750 C 625.479 -3.09881 -1.577 0
M  V30 6751 H 624.802 -3.83701 -1.12309 0
M  V30 6752 H 626.242 -3.6567 -2.14619 0
M  V30 6753 C 624.701 -2.22159 -2.53272 0
M  V30 6754 O 625.231 -1.84802 -3.56667 0
M  V30 6755 N 623.437 -1.8633 -2.23001 0
M  V30 6756 H 622.984 -2.16909 -1.38954 0
M  V30 6757 H 622.942 -1.27927 -2.87197 0
M  V30 6758 N 626.714 -0.118576 -1.57153 0
M  V30 6759 C 627.661 0.831789 -2.1529 0
M  V30 6760 C 628.631 1.26385 -1.07778 0
M  V30 6761 O 629.816 1.34144 -1.35684 0
M  V30 6762 C 626.956 2.07664 -2.75626 0
M  V30 6763 C 626.069 1.69298 -3.97444 0
M  V30 6764 C 625.204 2.88747 -4.45868 0
M  V30 6765 C 624.243 2.46619 -5.60219 0
M  V30 6766 N 623.38 3.5898 -6.03389 0
M  V30 6767 H 628.22 0.329183 -2.96176 0
M  V30 6768 H 625.757 0.150792 -1.46325 0
M  V30 6769 H 627.715 2.80601 -3.08738 0
M  V30 6770 H 626.345 2.55384 -1.97431 0
M  V30 6771 H 625.397 0.862374 -3.70496 0
M  V30 6772 H 626.709 1.34338 -4.80369 0
M  V30 6773 H 625.863 3.69909 -4.80887 0
M  V30 6774 H 624.602 3.26933 -3.61892 0
M  V30 6775 H 623.607 1.63889 -5.24805 0
M  V30 6776 H 624.832 2.0955 -6.45961 0
M  V30 6777 H 622.778 3.9684 -5.22354 0
M  V30 6778 H 622.695 3.27942 -6.81168 0
M  V30 6779 H 623.963 4.40583 -6.43045 0
M  V30 6780 N 628.193 1.56834 0.155195 0
M  V30 6781 C 629.14 1.97646 1.19184 0
M  V30 6782 C 630.11 0.842788 1.4313 0
M  V30 6783 O 631.295 1.1042 1.55602 0
M  V30 6784 C 628.435 2.35527 2.52232 0
M  V30 6785 C 627.548 3.62147 2.35529 0
M  V30 6786 C 626.683 3.89167 3.61555 0
M  V30 6787 C 625.722 5.09084 3.39853 0
M  V30 6788 N 624.859 5.32156 4.5799 0
M  V30 6789 H 629.699 2.8601 0.836802 0
M  V30 6790 H 627.236 1.41507 0.401758 0
M  V30 6791 H 629.194 2.55516 3.29799 0
M  V30 6792 H 627.824 1.50253 2.85699 0
M  V30 6793 H 626.876 3.4998 1.49057 0
M  V30 6794 H 628.188 4.49871 2.15448 0
M  V30 6795 H 627.342 4.09611 4.47553 0
M  V30 6796 H 626.081 2.9985 3.84632 0
M  V30 6797 H 625.086 4.88522 2.52243 0
M  V30 6798 H 626.311 5.99947 3.18183 0
M  V30 6799 H 624.257 4.45791 4.81255 0
M  V30 6800 H 624.174 6.14133 4.40882 0
M  V30 6801 H 625.442 5.57091 5.45225 0
M  V30 6802 N 629.671 -0.424282 1.51781 0
M  V30 6803 C 630.917 -1.17434 1.6534 0
M  V30 6804 C 631.25 -1.90549 0.374806 0
M  V30 6805 O 630.525 -1.84145 -0.626179 0
M  V30 6806 C 630.808 -2.18093 2.86544 0
M  V30 6807 C 630.661 -1.48975 4.24413 0
M  V30 6808 C 631.98 -3.18934 3.03264 0
M  V30 6809 H 629.099 -0.425566 0.601716 0
M  V30 6810 H 631.741 -0.461921 1.84299 0
M  V30 6811 H 629.891 -2.78849 2.7051 0
M  V30 6812 H 631.563 -0.914551 4.52143 0
M  V30 6813 H 629.806 -0.791893 4.26511 0
M  V30 6814 H 630.477 -2.22347 5.05238 0
M  V30 6815 H 632.953 -2.68243 3.18096 0
M  V30 6816 H 631.829 -3.86645 3.89611 0
M  V30 6817 H 632.09 -3.85793 2.15908 0
M  V30 6818 N 631.149 -1.42148 -0.680565 0
M  V30 6819 C 632.059 -1.47565 -1.82378 0
M  V30 6820 C 633.075 -0.36489 -1.70131 0
M  V30 6821 O 634.251 -0.614916 -1.91783 0
M  V30 6822 C 631.316 -1.37013 -3.18478 0
M  V30 6823 C 630.377 -2.58532 -3.42724 0
M  V30 6824 C 629.61 -2.48473 -4.72331 0
M  V30 6825 O 629.833 -1.51745 -5.49845 0
M  V30 6826 O 628.767 -3.38503 -4.97694 0
M  V30 6827 H 632.593 -2.44045 -1.80764 0
M  V30 6828 H 630.178 -1.23849 -0.835569 0
M  V30 6829 H 632.06 -1.33468 -3.99705 0
M  V30 6830 H 630.735 -0.436552 -3.20743 0
M  V30 6831 H 629.642 -2.67652 -2.61368 0
M  V30 6832 H 630.975 -3.50769 -3.45286 0
M  V30 6833 N 632.627 0.916307 -1.28225 0
M  V30 6834 C 633.557 2.0352 -1.14464 0
M  V30 6835 C 634.538 1.70045 -0.0430844 0
M  V30 6836 O 635.723 1.92954 -0.219619 0
M  V30 6837 C 632.853 3.37889 -0.803027 0
M  V30 6838 C 631.807 3.85516 -1.85908 0
M  V30 6839 C 631.133 5.1682 -1.37116 0
M  V30 6840 C 632.433 4.07655 -3.26519 0
M  V30 6841 H 634.127 2.1529 -2.08064 0
M  V30 6842 H 631.673 1.03446 -1.00174 0
M  V30 6843 H 633.626 4.15654 -0.693537 0
M  V30 6844 H 632.35 3.26164 0.168674 0
M  V30 6845 H 631.009 3.09953 -1.95767 0
M  V30 6846 H 630.657 5.01497 -0.38859 0
M  V30 6847 H 630.357 5.49657 -2.07728 0
M  V30 6848 H 631.881 5.97143 -1.27484 0
M  V30 6849 H 633.295 4.75953 -3.19596 0
M  V30 6850 H 631.692 4.51818 -3.94943 0
M  V30 6851 H 632.762 3.12553 -3.70727 0
M  V30 6852 N 634.105 1.10431 1.1244 0
M  V30 6853 C 635.015 0.765502 2.21759 0
M  V30 6854 C 636.031 -0.236966 1.72379 0
M  V30 6855 O 637.207 -0.0757329 2.01258 0
M  V30 6856 C 634.272 0.202316 3.46109 0
M  V30 6857 C 633.333 1.26205 4.1033 0
M  V30 6858 C 632.566 0.725648 5.28744 0
M  V30 6859 O 632.789 -0.447942 5.68638 0
M  V30 6860 O 631.723 1.48555 5.83279 0
M  V30 6861 H 635.549 1.67801 2.53133 0
M  V30 6862 H 633.134 0.879443 1.20773 0
M  V30 6863 H 635.016 -0.107918 4.21262 0
M  V30 6864 H 633.691 -0.683052 3.16411 0
M  V30 6865 H 632.598 1.62514 3.36957 0
M  V30 6866 H 633.931 2.12044 4.44183 0
M  V30 6867 N 635.583 -1.29855 0.893053 0
M  V30 6868 C 636.513 -2.3035 0.382249 0
M  V30 6869 C 637.494 -1.61328 -0.539203 0
M  V30 6870 O 638.679 -1.88882 -0.451342 0
M  V30 6871 C 635.809 -3.45024 -0.396983 0
M  V30 6872 C 634.763 -4.258 0.433437 0
M  V30 6873 C 634.089 -5.32605 -0.472889 0
M  V30 6874 C 635.389 -4.94549 1.67984 0
M  V30 6875 H 637.083 -2.73325 1.22205 0
M  V30 6876 H 634.629 -1.314 0.589073 0
M  V30 6877 H 636.582 -4.14398 -0.765024 0
M  V30 6878 H 635.306 -3.00875 -1.2705 0
M  V30 6879 H 633.965 -3.58125 0.783723 0
M  V30 6880 H 633.613 -4.84702 -1.34435 0
M  V30 6881 H 633.313 -5.87547 0.0789958 0
M  V30 6882 H 634.837 -6.04832 -0.837269 0
M  V30 6883 H 636.251 -5.56395 1.38192 0
M  V30 6884 H 634.648 -5.59393 2.17254 0
M  V30 6885 H 635.718 -4.20215 2.41965 0
M  V30 6886 N 637.061 -0.65484 -1.43351 0
M  V30 6887 C 638.338 -0.0987371 -1.95351 0
M  V30 6888 C 638.718 1.38161 -1.59608 0
M  V30 6889 O 638.066 2.10791 -0.882021 0
M  V30 6890 C 638.276 -0.346684 -3.47274 0
M  V30 6891 C 639.624 -0.25249 -4.23849 0
M  V30 6892 O 640.648 -0.279332 -3.55103 0
M  V30 6893 O 639.507 -0.177584 -5.46211 0
M  V30 6894 H 636.601 0.0086829 -0.826954 0
M  V30 6895 H 639.147 -0.728189 -1.53282 0
M  V30 6896 H 637.919 -1.37296 -3.66423 0
M  V30 6897 H 637.542 0.315757 -3.96344 0
M  V30 6898 N 638.539 1.52521 -0.396863 0
M  V30 6899 C 639.787 2.01274 0.182536 0
M  V30 6900 C 640.108 1.28485 1.46685 0
M  V30 6901 O 639.378 0.407134 1.91623 0
M  V30 6902 H 637.958 0.743671 0.0704442 0
M  V30 6903 H 640.62 1.87547 -0.530289 0
M  V30 6904 H 639.716 3.09687 0.387385 0
M  V30 6905 N 640.017 0.126909 1.57088 0
M  V30 6906 C 640.927 -0.833867 2.1928 0
M  V30 6907 C 641.943 -1.2868 1.17122 0
M  V30 6908 O 643.119 -1.34815 1.49622 0
M  V30 6909 C 640.184 -2.0632 2.78627 0
M  V30 6910 C 639.245 -1.66143 3.95847 0
M  V30 6911 C 638.478 -2.83217 4.52354 0
M  V30 6912 O 638.701 -3.98868 4.0775 0
M  V30 6913 O 637.635 -2.59846 5.42922 0
M  V30 6914 H 641.461 -0.334564 3.01852 0
M  V30 6915 H 639.046 -0.0991091 1.49071 0
M  V30 6916 H 640.928 -2.78304 3.16425 0
M  V30 6917 H 639.603 -2.55242 1.99082 0
M  V30 6918 H 638.51 -0.912435 3.62802 0
M  V30 6919 H 639.843 -1.21957 4.76852 0
M  V30 6920 N 641.495 -1.56914 -0.146875 0
M  V30 6921 C 642.911 -1.51582 -0.499518 0
M  V30 6922 C 643.111 -0.83535 -1.83369 0
M  V30 6923 O 642.167 -0.405932 -2.49216 0
M  V30 6924 C 643.48 -2.96349 -0.509711 0
M  V30 6925 C 645.028 -3.07288 -0.595217 0
M  V30 6926 C 645.503 -4.53562 -0.636071 0
M  V30 6927 N 646.994 -4.57906 -0.69829 0
M  V30 6928 C 647.729 -5.68462 -0.750886 0
M  V30 6929 N 647.225 -6.88588 -0.76282 0
M  V30 6930 N 649.018 -5.56496 -0.791777 0
M  V30 6931 H 641.169 -1.99547 0.727656 0
M  V30 6932 H 643.432 -0.910113 0.265327 0
M  V30 6933 H 643.138 -3.4939 0.402409 0
M  V30 6934 H 643.012 -3.52307 -1.34758 0
M  V30 6935 H 645.399 -2.54266 -1.49776 0
M  V30 6936 H 645.48 -2.54373 0.2698 0
M  V30 6937 H 645.124 -5.07222 0.262313 0
M  V30 6938 H 645.054 -5.04259 -1.51758 0
M  V30 6939 H 647.545 -3.71429 -0.696362 0
M  V30 6940 H 647.858 -7.68598 -0.804804 0
M  V30 6941 H 646.203 -6.91148 -0.730694 0
M  V30 6942 H 649.394 -4.61562 -0.779624 0
M  V30 6943 H 649.567 -6.42671 -0.829301 0
M  V30 6944 N 642.974 0.416227 -1.52004 0
M  V30 6945 C 644.22 1.16555 -1.6596 0
M  V30 6946 C 644.553 1.90347 -0.384906 0
M  V30 6947 O 643.828 1.84474 0.616405 0
M  V30 6948 C 644.111 2.1657 -2.87696 0
M  V30 6949 C 643.964 1.46722 -4.25197 0
M  V30 6950 C 645.283 3.17321 -3.04951 0
M  V30 6951 H 642.402 0.422369 -0.603965 0
M  V30 6952 H 645.044 0.452141 -1.84542 0
M  V30 6953 H 643.194 2.77411 -2.71985 0
M  V30 6954 H 644.866 0.89056 -4.52622 0
M  V30 6955 H 643.109 0.769263 -4.26925 0
M  V30 6956 H 643.78 2.19665 -5.0641 0
M  V30 6957 H 646.256 2.66552 -3.19514 0
M  V30 6958 H 645.132 3.84573 -3.91656 0
M  V30 6959 H 645.393 3.84643 -2.17951 0
M  V30 6960 N 644.452 1.42507 0.673017 0
M  V30 6961 C 645.415 1.4582 1.76831 0
M  V30 6962 C 646.415 0.345542 1.57043 0
M  V30 6963 O 647.605 0.606447 1.63303 0
M  V30 6964 C 644.737 1.29158 3.15485 0
M  V30 6965 H 645.93 2.43345 1.7528 0
M  V30 6966 H 643.483 1.28981 0.882817 0
M  V30 6967 H 644.218 0.325626 3.22661 0
M  V30 6968 H 644.003 2.09797 3.31252 0
M  V30 6969 H 645.493 1.34363 3.95394 0
M  V30 6970 N 645.93 -0.909495 1.28709 0
M  V30 6971 C 646.86 -2.0291 1.15542 0
M  V30 6972 C 647.841 -1.7002 0.0521017 0
M  V30 6973 O 649.026 -1.92835 0.229849 0
M  V30 6974 C 646.156 -3.37458 0.820935 0
M  V30 6975 C 645.11 -3.84524 1.87949 0
M  V30 6976 C 644.436 -5.16086 1.39854 0
M  V30 6977 C 645.736 -4.05918 3.28676 0
M  V30 6978 H 647.43 -2.14183 2.09203 0
M  V30 6979 H 644.976 -1.02913 1.00722 0
M  V30 6980 H 646.929 -4.1528 0.715571 0
M  V30 6981 H 645.653 -3.26249 -0.151374 0
M  V30 6982 H 644.312 -3.08911 1.97408 0
M  V30 6983 H 643.96 -5.01284 0.41518 0
M  V30 6984 H 643.66 -5.48547 2.1064 0
M  V30 6985 H 645.184 -5.96459 1.30649 0
M  V30 6986 H 646.598 -4.74252 3.22115 0
M  V30 6987 H 644.995 -4.49717 3.97334 0
M  V30 6988 H 646.065 -3.10583 3.72379 0
M  V30 6989 N 647.408 -1.11026 -1.11852 0
M  V30 6990 C 648.819 -0.873203 -1.65021 0
M  V30 6991 C 649.17 0.595364 -1.86949 0
M  V30 6992 O 648.295 1.45645 -1.60051 0
M  V30 6993 C 648.89 -1.57859 -2.99777 0
M  V30 6994 C 647.449 -1.38807 -3.49871 0
M  V30 6995 C 646.596 -1.62403 -2.24768 0
M  V30 6996 H 649.547 -1.26712 -0.955503 0
M  V30 6997 H 649.568 -1.02111 -3.66543 0
M  V30 6998 H 649.08 -2.6474 -2.83786 0
M  V30 6999 H 647.181 -0.341163 -3.71035 0
M  V30 7000 H 647.294 -2.13421 -4.28938 0
M  V30 7001 H 645.658 -1.04714 -2.32179 0
M  V30 7002 H 646.441 -2.70549 -2.11324 0
M  V30 7003 N 648.886 1.2938 -0.899927 0
M  V30 7004 C 650.111 2.00228 -0.540692 0
M  V30 7005 C 650.536 1.66909 0.867359 0
M  V30 7006 O 649.894 0.893824 1.57735 0
M  V30 7007 C 649.942 3.52921 -0.740232 0
M  V30 7008 O 649.046 4.11879 0.207154 0
M  V30 7009 H 648.387 0.629505 -0.211233 0
M  V30 7010 H 650.917 1.6487 -1.21158 0
M  V30 7011 H 650.927 4.0287 -0.644973 0
M  V30 7012 H 649.602 3.76508 -1.76677 0
M  V30 7013 H 648.179 3.72845 0.0643315 0
M  V30 7014 N 650.364 0.662433 1.43002 0
M  V30 7015 C 651.294 -0.00979809 2.33498 0
M  V30 7016 C 652.275 -0.802329 1.49989 0
M  V30 7017 O 653.46 -0.761964 1.78627 0
M  V30 7018 C 650.59 -0.970446 3.33466 0
M  V30 7019 C 649.544 -0.287383 4.27034 0
M  V30 7020 C 648.87 -1.36012 5.17112 0
M  V30 7021 C 650.17 0.82595 5.15728 0
M  V30 7022 H 651.864 0.745959 2.89958 0
M  V30 7023 H 649.41 0.360172 1.39423 0
M  V30 7024 H 651.363 -1.44971 3.95679 0
M  V30 7025 H 650.087 -1.75748 2.75282 0
M  V30 7026 H 648.746 0.17152 3.66199 0
M  V30 7027 H 648.394 -2.13882 4.55262 0
M  V30 7028 H 648.094 -0.908276 5.80538 0
M  V30 7029 H 649.618 -1.84056 5.82199 0
M  V30 7030 H 651.032 0.42845 5.71697 0
M  V30 7031 H 649.429 1.20282 5.87922 0
M  V30 7032 H 650.499 1.68003 4.54866 0
M  V30 7033 N 651.842 -1.52309 0.404946 0
M  V30 7034 C 652.752 -2.30634 -0.429555 0
M  V30 7035 C 653.768 -1.38187 -1.05737 0
M  V30 7036 O 654.944 -1.71261 -1.05979 0
M  V30 7037 C 652.009 -3.10947 -1.53339 0
M  V30 7038 C 651.07 -4.19126 -0.929065 0
M  V30 7039 C 650.303 -4.95601 -1.9803 0
M  V30 7040 O 650.526 -4.72331 -3.1978 0
M  V30 7041 O 649.46 -5.80551 -1.58886 0
M  V30 7042 H 653.286 -3.0298 0.208963 0
M  V30 7043 H 650.871 -1.4845 0.168255 0
M  V30 7044 H 652.753 -3.60974 -2.1743 0
M  V30 7045 H 651.428 -2.41399 -2.15658 0
M  V30 7046 H 650.335 -3.73257 -0.250982 0
M  V30 7047 H 651.668 -4.90955 -0.349855 0
M  V30 7048 N 653.32 -0.135238 -1.57019 0
M  V30 7049 C 654.568 0.51777 -1.95355 0
M  V30 7050 C 654.889 1.6617 -1.02042 0
M  V30 7051 O 654.159 1.95738 -0.0797343 0
M  V30 7052 H 652.739 0.194264 -0.721298 0
M  V30 7053 H 655.401 -0.207983 -1.93787 0
M  V30 7054 H 654.497 0.901675 -2.98791 0
M  V30 7055 N 654.798 1.5699 0.138552 0
M  V30 7056 C 656.047 1.82998 0.848205 0
M  V30 7057 C 656.36 0.717829 1.81952 0
M  V30 7058 O 657.566 0.863756 2.57394 0
M  V30 7059 C 656.022 3.24379 1.55904 0
M  V30 7060 C 655.63 4.43552 0.62971 0
M  V30 7061 C 657.374 3.59654 2.25498 0
M  V30 7062 C 655.281 5.75957 1.34266 0
M  V30 7063 H 654.211 0.682495 0.320495 0
M  V30 7064 H 656.862 1.83222 0.100924 0
M  V30 7065 H 655.244 3.18567 2.35226 0
M  V30 7066 H 656.418 4.6062 -0.128882 0
M  V30 7067 H 654.733 4.16379 0.0417526 0
M  V30 7068 H 657.33 4.55837 2.79493 0
M  V30 7069 H 657.673 2.86124 3.02388 0
M  V30 7070 H 658.206 3.67164 1.53087 0
M  V30 7071 H 654.945 6.52604 0.615441 0
M  V30 7072 H 654.465 5.62811 2.07375 0
M  V30 7073 H 656.144 6.19046 1.88126 0
M  V30 7074 N 656.276 -0.40816 1.52223 0
M  V30 7075 C 657.525 -1.15212 1.65557 0
M  V30 7076 C 657.838 -1.9163 0.392096 0
M  V30 7077 O 659.044 -2.68458 0.405256 0
M  V30 7078 C 657.5 -2.09691 2.92502 0
M  V30 7079 C 657.108 -1.38785 4.25961 0
M  V30 7080 C 658.852 -2.8434 3.152 0
M  V30 7081 C 656.759 -2.31919 5.44029 0
M  V30 7082 H 655.689 -0.433776 0.616729 0
M  V30 7083 H 658.34 -0.4165 1.78711 0
M  V30 7084 H 656.722 -2.8681 2.7305 0
M  V30 7085 H 657.896 -0.670248 4.55899 0
M  V30 7086 H 656.211 -0.761741 4.09373 0
M  V30 7087 H 658.808 -3.54166 4.00587 0
M  V30 7088 H 659.151 -3.47344 2.29473 0
M  V30 7089 H 659.684 -2.14321 3.35129 0
M  V30 7090 H 656.423 -1.7356 6.32105 0
M  V30 7091 H 655.943 -3.0165 5.18428 0
M  V30 7092 H 657.622 -2.92424 5.77146 0
M  V30 7093 N 657.755 -1.42862 -0.66545 0
M  V30 7094 C 659.001 -1.44043 -1.42757 0
M  V30 7095 C 659.334 -0.0599629 -1.94107 0
M  V30 7096 O 658.609 0.917286 -1.71511 0
M  V30 7097 C 658.892 -2.47266 -2.61786 0
M  V30 7098 C 658.745 -3.94539 -2.16007 0
M  V30 7099 C 660.064 -2.47365 -3.64003 0
M  V30 7100 H 657.183 -0.524506 -0.517748 0
M  V30 7101 H 659.825 -1.74335 -0.755466 0
M  V30 7102 H 657.975 -2.21565 -3.19126 0
M  V30 7103 H 659.647 -4.31254 -1.63762 0
M  V30 7104 H 657.89 -4.07957 -1.47491 0
M  V30 7105 H 658.561 -4.62357 -3.01546 0
M  V30 7106 H 661.037 -2.70243 -3.16399 0
M  V30 7107 H 659.913 -3.21552 -4.44854 0
M  V30 7108 H 660.174 -1.50299 -4.15767 0
M  V30 7109 N 659.233 0.902656 -1.29189 0
M  V30 7110 C 660.163 2.02294 -1.16616 0
M  V30 7111 C 661.144 1.6999 -0.0611175 0
M  V30 7112 O 662.329 1.9271 -0.240072 0
M  V30 7113 C 659.459 3.37018 -0.83882 0
M  V30 7114 C 658.413 3.83522 -1.89986 0
M  V30 7115 C 657.739 5.15337 -1.42589 0
M  V30 7116 C 659.039 4.04169 -3.30824 0
M  V30 7117 H 660.733 2.13071 -2.10336 0
M  V30 7118 H 658.279 1.02378 -1.01266 0
M  V30 7119 H 660.232 4.14895 -0.737584 0
M  V30 7120 H 658.956 3.26325 0.134071 0
M  V30 7121 H 657.615 3.07859 -1.99043 0
M  V30 7122 H 657.263 5.01056 -0.441759 0
M  V30 7123 H 656.963 5.47423 -2.13547 0
M  V30 7124 H 658.487 5.95758 -1.3381 0
M  V30 7125 H 659.901 4.72537 -3.24626 0
M  V30 7126 H 658.298 4.47604 -3.99713 0
M  V30 7127 H 659.368 3.08604 -3.74021 0
M  V30 7128 N 660.711 1.11618 1.11262 0
M  V30 7129 C 661.659 0.771291 2.1944 0
M  V30 7130 C 662.653 -0.238073 1.67719 0
M  V30 7131 O 663.859 -0.0971628 1.79738 0
M  V30 7132 H 660.234 0.231548 0.715465 0
M  V30 7133 H 662.205 1.69226 2.45775 0
M  V30 7134 C 660.954 0.232765 3.4692 0
M  V30 7135 H 660.277 1.00072 3.87073 0
M  V30 7136 H 661.717 0.0296561 4.2399 0
M  V30 7137 C 660.176 -1.03738 3.20531 0
M  V30 7138 O 660.706 -2.11675 3.41404 0
M  V30 7139 N 658.912 -0.960906 2.74253 0
M  V30 7140 H 658.459 -0.0824323 2.57468 0
M  V30 7141 H 658.417 -1.8114 2.56974 0
M  V30 7142 N 662.189 -1.289 0.906776 0
M  V30 7143 C 663.438 -1.9455 0.532262 0
M  V30 7144 C 663.751 -1.72219 -0.927353 0
M  V30 7145 O 664.957 -2.32033 -1.40971 0
M  V30 7146 C 663.413 -3.48438 0.901041 0
M  V30 7147 C 663.021 -3.79558 2.37991 0
M  V30 7148 C 664.765 -4.20284 0.596777 0
M  V30 7149 C 662.672 -5.26723 2.68918 0
M  V30 7150 H 661.602 -0.728259 0.195333 0
M  V30 7151 H 664.253 -1.46519 1.10474 0
M  V30 7152 H 662.635 -3.95162 0.257419 0
M  V30 7153 H 663.809 -3.43668 3.06967 0
M  V30 7154 H 662.124 -3.20868 2.65391 0
M  V30 7155 H 664.721 -5.28612 0.8046 0
M  V30 7156 H 665.064 -4.13694 -0.465072 0
M  V30 7157 H 665.597 -3.79315 1.19855 0
M  V30 7158 H 662.336 -5.38384 3.73928 0
M  V30 7159 H 661.856 -5.63836 2.04571 0
M  V30 7160 H 663.535 -5.94391 2.55555 0
M  V30 7161 N 663.667 -0.670007 -1.42649 0
M  V30 7162 C 664.915 -0.18991 -2.01206 0
M  V30 7163 C 665.236 1.20617 -1.53221 0
M  V30 7164 O 664.506 1.80898 -0.751856 0
M  V30 7165 H 663.086 -0.0672189 -0.743969 0
M  V30 7166 H 665.748 -0.865442 -1.74631 0
M  V30 7167 H 664.844 -0.187481 -3.11536 0
M  V30 7168 N 665.145 1.52092 -0.413018 0
M  V30 7169 C 666.375 2.05974 0.160648 0
M  V30 7170 C 666.783 1.28267 1.39084 0
M  V30 7171 O 666.126 0.328805 1.80733 0
M  V30 7172 C 666.188 3.54918 0.572169 0
M  V30 7173 C 665.852 4.53705 -0.547826 0
M  V30 7174 C 666.849 5.00342 -1.41259 0
M  V30 7175 C 664.534 4.97089 -0.721627 0
M  V30 7176 C 666.528 5.89011 -2.43607 0
M  V30 7177 C 664.215 5.85554 -1.74841 0
M  V30 7178 C 665.213 6.3141 -2.60403 0
M  V30 7179 O 664.901 7.18123 -3.61323 0
M  V30 7180 H 664.633 0.675636 0.0221936 0
M  V30 7181 H 667.187 1.96931 -0.58373 0
M  V30 7182 H 665.417 3.61661 1.36889 0
M  V30 7183 H 667.106 3.91428 1.0742 0
M  V30 7184 H 667.872 4.67537 -1.28974 0
M  V30 7185 H 663.751 4.60954 -0.0652911 0
M  V30 7186 H 667.295 6.24725 -3.10425 0
M  V30 7187 H 663.192 6.17773 -1.87156 0
M  V30 7188 H 663.96 7.36244 -3.57613 0
M  V30 7189 N 666.623 0.143563 1.56945 0
M  V30 7190 C 667.869 -0.502787 1.97088 0
M  V30 7191 C 668.224 -1.62703 1.02691 0
M  V30 7192 O 667.517 -1.91502 0.0613323 0
M  V30 7193 C 667.711 -1.05885 3.41355 0
M  V30 7194 C 667.54 0.00998209 4.49699 0
M  V30 7195 C 666.31 0.450229 5.0329 0
M  V30 7196 C 668.508 0.800174 5.08037 0
M  V30 7197 N 666.49 1.50227 5.95235 0
M  V30 7198 C 667.861 1.70279 5.96158 0
M  V30 7199 C 669.916 0.848344 4.9062 0
M  V30 7200 C 668.619 2.64945 6.68728 0
M  V30 7201 C 670.645 1.78281 5.63888 0
M  V30 7202 C 670.007 2.67296 6.51715 0
M  V30 7203 H 666.106 -0.152891 0.766908 0
M  V30 7204 H 668.69 0.23737 1.93248 0
M  V30 7205 H 666.861 -1.76863 3.45795 0
M  V30 7206 H 668.593 -1.67154 3.68567 0
M  V30 7207 H 665.348 0.0531355 4.7357 0
M  V30 7208 H 665.772 2.02795 6.45913 0
M  V30 7209 H 670.414 0.174228 4.22441 0
M  V30 7210 H 668.132 3.33358 7.36137 0
M  V30 7211 H 671.718 1.82584 5.52408 0
M  V30 7212 H 670.598 3.38428 7.07415 0
M  V30 7213 N 668.101 -1.57061 -0.130224 0
M  V30 7214 C 669.349 -1.83893 -0.838313 0
M  V30 7215 C 669.67 -0.727046 -1.80939 0
M  V30 7216 O 668.94 0.249927 -1.94299 0
M  V30 7217 H 667.52 -0.67846 -0.312573 0
M  V30 7218 H 670.182 -1.94529 -0.120224 0
M  V30 7219 H 669.278 -2.79419 -1.39038 0
M  V30 7220 N 669.579 0.400081 -1.52437 0
M  V30 7221 C 670.827 1.14392 -1.6661 0
M  V30 7222 C 671.148 1.90792 -0.402927 0
M  V30 7223 O 670.418 1.87042 0.582425 0
M  V30 7224 H 668.998 0.425275 -0.614125 0
M  V30 7225 H 671.66 0.455076 -1.89513 0
M  V30 7226 H 670.756 1.85298 -2.51139 0
M  V30 7227 N 671.057 1.43213 0.657864 0
M  V30 7228 C 672.305 1.44298 1.41501 0
M  V30 7229 C 672.626 0.0666478 1.94886 0
M  V30 7230 O 671.896 -0.897345 1.74139 0
M  V30 7231 H 670.476 0.531257 0.525143 0
M  V30 7232 H 673.138 1.78777 0.776195 0
M  V30 7233 H 672.234 2.1528 2.25966 0
M  V30 7234 N 672.536 -0.895792 1.29666 0
M  V30 7235 C 673.776 -1.6609 1.19136 0
M  V30 7236 C 674.14 -1.90336 -0.252245 0
M  V30 7237 O 675.341 -2.64469 -0.480593 0
M  V30 7238 C 673.612 -2.97129 1.98618 0
M  V30 7239 S 675.171 -3.88146 2.04666 0
M  V30 7240 H 671.989 -0.570188 0.424744 0
M  V30 7241 H 674.591 -1.06411 1.64003 0
M  V30 7242 H 673.295 -2.77199 3.02637 0
M  V30 7243 H 672.826 -3.61847 1.54371 0
M  V30 7244 H 674.841 -4.82301 1.16618 0
M  V30 7245 N 674.014 -1.12206 -1.10668 0
M  V30 7246 C 675.43 -0.857619 -1.346 0
M  V30 7247 C 675.63 0.513542 -1.94846 0
M  V30 7248 O 674.686 1.26273 -2.18658 0
M  V30 7249 C 675.999 -1.97212 -2.26998 0
M  V30 7250 C 677.547 -2.00272 -2.40542 0
M  V30 7251 C 678.022 -3.10948 -3.36267 0
M  V30 7252 N 679.513 -3.10375 -3.43834 0
M  V30 7253 C 680.248 -3.92651 -4.17867 0
M  V30 7254 N 679.744 -4.84911 -4.94807 0
M  V30 7255 N 681.537 -3.80798 -4.1346 0
M  V30 7256 H 673.688 -2.00558 -0.699306 0
M  V30 7257 H 675.951 -0.872612 -0.370477 0
M  V30 7258 H 675.657 -2.96002 -1.89936 0
M  V30 7259 H 675.531 -1.87521 -3.27286 0
M  V30 7260 H 677.918 -1.02103 -2.76874 0
M  V30 7261 H 677.999 -2.14037 -1.40077 0
M  V30 7262 H 677.643 -4.09348 -3.00661 0
M  V30 7263 H 677.573 -2.94421 -4.36605 0
M  V30 7264 H 680.064 -2.43536 -2.88961 0
M  V30 7265 H 680.377 -5.44207 -5.48688 0
M  V30 7266 H 678.722 -4.88926 -4.93939 0
M  V30 7267 H 681.913 -3.08058 -3.52445 0
M  V30 7268 H 682.086 -4.4515 -4.70898 0
M  V30 7269 N 675.492 1.28418 -0.913599 0
M  V30 7270 C 676.422 2.29713 -0.418847 0
M  V30 7271 C 677.403 1.62165 0.513469 0
M  V30 7272 O 678.588 1.89576 0.421235 0
M  V30 7273 C 675.718 3.45612 0.342042 0
M  V30 7274 C 674.672 4.25056 -0.501123 0
M  V30 7275 C 673.998 5.3329 0.388097 0
M  V30 7276 C 675.298 4.91814 -1.75831 0
M  V30 7277 H 676.992 2.71346 -1.26538 0
M  V30 7278 H 674.538 1.30446 -0.609903 0
M  V30 7279 H 676.491 4.15562 0.699 0
M  V30 7280 H 675.215 3.02858 1.22248 0
M  V30 7281 H 673.874 3.56833 -0.840598 0
M  V30 7282 H 673.522 4.8678 1.26707 0
M  V30 7283 H 673.222 5.87347 -0.172459 0
M  V30 7284 H 674.746 6.06088 0.74094 0
M  V30 7285 H 676.16 5.54126 -1.47026 0
M  V30 7286 H 674.557 5.55866 -2.26126 0
M  V30 7287 H 675.627 4.16313 -2.4862 0
M  V30 7288 N 676.97 0.677563 1.42291 0
M  V30 7289 C 678.216 0.209962 2.02313 0
M  V30 7290 C 678.571 -1.1714 1.52631 0
M  V30 7291 O 677.864 -1.7756 0.719938 0
M  V30 7292 C 678.058 0.187229 3.56909 0
M  V30 7293 C 677.887 1.56484 4.21595 0
M  V30 7294 C 676.657 2.16329 4.56651 0
M  V30 7295 C 678.855 2.50805 4.49 0
M  V30 7296 N 676.837 3.46842 5.06531 0
M  V30 7297 C 678.208 3.65976 5.00461 0
M  V30 7298 C 680.263 2.493 4.30992 0
M  V30 7299 C 678.966 4.79899 5.35807 0
M  V30 7300 C 680.992 3.62322 4.67415 0
M  V30 7301 C 680.354 4.76221 5.19031 0
M  V30 7302 H 676.453 0.121815 0.772454 0
M  V30 7303 H 679.037 0.891148 1.73109 0
M  V30 7304 H 677.208 -0.46338 3.85626 0
M  V30 7305 H 678.94 -0.293512 4.03634 0
M  V30 7306 H 675.695 1.6879 4.42501 0
M  V30 7307 H 676.119 4.13694 5.35898 0
M  V30 7308 H 680.761 1.62467 3.90339 0
M  V30 7309 H 678.479 5.67406 5.75392 0
M  V30 7310 H 682.065 3.62388 4.55155 0
M  V30 7311 H 680.945 5.62228 5.46689 0
M  V30 7312 N 678.448 -1.51871 0.421078 0
M  V30 7313 C 679.358 -2.31077 -0.405069 0
M  V30 7314 C 680.374 -1.39301 -1.04265 0
M  V30 7315 O 681.55 -1.72376 -1.04157 0
M  V30 7316 C 678.615 -3.12556 -1.50032 0
M  V30 7317 C 677.676 -4.20088 -0.884559 0
M  V30 7318 C 676.909 -4.97673 -1.92762 0
M  V30 7319 O 677.132 -4.75696 -3.14753 0
M  V30 7320 O 676.066 -5.82203 -1.52719 0
M  V30 7321 H 679.892 -3.02742 0.241086 0
M  V30 7322 H 677.477 -1.48263 0.183991 0
M  V30 7323 H 679.359 -3.6326 -2.13589 0
M  V30 7324 H 678.034 -2.43672 -2.13086 0
M  V30 7325 H 676.941 -3.73502 -0.211379 0
M  V30 7326 H 678.274 -4.91298 -0.297763 0
M  V30 7327 N 679.926 -0.151884 -1.56866 0
M  V30 7328 C 681.174 0.497021 -1.95893 0
M  V30 7329 C 681.495 1.65078 -1.03799 0
M  V30 7330 O 680.765 1.95642 -0.10049 0
M  V30 7331 H 679.345 0.186603 -0.723318 0
M  V30 7332 H 682.007 -0.228525 -1.93556 0
M  V30 7333 H 681.103 0.869933 -2.99731 0
M  V30 7334 N 681.404 1.57128 0.121893 0
M  V30 7335 C 682.337 1.95327 1.17995 0
M  V30 7336 C 683.315 0.822524 1.40262 0
M  V30 7337 O 684.499 1.08044 1.54463 0
M  V30 7338 C 681.626 2.24699 2.53432 0
M  V30 7339 C 680.672 3.47263 2.4761 0
M  V30 7340 S 681.505 4.99951 1.91857 0
M  V30 7341 C 682.661 5.32473 3.28973 0
M  V30 7342 H 682.894 2.84765 0.854182 0
M  V30 7343 H 680.427 1.50864 0.328534 0
M  V30 7344 H 682.385 2.423 3.31362 0
M  V30 7345 H 681.046 1.3588 2.83188 0
M  V30 7346 H 680.239 3.65171 3.4737 0
M  V30 7347 H 679.841 3.29034 1.778 0
M  V30 7348 H 682.133 5.27478 4.25175 0
M  V30 7349 H 683.076 6.33732 3.15895 0
M  V30 7350 H 683.484 4.59952 3.27268 0
M  V30 7351 N 682.882 -0.391992 1.52647 0
M  V30 7352 C 684.13 -1.13507 1.67214 0
M  V30 7353 C 684.451 -1.90575 0.41304 0
M  V30 7354 O 683.721 -1.87348 -0.572498 0
M  V30 7355 H 682.301 -0.422013 0.616372 0
M  V30 7356 H 684.963 -0.44502 1.89751 0
M  V30 7357 H 684.059 -1.83964 2.52118 0
M  V30 7358 N 684.36 -1.4356 -0.65026 0
M  V30 7359 C 685.637 -1.35811 -1.40765 0
M  V30 7360 C 686.017 -0.00736379 -2.11099 0
M  V30 7361 O 685.365 1.00932 -2.05 0
M  V30 7362 C 685.575 -2.54332 -2.3899 0
M  V30 7363 C 686.923 -2.97551 -3.02901 0
M  V30 7364 O 687.947 -2.544 -2.49317 0
M  V30 7365 O 686.806 -3.72311 -4.00059 0
M  V30 7366 H 683.9 -0.536861 -0.629054 0
M  V30 7367 H 686.446 -1.55615 -0.676919 0
M  V30 7368 H 685.218 -3.44274 -1.85986 0
M  V30 7369 H 684.841 -2.36643 -3.19509 0
M  V30 7370 N 685.838 0.888903 -1.30139 0
M  V30 7371 C 686.748 2.02705 -1.18101 0
M  V30 7372 C 687.764 1.73702 -0.101809 0
M  V30 7373 O 688.94 1.98906 -0.315984 0
M  V30 7374 C 686.005 3.35616 -0.869651 0
M  V30 7375 C 685.066 3.78067 -2.03381 0
M  V30 7376 C 684.299 5.04635 -1.73721 0
M  V30 7377 O 684.522 5.66531 -0.663267 0
M  V30 7378 O 683.456 5.43399 -2.58845 0
M  V30 7379 H 687.282 2.15788 -2.13704 0
M  V30 7380 H 684.867 1.01426 -1.09695 0
M  V30 7381 H 686.749 4.15358 -0.711043 0
M  V30 7382 H 685.424 3.23651 0.0565002 0
M  V30 7383 H 684.331 2.99046 -2.24772 0
M  V30 7384 H 685.664 3.94631 -2.94155 0
M  V30 7385 N 687.317 1.12792 1.10072 0
M  V30 7386 C 688.545 0.908506 1.85886 0
M  V30 7387 C 688.96 -0.542408 1.80841 0
M  V30 7388 O 688.317 -1.37517 1.1998 0
M  V30 7389 C 688.368 1.37973 3.34134 0
M  V30 7390 O 688.089 2.77378 3.39106 0
M  V30 7391 C 689.59 1.1978 4.26811 0
M  V30 7392 H 686.81 0.3244 0.587372 0
M  V30 7393 H 689.354 1.49882 1.39125 0
M  V30 7394 H 687.509 0.832566 3.78348 0
M  V30 7395 H 687.923 2.98144 4.31521 0
M  V30 7396 H 689.397 1.57635 5.29014 0
M  V30 7397 H 689.874 0.138768 4.38981 0
M  V30 7398 H 690.48 1.73266 3.88406 0
M  V30 7399 N 688.795 -1.27931 0.920396 0
M  V30 7400 C 690.025 -1.98516 0.572256 0
M  V30 7401 C 690.433 -1.68912 -0.852375 0
M  V30 7402 O 689.776 -0.94203 -1.57707 0
M  V30 7403 C 689.838 -3.5243 0.709485 0
M  V30 7404 C 689.502 -4.0564 2.10489 0
M  V30 7405 C 690.499 -4.1897 3.07831 0
M  V30 7406 C 688.184 -4.40168 2.41986 0
M  V30 7407 C 690.178 -4.66093 4.34783 0
M  V30 7408 C 687.865 -4.86983 3.69176 0
M  V30 7409 C 688.863 -4.99903 4.65388 0
M  V30 7410 O 688.551 -5.45694 5.90316 0
M  V30 7411 H 688.283 -0.64047 0.216274 0
M  V30 7412 H 690.837 -1.6393 1.23758 0
M  V30 7413 H 689.067 -3.86698 -0.0129263 0
M  V30 7414 H 690.756 -4.04233 0.367474 0
M  V30 7415 H 691.522 -3.92562 2.84816 0
M  V30 7416 H 687.401 -4.29358 1.67846 0
M  V30 7417 H 690.945 -4.76092 5.09884 0
M  V30 7418 H 686.842 -5.12832 3.92012 0
M  V30 7419 H 687.61 -5.63965 5.932 0
M  V30 7420 N 690.273 -0.685099 -1.4193 0
M  V30 7421 C 691.684 -0.287699 -1.8447 0
M  V30 7422 C 692.035 1.17215 -1.57338 0
M  V30 7423 O 691.16 1.89856 -1.03845 0
M  V30 7424 C 691.755 -0.515385 -3.34857 0
M  V30 7425 C 690.314 -0.172006 -3.76007 0
M  V30 7426 C 689.461 -0.802808 -2.65425 0
M  V30 7427 H 692.412 -0.88652 -1.3163 0
M  V30 7428 H 692.433 0.229251 -3.79809 0
M  V30 7429 H 691.945 -1.57796 -3.54573 0
M  V30 7430 H 690.046 0.886716 -3.61895 0
M  V30 7431 H 690.159 -0.619717 -4.75075 0
M  V30 7432 H 688.523 -0.233267 -2.5363 0
M  V30 7433 H 689.306 -1.86904 -2.87961 0
M  V30 7434 N 691.751 1.51645 -0.429126 0
M  V30 7435 C 692.681 2.30434 0.377148 0
M  V30 7436 C 693.662 1.35493 1.02838 0
M  V30 7437 O 694.847 1.6441 1.03359 0
M  V30 7438 C 691.977 3.14038 1.48315 0
M  V30 7439 C 690.931 4.1719 0.955855 0
M  V30 7440 C 690.257 4.89263 2.15698 0
M  V30 7441 C 691.557 5.223 -0.00402136 0
M  V30 7442 H 693.251 2.98085 -0.280336 0
M  V30 7443 H 690.797 1.43354 -0.136265 0
M  V30 7444 H 692.75 3.67933 2.05435 0
M  V30 7445 H 691.474 2.44193 2.16881 0
M  V30 7446 H 690.133 3.64335 0.406929 0
M  V30 7447 H 689.781 4.15929 2.82864 0
M  V30 7448 H 689.481 5.59009 1.81059 0
M  V30 7449 H 691.005 5.45978 2.73387 0
M  V30 7450 H 692.419 5.71315 0.476607 0
M  V30 7451 H 690.816 5.99525 -0.26258 0
M  V30 7452 H 691.886 4.75638 -0.943236 0
M  V30 7453 N 693.229 0.160201 1.56784 0
M  V30 7454 C 694.192 -0.760405 2.16219 0
M  V30 7455 C 695.192 -1.16595 1.10735 0
M  V30 7456 O 696.382 -1.08472 1.36306 0
M  V30 7457 C 693.514 -2.03358 2.73603 0
M  V30 7458 H 694.707 -0.243173 2.98912 0
M  V30 7459 H 692.26 -0.0893139 1.56045 0
M  V30 7460 H 692.995 -2.59416 1.94612 0
M  V30 7461 H 692.78 -1.75186 3.50788 0
M  V30 7462 H 694.27 -2.69081 3.19351 0
M  V30 7463 N 694.707 -1.5719 -0.113559 0
M  V30 7464 C 696.123 -1.52607 -0.467253 0
M  V30 7465 C 696.323 -0.874058 -1.81556 0
M  V30 7466 O 695.379 -0.458703 -2.48299 0
M  V30 7467 C 696.692 -2.97363 -0.446736 0
M  V30 7468 C 698.24 -3.08482 -0.529903 0
M  V30 7469 C 698.715 -4.54809 -0.539721 0
M  V30 7470 N 700.206 -4.59284 -0.601005 0
M  V30 7471 C 700.941 -5.69927 -0.630138 0
M  V30 7472 N 700.437 -6.90051 -0.616589 0
M  V30 7473 N 702.23 -5.5805 -0.673558 0
M  V30 7474 H 694.381 -1.97958 0.769819 0
M  V30 7475 H 696.644 -0.90428 0.284572 0
M  V30 7476 H 696.35 -3.48458 0.47643 0
M  V30 7477 H 696.224 -3.55086 -1.27254 0
M  V30 7478 H 698.611 -2.57386 -1.44349 0
M  V30 7479 H 698.692 -2.53744 0.323695 0
M  V30 7480 H 698.336 -5.06552 0.369843 0
M  V30 7481 H 698.266 -5.07364 -1.41028 0
M  V30 7482 H 700.757 -3.72822 -0.617419 0
M  V30 7483 H 701.07 -7.70132 -0.641592 0
M  V30 7484 H 699.415 -6.92543 -0.583927 0
M  V30 7485 H 702.606 -4.63112 -0.681544 0
M  V30 7486 H 702.779 -6.44286 -0.692794 0
M  V30 7487 N 696.185 0.383891 -1.52853 0
M  V30 7488 C 697.135 1.46892 -1.74375 0
M  V30 7489 C 698.119 1.49378 -0.597909 0
M  V30 7490 O 699.311 1.54929 -0.855929 0
M  V30 7491 C 696.44 2.84547 -1.92063 0
M  V30 7492 C 695.526 2.8661 -3.12594 0
M  V30 7493 N 695.917 2.58339 -4.3485 0
M  V30 7494 C 694.215 3.17777 -3.12944 0
M  V30 7495 C 694.916 2.67616 -5.16485 0
M  V30 7496 N 693.892 3.01561 -4.52285 0
M  V30 7497 H 697.694 1.23869 -2.66522 0
M  V30 7498 H 695.208 0.591895 -1.51229 0
M  V30 7499 H 697.205 3.62674 -2.05604 0
M  V30 7500 H 695.865 3.08549 -1.01133 0
M  V30 7501 H 696.876 2.32266 -4.62896 0
M  V30 7502 H 693.553 3.47211 -2.31842 0
M  V30 7503 H 694.943 2.4926 -6.23955 0
M  V30 7504 N 697.663 1.43903 0.642637 0
M  V30 7505 C 698.94 1.36556 1.40043 0
M  V30 7506 C 699.32 0.0185588 2.11092 0
M  V30 7507 O 698.668 -0.998438 2.05532 0
M  V30 7508 C 698.878 2.55596 2.37638 0
M  V30 7509 C 700.226 2.99153 3.01318 0
M  V30 7510 O 701.25 2.55719 2.47965 0
M  V30 7511 O 700.109 3.74427 3.98078 0
M  V30 7512 H 697.203 0.540189 0.626198 0
M  V30 7513 H 699.749 1.55971 0.668657 0
M  V30 7514 H 698.521 3.45256 1.84158 0
M  V30 7515 H 698.144 2.38334 3.18249 0
M  V30 7516 N 699.141 -0.881989 1.30609 0
M  V30 7517 C 700.418 -1.61563 1.10258 0
M  V30 7518 C 700.798 -2.08228 -0.347053 0
M  V30 7519 O 700.146 -1.85151 -1.33908 0
M  V30 7520 C 700.356 -2.78287 2.10612 0
M  V30 7521 C 701.704 -3.48545 2.4249 0
M  V30 7522 O 702.728 -2.88479 2.08945 0
M  V30 7523 O 701.587 -4.56873 2.99883 0
M  V30 7524 H 698.681 -0.710238 0.423663 0
M  V30 7525 H 701.227 -0.928503 1.42045 0
M  V30 7526 H 699.999 -2.41131 3.08174 0
M  V30 7527 H 699.622 -3.54695 1.79659 0
M  V30 7528 N 700.619 -1.13374 -1.09472 0
M  V30 7529 C 701.867 -0.893422 -1.8128 0
M  V30 7530 C 702.188 0.582029 -1.86111 0
M  V30 7531 O 701.458 1.42305 -1.34633 0
M  V30 7532 H 700.038 -0.327543 -0.67136 0
M  V30 7533 H 702.7 -1.43018 -1.32408 0
M  V30 7534 H 701.796 -1.28374 -2.84476 0
M  V30 7535 N 702.098 1.27442 -0.927168 0
M  V30 7536 C 703.028 2.29256 -0.443188 0
M  V30 7537 C 704.009 1.62701 0.49624 0
M  V30 7538 O 705.194 1.90013 0.401105 0
M  V30 7539 C 702.324 3.45955 0.305366 0
M  V30 7540 C 701.278 4.24501 -0.546178 0
M  V30 7541 C 700.604 5.33671 0.331512 0
M  V30 7542 C 701.904 4.89921 -1.81037 0
M  V30 7543 H 703.598 2.69988 -1.29409 0
M  V30 7544 H 701.144 1.29792 -0.623705 0
M  V30 7545 H 703.097 4.1628 0.654885 0
M  V30 7546 H 701.821 3.04138 1.19029 0
M  V30 7547 H 700.48 3.55921 -0.878398 0
M  V30 7548 H 700.128 4.88096 1.21537 0
M  V30 7549 H 699.828 5.87131 -0.234746 0
M  V30 7550 H 701.352 6.0684 0.676614 0
M  V30 7551 H 702.766 5.52536 -1.52895 0
M  V30 7552 H 701.163 5.53436 -2.32009 0
M  V30 7553 H 702.233 4.13652 -2.53021 0
M  V30 7554 N 703.576 0.692616 1.41565 0
M  V30 7555 C 704.506 0.0397325 2.33466 0
M  V30 7556 C 705.487 -0.770334 1.51657 0
M  V30 7557 O 706.672 -0.723903 1.80203 0
M  V30 7558 C 703.802 -0.899495 3.3545 0
M  V30 7559 C 702.756 -0.196738 4.27548 0
M  V30 7560 C 702.082 -1.25012 5.19881 0
M  V30 7561 C 703.382 0.935158 5.1386 0
M  V30 7562 H 705.076 0.807296 2.88311 0
M  V30 7563 H 702.622 0.389665 1.38628 0
M  V30 7564 H 704.575 -1.36545 3.98665 0
M  V30 7565 H 703.299 -1.69869 2.78948 0
M  V30 7566 H 701.958 0.249158 3.65752 0
M  V30 7567 H 701.606 -2.04177 4.59696 0
M  V30 7568 H 701.306 -0.784931 5.82334 0
M  V30 7569 H 702.83 -1.71665 5.85972 0
M  V30 7570 H 704.244 0.549619 5.70659 0
M  V30 7571 H 702.641 1.32726 5.85238 0
M  V30 7572 H 703.711 1.77613 4.512 0
M  V30 7573 N 705.054 -1.51416 0.437162 0
M  V30 7574 C 705.964 -2.31493 -0.380537 0
M  V30 7575 C 706.98 -1.40399 -1.02782 0
M  V30 7576 O 708.156 -1.73471 -1.02323 0
M  V30 7577 C 705.221 -3.1413 -1.46709 0
M  V30 7578 C 704.282 -4.21003 -0.839953 0
M  V30 7579 C 703.515 -4.9969 -1.87473 0
M  V30 7580 O 703.738 -4.79008 -3.09689 0
M  V30 7581 O 702.672 -5.8379 -1.46536 0
M  V30 7582 H 706.498 -3.02469 0.273183 0
M  V30 7583 H 704.083 -1.48059 0.199706 0
M  V30 7584 H 705.965 -3.65505 -2.09724 0
M  V30 7585 H 704.64 -2.45919 -2.10489 0
M  V30 7586 H 703.547 -3.73706 -0.171752 0
M  V30 7587 H 704.88 -4.91587 -0.245638 0
M  V30 7588 N 706.532 -0.168513 -1.56696 0
M  V30 7589 C 707.778 0.477865 -1.9709 0
M  V30 7590 C 708.111 1.63084 -1.05438 0
M  V30 7591 O 707.386 1.94238 -0.10095 0
M  V30 7592 C 707.669 0.963521 -3.4697 0
M  V30 7593 C 707.522 -0.189443 -4.49401 0
M  V30 7594 C 708.841 1.83813 -3.99876 0
M  V30 7595 H 705.96 0.172229 -0.716593 0
M  V30 7596 H 708.602 -0.254083 -1.88293 0
M  V30 7597 H 706.752 1.58724 -3.54597 0
M  V30 7598 H 708.424 -0.826451 -4.53836 0
M  V30 7599 H 706.667 -0.845366 -4.25483 0
M  V30 7600 H 707.338 0.192446 -5.51664 0
M  V30 7601 H 709.814 1.31235 -3.94863 0
M  V30 7602 H 708.69 2.14697 -5.0517 0
M  V30 7603 H 708.951 2.78289 -3.43523 0
M  V30 7604 N 708.01 1.57248 0.105221 0
M  V30 7605 C 709.256 1.85845 0.811753 0
M  V30 7606 C 709.589 0.756219 1.78871 0
M  V30 7607 O 708.864 -0.236736 1.93054 0
M  V30 7608 C 709.147 3.25059 1.54947 0
M  V30 7609 C 709 4.45898 0.591185 0
M  V30 7610 C 710.319 3.6203 2.50245 0
M  V30 7611 H 707.438 0.675973 0.293649 0
M  V30 7612 H 710.08 1.89849 0.0756269 0
M  V30 7613 H 708.23 3.21776 2.17698 0
M  V30 7614 H 709.902 4.61291 -0.0285352 0
M  V30 7615 H 708.145 4.33693 -0.0962343 0
M  V30 7616 H 708.816 5.40009 1.1443 0
M  V30 7617 H 711.292 3.66192 1.97593 0
M  V30 7618 H 710.168 4.60389 2.98886 0
M  V30 7619 H 710.429 2.90176 3.33542 0
M  V30 7620 N 709.488 -0.375779 1.53054 0
M  V30 7621 C 710.736 -1.11727 1.68409 0
M  V30 7622 C 711.057 -1.90127 0.43323 0
M  V30 7623 O 710.327 -1.87945 -0.552595 0
M  V30 7624 H 708.907 -0.415451 0.620813 0
M  V30 7625 H 711.569 -0.424869 1.90213 0
M  V30 7626 H 710.665 -1.8128 2.54055 0
M  V30 7627 N 710.966 -1.44241 -0.634997 0
M  V30 7628 C 712.212 -1.47038 -1.39669 0
M  V30 7629 C 712.545 -0.101122 -1.93937 0
M  V30 7630 O 711.82 0.880699 -1.73418 0
M  V30 7631 C 712.103 -2.52763 -2.56482 0
M  V30 7632 C 711.956 -3.99032 -2.07589 0
M  V30 7633 C 713.275 -2.55031 -3.58674 0
M  V30 7634 H 710.394 -0.53537 -0.506506 0
M  V30 7635 H 713.036 -1.75898 -0.718317 0
M  V30 7636 H 711.186 -2.28284 -3.14354 0
M  V30 7637 H 712.858 -4.3463 -1.54577 0
M  V30 7638 H 711.101 -4.10994 -1.38804 0
M  V30 7639 H 711.772 -4.68649 -2.91671 0
M  V30 7640 H 714.248 -2.76893 -3.10595 0
M  V30 7641 H 713.124 -3.30916 -4.37934 0
M  V30 7642 H 713.385 -1.59085 -4.12486 0
M  V30 7643 N 712.444 0.87505 -1.31075 0
M  V30 7644 C 713.674 1.65818 -1.2324 0
M  V30 7645 C 714.082 1.8808 0.205536 0
M  V30 7646 O 713.425 1.43548 1.14628 0
M  V30 7647 C 713.487 3.05131 -1.90093 0
M  V30 7648 C 713.151 3.05999 -3.39432 0
M  V30 7649 C 714.148 2.84328 -4.35263 0
M  V30 7650 C 711.833 3.27281 -3.81041 0
M  V30 7651 C 713.827 2.83912 -5.70678 0
M  V30 7652 C 711.514 3.26493 -5.16571 0
M  V30 7653 C 712.512 3.04834 -6.112 0
M  V30 7654 O 712.2 3.03882 -7.44252 0
M  V30 7655 H 711.932 0.52387 -0.427242 0
M  V30 7656 H 714.486 1.10086 -1.73408 0
M  V30 7657 H 712.716 3.62568 -1.34468 0
M  V30 7658 H 714.405 3.65641 -1.76242 0
M  V30 7659 H 715.171 2.67673 -4.04445 0
M  V30 7660 H 711.05 3.43171 -3.07822 0
M  V30 7661 H 714.594 2.66925 -6.44513 0
M  V30 7662 H 710.491 3.42687 -5.47025 0
M  V30 7663 H 711.259 3.19979 -7.53363 0
M  V30 7664 N 713.922 1.13953 1.08869 0
M  V30 7665 C 715.17 0.903023 1.80803 0
M  V30 7666 C 715.491 -0.572151 1.86417 0
M  V30 7667 O 714.761 -1.41589 1.35386 0
M  V30 7668 H 713.341 0.331099 0.669614 0
M  V30 7669 H 716.003 1.43719 1.31647 0
M  V30 7670 H 715.099 1.29881 2.83791 0
M  V30 7671 N 715.4 -1.26948 0.933913 0
M  V30 7672 C 716.625 -1.98724 0.593589 0
M  V30 7673 C 717.05 -1.6915 -0.822801 0
M  V30 7674 O 716.408 -0.93533 -1.5531 0
M  V30 7675 C 716.456 -3.50834 0.833542 0
M  V30 7676 O 715.56 -4.12284 -0.0978788 0
M  V30 7677 H 714.901 -0.623683 0.227849 0
M  V30 7678 H 717.431 -1.61599 1.25486 0
M  V30 7679 H 717.441 -4.01018 0.75156 0
M  V30 7680 H 716.116 -3.71691 1.86597 0
M  V30 7681 H 714.693 -3.72884 0.0345443 0
M  V30 7682 N 716.879 -0.700114 -1.41195 0
M  V30 7683 C 718.126 -0.233006 -2.01155 0
M  V30 7684 C 718.454 1.16883 -1.55462 0
M  V30 7685 O 717.709 1.80395 -0.758695 0
M  V30 7686 C 718.008 -0.243986 -3.56566 0
M  V30 7687 C 717.674 -1.59397 -4.21786 0
M  V30 7688 C 716.336 -1.96355 -4.39316 0
M  V30 7689 C 718.688 -2.48192 -4.58312 0
M  V30 7690 C 716.016 -3.21683 -4.9065 0
M  V30 7691 C 718.368 -3.72857 -5.11039 0
M  V30 7692 C 717.032 -4.09951 -5.26779 0
M  V30 7693 H 716.302 -0.085263 -0.736078 0
M  V30 7694 H 718.949 -0.9001 -1.69028 0
M  V30 7695 H 717.254 0.506663 -3.8851 0
M  V30 7696 H 718.951 0.135031 -4.00773 0
M  V30 7697 H 715.541 -1.29654 -4.08519 0
M  V30 7698 H 719.725 -2.20918 -4.4442 0
M  V30 7699 H 714.981 -3.50412 -5.01021 0
M  V30 7700 H 719.155 -4.41844 -5.38282 0
M  V30 7701 H 716.782 -5.07136 -5.66319 0
M  V30 7702 N 718.357 1.51182 -0.445186 0
M  V30 7703 C 719.307 2.24804 0.380394 0
M  V30 7704 C 720.291 1.27344 0.983482 0
M  V30 7705 O 721.483 1.52392 0.900322 0
M  V30 7706 C 718.612 3.09922 1.4766 0
M  V30 7707 C 717.698 4.14816 0.882517 0
M  V30 7708 N 718.089 5.05797 0.0183278 0
M  V30 7709 C 716.387 4.30938 1.14927 0
M  V30 7710 C 717.088 5.8084 -0.316152 0
M  V30 7711 N 716.064 5.42759 0.302214 0
M  V30 7712 H 719.866 2.92508 -0.285737 0
M  V30 7713 H 717.38 1.60342 -0.257733 0
M  V30 7714 H 719.377 3.61249 2.08098 0
M  V30 7715 H 718.037 2.43763 2.14498 0
M  V30 7716 H 719.048 5.16725 -0.348679 0
M  V30 7717 H 715.725 3.76005 1.81457 0
M  V30 7718 H 717.115 6.64115 -1.01986 0
M  V30 7719 N 719.835 0.176821 1.56605 0
M  V30 7720 C 721.075 -0.469104 1.98944 0
M  V30 7721 C 721.439 -1.60048 1.06059 0
M  V30 7722 O 722.64 -2.30934 1.3756 0
M  V30 7723 C 720.911 -0.934571 3.44965 0
M  V30 7724 S 722.47 -1.58091 4.09332 0
M  V30 7725 H 719.288 -0.150695 0.694847 0
M  V30 7726 H 721.89 0.27558 1.93548 0
M  V30 7727 H 720.594 -0.100814 4.10276 0
M  V30 7728 H 720.125 -1.71316 3.54139 0
M  V30 7729 H 722.14 -2.86922 4.04834 0
M  V30 7730 N 721.313 -1.57302 -0.09688 0
M  V30 7731 C 722.276 -2.00976 -1.10188 0
M  V30 7732 C 723.276 -0.903009 -1.3305 0
M  V30 7733 O 724.466 -1.16853 -1.29194 0
M  V30 7734 C 721.598 -2.36893 -2.45142 0
M  V30 7735 H 722.791 -2.9098 -0.726003 0
M  V30 7736 H 720.344 -1.52515 -0.341872 0
M  V30 7737 H 721.079 -1.49837 -2.8761 0
M  V30 7738 H 720.864 -3.17632 -2.29897 0
M  V30 7739 H 722.354 -2.71345 -3.1743 0
M  V30 7740 N 722.791 0.367657 -1.53252 0
M  V30 7741 C 723.723 1.47032 -1.75824 0
M  V30 7742 C 724.736 1.49736 -0.63898 0
M  V30 7743 O 725.925 1.53253 -0.915193 0
M  V30 7744 C 723.025 2.85805 -1.82122 0
M  V30 7745 C 722.198 3.06822 -3.11736 0
M  V30 7746 C 721.257 4.25698 -3.09302 0
M  V30 7747 O 720.283 4.20972 -3.83107 0
M  V30 7748 N 721.485 5.33002 -2.29977 0
M  V30 7749 H 724.25 1.28048 -2.70968 0
M  V30 7750 H 721.811 0.557363 -1.52004 0
M  V30 7751 H 723.803 3.63465 -1.77975 0
M  V30 7752 H 722.373 2.98046 -0.942716 0
M  V30 7753 H 721.593 2.1684 -3.29202 0
M  V30 7754 H 722.881 3.17731 -3.97397 0
M  V30 7755 H 722.279 5.39703 -1.69521 0
M  V30 7756 H 720.836 6.09247 -2.3165 0
M  V30 7757 N 724.269 1.44576 0.627338 0
M  V30 7758 C 725.518 1.46837 1.38281 0
M  V30 7759 C 725.831 0.10635 1.95311 0
M  V30 7760 O 727.037 0.00651084 2.71499 0
M  V30 7761 C 725.493 2.58527 2.50384 0
M  V30 7762 C 725.101 4.00953 1.99851 0
M  V30 7763 C 726.845 2.70013 3.27557 0
M  V30 7764 C 724.752 5.0406 3.09318 0
M  V30 7765 H 723.682 0.546319 0.519664 0
M  V30 7766 H 726.333 1.70654 0.674497 0
M  V30 7767 H 724.715 2.27957 3.23808 0
M  V30 7768 H 725.889 4.41108 1.33267 0
M  V30 7769 H 724.204 3.93743 1.35482 0
M  V30 7770 H 726.801 3.44217 4.09168 0
M  V30 7771 H 727.144 1.75961 3.77284 0
M  V30 7772 H 727.677 3.00011 2.61224 0
M  V30 7773 H 724.416 5.99753 2.6453 0
M  V30 7774 H 723.936 4.68493 3.74532 0
M  V30 7775 H 725.615 5.2793 3.74031 0
M  V30 7776 N 725.747 -0.868086 1.31537 0
M  V30 7777 C 726.679 -1.98165 1.15166 0
M  V30 7778 C 727.692 -1.6255 0.0902335 0
M  V30 7779 O 728.881 -1.75272 0.33791 0
M  V30 7780 C 725.981 -3.30772 0.737776 0
M  V30 7781 C 725.154 -3.94716 1.88462 0
M  V30 7782 C 724.213 -5.05641 1.45648 0
M  V30 7783 O 723.239 -5.2636 2.16642 0
M  V30 7784 N 724.441 -5.79474 0.34493 0
M  V30 7785 H 727.206 -2.12754 2.11083 0
M  V30 7786 H 724.767 -1.04217 1.23897 0
M  V30 7787 H 726.759 -4.02366 0.434032 0
M  V30 7788 H 725.329 -3.1233 -0.129834 0
M  V30 7789 H 724.549 -3.16079 2.35558 0
M  V30 7790 H 725.837 -4.34175 2.65273 0
M  V30 7791 H 725.235 -5.65164 -0.246259 0
M  V30 7792 H 723.792 -6.51722 0.100728 0
M  V30 7793 N 727.225 -1.14528 -1.08264 0
M  V30 7794 C 728.471 -0.91576 -1.80947 0
M  V30 7795 C 728.804 0.55623 -1.86064 0
M  V30 7796 O 728.079 1.41207 -1.33756 0
M  V30 7797 C 728.362 -1.51917 -3.26486 0
M  V30 7798 C 728.215 -3.06111 -3.2957 0
M  V30 7799 C 729.534 -1.19724 -4.23502 0
M  V30 7800 H 726.653 -0.334113 -0.656915 0
M  V30 7801 H 729.295 -1.41547 -1.26746 0
M  V30 7802 H 727.445 -1.0942 -3.72773 0
M  V30 7803 H 729.117 -3.57448 -2.91597 0
M  V30 7804 H 727.36 -3.40483 -2.688 0
M  V30 7805 H 728.031 -3.43438 -4.32151 0
M  V30 7806 H 730.507 -1.56467 -3.85561 0
M  V30 7807 H 729.383 -1.64575 -5.23647 0
M  V30 7808 H 729.644 -0.112771 -4.41956 0
M  V30 7809 N 728.703 1.26451 -0.940633 0
M  V30 7810 C 729.65 2.264 -0.448497 0
M  V30 7811 C 730.62 1.5866 0.491546 0
M  V30 7812 O 731.805 1.86389 0.407874 0
M  V30 7813 C 728.945 3.43956 0.280715 0
M  V30 7814 C 728.058 4.26374 -0.694937 0
M  V30 7815 C 727.193 5.31171 0.0554186 0
M  V30 7816 C 726.232 6.05266 -0.912091 0
M  V30 7817 N 725.369 7.01833 -0.193524 0
M  V30 7818 H 730.209 2.67869 -1.30576 0
M  V30 7819 H 727.746 1.31707 -0.655112 0
M  V30 7820 H 729.704 4.10941 0.71994 0
M  V30 7821 H 728.334 3.03403 1.10212 0
M  V30 7822 H 727.386 3.59183 -1.25267 0
M  V30 7823 H 728.698 4.77748 -1.43382 0
M  V30 7824 H 727.852 6.04166 0.553951 0
M  V30 7825 H 726.591 4.80634 0.827183 0
M  V30 7826 H 725.596 5.31099 -1.42175 0
M  V30 7827 H 726.821 6.57893 -1.68385 0
M  V30 7828 H 724.767 6.53607 0.559758 0
M  V30 7829 H 724.684 7.50957 -0.871744 0
M  V30 7830 H 725.952 7.78983 0.283932 0
M  V30 7831 N 730.181 0.707592 1.40822 0
M  V30 7832 C 731.111 0.0644925 2.33411 0
M  V30 7833 C 732.092 -0.754205 1.52466 0
M  V30 7834 O 733.277 -0.704749 1.80961 0
M  V30 7835 C 730.407 -0.863865 3.36385 0
M  V30 7836 C 729.361 -0.15138 4.27732 0
M  V30 7837 C 728.687 -1.19491 5.21177 0
M  V30 7838 C 729.987 0.989607 5.12839 0
M  V30 7839 H 731.681 0.837829 2.87438 0
M  V30 7840 H 729.227 0.404346 1.38207 0
M  V30 7841 H 731.18 -1.32309 4.0009 0
M  V30 7842 H 729.904 -1.66901 2.80734 0
M  V30 7843 H 728.563 0.287937 3.65467 0
M  V30 7844 H 728.211 -1.9929 4.61836 0
M  V30 7845 H 727.911 -0.723123 5.83134 0
M  V30 7846 H 729.435 -1.6544 5.8776 0
M  V30 7847 H 730.849 0.610114 5.70044 0
M  V30 7848 H 729.246 1.38926 5.83798 0
M  V30 7849 H 730.316 1.82389 4.49291 0
M  V30 7850 N 731.66 -1.50943 0.453197 0
M  V30 7851 C 732.623 -2.26684 -0.338705 0
M  V30 7852 C 733.623 -1.30748 -0.936032 0
M  V30 7853 O 734.813 -1.54327 -0.808002 0
M  V30 7854 C 731.945 -3.07063 -1.48071 0
M  V30 7855 H 733.138 -2.98131 0.325289 0
M  V30 7856 H 730.691 -1.54926 0.206771 0
M  V30 7857 H 731.426 -2.4007 -2.18029 0
M  V30 7858 H 731.211 -3.77545 -1.0584 0
M  V30 7859 H 732.701 -3.64393 -2.0398 0
M  V30 7860 N 733.138 -0.185124 -1.56509 0
M  V30 7861 C 734.086 0.756505 -2.19954 0
M  V30 7862 C 735.08 1.22725 -1.16769 0
M  V30 7863 O 736.286 1.1913 -1.34937 0
M  V30 7864 H 732.661 0.262279 -0.704779 0
M  V30 7865 H 734.632 0.197587 -2.97745 0
M  V30 7866 C 733.381 1.96975 -2.86524 0
M  V30 7867 H 732.704 1.61658 -3.65659 0
M  V30 7868 H 734.144 2.60719 -3.34367 0
M  V30 7869 C 732.603 2.80219 -1.87027 0
M  V30 7870 O 733.133 3.77821 -1.36433 0
M  V30 7871 N 731.339 2.4551 -1.55477 0
M  V30 7872 H 730.886 1.66199 -1.96813 0
M  V30 7873 H 730.844 3.01493 -0.891597 0
M  V30 7874 N 734.616 1.57351 0.0885366 0
M  V30 7875 C 736.027 1.75303 0.642308 0
M  V30 7876 C 736.378 0.808238 1.78779 0
M  V30 7877 O 735.503 -0.01171 2.16397 0
M  V30 7878 C 736.098 3.17885 1.17194 0
M  V30 7879 C 734.657 3.37239 1.67172 0
M  V30 7880 C 733.804 2.7108 0.584045 0
M  V30 7881 H 736.755 1.58103 -0.137567 0
M  V30 7882 H 736.776 3.2112 2.04114 0
M  V30 7883 H 736.288 3.86625 0.338024 0
M  V30 7884 H 734.389 2.73588 2.52943 0
M  V30 7885 H 734.502 4.45594 1.76019 0
M  V30 7886 H 732.866 2.33161 1.02508 0
M  V30 7887 H 733.649 3.42464 -0.239403 0
M  V30 7888 N 736.094 -0.359525 1.53444 0
M  V30 7889 C 737.341 -1.10152 1.6992 0
M  V30 7890 C 737.669 -1.89125 0.4541 0
M  V30 7891 O 736.924 -1.87396 -0.564023 0
M  V30 7892 C 737.223 -2.08287 2.90433 0
M  V30 7893 C 736.889 -1.45749 4.26694 0
M  V30 7894 C 735.551 -1.28421 4.63747 0
M  V30 7895 C 737.903 -1.00557 5.11408 0
M  V30 7896 C 735.231 -0.644951 5.83144 0
M  V30 7897 C 737.583 -0.380288 6.31456 0
M  V30 7898 C 736.247 -0.194557 6.67216 0
M  V30 7899 H 735.517 -0.403076 0.621781 0
M  V30 7900 H 738.164 -0.382612 1.87639 0
M  V30 7901 H 736.469 -2.86503 2.67251 0
M  V30 7902 H 738.166 -2.65662 3.00374 0
M  V30 7903 H 734.756 -1.6023 3.97523 0
M  V30 7904 H 738.94 -1.12735 4.83326 0
M  V30 7905 H 734.196 -0.48952 6.09437 0
M  V30 7906 H 738.37 -0.0219455 6.96397 0
M  V30 7907 H 735.997 0.30285 7.59597 0
M  V30 7908 N 737.572 -1.44907 -0.619662 0
M  V30 7909 C 738.988 -1.29046 -0.939107 0
M  V30 7910 C 739.188 -0.23462 -2.00129 0
M  V30 7911 O 738.244 0.37558 -2.49691 0
M  V30 7912 C 739.557 -2.66567 -1.39149 0
M  V30 7913 C 741.105 -2.74368 -1.50635 0
M  V30 7914 C 741.58 -4.12386 -1.99253 0
M  V30 7915 N 743.071 -4.1462 -2.06506 0
M  V30 7916 C 743.806 -5.18272 -2.4532 0
M  V30 7917 N 743.302 -6.32278 -2.83189 0
M  V30 7918 N 745.095 -5.05628 -2.45554 0
M  V30 7919 H 737.246 -2.12239 0.0826135 0
M  V30 7920 H 739.509 -0.947652 -0.0256829 0
M  V30 7921 H 739.215 -3.4496 -0.685254 0
M  V30 7922 H 739.089 -2.94224 -2.36034 0
M  V30 7923 H 741.476 -1.96287 -2.20353 0
M  V30 7924 H 741.557 -2.50439 -0.520963 0
M  V30 7925 H 741.201 -4.90947 -1.30127 0
M  V30 7926 H 741.131 -4.33699 -2.98684 0
M  V30 7927 H 743.622 -3.32343 -1.79878 0
M  V30 7928 H 743.935 -7.07172 -3.11652 0
M  V30 7929 H 742.28 -6.35699 -2.80913 0
M  V30 7930 H 745.471 -4.15613 -2.15367 0
M  V30 7931 H 745.644 -5.86529 -2.75478 0
M  V30 7932 N 739.05 0.861098 -1.31996 0
M  V30 7933 C 740.299 1.60965 -1.21545 0
M  V30 7934 C 740.612 1.94325 0.222972 0
M  V30 7935 O 741.818 2.67757 0.449272 0
M  V30 7936 C 740.274 2.90223 -2.12834 0
M  V30 7937 C 739.882 2.64313 -3.61722 0
M  V30 7938 C 741.626 3.68229 -2.11205 0
M  V30 7939 C 739.533 3.89532 -4.44993 0
M  V30 7940 H 738.463 0.603988 -0.451348 0
M  V30 7941 H 741.114 0.951358 -1.56912 0
M  V30 7942 H 739.496 3.57475 -1.70375 0
M  V30 7943 H 740.67 2.05413 -4.12483 0
M  V30 7944 H 738.985 1.99647 -3.65418 0
M  V30 7945 H 741.582 4.61138 -2.70658 0
M  V30 7946 H 741.925 4.01466 -1.1014 0
M  V30 7947 H 742.458 3.07873 -2.51911 0
M  V30 7948 H 739.197 3.61441 -5.46846 0
M  V30 7949 H 738.717 4.47851 -3.98985 0
M  V30 7950 H 740.396 4.57334 -4.57663 0
M  V30 7951 N 740.528 1.15101 1.07655 0
M  V30 7952 C 741.776 0.922149 1.79836 0
M  V30 7953 C 742.097 -0.552346 1.87014 0
M  V30 7954 O 741.367 -1.40145 1.3688 0
M  V30 7955 H 739.947 0.338182 0.666064 0
M  V30 7956 H 742.609 1.45107 1.30115 0
M  V30 7957 H 741.705 1.32883 2.82398 0
M  V30 7958 N 742.006 -1.2595 0.947325 0
M  V30 7959 C 742.938 -2.25336 0.41906 0
M  V30 7960 C 743.951 -1.56135 -0.461051 0
M  V30 7961 O 745.14 -1.76438 -0.270505 0
M  V30 7962 C 742.24 -3.36334 -0.416233 0
M  V30 7963 C 741.413 -4.35088 0.449162 0
M  V30 7964 C 740.472 -5.25185 -0.326716 0
M  V30 7965 O 739.498 -5.68548 0.272374 0
M  V30 7966 N 740.7 -5.57388 -1.6217 0
M  V30 7967 H 743.465 -2.71298 1.27348 0
M  V30 7968 H 741.026 -1.39781 0.81688 0
M  V30 7969 H 743.018 -3.93564 -0.942826 0
M  V30 7970 H 741.588 -2.89819 -1.17148 0
M  V30 7971 H 740.808 -3.76841 1.15692 0
M  V30 7972 H 742.096 -4.98056 1.04008 0
M  V30 7973 H 741.494 -5.2405 -2.13046 0
M  V30 7974 H 740.051 -6.17234 -2.0944 0
M  V30 7975 N 743.484 -0.715051 -1.40445 0
M  V30 7976 C 744.447 -0.0708726 -2.2909 0
M  V30 7977 C 745.447 0.687926 -1.45342 0
M  V30 7978 O 746.637 0.519908 -1.66261 0
M  V30 7979 C 743.769 0.909528 -3.28543 0
M  V30 7980 H 744.962 -0.851611 -2.87555 0
M  V30 7981 H 742.515 -0.479674 -1.48758 0
M  V30 7982 H 743.25 1.71734 -2.75096 0
M  V30 7983 H 743.035 0.368318 -3.90366 0
M  V30 7984 H 744.525 1.35744 -3.94922 0
M  V30 7985 N 744.962 1.50701 -0.461195 0
M  V30 7986 C 745.912 2.25195 0.35653 0
M  V30 7987 C 746.896 1.2838 0.96992 0
M  V30 7988 O 748.088 1.53338 0.884108 0
M  V30 7989 C 745.217 3.11471 1.44364 0
M  V30 7990 C 744.303 4.15729 0.83847 0
M  V30 7991 N 744.694 5.05788 -0.0353198 0
M  V30 7992 C 742.992 4.32133 1.1035 0
M  V30 7993 C 743.693 5.80472 -0.37774 0
M  V30 7994 N 742.669 5.43049 0.24463 0
M  V30 7995 H 746.471 2.92188 -0.316746 0
M  V30 7996 H 743.985 1.60059 -0.274725 0
M  V30 7997 H 745.982 3.63436 2.04255 0
M  V30 7998 H 744.642 2.46025 2.11901 0
M  V30 7999 H 745.653 5.16326 -0.403465 0
M  V30 8000 H 742.33 3.77908 1.77458 0
M  V30 8001 H 743.72 6.62996 -1.09024 0
M  V30 8002 N 746.441 0.193421 1.56409 0
M  V30 8003 C 747.669 -0.451438 2.01915 0
M  V30 8004 C 748.084 -1.55306 1.07357 0
M  V30 8005 O 747.441 -1.82333 0.0781512 0
M  V30 8006 C 747.492 -1.00931 3.47124 0
M  V30 8007 O 747.213 0.0483623 4.38073 0
M  V30 8008 C 748.714 -1.73021 4.0814 0
M  V30 8009 H 745.934 -0.113495 0.661332 0
M  V30 8010 H 748.478 0.301636 2.02263 0
M  V30 8011 H 746.633 -1.71277 3.47481 0
M  V30 8012 H 747.047 -0.366644 5.23217 0
M  V30 8013 H 748.521 -2.07289 5.11601 0
M  V30 8014 H 748.998 -2.6333 3.51502 0
M  V30 8015 H 749.604 -1.07264 4.11551 0
M  V30 8016 N 747.919 -1.57396 -0.0801906 0
M  V30 8017 C 749.165 -1.87113 -0.782083 0
M  V30 8018 C 749.498 -0.78458 -1.77646 0
M  V30 8019 O 748.773 0.205993 -1.93406 0
M  V30 8020 C 749.056 -3.27483 -1.49756 0
M  V30 8021 C 748.909 -4.46782 -0.520171 0
M  V30 8022 C 750.228 -3.65965 -2.44454 0
M  V30 8023 H 747.347 -0.680559 -0.282858 0
M  V30 8024 H 749.989 -1.89946 -0.0454139 0
M  V30 8025 H 748.139 -3.25199 -2.12551 0
M  V30 8026 H 749.811 -4.61187 0.101919 0
M  V30 8027 H 748.054 -4.33485 0.165219 0
M  V30 8028 H 748.725 -5.41761 -1.05824 0
M  V30 8029 H 751.201 -3.69289 -1.91742 0
M  V30 8030 H 750.077 -4.65086 -2.91524 0
M  V30 8031 H 750.338 -2.95446 -3.28883 0
M  V30 8032 N 749.397 0.351382 -1.53633 0
M  V30 8033 C 750.813 0.693987 -1.43722 0
M  V30 8034 C 751.013 1.9274 -0.587669 0
M  V30 8035 O 750.069 2.52387 -0.0756082 0
M  V30 8036 C 751.382 0.893937 -2.87105 0
M  V30 8037 C 752.93 0.993051 -2.96829 0
M  V30 8038 C 753.405 1.22537 -4.41303 0
M  V30 8039 N 754.896 1.29275 -4.44795 0
M  V30 8040 C 755.631 1.48988 -5.53706 0
M  V30 8041 N 755.127 1.65924 -6.72637 0
M  V30 8042 N 756.92 1.51472 -5.41306 0
M  V30 8043 H 749.071 -0.459688 -2.07366 0
M  V30 8044 H 751.334 -0.143684 -0.937048 0
M  V30 8045 H 751.04 0.0592517 -3.5165 0
M  V30 8046 H 750.914 1.79795 -3.31592 0
M  V30 8047 H 753.301 1.81827 -2.32429 0
M  V30 8048 H 753.382 0.0661119 -2.55715 0
M  V30 8049 H 753.026 0.405117 -5.06282 0
M  V30 8050 H 752.956 2.16575 -4.80003 0
M  V30 8051 H 755.447 1.17743 -3.59089 0
M  V30 8052 H 755.76 1.80578 -7.51406 0
M  V30 8053 H 754.105 1.63075 -6.75597 0
M  V30 8054 H 757.296 1.37818 -4.47352 0
M  V30 8055 H 757.469 1.66493 -6.26246 0
M  V30 8056 N 750.875 1.45233 0.611969 0
M  V30 8057 C 751.805 1.5641 1.73373 0
M  V30 8058 C 752.786 0.415896 1.64937 0
M  V30 8059 O 753.971 0.638478 1.83404 0
M  V30 8060 C 751.101 1.52627 3.11965 0
M  V30 8061 C 750.055 2.66119 3.35208 0
M  V30 8062 C 749.381 2.4739 4.74028 0
M  V30 8063 C 750.681 4.08157 3.25891 0
M  V30 8064 H 752.375 2.50307 1.64277 0
M  V30 8065 H 749.921 1.20467 0.788904 0
M  V30 8066 H 751.874 1.59043 3.90235 0
M  V30 8067 H 750.598 0.552564 3.21892 0
M  V30 8068 H 749.257 2.59123 2.59327 0
M  V30 8069 H 748.905 1.48168 4.80682 0
M  V30 8070 H 748.605 3.23494 4.90536 0
M  V30 8071 H 750.129 2.55653 5.54503 0
M  V30 8072 H 751.543 4.1642 3.9404 0
M  V30 8073 H 749.94 4.84617 3.5393 0
M  V30 8074 H 751.01 4.30374 2.23397 0
M  V30 8075 N 752.353 -0.854086 1.3245 0
M  V30 8076 C 753.602 -1.60318 1.22397 0
M  V30 8077 C 753.915 -1.9444 -0.212664 0
M  V30 8078 O 755.121 -2.67991 -0.435066 0
M  V30 8079 C 753.577 -2.8909 2.1437 0
M  V30 8080 C 753.185 -2.62391 3.63119 0
M  V30 8081 C 754.929 -3.67104 2.13155 0
M  V30 8082 C 752.836 -3.87167 4.47052 0
M  V30 8083 H 751.766 -0.601586 0.454544 0
M  V30 8084 H 754.417 -0.943023 1.57415 0
M  V30 8085 H 752.799 -3.56567 1.72268 0
M  V30 8086 H 753.973 -2.03222 4.13567 0
M  V30 8087 H 752.288 -1.97706 3.66471 0
M  V30 8088 H 754.885 -4.59696 2.731 0
M  V30 8089 H 755.228 -4.00876 1.12268 0
M  V30 8090 H 755.761 -3.06533 2.5354 0
M  V30 8091 H 752.5 -3.58536 5.48755 0
M  V30 8092 H 752.02 -4.45729 4.01355 0
M  V30 8093 H 753.699 -4.549 4.60081 0
M  V30 8094 N 753.831 -1.1567 -1.07043 0
M  V30 8095 C 754.761 -0.879348 -2.16309 0
M  V30 8096 C 755.742 0.171311 -1.69235 0
M  V30 8097 O 756.927 0.0250175 -1.94184 0
M  V30 8098 C 754.057 -0.371307 -3.45309 0
M  V30 8099 C 753.011 -1.359 -4.05851 0
M  V30 8100 C 752.337 -0.709678 -5.29969 0
M  V30 8101 C 753.637 -2.72606 -4.45514 0
M  V30 8102 H 755.331 -1.79308 -2.39768 0
M  V30 8103 H 752.877 -0.863558 -1.15233 0
M  V30 8104 H 754.83 -0.164798 -4.21078 0
M  V30 8105 H 753.554 0.577906 -3.21446 0
M  V30 8106 H 752.213 -1.55193 -3.32131 0
M  V30 8107 H 751.861 0.245782 -5.02399 0
M  V30 8108 H 751.561 -1.36886 -5.71433 0
M  V30 8109 H 753.085 -0.513015 -6.08441 0
M  V30 8110 H 754.499 -2.57141 -5.12398 0
M  V30 8111 H 752.896 -3.34927 -4.97939 0
M  V30 8112 H 753.966 -3.28434 -3.56734 0
M  V30 8113 N 755.309 1.25446 -0.953992 0
M  V30 8114 C 756.256 2.25912 -0.472485 0
M  V30 8115 C 757.226 1.59173 0.47469 0
M  V30 8116 O 758.411 1.86812 0.388082 0
M  V30 8117 C 755.551 3.44235 0.244218 0
M  V30 8118 C 754.664 4.25613 -0.740121 0
M  V30 8119 C 753.799 5.312 -0.000922267 0
M  V30 8120 C 752.838 6.04265 -0.976236 0
M  V30 8121 N 751.975 7.01589 -0.267952 0
M  V30 8122 H 756.815 2.66469 -1.3341 0
M  V30 8123 H 754.352 1.31005 -0.669045 0
M  V30 8124 H 756.31 4.11682 0.676314 0
M  V30 8125 H 754.94 3.04554 1.06988 0
M  V30 8126 H 753.992 3.57834 -1.2907 0
M  V30 8127 H 755.304 4.762 -1.48441 0
M  V30 8128 H 754.458 6.04719 0.48984 0
M  V30 8129 H 753.197 4.81484 0.776159 0
M  V30 8130 H 752.202 5.29561 -1.478 0
M  V30 8131 H 753.427 6.5607 -1.75354 0
M  V30 8132 H 751.373 6.54164 0.490403 0
M  V30 8133 H 751.29 7.4999 -0.951344 0
M  V30 8134 H 752.558 7.7924 0.201294 0
M  V30 8135 N 756.787 0.722489 1.40064 0
M  V30 8136 C 758.027 0.269491 2.02616 0
M  V30 8137 C 758.391 -1.11835 1.56067 0
M  V30 8138 O 759.592 -1.66873 2.1073 0
M  V30 8139 C 757.863 0.354066 3.55642 0
M  V30 8140 S 759.422 -0.0209309 4.38795 0
M  V30 8141 H 756.24 0.106412 0.702992 0
M  V30 8142 H 758.842 0.946237 1.71075 0
M  V30 8143 H 757.546 1.36565 3.87012 0
M  V30 8144 H 757.077 -0.340925 3.9192 0
M  V30 8145 H 759.092 -1.24093 4.80432 0
M  V30 8146 N 758.265 -1.50454 0.469181 0
M  V30 8147 C 759.49 -2.0722 -0.0864892 0
M  V30 8148 C 759.915 -1.33098 -1.32916 0
M  V30 8149 O 759.273 -0.378084 -1.77314 0
M  V30 8150 C 759.321 -3.58845 -0.355384 0
M  V30 8151 O 758.425 -3.86583 -1.43622 0
M  V30 8152 H 757.766 -0.663889 0.0121414 0
M  V30 8153 H 760.296 -1.93674 0.659674 0
M  V30 8154 H 760.306 -4.03617 -0.596447 0
M  V30 8155 H 758.981 -4.12211 0.552698 0
M  V30 8156 H 757.558 -3.5365 -1.18262 0
M  V30 8157 N 759.743 -0.201713 -1.56304 0
M  V30 8158 C 760.676 0.755976 -2.15314 0
M  V30 8159 C 761.654 1.20497 -1.09175 0
M  V30 8160 O 762.838 1.2913 -1.37323 0
M  V30 8161 C 759.965 2.02177 -2.71739 0
M  V30 8162 C 759.011 1.71436 -3.90528 0
M  V30 8163 S 759.844 0.856624 -5.28604 0
M  V30 8164 C 761 2.13242 -5.88455 0
M  V30 8165 H 761.233 0.254348 -2.9621 0
M  V30 8166 H 758.766 0.0133669 -1.54394 0
M  V30 8167 H 760.724 2.74867 -3.04891 0
M  V30 8168 H 759.385 2.49452 -1.90873 0
M  V30 8169 H 758.578 2.65433 -4.28441 0
M  V30 8170 H 758.18 1.06823 -3.5842 0
M  V30 8171 H 760.472 3.08435 -6.0322 0
M  V30 8172 H 761.415 1.7975 -6.84905 0
M  V30 8173 H 761.823 2.2639 -5.17115 0
M  V30 8174 N 761.222 1.57436 0.0718424 0
M  V30 8175 C 762.155 1.98982 1.11721 0
M  V30 8176 C 763.133 0.866731 1.37574 0
M  V30 8177 O 764.317 1.12903 1.50948 0
M  V30 8178 C 761.444 2.32648 2.46155 0
M  V30 8179 C 760.49 3.54964 2.36437 0
M  V30 8180 S 761.323 5.05802 1.75854 0
M  V30 8181 C 762.479 5.42669 3.11867 0
M  V30 8182 H 762.712 2.87338 0.763154 0
M  V30 8183 H 760.245 1.51833 0.280372 0
M  V30 8184 H 762.203 2.52719 3.23486 0
M  V30 8185 H 760.864 1.44821 2.78722 0
M  V30 8186 H 760.057 3.76038 3.35577 0
M  V30 8187 H 759.659 3.34524 1.67242 0
M  V30 8188 H 761.951 5.40737 4.08178 0
M  V30 8189 H 762.894 6.43461 2.95573 0
M  V30 8190 H 763.302 4.70131 3.1247 0
M  V30 8191 N 762.7 -0.34323 1.53817 0
M  V30 8192 C 764.111 -0.918823 1.62525 0
M  V30 8193 C 764.462 -1.89542 0.506765 0
M  V30 8194 O 763.587 -2.13326 -0.363441 0
M  V30 8195 C 764.182 -1.67326 2.94597 0
M  V30 8196 C 762.741 -2.19786 3.05567 0
M  V30 8197 C 761.888 -1.01708 2.57974 0
M  V30 8198 H 764.839 -0.121358 1.58235 0
M  V30 8199 H 764.86 -2.53615 2.83654 0
M  V30 8200 H 764.372 -0.962223 3.75983 0
M  V30 8201 H 762.473 -2.94065 2.28816 0
M  V30 8202 H 762.586 -2.46135 4.1104 0
M  V30 8203 H 760.95 -1.39058 2.13389 0
M  V30 8204 H 761.733 -0.320671 3.41799 0
M  V30 8205 N 764.178 -1.45556 -0.604258 0
M  V30 8206 C 765.111 -1.48975 -1.72863 0
M  V30 8207 C 766.089 -0.345803 -1.5888 0
M  V30 8208 O 767.273 -0.546796 -1.80395 0
M  V30 8209 C 764.4 -1.34794 -3.10722 0
M  V30 8210 C 763.446 -2.53096 -3.43285 0
M  V30 8211 S 764.279 -4.15551 -3.37754 0
M  V30 8212 C 765.435 -4.03842 -4.78187 0
M  V30 8213 H 765.668 -2.44108 -1.69701 0
M  V30 8214 H 763.201 -1.33179 -0.781194 0
M  V30 8215 H 765.159 -1.273 -3.90263 0
M  V30 8216 H 763.82 -0.411254 -3.11396 0
M  V30 8217 H 763.013 -2.39109 -4.4367 0
M  V30 8218 H 762.615 -2.57469 -2.71267 0
M  V30 8219 H 764.907 -3.69191 -5.6807 0
M  V30 8220 H 765.85 -5.0415 -4.97231 0
M  V30 8221 H 766.258 -3.35443 -4.54025 0
M  V30 8222 N 765.656 0.84705 -1.32902 0
M  V30 8223 C 766.588 1.96308 -1.18304 0
M  V30 8224 C 767.601 1.62386 -0.116082 0
M  V30 8225 O 768.79 1.74713 -0.365751 0
M  V30 8226 C 765.89 3.29556 -0.790305 0
M  V30 8227 C 765.063 3.91668 -1.94717 0
M  V30 8228 C 764.122 5.0326 -1.53674 0
M  V30 8229 O 763.148 5.22847 -2.24989 0
M  V30 8230 N 764.35 5.78852 -0.437075 0
M  V30 8231 H 767.115 2.09369 -2.14441 0
M  V30 8232 H 764.676 1.02233 -1.25539 0
M  V30 8233 H 766.668 4.01624 -0.49799 0
M  V30 8234 H 765.238 3.12497 0.0801286 0
M  V30 8235 H 764.458 3.12292 -2.40557 0
M  V30 8236 H 765.746 4.299 -2.72146 0
M  V30 8237 H 765.144 5.65484 0.156316 0
M  V30 8238 H 763.701 6.51479 -0.204399 0
M  V30 8239 N 767.134 1.16236 1.06428 0
M  V30 8240 C 768.38 0.944431 1.79467 0
M  V30 8241 C 768.713 -0.526558 1.86925 0
M  V30 8242 O 767.988 -1.39061 1.35986 0
M  V30 8243 C 768.271 1.57092 3.24028 0
M  V30 8244 C 768.124 3.11315 3.24658 0
M  V30 8245 C 769.443 1.26447 4.21544 0
M  V30 8246 H 766.562 0.344521 0.651517 0
M  V30 8247 H 769.204 1.43545 1.24478 0
M  V30 8248 H 767.354 1.15337 3.70985 0
M  V30 8249 H 769.026 3.62042 2.85873 0
M  V30 8250 H 767.269 3.44716 2.6335 0
M  V30 8251 H 767.94 3.50269 4.26633 0
M  V30 8252 H 770.416 1.62581 3.83023 0
M  V30 8253 H 769.292 1.72885 5.20963 0
M  V30 8254 H 769.553 0.183068 4.41721 0
M  V30 8255 N 768.612 -1.24939 0.960631 0
M  V30 8256 C 769.889 -1.88118 0.535807 0
M  V30 8257 C 770.269 -1.86605 -0.987009 0
M  V30 8258 O 769.617 -1.33375 -1.85536 0
M  V30 8259 C 769.827 -3.30565 1.11927 0
M  V30 8260 C 771.175 -4.07296 1.19981 0
M  V30 8261 O 772.199 -3.39709 1.07126 0
M  V30 8262 O 771.058 -5.28206 1.40218 0
M  V30 8263 H 768.152 -0.807698 0.177631 0
M  V30 8264 H 770.698 -1.32964 1.05445 0
M  V30 8265 H 769.47 -3.26128 2.16231 0
M  V30 8266 H 769.093 -3.93284 0.584245 0
M  V30 8267 N 770.09 -0.729906 -1.39679 0
M  V30 8268 C 771.338 -0.275077 -2.00219 0
M  V30 8269 C 771.659 1.1401 -1.58199 0
M  V30 8270 O 770.929 1.77546 -0.827904 0
M  V30 8271 H 769.509 -0.0987127 -0.740449 0
M  V30 8272 H 772.171 -0.93873 -1.70804 0
M  V30 8273 H 771.267 -0.319446 -3.10461 0
M  V30 8274 N 771.568 1.50203 -0.477153 0
M  V30 8275 C 772.478 2.32421 0.319027 0
M  V30 8276 C 773.494 1.43075 0.990233 0
M  V30 8277 O 774.67 1.76123 0.976873 0
M  V30 8278 C 771.735 3.17909 1.38328 0
M  V30 8279 C 770.796 4.23082 0.728036 0
M  V30 8280 C 770.029 5.04484 1.74158 0
M  V30 8281 O 770.252 4.8705 2.96881 0
M  V30 8282 O 769.186 5.8747 1.31006 0
M  V30 8283 H 773.012 3.01638 -0.353281 0
M  V30 8284 H 770.597 1.47478 -0.238891 0
M  V30 8285 H 772.479 3.70937 1.9996 0
M  V30 8286 H 771.154 2.51413 2.03895 0
M  V30 8287 H 770.061 3.7403 0.07261 0
M  V30 8288 H 771.394 4.92065 0.115216 0
M  V30 8289 N 773.046 0.209999 1.56195 0
M  V30 8290 C 774.457 -0.299943 1.84275 0
M  V30 8291 C 774.808 -1.60314 1.1311 0
M  V30 8292 O 773.933 -2.1273 0.396874 0
M  V30 8293 C 774.528 -0.550986 3.3429 0
M  V30 8294 C 773.087 -1.00526 3.62728 0
M  V30 8295 C 772.234 -0.0619828 2.77231 0
M  V30 8296 H 775.185 0.433458 1.52666 0
M  V30 8297 H 775.206 -1.39846 3.53869 0
M  V30 8298 H 774.718 0.397669 3.86057 0
M  V30 8299 H 772.819 -1.96768 3.16407 0
M  V30 8300 H 772.932 -0.887664 4.70805 0
M  V30 8301 H 771.296 -0.566648 2.48317 0
M  V30 8302 H 772.079 0.881383 3.31793 0
M  V30 8303 N 774.524 -1.57472 -0.0634922 0
M  V30 8304 C 775.77 -1.88792 -0.756903 0
M  V30 8305 C 776.125 -0.804679 -1.74765 0
M  V30 8306 O 775.418 0.19033 -1.90652 0
M  V30 8307 C 775.612 -3.24521 -1.49736 0
M  V30 8308 C 775.441 -4.45946 -0.579833 0
M  V30 8309 C 774.211 -5.04848 -0.213667 0
M  V30 8310 C 776.409 -5.14143 0.12703 0
M  V30 8311 N 774.391 -6.09795 0.708712 0
M  V30 8312 C 775.762 -6.1334 0.906295 0
M  V30 8313 C 777.817 -4.97508 0.197625 0
M  V30 8314 C 776.52 -6.97697 1.74961 0
M  V30 8315 C 778.546 -5.82398 1.02794 0
M  V30 8316 C 777.908 -6.81139 1.79523 0
M  V30 8317 H 774.007 -0.740235 -0.252142 0
M  V30 8318 H 776.591 -1.94692 -0.0181026 0
M  V30 8319 H 774.762 -3.19615 -2.20683 0
M  V30 8320 H 776.494 -3.43464 -2.14044 0
M  V30 8321 H 773.249 -4.70177 -0.568357 0
M  V30 8322 H 773.673 -6.66929 1.16339 0
M  V30 8323 H 778.315 -4.21077 -0.381261 0
M  V30 8324 H 776.033 -7.73496 2.33943 0
M  V30 8325 H 779.619 -5.71581 1.08565 0
M  V30 8326 H 778.499 -7.45687 2.42736 0
M  V30 8327 N 776.003 0.335068 -1.53997 0
M  V30 8328 C 776.966 1.39481 -1.81872 0
M  V30 8329 C 777.966 1.4524 -0.690078 0
M  V30 8330 O 779.156 1.45467 -0.958377 0
M  V30 8331 C 776.288 2.78329 -1.9684 0
M  V30 8332 H 777.481 1.16024 -2.76547 0
M  V30 8333 H 775.034 0.569926 -1.45539 0
M  V30 8334 H 775.769 3.07058 -1.04337 0
M  V30 8335 H 775.554 2.75544 -2.78958 0
M  V30 8336 H 777.044 3.55016 -2.19894 0
M  V30 8337 N 777.481 1.45874 0.596531 0
M  V30 8338 C 778.413 1.51408 1.7207 0
M  V30 8339 C 779.426 0.403738 1.57714 0
M  V30 8340 O 780.615 0.671384 1.65393 0
M  V30 8341 C 777.715 1.3652 3.10186 0
M  V30 8342 C 776.888 2.61428 3.50677 0
M  V30 8343 C 775.947 2.40937 4.67799 0
M  V30 8344 O 774.973 3.14602 4.74357 0
M  V30 8345 N 776.175 1.4621 5.61785 0
M  V30 8346 H 778.94 2.48333 1.67782 0
M  V30 8347 H 776.501 1.41755 0.782129 0
M  V30 8348 H 778.493 1.20606 3.86311 0
M  V30 8349 H 777.063 0.478302 3.08919 0
M  V30 8350 H 776.283 2.92381 2.644 0
M  V30 8351 H 777.571 3.44432 3.74491 0
M  V30 8352 H 776.969 0.854382 5.59211 0
M  V30 8353 H 775.526 1.36264 6.37397 0
M  V30 8354 N 778.959 -0.83999 1.33349 0
M  V30 8355 C 780.207 -1.59202 1.24496 0
M  V30 8356 C 780.528 -1.94077 -0.189499 0
M  V30 8357 O 779.798 -1.60868 -1.11796 0
M  V30 8358 H 778.378 -0.590276 0.457802 0
M  V30 8359 H 781.04 -1.00394 1.67054 0
M  V30 8360 H 780.136 -2.52247 1.83788 0
M  V30 8361 N 780.437 -1.16799 -1.0581 0
M  V30 8362 C 781.848 -0.95945 -1.60161 0
M  V30 8363 C 782.199 0.49543 -1.89842 0
M  V30 8364 O 781.324 1.36957 -1.67546 0
M  V30 8365 C 781.919 -1.73527 -2.90987 0
M  V30 8366 C 780.478 -1.57158 -3.42021 0
M  V30 8367 C 779.625 -1.74089 -2.15843 0
M  V30 8368 H 782.576 -1.31598 -0.886992 0
M  V30 8369 H 782.597 -1.21397 -3.60615 0
M  V30 8370 H 782.109 -2.79411 -2.69353 0
M  V30 8371 H 780.21 -0.537361 -3.68705 0
M  V30 8372 H 780.323 -2.35858 -4.17022 0
M  V30 8373 H 778.687 -1.16874 -2.26302 0
M  V30 8374 H 779.47 -2.81371 -1.96686 0
M  V30 8375 N 781.915 1.24427 -0.967243 0
M  V30 8376 C 783.155 1.9423 -0.636723 0
M  V30 8377 C 783.519 1.73939 0.812971 0
M  V30 8378 O 784.72 2.37773 1.25369 0
M  V30 8379 C 782.991 3.43105 -1.00067 0
M  V30 8380 S 784.55 4.31728 -0.784633 0
M  V30 8381 H 781.368 0.671527 -0.233607 0
M  V30 8382 H 783.97 1.50806 -1.2441 0
M  V30 8383 H 782.674 3.5538 -2.05264 0
M  V30 8384 H 782.205 3.91521 -0.384054 0
M  V30 8385 H 784.22 4.95046 0.338244 0
M  V30 8386 N 783.393 0.737304 1.3929 0
M  V30 8387 C 784.621 0.296573 2.04763 0
M  V30 8388 C 785.036 -1.06941 1.55592 0
M  V30 8389 O 784.393 -1.67619 0.721822 0
M  V30 8390 C 784.444 0.291906 3.6032 0
M  V30 8391 O 784.165 1.60397 4.07682 0
M  V30 8392 C 785.666 -0.164708 4.42994 0
M  V30 8393 H 782.886 0.129251 0.658434 0
M  V30 8394 H 785.43 1.0016 1.78293 0
M  V30 8395 H 783.585 -0.364251 3.85684 0
M  V30 8396 H 783.999 1.51909 5.0202 0
M  V30 8397 H 785.473 -0.116814 5.51876 0
M  V30 8398 H 785.95 -1.21022 4.22197 0
M  V30 8399 H 786.556 0.461968 4.22784 0
M  V30 8400 N 784.871 -1.49948 0.485112 0
M  V30 8401 C 786.117 -2.02695 -0.0651022 0
M  V30 8402 C 786.45 -1.36534 -1.38102 0
M  V30 8403 O 785.725 -0.495677 -1.88078 0
M  V30 8404 C 786.008 -3.59337 -0.234285 0
M  V30 8405 C 785.861 -4.3605 1.10364 0
M  V30 8406 C 787.18 -4.28996 -0.982351 0
M  V30 8407 H 784.299 -0.736666 -0.0221856 0
M  V30 8408 H 786.941 -1.7913 0.633433 0
M  V30 8409 H 785.091 -3.79546 -0.829262 0
M  V30 8410 H 786.763 -4.27377 1.73627 0
M  V30 8411 H 785.006 -3.99236 1.69686 0
M  V30 8412 H 785.677 -5.43959 0.938743 0
M  V30 8413 H 788.153 -4.13346 -0.477904 0
M  V30 8414 H 787.029 -5.38379 -1.06955 0
M  V30 8415 H 787.29 -3.93135 -2.02231 0
M  V30 8416 N 786.349 -0.21828 -1.56081 0
M  V30 8417 C 787.577 0.419258 -2.02608 0
M  V30 8418 C 787.992 1.53578 -1.09814 0
M  V30 8419 O 787.349 1.82185 -0.107149 0
M  V30 8420 C 787.4 0.953955 -3.48686 0
M  V30 8421 O 787.121 -0.11805 -4.37941 0
M  V30 8422 C 788.622 1.66506 -4.10841 0
M  V30 8423 H 785.842 0.10296 -0.663054 0
M  V30 8424 H 788.386 -0.333776 -2.01758 0
M  V30 8425 H 786.541 1.65727 -3.50162 0
M  V30 8426 H 786.955 0.283359 -5.23734 0
M  V30 8427 H 788.429 1.99123 -5.14834 0
M  V30 8428 H 788.906 2.57705 -3.55647 0
M  V30 8429 H 789.512 1.00703 -4.13206 0
M  V30 8430 N 787.827 1.57504 0.0551401 0
M  V30 8431 C 789.076 1.87237 0.750009 0
M  V30 8432 C 789.389 0.813268 1.77891 0
M  V30 8433 O 790.595 0.99898 2.52453 0
M  V30 8434 C 789.051 3.32187 1.38491 0
M  V30 8435 C 788.659 4.46267 0.393707 0
M  V30 8436 C 790.403 3.71101 2.06117 0
M  V30 8437 C 788.31 5.82265 1.03547 0
M  V30 8438 H 787.24 0.698524 0.283866 0
M  V30 8439 H 789.891 1.835 0.00365997 0
M  V30 8440 H 788.273 3.30588 2.18008 0
M  V30 8441 H 789.447 4.59289 -0.372865 0
M  V30 8442 H 787.762 4.16015 -0.17902 0
M  V30 8443 H 790.359 4.70012 2.54937 0
M  V30 8444 H 790.702 3.01751 2.86796 0
M  V30 8445 H 791.235 3.74762 1.33409 0
M  V30 8446 H 787.974 6.54949 0.268644 0
M  V30 8447 H 787.494 5.73012 1.7725 0
M  V30 8448 H 789.173 6.28148 1.55047 0
M  V30 8449 N 789.305 -0.326896 1.54172 0
M  V30 8450 C 790.533 -1.08486 1.76177 0
M  V30 8451 C 790.948 -1.81815 0.508788 0
M  V30 8452 O 790.305 -1.74924 -0.520362 0
M  V30 8453 C 790.356 -2.08552 2.95276 0
M  V30 8454 O 790.077 -1.38202 4.15731 0
M  V30 8455 C 791.578 -2.96593 3.29466 0
M  V30 8456 H 788.798 -0.322835 0.588233 0
M  V30 8457 H 791.342 -0.374036 2.0105 0
M  V30 8458 H 789.497 -2.75174 2.72687 0
M  V30 8459 H 789.911 -2.05186 4.827 0
M  V30 8460 H 791.385 -3.62708 4.16109 0
M  V30 8461 H 791.862 -3.63511 2.46487 0
M  V30 8462 H 792.468 -2.35537 3.54122 0
M  V30 8463 N 790.784 -1.46188 -0.588786 0
M  V30 8464 C 791.734 -1.5271 -1.69303 0
M  V30 8465 C 792.718 -0.388578 -1.56137 0
M  V30 8466 O 793.91 -0.636616 -1.65155 0
M  V30 8467 C 791.039 -1.51457 -3.08084 0
M  V30 8468 C 790.125 -2.70581 -3.26568 0
M  V30 8469 N 790.516 -3.9555 -3.15236 0
M  V30 8470 C 788.814 -2.66676 -3.57491 0
M  V30 8471 C 789.515 -4.75157 -3.35561 0
M  V30 8472 N 788.491 -4.06927 -3.60432 0
M  V30 8473 H 792.293 -2.47136 -1.59063 0
M  V30 8474 H 789.807 -1.41743 -0.792632 0
M  V30 8475 H 791.804 -1.54216 -3.87328 0
M  V30 8476 H 790.464 -0.581036 -3.19459 0
M  V30 8477 H 791.475 -4.2689 -2.93232 0
M  V30 8478 H 788.152 -1.82317 -3.75588 0
M  V30 8479 H 789.542 -5.84126 -3.32034 0
M  V30 8480 N 792.262 0.832906 -1.33792 0
M  V30 8481 C 793.209 1.94314 -1.24541 0
M  V30 8482 C 794.179 1.65646 -0.122753 0
M  V30 8483 O 795.364 1.88394 -0.30204 0
M  V30 8484 C 792.504 3.30395 -0.996641 0
M  V30 8485 C 791.617 3.71422 -2.20612 0
M  V30 8486 C 790.752 4.96401 -1.89101 0
M  V30 8487 C 789.791 5.2998 -3.06247 0
M  V30 8488 N 788.928 6.46137 -2.74685 0
M  V30 8489 H 793.768 2.01559 -2.19495 0
M  V30 8490 H 791.305 0.986243 -1.09141 0
M  V30 8491 H 793.263 4.08803 -0.832817 0
M  V30 8492 H 791.893 3.22691 -0.0838242 0
M  V30 8493 H 790.945 2.88488 -2.47949 0
M  V30 8494 H 792.257 3.92215 -3.0817 0
M  V30 8495 H 791.411 5.82572 -1.69396 0
M  V30 8496 H 790.15 4.7759 -0.987882 0
M  V30 8497 H 789.155 4.42312 -3.26559 0
M  V30 8498 H 790.38 5.50737 -3.97323 0
M  V30 8499 H 788.326 6.28801 -1.86938 0
M  V30 8500 H 788.243 6.67054 -3.55774 0
M  V30 8501 H 789.511 7.35403 -2.58461 0
M  V30 8502 N 793.74 1.17359 1.05189 0
M  V30 8503 C 794.968 0.986529 1.81866 0
M  V30 8504 C 795.383 -0.46522 1.82979 0
M  V30 8505 O 794.74 -1.32305 1.25705 0
M  V30 8506 C 794.791 1.52021 3.27982 0
M  V30 8507 O 794.512 2.91511 3.27037 0
M  V30 8508 C 796.013 1.37774 4.21347 0
M  V30 8509 H 793.233 0.349021 0.573084 0
M  V30 8510 H 795.777 1.55648 1.32643 0
M  V30 8511 H 793.932 0.992287 3.74476 0
M  V30 8512 H 794.346 3.16178 4.18488 0
M  V30 8513 H 795.82 1.7993 5.21852 0
M  V30 8514 H 796.297 0.32483 4.37997 0
M  V30 8515 H 796.903 1.89583 3.80708 0
M  V30 8516 N 795.218 -1.23913 0.973828 0
M  V30 8517 C 796.168 -2.22892 0.479933 0
M  V30 8518 C 797.152 -1.54726 -0.441434 0
M  V30 8519 O 798.344 -1.74908 -0.271358 0
M  V30 8520 C 795.473 -3.42577 -0.222702 0
M  V30 8521 C 794.559 -4.17981 0.717851 0
M  V30 8522 N 794.95 -4.7045 1.8577 0
M  V30 8523 C 793.248 -4.42841 0.529858 0
M  V30 8524 C 793.949 -5.27751 2.44651 0
M  V30 8525 N 792.925 -5.15302 1.73104 0
M  V30 8526 H 796.727 -2.61083 1.34956 0
M  V30 8527 H 794.241 -1.39368 0.83368 0
M  V30 8528 H 796.238 -4.1265 -0.593793 0
M  V30 8529 H 794.898 -3.05904 -1.0887 0
M  V30 8530 H 795.909 -4.66997 2.23908 0
M  V30 8531 H 792.586 -4.1648 -0.291664 0
M  V30 8532 H 793.976 -5.79011 3.40875 0
M  V30 8533 N 796.696 -0.74468 -1.38897 0
M  V30 8534 C 797.659 -0.11945 -2.28889 0
M  V30 8535 C 798.659 0.656942 -1.46768 0
M  V30 8536 O 799.849 0.484525 -1.67326 0
M  V30 8537 C 796.981 0.839635 -3.30398 0
M  V30 8538 H 798.174 -0.912414 -2.85683 0
M  V30 8539 H 795.727 -0.511119 -1.47707 0
M  V30 8540 H 796.462 1.6586 -2.78677 0
M  V30 8541 H 796.247 0.285432 -3.9106 0
M  V30 8542 H 797.737 1.27337 -3.97712 0
M  V30 8543 N 798.174 1.49689 -0.493057 0
M  V30 8544 C 799.107 2.25712 0.336062 0
M  V30 8545 C 800.085 1.29953 0.977294 0
M  V30 8546 O 801.269 1.59225 1.00895 0
M  V30 8547 C 798.396 3.0501 1.47263 0
M  V30 8548 C 797.442 4.15863 0.946575 0
M  V30 8549 S 798.275 5.35272 -0.156323 0
M  V30 8550 C 799.431 6.18123 0.983601 0
M  V30 8551 H 799.664 2.95688 -0.309215 0
M  V30 8552 H 797.197 1.51872 -0.278238 0
M  V30 8553 H 799.155 3.51284 2.12391 0
M  V30 8554 H 797.816 2.34519 2.08949 0
M  V30 8555 H 797.009 4.70834 1.7981 0
M  V30 8556 H 796.611 3.72139 0.372647 0
M  V30 8557 H 798.903 6.50588 1.89056 0
M  V30 8558 H 799.846 7.06521 0.472687 0
M  V30 8559 H 800.254 5.50547 1.24735 0
M  V30 8560 N 799.652 0.226554 1.55963 0
M  V30 8561 C 800.585 -0.721625 2.1649 0
M  V30 8562 C 801.563 -1.18745 1.11078 0
M  V30 8563 O 802.747 -1.26929 1.3936 0
M  V30 8564 C 799.874 -1.97828 2.74921 0
M  V30 8565 C 798.92 -1.65202 3.93206 0
M  V30 8566 S 799.753 -0.772419 5.299 0
M  V30 8567 C 800.909 -2.03853 5.91773 0
M  V30 8568 H 801.142 -0.207192 2.96577 0
M  V30 8569 H 798.675 0.0111976 1.54396 0
M  V30 8570 H 800.633 -2.69982 3.09225 0
M  V30 8571 H 799.294 -2.46384 1.94817 0
M  V30 8572 H 798.487 -2.58583 4.32609 0
M  V30 8573 H 798.089 -1.01108 3.60074 0
M  V30 8574 H 800.381 -2.98799 6.08051 0
M  V30 8575 H 801.324 -1.68831 6.87678 0
M  V30 8576 H 801.732 -2.18134 5.20651 0
M  V30 8577 N 801.13 -1.57531 -0.0467866 0
M  V30 8578 C 802.06 -2.08425 -1.05268 0
M  V30 8579 C 803.041 -0.982941 -1.38825 0
M  V30 8580 O 804.226 -1.25716 -1.48018 0
M  V30 8581 C 801.356 -2.54897 -2.35891 0
M  V30 8582 C 800.31 -3.69132 -2.16623 0
M  V30 8583 C 799.636 -4.01747 -3.52851 0
M  V30 8584 C 800.936 -4.98243 -1.56689 0
M  V30 8585 H 802.63 -2.92716 -0.62908 0
M  V30 8586 H 800.176 -1.40816 -0.301156 0
M  V30 8587 H 802.129 -2.8912 -3.06574 0
M  V30 8588 H 800.853 -1.67666 -2.80278 0
M  V30 8589 H 799.512 -3.35231 -1.48377 0
M  V30 8590 H 799.16 -3.11608 -3.94853 0
M  V30 8591 H 798.86 -4.78681 -3.4079 0
M  V30 8592 H 800.384 -4.38487 -4.24925 0
M  V30 8593 H 801.798 -5.30535 -2.17268 0
M  V30 8594 H 800.195 -5.79669 -1.55255 0
M  V30 8595 H 801.265 -4.81986 -0.530827 0
M  V30 8596 N 802.608 0.318715 -1.54344 0
M  V30 8597 C 803.838 1.07394 -1.76494 0
M  V30 8598 C 804.246 1.82031 -0.515881 0
M  V30 8599 O 803.589 1.7609 0.52325 0
M  V30 8600 C 803.651 2.11401 -2.90775 0
M  V30 8601 C 803.315 1.56118 -4.29507 0
M  V30 8602 C 804.312 1.00043 -5.10184 0
M  V30 8603 C 801.997 1.60215 -4.76063 0
M  V30 8604 C 803.991 0.487993 -6.35529 0
M  V30 8605 C 801.678 1.08584 -6.01376 0
M  V30 8606 C 802.676 0.529714 -6.80943 0
M  V30 8607 O 802.364 0.0211823 -8.03897 0
M  V30 8608 H 802.096 0.325061 -0.592715 0
M  V30 8609 H 804.65 0.36901 -2.02058 0
M  V30 8610 H 802.88 2.85524 -2.60793 0
M  V30 8611 H 804.569 2.72683 -3.00664 0
M  V30 8612 H 805.335 0.961811 -4.75367 0
M  V30 8613 H 801.214 2.02441 -4.14172 0
M  V30 8614 H 804.758 0.0532608 -6.9758 0
M  V30 8615 H 800.655 1.12155 -6.35682 0
M  V30 8616 H 801.423 0.136151 -8.18387 0
M  V30 8617 N 804.086 1.46499 0.581025 0
M  V30 8618 C 805.333 1.51896 1.33918 0
M  V30 8619 C 805.661 0.171361 1.93744 0
M  V30 8620 O 804.916 -0.833178 1.77078 0
M  V30 8621 C 805.215 2.56686 2.48691 0
M  V30 8622 C 804.881 4.00656 2.06847 0
M  V30 8623 C 803.543 4.39852 1.9515 0
M  V30 8624 C 805.895 4.91089 1.74589 0
M  V30 8625 C 803.223 5.67345 1.49456 0
M  V30 8626 C 805.575 6.1902 1.30373 0
M  V30 8627 C 804.239 6.57121 1.17255 0
M  V30 8628 H 803.509 0.555826 0.490039 0
M  V30 8629 H 806.156 1.79983 0.654092 0
M  V30 8630 H 804.461 2.22266 3.22653 0
M  V30 8631 H 806.158 2.58091 3.06904 0
M  V30 8632 H 802.748 3.69674 2.16886 0
M  V30 8633 H 806.932 4.61523 1.8251 0
M  V30 8634 H 802.188 5.95635 1.37944 0
M  V30 8635 H 806.362 6.8852 1.04467 0
M  V30 8636 H 803.989 7.55805 0.816236 0
M  V30 8637 N 805.565 -0.825799 1.34232 0
M  V30 8638 C 806.79 -1.61883 1.29648 0
M  V30 8639 C 807.215 -1.87669 -0.127295 0
M  V30 8640 O 806.573 -1.45016 -1.08813 0
M  V30 8641 C 806.621 -2.93846 2.09014 0
M  V30 8642 O 805.725 -3.85778 1.4577 0
M  V30 8643 H 805.066 -0.492454 0.445405 0
M  V30 8644 H 807.596 -1.02641 1.76992 0
M  V30 8645 H 807.606 -3.43435 2.20264 0
M  V30 8646 H 806.281 -2.74401 3.12533 0
M  V30 8647 H 804.858 -3.4429 1.43245 0
M  V30 8648 N 807.043 -1.17915 -1.04565 0
M  V30 8649 C 808.291 -0.969505 -1.77327 0
M  V30 8650 C 808.612 0.502569 -1.88412 0
M  V30 8651 O 807.882 1.36467 -1.40547 0
M  V30 8652 H 806.462 -0.355723 -0.656864 0
M  V30 8653 H 809.124 -1.48506 -1.26223 0
M  V30 8654 H 808.22 -1.40324 -2.78775 0
M  V30 8655 N 808.521 1.23394 -0.980386 0
M  V30 8656 C 809.431 2.28561 -0.528864 0
M  V30 8657 C 810.447 1.68946 0.416329 0
M  V30 8658 O 811.623 1.99355 0.286251 0
M  V30 8659 C 808.688 3.46323 0.16155 0
M  V30 8660 C 807.749 4.21297 -0.825044 0
M  V30 8661 C 806.982 5.33437 -0.167483 0
M  V30 8662 O 807.205 5.60812 1.04146 0
M  V30 8663 O 806.139 5.95637 -0.866047 0
M  V30 8664 H 809.965 2.69326 -1.40346 0
M  V30 8665 H 807.55 1.29325 -0.748019 0
M  V30 8666 H 809.432 4.17811 0.548841 0
M  V30 8667 H 808.107 3.0751 1.01092 0
M  V30 8668 H 807.014 3.52134 -1.26303 0
M  V30 8669 H 808.347 4.6396 -1.64322 0
M  V30 8670 N 809.999 0.752036 1.385 0
M  V30 8671 C 810.931 0.0835089 2.29048 0
M  V30 8672 C 811.944 -0.685402 1.47669 0
M  V30 8673 O 813.133 -0.526748 1.70551 0
M  V30 8674 C 810.233 -0.905772 3.26572 0
M  V30 8675 C 809.406 -0.194828 4.36966 0
M  V30 8676 C 808.465 -1.09464 5.14688 0
M  V30 8677 O 807.491 -0.565743 5.66381 0
M  V30 8678 N 808.693 -2.42287 5.2752 0
M  V30 8679 H 811.458 0.861142 2.87062 0
M  V30 8680 H 809.019 0.602689 1.50264 0
M  V30 8681 H 811.011 -1.51072 3.75446 0
M  V30 8682 H 809.581 -1.58449 2.69467 0
M  V30 8683 H 808.801 0.590812 3.89747 0
M  V30 8684 H 810.089 0.297189 5.07931 0
M  V30 8685 H 809.487 -2.87715 4.8707 0
M  V30 8686 H 808.044 -2.97836 5.79773 0
M  V30 8687 N 811.477 -1.49425 0.500989 0
M  V30 8688 C 812.705 -2.06861 -0.0403443 0
M  V30 8689 C 813.12 -1.36132 -1.30819 0
M  V30 8690 O 812.477 -0.439647 -1.77125 0
M  V30 8691 C 812.528 -3.6027 -0.297902 0
M  V30 8692 O 812.249 -4.28338 0.919686 0
M  V30 8693 C 813.75 -4.34419 -0.882876 0
M  V30 8694 H 810.97 -0.670688 0.0204619 0
M  V30 8695 H 813.514 -1.92207 0.698342 0
M  V30 8696 H 811.669 -3.74627 -0.98657 0
M  V30 8697 H 812.083 -5.2004 0.682528 0
M  V30 8698 H 813.557 -5.42631 -1.01268 0
M  V30 8699 H 814.034 -3.96898 -1.88066 0
M  V30 8700 H 814.64 -4.24669 -0.231677 0
M  V30 8701 N 812.955 -0.234822 -1.55841 0
M  V30 8702 C 814.232 0.442961 -1.90518 0
M  V30 8703 C 814.612 1.76768 -1.15397 0
M  V30 8704 O 813.96 2.26928 -0.267534 0
M  V30 8705 C 814.17 0.622905 -3.43396 0
M  V30 8706 C 815.518 0.9243 -4.14417 0
M  V30 8707 O 816.542 0.709211 -3.49068 0
M  V30 8708 O 815.401 1.33323 -5.29988 0
M  V30 8709 H 812.495 0.236042 -0.792599 0
M  V30 8710 H 815.041 -0.277992 -1.67408 0
M  V30 8711 H 813.813 -0.310973 -3.90062 0
M  V30 8712 H 813.436 1.39485 -3.7233 0
M  V30 8713 N 814.433 1.57553 0.0384317 0
M  V30 8714 C 815.71 1.79977 0.766002 0
M  V30 8715 C 816.09 0.830625 1.94072 0
M  V30 8716 O 815.438 -0.129243 2.28134 0
M  V30 8717 C 815.648 3.27434 1.20781 0
M  V30 8718 C 816.996 3.92167 1.62758 0
M  V30 8719 O 818.02 3.31527 1.30263 0
M  V30 8720 O 816.879 4.98917 2.23035 0
M  V30 8721 H 813.973 0.739787 0.369654 0
M  V30 8722 H 816.519 1.69693 0.0159312 0
M  V30 8723 H 815.291 3.89558 0.368792 0
M  V30 8724 H 814.914 3.42571 2.01819 0
M  V30 8725 N 815.911 -0.310526 1.54511 0
M  V30 8726 C 817.188 -1.06593 1.64004 0
M  V30 8727 C 817.568 -2.05519 0.482216 0
M  V30 8728 O 816.916 -2.22455 -0.52212 0
M  V30 8729 C 817.126 -1.75627 3.01589 0
M  V30 8730 C 818.474 -2.28173 3.58081 0
M  V30 8731 O 819.498 -1.85674 3.03979 0
M  V30 8732 O 818.357 -3.06015 4.52788 0
M  V30 8733 H 815.451 -0.492109 0.664649 0
M  V30 8734 H 817.997 -0.309374 1.66856 0
M  V30 8735 H 816.769 -1.03743 3.77297 0
M  V30 8736 H 816.392 -2.58061 3.02473 0
M  V30 8737 N 817.389 -1.46805 -0.573248 0
M  V30 8738 C 818.638 -1.51868 -1.32736 0
M  V30 8739 C 818.951 -0.178765 -1.94781 0
M  V30 8740 O 820.157 -0.107272 -2.71288 0
M  V30 8741 C 818.613 -2.67641 -2.40616 0
M  V30 8742 C 818.221 -4.08094 -1.84832 0
M  V30 8743 C 819.965 -2.81984 -3.17309 0
M  V30 8744 C 817.872 -5.15193 -2.90397 0
M  V30 8745 H 816.802 -0.56523 -0.49903 0
M  V30 8746 H 819.453 -1.7304 -0.610695 0
M  V30 8747 H 817.835 -2.39818 -3.15124 0
M  V30 8748 H 819.009 -4.45751 -1.16803 0
M  V30 8749 H 817.324 -3.985 -1.20775 0
M  V30 8750 H 819.921 -3.59166 -3.96111 0
M  V30 8751 H 820.264 -1.89842 -3.70494 0
M  V30 8752 H 820.797 -3.095 -2.4991 0
M  V30 8753 H 817.536 -6.09158 -2.42088 0
M  V30 8754 H 817.056 -4.82071 -3.56886 0
M  V30 8755 H 818.735 -5.41448 -3.54179 0
M  V30 8756 N 818.867 0.818669 -1.34668 0
M  V30 8757 C 820.092 1.61193 -1.30505 0
M  V30 8758 C 820.517 1.87734 0.117341 0
M  V30 8759 O 819.875 1.45591 1.08042 0
M  V30 8760 C 819.923 2.92733 -2.1057 0
M  V30 8761 O 819.027 3.85 -1.47813 0
M  V30 8762 H 818.368 0.490085 -0.44801 0
M  V30 8763 H 820.898 1.01701 -1.77534 0
M  V30 8764 H 820.908 3.42262 -2.22082 0
M  V30 8765 H 819.583 2.7274 -3.13984 0
M  V30 8766 H 818.16 3.43525 -1.45069 0
M  V30 8767 N 820.346 1.18468 1.03938 0
M  V30 8768 C 821.571 1.00638 1.81347 0
M  V30 8769 C 821.996 -0.440477 1.8287 0
M  V30 8770 O 821.354 -1.31609 1.24695 0
M  V30 8771 C 821.402 1.5673 3.24759 0
M  V30 8772 O 820.506 0.789517 4.04772 0
M  V30 8773 H 819.847 0.356432 0.560225 0
M  V30 8774 H 822.377 1.57253 1.30891 0
M  V30 8775 H 822.387 1.59496 3.75533 0
M  V30 8776 H 821.062 2.62043 3.22965 0
M  V30 8777 H 819.639 0.834267 3.63448 0
M  V30 8778 N 821.824 -1.22873 0.986916 0
M  V30 8779 C 823.052 -1.95487 0.677663 0
M  V30 8780 C 823.467 -1.72978 -0.756572 0
M  V30 8781 O 822.824 -1.02517 -1.50985 0
M  V30 8782 C 822.875 -3.48337 0.966638 0
M  V30 8783 O 822.596 -3.70087 2.34451 0
M  V30 8784 C 824.097 -4.38142 0.674248 0
M  V30 8785 H 821.317 -0.622211 0.251185 0
M  V30 8786 H 823.861 -1.56187 1.32007 0
M  V30 8787 H 822.016 -3.85628 0.370137 0
M  V30 8788 H 822.43 -4.64332 2.43918 0
M  V30 8789 H 823.904 -5.44165 0.926759 0
M  V30 8790 H 824.381 -4.3745 -0.391728 0
M  V30 8791 H 824.987 -4.06469 1.25152 0
M  V30 8792 N 823.302 -0.75937 -1.38099 0
M  V30 8793 C 824.527 -0.327859 -2.04792 0
M  V30 8794 C 824.952 1.03752 -1.56899 0
M  V30 8795 O 824.31 1.66235 -0.723581 0
M  V30 8796 C 824.358 -0.366264 -3.58735 0
M  V30 8797 O 823.462 0.637697 -4.0744 0
M  V30 8798 H 822.803 -0.144092 -0.648177 0
M  V30 8799 H 825.333 -1.03211 -1.7666 0
M  V30 8800 H 825.343 -0.219179 -4.07411 0
M  V30 8801 H 824.018 -1.36243 -3.92951 0
M  V30 8802 H 822.595 0.454749 -3.70117 0
M  V30 8803 N 824.78 1.49157 -0.508906 0
M  V30 8804 C 826.057 1.95363 0.0961913 0
M  V30 8805 C 826.437 1.45064 1.53362 0
M  V30 8806 O 825.785 0.667835 2.18523 0
M  V30 8807 C 825.995 3.49 0.000688881 0
M  V30 8808 C 827.343 4.24257 0.170632 0
M  V30 8809 O 828.367 3.5612 0.0754994 0
M  V30 8810 O 827.226 5.45267 0.366957 0
M  V30 8811 H 824.32 0.821984 0.0909489 0
M  V30 8812 H 826.866 1.59769 -0.572007 0
M  V30 8813 H 825.638 3.78269 -1.00143 0
M  V30 8814 H 825.261 3.91233 0.708682 0
M  V30 8815 N 826.258 0.243083 1.55714 0
M  V30 8816 C 827.19 -0.690766 2.18543 0
M  V30 8817 C 828.203 -1.14163 1.16064 0
M  V30 8818 O 829.392 -1.06906 1.42946 0
M  V30 8819 C 826.492 -1.95016 2.77168 0
M  V30 8820 C 825.665 -1.65137 4.05029 0
M  V30 8821 C 824.724 -2.75998 4.48009 0
M  V30 8822 O 823.75 -2.43547 5.14464 0
M  V30 8823 N 824.952 -4.05414 4.15476 0
M  V30 8824 H 827.717 -0.153203 2.99308 0
M  V30 8825 H 825.278 0.0628968 1.61778 0
M  V30 8826 H 827.27 -2.68414 3.0288 0
M  V30 8827 H 825.84 -2.39762 2.00582 0
M  V30 8828 H 825.06 -0.752768 3.86946 0
M  V30 8829 H 826.348 -1.42633 4.88399 0
M  V30 8830 H 825.746 -4.34613 3.62116 0
M  V30 8831 H 824.303 -4.75288 4.46032 0
M  V30 8832 N 827.736 -1.57571 -0.0300757 0
M  V30 8833 C 828.646 -2.09892 -1.04798 0
M  V30 8834 C 829.662 -1.03732 -1.39698 0
M  V30 8835 O 830.838 -1.35461 -1.49038 0
M  V30 8836 C 827.903 -2.56707 -2.33028 0
M  V30 8837 C 826.964 -3.77345 -2.04718 0
M  V30 8838 C 826.197 -4.21918 -3.26834 0
M  V30 8839 O 826.42 -3.66025 -4.37472 0
M  V30 8840 O 825.354 -5.14362 -3.12594 0
M  V30 8841 H 829.18 -2.97023 -0.633344 0
M  V30 8842 H 826.765 -1.47344 -0.246991 0
M  V30 8843 H 828.647 -2.87154 -3.08417 0
M  V30 8844 H 827.322 -1.72688 -2.73789 0
M  V30 8845 H 826.229 -3.51919 -1.26901 0
M  V30 8846 H 827.562 -4.62345 -1.68813 0
M  V30 8847 N 829.214 0.302327 -1.54673 0
M  V30 8848 C 830.491 1.05721 -1.64567 0
M  V30 8849 C 830.871 2.0526 -0.493108 0
M  V30 8850 O 830.219 2.22729 0.510315 0
M  V30 8851 C 830.429 1.74025 -3.02517 0
M  V30 8852 C 831.777 2.26271 -3.59286 0
M  V30 8853 O 832.801 1.8406 -3.0496 0
M  V30 8854 O 831.66 3.0361 -4.54404 0
M  V30 8855 H 828.754 0.488577 -0.667249 0
M  V30 8856 H 831.3 0.300521 -1.67018 0
M  V30 8857 H 830.072 1.0174 -3.77842 0
M  V30 8858 H 829.695 2.56454 -3.03838 0
M  V30 8859 N 830.692 1.47107 0.565454 0
M  V30 8860 C 831.941 1.5257 1.31929 0
M  V30 8861 C 832.254 0.189092 1.94684 0
M  V30 8862 O 833.46 0.121657 2.71227 0
M  V30 8863 C 831.916 2.68914 2.39193 0
M  V30 8864 C 831.524 4.09069 1.82665 0
M  V30 8865 C 833.268 2.83663 3.1581 0
M  V30 8866 C 831.175 5.16726 2.87661 0
M  V30 8867 H 830.105 0.567869 0.496025 0
M  V30 8868 H 832.756 1.73361 0.60151 0
M  V30 8869 H 831.138 2.41486 3.13848 0
M  V30 8870 H 832.312 4.46364 1.14438 0
M  V30 8871 H 830.627 3.99135 1.1866 0
M  V30 8872 H 833.224 3.61261 3.94201 0
M  V30 8873 H 833.567 1.91804 3.69482 0
M  V30 8874 H 834.1 3.10821 2.48265 0
M  V30 8875 H 830.839 6.10433 2.38854 0
M  V30 8876 H 830.359 4.83957 3.54324 0
M  V30 8877 H 832.038 5.43319 3.51303 0
M  V30 8878 N 832.17 -0.811516 1.35101 0
M  V30 8879 C 833.117 -1.92308 1.27617 0
M  V30 8880 C 834.087 -1.6543 0.149091 0
M  V30 8881 O 835.272 -1.8789 0.331974 0
M  V30 8882 C 832.412 -3.28768 1.04908 0
M  V30 8883 C 831.525 -3.67865 2.26493 0
M  V30 8884 C 830.66 -4.9333 1.96974 0
M  V30 8885 C 829.699 -5.25041 3.1464 0
M  V30 8886 N 828.836 -6.41685 2.84929 0
M  V30 8887 H 833.676 -1.98041 2.22674 0
M  V30 8888 H 831.213 -0.968755 1.10696 0
M  V30 8889 H 833.171 -4.07426 0.897749 0
M  V30 8890 H 831.801 -3.22517 0.135151 0
M  V30 8891 H 830.853 -2.84507 2.52507 0
M  V30 8892 H 832.165 -3.87263 3.14371 0
M  V30 8893 H 831.319 -5.79803 1.78643 0
M  V30 8894 H 830.058 -4.75958 1.06374 0
M  V30 8895 H 829.063 -4.3706 3.33554 0
M  V30 8896 H 830.288 -5.44346 4.06035 0
M  V30 8897 H 828.234 -6.25747 1.96918 0
M  V30 8898 H 828.151 -6.6131 3.66341 0
M  V30 8899 H 829.419 -7.31198 2.70128 0
M  V30 8900 N 833.648 -1.19017 -1.03309 0
M  V30 8901 C 834.611 -0.926076 -2.09658 0
M  V30 8902 C 835.611 0.0917077 -1.60538 0
M  V30 8903 O 836.801 -0.142574 -1.73616 0
M  V30 8904 C 833.933 -0.390958 -3.38651 0
M  V30 8905 H 835.126 -1.86923 -2.3452 0
M  V30 8906 H 832.679 -1.00325 -1.19853 0
M  V30 8907 H 833.414 0.558446 -3.19456 0
M  V30 8908 H 833.199 -1.12474 -3.75622 0
M  V30 8909 H 834.689 -0.225131 -4.16993 0
M  V30 8910 N 835.127 1.22348 -0.993418 0
M  V30 8911 C 836.355 1.95125 -0.688021 0
M  V30 8912 C 836.77 1.73377 0.747388 0
M  V30 8913 O 836.127 1.03317 1.50439 0
M  V30 8914 C 836.178 3.47819 -0.985097 0
M  V30 8915 O 835.899 3.68838 -2.3641 0
M  V30 8916 C 837.4 4.37779 -0.697474 0
M  V30 8917 H 834.62 0.62087 -0.254481 0
M  V30 8918 H 837.164 1.55485 -1.32833 0
M  V30 8919 H 835.319 3.85426 -0.390583 0
M  V30 8920 H 835.733 4.63032 -2.46377 0
M  V30 8921 H 837.207 5.43666 -0.955604 0
M  V30 8922 H 837.684 4.37651 0.368524 0
M  V30 8923 H 838.29 4.05799 -1.27306 0
M  V30 8924 N 836.605 0.766683 1.37694 0
M  V30 8925 C 837.515 0.150158 2.34119 0
M  V30 8926 C 838.531 -0.685513 1.59927 0
M  V30 8927 O 839.707 -0.606616 1.92047 0
M  V30 8928 C 836.772 -0.722562 3.39087 0
M  V30 8929 C 835.833 0.128983 4.29106 0
M  V30 8930 C 835.066 -0.702178 5.29061 0
M  V30 8931 O 835.289 -1.93954 5.36412 0
M  V30 8932 O 834.223 -0.114056 6.01792 0
M  V30 8933 H 838.049 0.946829 2.88563 0
M  V30 8934 H 835.634 0.527765 1.39768 0
M  V30 8935 H 837.516 -1.22095 4.03325 0
M  V30 8936 H 836.191 -1.49751 2.86978 0
M  V30 8937 H 835.098 0.673612 3.67985 0
M  V30 8938 H 836.431 0.866892 4.84506 0
M  V30 8939 O 838.122 -1.47474 0.658306 0
M  V30 8940 H 838.813 -1.92811 0.185369 0
M  V30 END ATOM
M  V30 BEGIN BOND
M  V30 END BOND
M  V30 END CTAB
M  END
$$$$
