drugbank_target|P52597 Heterogeneous nuclear ribonucleoprotein F (DB12695)
 OpenBabel12092121073D

  0  0  0     0  0            999 V3000
M  V30 BEGIN CTAB
M  V30 COUNTS 17203 18475 0 0 0
M  V30 BEGIN ATOM
M  V30 1 H -1.547 9.37743 -1.21644 0
M  V30 2 O -1.44 8.89599 -0.40059 0
M  V30 3 P 0 8.91 0 0
M  V30 4 O 0.22 10.1746 0.733838 0
M  V30 5 O 0.79 8.73346 -1.23964 0
M  V30 6 O 0.25 7.66872 0.971405 0
M  V30 7 C -0.69 7.42405 2.04668 0
M  V30 8 C 0.04 6.86059 3.24661 0
M  V30 9 O 0.25 5.42934 3.03695 0
M  V30 10 C 1.44 7.41287 3.50796 0
M  V30 11 O 1.83 7.27073 4.86816 0
M  V30 12 C 2.32 6.5273 2.63741 0
M  V30 13 C 1.61 5.1842 2.73198 0
M  V30 14 N 1.66 4.38762 1.4784 0
M  V30 15 H -1.178 8.36899 2.3252 0
M  V30 16 H -1.45 6.70391 1.71179 0
M  V30 17 H -0.582 7.03638 4.13219 0
M  V30 18 H 2.073 4.59931 3.54016 0
M  V30 19 H 2.353 6.88995 1.59871 0
M  V30 20 H 3.344 6.4684 3.0373 0
M  V30 21 H 1.51 8.47002 3.20749 0
M  V30 22 P 3.37998 7.20834 5.23717 0
M  V30 23 O 3.59998 7.80006 6.57415 0
M  V30 24 O 4.16998 7.79416 4.13051 0
M  V30 25 O 3.62998 5.63315 5.29344 0
M  V30 26 C 2.68998 4.80318 6.01954 0
M  V30 27 C 3.41998 3.64202 6.65911 0
M  V30 28 O 3.62998 2.60736 5.64823 0
M  V30 29 C 4.81998 3.93521 7.19518 0
M  V30 30 O 5.20998 3.02071 8.21205 0
M  V30 31 C 5.69998 3.73047 5.97036 0
M  V30 32 C 4.98998 2.58828 5.25741 0
M  V30 33 N 5.03998 2.68068 3.77503 0
M  V30 34 H 2.20198 5.40394 6.8003 0
M  V30 35 H 1.92998 4.41741 5.32532 0
M  V30 36 H 2.79798 3.26371 7.47889 0
M  V30 37 H 5.45298 1.64007 5.56746 0
M  V30 38 H 5.73298 4.63439 5.3432 0
M  V30 39 H 6.72398 3.44776 6.25925 0
M  V30 40 H 4.88998 4.96707 7.57347 0
M  V30 41 P 6.75996 2.75334 8.47391 0
M  V30 42 O 6.97996 2.44571 9.90142 0
M  V30 43 O 7.54996 3.87688 7.92115 0
M  V30 44 O 7.00996 1.4459 7.59357 0
M  V30 45 C 6.06996 0.347608 7.69215 0
M  V30 46 C 6.79996 -0.96767 7.52806 0
M  V30 47 O 7.00996 -1.21036 6.1011 0
M  V30 48 C 8.19996 -1.04544 8.13308 0
M  V30 49 O 8.58996 -2.38311 8.41922 0
M  V30 50 C 9.07996 -0.491279 7.02284 0
M  V30 51 C 8.36996 -0.996264 5.77469 0
M  V30 52 N 8.41996 -0.0501916 4.62973 0
M  V30 53 H 5.58096 0.374722 8.67691 0
M  V30 54 H 5.31096 0.443485 6.90277 0
M  V30 55 H 6.17796 -1.75537 7.96793 0
M  V30 56 P 10.1399 -2.75334 8.47391 0
M  V30 57 O 10.3599 -3.84128 9.44797 0
M  V30 58 O 10.9299 -1.51947 8.68712 0
M  V30 59 O 10.3899 -3.29363 6.99321 0
M  V30 60 C 9.44994 -4.24011 6.4274 0
M  V30 61 C 10.1799 -5.20775 5.52155 0
M  V30 62 O 10.3899 -4.56534 4.22446 0
M  V30 63 C 11.5799 -5.62629 5.96531 0
M  V30 64 O 11.9699 -6.87667 5.41053 0
M  V30 65 C 12.4599 -4.52537 5.39283 0
M  V30 66 C 11.7499 -4.20027 4.08623 0
M  V30 67 N 11.7999 -2.76189 3.71603 0
M  V30 68 C 11.7199 -1.64862 4.52822 0
M  V30 69 N 11.7999 -0.512671 3.88633 0
M  V30 70 C 11.9399 -0.888083 2.54977 0
M  V30 71 C 12.0699 -0.094668 1.38677 0
M  V30 72 O 12.0899 1.13053 1.28163 0
M  V30 73 N 12.1899 -0.890102 0.232633 0
M  V30 74 C 12.1899 -2.26958 0.21772 0
M  V30 75 N 12.3199 -2.84626 -0.97925 0
M  V30 76 N 12.0599 -3.0178 1.31033 0
M  V30 77 C 11.9399 -2.26781 2.43843 0
M  V30 78 H 8.96094 -4.797 7.24003 0
M  V30 79 H 8.69094 -3.69856 5.84513 0
M  V30 80 H 9.55794 -6.10356 5.41441 0
M  V30 81 H 12.2129 -4.79061 3.27488 0
M  V30 82 H 12.4919 -3.64906 6.05785 0
M  V30 83 H 13.4839 -4.8868 5.2125 0
M  V30 84 H 11.6499 -5.66726 7.06352 0
M  V30 85 H 11.6009 -1.71169 5.60966 0
M  V30 86 H 12.2829 -0.419134 -0.644739 0
M  V30 87 H 12.3199 -3.87332 -1.06098 0
M  V30 88 H 12.4209 -2.26417 -1.82483 0
M  V30 89 P 13.5199 -7.20834 5.23717 0
M  V30 90 O 13.7399 -8.66104 5.38572 0
M  V30 91 O 14.3099 -6.33544 6.1349 0
M  V30 92 O 13.7699 -6.7751 3.72168 0
M  V30 93 C 12.8299 -7.20825 2.7076 0
M  V30 94 C 13.5599 -7.45864 1.40599 0
M  V30 95 O 13.7699 -6.17651 0.734225 0
M  V30 96 C 14.9599 -8.05808 1.51899 0
M  V30 97 O 15.3499 -8.74358 0.335205 0
M  V30 98 C 15.8399 -6.83093 1.70294 0
M  V30 99 C 15.1299 -5.79992 0.836974 0
M  V30 100 N 15.1799 -4.41864 1.38293 0
M  V30 101 H 12.3409 -8.13644 3.0377 0
M  V30 102 H 12.0709 -6.42788 2.55485 0
M  V30 103 H 12.9379 -8.12039 0.792769 0
M  V30 104 P 16.8999 -8.91 1.09116e-15 0
M  V30 105 O 17.1199 -10.1726 -0.733694 0
M  V30 106 O 17.6899 -8.73148 1.23936 0
M  V30 107 O 17.1499 -7.66872 -0.971405 0
M  V30 108 C 16.2099 -7.42309 -2.04641 0
M  V30 109 C 16.9399 -6.86059 -3.24661 0
M  V30 110 O 17.1499 -5.42847 -3.03646 0
M  V30 111 C 18.3399 -7.41196 -3.50753 0
M  V30 112 O 18.7299 -7.27073 -4.86816 0
M  V30 113 C 19.2199 -6.5273 -2.63741 0
M  V30 114 C 18.5099 -5.1842 -2.73198 0
M  V30 115 N 18.5599 -4.38762 -1.4784 0
M  V30 116 H 15.7209 -8.36803 -2.32493 0
M  V30 117 H 15.4509 -6.70197 -1.71129 0
M  V30 118 H 16.3179 -7.03551 -4.13168 0
M  V30 119 P 20.2799 -7.20834 -5.23717 0
M  V30 120 O 20.4999 -7.79853 -6.57286 0
M  V30 121 O 21.0699 -7.79239 -4.12957 0
M  V30 122 O 20.5299 -5.63315 -5.29344 0
M  V30 123 C 19.5899 -4.80255 -6.01876 0
M  V30 124 C 20.3199 -3.64202 -6.65911 0
M  V30 125 O 20.5299 -2.60694 -5.64732 0
M  V30 126 C 21.7199 -3.93473 -7.1943 0
M  V30 127 O 22.1099 -3.02071 -8.21205 0
M  V30 128 C 22.5999 -3.73047 -5.97036 0
M  V30 129 C 21.8899 -2.58828 -5.25741 0
M  V30 130 N 21.9399 -2.68068 -3.77503 0
M  V30 131 C 21.8599 -3.79715 -2.96723 0
M  V30 132 N 21.9399 -3.5377 -1.68852 0
M  V30 133 C 22.0799 -2.15054 -1.63254 0
M  V30 134 C 22.2099 -1.28964 -0.518571 0
M  V30 135 O 22.2299 -1.56826 0.679156 0
M  V30 136 N 22.3299 0.0538097 -0.918425 0
M  V30 137 C 22.3299 0.494275 -2.22578 0
M  V30 138 N 22.4599 1.81086 -2.40434 0
M  V30 139 N 22.1999 -0.313645 -3.27502 0
M  V30 140 C 22.0799 -1.61829 -2.91033 0
M  V30 141 H 19.1009 -5.40332 -6.79951 0
M  V30 142 H 18.8309 -4.41613 -5.32378 0
M  V30 143 H 19.6979 -3.26331 -7.47797 0
M  V30 144 H 22.3529 -1.63422 -5.56814 0
M  V30 145 H 22.6319 -4.63374 -5.34244 0
M  V30 146 H 23.6239 -3.44728 -6.25838 0
M  V30 147 H 21.7899 -4.96652 -7.57263 0
M  V30 148 H 21.7409 -4.80617 -3.3614 0
M  V30 149 H 22.4229 0.742702 -0.199384 0
M  V30 150 H 22.4599 2.20598 -3.35588 0
M  V30 151 H 22.5609 2.43518 -1.58945 0
M  V30 152 P 23.6599 -2.75334 -8.47391 0
M  V30 153 O 23.8799 -2.44571 -9.90142 0
M  V30 154 O 24.4499 -3.87688 -7.92115 0
M  V30 155 O 23.9099 -1.4459 -7.59357 0
M  V30 156 C 22.9699 -0.347608 -7.69215 0
M  V30 157 C 23.6999 0.96767 -7.52806 0
M  V30 158 O 23.9099 1.21036 -6.1011 0
M  V30 159 C 25.0999 1.04544 -8.13308 0
M  V30 160 O 25.4899 2.38311 -8.41922 0
M  V30 161 C 25.9799 0.491279 -7.02284 0
M  V30 162 C 25.2699 0.996264 -5.77469 0
M  V30 163 N 25.3199 0.0501916 -4.62973 0
M  V30 164 C 25.2399 -1.32786 -4.63244 0
M  V30 165 N 25.3199 -1.86957 -3.44545 0
M  V30 166 C 25.4599 -0.780241 -2.58481 0
M  V30 167 C 25.5899 -0.738536 -1.17757 0
M  V30 168 O 25.6099 -1.66794 -0.372349 0
M  V30 169 N 25.7099 0.58337 -0.711393 0
M  V30 170 C 25.7099 1.70816 -1.51017 0
M  V30 171 N 25.8399 2.87826 -0.880757 0
M  V30 172 N 25.5799 1.67126 -2.8339 0
M  V30 173 C 25.4599 0.401421 -3.30572 0
M  V30 174 H 22.4809 -0.374722 -8.67691 0
M  V30 175 H 22.2109 -0.443485 -6.90277 0
M  V30 176 H 23.0779 1.75537 -7.96793 0
M  V30 177 H 25.7329 1.95076 -5.46529 0
M  V30 178 H 26.0119 -0.608565 -7.04577 0
M  V30 179 H 27.0039 0.889672 -7.08939 0
M  V30 180 H 25.1699 0.43308 -9.04564 0
M  V30 181 H 25.1209 -1.91249 -5.54442 0
M  V30 182 H 25.8029 0.718054 0.275244 0
M  V30 183 H 25.8399 3.75721 -1.41832 0
M  V30 184 H 25.9409 2.90436 0.145468 0
M  V30 185 P 27.0398 2.75334 -8.47391 0
M  V30 186 O 27.2598 3.84128 -9.44797 0
M  V30 187 O 27.8298 1.51947 -8.68712 0
M  V30 188 O 27.2898 3.29363 -6.99321 0
M  V30 189 C 26.3498 4.24011 -6.4274 0
M  V30 190 C 27.0798 5.20775 -5.52155 0
M  V30 191 O 27.2898 4.56534 -4.22446 0
M  V30 192 C 28.4798 5.62629 -5.96531 0
M  V30 193 O 28.8698 6.87667 -5.41053 0
M  V30 194 C 29.3598 4.52537 -5.39283 0
M  V30 195 C 28.6498 4.20027 -4.08623 0
M  V30 196 N 28.6998 2.76189 -3.71603 0
M  V30 197 H 25.8608 4.797 -7.24003 0
M  V30 198 H 25.5908 3.69856 -5.84513 0
M  V30 199 H 26.4578 6.10356 -5.41441 0
M  V30 200 P 30.4198 7.20834 -5.23717 0
M  V30 201 O 30.6398 8.66104 -5.38572 0
M  V30 202 O 31.2098 6.33544 -6.1349 0
M  V30 203 O 30.6698 6.7751 -3.72168 0
M  V30 204 C 29.7298 7.20825 -2.7076 0
M  V30 205 C 30.4598 7.45864 -1.40599 0
M  V30 206 O 30.6698 6.17651 -0.734225 0
M  V30 207 C 31.8598 8.05808 -1.51899 0
M  V30 208 O 32.2498 8.74358 -0.335205 0
M  V30 209 C 32.7398 6.83093 -1.70294 0
M  V30 210 C 32.0298 5.79992 -0.836974 0
M  V30 211 N 32.0798 4.41864 -1.38293 0
M  V30 212 C 31.9998 3.99538 -2.69438 0
M  V30 213 N 32.0798 2.69909 -2.84277 0
M  V30 214 C 32.2198 2.21719 -1.5408 0
M  V30 215 C 32.3498 0.891712 -1.06628 0
M  V30 216 O 32.3698 -0.161298 -1.70137 0
M  V30 217 N 32.4698 0.856846 0.334985 0
M  V30 218 C 32.4698 1.9641 1.15789 0
M  V30 219 N 32.5998 1.72708 2.46522 0
M  V30 220 N 32.3398 3.21165 0.713741 0
M  V30 221 C 32.2198 3.26797 -0.639748 0
M  V30 222 H 29.2408 8.13644 -3.0377 0
M  V30 223 H 28.9708 6.42788 -2.55485 0
M  V30 224 H 29.8378 8.12039 -0.792769 0
M  V30 225 H 32.4928 5.80061 0.166416 0
M  V30 226 H 32.7718 6.51287 -2.75604 0
M  V30 227 H 33.7638 7.01734 -1.34462 0
M  V30 228 H 31.9298 8.73674 -2.38337 0
M  V30 229 H 31.8808 4.68207 -3.53221 0
M  V30 230 H 32.5628 -0.0398818 0.767965 0
M  V30 231 H 32.5998 2.50995 3.13503 0
M  V30 232 H 32.7008 0.759148 2.80716 0
M  V30 233 P 33.7998 8.91 -2.18232e-15 0
M  V30 234 O 34.0198 10.1726 0.733694 0
M  V30 235 O 34.5898 8.73148 -1.23936 0
M  V30 236 O 34.0498 7.66872 0.971405 0
M  V30 237 C 33.1098 7.42309 2.04641 0
M  V30 238 C 33.8398 6.86059 3.24661 0
M  V30 239 O 34.0498 5.42847 3.03646 0
M  V30 240 C 35.2398 7.41196 3.50753 0
M  V30 241 O 35.6298 7.27073 4.86816 0
M  V30 242 C 36.1198 6.5273 2.63741 0
M  V30 243 C 35.4098 5.1842 2.73198 0
M  V30 244 N 35.4598 4.38762 1.4784 0
M  V30 245 H 32.6208 8.36803 2.32493 0
M  V30 246 H 32.3508 6.70197 1.71129 0
M  V30 247 H 33.2178 7.03551 4.13168 0
M  V30 248 P 37.1798 7.20834 5.23717 0
M  V30 249 O 37.3998 7.79853 6.57286 0
M  V30 250 O 37.9698 7.79239 4.12957 0
M  V30 251 O 37.4298 5.63315 5.29344 0
M  V30 252 C 36.4898 4.80255 6.01876 0
M  V30 253 C 37.2198 3.64202 6.65911 0
M  V30 254 O 37.4298 2.60694 5.64732 0
M  V30 255 C 38.6198 3.93473 7.1943 0
M  V30 256 O 39.0098 3.02071 8.21205 0
M  V30 257 C 39.4998 3.73047 5.97036 0
M  V30 258 C 38.7898 2.58828 5.25741 0
M  V30 259 N 38.8398 2.68068 3.77503 0
M  V30 260 H 36.0008 5.40332 6.79951 0
M  V30 261 H 35.7308 4.41613 5.32378 0
M  V30 262 H 36.5978 3.26331 7.47797 0
M  V30 263 P 40.5598 2.75334 8.47391 0
M  V30 264 O 40.7798 2.44571 9.90142 0
M  V30 265 O 41.3498 3.87688 7.92115 0
M  V30 266 O 40.8098 1.4459 7.59357 0
M  V30 267 C 39.8698 0.347608 7.69215 0
M  V30 268 C 40.5998 -0.96767 7.52806 0
M  V30 269 O 40.8098 -1.21036 6.1011 0
M  V30 270 C 41.9998 -1.04544 8.13308 0
M  V30 271 O 42.3898 -2.38311 8.41922 0
M  V30 272 C 42.8798 -0.491279 7.02284 0
M  V30 273 C 42.1698 -0.996264 5.77469 0
M  V30 274 N 42.2198 -0.0501916 4.62973 0
M  V30 275 H 39.3808 0.374722 8.67691 0
M  V30 276 H 39.1108 0.443485 6.90277 0
M  V30 277 H 39.9778 -1.75537 7.96793 0
M  V30 278 P 43.9397 -2.75334 8.47391 0
M  V30 279 O 44.1597 -3.84128 9.44797 0
M  V30 280 O 44.7297 -1.51947 8.68712 0
M  V30 281 O 44.1897 -3.29363 6.99321 0
M  V30 282 C 43.2497 -4.24011 6.4274 0
M  V30 283 C 43.9797 -5.20775 5.52155 0
M  V30 284 O 44.1897 -4.56534 4.22446 0
M  V30 285 C 45.3797 -5.62629 5.96531 0
M  V30 286 O 45.7697 -6.87667 5.41053 0
M  V30 287 C 46.2597 -4.52537 5.39283 0
M  V30 288 C 45.5497 -4.20027 4.08623 0
M  V30 289 N 45.5997 -2.76189 3.71603 0
M  V30 290 H 42.7607 -4.797 7.24003 0
M  V30 291 H 42.4907 -3.69856 5.84513 0
M  V30 292 H 43.3577 -6.10356 5.41441 0
M  V30 293 P 47.3197 -7.20834 5.23717 0
M  V30 294 O 47.5397 -8.66104 5.38572 0
M  V30 295 O 48.1097 -6.33544 6.1349 0
M  V30 296 O 47.5697 -6.7751 3.72168 0
M  V30 297 C 46.6297 -7.20825 2.7076 0
M  V30 298 C 47.3597 -7.45864 1.40599 0
M  V30 299 O 47.5697 -6.17651 0.734225 0
M  V30 300 C 48.7597 -8.05808 1.51899 0
M  V30 301 O 49.1497 -8.74358 0.335205 0
M  V30 302 C 49.6397 -6.83093 1.70294 0
M  V30 303 C 48.9297 -5.79992 0.836974 0
M  V30 304 N 48.9797 -4.41864 1.38293 0
M  V30 305 H 46.1407 -8.13644 3.0377 0
M  V30 306 H 45.8707 -6.42788 2.55485 0
M  V30 307 H 46.7377 -8.12039 0.792769 0
M  V30 308 P 50.6997 -8.91 3.27348e-15 0
M  V30 309 O 50.9197 -10.1726 -0.733694 0
M  V30 310 O 51.4897 -8.73148 1.23936 0
M  V30 311 O 50.9497 -7.66872 -0.971405 0
M  V30 312 C 50.0097 -7.42309 -2.04641 0
M  V30 313 C 50.7397 -6.86059 -3.24661 0
M  V30 314 O 50.9497 -5.42847 -3.03646 0
M  V30 315 C 52.1397 -7.41196 -3.50753 0
M  V30 316 O 52.5297 -7.27073 -4.86816 0
M  V30 317 C 53.0197 -6.5273 -2.63741 0
M  V30 318 C 52.3097 -5.1842 -2.73198 0
M  V30 319 N 52.3597 -4.38762 -1.4784 0
M  V30 320 C 52.2797 -4.81605 -0.168631 0
M  V30 321 N 52.3597 -3.85454 0.713363 0
M  V30 322 C 52.4997 -2.6994 -0.0566958 0
M  V30 323 C 52.6297 -1.34815 0.338502 0
M  V30 324 N 52.7497 -0.496304 -0.77465 0
M  V30 325 C 52.7497 -0.908403 -2.09122 0
M  V30 326 N 52.8797 0.0517805 -3.00955 0
M  V30 327 N 52.6197 -2.17875 -2.46519 0
M  V30 328 C 52.4997 -3.01988 -1.4033 0
M  V30 329 H 49.5207 -8.36803 -2.32493 0
M  V30 330 H 49.2507 -6.70197 -1.71129 0
M  V30 331 H 50.1177 -7.03551 -4.13168 0
M  V30 332 P 54.0797 -7.20834 -5.23717 0
M  V30 333 O 54.2997 -7.79853 -6.57286 0
M  V30 334 O 54.8697 -7.79239 -4.12957 0
M  V30 335 O 54.3297 -5.63315 -5.29344 0
M  V30 336 C 53.3897 -4.80255 -6.01876 0
M  V30 337 C 54.1197 -3.64202 -6.65911 0
M  V30 338 O 54.3297 -2.60694 -5.64732 0
M  V30 339 C 55.5197 -3.93473 -7.1943 0
M  V30 340 O 55.9097 -3.02071 -8.21205 0
M  V30 341 C 56.3997 -3.73047 -5.97036 0
M  V30 342 C 55.6897 -2.58828 -5.25741 0
M  V30 343 N 55.7397 -2.68068 -3.77503 0
M  V30 344 C 55.6597 -3.79715 -2.96723 0
M  V30 345 N 55.7397 -3.5377 -1.68852 0
M  V30 346 C 55.8797 -2.15054 -1.63254 0
M  V30 347 C 56.0097 -1.28964 -0.518571 0
M  V30 348 O 56.0297 -1.56826 0.679156 0
M  V30 349 N 56.1297 0.0538097 -0.918425 0
M  V30 350 C 56.1297 0.494275 -2.22578 0
M  V30 351 N 56.2597 1.81086 -2.40434 0
M  V30 352 N 55.9997 -0.313645 -3.27502 0
M  V30 353 C 55.8797 -1.61829 -2.91033 0
M  V30 354 H 52.9007 -5.40332 -6.79951 0
M  V30 355 H 52.6307 -4.41613 -5.32378 0
M  V30 356 H 53.4977 -3.26331 -7.47797 0
M  V30 357 H 56.1527 -1.63422 -5.56814 0
M  V30 358 H 56.4317 -4.63374 -5.34244 0
M  V30 359 H 57.4237 -3.44728 -6.25838 0
M  V30 360 H 55.5897 -4.96652 -7.57263 0
M  V30 361 H 55.5407 -4.80617 -3.3614 0
M  V30 362 H 56.2227 0.742702 -0.199384 0
M  V30 363 H 56.2597 2.20598 -3.35588 0
M  V30 364 H 56.3607 2.43518 -1.58945 0
M  V30 365 P 57.4597 -2.75334 -8.47391 0
M  V30 366 O 57.6797 -2.44571 -9.90142 0
M  V30 367 O 58.2497 -3.87688 -7.92115 0
M  V30 368 O 57.7097 -1.4459 -7.59357 0
M  V30 369 C 56.7697 -0.347608 -7.69215 0
M  V30 370 C 57.4997 0.96767 -7.52806 0
M  V30 371 O 57.7097 1.21036 -6.1011 0
M  V30 372 C 58.8997 1.04544 -8.13308 0
M  V30 373 O 59.2897 2.38311 -8.41922 0
M  V30 374 C 59.7797 0.491279 -7.02284 0
M  V30 375 C 59.0697 0.996264 -5.77469 0
M  V30 376 N 59.1197 0.0501916 -4.62973 0
M  V30 377 H 56.2807 -0.374722 -8.67691 0
M  V30 378 H 56.0107 -0.443485 -6.90277 0
M  V30 379 H 56.8777 1.75537 -7.96793 0
M  V30 380 P 60.8396 2.75334 -8.47391 0
M  V30 381 O 61.0596 3.84128 -9.44797 0
M  V30 382 O 61.6296 1.51947 -8.68712 0
M  V30 383 O 61.0896 3.29363 -6.99321 0
M  V30 384 C 60.1496 4.24011 -6.4274 0
M  V30 385 C 60.8796 5.20775 -5.52155 0
M  V30 386 O 61.0896 4.56534 -4.22446 0
M  V30 387 C 62.2796 5.62629 -5.96531 0
M  V30 388 O 62.6696 6.87667 -5.41053 0
M  V30 389 C 63.1596 4.52537 -5.39283 0
M  V30 390 C 62.4496 4.20027 -4.08623 0
M  V30 391 N 62.4996 2.76189 -3.71603 0
M  V30 392 H 59.6606 4.797 -7.24003 0
M  V30 393 H 59.3906 3.69856 -5.84513 0
M  V30 394 H 60.2576 6.10356 -5.41441 0
M  V30 395 P 64.2196 7.20834 -5.23717 0
M  V30 396 O 64.4396 8.66274 -5.38678 0
M  V30 397 O 65.0096 6.33687 -6.13629 0
M  V30 398 O 64.4696 6.7751 -3.72168 0
M  V30 399 C 63.5296 7.20919 -2.70795 0
M  V30 400 C 64.2596 7.45864 -1.40599 0
M  V30 401 O 64.4696 6.17751 -0.734343 0
M  V30 402 C 65.6596 8.05906 -1.51917 0
M  V30 403 O 66.0496 8.74358 -0.335205 0
M  V30 404 C 66.5396 6.83093 -1.70294 0
M  V30 405 C 65.8296 5.79992 -0.836974 0
M  V30 406 N 65.8796 4.41864 -1.38293 0
M  V30 407 H 63.0416 8.13738 -3.03804 0
M  V30 408 H 62.7696 6.42974 -2.55559 0
M  V30 409 H 63.6376 8.12139 -0.792866 0
M  V30 410 H 66.2926 5.80178 0.160643 0
M  V30 411 H 66.5726 6.51379 -2.75643 0
M  V30 412 H 67.5636 7.01832 -1.3448 0
M  V30 413 H 65.7296 8.73771 -2.38364 0
M  V30 414 P 67.5996 8.91 -4.36464e-15 0
M  V30 415 O 67.8196 10.1726 0.733694 0
M  V30 416 O 68.3896 8.73148 -1.23936 0
M  V30 417 O 67.8496 7.66872 0.971405 0
M  V30 418 C 66.9096 7.42309 2.04641 0
M  V30 419 C 67.6396 6.86059 3.24661 0
M  V30 420 O 67.8496 5.42847 3.03646 0
M  V30 421 C 69.0396 7.41196 3.50753 0
M  V30 422 O 69.4296 7.27073 4.86816 0
M  V30 423 C 69.9196 6.5273 2.63741 0
M  V30 424 C 69.2096 5.1842 2.73198 0
M  V30 425 N 69.2596 4.38762 1.4784 0
M  V30 426 H 66.4206 8.36803 2.32493 0
M  V30 427 H 66.1506 6.70197 1.71129 0
M  V30 428 H 67.0176 7.03551 4.13168 0
M  V30 429 P 70.9796 7.20834 5.23717 0
M  V30 430 O 71.1996 7.7993 6.57351 0
M  V30 431 O 71.7696 7.79328 4.13004 0
M  V30 432 O 71.2296 5.63315 5.29344 0
M  V30 433 C 70.2896 4.80255 6.01876 0
M  V30 434 C 71.0196 3.64202 6.65911 0
M  V30 435 O 71.2296 2.60694 5.64732 0
M  V30 436 C 72.4196 3.93473 7.1943 0
M  V30 437 O 72.8096 3.02071 8.21205 0
M  V30 438 C 73.2996 3.73047 5.97036 0
M  V30 439 C 72.5896 2.58828 5.25741 0
M  V30 440 N 72.6396 2.6801 3.77422 0
M  V30 441 C 72.7896 1.50173 3.05038 0
M  V30 442 O 72.8796 0.428832 3.665 0
M  V30 443 N 72.8396 1.70922 1.55541 0
M  V30 444 C 72.7396 2.7407 1.06402 0
M  V30 445 N 72.7896 2.74764 -0.260931 0
M  V30 446 C 72.5896 3.96781 1.78296 0
M  V30 447 C 72.5396 3.87909 3.13891 0
M  V30 448 H 69.7996 5.4027 6.79873 0
M  V30 449 H 69.5306 4.41549 5.32301 0
M  V30 450 H 70.3976 3.26371 7.47889 0
M  V30 451 H 73.0526 1.63978 5.5665 0
M  V30 452 H 73.3316 4.63439 5.3432 0
M  V30 453 H 74.3236 3.44728 6.25838 0
M  V30 454 H 72.4896 4.96652 7.57263 0
M  V30 455 H 72.4176 4.78425 3.73088 0
M  V30 456 H 72.5196 4.92593 1.26997 0
M  V30 457 H 72.9076 1.86285 -0.77595 0
M  V30 458 H 72.7106 3.63657 -0.773896 0
M  V30 459 P 74.3596 2.75334 8.47391 0
M  V30 460 O 74.5796 2.44571 9.90142 0
M  V30 461 O 75.1496 3.87688 7.92115 0
M  V30 462 O 74.6096 1.4459 7.59357 0
M  V30 463 C 73.6696 0.347608 7.69215 0
M  V30 464 C 74.3996 -0.96767 7.52806 0
M  V30 465 O 74.6096 -1.21036 6.1011 0
M  V30 466 C 75.7996 -1.04544 8.13308 0
M  V30 467 O 76.1896 -2.38311 8.41922 0
M  V30 468 C 76.6796 -0.491279 7.02284 0
M  V30 469 C 75.9696 -0.996264 5.77469 0
M  V30 470 N 76.0196 -0.0501916 4.62973 0
M  V30 471 H 73.1806 0.374722 8.67691 0
M  V30 472 H 72.9106 0.443485 6.90277 0
M  V30 473 H 73.7776 -1.75537 7.96793 0
M  V30 474 P 77.7395 -2.75334 8.47391 0
M  V30 475 O 77.9595 -3.84128 9.44797 0
M  V30 476 O 78.5295 -1.51947 8.68712 0
M  V30 477 O 77.9895 -3.29363 6.99321 0
M  V30 478 C 77.0495 -4.24011 6.4274 0
M  V30 479 C 77.7795 -5.20775 5.52155 0
M  V30 480 O 77.9895 -4.56534 4.22446 0
M  V30 481 C 79.1795 -5.62629 5.96531 0
M  V30 482 O 79.5695 -6.87667 5.41053 0
M  V30 483 C 80.0595 -4.52537 5.39283 0
M  V30 484 C 79.3495 -4.20027 4.08623 0
M  V30 485 N 79.3995 -2.76189 3.71603 0
M  V30 486 H 76.5605 -4.797 7.24003 0
M  V30 487 H 76.2905 -3.69856 5.84513 0
M  V30 488 H 77.1575 -6.10356 5.41441 0
M  V30 489 P 81.1195 -7.20834 5.23717 0
M  V30 490 O 81.3395 -8.66104 5.38572 0
M  V30 491 O 81.9095 -6.33544 6.1349 0
M  V30 492 O 81.3695 -6.7751 3.72168 0
M  V30 493 C 80.4295 -7.20825 2.7076 0
M  V30 494 C 81.1595 -7.45864 1.40599 0
M  V30 495 O 81.3695 -6.17651 0.734225 0
M  V30 496 C 82.5595 -8.05808 1.51899 0
M  V30 497 O 82.9495 -8.74358 0.335205 0
M  V30 498 C 83.4395 -6.83093 1.70294 0
M  V30 499 C 82.7295 -5.79992 0.836974 0
M  V30 500 N 82.7795 -4.41864 1.38293 0
M  V30 501 H 79.9405 -8.13644 3.0377 0
M  V30 502 H 79.6705 -6.42788 2.55485 0
M  V30 503 H 80.5375 -8.12039 0.792769 0
M  V30 504 P 84.4995 -8.91 5.4558e-15 0
M  V30 505 O 84.7195 -10.1726 -0.733694 0
M  V30 506 O 85.2895 -8.73148 1.23936 0
M  V30 507 O 84.7495 -7.66872 -0.971405 0
M  V30 508 C 83.8095 -7.42309 -2.04641 0
M  V30 509 C 84.5395 -6.86059 -3.24661 0
M  V30 510 O 84.7495 -5.42847 -3.03646 0
M  V30 511 C 85.9395 -7.41196 -3.50753 0
M  V30 512 O 86.3295 -7.27073 -4.86816 0
M  V30 513 C 86.8195 -6.5273 -2.63741 0
M  V30 514 C 86.1095 -5.1842 -2.73198 0
M  V30 515 N 86.1595 -4.38762 -1.4784 0
M  V30 516 H 83.3205 -8.36803 -2.32493 0
M  V30 517 H 83.0505 -6.70197 -1.71129 0
M  V30 518 H 83.9175 -7.03551 -4.13168 0
M  V30 519 P 87.8795 -7.20834 -5.23717 0
M  V30 520 O 88.0995 -7.79853 -6.57286 0
M  V30 521 O 88.6695 -7.79239 -4.12957 0
M  V30 522 O 88.1295 -5.63315 -5.29344 0
M  V30 523 C 87.1895 -4.80255 -6.01876 0
M  V30 524 C 87.9195 -3.64202 -6.65911 0
M  V30 525 O 88.1295 -2.60694 -5.64732 0
M  V30 526 C 89.3195 -3.93473 -7.1943 0
M  V30 527 O 89.7095 -3.02071 -8.21205 0
M  V30 528 C 90.1995 -3.73047 -5.97036 0
M  V30 529 C 89.4895 -2.58828 -5.25741 0
M  V30 530 N 89.5395 -2.68068 -3.77503 0
M  V30 531 H 86.7005 -5.40332 -6.79951 0
M  V30 532 H 86.4305 -4.41613 -5.32378 0
M  V30 533 H 87.2975 -3.26331 -7.47797 0
M  V30 534 P 91.2595 -2.75334 -8.47391 0
M  V30 535 O 91.4795 -2.44571 -9.90142 0
M  V30 536 O 92.0495 -3.87688 -7.92115 0
M  V30 537 O 91.5095 -1.4459 -7.59357 0
M  V30 538 C 90.5695 -0.347608 -7.69215 0
M  V30 539 C 91.2995 0.96767 -7.52806 0
M  V30 540 O 91.5095 1.21036 -6.1011 0
M  V30 541 C 92.6995 1.04544 -8.13308 0
M  V30 542 O 93.0895 2.38311 -8.41922 0
M  V30 543 C 93.5795 0.491279 -7.02284 0
M  V30 544 C 92.8695 0.996264 -5.77469 0
M  V30 545 N 92.9195 0.0501916 -4.62973 0
M  V30 546 H 90.0805 -0.374722 -8.67691 0
M  V30 547 H 89.8105 -0.443485 -6.90277 0
M  V30 548 H 90.6775 1.75537 -7.96793 0
M  V30 549 P 94.6394 2.75334 -8.47391 0
M  V30 550 O 94.8594 3.84128 -9.44797 0
M  V30 551 O 95.4294 1.51947 -8.68712 0
M  V30 552 O 94.8894 3.29363 -6.99321 0
M  V30 553 C 93.9494 4.24011 -6.4274 0
M  V30 554 C 94.6794 5.20775 -5.52155 0
M  V30 555 O 94.8894 4.56534 -4.22446 0
M  V30 556 C 96.0794 5.62629 -5.96531 0
M  V30 557 O 96.4694 6.87667 -5.41053 0
M  V30 558 C 96.9594 4.52537 -5.39283 0
M  V30 559 C 96.2494 4.20027 -4.08623 0
M  V30 560 N 96.2994 2.76189 -3.71603 0
M  V30 561 H 93.4604 4.797 -7.24003 0
M  V30 562 H 93.1904 3.69856 -5.84513 0
M  V30 563 H 94.0574 6.10356 -5.41441 0
M  V30 564 P 98.0194 7.20834 -5.23717 0
M  V30 565 O 98.2394 8.66104 -5.38572 0
M  V30 566 O 98.8094 6.33544 -6.1349 0
M  V30 567 O 98.2694 6.7751 -3.72168 0
M  V30 568 C 97.3294 7.20825 -2.7076 0
M  V30 569 C 98.0594 7.45864 -1.40599 0
M  V30 570 O 98.2694 6.17651 -0.734225 0
M  V30 571 C 99.4594 8.05808 -1.51899 0
M  V30 572 O 99.8494 8.74358 -0.335205 0
M  V30 573 C 100.339 6.83093 -1.70294 0
M  V30 574 C 99.6294 5.79992 -0.836974 0
M  V30 575 N 99.6794 4.41864 -1.38293 0
M  V30 576 H 96.8404 8.13644 -3.0377 0
M  V30 577 H 96.5704 6.42788 -2.55485 0
M  V30 578 H 97.4374 8.12039 -0.792769 0
M  V30 579 P 101.399 8.91 -6.54696e-15 0
M  V30 580 O 101.619 10.1726 0.733694 0
M  V30 581 O 102.189 8.73148 -1.23936 0
M  V30 582 O 101.649 7.66872 0.971405 0
M  V30 583 C 100.709 7.42309 2.04641 0
M  V30 584 C 101.439 6.86059 3.24661 0
M  V30 585 O 101.649 5.42847 3.03646 0
M  V30 586 C 102.839 7.41196 3.50753 0
M  V30 587 O 103.229 7.27073 4.86816 0
M  V30 588 C 103.719 6.5273 2.63741 0
M  V30 589 C 103.009 5.1842 2.73198 0
M  V30 590 N 103.059 4.38762 1.4784 0
M  V30 591 H 100.22 8.36803 2.32493 0
M  V30 592 H 99.9504 6.70197 1.71129 0
M  V30 593 H 100.817 7.03551 4.13168 0
M  V30 594 P 104.779 7.20834 5.23717 0
M  V30 595 O 104.999 7.79853 6.57286 0
M  V30 596 O 105.569 7.79239 4.12957 0
M  V30 597 O 105.029 5.63315 5.29344 0
M  V30 598 C 104.089 4.80255 6.01876 0
M  V30 599 C 104.819 3.64202 6.65911 0
M  V30 600 O 105.029 2.60694 5.64732 0
M  V30 601 C 106.219 3.93473 7.1943 0
M  V30 602 O 106.609 3.02071 8.21205 0
M  V30 603 C 107.099 3.73047 5.97036 0
M  V30 604 C 106.389 2.58828 5.25741 0
M  V30 605 N 106.439 2.68068 3.77503 0
M  V30 606 H 103.6 5.40332 6.79951 0
M  V30 607 H 103.33 4.41613 5.32378 0
M  V30 608 H 104.197 3.26331 7.47797 0
M  V30 609 P 108.159 2.75334 8.47391 0
M  V30 610 O 108.379 2.44571 9.90142 0
M  V30 611 O 108.949 3.87688 7.92115 0
M  V30 612 O 108.409 1.4459 7.59357 0
M  V30 613 C 107.469 0.347608 7.69215 0
M  V30 614 C 108.199 -0.96767 7.52806 0
M  V30 615 O 108.409 -1.21036 6.1011 0
M  V30 616 C 109.599 -1.04544 8.13308 0
M  V30 617 O 109.989 -2.38311 8.41922 0
M  V30 618 C 110.479 -0.491279 7.02284 0
M  V30 619 C 109.769 -0.996264 5.77469 0
M  V30 620 N 109.819 -0.0501916 4.62973 0
M  V30 621 H 106.98 0.374722 8.67691 0
M  V30 622 H 106.71 0.443485 6.90277 0
M  V30 623 H 107.577 -1.75537 7.96793 0
M  V30 624 P 111.539 -2.75334 8.47391 0
M  V30 625 O 111.759 -3.84166 9.4489 0
M  V30 626 O 112.329 -1.51964 8.6881 0
M  V30 627 O 111.789 -3.29363 6.99321 0
M  V30 628 C 110.849 -4.24011 6.4274 0
M  V30 629 C 111.579 -5.20775 5.52155 0
M  V30 630 O 111.789 -4.56534 4.22446 0
M  V30 631 C 112.979 -5.62629 5.96531 0
M  V30 632 O 113.369 -6.87667 5.41053 0
M  V30 633 C 113.859 -4.52537 5.39283 0
M  V30 634 C 113.149 -4.20027 4.08623 0
M  V30 635 N 113.199 -2.7613 3.71522 0
M  V30 636 C 113.349 -2.43702 2.37085 0
M  V30 637 O 113.439 -3.3531 1.54039 0
M  V30 638 N 113.399 -0.951103 2.10621 0
M  V30 639 C 113.299 -0.165021 2.93537 0
M  V30 640 N 113.349 1.09723 2.53253 0
M  V30 641 C 113.149 -0.469576 4.32458 0
M  V30 642 C 113.099 -1.78658 4.65921 0
M  V30 643 H 110.359 -4.79645 7.23919 0
M  V30 644 H 110.09 -3.69802 5.84429 0
M  V30 645 H 110.957 -6.10431 5.41508 0
M  V30 646 H 113.612 -4.78733 3.27967 0
M  V30 647 H 113.891 -3.64957 6.05871 0
M  V30 648 H 114.883 -4.8868 5.2125 0
M  V30 649 H 113.049 -5.66726 7.06352 0
M  V30 650 H 112.977 -2.06987 5.70299 0
M  V30 651 H 113.079 0.314383 5.07728 0
M  V30 652 H 113.467 1.31363 1.5319 0
M  V30 653 H 113.27 1.85978 3.21943 0
M  V30 654 P 114.919 -7.20834 5.23717 0
M  V30 655 O 115.139 -8.66189 5.38625 0
M  V30 656 O 115.709 -6.33615 6.1356 0
M  V30 657 O 115.169 -6.7751 3.72168 0
M  V30 658 C 114.229 -7.20732 2.70725 0
M  V30 659 C 114.959 -7.45864 1.40599 0
M  V30 660 O 115.169 -6.17651 0.734225 0
M  V30 661 C 116.359 -8.05808 1.51899 0
M  V30 662 O 116.749 -8.74358 0.335205 0
M  V30 663 C 117.239 -6.83093 1.70294 0
M  V30 664 C 116.529 -5.79992 0.836974 0
M  V30 665 N 116.579 -4.41769 1.38263 0
M  V30 666 C 116.729 -3.38591 0.481702 0
M  V30 667 O 116.819 -3.56839 -0.718452 0
M  V30 668 N 116.769 -2.1206 1.03569 0
M  V30 669 C 116.679 -1.80696 2.36966 0
M  V30 670 O 116.729 -0.630473 2.74862 0
M  V30 671 C 116.529 -2.94845 3.23898 0
M  V30 672 C 116.419 -2.65253 4.70362 0
M  V30 673 C 116.479 -4.19803 2.73435 0
M  V30 674 H 113.739 -8.13644 3.0377 0
M  V30 675 H 113.47 -6.42695 2.55448 0
M  V30 676 H 114.337 -8.12039 0.792769 0
M  V30 677 H 116.992 -5.79978 -0.160587 0
M  V30 678 H 117.271 -6.51379 2.75643 0
M  V30 679 H 118.263 -7.01734 1.34462 0
M  V30 680 H 116.429 -8.73674 2.38337 0
M  V30 681 H 116.358 -5.04492 3.4095 0
M  V30 682 H 117.388 -2.83924 5.1913 0
M  V30 683 H 115.651 -3.29824 5.15163 0
M  V30 684 H 116.139 -1.59723 4.84449 0
M  V30 685 H 116.875 -1.35644 0.399345 0
M  V30 686 P 118.299 -8.91 7.63812e-15 0
M  V30 687 O 118.519 -10.1726 -0.733694 0
M  V30 688 O 119.089 -8.73148 1.23936 0
M  V30 689 O 118.549 -7.66872 -0.971405 0
M  V30 690 C 117.609 -7.42309 -2.04641 0
M  V30 691 C 118.339 -6.86059 -3.24661 0
M  V30 692 O 118.549 -5.42847 -3.03646 0
M  V30 693 C 119.739 -7.41196 -3.50753 0
M  V30 694 O 120.129 -7.27073 -4.86816 0
M  V30 695 C 120.619 -6.5273 -2.63741 0
M  V30 696 C 119.909 -5.1842 -2.73198 0
M  V30 697 N 119.959 -4.38762 -1.4784 0
M  V30 698 H 117.12 -8.36803 -2.32493 0
M  V30 699 H 116.85 -6.70197 -1.71129 0
M  V30 700 H 117.717 -7.03551 -4.13168 0
M  V30 701 P 121.679 -7.20834 -5.23717 0
M  V30 702 O 121.899 -7.80006 -6.57415 0
M  V30 703 O 122.469 -7.79416 -4.13051 0
M  V30 704 O 121.929 -5.63315 -5.29344 0
M  V30 705 C 120.989 -4.80318 -6.01954 0
M  V30 706 C 121.719 -3.64202 -6.65911 0
M  V30 707 O 121.929 -2.60736 -5.64823 0
M  V30 708 C 123.119 -3.93521 -7.19518 0
M  V30 709 O 123.509 -3.02071 -8.21205 0
M  V30 710 C 123.999 -3.73047 -5.97036 0
M  V30 711 C 123.289 -2.58828 -5.25741 0
M  V30 712 N 123.339 -2.68068 -3.77503 0
M  V30 713 H 120.501 -5.40394 -6.8003 0
M  V30 714 H 120.229 -4.41741 -5.32532 0
M  V30 715 H 121.097 -3.26371 -7.47889 0
M  V30 716 H 123.752 -1.64007 -5.56746 0
M  V30 717 H 124.032 -4.63439 -5.3432 0
M  V30 718 H 125.023 -3.44776 -6.25925 0
M  V30 719 H 123.189 -4.96707 -7.57347 0
M  V30 720 P 125.059 -2.75334 -8.47391 0
M  V30 721 O 125.279 -2.44571 -9.90142 0
M  V30 722 O 125.849 -3.87688 -7.92115 0
M  V30 723 O 125.309 -1.4459 -7.59357 0
M  V30 724 C 124.369 -0.347608 -7.69215 0
M  V30 725 C 125.099 0.96767 -7.52806 0
M  V30 726 O 125.309 1.21036 -6.1011 0
M  V30 727 C 126.499 1.04544 -8.13308 0
M  V30 728 O 126.889 2.38311 -8.41922 0
M  V30 729 C 127.379 0.491279 -7.02284 0
M  V30 730 C 126.669 0.996264 -5.77469 0
M  V30 731 N 126.719 0.0501916 -4.62973 0
M  V30 732 H 123.88 -0.374722 -8.67691 0
M  V30 733 H 123.61 -0.443485 -6.90277 0
M  V30 734 H 124.477 1.75537 -7.96793 0
M  V30 735 P 128.439 2.75334 -8.47391 0
M  V30 736 O 128.659 3.84128 -9.44797 0
M  V30 737 O 129.229 1.51947 -8.68712 0
M  V30 738 O 128.689 3.29363 -6.99321 0
M  V30 739 C 127.749 4.24011 -6.4274 0
M  V30 740 C 128.479 5.20775 -5.52155 0
M  V30 741 O 128.689 4.56534 -4.22446 0
M  V30 742 C 129.879 5.62629 -5.96531 0
M  V30 743 O 130.269 6.87667 -5.41053 0
M  V30 744 C 130.759 4.52537 -5.39283 0
M  V30 745 C 130.049 4.20027 -4.08623 0
M  V30 746 N 130.099 2.76189 -3.71603 0
M  V30 747 C 130.019 1.64862 -4.52822 0
M  V30 748 N 130.099 0.512671 -3.88633 0
M  V30 749 C 130.239 0.888083 -2.54977 0
M  V30 750 C 130.369 0.094668 -1.38677 0
M  V30 751 O 130.389 -1.13053 -1.28163 0
M  V30 752 N 130.489 0.890102 -0.232633 0
M  V30 753 C 130.489 2.26958 -0.21772 0
M  V30 754 N 130.619 2.84626 0.97925 0
M  V30 755 N 130.359 3.0178 -1.31033 0
M  V30 756 C 130.239 2.26781 -2.43843 0
M  V30 757 H 127.26 4.797 -7.24003 0
M  V30 758 H 126.99 3.69856 -5.84513 0
M  V30 759 H 127.857 6.10356 -5.41441 0
M  V30 760 H 130.512 4.79061 -3.27488 0
M  V30 761 H 130.791 3.64906 -6.05785 0
M  V30 762 H 131.783 4.8868 -5.2125 0
M  V30 763 H 129.949 5.66726 -7.06352 0
M  V30 764 H 129.9 1.71169 -5.60966 0
M  V30 765 H 130.582 0.419134 0.644739 0
M  V30 766 H 130.619 3.87332 1.06098 0
M  V30 767 H 130.72 2.26417 1.82483 0
M  V30 768 P 131.819 7.20834 -5.23717 0
M  V30 769 O 132.039 8.66274 -5.38678 0
M  V30 770 O 132.609 6.33687 -6.13629 0
M  V30 771 O 132.069 6.7751 -3.72168 0
M  V30 772 C 131.129 7.20919 -2.70795 0
M  V30 773 C 131.859 7.45864 -1.40599 0
M  V30 774 O 132.069 6.17751 -0.734343 0
M  V30 775 C 133.259 8.05906 -1.51917 0
M  V30 776 O 133.649 8.74358 -0.335205 0
M  V30 777 C 134.139 6.83093 -1.70294 0
M  V30 778 C 133.429 5.79992 -0.836974 0
M  V30 779 N 133.479 4.41864 -1.38293 0
M  V30 780 C 133.399 4.02089 -2.69407 0
M  V30 781 N 133.469 2.73403 -2.85089 0
M  V30 782 C 133.619 2.25086 -1.5642 0
M  V30 783 C 133.749 0.942887 -1.04836 0
M  V30 784 N 133.759 -0.150999 -1.80369 0
M  V30 785 N 133.869 0.812565 0.28167 0
M  V30 786 C 133.859 1.90572 1.03784 0
M  V30 787 N 133.739 3.167 0.683905 0
M  V30 788 C 133.619 3.26538 -0.652815 0
M  V30 789 H 130.641 8.13738 -3.03804 0
M  V30 790 H 130.369 6.42974 -2.55559 0
M  V30 791 H 131.237 8.12139 -0.792866 0
M  V30 792 H 133.892 5.80178 0.160643 0
M  V30 793 H 134.172 6.51379 -2.75643 0
M  V30 794 H 135.163 7.01832 -1.3448 0
M  V30 795 H 133.329 8.73771 -2.38364 0
M  V30 796 H 133.288 4.7189 -3.52311 0
M  V30 797 H 133.669 -0.0721434 -2.82608 0
M  V30 798 H 133.858 -1.0785 -1.36544 0
M  V30 799 H 133.966 1.73207 2.10241 0
M  V30 800 P 135.199 8.91 -8.72928e-15 0
M  V30 801 O 135.419 10.1746 0.733838 0
M  V30 802 O 135.989 8.73346 -1.23964 0
M  V30 803 O 135.449 7.66872 0.971405 0
M  V30 804 C 134.509 7.42405 2.04668 0
M  V30 805 C 135.239 6.86059 3.24661 0
M  V30 806 O 135.449 5.42934 3.03695 0
M  V30 807 C 136.639 7.41287 3.50796 0
M  V30 808 O 137.029 7.27073 4.86816 0
M  V30 809 C 137.519 6.5273 2.63741 0
M  V30 810 C 136.809 5.1842 2.73198 0
M  V30 811 N 136.859 4.38762 1.4784 0
M  V30 812 C 136.779 4.83651 0.183876 0
M  V30 813 N 136.849 3.88759 -0.699393 0
M  V30 814 C 136.999 2.7404 0.0575568 0
M  V30 815 C 137.129 1.37902 -0.293928 0
M  V30 816 N 137.139 0.938021 -1.54797 0
M  V30 817 N 137.249 0.491817 0.70549 0
M  V30 818 C 137.239 0.931735 1.95979 0
M  V30 819 N 137.119 2.16017 2.41481 0
M  V30 820 C 136.999 3.02547 1.39121 0
M  V30 821 H 134.021 8.36899 2.3252 0
M  V30 822 H 133.749 6.70391 1.71179 0
M  V30 823 H 134.617 7.03638 4.13219 0
M  V30 824 H 137.272 4.59931 3.54016 0
M  V30 825 H 137.552 6.88995 1.59871 0
M  V30 826 H 138.543 6.4684 3.0373 0
M  V30 827 H 136.709 8.47002 3.20749 0
M  V30 828 H 136.668 5.8885 -0.0765548 0
M  V30 829 H 137.049 1.60276 -2.32875 0
M  V30 830 H 137.238 -0.0699355 -1.73859 0
M  V30 831 H 137.346 0.165507 2.71897 0
M  V30 832 P 138.579 7.20834 5.23717 0
M  V30 833 O 138.799 7.79853 6.57286 0
M  V30 834 O 139.369 7.79239 4.12957 0
M  V30 835 O 138.829 5.63315 5.29344 0
M  V30 836 C 137.889 4.80255 6.01876 0
M  V30 837 C 138.619 3.64202 6.65911 0
M  V30 838 O 138.829 2.60694 5.64732 0
M  V30 839 C 140.019 3.93473 7.1943 0
M  V30 840 O 140.409 3.02071 8.21205 0
M  V30 841 C 140.899 3.73047 5.97036 0
M  V30 842 C 140.189 2.58828 5.25741 0
M  V30 843 N 140.239 2.68068 3.77503 0
M  V30 844 C 140.159 3.79715 2.96723 0
M  V30 845 N 140.239 3.5377 1.68852 0
M  V30 846 C 140.379 2.15054 1.63254 0
M  V30 847 C 140.509 1.28964 0.518571 0
M  V30 848 O 140.529 1.56826 -0.679156 0
M  V30 849 N 140.629 -0.0538097 0.918425 0
M  V30 850 C 140.629 -0.494275 2.22578 0
M  V30 851 N 140.759 -1.81086 2.40434 0
M  V30 852 N 140.499 0.313645 3.27502 0
M  V30 853 C 140.379 1.61829 2.91033 0
M  V30 854 H 137.4 5.40332 6.79951 0
M  V30 855 H 137.13 4.41613 5.32378 0
M  V30 856 H 137.997 3.26331 7.47797 0
M  V30 857 H 140.652 1.63422 5.56814 0
M  V30 858 H 140.931 4.63374 5.34244 0
M  V30 859 H 141.923 3.44728 6.25838 0
M  V30 860 H 140.089 4.96652 7.57263 0
M  V30 861 H 140.04 4.80617 3.3614 0
M  V30 862 H 140.722 -0.742702 0.199384 0
M  V30 863 H 140.759 -2.20598 3.35588 0
M  V30 864 H 140.86 -2.43518 1.58945 0
M  V30 865 P 141.959 2.75334 8.47391 0
M  V30 866 O 142.179 2.44571 9.90142 0
M  V30 867 O 142.749 3.87688 7.92115 0
M  V30 868 O 142.209 1.4459 7.59357 0
M  V30 869 C 141.269 0.347608 7.69215 0
M  V30 870 C 141.999 -0.96767 7.52806 0
M  V30 871 O 142.209 -1.21036 6.1011 0
M  V30 872 C 143.399 -1.04544 8.13308 0
M  V30 873 O 143.789 -2.38311 8.41922 0
M  V30 874 C 144.279 -0.491279 7.02284 0
M  V30 875 C 143.569 -0.996264 5.77469 0
M  V30 876 N 143.619 -0.0501916 4.62973 0
M  V30 877 H 140.78 0.374722 8.67691 0
M  V30 878 H 140.51 0.443485 6.90277 0
M  V30 879 H 141.377 -1.75537 7.96793 0
M  V30 880 P 145.339 -2.75334 8.47391 0
M  V30 881 O 145.559 -3.84204 9.44982 0
M  V30 882 O 146.129 -1.51982 8.68909 0
M  V30 883 O 145.589 -3.29363 6.99321 0
M  V30 884 C 144.649 -4.24066 6.42823 0
M  V30 885 C 145.379 -5.20775 5.52155 0
M  V30 886 O 145.589 -4.56607 4.22514 0
M  V30 887 C 146.779 -5.62697 5.96604 0
M  V30 888 O 147.169 -6.87667 5.41053 0
M  V30 889 C 147.659 -4.52537 5.39283 0
M  V30 890 C 146.949 -4.20027 4.08623 0
M  V30 891 N 146.999 -2.76189 3.71603 0
M  V30 892 H 144.161 -4.79756 7.24086 0
M  V30 893 H 143.889 -3.69963 5.84682 0
M  V30 894 H 144.757 -6.10431 5.41508 0
M  V30 895 H 147.412 -4.78816 3.28024 0
M  V30 896 H 147.692 -3.64957 6.05871 0
M  V30 897 H 148.683 -4.88748 5.21323 0
M  V30 898 H 146.849 -5.66789 7.0643 0
M  V30 899 P 148.719 -7.20834 5.23717 0
M  V30 900 O 148.939 -8.66104 5.38572 0
M  V30 901 O 149.509 -6.33544 6.1349 0
M  V30 902 O 148.969 -6.7751 3.72168 0
M  V30 903 C 148.029 -7.20825 2.7076 0
M  V30 904 C 148.759 -7.45864 1.40599 0
M  V30 905 O 148.969 -6.17651 0.734225 0
M  V30 906 C 150.159 -8.05808 1.51899 0
M  V30 907 O 150.549 -8.74358 0.335205 0
M  V30 908 C 151.039 -6.83093 1.70294 0
M  V30 909 C 150.329 -5.79992 0.836974 0
M  V30 910 N 150.379 -4.41864 1.38293 0
M  V30 911 H 147.54 -8.13644 3.0377 0
M  V30 912 H 147.27 -6.42788 2.55485 0
M  V30 913 H 148.137 -8.12039 0.792769 0
M  V30 914 P 152.099 -8.91 9.82044e-15 0
M  V30 915 O 152.319 -10.1726 -0.733694 0
M  V30 916 O 152.889 -8.73148 1.23936 0
M  V30 917 O 152.349 -7.66872 -0.971405 0
M  V30 918 C 151.409 -7.42309 -2.04641 0
M  V30 919 C 152.139 -6.86059 -3.24661 0
M  V30 920 O 152.349 -5.42847 -3.03646 0
M  V30 921 C 153.539 -7.41196 -3.50753 0
M  V30 922 O 153.929 -7.27073 -4.86816 0
M  V30 923 C 154.419 -6.5273 -2.63741 0
M  V30 924 C 153.709 -5.1842 -2.73198 0
M  V30 925 N 153.759 -4.38762 -1.4784 0
M  V30 926 H 150.92 -8.36803 -2.32493 0
M  V30 927 H 150.65 -6.70197 -1.71129 0
M  V30 928 H 151.517 -7.03551 -4.13168 0
M  V30 929 P 155.479 -7.20834 -5.23717 0
M  V30 930 O 155.699 -7.7993 -6.57351 0
M  V30 931 O 156.269 -7.79328 -4.13004 0
M  V30 932 O 155.729 -5.63315 -5.29344 0
M  V30 933 C 154.789 -4.80193 -6.01798 0
M  V30 934 C 155.519 -3.64202 -6.65911 0
M  V30 935 O 155.729 -2.60694 -5.64732 0
M  V30 936 C 156.919 -3.93473 -7.1943 0
M  V30 937 O 157.309 -3.02071 -8.21205 0
M  V30 938 C 157.799 -3.73047 -5.97036 0
M  V30 939 C 157.089 -2.58828 -5.25741 0
M  V30 940 N 157.139 -2.6801 -3.77422 0
M  V30 941 C 157.289 -1.50443 -3.07133 0
M  V30 942 O 157.379 -0.419406 -3.61576 0
M  V30 943 N 157.329 -1.6403 -1.69677 0
M  V30 944 C 157.239 -2.81206 -0.986255 0
M  V30 945 C 157.089 -3.99158 -1.80325 0
M  V30 946 C 157.039 -3.89779 -3.1476 0
M  V30 947 H 154.299 -5.40332 -6.79951 0
M  V30 948 H 154.03 -4.41549 -5.32301 0
M  V30 949 H 154.897 -3.26331 -7.47797 0
M  V30 950 H 157.552 -1.6395 -5.56554 0
M  V30 951 H 157.831 -4.63439 -5.3432 0
M  V30 952 H 158.823 -3.44728 -6.25838 0
M  V30 953 H 156.989 -4.96652 -7.57263 0
M  V30 954 H 156.918 -4.80159 -3.74441 0
M  V30 955 P 158.859 -2.75334 -8.47391 0
M  V30 956 O 159.079 -2.44595 -9.90239 0
M  V30 957 O 159.649 -3.87732 -7.92204 0
M  V30 958 O 159.109 -1.4459 -7.59357 0
M  V30 959 C 158.169 -0.347563 -7.69115 0
M  V30 960 C 158.899 0.96767 -7.52806 0
M  V30 961 O 159.109 1.21036 -6.1011 0
M  V30 962 C 160.299 1.04544 -8.13308 0
M  V30 963 O 160.689 2.38311 -8.41922 0
M  V30 964 C 161.179 0.491279 -7.02284 0
M  V30 965 C 160.469 0.996264 -5.77469 0
M  V30 966 N 160.519 0.0501808 -4.62873 0
M  V30 967 C 160.669 0.588177 -3.36904 0
M  V30 968 O 160.759 1.78598 -3.17173 0
M  V30 969 N 160.709 -0.329694 -2.33686 0
M  V30 970 C 160.619 -1.6953 -2.45079 0
M  V30 971 O 160.669 -2.41926 -1.44899 0
M  V30 972 C 160.469 -2.16933 -3.80505 0
M  V30 973 C 160.359 -3.65373 -3.97621 0
M  V30 974 C 160.419 -1.30326 -4.83752 0
M  V30 975 H 157.679 -0.374722 -8.67691 0
M  V30 976 H 157.41 -0.443421 -6.90177 0
M  V30 977 H 158.277 1.75537 -7.96793 0
M  V30 978 H 160.932 1.94496 -5.46629 0
M  V30 979 H 161.211 -0.608651 -7.04676 0
M  V30 980 H 162.203 0.889672 -7.08939 0
M  V30 981 H 160.369 0.43308 -9.04564 0
M  V30 982 H 160.298 -1.68366 -5.8516 0
M  V30 983 H 161.328 -4.05985 -4.30448 0
M  V30 984 H 159.591 -3.88028 -4.72875 0
M  V30 985 H 160.079 -4.11381 -3.01609 0
M  V30 986 H 160.815 0.0393617 -1.41345 0
M  V30 987 P 162.239 2.75334 -8.47391 0
M  V30 988 O 162.459 3.84128 -9.44797 0
M  V30 989 O 163.029 1.51947 -8.68712 0
M  V30 990 O 162.489 3.29363 -6.99321 0
M  V30 991 C 161.549 4.24011 -6.4274 0
M  V30 992 C 162.279 5.20775 -5.52155 0
M  V30 993 O 162.489 4.56534 -4.22446 0
M  V30 994 C 163.679 5.62629 -5.96531 0
M  V30 995 O 164.069 6.87667 -5.41053 0
M  V30 996 C 164.559 4.52537 -5.39283 0
M  V30 997 C 163.849 4.20027 -4.08623 0
M  V30 998 N 163.899 2.76189 -3.71603 0
M  V30 999 C 163.819 1.64862 -4.52822 0
M  V30 1000 N 163.899 0.512671 -3.88633 0
M  V30 1001 C 164.039 0.888083 -2.54977 0
M  V30 1002 C 164.169 0.094668 -1.38677 0
M  V30 1003 N 164.289 0.890102 -0.232633 0
M  V30 1004 C 164.289 2.26958 -0.21772 0
M  V30 1005 N 164.419 2.84626 0.97925 0
M  V30 1006 N 164.159 3.0178 -1.31033 0
M  V30 1007 C 164.039 2.26781 -2.43843 0
M  V30 1008 H 161.06 4.797 -7.24003 0
M  V30 1009 H 160.79 3.69856 -5.84513 0
M  V30 1010 H 161.657 6.10356 -5.41441 0
M  V30 1011 P 165.619 7.20834 -5.23717 0
M  V30 1012 O 165.839 8.66104 -5.38572 0
M  V30 1013 O 166.409 6.33544 -6.1349 0
M  V30 1014 O 165.869 6.7751 -3.72168 0
M  V30 1015 C 164.929 7.20825 -2.7076 0
M  V30 1016 C 165.659 7.45864 -1.40599 0
M  V30 1017 O 165.869 6.17651 -0.734225 0
M  V30 1018 C 167.059 8.05808 -1.51899 0
M  V30 1019 O 167.449 8.74358 -0.335205 0
M  V30 1020 C 167.939 6.83093 -1.70294 0
M  V30 1021 C 167.229 5.79992 -0.836974 0
M  V30 1022 N 167.279 4.41864 -1.38293 0
M  V30 1023 H 164.44 8.13644 -3.0377 0
M  V30 1024 H 164.17 6.42788 -2.55485 0
M  V30 1025 H 165.037 8.12039 -0.792769 0
M  V30 1026 P 168.999 8.91 -1.09116e-14 0
M  V30 1027 O 169.219 10.1726 0.733694 0
M  V30 1028 O 169.789 8.73148 -1.23936 0
M  V30 1029 O 169.249 7.66872 0.971405 0
M  V30 1030 C 168.309 7.42309 2.04641 0
M  V30 1031 C 169.039 6.86059 3.24661 0
M  V30 1032 O 169.249 5.42847 3.03646 0
M  V30 1033 C 170.439 7.41196 3.50753 0
M  V30 1034 O 170.829 7.27073 4.86816 0
M  V30 1035 C 171.319 6.5273 2.63741 0
M  V30 1036 C 170.609 5.1842 2.73198 0
M  V30 1037 N 170.659 4.38762 1.4784 0
M  V30 1038 C 170.579 4.81605 0.168631 0
M  V30 1039 N 170.659 3.85454 -0.713363 0
M  V30 1040 C 170.799 2.6994 0.0566958 0
M  V30 1041 C 170.929 1.34815 -0.338502 0
M  V30 1042 O 170.949 0.869548 -1.47125 0
M  V30 1043 N 171.049 0.496304 0.77465 0
M  V30 1044 C 171.049 0.908403 2.09122 0
M  V30 1045 N 171.179 -0.0517805 3.00955 0
M  V30 1046 N 170.919 2.17875 2.46519 0
M  V30 1047 C 170.799 3.01988 1.4033 0
M  V30 1048 H 167.82 8.36803 2.32493 0
M  V30 1049 H 167.55 6.70197 1.71129 0
M  V30 1050 H 168.417 7.03551 4.13168 0
M  V30 1051 H 171.072 4.59498 3.54415 0
M  V30 1052 H 171.351 6.88898 1.59848 0
M  V30 1053 H 172.343 6.46749 3.03687 0
M  V30 1054 H 170.509 8.46908 3.20714 0
M  V30 1055 H 170.46 5.86405 -0.105564 0
M  V30 1056 H 171.142 -0.483664 0.597855 0
M  V30 1057 H 171.179 0.187865 4.0116 0
M  V30 1058 H 171.28 -1.03585 2.71726 0
M  V30 1059 P 172.379 7.20834 5.23717 0
M  V30 1060 O 172.599 7.79853 6.57286 0
M  V30 1061 O 173.169 7.79239 4.12957 0
M  V30 1062 O 172.629 5.63315 5.29344 0
M  V30 1063 C 171.689 4.80255 6.01876 0
M  V30 1064 C 172.419 3.64202 6.65911 0
M  V30 1065 O 172.629 2.60694 5.64732 0
M  V30 1066 C 173.819 3.93473 7.1943 0
M  V30 1067 O 174.209 3.02071 8.21205 0
M  V30 1068 C 174.699 3.73047 5.97036 0
M  V30 1069 C 173.989 2.58828 5.25741 0
M  V30 1070 N 174.039 2.68068 3.77503 0
M  V30 1071 C 173.959 3.79715 2.96723 0
M  V30 1072 N 174.039 3.5377 1.68852 0
M  V30 1073 C 174.179 2.15054 1.63254 0
M  V30 1074 C 174.309 1.28964 0.518571 0
M  V30 1075 N 174.429 -0.0538097 0.918425 0
M  V30 1076 C 174.429 -0.494275 2.22578 0
M  V30 1077 N 174.559 -1.81086 2.40434 0
M  V30 1078 N 174.299 0.313645 3.27502 0
M  V30 1079 C 174.179 1.61829 2.91033 0
M  V30 1080 H 171.2 5.40332 6.79951 0
M  V30 1081 H 170.93 4.41613 5.32378 0
M  V30 1082 H 171.797 3.26331 7.47797 0
M  V30 1083 P 175.759 2.75334 8.47391 0
M  V30 1084 O 175.979 2.44571 9.90142 0
M  V30 1085 O 176.549 3.87688 7.92115 0
M  V30 1086 O 176.009 1.4459 7.59357 0
M  V30 1087 C 175.069 0.347608 7.69215 0
M  V30 1088 C 175.799 -0.96767 7.52806 0
M  V30 1089 O 176.009 -1.21036 6.1011 0
M  V30 1090 C 177.199 -1.04544 8.13308 0
M  V30 1091 O 177.589 -2.38311 8.41922 0
M  V30 1092 C 178.079 -0.491279 7.02284 0
M  V30 1093 C 177.369 -0.996264 5.77469 0
M  V30 1094 N 177.419 -0.0501916 4.62973 0
M  V30 1095 H 174.58 0.374722 8.67691 0
M  V30 1096 H 174.31 0.443485 6.90277 0
M  V30 1097 H 175.177 -1.75537 7.96793 0
M  V30 1098 P 179.139 -2.75334 8.47391 0
M  V30 1099 O 179.359 -3.84128 9.44797 0
M  V30 1100 O 179.929 -1.51947 8.68712 0
M  V30 1101 O 179.389 -3.29363 6.99321 0
M  V30 1102 C 178.449 -4.24011 6.4274 0
M  V30 1103 C 179.179 -5.20775 5.52155 0
M  V30 1104 O 179.389 -4.56534 4.22446 0
M  V30 1105 C 180.579 -5.62629 5.96531 0
M  V30 1106 O 180.969 -6.87667 5.41053 0
M  V30 1107 C 181.459 -4.52537 5.39283 0
M  V30 1108 C 180.749 -4.20027 4.08623 0
M  V30 1109 N 180.799 -2.76189 3.71603 0
M  V30 1110 H 177.96 -4.797 7.24003 0
M  V30 1111 H 177.69 -3.69856 5.84513 0
M  V30 1112 H 178.557 -6.10356 5.41441 0
M  V30 1113 P 182.519 -7.20834 5.23717 0
M  V30 1114 O 182.739 -8.66104 5.38572 0
M  V30 1115 O 183.309 -6.33544 6.1349 0
M  V30 1116 O 182.769 -6.7751 3.72168 0
M  V30 1117 C 181.829 -7.20825 2.7076 0
M  V30 1118 C 182.559 -7.45864 1.40599 0
M  V30 1119 O 182.769 -6.17651 0.734225 0
M  V30 1120 C 183.959 -8.05808 1.51899 0
M  V30 1121 O 184.349 -8.74358 0.335205 0
M  V30 1122 C 184.839 -6.83093 1.70294 0
M  V30 1123 C 184.129 -5.79992 0.836974 0
M  V30 1124 N 184.179 -4.41864 1.38293 0
M  V30 1125 C 184.099 -3.99538 2.69438 0
M  V30 1126 N 184.179 -2.69909 2.84277 0
M  V30 1127 C 184.319 -2.21719 1.5408 0
M  V30 1128 C 184.449 -0.891712 1.06628 0
M  V30 1129 O 184.469 0.161298 1.70137 0
M  V30 1130 N 184.569 -0.856846 -0.334985 0
M  V30 1131 C 184.569 -1.9641 -1.15789 0
M  V30 1132 N 184.699 -1.72708 -2.46522 0
M  V30 1133 N 184.439 -3.21165 -0.713741 0
M  V30 1134 C 184.319 -3.26797 0.639748 0
M  V30 1135 H 181.34 -8.13644 3.0377 0
M  V30 1136 H 181.07 -6.42788 2.55485 0
M  V30 1137 H 181.937 -8.12039 0.792769 0
M  V30 1138 H 184.592 -5.80061 -0.166416 0
M  V30 1139 H 184.871 -6.51287 2.75604 0
M  V30 1140 H 185.863 -7.01734 1.34462 0
M  V30 1141 H 184.029 -8.73674 2.38337 0
M  V30 1142 H 183.98 -4.68207 3.53221 0
M  V30 1143 H 184.662 0.0398818 -0.767965 0
M  V30 1144 H 184.699 -2.50995 -3.13503 0
M  V30 1145 H 184.8 -0.759148 -2.80716 0
M  V30 1146 P 185.899 -8.91 -8.29613e-14 0
M  V30 1147 O 186.119 -10.1726 -0.733694 0
M  V30 1148 O 186.689 -8.73148 1.23936 0
M  V30 1149 O 186.149 -7.66872 -0.971405 0
M  V30 1150 C 185.209 -7.42309 -2.04641 0
M  V30 1151 C 185.939 -6.86059 -3.24661 0
M  V30 1152 O 186.149 -5.42847 -3.03646 0
M  V30 1153 C 187.339 -7.41196 -3.50753 0
M  V30 1154 O 187.729 -7.27073 -4.86816 0
M  V30 1155 C 188.219 -6.5273 -2.63741 0
M  V30 1156 C 187.509 -5.1842 -2.73198 0
M  V30 1157 N 187.559 -4.38762 -1.4784 0
M  V30 1158 H 184.72 -8.36803 -2.32493 0
M  V30 1159 H 184.45 -6.70197 -1.71129 0
M  V30 1160 H 185.317 -7.03551 -4.13168 0
M  V30 1161 P 189.279 -7.20834 -5.23717 0
M  V30 1162 O 189.499 -7.80006 -6.57415 0
M  V30 1163 O 190.069 -7.79416 -4.13051 0
M  V30 1164 O 189.529 -5.63315 -5.29344 0
M  V30 1165 C 188.589 -4.80318 -6.01954 0
M  V30 1166 C 189.319 -3.64202 -6.65911 0
M  V30 1167 O 189.529 -2.60736 -5.64823 0
M  V30 1168 C 190.719 -3.93521 -7.19518 0
M  V30 1169 O 191.109 -3.02071 -8.21205 0
M  V30 1170 C 191.599 -3.73047 -5.97036 0
M  V30 1171 C 190.889 -2.58828 -5.25741 0
M  V30 1172 N 190.939 -2.68068 -3.77503 0
M  V30 1173 C 190.859 -3.80474 -2.99159 0
M  V30 1174 N 190.929 -3.55622 -1.71925 0
M  V30 1175 C 191.079 -2.1832 -1.65733 0
M  V30 1176 C 191.209 -1.28842 -0.572777 0
M  V30 1177 N 191.219 -1.66875 0.70098 0
M  V30 1178 N 191.329 0.016788 -0.859836 0
M  V30 1179 C 191.319 0.398145 -2.13316 0
M  V30 1180 N 191.199 -0.328224 -3.22333 0
M  V30 1181 C 191.079 -1.62992 -2.90383 0
M  V30 1182 H 188.101 -5.40394 -6.8003 0
M  V30 1183 H 187.829 -4.41741 -5.32532 0
M  V30 1184 H 188.697 -3.26371 -7.47889 0
M  V30 1185 H 191.352 -1.64007 -5.56746 0
M  V30 1186 H 191.632 -4.63439 -5.3432 0
M  V30 1187 H 192.623 -3.44776 -6.25925 0
M  V30 1188 H 190.789 -4.96707 -7.57347 0
M  V30 1189 H 190.748 -4.8089 -3.39924 0
M  V30 1190 H 191.129 -2.66547 0.941919 0
M  V30 1191 H 191.318 -0.965341 1.44766 0
M  V30 1192 H 191.426 1.46427 -2.29697 0
M  V30 1193 P 192.659 -2.75334 -8.47391 0
M  V30 1194 O 192.879 -2.44571 -9.90142 0
M  V30 1195 O 193.449 -3.87688 -7.92115 0
M  V30 1196 O 192.909 -1.4459 -7.59357 0
M  V30 1197 C 191.969 -0.347608 -7.69215 0
M  V30 1198 C 192.699 0.96767 -7.52806 0
M  V30 1199 O 192.909 1.21036 -6.1011 0
M  V30 1200 C 194.099 1.04544 -8.13308 0
M  V30 1201 O 194.489 2.38311 -8.41922 0
M  V30 1202 C 194.979 0.491279 -7.02284 0
M  V30 1203 C 194.269 0.996264 -5.77469 0
M  V30 1204 N 194.319 0.0501916 -4.62973 0
M  V30 1205 H 191.48 -0.374722 -8.67691 0
M  V30 1206 H 191.21 -0.443485 -6.90277 0
M  V30 1207 H 192.077 1.75537 -7.96793 0
M  V30 1208 P 196.039 2.75334 -8.47391 0
M  V30 1209 O 196.259 3.84128 -9.44797 0
M  V30 1210 O 196.829 1.51947 -8.68712 0
M  V30 1211 O 196.289 3.29363 -6.99321 0
M  V30 1212 C 195.349 4.24011 -6.4274 0
M  V30 1213 C 196.079 5.20775 -5.52155 0
M  V30 1214 O 196.289 4.56534 -4.22446 0
M  V30 1215 C 197.479 5.62629 -5.96531 0
M  V30 1216 O 197.869 6.87667 -5.41053 0
M  V30 1217 C 198.359 4.52537 -5.39283 0
M  V30 1218 C 197.649 4.20027 -4.08623 0
M  V30 1219 N 197.699 2.76189 -3.71603 0
M  V30 1220 H 194.86 4.797 -7.24003 0
M  V30 1221 H 194.59 3.69856 -5.84513 0
M  V30 1222 H 195.457 6.10356 -5.41441 0
M  V30 1223 P 199.419 7.20834 -5.23717 0
M  V30 1224 O 199.639 8.66104 -5.38572 0
M  V30 1225 O 200.209 6.33544 -6.1349 0
M  V30 1226 O 199.669 6.7751 -3.72168 0
M  V30 1227 C 198.729 7.20825 -2.7076 0
M  V30 1228 C 199.459 7.45864 -1.40599 0
M  V30 1229 O 199.669 6.17651 -0.734225 0
M  V30 1230 C 200.859 8.05808 -1.51899 0
M  V30 1231 O 201.249 8.74358 -0.335205 0
M  V30 1232 C 201.739 6.83093 -1.70294 0
M  V30 1233 C 201.029 5.79992 -0.836974 0
M  V30 1234 N 201.079 4.41864 -1.38293 0
M  V30 1235 H 198.24 8.13644 -3.0377 0
M  V30 1236 H 197.97 6.42788 -2.55485 0
M  V30 1237 H 198.837 8.12039 -0.792769 0
M  V30 1238 P 202.799 8.91 2.40144e-13 0
M  V30 1239 O 203.019 10.1726 0.733694 0
M  V30 1240 O 203.589 8.73148 -1.23936 0
M  V30 1241 O 203.049 7.66872 0.971405 0
M  V30 1242 C 202.109 7.42309 2.04641 0
M  V30 1243 C 202.839 6.86059 3.24661 0
M  V30 1244 O 203.049 5.42847 3.03646 0
M  V30 1245 C 204.239 7.41196 3.50753 0
M  V30 1246 O 204.629 7.27073 4.86816 0
M  V30 1247 C 205.119 6.5273 2.63741 0
M  V30 1248 C 204.409 5.1842 2.73198 0
M  V30 1249 N 204.459 4.38762 1.4784 0
M  V30 1250 H 201.62 8.36803 2.32493 0
M  V30 1251 H 201.35 6.70197 1.71129 0
M  V30 1252 H 202.217 7.03551 4.13168 0
M  V30 1253 P 206.179 7.20834 5.23717 0
M  V30 1254 O 206.399 7.79853 6.57286 0
M  V30 1255 O 206.969 7.79239 4.12957 0
M  V30 1256 O 206.429 5.63315 5.29344 0
M  V30 1257 C 205.489 4.80255 6.01876 0
M  V30 1258 C 206.219 3.64202 6.65911 0
M  V30 1259 O 206.429 2.60694 5.64732 0
M  V30 1260 C 207.619 3.93473 7.1943 0
M  V30 1261 O 208.009 3.02071 8.21205 0
M  V30 1262 C 208.499 3.73047 5.97036 0
M  V30 1263 C 207.789 2.58828 5.25741 0
M  V30 1264 N 207.839 2.68068 3.77503 0
M  V30 1265 C 207.759 3.79715 2.96723 0
M  V30 1266 N 207.839 3.5377 1.68852 0
M  V30 1267 C 207.979 2.15054 1.63254 0
M  V30 1268 C 208.109 1.28964 0.518571 0
M  V30 1269 O 208.129 1.56826 -0.679156 0
M  V30 1270 N 208.229 -0.0538097 0.918425 0
M  V30 1271 C 208.229 -0.494275 2.22578 0
M  V30 1272 N 208.359 -1.81086 2.40434 0
M  V30 1273 N 208.099 0.313645 3.27502 0
M  V30 1274 C 207.979 1.61829 2.91033 0
M  V30 1275 H 205 5.40332 6.79951 0
M  V30 1276 H 204.73 4.41613 5.32378 0
M  V30 1277 H 205.597 3.26331 7.47797 0
M  V30 1278 H 208.252 1.63422 5.56814 0
M  V30 1279 H 208.531 4.63374 5.34244 0
M  V30 1280 H 209.523 3.44728 6.25838 0
M  V30 1281 H 207.689 4.96652 7.57263 0
M  V30 1282 H 207.64 4.80617 3.3614 0
M  V30 1283 H 208.322 -0.742702 0.199384 0
M  V30 1284 H 208.359 -2.20598 3.35588 0
M  V30 1285 H 208.46 -2.43518 1.58945 0
M  V30 1286 P 209.559 2.75334 8.47391 0
M  V30 1287 O 209.779 2.44571 9.90142 0
M  V30 1288 O 210.349 3.87688 7.92115 0
M  V30 1289 O 209.809 1.4459 7.59357 0
M  V30 1290 C 208.869 0.347608 7.69215 0
M  V30 1291 C 209.599 -0.96767 7.52806 0
M  V30 1292 O 209.809 -1.21036 6.1011 0
M  V30 1293 C 210.999 -1.04544 8.13308 0
M  V30 1294 O 211.389 -2.38311 8.41922 0
M  V30 1295 C 211.879 -0.491279 7.02284 0
M  V30 1296 C 211.169 -0.996264 5.77469 0
M  V30 1297 N 211.219 -0.0501916 4.62973 0
M  V30 1298 H 208.38 0.374722 8.67691 0
M  V30 1299 H 208.11 0.443485 6.90277 0
M  V30 1300 H 208.977 -1.75537 7.96793 0
M  V30 1301 P 212.939 -2.75334 8.47391 0
M  V30 1302 O 213.159 -3.84128 9.44797 0
M  V30 1303 O 213.729 -1.51947 8.68712 0
M  V30 1304 O 213.189 -3.29363 6.99321 0
M  V30 1305 C 212.249 -4.24011 6.4274 0
M  V30 1306 C 212.979 -5.20775 5.52155 0
M  V30 1307 O 213.189 -4.56534 4.22446 0
M  V30 1308 C 214.379 -5.62629 5.96531 0
M  V30 1309 O 214.769 -6.87667 5.41053 0
M  V30 1310 C 215.259 -4.52537 5.39283 0
M  V30 1311 C 214.549 -4.20027 4.08623 0
M  V30 1312 N 214.599 -2.76189 3.71603 0
M  V30 1313 H 211.76 -4.797 7.24003 0
M  V30 1314 H 211.49 -3.69856 5.84513 0
M  V30 1315 H 212.357 -6.10356 5.41441 0
M  V30 1316 P 216.319 -7.20834 5.23717 0
M  V30 1317 O 216.539 -8.66104 5.38572 0
M  V30 1318 O 217.109 -6.33544 6.1349 0
M  V30 1319 O 216.569 -6.7751 3.72168 0
M  V30 1320 C 215.629 -7.20825 2.7076 0
M  V30 1321 C 216.359 -7.45864 1.40599 0
M  V30 1322 O 216.569 -6.17651 0.734225 0
M  V30 1323 C 217.759 -8.05808 1.51899 0
M  V30 1324 O 218.149 -8.74358 0.335205 0
M  V30 1325 C 218.639 -6.83093 1.70294 0
M  V30 1326 C 217.929 -5.79992 0.836974 0
M  V30 1327 N 217.979 -4.41864 1.38293 0
M  V30 1328 H 215.14 -8.13644 3.0377 0
M  V30 1329 H 214.87 -6.42788 2.55485 0
M  V30 1330 H 215.737 -8.12039 0.792769 0
M  V30 1331 P 219.699 -8.91 -3.97326e-13 0
M  V30 1332 O 219.919 -10.1726 -0.733694 0
M  V30 1333 O 220.489 -8.73148 1.23936 0
M  V30 1334 O 219.949 -7.66872 -0.971405 0
M  V30 1335 C 219.009 -7.42309 -2.04641 0
M  V30 1336 C 219.739 -6.86059 -3.24661 0
M  V30 1337 O 219.949 -5.42847 -3.03646 0
M  V30 1338 C 221.139 -7.41196 -3.50753 0
M  V30 1339 O 221.529 -7.27073 -4.86816 0
M  V30 1340 C 222.019 -6.5273 -2.63741 0
M  V30 1341 C 221.309 -5.1842 -2.73198 0
M  V30 1342 N 221.359 -4.38762 -1.4784 0
M  V30 1343 H 218.52 -8.36803 -2.32493 0
M  V30 1344 H 218.25 -6.70197 -1.71129 0
M  V30 1345 H 219.117 -7.03551 -4.13168 0
M  V30 1346 P 223.079 -7.20834 -5.23717 0
M  V30 1347 O 223.299 -7.79853 -6.57286 0
M  V30 1348 O 223.869 -7.79239 -4.12957 0
M  V30 1349 O 223.329 -5.63315 -5.29344 0
M  V30 1350 C 222.389 -4.80255 -6.01876 0
M  V30 1351 C 223.119 -3.64202 -6.65911 0
M  V30 1352 O 223.329 -2.60694 -5.64732 0
M  V30 1353 C 224.519 -3.93473 -7.1943 0
M  V30 1354 O 224.909 -3.02071 -8.21205 0
M  V30 1355 C 225.399 -3.73047 -5.97036 0
M  V30 1356 C 224.689 -2.58828 -5.25741 0
M  V30 1357 N 224.739 -2.68068 -3.77503 0
M  V30 1358 H 221.9 -5.40332 -6.79951 0
M  V30 1359 H 221.63 -4.41613 -5.32378 0
M  V30 1360 H 222.497 -3.26331 -7.47797 0
M  V30 1361 P 226.459 -2.75334 -8.47391 0
M  V30 1362 O 226.679 -2.44571 -9.90142 0
M  V30 1363 O 227.249 -3.87688 -7.92115 0
M  V30 1364 O 226.709 -1.4459 -7.59357 0
M  V30 1365 C 225.769 -0.347608 -7.69215 0
M  V30 1366 C 226.499 0.96767 -7.52806 0
M  V30 1367 O 226.709 1.21036 -6.1011 0
M  V30 1368 C 227.899 1.04544 -8.13308 0
M  V30 1369 O 228.289 2.38311 -8.41922 0
M  V30 1370 C 228.779 0.491279 -7.02284 0
M  V30 1371 C 228.069 0.996264 -5.77469 0
M  V30 1372 N 228.119 0.0501916 -4.62973 0
M  V30 1373 H 225.28 -0.374722 -8.67691 0
M  V30 1374 H 225.01 -0.443485 -6.90277 0
M  V30 1375 H 225.877 1.75537 -7.96793 0
M  V30 1376 P 229.839 2.75334 -8.47391 0
M  V30 1377 O 230.059 3.84204 -9.44982 0
M  V30 1378 O 230.629 1.51982 -8.68909 0
M  V30 1379 O 230.089 3.29363 -6.99321 0
M  V30 1380 C 229.149 4.24066 -6.42823 0
M  V30 1381 C 229.879 5.20775 -5.52155 0
M  V30 1382 O 230.089 4.56607 -4.22514 0
M  V30 1383 C 231.279 5.62697 -5.96604 0
M  V30 1384 O 231.669 6.87667 -5.41053 0
M  V30 1385 C 232.159 4.52537 -5.39283 0
M  V30 1386 C 231.449 4.20027 -4.08623 0
M  V30 1387 N 231.499 2.76189 -3.71603 0
M  V30 1388 H 228.661 4.79756 -7.24086 0
M  V30 1389 H 228.389 3.69963 -5.84682 0
M  V30 1390 H 229.257 6.10431 -5.41508 0
M  V30 1391 H 231.912 4.78816 -3.28024 0
M  V30 1392 H 232.192 3.64957 -6.05871 0
M  V30 1393 H 233.183 4.88748 -5.21323 0
M  V30 1394 H 231.349 5.66789 -7.0643 0
M  V30 1395 P 233.219 7.20834 -5.23717 0
M  V30 1396 O 233.439 8.66274 -5.38678 0
M  V30 1397 O 234.009 6.33687 -6.13629 0
M  V30 1398 O 233.469 6.7751 -3.72168 0
M  V30 1399 C 232.529 7.20919 -2.70795 0
M  V30 1400 C 233.259 7.45864 -1.40599 0
M  V30 1401 O 233.469 6.17751 -0.734343 0
M  V30 1402 C 234.659 8.05906 -1.51917 0
M  V30 1403 O 235.049 8.74358 -0.335205 0
M  V30 1404 C 235.539 6.83093 -1.70294 0
M  V30 1405 C 234.829 5.79992 -0.836974 0
M  V30 1406 N 234.879 4.41864 -1.38293 0
M  V30 1407 C 234.799 4.02089 -2.69407 0
M  V30 1408 N 234.869 2.73403 -2.85089 0
M  V30 1409 C 235.019 2.25086 -1.5642 0
M  V30 1410 C 235.149 0.942887 -1.04836 0
M  V30 1411 N 235.159 -0.150999 -1.80369 0
M  V30 1412 N 235.269 0.812565 0.28167 0
M  V30 1413 C 235.259 1.90572 1.03784 0
M  V30 1414 N 235.139 3.167 0.683905 0
M  V30 1415 C 235.019 3.26538 -0.652815 0
M  V30 1416 H 232.041 8.13738 -3.03804 0
M  V30 1417 H 231.769 6.42974 -2.55559 0
M  V30 1418 H 232.637 8.12139 -0.792866 0
M  V30 1419 H 235.292 5.80178 0.160643 0
M  V30 1420 H 235.572 6.51379 -2.75643 0
M  V30 1421 H 236.563 7.01832 -1.3448 0
M  V30 1422 H 234.729 8.73771 -2.38364 0
M  V30 1423 H 234.688 4.7189 -3.52311 0
M  V30 1424 H 235.069 -0.0721434 -2.82608 0
M  V30 1425 H 235.258 -1.0785 -1.36544 0
M  V30 1426 H 235.366 1.73207 2.10241 0
M  V30 1427 P 236.599 8.91 5.54508e-13 0
M  V30 1428 O 236.819 10.1726 0.733694 0
M  V30 1429 O 237.389 8.73148 -1.23936 0
M  V30 1430 O 236.849 7.66872 0.971405 0
M  V30 1431 C 235.909 7.42309 2.04641 0
M  V30 1432 C 236.639 6.86059 3.24661 0
M  V30 1433 O 236.849 5.42847 3.03646 0
M  V30 1434 C 238.039 7.41196 3.50753 0
M  V30 1435 O 238.429 7.27073 4.86816 0
M  V30 1436 C 238.919 6.5273 2.63741 0
M  V30 1437 C 238.209 5.1842 2.73198 0
M  V30 1438 N 238.259 4.38762 1.4784 0
M  V30 1439 H 235.42 8.36803 2.32493 0
M  V30 1440 H 235.15 6.70197 1.71129 0
M  V30 1441 H 236.017 7.03551 4.13168 0
M  V30 1442 P 239.979 7.20834 5.23717 0
M  V30 1443 O 240.199 7.79853 6.57286 0
M  V30 1444 O 240.769 7.79239 4.12957 0
M  V30 1445 O 240.229 5.63315 5.29344 0
M  V30 1446 C 239.289 4.80255 6.01876 0
M  V30 1447 C 240.019 3.64202 6.65911 0
M  V30 1448 O 240.229 2.60694 5.64732 0
M  V30 1449 C 241.419 3.93473 7.1943 0
M  V30 1450 O 241.809 3.02071 8.21205 0
M  V30 1451 C 242.299 3.73047 5.97036 0
M  V30 1452 C 241.589 2.58828 5.25741 0
M  V30 1453 N 241.639 2.68068 3.77503 0
M  V30 1454 H 238.8 5.40332 6.79951 0
M  V30 1455 H 238.53 4.41613 5.32378 0
M  V30 1456 H 239.397 3.26331 7.47797 0
M  V30 1457 P 243.359 2.75334 8.47391 0
M  V30 1458 O 243.579 2.44571 9.90142 0
M  V30 1459 O 244.149 3.87688 7.92115 0
M  V30 1460 O 243.609 1.4459 7.59357 0
M  V30 1461 C 242.669 0.347608 7.69215 0
M  V30 1462 C 243.399 -0.96767 7.52806 0
M  V30 1463 O 243.609 -1.21036 6.1011 0
M  V30 1464 C 244.799 -1.04544 8.13308 0
M  V30 1465 O 245.189 -2.38311 8.41922 0
M  V30 1466 C 245.679 -0.491279 7.02284 0
M  V30 1467 C 244.969 -0.996264 5.77469 0
M  V30 1468 N 245.019 -0.0501916 4.62973 0
M  V30 1469 H 242.18 0.374722 8.67691 0
M  V30 1470 H 241.91 0.443485 6.90277 0
M  V30 1471 H 242.777 -1.75537 7.96793 0
M  V30 1472 P 246.739 -2.75334 8.47391 0
M  V30 1473 O 246.959 -3.84128 9.44797 0
M  V30 1474 O 247.529 -1.51947 8.68712 0
M  V30 1475 O 246.989 -3.29363 6.99321 0
M  V30 1476 C 246.049 -4.24011 6.4274 0
M  V30 1477 C 246.779 -5.20775 5.52155 0
M  V30 1478 O 246.989 -4.56534 4.22446 0
M  V30 1479 C 248.179 -5.62629 5.96531 0
M  V30 1480 O 248.569 -6.87667 5.41053 0
M  V30 1481 C 249.059 -4.52537 5.39283 0
M  V30 1482 C 248.349 -4.20027 4.08623 0
M  V30 1483 N 248.399 -2.76189 3.71603 0
M  V30 1484 H 245.56 -4.797 7.24003 0
M  V30 1485 H 245.29 -3.69856 5.84513 0
M  V30 1486 H 246.157 -6.10356 5.41441 0
M  V30 1487 P 250.119 -7.20834 5.23717 0
M  V30 1488 O 250.339 -8.66104 5.38572 0
M  V30 1489 O 250.909 -6.33544 6.1349 0
M  V30 1490 O 250.369 -6.7751 3.72168 0
M  V30 1491 C 249.429 -7.20825 2.7076 0
M  V30 1492 C 250.159 -7.45864 1.40599 0
M  V30 1493 O 250.369 -6.17651 0.734225 0
M  V30 1494 C 251.559 -8.05808 1.51899 0
M  V30 1495 O 251.949 -8.74358 0.335205 0
M  V30 1496 C 252.439 -6.83093 1.70294 0
M  V30 1497 C 251.729 -5.79992 0.836974 0
M  V30 1498 N 251.779 -4.41864 1.38293 0
M  V30 1499 C 251.699 -3.99538 2.69438 0
M  V30 1500 N 251.779 -2.69909 2.84277 0
M  V30 1501 C 251.919 -2.21719 1.5408 0
M  V30 1502 C 252.049 -0.891712 1.06628 0
M  V30 1503 N 252.169 -0.856846 -0.334985 0
M  V30 1504 C 252.169 -1.9641 -1.15789 0
M  V30 1505 N 252.299 -1.72708 -2.46522 0
M  V30 1506 N 252.039 -3.21165 -0.713741 0
M  V30 1507 C 251.919 -3.26797 0.639748 0
M  V30 1508 H 248.94 -8.13644 3.0377 0
M  V30 1509 H 248.67 -6.42788 2.55485 0
M  V30 1510 H 249.537 -8.12039 0.792769 0
M  V30 1511 P 253.498 -8.91 -7.1169e-13 0
M  V30 1512 O 253.718 -10.1726 -0.733694 0
M  V30 1513 O 254.288 -8.73148 1.23936 0
M  V30 1514 O 253.748 -7.66872 -0.971405 0
M  V30 1515 C 252.808 -7.42309 -2.04641 0
M  V30 1516 C 253.538 -6.86059 -3.24661 0
M  V30 1517 O 253.748 -5.42847 -3.03646 0
M  V30 1518 C 254.938 -7.41196 -3.50753 0
M  V30 1519 O 255.328 -7.27073 -4.86816 0
M  V30 1520 C 255.818 -6.5273 -2.63741 0
M  V30 1521 C 255.108 -5.1842 -2.73198 0
M  V30 1522 N 255.158 -4.38762 -1.4784 0
M  V30 1523 H 252.319 -8.36803 -2.32493 0
M  V30 1524 H 252.049 -6.70197 -1.71129 0
M  V30 1525 H 252.916 -7.03551 -4.13168 0
M  V30 1526 P 256.878 -7.20834 -5.23717 0
M  V30 1527 O 257.098 -7.79853 -6.57286 0
M  V30 1528 O 257.668 -7.79239 -4.12957 0
M  V30 1529 O 257.128 -5.63315 -5.29344 0
M  V30 1530 C 256.188 -4.80255 -6.01876 0
M  V30 1531 C 256.918 -3.64202 -6.65911 0
M  V30 1532 O 257.128 -2.60694 -5.64732 0
M  V30 1533 C 258.318 -3.93473 -7.1943 0
M  V30 1534 O 258.708 -3.02071 -8.21205 0
M  V30 1535 C 259.198 -3.73047 -5.97036 0
M  V30 1536 C 258.488 -2.58828 -5.25741 0
M  V30 1537 N 258.538 -2.68068 -3.77503 0
M  V30 1538 H 255.699 -5.40332 -6.79951 0
M  V30 1539 H 255.429 -4.41613 -5.32378 0
M  V30 1540 H 256.296 -3.26331 -7.47797 0
M  V30 1541 P 260.258 -2.75334 -8.47391 0
M  V30 1542 O 260.478 -2.44619 -9.90336 0
M  V30 1543 O 261.048 -3.87776 -7.92294 0
M  V30 1544 O 260.508 -1.4459 -7.59357 0
M  V30 1545 C 259.568 -0.347653 -7.69315 0
M  V30 1546 C 260.298 0.96767 -7.52806 0
M  V30 1547 O 260.508 1.21055 -6.10208 0
M  V30 1548 C 261.698 1.04557 -8.13408 0
M  V30 1549 O 262.088 2.38311 -8.41922 0
M  V30 1550 C 262.578 0.491279 -7.02284 0
M  V30 1551 C 261.868 0.996264 -5.77469 0
M  V30 1552 N 261.918 0.0501916 -4.62973 0
M  V30 1553 H 259.08 -0.374765 -8.67791 0
M  V30 1554 H 258.808 -0.443613 -6.90476 0
M  V30 1555 H 259.676 1.75559 -7.96891 0
M  V30 1556 H 262.331 1.94563 -5.46818 0
M  V30 1557 H 262.611 -0.608651 -7.04676 0
M  V30 1558 H 263.602 0.889796 -7.09039 0
M  V30 1559 H 261.768 0.433128 -9.04664 0
M  V30 1560 P 263.638 2.75334 -8.47391 0
M  V30 1561 O 263.858 3.84128 -9.44797 0
M  V30 1562 O 264.428 1.51947 -8.68712 0
M  V30 1563 O 263.888 3.29363 -6.99321 0
M  V30 1564 C 262.948 4.24011 -6.4274 0
M  V30 1565 C 263.678 5.20775 -5.52155 0
M  V30 1566 O 263.888 4.56534 -4.22446 0
M  V30 1567 C 265.078 5.62629 -5.96531 0
M  V30 1568 O 265.468 6.87667 -5.41053 0
M  V30 1569 C 265.958 4.52537 -5.39283 0
M  V30 1570 C 265.248 4.20027 -4.08623 0
M  V30 1571 N 265.298 2.76189 -3.71603 0
M  V30 1572 C 265.218 1.64862 -4.52822 0
M  V30 1573 N 265.298 0.512671 -3.88633 0
M  V30 1574 C 265.438 0.888083 -2.54977 0
M  V30 1575 C 265.568 0.094668 -1.38677 0
M  V30 1576 O 265.588 -1.13053 -1.28163 0
M  V30 1577 N 265.688 0.890102 -0.232633 0
M  V30 1578 C 265.688 2.26958 -0.21772 0
M  V30 1579 N 265.818 2.84626 0.97925 0
M  V30 1580 N 265.558 3.0178 -1.31033 0
M  V30 1581 C 265.438 2.26781 -2.43843 0
M  V30 1582 H 262.459 4.797 -7.24003 0
M  V30 1583 H 262.189 3.69856 -5.84513 0
M  V30 1584 H 263.056 6.10356 -5.41441 0
M  V30 1585 H 265.711 4.79061 -3.27488 0
M  V30 1586 H 265.99 3.64906 -6.05785 0
M  V30 1587 H 266.982 4.8868 -5.2125 0
M  V30 1588 H 265.148 5.66726 -7.06352 0
M  V30 1589 H 265.099 1.71169 -5.60966 0
M  V30 1590 H 265.781 0.419134 0.644739 0
M  V30 1591 H 265.818 3.87332 1.06098 0
M  V30 1592 H 265.919 2.26417 1.82483 0
M  V30 1593 P 267.018 7.20834 -5.23717 0
M  V30 1594 O 267.238 8.66274 -5.38678 0
M  V30 1595 O 267.808 6.33687 -6.13629 0
M  V30 1596 O 267.268 6.7751 -3.72168 0
M  V30 1597 C 266.328 7.20919 -2.70795 0
M  V30 1598 C 267.058 7.45864 -1.40599 0
M  V30 1599 O 267.268 6.17751 -0.734343 0
M  V30 1600 C 268.458 8.05906 -1.51917 0
M  V30 1601 O 268.848 8.74358 -0.335205 0
M  V30 1602 C 269.338 6.83093 -1.70294 0
M  V30 1603 C 268.628 5.79992 -0.836974 0
M  V30 1604 N 268.678 4.41864 -1.38293 0
M  V30 1605 H 265.84 8.13738 -3.03804 0
M  V30 1606 H 265.568 6.42974 -2.55559 0
M  V30 1607 H 266.436 8.12139 -0.792866 0
M  V30 1608 H 269.091 5.80178 0.160643 0
M  V30 1609 H 269.371 6.51379 -2.75643 0
M  V30 1610 H 270.362 7.01832 -1.3448 0
M  V30 1611 H 268.528 8.73771 -2.38364 0
M  V30 1612 P 270.398 8.91 8.68872e-13 0
M  V30 1613 O 270.618 10.1726 0.733694 0
M  V30 1614 O 271.188 8.73148 -1.23936 0
M  V30 1615 O 270.648 7.66872 0.971405 0
M  V30 1616 C 269.708 7.42309 2.04641 0
M  V30 1617 C 270.438 6.86059 3.24661 0
M  V30 1618 O 270.648 5.42847 3.03646 0
M  V30 1619 C 271.838 7.41196 3.50753 0
M  V30 1620 O 272.228 7.27073 4.86816 0
M  V30 1621 C 272.718 6.5273 2.63741 0
M  V30 1622 C 272.008 5.1842 2.73198 0
M  V30 1623 N 272.058 4.38762 1.4784 0
M  V30 1624 C 271.978 4.81605 0.168631 0
M  V30 1625 N 272.058 3.85454 -0.713363 0
M  V30 1626 C 272.198 2.6994 0.0566958 0
M  V30 1627 C 272.328 1.34815 -0.338502 0
M  V30 1628 N 272.448 0.496304 0.77465 0
M  V30 1629 C 272.448 0.908403 2.09122 0
M  V30 1630 N 272.578 -0.0517805 3.00955 0
M  V30 1631 N 272.318 2.17875 2.46519 0
M  V30 1632 C 272.198 3.01988 1.4033 0
M  V30 1633 H 269.219 8.36803 2.32493 0
M  V30 1634 H 268.949 6.70197 1.71129 0
M  V30 1635 H 269.816 7.03551 4.13168 0
M  V30 1636 P 273.778 7.20834 5.23717 0
M  V30 1637 O 273.998 7.7993 6.57351 0
M  V30 1638 O 274.568 7.79328 4.13004 0
M  V30 1639 O 274.028 5.63315 5.29344 0
M  V30 1640 C 273.088 4.80193 6.01798 0
M  V30 1641 C 273.818 3.64202 6.65911 0
M  V30 1642 O 274.028 2.60694 5.64732 0
M  V30 1643 C 275.218 3.93473 7.1943 0
M  V30 1644 O 275.608 3.02071 8.21205 0
M  V30 1645 C 276.098 3.73047 5.97036 0
M  V30 1646 C 275.388 2.58828 5.25741 0
M  V30 1647 N 275.438 2.6801 3.77422 0
M  V30 1648 C 275.588 1.50443 3.07133 0
M  V30 1649 O 275.678 0.419406 3.61576 0
M  V30 1650 N 275.628 1.6403 1.69677 0
M  V30 1651 C 275.538 2.81206 0.986255 0
M  V30 1652 C 275.388 3.99158 1.80325 0
M  V30 1653 C 275.338 3.89779 3.1476 0
M  V30 1654 H 272.598 5.40332 6.79951 0
M  V30 1655 H 272.329 4.41549 5.32301 0
M  V30 1656 H 273.196 3.26331 7.47797 0
M  V30 1657 H 275.851 1.6395 5.56554 0
M  V30 1658 H 276.13 4.63439 5.3432 0
M  V30 1659 H 277.122 3.44728 6.25838 0
M  V30 1660 H 275.288 4.96652 7.57263 0
M  V30 1661 H 275.217 4.80159 3.74441 0
M  V30 1662 P 277.158 2.75334 8.47391 0
M  V30 1663 O 277.378 2.44571 9.90142 0
M  V30 1664 O 277.948 3.87688 7.92115 0
M  V30 1665 O 277.408 1.4459 7.59357 0
M  V30 1666 C 276.468 0.347608 7.69215 0
M  V30 1667 C 277.198 -0.96767 7.52806 0
M  V30 1668 O 277.408 -1.21036 6.1011 0
M  V30 1669 C 278.598 -1.04544 8.13308 0
M  V30 1670 O 278.988 -2.38311 8.41922 0
M  V30 1671 C 279.478 -0.491279 7.02284 0
M  V30 1672 C 278.768 -0.996264 5.77469 0
M  V30 1673 N 278.818 -0.0501916 4.62973 0
M  V30 1674 H 275.979 0.374722 8.67691 0
M  V30 1675 H 275.709 0.443485 6.90277 0
M  V30 1676 H 276.576 -1.75537 7.96793 0
M  V30 1677 P 280.538 -2.75334 8.47391 0
M  V30 1678 O 280.758 -3.84128 9.44797 0
M  V30 1679 O 281.328 -1.51947 8.68712 0
M  V30 1680 O 280.788 -3.29363 6.99321 0
M  V30 1681 C 279.848 -4.24011 6.4274 0
M  V30 1682 C 280.578 -5.20775 5.52155 0
M  V30 1683 O 280.788 -4.56534 4.22446 0
M  V30 1684 C 281.978 -5.62629 5.96531 0
M  V30 1685 O 282.368 -6.87667 5.41053 0
M  V30 1686 C 282.858 -4.52537 5.39283 0
M  V30 1687 C 282.148 -4.20027 4.08623 0
M  V30 1688 N 282.198 -2.76189 3.71603 0
M  V30 1689 H 279.359 -4.797 7.24003 0
M  V30 1690 H 279.089 -3.69856 5.84513 0
M  V30 1691 H 279.956 -6.10356 5.41441 0
M  V30 1692 P 283.918 -7.20834 5.23717 0
M  V30 1693 O 284.138 -8.66104 5.38572 0
M  V30 1694 O 284.708 -6.33544 6.1349 0
M  V30 1695 O 284.168 -6.7751 3.72168 0
M  V30 1696 C 283.228 -7.20825 2.7076 0
M  V30 1697 C 283.958 -7.45864 1.40599 0
M  V30 1698 O 284.168 -6.17651 0.734225 0
M  V30 1699 C 285.358 -8.05808 1.51899 0
M  V30 1700 O 285.748 -8.74358 0.335205 0
M  V30 1701 C 286.238 -6.83093 1.70294 0
M  V30 1702 C 285.528 -5.79992 0.836974 0
M  V30 1703 N 285.578 -4.41864 1.38293 0
M  V30 1704 H 282.739 -8.13644 3.0377 0
M  V30 1705 H 282.469 -6.42788 2.55485 0
M  V30 1706 H 283.336 -8.12039 0.792769 0
M  V30 1707 P 287.298 -8.91 -1.02605e-12 0
M  V30 1708 O 287.518 -10.1726 -0.733694 0
M  V30 1709 O 288.088 -8.73148 1.23936 0
M  V30 1710 O 287.548 -7.66872 -0.971405 0
M  V30 1711 C 286.608 -7.42309 -2.04641 0
M  V30 1712 C 287.338 -6.86059 -3.24661 0
M  V30 1713 O 287.548 -5.42847 -3.03646 0
M  V30 1714 C 288.738 -7.41196 -3.50753 0
M  V30 1715 O 289.128 -7.27073 -4.86816 0
M  V30 1716 C 289.618 -6.5273 -2.63741 0
M  V30 1717 C 288.908 -5.1842 -2.73198 0
M  V30 1718 N 288.958 -4.38762 -1.4784 0
M  V30 1719 H 286.119 -8.36803 -2.32493 0
M  V30 1720 H 285.849 -6.70197 -1.71129 0
M  V30 1721 H 286.716 -7.03551 -4.13168 0
M  V30 1722 P 290.678 -7.20834 -5.23717 0
M  V30 1723 O 290.898 -7.79853 -6.57286 0
M  V30 1724 O 291.468 -7.79239 -4.12957 0
M  V30 1725 O 290.928 -5.63315 -5.29344 0
M  V30 1726 C 289.988 -4.80255 -6.01876 0
M  V30 1727 C 290.718 -3.64202 -6.65911 0
M  V30 1728 O 290.928 -2.60694 -5.64732 0
M  V30 1729 C 292.118 -3.93473 -7.1943 0
M  V30 1730 O 292.508 -3.02071 -8.21205 0
M  V30 1731 C 292.998 -3.73047 -5.97036 0
M  V30 1732 C 292.288 -2.58828 -5.25741 0
M  V30 1733 N 292.338 -2.68068 -3.77503 0
M  V30 1734 H 289.499 -5.40332 -6.79951 0
M  V30 1735 H 289.229 -4.41613 -5.32378 0
M  V30 1736 H 290.096 -3.26331 -7.47797 0
M  V30 1737 P 294.058 -2.75334 -8.47391 0
M  V30 1738 O 294.278 -2.44571 -9.90142 0
M  V30 1739 O 294.848 -3.87688 -7.92115 0
M  V30 1740 O 294.308 -1.4459 -7.59357 0
M  V30 1741 C 293.368 -0.347608 -7.69215 0
M  V30 1742 C 294.098 0.96767 -7.52806 0
M  V30 1743 O 294.308 1.21036 -6.1011 0
M  V30 1744 C 295.498 1.04544 -8.13308 0
M  V30 1745 O 295.888 2.38311 -8.41922 0
M  V30 1746 C 296.378 0.491279 -7.02284 0
M  V30 1747 C 295.668 0.996264 -5.77469 0
M  V30 1748 N 295.718 0.0501916 -4.62973 0
M  V30 1749 H 292.879 -0.374722 -8.67691 0
M  V30 1750 H 292.609 -0.443485 -6.90277 0
M  V30 1751 H 293.476 1.75537 -7.96793 0
M  V30 1752 P 297.438 2.75334 -8.47391 0
M  V30 1753 O 297.658 3.84204 -9.44982 0
M  V30 1754 O 298.228 1.51982 -8.68909 0
M  V30 1755 O 297.688 3.29363 -6.99321 0
M  V30 1756 C 296.748 4.24066 -6.42823 0
M  V30 1757 C 297.478 5.20775 -5.52155 0
M  V30 1758 O 297.688 4.56607 -4.22514 0
M  V30 1759 C 298.878 5.62697 -5.96604 0
M  V30 1760 O 299.268 6.87667 -5.41053 0
M  V30 1761 C 299.758 4.52537 -5.39283 0
M  V30 1762 C 299.048 4.20027 -4.08623 0
M  V30 1763 N 299.098 2.76189 -3.71603 0
M  V30 1764 H 296.26 4.79756 -7.24086 0
M  V30 1765 H 295.988 3.69963 -5.84682 0
M  V30 1766 H 296.856 6.10431 -5.41508 0
M  V30 1767 H 299.511 4.78816 -3.28024 0
M  V30 1768 H 299.791 3.64957 -6.05871 0
M  V30 1769 H 300.782 4.88748 -5.21323 0
M  V30 1770 H 298.948 5.66789 -7.0643 0
M  V30 1771 P 300.818 7.20834 -5.23717 0
M  V30 1772 O 301.038 8.66104 -5.38572 0
M  V30 1773 O 301.608 6.33544 -6.1349 0
M  V30 1774 O 301.068 6.7751 -3.72168 0
M  V30 1775 C 300.128 7.20825 -2.7076 0
M  V30 1776 C 300.858 7.45864 -1.40599 0
M  V30 1777 O 301.068 6.17651 -0.734225 0
M  V30 1778 C 302.258 8.05808 -1.51899 0
M  V30 1779 O 302.648 8.74358 -0.335205 0
M  V30 1780 C 303.138 6.83093 -1.70294 0
M  V30 1781 C 302.428 5.79992 -0.836974 0
M  V30 1782 N 302.478 4.41864 -1.38293 0
M  V30 1783 C 302.398 3.99538 -2.69438 0
M  V30 1784 N 302.478 2.69909 -2.84277 0
M  V30 1785 C 302.618 2.21719 -1.5408 0
M  V30 1786 C 302.748 0.891712 -1.06628 0
M  V30 1787 N 302.868 0.856846 0.334985 0
M  V30 1788 C 302.868 1.9641 1.15789 0
M  V30 1789 N 302.998 1.72708 2.46522 0
M  V30 1790 N 302.738 3.21165 0.713741 0
M  V30 1791 C 302.618 3.26797 -0.639748 0
M  V30 1792 H 299.639 8.13644 -3.0377 0
M  V30 1793 H 299.369 6.42788 -2.55485 0
M  V30 1794 H 300.236 8.12039 -0.792769 0
M  V30 1795 P 304.198 8.91 1.18324e-12 0
M  V30 1796 O 304.418 10.1736 0.733766 0
M  V30 1797 O 304.988 8.73247 -1.2395 0
M  V30 1798 O 304.448 7.66872 0.971405 0
M  V30 1799 C 303.508 7.42212 2.04614 0
M  V30 1800 C 304.238 6.86059 3.24661 0
M  V30 1801 O 304.448 5.42847 3.03646 0
M  V30 1802 C 305.638 7.41196 3.50753 0
M  V30 1803 O 306.028 7.27073 4.86816 0
M  V30 1804 C 306.518 6.5273 2.63741 0
M  V30 1805 C 305.808 5.1842 2.73198 0
M  V30 1806 N 305.858 4.38668 1.47808 0
M  V30 1807 C 306.008 3.02239 1.60048 0
M  V30 1808 O 306.098 2.46459 2.67869 0
M  V30 1809 N 306.048 2.32436 0.408571 0
M  V30 1810 C 305.958 2.85471 -0.854993 0
M  V30 1811 O 306.008 2.12566 -1.8531 0
M  V30 1812 C 305.808 4.28918 -0.887335 0
M  V30 1813 C 305.698 4.91066 -2.24619 0
M  V30 1814 C 305.758 5.00349 0.255399 0
M  V30 1815 H 303.018 8.36803 2.32493 0
M  V30 1816 H 302.749 6.701 1.71105 0
M  V30 1817 H 303.616 7.03551 4.13168 0
M  V30 1818 H 306.271 4.59773 3.53894 0
M  V30 1819 H 306.55 6.88995 1.59871 0
M  V30 1820 H 307.542 6.46749 3.03687 0
M  V30 1821 H 305.708 8.46908 3.20714 0
M  V30 1822 H 305.637 6.08548 0.206986 0
M  V30 1823 H 306.667 5.34836 -2.53099 0
M  V30 1824 H 304.93 5.69638 -2.2291 0
M  V30 1825 H 305.418 4.13971 -2.98044 0
M  V30 1826 H 306.154 1.33211 0.474216 0
M  V30 1827 P 307.578 7.20834 5.23717 0
M  V30 1828 O 307.798 7.79853 6.57286 0
M  V30 1829 O 308.368 7.79239 4.12957 0
M  V30 1830 O 307.828 5.63315 5.29344 0
M  V30 1831 C 306.888 4.80255 6.01876 0
M  V30 1832 C 307.618 3.64202 6.65911 0
M  V30 1833 O 307.828 2.60694 5.64732 0
M  V30 1834 C 309.018 3.93473 7.1943 0
M  V30 1835 O 309.408 3.02071 8.21205 0
M  V30 1836 C 309.898 3.73047 5.97036 0
M  V30 1837 C 309.188 2.58828 5.25741 0
M  V30 1838 N 309.238 2.68068 3.77503 0
M  V30 1839 H 306.399 5.40332 6.79951 0
M  V30 1840 H 306.129 4.41613 5.32378 0
M  V30 1841 H 306.996 3.26331 7.47797 0
M  V30 1842 P 310.958 2.75334 8.47391 0
M  V30 1843 O 311.178 2.44619 9.90336 0
M  V30 1844 O 311.748 3.87776 7.92294 0
M  V30 1845 O 311.208 1.4459 7.59357 0
M  V30 1846 C 310.268 0.347653 7.69315 0
M  V30 1847 C 310.998 -0.96767 7.52806 0
M  V30 1848 O 311.208 -1.21055 6.10208 0
M  V30 1849 C 312.398 -1.04557 8.13408 0
M  V30 1850 O 312.788 -2.38311 8.41922 0
M  V30 1851 C 313.278 -0.491279 7.02284 0
M  V30 1852 C 312.568 -0.996264 5.77469 0
M  V30 1853 N 312.618 -0.0501916 4.62973 0
M  V30 1854 H 309.78 0.374765 8.67791 0
M  V30 1855 H 309.508 0.443613 6.90476 0
M  V30 1856 H 310.376 -1.75559 7.96891 0
M  V30 1857 H 313.031 -1.94563 5.46818 0
M  V30 1858 H 313.311 0.608651 7.04676 0
M  V30 1859 H 314.302 -0.889796 7.09039 0
M  V30 1860 H 312.468 -0.433128 9.04664 0
M  V30 1861 P 314.338 -2.75334 8.47391 0
M  V30 1862 O 314.558 -3.84128 9.44797 0
M  V30 1863 O 315.128 -1.51947 8.68712 0
M  V30 1864 O 314.588 -3.29363 6.99321 0
M  V30 1865 C 313.648 -4.24011 6.4274 0
M  V30 1866 C 314.378 -5.20775 5.52155 0
M  V30 1867 O 314.588 -4.56534 4.22446 0
M  V30 1868 C 315.778 -5.62629 5.96531 0
M  V30 1869 O 316.168 -6.87667 5.41053 0
M  V30 1870 C 316.658 -4.52537 5.39283 0
M  V30 1871 C 315.948 -4.20027 4.08623 0
M  V30 1872 N 315.998 -2.76189 3.71603 0
M  V30 1873 H 313.159 -4.797 7.24003 0
M  V30 1874 H 312.889 -3.69856 5.84513 0
M  V30 1875 H 313.756 -6.10356 5.41441 0
M  V30 1876 P 317.718 -7.20834 5.23717 0
M  V30 1877 O 317.938 -8.66274 5.38678 0
M  V30 1878 O 318.508 -6.33687 6.13629 0
M  V30 1879 O 317.968 -6.7751 3.72168 0
M  V30 1880 C 317.028 -7.20919 2.70795 0
M  V30 1881 C 317.758 -7.45864 1.40599 0
M  V30 1882 O 317.968 -6.17751 0.734343 0
M  V30 1883 C 319.158 -8.05906 1.51917 0
M  V30 1884 O 319.548 -8.74358 0.335205 0
M  V30 1885 C 320.038 -6.83093 1.70294 0
M  V30 1886 C 319.328 -5.79992 0.836974 0
M  V30 1887 N 319.378 -4.41864 1.38293 0
M  V30 1888 H 316.54 -8.13738 3.03804 0
M  V30 1889 H 316.268 -6.42974 2.55559 0
M  V30 1890 H 317.136 -8.12139 0.792866 0
M  V30 1891 H 319.791 -5.80178 -0.160643 0
M  V30 1892 H 320.071 -6.51379 2.75643 0
M  V30 1893 H 321.062 -7.01832 1.3448 0
M  V30 1894 H 319.228 -8.73771 2.38364 0
M  V30 1895 P 321.098 -8.91 -1.34042e-12 0
M  V30 1896 O 321.318 -10.1726 -0.733694 0
M  V30 1897 O 321.888 -8.73148 1.23936 0
M  V30 1898 O 321.348 -7.66872 -0.971405 0
M  V30 1899 C 320.408 -7.42309 -2.04641 0
M  V30 1900 C 321.138 -6.86059 -3.24661 0
M  V30 1901 O 321.348 -5.42847 -3.03646 0
M  V30 1902 C 322.538 -7.41196 -3.50753 0
M  V30 1903 O 322.928 -7.27073 -4.86816 0
M  V30 1904 C 323.418 -6.5273 -2.63741 0
M  V30 1905 C 322.708 -5.1842 -2.73198 0
M  V30 1906 N 322.758 -4.38762 -1.4784 0
M  V30 1907 H 319.919 -8.36803 -2.32493 0
M  V30 1908 H 319.649 -6.70197 -1.71129 0
M  V30 1909 H 320.516 -7.03551 -4.13168 0
M  V30 1910 P 324.478 -7.20834 -5.23717 0
M  V30 1911 O 324.698 -7.79853 -6.57286 0
M  V30 1912 O 325.268 -7.79239 -4.12957 0
M  V30 1913 O 324.728 -5.63315 -5.29344 0
M  V30 1914 C 323.788 -4.80255 -6.01876 0
M  V30 1915 C 324.518 -3.64202 -6.65911 0
M  V30 1916 O 324.728 -2.60694 -5.64732 0
M  V30 1917 C 325.918 -3.93473 -7.1943 0
M  V30 1918 O 326.308 -3.02071 -8.21205 0
M  V30 1919 C 326.798 -3.73047 -5.97036 0
M  V30 1920 C 326.088 -2.58828 -5.25741 0
M  V30 1921 N 326.138 -2.68068 -3.77503 0
M  V30 1922 H 323.299 -5.40332 -6.79951 0
M  V30 1923 H 323.029 -4.41613 -5.32378 0
M  V30 1924 H 323.896 -3.26331 -7.47797 0
M  V30 1925 P 327.858 -2.75334 -8.47391 0
M  V30 1926 O 328.078 -2.44571 -9.90142 0
M  V30 1927 O 328.648 -3.87688 -7.92115 0
M  V30 1928 O 328.108 -1.4459 -7.59357 0
M  V30 1929 C 327.168 -0.347608 -7.69215 0
M  V30 1930 C 327.898 0.96767 -7.52806 0
M  V30 1931 O 328.108 1.21036 -6.1011 0
M  V30 1932 C 329.298 1.04544 -8.13308 0
M  V30 1933 O 329.688 2.38311 -8.41922 0
M  V30 1934 C 330.178 0.491279 -7.02284 0
M  V30 1935 C 329.468 0.996264 -5.77469 0
M  V30 1936 N 329.518 0.0501916 -4.62973 0
M  V30 1937 H 326.679 -0.374722 -8.67691 0
M  V30 1938 H 326.409 -0.443485 -6.90277 0
M  V30 1939 H 327.276 1.75537 -7.96793 0
M  V30 1940 P 331.238 2.75334 -8.47391 0
M  V30 1941 O 331.458 3.84204 -9.44982 0
M  V30 1942 O 332.028 1.51982 -8.68909 0
M  V30 1943 O 331.488 3.29363 -6.99321 0
M  V30 1944 C 330.548 4.24066 -6.42823 0
M  V30 1945 C 331.278 5.20775 -5.52155 0
M  V30 1946 O 331.488 4.56607 -4.22514 0
M  V30 1947 C 332.678 5.62697 -5.96604 0
M  V30 1948 O 333.068 6.87667 -5.41053 0
M  V30 1949 C 333.558 4.52537 -5.39283 0
M  V30 1950 C 332.848 4.20027 -4.08623 0
M  V30 1951 N 332.898 2.76189 -3.71603 0
M  V30 1952 H 330.06 4.79756 -7.24086 0
M  V30 1953 H 329.788 3.69963 -5.84682 0
M  V30 1954 H 330.656 6.10431 -5.41508 0
M  V30 1955 H 333.311 4.78816 -3.28024 0
M  V30 1956 H 333.591 3.64957 -6.05871 0
M  V30 1957 H 334.582 4.88748 -5.21323 0
M  V30 1958 H 332.748 5.66789 -7.0643 0
M  V30 1959 P 334.618 7.20834 -5.23717 0
M  V30 1960 O 334.838 8.66104 -5.38572 0
M  V30 1961 O 335.408 6.33544 -6.1349 0
M  V30 1962 O 334.868 6.7751 -3.72168 0
M  V30 1963 C 333.928 7.20825 -2.7076 0
M  V30 1964 C 334.658 7.45864 -1.40599 0
M  V30 1965 O 334.868 6.17651 -0.734225 0
M  V30 1966 C 336.058 8.05808 -1.51899 0
M  V30 1967 O 336.448 8.74358 -0.335205 0
M  V30 1968 C 336.938 6.83093 -1.70294 0
M  V30 1969 C 336.228 5.79992 -0.836974 0
M  V30 1970 N 336.278 4.41864 -1.38293 0
M  V30 1971 H 333.439 8.13644 -3.0377 0
M  V30 1972 H 333.169 6.42788 -2.55485 0
M  V30 1973 H 334.036 8.12039 -0.792769 0
M  V30 1974 P 337.998 8.91 1.4976e-12 0
M  V30 1975 O 338.218 10.1726 0.733694 0
M  V30 1976 O 338.788 8.73148 -1.23936 0
M  V30 1977 O 338.248 7.66872 0.971405 0
M  V30 1978 C 337.308 7.42309 2.04641 0
M  V30 1979 C 338.038 6.86059 3.24661 0
M  V30 1980 O 338.248 5.42847 3.03646 0
M  V30 1981 C 339.438 7.41196 3.50753 0
M  V30 1982 O 339.828 7.27073 4.86816 0
M  V30 1983 C 340.318 6.5273 2.63741 0
M  V30 1984 C 339.608 5.1842 2.73198 0
M  V30 1985 N 339.658 4.38762 1.4784 0
M  V30 1986 C 339.578 4.81605 0.168631 0
M  V30 1987 N 339.658 3.85454 -0.713363 0
M  V30 1988 C 339.798 2.6994 0.0566958 0
M  V30 1989 C 339.928 1.34815 -0.338502 0
M  V30 1990 O 339.948 0.869548 -1.47125 0
M  V30 1991 N 340.048 0.496304 0.77465 0
M  V30 1992 C 340.048 0.908403 2.09122 0
M  V30 1993 N 340.178 -0.0517805 3.00955 0
M  V30 1994 N 339.918 2.17875 2.46519 0
M  V30 1995 C 339.798 3.01988 1.4033 0
M  V30 1996 H 336.819 8.36803 2.32493 0
M  V30 1997 H 336.549 6.70197 1.71129 0
M  V30 1998 H 337.416 7.03551 4.13168 0
M  V30 1999 H 340.071 4.59498 3.54415 0
M  V30 2000 H 340.35 6.88898 1.59848 0
M  V30 2001 H 341.342 6.46749 3.03687 0
M  V30 2002 H 339.508 8.46908 3.20714 0
M  V30 2003 H 339.459 5.86405 -0.105564 0
M  V30 2004 H 340.141 -0.483664 0.597855 0
M  V30 2005 H 340.178 0.187865 4.0116 0
M  V30 2006 H 340.279 -1.03585 2.71726 0
M  V30 2007 P 341.378 7.20834 5.23717 0
M  V30 2008 O 341.598 7.79853 6.57286 0
M  V30 2009 O 342.168 7.79239 4.12957 0
M  V30 2010 O 341.628 5.63315 5.29344 0
M  V30 2011 C 340.688 4.80255 6.01876 0
M  V30 2012 C 341.418 3.64202 6.65911 0
M  V30 2013 O 341.628 2.60694 5.64732 0
M  V30 2014 C 342.818 3.93473 7.1943 0
M  V30 2015 O 343.208 3.02071 8.21205 0
M  V30 2016 C 343.698 3.73047 5.97036 0
M  V30 2017 C 342.988 2.58828 5.25741 0
M  V30 2018 N 343.038 2.68068 3.77503 0
M  V30 2019 H 340.199 5.40332 6.79951 0
M  V30 2020 H 339.929 4.41613 5.32378 0
M  V30 2021 H 340.796 3.26331 7.47797 0
M  V30 2022 P 344.758 2.75334 8.47391 0
M  V30 2023 O 344.978 2.44571 9.90142 0
M  V30 2024 O 345.548 3.87688 7.92115 0
M  V30 2025 O 345.008 1.4459 7.59357 0
M  V30 2026 C 344.068 0.347608 7.69215 0
M  V30 2027 C 344.798 -0.96767 7.52806 0
M  V30 2028 O 345.008 -1.21036 6.1011 0
M  V30 2029 C 346.198 -1.04544 8.13308 0
M  V30 2030 O 346.588 -2.38311 8.41922 0
M  V30 2031 C 347.078 -0.491279 7.02284 0
M  V30 2032 C 346.368 -0.996264 5.77469 0
M  V30 2033 N 346.418 -0.0501916 4.62973 0
M  V30 2034 H 343.579 0.374722 8.67691 0
M  V30 2035 H 343.309 0.443485 6.90277 0
M  V30 2036 H 344.176 -1.75537 7.96793 0
M  V30 2037 P 348.138 -2.75334 8.47391 0
M  V30 2038 O 348.358 -3.84128 9.44797 0
M  V30 2039 O 348.928 -1.51947 8.68712 0
M  V30 2040 O 348.388 -3.29363 6.99321 0
M  V30 2041 C 347.448 -4.24011 6.4274 0
M  V30 2042 C 348.178 -5.20775 5.52155 0
M  V30 2043 O 348.388 -4.56534 4.22446 0
M  V30 2044 C 349.578 -5.62629 5.96531 0
M  V30 2045 O 349.968 -6.87667 5.41053 0
M  V30 2046 C 350.458 -4.52537 5.39283 0
M  V30 2047 C 349.748 -4.20027 4.08623 0
M  V30 2048 N 349.798 -2.76189 3.71603 0
M  V30 2049 H 346.959 -4.797 7.24003 0
M  V30 2050 H 346.689 -3.69856 5.84513 0
M  V30 2051 H 347.556 -6.10356 5.41441 0
M  V30 2052 P 351.518 -7.20834 5.23717 0
M  V30 2053 O 351.738 -8.66274 5.38678 0
M  V30 2054 O 352.308 -6.33687 6.13629 0
M  V30 2055 O 351.768 -6.7751 3.72168 0
M  V30 2056 C 350.828 -7.20919 2.70795 0
M  V30 2057 C 351.558 -7.45864 1.40599 0
M  V30 2058 O 351.768 -6.17751 0.734343 0
M  V30 2059 C 352.958 -8.05906 1.51917 0
M  V30 2060 O 353.348 -8.74358 0.335205 0
M  V30 2061 C 353.838 -6.83093 1.70294 0
M  V30 2062 C 353.128 -5.79992 0.836974 0
M  V30 2063 N 353.178 -4.41864 1.38293 0
M  V30 2064 C 353.098 -4.02089 2.69407 0
M  V30 2065 N 353.168 -2.73403 2.85089 0
M  V30 2066 C 353.318 -2.25086 1.5642 0
M  V30 2067 C 353.448 -0.942887 1.04836 0
M  V30 2068 N 353.458 0.150999 1.80369 0
M  V30 2069 N 353.568 -0.812565 -0.28167 0
M  V30 2070 C 353.558 -1.90572 -1.03784 0
M  V30 2071 N 353.438 -3.167 -0.683905 0
M  V30 2072 C 353.318 -3.26538 0.652815 0
M  V30 2073 H 350.34 -8.13738 3.03804 0
M  V30 2074 H 350.068 -6.42974 2.55559 0
M  V30 2075 H 350.936 -8.12139 0.792866 0
M  V30 2076 H 353.591 -5.80178 -0.160643 0
M  V30 2077 H 353.871 -6.51379 2.75643 0
M  V30 2078 H 354.862 -7.01832 1.3448 0
M  V30 2079 H 353.028 -8.73771 2.38364 0
M  V30 2080 H 352.987 -4.7189 3.52311 0
M  V30 2081 H 353.368 0.0721434 2.82608 0
M  V30 2082 H 353.557 1.0785 1.36544 0
M  V30 2083 H 353.665 -1.73207 -2.10241 0
M  V30 2084 P 354.898 -8.91 -1.65478e-12 0
M  V30 2085 O 355.118 -10.1726 -0.733694 0
M  V30 2086 O 355.688 -8.73148 1.23936 0
M  V30 2087 O 355.148 -7.66872 -0.971405 0
M  V30 2088 C 354.208 -7.42309 -2.04641 0
M  V30 2089 C 354.938 -6.86059 -3.24661 0
M  V30 2090 O 355.148 -5.42847 -3.03646 0
M  V30 2091 C 356.338 -7.41196 -3.50753 0
M  V30 2092 O 356.728 -7.27073 -4.86816 0
M  V30 2093 C 357.218 -6.5273 -2.63741 0
M  V30 2094 C 356.508 -5.1842 -2.73198 0
M  V30 2095 N 356.558 -4.38762 -1.4784 0
M  V30 2096 H 353.719 -8.36803 -2.32493 0
M  V30 2097 H 353.449 -6.70197 -1.71129 0
M  V30 2098 H 354.316 -7.03551 -4.13168 0
M  V30 2099 P 358.278 -7.20834 -5.23717 0
M  V30 2100 O 358.498 -7.79853 -6.57286 0
M  V30 2101 O 359.068 -7.79239 -4.12957 0
M  V30 2102 O 358.528 -5.63315 -5.29344 0
M  V30 2103 C 357.588 -4.80255 -6.01876 0
M  V30 2104 C 358.318 -3.64202 -6.65911 0
M  V30 2105 O 358.528 -2.60694 -5.64732 0
M  V30 2106 C 359.718 -3.93473 -7.1943 0
M  V30 2107 O 360.108 -3.02071 -8.21205 0
M  V30 2108 C 360.598 -3.73047 -5.97036 0
M  V30 2109 C 359.888 -2.58828 -5.25741 0
M  V30 2110 N 359.938 -2.68068 -3.77503 0
M  V30 2111 H 357.099 -5.40332 -6.79951 0
M  V30 2112 H 356.829 -4.41613 -5.32378 0
M  V30 2113 H 357.696 -3.26331 -7.47797 0
M  V30 2114 P 361.658 -2.75334 -8.47391 0
M  V30 2115 O 361.878 -2.44619 -9.90336 0
M  V30 2116 O 362.448 -3.87776 -7.92294 0
M  V30 2117 O 361.908 -1.4459 -7.59357 0
M  V30 2118 C 360.968 -0.347653 -7.69315 0
M  V30 2119 C 361.698 0.96767 -7.52806 0
M  V30 2120 O 361.908 1.21055 -6.10208 0
M  V30 2121 C 363.098 1.04557 -8.13408 0
M  V30 2122 O 363.488 2.38311 -8.41922 0
M  V30 2123 C 363.978 0.491279 -7.02284 0
M  V30 2124 C 363.268 0.996264 -5.77469 0
M  V30 2125 N 363.318 0.0501916 -4.62973 0
M  V30 2126 C 363.238 -1.31969 -4.65661 0
M  V30 2127 N 363.308 -1.86649 -3.48119 0
M  V30 2128 C 363.458 -0.792089 -2.62406 0
M  V30 2129 C 363.588 -0.705684 -1.2207 0
M  V30 2130 N 363.598 -1.76207 -0.413762 0
M  V30 2131 N 363.708 0.518981 -0.685754 0
M  V30 2132 C 363.698 1.57595 -1.49174 0
M  V30 2133 N 363.578 1.62909 -2.80066 0
M  V30 2134 C 363.458 0.388195 -3.3073 0
M  V30 2135 H 360.48 -0.374765 -8.67791 0
M  V30 2136 H 360.208 -0.443613 -6.90476 0
M  V30 2137 H 361.076 1.75559 -7.96891 0
M  V30 2138 H 363.731 1.94563 -5.46818 0
M  V30 2139 H 364.011 -0.608651 -7.04676 0
M  V30 2140 H 365.002 0.889796 -7.09039 0
M  V30 2141 H 363.168 0.433128 -9.04664 0
M  V30 2142 H 363.127 -1.89246 -5.57664 0
M  V30 2143 H 363.508 -2.71005 -0.804694 0
M  V30 2144 H 363.697 -1.63189 0.603768 0
M  V30 2145 H 363.805 2.53475 -0.997614 0
M  V30 2146 P 365.038 2.75334 -8.47391 0
M  V30 2147 O 365.258 3.84128 -9.44797 0
M  V30 2148 O 365.828 1.51947 -8.68712 0
M  V30 2149 O 365.288 3.29363 -6.99321 0
M  V30 2150 C 364.348 4.24011 -6.4274 0
M  V30 2151 C 365.078 5.20775 -5.52155 0
M  V30 2152 O 365.288 4.56534 -4.22446 0
M  V30 2153 C 366.478 5.62629 -5.96531 0
M  V30 2154 O 366.868 6.87667 -5.41053 0
M  V30 2155 C 367.358 4.52537 -5.39283 0
M  V30 2156 C 366.648 4.20027 -4.08623 0
M  V30 2157 N 366.698 2.76189 -3.71603 0
M  V30 2158 H 363.859 4.797 -7.24003 0
M  V30 2159 H 363.589 3.69856 -5.84513 0
M  V30 2160 H 364.456 6.10356 -5.41441 0
M  V30 2161 P 368.418 7.20834 -5.23717 0
M  V30 2162 O 368.638 8.66104 -5.38572 0
M  V30 2163 O 369.208 6.33544 -6.1349 0
M  V30 2164 O 368.668 6.7751 -3.72168 0
M  V30 2165 C 367.728 7.20825 -2.7076 0
M  V30 2166 C 368.458 7.45864 -1.40599 0
M  V30 2167 O 368.668 6.17651 -0.734225 0
M  V30 2168 C 369.858 8.05808 -1.51899 0
M  V30 2169 O 370.248 8.74358 -0.335205 0
M  V30 2170 C 370.738 6.83093 -1.70294 0
M  V30 2171 C 370.028 5.79992 -0.836974 0
M  V30 2172 N 370.078 4.41864 -1.38293 0
M  V30 2173 H 367.239 8.13644 -3.0377 0
M  V30 2174 H 366.969 6.42788 -2.55485 0
M  V30 2175 H 367.836 8.12039 -0.792769 0
M  V30 2176 P 371.798 8.91 1.81197e-12 0
M  V30 2177 O 372.018 10.1726 0.733694 0
M  V30 2178 O 372.588 8.73148 -1.23936 0
M  V30 2179 O 372.048 7.66872 0.971405 0
M  V30 2180 C 371.108 7.42309 2.04641 0
M  V30 2181 C 371.838 6.86059 3.24661 0
M  V30 2182 O 372.048 5.42847 3.03646 0
M  V30 2183 C 373.238 7.41196 3.50753 0
M  V30 2184 O 373.628 7.27073 4.86816 0
M  V30 2185 C 374.118 6.5273 2.63741 0
M  V30 2186 C 373.408 5.1842 2.73198 0
M  V30 2187 N 373.458 4.38762 1.4784 0
M  V30 2188 C 373.378 4.81605 0.168631 0
M  V30 2189 N 373.458 3.85454 -0.713363 0
M  V30 2190 C 373.598 2.6994 0.0566958 0
M  V30 2191 C 373.728 1.34815 -0.338502 0
M  V30 2192 O 373.748 0.869548 -1.47125 0
M  V30 2193 N 373.848 0.496304 0.77465 0
M  V30 2194 C 373.848 0.908403 2.09122 0
M  V30 2195 N 373.978 -0.0517805 3.00955 0
M  V30 2196 N 373.718 2.17875 2.46519 0
M  V30 2197 C 373.598 3.01988 1.4033 0
M  V30 2198 H 370.619 8.36803 2.32493 0
M  V30 2199 H 370.349 6.70197 1.71129 0
M  V30 2200 H 371.216 7.03551 4.13168 0
M  V30 2201 H 373.871 4.59498 3.54415 0
M  V30 2202 H 374.15 6.88898 1.59848 0
M  V30 2203 H 375.142 6.46749 3.03687 0
M  V30 2204 H 373.308 8.46908 3.20714 0
M  V30 2205 H 373.259 5.86405 -0.105564 0
M  V30 2206 H 373.941 -0.483664 0.597855 0
M  V30 2207 H 373.978 0.187865 4.0116 0
M  V30 2208 H 374.079 -1.03585 2.71726 0
M  V30 2209 P 375.178 7.20834 5.23717 0
M  V30 2210 O 375.398 7.79853 6.57286 0
M  V30 2211 O 375.968 7.79239 4.12957 0
M  V30 2212 O 375.428 5.63315 5.29344 0
M  V30 2213 C 374.488 4.80255 6.01876 0
M  V30 2214 C 375.218 3.64202 6.65911 0
M  V30 2215 O 375.428 2.60694 5.64732 0
M  V30 2216 C 376.618 3.93473 7.1943 0
M  V30 2217 O 377.008 3.02071 8.21205 0
M  V30 2218 C 377.498 3.73047 5.97036 0
M  V30 2219 C 376.788 2.58828 5.25741 0
M  V30 2220 N 376.838 2.68068 3.77503 0
M  V30 2221 H 373.999 5.40332 6.79951 0
M  V30 2222 H 373.729 4.41613 5.32378 0
M  V30 2223 H 374.596 3.26331 7.47797 0
M  V30 2224 P 378.558 2.75334 8.47391 0
M  V30 2225 O 378.778 2.44571 9.90142 0
M  V30 2226 O 379.348 3.87688 7.92115 0
M  V30 2227 O 378.808 1.4459 7.59357 0
M  V30 2228 C 377.868 0.347608 7.69215 0
M  V30 2229 C 378.598 -0.96767 7.52806 0
M  V30 2230 O 378.808 -1.21036 6.1011 0
M  V30 2231 C 379.998 -1.04544 8.13308 0
M  V30 2232 O 380.388 -2.38311 8.41922 0
M  V30 2233 C 380.878 -0.491279 7.02284 0
M  V30 2234 C 380.168 -0.996264 5.77469 0
M  V30 2235 N 380.218 -0.0501916 4.62973 0
M  V30 2236 H 377.379 0.374722 8.67691 0
M  V30 2237 H 377.109 0.443485 6.90277 0
M  V30 2238 H 377.976 -1.75537 7.96793 0
M  V30 2239 P 381.938 -2.75334 8.47391 0
M  V30 2240 O 382.158 -3.84128 9.44797 0
M  V30 2241 O 382.728 -1.51947 8.68712 0
M  V30 2242 O 382.188 -3.29363 6.99321 0
M  V30 2243 C 381.248 -4.24011 6.4274 0
M  V30 2244 C 381.978 -5.20775 5.52155 0
M  V30 2245 O 382.188 -4.56534 4.22446 0
M  V30 2246 C 383.378 -5.62629 5.96531 0
M  V30 2247 O 383.768 -6.87667 5.41053 0
M  V30 2248 C 384.258 -4.52537 5.39283 0
M  V30 2249 C 383.548 -4.20027 4.08623 0
M  V30 2250 N 383.598 -2.76189 3.71603 0
M  V30 2251 C 383.518 -1.64862 4.52822 0
M  V30 2252 N 383.598 -0.512671 3.88633 0
M  V30 2253 C 383.738 -0.888083 2.54977 0
M  V30 2254 C 383.868 -0.094668 1.38677 0
M  V30 2255 N 383.988 -0.890102 0.232633 0
M  V30 2256 C 383.988 -2.26958 0.21772 0
M  V30 2257 N 384.118 -2.84626 -0.97925 0
M  V30 2258 N 383.858 -3.0178 1.31033 0
M  V30 2259 C 383.738 -2.26781 2.43843 0
M  V30 2260 H 380.759 -4.797 7.24003 0
M  V30 2261 H 380.489 -3.69856 5.84513 0
M  V30 2262 H 381.356 -6.10356 5.41441 0
M  V30 2263 P 385.318 -7.20834 5.23717 0
M  V30 2264 O 385.538 -8.66104 5.38572 0
M  V30 2265 O 386.108 -6.33544 6.1349 0
M  V30 2266 O 385.568 -6.7751 3.72168 0
M  V30 2267 C 384.628 -7.20825 2.7076 0
M  V30 2268 C 385.358 -7.45864 1.40599 0
M  V30 2269 O 385.568 -6.17651 0.734225 0
M  V30 2270 C 386.758 -8.05808 1.51899 0
M  V30 2271 O 387.148 -8.74358 0.335205 0
M  V30 2272 C 387.638 -6.83093 1.70294 0
M  V30 2273 C 386.928 -5.79992 0.836974 0
M  V30 2274 N 386.978 -4.41864 1.38293 0
M  V30 2275 H 384.139 -8.13644 3.0377 0
M  V30 2276 H 383.869 -6.42788 2.55485 0
M  V30 2277 H 384.736 -8.12039 0.792769 0
M  V30 2278 P 388.698 -8.91 -1.96915e-12 0
M  V30 2279 O 388.918 -10.1726 -0.733694 0
M  V30 2280 O 389.488 -8.73148 1.23936 0
M  V30 2281 O 388.948 -7.66872 -0.971405 0
M  V30 2282 C 388.008 -7.42309 -2.04641 0
M  V30 2283 C 388.738 -6.86059 -3.24661 0
M  V30 2284 O 388.948 -5.42847 -3.03646 0
M  V30 2285 C 390.138 -7.41196 -3.50753 0
M  V30 2286 O 390.528 -7.27073 -4.86816 0
M  V30 2287 C 391.018 -6.5273 -2.63741 0
M  V30 2288 C 390.308 -5.1842 -2.73198 0
M  V30 2289 N 390.358 -4.38762 -1.4784 0
M  V30 2290 C 390.278 -4.81605 -0.168631 0
M  V30 2291 N 390.358 -3.85454 0.713363 0
M  V30 2292 C 390.498 -2.6994 -0.0566958 0
M  V30 2293 C 390.628 -1.34815 0.338502 0
M  V30 2294 N 390.748 -0.496304 -0.77465 0
M  V30 2295 C 390.748 -0.908403 -2.09122 0
M  V30 2296 N 390.878 0.0517805 -3.00955 0
M  V30 2297 N 390.618 -2.17875 -2.46519 0
M  V30 2298 C 390.498 -3.01988 -1.4033 0
M  V30 2299 H 387.519 -8.36803 -2.32493 0
M  V30 2300 H 387.249 -6.70197 -1.71129 0
M  V30 2301 H 388.116 -7.03551 -4.13168 0
M  V30 2302 P 392.078 -7.20834 -5.23717 0
M  V30 2303 O 392.298 -7.79853 -6.57286 0
M  V30 2304 O 392.868 -7.79239 -4.12957 0
M  V30 2305 O 392.328 -5.63315 -5.29344 0
M  V30 2306 C 391.388 -4.80255 -6.01876 0
M  V30 2307 C 392.118 -3.64202 -6.65911 0
M  V30 2308 O 392.328 -2.60694 -5.64732 0
M  V30 2309 C 393.518 -3.93473 -7.1943 0
M  V30 2310 O 393.908 -3.02071 -8.21205 0
M  V30 2311 C 394.398 -3.73047 -5.97036 0
M  V30 2312 C 393.688 -2.58828 -5.25741 0
M  V30 2313 N 393.738 -2.68068 -3.77503 0
M  V30 2314 C 393.658 -3.79715 -2.96723 0
M  V30 2315 N 393.738 -3.5377 -1.68852 0
M  V30 2316 C 393.878 -2.15054 -1.63254 0
M  V30 2317 C 394.008 -1.28964 -0.518571 0
M  V30 2318 O 394.028 -1.56826 0.679156 0
M  V30 2319 N 394.128 0.0538097 -0.918425 0
M  V30 2320 C 394.128 0.494275 -2.22578 0
M  V30 2321 N 394.258 1.81086 -2.40434 0
M  V30 2322 N 393.998 -0.313645 -3.27502 0
M  V30 2323 C 393.878 -1.61829 -2.91033 0
M  V30 2324 H 390.899 -5.40332 -6.79951 0
M  V30 2325 H 390.629 -4.41613 -5.32378 0
M  V30 2326 H 391.496 -3.26331 -7.47797 0
M  V30 2327 H 394.151 -1.63422 -5.56814 0
M  V30 2328 H 394.43 -4.63374 -5.34244 0
M  V30 2329 H 395.422 -3.44728 -6.25838 0
M  V30 2330 H 393.588 -4.96652 -7.57263 0
M  V30 2331 H 393.539 -4.80617 -3.3614 0
M  V30 2332 H 394.221 0.742702 -0.199384 0
M  V30 2333 H 394.258 2.20598 -3.35588 0
M  V30 2334 H 394.359 2.43518 -1.58945 0
M  V30 2335 P 395.458 -2.75334 -8.47391 0
M  V30 2336 O 395.678 -2.44571 -9.90142 0
M  V30 2337 O 396.248 -3.87688 -7.92115 0
M  V30 2338 O 395.708 -1.4459 -7.59357 0
M  V30 2339 C 394.768 -0.347608 -7.69215 0
M  V30 2340 C 395.498 0.96767 -7.52806 0
M  V30 2341 O 395.708 1.21036 -6.1011 0
M  V30 2342 C 396.898 1.04544 -8.13308 0
M  V30 2343 O 397.288 2.38311 -8.41922 0
M  V30 2344 C 397.778 0.491279 -7.02284 0
M  V30 2345 C 397.068 0.996264 -5.77469 0
M  V30 2346 N 397.118 0.0501916 -4.62973 0
M  V30 2347 H 394.279 -0.374722 -8.67691 0
M  V30 2348 H 394.009 -0.443485 -6.90277 0
M  V30 2349 H 394.876 1.75537 -7.96793 0
M  V30 2350 P 398.838 2.75334 -8.47391 0
M  V30 2351 O 399.058 3.84128 -9.44797 0
M  V30 2352 O 399.628 1.51947 -8.68712 0
M  V30 2353 O 399.088 3.29363 -6.99321 0
M  V30 2354 C 398.148 4.24011 -6.4274 0
M  V30 2355 C 398.878 5.20775 -5.52155 0
M  V30 2356 O 399.088 4.56534 -4.22446 0
M  V30 2357 C 400.278 5.62629 -5.96531 0
M  V30 2358 O 400.668 6.87667 -5.41053 0
M  V30 2359 C 401.158 4.52537 -5.39283 0
M  V30 2360 C 400.448 4.20027 -4.08623 0
M  V30 2361 N 400.498 2.76189 -3.71603 0
M  V30 2362 H 397.659 4.797 -7.24003 0
M  V30 2363 H 397.389 3.69856 -5.84513 0
M  V30 2364 H 398.256 6.10356 -5.41441 0
M  V30 2365 P 402.218 7.20834 -5.23717 0
M  V30 2366 O 402.438 8.66104 -5.38572 0
M  V30 2367 O 403.008 6.33544 -6.1349 0
M  V30 2368 O 402.468 6.7751 -3.72168 0
M  V30 2369 C 401.528 7.20825 -2.7076 0
M  V30 2370 C 402.258 7.45864 -1.40599 0
M  V30 2371 O 402.468 6.17651 -0.734225 0
M  V30 2372 C 403.658 8.05808 -1.51899 0
M  V30 2373 O 404.048 8.74358 -0.335205 0
M  V30 2374 C 404.538 6.83093 -1.70294 0
M  V30 2375 C 403.828 5.79992 -0.836974 0
M  V30 2376 N 403.878 4.41864 -1.38293 0
M  V30 2377 H 401.039 8.13644 -3.0377 0
M  V30 2378 H 400.769 6.42788 -2.55485 0
M  V30 2379 H 401.636 8.12039 -0.792769 0
M  V30 2380 P 405.598 8.91 2.12633e-12 0
M  V30 2381 O 405.818 10.1726 0.733694 0
M  V30 2382 O 406.388 8.73148 -1.23936 0
M  V30 2383 O 405.848 7.66872 0.971405 0
M  V30 2384 C 404.908 7.42309 2.04641 0
M  V30 2385 C 405.638 6.86059 3.24661 0
M  V30 2386 O 405.848 5.42847 3.03646 0
M  V30 2387 C 407.038 7.41196 3.50753 0
M  V30 2388 O 407.428 7.27073 4.86816 0
M  V30 2389 C 407.918 6.5273 2.63741 0
M  V30 2390 C 407.208 5.1842 2.73198 0
M  V30 2391 N 407.258 4.38762 1.4784 0
M  V30 2392 C 407.178 4.81605 0.168631 0
M  V30 2393 N 407.258 3.85454 -0.713363 0
M  V30 2394 C 407.398 2.6994 0.0566958 0
M  V30 2395 C 407.528 1.34815 -0.338502 0
M  V30 2396 O 407.548 0.869548 -1.47125 0
M  V30 2397 N 407.648 0.496304 0.77465 0
M  V30 2398 C 407.648 0.908403 2.09122 0
M  V30 2399 N 407.778 -0.0517805 3.00955 0
M  V30 2400 N 407.518 2.17875 2.46519 0
M  V30 2401 C 407.398 3.01988 1.4033 0
M  V30 2402 H 404.419 8.36803 2.32493 0
M  V30 2403 H 404.149 6.70197 1.71129 0
M  V30 2404 H 405.016 7.03551 4.13168 0
M  V30 2405 H 407.671 4.59498 3.54415 0
M  V30 2406 H 407.95 6.88898 1.59848 0
M  V30 2407 H 408.942 6.46749 3.03687 0
M  V30 2408 H 407.108 8.46908 3.20714 0
M  V30 2409 H 407.059 5.86405 -0.105564 0
M  V30 2410 H 407.741 -0.483664 0.597855 0
M  V30 2411 H 407.778 0.187865 4.0116 0
M  V30 2412 H 407.879 -1.03585 2.71726 0
M  V30 2413 P 408.978 7.20834 5.23717 0
M  V30 2414 O 409.198 7.7993 6.57351 0
M  V30 2415 O 409.768 7.79328 4.13004 0
M  V30 2416 O 409.228 5.63315 5.29344 0
M  V30 2417 C 408.288 4.80255 6.01876 0
M  V30 2418 C 409.018 3.64202 6.65911 0
M  V30 2419 O 409.228 2.60694 5.64732 0
M  V30 2420 C 410.418 3.93473 7.1943 0
M  V30 2421 O 410.808 3.02071 8.21205 0
M  V30 2422 C 411.298 3.73047 5.97036 0
M  V30 2423 C 410.588 2.58828 5.25741 0
M  V30 2424 N 410.638 2.6801 3.77422 0
M  V30 2425 C 410.788 1.50173 3.05038 0
M  V30 2426 O 410.878 0.428832 3.665 0
M  V30 2427 N 410.838 1.70922 1.55541 0
M  V30 2428 C 410.738 2.7407 1.06402 0
M  V30 2429 N 410.788 2.74764 -0.260931 0
M  V30 2430 C 410.588 3.96781 1.78296 0
M  V30 2431 C 410.538 3.87909 3.13891 0
M  V30 2432 H 407.798 5.4027 6.79873 0
M  V30 2433 H 407.529 4.41549 5.32301 0
M  V30 2434 H 408.396 3.26371 7.47889 0
M  V30 2435 H 411.051 1.63978 5.5665 0
M  V30 2436 H 411.33 4.63439 5.3432 0
M  V30 2437 H 412.322 3.44728 6.25838 0
M  V30 2438 H 410.488 4.96652 7.57263 0
M  V30 2439 H 410.416 4.78425 3.73088 0
M  V30 2440 H 410.518 4.92593 1.26997 0
M  V30 2441 H 410.906 1.86285 -0.77595 0
M  V30 2442 H 410.709 3.63657 -0.773896 0
M  V30 2443 P 412.358 2.75334 8.47391 0
M  V30 2444 O 412.578 2.44595 9.90239 0
M  V30 2445 O 413.148 3.87732 7.92204 0
M  V30 2446 O 412.608 1.4459 7.59357 0
M  V30 2447 C 411.668 0.347563 7.69115 0
M  V30 2448 C 412.398 -0.96767 7.52806 0
M  V30 2449 O 412.608 -1.21036 6.1011 0
M  V30 2450 C 413.798 -1.04544 8.13308 0
M  V30 2451 O 414.188 -2.38311 8.41922 0
M  V30 2452 C 414.678 -0.491279 7.02284 0
M  V30 2453 C 413.968 -0.996264 5.77469 0
M  V30 2454 N 414.018 -0.0501808 4.62873 0
M  V30 2455 C 414.168 -0.588177 3.36904 0
M  V30 2456 O 414.258 -1.78598 3.17173 0
M  V30 2457 N 414.208 0.329694 2.33686 0
M  V30 2458 C 414.118 1.6953 2.45079 0
M  V30 2459 O 414.168 2.41926 1.44899 0
M  V30 2460 C 413.968 2.16933 3.80505 0
M  V30 2461 C 413.858 3.65373 3.97621 0
M  V30 2462 C 413.918 1.30326 4.83752 0
M  V30 2463 H 411.178 0.374722 8.67691 0
M  V30 2464 H 410.909 0.443421 6.90177 0
M  V30 2465 H 411.776 -1.75537 7.96793 0
M  V30 2466 H 414.431 -1.94496 5.46629 0
M  V30 2467 H 414.71 0.608651 7.04676 0
M  V30 2468 H 415.702 -0.889672 7.08939 0
M  V30 2469 H 413.868 -0.43308 9.04564 0
M  V30 2470 H 413.797 1.68366 5.8516 0
M  V30 2471 H 414.827 4.05985 4.30448 0
M  V30 2472 H 413.09 3.88028 4.72875 0
M  V30 2473 H 413.578 4.11381 3.01609 0
M  V30 2474 H 414.314 -0.0393617 1.41345 0
M  V30 2475 P 415.738 -2.75334 8.47391 0
M  V30 2476 O 415.958 -3.84128 9.44797 0
M  V30 2477 O 416.528 -1.51947 8.68712 0
M  V30 2478 O 415.988 -3.29363 6.99321 0
M  V30 2479 C 415.048 -4.24011 6.4274 0
M  V30 2480 C 415.778 -5.20775 5.52155 0
M  V30 2481 O 415.988 -4.56534 4.22446 0
M  V30 2482 C 417.178 -5.62629 5.96531 0
M  V30 2483 O 417.568 -6.87667 5.41053 0
M  V30 2484 C 418.058 -4.52537 5.39283 0
M  V30 2485 C 417.348 -4.20027 4.08623 0
M  V30 2486 N 417.398 -2.76189 3.71603 0
M  V30 2487 H 414.559 -4.797 7.24003 0
M  V30 2488 H 414.289 -3.69856 5.84513 0
M  V30 2489 H 415.156 -6.10356 5.41441 0
M  V30 2490 P 419.118 -7.20834 5.23717 0
M  V30 2491 O 419.338 -8.66104 5.38572 0
M  V30 2492 O 419.908 -6.33544 6.1349 0
M  V30 2493 O 419.368 -6.7751 3.72168 0
M  V30 2494 C 418.428 -7.20825 2.7076 0
M  V30 2495 C 419.158 -7.45864 1.40599 0
M  V30 2496 O 419.368 -6.17651 0.734225 0
M  V30 2497 C 420.558 -8.05808 1.51899 0
M  V30 2498 O 420.948 -8.74358 0.335205 0
M  V30 2499 C 421.438 -6.83093 1.70294 0
M  V30 2500 C 420.728 -5.79992 0.836974 0
M  V30 2501 N 420.778 -4.41864 1.38293 0
M  V30 2502 H 417.939 -8.13644 3.0377 0
M  V30 2503 H 417.669 -6.42788 2.55485 0
M  V30 2504 H 418.536 -8.12039 0.792769 0
M  V30 2505 P 422.497 -8.91 -2.28351e-12 0
M  V30 2506 O 422.717 -10.1726 -0.733694 0
M  V30 2507 O 423.287 -8.73148 1.23936 0
M  V30 2508 O 422.747 -7.66872 -0.971405 0
M  V30 2509 C 421.807 -7.42309 -2.04641 0
M  V30 2510 C 422.537 -6.86059 -3.24661 0
M  V30 2511 O 422.747 -5.42847 -3.03646 0
M  V30 2512 C 423.937 -7.41196 -3.50753 0
M  V30 2513 O 424.327 -7.27073 -4.86816 0
M  V30 2514 C 424.817 -6.5273 -2.63741 0
M  V30 2515 C 424.107 -5.1842 -2.73198 0
M  V30 2516 N 424.157 -4.38762 -1.4784 0
M  V30 2517 H 421.318 -8.36803 -2.32493 0
M  V30 2518 H 421.048 -6.70197 -1.71129 0
M  V30 2519 H 421.915 -7.03551 -4.13168 0
M  V30 2520 P 425.877 -7.20834 -5.23717 0
M  V30 2521 O 426.097 -7.79853 -6.57286 0
M  V30 2522 O 426.667 -7.79239 -4.12957 0
M  V30 2523 O 426.127 -5.63315 -5.29344 0
M  V30 2524 C 425.187 -4.80255 -6.01876 0
M  V30 2525 C 425.917 -3.64202 -6.65911 0
M  V30 2526 O 426.127 -2.60694 -5.64732 0
M  V30 2527 C 427.317 -3.93473 -7.1943 0
M  V30 2528 O 427.707 -3.02071 -8.21205 0
M  V30 2529 C 428.197 -3.73047 -5.97036 0
M  V30 2530 C 427.487 -2.58828 -5.25741 0
M  V30 2531 N 427.537 -2.68068 -3.77503 0
M  V30 2532 H 424.698 -5.40332 -6.79951 0
M  V30 2533 H 424.428 -4.41613 -5.32378 0
M  V30 2534 H 425.295 -3.26331 -7.47797 0
M  V30 2535 P 429.257 -2.75334 -8.47391 0
M  V30 2536 O 429.477 -2.44571 -9.90142 0
M  V30 2537 O 430.047 -3.87688 -7.92115 0
M  V30 2538 O 429.507 -1.4459 -7.59357 0
M  V30 2539 C 428.567 -0.347608 -7.69215 0
M  V30 2540 C 429.297 0.96767 -7.52806 0
M  V30 2541 O 429.507 1.21036 -6.1011 0
M  V30 2542 C 430.697 1.04544 -8.13308 0
M  V30 2543 O 431.087 2.38311 -8.41922 0
M  V30 2544 C 431.577 0.491279 -7.02284 0
M  V30 2545 C 430.867 0.996264 -5.77469 0
M  V30 2546 N 430.917 0.0501916 -4.62973 0
M  V30 2547 H 428.078 -0.374722 -8.67691 0
M  V30 2548 H 427.808 -0.443485 -6.90277 0
M  V30 2549 H 428.675 1.75537 -7.96793 0
M  V30 2550 P 432.637 2.75334 -8.47391 0
M  V30 2551 O 432.857 3.84128 -9.44797 0
M  V30 2552 O 433.427 1.51947 -8.68712 0
M  V30 2553 O 432.887 3.29363 -6.99321 0
M  V30 2554 C 431.947 4.24011 -6.4274 0
M  V30 2555 C 432.677 5.20775 -5.52155 0
M  V30 2556 O 432.887 4.56534 -4.22446 0
M  V30 2557 C 434.077 5.62629 -5.96531 0
M  V30 2558 O 434.467 6.87667 -5.41053 0
M  V30 2559 C 434.957 4.52537 -5.39283 0
M  V30 2560 C 434.247 4.20027 -4.08623 0
M  V30 2561 N 434.297 2.76189 -3.71603 0
M  V30 2562 H 431.458 4.797 -7.24003 0
M  V30 2563 H 431.188 3.69856 -5.84513 0
M  V30 2564 H 432.055 6.10356 -5.41441 0
M  V30 2565 P 436.017 7.20834 -5.23717 0
M  V30 2566 O 436.237 8.66104 -5.38572 0
M  V30 2567 O 436.807 6.33544 -6.1349 0
M  V30 2568 O 436.267 6.7751 -3.72168 0
M  V30 2569 C 435.327 7.20825 -2.7076 0
M  V30 2570 C 436.057 7.45864 -1.40599 0
M  V30 2571 O 436.267 6.17651 -0.734225 0
M  V30 2572 C 437.457 8.05808 -1.51899 0
M  V30 2573 O 437.847 8.74358 -0.335205 0
M  V30 2574 C 438.337 6.83093 -1.70294 0
M  V30 2575 C 437.627 5.79992 -0.836974 0
M  V30 2576 N 437.677 4.41864 -1.38293 0
M  V30 2577 H 434.838 8.13644 -3.0377 0
M  V30 2578 H 434.568 6.42788 -2.55485 0
M  V30 2579 H 435.435 8.12039 -0.792769 0
M  V30 2580 P 439.397 8.91 2.44069e-12 0
M  V30 2581 O 439.617 10.1726 0.733694 0
M  V30 2582 O 440.187 8.73148 -1.23936 0
M  V30 2583 O 439.647 7.66872 0.971405 0
M  V30 2584 C 438.707 7.42309 2.04641 0
M  V30 2585 C 439.437 6.86059 3.24661 0
M  V30 2586 O 439.647 5.42847 3.03646 0
M  V30 2587 C 440.837 7.41196 3.50753 0
M  V30 2588 O 441.227 7.27073 4.86816 0
M  V30 2589 C 441.717 6.5273 2.63741 0
M  V30 2590 C 441.007 5.1842 2.73198 0
M  V30 2591 N 441.057 4.38762 1.4784 0
M  V30 2592 H 438.218 8.36803 2.32493 0
M  V30 2593 H 437.948 6.70197 1.71129 0
M  V30 2594 H 438.815 7.03551 4.13168 0
M  V30 2595 P 442.777 7.20834 5.23717 0
M  V30 2596 O 442.997 7.79853 6.57286 0
M  V30 2597 O 443.567 7.79239 4.12957 0
M  V30 2598 O 443.027 5.63315 5.29344 0
M  V30 2599 C 442.087 4.80255 6.01876 0
M  V30 2600 C 442.817 3.64202 6.65911 0
M  V30 2601 O 443.027 2.60694 5.64732 0
M  V30 2602 C 444.217 3.93473 7.1943 0
M  V30 2603 O 444.607 3.02071 8.21205 0
M  V30 2604 C 445.097 3.73047 5.97036 0
M  V30 2605 C 444.387 2.58828 5.25741 0
M  V30 2606 N 444.437 2.68068 3.77503 0
M  V30 2607 H 441.598 5.40332 6.79951 0
M  V30 2608 H 441.328 4.41613 5.32378 0
M  V30 2609 H 442.195 3.26331 7.47797 0
M  V30 2610 P 446.157 2.75334 8.47391 0
M  V30 2611 O 446.377 2.44571 9.90142 0
M  V30 2612 O 446.947 3.87688 7.92115 0
M  V30 2613 O 446.407 1.4459 7.59357 0
M  V30 2614 C 445.467 0.347608 7.69215 0
M  V30 2615 C 446.197 -0.96767 7.52806 0
M  V30 2616 O 446.407 -1.21036 6.1011 0
M  V30 2617 C 447.597 -1.04544 8.13308 0
M  V30 2618 O 447.987 -2.38311 8.41922 0
M  V30 2619 C 448.477 -0.491279 7.02284 0
M  V30 2620 C 447.767 -0.996264 5.77469 0
M  V30 2621 N 447.817 -0.0501916 4.62973 0
M  V30 2622 C 447.737 1.32786 4.63244 0
M  V30 2623 N 447.817 1.86957 3.44545 0
M  V30 2624 C 447.957 0.780241 2.58481 0
M  V30 2625 C 448.087 0.738536 1.17757 0
M  V30 2626 O 448.107 1.66794 0.372349 0
M  V30 2627 N 448.207 -0.58337 0.711393 0
M  V30 2628 C 448.207 -1.70816 1.51017 0
M  V30 2629 N 448.337 -2.87826 0.880757 0
M  V30 2630 N 448.077 -1.67126 2.8339 0
M  V30 2631 C 447.957 -0.401421 3.30572 0
M  V30 2632 H 444.978 0.374722 8.67691 0
M  V30 2633 H 444.708 0.443485 6.90277 0
M  V30 2634 H 445.575 -1.75537 7.96793 0
M  V30 2635 H 448.23 -1.95076 5.46529 0
M  V30 2636 H 448.509 0.608565 7.04577 0
M  V30 2637 H 449.501 -0.889672 7.08939 0
M  V30 2638 H 447.667 -0.43308 9.04564 0
M  V30 2639 H 447.618 1.91249 5.54442 0
M  V30 2640 H 448.3 -0.718054 -0.275244 0
M  V30 2641 H 448.337 -3.75721 1.41832 0
M  V30 2642 H 448.438 -2.90436 -0.145468 0
M  V30 2643 P 449.537 -2.75334 8.47391 0
M  V30 2644 O 449.757 -3.84128 9.44797 0
M  V30 2645 O 450.327 -1.51947 8.68712 0
M  V30 2646 O 449.787 -3.29363 6.99321 0
M  V30 2647 C 448.847 -4.24011 6.4274 0
M  V30 2648 C 449.577 -5.20775 5.52155 0
M  V30 2649 O 449.787 -4.56534 4.22446 0
M  V30 2650 C 450.977 -5.62629 5.96531 0
M  V30 2651 O 451.367 -6.87667 5.41053 0
M  V30 2652 C 451.857 -4.52537 5.39283 0
M  V30 2653 C 451.147 -4.20027 4.08623 0
M  V30 2654 N 451.197 -2.76189 3.71603 0
M  V30 2655 H 448.358 -4.797 7.24003 0
M  V30 2656 H 448.088 -3.69856 5.84513 0
M  V30 2657 H 448.955 -6.10356 5.41441 0
M  V30 2658 P 452.917 -7.20834 5.23717 0
M  V30 2659 O 453.137 -8.66104 5.38572 0
M  V30 2660 O 453.707 -6.33544 6.1349 0
M  V30 2661 O 453.167 -6.7751 3.72168 0
M  V30 2662 C 452.227 -7.20825 2.7076 0
M  V30 2663 C 452.957 -7.45864 1.40599 0
M  V30 2664 O 453.167 -6.17651 0.734225 0
M  V30 2665 C 454.357 -8.05808 1.51899 0
M  V30 2666 O 454.747 -8.74358 0.335205 0
M  V30 2667 C 455.237 -6.83093 1.70294 0
M  V30 2668 C 454.527 -5.79992 0.836974 0
M  V30 2669 N 454.577 -4.41864 1.38293 0
M  V30 2670 H 451.738 -8.13644 3.0377 0
M  V30 2671 H 451.468 -6.42788 2.55485 0
M  V30 2672 H 452.335 -8.12039 0.792769 0
M  V30 2673 P 456.297 -8.91 -2.59788e-12 0
M  V30 2674 O 456.517 -10.1726 -0.733694 0
M  V30 2675 O 457.087 -8.73148 1.23936 0
M  V30 2676 O 456.547 -7.66872 -0.971405 0
M  V30 2677 C 455.607 -7.42309 -2.04641 0
M  V30 2678 C 456.337 -6.86059 -3.24661 0
M  V30 2679 O 456.547 -5.42847 -3.03646 0
M  V30 2680 C 457.737 -7.41196 -3.50753 0
M  V30 2681 O 458.127 -7.27073 -4.86816 0
M  V30 2682 C 458.617 -6.5273 -2.63741 0
M  V30 2683 C 457.907 -5.1842 -2.73198 0
M  V30 2684 N 457.957 -4.38762 -1.4784 0
M  V30 2685 H 455.118 -8.36803 -2.32493 0
M  V30 2686 H 454.848 -6.70197 -1.71129 0
M  V30 2687 H 455.715 -7.03551 -4.13168 0
M  V30 2688 P 459.677 -7.20834 -5.23717 0
M  V30 2689 O 459.897 -7.79853 -6.57286 0
M  V30 2690 O 460.467 -7.79239 -4.12957 0
M  V30 2691 O 459.927 -5.63315 -5.29344 0
M  V30 2692 C 458.987 -4.80255 -6.01876 0
M  V30 2693 C 459.717 -3.64202 -6.65911 0
M  V30 2694 O 459.927 -2.60694 -5.64732 0
M  V30 2695 C 461.117 -3.93473 -7.1943 0
M  V30 2696 O 461.507 -3.02071 -8.21205 0
M  V30 2697 C 461.997 -3.73047 -5.97036 0
M  V30 2698 C 461.287 -2.58828 -5.25741 0
M  V30 2699 N 461.337 -2.68068 -3.77503 0
M  V30 2700 H 458.498 -5.40332 -6.79951 0
M  V30 2701 H 458.228 -4.41613 -5.32378 0
M  V30 2702 H 459.095 -3.26331 -7.47797 0
M  V30 2703 P 463.057 -2.75334 -8.47391 0
M  V30 2704 O 463.277 -2.44571 -9.90142 0
M  V30 2705 O 463.847 -3.87688 -7.92115 0
M  V30 2706 O 463.307 -1.4459 -7.59357 0
M  V30 2707 C 462.367 -0.347608 -7.69215 0
M  V30 2708 C 463.097 0.96767 -7.52806 0
M  V30 2709 O 463.307 1.21036 -6.1011 0
M  V30 2710 C 464.497 1.04544 -8.13308 0
M  V30 2711 O 464.887 2.38311 -8.41922 0
M  V30 2712 C 465.377 0.491279 -7.02284 0
M  V30 2713 C 464.667 0.996264 -5.77469 0
M  V30 2714 N 464.717 0.0501916 -4.62973 0
M  V30 2715 H 461.878 -0.374722 -8.67691 0
M  V30 2716 H 461.608 -0.443485 -6.90277 0
M  V30 2717 H 462.475 1.75537 -7.96793 0
M  V30 2718 P 466.437 2.75334 -8.47391 0
M  V30 2719 O 466.657 3.84128 -9.44797 0
M  V30 2720 O 467.227 1.51947 -8.68712 0
M  V30 2721 O 466.687 3.29363 -6.99321 0
M  V30 2722 C 465.747 4.24011 -6.4274 0
M  V30 2723 C 466.477 5.20775 -5.52155 0
M  V30 2724 O 466.687 4.56534 -4.22446 0
M  V30 2725 C 467.877 5.62629 -5.96531 0
M  V30 2726 O 468.267 6.87667 -5.41053 0
M  V30 2727 C 468.757 4.52537 -5.39283 0
M  V30 2728 C 468.047 4.20027 -4.08623 0
M  V30 2729 N 468.097 2.76189 -3.71603 0
M  V30 2730 H 465.258 4.797 -7.24003 0
M  V30 2731 H 464.988 3.69856 -5.84513 0
M  V30 2732 H 465.855 6.10356 -5.41441 0
M  V30 2733 P 469.817 7.20834 -5.23717 0
M  V30 2734 O 470.037 8.66104 -5.38572 0
M  V30 2735 O 470.607 6.33544 -6.1349 0
M  V30 2736 O 470.067 6.7751 -3.72168 0
M  V30 2737 C 469.127 7.20825 -2.7076 0
M  V30 2738 C 469.857 7.45864 -1.40599 0
M  V30 2739 O 470.067 6.17651 -0.734225 0
M  V30 2740 C 471.257 8.05808 -1.51899 0
M  V30 2741 O 471.647 8.74358 -0.335205 0
M  V30 2742 C 472.137 6.83093 -1.70294 0
M  V30 2743 C 471.427 5.79992 -0.836974 0
M  V30 2744 N 471.477 4.41864 -1.38293 0
M  V30 2745 C 471.397 3.99538 -2.69438 0
M  V30 2746 N 471.477 2.69909 -2.84277 0
M  V30 2747 C 471.617 2.21719 -1.5408 0
M  V30 2748 C 471.747 0.891712 -1.06628 0
M  V30 2749 O 471.767 -0.161298 -1.70137 0
M  V30 2750 N 471.867 0.856846 0.334985 0
M  V30 2751 C 471.867 1.9641 1.15789 0
M  V30 2752 N 471.997 1.72708 2.46522 0
M  V30 2753 N 471.737 3.21165 0.713741 0
M  V30 2754 C 471.617 3.26797 -0.639748 0
M  V30 2755 H 468.638 8.13644 -3.0377 0
M  V30 2756 H 468.368 6.42788 -2.55485 0
M  V30 2757 H 469.235 8.12039 -0.792769 0
M  V30 2758 H 471.89 5.80061 0.166416 0
M  V30 2759 H 472.169 6.51287 -2.75604 0
M  V30 2760 H 473.161 7.01734 -1.34462 0
M  V30 2761 H 471.327 8.73674 -2.38337 0
M  V30 2762 H 471.278 4.68207 -3.53221 0
M  V30 2763 H 471.96 -0.0398818 0.767965 0
M  V30 2764 H 471.997 2.50995 3.13503 0
M  V30 2765 H 472.098 0.759148 2.80716 0
M  V30 2766 P 473.197 8.91 2.75506e-12 0
M  V30 2767 O 473.417 10.1726 0.733694 0
M  V30 2768 O 473.987 8.73148 -1.23936 0
M  V30 2769 O 473.447 7.66872 0.971405 0
M  V30 2770 C 472.507 7.42309 2.04641 0
M  V30 2771 C 473.237 6.86059 3.24661 0
M  V30 2772 O 473.447 5.42847 3.03646 0
M  V30 2773 C 474.637 7.41196 3.50753 0
M  V30 2774 O 475.027 7.27073 4.86816 0
M  V30 2775 C 475.517 6.5273 2.63741 0
M  V30 2776 C 474.807 5.1842 2.73198 0
M  V30 2777 N 474.857 4.38762 1.4784 0
M  V30 2778 H 472.018 8.36803 2.32493 0
M  V30 2779 H 471.748 6.70197 1.71129 0
M  V30 2780 H 472.615 7.03551 4.13168 0
M  V30 2781 P 476.577 7.20834 5.23717 0
M  V30 2782 O 476.797 7.7993 6.57351 0
M  V30 2783 O 477.367 7.79328 4.13004 0
M  V30 2784 O 476.827 5.63315 5.29344 0
M  V30 2785 C 475.887 4.80193 6.01798 0
M  V30 2786 C 476.617 3.64202 6.65911 0
M  V30 2787 O 476.827 2.60694 5.64732 0
M  V30 2788 C 478.017 3.93473 7.1943 0
M  V30 2789 O 478.407 3.02071 8.21205 0
M  V30 2790 C 478.897 3.73047 5.97036 0
M  V30 2791 C 478.187 2.58828 5.25741 0
M  V30 2792 N 478.237 2.6801 3.77422 0
M  V30 2793 C 478.387 1.50443 3.07133 0
M  V30 2794 O 478.477 0.419406 3.61576 0
M  V30 2795 N 478.427 1.6403 1.69677 0
M  V30 2796 C 478.337 2.81206 0.986255 0
M  V30 2797 O 478.387 2.80892 -0.249754 0
M  V30 2798 C 478.187 3.99158 1.80325 0
M  V30 2799 C 478.077 5.29309 1.06921 0
M  V30 2800 C 478.137 3.89779 3.1476 0
M  V30 2801 H 475.397 5.40332 6.79951 0
M  V30 2802 H 475.128 4.41549 5.32301 0
M  V30 2803 H 475.995 3.26331 7.47797 0
M  V30 2804 H 478.65 1.6395 5.56554 0
M  V30 2805 H 478.929 4.63439 5.3432 0
M  V30 2806 H 479.921 3.44728 6.25838 0
M  V30 2807 H 478.087 4.96652 7.57263 0
M  V30 2808 H 478.016 4.80159 3.74441 0
M  V30 2809 H 479.046 5.81459 1.09608 0
M  V30 2810 H 477.309 5.9187 1.54487 0
M  V30 2811 H 477.797 5.10095 0.0220288 0
M  V30 2812 H 478.533 0.798962 1.16664 0
M  V30 2813 P 479.957 2.75334 8.47391 0
M  V30 2814 O 480.177 2.44571 9.90142 0
M  V30 2815 O 480.747 3.87688 7.92115 0
M  V30 2816 O 480.207 1.4459 7.59357 0
M  V30 2817 C 479.267 0.347608 7.69215 0
M  V30 2818 C 479.997 -0.96767 7.52806 0
M  V30 2819 O 480.207 -1.21036 6.1011 0
M  V30 2820 C 481.397 -1.04544 8.13308 0
M  V30 2821 O 481.787 -2.38311 8.41922 0
M  V30 2822 C 482.277 -0.491279 7.02284 0
M  V30 2823 C 481.567 -0.996264 5.77469 0
M  V30 2824 N 481.617 -0.0501916 4.62973 0
M  V30 2825 H 478.778 0.374722 8.67691 0
M  V30 2826 H 478.508 0.443485 6.90277 0
M  V30 2827 H 479.375 -1.75537 7.96793 0
M  V30 2828 P 483.337 -2.75334 8.47391 0
M  V30 2829 O 483.557 -3.84128 9.44797 0
M  V30 2830 O 484.127 -1.51947 8.68712 0
M  V30 2831 O 483.587 -3.29363 6.99321 0
M  V30 2832 C 482.647 -4.24011 6.4274 0
M  V30 2833 C 483.377 -5.20775 5.52155 0
M  V30 2834 O 483.587 -4.56534 4.22446 0
M  V30 2835 C 484.777 -5.62629 5.96531 0
M  V30 2836 O 485.167 -6.87667 5.41053 0
M  V30 2837 C 485.657 -4.52537 5.39283 0
M  V30 2838 C 484.947 -4.20027 4.08623 0
M  V30 2839 N 484.997 -2.76189 3.71603 0
M  V30 2840 H 482.158 -4.797 7.24003 0
M  V30 2841 H 481.888 -3.69856 5.84513 0
M  V30 2842 H 482.755 -6.10356 5.41441 0
M  V30 2843 P 486.717 -7.20834 5.23717 0
M  V30 2844 O 486.937 -8.66104 5.38572 0
M  V30 2845 O 487.507 -6.33544 6.1349 0
M  V30 2846 O 486.967 -6.7751 3.72168 0
M  V30 2847 C 486.027 -7.20825 2.7076 0
M  V30 2848 C 486.757 -7.45864 1.40599 0
M  V30 2849 O 486.967 -6.17651 0.734225 0
M  V30 2850 C 488.157 -8.05808 1.51899 0
M  V30 2851 O 488.547 -8.74358 0.335205 0
M  V30 2852 C 489.037 -6.83093 1.70294 0
M  V30 2853 C 488.327 -5.79992 0.836974 0
M  V30 2854 N 488.377 -4.41864 1.38293 0
M  V30 2855 H 485.538 -8.13644 3.0377 0
M  V30 2856 H 485.268 -6.42788 2.55485 0
M  V30 2857 H 486.135 -8.12039 0.792769 0
M  V30 2858 P 490.097 -8.91 -2.91224e-12 0
M  V30 2859 O 490.317 -10.1726 -0.733694 0
M  V30 2860 O 490.887 -8.73148 1.23936 0
M  V30 2861 O 490.347 -7.66872 -0.971405 0
M  V30 2862 C 489.407 -7.42309 -2.04641 0
M  V30 2863 C 490.137 -6.86059 -3.24661 0
M  V30 2864 O 490.347 -5.42847 -3.03646 0
M  V30 2865 C 491.537 -7.41196 -3.50753 0
M  V30 2866 O 491.927 -7.27073 -4.86816 0
M  V30 2867 C 492.417 -6.5273 -2.63741 0
M  V30 2868 C 491.707 -5.1842 -2.73198 0
M  V30 2869 N 491.757 -4.38762 -1.4784 0
M  V30 2870 H 488.918 -8.36803 -2.32493 0
M  V30 2871 H 488.648 -6.70197 -1.71129 0
M  V30 2872 H 489.515 -7.03551 -4.13168 0
M  V30 2873 P 493.477 -7.20834 -5.23717 0
M  V30 2874 O 493.697 -7.79853 -6.57286 0
M  V30 2875 O 494.267 -7.79239 -4.12957 0
M  V30 2876 O 493.727 -5.63315 -5.29344 0
M  V30 2877 C 492.787 -4.80255 -6.01876 0
M  V30 2878 C 493.517 -3.64202 -6.65911 0
M  V30 2879 O 493.727 -2.60694 -5.64732 0
M  V30 2880 C 494.917 -3.93473 -7.1943 0
M  V30 2881 O 495.307 -3.02071 -8.21205 0
M  V30 2882 C 495.797 -3.73047 -5.97036 0
M  V30 2883 C 495.087 -2.58828 -5.25741 0
M  V30 2884 N 495.137 -2.68068 -3.77503 0
M  V30 2885 H 492.298 -5.40332 -6.79951 0
M  V30 2886 H 492.028 -4.41613 -5.32378 0
M  V30 2887 H 492.895 -3.26331 -7.47797 0
M  V30 2888 P 496.857 -2.75334 -8.47391 0
M  V30 2889 O 497.077 -2.44571 -9.90142 0
M  V30 2890 O 497.647 -3.87688 -7.92115 0
M  V30 2891 O 497.107 -1.4459 -7.59357 0
M  V30 2892 C 496.167 -0.347608 -7.69215 0
M  V30 2893 C 496.897 0.96767 -7.52806 0
M  V30 2894 O 497.107 1.21036 -6.1011 0
M  V30 2895 C 498.297 1.04544 -8.13308 0
M  V30 2896 O 498.687 2.38311 -8.41922 0
M  V30 2897 C 499.177 0.491279 -7.02284 0
M  V30 2898 C 498.467 0.996264 -5.77469 0
M  V30 2899 N 498.517 0.0501916 -4.62973 0
M  V30 2900 H 495.678 -0.374722 -8.67691 0
M  V30 2901 H 495.408 -0.443485 -6.90277 0
M  V30 2902 H 496.275 1.75537 -7.96793 0
M  V30 2903 P 500.237 2.75334 -8.47391 0
M  V30 2904 O 500.457 3.84128 -9.44797 0
M  V30 2905 O 501.027 1.51947 -8.68712 0
M  V30 2906 O 500.487 3.29363 -6.99321 0
M  V30 2907 C 499.547 4.24011 -6.4274 0
M  V30 2908 C 500.277 5.20775 -5.52155 0
M  V30 2909 O 500.487 4.56534 -4.22446 0
M  V30 2910 C 501.677 5.62629 -5.96531 0
M  V30 2911 O 502.067 6.87667 -5.41053 0
M  V30 2912 C 502.557 4.52537 -5.39283 0
M  V30 2913 C 501.847 4.20027 -4.08623 0
M  V30 2914 N 501.897 2.76189 -3.71603 0
M  V30 2915 C 501.817 1.64862 -4.52822 0
M  V30 2916 N 501.897 0.512671 -3.88633 0
M  V30 2917 C 502.037 0.888083 -2.54977 0
M  V30 2918 C 502.167 0.094668 -1.38677 0
M  V30 2919 O 502.187 -1.13053 -1.28163 0
M  V30 2920 N 502.287 0.890102 -0.232633 0
M  V30 2921 C 502.287 2.26958 -0.21772 0
M  V30 2922 N 502.417 2.84626 0.97925 0
M  V30 2923 N 502.157 3.0178 -1.31033 0
M  V30 2924 C 502.037 2.26781 -2.43843 0
M  V30 2925 H 499.058 4.797 -7.24003 0
M  V30 2926 H 498.788 3.69856 -5.84513 0
M  V30 2927 H 499.655 6.10356 -5.41441 0
M  V30 2928 H 502.31 4.79061 -3.27488 0
M  V30 2929 H 502.589 3.64906 -6.05785 0
M  V30 2930 H 503.581 4.8868 -5.2125 0
M  V30 2931 H 501.747 5.66726 -7.06352 0
M  V30 2932 H 501.698 1.71169 -5.60966 0
M  V30 2933 H 502.38 0.419134 0.644739 0
M  V30 2934 H 502.417 3.87332 1.06098 0
M  V30 2935 H 502.518 2.26417 1.82483 0
M  V30 2936 P 503.617 7.20834 -5.23717 0
M  V30 2937 O 503.837 8.66104 -5.38572 0
M  V30 2938 O 504.407 6.33544 -6.1349 0
M  V30 2939 O 503.867 6.7751 -3.72168 0
M  V30 2940 C 502.927 7.20825 -2.7076 0
M  V30 2941 C 503.657 7.45864 -1.40599 0
M  V30 2942 O 503.867 6.17651 -0.734225 0
M  V30 2943 C 505.057 8.05808 -1.51899 0
M  V30 2944 O 505.447 8.74358 -0.335205 0
M  V30 2945 C 505.937 6.83093 -1.70294 0
M  V30 2946 C 505.227 5.79992 -0.836974 0
M  V30 2947 N 505.277 4.41864 -1.38293 0
M  V30 2948 H 502.438 8.13644 -3.0377 0
M  V30 2949 H 502.168 6.42788 -2.55485 0
M  V30 2950 H 503.035 8.12039 -0.792769 0
M  V30 2951 P 506.997 8.91 3.06942e-12 0
M  V30 2952 O 507.217 10.1726 0.733694 0
M  V30 2953 O 507.787 8.73148 -1.23936 0
M  V30 2954 O 507.247 7.66872 0.971405 0
M  V30 2955 C 506.307 7.42309 2.04641 0
M  V30 2956 C 507.037 6.86059 3.24661 0
M  V30 2957 O 507.247 5.42847 3.03646 0
M  V30 2958 C 508.437 7.41196 3.50753 0
M  V30 2959 O 508.827 7.27073 4.86816 0
M  V30 2960 C 509.317 6.5273 2.63741 0
M  V30 2961 C 508.607 5.1842 2.73198 0
M  V30 2962 N 508.657 4.38762 1.4784 0
M  V30 2963 H 505.818 8.36803 2.32493 0
M  V30 2964 H 505.548 6.70197 1.71129 0
M  V30 2965 H 506.415 7.03551 4.13168 0
M  V30 2966 P 510.377 7.20834 5.23717 0
M  V30 2967 O 510.597 7.7993 6.57351 0
M  V30 2968 O 511.167 7.79328 4.13004 0
M  V30 2969 O 510.627 5.63315 5.29344 0
M  V30 2970 C 509.687 4.80193 6.01798 0
M  V30 2971 C 510.417 3.64202 6.65911 0
M  V30 2972 O 510.627 2.60694 5.64732 0
M  V30 2973 C 511.817 3.93473 7.1943 0
M  V30 2974 O 512.207 3.02071 8.21205 0
M  V30 2975 C 512.697 3.73047 5.97036 0
M  V30 2976 C 511.987 2.58828 5.25741 0
M  V30 2977 N 512.037 2.6801 3.77422 0
M  V30 2978 C 512.187 1.50443 3.07133 0
M  V30 2979 O 512.277 0.419406 3.61576 0
M  V30 2980 N 512.227 1.6403 1.69677 0
M  V30 2981 C 512.137 2.81206 0.986255 0
M  V30 2982 O 512.187 2.80892 -0.249754 0
M  V30 2983 C 511.987 3.99158 1.80325 0
M  V30 2984 C 511.877 5.29309 1.06921 0
M  V30 2985 C 511.937 3.89779 3.1476 0
M  V30 2986 H 509.197 5.40332 6.79951 0
M  V30 2987 H 508.928 4.41549 5.32301 0
M  V30 2988 H 509.795 3.26331 7.47797 0
M  V30 2989 H 512.45 1.6395 5.56554 0
M  V30 2990 H 512.729 4.63439 5.3432 0
M  V30 2991 H 513.721 3.44728 6.25838 0
M  V30 2992 H 511.887 4.96652 7.57263 0
M  V30 2993 H 511.816 4.80159 3.74441 0
M  V30 2994 H 512.846 5.81459 1.09608 0
M  V30 2995 H 511.109 5.9187 1.54487 0
M  V30 2996 H 511.597 5.10095 0.0220288 0
M  V30 2997 H 512.333 0.798962 1.16664 0
M  V30 2998 P 513.757 2.75334 8.47391 0
M  V30 2999 O 513.977 2.44571 9.90142 0
M  V30 3000 O 514.547 3.87688 7.92115 0
M  V30 3001 O 514.007 1.4459 7.59357 0
M  V30 3002 C 513.067 0.347608 7.69215 0
M  V30 3003 C 513.797 -0.96767 7.52806 0
M  V30 3004 O 514.007 -1.21036 6.1011 0
M  V30 3005 C 515.197 -1.04544 8.13308 0
M  V30 3006 O 515.587 -2.38311 8.41922 0
M  V30 3007 C 516.077 -0.491279 7.02284 0
M  V30 3008 C 515.367 -0.996264 5.77469 0
M  V30 3009 N 515.417 -0.0501916 4.62973 0
M  V30 3010 C 515.337 1.32786 4.63244 0
M  V30 3011 N 515.417 1.86957 3.44545 0
M  V30 3012 C 515.557 0.780241 2.58481 0
M  V30 3013 C 515.687 0.738536 1.17757 0
M  V30 3014 O 515.707 1.66794 0.372349 0
M  V30 3015 N 515.807 -0.58337 0.711393 0
M  V30 3016 C 515.807 -1.70816 1.51017 0
M  V30 3017 N 515.937 -2.87826 0.880757 0
M  V30 3018 N 515.677 -1.67126 2.8339 0
M  V30 3019 C 515.557 -0.401421 3.30572 0
M  V30 3020 H 512.578 0.374722 8.67691 0
M  V30 3021 H 512.308 0.443485 6.90277 0
M  V30 3022 H 513.175 -1.75537 7.96793 0
M  V30 3023 H 515.83 -1.95076 5.46529 0
M  V30 3024 H 516.109 0.608565 7.04577 0
M  V30 3025 H 517.101 -0.889672 7.08939 0
M  V30 3026 H 515.267 -0.43308 9.04564 0
M  V30 3027 H 515.218 1.91249 5.54442 0
M  V30 3028 H 515.9 -0.718054 -0.275244 0
M  V30 3029 H 515.937 -3.75721 1.41832 0
M  V30 3030 H 516.038 -2.90436 -0.145468 0
M  V30 3031 P 517.137 -2.75334 8.47391 0
M  V30 3032 O 517.357 -3.84128 9.44797 0
M  V30 3033 O 517.927 -1.51947 8.68712 0
M  V30 3034 O 517.387 -3.29363 6.99321 0
M  V30 3035 C 516.447 -4.24011 6.4274 0
M  V30 3036 C 517.177 -5.20775 5.52155 0
M  V30 3037 O 517.387 -4.56534 4.22446 0
M  V30 3038 C 518.577 -5.62629 5.96531 0
M  V30 3039 O 518.967 -6.87667 5.41053 0
M  V30 3040 C 519.457 -4.52537 5.39283 0
M  V30 3041 C 518.747 -4.20027 4.08623 0
M  V30 3042 N 518.797 -2.76189 3.71603 0
M  V30 3043 H 515.958 -4.797 7.24003 0
M  V30 3044 H 515.688 -3.69856 5.84513 0
M  V30 3045 H 516.555 -6.10356 5.41441 0
M  V30 3046 P 520.517 -7.20834 5.23717 0
M  V30 3047 O 520.737 -8.66274 5.38678 0
M  V30 3048 O 521.307 -6.33687 6.13629 0
M  V30 3049 O 520.767 -6.7751 3.72168 0
M  V30 3050 C 519.827 -7.20919 2.70795 0
M  V30 3051 C 520.557 -7.45864 1.40599 0
M  V30 3052 O 520.767 -6.17751 0.734343 0
M  V30 3053 C 521.957 -8.05906 1.51917 0
M  V30 3054 O 522.347 -8.74358 0.335205 0
M  V30 3055 C 522.837 -6.83093 1.70294 0
M  V30 3056 C 522.127 -5.79992 0.836974 0
M  V30 3057 N 522.177 -4.41864 1.38293 0
M  V30 3058 C 522.097 -4.02089 2.69407 0
M  V30 3059 N 522.167 -2.73403 2.85089 0
M  V30 3060 C 522.317 -2.25086 1.5642 0
M  V30 3061 C 522.447 -0.942887 1.04836 0
M  V30 3062 N 522.457 0.150999 1.80369 0
M  V30 3063 N 522.567 -0.812565 -0.28167 0
M  V30 3064 C 522.557 -1.90572 -1.03784 0
M  V30 3065 N 522.437 -3.167 -0.683905 0
M  V30 3066 C 522.317 -3.26538 0.652815 0
M  V30 3067 H 519.339 -8.13738 3.03804 0
M  V30 3068 H 519.067 -6.42974 2.55559 0
M  V30 3069 H 519.935 -8.12139 0.792866 0
M  V30 3070 H 522.59 -5.80178 -0.160643 0
M  V30 3071 H 522.87 -6.51379 2.75643 0
M  V30 3072 H 523.861 -7.01832 1.3448 0
M  V30 3073 H 522.027 -8.73771 2.38364 0
M  V30 3074 H 521.986 -4.7189 3.52311 0
M  V30 3075 H 522.367 0.0721434 2.82608 0
M  V30 3076 H 522.556 1.0785 1.36544 0
M  V30 3077 H 522.664 -1.73207 -2.10241 0
M  V30 3078 P 523.897 -8.91 -3.22661e-12 0
M  V30 3079 O 524.117 -10.1726 -0.733694 0
M  V30 3080 O 524.687 -8.73148 1.23936 0
M  V30 3081 O 524.147 -7.66872 -0.971405 0
M  V30 3082 C 523.207 -7.42309 -2.04641 0
M  V30 3083 C 523.937 -6.86059 -3.24661 0
M  V30 3084 O 524.147 -5.42847 -3.03646 0
M  V30 3085 C 525.337 -7.41196 -3.50753 0
M  V30 3086 O 525.727 -7.27073 -4.86816 0
M  V30 3087 C 526.217 -6.5273 -2.63741 0
M  V30 3088 C 525.507 -5.1842 -2.73198 0
M  V30 3089 N 525.557 -4.38762 -1.4784 0
M  V30 3090 H 522.718 -8.36803 -2.32493 0
M  V30 3091 H 522.448 -6.70197 -1.71129 0
M  V30 3092 H 523.315 -7.03551 -4.13168 0
M  V30 3093 P 527.277 -7.20834 -5.23717 0
M  V30 3094 O 527.497 -7.79853 -6.57286 0
M  V30 3095 O 528.067 -7.79239 -4.12957 0
M  V30 3096 O 527.527 -5.63315 -5.29344 0
M  V30 3097 C 526.587 -4.80255 -6.01876 0
M  V30 3098 C 527.317 -3.64202 -6.65911 0
M  V30 3099 O 527.527 -2.60694 -5.64732 0
M  V30 3100 C 528.717 -3.93473 -7.1943 0
M  V30 3101 O 529.107 -3.02071 -8.21205 0
M  V30 3102 C 529.597 -3.73047 -5.97036 0
M  V30 3103 C 528.887 -2.58828 -5.25741 0
M  V30 3104 N 528.937 -2.68068 -3.77503 0
M  V30 3105 H 526.098 -5.40332 -6.79951 0
M  V30 3106 H 525.828 -4.41613 -5.32378 0
M  V30 3107 H 526.695 -3.26331 -7.47797 0
M  V30 3108 P 530.657 -2.75334 -8.47391 0
M  V30 3109 O 530.877 -2.44571 -9.90142 0
M  V30 3110 O 531.447 -3.87688 -7.92115 0
M  V30 3111 O 530.907 -1.4459 -7.59357 0
M  V30 3112 C 529.967 -0.347608 -7.69215 0
M  V30 3113 C 530.697 0.96767 -7.52806 0
M  V30 3114 O 530.907 1.21036 -6.1011 0
M  V30 3115 C 532.097 1.04544 -8.13308 0
M  V30 3116 O 532.487 2.38311 -8.41922 0
M  V30 3117 C 532.977 0.491279 -7.02284 0
M  V30 3118 C 532.267 0.996264 -5.77469 0
M  V30 3119 N 532.317 0.0501916 -4.62973 0
M  V30 3120 H 529.478 -0.374722 -8.67691 0
M  V30 3121 H 529.208 -0.443485 -6.90277 0
M  V30 3122 H 530.075 1.75537 -7.96793 0
M  V30 3123 P 534.037 2.75334 -8.47391 0
M  V30 3124 O 534.257 3.84128 -9.44797 0
M  V30 3125 O 534.827 1.51947 -8.68712 0
M  V30 3126 O 534.287 3.29363 -6.99321 0
M  V30 3127 C 533.347 4.24011 -6.4274 0
M  V30 3128 C 534.077 5.20775 -5.52155 0
M  V30 3129 O 534.287 4.56534 -4.22446 0
M  V30 3130 C 535.477 5.62629 -5.96531 0
M  V30 3131 O 535.867 6.87667 -5.41053 0
M  V30 3132 C 536.357 4.52537 -5.39283 0
M  V30 3133 C 535.647 4.20027 -4.08623 0
M  V30 3134 N 535.697 2.76189 -3.71603 0
M  V30 3135 H 532.858 4.797 -7.24003 0
M  V30 3136 H 532.588 3.69856 -5.84513 0
M  V30 3137 H 533.455 6.10356 -5.41441 0
M  V30 3138 P 537.417 7.20834 -5.23717 0
M  V30 3139 O 537.637 8.66274 -5.38678 0
M  V30 3140 O 538.207 6.33687 -6.13629 0
M  V30 3141 O 537.667 6.7751 -3.72168 0
M  V30 3142 C 536.727 7.20919 -2.70795 0
M  V30 3143 C 537.457 7.45864 -1.40599 0
M  V30 3144 O 537.667 6.17751 -0.734343 0
M  V30 3145 C 538.857 8.05906 -1.51917 0
M  V30 3146 O 539.247 8.74358 -0.335205 0
M  V30 3147 C 539.737 6.83093 -1.70294 0
M  V30 3148 C 539.027 5.79992 -0.836974 0
M  V30 3149 N 539.077 4.41864 -1.38293 0
M  V30 3150 C 538.997 4.02089 -2.69407 0
M  V30 3151 N 539.067 2.73403 -2.85089 0
M  V30 3152 C 539.217 2.25086 -1.5642 0
M  V30 3153 C 539.347 0.942887 -1.04836 0
M  V30 3154 N 539.357 -0.150999 -1.80369 0
M  V30 3155 N 539.467 0.812565 0.28167 0
M  V30 3156 C 539.457 1.90572 1.03784 0
M  V30 3157 N 539.337 3.167 0.683905 0
M  V30 3158 C 539.217 3.26538 -0.652815 0
M  V30 3159 H 536.239 8.13738 -3.03804 0
M  V30 3160 H 535.967 6.42974 -2.55559 0
M  V30 3161 H 536.835 8.12139 -0.792866 0
M  V30 3162 H 539.49 5.80178 0.160643 0
M  V30 3163 H 539.77 6.51379 -2.75643 0
M  V30 3164 H 540.761 7.01832 -1.3448 0
M  V30 3165 H 538.927 8.73771 -2.38364 0
M  V30 3166 H 538.886 4.7189 -3.52311 0
M  V30 3167 H 539.267 -0.0721434 -2.82608 0
M  V30 3168 H 539.456 -1.0785 -1.36544 0
M  V30 3169 H 539.564 1.73207 2.10241 0
M  V30 3170 P 540.797 8.91 3.38379e-12 0
M  V30 3171 O 541.017 10.1726 0.733694 0
M  V30 3172 O 541.587 8.73148 -1.23936 0
M  V30 3173 O 541.047 7.66872 0.971405 0
M  V30 3174 C 540.107 7.42309 2.04641 0
M  V30 3175 C 540.837 6.86059 3.24661 0
M  V30 3176 O 541.047 5.42847 3.03646 0
M  V30 3177 C 542.237 7.41196 3.50753 0
M  V30 3178 O 542.627 7.27073 4.86816 0
M  V30 3179 C 543.117 6.5273 2.63741 0
M  V30 3180 C 542.407 5.1842 2.73198 0
M  V30 3181 N 542.457 4.38762 1.4784 0
M  V30 3182 H 539.618 8.36803 2.32493 0
M  V30 3183 H 539.348 6.70197 1.71129 0
M  V30 3184 H 540.215 7.03551 4.13168 0
M  V30 3185 P 544.177 7.20834 5.23717 0
M  V30 3186 O 544.397 7.79853 6.57286 0
M  V30 3187 O 544.967 7.79239 4.12957 0
M  V30 3188 O 544.427 5.63315 5.29344 0
M  V30 3189 C 543.487 4.80255 6.01876 0
M  V30 3190 C 544.217 3.64202 6.65911 0
M  V30 3191 O 544.427 2.60694 5.64732 0
M  V30 3192 C 545.617 3.93473 7.1943 0
M  V30 3193 O 546.007 3.02071 8.21205 0
M  V30 3194 C 546.497 3.73047 5.97036 0
M  V30 3195 C 545.787 2.58828 5.25741 0
M  V30 3196 N 545.837 2.68068 3.77503 0
M  V30 3197 H 542.998 5.40332 6.79951 0
M  V30 3198 H 542.728 4.41613 5.32378 0
M  V30 3199 H 543.595 3.26331 7.47797 0
M  V30 3200 P 547.557 2.75334 8.47391 0
M  V30 3201 O 547.777 2.44571 9.90142 0
M  V30 3202 O 548.347 3.87688 7.92115 0
M  V30 3203 O 547.807 1.4459 7.59357 0
M  V30 3204 C 546.867 0.347608 7.69215 0
M  V30 3205 C 547.597 -0.96767 7.52806 0
M  V30 3206 O 547.807 -1.21036 6.1011 0
M  V30 3207 C 548.997 -1.04544 8.13308 0
M  V30 3208 O 549.387 -2.38311 8.41922 0
M  V30 3209 C 549.877 -0.491279 7.02284 0
M  V30 3210 C 549.167 -0.996264 5.77469 0
M  V30 3211 N 549.217 -0.0501916 4.62973 0
M  V30 3212 H 546.378 0.374722 8.67691 0
M  V30 3213 H 546.108 0.443485 6.90277 0
M  V30 3214 H 546.975 -1.75537 7.96793 0
M  V30 3215 P 550.937 -2.75334 8.47391 0
M  V30 3216 O 551.157 -3.84128 9.44797 0
M  V30 3217 O 551.727 -1.51947 8.68712 0
M  V30 3218 O 551.187 -3.29363 6.99321 0
M  V30 3219 C 550.247 -4.24011 6.4274 0
M  V30 3220 C 550.977 -5.20775 5.52155 0
M  V30 3221 O 551.187 -4.56534 4.22446 0
M  V30 3222 C 552.377 -5.62629 5.96531 0
M  V30 3223 O 552.767 -6.87667 5.41053 0
M  V30 3224 C 553.257 -4.52537 5.39283 0
M  V30 3225 C 552.547 -4.20027 4.08623 0
M  V30 3226 N 552.597 -2.76189 3.71603 0
M  V30 3227 H 549.758 -4.797 7.24003 0
M  V30 3228 H 549.488 -3.69856 5.84513 0
M  V30 3229 H 550.355 -6.10356 5.41441 0
M  V30 3230 P 554.317 -7.20834 5.23717 0
M  V30 3231 O 554.537 -8.66274 5.38678 0
M  V30 3232 O 555.107 -6.33687 6.13629 0
M  V30 3233 O 554.567 -6.7751 3.72168 0
M  V30 3234 C 553.627 -7.20919 2.70795 0
M  V30 3235 C 554.357 -7.45864 1.40599 0
M  V30 3236 O 554.567 -6.17751 0.734343 0
M  V30 3237 C 555.757 -8.05906 1.51917 0
M  V30 3238 O 556.147 -8.74358 0.335205 0
M  V30 3239 C 556.637 -6.83093 1.70294 0
M  V30 3240 C 555.927 -5.79992 0.836974 0
M  V30 3241 N 555.977 -4.41864 1.38293 0
M  V30 3242 C 555.897 -4.02089 2.69407 0
M  V30 3243 N 555.967 -2.73403 2.85089 0
M  V30 3244 C 556.117 -2.25086 1.5642 0
M  V30 3245 C 556.247 -0.942887 1.04836 0
M  V30 3246 N 556.257 0.150999 1.80369 0
M  V30 3247 N 556.367 -0.812565 -0.28167 0
M  V30 3248 C 556.357 -1.90572 -1.03784 0
M  V30 3249 N 556.237 -3.167 -0.683905 0
M  V30 3250 C 556.117 -3.26538 0.652815 0
M  V30 3251 H 553.139 -8.13738 3.03804 0
M  V30 3252 H 552.867 -6.42974 2.55559 0
M  V30 3253 H 553.735 -8.12139 0.792866 0
M  V30 3254 H 556.39 -5.80178 -0.160643 0
M  V30 3255 H 556.67 -6.51379 2.75643 0
M  V30 3256 H 557.661 -7.01832 1.3448 0
M  V30 3257 H 555.827 -8.73771 2.38364 0
M  V30 3258 H 555.786 -4.7189 3.52311 0
M  V30 3259 H 556.167 0.0721434 2.82608 0
M  V30 3260 H 556.356 1.0785 1.36544 0
M  V30 3261 H 556.464 -1.73207 -2.10241 0
M  V30 3262 P 557.697 -8.91 -3.54097e-12 0
M  V30 3263 O 557.917 -10.1726 -0.733694 0
M  V30 3264 O 558.487 -8.73148 1.23936 0
M  V30 3265 O 557.947 -7.66872 -0.971405 0
M  V30 3266 C 557.007 -7.42309 -2.04641 0
M  V30 3267 C 557.737 -6.86059 -3.24661 0
M  V30 3268 O 557.947 -5.42847 -3.03646 0
M  V30 3269 C 559.137 -7.41196 -3.50753 0
M  V30 3270 O 559.527 -7.27073 -4.86816 0
M  V30 3271 C 560.017 -6.5273 -2.63741 0
M  V30 3272 C 559.307 -5.1842 -2.73198 0
M  V30 3273 N 559.357 -4.38762 -1.4784 0
M  V30 3274 H 556.518 -8.36803 -2.32493 0
M  V30 3275 H 556.248 -6.70197 -1.71129 0
M  V30 3276 H 557.115 -7.03551 -4.13168 0
M  V30 3277 P 561.077 -7.20834 -5.23717 0
M  V30 3278 O 561.297 -7.79853 -6.57286 0
M  V30 3279 O 561.867 -7.79239 -4.12957 0
M  V30 3280 O 561.327 -5.63315 -5.29344 0
M  V30 3281 C 560.387 -4.80255 -6.01876 0
M  V30 3282 C 561.117 -3.64202 -6.65911 0
M  V30 3283 O 561.327 -2.60694 -5.64732 0
M  V30 3284 C 562.517 -3.93473 -7.1943 0
M  V30 3285 O 562.907 -3.02071 -8.21205 0
M  V30 3286 C 563.397 -3.73047 -5.97036 0
M  V30 3287 C 562.687 -2.58828 -5.25741 0
M  V30 3288 N 562.737 -2.68068 -3.77503 0
M  V30 3289 H 559.898 -5.40332 -6.79951 0
M  V30 3290 H 559.628 -4.41613 -5.32378 0
M  V30 3291 H 560.495 -3.26331 -7.47797 0
M  V30 3292 P 564.457 -2.75334 -8.47391 0
M  V30 3293 O 564.677 -2.44619 -9.90336 0
M  V30 3294 O 565.247 -3.87776 -7.92294 0
M  V30 3295 O 564.707 -1.4459 -7.59357 0
M  V30 3296 C 563.767 -0.347653 -7.69315 0
M  V30 3297 C 564.497 0.96767 -7.52806 0
M  V30 3298 O 564.707 1.21055 -6.10208 0
M  V30 3299 C 565.897 1.04557 -8.13408 0
M  V30 3300 O 566.287 2.38311 -8.41922 0
M  V30 3301 C 566.777 0.491279 -7.02284 0
M  V30 3302 C 566.067 0.996264 -5.77469 0
M  V30 3303 N 566.117 0.0501916 -4.62973 0
M  V30 3304 C 566.037 -1.31969 -4.65661 0
M  V30 3305 N 566.107 -1.86649 -3.48119 0
M  V30 3306 C 566.257 -0.792089 -2.62406 0
M  V30 3307 C 566.387 -0.705684 -1.2207 0
M  V30 3308 N 566.397 -1.76207 -0.413762 0
M  V30 3309 N 566.507 0.518981 -0.685754 0
M  V30 3310 C 566.497 1.57595 -1.49174 0
M  V30 3311 N 566.377 1.62909 -2.80066 0
M  V30 3312 C 566.257 0.388195 -3.3073 0
M  V30 3313 H 563.279 -0.374765 -8.67791 0
M  V30 3314 H 563.007 -0.443613 -6.90476 0
M  V30 3315 H 563.875 1.75559 -7.96891 0
M  V30 3316 H 566.53 1.94563 -5.46818 0
M  V30 3317 H 566.81 -0.608651 -7.04676 0
M  V30 3318 H 567.801 0.889796 -7.09039 0
M  V30 3319 H 565.967 0.433128 -9.04664 0
M  V30 3320 H 565.926 -1.89246 -5.57664 0
M  V30 3321 H 566.307 -2.71005 -0.804694 0
M  V30 3322 H 566.496 -1.63189 0.603768 0
M  V30 3323 H 566.604 2.53475 -0.997614 0
M  V30 3324 P 567.837 2.75334 -8.47391 0
M  V30 3325 O 568.057 3.84128 -9.44797 0
M  V30 3326 O 568.627 1.51947 -8.68712 0
M  V30 3327 O 568.087 3.29363 -6.99321 0
M  V30 3328 C 567.147 4.24011 -6.4274 0
M  V30 3329 C 567.877 5.20775 -5.52155 0
M  V30 3330 O 568.087 4.56534 -4.22446 0
M  V30 3331 C 569.277 5.62629 -5.96531 0
M  V30 3332 O 569.667 6.87667 -5.41053 0
M  V30 3333 C 570.157 4.52537 -5.39283 0
M  V30 3334 C 569.447 4.20027 -4.08623 0
M  V30 3335 N 569.497 2.76189 -3.71603 0
M  V30 3336 H 566.658 4.797 -7.24003 0
M  V30 3337 H 566.388 3.69856 -5.84513 0
M  V30 3338 H 567.255 6.10356 -5.41441 0
M  V30 3339 P 571.217 7.20834 -5.23717 0
M  V30 3340 O 571.437 8.66104 -5.38572 0
M  V30 3341 O 572.007 6.33544 -6.1349 0
M  V30 3342 O 571.467 6.7751 -3.72168 0
M  V30 3343 C 570.527 7.20825 -2.7076 0
M  V30 3344 C 571.257 7.45864 -1.40599 0
M  V30 3345 O 571.467 6.17651 -0.734225 0
M  V30 3346 C 572.657 8.05808 -1.51899 0
M  V30 3347 O 573.047 8.74358 -0.335205 0
M  V30 3348 C 573.537 6.83093 -1.70294 0
M  V30 3349 C 572.827 5.79992 -0.836974 0
M  V30 3350 N 572.877 4.41864 -1.38293 0
M  V30 3351 C 572.797 3.99538 -2.69438 0
M  V30 3352 N 572.877 2.69909 -2.84277 0
M  V30 3353 C 573.017 2.21719 -1.5408 0
M  V30 3354 C 573.147 0.891712 -1.06628 0
M  V30 3355 O 573.167 -0.161298 -1.70137 0
M  V30 3356 N 573.267 0.856846 0.334985 0
M  V30 3357 C 573.267 1.9641 1.15789 0
M  V30 3358 N 573.397 1.72708 2.46522 0
M  V30 3359 N 573.137 3.21165 0.713741 0
M  V30 3360 C 573.017 3.26797 -0.639748 0
M  V30 3361 H 570.038 8.13644 -3.0377 0
M  V30 3362 H 569.768 6.42788 -2.55485 0
M  V30 3363 H 570.635 8.12039 -0.792769 0
M  V30 3364 H 573.29 5.80061 0.166416 0
M  V30 3365 H 573.569 6.51287 -2.75604 0
M  V30 3366 H 574.561 7.01734 -1.34462 0
M  V30 3367 H 572.727 8.73674 -2.38337 0
M  V30 3368 H 572.678 4.68207 -3.53221 0
M  V30 3369 H 573.36 -0.0398818 0.767965 0
M  V30 3370 H 573.397 2.50995 3.13503 0
M  V30 3371 H 573.498 0.759148 2.80716 0
M  V30 3372 P 574.597 8.91 3.69815e-12 0
M  V30 3373 O 574.817 10.1726 0.733694 0
M  V30 3374 O 575.387 8.73148 -1.23936 0
M  V30 3375 O 574.847 7.66872 0.971405 0
M  V30 3376 C 573.907 7.42309 2.04641 0
M  V30 3377 C 574.637 6.86059 3.24661 0
M  V30 3378 O 574.847 5.42847 3.03646 0
M  V30 3379 C 576.037 7.41196 3.50753 0
M  V30 3380 O 576.427 7.27073 4.86816 0
M  V30 3381 C 576.917 6.5273 2.63741 0
M  V30 3382 C 576.207 5.1842 2.73198 0
M  V30 3383 N 576.257 4.38762 1.4784 0
M  V30 3384 H 573.418 8.36803 2.32493 0
M  V30 3385 H 573.148 6.70197 1.71129 0
M  V30 3386 H 574.015 7.03551 4.13168 0
M  V30 3387 P 577.977 7.20834 5.23717 0
M  V30 3388 O 578.197 7.80006 6.57415 0
M  V30 3389 O 578.767 7.79416 4.13051 0
M  V30 3390 O 578.227 5.63315 5.29344 0
M  V30 3391 C 577.287 4.80318 6.01954 0
M  V30 3392 C 578.017 3.64202 6.65911 0
M  V30 3393 O 578.227 2.60736 5.64823 0
M  V30 3394 C 579.417 3.93521 7.19518 0
M  V30 3395 O 579.807 3.02071 8.21205 0
M  V30 3396 C 580.297 3.73047 5.97036 0
M  V30 3397 C 579.587 2.58828 5.25741 0
M  V30 3398 N 579.637 2.68068 3.77503 0
M  V30 3399 H 576.799 5.40394 6.8003 0
M  V30 3400 H 576.527 4.41741 5.32532 0
M  V30 3401 H 577.395 3.26371 7.47889 0
M  V30 3402 H 580.05 1.64007 5.56746 0
M  V30 3403 H 580.33 4.63439 5.3432 0
M  V30 3404 H 581.321 3.44776 6.25925 0
M  V30 3405 H 579.487 4.96707 7.57347 0
M  V30 3406 P 581.357 2.75334 8.47391 0
M  V30 3407 O 581.577 2.44571 9.90142 0
M  V30 3408 O 582.147 3.87688 7.92115 0
M  V30 3409 O 581.607 1.4459 7.59357 0
M  V30 3410 C 580.667 0.347608 7.69215 0
M  V30 3411 C 581.397 -0.96767 7.52806 0
M  V30 3412 O 581.607 -1.21036 6.1011 0
M  V30 3413 C 582.797 -1.04544 8.13308 0
M  V30 3414 O 583.187 -2.38311 8.41922 0
M  V30 3415 C 583.677 -0.491279 7.02284 0
M  V30 3416 C 582.967 -0.996264 5.77469 0
M  V30 3417 N 583.017 -0.0501916 4.62973 0
M  V30 3418 H 580.178 0.374722 8.67691 0
M  V30 3419 H 579.908 0.443485 6.90277 0
M  V30 3420 H 580.775 -1.75537 7.96793 0
M  V30 3421 P 584.737 -2.75334 8.47391 0
M  V30 3422 O 584.957 -3.84128 9.44797 0
M  V30 3423 O 585.527 -1.51947 8.68712 0
M  V30 3424 O 584.987 -3.29363 6.99321 0
M  V30 3425 C 584.047 -4.24011 6.4274 0
M  V30 3426 C 584.777 -5.20775 5.52155 0
M  V30 3427 O 584.987 -4.56534 4.22446 0
M  V30 3428 C 586.177 -5.62629 5.96531 0
M  V30 3429 O 586.567 -6.87667 5.41053 0
M  V30 3430 C 587.057 -4.52537 5.39283 0
M  V30 3431 C 586.347 -4.20027 4.08623 0
M  V30 3432 N 586.397 -2.76189 3.71603 0
M  V30 3433 H 583.558 -4.797 7.24003 0
M  V30 3434 H 583.288 -3.69856 5.84513 0
M  V30 3435 H 584.155 -6.10356 5.41441 0
M  V30 3436 P 588.117 -7.20834 5.23717 0
M  V30 3437 O 588.337 -8.66104 5.38572 0
M  V30 3438 O 588.907 -6.33544 6.1349 0
M  V30 3439 O 588.367 -6.7751 3.72168 0
M  V30 3440 C 587.427 -7.20825 2.7076 0
M  V30 3441 C 588.157 -7.45864 1.40599 0
M  V30 3442 O 588.367 -6.17651 0.734225 0
M  V30 3443 C 589.557 -8.05808 1.51899 0
M  V30 3444 O 589.947 -8.74358 0.335205 0
M  V30 3445 C 590.437 -6.83093 1.70294 0
M  V30 3446 C 589.727 -5.79992 0.836974 0
M  V30 3447 N 589.777 -4.41864 1.38293 0
M  V30 3448 C 589.697 -3.99538 2.69438 0
M  V30 3449 N 589.777 -2.69909 2.84277 0
M  V30 3450 C 589.917 -2.21719 1.5408 0
M  V30 3451 C 590.047 -0.891712 1.06628 0
M  V30 3452 N 590.167 -0.856846 -0.334985 0
M  V30 3453 C 590.167 -1.9641 -1.15789 0
M  V30 3454 N 590.297 -1.72708 -2.46522 0
M  V30 3455 N 590.037 -3.21165 -0.713741 0
M  V30 3456 C 589.917 -3.26797 0.639748 0
M  V30 3457 H 586.938 -8.13644 3.0377 0
M  V30 3458 H 586.668 -6.42788 2.55485 0
M  V30 3459 H 587.535 -8.12039 0.792769 0
M  V30 3460 P 591.496 -8.91 -3.85533e-12 0
M  V30 3461 O 591.716 -10.1726 -0.733694 0
M  V30 3462 O 592.286 -8.73148 1.23936 0
M  V30 3463 O 591.746 -7.66872 -0.971405 0
M  V30 3464 C 590.806 -7.42309 -2.04641 0
M  V30 3465 C 591.536 -6.86059 -3.24661 0
M  V30 3466 O 591.746 -5.42847 -3.03646 0
M  V30 3467 C 592.937 -7.41196 -3.50753 0
M  V30 3468 O 593.327 -7.27073 -4.86816 0
M  V30 3469 C 593.817 -6.5273 -2.63741 0
M  V30 3470 C 593.106 -5.1842 -2.73198 0
M  V30 3471 N 593.156 -4.38762 -1.4784 0
M  V30 3472 H 590.317 -8.36803 -2.32493 0
M  V30 3473 H 590.048 -6.70197 -1.71129 0
M  V30 3474 H 590.914 -7.03551 -4.13168 0
M  V30 3475 P 594.876 -7.20834 -5.23717 0
M  V30 3476 O 595.096 -7.79853 -6.57286 0
M  V30 3477 O 595.666 -7.79239 -4.12957 0
M  V30 3478 O 595.126 -5.63315 -5.29344 0
M  V30 3479 C 594.186 -4.80255 -6.01876 0
M  V30 3480 C 594.916 -3.64202 -6.65911 0
M  V30 3481 O 595.126 -2.60694 -5.64732 0
M  V30 3482 C 596.316 -3.93473 -7.1943 0
M  V30 3483 O 596.706 -3.02071 -8.21205 0
M  V30 3484 C 597.196 -3.73047 -5.97036 0
M  V30 3485 C 596.486 -2.58828 -5.25741 0
M  V30 3486 N 596.536 -2.68068 -3.77503 0
M  V30 3487 C 596.456 -3.79715 -2.96723 0
M  V30 3488 N 596.536 -3.5377 -1.68852 0
M  V30 3489 C 596.676 -2.15054 -1.63254 0
M  V30 3490 C 596.806 -1.28964 -0.518571 0
M  V30 3491 O 596.826 -1.56826 0.679156 0
M  V30 3492 N 596.926 0.0538097 -0.918425 0
M  V30 3493 C 596.926 0.494275 -2.22578 0
M  V30 3494 N 597.056 1.81086 -2.40434 0
M  V30 3495 N 596.796 -0.313645 -3.27502 0
M  V30 3496 C 596.676 -1.61829 -2.91033 0
M  V30 3497 H 593.697 -5.40332 -6.79951 0
M  V30 3498 H 593.427 -4.41613 -5.32378 0
M  V30 3499 H 594.294 -3.26331 -7.47797 0
M  V30 3500 H 596.949 -1.63422 -5.56814 0
M  V30 3501 H 597.228 -4.63374 -5.34244 0
M  V30 3502 H 598.22 -3.44728 -6.25838 0
M  V30 3503 H 596.386 -4.96652 -7.57263 0
M  V30 3504 H 596.337 -4.80617 -3.3614 0
M  V30 3505 H 597.019 0.742702 -0.199384 0
M  V30 3506 H 597.056 2.20598 -3.35588 0
M  V30 3507 H 597.157 2.43518 -1.58945 0
M  V30 3508 P 598.256 -2.75334 -8.47391 0
M  V30 3509 O 598.476 -2.44619 -9.90336 0
M  V30 3510 O 599.046 -3.87776 -7.92294 0
M  V30 3511 O 598.506 -1.4459 -7.59357 0
M  V30 3512 C 597.566 -0.347653 -7.69315 0
M  V30 3513 C 598.296 0.96767 -7.52806 0
M  V30 3514 O 598.506 1.21055 -6.10208 0
M  V30 3515 C 599.696 1.04557 -8.13408 0
M  V30 3516 O 600.086 2.38311 -8.41922 0
M  V30 3517 C 600.576 0.491279 -7.02284 0
M  V30 3518 C 599.866 0.996264 -5.77469 0
M  V30 3519 N 599.916 0.0501916 -4.62973 0
M  V30 3520 H 597.078 -0.374765 -8.67791 0
M  V30 3521 H 596.806 -0.443613 -6.90476 0
M  V30 3522 H 597.674 1.75559 -7.96891 0
M  V30 3523 H 600.329 1.94563 -5.46818 0
M  V30 3524 H 600.609 -0.608651 -7.04676 0
M  V30 3525 H 601.6 0.889796 -7.09039 0
M  V30 3526 H 599.766 0.433128 -9.04664 0
M  V30 3527 P 601.636 2.75334 -8.47391 0
M  V30 3528 O 601.856 3.84128 -9.44797 0
M  V30 3529 O 602.426 1.51947 -8.68712 0
M  V30 3530 O 601.886 3.29363 -6.99321 0
M  V30 3531 C 600.946 4.24011 -6.4274 0
M  V30 3532 C 601.676 5.20775 -5.52155 0
M  V30 3533 O 601.886 4.56534 -4.22446 0
M  V30 3534 C 603.076 5.62629 -5.96531 0
M  V30 3535 O 603.466 6.87667 -5.41053 0
M  V30 3536 C 603.956 4.52537 -5.39283 0
M  V30 3537 C 603.246 4.20027 -4.08623 0
M  V30 3538 N 603.296 2.76189 -3.71603 0
M  V30 3539 C 603.216 1.64862 -4.52822 0
M  V30 3540 N 603.296 0.512671 -3.88633 0
M  V30 3541 C 603.436 0.888083 -2.54977 0
M  V30 3542 C 603.566 0.094668 -1.38677 0
M  V30 3543 N 603.686 0.890102 -0.232633 0
M  V30 3544 C 603.686 2.26958 -0.21772 0
M  V30 3545 N 603.816 2.84626 0.97925 0
M  V30 3546 N 603.556 3.0178 -1.31033 0
M  V30 3547 C 603.436 2.26781 -2.43843 0
M  V30 3548 H 600.457 4.797 -7.24003 0
M  V30 3549 H 600.187 3.69856 -5.84513 0
M  V30 3550 H 601.054 6.10356 -5.41441 0
M  V30 3551 P 605.016 7.20834 -5.23717 0
M  V30 3552 O 605.236 8.66189 -5.38625 0
M  V30 3553 O 605.806 6.33615 -6.1356 0
M  V30 3554 O 605.266 6.7751 -3.72168 0
M  V30 3555 C 604.326 7.20732 -2.70725 0
M  V30 3556 C 605.056 7.45864 -1.40599 0
M  V30 3557 O 605.266 6.17651 -0.734225 0
M  V30 3558 C 606.456 8.05808 -1.51899 0
M  V30 3559 O 606.846 8.74358 -0.335205 0
M  V30 3560 C 607.336 6.83093 -1.70294 0
M  V30 3561 C 606.626 5.79992 -0.836974 0
M  V30 3562 N 606.676 4.41769 -1.38263 0
M  V30 3563 C 606.826 3.38591 -0.481702 0
M  V30 3564 O 606.916 3.56839 0.718452 0
M  V30 3565 N 606.866 2.1206 -1.03569 0
M  V30 3566 C 606.776 1.80696 -2.36966 0
M  V30 3567 C 606.626 2.94845 -3.23898 0
M  V30 3568 C 606.576 4.19803 -2.73435 0
M  V30 3569 H 603.836 8.13644 -3.0377 0
M  V30 3570 H 603.567 6.42695 -2.55448 0
M  V30 3571 H 604.434 8.12039 -0.792769 0
M  V30 3572 H 607.089 5.79978 0.160587 0
M  V30 3573 H 607.368 6.51379 -2.75643 0
M  V30 3574 H 608.36 7.01734 -1.34462 0
M  V30 3575 H 606.526 8.73674 -2.38337 0
M  V30 3576 H 606.455 5.04492 -3.4095 0
M  V30 3577 P 608.396 8.91 4.01252e-12 0
M  V30 3578 O 608.616 10.1726 0.733694 0
M  V30 3579 O 609.186 8.73148 -1.23936 0
M  V30 3580 O 608.646 7.66872 0.971405 0
M  V30 3581 C 607.706 7.42309 2.04641 0
M  V30 3582 C 608.436 6.86059 3.24661 0
M  V30 3583 O 608.646 5.42847 3.03646 0
M  V30 3584 C 609.836 7.41196 3.50753 0
M  V30 3585 O 610.226 7.27073 4.86816 0
M  V30 3586 C 610.716 6.5273 2.63741 0
M  V30 3587 C 610.006 5.1842 2.73198 0
M  V30 3588 N 610.056 4.38762 1.4784 0
M  V30 3589 H 607.217 8.36803 2.32493 0
M  V30 3590 H 606.947 6.70197 1.71129 0
M  V30 3591 H 607.814 7.03551 4.13168 0
M  V30 3592 P 611.776 7.20834 5.23717 0
M  V30 3593 O 611.996 7.79853 6.57286 0
M  V30 3594 O 612.566 7.79239 4.12957 0
M  V30 3595 O 612.026 5.63315 5.29344 0
M  V30 3596 C 611.086 4.80255 6.01876 0
M  V30 3597 C 611.816 3.64202 6.65911 0
M  V30 3598 O 612.026 2.60694 5.64732 0
M  V30 3599 C 613.216 3.93473 7.1943 0
M  V30 3600 O 613.606 3.02071 8.21205 0
M  V30 3601 C 614.096 3.73047 5.97036 0
M  V30 3602 C 613.386 2.58828 5.25741 0
M  V30 3603 N 613.436 2.68068 3.77503 0
M  V30 3604 H 610.597 5.40332 6.79951 0
M  V30 3605 H 610.327 4.41613 5.32378 0
M  V30 3606 H 611.194 3.26331 7.47797 0
M  V30 3607 P 615.156 2.75334 8.47391 0
M  V30 3608 O 615.376 2.44571 9.90142 0
M  V30 3609 O 615.946 3.87688 7.92115 0
M  V30 3610 O 615.406 1.4459 7.59357 0
M  V30 3611 C 614.466 0.347608 7.69215 0
M  V30 3612 C 615.196 -0.96767 7.52806 0
M  V30 3613 O 615.406 -1.21036 6.1011 0
M  V30 3614 C 616.596 -1.04544 8.13308 0
M  V30 3615 O 616.986 -2.38311 8.41922 0
M  V30 3616 C 617.476 -0.491279 7.02284 0
M  V30 3617 C 616.766 -0.996264 5.77469 0
M  V30 3618 N 616.816 -0.0501916 4.62973 0
M  V30 3619 H 613.977 0.374722 8.67691 0
M  V30 3620 H 613.707 0.443485 6.90277 0
M  V30 3621 H 614.574 -1.75537 7.96793 0
M  V30 3622 P 618.536 -2.75334 8.47391 0
M  V30 3623 O 618.756 -3.84128 9.44797 0
M  V30 3624 O 619.326 -1.51947 8.68712 0
M  V30 3625 O 618.786 -3.29363 6.99321 0
M  V30 3626 C 617.846 -4.24011 6.4274 0
M  V30 3627 C 618.576 -5.20775 5.52155 0
M  V30 3628 O 618.786 -4.56534 4.22446 0
M  V30 3629 C 619.976 -5.62629 5.96531 0
M  V30 3630 O 620.366 -6.87667 5.41053 0
M  V30 3631 C 620.856 -4.52537 5.39283 0
M  V30 3632 C 620.146 -4.20027 4.08623 0
M  V30 3633 N 620.196 -2.76189 3.71603 0
M  V30 3634 H 617.357 -4.797 7.24003 0
M  V30 3635 H 617.087 -3.69856 5.84513 0
M  V30 3636 H 617.954 -6.10356 5.41441 0
M  V30 3637 P 621.916 -7.20834 5.23717 0
M  V30 3638 O 622.136 -8.66104 5.38572 0
M  V30 3639 O 622.706 -6.33544 6.1349 0
M  V30 3640 O 622.166 -6.7751 3.72168 0
M  V30 3641 C 621.226 -7.20825 2.7076 0
M  V30 3642 C 621.956 -7.45864 1.40599 0
M  V30 3643 O 622.166 -6.17651 0.734225 0
M  V30 3644 C 623.356 -8.05808 1.51899 0
M  V30 3645 O 623.746 -8.74358 0.335205 0
M  V30 3646 C 624.236 -6.83093 1.70294 0
M  V30 3647 C 623.526 -5.79992 0.836974 0
M  V30 3648 N 623.576 -4.41864 1.38293 0
M  V30 3649 H 620.737 -8.13644 3.0377 0
M  V30 3650 H 620.467 -6.42788 2.55485 0
M  V30 3651 H 621.334 -8.12039 0.792769 0
M  V30 3652 P 625.296 -8.91 -4.1697e-12 0
M  V30 3653 O 625.516 -10.1726 -0.733694 0
M  V30 3654 O 626.086 -8.73148 1.23936 0
M  V30 3655 O 625.546 -7.66872 -0.971405 0
M  V30 3656 C 624.606 -7.42309 -2.04641 0
M  V30 3657 C 625.336 -6.86059 -3.24661 0
M  V30 3658 O 625.546 -5.42847 -3.03646 0
M  V30 3659 C 626.736 -7.41196 -3.50753 0
M  V30 3660 O 627.126 -7.27073 -4.86816 0
M  V30 3661 C 627.616 -6.5273 -2.63741 0
M  V30 3662 C 626.906 -5.1842 -2.73198 0
M  V30 3663 N 626.956 -4.38762 -1.4784 0
M  V30 3664 H 624.117 -8.36803 -2.32493 0
M  V30 3665 H 623.847 -6.70197 -1.71129 0
M  V30 3666 H 624.714 -7.03551 -4.13168 0
M  V30 3667 P 628.676 -7.20834 -5.23717 0
M  V30 3668 O 628.896 -7.79853 -6.57286 0
M  V30 3669 O 629.466 -7.79239 -4.12957 0
M  V30 3670 O 628.926 -5.63315 -5.29344 0
M  V30 3671 C 627.986 -4.80255 -6.01876 0
M  V30 3672 C 628.716 -3.64202 -6.65911 0
M  V30 3673 O 628.926 -2.60694 -5.64732 0
M  V30 3674 C 630.116 -3.93473 -7.1943 0
M  V30 3675 O 630.506 -3.02071 -8.21205 0
M  V30 3676 C 630.996 -3.73047 -5.97036 0
M  V30 3677 C 630.286 -2.58828 -5.25741 0
M  V30 3678 N 630.336 -2.68068 -3.77503 0
M  V30 3679 H 627.497 -5.40332 -6.79951 0
M  V30 3680 H 627.227 -4.41613 -5.32378 0
M  V30 3681 H 628.094 -3.26331 -7.47797 0
M  V30 3682 P 632.056 -2.75334 -8.47391 0
M  V30 3683 O 632.276 -2.44571 -9.90142 0
M  V30 3684 O 632.846 -3.87688 -7.92115 0
M  V30 3685 O 632.306 -1.4459 -7.59357 0
M  V30 3686 C 631.366 -0.347608 -7.69215 0
M  V30 3687 C 632.096 0.96767 -7.52806 0
M  V30 3688 O 632.306 1.21036 -6.1011 0
M  V30 3689 C 633.496 1.04544 -8.13308 0
M  V30 3690 O 633.886 2.38311 -8.41922 0
M  V30 3691 C 634.376 0.491279 -7.02284 0
M  V30 3692 C 633.666 0.996264 -5.77469 0
M  V30 3693 N 633.716 0.0501916 -4.62973 0
M  V30 3694 H 630.877 -0.374722 -8.67691 0
M  V30 3695 H 630.607 -0.443485 -6.90277 0
M  V30 3696 H 631.474 1.75537 -7.96793 0
M  V30 3697 P 635.436 2.75334 -8.47391 0
M  V30 3698 O 635.656 3.84128 -9.44797 0
M  V30 3699 O 636.226 1.51947 -8.68712 0
M  V30 3700 O 635.686 3.29363 -6.99321 0
M  V30 3701 C 634.746 4.24011 -6.4274 0
M  V30 3702 C 635.476 5.20775 -5.52155 0
M  V30 3703 O 635.686 4.56534 -4.22446 0
M  V30 3704 C 636.876 5.62629 -5.96531 0
M  V30 3705 O 637.266 6.87667 -5.41053 0
M  V30 3706 C 637.756 4.52537 -5.39283 0
M  V30 3707 C 637.046 4.20027 -4.08623 0
M  V30 3708 N 637.096 2.76189 -3.71603 0
M  V30 3709 H 634.257 4.797 -7.24003 0
M  V30 3710 H 633.987 3.69856 -5.84513 0
M  V30 3711 H 634.854 6.10356 -5.41441 0
M  V30 3712 P 638.816 7.20834 -5.23717 0
M  V30 3713 O 639.036 8.66104 -5.38572 0
M  V30 3714 O 639.606 6.33544 -6.1349 0
M  V30 3715 O 639.066 6.7751 -3.72168 0
M  V30 3716 C 638.126 7.20825 -2.7076 0
M  V30 3717 C 638.856 7.45864 -1.40599 0
M  V30 3718 O 639.066 6.17651 -0.734225 0
M  V30 3719 C 640.256 8.05808 -1.51899 0
M  V30 3720 O 640.646 8.74358 -0.335205 0
M  V30 3721 C 641.136 6.83093 -1.70294 0
M  V30 3722 C 640.426 5.79992 -0.836974 0
M  V30 3723 N 640.476 4.41864 -1.38293 0
M  V30 3724 H 637.637 8.13644 -3.0377 0
M  V30 3725 H 637.367 6.42788 -2.55485 0
M  V30 3726 H 638.234 8.12039 -0.792769 0
M  V30 3727 P 642.196 8.91 4.32688e-12 0
M  V30 3728 O 642.416 10.1726 0.733694 0
M  V30 3729 O 642.986 8.73148 -1.23936 0
M  V30 3730 O 642.446 7.66872 0.971405 0
M  V30 3731 C 641.506 7.42309 2.04641 0
M  V30 3732 C 642.236 6.86059 3.24661 0
M  V30 3733 O 642.446 5.42847 3.03646 0
M  V30 3734 C 643.636 7.41196 3.50753 0
M  V30 3735 O 644.026 7.27073 4.86816 0
M  V30 3736 C 644.516 6.5273 2.63741 0
M  V30 3737 C 643.806 5.1842 2.73198 0
M  V30 3738 N 643.856 4.38762 1.4784 0
M  V30 3739 H 641.017 8.36803 2.32493 0
M  V30 3740 H 640.747 6.70197 1.71129 0
M  V30 3741 H 641.614 7.03551 4.13168 0
M  V30 3742 P 645.576 7.20834 5.23717 0
M  V30 3743 O 645.796 7.79853 6.57286 0
M  V30 3744 O 646.366 7.79239 4.12957 0
M  V30 3745 O 645.826 5.63315 5.29344 0
M  V30 3746 C 644.886 4.80255 6.01876 0
M  V30 3747 C 645.616 3.64202 6.65911 0
M  V30 3748 O 645.826 2.60694 5.64732 0
M  V30 3749 C 647.016 3.93473 7.1943 0
M  V30 3750 O 647.406 3.02071 8.21205 0
M  V30 3751 C 647.896 3.73047 5.97036 0
M  V30 3752 C 647.186 2.58828 5.25741 0
M  V30 3753 N 647.236 2.68068 3.77503 0
M  V30 3754 C 647.156 3.79715 2.96723 0
M  V30 3755 N 647.236 3.5377 1.68852 0
M  V30 3756 C 647.376 2.15054 1.63254 0
M  V30 3757 C 647.506 1.28964 0.518571 0
M  V30 3758 N 647.626 -0.0538097 0.918425 0
M  V30 3759 C 647.626 -0.494275 2.22578 0
M  V30 3760 N 647.756 -1.81086 2.40434 0
M  V30 3761 N 647.496 0.313645 3.27502 0
M  V30 3762 C 647.376 1.61829 2.91033 0
M  V30 3763 H 644.397 5.40332 6.79951 0
M  V30 3764 H 644.127 4.41613 5.32378 0
M  V30 3765 H 644.994 3.26331 7.47797 0
M  V30 3766 P 648.956 2.75334 8.47391 0
M  V30 3767 O 649.176 2.44571 9.90142 0
M  V30 3768 O 649.746 3.87688 7.92115 0
M  V30 3769 O 649.206 1.4459 7.59357 0
M  V30 3770 C 648.266 0.347608 7.69215 0
M  V30 3771 C 648.996 -0.96767 7.52806 0
M  V30 3772 O 649.206 -1.21036 6.1011 0
M  V30 3773 C 650.396 -1.04544 8.13308 0
M  V30 3774 O 650.786 -2.38311 8.41922 0
M  V30 3775 C 651.276 -0.491279 7.02284 0
M  V30 3776 C 650.566 -0.996264 5.77469 0
M  V30 3777 N 650.616 -0.0501916 4.62973 0
M  V30 3778 H 647.777 0.374722 8.67691 0
M  V30 3779 H 647.507 0.443485 6.90277 0
M  V30 3780 H 648.374 -1.75537 7.96793 0
M  V30 3781 P 652.336 -2.75334 8.47391 0
M  V30 3782 O 652.556 -3.84166 9.4489 0
M  V30 3783 O 653.126 -1.51964 8.6881 0
M  V30 3784 O 652.586 -3.29363 6.99321 0
M  V30 3785 C 651.646 -4.23956 6.42656 0
M  V30 3786 C 652.376 -5.20775 5.52155 0
M  V30 3787 O 652.586 -4.56534 4.22446 0
M  V30 3788 C 653.776 -5.62629 5.96531 0
M  V30 3789 O 654.166 -6.87667 5.41053 0
M  V30 3790 C 654.656 -4.52537 5.39283 0
M  V30 3791 C 653.946 -4.20027 4.08623 0
M  V30 3792 N 653.996 -2.7613 3.71522 0
M  V30 3793 C 654.146 -2.45612 2.37989 0
M  V30 3794 O 654.236 -3.30919 1.51621 0
M  V30 3795 N 654.186 -1.10684 2.08435 0
M  V30 3796 C 654.096 -0.0690084 2.9792 0
M  V30 3797 C 653.946 -0.481522 4.35345 0
M  V30 3798 C 653.896 -1.78906 4.67968 0
M  V30 3799 H 651.156 -4.797 7.24003 0
M  V30 3800 H 650.887 -3.69802 5.84429 0
M  V30 3801 H 651.754 -6.10356 5.41441 0
M  V30 3802 H 654.409 -4.78651 3.27911 0
M  V30 3803 H 654.688 -3.64957 6.05871 0
M  V30 3804 H 655.68 -4.8868 5.2125 0
M  V30 3805 H 653.846 -5.66726 7.06352 0
M  V30 3806 H 653.775 -2.07737 5.72367 0
M  V30 3807 P 655.716 -7.20834 5.23717 0
M  V30 3808 O 655.936 -8.66104 5.38572 0
M  V30 3809 O 656.506 -6.33544 6.1349 0
M  V30 3810 O 655.966 -6.7751 3.72168 0
M  V30 3811 C 655.026 -7.20825 2.7076 0
M  V30 3812 C 655.756 -7.45864 1.40599 0
M  V30 3813 O 655.966 -6.17651 0.734225 0
M  V30 3814 C 657.156 -8.05808 1.51899 0
M  V30 3815 O 657.546 -8.74358 0.335205 0
M  V30 3816 C 658.036 -6.83093 1.70294 0
M  V30 3817 C 657.326 -5.79992 0.836974 0
M  V30 3818 N 657.376 -4.41864 1.38293 0
M  V30 3819 H 654.537 -8.13644 3.0377 0
M  V30 3820 H 654.267 -6.42788 2.55485 0
M  V30 3821 H 655.134 -8.12039 0.792769 0
M  V30 3822 P 659.096 -8.91 -4.48406e-12 0
M  V30 3823 O 659.316 -10.1726 -0.733694 0
M  V30 3824 O 659.886 -8.73148 1.23936 0
M  V30 3825 O 659.346 -7.66872 -0.971405 0
M  V30 3826 C 658.406 -7.42309 -2.04641 0
M  V30 3827 C 659.136 -6.86059 -3.24661 0
M  V30 3828 O 659.346 -5.42847 -3.03646 0
M  V30 3829 C 660.536 -7.41196 -3.50753 0
M  V30 3830 O 660.926 -7.27073 -4.86816 0
M  V30 3831 C 661.416 -6.5273 -2.63741 0
M  V30 3832 C 660.706 -5.1842 -2.73198 0
M  V30 3833 N 660.756 -4.38762 -1.4784 0
M  V30 3834 H 657.917 -8.36803 -2.32493 0
M  V30 3835 H 657.647 -6.70197 -1.71129 0
M  V30 3836 H 658.514 -7.03551 -4.13168 0
M  V30 3837 P 662.476 -7.20834 -5.23717 0
M  V30 3838 O 662.696 -7.79853 -6.57286 0
M  V30 3839 O 663.266 -7.79239 -4.12957 0
M  V30 3840 O 662.726 -5.63315 -5.29344 0
M  V30 3841 C 661.786 -4.80255 -6.01876 0
M  V30 3842 C 662.516 -3.64202 -6.65911 0
M  V30 3843 O 662.726 -2.60694 -5.64732 0
M  V30 3844 C 663.916 -3.93473 -7.1943 0
M  V30 3845 O 664.306 -3.02071 -8.21205 0
M  V30 3846 C 664.796 -3.73047 -5.97036 0
M  V30 3847 C 664.086 -2.58828 -5.25741 0
M  V30 3848 N 664.136 -2.68068 -3.77503 0
M  V30 3849 H 661.297 -5.40332 -6.79951 0
M  V30 3850 H 661.027 -4.41613 -5.32378 0
M  V30 3851 H 661.894 -3.26331 -7.47797 0
M  V30 3852 P 665.856 -2.75334 -8.47391 0
M  V30 3853 O 666.076 -2.44571 -9.90142 0
M  V30 3854 O 666.646 -3.87688 -7.92115 0
M  V30 3855 O 666.106 -1.4459 -7.59357 0
M  V30 3856 C 665.166 -0.347608 -7.69215 0
M  V30 3857 C 665.896 0.96767 -7.52806 0
M  V30 3858 O 666.106 1.21036 -6.1011 0
M  V30 3859 C 667.296 1.04544 -8.13308 0
M  V30 3860 O 667.686 2.38311 -8.41922 0
M  V30 3861 C 668.176 0.491279 -7.02284 0
M  V30 3862 C 667.466 0.996264 -5.77469 0
M  V30 3863 N 667.516 0.0501916 -4.62973 0
M  V30 3864 H 664.677 -0.374722 -8.67691 0
M  V30 3865 H 664.407 -0.443485 -6.90277 0
M  V30 3866 H 665.274 1.75537 -7.96793 0
M  V30 3867 P 669.236 2.75334 -8.47391 0
M  V30 3868 O 669.456 3.84128 -9.44797 0
M  V30 3869 O 670.026 1.51947 -8.68712 0
M  V30 3870 O 669.486 3.29363 -6.99321 0
M  V30 3871 C 668.546 4.24011 -6.4274 0
M  V30 3872 C 669.276 5.20775 -5.52155 0
M  V30 3873 O 669.486 4.56534 -4.22446 0
M  V30 3874 C 670.676 5.62629 -5.96531 0
M  V30 3875 O 671.066 6.87667 -5.41053 0
M  V30 3876 C 671.556 4.52537 -5.39283 0
M  V30 3877 C 670.846 4.20027 -4.08623 0
M  V30 3878 N 670.896 2.76189 -3.71603 0
M  V30 3879 H 668.057 4.797 -7.24003 0
M  V30 3880 H 667.787 3.69856 -5.84513 0
M  V30 3881 H 668.654 6.10356 -5.41441 0
M  V30 3882 P 672.616 7.20834 -5.23717 0
M  V30 3883 O 672.836 8.66104 -5.38572 0
M  V30 3884 O 673.406 6.33544 -6.1349 0
M  V30 3885 O 672.866 6.7751 -3.72168 0
M  V30 3886 C 671.926 7.20825 -2.7076 0
M  V30 3887 C 672.656 7.45864 -1.40599 0
M  V30 3888 O 672.866 6.17651 -0.734225 0
M  V30 3889 C 674.056 8.05808 -1.51899 0
M  V30 3890 O 674.446 8.74358 -0.335205 0
M  V30 3891 C 674.936 6.83093 -1.70294 0
M  V30 3892 C 674.226 5.79992 -0.836974 0
M  V30 3893 N 674.276 4.41864 -1.38293 0
M  V30 3894 H 671.437 8.13644 -3.0377 0
M  V30 3895 H 671.167 6.42788 -2.55485 0
M  V30 3896 H 672.034 8.12039 -0.792769 0
M  V30 3897 P 675.996 8.91 4.64125e-12 0
M  V30 3898 O 676.216 10.1726 0.733694 0
M  V30 3899 O 676.786 8.73148 -1.23936 0
M  V30 3900 O 676.246 7.66872 0.971405 0
M  V30 3901 C 675.306 7.42309 2.04641 0
M  V30 3902 C 676.036 6.86059 3.24661 0
M  V30 3903 O 676.246 5.42847 3.03646 0
M  V30 3904 C 677.436 7.41196 3.50753 0
M  V30 3905 O 677.826 7.27073 4.86816 0
M  V30 3906 C 678.316 6.5273 2.63741 0
M  V30 3907 C 677.606 5.1842 2.73198 0
M  V30 3908 N 677.656 4.38762 1.4784 0
M  V30 3909 H 674.817 8.36803 2.32493 0
M  V30 3910 H 674.547 6.70197 1.71129 0
M  V30 3911 H 675.414 7.03551 4.13168 0
M  V30 3912 P 679.376 7.20834 5.23717 0
M  V30 3913 O 679.596 7.80006 6.57415 0
M  V30 3914 O 680.166 7.79416 4.13051 0
M  V30 3915 O 679.626 5.63315 5.29344 0
M  V30 3916 C 678.686 4.80318 6.01954 0
M  V30 3917 C 679.416 3.64202 6.65911 0
M  V30 3918 O 679.626 2.60736 5.64823 0
M  V30 3919 C 680.816 3.93521 7.19518 0
M  V30 3920 O 681.206 3.02071 8.21205 0
M  V30 3921 C 681.696 3.73047 5.97036 0
M  V30 3922 C 680.986 2.58828 5.25741 0
M  V30 3923 N 681.036 2.68068 3.77503 0
M  V30 3924 H 678.198 5.40394 6.8003 0
M  V30 3925 H 677.926 4.41741 5.32532 0
M  V30 3926 H 678.794 3.26371 7.47889 0
M  V30 3927 H 681.449 1.64007 5.56746 0
M  V30 3928 H 681.729 4.63439 5.3432 0
M  V30 3929 H 682.72 3.44776 6.25925 0
M  V30 3930 H 680.886 4.96707 7.57347 0
M  V30 3931 P 682.756 2.75334 8.47391 0
M  V30 3932 O 682.976 2.44571 9.90142 0
M  V30 3933 O 683.546 3.87688 7.92115 0
M  V30 3934 O 683.006 1.4459 7.59357 0
M  V30 3935 C 682.066 0.347608 7.69215 0
M  V30 3936 C 682.796 -0.96767 7.52806 0
M  V30 3937 O 683.006 -1.21036 6.1011 0
M  V30 3938 C 684.196 -1.04544 8.13308 0
M  V30 3939 O 684.586 -2.38311 8.41922 0
M  V30 3940 C 685.076 -0.491279 7.02284 0
M  V30 3941 C 684.366 -0.996264 5.77469 0
M  V30 3942 N 684.416 -0.0501916 4.62973 0
M  V30 3943 H 681.577 0.374722 8.67691 0
M  V30 3944 H 681.307 0.443485 6.90277 0
M  V30 3945 H 682.174 -1.75537 7.96793 0
M  V30 3946 P 686.136 -2.75334 8.47391 0
M  V30 3947 O 686.356 -3.84128 9.44797 0
M  V30 3948 O 686.926 -1.51947 8.68712 0
M  V30 3949 O 686.386 -3.29363 6.99321 0
M  V30 3950 C 685.446 -4.24011 6.4274 0
M  V30 3951 C 686.176 -5.20775 5.52155 0
M  V30 3952 O 686.386 -4.56534 4.22446 0
M  V30 3953 C 687.576 -5.62629 5.96531 0
M  V30 3954 O 687.966 -6.87667 5.41053 0
M  V30 3955 C 688.456 -4.52537 5.39283 0
M  V30 3956 C 687.746 -4.20027 4.08623 0
M  V30 3957 N 687.796 -2.76189 3.71603 0
M  V30 3958 H 684.957 -4.797 7.24003 0
M  V30 3959 H 684.687 -3.69856 5.84513 0
M  V30 3960 H 685.554 -6.10356 5.41441 0
M  V30 3961 P 689.516 -7.20834 5.23717 0
M  V30 3962 O 689.736 -8.66104 5.38572 0
M  V30 3963 O 690.306 -6.33544 6.1349 0
M  V30 3964 O 689.766 -6.7751 3.72168 0
M  V30 3965 C 688.826 -7.20825 2.7076 0
M  V30 3966 C 689.556 -7.45864 1.40599 0
M  V30 3967 O 689.766 -6.17651 0.734225 0
M  V30 3968 C 690.956 -8.05808 1.51899 0
M  V30 3969 O 691.346 -8.74358 0.335205 0
M  V30 3970 C 691.836 -6.83093 1.70294 0
M  V30 3971 C 691.126 -5.79992 0.836974 0
M  V30 3972 N 691.176 -4.41864 1.38293 0
M  V30 3973 H 688.337 -8.13644 3.0377 0
M  V30 3974 H 688.067 -6.42788 2.55485 0
M  V30 3975 H 688.934 -8.12039 0.792769 0
M  V30 3976 P 692.896 -8.91 -4.67181e-12 0
M  V30 3977 O 693.116 -10.1726 -0.733694 0
M  V30 3978 O 693.686 -8.73148 1.23936 0
M  V30 3979 O 693.146 -7.66872 -0.971405 0
M  V30 3980 C 692.206 -7.42309 -2.04641 0
M  V30 3981 C 692.936 -6.86059 -3.24661 0
M  V30 3982 O 693.146 -5.42847 -3.03646 0
M  V30 3983 C 694.336 -7.41196 -3.50753 0
M  V30 3984 O 694.726 -7.27073 -4.86816 0
M  V30 3985 C 695.216 -6.5273 -2.63741 0
M  V30 3986 C 694.506 -5.1842 -2.73198 0
M  V30 3987 N 694.556 -4.38762 -1.4784 0
M  V30 3988 C 694.476 -4.81605 -0.168631 0
M  V30 3989 N 694.556 -3.85454 0.713363 0
M  V30 3990 C 694.696 -2.6994 -0.0566958 0
M  V30 3991 C 694.826 -1.34815 0.338502 0
M  V30 3992 N 694.946 -0.496304 -0.77465 0
M  V30 3993 C 694.946 -0.908403 -2.09122 0
M  V30 3994 N 695.076 0.0517805 -3.00955 0
M  V30 3995 N 694.816 -2.17875 -2.46519 0
M  V30 3996 C 694.696 -3.01988 -1.4033 0
M  V30 3997 H 691.717 -8.36803 -2.32493 0
M  V30 3998 H 691.447 -6.70197 -1.71129 0
M  V30 3999 H 692.314 -7.03551 -4.13168 0
M  V30 4000 P 696.276 -7.20834 -5.23717 0
M  V30 4001 O 696.496 -7.79853 -6.57286 0
M  V30 4002 O 697.066 -7.79239 -4.12957 0
M  V30 4003 O 696.526 -5.63315 -5.29344 0
M  V30 4004 C 695.586 -4.80255 -6.01876 0
M  V30 4005 C 696.316 -3.64202 -6.65911 0
M  V30 4006 O 696.526 -2.60694 -5.64732 0
M  V30 4007 C 697.716 -3.93473 -7.1943 0
M  V30 4008 O 698.106 -3.02071 -8.21205 0
M  V30 4009 C 698.596 -3.73047 -5.97036 0
M  V30 4010 C 697.886 -2.58828 -5.25741 0
M  V30 4011 N 697.936 -2.68068 -3.77503 0
M  V30 4012 H 695.097 -5.40332 -6.79951 0
M  V30 4013 H 694.827 -4.41613 -5.32378 0
M  V30 4014 H 695.694 -3.26331 -7.47797 0
M  V30 4015 P 699.656 -2.75334 -8.47391 0
M  V30 4016 O 699.876 -2.44571 -9.90142 0
M  V30 4017 O 700.446 -3.87688 -7.92115 0
M  V30 4018 O 699.906 -1.4459 -7.59357 0
M  V30 4019 C 698.966 -0.347608 -7.69215 0
M  V30 4020 C 699.696 0.96767 -7.52806 0
M  V30 4021 O 699.906 1.21036 -6.1011 0
M  V30 4022 C 701.096 1.04544 -8.13308 0
M  V30 4023 O 701.486 2.38311 -8.41922 0
M  V30 4024 C 701.976 0.491279 -7.02284 0
M  V30 4025 C 701.266 0.996264 -5.77469 0
M  V30 4026 N 701.316 0.0501916 -4.62973 0
M  V30 4027 C 701.236 -1.32786 -4.63244 0
M  V30 4028 N 701.316 -1.86957 -3.44545 0
M  V30 4029 C 701.456 -0.780241 -2.58481 0
M  V30 4030 C 701.586 -0.738536 -1.17757 0
M  V30 4031 O 701.606 -1.66794 -0.372349 0
M  V30 4032 N 701.706 0.58337 -0.711393 0
M  V30 4033 C 701.706 1.70816 -1.51017 0
M  V30 4034 N 701.836 2.87826 -0.880757 0
M  V30 4035 N 701.576 1.67126 -2.8339 0
M  V30 4036 C 701.456 0.401421 -3.30572 0
M  V30 4037 H 698.477 -0.374722 -8.67691 0
M  V30 4038 H 698.207 -0.443485 -6.90277 0
M  V30 4039 H 699.074 1.75537 -7.96793 0
M  V30 4040 H 701.729 1.95076 -5.46529 0
M  V30 4041 H 702.008 -0.608565 -7.04577 0
M  V30 4042 H 703 0.889672 -7.08939 0
M  V30 4043 H 701.166 0.43308 -9.04564 0
M  V30 4044 H 701.117 -1.91249 -5.54442 0
M  V30 4045 H 701.799 0.718054 0.275244 0
M  V30 4046 H 701.836 3.75721 -1.41832 0
M  V30 4047 H 701.937 2.90436 0.145468 0
M  V30 4048 P 703.036 2.75334 -8.47391 0
M  V30 4049 O 703.256 3.84128 -9.44797 0
M  V30 4050 O 703.826 1.51947 -8.68712 0
M  V30 4051 O 703.286 3.29363 -6.99321 0
M  V30 4052 C 702.346 4.24011 -6.4274 0
M  V30 4053 C 703.076 5.20775 -5.52155 0
M  V30 4054 O 703.286 4.56534 -4.22446 0
M  V30 4055 C 704.476 5.62629 -5.96531 0
M  V30 4056 O 704.866 6.87667 -5.41053 0
M  V30 4057 C 705.356 4.52537 -5.39283 0
M  V30 4058 C 704.646 4.20027 -4.08623 0
M  V30 4059 N 704.696 2.76189 -3.71603 0
M  V30 4060 H 701.857 4.797 -7.24003 0
M  V30 4061 H 701.587 3.69856 -5.84513 0
M  V30 4062 H 702.454 6.10356 -5.41441 0
M  V30 4063 P 706.416 7.20834 -5.23717 0
M  V30 4064 O 706.636 8.66189 -5.38625 0
M  V30 4065 O 707.206 6.33615 -6.1356 0
M  V30 4066 O 706.666 6.7751 -3.72168 0
M  V30 4067 C 705.726 7.20732 -2.70725 0
M  V30 4068 C 706.456 7.45864 -1.40599 0
M  V30 4069 O 706.666 6.17651 -0.734225 0
M  V30 4070 C 707.856 8.05808 -1.51899 0
M  V30 4071 O 708.246 8.74358 -0.335205 0
M  V30 4072 C 708.736 6.83093 -1.70294 0
M  V30 4073 C 708.026 5.79992 -0.836974 0
M  V30 4074 N 708.076 4.41769 -1.38263 0
M  V30 4075 C 708.226 3.38591 -0.481702 0
M  V30 4076 O 708.316 3.56839 0.718452 0
M  V30 4077 N 708.266 2.1206 -1.03569 0
M  V30 4078 C 708.176 1.80696 -2.36966 0
M  V30 4079 C 708.026 2.94845 -3.23898 0
M  V30 4080 C 707.976 4.19803 -2.73435 0
M  V30 4081 H 705.236 8.13644 -3.0377 0
M  V30 4082 H 704.967 6.42695 -2.55448 0
M  V30 4083 H 705.834 8.12039 -0.792769 0
M  V30 4084 H 708.489 5.79978 0.160587 0
M  V30 4085 H 708.768 6.51379 -2.75643 0
M  V30 4086 H 709.76 7.01734 -1.34462 0
M  V30 4087 H 707.926 8.73674 -2.38337 0
M  V30 4088 H 707.855 5.04492 -3.4095 0
M  V30 4089 P 709.796 8.91 4.82899e-12 0
M  V30 4090 O 710.016 10.1726 0.733694 0
M  V30 4091 O 710.586 8.73148 -1.23936 0
M  V30 4092 O 710.046 7.66872 0.971405 0
M  V30 4093 C 709.106 7.42309 2.04641 0
M  V30 4094 C 709.836 6.86059 3.24661 0
M  V30 4095 O 710.046 5.42847 3.03646 0
M  V30 4096 C 711.236 7.41196 3.50753 0
M  V30 4097 O 711.626 7.27073 4.86816 0
M  V30 4098 C 712.116 6.5273 2.63741 0
M  V30 4099 C 711.406 5.1842 2.73198 0
M  V30 4100 N 711.456 4.38762 1.4784 0
M  V30 4101 H 708.617 8.36803 2.32493 0
M  V30 4102 H 708.347 6.70197 1.71129 0
M  V30 4103 H 709.214 7.03551 4.13168 0
M  V30 4104 P 713.176 7.20834 5.23717 0
M  V30 4105 O 713.396 7.79853 6.57286 0
M  V30 4106 O 713.966 7.79239 4.12957 0
M  V30 4107 O 713.426 5.63315 5.29344 0
M  V30 4108 C 712.486 4.80255 6.01876 0
M  V30 4109 C 713.216 3.64202 6.65911 0
M  V30 4110 O 713.426 2.60694 5.64732 0
M  V30 4111 C 714.616 3.93473 7.1943 0
M  V30 4112 O 715.006 3.02071 8.21205 0
M  V30 4113 C 715.496 3.73047 5.97036 0
M  V30 4114 C 714.786 2.58828 5.25741 0
M  V30 4115 N 714.836 2.68068 3.77503 0
M  V30 4116 C 714.756 3.79715 2.96723 0
M  V30 4117 N 714.836 3.5377 1.68852 0
M  V30 4118 C 714.976 2.15054 1.63254 0
M  V30 4119 C 715.106 1.28964 0.518571 0
M  V30 4120 N 715.226 -0.0538097 0.918425 0
M  V30 4121 C 715.226 -0.494275 2.22578 0
M  V30 4122 N 715.356 -1.81086 2.40434 0
M  V30 4123 N 715.096 0.313645 3.27502 0
M  V30 4124 C 714.976 1.61829 2.91033 0
M  V30 4125 H 711.997 5.40332 6.79951 0
M  V30 4126 H 711.727 4.41613 5.32378 0
M  V30 4127 H 712.594 3.26331 7.47797 0
M  V30 4128 P 716.556 2.75334 8.47391 0
M  V30 4129 O 716.776 2.44571 9.90142 0
M  V30 4130 O 717.346 3.87688 7.92115 0
M  V30 4131 O 716.806 1.4459 7.59357 0
M  V30 4132 C 715.866 0.347608 7.69215 0
M  V30 4133 C 716.596 -0.96767 7.52806 0
M  V30 4134 O 716.806 -1.21036 6.1011 0
M  V30 4135 C 717.996 -1.04544 8.13308 0
M  V30 4136 O 718.386 -2.38311 8.41922 0
M  V30 4137 C 718.876 -0.491279 7.02284 0
M  V30 4138 C 718.166 -0.996264 5.77469 0
M  V30 4139 N 718.216 -0.0501916 4.62973 0
M  V30 4140 H 715.377 0.374722 8.67691 0
M  V30 4141 H 715.107 0.443485 6.90277 0
M  V30 4142 H 715.974 -1.75537 7.96793 0
M  V30 4143 P 719.936 -2.75334 8.47391 0
M  V30 4144 O 720.156 -3.84128 9.44797 0
M  V30 4145 O 720.726 -1.51947 8.68712 0
M  V30 4146 O 720.186 -3.29363 6.99321 0
M  V30 4147 C 719.246 -4.24011 6.4274 0
M  V30 4148 C 719.976 -5.20775 5.52155 0
M  V30 4149 O 720.186 -4.56534 4.22446 0
M  V30 4150 C 721.376 -5.62629 5.96531 0
M  V30 4151 O 721.766 -6.87667 5.41053 0
M  V30 4152 C 722.256 -4.52537 5.39283 0
M  V30 4153 C 721.546 -4.20027 4.08623 0
M  V30 4154 N 721.596 -2.76189 3.71603 0
M  V30 4155 C 721.516 -1.64862 4.52822 0
M  V30 4156 N 721.596 -0.512671 3.88633 0
M  V30 4157 C 721.736 -0.888083 2.54977 0
M  V30 4158 C 721.866 -0.094668 1.38677 0
M  V30 4159 O 721.886 1.13053 1.28163 0
M  V30 4160 N 721.986 -0.890102 0.232633 0
M  V30 4161 C 721.986 -2.26958 0.21772 0
M  V30 4162 N 722.116 -2.84626 -0.97925 0
M  V30 4163 N 721.856 -3.0178 1.31033 0
M  V30 4164 C 721.736 -2.26781 2.43843 0
M  V30 4165 H 718.757 -4.797 7.24003 0
M  V30 4166 H 718.487 -3.69856 5.84513 0
M  V30 4167 H 719.354 -6.10356 5.41441 0
M  V30 4168 H 722.009 -4.79061 3.27488 0
M  V30 4169 H 722.288 -3.64906 6.05785 0
M  V30 4170 H 723.28 -4.8868 5.2125 0
M  V30 4171 H 721.446 -5.66726 7.06352 0
M  V30 4172 H 721.397 -1.71169 5.60966 0
M  V30 4173 H 722.079 -0.419134 -0.644739 0
M  V30 4174 H 722.116 -3.87332 -1.06098 0
M  V30 4175 H 722.217 -2.26417 -1.82483 0
M  V30 4176 P 723.316 -7.20834 5.23717 0
M  V30 4177 O 723.536 -8.66189 5.38625 0
M  V30 4178 O 724.106 -6.33615 6.1356 0
M  V30 4179 O 723.566 -6.7751 3.72168 0
M  V30 4180 C 722.626 -7.20732 2.70725 0
M  V30 4181 C 723.356 -7.45864 1.40599 0
M  V30 4182 O 723.566 -6.17651 0.734225 0
M  V30 4183 C 724.756 -8.05808 1.51899 0
M  V30 4184 O 725.146 -8.74358 0.335205 0
M  V30 4185 C 725.636 -6.83093 1.70294 0
M  V30 4186 C 724.926 -5.79992 0.836974 0
M  V30 4187 N 724.976 -4.41769 1.38263 0
M  V30 4188 C 725.126 -3.38591 0.481702 0
M  V30 4189 O 725.216 -3.56839 -0.718452 0
M  V30 4190 N 725.166 -2.1206 1.03569 0
M  V30 4191 C 725.076 -1.80696 2.36966 0
M  V30 4192 O 725.126 -0.630473 2.74862 0
M  V30 4193 C 724.926 -2.94845 3.23898 0
M  V30 4194 C 724.816 -2.65253 4.70362 0
M  V30 4195 C 724.876 -4.19803 2.73435 0
M  V30 4196 H 722.136 -8.13644 3.0377 0
M  V30 4197 H 721.867 -6.42695 2.55448 0
M  V30 4198 H 722.734 -8.12039 0.792769 0
M  V30 4199 H 725.389 -5.79978 -0.160587 0
M  V30 4200 H 725.668 -6.51379 2.75643 0
M  V30 4201 H 726.66 -7.01734 1.34462 0
M  V30 4202 H 724.826 -8.73674 2.38337 0
M  V30 4203 H 724.755 -5.04492 3.4095 0
M  V30 4204 H 725.785 -2.83924 5.1913 0
M  V30 4205 H 724.048 -3.29824 5.15163 0
M  V30 4206 H 724.536 -1.59723 4.84449 0
M  V30 4207 H 725.272 -1.35644 0.399345 0
M  V30 4208 P 726.696 -8.91 -4.98617e-12 0
M  V30 4209 O 726.916 -10.1746 -0.733838 0
M  V30 4210 O 727.486 -8.73346 1.23964 0
M  V30 4211 O 726.946 -7.66872 -0.971405 0
M  V30 4212 C 726.006 -7.42405 -2.04668 0
M  V30 4213 C 726.736 -6.86059 -3.24661 0
M  V30 4214 O 726.946 -5.42934 -3.03695 0
M  V30 4215 C 728.136 -7.41287 -3.50796 0
M  V30 4216 O 728.526 -7.27073 -4.86816 0
M  V30 4217 C 729.016 -6.5273 -2.63741 0
M  V30 4218 C 728.306 -5.1842 -2.73198 0
M  V30 4219 N 728.356 -4.38762 -1.4784 0
M  V30 4220 C 728.276 -4.83651 -0.183876 0
M  V30 4221 N 728.346 -3.88759 0.699393 0
M  V30 4222 C 728.496 -2.7404 -0.0575568 0
M  V30 4223 C 728.626 -1.37902 0.293928 0
M  V30 4224 N 728.636 -0.938021 1.54797 0
M  V30 4225 N 728.746 -0.491817 -0.70549 0
M  V30 4226 C 728.736 -0.931735 -1.95979 0
M  V30 4227 N 728.616 -2.16017 -2.41481 0
M  V30 4228 C 728.496 -3.02547 -1.39121 0
M  V30 4229 H 725.518 -8.36899 -2.3252 0
M  V30 4230 H 725.246 -6.70391 -1.71179 0
M  V30 4231 H 726.114 -7.03638 -4.13219 0
M  V30 4232 H 728.769 -4.59931 -3.54016 0
M  V30 4233 H 729.049 -6.88995 -1.59871 0
M  V30 4234 H 730.04 -6.4684 -3.0373 0
M  V30 4235 H 728.206 -8.47002 -3.20749 0
M  V30 4236 H 728.165 -5.8885 0.0765548 0
M  V30 4237 H 728.546 -1.60276 2.32875 0
M  V30 4238 H 728.735 0.0699355 1.73859 0
M  V30 4239 H 728.843 -0.165507 -2.71897 0
M  V30 4240 P 730.076 -7.20834 -5.23717 0
M  V30 4241 O 730.296 -7.79853 -6.57286 0
M  V30 4242 O 730.866 -7.79239 -4.12957 0
M  V30 4243 O 730.326 -5.63315 -5.29344 0
M  V30 4244 C 729.386 -4.80255 -6.01876 0
M  V30 4245 C 730.116 -3.64202 -6.65911 0
M  V30 4246 O 730.326 -2.60694 -5.64732 0
M  V30 4247 C 731.516 -3.93473 -7.1943 0
M  V30 4248 O 731.906 -3.02071 -8.21205 0
M  V30 4249 C 732.396 -3.73047 -5.97036 0
M  V30 4250 C 731.686 -2.58828 -5.25741 0
M  V30 4251 N 731.736 -2.68068 -3.77503 0
M  V30 4252 C 731.656 -3.79715 -2.96723 0
M  V30 4253 N 731.736 -3.5377 -1.68852 0
M  V30 4254 C 731.876 -2.15054 -1.63254 0
M  V30 4255 C 732.006 -1.28964 -0.518571 0
M  V30 4256 N 732.126 0.0538097 -0.918425 0
M  V30 4257 C 732.126 0.494275 -2.22578 0
M  V30 4258 N 732.256 1.81086 -2.40434 0
M  V30 4259 N 731.996 -0.313645 -3.27502 0
M  V30 4260 C 731.876 -1.61829 -2.91033 0
M  V30 4261 H 728.897 -5.40332 -6.79951 0
M  V30 4262 H 728.627 -4.41613 -5.32378 0
M  V30 4263 H 729.494 -3.26331 -7.47797 0
M  V30 4264 P 733.456 -2.75334 -8.47391 0
M  V30 4265 O 733.676 -2.44571 -9.90142 0
M  V30 4266 O 734.246 -3.87688 -7.92115 0
M  V30 4267 O 733.706 -1.4459 -7.59357 0
M  V30 4268 C 732.766 -0.347608 -7.69215 0
M  V30 4269 C 733.496 0.96767 -7.52806 0
M  V30 4270 O 733.706 1.21036 -6.1011 0
M  V30 4271 C 734.896 1.04544 -8.13308 0
M  V30 4272 O 735.286 2.38311 -8.41922 0
M  V30 4273 C 735.776 0.491279 -7.02284 0
M  V30 4274 C 735.066 0.996264 -5.77469 0
M  V30 4275 N 735.116 0.0501916 -4.62973 0
M  V30 4276 C 735.036 -1.32786 -4.63244 0
M  V30 4277 N 735.116 -1.86957 -3.44545 0
M  V30 4278 C 735.256 -0.780241 -2.58481 0
M  V30 4279 C 735.386 -0.738536 -1.17757 0
M  V30 4280 N 735.506 0.58337 -0.711393 0
M  V30 4281 C 735.506 1.70816 -1.51017 0
M  V30 4282 N 735.636 2.87826 -0.880757 0
M  V30 4283 N 735.376 1.67126 -2.8339 0
M  V30 4284 C 735.256 0.401421 -3.30572 0
M  V30 4285 H 732.277 -0.374722 -8.67691 0
M  V30 4286 H 732.007 -0.443485 -6.90277 0
M  V30 4287 H 732.874 1.75537 -7.96793 0
M  V30 4288 P 736.836 2.75334 -8.47391 0
M  V30 4289 O 737.056 3.84166 -9.4489 0
M  V30 4290 O 737.626 1.51964 -8.6881 0
M  V30 4291 O 737.086 3.29363 -6.99321 0
M  V30 4292 C 736.146 4.23956 -6.42656 0
M  V30 4293 C 736.876 5.20775 -5.52155 0
M  V30 4294 O 737.086 4.56534 -4.22446 0
M  V30 4295 C 738.276 5.62629 -5.96531 0
M  V30 4296 O 738.666 6.87667 -5.41053 0
M  V30 4297 C 739.156 4.52537 -5.39283 0
M  V30 4298 C 738.446 4.20027 -4.08623 0
M  V30 4299 N 738.496 2.7613 -3.71522 0
M  V30 4300 C 738.646 2.45612 -2.37989 0
M  V30 4301 O 738.736 3.30919 -1.51621 0
M  V30 4302 N 738.686 1.10684 -2.08435 0
M  V30 4303 C 738.596 0.0690084 -2.9792 0
M  V30 4304 C 738.446 0.481522 -4.35345 0
M  V30 4305 C 738.396 1.78906 -4.67968 0
M  V30 4306 H 735.656 4.797 -7.24003 0
M  V30 4307 H 735.387 3.69802 -5.84429 0
M  V30 4308 H 736.254 6.10356 -5.41441 0
M  V30 4309 H 738.909 4.78651 -3.27911 0
M  V30 4310 H 739.188 3.64957 -6.05871 0
M  V30 4311 H 740.18 4.8868 -5.2125 0
M  V30 4312 H 738.346 5.66726 -7.06352 0
M  V30 4313 H 738.275 2.07737 -5.72367 0
M  V30 4314 P 740.216 7.20834 -5.23717 0
M  V30 4315 O 740.436 8.66104 -5.38572 0
M  V30 4316 O 741.006 6.33544 -6.1349 0
M  V30 4317 O 740.466 6.7751 -3.72168 0
M  V30 4318 C 739.526 7.20825 -2.7076 0
M  V30 4319 C 740.256 7.45864 -1.40599 0
M  V30 4320 O 740.466 6.17651 -0.734225 0
M  V30 4321 C 741.656 8.05808 -1.51899 0
M  V30 4322 O 742.046 8.74358 -0.335205 0
M  V30 4323 C 742.536 6.83093 -1.70294 0
M  V30 4324 C 741.826 5.79992 -0.836974 0
M  V30 4325 N 741.876 4.41864 -1.38293 0
M  V30 4326 H 739.037 8.13644 -3.0377 0
M  V30 4327 H 738.767 6.42788 -2.55485 0
M  V30 4328 H 739.634 8.12039 -0.792769 0
M  V30 4329 P 743.596 8.91 5.14336e-12 0
M  V30 4330 O 743.816 10.1726 0.733694 0
M  V30 4331 O 744.386 8.73148 -1.23936 0
M  V30 4332 O 743.846 7.66872 0.971405 0
M  V30 4333 C 742.906 7.42309 2.04641 0
M  V30 4334 C 743.636 6.86059 3.24661 0
M  V30 4335 O 743.846 5.42847 3.03646 0
M  V30 4336 C 745.036 7.41196 3.50753 0
M  V30 4337 O 745.426 7.27073 4.86816 0
M  V30 4338 C 745.916 6.5273 2.63741 0
M  V30 4339 C 745.206 5.1842 2.73198 0
M  V30 4340 N 745.256 4.38762 1.4784 0
M  V30 4341 C 745.176 4.81605 0.168631 0
M  V30 4342 N 745.256 3.85454 -0.713363 0
M  V30 4343 C 745.396 2.6994 0.0566958 0
M  V30 4344 C 745.526 1.34815 -0.338502 0
M  V30 4345 O 745.546 0.869548 -1.47125 0
M  V30 4346 N 745.646 0.496304 0.77465 0
M  V30 4347 C 745.646 0.908403 2.09122 0
M  V30 4348 N 745.776 -0.0517805 3.00955 0
M  V30 4349 N 745.516 2.17875 2.46519 0
M  V30 4350 C 745.396 3.01988 1.4033 0
M  V30 4351 H 742.417 8.36803 2.32493 0
M  V30 4352 H 742.147 6.70197 1.71129 0
M  V30 4353 H 743.014 7.03551 4.13168 0
M  V30 4354 H 745.669 4.59498 3.54415 0
M  V30 4355 H 745.948 6.88898 1.59848 0
M  V30 4356 H 746.94 6.46749 3.03687 0
M  V30 4357 H 745.106 8.46908 3.20714 0
M  V30 4358 H 745.057 5.86405 -0.105564 0
M  V30 4359 H 745.739 -0.483664 0.597855 0
M  V30 4360 H 745.776 0.187865 4.0116 0
M  V30 4361 H 745.877 -1.03585 2.71726 0
M  V30 4362 P 746.976 7.20834 5.23717 0
M  V30 4363 O 747.196 7.79853 6.57286 0
M  V30 4364 O 747.766 7.79239 4.12957 0
M  V30 4365 O 747.226 5.63315 5.29344 0
M  V30 4366 C 746.286 4.80255 6.01876 0
M  V30 4367 C 747.016 3.64202 6.65911 0
M  V30 4368 O 747.226 2.60694 5.64732 0
M  V30 4369 C 748.416 3.93473 7.1943 0
M  V30 4370 O 748.806 3.02071 8.21205 0
M  V30 4371 C 749.296 3.73047 5.97036 0
M  V30 4372 C 748.586 2.58828 5.25741 0
M  V30 4373 N 748.636 2.68068 3.77503 0
M  V30 4374 H 745.797 5.40332 6.79951 0
M  V30 4375 H 745.527 4.41613 5.32378 0
M  V30 4376 H 746.394 3.26331 7.47797 0
M  V30 4377 P 750.356 2.75334 8.47391 0
M  V30 4378 O 750.576 2.44571 9.90142 0
M  V30 4379 O 751.146 3.87688 7.92115 0
M  V30 4380 O 750.606 1.4459 7.59357 0
M  V30 4381 C 749.666 0.347608 7.69215 0
M  V30 4382 C 750.396 -0.96767 7.52806 0
M  V30 4383 O 750.606 -1.21036 6.1011 0
M  V30 4384 C 751.796 -1.04544 8.13308 0
M  V30 4385 O 752.186 -2.38311 8.41922 0
M  V30 4386 C 752.676 -0.491279 7.02284 0
M  V30 4387 C 751.966 -0.996264 5.77469 0
M  V30 4388 N 752.016 -0.0501916 4.62973 0
M  V30 4389 H 749.177 0.374722 8.67691 0
M  V30 4390 H 748.907 0.443485 6.90277 0
M  V30 4391 H 749.774 -1.75537 7.96793 0
M  V30 4392 P 753.736 -2.75334 8.47391 0
M  V30 4393 O 753.956 -3.84128 9.44797 0
M  V30 4394 O 754.526 -1.51947 8.68712 0
M  V30 4395 O 753.986 -3.29363 6.99321 0
M  V30 4396 C 753.046 -4.24011 6.4274 0
M  V30 4397 C 753.776 -5.20775 5.52155 0
M  V30 4398 O 753.986 -4.56534 4.22446 0
M  V30 4399 C 755.176 -5.62629 5.96531 0
M  V30 4400 O 755.566 -6.87667 5.41053 0
M  V30 4401 C 756.056 -4.52537 5.39283 0
M  V30 4402 C 755.346 -4.20027 4.08623 0
M  V30 4403 N 755.396 -2.76189 3.71603 0
M  V30 4404 H 752.557 -4.797 7.24003 0
M  V30 4405 H 752.287 -3.69856 5.84513 0
M  V30 4406 H 753.154 -6.10356 5.41441 0
M  V30 4407 P 757.116 -7.20834 5.23717 0
M  V30 4408 O 757.336 -8.66104 5.38572 0
M  V30 4409 O 757.906 -6.33544 6.1349 0
M  V30 4410 O 757.366 -6.7751 3.72168 0
M  V30 4411 C 756.426 -7.20825 2.7076 0
M  V30 4412 C 757.156 -7.45864 1.40599 0
M  V30 4413 O 757.366 -6.17651 0.734225 0
M  V30 4414 C 758.556 -8.05808 1.51899 0
M  V30 4415 O 758.946 -8.74358 0.335205 0
M  V30 4416 C 759.436 -6.83093 1.70294 0
M  V30 4417 C 758.726 -5.79992 0.836974 0
M  V30 4418 N 758.776 -4.41864 1.38293 0
M  V30 4419 H 755.937 -8.13644 3.0377 0
M  V30 4420 H 755.667 -6.42788 2.55485 0
M  V30 4421 H 756.534 -8.12039 0.792769 0
M  V30 4422 P 760.496 -8.91 -5.30054e-12 0
M  V30 4423 O 760.716 -10.1746 -0.733838 0
M  V30 4424 O 761.286 -8.73346 1.23964 0
M  V30 4425 O 760.746 -7.66872 -0.971405 0
M  V30 4426 C 759.806 -7.42405 -2.04668 0
M  V30 4427 C 760.536 -6.86059 -3.24661 0
M  V30 4428 O 760.746 -5.42934 -3.03695 0
M  V30 4429 C 761.936 -7.41287 -3.50796 0
M  V30 4430 O 762.326 -7.27073 -4.86816 0
M  V30 4431 C 762.816 -6.5273 -2.63741 0
M  V30 4432 C 762.106 -5.1842 -2.73198 0
M  V30 4433 N 762.156 -4.38762 -1.4784 0
M  V30 4434 C 762.076 -4.83651 -0.183876 0
M  V30 4435 N 762.146 -3.88759 0.699393 0
M  V30 4436 C 762.296 -2.7404 -0.0575568 0
M  V30 4437 C 762.426 -1.37902 0.293928 0
M  V30 4438 N 762.436 -0.938021 1.54797 0
M  V30 4439 N 762.546 -0.491817 -0.70549 0
M  V30 4440 C 762.536 -0.931735 -1.95979 0
M  V30 4441 N 762.416 -2.16017 -2.41481 0
M  V30 4442 C 762.296 -3.02547 -1.39121 0
M  V30 4443 H 759.318 -8.36899 -2.3252 0
M  V30 4444 H 759.046 -6.70391 -1.71179 0
M  V30 4445 H 759.914 -7.03638 -4.13219 0
M  V30 4446 H 762.569 -4.59931 -3.54016 0
M  V30 4447 H 762.849 -6.88995 -1.59871 0
M  V30 4448 H 763.84 -6.4684 -3.0373 0
M  V30 4449 H 762.006 -8.47002 -3.20749 0
M  V30 4450 H 761.965 -5.8885 0.0765548 0
M  V30 4451 H 762.346 -1.60276 2.32875 0
M  V30 4452 H 762.535 0.0699355 1.73859 0
M  V30 4453 H 762.643 -0.165507 -2.71897 0
M  V30 4454 P 763.875 -7.20834 -5.23717 0
M  V30 4455 O 764.095 -7.79853 -6.57286 0
M  V30 4456 O 764.665 -7.79239 -4.12957 0
M  V30 4457 O 764.125 -5.63315 -5.29344 0
M  V30 4458 C 763.185 -4.80255 -6.01876 0
M  V30 4459 C 763.915 -3.64202 -6.65911 0
M  V30 4460 O 764.125 -2.60694 -5.64732 0
M  V30 4461 C 765.315 -3.93473 -7.1943 0
M  V30 4462 O 765.705 -3.02071 -8.21205 0
M  V30 4463 C 766.195 -3.73047 -5.97036 0
M  V30 4464 C 765.485 -2.58828 -5.25741 0
M  V30 4465 N 765.535 -2.68068 -3.77503 0
M  V30 4466 C 765.455 -3.79715 -2.96723 0
M  V30 4467 N 765.535 -3.5377 -1.68852 0
M  V30 4468 C 765.675 -2.15054 -1.63254 0
M  V30 4469 C 765.805 -1.28964 -0.518571 0
M  V30 4470 O 765.825 -1.56826 0.679156 0
M  V30 4471 N 765.925 0.0538097 -0.918425 0
M  V30 4472 C 765.925 0.494275 -2.22578 0
M  V30 4473 N 766.055 1.81086 -2.40434 0
M  V30 4474 N 765.795 -0.313645 -3.27502 0
M  V30 4475 C 765.675 -1.61829 -2.91033 0
M  V30 4476 H 762.696 -5.40332 -6.79951 0
M  V30 4477 H 762.426 -4.41613 -5.32378 0
M  V30 4478 H 763.293 -3.26331 -7.47797 0
M  V30 4479 H 765.948 -1.63422 -5.56814 0
M  V30 4480 H 766.227 -4.63374 -5.34244 0
M  V30 4481 H 767.219 -3.44728 -6.25838 0
M  V30 4482 H 765.385 -4.96652 -7.57263 0
M  V30 4483 H 765.336 -4.80617 -3.3614 0
M  V30 4484 H 766.018 0.742702 -0.199384 0
M  V30 4485 H 766.055 2.20598 -3.35588 0
M  V30 4486 H 766.156 2.43518 -1.58945 0
M  V30 4487 P 767.255 -2.75334 -8.47391 0
M  V30 4488 O 767.475 -2.44571 -9.90142 0
M  V30 4489 O 768.045 -3.87688 -7.92115 0
M  V30 4490 O 767.505 -1.4459 -7.59357 0
M  V30 4491 C 766.565 -0.347608 -7.69215 0
M  V30 4492 C 767.295 0.96767 -7.52806 0
M  V30 4493 O 767.505 1.21036 -6.1011 0
M  V30 4494 C 768.695 1.04544 -8.13308 0
M  V30 4495 O 769.085 2.38311 -8.41922 0
M  V30 4496 C 769.575 0.491279 -7.02284 0
M  V30 4497 C 768.865 0.996264 -5.77469 0
M  V30 4498 N 768.915 0.0501916 -4.62973 0
M  V30 4499 H 766.076 -0.374722 -8.67691 0
M  V30 4500 H 765.806 -0.443485 -6.90277 0
M  V30 4501 H 766.673 1.75537 -7.96793 0
M  V30 4502 P 770.635 2.75334 -8.47391 0
M  V30 4503 O 770.855 3.84128 -9.44797 0
M  V30 4504 O 771.425 1.51947 -8.68712 0
M  V30 4505 O 770.885 3.29363 -6.99321 0
M  V30 4506 C 769.945 4.24011 -6.4274 0
M  V30 4507 C 770.675 5.20775 -5.52155 0
M  V30 4508 O 770.885 4.56534 -4.22446 0
M  V30 4509 C 772.075 5.62629 -5.96531 0
M  V30 4510 O 772.465 6.87667 -5.41053 0
M  V30 4511 C 772.955 4.52537 -5.39283 0
M  V30 4512 C 772.245 4.20027 -4.08623 0
M  V30 4513 N 772.295 2.76189 -3.71603 0
M  V30 4514 H 769.456 4.797 -7.24003 0
M  V30 4515 H 769.186 3.69856 -5.84513 0
M  V30 4516 H 770.053 6.10356 -5.41441 0
M  V30 4517 P 774.015 7.20834 -5.23717 0
M  V30 4518 O 774.235 8.66104 -5.38572 0
M  V30 4519 O 774.805 6.33544 -6.1349 0
M  V30 4520 O 774.265 6.7751 -3.72168 0
M  V30 4521 C 773.325 7.20825 -2.7076 0
M  V30 4522 C 774.055 7.45864 -1.40599 0
M  V30 4523 O 774.265 6.17651 -0.734225 0
M  V30 4524 C 775.455 8.05808 -1.51899 0
M  V30 4525 O 775.845 8.74358 -0.335205 0
M  V30 4526 C 776.335 6.83093 -1.70294 0
M  V30 4527 C 775.625 5.79992 -0.836974 0
M  V30 4528 N 775.675 4.41864 -1.38293 0
M  V30 4529 C 775.595 3.99538 -2.69438 0
M  V30 4530 N 775.675 2.69909 -2.84277 0
M  V30 4531 C 775.815 2.21719 -1.5408 0
M  V30 4532 C 775.945 0.891712 -1.06628 0
M  V30 4533 N 776.065 0.856846 0.334985 0
M  V30 4534 C 776.065 1.9641 1.15789 0
M  V30 4535 N 776.195 1.72708 2.46522 0
M  V30 4536 N 775.935 3.21165 0.713741 0
M  V30 4537 C 775.815 3.26797 -0.639748 0
M  V30 4538 H 772.836 8.13644 -3.0377 0
M  V30 4539 H 772.566 6.42788 -2.55485 0
M  V30 4540 H 773.433 8.12039 -0.792769 0
M  V30 4541 P 777.395 8.91 5.45772e-12 0
M  V30 4542 O 777.615 10.1746 0.733838 0
M  V30 4543 O 778.185 8.73346 -1.23964 0
M  V30 4544 O 777.645 7.66872 0.971405 0
M  V30 4545 C 776.705 7.42405 2.04668 0
M  V30 4546 C 777.435 6.86059 3.24661 0
M  V30 4547 O 777.645 5.42934 3.03695 0
M  V30 4548 C 778.835 7.41287 3.50796 0
M  V30 4549 O 779.225 7.27073 4.86816 0
M  V30 4550 C 779.715 6.5273 2.63741 0
M  V30 4551 C 779.005 5.1842 2.73198 0
M  V30 4552 N 779.055 4.38762 1.4784 0
M  V30 4553 H 776.217 8.36899 2.3252 0
M  V30 4554 H 775.945 6.70391 1.71179 0
M  V30 4555 H 776.813 7.03638 4.13219 0
M  V30 4556 H 779.468 4.59931 3.54016 0
M  V30 4557 H 779.748 6.88995 1.59871 0
M  V30 4558 H 780.739 6.4684 3.0373 0
M  V30 4559 H 778.905 8.47002 3.20749 0
M  V30 4560 P 780.775 7.20834 5.23717 0
M  V30 4561 O 780.995 7.79853 6.57286 0
M  V30 4562 O 781.565 7.79239 4.12957 0
M  V30 4563 O 781.025 5.63315 5.29344 0
M  V30 4564 C 780.085 4.80255 6.01876 0
M  V30 4565 C 780.815 3.64202 6.65911 0
M  V30 4566 O 781.025 2.60694 5.64732 0
M  V30 4567 C 782.215 3.93473 7.1943 0
M  V30 4568 O 782.605 3.02071 8.21205 0
M  V30 4569 C 783.095 3.73047 5.97036 0
M  V30 4570 C 782.385 2.58828 5.25741 0
M  V30 4571 N 782.435 2.68068 3.77503 0
M  V30 4572 C 782.355 3.79715 2.96723 0
M  V30 4573 N 782.435 3.5377 1.68852 0
M  V30 4574 C 782.575 2.15054 1.63254 0
M  V30 4575 C 782.705 1.28964 0.518571 0
M  V30 4576 N 782.825 -0.0538097 0.918425 0
M  V30 4577 C 782.825 -0.494275 2.22578 0
M  V30 4578 N 782.955 -1.81086 2.40434 0
M  V30 4579 N 782.695 0.313645 3.27502 0
M  V30 4580 C 782.575 1.61829 2.91033 0
M  V30 4581 H 779.596 5.40332 6.79951 0
M  V30 4582 H 779.326 4.41613 5.32378 0
M  V30 4583 H 780.193 3.26331 7.47797 0
M  V30 4584 P 784.155 2.75334 8.47391 0
M  V30 4585 O 784.375 2.44571 9.90142 0
M  V30 4586 O 784.945 3.87688 7.92115 0
M  V30 4587 O 784.405 1.4459 7.59357 0
M  V30 4588 C 783.465 0.347608 7.69215 0
M  V30 4589 C 784.195 -0.96767 7.52806 0
M  V30 4590 O 784.405 -1.21036 6.1011 0
M  V30 4591 C 785.595 -1.04544 8.13308 0
M  V30 4592 O 785.985 -2.38311 8.41922 0
M  V30 4593 C 786.475 -0.491279 7.02284 0
M  V30 4594 C 785.765 -0.996264 5.77469 0
M  V30 4595 N 785.815 -0.0501916 4.62973 0
M  V30 4596 H 782.976 0.374722 8.67691 0
M  V30 4597 H 782.706 0.443485 6.90277 0
M  V30 4598 H 783.573 -1.75537 7.96793 0
M  V30 4599 P 787.535 -2.75334 8.47391 0
M  V30 4600 O 787.755 -3.84128 9.44797 0
M  V30 4601 O 788.325 -1.51947 8.68712 0
M  V30 4602 O 787.785 -3.29363 6.99321 0
M  V30 4603 C 786.845 -4.24011 6.4274 0
M  V30 4604 C 787.575 -5.20775 5.52155 0
M  V30 4605 O 787.785 -4.56534 4.22446 0
M  V30 4606 C 788.975 -5.62629 5.96531 0
M  V30 4607 O 789.365 -6.87667 5.41053 0
M  V30 4608 C 789.855 -4.52537 5.39283 0
M  V30 4609 C 789.145 -4.20027 4.08623 0
M  V30 4610 N 789.195 -2.76189 3.71603 0
M  V30 4611 C 789.115 -1.64862 4.52822 0
M  V30 4612 N 789.195 -0.512671 3.88633 0
M  V30 4613 C 789.335 -0.888083 2.54977 0
M  V30 4614 C 789.465 -0.094668 1.38677 0
M  V30 4615 O 789.485 1.13053 1.28163 0
M  V30 4616 N 789.585 -0.890102 0.232633 0
M  V30 4617 C 789.585 -2.26958 0.21772 0
M  V30 4618 N 789.715 -2.84626 -0.97925 0
M  V30 4619 N 789.455 -3.0178 1.31033 0
M  V30 4620 C 789.335 -2.26781 2.43843 0
M  V30 4621 H 786.356 -4.797 7.24003 0
M  V30 4622 H 786.086 -3.69856 5.84513 0
M  V30 4623 H 786.953 -6.10356 5.41441 0
M  V30 4624 H 789.608 -4.79061 3.27488 0
M  V30 4625 H 789.887 -3.64906 6.05785 0
M  V30 4626 H 790.879 -4.8868 5.2125 0
M  V30 4627 H 789.045 -5.66726 7.06352 0
M  V30 4628 H 788.996 -1.71169 5.60966 0
M  V30 4629 H 789.678 -0.419134 -0.644739 0
M  V30 4630 H 789.715 -3.87332 -1.06098 0
M  V30 4631 H 789.816 -2.26417 -1.82483 0
M  V30 4632 P 790.915 -7.20834 5.23717 0
M  V30 4633 O 791.135 -8.66274 5.38678 0
M  V30 4634 O 791.705 -6.33687 6.13629 0
M  V30 4635 O 791.165 -6.7751 3.72168 0
M  V30 4636 C 790.225 -7.20919 2.70795 0
M  V30 4637 C 790.955 -7.45864 1.40599 0
M  V30 4638 O 791.165 -6.17751 0.734343 0
M  V30 4639 C 792.355 -8.05906 1.51917 0
M  V30 4640 O 792.745 -8.74358 0.335205 0
M  V30 4641 C 793.235 -6.83093 1.70294 0
M  V30 4642 C 792.525 -5.79992 0.836974 0
M  V30 4643 N 792.575 -4.41864 1.38293 0
M  V30 4644 C 792.495 -4.02089 2.69407 0
M  V30 4645 N 792.565 -2.73403 2.85089 0
M  V30 4646 C 792.715 -2.25086 1.5642 0
M  V30 4647 C 792.845 -0.942887 1.04836 0
M  V30 4648 N 792.855 0.150999 1.80369 0
M  V30 4649 N 792.965 -0.812565 -0.28167 0
M  V30 4650 C 792.955 -1.90572 -1.03784 0
M  V30 4651 N 792.835 -3.167 -0.683905 0
M  V30 4652 C 792.715 -3.26538 0.652815 0
M  V30 4653 H 789.737 -8.13738 3.03804 0
M  V30 4654 H 789.465 -6.42974 2.55559 0
M  V30 4655 H 790.333 -8.12139 0.792866 0
M  V30 4656 H 792.988 -5.80178 -0.160643 0
M  V30 4657 H 793.268 -6.51379 2.75643 0
M  V30 4658 H 794.259 -7.01832 1.3448 0
M  V30 4659 H 792.425 -8.73771 2.38364 0
M  V30 4660 H 792.384 -4.7189 3.52311 0
M  V30 4661 H 792.765 0.0721434 2.82608 0
M  V30 4662 H 792.954 1.0785 1.36544 0
M  V30 4663 H 793.062 -1.73207 -2.10241 0
M  V30 4664 P 794.295 -8.91 -5.6149e-12 0
M  V30 4665 O 794.515 -10.1736 -0.733766 0
M  V30 4666 O 795.085 -8.73247 1.2395 0
M  V30 4667 O 794.545 -7.66872 -0.971405 0
M  V30 4668 C 793.605 -7.42212 -2.04614 0
M  V30 4669 C 794.335 -6.86059 -3.24661 0
M  V30 4670 O 794.545 -5.42847 -3.03646 0
M  V30 4671 C 795.735 -7.41196 -3.50753 0
M  V30 4672 O 796.125 -7.27073 -4.86816 0
M  V30 4673 C 796.615 -6.5273 -2.63741 0
M  V30 4674 C 795.905 -5.1842 -2.73198 0
M  V30 4675 N 795.955 -4.38668 -1.47808 0
M  V30 4676 C 796.105 -3.02239 -1.60048 0
M  V30 4677 O 796.195 -2.46459 -2.67869 0
M  V30 4678 N 796.145 -2.32436 -0.408571 0
M  V30 4679 C 796.055 -2.85471 0.854993 0
M  V30 4680 C 795.905 -4.28918 0.887335 0
M  V30 4681 C 795.855 -5.00349 -0.255399 0
M  V30 4682 H 793.115 -8.36803 -2.32493 0
M  V30 4683 H 792.846 -6.701 -1.71105 0
M  V30 4684 H 793.713 -7.03551 -4.13168 0
M  V30 4685 H 796.368 -4.59773 -3.53894 0
M  V30 4686 H 796.647 -6.88995 -1.59871 0
M  V30 4687 H 797.639 -6.46749 -3.03687 0
M  V30 4688 H 795.805 -8.46908 -3.20714 0
M  V30 4689 H 795.734 -6.08548 -0.206986 0
M  V30 4690 P 797.675 -7.20834 -5.23717 0
M  V30 4691 O 797.895 -7.79853 -6.57286 0
M  V30 4692 O 798.465 -7.79239 -4.12957 0
M  V30 4693 O 797.925 -5.63315 -5.29344 0
M  V30 4694 C 796.985 -4.80255 -6.01876 0
M  V30 4695 C 797.715 -3.64202 -6.65911 0
M  V30 4696 O 797.925 -2.60694 -5.64732 0
M  V30 4697 C 799.115 -3.93473 -7.1943 0
M  V30 4698 O 799.505 -3.02071 -8.21205 0
M  V30 4699 C 799.995 -3.73047 -5.97036 0
M  V30 4700 C 799.285 -2.58828 -5.25741 0
M  V30 4701 N 799.335 -2.68068 -3.77503 0
M  V30 4702 H 796.496 -5.40332 -6.79951 0
M  V30 4703 H 796.226 -4.41613 -5.32378 0
M  V30 4704 H 797.093 -3.26331 -7.47797 0
M  V30 4705 P 801.055 -2.75334 -8.47391 0
M  V30 4706 O 801.275 -2.44595 -9.90239 0
M  V30 4707 O 801.845 -3.87732 -7.92204 0
M  V30 4708 O 801.305 -1.4459 -7.59357 0
M  V30 4709 C 800.365 -0.347563 -7.69115 0
M  V30 4710 C 801.095 0.96767 -7.52806 0
M  V30 4711 O 801.305 1.21036 -6.1011 0
M  V30 4712 C 802.495 1.04544 -8.13308 0
M  V30 4713 O 802.885 2.38311 -8.41922 0
M  V30 4714 C 803.375 0.491279 -7.02284 0
M  V30 4715 C 802.665 0.996264 -5.77469 0
M  V30 4716 N 802.715 0.0501808 -4.62873 0
M  V30 4717 C 802.865 0.588177 -3.36904 0
M  V30 4718 O 802.955 1.78598 -3.17173 0
M  V30 4719 N 802.905 -0.329694 -2.33686 0
M  V30 4720 C 802.815 -1.6953 -2.45079 0
M  V30 4721 O 802.865 -2.41926 -1.44899 0
M  V30 4722 C 802.665 -2.16933 -3.80505 0
M  V30 4723 C 802.555 -3.65373 -3.97621 0
M  V30 4724 C 802.615 -1.30326 -4.83752 0
M  V30 4725 H 799.875 -0.374722 -8.67691 0
M  V30 4726 H 799.606 -0.443421 -6.90177 0
M  V30 4727 H 800.473 1.75537 -7.96793 0
M  V30 4728 H 803.128 1.94496 -5.46629 0
M  V30 4729 H 803.407 -0.608651 -7.04676 0
M  V30 4730 H 804.399 0.889672 -7.08939 0
M  V30 4731 H 802.565 0.43308 -9.04564 0
M  V30 4732 H 802.494 -1.68366 -5.8516 0
M  V30 4733 H 803.524 -4.05985 -4.30448 0
M  V30 4734 H 801.787 -3.88028 -4.72875 0
M  V30 4735 H 802.275 -4.11381 -3.01609 0
M  V30 4736 H 803.011 0.0393617 -1.41345 0
M  V30 4737 P 804.435 2.75334 -8.47391 0
M  V30 4738 O 804.655 3.84128 -9.44797 0
M  V30 4739 O 805.225 1.51947 -8.68712 0
M  V30 4740 O 804.685 3.29363 -6.99321 0
M  V30 4741 C 803.745 4.24011 -6.4274 0
M  V30 4742 C 804.475 5.20775 -5.52155 0
M  V30 4743 O 804.685 4.56534 -4.22446 0
M  V30 4744 C 805.875 5.62629 -5.96531 0
M  V30 4745 O 806.265 6.87667 -5.41053 0
M  V30 4746 C 806.755 4.52537 -5.39283 0
M  V30 4747 C 806.045 4.20027 -4.08623 0
M  V30 4748 N 806.095 2.76189 -3.71603 0
M  V30 4749 C 806.015 1.64862 -4.52822 0
M  V30 4750 N 806.095 0.512671 -3.88633 0
M  V30 4751 C 806.235 0.888083 -2.54977 0
M  V30 4752 C 806.365 0.094668 -1.38677 0
M  V30 4753 O 806.385 -1.13053 -1.28163 0
M  V30 4754 N 806.485 0.890102 -0.232633 0
M  V30 4755 C 806.485 2.26958 -0.21772 0
M  V30 4756 N 806.615 2.84626 0.97925 0
M  V30 4757 N 806.355 3.0178 -1.31033 0
M  V30 4758 C 806.235 2.26781 -2.43843 0
M  V30 4759 H 803.256 4.797 -7.24003 0
M  V30 4760 H 802.986 3.69856 -5.84513 0
M  V30 4761 H 803.853 6.10356 -5.41441 0
M  V30 4762 H 806.508 4.79061 -3.27488 0
M  V30 4763 H 806.787 3.64906 -6.05785 0
M  V30 4764 H 807.779 4.8868 -5.2125 0
M  V30 4765 H 805.945 5.66726 -7.06352 0
M  V30 4766 H 805.896 1.71169 -5.60966 0
M  V30 4767 H 806.578 0.419134 0.644739 0
M  V30 4768 H 806.615 3.87332 1.06098 0
M  V30 4769 H 806.716 2.26417 1.82483 0
M  V30 4770 P 807.815 7.20834 -5.23717 0
M  V30 4771 O 808.035 8.66189 -5.38625 0
M  V30 4772 O 808.605 6.33615 -6.1356 0
M  V30 4773 O 808.065 6.7751 -3.72168 0
M  V30 4774 C 807.125 7.20732 -2.70725 0
M  V30 4775 C 807.855 7.45864 -1.40599 0
M  V30 4776 O 808.065 6.17651 -0.734225 0
M  V30 4777 C 809.255 8.05808 -1.51899 0
M  V30 4778 O 809.645 8.74358 -0.335205 0
M  V30 4779 C 810.135 6.83093 -1.70294 0
M  V30 4780 C 809.425 5.79992 -0.836974 0
M  V30 4781 N 809.475 4.41769 -1.38263 0
M  V30 4782 C 809.625 3.38591 -0.481702 0
M  V30 4783 O 809.715 3.56839 0.718452 0
M  V30 4784 N 809.665 2.1206 -1.03569 0
M  V30 4785 C 809.575 1.80696 -2.36966 0
M  V30 4786 C 809.425 2.94845 -3.23898 0
M  V30 4787 C 809.375 4.19803 -2.73435 0
M  V30 4788 H 806.635 8.13644 -3.0377 0
M  V30 4789 H 806.366 6.42695 -2.55448 0
M  V30 4790 H 807.233 8.12039 -0.792769 0
M  V30 4791 H 809.888 5.79978 0.160587 0
M  V30 4792 H 810.167 6.51379 -2.75643 0
M  V30 4793 H 811.159 7.01734 -1.34462 0
M  V30 4794 H 809.325 8.73674 -2.38337 0
M  V30 4795 H 809.254 5.04492 -3.4095 0
M  V30 4796 P 811.195 8.91 5.77209e-12 0
M  V30 4797 O 811.415 10.1726 0.733694 0
M  V30 4798 O 811.985 8.73148 -1.23936 0
M  V30 4799 O 811.445 7.66872 0.971405 0
M  V30 4800 C 810.505 7.42309 2.04641 0
M  V30 4801 C 811.235 6.86059 3.24661 0
M  V30 4802 O 811.445 5.42847 3.03646 0
M  V30 4803 C 812.635 7.41196 3.50753 0
M  V30 4804 O 813.025 7.27073 4.86816 0
M  V30 4805 C 813.515 6.5273 2.63741 0
M  V30 4806 C 812.805 5.1842 2.73198 0
M  V30 4807 N 812.855 4.38762 1.4784 0
M  V30 4808 C 812.775 4.81605 0.168631 0
M  V30 4809 N 812.855 3.85454 -0.713363 0
M  V30 4810 C 812.995 2.6994 0.0566958 0
M  V30 4811 C 813.125 1.34815 -0.338502 0
M  V30 4812 O 813.145 0.869548 -1.47125 0
M  V30 4813 N 813.245 0.496304 0.77465 0
M  V30 4814 C 813.245 0.908403 2.09122 0
M  V30 4815 N 813.375 -0.0517805 3.00955 0
M  V30 4816 N 813.115 2.17875 2.46519 0
M  V30 4817 C 812.995 3.01988 1.4033 0
M  V30 4818 H 810.016 8.36803 2.32493 0
M  V30 4819 H 809.746 6.70197 1.71129 0
M  V30 4820 H 810.613 7.03551 4.13168 0
M  V30 4821 H 813.268 4.59498 3.54415 0
M  V30 4822 H 813.547 6.88898 1.59848 0
M  V30 4823 H 814.539 6.46749 3.03687 0
M  V30 4824 H 812.705 8.46908 3.20714 0
M  V30 4825 H 812.656 5.86405 -0.105564 0
M  V30 4826 H 813.338 -0.483664 0.597855 0
M  V30 4827 H 813.375 0.187865 4.0116 0
M  V30 4828 H 813.476 -1.03585 2.71726 0
M  V30 4829 P 814.575 7.20834 5.23717 0
M  V30 4830 O 814.795 7.79853 6.57286 0
M  V30 4831 O 815.365 7.79239 4.12957 0
M  V30 4832 O 814.825 5.63315 5.29344 0
M  V30 4833 C 813.885 4.80255 6.01876 0
M  V30 4834 C 814.615 3.64202 6.65911 0
M  V30 4835 O 814.825 2.60694 5.64732 0
M  V30 4836 C 816.015 3.93473 7.1943 0
M  V30 4837 O 816.405 3.02071 8.21205 0
M  V30 4838 C 816.895 3.73047 5.97036 0
M  V30 4839 C 816.185 2.58828 5.25741 0
M  V30 4840 N 816.235 2.68068 3.77503 0
M  V30 4841 C 816.155 3.79715 2.96723 0
M  V30 4842 N 816.235 3.5377 1.68852 0
M  V30 4843 C 816.375 2.15054 1.63254 0
M  V30 4844 C 816.505 1.28964 0.518571 0
M  V30 4845 O 816.525 1.56826 -0.679156 0
M  V30 4846 N 816.625 -0.0538097 0.918425 0
M  V30 4847 C 816.625 -0.494275 2.22578 0
M  V30 4848 N 816.755 -1.81086 2.40434 0
M  V30 4849 N 816.495 0.313645 3.27502 0
M  V30 4850 C 816.375 1.61829 2.91033 0
M  V30 4851 H 813.396 5.40332 6.79951 0
M  V30 4852 H 813.126 4.41613 5.32378 0
M  V30 4853 H 813.993 3.26331 7.47797 0
M  V30 4854 H 816.648 1.63422 5.56814 0
M  V30 4855 H 816.927 4.63374 5.34244 0
M  V30 4856 H 817.919 3.44728 6.25838 0
M  V30 4857 H 816.085 4.96652 7.57263 0
M  V30 4858 H 816.036 4.80617 3.3614 0
M  V30 4859 H 816.718 -0.742702 0.199384 0
M  V30 4860 H 816.755 -2.20598 3.35588 0
M  V30 4861 H 816.856 -2.43518 1.58945 0
M  V30 4862 P 817.955 2.75334 8.47391 0
M  V30 4863 O 818.175 2.44595 9.90239 0
M  V30 4864 O 818.745 3.87732 7.92204 0
M  V30 4865 O 818.205 1.4459 7.59357 0
M  V30 4866 C 817.265 0.347563 7.69115 0
M  V30 4867 C 817.995 -0.96767 7.52806 0
M  V30 4868 O 818.205 -1.21036 6.1011 0
M  V30 4869 C 819.395 -1.04544 8.13308 0
M  V30 4870 O 819.785 -2.38311 8.41922 0
M  V30 4871 C 820.275 -0.491279 7.02284 0
M  V30 4872 C 819.565 -0.996264 5.77469 0
M  V30 4873 N 819.615 -0.0501808 4.62873 0
M  V30 4874 C 819.765 -0.588177 3.36904 0
M  V30 4875 O 819.855 -1.78598 3.17173 0
M  V30 4876 N 819.805 0.329694 2.33686 0
M  V30 4877 C 819.715 1.6953 2.45079 0
M  V30 4878 C 819.565 2.16933 3.80505 0
M  V30 4879 C 819.515 1.30326 4.83752 0
M  V30 4880 H 816.775 0.374722 8.67691 0
M  V30 4881 H 816.506 0.443421 6.90177 0
M  V30 4882 H 817.373 -1.75537 7.96793 0
M  V30 4883 H 820.028 -1.94496 5.46629 0
M  V30 4884 H 820.307 0.608651 7.04676 0
M  V30 4885 H 821.299 -0.889672 7.08939 0
M  V30 4886 H 819.465 -0.43308 9.04564 0
M  V30 4887 H 819.394 1.68366 5.8516 0
M  V30 4888 P 821.335 -2.75334 8.47391 0
M  V30 4889 O 821.555 -3.84128 9.44797 0
M  V30 4890 O 822.125 -1.51947 8.68712 0
M  V30 4891 O 821.585 -3.29363 6.99321 0
M  V30 4892 C 820.645 -4.24011 6.4274 0
M  V30 4893 C 821.375 -5.20775 5.52155 0
M  V30 4894 O 821.585 -4.56534 4.22446 0
M  V30 4895 C 822.775 -5.62629 5.96531 0
M  V30 4896 O 823.165 -6.87667 5.41053 0
M  V30 4897 C 823.655 -4.52537 5.39283 0
M  V30 4898 C 822.945 -4.20027 4.08623 0
M  V30 4899 N 822.995 -2.76189 3.71603 0
M  V30 4900 H 820.156 -4.797 7.24003 0
M  V30 4901 H 819.886 -3.69856 5.84513 0
M  V30 4902 H 820.753 -6.10356 5.41441 0
M  V30 4903 P 824.715 -7.20834 5.23717 0
M  V30 4904 O 824.935 -8.66104 5.38572 0
M  V30 4905 O 825.505 -6.33544 6.1349 0
M  V30 4906 O 824.965 -6.7751 3.72168 0
M  V30 4907 C 824.025 -7.20825 2.7076 0
M  V30 4908 C 824.755 -7.45864 1.40599 0
M  V30 4909 O 824.965 -6.17651 0.734225 0
M  V30 4910 C 826.155 -8.05808 1.51899 0
M  V30 4911 O 826.545 -8.74358 0.335205 0
M  V30 4912 C 827.035 -6.83093 1.70294 0
M  V30 4913 C 826.325 -5.79992 0.836974 0
M  V30 4914 N 826.375 -4.41864 1.38293 0
M  V30 4915 H 823.536 -8.13644 3.0377 0
M  V30 4916 H 823.266 -6.42788 2.55485 0
M  V30 4917 H 824.133 -8.12039 0.792769 0
M  V30 4918 P 828.095 -8.91 -5.92927e-12 0
M  V30 4919 O 828.315 -10.1736 -0.733766 0
M  V30 4920 O 828.885 -8.73247 1.2395 0
M  V30 4921 O 828.345 -7.66872 -0.971405 0
M  V30 4922 C 827.405 -7.42212 -2.04614 0
M  V30 4923 C 828.135 -6.86059 -3.24661 0
M  V30 4924 O 828.345 -5.42847 -3.03646 0
M  V30 4925 C 829.535 -7.41196 -3.50753 0
M  V30 4926 O 829.925 -7.27073 -4.86816 0
M  V30 4927 C 830.415 -6.5273 -2.63741 0
M  V30 4928 C 829.705 -5.1842 -2.73198 0
M  V30 4929 N 829.755 -4.38668 -1.47808 0
M  V30 4930 C 829.905 -3.02239 -1.60048 0
M  V30 4931 O 829.995 -2.46459 -2.67869 0
M  V30 4932 N 829.945 -2.32436 -0.408571 0
M  V30 4933 C 829.855 -2.85471 0.854993 0
M  V30 4934 C 829.705 -4.28918 0.887335 0
M  V30 4935 C 829.655 -5.00349 -0.255399 0
M  V30 4936 H 826.915 -8.36803 -2.32493 0
M  V30 4937 H 826.646 -6.701 -1.71105 0
M  V30 4938 H 827.513 -7.03551 -4.13168 0
M  V30 4939 H 830.168 -4.59773 -3.53894 0
M  V30 4940 H 830.447 -6.88995 -1.59871 0
M  V30 4941 H 831.439 -6.46749 -3.03687 0
M  V30 4942 H 829.605 -8.46908 -3.20714 0
M  V30 4943 H 829.534 -6.08548 -0.206986 0
M  V30 4944 P 831.475 -7.20834 -5.23717 0
M  V30 4945 O 831.695 -7.79853 -6.57286 0
M  V30 4946 O 832.265 -7.79239 -4.12957 0
M  V30 4947 O 831.725 -5.63315 -5.29344 0
M  V30 4948 C 830.785 -4.80255 -6.01876 0
M  V30 4949 C 831.515 -3.64202 -6.65911 0
M  V30 4950 O 831.725 -2.60694 -5.64732 0
M  V30 4951 C 832.915 -3.93473 -7.1943 0
M  V30 4952 O 833.305 -3.02071 -8.21205 0
M  V30 4953 C 833.795 -3.73047 -5.97036 0
M  V30 4954 C 833.085 -2.58828 -5.25741 0
M  V30 4955 N 833.135 -2.68068 -3.77503 0
M  V30 4956 H 830.296 -5.40332 -6.79951 0
M  V30 4957 H 830.026 -4.41613 -5.32378 0
M  V30 4958 H 830.893 -3.26331 -7.47797 0
M  V30 4959 P 834.855 -2.75334 -8.47391 0
M  V30 4960 O 835.075 -2.44571 -9.90142 0
M  V30 4961 O 835.645 -3.87688 -7.92115 0
M  V30 4962 O 835.105 -1.4459 -7.59357 0
M  V30 4963 C 834.165 -0.347608 -7.69215 0
M  V30 4964 C 834.895 0.96767 -7.52806 0
M  V30 4965 O 835.105 1.21036 -6.1011 0
M  V30 4966 C 836.295 1.04544 -8.13308 0
M  V30 4967 O 836.685 2.38311 -8.41922 0
M  V30 4968 C 837.175 0.491279 -7.02284 0
M  V30 4969 C 836.465 0.996264 -5.77469 0
M  V30 4970 N 836.515 0.0501916 -4.62973 0
M  V30 4971 C 836.435 -1.32786 -4.63244 0
M  V30 4972 N 836.515 -1.86957 -3.44545 0
M  V30 4973 C 836.655 -0.780241 -2.58481 0
M  V30 4974 C 836.785 -0.738536 -1.17757 0
M  V30 4975 O 836.805 -1.66794 -0.372349 0
M  V30 4976 N 836.905 0.58337 -0.711393 0
M  V30 4977 C 836.905 1.70816 -1.51017 0
M  V30 4978 N 837.035 2.87826 -0.880757 0
M  V30 4979 N 836.775 1.67126 -2.8339 0
M  V30 4980 C 836.655 0.401421 -3.30572 0
M  V30 4981 H 833.676 -0.374722 -8.67691 0
M  V30 4982 H 833.406 -0.443485 -6.90277 0
M  V30 4983 H 834.273 1.75537 -7.96793 0
M  V30 4984 H 836.928 1.95076 -5.46529 0
M  V30 4985 H 837.207 -0.608565 -7.04577 0
M  V30 4986 H 838.199 0.889672 -7.08939 0
M  V30 4987 H 836.365 0.43308 -9.04564 0
M  V30 4988 H 836.316 -1.91249 -5.54442 0
M  V30 4989 H 836.998 0.718054 0.275244 0
M  V30 4990 H 837.035 3.75721 -1.41832 0
M  V30 4991 H 837.136 2.90436 0.145468 0
M  V30 4992 P 838.235 2.75334 -8.47391 0
M  V30 4993 O 838.455 3.84128 -9.44797 0
M  V30 4994 O 839.025 1.51947 -8.68712 0
M  V30 4995 O 838.485 3.29363 -6.99321 0
M  V30 4996 C 837.545 4.24011 -6.4274 0
M  V30 4997 C 838.275 5.20775 -5.52155 0
M  V30 4998 O 838.485 4.56534 -4.22446 0
M  V30 4999 C 839.675 5.62629 -5.96531 0
M  V30 5000 O 840.065 6.87667 -5.41053 0
M  V30 5001 C 840.555 4.52537 -5.39283 0
M  V30 5002 C 839.845 4.20027 -4.08623 0
M  V30 5003 N 839.895 2.76189 -3.71603 0
M  V30 5004 H 837.056 4.797 -7.24003 0
M  V30 5005 H 836.786 3.69856 -5.84513 0
M  V30 5006 H 837.653 6.10356 -5.41441 0
M  V30 5007 P 841.615 7.20834 -5.23717 0
M  V30 5008 O 841.835 8.66104 -5.38572 0
M  V30 5009 O 842.405 6.33544 -6.1349 0
M  V30 5010 O 841.865 6.7751 -3.72168 0
M  V30 5011 C 840.925 7.20825 -2.7076 0
M  V30 5012 C 841.655 7.45864 -1.40599 0
M  V30 5013 O 841.865 6.17651 -0.734225 0
M  V30 5014 C 843.055 8.05808 -1.51899 0
M  V30 5015 O 843.445 8.74358 -0.335205 0
M  V30 5016 C 843.935 6.83093 -1.70294 0
M  V30 5017 C 843.225 5.79992 -0.836974 0
M  V30 5018 N 843.275 4.41864 -1.38293 0
M  V30 5019 H 840.436 8.13644 -3.0377 0
M  V30 5020 H 840.166 6.42788 -2.55485 0
M  V30 5021 H 841.033 8.12039 -0.792769 0
M  V30 5022 P 844.995 8.91 6.08645e-12 0
M  V30 5023 O 845.215 10.1726 0.733694 0
M  V30 5024 O 845.785 8.73148 -1.23936 0
M  V30 5025 O 845.245 7.66872 0.971405 0
M  V30 5026 C 844.305 7.42309 2.04641 0
M  V30 5027 C 845.035 6.86059 3.24661 0
M  V30 5028 O 845.245 5.42847 3.03646 0
M  V30 5029 C 846.435 7.41196 3.50753 0
M  V30 5030 O 846.825 7.27073 4.86816 0
M  V30 5031 C 847.315 6.5273 2.63741 0
M  V30 5032 C 846.605 5.1842 2.73198 0
M  V30 5033 N 846.655 4.38762 1.4784 0
M  V30 5034 H 843.816 8.36803 2.32493 0
M  V30 5035 H 843.546 6.70197 1.71129 0
M  V30 5036 H 844.413 7.03551 4.13168 0
M  V30 5037 P 848.375 7.20834 5.23717 0
M  V30 5038 O 848.595 7.79853 6.57286 0
M  V30 5039 O 849.165 7.79239 4.12957 0
M  V30 5040 O 848.625 5.63315 5.29344 0
M  V30 5041 C 847.685 4.80255 6.01876 0
M  V30 5042 C 848.415 3.64202 6.65911 0
M  V30 5043 O 848.625 2.60694 5.64732 0
M  V30 5044 C 849.815 3.93473 7.1943 0
M  V30 5045 O 850.205 3.02071 8.21205 0
M  V30 5046 C 850.695 3.73047 5.97036 0
M  V30 5047 C 849.985 2.58828 5.25741 0
M  V30 5048 N 850.035 2.68068 3.77503 0
M  V30 5049 C 849.955 3.79715 2.96723 0
M  V30 5050 N 850.035 3.5377 1.68852 0
M  V30 5051 C 850.175 2.15054 1.63254 0
M  V30 5052 C 850.305 1.28964 0.518571 0
M  V30 5053 O 850.325 1.56826 -0.679156 0
M  V30 5054 N 850.425 -0.0538097 0.918425 0
M  V30 5055 C 850.425 -0.494275 2.22578 0
M  V30 5056 N 850.555 -1.81086 2.40434 0
M  V30 5057 N 850.295 0.313645 3.27502 0
M  V30 5058 C 850.175 1.61829 2.91033 0
M  V30 5059 H 847.196 5.40332 6.79951 0
M  V30 5060 H 846.926 4.41613 5.32378 0
M  V30 5061 H 847.793 3.26331 7.47797 0
M  V30 5062 H 850.448 1.63422 5.56814 0
M  V30 5063 H 850.727 4.63374 5.34244 0
M  V30 5064 H 851.719 3.44728 6.25838 0
M  V30 5065 H 849.885 4.96652 7.57263 0
M  V30 5066 H 849.836 4.80617 3.3614 0
M  V30 5067 H 850.518 -0.742702 0.199384 0
M  V30 5068 H 850.555 -2.20598 3.35588 0
M  V30 5069 H 850.656 -2.43518 1.58945 0
M  V30 5070 P 851.755 2.75334 8.47391 0
M  V30 5071 O 851.975 2.44595 9.90239 0
M  V30 5072 O 852.545 3.87732 7.92204 0
M  V30 5073 O 852.005 1.4459 7.59357 0
M  V30 5074 C 851.065 0.347563 7.69115 0
M  V30 5075 C 851.795 -0.96767 7.52806 0
M  V30 5076 O 852.005 -1.21036 6.1011 0
M  V30 5077 C 853.195 -1.04544 8.13308 0
M  V30 5078 O 853.585 -2.38311 8.41922 0
M  V30 5079 C 854.075 -0.491279 7.02284 0
M  V30 5080 C 853.365 -0.996264 5.77469 0
M  V30 5081 N 853.415 -0.0501808 4.62873 0
M  V30 5082 C 853.565 -0.588177 3.36904 0
M  V30 5083 O 853.655 -1.78598 3.17173 0
M  V30 5084 N 853.605 0.329694 2.33686 0
M  V30 5085 C 853.515 1.6953 2.45079 0
M  V30 5086 C 853.365 2.16933 3.80505 0
M  V30 5087 C 853.315 1.30326 4.83752 0
M  V30 5088 H 850.575 0.374722 8.67691 0
M  V30 5089 H 850.306 0.443421 6.90177 0
M  V30 5090 H 851.173 -1.75537 7.96793 0
M  V30 5091 H 853.828 -1.94496 5.46629 0
M  V30 5092 H 854.107 0.608651 7.04676 0
M  V30 5093 H 855.099 -0.889672 7.08939 0
M  V30 5094 H 853.265 -0.43308 9.04564 0
M  V30 5095 H 853.194 1.68366 5.8516 0
M  V30 5096 P 855.135 -2.75334 8.47391 0
M  V30 5097 O 855.355 -3.84128 9.44797 0
M  V30 5098 O 855.925 -1.51947 8.68712 0
M  V30 5099 O 855.385 -3.29363 6.99321 0
M  V30 5100 C 854.445 -4.24011 6.4274 0
M  V30 5101 C 855.175 -5.20775 5.52155 0
M  V30 5102 O 855.385 -4.56534 4.22446 0
M  V30 5103 C 856.575 -5.62629 5.96531 0
M  V30 5104 O 856.965 -6.87667 5.41053 0
M  V30 5105 C 857.455 -4.52537 5.39283 0
M  V30 5106 C 856.745 -4.20027 4.08623 0
M  V30 5107 N 856.795 -2.76189 3.71603 0
M  V30 5108 C 856.715 -1.64862 4.52822 0
M  V30 5109 N 856.795 -0.512671 3.88633 0
M  V30 5110 C 856.935 -0.888083 2.54977 0
M  V30 5111 C 857.065 -0.094668 1.38677 0
M  V30 5112 O 857.085 1.13053 1.28163 0
M  V30 5113 N 857.185 -0.890102 0.232633 0
M  V30 5114 C 857.185 -2.26958 0.21772 0
M  V30 5115 N 857.315 -2.84626 -0.97925 0
M  V30 5116 N 857.055 -3.0178 1.31033 0
M  V30 5117 C 856.935 -2.26781 2.43843 0
M  V30 5118 H 853.956 -4.797 7.24003 0
M  V30 5119 H 853.686 -3.69856 5.84513 0
M  V30 5120 H 854.553 -6.10356 5.41441 0
M  V30 5121 H 857.208 -4.79061 3.27488 0
M  V30 5122 H 857.487 -3.64906 6.05785 0
M  V30 5123 H 858.479 -4.8868 5.2125 0
M  V30 5124 H 856.645 -5.66726 7.06352 0
M  V30 5125 H 856.596 -1.71169 5.60966 0
M  V30 5126 H 857.278 -0.419134 -0.644739 0
M  V30 5127 H 857.315 -3.87332 -1.06098 0
M  V30 5128 H 857.416 -2.26417 -1.82483 0
M  V30 5129 P 858.515 -7.20834 5.23717 0
M  V30 5130 O 858.735 -8.66104 5.38572 0
M  V30 5131 O 859.305 -6.33544 6.1349 0
M  V30 5132 O 858.765 -6.7751 3.72168 0
M  V30 5133 C 857.825 -7.20825 2.7076 0
M  V30 5134 C 858.555 -7.45864 1.40599 0
M  V30 5135 O 858.765 -6.17651 0.734225 0
M  V30 5136 C 859.955 -8.05808 1.51899 0
M  V30 5137 O 860.345 -8.74358 0.335205 0
M  V30 5138 C 860.835 -6.83093 1.70294 0
M  V30 5139 C 860.125 -5.79992 0.836974 0
M  V30 5140 N 860.175 -4.41864 1.38293 0
M  V30 5141 H 857.336 -8.13644 3.0377 0
M  V30 5142 H 857.066 -6.42788 2.55485 0
M  V30 5143 H 857.933 -8.12039 0.792769 0
M  V30 5144 P 861.895 -8.91 -6.24363e-12 0
M  V30 5145 O 862.115 -10.1736 -0.733766 0
M  V30 5146 O 862.685 -8.73247 1.2395 0
M  V30 5147 O 862.145 -7.66872 -0.971405 0
M  V30 5148 C 861.205 -7.42212 -2.04614 0
M  V30 5149 C 861.935 -6.86059 -3.24661 0
M  V30 5150 O 862.145 -5.42847 -3.03646 0
M  V30 5151 C 863.335 -7.41196 -3.50753 0
M  V30 5152 O 863.725 -7.27073 -4.86816 0
M  V30 5153 C 864.215 -6.5273 -2.63741 0
M  V30 5154 C 863.505 -5.1842 -2.73198 0
M  V30 5155 N 863.555 -4.38668 -1.47808 0
M  V30 5156 C 863.705 -3.02239 -1.60048 0
M  V30 5157 O 863.795 -2.46459 -2.67869 0
M  V30 5158 N 863.745 -2.32436 -0.408571 0
M  V30 5159 C 863.655 -2.85471 0.854993 0
M  V30 5160 O 863.705 -2.12566 1.8531 0
M  V30 5161 C 863.505 -4.28918 0.887335 0
M  V30 5162 C 863.395 -4.91066 2.24619 0
M  V30 5163 C 863.455 -5.00349 -0.255399 0
M  V30 5164 H 860.715 -8.36803 -2.32493 0
M  V30 5165 H 860.446 -6.701 -1.71105 0
M  V30 5166 H 861.313 -7.03551 -4.13168 0
M  V30 5167 H 863.968 -4.59773 -3.53894 0
M  V30 5168 H 864.247 -6.88995 -1.59871 0
M  V30 5169 H 865.239 -6.46749 -3.03687 0
M  V30 5170 H 863.405 -8.46908 -3.20714 0
M  V30 5171 H 863.334 -6.08548 -0.206986 0
M  V30 5172 H 864.364 -5.34836 2.53099 0
M  V30 5173 H 862.627 -5.69638 2.2291 0
M  V30 5174 H 863.115 -4.13971 2.98044 0
M  V30 5175 H 863.851 -1.33211 -0.474216 0
M  V30 5176 P 865.275 -7.20834 -5.23717 0
M  V30 5177 O 865.495 -7.7993 -6.57351 0
M  V30 5178 O 866.065 -7.79328 -4.13004 0
M  V30 5179 O 865.525 -5.63315 -5.29344 0
M  V30 5180 C 864.585 -4.80193 -6.01798 0
M  V30 5181 C 865.315 -3.64202 -6.65911 0
M  V30 5182 O 865.525 -2.60694 -5.64732 0
M  V30 5183 C 866.715 -3.93473 -7.1943 0
M  V30 5184 O 867.105 -3.02071 -8.21205 0
M  V30 5185 C 867.595 -3.73047 -5.97036 0
M  V30 5186 C 866.885 -2.58828 -5.25741 0
M  V30 5187 N 866.935 -2.6801 -3.77422 0
M  V30 5188 C 867.085 -1.50443 -3.07133 0
M  V30 5189 O 867.175 -0.419406 -3.61576 0
M  V30 5190 N 867.125 -1.6403 -1.69677 0
M  V30 5191 C 867.035 -2.81206 -0.986255 0
M  V30 5192 O 867.085 -2.80892 0.249754 0
M  V30 5193 C 866.885 -3.99158 -1.80325 0
M  V30 5194 C 866.775 -5.29309 -1.06921 0
M  V30 5195 C 866.835 -3.89779 -3.1476 0
M  V30 5196 H 864.095 -5.40332 -6.79951 0
M  V30 5197 H 863.826 -4.41549 -5.32301 0
M  V30 5198 H 864.693 -3.26331 -7.47797 0
M  V30 5199 H 867.348 -1.6395 -5.56554 0
M  V30 5200 H 867.627 -4.63439 -5.3432 0
M  V30 5201 H 868.619 -3.44728 -6.25838 0
M  V30 5202 H 866.785 -4.96652 -7.57263 0
M  V30 5203 H 866.714 -4.80159 -3.74441 0
M  V30 5204 H 867.744 -5.81459 -1.09608 0
M  V30 5205 H 866.007 -5.9187 -1.54487 0
M  V30 5206 H 866.495 -5.10095 -0.0220288 0
M  V30 5207 H 867.231 -0.798962 -1.16664 0
M  V30 5208 P 868.655 -2.75334 -8.47391 0
M  V30 5209 O 868.875 -2.44571 -9.90142 0
M  V30 5210 O 869.445 -3.87688 -7.92115 0
M  V30 5211 O 868.905 -1.4459 -7.59357 0
M  V30 5212 C 867.965 -0.347608 -7.69215 0
M  V30 5213 C 868.695 0.96767 -7.52806 0
M  V30 5214 O 868.905 1.21036 -6.1011 0
M  V30 5215 C 870.095 1.04544 -8.13308 0
M  V30 5216 O 870.485 2.38311 -8.41922 0
M  V30 5217 C 870.975 0.491279 -7.02284 0
M  V30 5218 C 870.265 0.996264 -5.77469 0
M  V30 5219 N 870.315 0.0501916 -4.62973 0
M  V30 5220 H 867.476 -0.374722 -8.67691 0
M  V30 5221 H 867.206 -0.443485 -6.90277 0
M  V30 5222 H 868.073 1.75537 -7.96793 0
M  V30 5223 P 872.035 2.75334 -8.47391 0
M  V30 5224 O 872.255 3.84128 -9.44797 0
M  V30 5225 O 872.825 1.51947 -8.68712 0
M  V30 5226 O 872.285 3.29363 -6.99321 0
M  V30 5227 C 871.345 4.24011 -6.4274 0
M  V30 5228 C 872.075 5.20775 -5.52155 0
M  V30 5229 O 872.285 4.56534 -4.22446 0
M  V30 5230 C 873.475 5.62629 -5.96531 0
M  V30 5231 O 873.865 6.87667 -5.41053 0
M  V30 5232 C 874.355 4.52537 -5.39283 0
M  V30 5233 C 873.645 4.20027 -4.08623 0
M  V30 5234 N 873.695 2.76189 -3.71603 0
M  V30 5235 H 870.856 4.797 -7.24003 0
M  V30 5236 H 870.586 3.69856 -5.84513 0
M  V30 5237 H 871.453 6.10356 -5.41441 0
M  V30 5238 P 875.415 7.20834 -5.23717 0
M  V30 5239 O 875.635 8.66104 -5.38572 0
M  V30 5240 O 876.205 6.33544 -6.1349 0
M  V30 5241 O 875.665 6.7751 -3.72168 0
M  V30 5242 C 874.725 7.20825 -2.7076 0
M  V30 5243 C 875.455 7.45864 -1.40599 0
M  V30 5244 O 875.665 6.17651 -0.734225 0
M  V30 5245 C 876.855 8.05808 -1.51899 0
M  V30 5246 O 877.245 8.74358 -0.335205 0
M  V30 5247 C 877.735 6.83093 -1.70294 0
M  V30 5248 C 877.025 5.79992 -0.836974 0
M  V30 5249 N 877.075 4.41864 -1.38293 0
M  V30 5250 H 874.236 8.13644 -3.0377 0
M  V30 5251 H 873.966 6.42788 -2.55485 0
M  V30 5252 H 874.833 8.12039 -0.792769 0
M  V30 5253 P 878.795 8.91 6.40081e-12 0
M  V30 5254 O 879.015 10.1726 0.733694 0
M  V30 5255 O 879.585 8.73148 -1.23936 0
M  V30 5256 O 879.045 7.66872 0.971405 0
M  V30 5257 C 878.105 7.42309 2.04641 0
M  V30 5258 C 878.835 6.86059 3.24661 0
M  V30 5259 O 879.045 5.42847 3.03646 0
M  V30 5260 C 880.235 7.41196 3.50753 0
M  V30 5261 O 880.625 7.27073 4.86816 0
M  V30 5262 C 881.115 6.5273 2.63741 0
M  V30 5263 C 880.405 5.1842 2.73198 0
M  V30 5264 N 880.455 4.38762 1.4784 0
M  V30 5265 C 880.375 4.81605 0.168631 0
M  V30 5266 N 880.455 3.85454 -0.713363 0
M  V30 5267 C 880.595 2.6994 0.0566958 0
M  V30 5268 C 880.725 1.34815 -0.338502 0
M  V30 5269 O 880.745 0.869548 -1.47125 0
M  V30 5270 N 880.845 0.496304 0.77465 0
M  V30 5271 C 880.845 0.908403 2.09122 0
M  V30 5272 N 880.975 -0.0517805 3.00955 0
M  V30 5273 N 880.715 2.17875 2.46519 0
M  V30 5274 C 880.595 3.01988 1.4033 0
M  V30 5275 H 877.616 8.36803 2.32493 0
M  V30 5276 H 877.346 6.70197 1.71129 0
M  V30 5277 H 878.213 7.03551 4.13168 0
M  V30 5278 H 880.868 4.59498 3.54415 0
M  V30 5279 H 881.147 6.88898 1.59848 0
M  V30 5280 H 882.139 6.46749 3.03687 0
M  V30 5281 H 880.305 8.46908 3.20714 0
M  V30 5282 H 880.256 5.86405 -0.105564 0
M  V30 5283 H 880.938 -0.483664 0.597855 0
M  V30 5284 H 880.975 0.187865 4.0116 0
M  V30 5285 H 881.076 -1.03585 2.71726 0
M  V30 5286 P 882.175 7.20834 5.23717 0
M  V30 5287 O 882.395 7.79853 6.57286 0
M  V30 5288 O 882.965 7.79239 4.12957 0
M  V30 5289 O 882.425 5.63315 5.29344 0
M  V30 5290 C 881.485 4.80255 6.01876 0
M  V30 5291 C 882.215 3.64202 6.65911 0
M  V30 5292 O 882.425 2.60694 5.64732 0
M  V30 5293 C 883.615 3.93473 7.1943 0
M  V30 5294 O 884.005 3.02071 8.21205 0
M  V30 5295 C 884.495 3.73047 5.97036 0
M  V30 5296 C 883.785 2.58828 5.25741 0
M  V30 5297 N 883.835 2.68068 3.77503 0
M  V30 5298 C 883.755 3.79715 2.96723 0
M  V30 5299 N 883.835 3.5377 1.68852 0
M  V30 5300 C 883.975 2.15054 1.63254 0
M  V30 5301 C 884.105 1.28964 0.518571 0
M  V30 5302 N 884.225 -0.0538097 0.918425 0
M  V30 5303 C 884.225 -0.494275 2.22578 0
M  V30 5304 N 884.355 -1.81086 2.40434 0
M  V30 5305 N 884.095 0.313645 3.27502 0
M  V30 5306 C 883.975 1.61829 2.91033 0
M  V30 5307 H 880.996 5.40332 6.79951 0
M  V30 5308 H 880.726 4.41613 5.32378 0
M  V30 5309 H 881.593 3.26331 7.47797 0
M  V30 5310 P 885.555 2.75334 8.47391 0
M  V30 5311 O 885.775 2.44571 9.90142 0
M  V30 5312 O 886.345 3.87688 7.92115 0
M  V30 5313 O 885.805 1.4459 7.59357 0
M  V30 5314 C 884.865 0.347608 7.69215 0
M  V30 5315 C 885.595 -0.96767 7.52806 0
M  V30 5316 O 885.805 -1.21036 6.1011 0
M  V30 5317 C 886.995 -1.04544 8.13308 0
M  V30 5318 O 887.385 -2.38311 8.41922 0
M  V30 5319 C 887.875 -0.491279 7.02284 0
M  V30 5320 C 887.165 -0.996264 5.77469 0
M  V30 5321 N 887.215 -0.0501916 4.62973 0
M  V30 5322 H 884.376 0.374722 8.67691 0
M  V30 5323 H 884.106 0.443485 6.90277 0
M  V30 5324 H 884.973 -1.75537 7.96793 0
M  V30 5325 P 888.935 -2.75334 8.47391 0
M  V30 5326 O 889.155 -3.84128 9.44797 0
M  V30 5327 O 889.725 -1.51947 8.68712 0
M  V30 5328 O 889.185 -3.29363 6.99321 0
M  V30 5329 C 888.245 -4.24011 6.4274 0
M  V30 5330 C 888.975 -5.20775 5.52155 0
M  V30 5331 O 889.185 -4.56534 4.22446 0
M  V30 5332 C 890.375 -5.62629 5.96531 0
M  V30 5333 O 890.765 -6.87667 5.41053 0
M  V30 5334 C 891.255 -4.52537 5.39283 0
M  V30 5335 C 890.545 -4.20027 4.08623 0
M  V30 5336 N 890.595 -2.76189 3.71603 0
M  V30 5337 H 887.756 -4.797 7.24003 0
M  V30 5338 H 887.486 -3.69856 5.84513 0
M  V30 5339 H 888.353 -6.10356 5.41441 0
M  V30 5340 P 892.315 -7.20834 5.23717 0
M  V30 5341 O 892.535 -8.66104 5.38572 0
M  V30 5342 O 893.105 -6.33544 6.1349 0
M  V30 5343 O 892.565 -6.7751 3.72168 0
M  V30 5344 C 891.625 -7.20825 2.7076 0
M  V30 5345 C 892.355 -7.45864 1.40599 0
M  V30 5346 O 892.565 -6.17651 0.734225 0
M  V30 5347 C 893.755 -8.05808 1.51899 0
M  V30 5348 O 894.145 -8.74358 0.335205 0
M  V30 5349 C 894.635 -6.83093 1.70294 0
M  V30 5350 C 893.925 -5.79992 0.836974 0
M  V30 5351 N 893.975 -4.41864 1.38293 0
M  V30 5352 H 891.136 -8.13644 3.0377 0
M  V30 5353 H 890.866 -6.42788 2.55485 0
M  V30 5354 H 891.733 -8.12039 0.792769 0
M  V30 5355 P 895.695 -8.91 -6.558e-12 0
M  V30 5356 O 895.915 -10.1736 -0.733766 0
M  V30 5357 O 896.485 -8.73247 1.2395 0
M  V30 5358 O 895.945 -7.66872 -0.971405 0
M  V30 5359 C 895.005 -7.42212 -2.04614 0
M  V30 5360 C 895.735 -6.86059 -3.24661 0
M  V30 5361 O 895.945 -5.42847 -3.03646 0
M  V30 5362 C 897.135 -7.41196 -3.50753 0
M  V30 5363 O 897.525 -7.27073 -4.86816 0
M  V30 5364 C 898.015 -6.5273 -2.63741 0
M  V30 5365 C 897.305 -5.1842 -2.73198 0
M  V30 5366 N 897.355 -4.38668 -1.47808 0
M  V30 5367 C 897.505 -3.02239 -1.60048 0
M  V30 5368 O 897.595 -2.46459 -2.67869 0
M  V30 5369 N 897.545 -2.32436 -0.408571 0
M  V30 5370 C 897.455 -2.85471 0.854993 0
M  V30 5371 C 897.305 -4.28918 0.887335 0
M  V30 5372 C 897.255 -5.00349 -0.255399 0
M  V30 5373 H 894.515 -8.36803 -2.32493 0
M  V30 5374 H 894.246 -6.701 -1.71105 0
M  V30 5375 H 895.113 -7.03551 -4.13168 0
M  V30 5376 H 897.768 -4.59773 -3.53894 0
M  V30 5377 H 898.047 -6.88995 -1.59871 0
M  V30 5378 H 899.039 -6.46749 -3.03687 0
M  V30 5379 H 897.205 -8.46908 -3.20714 0
M  V30 5380 H 897.134 -6.08548 -0.206986 0
M  V30 5381 P 899.075 -7.20834 -5.23717 0
M  V30 5382 O 899.295 -7.7993 -6.57351 0
M  V30 5383 O 899.865 -7.79328 -4.13004 0
M  V30 5384 O 899.325 -5.63315 -5.29344 0
M  V30 5385 C 898.385 -4.80255 -6.01876 0
M  V30 5386 C 899.115 -3.64202 -6.65911 0
M  V30 5387 O 899.325 -2.60694 -5.64732 0
M  V30 5388 C 900.515 -3.93473 -7.1943 0
M  V30 5389 O 900.905 -3.02071 -8.21205 0
M  V30 5390 C 901.395 -3.73047 -5.97036 0
M  V30 5391 C 900.685 -2.58828 -5.25741 0
M  V30 5392 N 900.735 -2.6801 -3.77422 0
M  V30 5393 C 900.885 -1.50173 -3.05038 0
M  V30 5394 O 900.975 -0.428832 -3.665 0
M  V30 5395 N 900.935 -1.70922 -1.55541 0
M  V30 5396 C 900.835 -2.7407 -1.06402 0
M  V30 5397 N 900.885 -2.74764 0.260931 0
M  V30 5398 C 900.685 -3.96781 -1.78296 0
M  V30 5399 C 900.635 -3.87909 -3.13891 0
M  V30 5400 H 897.895 -5.4027 -6.79873 0
M  V30 5401 H 897.626 -4.41549 -5.32301 0
M  V30 5402 H 898.493 -3.26371 -7.47889 0
M  V30 5403 H 901.148 -1.63978 -5.5665 0
M  V30 5404 H 901.427 -4.63439 -5.3432 0
M  V30 5405 H 902.419 -3.44728 -6.25838 0
M  V30 5406 H 900.585 -4.96652 -7.57263 0
M  V30 5407 H 900.513 -4.78425 -3.73088 0
M  V30 5408 H 900.615 -4.92593 -1.26997 0
M  V30 5409 H 901.003 -1.86285 0.77595 0
M  V30 5410 H 900.806 -3.63657 0.773896 0
M  V30 5411 P 902.455 -2.75334 -8.47391 0
M  V30 5412 O 902.675 -2.44571 -9.90142 0
M  V30 5413 O 903.245 -3.87688 -7.92115 0
M  V30 5414 O 902.705 -1.4459 -7.59357 0
M  V30 5415 C 901.765 -0.347608 -7.69215 0
M  V30 5416 C 902.495 0.96767 -7.52806 0
M  V30 5417 O 902.705 1.21036 -6.1011 0
M  V30 5418 C 903.895 1.04544 -8.13308 0
M  V30 5419 O 904.285 2.38311 -8.41922 0
M  V30 5420 C 904.775 0.491279 -7.02284 0
M  V30 5421 C 904.065 0.996264 -5.77469 0
M  V30 5422 N 904.115 0.0501916 -4.62973 0
M  V30 5423 H 901.276 -0.374722 -8.67691 0
M  V30 5424 H 901.006 -0.443485 -6.90277 0
M  V30 5425 H 901.873 1.75537 -7.96793 0
M  V30 5426 P 905.835 2.75334 -8.47391 0
M  V30 5427 O 906.055 3.84128 -9.44797 0
M  V30 5428 O 906.625 1.51947 -8.68712 0
M  V30 5429 O 906.085 3.29363 -6.99321 0
M  V30 5430 C 905.145 4.24011 -6.4274 0
M  V30 5431 C 905.875 5.20775 -5.52155 0
M  V30 5432 O 906.085 4.56534 -4.22446 0
M  V30 5433 C 907.275 5.62629 -5.96531 0
M  V30 5434 O 907.665 6.87667 -5.41053 0
M  V30 5435 C 908.155 4.52537 -5.39283 0
M  V30 5436 C 907.445 4.20027 -4.08623 0
M  V30 5437 N 907.495 2.76189 -3.71603 0
M  V30 5438 H 904.656 4.797 -7.24003 0
M  V30 5439 H 904.386 3.69856 -5.84513 0
M  V30 5440 H 905.253 6.10356 -5.41441 0
M  V30 5441 P 909.215 7.20834 -5.23717 0
M  V30 5442 O 909.435 8.66104 -5.38572 0
M  V30 5443 O 910.005 6.33544 -6.1349 0
M  V30 5444 O 909.465 6.7751 -3.72168 0
M  V30 5445 C 908.525 7.20825 -2.7076 0
M  V30 5446 C 909.255 7.45864 -1.40599 0
M  V30 5447 O 909.465 6.17651 -0.734225 0
M  V30 5448 C 910.655 8.05808 -1.51899 0
M  V30 5449 O 911.045 8.74358 -0.335205 0
M  V30 5450 C 911.535 6.83093 -1.70294 0
M  V30 5451 C 910.825 5.79992 -0.836974 0
M  V30 5452 N 910.875 4.41864 -1.38293 0
M  V30 5453 C 910.795 3.99538 -2.69438 0
M  V30 5454 N 910.875 2.69909 -2.84277 0
M  V30 5455 C 911.015 2.21719 -1.5408 0
M  V30 5456 C 911.145 0.891712 -1.06628 0
M  V30 5457 O 911.165 -0.161298 -1.70137 0
M  V30 5458 N 911.265 0.856846 0.334985 0
M  V30 5459 C 911.265 1.9641 1.15789 0
M  V30 5460 N 911.395 1.72708 2.46522 0
M  V30 5461 N 911.135 3.21165 0.713741 0
M  V30 5462 C 911.015 3.26797 -0.639748 0
M  V30 5463 H 908.036 8.13644 -3.0377 0
M  V30 5464 H 907.766 6.42788 -2.55485 0
M  V30 5465 H 908.633 8.12039 -0.792769 0
M  V30 5466 H 911.288 5.80061 0.166416 0
M  V30 5467 H 911.567 6.51287 -2.75604 0
M  V30 5468 H 912.559 7.01734 -1.34462 0
M  V30 5469 H 910.725 8.73674 -2.38337 0
M  V30 5470 H 910.676 4.68207 -3.53221 0
M  V30 5471 H 911.358 -0.0398818 0.767965 0
M  V30 5472 H 911.395 2.50995 3.13503 0
M  V30 5473 H 911.496 0.759148 2.80716 0
M  V30 5474 P 912.595 8.91 6.71518e-12 0
M  V30 5475 O 912.815 10.1746 0.733838 0
M  V30 5476 O 913.385 8.73346 -1.23964 0
M  V30 5477 O 912.845 7.66872 0.971405 0
M  V30 5478 C 911.905 7.42405 2.04668 0
M  V30 5479 C 912.635 6.86059 3.24661 0
M  V30 5480 O 912.845 5.42934 3.03695 0
M  V30 5481 C 914.035 7.41287 3.50796 0
M  V30 5482 O 914.425 7.27073 4.86816 0
M  V30 5483 C 914.915 6.5273 2.63741 0
M  V30 5484 C 914.205 5.1842 2.73198 0
M  V30 5485 N 914.255 4.38762 1.4784 0
M  V30 5486 H 911.417 8.36899 2.3252 0
M  V30 5487 H 911.145 6.70391 1.71179 0
M  V30 5488 H 912.013 7.03638 4.13219 0
M  V30 5489 H 914.668 4.59931 3.54016 0
M  V30 5490 H 914.948 6.88995 1.59871 0
M  V30 5491 H 915.939 6.4684 3.0373 0
M  V30 5492 H 914.105 8.47002 3.20749 0
M  V30 5493 P 915.975 7.20834 5.23717 0
M  V30 5494 O 916.195 7.7993 6.57351 0
M  V30 5495 O 916.765 7.79328 4.13004 0
M  V30 5496 O 916.225 5.63315 5.29344 0
M  V30 5497 C 915.285 4.80193 6.01798 0
M  V30 5498 C 916.015 3.64202 6.65911 0
M  V30 5499 O 916.225 2.60694 5.64732 0
M  V30 5500 C 917.415 3.93473 7.1943 0
M  V30 5501 O 917.805 3.02071 8.21205 0
M  V30 5502 C 918.295 3.73047 5.97036 0
M  V30 5503 C 917.585 2.58828 5.25741 0
M  V30 5504 N 917.635 2.6801 3.77422 0
M  V30 5505 C 917.785 1.50443 3.07133 0
M  V30 5506 O 917.875 0.419406 3.61576 0
M  V30 5507 N 917.825 1.6403 1.69677 0
M  V30 5508 C 917.735 2.81206 0.986255 0
M  V30 5509 C 917.585 3.99158 1.80325 0
M  V30 5510 C 917.535 3.89779 3.1476 0
M  V30 5511 H 914.795 5.40332 6.79951 0
M  V30 5512 H 914.526 4.41549 5.32301 0
M  V30 5513 H 915.393 3.26331 7.47797 0
M  V30 5514 H 918.048 1.6395 5.56554 0
M  V30 5515 H 918.327 4.63439 5.3432 0
M  V30 5516 H 919.319 3.44728 6.25838 0
M  V30 5517 H 917.485 4.96652 7.57263 0
M  V30 5518 H 917.414 4.80159 3.74441 0
M  V30 5519 P 919.355 2.75334 8.47391 0
M  V30 5520 O 919.575 2.44571 9.90142 0
M  V30 5521 O 920.145 3.87688 7.92115 0
M  V30 5522 O 919.605 1.4459 7.59357 0
M  V30 5523 C 918.665 0.347608 7.69215 0
M  V30 5524 C 919.395 -0.96767 7.52806 0
M  V30 5525 O 919.605 -1.21036 6.1011 0
M  V30 5526 C 920.795 -1.04544 8.13308 0
M  V30 5527 O 921.185 -2.38311 8.41922 0
M  V30 5528 C 921.675 -0.491279 7.02284 0
M  V30 5529 C 920.965 -0.996264 5.77469 0
M  V30 5530 N 921.015 -0.0501916 4.62973 0
M  V30 5531 H 918.176 0.374722 8.67691 0
M  V30 5532 H 917.906 0.443485 6.90277 0
M  V30 5533 H 918.773 -1.75537 7.96793 0
M  V30 5534 P 922.735 -2.75334 8.47391 0
M  V30 5535 O 922.955 -3.84204 9.44982 0
M  V30 5536 O 923.525 -1.51982 8.68909 0
M  V30 5537 O 922.985 -3.29363 6.99321 0
M  V30 5538 C 922.045 -4.24066 6.42823 0
M  V30 5539 C 922.775 -5.20775 5.52155 0
M  V30 5540 O 922.985 -4.56607 4.22514 0
M  V30 5541 C 924.175 -5.62697 5.96604 0
M  V30 5542 O 924.565 -6.87667 5.41053 0
M  V30 5543 C 925.055 -4.52537 5.39283 0
M  V30 5544 C 924.345 -4.20027 4.08623 0
M  V30 5545 N 924.395 -2.76189 3.71603 0
M  V30 5546 H 921.557 -4.79756 7.24086 0
M  V30 5547 H 921.285 -3.69963 5.84682 0
M  V30 5548 H 922.153 -6.10431 5.41508 0
M  V30 5549 H 924.808 -4.78816 3.28024 0
M  V30 5550 H 925.088 -3.64957 6.05871 0
M  V30 5551 H 926.079 -4.88748 5.21323 0
M  V30 5552 H 924.245 -5.66789 7.0643 0
M  V30 5553 P 926.115 -7.20834 5.23717 0
M  V30 5554 O 926.335 -8.66104 5.38572 0
M  V30 5555 O 926.905 -6.33544 6.1349 0
M  V30 5556 O 926.365 -6.7751 3.72168 0
M  V30 5557 C 925.425 -7.20825 2.7076 0
M  V30 5558 C 926.155 -7.45864 1.40599 0
M  V30 5559 O 926.365 -6.17651 0.734225 0
M  V30 5560 C 927.555 -8.05808 1.51899 0
M  V30 5561 O 927.945 -8.74358 0.335205 0
M  V30 5562 C 928.435 -6.83093 1.70294 0
M  V30 5563 C 927.725 -5.79992 0.836974 0
M  V30 5564 N 927.775 -4.41864 1.38293 0
M  V30 5565 C 927.695 -3.99538 2.69438 0
M  V30 5566 N 927.775 -2.69909 2.84277 0
M  V30 5567 C 927.915 -2.21719 1.5408 0
M  V30 5568 C 928.045 -0.891712 1.06628 0
M  V30 5569 N 928.165 -0.856846 -0.334985 0
M  V30 5570 C 928.165 -1.9641 -1.15789 0
M  V30 5571 N 928.295 -1.72708 -2.46522 0
M  V30 5572 N 928.035 -3.21165 -0.713741 0
M  V30 5573 C 927.915 -3.26797 0.639748 0
M  V30 5574 H 924.936 -8.13644 3.0377 0
M  V30 5575 H 924.666 -6.42788 2.55485 0
M  V30 5576 H 925.533 -8.12039 0.792769 0
M  V30 5577 P 929.495 -8.91 -6.87236e-12 0
M  V30 5578 O 929.715 -10.1736 -0.733766 0
M  V30 5579 O 930.285 -8.73247 1.2395 0
M  V30 5580 O 929.745 -7.66872 -0.971405 0
M  V30 5581 C 928.805 -7.42212 -2.04614 0
M  V30 5582 C 929.535 -6.86059 -3.24661 0
M  V30 5583 O 929.745 -5.42847 -3.03646 0
M  V30 5584 C 930.935 -7.41196 -3.50753 0
M  V30 5585 O 931.325 -7.27073 -4.86816 0
M  V30 5586 C 931.815 -6.5273 -2.63741 0
M  V30 5587 C 931.105 -5.1842 -2.73198 0
M  V30 5588 N 931.155 -4.38668 -1.47808 0
M  V30 5589 C 931.305 -3.02239 -1.60048 0
M  V30 5590 O 931.395 -2.46459 -2.67869 0
M  V30 5591 N 931.345 -2.32436 -0.408571 0
M  V30 5592 C 931.255 -2.85471 0.854993 0
M  V30 5593 C 931.105 -4.28918 0.887335 0
M  V30 5594 C 931.055 -5.00349 -0.255399 0
M  V30 5595 H 928.315 -8.36803 -2.32493 0
M  V30 5596 H 928.046 -6.701 -1.71105 0
M  V30 5597 H 928.913 -7.03551 -4.13168 0
M  V30 5598 H 931.568 -4.59773 -3.53894 0
M  V30 5599 H 931.847 -6.88995 -1.59871 0
M  V30 5600 H 932.839 -6.46749 -3.03687 0
M  V30 5601 H 931.005 -8.46908 -3.20714 0
M  V30 5602 H 930.934 -6.08548 -0.206986 0
M  V30 5603 P 932.874 -7.20834 -5.23717 0
M  V30 5604 O 933.094 -7.79853 -6.57286 0
M  V30 5605 O 933.664 -7.79239 -4.12957 0
M  V30 5606 O 933.124 -5.63315 -5.29344 0
M  V30 5607 C 932.184 -4.80255 -6.01876 0
M  V30 5608 C 932.914 -3.64202 -6.65911 0
M  V30 5609 O 933.124 -2.60694 -5.64732 0
M  V30 5610 C 934.314 -3.93473 -7.1943 0
M  V30 5611 O 934.704 -3.02071 -8.21205 0
M  V30 5612 C 935.194 -3.73047 -5.97036 0
M  V30 5613 C 934.484 -2.58828 -5.25741 0
M  V30 5614 N 934.534 -2.68068 -3.77503 0
M  V30 5615 C 934.454 -3.79715 -2.96723 0
M  V30 5616 N 934.534 -3.5377 -1.68852 0
M  V30 5617 C 934.674 -2.15054 -1.63254 0
M  V30 5618 C 934.804 -1.28964 -0.518571 0
M  V30 5619 O 934.824 -1.56826 0.679156 0
M  V30 5620 N 934.924 0.0538097 -0.918425 0
M  V30 5621 C 934.924 0.494275 -2.22578 0
M  V30 5622 N 935.054 1.81086 -2.40434 0
M  V30 5623 N 934.794 -0.313645 -3.27502 0
M  V30 5624 C 934.674 -1.61829 -2.91033 0
M  V30 5625 H 931.695 -5.40332 -6.79951 0
M  V30 5626 H 931.425 -4.41613 -5.32378 0
M  V30 5627 H 932.292 -3.26331 -7.47797 0
M  V30 5628 H 934.947 -1.63422 -5.56814 0
M  V30 5629 H 935.226 -4.63374 -5.34244 0
M  V30 5630 H 936.218 -3.44728 -6.25838 0
M  V30 5631 H 934.384 -4.96652 -7.57263 0
M  V30 5632 H 934.335 -4.80617 -3.3614 0
M  V30 5633 H 935.017 0.742702 -0.199384 0
M  V30 5634 H 935.054 2.20598 -3.35588 0
M  V30 5635 H 935.155 2.43518 -1.58945 0
M  V30 5636 P 936.254 -2.75334 -8.47391 0
M  V30 5637 O 936.474 -2.44571 -9.90142 0
M  V30 5638 O 937.044 -3.87688 -7.92115 0
M  V30 5639 O 936.504 -1.4459 -7.59357 0
M  V30 5640 C 935.564 -0.347608 -7.69215 0
M  V30 5641 C 936.294 0.96767 -7.52806 0
M  V30 5642 O 936.504 1.21036 -6.1011 0
M  V30 5643 C 937.694 1.04544 -8.13308 0
M  V30 5644 O 938.084 2.38311 -8.41922 0
M  V30 5645 C 938.574 0.491279 -7.02284 0
M  V30 5646 C 937.864 0.996264 -5.77469 0
M  V30 5647 N 937.914 0.0501916 -4.62973 0
M  V30 5648 H 935.075 -0.374722 -8.67691 0
M  V30 5649 H 934.805 -0.443485 -6.90277 0
M  V30 5650 H 935.672 1.75537 -7.96793 0
M  V30 5651 P 939.634 2.75334 -8.47391 0
M  V30 5652 O 939.854 3.84128 -9.44797 0
M  V30 5653 O 940.424 1.51947 -8.68712 0
M  V30 5654 O 939.884 3.29363 -6.99321 0
M  V30 5655 C 938.944 4.24011 -6.4274 0
M  V30 5656 C 939.674 5.20775 -5.52155 0
M  V30 5657 O 939.884 4.56534 -4.22446 0
M  V30 5658 C 941.074 5.62629 -5.96531 0
M  V30 5659 O 941.464 6.87667 -5.41053 0
M  V30 5660 C 941.954 4.52537 -5.39283 0
M  V30 5661 C 941.244 4.20027 -4.08623 0
M  V30 5662 N 941.294 2.76189 -3.71603 0
M  V30 5663 H 938.455 4.797 -7.24003 0
M  V30 5664 H 938.185 3.69856 -5.84513 0
M  V30 5665 H 939.052 6.10356 -5.41441 0
M  V30 5666 P 943.014 7.20834 -5.23717 0
M  V30 5667 O 943.234 8.66104 -5.38572 0
M  V30 5668 O 943.804 6.33544 -6.1349 0
M  V30 5669 O 943.264 6.7751 -3.72168 0
M  V30 5670 C 942.324 7.20825 -2.7076 0
M  V30 5671 C 943.054 7.45864 -1.40599 0
M  V30 5672 O 943.264 6.17651 -0.734225 0
M  V30 5673 C 944.454 8.05808 -1.51899 0
M  V30 5674 O 944.844 8.74358 -0.335205 0
M  V30 5675 C 945.334 6.83093 -1.70294 0
M  V30 5676 C 944.624 5.79992 -0.836974 0
M  V30 5677 N 944.674 4.41864 -1.38293 0
M  V30 5678 H 941.835 8.13644 -3.0377 0
M  V30 5679 H 941.565 6.42788 -2.55485 0
M  V30 5680 H 942.432 8.12039 -0.792769 0
M  V30 5681 P 946.394 8.91 7.02954e-12 0
M  V30 5682 O 946.614 10.1726 0.733694 0
M  V30 5683 O 947.184 8.73148 -1.23936 0
M  V30 5684 O 946.644 7.66872 0.971405 0
M  V30 5685 C 945.704 7.42309 2.04641 0
M  V30 5686 C 946.434 6.86059 3.24661 0
M  V30 5687 O 946.644 5.42847 3.03646 0
M  V30 5688 C 947.834 7.41196 3.50753 0
M  V30 5689 O 948.224 7.27073 4.86816 0
M  V30 5690 C 948.714 6.5273 2.63741 0
M  V30 5691 C 948.004 5.1842 2.73198 0
M  V30 5692 N 948.054 4.38762 1.4784 0
M  V30 5693 H 945.215 8.36803 2.32493 0
M  V30 5694 H 944.945 6.70197 1.71129 0
M  V30 5695 H 945.812 7.03551 4.13168 0
M  V30 5696 P 949.774 7.20834 5.23717 0
M  V30 5697 O 949.994 7.7993 6.57351 0
M  V30 5698 O 950.564 7.79328 4.13004 0
M  V30 5699 O 950.024 5.63315 5.29344 0
M  V30 5700 C 949.084 4.80193 6.01798 0
M  V30 5701 C 949.814 3.64202 6.65911 0
M  V30 5702 O 950.024 2.60694 5.64732 0
M  V30 5703 C 951.214 3.93473 7.1943 0
M  V30 5704 O 951.604 3.02071 8.21205 0
M  V30 5705 C 952.094 3.73047 5.97036 0
M  V30 5706 C 951.384 2.58828 5.25741 0
M  V30 5707 N 951.434 2.6801 3.77422 0
M  V30 5708 C 951.584 1.50443 3.07133 0
M  V30 5709 O 951.674 0.419406 3.61576 0
M  V30 5710 N 951.624 1.6403 1.69677 0
M  V30 5711 C 951.534 2.81206 0.986255 0
M  V30 5712 O 951.584 2.80892 -0.249754 0
M  V30 5713 C 951.384 3.99158 1.80325 0
M  V30 5714 C 951.274 5.29309 1.06921 0
M  V30 5715 C 951.334 3.89779 3.1476 0
M  V30 5716 H 948.594 5.40332 6.79951 0
M  V30 5717 H 948.325 4.41549 5.32301 0
M  V30 5718 H 949.192 3.26331 7.47797 0
M  V30 5719 H 951.847 1.6395 5.56554 0
M  V30 5720 H 952.126 4.63439 5.3432 0
M  V30 5721 H 953.118 3.44728 6.25838 0
M  V30 5722 H 951.284 4.96652 7.57263 0
M  V30 5723 H 951.213 4.80159 3.74441 0
M  V30 5724 H 952.243 5.81459 1.09608 0
M  V30 5725 H 950.506 5.9187 1.54487 0
M  V30 5726 H 950.994 5.10095 0.0220288 0
M  V30 5727 H 951.73 0.798962 1.16664 0
M  V30 5728 P 953.154 2.75334 8.47391 0
M  V30 5729 O 953.374 2.44571 9.90142 0
M  V30 5730 O 953.944 3.87688 7.92115 0
M  V30 5731 O 953.404 1.4459 7.59357 0
M  V30 5732 C 952.464 0.347608 7.69215 0
M  V30 5733 C 953.194 -0.96767 7.52806 0
M  V30 5734 O 953.404 -1.21036 6.1011 0
M  V30 5735 C 954.594 -1.04544 8.13308 0
M  V30 5736 O 954.984 -2.38311 8.41922 0
M  V30 5737 C 955.474 -0.491279 7.02284 0
M  V30 5738 C 954.764 -0.996264 5.77469 0
M  V30 5739 N 954.814 -0.0501916 4.62973 0
M  V30 5740 H 951.975 0.374722 8.67691 0
M  V30 5741 H 951.705 0.443485 6.90277 0
M  V30 5742 H 952.572 -1.75537 7.96793 0
M  V30 5743 P 956.534 -2.75334 8.47391 0
M  V30 5744 O 956.754 -3.84128 9.44797 0
M  V30 5745 O 957.324 -1.51947 8.68712 0
M  V30 5746 O 956.784 -3.29363 6.99321 0
M  V30 5747 C 955.844 -4.24011 6.4274 0
M  V30 5748 C 956.574 -5.20775 5.52155 0
M  V30 5749 O 956.784 -4.56534 4.22446 0
M  V30 5750 C 957.974 -5.62629 5.96531 0
M  V30 5751 O 958.364 -6.87667 5.41053 0
M  V30 5752 C 958.854 -4.52537 5.39283 0
M  V30 5753 C 958.144 -4.20027 4.08623 0
M  V30 5754 N 958.194 -2.76189 3.71603 0
M  V30 5755 H 955.355 -4.797 7.24003 0
M  V30 5756 H 955.085 -3.69856 5.84513 0
M  V30 5757 H 955.952 -6.10356 5.41441 0
M  V30 5758 P 959.914 -7.20834 5.23717 0
M  V30 5759 O 960.134 -8.66104 5.38572 0
M  V30 5760 O 960.704 -6.33544 6.1349 0
M  V30 5761 O 960.164 -6.7751 3.72168 0
M  V30 5762 C 959.224 -7.20825 2.7076 0
M  V30 5763 C 959.954 -7.45864 1.40599 0
M  V30 5764 O 960.164 -6.17651 0.734225 0
M  V30 5765 C 961.354 -8.05808 1.51899 0
M  V30 5766 O 961.744 -8.74358 0.335205 0
M  V30 5767 C 962.234 -6.83093 1.70294 0
M  V30 5768 C 961.524 -5.79992 0.836974 0
M  V30 5769 N 961.574 -4.41864 1.38293 0
M  V30 5770 H 958.735 -8.13644 3.0377 0
M  V30 5771 H 958.465 -6.42788 2.55485 0
M  V30 5772 H 959.332 -8.12039 0.792769 0
M  V30 5773 P 963.294 -8.91 -7.18673e-12 0
M  V30 5774 O 963.514 -10.1736 -0.733766 0
M  V30 5775 O 964.084 -8.73247 1.2395 0
M  V30 5776 O 963.544 -7.66872 -0.971405 0
M  V30 5777 C 962.604 -7.42212 -2.04614 0
M  V30 5778 C 963.334 -6.86059 -3.24661 0
M  V30 5779 O 963.544 -5.42847 -3.03646 0
M  V30 5780 C 964.734 -7.41196 -3.50753 0
M  V30 5781 O 965.124 -7.27073 -4.86816 0
M  V30 5782 C 965.614 -6.5273 -2.63741 0
M  V30 5783 C 964.904 -5.1842 -2.73198 0
M  V30 5784 N 964.954 -4.38668 -1.47808 0
M  V30 5785 C 965.104 -3.02239 -1.60048 0
M  V30 5786 O 965.194 -2.46459 -2.67869 0
M  V30 5787 N 965.144 -2.32436 -0.408571 0
M  V30 5788 C 965.054 -2.85471 0.854993 0
M  V30 5789 O 965.104 -2.12566 1.8531 0
M  V30 5790 C 964.904 -4.28918 0.887335 0
M  V30 5791 C 964.794 -4.91066 2.24619 0
M  V30 5792 C 964.854 -5.00349 -0.255399 0
M  V30 5793 H 962.114 -8.36803 -2.32493 0
M  V30 5794 H 961.845 -6.701 -1.71105 0
M  V30 5795 H 962.712 -7.03551 -4.13168 0
M  V30 5796 H 965.367 -4.59773 -3.53894 0
M  V30 5797 H 965.646 -6.88995 -1.59871 0
M  V30 5798 H 966.638 -6.46749 -3.03687 0
M  V30 5799 H 964.804 -8.46908 -3.20714 0
M  V30 5800 H 964.733 -6.08548 -0.206986 0
M  V30 5801 H 965.763 -5.34836 2.53099 0
M  V30 5802 H 964.026 -5.69638 2.2291 0
M  V30 5803 H 964.514 -4.13971 2.98044 0
M  V30 5804 H 965.25 -1.33211 -0.474216 0
M  V30 5805 P 966.674 -7.20834 -5.23717 0
M  V30 5806 O 966.894 -7.7993 -6.57351 0
M  V30 5807 O 967.464 -7.79328 -4.13004 0
M  V30 5808 O 966.924 -5.63315 -5.29344 0
M  V30 5809 C 965.984 -4.80193 -6.01798 0
M  V30 5810 C 966.714 -3.64202 -6.65911 0
M  V30 5811 O 966.924 -2.60694 -5.64732 0
M  V30 5812 C 968.114 -3.93473 -7.1943 0
M  V30 5813 O 968.504 -3.02071 -8.21205 0
M  V30 5814 C 968.994 -3.73047 -5.97036 0
M  V30 5815 C 968.284 -2.58828 -5.25741 0
M  V30 5816 N 968.334 -2.6801 -3.77422 0
M  V30 5817 C 968.484 -1.50443 -3.07133 0
M  V30 5818 O 968.574 -0.419406 -3.61576 0
M  V30 5819 N 968.524 -1.6403 -1.69677 0
M  V30 5820 C 968.434 -2.81206 -0.986255 0
M  V30 5821 O 968.484 -2.80892 0.249754 0
M  V30 5822 C 968.284 -3.99158 -1.80325 0
M  V30 5823 C 968.174 -5.29309 -1.06921 0
M  V30 5824 C 968.234 -3.89779 -3.1476 0
M  V30 5825 H 965.494 -5.40332 -6.79951 0
M  V30 5826 H 965.225 -4.41549 -5.32301 0
M  V30 5827 H 966.092 -3.26331 -7.47797 0
M  V30 5828 H 968.747 -1.6395 -5.56554 0
M  V30 5829 H 969.026 -4.63439 -5.3432 0
M  V30 5830 H 970.018 -3.44728 -6.25838 0
M  V30 5831 H 968.184 -4.96652 -7.57263 0
M  V30 5832 H 968.113 -4.80159 -3.74441 0
M  V30 5833 H 969.143 -5.81459 -1.09608 0
M  V30 5834 H 967.406 -5.9187 -1.54487 0
M  V30 5835 H 967.894 -5.10095 -0.0220288 0
M  V30 5836 H 968.63 -0.798962 -1.16664 0
M  V30 5837 P 970.054 -2.75334 -8.47391 0
M  V30 5838 O 970.274 -2.44571 -9.90142 0
M  V30 5839 O 970.844 -3.87688 -7.92115 0
M  V30 5840 O 970.304 -1.4459 -7.59357 0
M  V30 5841 C 969.364 -0.347608 -7.69215 0
M  V30 5842 C 970.094 0.96767 -7.52806 0
M  V30 5843 O 970.304 1.21036 -6.1011 0
M  V30 5844 C 971.494 1.04544 -8.13308 0
M  V30 5845 O 971.884 2.38311 -8.41922 0
M  V30 5846 C 972.374 0.491279 -7.02284 0
M  V30 5847 C 971.664 0.996264 -5.77469 0
M  V30 5848 N 971.714 0.0501916 -4.62973 0
M  V30 5849 C 971.634 -1.32786 -4.63244 0
M  V30 5850 N 971.714 -1.86957 -3.44545 0
M  V30 5851 C 971.854 -0.780241 -2.58481 0
M  V30 5852 C 971.984 -0.738536 -1.17757 0
M  V30 5853 O 972.004 -1.66794 -0.372349 0
M  V30 5854 N 972.104 0.58337 -0.711393 0
M  V30 5855 C 972.104 1.70816 -1.51017 0
M  V30 5856 N 972.234 2.87826 -0.880757 0
M  V30 5857 N 971.974 1.67126 -2.8339 0
M  V30 5858 C 971.854 0.401421 -3.30572 0
M  V30 5859 H 968.875 -0.374722 -8.67691 0
M  V30 5860 H 968.605 -0.443485 -6.90277 0
M  V30 5861 H 969.472 1.75537 -7.96793 0
M  V30 5862 H 972.127 1.95076 -5.46529 0
M  V30 5863 H 972.406 -0.608565 -7.04577 0
M  V30 5864 H 973.398 0.889672 -7.08939 0
M  V30 5865 H 971.564 0.43308 -9.04564 0
M  V30 5866 H 971.515 -1.91249 -5.54442 0
M  V30 5867 H 972.197 0.718054 0.275244 0
M  V30 5868 H 972.234 3.75721 -1.41832 0
M  V30 5869 H 972.335 2.90436 0.145468 0
M  V30 5870 P 973.434 2.75334 -8.47391 0
M  V30 5871 O 973.654 3.84204 -9.44982 0
M  V30 5872 O 974.224 1.51982 -8.68909 0
M  V30 5873 O 973.684 3.29363 -6.99321 0
M  V30 5874 C 972.744 4.24066 -6.42823 0
M  V30 5875 C 973.474 5.20775 -5.52155 0
M  V30 5876 O 973.684 4.56607 -4.22514 0
M  V30 5877 C 974.874 5.62697 -5.96604 0
M  V30 5878 O 975.264 6.87667 -5.41053 0
M  V30 5879 C 975.754 4.52537 -5.39283 0
M  V30 5880 C 975.044 4.20027 -4.08623 0
M  V30 5881 N 975.094 2.76189 -3.71603 0
M  V30 5882 H 972.256 4.79756 -7.24086 0
M  V30 5883 H 971.984 3.69963 -5.84682 0
M  V30 5884 H 972.852 6.10431 -5.41508 0
M  V30 5885 H 975.507 4.78816 -3.28024 0
M  V30 5886 H 975.787 3.64957 -6.05871 0
M  V30 5887 H 976.778 4.88748 -5.21323 0
M  V30 5888 H 974.944 5.66789 -7.0643 0
M  V30 5889 P 976.814 7.20834 -5.23717 0
M  V30 5890 O 977.034 8.66189 -5.38625 0
M  V30 5891 O 977.604 6.33615 -6.1356 0
M  V30 5892 O 977.064 6.7751 -3.72168 0
M  V30 5893 C 976.124 7.20825 -2.7076 0
M  V30 5894 C 976.854 7.45864 -1.40599 0
M  V30 5895 O 977.064 6.17651 -0.734225 0
M  V30 5896 C 978.254 8.05808 -1.51899 0
M  V30 5897 O 978.644 8.74358 -0.335205 0
M  V30 5898 C 979.134 6.83093 -1.70294 0
M  V30 5899 C 978.424 5.79992 -0.836974 0
M  V30 5900 N 978.474 4.41769 -1.38263 0
M  V30 5901 C 978.624 3.36514 -0.485617 0
M  V30 5902 O 978.714 3.61814 0.724703 0
M  V30 5903 N 978.674 2.00746 -1.14492 0
M  V30 5904 C 978.574 1.85887 -2.27776 0
M  V30 5905 N 978.624 0.600907 -2.69379 0
M  V30 5906 C 978.424 2.92182 -3.22265 0
M  V30 5907 C 978.374 4.18399 -2.71925 0
M  V30 5908 H 975.634 8.1355 -3.03735 0
M  V30 5909 H 975.365 6.42695 -2.55448 0
M  V30 5910 H 976.232 8.12139 -0.792866 0
M  V30 5911 H 978.887 5.80078 0.160615 0
M  V30 5912 H 979.166 6.51379 -2.75643 0
M  V30 5913 H 980.158 7.01734 -1.34462 0
M  V30 5914 H 978.324 8.73674 -2.38337 0
M  V30 5915 H 978.252 5.02669 -3.39718 0
M  V30 5916 H 978.354 2.73001 -4.29239 0
M  V30 5917 H 978.742 -0.162318 -2.01146 0
M  V30 5918 H 978.545 0.387742 -3.69773 0
M  V30 5919 P 980.194 8.91 7.34391e-12 0
M  V30 5920 O 980.414 10.1726 0.733694 0
M  V30 5921 O 980.984 8.73148 -1.23936 0
M  V30 5922 O 980.444 7.66872 0.971405 0
M  V30 5923 C 979.504 7.42309 2.04641 0
M  V30 5924 C 980.234 6.86059 3.24661 0
M  V30 5925 O 980.444 5.42847 3.03646 0
M  V30 5926 C 981.634 7.41196 3.50753 0
M  V30 5927 O 982.024 7.27073 4.86816 0
M  V30 5928 C 982.514 6.5273 2.63741 0
M  V30 5929 C 981.804 5.1842 2.73198 0
M  V30 5930 N 981.854 4.38762 1.4784 0
M  V30 5931 H 979.015 8.36803 2.32493 0
M  V30 5932 H 978.745 6.70197 1.71129 0
M  V30 5933 H 979.612 7.03551 4.13168 0
M  V30 5934 P 983.574 7.20834 5.23717 0
M  V30 5935 O 983.794 7.80006 6.57415 0
M  V30 5936 O 984.364 7.79416 4.13051 0
M  V30 5937 O 983.824 5.63315 5.29344 0
M  V30 5938 C 982.884 4.80318 6.01954 0
M  V30 5939 C 983.614 3.64202 6.65911 0
M  V30 5940 O 983.824 2.60736 5.64823 0
M  V30 5941 C 985.014 3.93521 7.19518 0
M  V30 5942 O 985.404 3.02071 8.21205 0
M  V30 5943 C 985.894 3.73047 5.97036 0
M  V30 5944 C 985.184 2.58828 5.25741 0
M  V30 5945 N 985.234 2.68068 3.77503 0
M  V30 5946 H 982.396 5.40394 6.8003 0
M  V30 5947 H 982.124 4.41741 5.32532 0
M  V30 5948 H 982.992 3.26371 7.47889 0
M  V30 5949 H 985.647 1.64007 5.56746 0
M  V30 5950 H 985.927 4.63439 5.3432 0
M  V30 5951 H 986.918 3.44776 6.25925 0
M  V30 5952 H 985.084 4.96707 7.57347 0
M  V30 5953 P 986.954 2.75334 8.47391 0
M  V30 5954 O 987.174 2.44619 9.90336 0
M  V30 5955 O 987.744 3.87776 7.92294 0
M  V30 5956 O 987.204 1.4459 7.59357 0
M  V30 5957 C 986.264 0.347653 7.69315 0
M  V30 5958 C 986.994 -0.96767 7.52806 0
M  V30 5959 O 987.204 -1.21055 6.10208 0
M  V30 5960 C 988.394 -1.04557 8.13408 0
M  V30 5961 O 988.784 -2.38311 8.41922 0
M  V30 5962 C 989.274 -0.491279 7.02284 0
M  V30 5963 C 988.564 -0.996264 5.77469 0
M  V30 5964 N 988.614 -0.0501916 4.62973 0
M  V30 5965 H 985.776 0.374765 8.67791 0
M  V30 5966 H 985.504 0.443613 6.90476 0
M  V30 5967 H 986.372 -1.75559 7.96891 0
M  V30 5968 H 989.027 -1.94563 5.46818 0
M  V30 5969 H 989.307 0.608651 7.04676 0
M  V30 5970 H 990.298 -0.889796 7.09039 0
M  V30 5971 H 988.464 -0.433128 9.04664 0
M  V30 5972 P 990.334 -2.75334 8.47391 0
M  V30 5973 O 990.554 -3.84128 9.44797 0
M  V30 5974 O 991.124 -1.51947 8.68712 0
M  V30 5975 O 990.584 -3.29363 6.99321 0
M  V30 5976 C 989.644 -4.24011 6.4274 0
M  V30 5977 C 990.374 -5.20775 5.52155 0
M  V30 5978 O 990.584 -4.56534 4.22446 0
M  V30 5979 C 991.774 -5.62629 5.96531 0
M  V30 5980 O 992.164 -6.87667 5.41053 0
M  V30 5981 C 992.654 -4.52537 5.39283 0
M  V30 5982 C 991.944 -4.20027 4.08623 0
M  V30 5983 N 991.994 -2.76189 3.71603 0
M  V30 5984 C 991.914 -1.64862 4.52822 0
M  V30 5985 N 991.994 -0.512671 3.88633 0
M  V30 5986 C 992.134 -0.888083 2.54977 0
M  V30 5987 C 992.264 -0.094668 1.38677 0
M  V30 5988 N 992.384 -0.890102 0.232633 0
M  V30 5989 C 992.384 -2.26958 0.21772 0
M  V30 5990 N 992.514 -2.84626 -0.97925 0
M  V30 5991 N 992.254 -3.0178 1.31033 0
M  V30 5992 C 992.134 -2.26781 2.43843 0
M  V30 5993 H 989.155 -4.797 7.24003 0
M  V30 5994 H 988.885 -3.69856 5.84513 0
M  V30 5995 H 989.752 -6.10356 5.41441 0
M  V30 5996 P 993.714 -7.20834 5.23717 0
M  V30 5997 O 993.934 -8.66104 5.38572 0
M  V30 5998 O 994.504 -6.33544 6.1349 0
M  V30 5999 O 993.964 -6.7751 3.72168 0
M  V30 6000 C 993.024 -7.20825 2.7076 0
M  V30 6001 C 993.754 -7.45864 1.40599 0
M  V30 6002 O 993.964 -6.17651 0.734225 0
M  V30 6003 C 995.154 -8.05808 1.51899 0
M  V30 6004 O 995.544 -8.74358 0.335205 0
M  V30 6005 C 996.034 -6.83093 1.70294 0
M  V30 6006 C 995.324 -5.79992 0.836974 0
M  V30 6007 N 995.374 -4.41864 1.38293 0
M  V30 6008 C 995.294 -3.99538 2.69438 0
M  V30 6009 N 995.374 -2.69909 2.84277 0
M  V30 6010 C 995.514 -2.21719 1.5408 0
M  V30 6011 C 995.644 -0.891712 1.06628 0
M  V30 6012 O 995.664 0.161298 1.70137 0
M  V30 6013 N 995.764 -0.856846 -0.334985 0
M  V30 6014 C 995.764 -1.9641 -1.15789 0
M  V30 6015 N 995.894 -1.72708 -2.46522 0
M  V30 6016 N 995.634 -3.21165 -0.713741 0
M  V30 6017 C 995.514 -3.26797 0.639748 0
M  V30 6018 H 992.535 -8.13644 3.0377 0
M  V30 6019 H 992.265 -6.42788 2.55485 0
M  V30 6020 H 993.132 -8.12039 0.792769 0
M  V30 6021 H 995.787 -5.80061 -0.166416 0
M  V30 6022 H 996.066 -6.51287 2.75604 0
M  V30 6023 H 997.058 -7.01734 1.34462 0
M  V30 6024 H 995.224 -8.73674 2.38337 0
M  V30 6025 H 995.175 -4.68207 3.53221 0
M  V30 6026 H 995.857 0.0398818 -0.767965 0
M  V30 6027 H 995.894 -2.50995 -3.13503 0
M  V30 6028 H 995.995 -0.759148 -2.80716 0
M  V30 6029 P 997.094 -8.91 -7.50109e-12 0
M  V30 6030 O 997.314 -10.1726 -0.733694 0
M  V30 6031 O 997.884 -8.73148 1.23936 0
M  V30 6032 O 997.344 -7.66872 -0.971405 0
M  V30 6033 C 996.404 -7.42309 -2.04641 0
M  V30 6034 C 997.134 -6.86059 -3.24661 0
M  V30 6035 O 997.344 -5.42847 -3.03646 0
M  V30 6036 C 998.534 -7.41196 -3.50753 0
M  V30 6037 O 998.924 -7.27073 -4.86816 0
M  V30 6038 C 999.414 -6.5273 -2.63741 0
M  V30 6039 C 998.704 -5.1842 -2.73198 0
M  V30 6040 N 998.754 -4.38762 -1.4784 0
M  V30 6041 H 995.915 -8.36803 -2.32493 0
M  V30 6042 H 995.645 -6.70197 -1.71129 0
M  V30 6043 H 996.512 -7.03551 -4.13168 0
M  V30 6044 P 1000.47 -7.20834 -5.23717 0
M  V30 6045 O 1000.69 -7.79853 -6.57286 0
M  V30 6046 O 1001.26 -7.79239 -4.12957 0
M  V30 6047 O 1000.72 -5.63315 -5.29344 0
M  V30 6048 C 999.784 -4.80255 -6.01876 0
M  V30 6049 C 1000.51 -3.64202 -6.65911 0
M  V30 6050 O 1000.72 -2.60694 -5.64732 0
M  V30 6051 C 1001.91 -3.93473 -7.1943 0
M  V30 6052 O 1002.3 -3.02071 -8.21205 0
M  V30 6053 C 1002.79 -3.73047 -5.97036 0
M  V30 6054 C 1002.08 -2.58828 -5.25741 0
M  V30 6055 N 1002.13 -2.68068 -3.77503 0
M  V30 6056 H 999.295 -5.40332 -6.79951 0
M  V30 6057 H 999.025 -4.41613 -5.32378 0
M  V30 6058 H 999.892 -3.26331 -7.47797 0
M  V30 6059 P 1003.85 -2.75334 -8.47391 0
M  V30 6060 O 1004.07 -2.44595 -9.90239 0
M  V30 6061 O 1004.64 -3.87732 -7.92204 0
M  V30 6062 O 1004.1 -1.4459 -7.59357 0
M  V30 6063 C 1003.16 -0.347563 -7.69115 0
M  V30 6064 C 1003.89 0.96767 -7.52806 0
M  V30 6065 O 1004.1 1.21036 -6.1011 0
M  V30 6066 C 1005.29 1.04544 -8.13308 0
M  V30 6067 O 1005.68 2.38311 -8.41922 0
M  V30 6068 C 1006.17 0.491279 -7.02284 0
M  V30 6069 C 1005.46 0.996264 -5.77469 0
M  V30 6070 N 1005.51 0.0501808 -4.62873 0
M  V30 6071 C 1005.66 0.588177 -3.36904 0
M  V30 6072 O 1005.75 1.78598 -3.17173 0
M  V30 6073 N 1005.7 -0.329694 -2.33686 0
M  V30 6074 C 1005.61 -1.6953 -2.45079 0
M  V30 6075 C 1005.46 -2.16933 -3.80505 0
M  V30 6076 C 1005.41 -1.30326 -4.83752 0
M  V30 6077 H 1002.67 -0.374722 -8.67691 0
M  V30 6078 H 1002.41 -0.443421 -6.90177 0
M  V30 6079 H 1003.27 1.75537 -7.96793 0
M  V30 6080 H 1005.93 1.94496 -5.46629 0
M  V30 6081 H 1006.21 -0.608651 -7.04676 0
M  V30 6082 H 1007.2 0.889672 -7.08939 0
M  V30 6083 H 1005.36 0.43308 -9.04564 0
M  V30 6084 H 1005.29 -1.68366 -5.8516 0
M  V30 6085 P 1007.23 2.75334 -8.47391 0
M  V30 6086 O 1007.45 3.84128 -9.44797 0
M  V30 6087 O 1008.02 1.51947 -8.68712 0
M  V30 6088 O 1007.48 3.29363 -6.99321 0
M  V30 6089 C 1006.54 4.24011 -6.4274 0
M  V30 6090 C 1007.27 5.20775 -5.52155 0
M  V30 6091 O 1007.48 4.56534 -4.22446 0
M  V30 6092 C 1008.67 5.62629 -5.96531 0
M  V30 6093 O 1009.06 6.87667 -5.41053 0
M  V30 6094 C 1009.55 4.52537 -5.39283 0
M  V30 6095 C 1008.84 4.20027 -4.08623 0
M  V30 6096 N 1008.89 2.76189 -3.71603 0
M  V30 6097 H 1006.06 4.797 -7.24003 0
M  V30 6098 H 1005.79 3.69856 -5.84513 0
M  V30 6099 H 1006.65 6.10356 -5.41441 0
M  V30 6100 P 1010.61 7.20834 -5.23717 0
M  V30 6101 O 1010.83 8.66274 -5.38678 0
M  V30 6102 O 1011.4 6.33687 -6.13629 0
M  V30 6103 O 1010.86 6.7751 -3.72168 0
M  V30 6104 C 1009.92 7.20919 -2.70795 0
M  V30 6105 C 1010.65 7.45864 -1.40599 0
M  V30 6106 O 1010.86 6.17751 -0.734343 0
M  V30 6107 C 1012.05 8.05906 -1.51917 0
M  V30 6108 O 1012.44 8.74358 -0.335205 0
M  V30 6109 C 1012.93 6.83093 -1.70294 0
M  V30 6110 C 1012.22 5.79992 -0.836974 0
M  V30 6111 N 1012.27 4.41864 -1.38293 0
M  V30 6112 C 1012.19 4.02089 -2.69407 0
M  V30 6113 N 1012.26 2.73403 -2.85089 0
M  V30 6114 C 1012.41 2.25086 -1.5642 0
M  V30 6115 C 1012.54 0.942887 -1.04836 0
M  V30 6116 N 1012.55 -0.150999 -1.80369 0
M  V30 6117 N 1012.66 0.812565 0.28167 0
M  V30 6118 C 1012.65 1.90572 1.03784 0
M  V30 6119 N 1012.53 3.167 0.683905 0
M  V30 6120 C 1012.41 3.26538 -0.652815 0
M  V30 6121 H 1009.44 8.13738 -3.03804 0
M  V30 6122 H 1009.16 6.42974 -2.55559 0
M  V30 6123 H 1010.03 8.12139 -0.792866 0
M  V30 6124 H 1012.69 5.80178 0.160643 0
M  V30 6125 H 1012.97 6.51379 -2.75643 0
M  V30 6126 H 1013.96 7.01832 -1.3448 0
M  V30 6127 H 1012.12 8.73771 -2.38364 0
M  V30 6128 H 1012.08 4.7189 -3.52311 0
M  V30 6129 H 1012.46 -0.0721434 -2.82608 0
M  V30 6130 H 1012.65 -1.0785 -1.36544 0
M  V30 6131 H 1012.76 1.73207 2.10241 0
M  V30 6132 P 1013.99 8.91 7.65827e-12 0
M  V30 6133 O 1014.21 10.1736 0.733766 0
M  V30 6134 O 1014.78 8.73247 -1.2395 0
M  V30 6135 O 1014.24 7.66872 0.971405 0
M  V30 6136 C 1013.3 7.42212 2.04614 0
M  V30 6137 C 1014.03 6.86059 3.24661 0
M  V30 6138 O 1014.24 5.42847 3.03646 0
M  V30 6139 C 1015.43 7.41196 3.50753 0
M  V30 6140 O 1015.82 7.27073 4.86816 0
M  V30 6141 C 1016.31 6.5273 2.63741 0
M  V30 6142 C 1015.6 5.1842 2.73198 0
M  V30 6143 N 1015.65 4.38668 1.47808 0
M  V30 6144 C 1015.8 3.02239 1.60048 0
M  V30 6145 O 1015.89 2.46459 2.67869 0
M  V30 6146 N 1015.84 2.32436 0.408571 0
M  V30 6147 C 1015.75 2.85471 -0.854993 0
M  V30 6148 O 1015.8 2.12566 -1.8531 0
M  V30 6149 C 1015.6 4.28918 -0.887335 0
M  V30 6150 C 1015.49 4.91066 -2.24619 0
M  V30 6151 C 1015.55 5.00349 0.255399 0
M  V30 6152 H 1012.81 8.36803 2.32493 0
M  V30 6153 H 1012.55 6.701 1.71105 0
M  V30 6154 H 1013.41 7.03551 4.13168 0
M  V30 6155 H 1016.07 4.59773 3.53894 0
M  V30 6156 H 1016.35 6.88995 1.59871 0
M  V30 6157 H 1017.34 6.46749 3.03687 0
M  V30 6158 H 1015.5 8.46908 3.20714 0
M  V30 6159 H 1015.43 6.08548 0.206986 0
M  V30 6160 H 1016.46 5.34836 -2.53099 0
M  V30 6161 H 1014.73 5.69638 -2.2291 0
M  V30 6162 H 1015.21 4.13971 -2.98044 0
M  V30 6163 H 1015.95 1.33211 0.474216 0
M  V30 6164 P 1017.37 7.20834 5.23717 0
M  V30 6165 O 1017.59 7.79853 6.57286 0
M  V30 6166 O 1018.16 7.79239 4.12957 0
M  V30 6167 O 1017.62 5.63315 5.29344 0
M  V30 6168 C 1016.68 4.80255 6.01876 0
M  V30 6169 C 1017.41 3.64202 6.65911 0
M  V30 6170 O 1017.62 2.60694 5.64732 0
M  V30 6171 C 1018.81 3.93473 7.1943 0
M  V30 6172 O 1019.2 3.02071 8.21205 0
M  V30 6173 C 1019.69 3.73047 5.97036 0
M  V30 6174 C 1018.98 2.58828 5.25741 0
M  V30 6175 N 1019.03 2.68068 3.77503 0
M  V30 6176 H 1016.19 5.40332 6.79951 0
M  V30 6177 H 1015.92 4.41613 5.32378 0
M  V30 6178 H 1016.79 3.26331 7.47797 0
M  V30 6179 P 1020.75 2.75334 8.47391 0
M  V30 6180 O 1020.97 2.44571 9.90142 0
M  V30 6181 O 1021.54 3.87688 7.92115 0
M  V30 6182 O 1021 1.4459 7.59357 0
M  V30 6183 C 1020.06 0.347608 7.69215 0
M  V30 6184 C 1020.79 -0.96767 7.52806 0
M  V30 6185 O 1021 -1.21036 6.1011 0
M  V30 6186 C 1022.19 -1.04544 8.13308 0
M  V30 6187 O 1022.58 -2.38311 8.41922 0
M  V30 6188 C 1023.07 -0.491279 7.02284 0
M  V30 6189 C 1022.36 -0.996264 5.77469 0
M  V30 6190 N 1022.41 -0.0501916 4.62973 0
M  V30 6191 H 1019.57 0.374722 8.67691 0
M  V30 6192 H 1019.3 0.443485 6.90277 0
M  V30 6193 H 1020.17 -1.75537 7.96793 0
M  V30 6194 P 1024.13 -2.75334 8.47391 0
M  V30 6195 O 1024.35 -3.84128 9.44797 0
M  V30 6196 O 1024.92 -1.51947 8.68712 0
M  V30 6197 O 1024.38 -3.29363 6.99321 0
M  V30 6198 C 1023.44 -4.24011 6.4274 0
M  V30 6199 C 1024.17 -5.20775 5.52155 0
M  V30 6200 O 1024.38 -4.56534 4.22446 0
M  V30 6201 C 1025.57 -5.62629 5.96531 0
M  V30 6202 O 1025.96 -6.87667 5.41053 0
M  V30 6203 C 1026.45 -4.52537 5.39283 0
M  V30 6204 C 1025.74 -4.20027 4.08623 0
M  V30 6205 N 1025.79 -2.76189 3.71603 0
M  V30 6206 H 1022.95 -4.797 7.24003 0
M  V30 6207 H 1022.68 -3.69856 5.84513 0
M  V30 6208 H 1023.55 -6.10356 5.41441 0
M  V30 6209 P 1027.51 -7.20834 5.23717 0
M  V30 6210 O 1027.73 -8.66104 5.38572 0
M  V30 6211 O 1028.3 -6.33544 6.1349 0
M  V30 6212 O 1027.76 -6.7751 3.72168 0
M  V30 6213 C 1026.82 -7.20825 2.7076 0
M  V30 6214 C 1027.55 -7.45864 1.40599 0
M  V30 6215 O 1027.76 -6.17651 0.734225 0
M  V30 6216 C 1028.95 -8.05808 1.51899 0
M  V30 6217 O 1029.34 -8.74358 0.335205 0
M  V30 6218 C 1029.83 -6.83093 1.70294 0
M  V30 6219 C 1029.12 -5.79992 0.836974 0
M  V30 6220 N 1029.17 -4.41864 1.38293 0
M  V30 6221 H 1026.33 -8.13644 3.0377 0
M  V30 6222 H 1026.06 -6.42788 2.55485 0
M  V30 6223 H 1026.93 -8.12039 0.792769 0
M  V30 6224 P 1030.89 -8.91 -7.81545e-12 0
M  V30 6225 O 1031.11 -10.1736 -0.733766 0
M  V30 6226 O 1031.68 -8.73247 1.2395 0
M  V30 6227 O 1031.14 -7.66872 -0.971405 0
M  V30 6228 C 1030.2 -7.42212 -2.04614 0
M  V30 6229 C 1030.93 -6.86059 -3.24661 0
M  V30 6230 O 1031.14 -5.42847 -3.03646 0
M  V30 6231 C 1032.33 -7.41196 -3.50753 0
M  V30 6232 O 1032.72 -7.27073 -4.86816 0
M  V30 6233 C 1033.21 -6.5273 -2.63741 0
M  V30 6234 C 1032.5 -5.1842 -2.73198 0
M  V30 6235 N 1032.55 -4.38668 -1.47808 0
M  V30 6236 C 1032.7 -3.02239 -1.60048 0
M  V30 6237 O 1032.79 -2.46459 -2.67869 0
M  V30 6238 N 1032.74 -2.32436 -0.408571 0
M  V30 6239 C 1032.65 -2.85471 0.854993 0
M  V30 6240 C 1032.5 -4.28918 0.887335 0
M  V30 6241 C 1032.45 -5.00349 -0.255399 0
M  V30 6242 H 1029.71 -8.36803 -2.32493 0
M  V30 6243 H 1029.44 -6.701 -1.71105 0
M  V30 6244 H 1030.31 -7.03551 -4.13168 0
M  V30 6245 H 1032.97 -4.59773 -3.53894 0
M  V30 6246 H 1033.25 -6.88995 -1.59871 0
M  V30 6247 H 1034.24 -6.46749 -3.03687 0
M  V30 6248 H 1032.4 -8.46908 -3.20714 0
M  V30 6249 H 1032.33 -6.08548 -0.206986 0
M  V30 6250 P 1034.27 -7.20834 -5.23717 0
M  V30 6251 O 1034.49 -7.79853 -6.57286 0
M  V30 6252 O 1035.06 -7.79239 -4.12957 0
M  V30 6253 O 1034.52 -5.63315 -5.29344 0
M  V30 6254 C 1033.58 -4.80255 -6.01876 0
M  V30 6255 C 1034.31 -3.64202 -6.65911 0
M  V30 6256 O 1034.52 -2.60694 -5.64732 0
M  V30 6257 C 1035.71 -3.93473 -7.1943 0
M  V30 6258 O 1036.1 -3.02071 -8.21205 0
M  V30 6259 C 1036.59 -3.73047 -5.97036 0
M  V30 6260 C 1035.88 -2.58828 -5.25741 0
M  V30 6261 N 1035.93 -2.68068 -3.77503 0
M  V30 6262 H 1033.09 -5.40332 -6.79951 0
M  V30 6263 H 1032.82 -4.41613 -5.32378 0
M  V30 6264 H 1033.69 -3.26331 -7.47797 0
M  V30 6265 P 1037.65 -2.75334 -8.47391 0
M  V30 6266 O 1037.87 -2.44571 -9.90142 0
M  V30 6267 O 1038.44 -3.87688 -7.92115 0
M  V30 6268 O 1037.9 -1.4459 -7.59357 0
M  V30 6269 C 1036.96 -0.347608 -7.69215 0
M  V30 6270 C 1037.69 0.96767 -7.52806 0
M  V30 6271 O 1037.9 1.21036 -6.1011 0
M  V30 6272 C 1039.09 1.04544 -8.13308 0
M  V30 6273 O 1039.48 2.38311 -8.41922 0
M  V30 6274 C 1039.97 0.491279 -7.02284 0
M  V30 6275 C 1039.26 0.996264 -5.77469 0
M  V30 6276 N 1039.31 0.0501916 -4.62973 0
M  V30 6277 H 1036.47 -0.374722 -8.67691 0
M  V30 6278 H 1036.2 -0.443485 -6.90277 0
M  V30 6279 H 1037.07 1.75537 -7.96793 0
M  V30 6280 P 1041.03 2.75334 -8.47391 0
M  V30 6281 O 1041.25 3.84128 -9.44797 0
M  V30 6282 O 1041.82 1.51947 -8.68712 0
M  V30 6283 O 1041.28 3.29363 -6.99321 0
M  V30 6284 C 1040.34 4.24011 -6.4274 0
M  V30 6285 C 1041.07 5.20775 -5.52155 0
M  V30 6286 O 1041.28 4.56534 -4.22446 0
M  V30 6287 C 1042.47 5.62629 -5.96531 0
M  V30 6288 O 1042.86 6.87667 -5.41053 0
M  V30 6289 C 1043.35 4.52537 -5.39283 0
M  V30 6290 C 1042.64 4.20027 -4.08623 0
M  V30 6291 N 1042.69 2.76189 -3.71603 0
M  V30 6292 H 1039.85 4.797 -7.24003 0
M  V30 6293 H 1039.58 3.69856 -5.84513 0
M  V30 6294 H 1040.45 6.10356 -5.41441 0
M  V30 6295 P 1044.41 7.20834 -5.23717 0
M  V30 6296 O 1044.63 8.66104 -5.38572 0
M  V30 6297 O 1045.2 6.33544 -6.1349 0
M  V30 6298 O 1044.66 6.7751 -3.72168 0
M  V30 6299 C 1043.72 7.20825 -2.7076 0
M  V30 6300 C 1044.45 7.45864 -1.40599 0
M  V30 6301 O 1044.66 6.17651 -0.734225 0
M  V30 6302 C 1045.85 8.05808 -1.51899 0
M  V30 6303 O 1046.24 8.74358 -0.335205 0
M  V30 6304 C 1046.73 6.83093 -1.70294 0
M  V30 6305 C 1046.02 5.79992 -0.836974 0
M  V30 6306 N 1046.07 4.41864 -1.38293 0
M  V30 6307 H 1043.23 8.13644 -3.0377 0
M  V30 6308 H 1042.96 6.42788 -2.55485 0
M  V30 6309 H 1043.83 8.12039 -0.792769 0
M  V30 6310 P 1047.79 8.91 7.97264e-12 0
M  V30 6311 O 1048.01 10.1726 0.733694 0
M  V30 6312 O 1048.58 8.73148 -1.23936 0
M  V30 6313 O 1048.04 7.66872 0.971405 0
M  V30 6314 C 1047.1 7.42309 2.04641 0
M  V30 6315 C 1047.83 6.86059 3.24661 0
M  V30 6316 O 1048.04 5.42847 3.03646 0
M  V30 6317 C 1049.23 7.41196 3.50753 0
M  V30 6318 O 1049.62 7.27073 4.86816 0
M  V30 6319 C 1050.11 6.5273 2.63741 0
M  V30 6320 C 1049.4 5.1842 2.73198 0
M  V30 6321 N 1049.45 4.38762 1.4784 0
M  V30 6322 H 1046.61 8.36803 2.32493 0
M  V30 6323 H 1046.34 6.70197 1.71129 0
M  V30 6324 H 1047.21 7.03551 4.13168 0
M  V30 6325 P 1051.17 7.20834 5.23717 0
M  V30 6326 O 1051.39 7.79853 6.57286 0
M  V30 6327 O 1051.96 7.79239 4.12957 0
M  V30 6328 O 1051.42 5.63315 5.29344 0
M  V30 6329 C 1050.48 4.80255 6.01876 0
M  V30 6330 C 1051.21 3.64202 6.65911 0
M  V30 6331 O 1051.42 2.60694 5.64732 0
M  V30 6332 C 1052.61 3.93473 7.1943 0
M  V30 6333 O 1053 3.02071 8.21205 0
M  V30 6334 C 1053.49 3.73047 5.97036 0
M  V30 6335 C 1052.78 2.58828 5.25741 0
M  V30 6336 N 1052.83 2.68068 3.77503 0
M  V30 6337 H 1049.99 5.40332 6.79951 0
M  V30 6338 H 1049.72 4.41613 5.32378 0
M  V30 6339 H 1050.59 3.26331 7.47797 0
M  V30 6340 P 1054.55 2.75334 8.47391 0
M  V30 6341 O 1054.77 2.44571 9.90142 0
M  V30 6342 O 1055.34 3.87688 7.92115 0
M  V30 6343 O 1054.8 1.4459 7.59357 0
M  V30 6344 C 1053.86 0.347608 7.69215 0
M  V30 6345 C 1054.59 -0.96767 7.52806 0
M  V30 6346 O 1054.8 -1.21036 6.1011 0
M  V30 6347 C 1055.99 -1.04544 8.13308 0
M  V30 6348 O 1056.38 -2.38311 8.41922 0
M  V30 6349 C 1056.87 -0.491279 7.02284 0
M  V30 6350 C 1056.16 -0.996264 5.77469 0
M  V30 6351 N 1056.21 -0.0501916 4.62973 0
M  V30 6352 H 1053.37 0.374722 8.67691 0
M  V30 6353 H 1053.1 0.443485 6.90277 0
M  V30 6354 H 1053.97 -1.75537 7.96793 0
M  V30 6355 P 1057.93 -2.75334 8.47391 0
M  V30 6356 O 1058.15 -3.84128 9.44797 0
M  V30 6357 O 1058.72 -1.51947 8.68712 0
M  V30 6358 O 1058.18 -3.29363 6.99321 0
M  V30 6359 C 1057.24 -4.24011 6.4274 0
M  V30 6360 C 1057.97 -5.20775 5.52155 0
M  V30 6361 O 1058.18 -4.56534 4.22446 0
M  V30 6362 C 1059.37 -5.62629 5.96531 0
M  V30 6363 O 1059.76 -6.87667 5.41053 0
M  V30 6364 C 1060.25 -4.52537 5.39283 0
M  V30 6365 C 1059.54 -4.20027 4.08623 0
M  V30 6366 N 1059.59 -2.76189 3.71603 0
M  V30 6367 H 1056.75 -4.797 7.24003 0
M  V30 6368 H 1056.48 -3.69856 5.84513 0
M  V30 6369 H 1057.35 -6.10356 5.41441 0
M  V30 6370 P 1061.31 -7.20834 5.23717 0
M  V30 6371 O 1061.53 -8.66104 5.38572 0
M  V30 6372 O 1062.1 -6.33544 6.1349 0
M  V30 6373 O 1061.56 -6.7751 3.72168 0
M  V30 6374 C 1060.62 -7.20825 2.7076 0
M  V30 6375 C 1061.35 -7.45864 1.40599 0
M  V30 6376 O 1061.56 -6.17651 0.734225 0
M  V30 6377 C 1062.75 -8.05808 1.51899 0
M  V30 6378 O 1063.14 -8.74358 0.335205 0
M  V30 6379 C 1063.63 -6.83093 1.70294 0
M  V30 6380 C 1062.92 -5.79992 0.836974 0
M  V30 6381 N 1062.97 -4.41864 1.38293 0
M  V30 6382 H 1060.13 -8.13644 3.0377 0
M  V30 6383 H 1059.86 -6.42788 2.55485 0
M  V30 6384 H 1060.73 -8.12039 0.792769 0
M  V30 6385 P 1064.69 -8.91 -8.12982e-12 0
M  V30 6386 O 1064.91 -10.1726 -0.733694 0
M  V30 6387 O 1065.48 -8.73148 1.23936 0
M  V30 6388 O 1064.94 -7.66872 -0.971405 0
M  V30 6389 C 1064 -7.42309 -2.04641 0
M  V30 6390 C 1064.73 -6.86059 -3.24661 0
M  V30 6391 O 1064.94 -5.42847 -3.03646 0
M  V30 6392 C 1066.13 -7.41196 -3.50753 0
M  V30 6393 O 1066.52 -7.27073 -4.86816 0
M  V30 6394 C 1067.01 -6.5273 -2.63741 0
M  V30 6395 C 1066.3 -5.1842 -2.73198 0
M  V30 6396 N 1066.35 -4.38762 -1.4784 0
M  V30 6397 C 1066.27 -4.81605 -0.168631 0
M  V30 6398 N 1066.35 -3.85454 0.713363 0
M  V30 6399 C 1066.49 -2.6994 -0.0566958 0
M  V30 6400 C 1066.62 -1.34815 0.338502 0
M  V30 6401 N 1066.74 -0.496304 -0.77465 0
M  V30 6402 C 1066.74 -0.908403 -2.09122 0
M  V30 6403 N 1066.87 0.0517805 -3.00955 0
M  V30 6404 N 1066.61 -2.17875 -2.46519 0
M  V30 6405 C 1066.49 -3.01988 -1.4033 0
M  V30 6406 H 1063.51 -8.36803 -2.32493 0
M  V30 6407 H 1063.24 -6.70197 -1.71129 0
M  V30 6408 H 1064.11 -7.03551 -4.13168 0
M  V30 6409 P 1068.07 -7.20834 -5.23717 0
M  V30 6410 O 1068.29 -7.79853 -6.57286 0
M  V30 6411 O 1068.86 -7.79239 -4.12957 0
M  V30 6412 O 1068.32 -5.63315 -5.29344 0
M  V30 6413 C 1067.38 -4.80255 -6.01876 0
M  V30 6414 C 1068.11 -3.64202 -6.65911 0
M  V30 6415 O 1068.32 -2.60694 -5.64732 0
M  V30 6416 C 1069.51 -3.93473 -7.1943 0
M  V30 6417 O 1069.9 -3.02071 -8.21205 0
M  V30 6418 C 1070.39 -3.73047 -5.97036 0
M  V30 6419 C 1069.68 -2.58828 -5.25741 0
M  V30 6420 N 1069.73 -2.68068 -3.77503 0
M  V30 6421 H 1066.89 -5.40332 -6.79951 0
M  V30 6422 H 1066.62 -4.41613 -5.32378 0
M  V30 6423 H 1067.49 -3.26331 -7.47797 0
M  V30 6424 P 1071.45 -2.75334 -8.47391 0
M  V30 6425 O 1071.67 -2.44619 -9.90336 0
M  V30 6426 O 1072.24 -3.87776 -7.92294 0
M  V30 6427 O 1071.7 -1.4459 -7.59357 0
M  V30 6428 C 1070.76 -0.347653 -7.69315 0
M  V30 6429 C 1071.49 0.96767 -7.52806 0
M  V30 6430 O 1071.7 1.21055 -6.10208 0
M  V30 6431 C 1072.89 1.04557 -8.13408 0
M  V30 6432 O 1073.28 2.38311 -8.41922 0
M  V30 6433 C 1073.77 0.491279 -7.02284 0
M  V30 6434 C 1073.06 0.996264 -5.77469 0
M  V30 6435 N 1073.11 0.0501916 -4.62973 0
M  V30 6436 H 1070.28 -0.374765 -8.67791 0
M  V30 6437 H 1070 -0.443613 -6.90476 0
M  V30 6438 H 1070.87 1.75559 -7.96891 0
M  V30 6439 H 1073.53 1.94563 -5.46818 0
M  V30 6440 H 1073.81 -0.608651 -7.04676 0
M  V30 6441 H 1074.8 0.889796 -7.09039 0
M  V30 6442 H 1072.96 0.433128 -9.04664 0
M  V30 6443 P 1074.83 2.75334 -8.47391 0
M  V30 6444 O 1075.05 3.84128 -9.44797 0
M  V30 6445 O 1075.62 1.51947 -8.68712 0
M  V30 6446 O 1075.08 3.29363 -6.99321 0
M  V30 6447 C 1074.14 4.24011 -6.4274 0
M  V30 6448 C 1074.87 5.20775 -5.52155 0
M  V30 6449 O 1075.08 4.56534 -4.22446 0
M  V30 6450 C 1076.27 5.62629 -5.96531 0
M  V30 6451 O 1076.66 6.87667 -5.41053 0
M  V30 6452 C 1077.15 4.52537 -5.39283 0
M  V30 6453 C 1076.44 4.20027 -4.08623 0
M  V30 6454 N 1076.49 2.76189 -3.71603 0
M  V30 6455 H 1073.65 4.797 -7.24003 0
M  V30 6456 H 1073.38 3.69856 -5.84513 0
M  V30 6457 H 1074.25 6.10356 -5.41441 0
M  V30 6458 P 1078.21 7.20834 -5.23717 0
M  V30 6459 O 1078.43 8.66104 -5.38572 0
M  V30 6460 O 1079 6.33544 -6.1349 0
M  V30 6461 O 1078.46 6.7751 -3.72168 0
M  V30 6462 C 1077.52 7.20825 -2.7076 0
M  V30 6463 C 1078.25 7.45864 -1.40599 0
M  V30 6464 O 1078.46 6.17651 -0.734225 0
M  V30 6465 C 1079.65 8.05808 -1.51899 0
M  V30 6466 O 1080.04 8.74358 -0.335205 0
M  V30 6467 C 1080.53 6.83093 -1.70294 0
M  V30 6468 C 1079.82 5.79992 -0.836974 0
M  V30 6469 N 1079.87 4.41864 -1.38293 0
M  V30 6470 H 1077.03 8.13644 -3.0377 0
M  V30 6471 H 1076.76 6.42788 -2.55485 0
M  V30 6472 H 1077.63 8.12039 -0.792769 0
M  V30 6473 P 1081.59 8.91 8.287e-12 0
M  V30 6474 O 1081.81 10.1726 0.733694 0
M  V30 6475 O 1082.38 8.73148 -1.23936 0
M  V30 6476 O 1081.84 7.66872 0.971405 0
M  V30 6477 C 1080.9 7.42309 2.04641 0
M  V30 6478 C 1081.63 6.86059 3.24661 0
M  V30 6479 O 1081.84 5.42847 3.03646 0
M  V30 6480 C 1083.03 7.41196 3.50753 0
M  V30 6481 O 1083.42 7.27073 4.86816 0
M  V30 6482 C 1083.91 6.5273 2.63741 0
M  V30 6483 C 1083.2 5.1842 2.73198 0
M  V30 6484 N 1083.25 4.38762 1.4784 0
M  V30 6485 H 1080.41 8.36803 2.32493 0
M  V30 6486 H 1080.14 6.70197 1.71129 0
M  V30 6487 H 1081.01 7.03551 4.13168 0
M  V30 6488 P 1084.97 7.20834 5.23717 0
M  V30 6489 O 1085.19 7.79853 6.57286 0
M  V30 6490 O 1085.76 7.79239 4.12957 0
M  V30 6491 O 1085.22 5.63315 5.29344 0
M  V30 6492 C 1084.28 4.80255 6.01876 0
M  V30 6493 C 1085.01 3.64202 6.65911 0
M  V30 6494 O 1085.22 2.60694 5.64732 0
M  V30 6495 C 1086.41 3.93473 7.1943 0
M  V30 6496 O 1086.8 3.02071 8.21205 0
M  V30 6497 C 1087.29 3.73047 5.97036 0
M  V30 6498 C 1086.58 2.58828 5.25741 0
M  V30 6499 N 1086.63 2.68068 3.77503 0
M  V30 6500 C 1086.55 3.79715 2.96723 0
M  V30 6501 N 1086.63 3.5377 1.68852 0
M  V30 6502 C 1086.77 2.15054 1.63254 0
M  V30 6503 C 1086.9 1.28964 0.518571 0
M  V30 6504 O 1086.92 1.56826 -0.679156 0
M  V30 6505 N 1087.02 -0.0538097 0.918425 0
M  V30 6506 C 1087.02 -0.494275 2.22578 0
M  V30 6507 N 1087.15 -1.81086 2.40434 0
M  V30 6508 N 1086.89 0.313645 3.27502 0
M  V30 6509 C 1086.77 1.61829 2.91033 0
M  V30 6510 H 1083.79 5.40332 6.79951 0
M  V30 6511 H 1083.52 4.41613 5.32378 0
M  V30 6512 H 1084.39 3.26331 7.47797 0
M  V30 6513 H 1087.05 1.63422 5.56814 0
M  V30 6514 H 1087.33 4.63374 5.34244 0
M  V30 6515 H 1088.32 3.44728 6.25838 0
M  V30 6516 H 1086.48 4.96652 7.57263 0
M  V30 6517 H 1086.43 4.80617 3.3614 0
M  V30 6518 H 1087.12 -0.742702 0.199384 0
M  V30 6519 H 1087.15 -2.20598 3.35588 0
M  V30 6520 H 1087.25 -2.43518 1.58945 0
M  V30 6521 P 1088.35 2.75334 8.47391 0
M  V30 6522 O 1088.57 2.44571 9.90142 0
M  V30 6523 O 1089.14 3.87688 7.92115 0
M  V30 6524 O 1088.6 1.4459 7.59357 0
M  V30 6525 C 1087.66 0.347608 7.69215 0
M  V30 6526 C 1088.39 -0.96767 7.52806 0
M  V30 6527 O 1088.6 -1.21036 6.1011 0
M  V30 6528 C 1089.79 -1.04544 8.13308 0
M  V30 6529 O 1090.18 -2.38311 8.41922 0
M  V30 6530 C 1090.67 -0.491279 7.02284 0
M  V30 6531 C 1089.96 -0.996264 5.77469 0
M  V30 6532 N 1090.01 -0.0501916 4.62973 0
M  V30 6533 H 1087.17 0.374722 8.67691 0
M  V30 6534 H 1086.9 0.443485 6.90277 0
M  V30 6535 H 1087.77 -1.75537 7.96793 0
M  V30 6536 P 1091.73 -2.75334 8.47391 0
M  V30 6537 O 1091.95 -3.84128 9.44797 0
M  V30 6538 O 1092.52 -1.51947 8.68712 0
M  V30 6539 O 1091.98 -3.29363 6.99321 0
M  V30 6540 C 1091.04 -4.24011 6.4274 0
M  V30 6541 C 1091.77 -5.20775 5.52155 0
M  V30 6542 O 1091.98 -4.56534 4.22446 0
M  V30 6543 C 1093.17 -5.62629 5.96531 0
M  V30 6544 O 1093.56 -6.87667 5.41053 0
M  V30 6545 C 1094.05 -4.52537 5.39283 0
M  V30 6546 C 1093.34 -4.20027 4.08623 0
M  V30 6547 N 1093.39 -2.76189 3.71603 0
M  V30 6548 H 1090.55 -4.797 7.24003 0
M  V30 6549 H 1090.28 -3.69856 5.84513 0
M  V30 6550 H 1091.15 -6.10356 5.41441 0
M  V30 6551 P 1095.11 -7.20834 5.23717 0
M  V30 6552 O 1095.33 -8.66104 5.38572 0
M  V30 6553 O 1095.9 -6.33544 6.1349 0
M  V30 6554 O 1095.36 -6.7751 3.72168 0
M  V30 6555 C 1094.42 -7.20825 2.7076 0
M  V30 6556 C 1095.15 -7.45864 1.40599 0
M  V30 6557 O 1095.36 -6.17651 0.734225 0
M  V30 6558 C 1096.55 -8.05808 1.51899 0
M  V30 6559 O 1096.94 -8.74358 0.335205 0
M  V30 6560 C 1097.43 -6.83093 1.70294 0
M  V30 6561 C 1096.72 -5.79992 0.836974 0
M  V30 6562 N 1096.77 -4.41864 1.38293 0
M  V30 6563 C 1096.69 -3.99538 2.69438 0
M  V30 6564 N 1096.77 -2.69909 2.84277 0
M  V30 6565 C 1096.91 -2.21719 1.5408 0
M  V30 6566 C 1097.04 -0.891712 1.06628 0
M  V30 6567 O 1097.06 0.161298 1.70137 0
M  V30 6568 N 1097.16 -0.856846 -0.334985 0
M  V30 6569 C 1097.16 -1.9641 -1.15789 0
M  V30 6570 N 1097.29 -1.72708 -2.46522 0
M  V30 6571 N 1097.03 -3.21165 -0.713741 0
M  V30 6572 C 1096.91 -3.26797 0.639748 0
M  V30 6573 H 1093.93 -8.13644 3.0377 0
M  V30 6574 H 1093.66 -6.42788 2.55485 0
M  V30 6575 H 1094.53 -8.12039 0.792769 0
M  V30 6576 H 1097.19 -5.80061 -0.166416 0
M  V30 6577 H 1097.47 -6.51287 2.75604 0
M  V30 6578 H 1098.46 -7.01734 1.34462 0
M  V30 6579 H 1096.62 -8.73674 2.38337 0
M  V30 6580 H 1096.57 -4.68207 3.53221 0
M  V30 6581 H 1097.26 0.0398818 -0.767965 0
M  V30 6582 H 1097.29 -2.50995 -3.13503 0
M  V30 6583 H 1097.39 -0.759148 -2.80716 0
M  V30 6584 P 1098.49 -8.91 -8.44418e-12 0
M  V30 6585 O 1098.71 -10.1726 -0.733694 0
M  V30 6586 O 1099.28 -8.73148 1.23936 0
M  V30 6587 O 1098.74 -7.66872 -0.971405 0
M  V30 6588 C 1097.8 -7.42309 -2.04641 0
M  V30 6589 C 1098.53 -6.86059 -3.24661 0
M  V30 6590 O 1098.74 -5.42847 -3.03646 0
M  V30 6591 C 1099.93 -7.41196 -3.50753 0
M  V30 6592 O 1100.32 -7.27073 -4.86816 0
M  V30 6593 C 1100.81 -6.5273 -2.63741 0
M  V30 6594 C 1100.1 -5.1842 -2.73198 0
M  V30 6595 N 1100.15 -4.38762 -1.4784 0
M  V30 6596 C 1100.07 -4.81605 -0.168631 0
M  V30 6597 N 1100.15 -3.85454 0.713363 0
M  V30 6598 C 1100.29 -2.6994 -0.0566958 0
M  V30 6599 C 1100.42 -1.34815 0.338502 0
M  V30 6600 N 1100.54 -0.496304 -0.77465 0
M  V30 6601 C 1100.54 -0.908403 -2.09122 0
M  V30 6602 N 1100.67 0.0517805 -3.00955 0
M  V30 6603 N 1100.41 -2.17875 -2.46519 0
M  V30 6604 C 1100.29 -3.01988 -1.4033 0
M  V30 6605 H 1097.31 -8.36803 -2.32493 0
M  V30 6606 H 1097.04 -6.70197 -1.71129 0
M  V30 6607 H 1097.91 -7.03551 -4.13168 0
M  V30 6608 P 1101.87 -7.20834 -5.23717 0
M  V30 6609 O 1102.09 -7.79853 -6.57286 0
M  V30 6610 O 1102.66 -7.79239 -4.12957 0
M  V30 6611 O 1102.12 -5.63315 -5.29344 0
M  V30 6612 C 1101.18 -4.80255 -6.01876 0
M  V30 6613 C 1101.91 -3.64202 -6.65911 0
M  V30 6614 O 1102.12 -2.60694 -5.64732 0
M  V30 6615 C 1103.31 -3.93473 -7.1943 0
M  V30 6616 O 1103.7 -3.02071 -8.21205 0
M  V30 6617 C 1104.19 -3.73047 -5.97036 0
M  V30 6618 C 1103.48 -2.58828 -5.25741 0
M  V30 6619 N 1103.53 -2.68068 -3.77503 0
M  V30 6620 H 1100.69 -5.40332 -6.79951 0
M  V30 6621 H 1100.42 -4.41613 -5.32378 0
M  V30 6622 H 1101.29 -3.26331 -7.47797 0
M  V30 6623 P 1105.25 -2.75334 -8.47391 0
M  V30 6624 O 1105.47 -2.44595 -9.90239 0
M  V30 6625 O 1106.04 -3.87732 -7.92204 0
M  V30 6626 O 1105.5 -1.4459 -7.59357 0
M  V30 6627 C 1104.56 -0.347563 -7.69115 0
M  V30 6628 C 1105.29 0.96767 -7.52806 0
M  V30 6629 O 1105.5 1.21036 -6.1011 0
M  V30 6630 C 1106.69 1.04544 -8.13308 0
M  V30 6631 O 1107.08 2.38311 -8.41922 0
M  V30 6632 C 1107.57 0.491279 -7.02284 0
M  V30 6633 C 1106.86 0.996264 -5.77469 0
M  V30 6634 N 1106.91 0.0501808 -4.62873 0
M  V30 6635 C 1107.06 0.588177 -3.36904 0
M  V30 6636 O 1107.15 1.78598 -3.17173 0
M  V30 6637 N 1107.1 -0.329694 -2.33686 0
M  V30 6638 C 1107.01 -1.6953 -2.45079 0
M  V30 6639 O 1107.06 -2.41926 -1.44899 0
M  V30 6640 C 1106.86 -2.16933 -3.80505 0
M  V30 6641 C 1106.75 -3.65373 -3.97621 0
M  V30 6642 C 1106.81 -1.30326 -4.83752 0
M  V30 6643 H 1104.07 -0.374722 -8.67691 0
M  V30 6644 H 1103.8 -0.443421 -6.90177 0
M  V30 6645 H 1104.67 1.75537 -7.96793 0
M  V30 6646 H 1107.33 1.94496 -5.46629 0
M  V30 6647 H 1107.61 -0.608651 -7.04676 0
M  V30 6648 H 1108.6 0.889672 -7.08939 0
M  V30 6649 H 1106.76 0.43308 -9.04564 0
M  V30 6650 H 1106.69 -1.68366 -5.8516 0
M  V30 6651 H 1107.72 -4.05985 -4.30448 0
M  V30 6652 H 1105.99 -3.88028 -4.72875 0
M  V30 6653 H 1106.47 -4.11381 -3.01609 0
M  V30 6654 H 1107.21 0.0393617 -1.41345 0
M  V30 6655 P 1108.63 2.75334 -8.47391 0
M  V30 6656 O 1108.85 3.84128 -9.44797 0
M  V30 6657 O 1109.42 1.51947 -8.68712 0
M  V30 6658 O 1108.88 3.29363 -6.99321 0
M  V30 6659 C 1107.94 4.24011 -6.4274 0
M  V30 6660 C 1108.67 5.20775 -5.52155 0
M  V30 6661 O 1108.88 4.56534 -4.22446 0
M  V30 6662 C 1110.07 5.62629 -5.96531 0
M  V30 6663 O 1110.46 6.87667 -5.41053 0
M  V30 6664 C 1110.95 4.52537 -5.39283 0
M  V30 6665 C 1110.24 4.20027 -4.08623 0
M  V30 6666 N 1110.29 2.76189 -3.71603 0
M  V30 6667 C 1110.21 1.64862 -4.52822 0
M  V30 6668 N 1110.29 0.512671 -3.88633 0
M  V30 6669 C 1110.43 0.888083 -2.54977 0
M  V30 6670 C 1110.56 0.094668 -1.38677 0
M  V30 6671 O 1110.58 -1.13053 -1.28163 0
M  V30 6672 N 1110.68 0.890102 -0.232633 0
M  V30 6673 C 1110.68 2.26958 -0.21772 0
M  V30 6674 N 1110.81 2.84626 0.97925 0
M  V30 6675 N 1110.55 3.0178 -1.31033 0
M  V30 6676 C 1110.43 2.26781 -2.43843 0
M  V30 6677 H 1107.45 4.797 -7.24003 0
M  V30 6678 H 1107.18 3.69856 -5.84513 0
M  V30 6679 H 1108.05 6.10356 -5.41441 0
M  V30 6680 H 1110.71 4.79061 -3.27488 0
M  V30 6681 H 1110.99 3.64906 -6.05785 0
M  V30 6682 H 1111.98 4.8868 -5.2125 0
M  V30 6683 H 1110.14 5.66726 -7.06352 0
M  V30 6684 H 1110.09 1.71169 -5.60966 0
M  V30 6685 H 1110.78 0.419134 0.644739 0
M  V30 6686 H 1110.81 3.87332 1.06098 0
M  V30 6687 H 1110.91 2.26417 1.82483 0
M  V30 6688 P 1112.01 7.20834 -5.23717 0
M  V30 6689 O 1112.23 8.66104 -5.38572 0
M  V30 6690 O 1112.8 6.33544 -6.1349 0
M  V30 6691 O 1112.26 6.7751 -3.72168 0
M  V30 6692 C 1111.32 7.20825 -2.7076 0
M  V30 6693 C 1112.05 7.45864 -1.40599 0
M  V30 6694 O 1112.26 6.17651 -0.734225 0
M  V30 6695 C 1113.45 8.05808 -1.51899 0
M  V30 6696 O 1113.84 8.74358 -0.335205 0
M  V30 6697 C 1114.33 6.83093 -1.70294 0
M  V30 6698 C 1113.62 5.79992 -0.836974 0
M  V30 6699 N 1113.67 4.41864 -1.38293 0
M  V30 6700 H 1110.83 8.13644 -3.0377 0
M  V30 6701 H 1110.56 6.42788 -2.55485 0
M  V30 6702 H 1111.43 8.12039 -0.792769 0
M  V30 6703 P 1115.39 8.91 8.60137e-12 0
M  V30 6704 O 1115.61 10.1746 0.733838 0
M  V30 6705 O 1116.18 8.73346 -1.23964 0
M  V30 6706 O 1115.64 7.66872 0.971405 0
M  V30 6707 C 1114.7 7.42405 2.04668 0
M  V30 6708 C 1115.43 6.86059 3.24661 0
M  V30 6709 O 1115.64 5.42934 3.03695 0
M  V30 6710 C 1116.83 7.41287 3.50796 0
M  V30 6711 O 1117.22 7.27073 4.86816 0
M  V30 6712 C 1117.71 6.5273 2.63741 0
M  V30 6713 C 1117 5.1842 2.73198 0
M  V30 6714 N 1117.05 4.38762 1.4784 0
M  V30 6715 C 1116.97 4.83651 0.183876 0
M  V30 6716 N 1117.04 3.88759 -0.699393 0
M  V30 6717 C 1117.19 2.7404 0.0575568 0
M  V30 6718 C 1117.32 1.37902 -0.293928 0
M  V30 6719 N 1117.33 0.938021 -1.54797 0
M  V30 6720 N 1117.44 0.491817 0.70549 0
M  V30 6721 C 1117.43 0.931735 1.95979 0
M  V30 6722 N 1117.31 2.16017 2.41481 0
M  V30 6723 C 1117.19 3.02547 1.39121 0
M  V30 6724 H 1114.22 8.36899 2.3252 0
M  V30 6725 H 1113.94 6.70391 1.71179 0
M  V30 6726 H 1114.81 7.03638 4.13219 0
M  V30 6727 H 1117.47 4.59931 3.54016 0
M  V30 6728 H 1117.75 6.88995 1.59871 0
M  V30 6729 H 1118.74 6.4684 3.0373 0
M  V30 6730 H 1116.9 8.47002 3.20749 0
M  V30 6731 H 1116.86 5.8885 -0.0765548 0
M  V30 6732 H 1117.24 1.60276 -2.32875 0
M  V30 6733 H 1117.43 -0.0699355 -1.73859 0
M  V30 6734 H 1117.54 0.165507 2.71897 0
M  V30 6735 P 1118.77 7.20834 5.23717 0
M  V30 6736 O 1118.99 7.79853 6.57286 0
M  V30 6737 O 1119.56 7.79239 4.12957 0
M  V30 6738 O 1119.02 5.63315 5.29344 0
M  V30 6739 C 1118.08 4.80255 6.01876 0
M  V30 6740 C 1118.81 3.64202 6.65911 0
M  V30 6741 O 1119.02 2.60694 5.64732 0
M  V30 6742 C 1120.21 3.93473 7.1943 0
M  V30 6743 O 1120.6 3.02071 8.21205 0
M  V30 6744 C 1121.09 3.73047 5.97036 0
M  V30 6745 C 1120.38 2.58828 5.25741 0
M  V30 6746 N 1120.43 2.68068 3.77503 0
M  V30 6747 H 1117.59 5.40332 6.79951 0
M  V30 6748 H 1117.32 4.41613 5.32378 0
M  V30 6749 H 1118.19 3.26331 7.47797 0
M  V30 6750 P 1122.15 2.75334 8.47391 0
M  V30 6751 O 1122.37 2.44571 9.90142 0
M  V30 6752 O 1122.94 3.87688 7.92115 0
M  V30 6753 O 1122.4 1.4459 7.59357 0
M  V30 6754 C 1121.46 0.347608 7.69215 0
M  V30 6755 C 1122.19 -0.96767 7.52806 0
M  V30 6756 O 1122.4 -1.21036 6.1011 0
M  V30 6757 C 1123.59 -1.04544 8.13308 0
M  V30 6758 O 1123.98 -2.38311 8.41922 0
M  V30 6759 C 1124.47 -0.491279 7.02284 0
M  V30 6760 C 1123.76 -0.996264 5.77469 0
M  V30 6761 N 1123.81 -0.0501916 4.62973 0
M  V30 6762 H 1120.97 0.374722 8.67691 0
M  V30 6763 H 1120.7 0.443485 6.90277 0
M  V30 6764 H 1121.57 -1.75537 7.96793 0
M  V30 6765 P 1125.53 -2.75334 8.47391 0
M  V30 6766 O 1125.75 -3.84128 9.44797 0
M  V30 6767 O 1126.32 -1.51947 8.68712 0
M  V30 6768 O 1125.78 -3.29363 6.99321 0
M  V30 6769 C 1124.84 -4.24011 6.4274 0
M  V30 6770 C 1125.57 -5.20775 5.52155 0
M  V30 6771 O 1125.78 -4.56534 4.22446 0
M  V30 6772 C 1126.97 -5.62629 5.96531 0
M  V30 6773 O 1127.36 -6.87667 5.41053 0
M  V30 6774 C 1127.85 -4.52537 5.39283 0
M  V30 6775 C 1127.14 -4.20027 4.08623 0
M  V30 6776 N 1127.19 -2.76189 3.71603 0
M  V30 6777 H 1124.35 -4.797 7.24003 0
M  V30 6778 H 1124.08 -3.69856 5.84513 0
M  V30 6779 H 1124.95 -6.10356 5.41441 0
M  V30 6780 P 1128.91 -7.20834 5.23717 0
M  V30 6781 O 1129.13 -8.66104 5.38572 0
M  V30 6782 O 1129.7 -6.33544 6.1349 0
M  V30 6783 O 1129.16 -6.7751 3.72168 0
M  V30 6784 C 1128.22 -7.20825 2.7076 0
M  V30 6785 C 1128.95 -7.45864 1.40599 0
M  V30 6786 O 1129.16 -6.17651 0.734225 0
M  V30 6787 C 1130.35 -8.05808 1.51899 0
M  V30 6788 O 1130.74 -8.74358 0.335205 0
M  V30 6789 C 1131.23 -6.83093 1.70294 0
M  V30 6790 C 1130.52 -5.79992 0.836974 0
M  V30 6791 N 1130.57 -4.41864 1.38293 0
M  V30 6792 H 1127.73 -8.13644 3.0377 0
M  V30 6793 H 1127.46 -6.42788 2.55485 0
M  V30 6794 H 1128.33 -8.12039 0.792769 0
M  V30 6795 P 1132.29 -8.91 -8.75855e-12 0
M  V30 6796 O 1132.51 -10.1746 -0.733838 0
M  V30 6797 O 1133.08 -8.73346 1.23964 0
M  V30 6798 O 1132.54 -7.66872 -0.971405 0
M  V30 6799 C 1131.6 -7.42405 -2.04668 0
M  V30 6800 C 1132.33 -6.86059 -3.24661 0
M  V30 6801 O 1132.54 -5.42934 -3.03695 0
M  V30 6802 C 1133.73 -7.41287 -3.50796 0
M  V30 6803 O 1134.12 -7.27073 -4.86816 0
M  V30 6804 C 1134.61 -6.5273 -2.63741 0
M  V30 6805 C 1133.9 -5.1842 -2.73198 0
M  V30 6806 N 1133.95 -4.38762 -1.4784 0
M  V30 6807 C 1133.87 -4.83651 -0.183876 0
M  V30 6808 N 1133.94 -3.88759 0.699393 0
M  V30 6809 C 1134.09 -2.7404 -0.0575568 0
M  V30 6810 C 1134.22 -1.37902 0.293928 0
M  V30 6811 N 1134.23 -0.938021 1.54797 0
M  V30 6812 N 1134.34 -0.491817 -0.70549 0
M  V30 6813 C 1134.33 -0.931735 -1.95979 0
M  V30 6814 N 1134.21 -2.16017 -2.41481 0
M  V30 6815 C 1134.09 -3.02547 -1.39121 0
M  V30 6816 H 1131.12 -8.36899 -2.3252 0
M  V30 6817 H 1130.84 -6.70391 -1.71179 0
M  V30 6818 H 1131.71 -7.03638 -4.13219 0
M  V30 6819 H 1134.37 -4.59931 -3.54016 0
M  V30 6820 H 1134.65 -6.88995 -1.59871 0
M  V30 6821 H 1135.64 -6.4684 -3.0373 0
M  V30 6822 H 1133.8 -8.47002 -3.20749 0
M  V30 6823 H 1133.76 -5.8885 0.0765548 0
M  V30 6824 H 1134.14 -1.60276 2.32875 0
M  V30 6825 H 1134.33 0.0699355 1.73859 0
M  V30 6826 H 1134.44 -0.165507 -2.71897 0
M  V30 6827 P 1135.67 -7.20834 -5.23717 0
M  V30 6828 O 1135.89 -7.7993 -6.57351 0
M  V30 6829 O 1136.46 -7.79328 -4.13004 0
M  V30 6830 O 1135.92 -5.63315 -5.29344 0
M  V30 6831 C 1134.98 -4.80193 -6.01798 0
M  V30 6832 C 1135.71 -3.64202 -6.65911 0
M  V30 6833 O 1135.92 -2.60694 -5.64732 0
M  V30 6834 C 1137.11 -3.93473 -7.1943 0
M  V30 6835 O 1137.5 -3.02071 -8.21205 0
M  V30 6836 C 1137.99 -3.73047 -5.97036 0
M  V30 6837 C 1137.28 -2.58828 -5.25741 0
M  V30 6838 N 1137.33 -2.6801 -3.77422 0
M  V30 6839 C 1137.48 -1.50443 -3.07133 0
M  V30 6840 O 1137.57 -0.419406 -3.61576 0
M  V30 6841 N 1137.52 -1.6403 -1.69677 0
M  V30 6842 C 1137.43 -2.81206 -0.986255 0
M  V30 6843 O 1137.48 -2.80892 0.249754 0
M  V30 6844 C 1137.28 -3.99158 -1.80325 0
M  V30 6845 C 1137.17 -5.29309 -1.06921 0
M  V30 6846 C 1137.23 -3.89779 -3.1476 0
M  V30 6847 H 1134.49 -5.40332 -6.79951 0
M  V30 6848 H 1134.22 -4.41549 -5.32301 0
M  V30 6849 H 1135.09 -3.26331 -7.47797 0
M  V30 6850 H 1137.75 -1.6395 -5.56554 0
M  V30 6851 H 1138.03 -4.63439 -5.3432 0
M  V30 6852 H 1139.02 -3.44728 -6.25838 0
M  V30 6853 H 1137.18 -4.96652 -7.57263 0
M  V30 6854 H 1137.11 -4.80159 -3.74441 0
M  V30 6855 H 1138.14 -5.81459 -1.09608 0
M  V30 6856 H 1136.41 -5.9187 -1.54487 0
M  V30 6857 H 1136.89 -5.10095 -0.0220288 0
M  V30 6858 H 1137.63 -0.798962 -1.16664 0
M  V30 6859 P 1139.05 -2.75334 -8.47391 0
M  V30 6860 O 1139.27 -2.44619 -9.90336 0
M  V30 6861 O 1139.84 -3.87776 -7.92294 0
M  V30 6862 O 1139.3 -1.4459 -7.59357 0
M  V30 6863 C 1138.36 -0.347653 -7.69315 0
M  V30 6864 C 1139.09 0.96767 -7.52806 0
M  V30 6865 O 1139.3 1.21055 -6.10208 0
M  V30 6866 C 1140.49 1.04557 -8.13408 0
M  V30 6867 O 1140.88 2.38311 -8.41922 0
M  V30 6868 C 1141.37 0.491279 -7.02284 0
M  V30 6869 C 1140.66 0.996264 -5.77469 0
M  V30 6870 N 1140.71 0.0501916 -4.62973 0
M  V30 6871 H 1137.88 -0.374765 -8.67791 0
M  V30 6872 H 1137.6 -0.443613 -6.90476 0
M  V30 6873 H 1138.47 1.75559 -7.96891 0
M  V30 6874 H 1141.13 1.94563 -5.46818 0
M  V30 6875 H 1141.41 -0.608651 -7.04676 0
M  V30 6876 H 1142.4 0.889796 -7.09039 0
M  V30 6877 H 1140.56 0.433128 -9.04664 0
M  V30 6878 P 1142.43 2.75334 -8.47391 0
M  V30 6879 O 1142.65 3.84128 -9.44797 0
M  V30 6880 O 1143.22 1.51947 -8.68712 0
M  V30 6881 O 1142.68 3.29363 -6.99321 0
M  V30 6882 C 1141.74 4.24011 -6.4274 0
M  V30 6883 C 1142.47 5.20775 -5.52155 0
M  V30 6884 O 1142.68 4.56534 -4.22446 0
M  V30 6885 C 1143.87 5.62629 -5.96531 0
M  V30 6886 O 1144.26 6.87667 -5.41053 0
M  V30 6887 C 1144.75 4.52537 -5.39283 0
M  V30 6888 C 1144.04 4.20027 -4.08623 0
M  V30 6889 N 1144.09 2.76189 -3.71603 0
M  V30 6890 H 1141.25 4.797 -7.24003 0
M  V30 6891 H 1140.98 3.69856 -5.84513 0
M  V30 6892 H 1141.85 6.10356 -5.41441 0
M  V30 6893 P 1145.81 7.20834 -5.23717 0
M  V30 6894 O 1146.03 8.66104 -5.38572 0
M  V30 6895 O 1146.6 6.33544 -6.1349 0
M  V30 6896 O 1146.06 6.7751 -3.72168 0
M  V30 6897 C 1145.12 7.20825 -2.7076 0
M  V30 6898 C 1145.85 7.45864 -1.40599 0
M  V30 6899 O 1146.06 6.17651 -0.734225 0
M  V30 6900 C 1147.25 8.05808 -1.51899 0
M  V30 6901 O 1147.64 8.74358 -0.335205 0
M  V30 6902 C 1148.13 6.83093 -1.70294 0
M  V30 6903 C 1147.42 5.79992 -0.836974 0
M  V30 6904 N 1147.47 4.41864 -1.38293 0
M  V30 6905 H 1144.63 8.13644 -3.0377 0
M  V30 6906 H 1144.36 6.42788 -2.55485 0
M  V30 6907 H 1145.23 8.12039 -0.792769 0
M  V30 6908 P 1149.19 8.91 8.91573e-12 0
M  V30 6909 O 1149.41 10.1746 0.733838 0
M  V30 6910 O 1149.98 8.73346 -1.23964 0
M  V30 6911 O 1149.44 7.66872 0.971405 0
M  V30 6912 C 1148.5 7.42405 2.04668 0
M  V30 6913 C 1149.23 6.86059 3.24661 0
M  V30 6914 O 1149.44 5.42934 3.03695 0
M  V30 6915 C 1150.63 7.41287 3.50796 0
M  V30 6916 O 1151.02 7.27073 4.86816 0
M  V30 6917 C 1151.51 6.5273 2.63741 0
M  V30 6918 C 1150.8 5.1842 2.73198 0
M  V30 6919 N 1150.85 4.38762 1.4784 0
M  V30 6920 C 1150.77 4.83651 0.183876 0
M  V30 6921 N 1150.84 3.88759 -0.699393 0
M  V30 6922 C 1150.99 2.7404 0.0575568 0
M  V30 6923 C 1151.12 1.37902 -0.293928 0
M  V30 6924 N 1151.13 0.938021 -1.54797 0
M  V30 6925 N 1151.24 0.491817 0.70549 0
M  V30 6926 C 1151.23 0.931735 1.95979 0
M  V30 6927 N 1151.11 2.16017 2.41481 0
M  V30 6928 C 1150.99 3.02547 1.39121 0
M  V30 6929 H 1148.02 8.36899 2.3252 0
M  V30 6930 H 1147.74 6.70391 1.71179 0
M  V30 6931 H 1148.61 7.03638 4.13219 0
M  V30 6932 H 1151.27 4.59931 3.54016 0
M  V30 6933 H 1151.55 6.88995 1.59871 0
M  V30 6934 H 1152.54 6.4684 3.0373 0
M  V30 6935 H 1150.7 8.47002 3.20749 0
M  V30 6936 H 1150.66 5.8885 -0.0765548 0
M  V30 6937 H 1151.04 1.60276 -2.32875 0
M  V30 6938 H 1151.23 -0.0699355 -1.73859 0
M  V30 6939 H 1151.34 0.165507 2.71897 0
M  V30 6940 P 1152.57 7.20834 5.23717 0
M  V30 6941 O 1152.79 7.79853 6.57286 0
M  V30 6942 O 1153.36 7.79239 4.12957 0
M  V30 6943 O 1152.82 5.63315 5.29344 0
M  V30 6944 C 1151.88 4.80255 6.01876 0
M  V30 6945 C 1152.61 3.64202 6.65911 0
M  V30 6946 O 1152.82 2.60694 5.64732 0
M  V30 6947 C 1154.01 3.93473 7.1943 0
M  V30 6948 O 1154.4 3.02071 8.21205 0
M  V30 6949 C 1154.89 3.73047 5.97036 0
M  V30 6950 C 1154.18 2.58828 5.25741 0
M  V30 6951 N 1154.23 2.68068 3.77503 0
M  V30 6952 H 1151.39 5.40332 6.79951 0
M  V30 6953 H 1151.12 4.41613 5.32378 0
M  V30 6954 H 1151.99 3.26331 7.47797 0
M  V30 6955 P 1155.95 2.75334 8.47391 0
M  V30 6956 O 1156.17 2.44619 9.90336 0
M  V30 6957 O 1156.74 3.87776 7.92294 0
M  V30 6958 O 1156.2 1.4459 7.59357 0
M  V30 6959 C 1155.26 0.347653 7.69315 0
M  V30 6960 C 1155.99 -0.96767 7.52806 0
M  V30 6961 O 1156.2 -1.21055 6.10208 0
M  V30 6962 C 1157.39 -1.04557 8.13408 0
M  V30 6963 O 1157.78 -2.38311 8.41922 0
M  V30 6964 C 1158.27 -0.491279 7.02284 0
M  V30 6965 C 1157.56 -0.996264 5.77469 0
M  V30 6966 N 1157.61 -0.0501916 4.62973 0
M  V30 6967 C 1157.53 1.31969 4.65661 0
M  V30 6968 N 1157.6 1.86649 3.48119 0
M  V30 6969 C 1157.75 0.792089 2.62406 0
M  V30 6970 C 1157.88 0.705684 1.2207 0
M  V30 6971 N 1157.89 1.76207 0.413762 0
M  V30 6972 N 1158 -0.518981 0.685754 0
M  V30 6973 C 1157.99 -1.57595 1.49174 0
M  V30 6974 N 1157.87 -1.62909 2.80066 0
M  V30 6975 C 1157.75 -0.388195 3.3073 0
M  V30 6976 H 1154.78 0.374765 8.67791 0
M  V30 6977 H 1154.5 0.443613 6.90476 0
M  V30 6978 H 1155.37 -1.75559 7.96891 0
M  V30 6979 H 1158.03 -1.94563 5.46818 0
M  V30 6980 H 1158.31 0.608651 7.04676 0
M  V30 6981 H 1159.3 -0.889796 7.09039 0
M  V30 6982 H 1157.46 -0.433128 9.04664 0
M  V30 6983 H 1157.42 1.89246 5.57664 0
M  V30 6984 H 1157.8 2.71005 0.804694 0
M  V30 6985 H 1157.99 1.63189 -0.603768 0
M  V30 6986 H 1158.1 -2.53475 0.997614 0
M  V30 6987 P 1159.33 -2.75334 8.47391 0
M  V30 6988 O 1159.55 -3.84204 9.44982 0
M  V30 6989 O 1160.12 -1.51982 8.68909 0
M  V30 6990 O 1159.58 -3.29363 6.99321 0
M  V30 6991 C 1158.64 -4.24066 6.42823 0
M  V30 6992 C 1159.37 -5.20775 5.52155 0
M  V30 6993 O 1159.58 -4.56607 4.22514 0
M  V30 6994 C 1160.77 -5.62697 5.96604 0
M  V30 6995 O 1161.16 -6.87667 5.41053 0
M  V30 6996 C 1161.65 -4.52537 5.39283 0
M  V30 6997 C 1160.94 -4.20027 4.08623 0
M  V30 6998 N 1160.99 -2.76189 3.71603 0
M  V30 6999 C 1160.91 -1.66944 4.54297 0
M  V30 7000 N 1160.98 -0.536169 3.91344 0
M  V30 7001 C 1161.13 -0.901569 2.58849 0
M  V30 7002 C 1161.26 -0.146599 1.40236 0
M  V30 7003 N 1161.27 1.18234 1.37046 0
M  V30 7004 N 1161.38 -0.822941 0.249738 0
M  V30 7005 C 1161.37 -2.15179 0.280525 0
M  V30 7006 N 1161.25 -2.96414 1.30822 0
M  V30 7007 C 1161.13 -2.25804 2.44748 0
M  V30 7008 H 1158.16 -4.79756 7.24086 0
M  V30 7009 H 1157.88 -3.69963 5.84682 0
M  V30 7010 H 1158.75 -6.10431 5.41508 0
M  V30 7011 H 1161.41 -4.78816 3.28024 0
M  V30 7012 H 1161.69 -3.64957 6.05871 0
M  V30 7013 H 1162.68 -4.88748 5.21323 0
M  V30 7014 H 1160.84 -5.66789 7.0643 0
M  V30 7015 H 1160.8 -1.74684 5.62396 0
M  V30 7016 H 1161.18 1.71949 2.24394 0
M  V30 7017 H 1161.37 1.67511 0.470742 0
M  V30 7018 H 1161.48 -2.63704 -0.6828 0
M  V30 7019 P 1162.71 -7.20834 5.23717 0
M  V30 7020 O 1162.93 -8.66274 5.38678 0
M  V30 7021 O 1163.5 -6.33687 6.13629 0
M  V30 7022 O 1162.96 -6.7751 3.72168 0
M  V30 7023 C 1162.02 -7.20919 2.70795 0
M  V30 7024 C 1162.75 -7.45864 1.40599 0
M  V30 7025 O 1162.96 -6.17751 0.734343 0
M  V30 7026 C 1164.15 -8.05906 1.51917 0
M  V30 7027 O 1164.54 -8.74358 0.335205 0
M  V30 7028 C 1165.03 -6.83093 1.70294 0
M  V30 7029 C 1164.32 -5.79992 0.836974 0
M  V30 7030 N 1164.37 -4.41864 1.38293 0
M  V30 7031 H 1161.54 -8.13738 3.03804 0
M  V30 7032 H 1161.26 -6.42974 2.55559 0
M  V30 7033 H 1162.13 -8.12139 0.792866 0
M  V30 7034 H 1164.79 -5.80178 -0.160643 0
M  V30 7035 H 1165.07 -6.51379 2.75643 0
M  V30 7036 H 1166.06 -7.01832 1.3448 0
M  V30 7037 H 1164.22 -8.73771 2.38364 0
M  V30 7038 P 1166.09 -8.91 -9.07291e-12 0
M  V30 7039 O 1166.31 -10.1726 -0.733694 0
M  V30 7040 O 1166.88 -8.73148 1.23936 0
M  V30 7041 O 1166.34 -7.66872 -0.971405 0
M  V30 7042 C 1165.4 -7.42309 -2.04641 0
M  V30 7043 C 1166.13 -6.86059 -3.24661 0
M  V30 7044 O 1166.34 -5.42847 -3.03646 0
M  V30 7045 C 1167.53 -7.41196 -3.50753 0
M  V30 7046 O 1167.92 -7.27073 -4.86816 0
M  V30 7047 C 1168.41 -6.5273 -2.63741 0
M  V30 7048 C 1167.7 -5.1842 -2.73198 0
M  V30 7049 N 1167.75 -4.38762 -1.4784 0
M  V30 7050 H 1164.91 -8.36803 -2.32493 0
M  V30 7051 H 1164.64 -6.70197 -1.71129 0
M  V30 7052 H 1165.51 -7.03551 -4.13168 0
M  V30 7053 P 1169.47 -7.20834 -5.23717 0
M  V30 7054 O 1169.69 -7.79853 -6.57286 0
M  V30 7055 O 1170.26 -7.79239 -4.12957 0
M  V30 7056 O 1169.72 -5.63315 -5.29344 0
M  V30 7057 C 1168.78 -4.80255 -6.01876 0
M  V30 7058 C 1169.51 -3.64202 -6.65911 0
M  V30 7059 O 1169.72 -2.60694 -5.64732 0
M  V30 7060 C 1170.91 -3.93473 -7.1943 0
M  V30 7061 O 1171.3 -3.02071 -8.21205 0
M  V30 7062 C 1171.79 -3.73047 -5.97036 0
M  V30 7063 C 1171.08 -2.58828 -5.25741 0
M  V30 7064 N 1171.13 -2.68068 -3.77503 0
M  V30 7065 H 1168.29 -5.40332 -6.79951 0
M  V30 7066 H 1168.02 -4.41613 -5.32378 0
M  V30 7067 H 1168.89 -3.26331 -7.47797 0
M  V30 7068 P 1172.85 -2.75334 -8.47391 0
M  V30 7069 O 1173.07 -2.44571 -9.90142 0
M  V30 7070 O 1173.64 -3.87688 -7.92115 0
M  V30 7071 O 1173.1 -1.4459 -7.59357 0
M  V30 7072 C 1172.16 -0.347608 -7.69215 0
M  V30 7073 C 1172.89 0.96767 -7.52806 0
M  V30 7074 O 1173.1 1.21036 -6.1011 0
M  V30 7075 C 1174.29 1.04544 -8.13308 0
M  V30 7076 O 1174.68 2.38311 -8.41922 0
M  V30 7077 C 1175.17 0.491279 -7.02284 0
M  V30 7078 C 1174.46 0.996264 -5.77469 0
M  V30 7079 N 1174.51 0.0501916 -4.62973 0
M  V30 7080 H 1171.67 -0.374722 -8.67691 0
M  V30 7081 H 1171.4 -0.443485 -6.90277 0
M  V30 7082 H 1172.27 1.75537 -7.96793 0
M  V30 7083 P 1176.23 2.75334 -8.47391 0
M  V30 7084 O 1176.45 3.84128 -9.44797 0
M  V30 7085 O 1177.02 1.51947 -8.68712 0
M  V30 7086 O 1176.48 3.29363 -6.99321 0
M  V30 7087 C 1175.54 4.24011 -6.4274 0
M  V30 7088 C 1176.27 5.20775 -5.52155 0
M  V30 7089 O 1176.48 4.56534 -4.22446 0
M  V30 7090 C 1177.67 5.62629 -5.96531 0
M  V30 7091 O 1178.06 6.87667 -5.41053 0
M  V30 7092 C 1178.55 4.52537 -5.39283 0
M  V30 7093 C 1177.84 4.20027 -4.08623 0
M  V30 7094 N 1177.89 2.76189 -3.71603 0
M  V30 7095 C 1177.81 1.64862 -4.52822 0
M  V30 7096 N 1177.89 0.512671 -3.88633 0
M  V30 7097 C 1178.03 0.888083 -2.54977 0
M  V30 7098 C 1178.16 0.094668 -1.38677 0
M  V30 7099 N 1178.28 0.890102 -0.232633 0
M  V30 7100 C 1178.28 2.26958 -0.21772 0
M  V30 7101 N 1178.41 2.84626 0.97925 0
M  V30 7102 N 1178.15 3.0178 -1.31033 0
M  V30 7103 C 1178.03 2.26781 -2.43843 0
M  V30 7104 H 1175.05 4.797 -7.24003 0
M  V30 7105 H 1174.78 3.69856 -5.84513 0
M  V30 7106 H 1175.65 6.10356 -5.41441 0
M  V30 7107 P 1179.61 7.20834 -5.23717 0
M  V30 7108 O 1179.83 8.66274 -5.38678 0
M  V30 7109 O 1180.4 6.33687 -6.13629 0
M  V30 7110 O 1179.86 6.7751 -3.72168 0
M  V30 7111 C 1178.92 7.20919 -2.70795 0
M  V30 7112 C 1179.65 7.45864 -1.40599 0
M  V30 7113 O 1179.86 6.17751 -0.734343 0
M  V30 7114 C 1181.05 8.05906 -1.51917 0
M  V30 7115 O 1181.44 8.74358 -0.335205 0
M  V30 7116 C 1181.93 6.83093 -1.70294 0
M  V30 7117 C 1181.22 5.79992 -0.836974 0
M  V30 7118 N 1181.27 4.41864 -1.38293 0
M  V30 7119 C 1181.19 4.02089 -2.69407 0
M  V30 7120 N 1181.26 2.73403 -2.85089 0
M  V30 7121 C 1181.41 2.25086 -1.5642 0
M  V30 7122 C 1181.54 0.942887 -1.04836 0
M  V30 7123 N 1181.55 -0.150999 -1.80369 0
M  V30 7124 N 1181.66 0.812565 0.28167 0
M  V30 7125 C 1181.65 1.90572 1.03784 0
M  V30 7126 N 1181.53 3.167 0.683905 0
M  V30 7127 C 1181.41 3.26538 -0.652815 0
M  V30 7128 H 1178.44 8.13738 -3.03804 0
M  V30 7129 H 1178.16 6.42974 -2.55559 0
M  V30 7130 H 1179.03 8.12139 -0.792866 0
M  V30 7131 H 1181.69 5.80178 0.160643 0
M  V30 7132 H 1181.97 6.51379 -2.75643 0
M  V30 7133 H 1182.96 7.01832 -1.3448 0
M  V30 7134 H 1181.12 8.73771 -2.38364 0
M  V30 7135 H 1181.08 4.7189 -3.52311 0
M  V30 7136 H 1181.46 -0.0721434 -2.82608 0
M  V30 7137 H 1181.65 -1.0785 -1.36544 0
M  V30 7138 H 1181.76 1.73207 2.10241 0
M  V30 7139 P 1182.99 8.91 9.23009e-12 0
M  V30 7140 O 1183.21 10.1726 0.733694 0
M  V30 7141 O 1183.78 8.73148 -1.23936 0
M  V30 7142 O 1183.24 7.66872 0.971405 0
M  V30 7143 C 1182.3 7.42309 2.04641 0
M  V30 7144 C 1183.03 6.86059 3.24661 0
M  V30 7145 O 1183.24 5.42847 3.03646 0
M  V30 7146 C 1184.43 7.41196 3.50753 0
M  V30 7147 O 1184.82 7.27073 4.86816 0
M  V30 7148 C 1185.31 6.5273 2.63741 0
M  V30 7149 C 1184.6 5.1842 2.73198 0
M  V30 7150 N 1184.65 4.38762 1.4784 0
M  V30 7151 H 1181.81 8.36803 2.32493 0
M  V30 7152 H 1181.54 6.70197 1.71129 0
M  V30 7153 H 1182.41 7.03551 4.13168 0
M  V30 7154 P 1186.37 7.20834 5.23717 0
M  V30 7155 O 1186.59 7.80006 6.57415 0
M  V30 7156 O 1187.16 7.79416 4.13051 0
M  V30 7157 O 1186.62 5.63315 5.29344 0
M  V30 7158 C 1185.68 4.80318 6.01954 0
M  V30 7159 C 1186.41 3.64202 6.65911 0
M  V30 7160 O 1186.62 2.60736 5.64823 0
M  V30 7161 C 1187.81 3.93521 7.19518 0
M  V30 7162 O 1188.2 3.02071 8.21205 0
M  V30 7163 C 1188.69 3.73047 5.97036 0
M  V30 7164 C 1187.98 2.58828 5.25741 0
M  V30 7165 N 1188.03 2.68068 3.77503 0
M  V30 7166 H 1185.19 5.40394 6.8003 0
M  V30 7167 H 1184.92 4.41741 5.32532 0
M  V30 7168 H 1185.79 3.26371 7.47889 0
M  V30 7169 H 1188.45 1.64007 5.56746 0
M  V30 7170 H 1188.73 4.63439 5.3432 0
M  V30 7171 H 1189.72 3.44776 6.25925 0
M  V30 7172 H 1187.88 4.96707 7.57347 0
M  V30 7173 P 1189.75 2.75334 8.47391 0
M  V30 7174 O 1189.97 2.44571 9.90142 0
M  V30 7175 O 1190.54 3.87688 7.92115 0
M  V30 7176 O 1190 1.4459 7.59357 0
M  V30 7177 C 1189.06 0.347608 7.69215 0
M  V30 7178 C 1189.79 -0.96767 7.52806 0
M  V30 7179 O 1190 -1.21036 6.1011 0
M  V30 7180 C 1191.19 -1.04544 8.13308 0
M  V30 7181 O 1191.58 -2.38311 8.41922 0
M  V30 7182 C 1192.07 -0.491279 7.02284 0
M  V30 7183 C 1191.36 -0.996264 5.77469 0
M  V30 7184 N 1191.41 -0.0501916 4.62973 0
M  V30 7185 H 1188.57 0.374722 8.67691 0
M  V30 7186 H 1188.3 0.443485 6.90277 0
M  V30 7187 H 1189.17 -1.75537 7.96793 0
M  V30 7188 P 1193.13 -2.75334 8.47391 0
M  V30 7189 O 1193.35 -3.84204 9.44982 0
M  V30 7190 O 1193.92 -1.51982 8.68909 0
M  V30 7191 O 1193.38 -3.29363 6.99321 0
M  V30 7192 C 1192.44 -4.24066 6.42823 0
M  V30 7193 C 1193.17 -5.20775 5.52155 0
M  V30 7194 O 1193.38 -4.56607 4.22514 0
M  V30 7195 C 1194.57 -5.62697 5.96604 0
M  V30 7196 O 1194.96 -6.87667 5.41053 0
M  V30 7197 C 1195.45 -4.52537 5.39283 0
M  V30 7198 C 1194.74 -4.20027 4.08623 0
M  V30 7199 N 1194.79 -2.76189 3.71603 0
M  V30 7200 H 1191.95 -4.79756 7.24086 0
M  V30 7201 H 1191.68 -3.69963 5.84682 0
M  V30 7202 H 1192.55 -6.10431 5.41508 0
M  V30 7203 H 1195.21 -4.78816 3.28024 0
M  V30 7204 H 1195.49 -3.64957 6.05871 0
M  V30 7205 H 1196.48 -4.88748 5.21323 0
M  V30 7206 H 1194.64 -5.66789 7.0643 0
M  V30 7207 P 1196.51 -7.20834 5.23717 0
M  V30 7208 O 1196.73 -8.66104 5.38572 0
M  V30 7209 O 1197.3 -6.33544 6.1349 0
M  V30 7210 O 1196.76 -6.7751 3.72168 0
M  V30 7211 C 1195.82 -7.20825 2.7076 0
M  V30 7212 C 1196.55 -7.45864 1.40599 0
M  V30 7213 O 1196.76 -6.17651 0.734225 0
M  V30 7214 C 1197.95 -8.05808 1.51899 0
M  V30 7215 O 1198.34 -8.74358 0.335205 0
M  V30 7216 C 1198.83 -6.83093 1.70294 0
M  V30 7217 C 1198.12 -5.79992 0.836974 0
M  V30 7218 N 1198.17 -4.41864 1.38293 0
M  V30 7219 C 1198.09 -3.99538 2.69438 0
M  V30 7220 N 1198.17 -2.69909 2.84277 0
M  V30 7221 C 1198.31 -2.21719 1.5408 0
M  V30 7222 C 1198.44 -0.891712 1.06628 0
M  V30 7223 N 1198.56 -0.856846 -0.334985 0
M  V30 7224 C 1198.56 -1.9641 -1.15789 0
M  V30 7225 N 1198.69 -1.72708 -2.46522 0
M  V30 7226 N 1198.43 -3.21165 -0.713741 0
M  V30 7227 C 1198.31 -3.26797 0.639748 0
M  V30 7228 H 1195.33 -8.13644 3.0377 0
M  V30 7229 H 1195.06 -6.42788 2.55485 0
M  V30 7230 H 1195.93 -8.12039 0.792769 0
M  V30 7231 P 1199.89 -8.91 -9.38728e-12 0
M  V30 7232 O 1200.11 -10.1736 -0.733766 0
M  V30 7233 O 1200.68 -8.73247 1.2395 0
M  V30 7234 O 1200.14 -7.66872 -0.971405 0
M  V30 7235 C 1199.2 -7.42212 -2.04614 0
M  V30 7236 C 1199.93 -6.86059 -3.24661 0
M  V30 7237 O 1200.14 -5.42847 -3.03646 0
M  V30 7238 C 1201.33 -7.41196 -3.50753 0
M  V30 7239 O 1201.72 -7.27073 -4.86816 0
M  V30 7240 C 1202.21 -6.5273 -2.63741 0
M  V30 7241 C 1201.5 -5.1842 -2.73198 0
M  V30 7242 N 1201.55 -4.38668 -1.47808 0
M  V30 7243 C 1201.7 -3.02239 -1.60048 0
M  V30 7244 O 1201.79 -2.46459 -2.67869 0
M  V30 7245 N 1201.74 -2.32436 -0.408571 0
M  V30 7246 C 1201.65 -2.85471 0.854993 0
M  V30 7247 C 1201.5 -4.28918 0.887335 0
M  V30 7248 C 1201.45 -5.00349 -0.255399 0
M  V30 7249 H 1198.71 -8.36803 -2.32493 0
M  V30 7250 H 1198.44 -6.701 -1.71105 0
M  V30 7251 H 1199.31 -7.03551 -4.13168 0
M  V30 7252 H 1201.97 -4.59773 -3.53894 0
M  V30 7253 H 1202.24 -6.88995 -1.59871 0
M  V30 7254 H 1203.24 -6.46749 -3.03687 0
M  V30 7255 H 1201.4 -8.46908 -3.20714 0
M  V30 7256 H 1201.33 -6.08548 -0.206986 0
M  V30 7257 P 1203.27 -7.20834 -5.23717 0
M  V30 7258 O 1203.49 -7.79853 -6.57286 0
M  V30 7259 O 1204.06 -7.79239 -4.12957 0
M  V30 7260 O 1203.52 -5.63315 -5.29344 0
M  V30 7261 C 1202.58 -4.80255 -6.01876 0
M  V30 7262 C 1203.31 -3.64202 -6.65911 0
M  V30 7263 O 1203.52 -2.60694 -5.64732 0
M  V30 7264 C 1204.71 -3.93473 -7.1943 0
M  V30 7265 O 1205.1 -3.02071 -8.21205 0
M  V30 7266 C 1205.59 -3.73047 -5.97036 0
M  V30 7267 C 1204.88 -2.58828 -5.25741 0
M  V30 7268 N 1204.93 -2.68068 -3.77503 0
M  V30 7269 H 1202.09 -5.40332 -6.79951 0
M  V30 7270 H 1201.82 -4.41613 -5.32378 0
M  V30 7271 H 1202.69 -3.26331 -7.47797 0
M  V30 7272 P 1206.65 -2.75334 -8.47391 0
M  V30 7273 O 1206.87 -2.44571 -9.90142 0
M  V30 7274 O 1207.44 -3.87688 -7.92115 0
M  V30 7275 O 1206.9 -1.4459 -7.59357 0
M  V30 7276 C 1205.96 -0.347608 -7.69215 0
M  V30 7277 C 1206.69 0.96767 -7.52806 0
M  V30 7278 O 1206.9 1.21036 -6.1011 0
M  V30 7279 C 1208.09 1.04544 -8.13308 0
M  V30 7280 O 1208.48 2.38311 -8.41922 0
M  V30 7281 C 1208.97 0.491279 -7.02284 0
M  V30 7282 C 1208.26 0.996264 -5.77469 0
M  V30 7283 N 1208.31 0.0501916 -4.62973 0
M  V30 7284 H 1205.47 -0.374722 -8.67691 0
M  V30 7285 H 1205.2 -0.443485 -6.90277 0
M  V30 7286 H 1206.07 1.75537 -7.96793 0
M  V30 7287 P 1210.03 2.75334 -8.47391 0
M  V30 7288 O 1210.25 3.84128 -9.44797 0
M  V30 7289 O 1210.82 1.51947 -8.68712 0
M  V30 7290 O 1210.28 3.29363 -6.99321 0
M  V30 7291 C 1209.34 4.24011 -6.4274 0
M  V30 7292 C 1210.07 5.20775 -5.52155 0
M  V30 7293 O 1210.28 4.56534 -4.22446 0
M  V30 7294 C 1211.47 5.62629 -5.96531 0
M  V30 7295 O 1211.86 6.87667 -5.41053 0
M  V30 7296 C 1212.35 4.52537 -5.39283 0
M  V30 7297 C 1211.64 4.20027 -4.08623 0
M  V30 7298 N 1211.69 2.76189 -3.71603 0
M  V30 7299 H 1208.85 4.797 -7.24003 0
M  V30 7300 H 1208.58 3.69856 -5.84513 0
M  V30 7301 H 1209.45 6.10356 -5.41441 0
M  V30 7302 P 1213.41 7.20834 -5.23717 0
M  V30 7303 O 1213.63 8.66104 -5.38572 0
M  V30 7304 O 1214.2 6.33544 -6.1349 0
M  V30 7305 O 1213.66 6.7751 -3.72168 0
M  V30 7306 C 1212.72 7.20825 -2.7076 0
M  V30 7307 C 1213.45 7.45864 -1.40599 0
M  V30 7308 O 1213.66 6.17651 -0.734225 0
M  V30 7309 C 1214.85 8.05808 -1.51899 0
M  V30 7310 O 1215.24 8.74358 -0.335205 0
M  V30 7311 C 1215.73 6.83093 -1.70294 0
M  V30 7312 C 1215.02 5.79992 -0.836974 0
M  V30 7313 N 1215.07 4.41864 -1.38293 0
M  V30 7314 H 1212.23 8.13644 -3.0377 0
M  V30 7315 H 1211.96 6.42788 -2.55485 0
M  V30 7316 H 1212.83 8.12039 -0.792769 0
M  V30 7317 P 1216.79 8.91 9.54446e-12 0
M  V30 7318 O 1217.01 10.1726 0.733694 0
M  V30 7319 O 1217.58 8.73148 -1.23936 0
M  V30 7320 O 1217.04 7.66872 0.971405 0
M  V30 7321 C 1216.1 7.42309 2.04641 0
M  V30 7322 C 1216.83 6.86059 3.24661 0
M  V30 7323 O 1217.04 5.42847 3.03646 0
M  V30 7324 C 1218.23 7.41196 3.50753 0
M  V30 7325 O 1218.62 7.27073 4.86816 0
M  V30 7326 C 1219.11 6.5273 2.63741 0
M  V30 7327 C 1218.4 5.1842 2.73198 0
M  V30 7328 N 1218.45 4.38762 1.4784 0
M  V30 7329 H 1215.61 8.36803 2.32493 0
M  V30 7330 H 1215.34 6.70197 1.71129 0
M  V30 7331 H 1216.21 7.03551 4.13168 0
M  V30 7332 P 1220.17 7.20834 5.23717 0
M  V30 7333 O 1220.39 7.79853 6.57286 0
M  V30 7334 O 1220.96 7.79239 4.12957 0
M  V30 7335 O 1220.42 5.63315 5.29344 0
M  V30 7336 C 1219.48 4.80255 6.01876 0
M  V30 7337 C 1220.21 3.64202 6.65911 0
M  V30 7338 O 1220.42 2.60694 5.64732 0
M  V30 7339 C 1221.61 3.93473 7.1943 0
M  V30 7340 O 1222 3.02071 8.21205 0
M  V30 7341 C 1222.49 3.73047 5.97036 0
M  V30 7342 C 1221.78 2.58828 5.25741 0
M  V30 7343 N 1221.83 2.68068 3.77503 0
M  V30 7344 H 1218.99 5.40332 6.79951 0
M  V30 7345 H 1218.72 4.41613 5.32378 0
M  V30 7346 H 1219.59 3.26331 7.47797 0
M  V30 7347 P 1223.55 2.75334 8.47391 0
M  V30 7348 O 1223.77 2.44571 9.90142 0
M  V30 7349 O 1224.34 3.87688 7.92115 0
M  V30 7350 O 1223.8 1.4459 7.59357 0
M  V30 7351 C 1222.86 0.347608 7.69215 0
M  V30 7352 C 1223.59 -0.96767 7.52806 0
M  V30 7353 O 1223.8 -1.21036 6.1011 0
M  V30 7354 C 1224.99 -1.04544 8.13308 0
M  V30 7355 O 1225.38 -2.38311 8.41922 0
M  V30 7356 C 1225.87 -0.491279 7.02284 0
M  V30 7357 C 1225.16 -0.996264 5.77469 0
M  V30 7358 N 1225.21 -0.0501916 4.62973 0
M  V30 7359 H 1222.37 0.374722 8.67691 0
M  V30 7360 H 1222.1 0.443485 6.90277 0
M  V30 7361 H 1222.97 -1.75537 7.96793 0
M  V30 7362 P 1226.93 -2.75334 8.47391 0
M  V30 7363 O 1227.15 -3.84166 9.4489 0
M  V30 7364 O 1227.72 -1.51964 8.6881 0
M  V30 7365 O 1227.18 -3.29363 6.99321 0
M  V30 7366 C 1226.24 -4.23956 6.42656 0
M  V30 7367 C 1226.97 -5.20775 5.52155 0
M  V30 7368 O 1227.18 -4.56534 4.22446 0
M  V30 7369 C 1228.37 -5.62629 5.96531 0
M  V30 7370 O 1228.76 -6.87667 5.41053 0
M  V30 7371 C 1229.25 -4.52537 5.39283 0
M  V30 7372 C 1228.54 -4.20027 4.08623 0
M  V30 7373 N 1228.59 -2.7613 3.71522 0
M  V30 7374 C 1228.74 -2.45612 2.37989 0
M  V30 7375 O 1228.83 -3.30919 1.51621 0
M  V30 7376 N 1228.78 -1.10684 2.08435 0
M  V30 7377 C 1228.69 -0.0690084 2.9792 0
M  V30 7378 O 1228.74 1.10553 2.59426 0
M  V30 7379 C 1228.54 -0.481522 4.35345 0
M  V30 7380 C 1228.43 0.618778 5.36443 0
M  V30 7381 C 1228.49 -1.78906 4.67968 0
M  V30 7382 H 1225.75 -4.797 7.24003 0
M  V30 7383 H 1225.48 -3.69802 5.84429 0
M  V30 7384 H 1226.35 -6.10356 5.41441 0
M  V30 7385 H 1229.01 -4.78651 3.27911 0
M  V30 7386 H 1229.28 -3.64957 6.05871 0
M  V30 7387 H 1230.28 -4.8868 5.2125 0
M  V30 7388 H 1228.44 -5.66726 7.06352 0
M  V30 7389 H 1228.37 -2.07737 5.72367 0
M  V30 7390 H 1229.4 0.754375 5.86871 0
M  V30 7391 H 1227.66 0.359721 6.10641 0
M  V30 7392 H 1228.15 1.55533 4.8581 0
M  V30 7393 H 1228.89 -0.862651 1.12037 0
M  V30 7394 P 1230.31 -7.20834 5.23717 0
M  V30 7395 O 1230.53 -8.66189 5.38625 0
M  V30 7396 O 1231.1 -6.33615 6.1356 0
M  V30 7397 O 1230.56 -6.7751 3.72168 0
M  V30 7398 C 1229.62 -7.20732 2.70725 0
M  V30 7399 C 1230.35 -7.45864 1.40599 0
M  V30 7400 O 1230.56 -6.17651 0.734225 0
M  V30 7401 C 1231.75 -8.05808 1.51899 0
M  V30 7402 O 1232.14 -8.74358 0.335205 0
M  V30 7403 C 1232.63 -6.83093 1.70294 0
M  V30 7404 C 1231.92 -5.79992 0.836974 0
M  V30 7405 N 1231.97 -4.41769 1.38263 0
M  V30 7406 C 1232.12 -3.38591 0.481702 0
M  V30 7407 O 1232.21 -3.56839 -0.718452 0
M  V30 7408 N 1232.16 -2.1206 1.03569 0
M  V30 7409 C 1232.07 -1.80696 2.36966 0
M  V30 7410 O 1232.12 -0.630473 2.74862 0
M  V30 7411 C 1231.92 -2.94845 3.23898 0
M  V30 7412 C 1231.81 -2.65253 4.70362 0
M  V30 7413 C 1231.87 -4.19803 2.73435 0
M  V30 7414 H 1229.13 -8.13644 3.0377 0
M  V30 7415 H 1228.86 -6.42695 2.55448 0
M  V30 7416 H 1229.73 -8.12039 0.792769 0
M  V30 7417 H 1232.39 -5.79978 -0.160587 0
M  V30 7418 H 1232.66 -6.51379 2.75643 0
M  V30 7419 H 1233.66 -7.01734 1.34462 0
M  V30 7420 H 1231.82 -8.73674 2.38337 0
M  V30 7421 H 1231.75 -5.04492 3.4095 0
M  V30 7422 H 1232.78 -2.83924 5.1913 0
M  V30 7423 H 1231.04 -3.29824 5.15163 0
M  V30 7424 H 1231.53 -1.59723 4.84449 0
M  V30 7425 H 1232.27 -1.35644 0.399345 0
M  V30 7426 P 1233.69 -8.91 -9.70164e-12 0
M  V30 7427 O 1233.91 -10.1726 -0.733694 0
M  V30 7428 O 1234.48 -8.73148 1.23936 0
M  V30 7429 O 1233.94 -7.66872 -0.971405 0
M  V30 7430 C 1233 -7.42309 -2.04641 0
M  V30 7431 C 1233.73 -6.86059 -3.24661 0
M  V30 7432 O 1233.94 -5.42847 -3.03646 0
M  V30 7433 C 1235.13 -7.41196 -3.50753 0
M  V30 7434 O 1235.52 -7.27073 -4.86816 0
M  V30 7435 C 1236.01 -6.5273 -2.63741 0
M  V30 7436 C 1235.3 -5.1842 -2.73198 0
M  V30 7437 N 1235.35 -4.38762 -1.4784 0
M  V30 7438 C 1235.27 -4.81605 -0.168631 0
M  V30 7439 N 1235.35 -3.85454 0.713363 0
M  V30 7440 C 1235.49 -2.6994 -0.0566958 0
M  V30 7441 C 1235.62 -1.34815 0.338502 0
M  V30 7442 O 1235.64 -0.869548 1.47125 0
M  V30 7443 N 1235.74 -0.496304 -0.77465 0
M  V30 7444 C 1235.74 -0.908403 -2.09122 0
M  V30 7445 N 1235.87 0.0517805 -3.00955 0
M  V30 7446 N 1235.61 -2.17875 -2.46519 0
M  V30 7447 C 1235.49 -3.01988 -1.4033 0
M  V30 7448 H 1232.51 -8.36803 -2.32493 0
M  V30 7449 H 1232.24 -6.70197 -1.71129 0
M  V30 7450 H 1233.11 -7.03551 -4.13168 0
M  V30 7451 H 1235.77 -4.59498 -3.54415 0
M  V30 7452 H 1236.04 -6.88898 -1.59848 0
M  V30 7453 H 1237.04 -6.46749 -3.03687 0
M  V30 7454 H 1235.2 -8.46908 -3.20714 0
M  V30 7455 H 1235.15 -5.86405 0.105564 0
M  V30 7456 H 1235.84 0.483664 -0.597855 0
M  V30 7457 H 1235.87 -0.187865 -4.0116 0
M  V30 7458 H 1235.97 1.03585 -2.71726 0
M  V30 7459 P 1237.07 -7.20834 -5.23717 0
M  V30 7460 O 1237.29 -7.80006 -6.57415 0
M  V30 7461 O 1237.86 -7.79416 -4.13051 0
M  V30 7462 O 1237.32 -5.63315 -5.29344 0
M  V30 7463 C 1236.38 -4.80318 -6.01954 0
M  V30 7464 C 1237.11 -3.64202 -6.65911 0
M  V30 7465 O 1237.32 -2.60736 -5.64823 0
M  V30 7466 C 1238.51 -3.93521 -7.19518 0
M  V30 7467 O 1238.9 -3.02071 -8.21205 0
M  V30 7468 C 1239.39 -3.73047 -5.97036 0
M  V30 7469 C 1238.68 -2.58828 -5.25741 0
M  V30 7470 N 1238.73 -2.68068 -3.77503 0
M  V30 7471 C 1238.65 -3.80474 -2.99159 0
M  V30 7472 N 1238.72 -3.55622 -1.71925 0
M  V30 7473 C 1238.87 -2.1832 -1.65733 0
M  V30 7474 C 1239 -1.28842 -0.572777 0
M  V30 7475 N 1239.01 -1.66875 0.70098 0
M  V30 7476 N 1239.12 0.016788 -0.859836 0
M  V30 7477 C 1239.11 0.398145 -2.13316 0
M  V30 7478 N 1238.99 -0.328224 -3.22333 0
M  V30 7479 C 1238.87 -1.62992 -2.90383 0
M  V30 7480 H 1235.89 -5.40394 -6.8003 0
M  V30 7481 H 1235.62 -4.41741 -5.32532 0
M  V30 7482 H 1236.49 -3.26371 -7.47889 0
M  V30 7483 H 1239.15 -1.64007 -5.56746 0
M  V30 7484 H 1239.43 -4.63439 -5.3432 0
M  V30 7485 H 1240.42 -3.44776 -6.25925 0
M  V30 7486 H 1238.58 -4.96707 -7.57347 0
M  V30 7487 H 1238.54 -4.8089 -3.39924 0
M  V30 7488 H 1238.92 -2.66547 0.941919 0
M  V30 7489 H 1239.11 -0.965341 1.44766 0
M  V30 7490 H 1239.22 1.46427 -2.29697 0
M  V30 7491 P 1240.45 -2.75334 -8.47391 0
M  V30 7492 O 1240.67 -2.44571 -9.90142 0
M  V30 7493 O 1241.24 -3.87688 -7.92115 0
M  V30 7494 O 1240.7 -1.4459 -7.59357 0
M  V30 7495 C 1239.76 -0.347608 -7.69215 0
M  V30 7496 C 1240.49 0.96767 -7.52806 0
M  V30 7497 O 1240.7 1.21036 -6.1011 0
M  V30 7498 C 1241.89 1.04544 -8.13308 0
M  V30 7499 O 1242.28 2.38311 -8.41922 0
M  V30 7500 C 1242.77 0.491279 -7.02284 0
M  V30 7501 C 1242.06 0.996264 -5.77469 0
M  V30 7502 N 1242.11 0.0501916 -4.62973 0
M  V30 7503 H 1239.27 -0.374722 -8.67691 0
M  V30 7504 H 1239 -0.443485 -6.90277 0
M  V30 7505 H 1239.87 1.75537 -7.96793 0
M  V30 7506 P 1243.83 2.75334 -8.47391 0
M  V30 7507 O 1244.05 3.84128 -9.44797 0
M  V30 7508 O 1244.62 1.51947 -8.68712 0
M  V30 7509 O 1244.08 3.29363 -6.99321 0
M  V30 7510 C 1243.14 4.24011 -6.4274 0
M  V30 7511 C 1243.87 5.20775 -5.52155 0
M  V30 7512 O 1244.08 4.56534 -4.22446 0
M  V30 7513 C 1245.27 5.62629 -5.96531 0
M  V30 7514 O 1245.66 6.87667 -5.41053 0
M  V30 7515 C 1246.15 4.52537 -5.39283 0
M  V30 7516 C 1245.44 4.20027 -4.08623 0
M  V30 7517 N 1245.49 2.76189 -3.71603 0
M  V30 7518 H 1242.65 4.797 -7.24003 0
M  V30 7519 H 1242.38 3.69856 -5.84513 0
M  V30 7520 H 1243.25 6.10356 -5.41441 0
M  V30 7521 P 1247.21 7.20834 -5.23717 0
M  V30 7522 O 1247.43 8.66104 -5.38572 0
M  V30 7523 O 1248 6.33544 -6.1349 0
M  V30 7524 O 1247.46 6.7751 -3.72168 0
M  V30 7525 C 1246.52 7.20825 -2.7076 0
M  V30 7526 C 1247.25 7.45864 -1.40599 0
M  V30 7527 O 1247.46 6.17651 -0.734225 0
M  V30 7528 C 1248.65 8.05808 -1.51899 0
M  V30 7529 O 1249.04 8.74358 -0.335205 0
M  V30 7530 C 1249.53 6.83093 -1.70294 0
M  V30 7531 C 1248.82 5.79992 -0.836974 0
M  V30 7532 N 1248.87 4.41864 -1.38293 0
M  V30 7533 C 1248.79 3.99538 -2.69438 0
M  V30 7534 N 1248.87 2.69909 -2.84277 0
M  V30 7535 C 1249.01 2.21719 -1.5408 0
M  V30 7536 C 1249.14 0.891712 -1.06628 0
M  V30 7537 O 1249.16 -0.161298 -1.70137 0
M  V30 7538 N 1249.26 0.856846 0.334985 0
M  V30 7539 C 1249.26 1.9641 1.15789 0
M  V30 7540 N 1249.39 1.72708 2.46522 0
M  V30 7541 N 1249.13 3.21165 0.713741 0
M  V30 7542 C 1249.01 3.26797 -0.639748 0
M  V30 7543 H 1246.03 8.13644 -3.0377 0
M  V30 7544 H 1245.76 6.42788 -2.55485 0
M  V30 7545 H 1246.63 8.12039 -0.792769 0
M  V30 7546 H 1249.29 5.80061 0.166416 0
M  V30 7547 H 1249.56 6.51287 -2.75604 0
M  V30 7548 H 1250.56 7.01734 -1.34462 0
M  V30 7549 H 1248.72 8.73674 -2.38337 0
M  V30 7550 H 1248.67 4.68207 -3.53221 0
M  V30 7551 H 1249.36 -0.0398818 0.767965 0
M  V30 7552 H 1249.39 2.50995 3.13503 0
M  V30 7553 H 1249.49 0.759148 2.80716 0
M  V30 7554 P 1250.59 8.91 9.85882e-12 0
M  V30 7555 O 1250.81 10.1746 0.733838 0
M  V30 7556 O 1251.38 8.73346 -1.23964 0
M  V30 7557 O 1250.84 7.66872 0.971405 0
M  V30 7558 C 1249.9 7.42405 2.04668 0
M  V30 7559 C 1250.63 6.86059 3.24661 0
M  V30 7560 O 1250.84 5.42934 3.03695 0
M  V30 7561 C 1252.03 7.41287 3.50796 0
M  V30 7562 O 1252.42 7.27073 4.86816 0
M  V30 7563 C 1252.91 6.5273 2.63741 0
M  V30 7564 C 1252.2 5.1842 2.73198 0
M  V30 7565 N 1252.25 4.38762 1.4784 0
M  V30 7566 C 1252.17 4.83651 0.183876 0
M  V30 7567 N 1252.24 3.88759 -0.699393 0
M  V30 7568 C 1252.39 2.7404 0.0575568 0
M  V30 7569 C 1252.52 1.37902 -0.293928 0
M  V30 7570 N 1252.53 0.938021 -1.54797 0
M  V30 7571 N 1252.64 0.491817 0.70549 0
M  V30 7572 C 1252.63 0.931735 1.95979 0
M  V30 7573 N 1252.51 2.16017 2.41481 0
M  V30 7574 C 1252.39 3.02547 1.39121 0
M  V30 7575 H 1249.41 8.36899 2.3252 0
M  V30 7576 H 1249.14 6.70391 1.71179 0
M  V30 7577 H 1250.01 7.03638 4.13219 0
M  V30 7578 H 1252.67 4.59931 3.54016 0
M  V30 7579 H 1252.95 6.88995 1.59871 0
M  V30 7580 H 1253.94 6.4684 3.0373 0
M  V30 7581 H 1252.1 8.47002 3.20749 0
M  V30 7582 H 1252.06 5.8885 -0.0765548 0
M  V30 7583 H 1252.44 1.60276 -2.32875 0
M  V30 7584 H 1252.63 -0.0699355 -1.73859 0
M  V30 7585 H 1252.74 0.165507 2.71897 0
M  V30 7586 P 1253.97 7.20834 5.23717 0
M  V30 7587 O 1254.19 7.7993 6.57351 0
M  V30 7588 O 1254.76 7.79328 4.13004 0
M  V30 7589 O 1254.22 5.63315 5.29344 0
M  V30 7590 C 1253.28 4.80193 6.01798 0
M  V30 7591 C 1254.01 3.64202 6.65911 0
M  V30 7592 O 1254.22 2.60694 5.64732 0
M  V30 7593 C 1255.41 3.93473 7.1943 0
M  V30 7594 O 1255.8 3.02071 8.21205 0
M  V30 7595 C 1256.29 3.73047 5.97036 0
M  V30 7596 C 1255.58 2.58828 5.25741 0
M  V30 7597 N 1255.63 2.6801 3.77422 0
M  V30 7598 C 1255.78 1.50443 3.07133 0
M  V30 7599 O 1255.87 0.419406 3.61576 0
M  V30 7600 N 1255.82 1.6403 1.69677 0
M  V30 7601 C 1255.73 2.81206 0.986255 0
M  V30 7602 C 1255.58 3.99158 1.80325 0
M  V30 7603 C 1255.53 3.89779 3.1476 0
M  V30 7604 H 1252.79 5.40332 6.79951 0
M  V30 7605 H 1252.52 4.41549 5.32301 0
M  V30 7606 H 1253.39 3.26331 7.47797 0
M  V30 7607 H 1256.05 1.6395 5.56554 0
M  V30 7608 H 1256.32 4.63439 5.3432 0
M  V30 7609 H 1257.32 3.44728 6.25838 0
M  V30 7610 H 1255.48 4.96652 7.57263 0
M  V30 7611 H 1255.41 4.80159 3.74441 0
M  V30 7612 P 1257.35 2.75334 8.47391 0
M  V30 7613 O 1257.57 2.44571 9.90142 0
M  V30 7614 O 1258.14 3.87688 7.92115 0
M  V30 7615 O 1257.6 1.4459 7.59357 0
M  V30 7616 C 1256.66 0.347608 7.69215 0
M  V30 7617 C 1257.39 -0.96767 7.52806 0
M  V30 7618 O 1257.6 -1.21036 6.1011 0
M  V30 7619 C 1258.79 -1.04544 8.13308 0
M  V30 7620 O 1259.18 -2.38311 8.41922 0
M  V30 7621 C 1259.67 -0.491279 7.02284 0
M  V30 7622 C 1258.96 -0.996264 5.77469 0
M  V30 7623 N 1259.01 -0.0501916 4.62973 0
M  V30 7624 H 1256.17 0.374722 8.67691 0
M  V30 7625 H 1255.9 0.443485 6.90277 0
M  V30 7626 H 1256.77 -1.75537 7.96793 0
M  V30 7627 P 1260.73 -2.75334 8.47391 0
M  V30 7628 O 1260.95 -3.84128 9.44797 0
M  V30 7629 O 1261.52 -1.51947 8.68712 0
M  V30 7630 O 1260.98 -3.29363 6.99321 0
M  V30 7631 C 1260.04 -4.24011 6.4274 0
M  V30 7632 C 1260.77 -5.20775 5.52155 0
M  V30 7633 O 1260.98 -4.56534 4.22446 0
M  V30 7634 C 1262.17 -5.62629 5.96531 0
M  V30 7635 O 1262.56 -6.87667 5.41053 0
M  V30 7636 C 1263.05 -4.52537 5.39283 0
M  V30 7637 C 1262.34 -4.20027 4.08623 0
M  V30 7638 N 1262.39 -2.76189 3.71603 0
M  V30 7639 H 1259.55 -4.797 7.24003 0
M  V30 7640 H 1259.28 -3.69856 5.84513 0
M  V30 7641 H 1260.15 -6.10356 5.41441 0
M  V30 7642 P 1264.11 -7.20834 5.23717 0
M  V30 7643 O 1264.33 -8.66104 5.38572 0
M  V30 7644 O 1264.9 -6.33544 6.1349 0
M  V30 7645 O 1264.36 -6.7751 3.72168 0
M  V30 7646 C 1263.42 -7.20825 2.7076 0
M  V30 7647 C 1264.15 -7.45864 1.40599 0
M  V30 7648 O 1264.36 -6.17651 0.734225 0
M  V30 7649 C 1265.55 -8.05808 1.51899 0
M  V30 7650 O 1265.94 -8.74358 0.335205 0
M  V30 7651 C 1266.43 -6.83093 1.70294 0
M  V30 7652 C 1265.72 -5.79992 0.836974 0
M  V30 7653 N 1265.77 -4.41864 1.38293 0
M  V30 7654 H 1262.93 -8.13644 3.0377 0
M  V30 7655 H 1262.66 -6.42788 2.55485 0
M  V30 7656 H 1263.53 -8.12039 0.792769 0
M  V30 7657 P 1267.49 -8.91 -1.0016e-11 0
M  V30 7658 O 1267.71 -10.1726 -0.733694 0
M  V30 7659 O 1268.28 -8.73148 1.23936 0
M  V30 7660 O 1267.74 -7.66872 -0.971405 0
M  V30 7661 C 1266.8 -7.42309 -2.04641 0
M  V30 7662 C 1267.53 -6.86059 -3.24661 0
M  V30 7663 O 1267.74 -5.42847 -3.03646 0
M  V30 7664 C 1268.93 -7.41196 -3.50753 0
M  V30 7665 O 1269.32 -7.27073 -4.86816 0
M  V30 7666 C 1269.81 -6.5273 -2.63741 0
M  V30 7667 C 1269.1 -5.1842 -2.73198 0
M  V30 7668 N 1269.15 -4.38762 -1.4784 0
M  V30 7669 H 1266.31 -8.36803 -2.32493 0
M  V30 7670 H 1266.04 -6.70197 -1.71129 0
M  V30 7671 H 1266.91 -7.03551 -4.13168 0
M  V30 7672 P 1270.87 -7.20834 -5.23717 0
M  V30 7673 O 1271.09 -7.80006 -6.57415 0
M  V30 7674 O 1271.66 -7.79416 -4.13051 0
M  V30 7675 O 1271.12 -5.63315 -5.29344 0
M  V30 7676 C 1270.18 -4.80318 -6.01954 0
M  V30 7677 C 1270.91 -3.64202 -6.65911 0
M  V30 7678 O 1271.12 -2.60736 -5.64823 0
M  V30 7679 C 1272.31 -3.93521 -7.19518 0
M  V30 7680 O 1272.7 -3.02071 -8.21205 0
M  V30 7681 C 1273.19 -3.73047 -5.97036 0
M  V30 7682 C 1272.48 -2.58828 -5.25741 0
M  V30 7683 N 1272.53 -2.68068 -3.77503 0
M  V30 7684 H 1269.69 -5.40394 -6.8003 0
M  V30 7685 H 1269.42 -4.41741 -5.32532 0
M  V30 7686 H 1270.29 -3.26371 -7.47889 0
M  V30 7687 H 1272.95 -1.64007 -5.56746 0
M  V30 7688 H 1273.23 -4.63439 -5.3432 0
M  V30 7689 H 1274.22 -3.44776 -6.25925 0
M  V30 7690 H 1272.38 -4.96707 -7.57347 0
M  V30 7691 P 1274.25 -2.75334 -8.47391 0
M  V30 7692 O 1274.47 -2.44571 -9.90142 0
M  V30 7693 O 1275.04 -3.87688 -7.92115 0
M  V30 7694 O 1274.5 -1.4459 -7.59357 0
M  V30 7695 C 1273.56 -0.347608 -7.69215 0
M  V30 7696 C 1274.29 0.96767 -7.52806 0
M  V30 7697 O 1274.5 1.21036 -6.1011 0
M  V30 7698 C 1275.69 1.04544 -8.13308 0
M  V30 7699 O 1276.08 2.38311 -8.41922 0
M  V30 7700 C 1276.57 0.491279 -7.02284 0
M  V30 7701 C 1275.86 0.996264 -5.77469 0
M  V30 7702 N 1275.91 0.0501916 -4.62973 0
M  V30 7703 H 1273.07 -0.374722 -8.67691 0
M  V30 7704 H 1272.8 -0.443485 -6.90277 0
M  V30 7705 H 1273.67 1.75537 -7.96793 0
M  V30 7706 P 1277.63 2.75334 -8.47391 0
M  V30 7707 O 1277.85 3.84128 -9.44797 0
M  V30 7708 O 1278.42 1.51947 -8.68712 0
M  V30 7709 O 1277.88 3.29363 -6.99321 0
M  V30 7710 C 1276.94 4.24011 -6.4274 0
M  V30 7711 C 1277.67 5.20775 -5.52155 0
M  V30 7712 O 1277.88 4.56534 -4.22446 0
M  V30 7713 C 1279.07 5.62629 -5.96531 0
M  V30 7714 O 1279.46 6.87667 -5.41053 0
M  V30 7715 C 1279.95 4.52537 -5.39283 0
M  V30 7716 C 1279.24 4.20027 -4.08623 0
M  V30 7717 N 1279.29 2.76189 -3.71603 0
M  V30 7718 C 1279.21 1.64862 -4.52822 0
M  V30 7719 N 1279.29 0.512671 -3.88633 0
M  V30 7720 C 1279.43 0.888083 -2.54977 0
M  V30 7721 C 1279.56 0.094668 -1.38677 0
M  V30 7722 O 1279.58 -1.13053 -1.28163 0
M  V30 7723 N 1279.68 0.890102 -0.232633 0
M  V30 7724 C 1279.68 2.26958 -0.21772 0
M  V30 7725 N 1279.81 2.84626 0.97925 0
M  V30 7726 N 1279.55 3.0178 -1.31033 0
M  V30 7727 C 1279.43 2.26781 -2.43843 0
M  V30 7728 H 1276.45 4.797 -7.24003 0
M  V30 7729 H 1276.18 3.69856 -5.84513 0
M  V30 7730 H 1277.05 6.10356 -5.41441 0
M  V30 7731 H 1279.71 4.79061 -3.27488 0
M  V30 7732 H 1279.98 3.64906 -6.05785 0
M  V30 7733 H 1280.98 4.8868 -5.2125 0
M  V30 7734 H 1279.14 5.66726 -7.06352 0
M  V30 7735 H 1279.09 1.71169 -5.60966 0
M  V30 7736 H 1279.78 0.419134 0.644739 0
M  V30 7737 H 1279.81 3.87332 1.06098 0
M  V30 7738 H 1279.91 2.26417 1.82483 0
M  V30 7739 P 1281.01 7.20834 -5.23717 0
M  V30 7740 O 1281.23 8.66274 -5.38678 0
M  V30 7741 O 1281.8 6.33687 -6.13629 0
M  V30 7742 O 1281.26 6.7751 -3.72168 0
M  V30 7743 C 1280.32 7.20919 -2.70795 0
M  V30 7744 C 1281.05 7.45864 -1.40599 0
M  V30 7745 O 1281.26 6.17751 -0.734343 0
M  V30 7746 C 1282.45 8.05906 -1.51917 0
M  V30 7747 O 1282.84 8.74358 -0.335205 0
M  V30 7748 C 1283.33 6.83093 -1.70294 0
M  V30 7749 C 1282.62 5.79992 -0.836974 0
M  V30 7750 N 1282.67 4.41864 -1.38293 0
M  V30 7751 H 1279.83 8.13738 -3.03804 0
M  V30 7752 H 1279.56 6.42974 -2.55559 0
M  V30 7753 H 1280.43 8.12139 -0.792866 0
M  V30 7754 H 1283.09 5.80178 0.160643 0
M  V30 7755 H 1283.37 6.51379 -2.75643 0
M  V30 7756 H 1284.36 7.01832 -1.3448 0
M  V30 7757 H 1282.52 8.73771 -2.38364 0
M  V30 7758 P 1284.39 8.91 1.01732e-11 0
M  V30 7759 O 1284.61 10.1726 0.733694 0
M  V30 7760 O 1285.18 8.73148 -1.23936 0
M  V30 7761 O 1284.64 7.66872 0.971405 0
M  V30 7762 C 1283.7 7.42309 2.04641 0
M  V30 7763 C 1284.43 6.86059 3.24661 0
M  V30 7764 O 1284.64 5.42847 3.03646 0
M  V30 7765 C 1285.83 7.41196 3.50753 0
M  V30 7766 O 1286.22 7.27073 4.86816 0
M  V30 7767 C 1286.71 6.5273 2.63741 0
M  V30 7768 C 1286 5.1842 2.73198 0
M  V30 7769 N 1286.05 4.38762 1.4784 0
M  V30 7770 C 1285.97 4.81605 0.168631 0
M  V30 7771 N 1286.05 3.85454 -0.713363 0
M  V30 7772 C 1286.19 2.6994 0.0566958 0
M  V30 7773 C 1286.32 1.34815 -0.338502 0
M  V30 7774 O 1286.34 0.869548 -1.47125 0
M  V30 7775 N 1286.44 0.496304 0.77465 0
M  V30 7776 C 1286.44 0.908403 2.09122 0
M  V30 7777 N 1286.57 -0.0517805 3.00955 0
M  V30 7778 N 1286.31 2.17875 2.46519 0
M  V30 7779 C 1286.19 3.01988 1.4033 0
M  V30 7780 H 1283.21 8.36803 2.32493 0
M  V30 7781 H 1282.94 6.70197 1.71129 0
M  V30 7782 H 1283.81 7.03551 4.13168 0
M  V30 7783 H 1286.47 4.59498 3.54415 0
M  V30 7784 H 1286.74 6.88898 1.59848 0
M  V30 7785 H 1287.74 6.46749 3.03687 0
M  V30 7786 H 1285.9 8.46908 3.20714 0
M  V30 7787 H 1285.85 5.86405 -0.105564 0
M  V30 7788 H 1286.54 -0.483664 0.597855 0
M  V30 7789 H 1286.57 0.187865 4.0116 0
M  V30 7790 H 1286.67 -1.03585 2.71726 0
M  V30 7791 P 1287.77 7.20834 5.23717 0
M  V30 7792 O 1287.99 7.79853 6.57286 0
M  V30 7793 O 1288.56 7.79239 4.12957 0
M  V30 7794 O 1288.02 5.63315 5.29344 0
M  V30 7795 C 1287.08 4.80255 6.01876 0
M  V30 7796 C 1287.81 3.64202 6.65911 0
M  V30 7797 O 1288.02 2.60694 5.64732 0
M  V30 7798 C 1289.21 3.93473 7.1943 0
M  V30 7799 O 1289.6 3.02071 8.21205 0
M  V30 7800 C 1290.09 3.73047 5.97036 0
M  V30 7801 C 1289.38 2.58828 5.25741 0
M  V30 7802 N 1289.43 2.68068 3.77503 0
M  V30 7803 H 1286.59 5.40332 6.79951 0
M  V30 7804 H 1286.32 4.41613 5.32378 0
M  V30 7805 H 1287.19 3.26331 7.47797 0
M  V30 7806 P 1291.15 2.75334 8.47391 0
M  V30 7807 O 1291.37 2.44571 9.90142 0
M  V30 7808 O 1291.94 3.87688 7.92115 0
M  V30 7809 O 1291.4 1.4459 7.59357 0
M  V30 7810 C 1290.46 0.347608 7.69215 0
M  V30 7811 C 1291.19 -0.96767 7.52806 0
M  V30 7812 O 1291.4 -1.21036 6.1011 0
M  V30 7813 C 1292.59 -1.04544 8.13308 0
M  V30 7814 O 1292.98 -2.38311 8.41922 0
M  V30 7815 C 1293.47 -0.491279 7.02284 0
M  V30 7816 C 1292.76 -0.996264 5.77469 0
M  V30 7817 N 1292.81 -0.0501916 4.62973 0
M  V30 7818 H 1289.97 0.374722 8.67691 0
M  V30 7819 H 1289.7 0.443485 6.90277 0
M  V30 7820 H 1290.57 -1.75537 7.96793 0
M  V30 7821 P 1294.53 -2.75334 8.47391 0
M  V30 7822 O 1294.75 -3.84204 9.44982 0
M  V30 7823 O 1295.32 -1.51982 8.68909 0
M  V30 7824 O 1294.78 -3.29363 6.99321 0
M  V30 7825 C 1293.84 -4.24066 6.42823 0
M  V30 7826 C 1294.57 -5.20775 5.52155 0
M  V30 7827 O 1294.78 -4.56607 4.22514 0
M  V30 7828 C 1295.97 -5.62697 5.96604 0
M  V30 7829 O 1296.36 -6.87667 5.41053 0
M  V30 7830 C 1296.85 -4.52537 5.39283 0
M  V30 7831 C 1296.14 -4.20027 4.08623 0
M  V30 7832 N 1296.19 -2.76189 3.71603 0
M  V30 7833 C 1296.11 -1.66944 4.54297 0
M  V30 7834 N 1296.18 -0.536169 3.91344 0
M  V30 7835 C 1296.33 -0.901569 2.58849 0
M  V30 7836 C 1296.46 -0.146599 1.40236 0
M  V30 7837 N 1296.47 1.18234 1.37046 0
M  V30 7838 N 1296.58 -0.822941 0.249738 0
M  V30 7839 C 1296.57 -2.15179 0.280525 0
M  V30 7840 N 1296.45 -2.96414 1.30822 0
M  V30 7841 C 1296.33 -2.25804 2.44748 0
M  V30 7842 H 1293.35 -4.79756 7.24086 0
M  V30 7843 H 1293.08 -3.69963 5.84682 0
M  V30 7844 H 1293.95 -6.10431 5.41508 0
M  V30 7845 H 1296.61 -4.78816 3.28024 0
M  V30 7846 H 1296.89 -3.64957 6.05871 0
M  V30 7847 H 1297.88 -4.88748 5.21323 0
M  V30 7848 H 1296.04 -5.66789 7.0643 0
M  V30 7849 H 1296 -1.74684 5.62396 0
M  V30 7850 H 1296.38 1.71949 2.24394 0
M  V30 7851 H 1296.57 1.67511 0.470742 0
M  V30 7852 H 1296.68 -2.63704 -0.6828 0
M  V30 7853 P 1297.91 -7.20834 5.23717 0
M  V30 7854 O 1298.13 -8.66274 5.38678 0
M  V30 7855 O 1298.7 -6.33687 6.13629 0
M  V30 7856 O 1298.16 -6.7751 3.72168 0
M  V30 7857 C 1297.22 -7.20919 2.70795 0
M  V30 7858 C 1297.95 -7.45864 1.40599 0
M  V30 7859 O 1298.16 -6.17751 0.734343 0
M  V30 7860 C 1299.35 -8.05906 1.51917 0
M  V30 7861 O 1299.74 -8.74358 0.335205 0
M  V30 7862 C 1300.23 -6.83093 1.70294 0
M  V30 7863 C 1299.52 -5.79992 0.836974 0
M  V30 7864 N 1299.57 -4.41864 1.38293 0
M  V30 7865 C 1299.49 -4.02089 2.69407 0
M  V30 7866 N 1299.56 -2.73403 2.85089 0
M  V30 7867 C 1299.71 -2.25086 1.5642 0
M  V30 7868 C 1299.84 -0.942887 1.04836 0
M  V30 7869 N 1299.85 0.150999 1.80369 0
M  V30 7870 N 1299.96 -0.812565 -0.28167 0
M  V30 7871 C 1299.95 -1.90572 -1.03784 0
M  V30 7872 N 1299.83 -3.167 -0.683905 0
M  V30 7873 C 1299.71 -3.26538 0.652815 0
M  V30 7874 H 1296.73 -8.13738 3.03804 0
M  V30 7875 H 1296.46 -6.42974 2.55559 0
M  V30 7876 H 1297.33 -8.12139 0.792866 0
M  V30 7877 H 1299.99 -5.80178 -0.160643 0
M  V30 7878 H 1300.27 -6.51379 2.75643 0
M  V30 7879 H 1301.26 -7.01832 1.3448 0
M  V30 7880 H 1299.42 -8.73771 2.38364 0
M  V30 7881 H 1299.38 -4.7189 3.52311 0
M  V30 7882 H 1299.76 0.0721434 2.82608 0
M  V30 7883 H 1299.95 1.0785 1.36544 0
M  V30 7884 H 1300.06 -1.73207 -2.10241 0
M  V30 7885 P 1301.29 -8.91 -1.03304e-11 0
M  V30 7886 O 1301.51 -10.1726 -0.733694 0
M  V30 7887 O 1302.08 -8.73148 1.23936 0
M  V30 7888 O 1301.54 -7.66872 -0.971405 0
M  V30 7889 C 1300.6 -7.42309 -2.04641 0
M  V30 7890 C 1301.33 -6.86059 -3.24661 0
M  V30 7891 O 1301.54 -5.42847 -3.03646 0
M  V30 7892 C 1302.73 -7.41196 -3.50753 0
M  V30 7893 O 1303.12 -7.27073 -4.86816 0
M  V30 7894 C 1303.61 -6.5273 -2.63741 0
M  V30 7895 C 1302.9 -5.1842 -2.73198 0
M  V30 7896 N 1302.95 -4.38762 -1.4784 0
M  V30 7897 H 1300.11 -8.36803 -2.32493 0
M  V30 7898 H 1299.84 -6.70197 -1.71129 0
M  V30 7899 H 1300.71 -7.03551 -4.13168 0
M  V30 7900 P 1304.67 -7.20834 -5.23717 0
M  V30 7901 O 1304.89 -7.80006 -6.57415 0
M  V30 7902 O 1305.46 -7.79416 -4.13051 0
M  V30 7903 O 1304.92 -5.63315 -5.29344 0
M  V30 7904 C 1303.98 -4.80318 -6.01954 0
M  V30 7905 C 1304.71 -3.64202 -6.65911 0
M  V30 7906 O 1304.92 -2.60736 -5.64823 0
M  V30 7907 C 1306.11 -3.93521 -7.19518 0
M  V30 7908 O 1306.5 -3.02071 -8.21205 0
M  V30 7909 C 1306.99 -3.73047 -5.97036 0
M  V30 7910 C 1306.28 -2.58828 -5.25741 0
M  V30 7911 N 1306.33 -2.68068 -3.77503 0
M  V30 7912 C 1306.25 -3.80474 -2.99159 0
M  V30 7913 N 1306.32 -3.55622 -1.71925 0
M  V30 7914 C 1306.47 -2.1832 -1.65733 0
M  V30 7915 C 1306.6 -1.28842 -0.572777 0
M  V30 7916 N 1306.61 -1.66875 0.70098 0
M  V30 7917 N 1306.72 0.016788 -0.859836 0
M  V30 7918 C 1306.71 0.398145 -2.13316 0
M  V30 7919 N 1306.59 -0.328224 -3.22333 0
M  V30 7920 C 1306.47 -1.62992 -2.90383 0
M  V30 7921 H 1303.49 -5.40394 -6.8003 0
M  V30 7922 H 1303.22 -4.41741 -5.32532 0
M  V30 7923 H 1304.09 -3.26371 -7.47889 0
M  V30 7924 H 1306.75 -1.64007 -5.56746 0
M  V30 7925 H 1307.03 -4.63439 -5.3432 0
M  V30 7926 H 1308.02 -3.44776 -6.25925 0
M  V30 7927 H 1306.18 -4.96707 -7.57347 0
M  V30 7928 H 1306.14 -4.8089 -3.39924 0
M  V30 7929 H 1306.52 -2.66547 0.941919 0
M  V30 7930 H 1306.71 -0.965341 1.44766 0
M  V30 7931 H 1306.82 1.46427 -2.29697 0
M  V30 7932 P 1308.05 -2.75334 -8.47391 0
M  V30 7933 O 1308.27 -2.44595 -9.90239 0
M  V30 7934 O 1308.84 -3.87732 -7.92204 0
M  V30 7935 O 1308.3 -1.4459 -7.59357 0
M  V30 7936 C 1307.36 -0.347563 -7.69115 0
M  V30 7937 C 1308.09 0.96767 -7.52806 0
M  V30 7938 O 1308.3 1.21036 -6.1011 0
M  V30 7939 C 1309.49 1.04544 -8.13308 0
M  V30 7940 O 1309.88 2.38311 -8.41922 0
M  V30 7941 C 1310.37 0.491279 -7.02284 0
M  V30 7942 C 1309.66 0.996264 -5.77469 0
M  V30 7943 N 1309.71 0.0501808 -4.62873 0
M  V30 7944 C 1309.86 0.588177 -3.36904 0
M  V30 7945 O 1309.95 1.78598 -3.17173 0
M  V30 7946 N 1309.9 -0.329694 -2.33686 0
M  V30 7947 C 1309.81 -1.6953 -2.45079 0
M  V30 7948 O 1309.86 -2.41926 -1.44899 0
M  V30 7949 C 1309.66 -2.16933 -3.80505 0
M  V30 7950 C 1309.55 -3.65373 -3.97621 0
M  V30 7951 C 1309.61 -1.30326 -4.83752 0
M  V30 7952 H 1306.87 -0.374722 -8.67691 0
M  V30 7953 H 1306.6 -0.443421 -6.90177 0
M  V30 7954 H 1307.47 1.75537 -7.96793 0
M  V30 7955 H 1310.13 1.94496 -5.46629 0
M  V30 7956 H 1310.4 -0.608651 -7.04676 0
M  V30 7957 H 1311.4 0.889672 -7.08939 0
M  V30 7958 H 1309.56 0.43308 -9.04564 0
M  V30 7959 H 1309.49 -1.68366 -5.8516 0
M  V30 7960 H 1310.52 -4.05985 -4.30448 0
M  V30 7961 H 1308.78 -3.88028 -4.72875 0
M  V30 7962 H 1309.27 -4.11381 -3.01609 0
M  V30 7963 H 1310.01 0.0393617 -1.41345 0
M  V30 7964 P 1311.43 2.75334 -8.47391 0
M  V30 7965 O 1311.65 3.84166 -9.4489 0
M  V30 7966 O 1312.22 1.51964 -8.6881 0
M  V30 7967 O 1311.68 3.29363 -6.99321 0
M  V30 7968 C 1310.74 4.23956 -6.42656 0
M  V30 7969 C 1311.47 5.20775 -5.52155 0
M  V30 7970 O 1311.68 4.56534 -4.22446 0
M  V30 7971 C 1312.87 5.62629 -5.96531 0
M  V30 7972 O 1313.26 6.87667 -5.41053 0
M  V30 7973 C 1313.75 4.52537 -5.39283 0
M  V30 7974 C 1313.04 4.20027 -4.08623 0
M  V30 7975 N 1313.09 2.7613 -3.71522 0
M  V30 7976 C 1313.24 2.45612 -2.37989 0
M  V30 7977 O 1313.33 3.30919 -1.51621 0
M  V30 7978 N 1313.28 1.10684 -2.08435 0
M  V30 7979 C 1313.19 0.0690084 -2.9792 0
M  V30 7980 C 1313.04 0.481522 -4.35345 0
M  V30 7981 C 1312.99 1.78906 -4.67968 0
M  V30 7982 H 1310.25 4.797 -7.24003 0
M  V30 7983 H 1309.98 3.69802 -5.84429 0
M  V30 7984 H 1310.85 6.10356 -5.41441 0
M  V30 7985 H 1313.51 4.78651 -3.27911 0
M  V30 7986 H 1313.78 3.64957 -6.05871 0
M  V30 7987 H 1314.78 4.8868 -5.2125 0
M  V30 7988 H 1312.94 5.66726 -7.06352 0
M  V30 7989 H 1312.87 2.07737 -5.72367 0
M  V30 7990 P 1314.81 7.20834 -5.23717 0
M  V30 7991 O 1315.03 8.66104 -5.38572 0
M  V30 7992 O 1315.6 6.33544 -6.1349 0
M  V30 7993 O 1315.06 6.7751 -3.72168 0
M  V30 7994 C 1314.12 7.20825 -2.7076 0
M  V30 7995 C 1314.85 7.45864 -1.40599 0
M  V30 7996 O 1315.06 6.17651 -0.734225 0
M  V30 7997 C 1316.25 8.05808 -1.51899 0
M  V30 7998 O 1316.64 8.74358 -0.335205 0
M  V30 7999 C 1317.13 6.83093 -1.70294 0
M  V30 8000 C 1316.42 5.79992 -0.836974 0
M  V30 8001 N 1316.47 4.41864 -1.38293 0
M  V30 8002 H 1313.63 8.13644 -3.0377 0
M  V30 8003 H 1313.36 6.42788 -2.55485 0
M  V30 8004 H 1314.23 8.12039 -0.792769 0
M  V30 8005 P 1318.19 8.91 1.04876e-11 0
M  V30 8006 O 1318.41 10.1726 0.733694 0
M  V30 8007 O 1318.98 8.73148 -1.23936 0
M  V30 8008 O 1318.44 7.66872 0.971405 0
M  V30 8009 C 1317.5 7.42309 2.04641 0
M  V30 8010 C 1318.23 6.86059 3.24661 0
M  V30 8011 O 1318.44 5.42847 3.03646 0
M  V30 8012 C 1319.63 7.41196 3.50753 0
M  V30 8013 O 1320.02 7.27073 4.86816 0
M  V30 8014 C 1320.51 6.5273 2.63741 0
M  V30 8015 C 1319.8 5.1842 2.73198 0
M  V30 8016 N 1319.85 4.38762 1.4784 0
M  V30 8017 C 1319.77 4.81605 0.168631 0
M  V30 8018 N 1319.85 3.85454 -0.713363 0
M  V30 8019 C 1319.99 2.6994 0.0566958 0
M  V30 8020 C 1320.12 1.34815 -0.338502 0
M  V30 8021 O 1320.14 0.869548 -1.47125 0
M  V30 8022 N 1320.24 0.496304 0.77465 0
M  V30 8023 C 1320.24 0.908403 2.09122 0
M  V30 8024 N 1320.37 -0.0517805 3.00955 0
M  V30 8025 N 1320.11 2.17875 2.46519 0
M  V30 8026 C 1319.99 3.01988 1.4033 0
M  V30 8027 H 1317.01 8.36803 2.32493 0
M  V30 8028 H 1316.74 6.70197 1.71129 0
M  V30 8029 H 1317.61 7.03551 4.13168 0
M  V30 8030 H 1320.27 4.59498 3.54415 0
M  V30 8031 H 1320.54 6.88898 1.59848 0
M  V30 8032 H 1321.54 6.46749 3.03687 0
M  V30 8033 H 1319.7 8.46908 3.20714 0
M  V30 8034 H 1319.65 5.86405 -0.105564 0
M  V30 8035 H 1320.34 -0.483664 0.597855 0
M  V30 8036 H 1320.37 0.187865 4.0116 0
M  V30 8037 H 1320.47 -1.03585 2.71726 0
M  V30 8038 P 1321.57 7.20834 5.23717 0
M  V30 8039 O 1321.79 7.79853 6.57286 0
M  V30 8040 O 1322.36 7.79239 4.12957 0
M  V30 8041 O 1321.82 5.63315 5.29344 0
M  V30 8042 C 1320.88 4.80255 6.01876 0
M  V30 8043 C 1321.61 3.64202 6.65911 0
M  V30 8044 O 1321.82 2.60694 5.64732 0
M  V30 8045 C 1323.01 3.93473 7.1943 0
M  V30 8046 O 1323.4 3.02071 8.21205 0
M  V30 8047 C 1323.89 3.73047 5.97036 0
M  V30 8048 C 1323.18 2.58828 5.25741 0
M  V30 8049 N 1323.23 2.68068 3.77503 0
M  V30 8050 H 1320.39 5.40332 6.79951 0
M  V30 8051 H 1320.12 4.41613 5.32378 0
M  V30 8052 H 1320.99 3.26331 7.47797 0
M  V30 8053 P 1324.95 2.75334 8.47391 0
M  V30 8054 O 1325.17 2.44571 9.90142 0
M  V30 8055 O 1325.74 3.87688 7.92115 0
M  V30 8056 O 1325.2 1.4459 7.59357 0
M  V30 8057 C 1324.26 0.347608 7.69215 0
M  V30 8058 C 1324.99 -0.96767 7.52806 0
M  V30 8059 O 1325.2 -1.21036 6.1011 0
M  V30 8060 C 1326.39 -1.04544 8.13308 0
M  V30 8061 O 1326.78 -2.38311 8.41922 0
M  V30 8062 C 1327.27 -0.491279 7.02284 0
M  V30 8063 C 1326.56 -0.996264 5.77469 0
M  V30 8064 N 1326.61 -0.0501916 4.62973 0
M  V30 8065 H 1323.77 0.374722 8.67691 0
M  V30 8066 H 1323.5 0.443485 6.90277 0
M  V30 8067 H 1324.37 -1.75537 7.96793 0
M  V30 8068 P 1328.33 -2.75334 8.47391 0
M  V30 8069 O 1328.55 -3.84128 9.44797 0
M  V30 8070 O 1329.12 -1.51947 8.68712 0
M  V30 8071 O 1328.58 -3.29363 6.99321 0
M  V30 8072 C 1327.64 -4.24011 6.4274 0
M  V30 8073 C 1328.37 -5.20775 5.52155 0
M  V30 8074 O 1328.58 -4.56534 4.22446 0
M  V30 8075 C 1329.77 -5.62629 5.96531 0
M  V30 8076 O 1330.16 -6.87667 5.41053 0
M  V30 8077 C 1330.65 -4.52537 5.39283 0
M  V30 8078 C 1329.94 -4.20027 4.08623 0
M  V30 8079 N 1329.99 -2.76189 3.71603 0
M  V30 8080 H 1327.15 -4.797 7.24003 0
M  V30 8081 H 1326.88 -3.69856 5.84513 0
M  V30 8082 H 1327.75 -6.10356 5.41441 0
M  V30 8083 P 1331.71 -7.20834 5.23717 0
M  V30 8084 O 1331.93 -8.66104 5.38572 0
M  V30 8085 O 1332.5 -6.33544 6.1349 0
M  V30 8086 O 1331.96 -6.7751 3.72168 0
M  V30 8087 C 1331.02 -7.20825 2.7076 0
M  V30 8088 C 1331.75 -7.45864 1.40599 0
M  V30 8089 O 1331.96 -6.17651 0.734225 0
M  V30 8090 C 1333.15 -8.05808 1.51899 0
M  V30 8091 O 1333.54 -8.74358 0.335205 0
M  V30 8092 C 1334.03 -6.83093 1.70294 0
M  V30 8093 C 1333.32 -5.79992 0.836974 0
M  V30 8094 N 1333.37 -4.41864 1.38293 0
M  V30 8095 H 1330.53 -8.13644 3.0377 0
M  V30 8096 H 1330.26 -6.42788 2.55485 0
M  V30 8097 H 1331.13 -8.12039 0.792769 0
M  V30 8098 P 1335.09 -8.91 -1.06447e-11 0
M  V30 8099 O 1335.31 -10.1726 -0.733694 0
M  V30 8100 O 1335.88 -8.73148 1.23936 0
M  V30 8101 O 1335.34 -7.66872 -0.971405 0
M  V30 8102 C 1334.4 -7.42309 -2.04641 0
M  V30 8103 C 1335.13 -6.86059 -3.24661 0
M  V30 8104 O 1335.34 -5.42847 -3.03646 0
M  V30 8105 C 1336.53 -7.41196 -3.50753 0
M  V30 8106 O 1336.92 -7.27073 -4.86816 0
M  V30 8107 C 1337.41 -6.5273 -2.63741 0
M  V30 8108 C 1336.7 -5.1842 -2.73198 0
M  V30 8109 N 1336.75 -4.38762 -1.4784 0
M  V30 8110 H 1333.91 -8.36803 -2.32493 0
M  V30 8111 H 1333.64 -6.70197 -1.71129 0
M  V30 8112 H 1334.51 -7.03551 -4.13168 0
M  V30 8113 P 1338.47 -7.20834 -5.23717 0
M  V30 8114 O 1338.69 -7.79853 -6.57286 0
M  V30 8115 O 1339.26 -7.79239 -4.12957 0
M  V30 8116 O 1338.72 -5.63315 -5.29344 0
M  V30 8117 C 1337.78 -4.80255 -6.01876 0
M  V30 8118 C 1338.51 -3.64202 -6.65911 0
M  V30 8119 O 1338.72 -2.60694 -5.64732 0
M  V30 8120 C 1339.91 -3.93473 -7.1943 0
M  V30 8121 O 1340.3 -3.02071 -8.21205 0
M  V30 8122 C 1340.79 -3.73047 -5.97036 0
M  V30 8123 C 1340.08 -2.58828 -5.25741 0
M  V30 8124 N 1340.13 -2.68068 -3.77503 0
M  V30 8125 H 1337.29 -5.40332 -6.79951 0
M  V30 8126 H 1337.02 -4.41613 -5.32378 0
M  V30 8127 H 1337.89 -3.26331 -7.47797 0
M  V30 8128 P 1341.85 -2.75334 -8.47391 0
M  V30 8129 O 1342.07 -2.44571 -9.90142 0
M  V30 8130 O 1342.64 -3.87688 -7.92115 0
M  V30 8131 O 1342.1 -1.4459 -7.59357 0
M  V30 8132 C 1341.16 -0.347608 -7.69215 0
M  V30 8133 C 1341.89 0.96767 -7.52806 0
M  V30 8134 O 1342.1 1.21036 -6.1011 0
M  V30 8135 C 1343.29 1.04544 -8.13308 0
M  V30 8136 O 1343.68 2.38311 -8.41922 0
M  V30 8137 C 1344.17 0.491279 -7.02284 0
M  V30 8138 C 1343.46 0.996264 -5.77469 0
M  V30 8139 N 1343.51 0.0501916 -4.62973 0
M  V30 8140 H 1340.67 -0.374722 -8.67691 0
M  V30 8141 H 1340.4 -0.443485 -6.90277 0
M  V30 8142 H 1341.27 1.75537 -7.96793 0
M  V30 8143 P 1345.23 2.75334 -8.47391 0
M  V30 8144 O 1345.45 3.84128 -9.44797 0
M  V30 8145 O 1346.02 1.51947 -8.68712 0
M  V30 8146 O 1345.48 3.29363 -6.99321 0
M  V30 8147 C 1344.54 4.24011 -6.4274 0
M  V30 8148 C 1345.27 5.20775 -5.52155 0
M  V30 8149 O 1345.48 4.56534 -4.22446 0
M  V30 8150 C 1346.67 5.62629 -5.96531 0
M  V30 8151 O 1347.06 6.87667 -5.41053 0
M  V30 8152 C 1347.55 4.52537 -5.39283 0
M  V30 8153 C 1346.84 4.20027 -4.08623 0
M  V30 8154 N 1346.89 2.76189 -3.71603 0
M  V30 8155 C 1346.81 1.64862 -4.52822 0
M  V30 8156 N 1346.89 0.512671 -3.88633 0
M  V30 8157 C 1347.03 0.888083 -2.54977 0
M  V30 8158 C 1347.16 0.094668 -1.38677 0
M  V30 8159 O 1347.18 -1.13053 -1.28163 0
M  V30 8160 N 1347.28 0.890102 -0.232633 0
M  V30 8161 C 1347.28 2.26958 -0.21772 0
M  V30 8162 N 1347.41 2.84626 0.97925 0
M  V30 8163 N 1347.15 3.0178 -1.31033 0
M  V30 8164 C 1347.03 2.26781 -2.43843 0
M  V30 8165 H 1344.05 4.797 -7.24003 0
M  V30 8166 H 1343.78 3.69856 -5.84513 0
M  V30 8167 H 1344.65 6.10356 -5.41441 0
M  V30 8168 H 1347.31 4.79061 -3.27488 0
M  V30 8169 H 1347.58 3.64906 -6.05785 0
M  V30 8170 H 1348.58 4.8868 -5.2125 0
M  V30 8171 H 1346.74 5.66726 -7.06352 0
M  V30 8172 H 1346.69 1.71169 -5.60966 0
M  V30 8173 H 1347.38 0.419134 0.644739 0
M  V30 8174 H 1347.41 3.87332 1.06098 0
M  V30 8175 H 1347.51 2.26417 1.82483 0
M  V30 8176 P 1348.61 7.20834 -5.23717 0
M  V30 8177 O 1348.83 8.66189 -5.38625 0
M  V30 8178 O 1349.4 6.33615 -6.1356 0
M  V30 8179 O 1348.86 6.7751 -3.72168 0
M  V30 8180 C 1347.92 7.20825 -2.7076 0
M  V30 8181 C 1348.65 7.45864 -1.40599 0
M  V30 8182 O 1348.86 6.17651 -0.734225 0
M  V30 8183 C 1350.05 8.05808 -1.51899 0
M  V30 8184 O 1350.44 8.74358 -0.335205 0
M  V30 8185 C 1350.93 6.83093 -1.70294 0
M  V30 8186 C 1350.22 5.79992 -0.836974 0
M  V30 8187 N 1350.27 4.41769 -1.38263 0
M  V30 8188 C 1350.42 3.36514 -0.485617 0
M  V30 8189 O 1350.51 3.61814 0.724703 0
M  V30 8190 N 1350.47 2.00746 -1.14492 0
M  V30 8191 C 1350.37 1.85887 -2.27776 0
M  V30 8192 N 1350.42 0.600907 -2.69379 0
M  V30 8193 C 1350.22 2.92182 -3.22265 0
M  V30 8194 C 1350.17 4.18399 -2.71925 0
M  V30 8195 H 1347.43 8.1355 -3.03735 0
M  V30 8196 H 1347.16 6.42695 -2.55448 0
M  V30 8197 H 1348.03 8.12139 -0.792866 0
M  V30 8198 H 1350.69 5.80078 0.160615 0
M  V30 8199 H 1350.96 6.51379 -2.75643 0
M  V30 8200 H 1351.96 7.01734 -1.34462 0
M  V30 8201 H 1350.12 8.73674 -2.38337 0
M  V30 8202 H 1350.05 5.02669 -3.39718 0
M  V30 8203 H 1350.15 2.73001 -4.29239 0
M  V30 8204 H 1350.54 -0.162318 -2.01146 0
M  V30 8205 H 1350.34 0.387742 -3.69773 0
M  V30 8206 P 1351.99 8.91 1.08019e-11 0
M  V30 8207 O 1352.21 10.1736 0.733766 0
M  V30 8208 O 1352.78 8.73247 -1.2395 0
M  V30 8209 O 1352.24 7.66872 0.971405 0
M  V30 8210 C 1351.3 7.42212 2.04614 0
M  V30 8211 C 1352.03 6.86059 3.24661 0
M  V30 8212 O 1352.24 5.42847 3.03646 0
M  V30 8213 C 1353.43 7.41196 3.50753 0
M  V30 8214 O 1353.82 7.27073 4.86816 0
M  V30 8215 C 1354.31 6.5273 2.63741 0
M  V30 8216 C 1353.6 5.1842 2.73198 0
M  V30 8217 N 1353.65 4.38668 1.47808 0
M  V30 8218 C 1353.8 3.02239 1.60048 0
M  V30 8219 O 1353.89 2.46459 2.67869 0
M  V30 8220 N 1353.84 2.32436 0.408571 0
M  V30 8221 C 1353.75 2.85471 -0.854993 0
M  V30 8222 C 1353.6 4.28918 -0.887335 0
M  V30 8223 C 1353.55 5.00349 0.255399 0
M  V30 8224 H 1350.81 8.36803 2.32493 0
M  V30 8225 H 1350.54 6.701 1.71105 0
M  V30 8226 H 1351.41 7.03551 4.13168 0
M  V30 8227 H 1354.06 4.59773 3.53894 0
M  V30 8228 H 1354.34 6.88995 1.59871 0
M  V30 8229 H 1355.34 6.46749 3.03687 0
M  V30 8230 H 1353.5 8.46908 3.20714 0
M  V30 8231 H 1353.43 6.08548 0.206986 0
M  V30 8232 P 1355.37 7.20834 5.23717 0
M  V30 8233 O 1355.59 7.79853 6.57286 0
M  V30 8234 O 1356.16 7.79239 4.12957 0
M  V30 8235 O 1355.62 5.63315 5.29344 0
M  V30 8236 C 1354.68 4.80255 6.01876 0
M  V30 8237 C 1355.41 3.64202 6.65911 0
M  V30 8238 O 1355.62 2.60694 5.64732 0
M  V30 8239 C 1356.81 3.93473 7.1943 0
M  V30 8240 O 1357.2 3.02071 8.21205 0
M  V30 8241 C 1357.69 3.73047 5.97036 0
M  V30 8242 C 1356.98 2.58828 5.25741 0
M  V30 8243 N 1357.03 2.68068 3.77503 0
M  V30 8244 C 1356.95 3.79715 2.96723 0
M  V30 8245 N 1357.03 3.5377 1.68852 0
M  V30 8246 C 1357.17 2.15054 1.63254 0
M  V30 8247 C 1357.3 1.28964 0.518571 0
M  V30 8248 O 1357.32 1.56826 -0.679156 0
M  V30 8249 N 1357.42 -0.0538097 0.918425 0
M  V30 8250 C 1357.42 -0.494275 2.22578 0
M  V30 8251 N 1357.55 -1.81086 2.40434 0
M  V30 8252 N 1357.29 0.313645 3.27502 0
M  V30 8253 C 1357.17 1.61829 2.91033 0
M  V30 8254 H 1354.19 5.40332 6.79951 0
M  V30 8255 H 1353.92 4.41613 5.32378 0
M  V30 8256 H 1354.79 3.26331 7.47797 0
M  V30 8257 H 1357.44 1.63422 5.56814 0
M  V30 8258 H 1357.72 4.63374 5.34244 0
M  V30 8259 H 1358.72 3.44728 6.25838 0
M  V30 8260 H 1356.88 4.96652 7.57263 0
M  V30 8261 H 1356.83 4.80617 3.3614 0
M  V30 8262 H 1357.51 -0.742702 0.199384 0
M  V30 8263 H 1357.55 -2.20598 3.35588 0
M  V30 8264 H 1357.65 -2.43518 1.58945 0
M  V30 8265 P 1358.75 2.75334 8.47391 0
M  V30 8266 O 1358.97 2.44619 9.90336 0
M  V30 8267 O 1359.54 3.87776 7.92294 0
M  V30 8268 O 1359 1.4459 7.59357 0
M  V30 8269 C 1358.06 0.347653 7.69315 0
M  V30 8270 C 1358.79 -0.96767 7.52806 0
M  V30 8271 O 1359 -1.21055 6.10208 0
M  V30 8272 C 1360.19 -1.04557 8.13408 0
M  V30 8273 O 1360.58 -2.38311 8.41922 0
M  V30 8274 C 1361.07 -0.491279 7.02284 0
M  V30 8275 C 1360.36 -0.996264 5.77469 0
M  V30 8276 N 1360.41 -0.0501916 4.62973 0
M  V30 8277 C 1360.33 1.31969 4.65661 0
M  V30 8278 N 1360.4 1.86649 3.48119 0
M  V30 8279 C 1360.55 0.792089 2.62406 0
M  V30 8280 C 1360.68 0.705684 1.2207 0
M  V30 8281 N 1360.69 1.76207 0.413762 0
M  V30 8282 N 1360.8 -0.518981 0.685754 0
M  V30 8283 C 1360.79 -1.57595 1.49174 0
M  V30 8284 N 1360.67 -1.62909 2.80066 0
M  V30 8285 C 1360.55 -0.388195 3.3073 0
M  V30 8286 H 1357.57 0.374765 8.67791 0
M  V30 8287 H 1357.3 0.443613 6.90476 0
M  V30 8288 H 1358.17 -1.75559 7.96891 0
M  V30 8289 H 1360.82 -1.94563 5.46818 0
M  V30 8290 H 1361.1 0.608651 7.04676 0
M  V30 8291 H 1362.1 -0.889796 7.09039 0
M  V30 8292 H 1360.26 -0.433128 9.04664 0
M  V30 8293 H 1360.22 1.89246 5.57664 0
M  V30 8294 H 1360.6 2.71005 0.804694 0
M  V30 8295 H 1360.79 1.63189 -0.603768 0
M  V30 8296 H 1360.9 -2.53475 0.997614 0
M  V30 8297 P 1362.13 -2.75334 8.47391 0
M  V30 8298 O 1362.35 -3.84128 9.44797 0
M  V30 8299 O 1362.92 -1.51947 8.68712 0
M  V30 8300 O 1362.38 -3.29363 6.99321 0
M  V30 8301 C 1361.44 -4.24011 6.4274 0
M  V30 8302 C 1362.17 -5.20775 5.52155 0
M  V30 8303 O 1362.38 -4.56534 4.22446 0
M  V30 8304 C 1363.57 -5.62629 5.96531 0
M  V30 8305 O 1363.96 -6.87667 5.41053 0
M  V30 8306 C 1364.45 -4.52537 5.39283 0
M  V30 8307 C 1363.74 -4.20027 4.08623 0
M  V30 8308 N 1363.79 -2.76189 3.71603 0
M  V30 8309 C 1363.71 -1.64862 4.52822 0
M  V30 8310 N 1363.79 -0.512671 3.88633 0
M  V30 8311 C 1363.93 -0.888083 2.54977 0
M  V30 8312 C 1364.06 -0.094668 1.38677 0
M  V30 8313 O 1364.08 1.13053 1.28163 0
M  V30 8314 N 1364.18 -0.890102 0.232633 0
M  V30 8315 C 1364.18 -2.26958 0.21772 0
M  V30 8316 N 1364.31 -2.84626 -0.97925 0
M  V30 8317 N 1364.05 -3.0178 1.31033 0
M  V30 8318 C 1363.93 -2.26781 2.43843 0
M  V30 8319 H 1360.95 -4.797 7.24003 0
M  V30 8320 H 1360.68 -3.69856 5.84513 0
M  V30 8321 H 1361.55 -6.10356 5.41441 0
M  V30 8322 H 1364.2 -4.79061 3.27488 0
M  V30 8323 H 1364.48 -3.64906 6.05785 0
M  V30 8324 H 1365.48 -4.8868 5.2125 0
M  V30 8325 H 1363.64 -5.66726 7.06352 0
M  V30 8326 H 1363.59 -1.71169 5.60966 0
M  V30 8327 H 1364.27 -0.419134 -0.644739 0
M  V30 8328 H 1364.31 -3.87332 -1.06098 0
M  V30 8329 H 1364.41 -2.26417 -1.82483 0
M  V30 8330 P 1365.51 -7.20834 5.23717 0
M  V30 8331 O 1365.73 -8.66189 5.38625 0
M  V30 8332 O 1366.3 -6.33615 6.1356 0
M  V30 8333 O 1365.76 -6.7751 3.72168 0
M  V30 8334 C 1364.82 -7.20732 2.70725 0
M  V30 8335 C 1365.55 -7.45864 1.40599 0
M  V30 8336 O 1365.76 -6.17651 0.734225 0
M  V30 8337 C 1366.95 -8.05808 1.51899 0
M  V30 8338 O 1367.34 -8.74358 0.335205 0
M  V30 8339 C 1367.83 -6.83093 1.70294 0
M  V30 8340 C 1367.12 -5.79992 0.836974 0
M  V30 8341 N 1367.17 -4.41769 1.38263 0
M  V30 8342 C 1367.32 -3.38591 0.481702 0
M  V30 8343 O 1367.41 -3.56839 -0.718452 0
M  V30 8344 N 1367.36 -2.1206 1.03569 0
M  V30 8345 C 1367.27 -1.80696 2.36966 0
M  V30 8346 C 1367.12 -2.94845 3.23898 0
M  V30 8347 C 1367.07 -4.19803 2.73435 0
M  V30 8348 H 1364.33 -8.13644 3.0377 0
M  V30 8349 H 1364.06 -6.42695 2.55448 0
M  V30 8350 H 1364.93 -8.12039 0.792769 0
M  V30 8351 H 1367.58 -5.79978 -0.160587 0
M  V30 8352 H 1367.86 -6.51379 2.75643 0
M  V30 8353 H 1368.86 -7.01734 1.34462 0
M  V30 8354 H 1367.02 -8.73674 2.38337 0
M  V30 8355 H 1366.95 -5.04492 3.4095 0
M  V30 8356 P 1368.89 -8.91 -1.09591e-11 0
M  V30 8357 O 1369.11 -10.1726 -0.733694 0
M  V30 8358 O 1369.68 -8.73148 1.23936 0
M  V30 8359 O 1369.14 -7.66872 -0.971405 0
M  V30 8360 C 1368.2 -7.42309 -2.04641 0
M  V30 8361 C 1368.93 -6.86059 -3.24661 0
M  V30 8362 O 1369.14 -5.42847 -3.03646 0
M  V30 8363 C 1370.33 -7.41196 -3.50753 0
M  V30 8364 O 1370.72 -7.27073 -4.86816 0
M  V30 8365 C 1371.21 -6.5273 -2.63741 0
M  V30 8366 C 1370.5 -5.1842 -2.73198 0
M  V30 8367 N 1370.55 -4.38762 -1.4784 0
M  V30 8368 H 1367.71 -8.36803 -2.32493 0
M  V30 8369 H 1367.44 -6.70197 -1.71129 0
M  V30 8370 H 1368.31 -7.03551 -4.13168 0
M  V30 8371 P 1372.27 -7.20834 -5.23717 0
M  V30 8372 O 1372.49 -7.79853 -6.57286 0
M  V30 8373 O 1373.06 -7.79239 -4.12957 0
M  V30 8374 O 1372.52 -5.63315 -5.29344 0
M  V30 8375 C 1371.58 -4.80255 -6.01876 0
M  V30 8376 C 1372.31 -3.64202 -6.65911 0
M  V30 8377 O 1372.52 -2.60694 -5.64732 0
M  V30 8378 C 1373.71 -3.93473 -7.1943 0
M  V30 8379 O 1374.1 -3.02071 -8.21205 0
M  V30 8380 C 1374.59 -3.73047 -5.97036 0
M  V30 8381 C 1373.88 -2.58828 -5.25741 0
M  V30 8382 N 1373.93 -2.68068 -3.77503 0
M  V30 8383 C 1373.85 -3.79715 -2.96723 0
M  V30 8384 N 1373.93 -3.5377 -1.68852 0
M  V30 8385 C 1374.07 -2.15054 -1.63254 0
M  V30 8386 C 1374.2 -1.28964 -0.518571 0
M  V30 8387 O 1374.22 -1.56826 0.679156 0
M  V30 8388 N 1374.32 0.0538097 -0.918425 0
M  V30 8389 C 1374.32 0.494275 -2.22578 0
M  V30 8390 N 1374.45 1.81086 -2.40434 0
M  V30 8391 N 1374.19 -0.313645 -3.27502 0
M  V30 8392 C 1374.07 -1.61829 -2.91033 0
M  V30 8393 H 1371.09 -5.40332 -6.79951 0
M  V30 8394 H 1370.82 -4.41613 -5.32378 0
M  V30 8395 H 1371.69 -3.26331 -7.47797 0
M  V30 8396 H 1374.34 -1.63422 -5.56814 0
M  V30 8397 H 1374.62 -4.63374 -5.34244 0
M  V30 8398 H 1375.62 -3.44728 -6.25838 0
M  V30 8399 H 1373.78 -4.96652 -7.57263 0
M  V30 8400 H 1373.73 -4.80617 -3.3614 0
M  V30 8401 H 1374.41 0.742702 -0.199384 0
M  V30 8402 H 1374.45 2.20598 -3.35588 0
M  V30 8403 H 1374.55 2.43518 -1.58945 0
M  V30 8404 P 1375.65 -2.75334 -8.47391 0
M  V30 8405 O 1375.87 -2.44571 -9.90142 0
M  V30 8406 O 1376.44 -3.87688 -7.92115 0
M  V30 8407 O 1375.9 -1.4459 -7.59357 0
M  V30 8408 C 1374.96 -0.347608 -7.69215 0
M  V30 8409 C 1375.69 0.96767 -7.52806 0
M  V30 8410 O 1375.9 1.21036 -6.1011 0
M  V30 8411 C 1377.09 1.04544 -8.13308 0
M  V30 8412 O 1377.48 2.38311 -8.41922 0
M  V30 8413 C 1377.97 0.491279 -7.02284 0
M  V30 8414 C 1377.26 0.996264 -5.77469 0
M  V30 8415 N 1377.31 0.0501916 -4.62973 0
M  V30 8416 H 1374.47 -0.374722 -8.67691 0
M  V30 8417 H 1374.2 -0.443485 -6.90277 0
M  V30 8418 H 1375.07 1.75537 -7.96793 0
M  V30 8419 P 1379.03 2.75334 -8.47391 0
M  V30 8420 O 1379.25 3.84128 -9.44797 0
M  V30 8421 O 1379.82 1.51947 -8.68712 0
M  V30 8422 O 1379.28 3.29363 -6.99321 0
M  V30 8423 C 1378.34 4.24011 -6.4274 0
M  V30 8424 C 1379.07 5.20775 -5.52155 0
M  V30 8425 O 1379.28 4.56534 -4.22446 0
M  V30 8426 C 1380.47 5.62629 -5.96531 0
M  V30 8427 O 1380.86 6.87667 -5.41053 0
M  V30 8428 C 1381.35 4.52537 -5.39283 0
M  V30 8429 C 1380.64 4.20027 -4.08623 0
M  V30 8430 N 1380.69 2.76189 -3.71603 0
M  V30 8431 H 1377.85 4.797 -7.24003 0
M  V30 8432 H 1377.58 3.69856 -5.84513 0
M  V30 8433 H 1378.45 6.10356 -5.41441 0
M  V30 8434 P 1382.41 7.20834 -5.23717 0
M  V30 8435 O 1382.63 8.66104 -5.38572 0
M  V30 8436 O 1383.2 6.33544 -6.1349 0
M  V30 8437 O 1382.66 6.7751 -3.72168 0
M  V30 8438 C 1381.72 7.20825 -2.7076 0
M  V30 8439 C 1382.45 7.45864 -1.40599 0
M  V30 8440 O 1382.66 6.17651 -0.734225 0
M  V30 8441 C 1383.85 8.05808 -1.51899 0
M  V30 8442 O 1384.24 8.74358 -0.335205 0
M  V30 8443 C 1384.73 6.83093 -1.70294 0
M  V30 8444 C 1384.02 5.79992 -0.836974 0
M  V30 8445 N 1384.07 4.41864 -1.38293 0
M  V30 8446 H 1381.23 8.13644 -3.0377 0
M  V30 8447 H 1380.96 6.42788 -2.55485 0
M  V30 8448 H 1381.83 8.12039 -0.792769 0
M  V30 8449 P 1385.79 8.91 1.03566e-11 0
M  V30 8450 O 1386.01 10.1746 0.733838 0
M  V30 8451 O 1386.58 8.73346 -1.23964 0
M  V30 8452 O 1386.04 7.66872 0.971405 0
M  V30 8453 C 1385.1 7.42405 2.04668 0
M  V30 8454 C 1385.83 6.86059 3.24661 0
M  V30 8455 O 1386.04 5.42934 3.03695 0
M  V30 8456 C 1387.23 7.41287 3.50796 0
M  V30 8457 O 1387.62 7.27073 4.86816 0
M  V30 8458 C 1388.11 6.5273 2.63741 0
M  V30 8459 C 1387.4 5.1842 2.73198 0
M  V30 8460 N 1387.45 4.38762 1.4784 0
M  V30 8461 H 1384.61 8.36899 2.3252 0
M  V30 8462 H 1384.34 6.70391 1.71179 0
M  V30 8463 H 1385.21 7.03638 4.13219 0
M  V30 8464 H 1387.86 4.59931 3.54016 0
M  V30 8465 H 1388.14 6.88995 1.59871 0
M  V30 8466 H 1389.14 6.4684 3.0373 0
M  V30 8467 H 1387.3 8.47002 3.20749 0
M  V30 8468 P 1389.17 7.20834 5.23717 0
M  V30 8469 O 1389.39 7.79853 6.57286 0
M  V30 8470 O 1389.96 7.79239 4.12957 0
M  V30 8471 O 1389.42 5.63315 5.29344 0
M  V30 8472 C 1388.48 4.80255 6.01876 0
M  V30 8473 C 1389.21 3.64202 6.65911 0
M  V30 8474 O 1389.42 2.60694 5.64732 0
M  V30 8475 C 1390.61 3.93473 7.1943 0
M  V30 8476 O 1391 3.02071 8.21205 0
M  V30 8477 C 1391.49 3.73047 5.97036 0
M  V30 8478 C 1390.78 2.58828 5.25741 0
M  V30 8479 N 1390.83 2.68068 3.77503 0
M  V30 8480 C 1390.75 3.79715 2.96723 0
M  V30 8481 N 1390.83 3.5377 1.68852 0
M  V30 8482 C 1390.97 2.15054 1.63254 0
M  V30 8483 C 1391.1 1.28964 0.518571 0
M  V30 8484 O 1391.12 1.56826 -0.679156 0
M  V30 8485 N 1391.22 -0.0538097 0.918425 0
M  V30 8486 C 1391.22 -0.494275 2.22578 0
M  V30 8487 N 1391.35 -1.81086 2.40434 0
M  V30 8488 N 1391.09 0.313645 3.27502 0
M  V30 8489 C 1390.97 1.61829 2.91033 0
M  V30 8490 H 1387.99 5.40332 6.79951 0
M  V30 8491 H 1387.72 4.41613 5.32378 0
M  V30 8492 H 1388.59 3.26331 7.47797 0
M  V30 8493 H 1391.24 1.63422 5.56814 0
M  V30 8494 H 1391.52 4.63374 5.34244 0
M  V30 8495 H 1392.52 3.44728 6.25838 0
M  V30 8496 H 1390.68 4.96652 7.57263 0
M  V30 8497 H 1390.63 4.80617 3.3614 0
M  V30 8498 H 1391.31 -0.742702 0.199384 0
M  V30 8499 H 1391.35 -2.20598 3.35588 0
M  V30 8500 H 1391.45 -2.43518 1.58945 0
M  V30 8501 P 1392.55 2.75334 8.47391 0
M  V30 8502 O 1392.77 2.44571 9.90142 0
M  V30 8503 O 1393.34 3.87688 7.92115 0
M  V30 8504 O 1392.8 1.4459 7.59357 0
M  V30 8505 C 1391.86 0.347608 7.69215 0
M  V30 8506 C 1392.59 -0.96767 7.52806 0
M  V30 8507 O 1392.8 -1.21036 6.1011 0
M  V30 8508 C 1393.99 -1.04544 8.13308 0
M  V30 8509 O 1394.38 -2.38311 8.41922 0
M  V30 8510 C 1394.87 -0.491279 7.02284 0
M  V30 8511 C 1394.16 -0.996264 5.77469 0
M  V30 8512 N 1394.21 -0.0501916 4.62973 0
M  V30 8513 C 1394.13 1.32786 4.63244 0
M  V30 8514 N 1394.21 1.86957 3.44545 0
M  V30 8515 C 1394.35 0.780241 2.58481 0
M  V30 8516 C 1394.48 0.738536 1.17757 0
M  V30 8517 O 1394.5 1.66794 0.372349 0
M  V30 8518 N 1394.6 -0.58337 0.711393 0
M  V30 8519 C 1394.6 -1.70816 1.51017 0
M  V30 8520 N 1394.73 -2.87826 0.880757 0
M  V30 8521 N 1394.47 -1.67126 2.8339 0
M  V30 8522 C 1394.35 -0.401421 3.30572 0
M  V30 8523 H 1391.37 0.374722 8.67691 0
M  V30 8524 H 1391.1 0.443485 6.90277 0
M  V30 8525 H 1391.97 -1.75537 7.96793 0
M  V30 8526 H 1394.62 -1.95076 5.46529 0
M  V30 8527 H 1394.9 0.608565 7.04577 0
M  V30 8528 H 1395.9 -0.889672 7.08939 0
M  V30 8529 H 1394.06 -0.43308 9.04564 0
M  V30 8530 H 1394.01 1.91249 5.54442 0
M  V30 8531 H 1394.69 -0.718054 -0.275244 0
M  V30 8532 H 1394.73 -3.75721 1.41832 0
M  V30 8533 H 1394.83 -2.90436 -0.145468 0
M  V30 8534 P 1395.93 -2.75334 8.47391 0
M  V30 8535 O 1396.15 -3.84166 9.4489 0
M  V30 8536 O 1396.72 -1.51964 8.6881 0
M  V30 8537 O 1396.18 -3.29363 6.99321 0
M  V30 8538 C 1395.24 -4.23956 6.42656 0
M  V30 8539 C 1395.97 -5.20775 5.52155 0
M  V30 8540 O 1396.18 -4.56534 4.22446 0
M  V30 8541 C 1397.37 -5.62629 5.96531 0
M  V30 8542 O 1397.76 -6.87667 5.41053 0
M  V30 8543 C 1398.25 -4.52537 5.39283 0
M  V30 8544 C 1397.54 -4.20027 4.08623 0
M  V30 8545 N 1397.59 -2.7613 3.71522 0
M  V30 8546 C 1397.74 -2.45612 2.37989 0
M  V30 8547 O 1397.83 -3.30919 1.51621 0
M  V30 8548 N 1397.78 -1.10684 2.08435 0
M  V30 8549 C 1397.69 -0.0690084 2.9792 0
M  V30 8550 C 1397.54 -0.481522 4.35345 0
M  V30 8551 C 1397.49 -1.78906 4.67968 0
M  V30 8552 H 1394.75 -4.797 7.24003 0
M  V30 8553 H 1394.48 -3.69802 5.84429 0
M  V30 8554 H 1395.35 -6.10356 5.41441 0
M  V30 8555 H 1398 -4.78651 3.27911 0
M  V30 8556 H 1398.28 -3.64957 6.05871 0
M  V30 8557 H 1399.28 -4.8868 5.2125 0
M  V30 8558 H 1397.44 -5.66726 7.06352 0
M  V30 8559 H 1397.37 -2.07737 5.72367 0
M  V30 8560 P 1399.31 -7.20834 5.23717 0
M  V30 8561 O 1399.53 -8.66104 5.38572 0
M  V30 8562 O 1400.1 -6.33544 6.1349 0
M  V30 8563 O 1399.56 -6.7751 3.72168 0
M  V30 8564 C 1398.62 -7.20825 2.7076 0
M  V30 8565 C 1399.35 -7.45864 1.40599 0
M  V30 8566 O 1399.56 -6.17651 0.734225 0
M  V30 8567 C 1400.75 -8.05808 1.51899 0
M  V30 8568 O 1401.14 -8.74358 0.335205 0
M  V30 8569 C 1401.63 -6.83093 1.70294 0
M  V30 8570 C 1400.92 -5.79992 0.836974 0
M  V30 8571 N 1400.97 -4.41864 1.38293 0
M  V30 8572 H 1398.13 -8.13644 3.0377 0
M  V30 8573 H 1397.86 -6.42788 2.55485 0
M  V30 8574 H 1398.73 -8.12039 0.792769 0
M  V30 8575 H 1401.01 -8.17008 -0.422618 0
M  V30 8576 H 1405.03 9.01697 -3.02546 0
M  V30 8577 O 1404.91 8.19513 -3.48153 0
M  V30 8578 P 1403.47 8.03563 -3.84925 0
M  V30 8579 O 1403.25 8.85821 -5.0569 0
M  V30 8580 O 1402.68 8.41101 -2.65469 0
M  V30 8581 O 1403.22 6.4965 -4.18908 0
M  V30 8582 C 1404.16 5.81037 -5.05421 0
M  V30 8583 C 1403.43 4.78366 -5.89277 0
M  V30 8584 O 1403.22 3.58302 -5.08433 0
M  V30 8585 C 1402.03 5.17448 -6.36119 0
M  V30 8586 O 1401.64 4.45271 -7.53232 0
M  V30 8587 C 1401.15 4.74639 -5.19936 0
M  V30 8588 C 1401.86 3.49432 -4.70418 0
M  V30 8589 N 1401.81 3.32099 -3.22613 0
M  V30 8590 H 1404.65 6.54213 -5.71376 0
M  V30 8591 H 1404.92 5.30936 -4.43503 0
M  V30 8592 H 1404.05 4.55889 -6.76652 0
M  V30 8593 H 1401.4 2.61715 -5.17932 0
M  V30 8594 H 1401.12 5.52155 -4.41878 0
M  V30 8595 H 1400.13 4.51981 -5.53374 0
M  V30 8596 H 1401.96 6.25124 -6.55234 0
M  V30 8597 P 1400.09 4.23843 -7.83734 0
M  V30 8598 O 1399.87 4.19407 -9.29784 0
M  V30 8599 O 1399.3 5.24426 -7.09156 0
M  V30 8600 O 1399.84 2.7935 -7.20758 0
M  V30 8601 C 1400.78 1.7299 -7.50419 0
M  V30 8602 C 1400.05 0.406376 -7.57911 0
M  V30 8603 O 1399.84 -0.0897726 -6.21935 0
M  V30 8604 C 1398.65 0.447224 -8.1878 0
M  V30 8605 O 1398.26 -0.825065 -8.71101 0
M  V30 8606 C 1397.77 0.783801 -6.99623 0
M  V30 8607 C 1398.48 0.0619192 -5.85967 0
M  V30 8608 N 1398.43 0.7859 -4.56281 0
M  V30 8609 C 1398.51 2.14308 -4.31736 0
M  V30 8610 N 1398.43 2.46106 -3.05116 0
M  V30 8611 C 1398.29 1.23422 -2.4014 0
M  V30 8612 C 1398.16 0.938381 -1.02409 0
M  V30 8613 N 1398.04 -0.444647 -0.805413 0
M  V30 8614 C 1398.04 -1.40829 -1.79435 0
M  V30 8615 N 1397.91 -2.67213 -1.38558 0
M  V30 8616 N 1398.17 -1.12947 -3.09005 0
M  V30 8617 C 1398.29 0.204887 -3.32369 0
M  V30 8618 H 1401.27 1.93423 -8.4679 0
M  V30 8619 H 1401.54 1.68181 -6.71046 0
M  V30 8620 H 1400.67 -0.289041 -8.15388 0
M  V30 8621 P 1396.71 -1.17771 -8.83182 0
M  V30 8622 O 1396.49 -2.07206 -9.98732 0
M  V30 8623 O 1395.92 0.0743816 -8.81969 0
M  V30 8624 O 1396.46 -1.97678 -7.474 0
M  V30 8625 C 1397.4 -3.01133 -7.08783 0
M  V30 8626 C 1396.67 -4.1203 -6.37546 0
M  V30 8627 O 1396.46 -3.72887 -4.9796 0
M  V30 8628 C 1395.27 -4.45085 -6.88694 0
M  V30 8629 O 1394.88 -5.78836 -6.56315 0
M  V30 8630 C 1394.39 -3.47817 -6.12078 0
M  V30 8631 C 1395.1 -3.39414 -4.77697 0
M  V30 8632 N 1395.05 -2.04615 -4.15333 0
M  V30 8633 C 1394.9 -1.96929 -2.77162 0
M  V30 8634 O 1394.81 -3.02017 -2.12006 0
M  V30 8635 N 1394.85 -0.55485 -2.24237 0
M  V30 8636 C 1394.95 0.367808 -2.9169 0
M  V30 8637 N 1394.9 1.53426 -2.29427 0
M  V30 8638 C 1395.1 0.319148 -4.33828 0
M  V30 8639 C 1395.15 -0.920672 -4.90433 0
M  V30 8640 H 1397.89 -3.41209 -7.98667 0
M  V30 8641 H 1398.16 -2.5837 -6.41742 0
M  V30 8642 H 1397.29 -5.02718 -6.42752 0
M  V30 8643 H 1394.64 -4.11779 -4.09026 0
M  V30 8644 H 1394.36 -2.49661 -6.61772 0
M  V30 8645 H 1393.37 -3.86674 -6.00946 0
M  V30 8646 H 1395.2 -4.29991 -7.97006 0
M  V30 8647 H 1395.27 -1.00589 -5.98303 0
M  V30 8648 H 1395.17 1.22639 -4.93799 0
M  V30 8649 H 1394.78 1.56819 -1.27167 0
M  V30 8650 H 1394.98 2.41062 -2.83063 0
M  V30 8651 P 1393.33 -6.144 -6.45285 0
M  V30 8652 O 1393.11 -7.54673 -6.86199 0
M  V30 8653 O 1392.54 -5.12391 -7.179 0
M  V30 8654 O 1393.08 -5.99236 -4.88467 0
M  V30 8655 C 1394.02 -6.60234 -3.96415 0
M  V30 8656 C 1393.29 -7.08079 -2.736 0
M  V30 8657 O 1393.08 -5.94365 -1.8368 0
M  V30 8658 C 1391.89 -7.64886 -2.9555 0
M  V30 8659 O 1391.5 -8.5406 -1.90739 0
M  V30 8660 C 1391.01 -6.4116 -2.90739 0
M  V30 8661 C 1391.72 -5.55375 -1.86963 0
M  V30 8662 N 1391.67 -4.09664 -2.15742 0
M  V30 8663 C 1391.52 -3.22231 -1.08477 0
M  V30 8664 O 1391.43 -3.68951 0.0600489 0
M  V30 8665 N 1391.47 -1.76692 -1.48799 0
M  V30 8666 C 1391.57 -1.41695 -2.57602 0
M  V30 8667 N 1391.52 -0.107296 -2.75791 0
M  V30 8668 C 1391.72 -2.29178 -3.69733 0
M  V30 8669 C 1391.77 -3.62753 -3.42653 0
M  V30 8670 H 1394.51 -7.45488 -4.45578 0
M  V30 8671 H 1394.78 -5.86232 -3.67314 0
M  V30 8672 H 1393.91 -7.84508 -2.24507 0
M  V30 8673 H 1391.26 -5.73556 -0.888715 0
M  V30 8674 H 1390.98 -5.9096 -3.88638 0
M  V30 8675 H 1389.99 -6.66053 -2.58894 0
M  V30 8676 H 1391.82 -8.16339 -3.92049 0
M  V30 8677 H 1391.89 -4.33052 -4.24913 0
M  V30 8678 H 1391.79 -1.9103 -4.71577 0
M  V30 8679 H 1391.4 0.521221 -1.95056 0
M  V30 8680 H 1391.6 0.286429 -3.70695 0
M  V30 8681 P 1389.95 -8.7635 -1.60911 0
M  V30 8682 O 1389.73 -10.1388 -1.11561 0
M  V30 8683 O 1389.16 -8.36503 -2.79617 0
M  V30 8684 O 1389.7 -7.71806 -0.42951 0
M  V30 8685 C 1390.64 -7.67148 0.673689 0
M  V30 8686 C 1389.91 -7.33374 1.95559 0
M  V30 8687 O 1389.7 -5.88721 2.00726 0
M  V30 8688 C 1388.51 -7.92526 2.10483 0
M  V30 8689 O 1388.12 -8.02971 3.47653 0
M  V30 8690 C 1387.63 -6.89602 1.41652 0
M  V30 8691 C 1388.34 -5.59201 1.75185 0
M  V30 8692 N 1388.29 -4.58235 0.662552 0
M  V30 8693 H 1391.13 -8.65116 0.777161 0
M  V30 8694 H 1391.4 -6.90173 0.474152 0
M  V30 8695 H 1390.53 -7.66548 2.79458 0
M  V30 8696 P 1386.57 -8.03563 3.84925 0
M  V30 8697 O 1386.35 -8.85821 5.0569 0
M  V30 8698 O 1385.78 -8.41101 2.65469 0
M  V30 8699 O 1386.32 -6.4965 4.18908 0
M  V30 8700 C 1387.26 -5.81037 5.05421 0
M  V30 8701 C 1386.53 -4.78366 5.89277 0
M  V30 8702 O 1386.32 -3.58302 5.08433 0
M  V30 8703 C 1385.13 -5.17448 6.36119 0
M  V30 8704 O 1384.74 -4.45271 7.53232 0
M  V30 8705 C 1384.25 -4.74639 5.19936 0
M  V30 8706 C 1384.96 -3.49432 4.70418 0
M  V30 8707 N 1384.91 -3.32099 3.22613 0
M  V30 8708 H 1387.75 -6.54213 5.71376 0
M  V30 8709 H 1388.02 -5.30936 4.43503 0
M  V30 8710 H 1387.15 -4.55889 6.76652 0
M  V30 8711 H 1384.5 -2.61715 5.17932 0
M  V30 8712 H 1384.22 -5.52155 4.41878 0
M  V30 8713 H 1383.23 -4.51981 5.53374 0
M  V30 8714 H 1385.06 -6.25124 6.55234 0
M  V30 8715 P 1383.19 -4.23843 7.83734 0
M  V30 8716 O 1382.97 -4.19407 9.29784 0
M  V30 8717 O 1382.4 -5.24426 7.09156 0
M  V30 8718 O 1382.94 -2.7935 7.20758 0
M  V30 8719 C 1383.88 -1.7299 7.50419 0
M  V30 8720 C 1383.15 -0.406376 7.57911 0
M  V30 8721 O 1382.94 0.0897726 6.21935 0
M  V30 8722 C 1381.75 -0.447224 8.1878 0
M  V30 8723 O 1381.36 0.825065 8.71101 0
M  V30 8724 C 1380.87 -0.783801 6.99623 0
M  V30 8725 C 1381.58 -0.0619192 5.85967 0
M  V30 8726 N 1381.53 -0.7859 4.56281 0
M  V30 8727 H 1384.37 -1.93423 8.4679 0
M  V30 8728 H 1384.64 -1.68181 6.71046 0
M  V30 8729 H 1383.77 0.289041 8.15388 0
M  V30 8730 P 1379.81 1.17771 8.83182 0
M  V30 8731 O 1379.59 2.07206 9.98732 0
M  V30 8732 O 1379.02 -0.0743816 8.81969 0
M  V30 8733 O 1379.56 1.97652 7.47304 0
M  V30 8734 C 1380.5 3.01133 7.08783 0
M  V30 8735 C 1379.77 4.12613 6.37049 0
M  V30 8736 O 1379.56 3.72827 4.97879 0
M  V30 8737 C 1378.37 4.45085 6.88694 0
M  V30 8738 O 1377.98 5.7877 6.5624 0
M  V30 8739 C 1377.49 3.47817 6.12078 0
M  V30 8740 C 1378.2 3.39414 4.77697 0
M  V30 8741 N 1378.15 2.04615 4.15333 0
M  V30 8742 H 1380.99 3.41248 7.98759 0
M  V30 8743 H 1381.26 2.5837 6.41742 0
M  V30 8744 H 1380.39 5.02657 6.42673 0
M  V30 8745 P 1376.43 6.144 6.45285 0
M  V30 8746 O 1376.21 7.54673 6.86199 0
M  V30 8747 O 1375.64 5.12391 7.179 0
M  V30 8748 O 1376.18 5.99236 4.88467 0
M  V30 8749 C 1377.12 6.60234 3.96415 0
M  V30 8750 C 1376.39 7.08079 2.736 0
M  V30 8751 O 1376.18 5.94365 1.8368 0
M  V30 8752 C 1374.99 7.64886 2.9555 0
M  V30 8753 O 1374.6 8.5406 1.90739 0
M  V30 8754 C 1374.11 6.4116 2.90739 0
M  V30 8755 C 1374.82 5.55375 1.86963 0
M  V30 8756 N 1374.77 4.09664 2.15742 0
M  V30 8757 C 1374.62 3.22231 1.08477 0
M  V30 8758 O 1374.53 3.68951 -0.0600489 0
M  V30 8759 N 1374.57 1.76692 1.48799 0
M  V30 8760 C 1374.67 1.41695 2.57602 0
M  V30 8761 N 1374.62 0.107296 2.75791 0
M  V30 8762 C 1374.82 2.29178 3.69733 0
M  V30 8763 C 1374.87 3.62753 3.42653 0
M  V30 8764 H 1377.61 7.45488 4.45578 0
M  V30 8765 H 1377.88 5.86232 3.67314 0
M  V30 8766 H 1377.01 7.84508 2.24507 0
M  V30 8767 H 1374.36 5.73556 0.888715 0
M  V30 8768 H 1374.08 5.9096 3.88638 0
M  V30 8769 H 1373.09 6.66053 2.58894 0
M  V30 8770 H 1374.92 8.16339 3.92049 0
M  V30 8771 H 1374.99 4.33052 4.24913 0
M  V30 8772 H 1374.89 1.9103 4.71577 0
M  V30 8773 H 1374.5 -0.521221 1.95056 0
M  V30 8774 H 1374.7 -0.286429 3.70695 0
M  V30 8775 P 1373.05 8.7635 1.60911 0
M  V30 8776 O 1372.83 10.1388 1.11561 0
M  V30 8777 O 1372.26 8.36503 2.79617 0
M  V30 8778 O 1372.8 7.71806 0.42951 0
M  V30 8779 C 1373.74 7.67148 -0.673689 0
M  V30 8780 C 1373.01 7.33374 -1.95559 0
M  V30 8781 O 1372.8 5.88721 -2.00726 0
M  V30 8782 C 1371.61 7.92526 -2.10483 0
M  V30 8783 O 1371.22 8.02971 -3.47653 0
M  V30 8784 C 1370.73 6.89602 -1.41652 0
M  V30 8785 C 1371.44 5.59201 -1.75185 0
M  V30 8786 N 1371.39 4.58301 -0.657969 0
M  V30 8787 H 1374.23 8.65116 -0.777161 0
M  V30 8788 H 1374.5 6.9022 -0.46725 0
M  V30 8789 H 1373.63 7.66548 -2.79458 0
M  V30 8790 H 1370.98 5.16165 -2.65183 0
M  V30 8791 H 1370.7 7.06433 -0.329384 0
M  V30 8792 H 1369.71 6.90926 -1.82021 0
M  V30 8793 H 1371.54 8.90873 -1.62657 0
M  V30 8794 P 1369.67 8.03563 -3.84925 0
M  V30 8795 O 1369.45 8.85821 -5.0569 0
M  V30 8796 O 1368.88 8.41101 -2.65469 0
M  V30 8797 O 1369.42 6.4965 -4.18908 0
M  V30 8798 C 1370.36 5.81037 -5.05421 0
M  V30 8799 C 1369.63 4.78366 -5.89277 0
M  V30 8800 O 1369.42 3.58302 -5.08433 0
M  V30 8801 C 1368.23 5.17448 -6.36119 0
M  V30 8802 O 1367.84 4.45271 -7.53232 0
M  V30 8803 C 1367.35 4.74639 -5.19936 0
M  V30 8804 C 1368.06 3.49432 -4.70418 0
M  V30 8805 N 1368.01 3.31776 -3.22945 0
M  V30 8806 C 1368.09 4.27147 -2.23315 0
M  V30 8807 N 1368.01 3.78447 -1.02186 0
M  V30 8808 C 1367.87 2.41001 -1.21732 0
M  V30 8809 C 1367.74 1.36111 -0.27694 0
M  V30 8810 N 1367.62 0.113683 -0.912949 0
M  V30 8811 C 1367.62 -0.0846396 -2.27943 0
M  V30 8812 N 1367.49 -1.34737 -2.6916 0
M  V30 8813 N 1367.75 0.902521 -3.16379 0
M  V30 8814 C 1367.87 2.11937 -2.56849 0
M  V30 8815 H 1370.85 6.54213 -5.71376 0
M  V30 8816 H 1371.12 5.30492 -4.44033 0
M  V30 8817 H 1370.25 4.55889 -6.76652 0
M  V30 8818 P 1366.29 4.23843 -7.83734 0
M  V30 8819 O 1366.07 4.19407 -9.29784 0
M  V30 8820 O 1365.5 5.24426 -7.09156 0
M  V30 8821 O 1366.04 2.79386 -7.20852 0
M  V30 8822 C 1366.98 1.7299 -7.50419 0
M  V30 8823 C 1366.25 0.41401 -7.5797 0
M  V30 8824 O 1366.04 -0.089787 -6.22035 0
M  V30 8825 C 1364.85 0.447224 -8.1878 0
M  V30 8826 O 1364.46 -0.825159 -8.71201 0
M  V30 8827 C 1363.97 0.783801 -6.99623 0
M  V30 8828 C 1364.68 0.0619192 -5.85967 0
M  V30 8829 N 1364.63 0.7859 -4.56281 0
M  V30 8830 C 1364.48 0.0359258 -3.39981 0
M  V30 8831 O 1364.39 -1.19723 -3.49038 0
M  V30 8832 N 1364.43 0.869151 -2.14025 0
M  V30 8833 C 1364.53 2.01207 -2.14363 0
M  V30 8834 N 1364.48 2.58978 -0.954287 0
M  V30 8835 C 1364.68 2.80817 -3.32215 0
M  V30 8836 C 1364.73 2.13785 -4.50884 0
M  V30 8837 H 1367.47 1.93401 -8.46693 0
M  V30 8838 H 1367.74 1.68181 -6.71046 0
M  V30 8839 H 1366.87 -0.289076 -8.15488 0
M  V30 8840 H 1364.22 -0.927166 -5.72947 0
M  V30 8841 H 1363.94 1.87 -6.82132 0
M  V30 8842 H 1362.95 0.404009 -7.13457 0
M  V30 8843 H 1364.78 1.20599 -8.97534 0
M  V30 8844 H 1364.85 2.70295 -5.43162 0
M  V30 8845 H 1364.75 3.89465 -3.27406 0
M  V30 8846 H 1364.36 2.01616 -0.107046 0
M  V30 8847 H 1364.56 3.61403 -0.873101 0
M  V30 8848 P 1362.91 -1.17771 -8.83182 0
M  V30 8849 O 1362.69 -2.07206 -9.98732 0
M  V30 8850 O 1362.12 0.0743816 -8.81969 0
M  V30 8851 O 1362.66 -1.97652 -7.47304 0
M  V30 8852 C 1363.6 -3.01055 -7.08599 0
M  V30 8853 C 1362.87 -4.12613 -6.37049 0
M  V30 8854 O 1362.66 -3.72827 -4.97879 0
M  V30 8855 C 1361.47 -4.45719 -6.88164 0
M  V30 8856 O 1361.08 -5.7877 -6.5624 0
M  V30 8857 C 1360.59 -3.47768 -6.11991 0
M  V30 8858 C 1361.3 -3.39356 -4.77615 0
M  V30 8859 N 1361.25 -2.04571 -4.15244 0
M  V30 8860 C 1361.1 -1.98587 -2.78314 0
M  V30 8861 O 1361.01 -2.98134 -2.08835 0
M  V30 8862 N 1361.06 -0.714467 -2.24925 0
M  V30 8863 C 1361.15 0.470001 -2.94169 0
M  V30 8864 O 1361.1 1.55587 -2.35195 0
M  V30 8865 C 1361.3 0.312541 -4.36783 0
M  V30 8866 C 1361.41 1.57711 -5.16352 0
M  V30 8867 C 1361.35 -0.914512 -4.92583 0
M  V30 8868 H 1364.09 -3.41169 -7.98575 0
M  V30 8869 H 1364.36 -2.58295 -6.41556 0
M  V30 8870 H 1363.49 -5.02657 -6.42673 0
M  V30 8871 H 1360.84 -4.11637 -4.08885 0
M  V30 8872 H 1360.56 -2.49626 -6.61679 0
M  V30 8873 H 1359.57 -3.86566 -6.00778 0
M  V30 8874 H 1361.4 -4.29943 -7.96918 0
M  V30 8875 H 1361.47 -1.00937 -6.00374 0
M  V30 8876 H 1360.44 1.80153 -5.63503 0
M  V30 8877 H 1362.18 1.4566 -5.94104 0
M  V30 8878 H 1361.69 2.40664 -4.49645 0
M  V30 8879 H 1360.96 -0.647622 -1.25697 0
M  V30 8880 P 1359.53 -6.144 -6.45285 0
M  V30 8881 O 1359.31 -7.54673 -6.86199 0
M  V30 8882 O 1358.74 -5.12391 -7.179 0
M  V30 8883 O 1359.28 -5.99236 -4.88467 0
M  V30 8884 C 1360.22 -6.60234 -3.96415 0
M  V30 8885 C 1359.49 -7.08079 -2.736 0
M  V30 8886 O 1359.28 -5.94365 -1.8368 0
M  V30 8887 C 1358.09 -7.64886 -2.9555 0
M  V30 8888 O 1357.7 -8.5406 -1.90739 0
M  V30 8889 C 1357.21 -6.4116 -2.90739 0
M  V30 8890 C 1357.92 -5.55375 -1.86963 0
M  V30 8891 N 1357.87 -4.09664 -2.15742 0
M  V30 8892 C 1357.72 -3.22231 -1.08477 0
M  V30 8893 O 1357.63 -3.68951 0.0600489 0
M  V30 8894 N 1357.67 -1.76692 -1.48799 0
M  V30 8895 C 1357.77 -1.41695 -2.57602 0
M  V30 8896 N 1357.72 -0.107296 -2.75791 0
M  V30 8897 C 1357.92 -2.29178 -3.69733 0
M  V30 8898 C 1357.97 -3.62753 -3.42653 0
M  V30 8899 H 1360.71 -7.45488 -4.45578 0
M  V30 8900 H 1360.98 -5.86232 -3.67314 0
M  V30 8901 H 1360.11 -7.84508 -2.24507 0
M  V30 8902 H 1357.46 -5.73556 -0.888715 0
M  V30 8903 H 1357.18 -5.9096 -3.88638 0
M  V30 8904 H 1356.19 -6.66053 -2.58894 0
M  V30 8905 H 1358.02 -8.16339 -3.92049 0
M  V30 8906 H 1358.09 -4.33052 -4.24913 0
M  V30 8907 H 1357.99 -1.9103 -4.71577 0
M  V30 8908 H 1357.6 0.521221 -1.95056 0
M  V30 8909 H 1357.8 0.286429 -3.70695 0
M  V30 8910 P 1356.15 -8.7635 -1.60911 0
M  V30 8911 O 1355.93 -10.1388 -1.11561 0
M  V30 8912 O 1355.36 -8.36503 -2.79617 0
M  V30 8913 O 1355.9 -7.71806 -0.42951 0
M  V30 8914 C 1356.84 -7.67148 0.673689 0
M  V30 8915 C 1356.11 -7.33374 1.95559 0
M  V30 8916 O 1355.9 -5.88721 2.00726 0
M  V30 8917 C 1354.71 -7.92526 2.10483 0
M  V30 8918 O 1354.32 -8.02971 3.47653 0
M  V30 8919 C 1353.83 -6.89602 1.41652 0
M  V30 8920 C 1354.54 -5.59201 1.75185 0
M  V30 8921 N 1354.49 -4.58235 0.662552 0
M  V30 8922 C 1354.57 -4.7683 -0.704049 0
M  V30 8923 N 1354.49 -3.66233 -1.39775 0
M  V30 8924 C 1354.35 -2.66526 -0.431739 0
M  V30 8925 C 1354.22 -1.26394 -0.575992 0
M  V30 8926 N 1354.1 -0.62859 0.67177 0
M  V30 8927 C 1354.1 -1.27134 1.89385 0
M  V30 8928 N 1353.97 -0.492035 2.96951 0
M  V30 8929 N 1354.23 -2.58978 2.02907 0
M  V30 8930 C 1354.35 -3.22433 0.832218 0
M  V30 8931 H 1357.33 -8.65116 0.777161 0
M  V30 8932 H 1357.6 -6.90173 0.474152 0
M  V30 8933 H 1356.73 -7.66548 2.79458 0
M  V30 8934 P 1352.77 -8.03563 3.84925 0
M  V30 8935 O 1352.55 -8.85821 5.0569 0
M  V30 8936 O 1351.98 -8.41101 2.65469 0
M  V30 8937 O 1352.52 -6.4965 4.18908 0
M  V30 8938 C 1353.46 -5.81037 5.05421 0
M  V30 8939 C 1352.73 -4.78366 5.89277 0
M  V30 8940 O 1352.52 -3.58302 5.08433 0
M  V30 8941 C 1351.33 -5.17448 6.36119 0
M  V30 8942 O 1350.94 -4.45271 7.53232 0
M  V30 8943 C 1350.45 -4.74639 5.19936 0
M  V30 8944 C 1351.16 -3.49432 4.70418 0
M  V30 8945 N 1351.11 -3.31776 3.22945 0
M  V30 8946 C 1351.19 -4.27147 2.23315 0
M  V30 8947 N 1351.11 -3.78447 1.02186 0
M  V30 8948 C 1350.97 -2.41001 1.21732 0
M  V30 8949 C 1350.84 -1.36111 0.27694 0
M  V30 8950 O 1350.82 -1.42065 -0.951767 0
M  V30 8951 N 1350.72 -0.113683 0.912949 0
M  V30 8952 C 1350.72 0.0846396 2.27943 0
M  V30 8953 N 1350.59 1.34737 2.6916 0
M  V30 8954 N 1350.85 -0.902521 3.16379 0
M  V30 8955 C 1350.97 -2.11937 2.56849 0
M  V30 8956 H 1353.95 -6.54213 5.71376 0
M  V30 8957 H 1354.22 -5.30492 4.44033 0
M  V30 8958 H 1353.36 -4.55889 6.76652 0
M  V30 8959 H 1350.7 -2.6176 5.18021 0
M  V30 8960 H 1350.42 -5.52233 4.41941 0
M  V30 8961 H 1349.43 -4.52045 5.53452 0
M  V30 8962 H 1351.26 -6.25193 6.55307 0
M  V30 8963 H 1351.31 -5.3351 2.43857 0
M  V30 8964 H 1350.63 0.69331 0.330371 0
M  V30 8965 H 1350.59 1.56433 3.6988 0
M  V30 8966 H 1350.49 2.10701 2.00133 0
M  V30 8967 P 1349.39 -4.23843 7.83734 0
M  V30 8968 O 1349.17 -4.19407 9.29784 0
M  V30 8969 O 1348.6 -5.24426 7.09156 0
M  V30 8970 O 1349.14 -2.79386 7.20852 0
M  V30 8971 C 1350.08 -1.7299 7.50419 0
M  V30 8972 C 1349.35 -0.41401 7.5797 0
M  V30 8973 O 1349.14 0.089787 6.22035 0
M  V30 8974 C 1347.95 -0.447224 8.1878 0
M  V30 8975 O 1347.56 0.825159 8.71201 0
M  V30 8976 C 1347.07 -0.783801 6.99623 0
M  V30 8977 C 1347.78 -0.0619192 5.85967 0
M  V30 8978 N 1347.73 -0.7859 4.56281 0
M  V30 8979 C 1347.58 -0.0359258 3.39981 0
M  V30 8980 O 1347.49 1.19723 3.49038 0
M  V30 8981 N 1347.53 -0.869151 2.14025 0
M  V30 8982 C 1347.63 -2.01207 2.14363 0
M  V30 8983 N 1347.58 -2.58978 0.954287 0
M  V30 8984 C 1347.78 -2.80817 3.32215 0
M  V30 8985 C 1347.83 -2.13785 4.50884 0
M  V30 8986 H 1350.57 -1.93401 8.46693 0
M  V30 8987 H 1350.84 -1.68181 6.71046 0
M  V30 8988 H 1349.98 0.289076 8.15488 0
M  V30 8989 H 1347.32 0.927166 5.72947 0
M  V30 8990 H 1347.04 -1.87 6.82132 0
M  V30 8991 H 1346.05 -0.404009 7.13457 0
M  V30 8992 H 1347.88 -1.20599 8.97534 0
M  V30 8993 H 1347.96 -2.70295 5.43162 0
M  V30 8994 H 1347.85 -3.89465 3.27406 0
M  V30 8995 H 1347.47 -2.01616 0.107046 0
M  V30 8996 H 1347.66 -3.61403 0.873101 0
M  V30 8997 P 1346.01 1.17771 8.83182 0
M  V30 8998 O 1345.79 2.07206 9.98732 0
M  V30 8999 O 1345.22 -0.0743816 8.81969 0
M  V30 9000 O 1345.76 1.97652 7.47304 0
M  V30 9001 C 1346.7 3.01133 7.08783 0
M  V30 9002 C 1345.97 4.12613 6.37049 0
M  V30 9003 O 1345.76 3.72827 4.97879 0
M  V30 9004 C 1344.57 4.45085 6.88694 0
M  V30 9005 O 1344.18 5.7877 6.5624 0
M  V30 9006 C 1343.69 3.47817 6.12078 0
M  V30 9007 C 1344.4 3.39414 4.77697 0
M  V30 9008 N 1344.35 2.04199 4.15538 0
M  V30 9009 H 1347.19 3.41248 7.98759 0
M  V30 9010 H 1347.46 2.57728 6.42 0
M  V30 9011 H 1346.6 5.02657 6.42673 0
M  V30 9012 H 1343.94 4.11708 4.08956 0
M  V30 9013 H 1343.66 2.49626 6.61679 0
M  V30 9014 H 1342.67 3.8662 6.00862 0
M  V30 9015 H 1344.5 4.29991 7.97006 0
M  V30 9016 P 1342.63 6.144 6.45285 0
M  V30 9017 O 1342.41 7.54673 6.86199 0
M  V30 9018 O 1341.84 5.12391 7.179 0
M  V30 9019 O 1342.38 5.99158 4.88404 0
M  V30 9020 C 1343.32 6.60234 3.96415 0
M  V30 9021 C 1342.59 7.08259 2.72856 0
M  V30 9022 O 1342.38 5.9427 1.83651 0
M  V30 9023 C 1341.19 7.64886 2.9555 0
M  V30 9024 O 1340.8 8.53963 1.90717 0
M  V30 9025 C 1340.31 6.4116 2.90739 0
M  V30 9026 C 1341.02 5.55375 1.86963 0
M  V30 9027 N 1340.97 4.09664 2.15742 0
M  V30 9028 H 1343.81 7.45574 4.45629 0
M  V30 9029 H 1344.08 5.86232 3.67314 0
M  V30 9030 H 1343.22 7.84412 2.24479 0
M  V30 9031 P 1339.25 8.7635 1.60911 0
M  V30 9032 O 1339.03 10.1388 1.11561 0
M  V30 9033 O 1338.46 8.36503 2.79617 0
M  V30 9034 O 1339 7.71806 0.42951 0
M  V30 9035 C 1339.94 7.67148 -0.673689 0
M  V30 9036 C 1339.21 7.33374 -1.95559 0
M  V30 9037 O 1339 5.88721 -2.00726 0
M  V30 9038 C 1337.81 7.92526 -2.10483 0
M  V30 9039 O 1337.42 8.02971 -3.47653 0
M  V30 9040 C 1336.93 6.89602 -1.41652 0
M  V30 9041 C 1337.64 5.59201 -1.75185 0
M  V30 9042 N 1337.59 4.58301 -0.657969 0
M  V30 9043 H 1340.43 8.65116 -0.777161 0
M  V30 9044 H 1340.7 6.9022 -0.46725 0
M  V30 9045 H 1339.84 7.66548 -2.79458 0
M  V30 9046 H 1337.18 5.16165 -2.65183 0
M  V30 9047 H 1336.9 7.06433 -0.329384 0
M  V30 9048 H 1335.91 6.90926 -1.82021 0
M  V30 9049 H 1337.74 8.90873 -1.62657 0
M  V30 9050 P 1335.87 8.03563 -3.84925 0
M  V30 9051 O 1335.65 8.85821 -5.0569 0
M  V30 9052 O 1335.08 8.41101 -2.65469 0
M  V30 9053 O 1335.62 6.4965 -4.18908 0
M  V30 9054 C 1336.56 5.81037 -5.05421 0
M  V30 9055 C 1335.83 4.78366 -5.89277 0
M  V30 9056 O 1335.62 3.58302 -5.08433 0
M  V30 9057 C 1334.43 5.17448 -6.36119 0
M  V30 9058 O 1334.04 4.45271 -7.53232 0
M  V30 9059 C 1333.55 4.74639 -5.19936 0
M  V30 9060 C 1334.26 3.49432 -4.70418 0
M  V30 9061 N 1334.21 3.31776 -3.22945 0
M  V30 9062 H 1337.05 6.54213 -5.71376 0
M  V30 9063 H 1337.32 5.30492 -4.44033 0
M  V30 9064 H 1336.46 4.55889 -6.76652 0
M  V30 9065 P 1332.49 4.23843 -7.83734 0
M  V30 9066 O 1332.27 4.19407 -9.29784 0
M  V30 9067 O 1331.7 5.24426 -7.09156 0
M  V30 9068 O 1332.24 2.7935 -7.20758 0
M  V30 9069 C 1333.18 1.7299 -7.50419 0
M  V30 9070 C 1332.45 0.406376 -7.57911 0
M  V30 9071 O 1332.24 -0.0897726 -6.21935 0
M  V30 9072 C 1331.05 0.447224 -8.1878 0
M  V30 9073 O 1330.66 -0.825065 -8.71101 0
M  V30 9074 C 1330.17 0.783801 -6.99623 0
M  V30 9075 C 1330.88 0.0619192 -5.85967 0
M  V30 9076 N 1330.83 0.790462 -4.56202 0
M  V30 9077 H 1333.67 1.93423 -8.4679 0
M  V30 9078 H 1333.94 1.68852 -6.70877 0
M  V30 9079 H 1333.08 -0.289041 -8.15388 0
M  V30 9080 H 1330.42 -0.927006 -5.72848 0
M  V30 9081 H 1330.14 1.86973 -6.82036 0
M  V30 9082 H 1329.15 0.403953 -7.13357 0
M  V30 9083 H 1330.98 1.20599 -8.97534 0
M  V30 9084 P 1329.11 -1.17771 -8.83182 0
M  V30 9085 O 1328.89 -2.07206 -9.98732 0
M  V30 9086 O 1328.32 0.0743816 -8.81969 0
M  V30 9087 O 1328.86 -1.97652 -7.47304 0
M  V30 9088 C 1329.8 -3.01133 -7.08783 0
M  V30 9089 C 1329.07 -4.12613 -6.37049 0
M  V30 9090 O 1328.86 -3.72827 -4.97879 0
M  V30 9091 C 1327.67 -4.45085 -6.88694 0
M  V30 9092 O 1327.28 -5.7877 -6.5624 0
M  V30 9093 C 1326.79 -3.47817 -6.12078 0
M  V30 9094 C 1327.5 -3.39414 -4.77697 0
M  V30 9095 N 1327.45 -2.04615 -4.15333 0
M  V30 9096 H 1330.29 -3.41248 -7.98759 0
M  V30 9097 H 1330.56 -2.5837 -6.41742 0
M  V30 9098 H 1329.7 -5.02657 -6.42673 0
M  V30 9099 P 1325.73 -6.144 -6.45285 0
M  V30 9100 O 1325.51 -7.54673 -6.86199 0
M  V30 9101 O 1324.94 -5.12391 -7.179 0
M  V30 9102 O 1325.48 -5.99158 -4.88404 0
M  V30 9103 C 1326.42 -6.60234 -3.96415 0
M  V30 9104 C 1325.69 -7.08259 -2.72856 0
M  V30 9105 O 1325.48 -5.9427 -1.83651 0
M  V30 9106 C 1324.29 -7.64886 -2.9555 0
M  V30 9107 O 1323.9 -8.53963 -1.90717 0
M  V30 9108 C 1323.41 -6.4116 -2.90739 0
M  V30 9109 C 1324.12 -5.55375 -1.86963 0
M  V30 9110 N 1324.07 -4.09664 -2.15742 0
M  V30 9111 H 1326.91 -7.45574 -4.45629 0
M  V30 9112 H 1327.18 -5.86232 -3.67314 0
M  V30 9113 H 1326.32 -7.84412 -2.24479 0
M  V30 9114 P 1322.35 -8.7635 -1.60911 0
M  V30 9115 O 1322.13 -10.1388 -1.11561 0
M  V30 9116 O 1321.56 -8.36503 -2.79617 0
M  V30 9117 O 1322.1 -7.71906 -0.429565 0
M  V30 9118 C 1323.04 -7.67148 0.673689 0
M  V30 9119 C 1322.31 -7.33666 1.94851 0
M  V30 9120 O 1322.1 -5.88816 2.00759 0
M  V30 9121 C 1320.91 -7.92526 2.10483 0
M  V30 9122 O 1320.52 -8.03063 3.47693 0
M  V30 9123 C 1320.03 -6.89602 1.41652 0
M  V30 9124 C 1320.74 -5.59201 1.75185 0
M  V30 9125 N 1320.69 -4.58235 0.662552 0
M  V30 9126 C 1320.54 -3.24451 1.01643 0
M  V30 9127 O 1320.45 -2.94958 2.21722 0
M  V30 9128 N 1320.49 -2.30408 -0.165238 0
M  V30 9129 C 1320.59 -2.66048 -1.25118 0
M  V30 9130 N 1320.54 -1.70787 -2.16813 0
M  V30 9131 C 1320.74 -4.02732 -1.64413 0
M  V30 9132 C 1320.79 -4.9488 -0.63991 0
M  V30 9133 H 1323.53 -8.65017 0.777072 0
M  V30 9134 H 1323.8 -6.90173 0.474152 0
M  V30 9135 H 1322.94 -7.66642 2.79492 0
M  V30 9136 H 1320.28 -5.16254 2.65229 0
M  V30 9137 H 1320 -7.06532 0.329431 0
M  V30 9138 H 1319.01 -6.91023 1.82047 0
M  V30 9139 H 1320.84 -8.90873 1.62657 0
M  V30 9140 H 1320.92 -6.00104 -0.892197 0
M  V30 9141 H 1320.81 -4.31733 -2.69229 0
M  V30 9142 H 1320.43 -0.724835 -1.8844 0
M  V30 9143 H 1320.62 -1.94716 -3.16734 0
M  V30 9144 P 1318.97 -8.03563 3.84925 0
M  V30 9145 O 1318.75 -8.85821 5.0569 0
M  V30 9146 O 1318.18 -8.41101 2.65469 0
M  V30 9147 O 1318.72 -6.4965 4.18908 0
M  V30 9148 C 1319.66 -5.81037 5.05421 0
M  V30 9149 C 1318.93 -4.78366 5.89277 0
M  V30 9150 O 1318.72 -3.58302 5.08433 0
M  V30 9151 C 1317.53 -5.17448 6.36119 0
M  V30 9152 O 1317.14 -4.45271 7.53232 0
M  V30 9153 C 1316.65 -4.74639 5.19936 0
M  V30 9154 C 1317.36 -3.49432 4.70418 0
M  V30 9155 N 1317.31 -3.32099 3.22613 0
M  V30 9156 H 1320.15 -6.54213 5.71376 0
M  V30 9157 H 1320.42 -5.30936 4.43503 0
M  V30 9158 H 1319.56 -4.55889 6.76652 0
M  V30 9159 H 1316.9 -2.61715 5.17932 0
M  V30 9160 H 1316.62 -5.52155 4.41878 0
M  V30 9161 H 1315.63 -4.51981 5.53374 0
M  V30 9162 H 1317.46 -6.25124 6.55234 0
M  V30 9163 P 1315.59 -4.23843 7.83734 0
M  V30 9164 O 1315.37 -4.19407 9.29784 0
M  V30 9165 O 1314.8 -5.24426 7.09156 0
M  V30 9166 O 1315.34 -2.7935 7.20758 0
M  V30 9167 C 1316.28 -1.7299 7.50419 0
M  V30 9168 C 1315.55 -0.406376 7.57911 0
M  V30 9169 O 1315.34 0.0897726 6.21935 0
M  V30 9170 C 1314.15 -0.447224 8.1878 0
M  V30 9171 O 1313.76 0.825065 8.71101 0
M  V30 9172 C 1313.27 -0.783801 6.99623 0
M  V30 9173 C 1313.98 -0.0619192 5.85967 0
M  V30 9174 N 1313.93 -0.7859 4.56281 0
M  V30 9175 C 1314.01 -2.14308 4.31736 0
M  V30 9176 N 1313.93 -2.46106 3.05116 0
M  V30 9177 C 1313.79 -1.23422 2.4014 0
M  V30 9178 C 1313.66 -0.938381 1.02409 0
M  V30 9179 N 1313.54 0.444647 0.805413 0
M  V30 9180 C 1313.54 1.40829 1.79435 0
M  V30 9181 N 1313.41 2.67213 1.38558 0
M  V30 9182 N 1313.67 1.12947 3.09005 0
M  V30 9183 C 1313.79 -0.204887 3.32369 0
M  V30 9184 H 1316.77 -1.93423 8.4679 0
M  V30 9185 H 1317.04 -1.68181 6.71046 0
M  V30 9186 H 1316.18 0.289041 8.15388 0
M  V30 9187 P 1312.21 1.17771 8.83182 0
M  V30 9188 O 1311.99 2.07206 9.98732 0
M  V30 9189 O 1311.42 -0.0743816 8.81969 0
M  V30 9190 O 1311.96 1.97652 7.47304 0
M  V30 9191 C 1312.9 3.01133 7.08783 0
M  V30 9192 C 1312.17 4.12613 6.37049 0
M  V30 9193 O 1311.96 3.72827 4.97879 0
M  V30 9194 C 1310.77 4.45085 6.88694 0
M  V30 9195 O 1310.38 5.7877 6.5624 0
M  V30 9196 C 1309.89 3.47817 6.12078 0
M  V30 9197 C 1310.6 3.39414 4.77697 0
M  V30 9198 N 1310.55 2.04199 4.15538 0
M  V30 9199 C 1310.63 0.821545 4.76977 0
M  V30 9200 N 1310.56 -0.1794 3.94592 0
M  V30 9201 C 1310.41 0.419121 2.70776 0
M  V30 9202 C 1310.28 -0.109072 1.40577 0
M  V30 9203 N 1310.27 -1.4104 1.1344 0
M  V30 9204 N 1310.16 0.764381 0.39411 0
M  V30 9205 C 1310.17 2.06587 0.664135 0
M  V30 9206 N 1310.29 2.67948 1.82153 0
M  V30 9207 C 1310.41 1.77942 2.8147 0
M  V30 9208 H 1313.39 3.41248 7.98759 0
M  V30 9209 H 1313.66 2.57728 6.42 0
M  V30 9210 H 1312.8 5.02657 6.42673 0
M  V30 9211 H 1310.14 4.11708 4.08956 0
M  V30 9212 H 1309.86 2.49626 6.61679 0
M  V30 9213 H 1308.87 3.8662 6.00862 0
M  V30 9214 H 1310.7 4.29991 7.97006 0
M  V30 9215 H 1310.74 0.702451 5.84696 0
M  V30 9216 H 1310.36 -2.09647 1.89651 0
M  V30 9217 H 1310.17 -1.73358 0.160575 0
M  V30 9218 H 1310.07 2.71695 -0.195838 0
M  V30 9219 P 1308.83 6.144 6.45285 0
M  V30 9220 O 1308.61 7.54673 6.86199 0
M  V30 9221 O 1308.04 5.12391 7.179 0
M  V30 9222 O 1308.58 5.99158 4.88404 0
M  V30 9223 C 1309.52 6.60062 3.96313 0
M  V30 9224 C 1308.79 7.08259 2.72856 0
M  V30 9225 O 1308.58 5.9427 1.83651 0
M  V30 9226 C 1307.39 7.65087 2.94749 0
M  V30 9227 O 1307 8.53963 1.90717 0
M  V30 9228 C 1306.51 6.41069 2.90698 0
M  V30 9229 C 1307.22 5.5528 1.86931 0
M  V30 9230 N 1307.17 4.09575 2.15696 0
M  V30 9231 C 1307.02 3.24249 1.08435 0
M  V30 9232 O 1306.93 3.63946 -0.0628747 0
M  V30 9233 N 1306.98 1.90009 1.39973 0
M  V30 9234 C 1307.07 1.34884 2.65614 0
M  V30 9235 O 1307.02 0.123716 2.81728 0
M  V30 9236 C 1307.22 2.3145 3.71736 0
M  V30 9237 C 1307.33 1.75913 5.10438 0
M  V30 9238 C 1307.27 3.63518 3.44754 0
M  V30 9239 H 1310.01 7.45402 4.45526 0
M  V30 9240 H 1310.28 5.86062 3.67208 0
M  V30 9241 H 1309.42 7.84412 2.24479 0
M  V30 9242 H 1306.76 5.73358 0.888409 0
M  V30 9243 H 1306.48 5.90877 3.88583 0
M  V30 9244 H 1305.49 6.65867 2.58821 0
M  V30 9245 H 1307.32 8.16248 3.92006 0
M  V30 9246 H 1307.39 4.34551 4.26383 0
M  V30 9247 H 1306.36 1.85471 5.61775 0
M  V30 9248 H 1308.1 2.31364 5.66257 0
M  V30 9249 H 1307.61 0.695936 5.05229 0
M  V30 9250 H 1306.88 1.26277 0.63625 0
M  V30 9251 P 1305.45 8.7635 1.60911 0
M  V30 9252 O 1305.23 10.1388 1.11561 0
M  V30 9253 O 1304.66 8.36503 2.79617 0
M  V30 9254 O 1305.2 7.71806 0.42951 0
M  V30 9255 C 1306.14 7.67148 -0.673689 0
M  V30 9256 C 1305.41 7.33374 -1.95559 0
M  V30 9257 O 1305.2 5.88721 -2.00726 0
M  V30 9258 C 1304.01 7.92526 -2.10483 0
M  V30 9259 O 1303.62 8.02971 -3.47653 0
M  V30 9260 C 1303.13 6.89602 -1.41652 0
M  V30 9261 C 1303.84 5.59201 -1.75185 0
M  V30 9262 N 1303.79 4.58235 -0.662552 0
M  V30 9263 H 1306.63 8.65116 -0.777161 0
M  V30 9264 H 1306.9 6.90173 -0.474152 0
M  V30 9265 H 1306.04 7.66548 -2.79458 0
M  V30 9266 P 1302.07 8.03563 -3.84925 0
M  V30 9267 O 1301.85 8.85821 -5.0569 0
M  V30 9268 O 1301.28 8.41101 -2.65469 0
M  V30 9269 O 1301.82 6.4965 -4.18908 0
M  V30 9270 C 1302.76 5.80886 -5.05289 0
M  V30 9271 C 1302.03 4.78366 -5.89277 0
M  V30 9272 O 1301.82 3.58302 -5.08433 0
M  V30 9273 C 1300.63 5.16748 -6.36559 0
M  V30 9274 O 1300.24 4.45271 -7.53232 0
M  V30 9275 C 1299.75 4.74572 -5.19863 0
M  V30 9276 C 1300.46 3.49373 -4.70338 0
M  V30 9277 N 1300.41 3.31704 -3.22876 0
M  V30 9278 C 1300.26 2.03326 -2.74871 0
M  V30 9279 O 1300.17 1.06486 -3.48076 0
M  V30 9280 N 1300.22 1.91838 -1.37456 0
M  V30 9281 C 1300.31 2.94295 -0.462035 0
M  V30 9282 O 1300.26 2.71763 0.752928 0
M  V30 9283 C 1300.46 4.25064 -1.05249 0
M  V30 9284 C 1300.57 5.39815 -0.095697 0
M  V30 9285 C 1300.51 4.40214 -2.39192 0
M  V30 9286 H 1303.25 6.54063 -5.71245 0
M  V30 9287 H 1303.52 5.30339 -4.43905 0
M  V30 9288 H 1302.66 4.55889 -6.76652 0
M  V30 9289 H 1300 2.6167 -5.17842 0
M  V30 9290 H 1299.72 5.52155 -4.41878 0
M  V30 9291 H 1298.73 4.51918 -5.53297 0
M  V30 9292 H 1300.56 6.25055 -6.55162 0
M  V30 9293 H 1300.63 5.39798 -2.81523 0
M  V30 9294 H 1299.6 5.91593 -0.0279582 0
M  V30 9295 H 1301.34 6.10038 -0.450573 0
M  V30 9296 H 1300.85 5.02007 0.89937 0
M  V30 9297 H 1300.12 0.995326 -1.00435 0
M  V30 9298 P 1298.69 4.23843 -7.83734 0
M  V30 9299 O 1298.47 4.19407 -9.29784 0
M  V30 9300 O 1297.9 5.24426 -7.09156 0
M  V30 9301 O 1298.44 2.7935 -7.20758 0
M  V30 9302 C 1299.38 1.72945 -7.50224 0
M  V30 9303 C 1298.65 0.406376 -7.57911 0
M  V30 9304 O 1298.44 -0.0897726 -6.21935 0
M  V30 9305 C 1297.25 0.438983 -8.18724 0
M  V30 9306 O 1296.86 -0.825065 -8.71101 0
M  V30 9307 C 1296.37 0.783689 -6.99524 0
M  V30 9308 C 1297.08 0.0619086 -5.85867 0
M  V30 9309 N 1297.03 0.78573 -4.56183 0
M  V30 9310 C 1296.88 0.0292889 -3.41887 0
M  V30 9311 O 1296.79 -1.18445 -3.4419 0
M  V30 9312 N 1296.84 0.744061 -2.23964 0
M  V30 9313 C 1296.93 2.10932 -2.10362 0
M  V30 9314 O 1296.88 2.64117 -0.98825 0
M  V30 9315 C 1297.08 2.8202 -3.34994 0
M  V30 9316 C 1297.19 4.31095 -3.25037 0
M  V30 9317 C 1297.13 2.15547 -4.52261 0
M  V30 9318 H 1299.87 1.93379 -8.46595 0
M  V30 9319 H 1300.14 1.68132 -6.70852 0
M  V30 9320 H 1299.28 -0.289041 -8.15388 0
M  V30 9321 H 1296.62 -0.926847 -5.72749 0
M  V30 9322 H 1296.34 1.86973 -6.82036 0
M  V30 9323 H 1295.35 0.403896 -7.13257 0
M  V30 9324 H 1297.18 1.20585 -8.97435 0
M  V30 9325 H 1297.25 2.71231 -5.45042 0
M  V30 9326 H 1296.22 4.76966 -3.49992 0
M  V30 9327 H 1297.96 4.67047 -3.95024 0
M  V30 9328 H 1297.47 4.58996 -2.22312 0
M  V30 9329 H 1296.74 0.214893 -1.39758 0
M  V30 9330 P 1295.31 -1.17771 -8.83182 0
M  V30 9331 O 1295.09 -2.07206 -9.98732 0
M  V30 9332 O 1294.52 0.0743816 -8.81969 0
M  V30 9333 O 1295.06 -1.97652 -7.47304 0
M  V30 9334 C 1296 -3.01133 -7.08783 0
M  V30 9335 C 1295.27 -4.12613 -6.37049 0
M  V30 9336 O 1295.06 -3.72827 -4.97879 0
M  V30 9337 C 1293.87 -4.45085 -6.88694 0
M  V30 9338 O 1293.48 -5.7877 -6.5624 0
M  V30 9339 C 1292.99 -3.47817 -6.12078 0
M  V30 9340 C 1293.7 -3.39414 -4.77697 0
M  V30 9341 N 1293.65 -2.04199 -4.15538 0
M  V30 9342 H 1296.49 -3.41248 -7.98759 0
M  V30 9343 H 1296.76 -2.57728 -6.42 0
M  V30 9344 H 1295.9 -5.02657 -6.42673 0
M  V30 9345 H 1293.24 -4.11708 -4.08956 0
M  V30 9346 H 1292.96 -2.49626 -6.61679 0
M  V30 9347 H 1291.97 -3.8662 -6.00862 0
M  V30 9348 H 1293.8 -4.29991 -7.97006 0
M  V30 9349 P 1291.93 -6.144 -6.45285 0
M  V30 9350 O 1291.71 -7.54673 -6.86199 0
M  V30 9351 O 1291.14 -5.12391 -7.179 0
M  V30 9352 O 1291.68 -5.99158 -4.88404 0
M  V30 9353 C 1292.62 -6.60234 -3.96415 0
M  V30 9354 C 1291.89 -7.08259 -2.72856 0
M  V30 9355 O 1291.68 -5.9427 -1.83651 0
M  V30 9356 C 1290.49 -7.64886 -2.9555 0
M  V30 9357 O 1290.1 -8.53963 -1.90717 0
M  V30 9358 C 1289.61 -6.4116 -2.90739 0
M  V30 9359 C 1290.32 -5.55375 -1.86963 0
M  V30 9360 N 1290.27 -4.09664 -2.15742 0
M  V30 9361 H 1293.11 -7.45574 -4.45629 0
M  V30 9362 H 1293.38 -5.86232 -3.67314 0
M  V30 9363 H 1292.52 -7.84412 -2.24479 0
M  V30 9364 P 1288.55 -8.7635 -1.60911 0
M  V30 9365 O 1288.33 -10.1388 -1.11561 0
M  V30 9366 O 1287.76 -8.36503 -2.79617 0
M  V30 9367 O 1288.3 -7.71906 -0.429565 0
M  V30 9368 C 1289.24 -7.67148 0.673689 0
M  V30 9369 C 1288.51 -7.33666 1.94851 0
M  V30 9370 O 1288.3 -5.88816 2.00759 0
M  V30 9371 C 1287.11 -7.92526 2.10483 0
M  V30 9372 O 1286.72 -8.03063 3.47693 0
M  V30 9373 C 1286.23 -6.89602 1.41652 0
M  V30 9374 C 1286.94 -5.59201 1.75185 0
M  V30 9375 N 1286.89 -4.58235 0.662552 0
M  V30 9376 C 1286.74 -3.24451 1.01643 0
M  V30 9377 O 1286.65 -2.94958 2.21722 0
M  V30 9378 N 1286.69 -2.30408 -0.165238 0
M  V30 9379 C 1286.79 -2.66048 -1.25118 0
M  V30 9380 N 1286.74 -1.70787 -2.16813 0
M  V30 9381 C 1286.94 -4.02732 -1.64413 0
M  V30 9382 C 1286.99 -4.9488 -0.63991 0
M  V30 9383 H 1289.73 -8.65017 0.777072 0
M  V30 9384 H 1290 -6.90173 0.474152 0
M  V30 9385 H 1289.14 -7.66642 2.79492 0
M  V30 9386 H 1286.48 -5.16254 2.65229 0
M  V30 9387 H 1286.2 -7.06532 0.329431 0
M  V30 9388 H 1285.21 -6.91023 1.82047 0
M  V30 9389 H 1287.04 -8.90873 1.62657 0
M  V30 9390 H 1287.12 -6.00104 -0.892197 0
M  V30 9391 H 1287.01 -4.31733 -2.69229 0
M  V30 9392 H 1286.63 -0.724835 -1.8844 0
M  V30 9393 H 1286.82 -1.94716 -3.16734 0
M  V30 9394 P 1285.17 -8.03563 3.84925 0
M  V30 9395 O 1284.95 -8.85821 5.0569 0
M  V30 9396 O 1284.38 -8.41101 2.65469 0
M  V30 9397 O 1284.92 -6.4965 4.18908 0
M  V30 9398 C 1285.86 -5.81037 5.05421 0
M  V30 9399 C 1285.13 -4.78366 5.89277 0
M  V30 9400 O 1284.92 -3.58302 5.08433 0
M  V30 9401 C 1283.73 -5.17448 6.36119 0
M  V30 9402 O 1283.34 -4.45271 7.53232 0
M  V30 9403 C 1282.85 -4.74639 5.19936 0
M  V30 9404 C 1283.56 -3.49432 4.70418 0
M  V30 9405 N 1283.51 -3.31776 3.22945 0
M  V30 9406 H 1286.35 -6.54213 5.71376 0
M  V30 9407 H 1286.62 -5.30492 4.44033 0
M  V30 9408 H 1285.76 -4.55889 6.76652 0
M  V30 9409 P 1281.79 -4.23843 7.83734 0
M  V30 9410 O 1281.57 -4.19407 9.29784 0
M  V30 9411 O 1281 -5.24426 7.09156 0
M  V30 9412 O 1281.54 -2.79386 7.20852 0
M  V30 9413 C 1282.48 -1.7299 7.50419 0
M  V30 9414 C 1281.75 -0.41401 7.5797 0
M  V30 9415 O 1281.54 0.089787 6.22035 0
M  V30 9416 C 1280.35 -0.447224 8.1878 0
M  V30 9417 O 1279.96 0.825159 8.71201 0
M  V30 9418 C 1279.47 -0.783801 6.99623 0
M  V30 9419 C 1280.18 -0.0619192 5.85967 0
M  V30 9420 N 1280.13 -0.7859 4.56281 0
M  V30 9421 C 1279.98 -0.0359258 3.39981 0
M  V30 9422 O 1279.89 1.19723 3.49038 0
M  V30 9423 N 1279.93 -0.869151 2.14025 0
M  V30 9424 C 1280.03 -2.01207 2.14363 0
M  V30 9425 N 1279.98 -2.58978 0.954287 0
M  V30 9426 C 1280.18 -2.80817 3.32215 0
M  V30 9427 C 1280.23 -2.13785 4.50884 0
M  V30 9428 H 1282.97 -1.93401 8.46693 0
M  V30 9429 H 1283.24 -1.68181 6.71046 0
M  V30 9430 H 1282.38 0.289076 8.15488 0
M  V30 9431 H 1279.72 0.927166 5.72947 0
M  V30 9432 H 1279.44 -1.87 6.82132 0
M  V30 9433 H 1278.45 -0.404009 7.13457 0
M  V30 9434 H 1280.28 -1.20599 8.97534 0
M  V30 9435 H 1280.36 -2.70295 5.43162 0
M  V30 9436 H 1280.25 -3.89465 3.27406 0
M  V30 9437 H 1279.87 -2.01616 0.107046 0
M  V30 9438 H 1280.06 -3.61403 0.873101 0
M  V30 9439 P 1278.41 1.17771 8.83182 0
M  V30 9440 O 1278.19 2.07206 9.98732 0
M  V30 9441 O 1277.62 -0.0743816 8.81969 0
M  V30 9442 O 1278.16 1.97652 7.47304 0
M  V30 9443 C 1279.1 3.01133 7.08783 0
M  V30 9444 C 1278.37 4.12613 6.37049 0
M  V30 9445 O 1278.16 3.72827 4.97879 0
M  V30 9446 C 1276.97 4.45085 6.88694 0
M  V30 9447 O 1276.58 5.7877 6.5624 0
M  V30 9448 C 1276.09 3.47817 6.12078 0
M  V30 9449 C 1276.8 3.39414 4.77697 0
M  V30 9450 N 1276.75 2.04615 4.15333 0
M  V30 9451 H 1279.59 3.41248 7.98759 0
M  V30 9452 H 1279.86 2.5837 6.41742 0
M  V30 9453 H 1279 5.02657 6.42673 0
M  V30 9454 P 1275.03 6.144 6.45285 0
M  V30 9455 O 1274.81 7.54673 6.86199 0
M  V30 9456 O 1274.24 5.12391 7.179 0
M  V30 9457 O 1274.78 5.99158 4.88404 0
M  V30 9458 C 1275.72 6.60234 3.96415 0
M  V30 9459 C 1274.99 7.08259 2.72856 0
M  V30 9460 O 1274.78 5.9427 1.83651 0
M  V30 9461 C 1273.59 7.64886 2.9555 0
M  V30 9462 O 1273.2 8.53963 1.90717 0
M  V30 9463 C 1272.71 6.4116 2.90739 0
M  V30 9464 C 1273.42 5.55375 1.86963 0
M  V30 9465 N 1273.37 4.09664 2.15742 0
M  V30 9466 H 1276.21 7.45574 4.45629 0
M  V30 9467 H 1276.48 5.86232 3.67314 0
M  V30 9468 H 1275.62 7.84412 2.24479 0
M  V30 9469 P 1271.65 8.7635 1.60911 0
M  V30 9470 O 1271.43 10.1388 1.11561 0
M  V30 9471 O 1270.86 8.36503 2.79617 0
M  V30 9472 O 1271.4 7.71806 0.42951 0
M  V30 9473 C 1272.34 7.67148 -0.673689 0
M  V30 9474 C 1271.61 7.33374 -1.95559 0
M  V30 9475 O 1271.4 5.88721 -2.00726 0
M  V30 9476 C 1270.21 7.92526 -2.10483 0
M  V30 9477 O 1269.82 8.02971 -3.47653 0
M  V30 9478 C 1269.33 6.89602 -1.41652 0
M  V30 9479 C 1270.04 5.59201 -1.75185 0
M  V30 9480 N 1269.99 4.58235 -0.662552 0
M  V30 9481 H 1272.83 8.65116 -0.777161 0
M  V30 9482 H 1273.1 6.90173 -0.474152 0
M  V30 9483 H 1272.24 7.66548 -2.79458 0
M  V30 9484 P 1268.27 8.03563 -3.84925 0
M  V30 9485 O 1268.05 8.85821 -5.0569 0
M  V30 9486 O 1267.48 8.41101 -2.65469 0
M  V30 9487 O 1268.02 6.4965 -4.18908 0
M  V30 9488 C 1268.96 5.81037 -5.05421 0
M  V30 9489 C 1268.23 4.78366 -5.89277 0
M  V30 9490 O 1268.02 3.58302 -5.08433 0
M  V30 9491 C 1266.83 5.17448 -6.36119 0
M  V30 9492 O 1266.44 4.45271 -7.53232 0
M  V30 9493 C 1265.95 4.74639 -5.19936 0
M  V30 9494 C 1266.66 3.49432 -4.70418 0
M  V30 9495 N 1266.61 3.31776 -3.22945 0
M  V30 9496 H 1269.45 6.54213 -5.71376 0
M  V30 9497 H 1269.72 5.30492 -4.44033 0
M  V30 9498 H 1268.86 4.55889 -6.76652 0
M  V30 9499 P 1264.89 4.23843 -7.83734 0
M  V30 9500 O 1264.67 4.19407 -9.29784 0
M  V30 9501 O 1264.1 5.24426 -7.09156 0
M  V30 9502 O 1264.64 2.7935 -7.20758 0
M  V30 9503 C 1265.58 1.7299 -7.50419 0
M  V30 9504 C 1264.85 0.406376 -7.57911 0
M  V30 9505 O 1264.64 -0.0897726 -6.21935 0
M  V30 9506 C 1263.45 0.447224 -8.1878 0
M  V30 9507 O 1263.06 -0.825065 -8.71101 0
M  V30 9508 C 1262.57 0.783801 -6.99623 0
M  V30 9509 C 1263.28 0.0619192 -5.85967 0
M  V30 9510 N 1263.23 0.790462 -4.56202 0
M  V30 9511 H 1266.07 1.93423 -8.4679 0
M  V30 9512 H 1266.34 1.68852 -6.70877 0
M  V30 9513 H 1265.48 -0.289041 -8.15388 0
M  V30 9514 H 1262.82 -0.927006 -5.72848 0
M  V30 9515 H 1262.54 1.86973 -6.82036 0
M  V30 9516 H 1261.55 0.403953 -7.13357 0
M  V30 9517 H 1263.38 1.20599 -8.97534 0
M  V30 9518 P 1261.51 -1.17771 -8.83182 0
M  V30 9519 O 1261.29 -2.07206 -9.98732 0
M  V30 9520 O 1260.72 0.0743816 -8.81969 0
M  V30 9521 O 1261.26 -1.97652 -7.47304 0
M  V30 9522 C 1262.2 -3.01133 -7.08783 0
M  V30 9523 C 1261.47 -4.12613 -6.37049 0
M  V30 9524 O 1261.26 -3.72827 -4.97879 0
M  V30 9525 C 1260.07 -4.45085 -6.88694 0
M  V30 9526 O 1259.68 -5.7877 -6.5624 0
M  V30 9527 C 1259.19 -3.47817 -6.12078 0
M  V30 9528 C 1259.9 -3.39414 -4.77697 0
M  V30 9529 N 1259.85 -2.04199 -4.15538 0
M  V30 9530 H 1262.69 -3.41248 -7.98759 0
M  V30 9531 H 1262.96 -2.57728 -6.42 0
M  V30 9532 H 1262.1 -5.02657 -6.42673 0
M  V30 9533 H 1259.44 -4.11708 -4.08956 0
M  V30 9534 H 1259.16 -2.49626 -6.61679 0
M  V30 9535 H 1258.17 -3.8662 -6.00862 0
M  V30 9536 H 1260 -4.29991 -7.97006 0
M  V30 9537 P 1258.13 -6.144 -6.45285 0
M  V30 9538 O 1257.91 -7.54673 -6.86199 0
M  V30 9539 O 1257.34 -5.12391 -7.179 0
M  V30 9540 O 1257.88 -5.99158 -4.88404 0
M  V30 9541 C 1258.82 -6.60234 -3.96415 0
M  V30 9542 C 1258.09 -7.08259 -2.72856 0
M  V30 9543 O 1257.88 -5.9427 -1.83651 0
M  V30 9544 C 1256.69 -7.64886 -2.9555 0
M  V30 9545 O 1256.3 -8.53963 -1.90717 0
M  V30 9546 C 1255.81 -6.4116 -2.90739 0
M  V30 9547 C 1256.52 -5.55375 -1.86963 0
M  V30 9548 N 1256.47 -4.09664 -2.15742 0
M  V30 9549 C 1256.55 -3.44381 -3.37233 0
M  V30 9550 N 1256.47 -2.14131 -3.28347 0
M  V30 9551 C 1256.33 -1.90247 -1.91588 0
M  V30 9552 C 1256.2 -0.683992 -1.20892 0
M  V30 9553 N 1256.08 -0.903396 0.173998 0
M  V30 9554 C 1256.08 -2.14171 0.784879 0
M  V30 9555 N 1255.95 -2.1435 2.11317 0
M  V30 9556 N 1256.21 -3.28784 0.119316 0
M  V30 9557 C 1256.33 -3.0977 -1.22194 0
M  V30 9558 H 1259.31 -7.45574 -4.45629 0
M  V30 9559 H 1259.58 -5.86232 -3.67314 0
M  V30 9560 H 1258.72 -7.84412 -2.24479 0
M  V30 9561 P 1254.75 -8.7635 -1.60911 0
M  V30 9562 O 1254.53 -10.1388 -1.11561 0
M  V30 9563 O 1253.96 -8.36503 -2.79617 0
M  V30 9564 O 1254.5 -7.71806 -0.42951 0
M  V30 9565 C 1255.44 -7.66948 0.673514 0
M  V30 9566 C 1254.71 -7.33374 1.95559 0
M  V30 9567 O 1254.5 -5.88721 2.00726 0
M  V30 9568 C 1253.31 -7.92218 2.1125 0
M  V30 9569 O 1252.92 -8.02971 3.47653 0
M  V30 9570 C 1252.43 -6.89504 1.41631 0
M  V30 9571 C 1253.14 -5.59106 1.75155 0
M  V30 9572 N 1253.09 -4.58136 0.662409 0
M  V30 9573 C 1252.94 -3.26059 1.02863 0
M  V30 9574 O 1252.85 -2.90743 2.19009 0
M  V30 9575 N 1252.9 -2.35995 -0.0155585 0
M  V30 9576 C 1252.99 -2.65248 -1.35603 0
M  V30 9577 O 1252.94 -1.75605 -2.20651 0
M  V30 9578 C 1253.14 -4.05747 -1.64698 0
M  V30 9579 C 1253.25 -4.42345 -3.09553 0
M  V30 9580 C 1253.19 -4.96734 -0.652411 0
M  V30 9581 H 1255.93 -8.64917 0.776982 0
M  V30 9582 H 1256.2 -6.89974 0.474015 0
M  V30 9583 H 1255.34 -7.66548 2.79458 0
M  V30 9584 H 1252.68 -5.16076 2.65138 0
M  V30 9585 H 1252.4 -7.06433 0.329384 0
M  V30 9586 H 1251.41 -6.90829 1.81996 0
M  V30 9587 H 1253.24 -8.90774 1.62639 0
M  V30 9588 H 1253.31 -6.02181 -0.895285 0
M  V30 9589 H 1252.28 -4.80252 -3.45468 0
M  V30 9590 H 1254.02 -5.20015 -3.22119 0
M  V30 9591 H 1253.53 -3.53269 -3.67833 0
M  V30 9592 H 1252.8 -1.39558 0.227499 0
M  V30 9593 P 1251.37 -8.03563 3.84925 0
M  V30 9594 O 1251.15 -8.85821 5.0569 0
M  V30 9595 O 1250.58 -8.41101 2.65469 0
M  V30 9596 O 1251.12 -6.49734 4.18962 0
M  V30 9597 C 1252.06 -5.81037 5.05421 0
M  V30 9598 C 1251.33 -4.79018 5.88876 0
M  V30 9599 O 1251.12 -3.58359 5.08515 0
M  V30 9600 C 1249.93 -5.17448 6.36119 0
M  V30 9601 O 1249.54 -4.45322 7.53318 0
M  V30 9602 C 1249.05 -4.74639 5.19936 0
M  V30 9603 C 1249.76 -3.49432 4.70418 0
M  V30 9604 N 1249.71 -3.31776 3.22945 0
M  V30 9605 C 1249.56 -2.02742 2.72939 0
M  V30 9606 O 1249.47 -1.08301 3.52749 0
M  V30 9607 N 1249.51 -1.96117 1.22063 0
M  V30 9608 C 1249.61 -2.8878 0.551566 0
M  V30 9609 N 1249.56 -2.65609 -0.750198 0
M  V30 9610 C 1249.76 -4.22457 1.03707 0
M  V30 9611 C 1249.81 -4.37979 2.39113 0
M  V30 9612 H 1252.55 -6.54138 5.7131 0
M  V30 9613 H 1252.82 -5.30492 4.44033 0
M  V30 9614 H 1251.96 -4.55945 6.76735 0
M  V30 9615 H 1249.3 -2.6176 5.18021 0
M  V30 9616 H 1249.02 -5.52233 4.41941 0
M  V30 9617 H 1248.03 -4.52045 5.53452 0
M  V30 9618 H 1249.86 -6.25124 6.55234 0
M  V30 9619 H 1249.94 -5.37936 2.80552 0
M  V30 9620 H 1249.83 -5.07528 0.359553 0
M  V30 9621 H 1249.45 -1.69403 -1.09847 0
M  V30 9622 H 1249.64 -3.43701 -1.41792 0
M  V30 9623 P 1247.99 -4.23843 7.83734 0
M  V30 9624 O 1247.77 -4.19407 9.29784 0
M  V30 9625 O 1247.2 -5.24426 7.09156 0
M  V30 9626 O 1247.74 -2.7935 7.20758 0
M  V30 9627 C 1248.68 -1.7299 7.50419 0
M  V30 9628 C 1247.95 -0.406376 7.57911 0
M  V30 9629 O 1247.74 0.0897726 6.21935 0
M  V30 9630 C 1246.55 -0.447224 8.1878 0
M  V30 9631 O 1246.16 0.825065 8.71101 0
M  V30 9632 C 1245.67 -0.783801 6.99623 0
M  V30 9633 C 1246.38 -0.0619192 5.85967 0
M  V30 9634 N 1246.33 -0.7859 4.56281 0
M  V30 9635 H 1249.17 -1.93423 8.4679 0
M  V30 9636 H 1249.44 -1.68181 6.71046 0
M  V30 9637 H 1248.58 0.289041 8.15388 0
M  V30 9638 P 1244.61 1.17771 8.83182 0
M  V30 9639 O 1244.39 2.07206 9.98732 0
M  V30 9640 O 1243.82 -0.0743816 8.81969 0
M  V30 9641 O 1244.36 1.97652 7.47304 0
M  V30 9642 C 1245.3 3.01133 7.08783 0
M  V30 9643 C 1244.57 4.12613 6.37049 0
M  V30 9644 O 1244.36 3.72827 4.97879 0
M  V30 9645 C 1243.17 4.45085 6.88694 0
M  V30 9646 O 1242.78 5.7877 6.5624 0
M  V30 9647 C 1242.29 3.47817 6.12078 0
M  V30 9648 C 1243 3.39414 4.77697 0
M  V30 9649 N 1242.95 2.04199 4.15538 0
M  V30 9650 H 1245.79 3.41248 7.98759 0
M  V30 9651 H 1246.06 2.57728 6.42 0
M  V30 9652 H 1245.2 5.02657 6.42673 0
M  V30 9653 H 1242.54 4.11708 4.08956 0
M  V30 9654 H 1242.26 2.49626 6.61679 0
M  V30 9655 H 1241.27 3.8662 6.00862 0
M  V30 9656 H 1243.1 4.29991 7.97006 0
M  V30 9657 P 1241.23 6.144 6.45285 0
M  V30 9658 O 1241.01 7.54673 6.86199 0
M  V30 9659 O 1240.44 5.12391 7.179 0
M  V30 9660 O 1240.98 5.99158 4.88404 0
M  V30 9661 C 1241.92 6.60062 3.96313 0
M  V30 9662 C 1241.19 7.08259 2.72856 0
M  V30 9663 O 1240.98 5.9427 1.83651 0
M  V30 9664 C 1239.79 7.65087 2.94749 0
M  V30 9665 O 1239.4 8.53963 1.90717 0
M  V30 9666 C 1238.91 6.41069 2.90698 0
M  V30 9667 C 1239.62 5.5528 1.86931 0
M  V30 9668 N 1239.57 4.09575 2.15696 0
M  V30 9669 C 1239.42 3.24249 1.08435 0
M  V30 9670 O 1239.33 3.63946 -0.0628747 0
M  V30 9671 N 1239.38 1.90009 1.39973 0
M  V30 9672 C 1239.47 1.34884 2.65614 0
M  V30 9673 O 1239.42 0.123716 2.81728 0
M  V30 9674 C 1239.62 2.3145 3.71736 0
M  V30 9675 C 1239.73 1.75913 5.10438 0
M  V30 9676 C 1239.67 3.63518 3.44754 0
M  V30 9677 H 1242.41 7.45402 4.45526 0
M  V30 9678 H 1242.68 5.86062 3.67208 0
M  V30 9679 H 1241.82 7.84412 2.24479 0
M  V30 9680 H 1239.16 5.73358 0.888409 0
M  V30 9681 H 1238.88 5.90877 3.88583 0
M  V30 9682 H 1237.89 6.65867 2.58821 0
M  V30 9683 H 1239.72 8.16248 3.92006 0
M  V30 9684 H 1239.79 4.34551 4.26383 0
M  V30 9685 H 1238.76 1.85471 5.61775 0
M  V30 9686 H 1240.5 2.31364 5.66257 0
M  V30 9687 H 1240.01 0.695936 5.05229 0
M  V30 9688 H 1239.28 1.26277 0.63625 0
M  V30 9689 P 1237.85 8.7635 1.60911 0
M  V30 9690 O 1237.63 10.1388 1.11561 0
M  V30 9691 O 1237.06 8.36503 2.79617 0
M  V30 9692 O 1237.6 7.71906 0.429565 0
M  V30 9693 C 1238.54 7.67148 -0.673689 0
M  V30 9694 C 1237.81 7.33666 -1.94851 0
M  V30 9695 O 1237.6 5.88816 -2.00759 0
M  V30 9696 C 1236.41 7.92526 -2.10483 0
M  V30 9697 O 1236.02 8.03063 -3.47693 0
M  V30 9698 C 1235.53 6.89602 -1.41652 0
M  V30 9699 C 1236.24 5.59201 -1.75185 0
M  V30 9700 N 1236.19 4.58235 -0.662552 0
M  V30 9701 C 1236.04 3.24451 -1.01643 0
M  V30 9702 O 1235.95 2.94958 -2.21722 0
M  V30 9703 N 1235.99 2.30408 0.165238 0
M  V30 9704 C 1236.09 2.66048 1.25118 0
M  V30 9705 N 1236.04 1.70787 2.16813 0
M  V30 9706 C 1236.24 4.02732 1.64413 0
M  V30 9707 C 1236.29 4.9488 0.63991 0
M  V30 9708 H 1239.03 8.65017 -0.777072 0
M  V30 9709 H 1239.3 6.90173 -0.474152 0
M  V30 9710 H 1238.44 7.66642 -2.79492 0
M  V30 9711 H 1235.78 5.16254 -2.65229 0
M  V30 9712 H 1235.5 7.06532 -0.329431 0
M  V30 9713 H 1234.51 6.91023 -1.82047 0
M  V30 9714 H 1236.34 8.90873 -1.62657 0
M  V30 9715 H 1236.42 6.00104 0.892197 0
M  V30 9716 H 1236.31 4.31733 2.69229 0
M  V30 9717 H 1235.93 0.724835 1.8844 0
M  V30 9718 H 1236.12 1.94716 3.16734 0
M  V30 9719 P 1234.47 8.03563 -3.84925 0
M  V30 9720 O 1234.25 8.85821 -5.0569 0
M  V30 9721 O 1233.68 8.41101 -2.65469 0
M  V30 9722 O 1234.22 6.4965 -4.18908 0
M  V30 9723 C 1235.16 5.81037 -5.05421 0
M  V30 9724 C 1234.43 4.78366 -5.89277 0
M  V30 9725 O 1234.22 3.58302 -5.08433 0
M  V30 9726 C 1233.03 5.17448 -6.36119 0
M  V30 9727 O 1232.64 4.45271 -7.53232 0
M  V30 9728 C 1232.15 4.74639 -5.19936 0
M  V30 9729 C 1232.86 3.49432 -4.70418 0
M  V30 9730 N 1232.81 3.32099 -3.22613 0
M  V30 9731 C 1232.89 4.28245 -2.25527 0
M  V30 9732 N 1232.82 3.80823 -1.04874 0
M  V30 9733 C 1232.67 2.44571 -1.23535 0
M  V30 9734 C 1232.54 1.37068 -0.330675 0
M  V30 9735 N 1232.53 1.51472 0.990824 0
M  V30 9736 N 1232.42 0.138614 -0.848756 0
M  V30 9737 C 1232.43 -0.00675923 -2.16999 0
M  V30 9738 N 1232.55 0.904372 -3.11122 0
M  V30 9739 C 1232.67 2.12707 -2.56212 0
M  V30 9740 H 1235.65 6.54213 -5.71376 0
M  V30 9741 H 1235.92 5.30936 -4.43503 0
M  V30 9742 H 1235.06 4.55889 -6.76652 0
M  V30 9743 H 1232.4 2.61715 -5.17932 0
M  V30 9744 H 1232.12 5.52155 -4.41878 0
M  V30 9745 H 1231.13 4.51981 -5.53374 0
M  V30 9746 H 1232.96 6.25124 -6.55234 0
M  V30 9747 H 1233 5.34372 -2.47488 0
M  V30 9748 H 1232.62 2.45153 1.4078 0
M  V30 9749 H 1232.43 0.688422 1.59911 0
M  V30 9750 H 1232.33 -1.02584 -2.52346 0
M  V30 9751 P 1231.09 4.23843 -7.83734 0
M  V30 9752 O 1230.87 4.19407 -9.29784 0
M  V30 9753 O 1230.3 5.24426 -7.09156 0
M  V30 9754 O 1230.84 2.7935 -7.20758 0
M  V30 9755 C 1231.78 1.7299 -7.50419 0
M  V30 9756 C 1231.05 0.406376 -7.57911 0
M  V30 9757 O 1230.84 -0.0897726 -6.21935 0
M  V30 9758 C 1229.65 0.447224 -8.1878 0
M  V30 9759 O 1229.26 -0.825065 -8.71101 0
M  V30 9760 C 1228.77 0.783801 -6.99623 0
M  V30 9761 C 1229.48 0.0619192 -5.85967 0
M  V30 9762 N 1229.43 0.790462 -4.56202 0
M  V30 9763 C 1229.51 2.13895 -4.34171 0
M  V30 9764 N 1229.44 2.46449 -3.08687 0
M  V30 9765 C 1229.29 1.2525 -2.43697 0
M  V30 9766 C 1229.16 0.914535 -1.07318 0
M  V30 9767 N 1229.15 1.80782 -0.0887348 0
M  V30 9768 N 1229.04 -0.386745 -0.768133 0
M  V30 9769 C 1229.05 -1.28096 -1.75159 0
M  V30 9770 N 1229.17 -1.09708 -3.04861 0
M  V30 9771 C 1229.29 0.214857 -3.32306 0
M  V30 9772 H 1232.27 1.93423 -8.4679 0
M  V30 9773 H 1232.54 1.68852 -6.70877 0
M  V30 9774 H 1231.68 -0.289041 -8.15388 0
M  V30 9775 H 1229.02 -0.927006 -5.72848 0
M  V30 9776 H 1228.74 1.86973 -6.82036 0
M  V30 9777 H 1227.75 0.403953 -7.13357 0
M  V30 9778 H 1229.58 1.20599 -8.97534 0
M  V30 9779 H 1229.62 2.86846 -5.14318 0
M  V30 9780 H 1229.24 2.81082 -0.302037 0
M  V30 9781 H 1229.05 1.49688 0.889064 0
M  V30 9782 H 1228.95 -2.31317 -1.43855 0
M  V30 9783 P 1227.71 -1.17771 -8.83182 0
M  V30 9784 O 1227.49 -2.07206 -9.98732 0
M  V30 9785 O 1226.92 0.0743816 -8.81969 0
M  V30 9786 O 1227.46 -1.97652 -7.47304 0
M  V30 9787 C 1228.4 -3.01133 -7.08783 0
M  V30 9788 C 1227.67 -4.12613 -6.37049 0
M  V30 9789 O 1227.46 -3.72827 -4.97879 0
M  V30 9790 C 1226.27 -4.45085 -6.88694 0
M  V30 9791 O 1225.88 -5.7877 -6.5624 0
M  V30 9792 C 1225.39 -3.47817 -6.12078 0
M  V30 9793 C 1226.1 -3.39414 -4.77697 0
M  V30 9794 N 1226.05 -2.04199 -4.15538 0
M  V30 9795 H 1228.89 -3.41248 -7.98759 0
M  V30 9796 H 1229.16 -2.57728 -6.42 0
M  V30 9797 H 1228.3 -5.02657 -6.42673 0
M  V30 9798 H 1225.64 -4.11708 -4.08956 0
M  V30 9799 H 1225.36 -2.49626 -6.61679 0
M  V30 9800 H 1224.37 -3.8662 -6.00862 0
M  V30 9801 H 1226.2 -4.29991 -7.97006 0
M  V30 9802 P 1224.33 -6.144 -6.45285 0
M  V30 9803 O 1224.11 -7.54673 -6.86199 0
M  V30 9804 O 1223.54 -5.12391 -7.179 0
M  V30 9805 O 1224.08 -5.99158 -4.88404 0
M  V30 9806 C 1225.02 -6.60234 -3.96415 0
M  V30 9807 C 1224.29 -7.08259 -2.72856 0
M  V30 9808 O 1224.08 -5.9427 -1.83651 0
M  V30 9809 C 1222.89 -7.64886 -2.9555 0
M  V30 9810 O 1222.5 -8.53963 -1.90717 0
M  V30 9811 C 1222.01 -6.4116 -2.90739 0
M  V30 9812 C 1222.72 -5.55375 -1.86963 0
M  V30 9813 N 1222.67 -4.09664 -2.15742 0
M  V30 9814 H 1225.51 -7.45574 -4.45629 0
M  V30 9815 H 1225.78 -5.86232 -3.67314 0
M  V30 9816 H 1224.92 -7.84412 -2.24479 0
M  V30 9817 P 1220.95 -8.7635 -1.60911 0
M  V30 9818 O 1220.73 -10.1388 -1.11561 0
M  V30 9819 O 1220.16 -8.36503 -2.79617 0
M  V30 9820 O 1220.7 -7.71806 -0.42951 0
M  V30 9821 C 1221.64 -7.67148 0.673689 0
M  V30 9822 C 1220.91 -7.33374 1.95559 0
M  V30 9823 O 1220.7 -5.88721 2.00726 0
M  V30 9824 C 1219.51 -7.92526 2.10483 0
M  V30 9825 O 1219.12 -8.02971 3.47653 0
M  V30 9826 C 1218.63 -6.89602 1.41652 0
M  V30 9827 C 1219.34 -5.59201 1.75185 0
M  V30 9828 N 1219.29 -4.58235 0.662552 0
M  V30 9829 H 1222.13 -8.65116 0.777161 0
M  V30 9830 H 1222.4 -6.90173 0.474152 0
M  V30 9831 H 1221.54 -7.66548 2.79458 0
M  V30 9832 P 1217.57 -8.03563 3.84925 0
M  V30 9833 O 1217.35 -8.85821 5.0569 0
M  V30 9834 O 1216.78 -8.41101 2.65469 0
M  V30 9835 O 1217.32 -6.4965 4.18908 0
M  V30 9836 C 1218.26 -5.81037 5.05421 0
M  V30 9837 C 1217.53 -4.78366 5.89277 0
M  V30 9838 O 1217.32 -3.58302 5.08433 0
M  V30 9839 C 1216.13 -5.17448 6.36119 0
M  V30 9840 O 1215.74 -4.45271 7.53232 0
M  V30 9841 C 1215.25 -4.74639 5.19936 0
M  V30 9842 C 1215.96 -3.49432 4.70418 0
M  V30 9843 N 1215.91 -3.31776 3.22945 0
M  V30 9844 H 1218.75 -6.54213 5.71376 0
M  V30 9845 H 1219.02 -5.30492 4.44033 0
M  V30 9846 H 1218.16 -4.55889 6.76652 0
M  V30 9847 P 1214.19 -4.23843 7.83734 0
M  V30 9848 O 1213.97 -4.19407 9.29784 0
M  V30 9849 O 1213.4 -5.24426 7.09156 0
M  V30 9850 O 1213.94 -2.7935 7.20758 0
M  V30 9851 C 1214.88 -1.7299 7.50419 0
M  V30 9852 C 1214.15 -0.406376 7.57911 0
M  V30 9853 O 1213.94 0.0897726 6.21935 0
M  V30 9854 C 1212.75 -0.447224 8.1878 0
M  V30 9855 O 1212.36 0.825065 8.71101 0
M  V30 9856 C 1211.87 -0.783801 6.99623 0
M  V30 9857 C 1212.58 -0.0619192 5.85967 0
M  V30 9858 N 1212.53 -0.7859 4.56281 0
M  V30 9859 H 1215.37 -1.93423 8.4679 0
M  V30 9860 H 1215.64 -1.68181 6.71046 0
M  V30 9861 H 1214.78 0.289041 8.15388 0
M  V30 9862 P 1210.81 1.17771 8.83182 0
M  V30 9863 O 1210.59 2.07206 9.98732 0
M  V30 9864 O 1210.02 -0.0743816 8.81969 0
M  V30 9865 O 1210.56 1.97652 7.47304 0
M  V30 9866 C 1211.5 3.01133 7.08783 0
M  V30 9867 C 1210.77 4.12613 6.37049 0
M  V30 9868 O 1210.56 3.72827 4.97879 0
M  V30 9869 C 1209.37 4.45085 6.88694 0
M  V30 9870 O 1208.98 5.7877 6.5624 0
M  V30 9871 C 1208.49 3.47817 6.12078 0
M  V30 9872 C 1209.2 3.39414 4.77697 0
M  V30 9873 N 1209.15 2.04615 4.15333 0
M  V30 9874 H 1211.99 3.41248 7.98759 0
M  V30 9875 H 1212.26 2.5837 6.41742 0
M  V30 9876 H 1211.4 5.02657 6.42673 0
M  V30 9877 P 1207.43 6.144 6.45285 0
M  V30 9878 O 1207.21 7.54673 6.86199 0
M  V30 9879 O 1206.64 5.12391 7.179 0
M  V30 9880 O 1207.18 5.99158 4.88404 0
M  V30 9881 C 1208.12 6.60234 3.96415 0
M  V30 9882 C 1207.39 7.08259 2.72856 0
M  V30 9883 O 1207.18 5.9427 1.83651 0
M  V30 9884 C 1205.99 7.64886 2.9555 0
M  V30 9885 O 1205.6 8.53963 1.90717 0
M  V30 9886 C 1205.11 6.4116 2.90739 0
M  V30 9887 C 1205.82 5.55375 1.86963 0
M  V30 9888 N 1205.77 4.09664 2.15742 0
M  V30 9889 H 1208.61 7.45574 4.45629 0
M  V30 9890 H 1208.88 5.86232 3.67314 0
M  V30 9891 H 1208.02 7.84412 2.24479 0
M  V30 9892 P 1204.05 8.7635 1.60911 0
M  V30 9893 O 1203.83 10.1388 1.11561 0
M  V30 9894 O 1203.26 8.36503 2.79617 0
M  V30 9895 O 1203.8 7.71806 0.42951 0
M  V30 9896 C 1204.74 7.67148 -0.673689 0
M  V30 9897 C 1204.01 7.33374 -1.95559 0
M  V30 9898 O 1203.8 5.88721 -2.00726 0
M  V30 9899 C 1202.61 7.92526 -2.10483 0
M  V30 9900 O 1202.22 8.02971 -3.47653 0
M  V30 9901 C 1201.73 6.89602 -1.41652 0
M  V30 9902 C 1202.44 5.59201 -1.75185 0
M  V30 9903 N 1202.39 4.58235 -0.662552 0
M  V30 9904 C 1202.47 4.7683 0.704049 0
M  V30 9905 N 1202.39 3.66233 1.39775 0
M  V30 9906 C 1202.25 2.66526 0.431739 0
M  V30 9907 C 1202.12 1.26394 0.575992 0
M  V30 9908 N 1202 0.62859 -0.67177 0
M  V30 9909 C 1202 1.27134 -1.89385 0
M  V30 9910 N 1201.87 0.492035 -2.96951 0
M  V30 9911 N 1202.13 2.58978 -2.02907 0
M  V30 9912 C 1202.25 3.22433 -0.832218 0
M  V30 9913 H 1205.23 8.65116 -0.777161 0
M  V30 9914 H 1205.5 6.90173 -0.474152 0
M  V30 9915 H 1204.64 7.66548 -2.79458 0
M  V30 9916 P 1200.67 8.03563 -3.84925 0
M  V30 9917 O 1200.45 8.85821 -5.0569 0
M  V30 9918 O 1199.88 8.41101 -2.65469 0
M  V30 9919 O 1200.42 6.4965 -4.18908 0
M  V30 9920 C 1201.36 5.80886 -5.05289 0
M  V30 9921 C 1200.63 4.78366 -5.89277 0
M  V30 9922 O 1200.42 3.58302 -5.08433 0
M  V30 9923 C 1199.23 5.16748 -6.36559 0
M  V30 9924 O 1198.84 4.45271 -7.53232 0
M  V30 9925 C 1198.35 4.74572 -5.19863 0
M  V30 9926 C 1199.06 3.49373 -4.70338 0
M  V30 9927 N 1199.01 3.31704 -3.22876 0
M  V30 9928 C 1198.86 2.03326 -2.74871 0
M  V30 9929 O 1198.77 1.06486 -3.48076 0
M  V30 9930 N 1198.82 1.91838 -1.37456 0
M  V30 9931 C 1198.91 2.94295 -0.462035 0
M  V30 9932 C 1199.06 4.25064 -1.05249 0
M  V30 9933 C 1199.11 4.40214 -2.39192 0
M  V30 9934 H 1201.85 6.54063 -5.71245 0
M  V30 9935 H 1202.12 5.30339 -4.43905 0
M  V30 9936 H 1201.26 4.55889 -6.76652 0
M  V30 9937 H 1198.6 2.6167 -5.17842 0
M  V30 9938 H 1198.32 5.52155 -4.41878 0
M  V30 9939 H 1197.33 4.51918 -5.53297 0
M  V30 9940 H 1199.16 6.25055 -6.55162 0
M  V30 9941 H 1199.23 5.39798 -2.81523 0
M  V30 9942 P 1197.29 4.23843 -7.83734 0
M  V30 9943 O 1197.07 4.19407 -9.29784 0
M  V30 9944 O 1196.5 5.24426 -7.09156 0
M  V30 9945 O 1197.04 2.7935 -7.20758 0
M  V30 9946 C 1197.98 1.7299 -7.50419 0
M  V30 9947 C 1197.25 0.406376 -7.57911 0
M  V30 9948 O 1197.04 -0.0897726 -6.21935 0
M  V30 9949 C 1195.85 0.447224 -8.1878 0
M  V30 9950 O 1195.46 -0.825065 -8.71101 0
M  V30 9951 C 1194.97 0.783801 -6.99623 0
M  V30 9952 C 1195.68 0.0619192 -5.85967 0
M  V30 9953 N 1195.63 0.7859 -4.56281 0
M  V30 9954 H 1198.47 1.93423 -8.4679 0
M  V30 9955 H 1198.74 1.68181 -6.71046 0
M  V30 9956 H 1197.88 -0.289041 -8.15388 0
M  V30 9957 P 1193.91 -1.17771 -8.83182 0
M  V30 9958 O 1193.69 -2.07206 -9.98732 0
M  V30 9959 O 1193.12 0.0743816 -8.81969 0
M  V30 9960 O 1193.66 -1.97652 -7.47304 0
M  V30 9961 C 1194.6 -3.01133 -7.08783 0
M  V30 9962 C 1193.87 -4.12613 -6.37049 0
M  V30 9963 O 1193.66 -3.72827 -4.97879 0
M  V30 9964 C 1192.47 -4.45085 -6.88694 0
M  V30 9965 O 1192.08 -5.7877 -6.5624 0
M  V30 9966 C 1191.59 -3.47817 -6.12078 0
M  V30 9967 C 1192.3 -3.39414 -4.77697 0
M  V30 9968 N 1192.25 -2.04615 -4.15333 0
M  V30 9969 H 1195.09 -3.41248 -7.98759 0
M  V30 9970 H 1195.36 -2.5837 -6.41742 0
M  V30 9971 H 1194.5 -5.02657 -6.42673 0
M  V30 9972 P 1190.53 -6.144 -6.45285 0
M  V30 9973 O 1190.31 -7.54673 -6.86199 0
M  V30 9974 O 1189.74 -5.12391 -7.179 0
M  V30 9975 O 1190.28 -5.99158 -4.88404 0
M  V30 9976 C 1191.22 -6.60234 -3.96415 0
M  V30 9977 C 1190.49 -7.08259 -2.72856 0
M  V30 9978 O 1190.28 -5.9427 -1.83651 0
M  V30 9979 C 1189.09 -7.64886 -2.9555 0
M  V30 9980 O 1188.7 -8.53963 -1.90717 0
M  V30 9981 C 1188.21 -6.4116 -2.90739 0
M  V30 9982 C 1188.92 -5.55375 -1.86963 0
M  V30 9983 N 1188.87 -4.09664 -2.15742 0
M  V30 9984 H 1191.71 -7.45574 -4.45629 0
M  V30 9985 H 1191.98 -5.86232 -3.67314 0
M  V30 9986 H 1191.12 -7.84412 -2.24479 0
M  V30 9987 P 1187.15 -8.7635 -1.60911 0
M  V30 9988 O 1186.93 -10.1388 -1.11561 0
M  V30 9989 O 1186.36 -8.36503 -2.79617 0
M  V30 9990 O 1186.9 -7.71806 -0.42951 0
M  V30 9991 C 1187.84 -7.67148 0.673689 0
M  V30 9992 C 1187.11 -7.33374 1.95559 0
M  V30 9993 O 1186.9 -5.88721 2.00726 0
M  V30 9994 C 1185.71 -7.92526 2.10483 0
M  V30 9995 O 1185.32 -8.02971 3.47653 0
M  V30 9996 C 1184.83 -6.89602 1.41652 0
M  V30 9997 C 1185.54 -5.59201 1.75185 0
M  V30 9998 N 1185.49 -4.58235 0.662552 0
M  V30 9999 H 1188.33 -8.65116 0.777161 0
M  V30 10000 H 1188.6 -6.90173 0.474152 0
M  V30 10001 H 1187.74 -7.66548 2.79458 0
M  V30 10002 P 1183.77 -8.03563 3.84925 0
M  V30 10003 O 1183.55 -8.85821 5.0569 0
M  V30 10004 O 1182.98 -8.41101 2.65469 0
M  V30 10005 O 1183.52 -6.4965 4.18908 0
M  V30 10006 C 1184.46 -5.80886 5.05289 0
M  V30 10007 C 1183.73 -4.78366 5.89277 0
M  V30 10008 O 1183.52 -3.58302 5.08433 0
M  V30 10009 C 1182.33 -5.16748 6.36559 0
M  V30 10010 O 1181.94 -4.45271 7.53232 0
M  V30 10011 C 1181.45 -4.74572 5.19863 0
M  V30 10012 C 1182.16 -3.49373 4.70338 0
M  V30 10013 N 1182.11 -3.31704 3.22876 0
M  V30 10014 C 1181.96 -2.03326 2.74871 0
M  V30 10015 O 1181.87 -1.06486 3.48076 0
M  V30 10016 N 1181.92 -1.91838 1.37456 0
M  V30 10017 C 1182.01 -2.94295 0.462035 0
M  V30 10018 O 1181.96 -2.71763 -0.752928 0
M  V30 10019 C 1182.16 -4.25064 1.05249 0
M  V30 10020 C 1182.27 -5.39815 0.095697 0
M  V30 10021 C 1182.21 -4.40214 2.39192 0
M  V30 10022 H 1184.95 -6.54063 5.71245 0
M  V30 10023 H 1185.22 -5.30339 4.43905 0
M  V30 10024 H 1184.36 -4.55889 6.76652 0
M  V30 10025 H 1181.7 -2.6167 5.17842 0
M  V30 10026 H 1181.42 -5.52155 4.41878 0
M  V30 10027 H 1180.43 -4.51918 5.53297 0
M  V30 10028 H 1182.26 -6.25055 6.55162 0
M  V30 10029 H 1182.34 -5.39798 2.81523 0
M  V30 10030 H 1181.31 -5.91593 0.0279582 0
M  V30 10031 H 1183.04 -6.10038 0.450573 0
M  V30 10032 H 1182.55 -5.02007 -0.89937 0
M  V30 10033 H 1181.82 -0.995326 1.00435 0
M  V30 10034 P 1180.39 -4.23843 7.83734 0
M  V30 10035 O 1180.17 -4.19407 9.29784 0
M  V30 10036 O 1179.6 -5.24426 7.09156 0
M  V30 10037 O 1180.14 -2.7935 7.20758 0
M  V30 10038 C 1181.08 -1.72945 7.50224 0
M  V30 10039 C 1180.35 -0.406376 7.57911 0
M  V30 10040 O 1180.14 0.0897726 6.21935 0
M  V30 10041 C 1178.95 -0.438983 8.18724 0
M  V30 10042 O 1178.56 0.825065 8.71101 0
M  V30 10043 C 1178.07 -0.783689 6.99524 0
M  V30 10044 C 1178.78 -0.0619086 5.85867 0
M  V30 10045 N 1178.73 -0.78573 4.56183 0
M  V30 10046 C 1178.58 -0.0292889 3.41887 0
M  V30 10047 O 1178.49 1.18445 3.4419 0
M  V30 10048 N 1178.54 -0.744061 2.23964 0
M  V30 10049 C 1178.63 -2.10932 2.10362 0
M  V30 10050 C 1178.78 -2.8202 3.34994 0
M  V30 10051 C 1178.83 -2.15547 4.52261 0
M  V30 10052 H 1181.57 -1.93379 8.46595 0
M  V30 10053 H 1181.84 -1.68132 6.70852 0
M  V30 10054 H 1180.98 0.289041 8.15388 0
M  V30 10055 H 1178.32 0.926847 5.72749 0
M  V30 10056 H 1178.04 -1.86973 6.82036 0
M  V30 10057 H 1177.05 -0.403896 7.13257 0
M  V30 10058 H 1178.88 -1.20585 8.97435 0
M  V30 10059 H 1178.96 -2.71231 5.45042 0
M  V30 10060 P 1177.01 1.17771 8.83182 0
M  V30 10061 O 1176.79 2.07206 9.98732 0
M  V30 10062 O 1176.22 -0.0743816 8.81969 0
M  V30 10063 O 1176.76 1.97652 7.47304 0
M  V30 10064 C 1177.7 3.01133 7.08783 0
M  V30 10065 C 1176.97 4.12613 6.37049 0
M  V30 10066 O 1176.76 3.72827 4.97879 0
M  V30 10067 C 1175.57 4.45085 6.88694 0
M  V30 10068 O 1175.18 5.7877 6.5624 0
M  V30 10069 C 1174.69 3.47817 6.12078 0
M  V30 10070 C 1175.4 3.39414 4.77697 0
M  V30 10071 N 1175.35 2.04199 4.15538 0
M  V30 10072 H 1178.19 3.41248 7.98759 0
M  V30 10073 H 1178.46 2.57728 6.42 0
M  V30 10074 H 1177.6 5.02657 6.42673 0
M  V30 10075 H 1174.94 4.11708 4.08956 0
M  V30 10076 H 1174.66 2.49626 6.61679 0
M  V30 10077 H 1173.67 3.8662 6.00862 0
M  V30 10078 H 1175.5 4.29991 7.97006 0
M  V30 10079 P 1173.63 6.144 6.45285 0
M  V30 10080 O 1173.41 7.54673 6.86199 0
M  V30 10081 O 1172.84 5.12391 7.179 0
M  V30 10082 O 1173.38 5.99158 4.88404 0
M  V30 10083 C 1174.32 6.60234 3.96415 0
M  V30 10084 C 1173.59 7.08259 2.72856 0
M  V30 10085 O 1173.38 5.9427 1.83651 0
M  V30 10086 C 1172.19 7.64886 2.9555 0
M  V30 10087 O 1171.8 8.53963 1.90717 0
M  V30 10088 C 1171.31 6.4116 2.90739 0
M  V30 10089 C 1172.02 5.55375 1.86963 0
M  V30 10090 N 1171.97 4.09448 2.16152 0
M  V30 10091 H 1174.81 7.45574 4.45629 0
M  V30 10092 H 1175.08 5.85864 3.679 0
M  V30 10093 H 1174.22 7.84412 2.24479 0
M  V30 10094 H 1171.56 5.73457 0.888562 0
M  V30 10095 H 1171.28 5.90877 3.88583 0
M  V30 10096 H 1170.29 6.6596 2.58858 0
M  V30 10097 H 1172.12 8.16339 3.92049 0
M  V30 10098 P 1170.25 8.7635 1.60911 0
M  V30 10099 O 1170.03 10.1388 1.11561 0
M  V30 10100 O 1169.46 8.36503 2.79617 0
M  V30 10101 O 1170 7.71806 0.42951 0
M  V30 10102 C 1170.94 7.67148 -0.673689 0
M  V30 10103 C 1170.21 7.33374 -1.95559 0
M  V30 10104 O 1170 5.88721 -2.00726 0
M  V30 10105 C 1168.81 7.92526 -2.10483 0
M  V30 10106 O 1168.42 8.02971 -3.47653 0
M  V30 10107 C 1167.93 6.89602 -1.41652 0
M  V30 10108 C 1168.64 5.59201 -1.75185 0
M  V30 10109 N 1168.59 4.58301 -0.657969 0
M  V30 10110 H 1171.43 8.65116 -0.777161 0
M  V30 10111 H 1171.7 6.9022 -0.46725 0
M  V30 10112 H 1170.84 7.66548 -2.79458 0
M  V30 10113 H 1168.18 5.16165 -2.65183 0
M  V30 10114 H 1167.9 7.06433 -0.329384 0
M  V30 10115 H 1166.91 6.90926 -1.82021 0
M  V30 10116 H 1168.74 8.90873 -1.62657 0
M  V30 10117 P 1166.87 8.03563 -3.84925 0
M  V30 10118 O 1166.65 8.85821 -5.0569 0
M  V30 10119 O 1166.08 8.41101 -2.65469 0
M  V30 10120 O 1166.62 6.4965 -4.18908 0
M  V30 10121 C 1167.56 5.81037 -5.05421 0
M  V30 10122 C 1166.83 4.78366 -5.89277 0
M  V30 10123 O 1166.62 3.58302 -5.08433 0
M  V30 10124 C 1165.43 5.17448 -6.36119 0
M  V30 10125 O 1165.04 4.45271 -7.53232 0
M  V30 10126 C 1164.55 4.74639 -5.19936 0
M  V30 10127 C 1165.26 3.49432 -4.70418 0
M  V30 10128 N 1165.21 3.31776 -3.22945 0
M  V30 10129 H 1168.05 6.54213 -5.71376 0
M  V30 10130 H 1168.32 5.30492 -4.44033 0
M  V30 10131 H 1167.46 4.55889 -6.76652 0
M  V30 10132 P 1163.49 4.23843 -7.83734 0
M  V30 10133 O 1163.27 4.19407 -9.29784 0
M  V30 10134 O 1162.7 5.24426 -7.09156 0
M  V30 10135 O 1163.24 2.7935 -7.20758 0
M  V30 10136 C 1164.18 1.72945 -7.50224 0
M  V30 10137 C 1163.45 0.406376 -7.57911 0
M  V30 10138 O 1163.24 -0.0897726 -6.21935 0
M  V30 10139 C 1162.05 0.438983 -8.18724 0
M  V30 10140 O 1161.66 -0.825065 -8.71101 0
M  V30 10141 C 1161.17 0.783689 -6.99524 0
M  V30 10142 C 1161.88 0.0619086 -5.85867 0
M  V30 10143 N 1161.83 0.78573 -4.56183 0
M  V30 10144 C 1161.68 0.0292889 -3.41887 0
M  V30 10145 O 1161.59 -1.18445 -3.4419 0
M  V30 10146 N 1161.64 0.744061 -2.23964 0
M  V30 10147 C 1161.73 2.10932 -2.10362 0
M  V30 10148 O 1161.68 2.64117 -0.98825 0
M  V30 10149 C 1161.88 2.8202 -3.34994 0
M  V30 10150 C 1161.99 4.31095 -3.25037 0
M  V30 10151 C 1161.93 2.15547 -4.52261 0
M  V30 10152 H 1164.67 1.93379 -8.46595 0
M  V30 10153 H 1164.94 1.68132 -6.70852 0
M  V30 10154 H 1164.08 -0.289041 -8.15388 0
M  V30 10155 H 1161.42 -0.926847 -5.72749 0
M  V30 10156 H 1161.14 1.86973 -6.82036 0
M  V30 10157 H 1160.15 0.403896 -7.13257 0
M  V30 10158 H 1161.98 1.20585 -8.97435 0
M  V30 10159 H 1162.06 2.71231 -5.45042 0
M  V30 10160 H 1161.03 4.76966 -3.49992 0
M  V30 10161 H 1162.76 4.67047 -3.95024 0
M  V30 10162 H 1162.27 4.58996 -2.22312 0
M  V30 10163 H 1161.54 0.214893 -1.39758 0
M  V30 10164 P 1160.11 -1.17771 -8.83182 0
M  V30 10165 O 1159.89 -2.07206 -9.98732 0
M  V30 10166 O 1159.32 0.0743816 -8.81969 0
M  V30 10167 O 1159.86 -1.97652 -7.47304 0
M  V30 10168 C 1160.8 -3.01055 -7.08599 0
M  V30 10169 C 1160.07 -4.12613 -6.37049 0
M  V30 10170 O 1159.86 -3.72827 -4.97879 0
M  V30 10171 C 1158.67 -4.45719 -6.88164 0
M  V30 10172 O 1158.28 -5.7877 -6.5624 0
M  V30 10173 C 1157.79 -3.47768 -6.11991 0
M  V30 10174 C 1158.5 -3.39356 -4.77615 0
M  V30 10175 N 1158.45 -2.04571 -4.15244 0
M  V30 10176 C 1158.3 -1.98587 -2.78314 0
M  V30 10177 O 1158.21 -2.98134 -2.08835 0
M  V30 10178 N 1158.26 -0.714467 -2.24925 0
M  V30 10179 C 1158.35 0.470001 -2.94169 0
M  V30 10180 O 1158.3 1.55587 -2.35195 0
M  V30 10181 C 1158.5 0.312541 -4.36783 0
M  V30 10182 C 1158.61 1.57711 -5.16352 0
M  V30 10183 C 1158.55 -0.914512 -4.92583 0
M  V30 10184 H 1161.29 -3.41169 -7.98575 0
M  V30 10185 H 1161.56 -2.58295 -6.41556 0
M  V30 10186 H 1160.7 -5.02657 -6.42673 0
M  V30 10187 H 1158.04 -4.11637 -4.08885 0
M  V30 10188 H 1157.76 -2.49626 -6.61679 0
M  V30 10189 H 1156.77 -3.86566 -6.00778 0
M  V30 10190 H 1158.6 -4.29943 -7.96918 0
M  V30 10191 H 1158.68 -1.00937 -6.00374 0
M  V30 10192 H 1157.65 1.80153 -5.63503 0
M  V30 10193 H 1159.38 1.4566 -5.94104 0
M  V30 10194 H 1158.89 2.40664 -4.49645 0
M  V30 10195 H 1158.16 -0.647622 -1.25697 0
M  V30 10196 P 1156.73 -6.144 -6.45285 0
M  V30 10197 O 1156.51 -7.54673 -6.86199 0
M  V30 10198 O 1155.94 -5.12391 -7.179 0
M  V30 10199 O 1156.48 -5.99158 -4.88404 0
M  V30 10200 C 1157.42 -6.60234 -3.96415 0
M  V30 10201 C 1156.69 -7.08259 -2.72856 0
M  V30 10202 O 1156.48 -5.9427 -1.83651 0
M  V30 10203 C 1155.29 -7.64886 -2.9555 0
M  V30 10204 O 1154.9 -8.53963 -1.90717 0
M  V30 10205 C 1154.41 -6.4116 -2.90739 0
M  V30 10206 C 1155.12 -5.55375 -1.86963 0
M  V30 10207 N 1155.07 -4.09664 -2.15742 0
M  V30 10208 H 1157.91 -7.45574 -4.45629 0
M  V30 10209 H 1158.18 -5.86232 -3.67314 0
M  V30 10210 H 1157.32 -7.84412 -2.24479 0
M  V30 10211 P 1153.35 -8.7635 -1.60911 0
M  V30 10212 O 1153.13 -10.1388 -1.11561 0
M  V30 10213 O 1152.56 -8.36503 -2.79617 0
M  V30 10214 O 1153.1 -7.71806 -0.42951 0
M  V30 10215 C 1154.04 -7.66948 0.673514 0
M  V30 10216 C 1153.31 -7.33374 1.95559 0
M  V30 10217 O 1153.1 -5.88721 2.00726 0
M  V30 10218 C 1151.91 -7.92218 2.1125 0
M  V30 10219 O 1151.52 -8.02971 3.47653 0
M  V30 10220 C 1151.03 -6.89504 1.41631 0
M  V30 10221 C 1151.74 -5.59106 1.75155 0
M  V30 10222 N 1151.69 -4.58136 0.662409 0
M  V30 10223 C 1151.54 -3.26059 1.02863 0
M  V30 10224 O 1151.45 -2.90743 2.19009 0
M  V30 10225 N 1151.5 -2.35995 -0.0155585 0
M  V30 10226 C 1151.59 -2.65248 -1.35603 0
M  V30 10227 O 1151.54 -1.75605 -2.20651 0
M  V30 10228 C 1151.74 -4.05747 -1.64698 0
M  V30 10229 C 1151.85 -4.42345 -3.09553 0
M  V30 10230 C 1151.79 -4.96734 -0.652411 0
M  V30 10231 H 1154.53 -8.64917 0.776982 0
M  V30 10232 H 1154.8 -6.89974 0.474015 0
M  V30 10233 H 1153.94 -7.66548 2.79458 0
M  V30 10234 H 1151.28 -5.16076 2.65138 0
M  V30 10235 H 1151 -7.06433 0.329384 0
M  V30 10236 H 1150.01 -6.90829 1.81996 0
M  V30 10237 H 1151.84 -8.90774 1.62639 0
M  V30 10238 H 1151.92 -6.02181 -0.895285 0
M  V30 10239 H 1150.89 -4.80252 -3.45468 0
M  V30 10240 H 1152.62 -5.20015 -3.22119 0
M  V30 10241 H 1152.13 -3.53269 -3.67833 0
M  V30 10242 H 1151.4 -1.39558 0.227499 0
M  V30 10243 P 1149.97 -8.03563 3.84925 0
M  V30 10244 O 1149.75 -8.85821 5.0569 0
M  V30 10245 O 1149.18 -8.41101 2.65469 0
M  V30 10246 O 1149.72 -6.4965 4.18908 0
M  V30 10247 C 1150.66 -5.81037 5.05421 0
M  V30 10248 C 1149.93 -4.78366 5.89277 0
M  V30 10249 O 1149.72 -3.58302 5.08433 0
M  V30 10250 C 1148.53 -5.17448 6.36119 0
M  V30 10251 O 1148.14 -4.45271 7.53232 0
M  V30 10252 C 1147.65 -4.74639 5.19936 0
M  V30 10253 C 1148.36 -3.49432 4.70418 0
M  V30 10254 N 1148.31 -3.31776 3.22945 0
M  V30 10255 H 1151.15 -6.54213 5.71376 0
M  V30 10256 H 1151.42 -5.30492 4.44033 0
M  V30 10257 H 1150.56 -4.55889 6.76652 0
M  V30 10258 P 1146.59 -4.23843 7.83734 0
M  V30 10259 O 1146.37 -4.19407 9.29784 0
M  V30 10260 O 1145.8 -5.24426 7.09156 0
M  V30 10261 O 1146.34 -2.7935 7.20758 0
M  V30 10262 C 1147.28 -1.7299 7.50419 0
M  V30 10263 C 1146.55 -0.406376 7.57911 0
M  V30 10264 O 1146.34 0.0897726 6.21935 0
M  V30 10265 C 1145.15 -0.447224 8.1878 0
M  V30 10266 O 1144.76 0.825065 8.71101 0
M  V30 10267 C 1144.27 -0.783801 6.99623 0
M  V30 10268 C 1144.98 -0.0619192 5.85967 0
M  V30 10269 N 1144.93 -0.7859 4.56281 0
M  V30 10270 H 1147.77 -1.93423 8.4679 0
M  V30 10271 H 1148.04 -1.68181 6.71046 0
M  V30 10272 H 1147.18 0.289041 8.15388 0
M  V30 10273 P 1143.21 1.17771 8.83182 0
M  V30 10274 O 1142.99 2.07206 9.98732 0
M  V30 10275 O 1142.42 -0.0743816 8.81969 0
M  V30 10276 O 1142.96 1.97652 7.47304 0
M  V30 10277 C 1143.9 3.01133 7.08783 0
M  V30 10278 C 1143.17 4.12613 6.37049 0
M  V30 10279 O 1142.96 3.72827 4.97879 0
M  V30 10280 C 1141.77 4.45085 6.88694 0
M  V30 10281 O 1141.38 5.7877 6.5624 0
M  V30 10282 C 1140.89 3.47817 6.12078 0
M  V30 10283 C 1141.6 3.39414 4.77697 0
M  V30 10284 N 1141.55 2.04615 4.15333 0
M  V30 10285 H 1144.39 3.41248 7.98759 0
M  V30 10286 H 1144.66 2.5837 6.41742 0
M  V30 10287 H 1143.8 5.02657 6.42673 0
M  V30 10288 P 1139.83 6.144 6.45285 0
M  V30 10289 O 1139.61 7.54673 6.86199 0
M  V30 10290 O 1139.04 5.12391 7.179 0
M  V30 10291 O 1139.58 5.99158 4.88404 0
M  V30 10292 C 1140.52 6.60234 3.96415 0
M  V30 10293 C 1139.79 7.08259 2.72856 0
M  V30 10294 O 1139.58 5.9427 1.83651 0
M  V30 10295 C 1138.39 7.64886 2.9555 0
M  V30 10296 O 1138 8.53963 1.90717 0
M  V30 10297 C 1137.51 6.4116 2.90739 0
M  V30 10298 C 1138.22 5.55375 1.86963 0
M  V30 10299 N 1138.17 4.09448 2.16152 0
M  V30 10300 C 1138.25 3.46824 3.37593 0
M  V30 10301 N 1138.18 2.17422 3.29777 0
M  V30 10302 C 1138.03 1.93065 1.94427 0
M  V30 10303 C 1137.9 0.738053 1.20141 0
M  V30 10304 N 1137.89 -0.474256 1.74676 0
M  V30 10305 N 1137.78 0.850049 -0.13045 0
M  V30 10306 C 1137.79 2.06169 -0.676992 0
M  V30 10307 N 1137.91 3.23842 -0.101312 0
M  V30 10308 C 1138.03 3.09402 1.23122 0
M  V30 10309 H 1141.01 7.45574 4.45629 0
M  V30 10310 H 1141.28 5.85864 3.679 0
M  V30 10311 H 1140.42 7.84412 2.24479 0
M  V30 10312 H 1137.76 5.73457 0.888562 0
M  V30 10313 H 1137.48 5.90877 3.88583 0
M  V30 10314 H 1136.49 6.6596 2.58858 0
M  V30 10315 H 1138.32 8.16339 3.92049 0
M  V30 10316 H 1138.37 4.00505 4.3174 0
M  V30 10317 H 1137.98 -0.581337 2.76658 0
M  V30 10318 H 1137.8 -1.30811 1.14888 0
M  V30 10319 H 1137.69 2.08295 -1.75542 0
M  V30 10320 P 1136.45 8.7635 1.60911 0
M  V30 10321 O 1136.23 10.1388 1.11561 0
M  V30 10322 O 1135.66 8.36503 2.79617 0
M  V30 10323 O 1136.2 7.71806 0.42951 0
M  V30 10324 C 1137.14 7.66948 -0.673514 0
M  V30 10325 C 1136.41 7.33374 -1.95559 0
M  V30 10326 O 1136.2 5.88721 -2.00726 0
M  V30 10327 C 1135.01 7.92218 -2.1125 0
M  V30 10328 O 1134.62 8.02971 -3.47653 0
M  V30 10329 C 1134.13 6.89504 -1.41631 0
M  V30 10330 C 1134.84 5.59106 -1.75155 0
M  V30 10331 N 1134.79 4.58136 -0.662409 0
M  V30 10332 C 1134.64 3.26059 -1.02863 0
M  V30 10333 O 1134.55 2.90743 -2.19009 0
M  V30 10334 N 1134.6 2.35995 0.0155585 0
M  V30 10335 C 1134.69 2.65248 1.35603 0
M  V30 10336 O 1134.64 1.75605 2.20651 0
M  V30 10337 C 1134.84 4.05747 1.64698 0
M  V30 10338 C 1134.95 4.42345 3.09553 0
M  V30 10339 C 1134.89 4.96734 0.652411 0
M  V30 10340 H 1137.63 8.64917 -0.776982 0
M  V30 10341 H 1137.9 6.89974 -0.474015 0
M  V30 10342 H 1137.04 7.66548 -2.79458 0
M  V30 10343 H 1134.38 5.16076 -2.65138 0
M  V30 10344 H 1134.1 7.06433 -0.329384 0
M  V30 10345 H 1133.11 6.90829 -1.81996 0
M  V30 10346 H 1134.94 8.90774 -1.62639 0
M  V30 10347 H 1135.02 6.02181 0.895285 0
M  V30 10348 H 1133.99 4.80252 3.45468 0
M  V30 10349 H 1135.72 5.20015 3.22119 0
M  V30 10350 H 1135.23 3.53269 3.67833 0
M  V30 10351 H 1134.5 1.39558 -0.227499 0
M  V30 10352 P 1133.07 8.03563 -3.84925 0
M  V30 10353 O 1132.85 8.85821 -5.0569 0
M  V30 10354 O 1132.28 8.41101 -2.65469 0
M  V30 10355 O 1132.82 6.4965 -4.18908 0
M  V30 10356 C 1133.76 5.81037 -5.05421 0
M  V30 10357 C 1133.03 4.78366 -5.89277 0
M  V30 10358 O 1132.82 3.58302 -5.08433 0
M  V30 10359 C 1131.63 5.17448 -6.36119 0
M  V30 10360 O 1131.24 4.45271 -7.53232 0
M  V30 10361 C 1130.75 4.74639 -5.19936 0
M  V30 10362 C 1131.46 3.49432 -4.70418 0
M  V30 10363 N 1131.41 3.31776 -3.22945 0
M  V30 10364 H 1134.25 6.54213 -5.71376 0
M  V30 10365 H 1134.52 5.30492 -4.44033 0
M  V30 10366 H 1133.66 4.55889 -6.76652 0
M  V30 10367 P 1129.69 4.23843 -7.83734 0
M  V30 10368 O 1129.47 4.19407 -9.29784 0
M  V30 10369 O 1128.9 5.24426 -7.09156 0
M  V30 10370 O 1129.44 2.7935 -7.20758 0
M  V30 10371 C 1130.38 1.7299 -7.50419 0
M  V30 10372 C 1129.65 0.406376 -7.57911 0
M  V30 10373 O 1129.44 -0.0897726 -6.21935 0
M  V30 10374 C 1128.25 0.447224 -8.1878 0
M  V30 10375 O 1127.86 -0.825065 -8.71101 0
M  V30 10376 C 1127.37 0.783801 -6.99623 0
M  V30 10377 C 1128.08 0.0619192 -5.85967 0
M  V30 10378 N 1128.03 0.7859 -4.56281 0
M  V30 10379 H 1130.87 1.93423 -8.4679 0
M  V30 10380 H 1131.14 1.68181 -6.71046 0
M  V30 10381 H 1130.28 -0.289041 -8.15388 0
M  V30 10382 P 1126.31 -1.17771 -8.83182 0
M  V30 10383 O 1126.09 -2.07206 -9.98732 0
M  V30 10384 O 1125.52 0.0743816 -8.81969 0
M  V30 10385 O 1126.06 -1.97652 -7.47304 0
M  V30 10386 C 1127 -3.01133 -7.08783 0
M  V30 10387 C 1126.27 -4.12613 -6.37049 0
M  V30 10388 O 1126.06 -3.72827 -4.97879 0
M  V30 10389 C 1124.87 -4.45085 -6.88694 0
M  V30 10390 O 1124.48 -5.7877 -6.5624 0
M  V30 10391 C 1123.99 -3.47817 -6.12078 0
M  V30 10392 C 1124.7 -3.39414 -4.77697 0
M  V30 10393 N 1124.65 -2.04615 -4.15333 0
M  V30 10394 H 1127.49 -3.41248 -7.98759 0
M  V30 10395 H 1127.76 -2.5837 -6.41742 0
M  V30 10396 H 1126.9 -5.02657 -6.42673 0
M  V30 10397 P 1122.93 -6.144 -6.45285 0
M  V30 10398 O 1122.71 -7.54673 -6.86199 0
M  V30 10399 O 1122.14 -5.12391 -7.179 0
M  V30 10400 O 1122.68 -5.99158 -4.88404 0
M  V30 10401 C 1123.62 -6.60234 -3.96415 0
M  V30 10402 C 1122.89 -7.08259 -2.72856 0
M  V30 10403 O 1122.68 -5.9427 -1.83651 0
M  V30 10404 C 1121.49 -7.64886 -2.9555 0
M  V30 10405 O 1121.1 -8.53963 -1.90717 0
M  V30 10406 C 1120.61 -6.4116 -2.90739 0
M  V30 10407 C 1121.32 -5.55375 -1.86963 0
M  V30 10408 N 1121.27 -4.09448 -2.16152 0
M  V30 10409 H 1124.11 -7.45574 -4.45629 0
M  V30 10410 H 1124.38 -5.85864 -3.679 0
M  V30 10411 H 1123.52 -7.84412 -2.24479 0
M  V30 10412 H 1120.86 -5.73457 -0.888562 0
M  V30 10413 H 1120.58 -5.90877 -3.88583 0
M  V30 10414 H 1119.59 -6.6596 -2.58858 0
M  V30 10415 H 1121.42 -8.16339 -3.92049 0
M  V30 10416 P 1119.55 -8.7635 -1.60911 0
M  V30 10417 O 1119.33 -10.1388 -1.11561 0
M  V30 10418 O 1118.76 -8.36503 -2.79617 0
M  V30 10419 O 1119.3 -7.71806 -0.42951 0
M  V30 10420 C 1120.24 -7.66948 0.673514 0
M  V30 10421 C 1119.51 -7.33374 1.95559 0
M  V30 10422 O 1119.3 -5.88721 2.00726 0
M  V30 10423 C 1118.11 -7.92218 2.1125 0
M  V30 10424 O 1117.72 -8.02971 3.47653 0
M  V30 10425 C 1117.23 -6.89504 1.41631 0
M  V30 10426 C 1117.94 -5.59106 1.75155 0
M  V30 10427 N 1117.89 -4.58136 0.662409 0
M  V30 10428 C 1117.74 -3.26059 1.02863 0
M  V30 10429 O 1117.65 -2.90743 2.19009 0
M  V30 10430 N 1117.7 -2.35995 -0.0155585 0
M  V30 10431 C 1117.79 -2.65248 -1.35603 0
M  V30 10432 O 1117.74 -1.75605 -2.20651 0
M  V30 10433 C 1117.94 -4.05747 -1.64698 0
M  V30 10434 C 1118.05 -4.42345 -3.09553 0
M  V30 10435 C 1117.99 -4.96734 -0.652411 0
M  V30 10436 H 1120.73 -8.64917 0.776982 0
M  V30 10437 H 1121 -6.89974 0.474015 0
M  V30 10438 H 1120.14 -7.66548 2.79458 0
M  V30 10439 H 1117.48 -5.16076 2.65138 0
M  V30 10440 H 1117.2 -7.06433 0.329384 0
M  V30 10441 H 1116.21 -6.90829 1.81996 0
M  V30 10442 H 1118.04 -8.90774 1.62639 0
M  V30 10443 H 1118.12 -6.02181 -0.895285 0
M  V30 10444 H 1117.09 -4.80252 -3.45468 0
M  V30 10445 H 1118.82 -5.20015 -3.22119 0
M  V30 10446 H 1118.33 -3.53269 -3.67833 0
M  V30 10447 H 1117.6 -1.39558 0.227499 0
M  V30 10448 P 1116.17 -8.03563 3.84925 0
M  V30 10449 O 1115.95 -8.85821 5.0569 0
M  V30 10450 O 1115.38 -8.41101 2.65469 0
M  V30 10451 O 1115.92 -6.4965 4.18908 0
M  V30 10452 C 1116.86 -5.81037 5.05421 0
M  V30 10453 C 1116.13 -4.78366 5.89277 0
M  V30 10454 O 1115.92 -3.58302 5.08433 0
M  V30 10455 C 1114.73 -5.17448 6.36119 0
M  V30 10456 O 1114.34 -4.45271 7.53232 0
M  V30 10457 C 1113.85 -4.74639 5.19936 0
M  V30 10458 C 1114.56 -3.49432 4.70418 0
M  V30 10459 N 1114.51 -3.31776 3.22945 0
M  V30 10460 H 1117.35 -6.54213 5.71376 0
M  V30 10461 H 1117.62 -5.30492 4.44033 0
M  V30 10462 H 1116.76 -4.55889 6.76652 0
M  V30 10463 P 1112.79 -4.23843 7.83734 0
M  V30 10464 O 1112.57 -4.19407 9.29784 0
M  V30 10465 O 1112 -5.24426 7.09156 0
M  V30 10466 O 1112.54 -2.79386 7.20852 0
M  V30 10467 C 1113.48 -1.7299 7.50419 0
M  V30 10468 C 1112.75 -0.41401 7.5797 0
M  V30 10469 O 1112.54 0.089787 6.22035 0
M  V30 10470 C 1111.35 -0.447224 8.1878 0
M  V30 10471 O 1110.96 0.825159 8.71201 0
M  V30 10472 C 1110.47 -0.783801 6.99623 0
M  V30 10473 C 1111.18 -0.0619192 5.85967 0
M  V30 10474 N 1111.13 -0.7859 4.56281 0
M  V30 10475 C 1110.98 -0.0359258 3.39981 0
M  V30 10476 O 1110.89 1.19723 3.49038 0
M  V30 10477 N 1110.93 -0.869151 2.14025 0
M  V30 10478 C 1111.03 -2.01207 2.14363 0
M  V30 10479 N 1110.98 -2.58978 0.954287 0
M  V30 10480 C 1111.18 -2.80817 3.32215 0
M  V30 10481 C 1111.23 -2.13785 4.50884 0
M  V30 10482 H 1113.97 -1.93401 8.46693 0
M  V30 10483 H 1114.24 -1.68181 6.71046 0
M  V30 10484 H 1113.38 0.289076 8.15488 0
M  V30 10485 H 1110.72 0.927166 5.72947 0
M  V30 10486 H 1110.44 -1.87 6.82132 0
M  V30 10487 H 1109.45 -0.404009 7.13457 0
M  V30 10488 H 1111.28 -1.20599 8.97534 0
M  V30 10489 H 1111.36 -2.70295 5.43162 0
M  V30 10490 H 1111.25 -3.89465 3.27406 0
M  V30 10491 H 1110.87 -2.01616 0.107046 0
M  V30 10492 H 1111.06 -3.61403 0.873101 0
M  V30 10493 P 1109.41 1.17771 8.83182 0
M  V30 10494 O 1109.19 2.07206 9.98732 0
M  V30 10495 O 1108.62 -0.0743816 8.81969 0
M  V30 10496 O 1109.16 1.97652 7.47304 0
M  V30 10497 C 1110.1 3.01133 7.08783 0
M  V30 10498 C 1109.37 4.12613 6.37049 0
M  V30 10499 O 1109.16 3.72827 4.97879 0
M  V30 10500 C 1107.97 4.45085 6.88694 0
M  V30 10501 O 1107.58 5.7877 6.5624 0
M  V30 10502 C 1107.09 3.47817 6.12078 0
M  V30 10503 C 1107.8 3.39414 4.77697 0
M  V30 10504 N 1107.75 2.04199 4.15538 0
M  V30 10505 C 1107.83 0.821545 4.76977 0
M  V30 10506 N 1107.76 -0.1794 3.94592 0
M  V30 10507 C 1107.61 0.419121 2.70776 0
M  V30 10508 C 1107.48 -0.109072 1.40577 0
M  V30 10509 N 1107.47 -1.4104 1.1344 0
M  V30 10510 N 1107.36 0.764381 0.39411 0
M  V30 10511 C 1107.37 2.06587 0.664135 0
M  V30 10512 N 1107.49 2.67948 1.82153 0
M  V30 10513 C 1107.61 1.77942 2.8147 0
M  V30 10514 H 1110.59 3.41248 7.98759 0
M  V30 10515 H 1110.86 2.57728 6.42 0
M  V30 10516 H 1110 5.02657 6.42673 0
M  V30 10517 H 1107.34 4.11708 4.08956 0
M  V30 10518 H 1107.06 2.49626 6.61679 0
M  V30 10519 H 1106.07 3.8662 6.00862 0
M  V30 10520 H 1107.9 4.29991 7.97006 0
M  V30 10521 H 1107.95 0.702451 5.84696 0
M  V30 10522 H 1107.56 -2.09647 1.89651 0
M  V30 10523 H 1107.38 -1.73358 0.160575 0
M  V30 10524 H 1107.27 2.71695 -0.195838 0
M  V30 10525 P 1106.03 6.144 6.45285 0
M  V30 10526 O 1105.81 7.54673 6.86199 0
M  V30 10527 O 1105.24 5.12391 7.179 0
M  V30 10528 O 1105.78 5.99158 4.88404 0
M  V30 10529 C 1106.72 6.60234 3.96415 0
M  V30 10530 C 1105.99 7.08259 2.72856 0
M  V30 10531 O 1105.78 5.9427 1.83651 0
M  V30 10532 C 1104.59 7.64886 2.9555 0
M  V30 10533 O 1104.2 8.53963 1.90717 0
M  V30 10534 C 1103.71 6.4116 2.90739 0
M  V30 10535 C 1104.42 5.55375 1.86963 0
M  V30 10536 N 1104.37 4.09664 2.15742 0
M  V30 10537 H 1107.21 7.45574 4.45629 0
M  V30 10538 H 1107.48 5.86232 3.67314 0
M  V30 10539 H 1106.62 7.84412 2.24479 0
M  V30 10540 P 1102.65 8.7635 1.60911 0
M  V30 10541 O 1102.43 10.1388 1.11561 0
M  V30 10542 O 1101.86 8.36503 2.79617 0
M  V30 10543 O 1102.4 7.71806 0.42951 0
M  V30 10544 C 1103.34 7.66948 -0.673514 0
M  V30 10545 C 1102.61 7.33374 -1.95559 0
M  V30 10546 O 1102.4 5.88721 -2.00726 0
M  V30 10547 C 1101.21 7.92218 -2.1125 0
M  V30 10548 O 1100.82 8.02971 -3.47653 0
M  V30 10549 C 1100.33 6.89504 -1.41631 0
M  V30 10550 C 1101.04 5.59106 -1.75155 0
M  V30 10551 N 1100.99 4.58136 -0.662409 0
M  V30 10552 C 1100.84 3.26059 -1.02863 0
M  V30 10553 O 1100.75 2.90743 -2.19009 0
M  V30 10554 N 1100.8 2.35995 0.0155585 0
M  V30 10555 C 1100.89 2.65248 1.35603 0
M  V30 10556 C 1101.04 4.05747 1.64698 0
M  V30 10557 C 1101.09 4.96734 0.652411 0
M  V30 10558 H 1103.83 8.64917 -0.776982 0
M  V30 10559 H 1104.1 6.89974 -0.474015 0
M  V30 10560 H 1103.24 7.66548 -2.79458 0
M  V30 10561 H 1100.58 5.16076 -2.65138 0
M  V30 10562 H 1100.3 7.06433 -0.329384 0
M  V30 10563 H 1099.31 6.90829 -1.81996 0
M  V30 10564 H 1101.14 8.90774 -1.62639 0
M  V30 10565 H 1101.22 6.02181 0.895285 0
M  V30 10566 P 1099.27 8.03563 -3.84925 0
M  V30 10567 O 1099.05 8.85821 -5.0569 0
M  V30 10568 O 1098.48 8.41101 -2.65469 0
M  V30 10569 O 1099.02 6.49734 -4.18962 0
M  V30 10570 C 1099.96 5.81037 -5.05421 0
M  V30 10571 C 1099.23 4.79018 -5.88876 0
M  V30 10572 O 1099.02 3.58359 -5.08515 0
M  V30 10573 C 1097.83 5.17448 -6.36119 0
M  V30 10574 O 1097.44 4.45322 -7.53318 0
M  V30 10575 C 1096.95 4.74639 -5.19936 0
M  V30 10576 C 1097.66 3.49432 -4.70418 0
M  V30 10577 N 1097.61 3.31776 -3.22945 0
M  V30 10578 C 1097.46 2.02742 -2.72939 0
M  V30 10579 O 1097.37 1.08301 -3.52749 0
M  V30 10580 N 1097.41 1.96117 -1.22063 0
M  V30 10581 C 1097.51 2.8878 -0.551566 0
M  V30 10582 N 1097.46 2.65609 0.750198 0
M  V30 10583 C 1097.66 4.22457 -1.03707 0
M  V30 10584 C 1097.71 4.37979 -2.39113 0
M  V30 10585 H 1100.45 6.54138 -5.7131 0
M  V30 10586 H 1100.72 5.30492 -4.44033 0
M  V30 10587 H 1099.86 4.55945 -6.76735 0
M  V30 10588 H 1097.2 2.6176 -5.18021 0
M  V30 10589 H 1096.92 5.52233 -4.41941 0
M  V30 10590 H 1095.93 4.52045 -5.53452 0
M  V30 10591 H 1097.76 6.25124 -6.55234 0
M  V30 10592 H 1097.84 5.37936 -2.80552 0
M  V30 10593 H 1097.73 5.07528 -0.359553 0
M  V30 10594 H 1097.35 1.69403 1.09847 0
M  V30 10595 H 1097.54 3.43701 1.41792 0
M  V30 10596 P 1095.89 4.23843 -7.83734 0
M  V30 10597 O 1095.67 4.19407 -9.29784 0
M  V30 10598 O 1095.1 5.24426 -7.09156 0
M  V30 10599 O 1095.64 2.7935 -7.20758 0
M  V30 10600 C 1096.58 1.7299 -7.50419 0
M  V30 10601 C 1095.85 0.406376 -7.57911 0
M  V30 10602 O 1095.64 -0.0897726 -6.21935 0
M  V30 10603 C 1094.45 0.447224 -8.1878 0
M  V30 10604 O 1094.06 -0.825065 -8.71101 0
M  V30 10605 C 1093.57 0.783801 -6.99623 0
M  V30 10606 C 1094.28 0.0619192 -5.85967 0
M  V30 10607 N 1094.23 0.790462 -4.56202 0
M  V30 10608 H 1097.07 1.93423 -8.4679 0
M  V30 10609 H 1097.34 1.68852 -6.70877 0
M  V30 10610 H 1096.48 -0.289041 -8.15388 0
M  V30 10611 H 1093.82 -0.927006 -5.72848 0
M  V30 10612 H 1093.54 1.86973 -6.82036 0
M  V30 10613 H 1092.55 0.403953 -7.13357 0
M  V30 10614 H 1094.38 1.20599 -8.97534 0
M  V30 10615 P 1092.51 -1.17771 -8.83182 0
M  V30 10616 O 1092.29 -2.07206 -9.98732 0
M  V30 10617 O 1091.72 0.0743816 -8.81969 0
M  V30 10618 O 1092.26 -1.97652 -7.47304 0
M  V30 10619 C 1093.2 -3.01133 -7.08783 0
M  V30 10620 C 1092.47 -4.12613 -6.37049 0
M  V30 10621 O 1092.26 -3.72827 -4.97879 0
M  V30 10622 C 1091.07 -4.45085 -6.88694 0
M  V30 10623 O 1090.68 -5.7877 -6.5624 0
M  V30 10624 C 1090.19 -3.47817 -6.12078 0
M  V30 10625 C 1090.9 -3.39414 -4.77697 0
M  V30 10626 N 1090.85 -2.04615 -4.15333 0
M  V30 10627 H 1093.69 -3.41248 -7.98759 0
M  V30 10628 H 1093.96 -2.5837 -6.41742 0
M  V30 10629 H 1093.1 -5.02657 -6.42673 0
M  V30 10630 P 1089.13 -6.144 -6.45285 0
M  V30 10631 O 1088.91 -7.54673 -6.86199 0
M  V30 10632 O 1088.34 -5.12391 -7.179 0
M  V30 10633 O 1088.88 -5.99236 -4.88467 0
M  V30 10634 C 1089.82 -6.60234 -3.96415 0
M  V30 10635 C 1089.09 -7.08079 -2.736 0
M  V30 10636 O 1088.88 -5.94365 -1.8368 0
M  V30 10637 C 1087.69 -7.64886 -2.9555 0
M  V30 10638 O 1087.3 -8.5406 -1.90739 0
M  V30 10639 C 1086.81 -6.4116 -2.90739 0
M  V30 10640 C 1087.52 -5.55375 -1.86963 0
M  V30 10641 N 1087.47 -4.09664 -2.15742 0
M  V30 10642 C 1087.32 -3.22231 -1.08477 0
M  V30 10643 O 1087.23 -3.68951 0.0600489 0
M  V30 10644 N 1087.27 -1.76692 -1.48799 0
M  V30 10645 C 1087.37 -1.41695 -2.57602 0
M  V30 10646 N 1087.32 -0.107296 -2.75791 0
M  V30 10647 C 1087.52 -2.29178 -3.69733 0
M  V30 10648 C 1087.57 -3.62753 -3.42653 0
M  V30 10649 H 1090.31 -7.45488 -4.45578 0
M  V30 10650 H 1090.58 -5.86232 -3.67314 0
M  V30 10651 H 1089.72 -7.84508 -2.24507 0
M  V30 10652 H 1087.06 -5.73556 -0.888715 0
M  V30 10653 H 1086.78 -5.9096 -3.88638 0
M  V30 10654 H 1085.79 -6.66053 -2.58894 0
M  V30 10655 H 1087.62 -8.16339 -3.92049 0
M  V30 10656 H 1087.7 -4.33052 -4.24913 0
M  V30 10657 H 1087.59 -1.9103 -4.71577 0
M  V30 10658 H 1087.21 0.521221 -1.95056 0
M  V30 10659 H 1087.4 0.286429 -3.70695 0
M  V30 10660 P 1085.75 -8.7635 -1.60911 0
M  V30 10661 O 1085.53 -10.1388 -1.11561 0
M  V30 10662 O 1084.96 -8.36503 -2.79617 0
M  V30 10663 O 1085.5 -7.71806 -0.42951 0
M  V30 10664 C 1086.44 -7.67148 0.673689 0
M  V30 10665 C 1085.71 -7.33374 1.95559 0
M  V30 10666 O 1085.5 -5.88721 2.00726 0
M  V30 10667 C 1084.31 -7.92526 2.10483 0
M  V30 10668 O 1083.92 -8.02971 3.47653 0
M  V30 10669 C 1083.43 -6.89602 1.41652 0
M  V30 10670 C 1084.14 -5.59201 1.75185 0
M  V30 10671 N 1084.09 -4.58235 0.662552 0
M  V30 10672 H 1086.93 -8.65116 0.777161 0
M  V30 10673 H 1087.2 -6.90173 0.474152 0
M  V30 10674 H 1086.34 -7.66548 2.79458 0
M  V30 10675 P 1082.37 -8.03563 3.84925 0
M  V30 10676 O 1082.15 -8.85821 5.0569 0
M  V30 10677 O 1081.58 -8.41101 2.65469 0
M  V30 10678 O 1082.12 -6.4965 4.18908 0
M  V30 10679 C 1083.06 -5.81037 5.05421 0
M  V30 10680 C 1082.33 -4.78366 5.89277 0
M  V30 10681 O 1082.12 -3.58302 5.08433 0
M  V30 10682 C 1080.93 -5.17448 6.36119 0
M  V30 10683 O 1080.54 -4.45271 7.53232 0
M  V30 10684 C 1080.05 -4.74639 5.19936 0
M  V30 10685 C 1080.76 -3.49432 4.70418 0
M  V30 10686 N 1080.71 -3.31776 3.22945 0
M  V30 10687 H 1083.55 -6.54213 5.71376 0
M  V30 10688 H 1083.82 -5.30492 4.44033 0
M  V30 10689 H 1082.96 -4.55889 6.76652 0
M  V30 10690 P 1078.99 -4.23843 7.83734 0
M  V30 10691 O 1078.77 -4.19407 9.29784 0
M  V30 10692 O 1078.2 -5.24426 7.09156 0
M  V30 10693 O 1078.74 -2.7935 7.20758 0
M  V30 10694 C 1079.68 -1.7299 7.50419 0
M  V30 10695 C 1078.95 -0.406376 7.57911 0
M  V30 10696 O 1078.74 0.0897726 6.21935 0
M  V30 10697 C 1077.55 -0.447224 8.1878 0
M  V30 10698 O 1077.16 0.825065 8.71101 0
M  V30 10699 C 1076.67 -0.783801 6.99623 0
M  V30 10700 C 1077.38 -0.0619192 5.85967 0
M  V30 10701 N 1077.33 -0.7859 4.56281 0
M  V30 10702 H 1080.17 -1.93423 8.4679 0
M  V30 10703 H 1080.44 -1.68181 6.71046 0
M  V30 10704 H 1079.58 0.289041 8.15388 0
M  V30 10705 P 1075.61 1.17771 8.83182 0
M  V30 10706 O 1075.39 2.07206 9.98732 0
M  V30 10707 O 1074.82 -0.0743816 8.81969 0
M  V30 10708 O 1075.36 1.97652 7.47304 0
M  V30 10709 C 1076.3 3.01133 7.08783 0
M  V30 10710 C 1075.57 4.12613 6.37049 0
M  V30 10711 O 1075.36 3.72827 4.97879 0
M  V30 10712 C 1074.17 4.45085 6.88694 0
M  V30 10713 O 1073.78 5.7877 6.5624 0
M  V30 10714 C 1073.29 3.47817 6.12078 0
M  V30 10715 C 1074 3.39414 4.77697 0
M  V30 10716 N 1073.95 2.04615 4.15333 0
M  V30 10717 H 1076.79 3.41248 7.98759 0
M  V30 10718 H 1077.06 2.5837 6.41742 0
M  V30 10719 H 1076.2 5.02657 6.42673 0
M  V30 10720 P 1072.23 6.144 6.45285 0
M  V30 10721 O 1072.01 7.54673 6.86199 0
M  V30 10722 O 1071.44 5.12391 7.179 0
M  V30 10723 O 1071.98 5.99158 4.88404 0
M  V30 10724 C 1072.92 6.60234 3.96415 0
M  V30 10725 C 1072.19 7.08259 2.72856 0
M  V30 10726 O 1071.98 5.9427 1.83651 0
M  V30 10727 C 1070.79 7.64886 2.9555 0
M  V30 10728 O 1070.4 8.53963 1.90717 0
M  V30 10729 C 1069.91 6.4116 2.90739 0
M  V30 10730 C 1070.62 5.55375 1.86963 0
M  V30 10731 N 1070.57 4.09664 2.15742 0
M  V30 10732 H 1073.41 7.45574 4.45629 0
M  V30 10733 H 1073.68 5.86232 3.67314 0
M  V30 10734 H 1072.82 7.84412 2.24479 0
M  V30 10735 P 1068.85 8.7635 1.60911 0
M  V30 10736 O 1068.63 10.1388 1.11561 0
M  V30 10737 O 1068.06 8.36503 2.79617 0
M  V30 10738 O 1068.6 7.71806 0.42951 0
M  V30 10739 C 1069.54 7.66948 -0.673514 0
M  V30 10740 C 1068.81 7.33374 -1.95559 0
M  V30 10741 O 1068.6 5.88721 -2.00726 0
M  V30 10742 C 1067.41 7.92218 -2.1125 0
M  V30 10743 O 1067.02 8.02971 -3.47653 0
M  V30 10744 C 1066.53 6.89504 -1.41631 0
M  V30 10745 C 1067.24 5.59106 -1.75155 0
M  V30 10746 N 1067.19 4.58136 -0.662409 0
M  V30 10747 C 1067.04 3.26059 -1.02863 0
M  V30 10748 O 1066.95 2.90743 -2.19009 0
M  V30 10749 N 1067 2.35995 0.0155585 0
M  V30 10750 C 1067.09 2.65248 1.35603 0
M  V30 10751 C 1067.24 4.05747 1.64698 0
M  V30 10752 C 1067.29 4.96734 0.652411 0
M  V30 10753 H 1070.03 8.64917 -0.776982 0
M  V30 10754 H 1070.3 6.89974 -0.474015 0
M  V30 10755 H 1069.44 7.66548 -2.79458 0
M  V30 10756 H 1066.78 5.16076 -2.65138 0
M  V30 10757 H 1066.5 7.06433 -0.329384 0
M  V30 10758 H 1065.51 6.90829 -1.81996 0
M  V30 10759 H 1067.34 8.90774 -1.62639 0
M  V30 10760 H 1067.42 6.02181 0.895285 0
M  V30 10761 P 1065.47 8.03563 -3.84925 0
M  V30 10762 O 1065.25 8.85821 -5.0569 0
M  V30 10763 O 1064.68 8.41101 -2.65469 0
M  V30 10764 O 1065.22 6.4965 -4.18908 0
M  V30 10765 C 1066.16 5.81037 -5.05421 0
M  V30 10766 C 1065.43 4.78366 -5.89277 0
M  V30 10767 O 1065.22 3.58302 -5.08433 0
M  V30 10768 C 1064.03 5.17448 -6.36119 0
M  V30 10769 O 1063.64 4.45271 -7.53232 0
M  V30 10770 C 1063.15 4.74639 -5.19936 0
M  V30 10771 C 1063.86 3.49432 -4.70418 0
M  V30 10772 N 1063.81 3.31776 -3.22945 0
M  V30 10773 H 1066.65 6.54213 -5.71376 0
M  V30 10774 H 1066.92 5.30492 -4.44033 0
M  V30 10775 H 1066.06 4.55889 -6.76652 0
M  V30 10776 P 1062.09 4.23843 -7.83734 0
M  V30 10777 O 1061.87 4.19407 -9.29784 0
M  V30 10778 O 1061.3 5.24426 -7.09156 0
M  V30 10779 O 1061.84 2.7935 -7.20758 0
M  V30 10780 C 1062.78 1.7299 -7.50419 0
M  V30 10781 C 1062.05 0.406376 -7.57911 0
M  V30 10782 O 1061.84 -0.0897726 -6.21935 0
M  V30 10783 C 1060.65 0.447224 -8.1878 0
M  V30 10784 O 1060.26 -0.825065 -8.71101 0
M  V30 10785 C 1059.77 0.783801 -6.99623 0
M  V30 10786 C 1060.48 0.0619192 -5.85967 0
M  V30 10787 N 1060.43 0.7859 -4.56281 0
M  V30 10788 H 1063.27 1.93423 -8.4679 0
M  V30 10789 H 1063.54 1.68181 -6.71046 0
M  V30 10790 H 1062.68 -0.289041 -8.15388 0
M  V30 10791 P 1058.71 -1.17771 -8.83182 0
M  V30 10792 O 1058.49 -2.07206 -9.98732 0
M  V30 10793 O 1057.92 0.0743816 -8.81969 0
M  V30 10794 O 1058.46 -1.97652 -7.47304 0
M  V30 10795 C 1059.4 -3.01133 -7.08783 0
M  V30 10796 C 1058.67 -4.12613 -6.37049 0
M  V30 10797 O 1058.46 -3.72827 -4.97879 0
M  V30 10798 C 1057.27 -4.45085 -6.88694 0
M  V30 10799 O 1056.88 -5.7877 -6.5624 0
M  V30 10800 C 1056.39 -3.47817 -6.12078 0
M  V30 10801 C 1057.1 -3.39414 -4.77697 0
M  V30 10802 N 1057.05 -2.04615 -4.15333 0
M  V30 10803 H 1059.89 -3.41248 -7.98759 0
M  V30 10804 H 1060.16 -2.5837 -6.41742 0
M  V30 10805 H 1059.3 -5.02657 -6.42673 0
M  V30 10806 P 1055.33 -6.144 -6.45285 0
M  V30 10807 O 1055.11 -7.54673 -6.86199 0
M  V30 10808 O 1054.54 -5.12391 -7.179 0
M  V30 10809 O 1055.08 -5.99158 -4.88404 0
M  V30 10810 C 1056.02 -6.60234 -3.96415 0
M  V30 10811 C 1055.29 -7.08259 -2.72856 0
M  V30 10812 O 1055.08 -5.9427 -1.83651 0
M  V30 10813 C 1053.89 -7.64886 -2.9555 0
M  V30 10814 O 1053.5 -8.53963 -1.90717 0
M  V30 10815 C 1053.01 -6.4116 -2.90739 0
M  V30 10816 C 1053.72 -5.55375 -1.86963 0
M  V30 10817 N 1053.67 -4.09664 -2.15742 0
M  V30 10818 H 1056.51 -7.45574 -4.45629 0
M  V30 10819 H 1056.78 -5.86232 -3.67314 0
M  V30 10820 H 1055.92 -7.84412 -2.24479 0
M  V30 10821 P 1051.95 -8.7635 -1.60911 0
M  V30 10822 O 1051.73 -10.1388 -1.11561 0
M  V30 10823 O 1051.16 -8.36503 -2.79617 0
M  V30 10824 O 1051.7 -7.71806 -0.42951 0
M  V30 10825 C 1052.64 -7.67148 0.673689 0
M  V30 10826 C 1051.91 -7.33374 1.95559 0
M  V30 10827 O 1051.7 -5.88721 2.00726 0
M  V30 10828 C 1050.51 -7.92526 2.10483 0
M  V30 10829 O 1050.12 -8.02971 3.47653 0
M  V30 10830 C 1049.63 -6.89602 1.41652 0
M  V30 10831 C 1050.34 -5.59201 1.75185 0
M  V30 10832 N 1050.29 -4.58235 0.662552 0
M  V30 10833 H 1053.13 -8.65116 0.777161 0
M  V30 10834 H 1053.4 -6.90173 0.474152 0
M  V30 10835 H 1052.54 -7.66548 2.79458 0
M  V30 10836 P 1048.57 -8.03563 3.84925 0
M  V30 10837 O 1048.35 -8.85821 5.0569 0
M  V30 10838 O 1047.78 -8.41101 2.65469 0
M  V30 10839 O 1048.32 -6.4965 4.18908 0
M  V30 10840 C 1049.26 -5.81037 5.05421 0
M  V30 10841 C 1048.53 -4.78366 5.89277 0
M  V30 10842 O 1048.32 -3.58302 5.08433 0
M  V30 10843 C 1047.13 -5.17448 6.36119 0
M  V30 10844 O 1046.74 -4.45271 7.53232 0
M  V30 10845 C 1046.25 -4.74639 5.19936 0
M  V30 10846 C 1046.96 -3.49432 4.70418 0
M  V30 10847 N 1046.91 -3.32099 3.22613 0
M  V30 10848 H 1049.75 -6.54213 5.71376 0
M  V30 10849 H 1050.02 -5.30936 4.43503 0
M  V30 10850 H 1049.16 -4.55889 6.76652 0
M  V30 10851 H 1046.5 -2.61715 5.17932 0
M  V30 10852 H 1046.22 -5.52155 4.41878 0
M  V30 10853 H 1045.23 -4.51981 5.53374 0
M  V30 10854 H 1047.06 -6.25124 6.55234 0
M  V30 10855 P 1045.19 -4.23843 7.83734 0
M  V30 10856 O 1044.97 -4.19407 9.29784 0
M  V30 10857 O 1044.4 -5.24426 7.09156 0
M  V30 10858 O 1044.94 -2.7935 7.20758 0
M  V30 10859 C 1045.88 -1.7299 7.50419 0
M  V30 10860 C 1045.15 -0.406376 7.57911 0
M  V30 10861 O 1044.94 0.0897726 6.21935 0
M  V30 10862 C 1043.75 -0.447224 8.1878 0
M  V30 10863 O 1043.36 0.825065 8.71101 0
M  V30 10864 C 1042.87 -0.783801 6.99623 0
M  V30 10865 C 1043.58 -0.0619192 5.85967 0
M  V30 10866 N 1043.53 -0.7859 4.56281 0
M  V30 10867 H 1046.37 -1.93423 8.4679 0
M  V30 10868 H 1046.64 -1.68181 6.71046 0
M  V30 10869 H 1045.78 0.289041 8.15388 0
M  V30 10870 P 1041.81 1.17771 8.83182 0
M  V30 10871 O 1041.59 2.07206 9.98732 0
M  V30 10872 O 1041.02 -0.0743816 8.81969 0
M  V30 10873 O 1041.56 1.97652 7.47304 0
M  V30 10874 C 1042.5 3.01133 7.08783 0
M  V30 10875 C 1041.77 4.12613 6.37049 0
M  V30 10876 O 1041.56 3.72827 4.97879 0
M  V30 10877 C 1040.37 4.45085 6.88694 0
M  V30 10878 O 1039.98 5.7877 6.5624 0
M  V30 10879 C 1039.49 3.47817 6.12078 0
M  V30 10880 C 1040.2 3.39414 4.77697 0
M  V30 10881 N 1040.15 2.04615 4.15333 0
M  V30 10882 H 1042.99 3.41248 7.98759 0
M  V30 10883 H 1043.26 2.5837 6.41742 0
M  V30 10884 H 1042.4 5.02657 6.42673 0
M  V30 10885 P 1038.43 6.144 6.45285 0
M  V30 10886 O 1038.21 7.54673 6.86199 0
M  V30 10887 O 1037.64 5.12391 7.179 0
M  V30 10888 O 1038.18 5.99158 4.88404 0
M  V30 10889 C 1039.12 6.60234 3.96415 0
M  V30 10890 C 1038.39 7.08259 2.72856 0
M  V30 10891 O 1038.18 5.9427 1.83651 0
M  V30 10892 C 1036.99 7.64886 2.9555 0
M  V30 10893 O 1036.6 8.53963 1.90717 0
M  V30 10894 C 1036.11 6.4116 2.90739 0
M  V30 10895 C 1036.82 5.55375 1.86963 0
M  V30 10896 N 1036.77 4.09664 2.15742 0
M  V30 10897 H 1039.61 7.45574 4.45629 0
M  V30 10898 H 1039.88 5.86232 3.67314 0
M  V30 10899 H 1039.02 7.84412 2.24479 0
M  V30 10900 P 1035.05 8.7635 1.60911 0
M  V30 10901 O 1034.83 10.1388 1.11561 0
M  V30 10902 O 1034.26 8.36503 2.79617 0
M  V30 10903 O 1034.8 7.71806 0.42951 0
M  V30 10904 C 1035.74 7.67148 -0.673689 0
M  V30 10905 C 1035.01 7.33374 -1.95559 0
M  V30 10906 O 1034.8 5.88721 -2.00726 0
M  V30 10907 C 1033.61 7.92526 -2.10483 0
M  V30 10908 O 1033.22 8.02971 -3.47653 0
M  V30 10909 C 1032.73 6.89602 -1.41652 0
M  V30 10910 C 1033.44 5.59201 -1.75185 0
M  V30 10911 N 1033.39 4.58235 -0.662552 0
M  V30 10912 C 1033.47 4.7683 0.704049 0
M  V30 10913 N 1033.39 3.66233 1.39775 0
M  V30 10914 C 1033.25 2.66526 0.431739 0
M  V30 10915 C 1033.12 1.26394 0.575992 0
M  V30 10916 N 1033 0.62859 -0.67177 0
M  V30 10917 C 1033 1.27134 -1.89385 0
M  V30 10918 N 1032.87 0.492035 -2.96951 0
M  V30 10919 N 1033.13 2.58978 -2.02907 0
M  V30 10920 C 1033.25 3.22433 -0.832218 0
M  V30 10921 H 1036.23 8.65116 -0.777161 0
M  V30 10922 H 1036.5 6.90173 -0.474152 0
M  V30 10923 H 1035.64 7.66548 -2.79458 0
M  V30 10924 P 1031.67 8.03563 -3.84925 0
M  V30 10925 O 1031.45 8.85821 -5.0569 0
M  V30 10926 O 1030.88 8.41101 -2.65469 0
M  V30 10927 O 1031.42 6.4965 -4.18908 0
M  V30 10928 C 1032.36 5.81037 -5.05421 0
M  V30 10929 C 1031.63 4.78366 -5.89277 0
M  V30 10930 O 1031.42 3.58302 -5.08433 0
M  V30 10931 C 1030.23 5.17448 -6.36119 0
M  V30 10932 O 1029.84 4.45271 -7.53232 0
M  V30 10933 C 1029.35 4.74639 -5.19936 0
M  V30 10934 C 1030.06 3.49432 -4.70418 0
M  V30 10935 N 1030.01 3.31776 -3.22945 0
M  V30 10936 H 1032.85 6.54213 -5.71376 0
M  V30 10937 H 1033.12 5.30492 -4.44033 0
M  V30 10938 H 1032.26 4.55889 -6.76652 0
M  V30 10939 P 1028.29 4.23843 -7.83734 0
M  V30 10940 O 1028.07 4.19407 -9.29784 0
M  V30 10941 O 1027.5 5.24426 -7.09156 0
M  V30 10942 O 1028.04 2.7935 -7.20758 0
M  V30 10943 C 1028.98 1.7299 -7.50419 0
M  V30 10944 C 1028.25 0.406376 -7.57911 0
M  V30 10945 O 1028.04 -0.0897726 -6.21935 0
M  V30 10946 C 1026.85 0.447224 -8.1878 0
M  V30 10947 O 1026.46 -0.825065 -8.71101 0
M  V30 10948 C 1025.97 0.783801 -6.99623 0
M  V30 10949 C 1026.68 0.0619192 -5.85967 0
M  V30 10950 N 1026.63 0.790462 -4.56202 0
M  V30 10951 H 1029.47 1.93423 -8.4679 0
M  V30 10952 H 1029.74 1.68852 -6.70877 0
M  V30 10953 H 1028.88 -0.289041 -8.15388 0
M  V30 10954 H 1026.22 -0.927006 -5.72848 0
M  V30 10955 H 1025.94 1.86973 -6.82036 0
M  V30 10956 H 1024.95 0.403953 -7.13357 0
M  V30 10957 H 1026.78 1.20599 -8.97534 0
M  V30 10958 P 1024.91 -1.17771 -8.83182 0
M  V30 10959 O 1024.69 -2.07206 -9.98732 0
M  V30 10960 O 1024.12 0.0743816 -8.81969 0
M  V30 10961 O 1024.66 -1.97652 -7.47304 0
M  V30 10962 C 1025.6 -3.01133 -7.08783 0
M  V30 10963 C 1024.87 -4.12613 -6.37049 0
M  V30 10964 O 1024.66 -3.72827 -4.97879 0
M  V30 10965 C 1023.47 -4.45085 -6.88694 0
M  V30 10966 O 1023.08 -5.7877 -6.5624 0
M  V30 10967 C 1022.59 -3.47817 -6.12078 0
M  V30 10968 C 1023.3 -3.39414 -4.77697 0
M  V30 10969 N 1023.25 -2.04615 -4.15333 0
M  V30 10970 H 1026.09 -3.41248 -7.98759 0
M  V30 10971 H 1026.36 -2.5837 -6.41742 0
M  V30 10972 H 1025.5 -5.02657 -6.42673 0
M  V30 10973 P 1021.53 -6.144 -6.45285 0
M  V30 10974 O 1021.31 -7.54673 -6.86199 0
M  V30 10975 O 1020.74 -5.12391 -7.179 0
M  V30 10976 O 1021.28 -5.99158 -4.88404 0
M  V30 10977 C 1022.22 -6.60234 -3.96415 0
M  V30 10978 C 1021.49 -7.08259 -2.72856 0
M  V30 10979 O 1021.28 -5.9427 -1.83651 0
M  V30 10980 C 1020.09 -7.64886 -2.9555 0
M  V30 10981 O 1019.7 -8.53963 -1.90717 0
M  V30 10982 C 1019.21 -6.4116 -2.90739 0
M  V30 10983 C 1019.92 -5.55375 -1.86963 0
M  V30 10984 N 1019.87 -4.09664 -2.15742 0
M  V30 10985 H 1022.71 -7.45574 -4.45629 0
M  V30 10986 H 1022.98 -5.86232 -3.67314 0
M  V30 10987 H 1022.12 -7.84412 -2.24479 0
M  V30 10988 P 1018.15 -8.7635 -1.60911 0
M  V30 10989 O 1017.93 -10.1388 -1.11561 0
M  V30 10990 O 1017.36 -8.36503 -2.79617 0
M  V30 10991 O 1017.9 -7.71806 -0.42951 0
M  V30 10992 C 1018.84 -7.67148 0.673689 0
M  V30 10993 C 1018.11 -7.33374 1.95559 0
M  V30 10994 O 1017.9 -5.88721 2.00726 0
M  V30 10995 C 1016.71 -7.92526 2.10483 0
M  V30 10996 O 1016.32 -8.02971 3.47653 0
M  V30 10997 C 1015.83 -6.89602 1.41652 0
M  V30 10998 C 1016.54 -5.59201 1.75185 0
M  V30 10999 N 1016.49 -4.58301 0.657969 0
M  V30 11000 C 1016.57 -4.79019 -0.692603 0
M  V30 11001 N 1016.5 -3.69736 -1.38998 0
M  V30 11002 C 1016.35 -2.70474 -0.438135 0
M  V30 11003 C 1016.22 -1.30327 -0.538142 0
M  V30 11004 N 1016.21 -0.64304 -1.69192 0
M  V30 11005 N 1016.1 -0.611027 0.605183 0
M  V30 11006 C 1016.11 -1.27002 1.75953 0
M  V30 11007 N 1016.23 -2.56038 1.98546 0
M  V30 11008 C 1016.35 -3.22681 0.822541 0
M  V30 11009 H 1019.33 -8.65116 0.777161 0
M  V30 11010 H 1019.61 -6.9022 0.46725 0
M  V30 11011 H 1018.74 -7.66548 2.79458 0
M  V30 11012 H 1016.08 -5.16165 2.65183 0
M  V30 11013 H 1015.8 -7.06433 0.329384 0
M  V30 11014 H 1014.81 -6.90926 1.82021 0
M  V30 11015 H 1016.65 -8.90873 1.62657 0
M  V30 11016 H 1016.69 -5.77785 -1.13874 0
M  V30 11017 H 1016.31 -1.15585 -2.57991 0
M  V30 11018 H 1016.12 0.382989 -1.69835 0
M  V30 11019 H 1016.01 -0.653331 2.64449 0
M  V30 11020 P 1014.77 -8.03563 3.84925 0
M  V30 11021 O 1014.55 -8.85821 5.0569 0
M  V30 11022 O 1013.98 -8.41101 2.65469 0
M  V30 11023 O 1014.52 -6.4965 4.18908 0
M  V30 11024 C 1015.46 -5.80886 5.05289 0
M  V30 11025 C 1014.73 -4.78366 5.89277 0
M  V30 11026 O 1014.52 -3.58302 5.08433 0
M  V30 11027 C 1013.33 -5.16748 6.36559 0
M  V30 11028 O 1012.94 -4.45271 7.53232 0
M  V30 11029 C 1012.45 -4.74572 5.19863 0
M  V30 11030 C 1013.16 -3.49373 4.70338 0
M  V30 11031 N 1013.11 -3.31704 3.22876 0
M  V30 11032 C 1012.96 -2.03326 2.74871 0
M  V30 11033 O 1012.87 -1.06486 3.48076 0
M  V30 11034 N 1012.92 -1.91838 1.37456 0
M  V30 11035 C 1013.01 -2.94295 0.462035 0
M  V30 11036 O 1012.96 -2.71763 -0.752928 0
M  V30 11037 C 1013.16 -4.25064 1.05249 0
M  V30 11038 C 1013.27 -5.39815 0.095697 0
M  V30 11039 C 1013.21 -4.40214 2.39192 0
M  V30 11040 H 1015.96 -6.54063 5.71245 0
M  V30 11041 H 1016.22 -5.30339 4.43905 0
M  V30 11042 H 1015.36 -4.55889 6.76652 0
M  V30 11043 H 1012.7 -2.6167 5.17842 0
M  V30 11044 H 1012.42 -5.52155 4.41878 0
M  V30 11045 H 1011.43 -4.51918 5.53297 0
M  V30 11046 H 1013.27 -6.25055 6.55162 0
M  V30 11047 H 1013.34 -5.39798 2.81523 0
M  V30 11048 H 1012.31 -5.91593 0.0279582 0
M  V30 11049 H 1014.04 -6.10038 0.450573 0
M  V30 11050 H 1013.56 -5.02007 -0.89937 0
M  V30 11051 H 1012.82 -0.995326 1.00435 0
M  V30 11052 P 1011.39 -4.23843 7.83734 0
M  V30 11053 O 1011.17 -4.19407 9.29784 0
M  V30 11054 O 1010.6 -5.24426 7.09156 0
M  V30 11055 O 1011.14 -2.7935 7.20758 0
M  V30 11056 C 1012.08 -1.7299 7.50419 0
M  V30 11057 C 1011.35 -0.406376 7.57911 0
M  V30 11058 O 1011.14 0.0897726 6.21935 0
M  V30 11059 C 1009.95 -0.447224 8.1878 0
M  V30 11060 O 1009.56 0.825065 8.71101 0
M  V30 11061 C 1009.07 -0.783801 6.99623 0
M  V30 11062 C 1009.78 -0.0619192 5.85967 0
M  V30 11063 N 1009.73 -0.790462 4.56202 0
M  V30 11064 H 1012.57 -1.93423 8.4679 0
M  V30 11065 H 1012.85 -1.68852 6.70877 0
M  V30 11066 H 1011.98 0.289041 8.15388 0
M  V30 11067 H 1009.32 0.927006 5.72848 0
M  V30 11068 H 1009.04 -1.86973 6.82036 0
M  V30 11069 H 1008.05 -0.403953 7.13357 0
M  V30 11070 H 1009.89 -1.20599 8.97534 0
M  V30 11071 P 1008.01 1.17771 8.83182 0
M  V30 11072 O 1007.79 2.07206 9.98732 0
M  V30 11073 O 1007.22 -0.0743816 8.81969 0
M  V30 11074 O 1007.76 1.97652 7.47304 0
M  V30 11075 C 1008.7 3.01133 7.08783 0
M  V30 11076 C 1007.97 4.12613 6.37049 0
M  V30 11077 O 1007.76 3.72827 4.97879 0
M  V30 11078 C 1006.57 4.45085 6.88694 0
M  V30 11079 O 1006.18 5.7877 6.5624 0
M  V30 11080 C 1005.69 3.47817 6.12078 0
M  V30 11081 C 1006.4 3.39414 4.77697 0
M  V30 11082 N 1006.35 2.04615 4.15333 0
M  V30 11083 C 1006.43 0.803897 4.75249 0
M  V30 11084 N 1006.35 -0.197615 3.91502 0
M  V30 11085 C 1006.21 0.413002 2.66823 0
M  V30 11086 C 1006.08 -0.157221 1.38007 0
M  V30 11087 N 1005.96 0.833136 0.390236 0
M  V30 11088 C 1005.96 2.19402 0.623885 0
M  V30 11089 N 1005.83 2.97622 -0.449677 0
M  V30 11090 N 1006.09 2.73005 1.83601 0
M  V30 11091 C 1006.21 1.78786 2.80935 0
M  V30 11092 H 1009.19 3.41248 7.98759 0
M  V30 11093 H 1009.47 2.5837 6.41742 0
M  V30 11094 H 1008.6 5.02657 6.42673 0
M  V30 11095 P 1004.63 6.144 6.45285 0
M  V30 11096 O 1004.41 7.54673 6.86199 0
M  V30 11097 O 1003.84 5.12391 7.179 0
M  V30 11098 O 1004.38 5.99158 4.88404 0
M  V30 11099 C 1005.32 6.60234 3.96415 0
M  V30 11100 C 1004.59 7.08259 2.72856 0
M  V30 11101 O 1004.38 5.9427 1.83651 0
M  V30 11102 C 1003.19 7.64886 2.9555 0
M  V30 11103 O 1002.8 8.53963 1.90717 0
M  V30 11104 C 1002.31 6.4116 2.90739 0
M  V30 11105 C 1003.02 5.55375 1.86963 0
M  V30 11106 N 1002.97 4.09664 2.15742 0
M  V30 11107 H 1005.81 7.45574 4.45629 0
M  V30 11108 H 1006.09 5.86232 3.67314 0
M  V30 11109 H 1005.22 7.84412 2.24479 0
M  V30 11110 P 1001.25 8.7635 1.60911 0
M  V30 11111 O 1001.03 10.1388 1.11561 0
M  V30 11112 O 1000.46 8.36503 2.79617 0
M  V30 11113 O 1001 7.71806 0.42951 0
M  V30 11114 C 1001.94 7.67148 -0.673689 0
M  V30 11115 C 1001.21 7.33374 -1.95559 0
M  V30 11116 O 1001 5.88721 -2.00726 0
M  V30 11117 C 999.814 7.92526 -2.10483 0
M  V30 11118 O 999.424 8.02971 -3.47653 0
M  V30 11119 C 998.934 6.89602 -1.41652 0
M  V30 11120 C 999.644 5.59201 -1.75185 0
M  V30 11121 N 999.594 4.58235 -0.662552 0
M  V30 11122 H 1002.43 8.65116 -0.777161 0
M  V30 11123 H 1002.71 6.90173 -0.474152 0
M  V30 11124 H 1001.84 7.66548 -2.79458 0
M  V30 11125 P 997.874 8.03563 -3.84925 0
M  V30 11126 O 997.654 8.85821 -5.0569 0
M  V30 11127 O 997.084 8.41101 -2.65469 0
M  V30 11128 O 997.624 6.49734 -4.18962 0
M  V30 11129 C 998.564 5.81037 -5.05421 0
M  V30 11130 C 997.834 4.79018 -5.88876 0
M  V30 11131 O 997.624 3.58359 -5.08515 0
M  V30 11132 C 996.434 5.17448 -6.36119 0
M  V30 11133 O 996.044 4.45322 -7.53318 0
M  V30 11134 C 995.554 4.74639 -5.19936 0
M  V30 11135 C 996.264 3.49432 -4.70418 0
M  V30 11136 N 996.214 3.31776 -3.22945 0
M  V30 11137 C 996.064 2.02742 -2.72939 0
M  V30 11138 O 995.974 1.08301 -3.52749 0
M  V30 11139 N 996.014 1.96117 -1.22063 0
M  V30 11140 C 996.114 2.8878 -0.551566 0
M  V30 11141 N 996.064 2.65609 0.750198 0
M  V30 11142 C 996.264 4.22457 -1.03707 0
M  V30 11143 C 996.314 4.37979 -2.39113 0
M  V30 11144 H 999.054 6.54138 -5.7131 0
M  V30 11145 H 999.324 5.30492 -4.44033 0
M  V30 11146 H 998.457 4.55945 -6.76735 0
M  V30 11147 H 995.802 2.6176 -5.18021 0
M  V30 11148 H 995.522 5.52233 -4.41941 0
M  V30 11149 H 994.531 4.52045 -5.53452 0
M  V30 11150 H 996.365 6.25124 -6.55234 0
M  V30 11151 H 996.437 5.37936 -2.80552 0
M  V30 11152 H 996.335 5.07528 -0.359553 0
M  V30 11153 H 995.947 1.69403 1.09847 0
M  V30 11154 H 996.143 3.43701 1.41792 0
M  V30 11155 P 994.494 4.23843 -7.83734 0
M  V30 11156 O 994.274 4.19407 -9.29784 0
M  V30 11157 O 993.704 5.24426 -7.09156 0
M  V30 11158 O 994.244 2.7935 -7.20758 0
M  V30 11159 C 995.184 1.72945 -7.50224 0
M  V30 11160 C 994.454 0.406376 -7.57911 0
M  V30 11161 O 994.244 -0.0897726 -6.21935 0
M  V30 11162 C 993.054 0.438983 -8.18724 0
M  V30 11163 O 992.664 -0.825065 -8.71101 0
M  V30 11164 C 992.174 0.783689 -6.99524 0
M  V30 11165 C 992.884 0.0619086 -5.85867 0
M  V30 11166 N 992.834 0.78573 -4.56183 0
M  V30 11167 C 992.684 0.0292889 -3.41887 0
M  V30 11168 O 992.594 -1.18445 -3.4419 0
M  V30 11169 N 992.644 0.744061 -2.23964 0
M  V30 11170 C 992.734 2.10932 -2.10362 0
M  V30 11171 C 992.884 2.8202 -3.34994 0
M  V30 11172 C 992.934 2.15547 -4.52261 0
M  V30 11173 H 995.675 1.93379 -8.46595 0
M  V30 11174 H 995.944 1.68132 -6.70852 0
M  V30 11175 H 995.077 -0.289041 -8.15388 0
M  V30 11176 H 992.422 -0.926847 -5.72749 0
M  V30 11177 H 992.143 1.86973 -6.82036 0
M  V30 11178 H 991.151 0.403896 -7.13257 0
M  V30 11179 H 992.985 1.20585 -8.97435 0
M  V30 11180 H 993.056 2.71231 -5.45042 0
M  V30 11181 P 991.114 -1.17771 -8.83182 0
M  V30 11182 O 990.894 -2.07206 -9.98732 0
M  V30 11183 O 990.324 0.0743816 -8.81969 0
M  V30 11184 O 990.864 -1.97652 -7.47304 0
M  V30 11185 C 991.804 -3.01133 -7.08783 0
M  V30 11186 C 991.074 -4.12613 -6.37049 0
M  V30 11187 O 990.864 -3.72827 -4.97879 0
M  V30 11188 C 989.674 -4.45085 -6.88694 0
M  V30 11189 O 989.284 -5.7877 -6.5624 0
M  V30 11190 C 988.794 -3.47817 -6.12078 0
M  V30 11191 C 989.504 -3.39414 -4.77697 0
M  V30 11192 N 989.454 -2.04615 -4.15333 0
M  V30 11193 H 992.293 -3.41248 -7.98759 0
M  V30 11194 H 992.565 -2.5837 -6.41742 0
M  V30 11195 H 991.697 -5.02657 -6.42673 0
M  V30 11196 P 987.734 -6.144 -6.45285 0
M  V30 11197 O 987.514 -7.54673 -6.86199 0
M  V30 11198 O 986.944 -5.12391 -7.179 0
M  V30 11199 O 987.484 -5.99158 -4.88404 0
M  V30 11200 C 988.424 -6.60234 -3.96415 0
M  V30 11201 C 987.694 -7.08259 -2.72856 0
M  V30 11202 O 987.484 -5.9427 -1.83651 0
M  V30 11203 C 986.294 -7.64886 -2.9555 0
M  V30 11204 O 985.904 -8.53963 -1.90717 0
M  V30 11205 C 985.414 -6.4116 -2.90739 0
M  V30 11206 C 986.124 -5.55375 -1.86963 0
M  V30 11207 N 986.074 -4.09664 -2.15742 0
M  V30 11208 H 988.913 -7.45574 -4.45629 0
M  V30 11209 H 989.185 -5.86232 -3.67314 0
M  V30 11210 H 988.317 -7.84412 -2.24479 0
M  V30 11211 P 984.354 -8.7635 -1.60911 0
M  V30 11212 O 984.134 -10.1388 -1.11561 0
M  V30 11213 O 983.564 -8.36503 -2.79617 0
M  V30 11214 O 984.104 -7.71806 -0.42951 0
M  V30 11215 C 985.044 -7.67148 0.673689 0
M  V30 11216 C 984.314 -7.33374 1.95559 0
M  V30 11217 O 984.104 -5.88721 2.00726 0
M  V30 11218 C 982.914 -7.92526 2.10483 0
M  V30 11219 O 982.524 -8.02971 3.47653 0
M  V30 11220 C 982.034 -6.89602 1.41652 0
M  V30 11221 C 982.744 -5.59201 1.75185 0
M  V30 11222 N 982.694 -4.58235 0.662552 0
M  V30 11223 H 985.533 -8.65116 0.777161 0
M  V30 11224 H 985.805 -6.90173 0.474152 0
M  V30 11225 H 984.937 -7.66548 2.79458 0
M  V30 11226 P 980.974 -8.03563 3.84925 0
M  V30 11227 O 980.754 -8.85821 5.0569 0
M  V30 11228 O 980.184 -8.41101 2.65469 0
M  V30 11229 O 980.724 -6.4965 4.18908 0
M  V30 11230 C 981.664 -5.81037 5.05421 0
M  V30 11231 C 980.934 -4.78366 5.89277 0
M  V30 11232 O 980.724 -3.58302 5.08433 0
M  V30 11233 C 979.534 -5.17448 6.36119 0
M  V30 11234 O 979.144 -4.45271 7.53232 0
M  V30 11235 C 978.654 -4.74639 5.19936 0
M  V30 11236 C 979.364 -3.49432 4.70418 0
M  V30 11237 N 979.314 -3.31776 3.22945 0
M  V30 11238 C 979.394 -4.27147 2.23315 0
M  V30 11239 N 979.314 -3.78447 1.02186 0
M  V30 11240 C 979.174 -2.41001 1.21732 0
M  V30 11241 C 979.044 -1.36111 0.27694 0
M  V30 11242 O 979.024 -1.42065 -0.951767 0
M  V30 11243 N 978.924 -0.113683 0.912949 0
M  V30 11244 C 978.924 0.0846396 2.27943 0
M  V30 11245 N 978.794 1.34737 2.6916 0
M  V30 11246 N 979.054 -0.902521 3.16379 0
M  V30 11247 C 979.174 -2.11937 2.56849 0
M  V30 11248 H 982.153 -6.54213 5.71376 0
M  V30 11249 H 982.425 -5.30492 4.44033 0
M  V30 11250 H 981.557 -4.55889 6.76652 0
M  V30 11251 H 978.902 -2.6176 5.18021 0
M  V30 11252 H 978.622 -5.52233 4.41941 0
M  V30 11253 H 977.631 -4.52045 5.53452 0
M  V30 11254 H 979.465 -6.25193 6.55307 0
M  V30 11255 H 979.514 -5.3351 2.43857 0
M  V30 11256 H 978.832 0.69331 0.330371 0
M  V30 11257 H 978.795 1.56433 3.6988 0
M  V30 11258 H 978.694 2.10701 2.00133 0
M  V30 11259 P 977.594 -4.23843 7.83734 0
M  V30 11260 O 977.374 -4.19407 9.29784 0
M  V30 11261 O 976.804 -5.24426 7.09156 0
M  V30 11262 O 977.344 -2.7935 7.20758 0
M  V30 11263 C 978.284 -1.7299 7.50419 0
M  V30 11264 C 977.554 -0.406376 7.57911 0
M  V30 11265 O 977.344 0.0897726 6.21935 0
M  V30 11266 C 976.154 -0.447224 8.1878 0
M  V30 11267 O 975.764 0.825065 8.71101 0
M  V30 11268 C 975.274 -0.783801 6.99623 0
M  V30 11269 C 975.984 -0.0619192 5.85967 0
M  V30 11270 N 975.934 -0.7859 4.56281 0
M  V30 11271 H 978.773 -1.93423 8.4679 0
M  V30 11272 H 979.045 -1.68181 6.71046 0
M  V30 11273 H 978.177 0.289041 8.15388 0
M  V30 11274 P 974.214 1.17771 8.83182 0
M  V30 11275 O 973.994 2.07206 9.98732 0
M  V30 11276 O 973.424 -0.0743816 8.81969 0
M  V30 11277 O 973.964 1.97678 7.474 0
M  V30 11278 C 974.904 3.01133 7.08783 0
M  V30 11279 C 974.174 4.1203 6.37546 0
M  V30 11280 O 973.964 3.72887 4.9796 0
M  V30 11281 C 972.774 4.45085 6.88694 0
M  V30 11282 O 972.384 5.78836 6.56315 0
M  V30 11283 C 971.894 3.47817 6.12078 0
M  V30 11284 C 972.604 3.39414 4.77697 0
M  V30 11285 N 972.554 2.04615 4.15333 0
M  V30 11286 C 972.404 1.96929 2.77162 0
M  V30 11287 O 972.314 3.02017 2.12006 0
M  V30 11288 N 972.354 0.55485 2.24237 0
M  V30 11289 C 972.454 -0.367808 2.9169 0
M  V30 11290 N 972.404 -1.53426 2.29427 0
M  V30 11291 C 972.604 -0.319148 4.33828 0
M  V30 11292 C 972.654 0.920672 4.90433 0
M  V30 11293 H 975.394 3.41209 7.98667 0
M  V30 11294 H 975.664 2.5837 6.41742 0
M  V30 11295 H 974.797 5.02718 6.42752 0
M  V30 11296 H 972.142 4.11779 4.09026 0
M  V30 11297 H 971.862 2.49661 6.61772 0
M  V30 11298 H 970.871 3.86674 6.00946 0
M  V30 11299 H 972.705 4.29991 7.97006 0
M  V30 11300 H 972.777 1.00589 5.98303 0
M  V30 11301 H 972.675 -1.22639 4.93799 0
M  V30 11302 H 972.287 -1.56819 1.27167 0
M  V30 11303 H 972.483 -2.41062 2.83063 0
M  V30 11304 P 970.834 6.144 6.45285 0
M  V30 11305 O 970.614 7.54673 6.86199 0
M  V30 11306 O 970.044 5.12391 7.179 0
M  V30 11307 O 970.584 5.99158 4.88404 0
M  V30 11308 C 971.524 6.60234 3.96415 0
M  V30 11309 C 970.794 7.08259 2.72856 0
M  V30 11310 O 970.584 5.9427 1.83651 0
M  V30 11311 C 969.394 7.64886 2.9555 0
M  V30 11312 O 969.004 8.53963 1.90717 0
M  V30 11313 C 968.514 6.4116 2.90739 0
M  V30 11314 C 969.224 5.55375 1.86963 0
M  V30 11315 N 969.174 4.09448 2.16152 0
M  V30 11316 C 969.254 3.46824 3.37593 0
M  V30 11317 N 969.184 2.17422 3.29777 0
M  V30 11318 C 969.034 1.93065 1.94427 0
M  V30 11319 C 968.904 0.738053 1.20141 0
M  V30 11320 N 968.894 -0.474256 1.74676 0
M  V30 11321 N 968.784 0.850049 -0.13045 0
M  V30 11322 C 968.794 2.06169 -0.676992 0
M  V30 11323 N 968.914 3.23842 -0.101312 0
M  V30 11324 C 969.034 3.09402 1.23122 0
M  V30 11325 H 972.013 7.45574 4.45629 0
M  V30 11326 H 972.285 5.85864 3.679 0
M  V30 11327 H 971.417 7.84412 2.24479 0
M  V30 11328 H 968.762 5.73457 0.888562 0
M  V30 11329 H 968.482 5.90877 3.88583 0
M  V30 11330 H 967.491 6.6596 2.58858 0
M  V30 11331 H 969.325 8.16339 3.92049 0
M  V30 11332 H 969.366 4.00505 4.3174 0
M  V30 11333 H 968.985 -0.581337 2.76658 0
M  V30 11334 H 968.796 -1.30811 1.14888 0
M  V30 11335 H 968.688 2.08295 -1.75542 0
M  V30 11336 P 967.454 8.7635 1.60911 0
M  V30 11337 O 967.234 10.1388 1.11561 0
M  V30 11338 O 966.664 8.36503 2.79617 0
M  V30 11339 O 967.204 7.71806 0.42951 0
M  V30 11340 C 968.144 7.67148 -0.673689 0
M  V30 11341 C 967.414 7.33374 -1.95559 0
M  V30 11342 O 967.204 5.88721 -2.00726 0
M  V30 11343 C 966.014 7.92526 -2.10483 0
M  V30 11344 O 965.624 8.02971 -3.47653 0
M  V30 11345 C 965.134 6.89602 -1.41652 0
M  V30 11346 C 965.844 5.59201 -1.75185 0
M  V30 11347 N 965.794 4.58301 -0.657969 0
M  V30 11348 C 965.874 4.79019 0.692603 0
M  V30 11349 N 965.804 3.69736 1.38998 0
M  V30 11350 C 965.654 2.70474 0.438135 0
M  V30 11351 C 965.524 1.30327 0.538142 0
M  V30 11352 N 965.514 0.64304 1.69192 0
M  V30 11353 N 965.404 0.611027 -0.605183 0
M  V30 11354 C 965.414 1.27002 -1.75953 0
M  V30 11355 N 965.534 2.56038 -1.98546 0
M  V30 11356 C 965.654 3.22681 -0.822541 0
M  V30 11357 H 968.633 8.65116 -0.777161 0
M  V30 11358 H 968.905 6.9022 -0.46725 0
M  V30 11359 H 968.037 7.66548 -2.79458 0
M  V30 11360 H 965.382 5.16165 -2.65183 0
M  V30 11361 H 965.102 7.06433 -0.329384 0
M  V30 11362 H 964.111 6.90926 -1.82021 0
M  V30 11363 H 965.945 8.90873 -1.62657 0
M  V30 11364 H 965.986 5.77785 1.13874 0
M  V30 11365 H 965.605 1.15585 2.57991 0
M  V30 11366 H 965.416 -0.382989 1.69835 0
M  V30 11367 H 965.308 0.653331 -2.64449 0
M  V30 11368 P 964.074 8.03563 -3.84925 0
M  V30 11369 O 963.854 8.85821 -5.0569 0
M  V30 11370 O 963.284 8.41101 -2.65469 0
M  V30 11371 O 963.824 6.4965 -4.18908 0
M  V30 11372 C 964.764 5.81037 -5.05421 0
M  V30 11373 C 964.034 4.78366 -5.89277 0
M  V30 11374 O 963.824 3.58302 -5.08433 0
M  V30 11375 C 962.634 5.17448 -6.36119 0
M  V30 11376 O 962.244 4.45271 -7.53232 0
M  V30 11377 C 961.754 4.74639 -5.19936 0
M  V30 11378 C 962.464 3.49432 -4.70418 0
M  V30 11379 N 962.414 3.32099 -3.22613 0
M  V30 11380 H 965.253 6.54213 -5.71376 0
M  V30 11381 H 965.525 5.30936 -4.43503 0
M  V30 11382 H 964.657 4.55889 -6.76652 0
M  V30 11383 H 962.002 2.61715 -5.17932 0
M  V30 11384 H 961.722 5.52155 -4.41878 0
M  V30 11385 H 960.731 4.51981 -5.53374 0
M  V30 11386 H 962.565 6.25124 -6.55234 0
M  V30 11387 P 960.694 4.23843 -7.83734 0
M  V30 11388 O 960.474 4.19407 -9.29784 0
M  V30 11389 O 959.904 5.24426 -7.09156 0
M  V30 11390 O 960.444 2.7935 -7.20758 0
M  V30 11391 C 961.384 1.7299 -7.50419 0
M  V30 11392 C 960.654 0.406376 -7.57911 0
M  V30 11393 O 960.444 -0.0897726 -6.21935 0
M  V30 11394 C 959.254 0.447224 -8.1878 0
M  V30 11395 O 958.864 -0.825065 -8.71101 0
M  V30 11396 C 958.374 0.783801 -6.99623 0
M  V30 11397 C 959.084 0.0619192 -5.85967 0
M  V30 11398 N 959.034 0.7859 -4.56281 0
M  V30 11399 H 961.873 1.93423 -8.4679 0
M  V30 11400 H 962.145 1.68181 -6.71046 0
M  V30 11401 H 961.277 -0.289041 -8.15388 0
M  V30 11402 P 957.314 -1.17771 -8.83182 0
M  V30 11403 O 957.094 -2.07206 -9.98732 0
M  V30 11404 O 956.524 0.0743816 -8.81969 0
M  V30 11405 O 957.064 -1.97652 -7.47304 0
M  V30 11406 C 958.004 -3.01133 -7.08783 0
M  V30 11407 C 957.274 -4.12613 -6.37049 0
M  V30 11408 O 957.064 -3.72827 -4.97879 0
M  V30 11409 C 955.874 -4.45085 -6.88694 0
M  V30 11410 O 955.484 -5.7877 -6.5624 0
M  V30 11411 C 954.994 -3.47817 -6.12078 0
M  V30 11412 C 955.704 -3.39414 -4.77697 0
M  V30 11413 N 955.654 -2.04615 -4.15333 0
M  V30 11414 H 958.493 -3.41248 -7.98759 0
M  V30 11415 H 958.765 -2.5837 -6.41742 0
M  V30 11416 H 957.897 -5.02657 -6.42673 0
M  V30 11417 P 953.934 -6.144 -6.45285 0
M  V30 11418 O 953.714 -7.54673 -6.86199 0
M  V30 11419 O 953.144 -5.12391 -7.179 0
M  V30 11420 O 953.684 -5.99158 -4.88404 0
M  V30 11421 C 954.624 -6.60234 -3.96415 0
M  V30 11422 C 953.894 -7.08259 -2.72856 0
M  V30 11423 O 953.684 -5.9427 -1.83651 0
M  V30 11424 C 952.494 -7.64886 -2.9555 0
M  V30 11425 O 952.104 -8.53963 -1.90717 0
M  V30 11426 C 951.614 -6.4116 -2.90739 0
M  V30 11427 C 952.324 -5.55375 -1.86963 0
M  V30 11428 N 952.274 -4.09448 -2.16152 0
M  V30 11429 C 952.354 -3.46824 -3.37593 0
M  V30 11430 N 952.284 -2.17422 -3.29777 0
M  V30 11431 C 952.134 -1.93065 -1.94427 0
M  V30 11432 C 952.004 -0.738053 -1.20141 0
M  V30 11433 N 951.994 0.474256 -1.74676 0
M  V30 11434 N 951.884 -0.850049 0.13045 0
M  V30 11435 C 951.894 -2.06169 0.676992 0
M  V30 11436 N 952.014 -3.23842 0.101312 0
M  V30 11437 C 952.134 -3.09402 -1.23122 0
M  V30 11438 H 955.113 -7.45574 -4.45629 0
M  V30 11439 H 955.385 -5.85864 -3.679 0
M  V30 11440 H 954.517 -7.84412 -2.24479 0
M  V30 11441 H 951.862 -5.73457 -0.888562 0
M  V30 11442 H 951.582 -5.90877 -3.88583 0
M  V30 11443 H 950.591 -6.6596 -2.58858 0
M  V30 11444 H 952.425 -8.16339 -3.92049 0
M  V30 11445 H 952.466 -4.00505 -4.3174 0
M  V30 11446 H 952.085 0.581337 -2.76658 0
M  V30 11447 H 951.896 1.30811 -1.14888 0
M  V30 11448 H 951.788 -2.08295 1.75542 0
M  V30 11449 P 950.554 -8.7635 -1.60911 0
M  V30 11450 O 950.334 -10.1388 -1.11561 0
M  V30 11451 O 949.764 -8.36503 -2.79617 0
M  V30 11452 O 950.304 -7.71806 -0.42951 0
M  V30 11453 C 951.244 -7.67148 0.673689 0
M  V30 11454 C 950.514 -7.33374 1.95559 0
M  V30 11455 O 950.304 -5.88721 2.00726 0
M  V30 11456 C 949.114 -7.92526 2.10483 0
M  V30 11457 O 948.724 -8.02971 3.47653 0
M  V30 11458 C 948.234 -6.89602 1.41652 0
M  V30 11459 C 948.944 -5.59201 1.75185 0
M  V30 11460 N 948.894 -4.58235 0.662552 0
M  V30 11461 H 951.733 -8.65116 0.777161 0
M  V30 11462 H 952.005 -6.90173 0.474152 0
M  V30 11463 H 951.137 -7.66548 2.79458 0
M  V30 11464 P 947.174 -8.03563 3.84925 0
M  V30 11465 O 946.954 -8.85821 5.0569 0
M  V30 11466 O 946.384 -8.41101 2.65469 0
M  V30 11467 O 946.924 -6.4965 4.18908 0
M  V30 11468 C 947.864 -5.81037 5.05421 0
M  V30 11469 C 947.134 -4.78366 5.89277 0
M  V30 11470 O 946.924 -3.58302 5.08433 0
M  V30 11471 C 945.734 -5.17448 6.36119 0
M  V30 11472 O 945.344 -4.45271 7.53232 0
M  V30 11473 C 944.854 -4.74639 5.19936 0
M  V30 11474 C 945.564 -3.49432 4.70418 0
M  V30 11475 N 945.514 -3.31776 3.22945 0
M  V30 11476 H 948.353 -6.54213 5.71376 0
M  V30 11477 H 948.625 -5.30492 4.44033 0
M  V30 11478 H 947.757 -4.55889 6.76652 0
M  V30 11479 P 943.794 -4.23843 7.83734 0
M  V30 11480 O 943.574 -4.19407 9.29784 0
M  V30 11481 O 943.004 -5.24426 7.09156 0
M  V30 11482 O 943.544 -2.7935 7.20758 0
M  V30 11483 C 944.484 -1.7299 7.50419 0
M  V30 11484 C 943.754 -0.406376 7.57911 0
M  V30 11485 O 943.544 0.0897726 6.21935 0
M  V30 11486 C 942.354 -0.447224 8.1878 0
M  V30 11487 O 941.964 0.825065 8.71101 0
M  V30 11488 C 941.474 -0.783801 6.99623 0
M  V30 11489 C 942.184 -0.0619192 5.85967 0
M  V30 11490 N 942.134 -0.790462 4.56202 0
M  V30 11491 H 944.973 -1.93423 8.4679 0
M  V30 11492 H 945.245 -1.68852 6.70877 0
M  V30 11493 H 944.377 0.289041 8.15388 0
M  V30 11494 H 941.722 0.927006 5.72848 0
M  V30 11495 H 941.442 -1.86973 6.82036 0
M  V30 11496 H 940.451 -0.403953 7.13357 0
M  V30 11497 H 942.285 -1.20599 8.97534 0
M  V30 11498 P 940.414 1.17771 8.83182 0
M  V30 11499 O 940.194 2.07206 9.98732 0
M  V30 11500 O 939.624 -0.0743816 8.81969 0
M  V30 11501 O 940.164 1.97652 7.47304 0
M  V30 11502 C 941.104 3.01133 7.08783 0
M  V30 11503 C 940.374 4.12613 6.37049 0
M  V30 11504 O 940.164 3.72827 4.97879 0
M  V30 11505 C 938.974 4.45085 6.88694 0
M  V30 11506 O 938.584 5.7877 6.5624 0
M  V30 11507 C 938.094 3.47817 6.12078 0
M  V30 11508 C 938.804 3.39414 4.77697 0
M  V30 11509 N 938.754 2.04199 4.15538 0
M  V30 11510 H 941.593 3.41248 7.98759 0
M  V30 11511 H 941.865 2.57728 6.42 0
M  V30 11512 H 940.997 5.02657 6.42673 0
M  V30 11513 H 938.342 4.11708 4.08956 0
M  V30 11514 H 938.062 2.49626 6.61679 0
M  V30 11515 H 937.071 3.8662 6.00862 0
M  V30 11516 H 938.905 4.29991 7.97006 0
M  V30 11517 P 937.034 6.144 6.45285 0
M  V30 11518 O 936.814 7.54673 6.86199 0
M  V30 11519 O 936.244 5.12391 7.179 0
M  V30 11520 O 936.784 5.99236 4.88467 0
M  V30 11521 C 937.724 6.60234 3.96415 0
M  V30 11522 C 936.994 7.08079 2.736 0
M  V30 11523 O 936.784 5.94365 1.8368 0
M  V30 11524 C 935.594 7.64886 2.9555 0
M  V30 11525 O 935.204 8.5406 1.90739 0
M  V30 11526 C 934.714 6.4116 2.90739 0
M  V30 11527 C 935.424 5.55375 1.86963 0
M  V30 11528 N 935.374 4.09664 2.15742 0
M  V30 11529 C 935.224 3.22231 1.08477 0
M  V30 11530 O 935.134 3.68951 -0.0600489 0
M  V30 11531 N 935.174 1.76692 1.48799 0
M  V30 11532 C 935.274 1.41695 2.57602 0
M  V30 11533 N 935.224 0.107296 2.75791 0
M  V30 11534 C 935.424 2.29178 3.69733 0
M  V30 11535 C 935.474 3.62753 3.42653 0
M  V30 11536 H 938.214 7.45488 4.45578 0
M  V30 11537 H 938.484 5.86232 3.67314 0
M  V30 11538 H 937.617 7.84508 2.24507 0
M  V30 11539 H 934.962 5.73556 0.888715 0
M  V30 11540 H 934.682 5.9096 3.88638 0
M  V30 11541 H 933.691 6.66053 2.58894 0
M  V30 11542 H 935.525 8.16339 3.92049 0
M  V30 11543 H 935.597 4.33052 4.24913 0
M  V30 11544 H 935.495 1.9103 4.71577 0
M  V30 11545 H 935.107 -0.521221 1.95056 0
M  V30 11546 H 935.303 -0.286429 3.70695 0
M  V30 11547 P 933.655 8.7635 1.60911 0
M  V30 11548 O 933.435 10.1388 1.11561 0
M  V30 11549 O 932.865 8.36503 2.79617 0
M  V30 11550 O 933.405 7.71806 0.42951 0
M  V30 11551 C 934.345 7.67148 -0.673689 0
M  V30 11552 C 933.615 7.33374 -1.95559 0
M  V30 11553 O 933.405 5.88721 -2.00726 0
M  V30 11554 C 932.215 7.92526 -2.10483 0
M  V30 11555 O 931.825 8.02971 -3.47653 0
M  V30 11556 C 931.335 6.89602 -1.41652 0
M  V30 11557 C 932.045 5.59201 -1.75185 0
M  V30 11558 N 931.995 4.58235 -0.662552 0
M  V30 11559 C 932.075 4.7683 0.704049 0
M  V30 11560 N 931.995 3.66233 1.39775 0
M  V30 11561 C 931.855 2.66526 0.431739 0
M  V30 11562 C 931.725 1.26394 0.575992 0
M  V30 11563 N 931.605 0.62859 -0.67177 0
M  V30 11564 C 931.605 1.27134 -1.89385 0
M  V30 11565 N 931.475 0.492035 -2.96951 0
M  V30 11566 N 931.735 2.58978 -2.02907 0
M  V30 11567 C 931.855 3.22433 -0.832218 0
M  V30 11568 H 934.834 8.65116 -0.777161 0
M  V30 11569 H 935.106 6.90173 -0.474152 0
M  V30 11570 H 934.238 7.66548 -2.79458 0
M  V30 11571 P 930.275 8.03563 -3.84925 0
M  V30 11572 O 930.055 8.85821 -5.0569 0
M  V30 11573 O 929.485 8.41101 -2.65469 0
M  V30 11574 O 930.025 6.4965 -4.18908 0
M  V30 11575 C 930.965 5.80886 -5.05289 0
M  V30 11576 C 930.235 4.78366 -5.89277 0
M  V30 11577 O 930.025 3.58302 -5.08433 0
M  V30 11578 C 928.835 5.16748 -6.36559 0
M  V30 11579 O 928.445 4.45271 -7.53232 0
M  V30 11580 C 927.955 4.74572 -5.19863 0
M  V30 11581 C 928.665 3.49373 -4.70338 0
M  V30 11582 N 928.615 3.31704 -3.22876 0
M  V30 11583 C 928.465 2.03326 -2.74871 0
M  V30 11584 O 928.375 1.06486 -3.48076 0
M  V30 11585 N 928.425 1.91838 -1.37456 0
M  V30 11586 C 928.515 2.94295 -0.462035 0
M  V30 11587 C 928.665 4.25064 -1.05249 0
M  V30 11588 C 928.715 4.40214 -2.39192 0
M  V30 11589 H 931.456 6.54063 -5.71245 0
M  V30 11590 H 931.725 5.30339 -4.43905 0
M  V30 11591 H 930.858 4.55889 -6.76652 0
M  V30 11592 H 928.203 2.6167 -5.17842 0
M  V30 11593 H 927.924 5.52155 -4.41878 0
M  V30 11594 H 926.932 4.51918 -5.53297 0
M  V30 11595 H 928.766 6.25055 -6.55162 0
M  V30 11596 H 928.837 5.39798 -2.81523 0
M  V30 11597 P 926.895 4.23843 -7.83734 0
M  V30 11598 O 926.675 4.19407 -9.29784 0
M  V30 11599 O 926.105 5.24426 -7.09156 0
M  V30 11600 O 926.645 2.7935 -7.20758 0
M  V30 11601 C 927.585 1.7299 -7.50419 0
M  V30 11602 C 926.855 0.406376 -7.57911 0
M  V30 11603 O 926.645 -0.0897726 -6.21935 0
M  V30 11604 C 925.455 0.447224 -8.1878 0
M  V30 11605 O 925.065 -0.825065 -8.71101 0
M  V30 11606 C 924.575 0.783801 -6.99623 0
M  V30 11607 C 925.285 0.0619192 -5.85967 0
M  V30 11608 N 925.235 0.7859 -4.56281 0
M  V30 11609 H 928.074 1.93423 -8.4679 0
M  V30 11610 H 928.346 1.68181 -6.71046 0
M  V30 11611 H 927.478 -0.289041 -8.15388 0
M  V30 11612 P 923.515 -1.17771 -8.83182 0
M  V30 11613 O 923.295 -2.07206 -9.98732 0
M  V30 11614 O 922.725 0.0743816 -8.81969 0
M  V30 11615 O 923.265 -1.97652 -7.47304 0
M  V30 11616 C 924.205 -3.01133 -7.08783 0
M  V30 11617 C 923.475 -4.12613 -6.37049 0
M  V30 11618 O 923.265 -3.72827 -4.97879 0
M  V30 11619 C 922.075 -4.45085 -6.88694 0
M  V30 11620 O 921.685 -5.7877 -6.5624 0
M  V30 11621 C 921.195 -3.47817 -6.12078 0
M  V30 11622 C 921.905 -3.39414 -4.77697 0
M  V30 11623 N 921.855 -2.04199 -4.15538 0
M  V30 11624 H 924.694 -3.41248 -7.98759 0
M  V30 11625 H 924.966 -2.57728 -6.42 0
M  V30 11626 H 924.098 -5.02657 -6.42673 0
M  V30 11627 H 921.443 -4.11708 -4.08956 0
M  V30 11628 H 921.163 -2.49626 -6.61679 0
M  V30 11629 H 920.172 -3.8662 -6.00862 0
M  V30 11630 H 922.006 -4.29991 -7.97006 0
M  V30 11631 P 920.135 -6.144 -6.45285 0
M  V30 11632 O 919.915 -7.54673 -6.86199 0
M  V30 11633 O 919.345 -5.12391 -7.179 0
M  V30 11634 O 919.885 -5.99158 -4.88404 0
M  V30 11635 C 920.825 -6.60234 -3.96415 0
M  V30 11636 C 920.095 -7.08259 -2.72856 0
M  V30 11637 O 919.885 -5.9427 -1.83651 0
M  V30 11638 C 918.695 -7.64886 -2.9555 0
M  V30 11639 O 918.305 -8.53963 -1.90717 0
M  V30 11640 C 917.815 -6.4116 -2.90739 0
M  V30 11641 C 918.525 -5.55375 -1.86963 0
M  V30 11642 N 918.475 -4.09664 -2.15742 0
M  V30 11643 C 918.555 -3.44381 -3.37233 0
M  V30 11644 N 918.475 -2.14131 -3.28347 0
M  V30 11645 C 918.335 -1.90247 -1.91588 0
M  V30 11646 C 918.205 -0.683992 -1.20892 0
M  V30 11647 N 918.085 -0.903396 0.173998 0
M  V30 11648 C 918.085 -2.14171 0.784879 0
M  V30 11649 N 917.955 -2.1435 2.11317 0
M  V30 11650 N 918.215 -3.28784 0.119316 0
M  V30 11651 C 918.335 -3.0977 -1.22194 0
M  V30 11652 H 921.314 -7.45574 -4.45629 0
M  V30 11653 H 921.586 -5.86232 -3.67314 0
M  V30 11654 H 920.718 -7.84412 -2.24479 0
M  V30 11655 P 916.755 -8.7635 -1.60911 0
M  V30 11656 O 916.535 -10.1388 -1.11561 0
M  V30 11657 O 915.965 -8.36503 -2.79617 0
M  V30 11658 O 916.505 -7.71806 -0.42951 0
M  V30 11659 C 917.445 -7.67148 0.673689 0
M  V30 11660 C 916.715 -7.33374 1.95559 0
M  V30 11661 O 916.505 -5.88721 2.00726 0
M  V30 11662 C 915.315 -7.92526 2.10483 0
M  V30 11663 O 914.925 -8.02971 3.47653 0
M  V30 11664 C 914.435 -6.89602 1.41652 0
M  V30 11665 C 915.145 -5.59201 1.75185 0
M  V30 11666 N 915.095 -4.58235 0.662552 0
M  V30 11667 H 917.934 -8.65116 0.777161 0
M  V30 11668 H 918.206 -6.90173 0.474152 0
M  V30 11669 H 917.338 -7.66548 2.79458 0
M  V30 11670 P 913.375 -8.03563 3.84925 0
M  V30 11671 O 913.155 -8.85821 5.0569 0
M  V30 11672 O 912.585 -8.41101 2.65469 0
M  V30 11673 O 913.125 -6.49734 4.18962 0
M  V30 11674 C 914.065 -5.81037 5.05421 0
M  V30 11675 C 913.335 -4.79018 5.88876 0
M  V30 11676 O 913.125 -3.58359 5.08515 0
M  V30 11677 C 911.935 -5.17448 6.36119 0
M  V30 11678 O 911.545 -4.45322 7.53318 0
M  V30 11679 C 911.055 -4.74639 5.19936 0
M  V30 11680 C 911.765 -3.49432 4.70418 0
M  V30 11681 N 911.715 -3.31776 3.22945 0
M  V30 11682 C 911.565 -2.02742 2.72939 0
M  V30 11683 O 911.475 -1.08301 3.52749 0
M  V30 11684 N 911.515 -1.96117 1.22063 0
M  V30 11685 C 911.615 -2.8878 0.551566 0
M  V30 11686 N 911.565 -2.65609 -0.750198 0
M  V30 11687 C 911.765 -4.22457 1.03707 0
M  V30 11688 C 911.815 -4.37979 2.39113 0
M  V30 11689 H 914.555 -6.54138 5.7131 0
M  V30 11690 H 914.825 -5.30492 4.44033 0
M  V30 11691 H 913.958 -4.55945 6.76735 0
M  V30 11692 H 911.303 -2.6176 5.18021 0
M  V30 11693 H 911.023 -5.52233 4.41941 0
M  V30 11694 H 910.032 -4.52045 5.53452 0
M  V30 11695 H 911.866 -6.25124 6.55234 0
M  V30 11696 H 911.938 -5.37936 2.80552 0
M  V30 11697 H 911.836 -5.07528 0.359553 0
M  V30 11698 H 911.448 -1.69403 -1.09847 0
M  V30 11699 H 911.644 -3.43701 -1.41792 0
M  V30 11700 P 909.995 -4.23843 7.83734 0
M  V30 11701 O 909.775 -4.19407 9.29784 0
M  V30 11702 O 909.205 -5.24426 7.09156 0
M  V30 11703 O 909.745 -2.7935 7.20758 0
M  V30 11704 C 910.685 -1.7299 7.50419 0
M  V30 11705 C 909.955 -0.406376 7.57911 0
M  V30 11706 O 909.745 0.0897726 6.21935 0
M  V30 11707 C 908.555 -0.447224 8.1878 0
M  V30 11708 O 908.165 0.825065 8.71101 0
M  V30 11709 C 907.675 -0.783801 6.99623 0
M  V30 11710 C 908.385 -0.0619192 5.85967 0
M  V30 11711 N 908.335 -0.790462 4.56202 0
M  V30 11712 H 911.174 -1.93423 8.4679 0
M  V30 11713 H 911.446 -1.68852 6.70877 0
M  V30 11714 H 910.578 0.289041 8.15388 0
M  V30 11715 H 907.923 0.927006 5.72848 0
M  V30 11716 H 907.643 -1.86973 6.82036 0
M  V30 11717 H 906.652 -0.403953 7.13357 0
M  V30 11718 H 908.486 -1.20599 8.97534 0
M  V30 11719 P 906.615 1.17771 8.83182 0
M  V30 11720 O 906.395 2.07206 9.98732 0
M  V30 11721 O 905.825 -0.0743816 8.81969 0
M  V30 11722 O 906.365 1.97652 7.47304 0
M  V30 11723 C 907.305 3.01133 7.08783 0
M  V30 11724 C 906.575 4.12613 6.37049 0
M  V30 11725 O 906.365 3.72827 4.97879 0
M  V30 11726 C 905.175 4.45085 6.88694 0
M  V30 11727 O 904.785 5.7877 6.5624 0
M  V30 11728 C 904.295 3.47817 6.12078 0
M  V30 11729 C 905.005 3.39414 4.77697 0
M  V30 11730 N 904.955 2.04615 4.15333 0
M  V30 11731 H 907.794 3.41248 7.98759 0
M  V30 11732 H 908.066 2.5837 6.41742 0
M  V30 11733 H 907.198 5.02657 6.42673 0
M  V30 11734 P 903.235 6.144 6.45285 0
M  V30 11735 O 903.015 7.54673 6.86199 0
M  V30 11736 O 902.445 5.12391 7.179 0
M  V30 11737 O 902.985 5.99158 4.88404 0
M  V30 11738 C 903.925 6.60234 3.96415 0
M  V30 11739 C 903.195 7.08259 2.72856 0
M  V30 11740 O 902.985 5.9427 1.83651 0
M  V30 11741 C 901.795 7.64886 2.9555 0
M  V30 11742 O 901.405 8.53963 1.90717 0
M  V30 11743 C 900.915 6.4116 2.90739 0
M  V30 11744 C 901.625 5.55375 1.86963 0
M  V30 11745 N 901.575 4.09664 2.15742 0
M  V30 11746 C 901.655 3.44381 3.37233 0
M  V30 11747 N 901.575 2.14131 3.28347 0
M  V30 11748 C 901.435 1.90247 1.91588 0
M  V30 11749 C 901.305 0.683992 1.20892 0
M  V30 11750 O 901.285 -0.46618 1.64523 0
M  V30 11751 N 901.185 0.903396 -0.173998 0
M  V30 11752 C 901.185 2.14171 -0.784879 0
M  V30 11753 N 901.055 2.1435 -2.11317 0
M  V30 11754 N 901.315 3.28784 -0.119316 0
M  V30 11755 C 901.435 3.0977 1.22194 0
M  V30 11756 H 904.414 7.45574 4.45629 0
M  V30 11757 H 904.686 5.86232 3.67314 0
M  V30 11758 H 903.818 7.84412 2.24479 0
M  V30 11759 H 901.163 5.73556 0.888715 0
M  V30 11760 H 900.883 5.9096 3.88638 0
M  V30 11761 H 899.892 6.66053 2.58894 0
M  V30 11762 H 901.726 8.16429 3.92093 0
M  V30 11763 H 901.775 3.96785 4.32043 0
M  V30 11764 H 901.093 0.0999567 -0.761467 0
M  V30 11765 H 901.056 3.03436 -2.63076 0
M  V30 11766 H 900.955 1.25228 -2.62233 0
M  V30 11767 P 899.855 8.7635 1.60911 0
M  V30 11768 O 899.635 10.1388 1.11561 0
M  V30 11769 O 899.065 8.36503 2.79617 0
M  V30 11770 O 899.605 7.71806 0.42951 0
M  V30 11771 C 900.545 7.67148 -0.673689 0
M  V30 11772 C 899.815 7.33374 -1.95559 0
M  V30 11773 O 899.605 5.88721 -2.00726 0
M  V30 11774 C 898.415 7.92526 -2.10483 0
M  V30 11775 O 898.025 8.02971 -3.47653 0
M  V30 11776 C 897.535 6.89602 -1.41652 0
M  V30 11777 C 898.245 5.59201 -1.75185 0
M  V30 11778 N 898.195 4.58235 -0.662552 0
M  V30 11779 C 898.275 4.7683 0.704049 0
M  V30 11780 N 898.195 3.66233 1.39775 0
M  V30 11781 C 898.055 2.66526 0.431739 0
M  V30 11782 C 897.925 1.26394 0.575992 0
M  V30 11783 N 897.805 0.62859 -0.67177 0
M  V30 11784 C 897.805 1.27134 -1.89385 0
M  V30 11785 N 897.675 0.492035 -2.96951 0
M  V30 11786 N 897.935 2.58978 -2.02907 0
M  V30 11787 C 898.055 3.22433 -0.832218 0
M  V30 11788 H 901.034 8.65116 -0.777161 0
M  V30 11789 H 901.306 6.90173 -0.474152 0
M  V30 11790 H 900.438 7.66548 -2.79458 0
M  V30 11791 P 896.475 8.03563 -3.84925 0
M  V30 11792 O 896.255 8.85821 -5.0569 0
M  V30 11793 O 895.685 8.41101 -2.65469 0
M  V30 11794 O 896.225 6.4965 -4.18908 0
M  V30 11795 C 897.165 5.81037 -5.05421 0
M  V30 11796 C 896.435 4.78366 -5.89277 0
M  V30 11797 O 896.225 3.58302 -5.08433 0
M  V30 11798 C 895.035 5.17448 -6.36119 0
M  V30 11799 O 894.645 4.45271 -7.53232 0
M  V30 11800 C 894.155 4.74639 -5.19936 0
M  V30 11801 C 894.865 3.49432 -4.70418 0
M  V30 11802 N 894.815 3.32099 -3.22613 0
M  V30 11803 H 897.654 6.54213 -5.71376 0
M  V30 11804 H 897.926 5.30936 -4.43503 0
M  V30 11805 H 897.058 4.55889 -6.76652 0
M  V30 11806 H 894.403 2.61715 -5.17932 0
M  V30 11807 H 894.123 5.52155 -4.41878 0
M  V30 11808 H 893.132 4.51981 -5.53374 0
M  V30 11809 H 894.966 6.25124 -6.55234 0
M  V30 11810 P 893.095 4.23843 -7.83734 0
M  V30 11811 O 892.875 4.19407 -9.29784 0
M  V30 11812 O 892.305 5.24426 -7.09156 0
M  V30 11813 O 892.845 2.7935 -7.20758 0
M  V30 11814 C 893.785 1.7299 -7.50419 0
M  V30 11815 C 893.055 0.406376 -7.57911 0
M  V30 11816 O 892.845 -0.0897726 -6.21935 0
M  V30 11817 C 891.655 0.447224 -8.1878 0
M  V30 11818 O 891.265 -0.825065 -8.71101 0
M  V30 11819 C 890.775 0.783801 -6.99623 0
M  V30 11820 C 891.485 0.0619192 -5.85967 0
M  V30 11821 N 891.435 0.7859 -4.56281 0
M  V30 11822 H 894.274 1.93423 -8.4679 0
M  V30 11823 H 894.546 1.68181 -6.71046 0
M  V30 11824 H 893.678 -0.289041 -8.15388 0
M  V30 11825 P 889.715 -1.17771 -8.83182 0
M  V30 11826 O 889.495 -2.07206 -9.98732 0
M  V30 11827 O 888.925 0.0743816 -8.81969 0
M  V30 11828 O 889.465 -1.97652 -7.47304 0
M  V30 11829 C 890.405 -3.01133 -7.08783 0
M  V30 11830 C 889.675 -4.12613 -6.37049 0
M  V30 11831 O 889.465 -3.72827 -4.97879 0
M  V30 11832 C 888.275 -4.45085 -6.88694 0
M  V30 11833 O 887.885 -5.7877 -6.5624 0
M  V30 11834 C 887.395 -3.47817 -6.12078 0
M  V30 11835 C 888.105 -3.39414 -4.77697 0
M  V30 11836 N 888.055 -2.04199 -4.15538 0
M  V30 11837 H 890.894 -3.41248 -7.98759 0
M  V30 11838 H 891.166 -2.57728 -6.42 0
M  V30 11839 H 890.298 -5.02657 -6.42673 0
M  V30 11840 H 887.643 -4.11708 -4.08956 0
M  V30 11841 H 887.363 -2.49626 -6.61679 0
M  V30 11842 H 886.372 -3.8662 -6.00862 0
M  V30 11843 H 888.206 -4.29991 -7.97006 0
M  V30 11844 P 886.335 -6.144 -6.45285 0
M  V30 11845 O 886.115 -7.54673 -6.86199 0
M  V30 11846 O 885.545 -5.12391 -7.179 0
M  V30 11847 O 886.085 -5.99158 -4.88404 0
M  V30 11848 C 887.025 -6.60062 -3.96313 0
M  V30 11849 C 886.295 -7.08259 -2.72856 0
M  V30 11850 O 886.085 -5.9427 -1.83651 0
M  V30 11851 C 884.895 -7.65087 -2.94749 0
M  V30 11852 O 884.505 -8.53963 -1.90717 0
M  V30 11853 C 884.015 -6.41069 -2.90698 0
M  V30 11854 C 884.725 -5.5528 -1.86931 0
M  V30 11855 N 884.675 -4.09575 -2.15696 0
M  V30 11856 C 884.525 -3.24249 -1.08435 0
M  V30 11857 O 884.435 -3.63946 0.0628747 0
M  V30 11858 N 884.485 -1.90009 -1.39973 0
M  V30 11859 C 884.575 -1.34884 -2.65614 0
M  V30 11860 C 884.725 -2.3145 -3.71736 0
M  V30 11861 C 884.775 -3.63518 -3.44754 0
M  V30 11862 H 887.516 -7.45402 -4.45526 0
M  V30 11863 H 887.785 -5.86062 -3.67208 0
M  V30 11864 H 886.918 -7.84412 -2.24479 0
M  V30 11865 H 884.263 -5.73358 -0.888409 0
M  V30 11866 H 883.984 -5.90877 -3.88583 0
M  V30 11867 H 882.992 -6.65867 -2.58821 0
M  V30 11868 H 884.826 -8.16248 -3.92006 0
M  V30 11869 H 884.897 -4.34551 -4.26383 0
M  V30 11870 P 882.955 -8.7635 -1.60911 0
M  V30 11871 O 882.735 -10.1388 -1.11561 0
M  V30 11872 O 882.165 -8.36503 -2.79617 0
M  V30 11873 O 882.705 -7.71906 -0.429565 0
M  V30 11874 C 883.645 -7.67148 0.673689 0
M  V30 11875 C 882.915 -7.33666 1.94851 0
M  V30 11876 O 882.705 -5.88816 2.00759 0
M  V30 11877 C 881.515 -7.92526 2.10483 0
M  V30 11878 O 881.125 -8.03063 3.47693 0
M  V30 11879 C 880.635 -6.89602 1.41652 0
M  V30 11880 C 881.345 -5.59201 1.75185 0
M  V30 11881 N 881.295 -4.58235 0.662552 0
M  V30 11882 C 881.145 -3.24451 1.01643 0
M  V30 11883 O 881.055 -2.94958 2.21722 0
M  V30 11884 N 881.095 -2.30408 -0.165238 0
M  V30 11885 C 881.195 -2.66048 -1.25118 0
M  V30 11886 N 881.145 -1.70787 -2.16813 0
M  V30 11887 C 881.345 -4.02732 -1.64413 0
M  V30 11888 C 881.395 -4.9488 -0.63991 0
M  V30 11889 H 884.135 -8.65017 0.777072 0
M  V30 11890 H 884.405 -6.90173 0.474152 0
M  V30 11891 H 883.538 -7.66642 2.79492 0
M  V30 11892 H 880.883 -5.16254 2.65229 0
M  V30 11893 H 880.603 -7.06532 0.329431 0
M  V30 11894 H 879.612 -6.91023 1.82047 0
M  V30 11895 H 881.446 -8.90873 1.62657 0
M  V30 11896 H 881.518 -6.00104 -0.892197 0
M  V30 11897 H 881.416 -4.31733 -2.69229 0
M  V30 11898 H 881.028 -0.724835 -1.8844 0
M  V30 11899 H 881.224 -1.94716 -3.16734 0
M  V30 11900 P 879.575 -8.03563 3.84925 0
M  V30 11901 O 879.355 -8.85821 5.0569 0
M  V30 11902 O 878.785 -8.41101 2.65469 0
M  V30 11903 O 879.325 -6.4965 4.18908 0
M  V30 11904 C 880.265 -5.81037 5.05421 0
M  V30 11905 C 879.535 -4.78366 5.89277 0
M  V30 11906 O 879.325 -3.58302 5.08433 0
M  V30 11907 C 878.135 -5.17448 6.36119 0
M  V30 11908 O 877.745 -4.45271 7.53232 0
M  V30 11909 C 877.255 -4.74639 5.19936 0
M  V30 11910 C 877.965 -3.49432 4.70418 0
M  V30 11911 N 877.915 -3.31776 3.22945 0
M  V30 11912 H 880.754 -6.54213 5.71376 0
M  V30 11913 H 881.026 -5.30492 4.44033 0
M  V30 11914 H 880.158 -4.55889 6.76652 0
M  V30 11915 P 876.195 -4.23843 7.83734 0
M  V30 11916 O 875.975 -4.19407 9.29784 0
M  V30 11917 O 875.405 -5.24426 7.09156 0
M  V30 11918 O 875.945 -2.7935 7.20758 0
M  V30 11919 C 876.885 -1.7299 7.50419 0
M  V30 11920 C 876.155 -0.406376 7.57911 0
M  V30 11921 O 875.945 0.0897726 6.21935 0
M  V30 11922 C 874.755 -0.447224 8.1878 0
M  V30 11923 O 874.365 0.825065 8.71101 0
M  V30 11924 C 873.875 -0.783801 6.99623 0
M  V30 11925 C 874.585 -0.0619192 5.85967 0
M  V30 11926 N 874.535 -0.7859 4.56281 0
M  V30 11927 H 877.374 -1.93423 8.4679 0
M  V30 11928 H 877.646 -1.68181 6.71046 0
M  V30 11929 H 876.778 0.289041 8.15388 0
M  V30 11930 P 872.815 1.17771 8.83182 0
M  V30 11931 O 872.595 2.07206 9.98732 0
M  V30 11932 O 872.025 -0.0743816 8.81969 0
M  V30 11933 O 872.565 1.97652 7.47304 0
M  V30 11934 C 873.505 3.01133 7.08783 0
M  V30 11935 C 872.775 4.12613 6.37049 0
M  V30 11936 O 872.565 3.72827 4.97879 0
M  V30 11937 C 871.375 4.45085 6.88694 0
M  V30 11938 O 870.985 5.7877 6.5624 0
M  V30 11939 C 870.495 3.47817 6.12078 0
M  V30 11940 C 871.205 3.39414 4.77697 0
M  V30 11941 N 871.155 2.04199 4.15538 0
M  V30 11942 H 873.994 3.41248 7.98759 0
M  V30 11943 H 874.266 2.57728 6.42 0
M  V30 11944 H 873.398 5.02657 6.42673 0
M  V30 11945 H 870.743 4.11708 4.08956 0
M  V30 11946 H 870.463 2.49626 6.61679 0
M  V30 11947 H 869.472 3.8662 6.00862 0
M  V30 11948 H 871.306 4.29991 7.97006 0
M  V30 11949 P 869.435 6.144 6.45285 0
M  V30 11950 O 869.215 7.54673 6.86199 0
M  V30 11951 O 868.645 5.12391 7.179 0
M  V30 11952 O 869.185 5.99158 4.88404 0
M  V30 11953 C 870.125 6.60234 3.96415 0
M  V30 11954 C 869.395 7.08259 2.72856 0
M  V30 11955 O 869.185 5.9427 1.83651 0
M  V30 11956 C 867.995 7.64886 2.9555 0
M  V30 11957 O 867.605 8.53963 1.90717 0
M  V30 11958 C 867.115 6.4116 2.90739 0
M  V30 11959 C 867.825 5.55375 1.86963 0
M  V30 11960 N 867.775 4.09448 2.16152 0
M  V30 11961 C 867.855 3.46824 3.37593 0
M  V30 11962 N 867.785 2.17422 3.29777 0
M  V30 11963 C 867.635 1.93065 1.94427 0
M  V30 11964 C 867.505 0.738053 1.20141 0
M  V30 11965 N 867.495 -0.474256 1.74676 0
M  V30 11966 N 867.385 0.850049 -0.13045 0
M  V30 11967 C 867.395 2.06169 -0.676992 0
M  V30 11968 N 867.515 3.23842 -0.101312 0
M  V30 11969 C 867.635 3.09402 1.23122 0
M  V30 11970 H 870.614 7.45574 4.45629 0
M  V30 11971 H 870.886 5.85864 3.679 0
M  V30 11972 H 870.018 7.84412 2.24479 0
M  V30 11973 H 867.363 5.73457 0.888562 0
M  V30 11974 H 867.083 5.90877 3.88583 0
M  V30 11975 H 866.092 6.6596 2.58858 0
M  V30 11976 H 867.926 8.16339 3.92049 0
M  V30 11977 H 867.967 4.00505 4.3174 0
M  V30 11978 H 867.586 -0.581337 2.76658 0
M  V30 11979 H 867.397 -1.30811 1.14888 0
M  V30 11980 H 867.289 2.08295 -1.75542 0
M  V30 11981 P 866.055 8.7635 1.60911 0
M  V30 11982 O 865.835 10.1388 1.11561 0
M  V30 11983 O 865.265 8.36503 2.79617 0
M  V30 11984 O 865.805 7.71806 0.42951 0
M  V30 11985 C 866.745 7.67148 -0.673689 0
M  V30 11986 C 866.015 7.33374 -1.95559 0
M  V30 11987 O 865.805 5.88721 -2.00726 0
M  V30 11988 C 864.615 7.92526 -2.10483 0
M  V30 11989 O 864.225 8.02971 -3.47653 0
M  V30 11990 C 863.735 6.89602 -1.41652 0
M  V30 11991 C 864.445 5.59201 -1.75185 0
M  V30 11992 N 864.395 4.58301 -0.657969 0
M  V30 11993 C 864.475 4.79019 0.692603 0
M  V30 11994 N 864.405 3.69736 1.38998 0
M  V30 11995 C 864.255 2.70474 0.438135 0
M  V30 11996 C 864.125 1.30327 0.538142 0
M  V30 11997 N 864.115 0.64304 1.69192 0
M  V30 11998 N 864.005 0.611027 -0.605183 0
M  V30 11999 C 864.015 1.27002 -1.75953 0
M  V30 12000 N 864.135 2.56038 -1.98546 0
M  V30 12001 C 864.255 3.22681 -0.822541 0
M  V30 12002 H 867.234 8.65116 -0.777161 0
M  V30 12003 H 867.506 6.9022 -0.46725 0
M  V30 12004 H 866.638 7.66548 -2.79458 0
M  V30 12005 H 863.983 5.16165 -2.65183 0
M  V30 12006 H 863.703 7.06433 -0.329384 0
M  V30 12007 H 862.712 6.90926 -1.82021 0
M  V30 12008 H 864.546 8.90873 -1.62657 0
M  V30 12009 H 864.587 5.77785 1.13874 0
M  V30 12010 H 864.206 1.15585 2.57991 0
M  V30 12011 H 864.017 -0.382989 1.69835 0
M  V30 12012 H 863.909 0.653331 -2.64449 0
M  V30 12013 P 862.675 8.03563 -3.84925 0
M  V30 12014 O 862.455 8.85821 -5.0569 0
M  V30 12015 O 861.885 8.41101 -2.65469 0
M  V30 12016 O 862.425 6.4965 -4.18908 0
M  V30 12017 C 863.365 5.81037 -5.05421 0
M  V30 12018 C 862.635 4.78366 -5.89277 0
M  V30 12019 O 862.425 3.58302 -5.08433 0
M  V30 12020 C 861.235 5.17448 -6.36119 0
M  V30 12021 O 860.845 4.45271 -7.53232 0
M  V30 12022 C 860.355 4.74639 -5.19936 0
M  V30 12023 C 861.065 3.49432 -4.70418 0
M  V30 12024 N 861.015 3.31776 -3.22945 0
M  V30 12025 H 863.854 6.54213 -5.71376 0
M  V30 12026 H 864.126 5.30492 -4.44033 0
M  V30 12027 H 863.258 4.55889 -6.76652 0
M  V30 12028 P 859.295 4.23843 -7.83734 0
M  V30 12029 O 859.075 4.19407 -9.29784 0
M  V30 12030 O 858.505 5.24426 -7.09156 0
M  V30 12031 O 859.045 2.79386 -7.20852 0
M  V30 12032 C 859.985 1.7299 -7.50419 0
M  V30 12033 C 859.255 0.41401 -7.5797 0
M  V30 12034 O 859.045 -0.089787 -6.22035 0
M  V30 12035 C 857.855 0.447224 -8.1878 0
M  V30 12036 O 857.465 -0.825159 -8.71201 0
M  V30 12037 C 856.975 0.783801 -6.99623 0
M  V30 12038 C 857.685 0.0619192 -5.85967 0
M  V30 12039 N 857.635 0.7859 -4.56281 0
M  V30 12040 C 857.485 0.0359258 -3.39981 0
M  V30 12041 O 857.395 -1.19723 -3.49038 0
M  V30 12042 N 857.435 0.869151 -2.14025 0
M  V30 12043 C 857.535 2.01207 -2.14363 0
M  V30 12044 N 857.485 2.58978 -0.954287 0
M  V30 12045 C 857.685 2.80817 -3.32215 0
M  V30 12046 C 857.735 2.13785 -4.50884 0
M  V30 12047 H 860.475 1.93401 -8.46693 0
M  V30 12048 H 860.745 1.68181 -6.71046 0
M  V30 12049 H 859.878 -0.289076 -8.15488 0
M  V30 12050 H 857.223 -0.927166 -5.72947 0
M  V30 12051 H 856.943 1.87 -6.82132 0
M  V30 12052 H 855.952 0.404009 -7.13457 0
M  V30 12053 H 857.786 1.20599 -8.97534 0
M  V30 12054 H 857.858 2.70295 -5.43162 0
M  V30 12055 H 857.756 3.89465 -3.27406 0
M  V30 12056 H 857.368 2.01616 -0.107046 0
M  V30 12057 H 857.564 3.61403 -0.873101 0
M  V30 12058 P 855.915 -1.17771 -8.83182 0
M  V30 12059 O 855.695 -2.07206 -9.98732 0
M  V30 12060 O 855.125 0.0743816 -8.81969 0
M  V30 12061 O 855.665 -1.97652 -7.47304 0
M  V30 12062 C 856.605 -3.01133 -7.08783 0
M  V30 12063 C 855.875 -4.12613 -6.37049 0
M  V30 12064 O 855.665 -3.72827 -4.97879 0
M  V30 12065 C 854.475 -4.45085 -6.88694 0
M  V30 12066 O 854.085 -5.7877 -6.5624 0
M  V30 12067 C 853.595 -3.47817 -6.12078 0
M  V30 12068 C 854.305 -3.39414 -4.77697 0
M  V30 12069 N 854.255 -2.04615 -4.15333 0
M  V30 12070 C 854.335 -0.803897 -4.75249 0
M  V30 12071 N 854.255 0.197615 -3.91502 0
M  V30 12072 C 854.115 -0.413002 -2.66823 0
M  V30 12073 C 853.985 0.157221 -1.38007 0
M  V30 12074 N 853.865 -0.833136 -0.390236 0
M  V30 12075 C 853.865 -2.19402 -0.623885 0
M  V30 12076 N 853.735 -2.97622 0.449677 0
M  V30 12077 N 853.995 -2.73005 -1.83601 0
M  V30 12078 C 854.115 -1.78786 -2.80935 0
M  V30 12079 H 857.094 -3.41248 -7.98759 0
M  V30 12080 H 857.366 -2.5837 -6.41742 0
M  V30 12081 H 856.498 -5.02657 -6.42673 0
M  V30 12082 P 852.535 -6.144 -6.45285 0
M  V30 12083 O 852.315 -7.54673 -6.86199 0
M  V30 12084 O 851.745 -5.12391 -7.179 0
M  V30 12085 O 852.285 -5.99236 -4.88467 0
M  V30 12086 C 853.225 -6.60234 -3.96415 0
M  V30 12087 C 852.495 -7.08079 -2.736 0
M  V30 12088 O 852.285 -5.94365 -1.8368 0
M  V30 12089 C 851.095 -7.64886 -2.9555 0
M  V30 12090 O 850.705 -8.5406 -1.90739 0
M  V30 12091 C 850.215 -6.4116 -2.90739 0
M  V30 12092 C 850.925 -5.55375 -1.86963 0
M  V30 12093 N 850.875 -4.09664 -2.15742 0
M  V30 12094 C 850.725 -3.22231 -1.08477 0
M  V30 12095 O 850.635 -3.68951 0.0600489 0
M  V30 12096 N 850.675 -1.76692 -1.48799 0
M  V30 12097 C 850.775 -1.41695 -2.57602 0
M  V30 12098 N 850.725 -0.107296 -2.75791 0
M  V30 12099 C 850.925 -2.29178 -3.69733 0
M  V30 12100 C 850.975 -3.62753 -3.42653 0
M  V30 12101 H 853.715 -7.45488 -4.45578 0
M  V30 12102 H 853.985 -5.86232 -3.67314 0
M  V30 12103 H 853.118 -7.84508 -2.24507 0
M  V30 12104 H 850.463 -5.73556 -0.888715 0
M  V30 12105 H 850.183 -5.9096 -3.88638 0
M  V30 12106 H 849.192 -6.66053 -2.58894 0
M  V30 12107 H 851.026 -8.16339 -3.92049 0
M  V30 12108 H 851.098 -4.33052 -4.24913 0
M  V30 12109 H 850.996 -1.9103 -4.71577 0
M  V30 12110 H 850.608 0.521221 -1.95056 0
M  V30 12111 H 850.804 0.286429 -3.70695 0
M  V30 12112 P 849.155 -8.7635 -1.60911 0
M  V30 12113 O 848.935 -10.1388 -1.11561 0
M  V30 12114 O 848.365 -8.36503 -2.79617 0
M  V30 12115 O 848.905 -7.71806 -0.42951 0
M  V30 12116 C 849.845 -7.67148 0.673689 0
M  V30 12117 C 849.115 -7.33374 1.95559 0
M  V30 12118 O 848.905 -5.88721 2.00726 0
M  V30 12119 C 847.715 -7.92526 2.10483 0
M  V30 12120 O 847.325 -8.02971 3.47653 0
M  V30 12121 C 846.835 -6.89602 1.41652 0
M  V30 12122 C 847.545 -5.59201 1.75185 0
M  V30 12123 N 847.495 -4.58301 0.657969 0
M  V30 12124 H 850.334 -8.65116 0.777161 0
M  V30 12125 H 850.606 -6.9022 0.46725 0
M  V30 12126 H 849.738 -7.66548 2.79458 0
M  V30 12127 H 847.083 -5.16165 2.65183 0
M  V30 12128 H 846.803 -7.06433 0.329384 0
M  V30 12129 H 845.812 -6.90926 1.82021 0
M  V30 12130 H 847.646 -8.90873 1.62657 0
M  V30 12131 P 845.775 -8.03563 3.84925 0
M  V30 12132 O 845.555 -8.85821 5.0569 0
M  V30 12133 O 844.985 -8.41101 2.65469 0
M  V30 12134 O 845.525 -6.4965 4.18908 0
M  V30 12135 C 846.465 -5.81037 5.05421 0
M  V30 12136 C 845.735 -4.78366 5.89277 0
M  V30 12137 O 845.525 -3.58302 5.08433 0
M  V30 12138 C 844.335 -5.17448 6.36119 0
M  V30 12139 O 843.945 -4.45271 7.53232 0
M  V30 12140 C 843.455 -4.74639 5.19936 0
M  V30 12141 C 844.165 -3.49432 4.70418 0
M  V30 12142 N 844.115 -3.32099 3.22613 0
M  V30 12143 H 846.954 -6.54213 5.71376 0
M  V30 12144 H 847.226 -5.30936 4.43503 0
M  V30 12145 H 846.358 -4.55889 6.76652 0
M  V30 12146 H 843.703 -2.61715 5.17932 0
M  V30 12147 H 843.423 -5.52155 4.41878 0
M  V30 12148 H 842.432 -4.51981 5.53374 0
M  V30 12149 H 844.266 -6.25124 6.55234 0
M  V30 12150 P 842.395 -4.23843 7.83734 0
M  V30 12151 O 842.175 -4.19407 9.29784 0
M  V30 12152 O 841.605 -5.24426 7.09156 0
M  V30 12153 O 842.145 -2.7935 7.20758 0
M  V30 12154 C 843.085 -1.7299 7.50419 0
M  V30 12155 C 842.355 -0.406376 7.57911 0
M  V30 12156 O 842.145 0.0897726 6.21935 0
M  V30 12157 C 840.955 -0.447224 8.1878 0
M  V30 12158 O 840.565 0.825065 8.71101 0
M  V30 12159 C 840.075 -0.783801 6.99623 0
M  V30 12160 C 840.785 -0.0619192 5.85967 0
M  V30 12161 N 840.735 -0.7859 4.56281 0
M  V30 12162 H 843.574 -1.93423 8.4679 0
M  V30 12163 H 843.846 -1.68181 6.71046 0
M  V30 12164 H 842.978 0.289041 8.15388 0
M  V30 12165 P 839.015 1.17771 8.83182 0
M  V30 12166 O 838.795 2.07206 9.98732 0
M  V30 12167 O 838.225 -0.0743816 8.81969 0
M  V30 12168 O 838.765 1.97678 7.474 0
M  V30 12169 C 839.705 3.01133 7.08783 0
M  V30 12170 C 838.975 4.1203 6.37546 0
M  V30 12171 O 838.765 3.72887 4.9796 0
M  V30 12172 C 837.575 4.45085 6.88694 0
M  V30 12173 O 837.185 5.78836 6.56315 0
M  V30 12174 C 836.695 3.47817 6.12078 0
M  V30 12175 C 837.405 3.39414 4.77697 0
M  V30 12176 N 837.355 2.04615 4.15333 0
M  V30 12177 C 837.205 1.96929 2.77162 0
M  V30 12178 O 837.115 3.02017 2.12006 0
M  V30 12179 N 837.155 0.55485 2.24237 0
M  V30 12180 C 837.255 -0.367808 2.9169 0
M  V30 12181 N 837.205 -1.53426 2.29427 0
M  V30 12182 C 837.405 -0.319148 4.33828 0
M  V30 12183 C 837.455 0.920672 4.90433 0
M  V30 12184 H 840.195 3.41209 7.98667 0
M  V30 12185 H 840.465 2.5837 6.41742 0
M  V30 12186 H 839.598 5.02718 6.42752 0
M  V30 12187 H 836.943 4.11779 4.09026 0
M  V30 12188 H 836.663 2.49661 6.61772 0
M  V30 12189 H 835.672 3.86674 6.00946 0
M  V30 12190 H 837.506 4.29991 7.97006 0
M  V30 12191 H 837.578 1.00589 5.98303 0
M  V30 12192 H 837.476 -1.22639 4.93799 0
M  V30 12193 H 837.088 -1.56819 1.27167 0
M  V30 12194 H 837.284 -2.41062 2.83063 0
M  V30 12195 P 835.635 6.144 6.45285 0
M  V30 12196 O 835.415 7.54673 6.86199 0
M  V30 12197 O 834.845 5.12391 7.179 0
M  V30 12198 O 835.385 5.99158 4.88404 0
M  V30 12199 C 836.325 6.60234 3.96415 0
M  V30 12200 C 835.595 7.08259 2.72856 0
M  V30 12201 O 835.385 5.9427 1.83651 0
M  V30 12202 C 834.195 7.64886 2.9555 0
M  V30 12203 O 833.805 8.53963 1.90717 0
M  V30 12204 C 833.315 6.4116 2.90739 0
M  V30 12205 C 834.025 5.55375 1.86963 0
M  V30 12206 N 833.975 4.09448 2.16152 0
M  V30 12207 H 836.814 7.45574 4.45629 0
M  V30 12208 H 837.086 5.85864 3.679 0
M  V30 12209 H 836.218 7.84412 2.24479 0
M  V30 12210 H 833.563 5.73457 0.888562 0
M  V30 12211 H 833.283 5.90877 3.88583 0
M  V30 12212 H 832.292 6.6596 2.58858 0
M  V30 12213 H 834.126 8.16339 3.92049 0
M  V30 12214 P 832.255 8.7635 1.60911 0
M  V30 12215 O 832.035 10.1388 1.11561 0
M  V30 12216 O 831.465 8.36503 2.79617 0
M  V30 12217 O 832.005 7.71806 0.42951 0
M  V30 12218 C 832.945 7.67148 -0.673689 0
M  V30 12219 C 832.215 7.33374 -1.95559 0
M  V30 12220 O 832.005 5.88721 -2.00726 0
M  V30 12221 C 830.815 7.92526 -2.10483 0
M  V30 12222 O 830.425 8.02971 -3.47653 0
M  V30 12223 C 829.935 6.89602 -1.41652 0
M  V30 12224 C 830.645 5.59201 -1.75185 0
M  V30 12225 N 830.595 4.58235 -0.662552 0
M  V30 12226 C 830.675 4.7683 0.704049 0
M  V30 12227 N 830.595 3.66233 1.39775 0
M  V30 12228 C 830.455 2.66526 0.431739 0
M  V30 12229 C 830.325 1.26394 0.575992 0
M  V30 12230 N 830.205 0.62859 -0.67177 0
M  V30 12231 C 830.205 1.27134 -1.89385 0
M  V30 12232 N 830.075 0.492035 -2.96951 0
M  V30 12233 N 830.335 2.58978 -2.02907 0
M  V30 12234 C 830.455 3.22433 -0.832218 0
M  V30 12235 H 833.434 8.65116 -0.777161 0
M  V30 12236 H 833.706 6.90173 -0.474152 0
M  V30 12237 H 832.838 7.66548 -2.79458 0
M  V30 12238 P 828.875 8.03563 -3.84925 0
M  V30 12239 O 828.655 8.85821 -5.0569 0
M  V30 12240 O 828.085 8.41101 -2.65469 0
M  V30 12241 O 828.625 6.4965 -4.18908 0
M  V30 12242 C 829.565 5.81037 -5.05421 0
M  V30 12243 C 828.835 4.78366 -5.89277 0
M  V30 12244 O 828.625 3.58302 -5.08433 0
M  V30 12245 C 827.435 5.17448 -6.36119 0
M  V30 12246 O 827.045 4.45271 -7.53232 0
M  V30 12247 C 826.555 4.74639 -5.19936 0
M  V30 12248 C 827.265 3.49432 -4.70418 0
M  V30 12249 N 827.215 3.31776 -3.22945 0
M  V30 12250 H 830.054 6.54213 -5.71376 0
M  V30 12251 H 830.326 5.30492 -4.44033 0
M  V30 12252 H 829.458 4.55889 -6.76652 0
M  V30 12253 P 825.495 4.23843 -7.83734 0
M  V30 12254 O 825.275 4.19407 -9.29784 0
M  V30 12255 O 824.705 5.24426 -7.09156 0
M  V30 12256 O 825.245 2.7935 -7.20758 0
M  V30 12257 C 826.185 1.7299 -7.50419 0
M  V30 12258 C 825.455 0.406376 -7.57911 0
M  V30 12259 O 825.245 -0.0897726 -6.21935 0
M  V30 12260 C 824.055 0.447224 -8.1878 0
M  V30 12261 O 823.665 -0.825065 -8.71101 0
M  V30 12262 C 823.175 0.783801 -6.99623 0
M  V30 12263 C 823.885 0.0619192 -5.85967 0
M  V30 12264 N 823.835 0.7859 -4.56281 0
M  V30 12265 H 826.674 1.93423 -8.4679 0
M  V30 12266 H 826.946 1.68181 -6.71046 0
M  V30 12267 H 826.078 -0.289041 -8.15388 0
M  V30 12268 P 822.115 -1.17771 -8.83182 0
M  V30 12269 O 821.895 -2.07206 -9.98732 0
M  V30 12270 O 821.325 0.0743816 -8.81969 0
M  V30 12271 O 821.865 -1.97652 -7.47304 0
M  V30 12272 C 822.805 -3.01133 -7.08783 0
M  V30 12273 C 822.075 -4.12613 -6.37049 0
M  V30 12274 O 821.865 -3.72827 -4.97879 0
M  V30 12275 C 820.675 -4.45085 -6.88694 0
M  V30 12276 O 820.285 -5.7877 -6.5624 0
M  V30 12277 C 819.795 -3.47817 -6.12078 0
M  V30 12278 C 820.505 -3.39414 -4.77697 0
M  V30 12279 N 820.455 -2.04615 -4.15333 0
M  V30 12280 C 820.535 -0.803897 -4.75249 0
M  V30 12281 N 820.455 0.197615 -3.91502 0
M  V30 12282 C 820.315 -0.413002 -2.66823 0
M  V30 12283 C 820.185 0.157221 -1.38007 0
M  V30 12284 N 820.065 -0.833136 -0.390236 0
M  V30 12285 C 820.065 -2.19402 -0.623885 0
M  V30 12286 N 819.935 -2.97622 0.449677 0
M  V30 12287 N 820.195 -2.73005 -1.83601 0
M  V30 12288 C 820.315 -1.78786 -2.80935 0
M  V30 12289 H 823.294 -3.41248 -7.98759 0
M  V30 12290 H 823.566 -2.5837 -6.41742 0
M  V30 12291 H 822.698 -5.02657 -6.42673 0
M  V30 12292 P 818.735 -6.144 -6.45285 0
M  V30 12293 O 818.515 -7.54673 -6.86199 0
M  V30 12294 O 817.945 -5.12391 -7.179 0
M  V30 12295 O 818.485 -5.99236 -4.88467 0
M  V30 12296 C 819.425 -6.60234 -3.96415 0
M  V30 12297 C 818.695 -7.08079 -2.736 0
M  V30 12298 O 818.485 -5.94365 -1.8368 0
M  V30 12299 C 817.295 -7.64886 -2.9555 0
M  V30 12300 O 816.905 -8.5406 -1.90739 0
M  V30 12301 C 816.415 -6.4116 -2.90739 0
M  V30 12302 C 817.125 -5.55375 -1.86963 0
M  V30 12303 N 817.075 -4.09664 -2.15742 0
M  V30 12304 C 816.925 -3.22231 -1.08477 0
M  V30 12305 O 816.835 -3.68951 0.0600489 0
M  V30 12306 N 816.875 -1.76692 -1.48799 0
M  V30 12307 C 816.975 -1.41695 -2.57602 0
M  V30 12308 N 816.925 -0.107296 -2.75791 0
M  V30 12309 C 817.125 -2.29178 -3.69733 0
M  V30 12310 C 817.175 -3.62753 -3.42653 0
M  V30 12311 H 819.915 -7.45488 -4.45578 0
M  V30 12312 H 820.185 -5.86232 -3.67314 0
M  V30 12313 H 819.318 -7.84508 -2.24507 0
M  V30 12314 H 816.663 -5.73556 -0.888715 0
M  V30 12315 H 816.383 -5.9096 -3.88638 0
M  V30 12316 H 815.392 -6.66053 -2.58894 0
M  V30 12317 H 817.226 -8.16339 -3.92049 0
M  V30 12318 H 817.298 -4.33052 -4.24913 0
M  V30 12319 H 817.196 -1.9103 -4.71577 0
M  V30 12320 H 816.808 0.521221 -1.95056 0
M  V30 12321 H 817.004 0.286429 -3.70695 0
M  V30 12322 P 815.355 -8.7635 -1.60911 0
M  V30 12323 O 815.135 -10.1388 -1.11561 0
M  V30 12324 O 814.565 -8.36503 -2.79617 0
M  V30 12325 O 815.105 -7.71906 -0.429565 0
M  V30 12326 C 816.045 -7.67148 0.673689 0
M  V30 12327 C 815.315 -7.33666 1.94851 0
M  V30 12328 O 815.105 -5.88816 2.00759 0
M  V30 12329 C 813.915 -7.92526 2.10483 0
M  V30 12330 O 813.525 -8.03063 3.47693 0
M  V30 12331 C 813.035 -6.89602 1.41652 0
M  V30 12332 C 813.745 -5.59201 1.75185 0
M  V30 12333 N 813.695 -4.58235 0.662552 0
M  V30 12334 C 813.545 -3.24451 1.01643 0
M  V30 12335 O 813.455 -2.94958 2.21722 0
M  V30 12336 N 813.495 -2.30408 -0.165238 0
M  V30 12337 C 813.595 -2.66048 -1.25118 0
M  V30 12338 N 813.545 -1.70787 -2.16813 0
M  V30 12339 C 813.745 -4.02732 -1.64413 0
M  V30 12340 C 813.795 -4.9488 -0.63991 0
M  V30 12341 H 816.535 -8.65017 0.777072 0
M  V30 12342 H 816.805 -6.90173 0.474152 0
M  V30 12343 H 815.938 -7.66642 2.79492 0
M  V30 12344 H 813.283 -5.16254 2.65229 0
M  V30 12345 H 813.003 -7.06532 0.329431 0
M  V30 12346 H 812.012 -6.91023 1.82047 0
M  V30 12347 H 813.846 -8.90873 1.62657 0
M  V30 12348 H 813.918 -6.00104 -0.892197 0
M  V30 12349 H 813.816 -4.31733 -2.69229 0
M  V30 12350 H 813.428 -0.724835 -1.8844 0
M  V30 12351 H 813.624 -1.94716 -3.16734 0
M  V30 12352 P 811.975 -8.03563 3.84925 0
M  V30 12353 O 811.755 -8.85821 5.0569 0
M  V30 12354 O 811.185 -8.41101 2.65469 0
M  V30 12355 O 811.725 -6.4965 4.18908 0
M  V30 12356 C 812.665 -5.81037 5.05421 0
M  V30 12357 C 811.935 -4.78366 5.89277 0
M  V30 12358 O 811.725 -3.58302 5.08433 0
M  V30 12359 C 810.535 -5.17448 6.36119 0
M  V30 12360 O 810.145 -4.45271 7.53232 0
M  V30 12361 C 809.655 -4.74639 5.19936 0
M  V30 12362 C 810.365 -3.49432 4.70418 0
M  V30 12363 N 810.315 -3.31776 3.22945 0
M  V30 12364 C 810.395 -4.27147 2.23315 0
M  V30 12365 N 810.315 -3.78447 1.02186 0
M  V30 12366 C 810.175 -2.41001 1.21732 0
M  V30 12367 C 810.045 -1.36111 0.27694 0
M  V30 12368 N 809.925 -0.113683 0.912949 0
M  V30 12369 C 809.925 0.0846396 2.27943 0
M  V30 12370 N 809.795 1.34737 2.6916 0
M  V30 12371 N 810.055 -0.902521 3.16379 0
M  V30 12372 C 810.175 -2.11937 2.56849 0
M  V30 12373 H 813.154 -6.54213 5.71376 0
M  V30 12374 H 813.426 -5.30492 4.44033 0
M  V30 12375 H 812.558 -4.55889 6.76652 0
M  V30 12376 P 808.595 -4.23843 7.83734 0
M  V30 12377 O 808.375 -4.19407 9.29784 0
M  V30 12378 O 807.805 -5.24426 7.09156 0
M  V30 12379 O 808.345 -2.79386 7.20852 0
M  V30 12380 C 809.285 -1.7299 7.50419 0
M  V30 12381 C 808.555 -0.41401 7.5797 0
M  V30 12382 O 808.345 0.089787 6.22035 0
M  V30 12383 C 807.155 -0.447224 8.1878 0
M  V30 12384 O 806.765 0.825159 8.71201 0
M  V30 12385 C 806.275 -0.783801 6.99623 0
M  V30 12386 C 806.985 -0.0619192 5.85967 0
M  V30 12387 N 806.935 -0.7859 4.56281 0
M  V30 12388 C 806.785 -0.0359258 3.39981 0
M  V30 12389 O 806.695 1.19723 3.49038 0
M  V30 12390 N 806.735 -0.869151 2.14025 0
M  V30 12391 C 806.835 -2.01207 2.14363 0
M  V30 12392 N 806.785 -2.58978 0.954287 0
M  V30 12393 C 806.985 -2.80817 3.32215 0
M  V30 12394 C 807.035 -2.13785 4.50884 0
M  V30 12395 H 809.775 -1.93401 8.46693 0
M  V30 12396 H 810.045 -1.68181 6.71046 0
M  V30 12397 H 809.178 0.289076 8.15488 0
M  V30 12398 H 806.523 0.927166 5.72947 0
M  V30 12399 H 806.243 -1.87 6.82132 0
M  V30 12400 H 805.252 -0.404009 7.13457 0
M  V30 12401 H 807.086 -1.20599 8.97534 0
M  V30 12402 H 807.158 -2.70295 5.43162 0
M  V30 12403 H 807.056 -3.89465 3.27406 0
M  V30 12404 H 806.668 -2.01616 0.107046 0
M  V30 12405 H 806.864 -3.61403 0.873101 0
M  V30 12406 P 805.215 1.17771 8.83182 0
M  V30 12407 O 804.995 2.07206 9.98732 0
M  V30 12408 O 804.425 -0.0743816 8.81969 0
M  V30 12409 O 804.965 1.97652 7.47304 0
M  V30 12410 C 805.905 3.01133 7.08783 0
M  V30 12411 C 805.175 4.12613 6.37049 0
M  V30 12412 O 804.965 3.72827 4.97879 0
M  V30 12413 C 803.775 4.45085 6.88694 0
M  V30 12414 O 803.385 5.7877 6.5624 0
M  V30 12415 C 802.895 3.47817 6.12078 0
M  V30 12416 C 803.605 3.39414 4.77697 0
M  V30 12417 N 803.555 2.04199 4.15538 0
M  V30 12418 C 803.635 0.821545 4.76977 0
M  V30 12419 N 803.565 -0.1794 3.94592 0
M  V30 12420 C 803.415 0.419121 2.70776 0
M  V30 12421 C 803.285 -0.109072 1.40577 0
M  V30 12422 N 803.275 -1.4104 1.1344 0
M  V30 12423 N 803.165 0.764381 0.39411 0
M  V30 12424 C 803.175 2.06587 0.664135 0
M  V30 12425 N 803.295 2.67948 1.82153 0
M  V30 12426 C 803.415 1.77942 2.8147 0
M  V30 12427 H 806.394 3.41248 7.98759 0
M  V30 12428 H 806.666 2.57728 6.42 0
M  V30 12429 H 805.798 5.02657 6.42673 0
M  V30 12430 H 803.143 4.11708 4.08956 0
M  V30 12431 H 802.863 2.49626 6.61679 0
M  V30 12432 H 801.872 3.8662 6.00862 0
M  V30 12433 H 803.706 4.29991 7.97006 0
M  V30 12434 H 803.747 0.702451 5.84696 0
M  V30 12435 H 803.366 -2.09647 1.89651 0
M  V30 12436 H 803.177 -1.73358 0.160575 0
M  V30 12437 H 803.069 2.71695 -0.195838 0
M  V30 12438 P 801.835 6.144 6.45285 0
M  V30 12439 O 801.615 7.54673 6.86199 0
M  V30 12440 O 801.045 5.12391 7.179 0
M  V30 12441 O 801.585 5.99158 4.88404 0
M  V30 12442 C 802.525 6.60234 3.96415 0
M  V30 12443 C 801.795 7.08259 2.72856 0
M  V30 12444 O 801.585 5.9427 1.83651 0
M  V30 12445 C 800.395 7.64886 2.9555 0
M  V30 12446 O 800.005 8.53963 1.90717 0
M  V30 12447 C 799.515 6.4116 2.90739 0
M  V30 12448 C 800.225 5.55375 1.86963 0
M  V30 12449 N 800.175 4.09448 2.16152 0
M  V30 12450 H 803.014 7.45574 4.45629 0
M  V30 12451 H 803.286 5.85864 3.679 0
M  V30 12452 H 802.418 7.84412 2.24479 0
M  V30 12453 H 799.763 5.73457 0.888562 0
M  V30 12454 H 799.483 5.90877 3.88583 0
M  V30 12455 H 798.492 6.6596 2.58858 0
M  V30 12456 H 800.326 8.16339 3.92049 0
M  V30 12457 P 798.455 8.7635 1.60911 0
M  V30 12458 O 798.235 10.1388 1.11561 0
M  V30 12459 O 797.665 8.36503 2.79617 0
M  V30 12460 O 798.205 7.71806 0.42951 0
M  V30 12461 C 799.145 7.67148 -0.673689 0
M  V30 12462 C 798.415 7.33374 -1.95559 0
M  V30 12463 O 798.205 5.88721 -2.00726 0
M  V30 12464 C 797.015 7.92526 -2.10483 0
M  V30 12465 O 796.625 8.02971 -3.47653 0
M  V30 12466 C 796.135 6.89602 -1.41652 0
M  V30 12467 C 796.845 5.59201 -1.75185 0
M  V30 12468 N 796.795 4.58235 -0.662552 0
M  V30 12469 C 796.875 4.7683 0.704049 0
M  V30 12470 N 796.795 3.66233 1.39775 0
M  V30 12471 C 796.655 2.66526 0.431739 0
M  V30 12472 C 796.525 1.26394 0.575992 0
M  V30 12473 N 796.405 0.62859 -0.67177 0
M  V30 12474 C 796.405 1.27134 -1.89385 0
M  V30 12475 N 796.275 0.492035 -2.96951 0
M  V30 12476 N 796.535 2.58978 -2.02907 0
M  V30 12477 C 796.655 3.22433 -0.832218 0
M  V30 12478 H 799.634 8.65116 -0.777161 0
M  V30 12479 H 799.906 6.90173 -0.474152 0
M  V30 12480 H 799.038 7.66548 -2.79458 0
M  V30 12481 P 795.075 8.03563 -3.84925 0
M  V30 12482 O 794.855 8.85821 -5.0569 0
M  V30 12483 O 794.285 8.41101 -2.65469 0
M  V30 12484 O 794.825 6.4965 -4.18908 0
M  V30 12485 C 795.765 5.80886 -5.05289 0
M  V30 12486 C 795.035 4.78366 -5.89277 0
M  V30 12487 O 794.825 3.58302 -5.08433 0
M  V30 12488 C 793.635 5.16748 -6.36559 0
M  V30 12489 O 793.245 4.45271 -7.53232 0
M  V30 12490 C 792.755 4.74572 -5.19863 0
M  V30 12491 C 793.465 3.49373 -4.70338 0
M  V30 12492 N 793.415 3.31704 -3.22876 0
M  V30 12493 C 793.265 2.03326 -2.74871 0
M  V30 12494 O 793.175 1.06486 -3.48076 0
M  V30 12495 N 793.225 1.91838 -1.37456 0
M  V30 12496 C 793.315 2.94295 -0.462035 0
M  V30 12497 O 793.265 2.71763 0.752928 0
M  V30 12498 C 793.465 4.25064 -1.05249 0
M  V30 12499 C 793.575 5.39815 -0.095697 0
M  V30 12500 C 793.515 4.40214 -2.39192 0
M  V30 12501 H 796.256 6.54063 -5.71245 0
M  V30 12502 H 796.525 5.30339 -4.43905 0
M  V30 12503 H 795.658 4.55889 -6.76652 0
M  V30 12504 H 793.003 2.6167 -5.17842 0
M  V30 12505 H 792.724 5.52155 -4.41878 0
M  V30 12506 H 791.732 4.51918 -5.53297 0
M  V30 12507 H 793.566 6.25055 -6.55162 0
M  V30 12508 H 793.637 5.39798 -2.81523 0
M  V30 12509 H 792.607 5.91593 -0.0279582 0
M  V30 12510 H 794.344 6.10038 -0.450573 0
M  V30 12511 H 793.856 5.02007 0.89937 0
M  V30 12512 H 793.12 0.995326 -1.00435 0
M  V30 12513 P 791.695 4.23843 -7.83734 0
M  V30 12514 O 791.475 4.19407 -9.29784 0
M  V30 12515 O 790.905 5.24426 -7.09156 0
M  V30 12516 O 791.445 2.79386 -7.20852 0
M  V30 12517 C 792.385 1.7299 -7.50419 0
M  V30 12518 C 791.655 0.41401 -7.5797 0
M  V30 12519 O 791.445 -0.089787 -6.22035 0
M  V30 12520 C 790.255 0.447224 -8.1878 0
M  V30 12521 O 789.865 -0.825159 -8.71201 0
M  V30 12522 C 789.375 0.783801 -6.99623 0
M  V30 12523 C 790.085 0.0619192 -5.85967 0
M  V30 12524 N 790.035 0.7859 -4.56281 0
M  V30 12525 C 789.885 0.0359258 -3.39981 0
M  V30 12526 O 789.795 -1.19723 -3.49038 0
M  V30 12527 N 789.835 0.869151 -2.14025 0
M  V30 12528 C 789.935 2.01207 -2.14363 0
M  V30 12529 N 789.885 2.58978 -0.954287 0
M  V30 12530 C 790.085 2.80817 -3.32215 0
M  V30 12531 C 790.135 2.13785 -4.50884 0
M  V30 12532 H 792.875 1.93401 -8.46693 0
M  V30 12533 H 793.145 1.68181 -6.71046 0
M  V30 12534 H 792.278 -0.289076 -8.15488 0
M  V30 12535 H 789.623 -0.927166 -5.72947 0
M  V30 12536 H 789.343 1.87 -6.82132 0
M  V30 12537 H 788.352 0.404009 -7.13457 0
M  V30 12538 H 790.186 1.20599 -8.97534 0
M  V30 12539 H 790.258 2.70295 -5.43162 0
M  V30 12540 H 790.156 3.89465 -3.27406 0
M  V30 12541 H 789.768 2.01616 -0.107046 0
M  V30 12542 H 789.964 3.61403 -0.873101 0
M  V30 12543 P 788.315 -1.17771 -8.83182 0
M  V30 12544 O 788.095 -2.07206 -9.98732 0
M  V30 12545 O 787.525 0.0743816 -8.81969 0
M  V30 12546 O 788.065 -1.97652 -7.47304 0
M  V30 12547 C 789.005 -3.01133 -7.08783 0
M  V30 12548 C 788.275 -4.12613 -6.37049 0
M  V30 12549 O 788.065 -3.72827 -4.97879 0
M  V30 12550 C 786.875 -4.45085 -6.88694 0
M  V30 12551 O 786.485 -5.7877 -6.5624 0
M  V30 12552 C 785.995 -3.47817 -6.12078 0
M  V30 12553 C 786.705 -3.39414 -4.77697 0
M  V30 12554 N 786.655 -2.04615 -4.15333 0
M  V30 12555 H 789.494 -3.41248 -7.98759 0
M  V30 12556 H 789.766 -2.5837 -6.41742 0
M  V30 12557 H 788.898 -5.02657 -6.42673 0
M  V30 12558 P 784.935 -6.144 -6.45285 0
M  V30 12559 O 784.715 -7.54673 -6.86199 0
M  V30 12560 O 784.145 -5.12391 -7.179 0
M  V30 12561 O 784.685 -5.99158 -4.88404 0
M  V30 12562 C 785.625 -6.60062 -3.96313 0
M  V30 12563 C 784.895 -7.08259 -2.72856 0
M  V30 12564 O 784.685 -5.9427 -1.83651 0
M  V30 12565 C 783.495 -7.65087 -2.94749 0
M  V30 12566 O 783.105 -8.53963 -1.90717 0
M  V30 12567 C 782.615 -6.41069 -2.90698 0
M  V30 12568 C 783.325 -5.5528 -1.86931 0
M  V30 12569 N 783.275 -4.09575 -2.15696 0
M  V30 12570 C 783.125 -3.24249 -1.08435 0
M  V30 12571 O 783.035 -3.63946 0.0628747 0
M  V30 12572 N 783.085 -1.90009 -1.39973 0
M  V30 12573 C 783.175 -1.34884 -2.65614 0
M  V30 12574 C 783.325 -2.3145 -3.71736 0
M  V30 12575 C 783.375 -3.63518 -3.44754 0
M  V30 12576 H 786.116 -7.45402 -4.45526 0
M  V30 12577 H 786.385 -5.86062 -3.67208 0
M  V30 12578 H 785.518 -7.84412 -2.24479 0
M  V30 12579 H 782.863 -5.73358 -0.888409 0
M  V30 12580 H 782.584 -5.90877 -3.88583 0
M  V30 12581 H 781.592 -6.65867 -2.58821 0
M  V30 12582 H 783.426 -8.16248 -3.92006 0
M  V30 12583 H 783.497 -4.34551 -4.26383 0
M  V30 12584 P 781.555 -8.7635 -1.60911 0
M  V30 12585 O 781.335 -10.1388 -1.11561 0
M  V30 12586 O 780.765 -8.36503 -2.79617 0
M  V30 12587 O 781.305 -7.71806 -0.42951 0
M  V30 12588 C 782.245 -7.67148 0.673689 0
M  V30 12589 C 781.515 -7.33374 1.95559 0
M  V30 12590 O 781.305 -5.88721 2.00726 0
M  V30 12591 C 780.115 -7.92526 2.10483 0
M  V30 12592 O 779.725 -8.02971 3.47653 0
M  V30 12593 C 779.235 -6.89602 1.41652 0
M  V30 12594 C 779.945 -5.59201 1.75185 0
M  V30 12595 N 779.895 -4.58235 0.662552 0
M  V30 12596 H 782.734 -8.65116 0.777161 0
M  V30 12597 H 783.006 -6.90173 0.474152 0
M  V30 12598 H 782.138 -7.66548 2.79458 0
M  V30 12599 P 778.175 -8.03563 3.84925 0
M  V30 12600 O 777.955 -8.85821 5.0569 0
M  V30 12601 O 777.385 -8.41101 2.65469 0
M  V30 12602 O 777.925 -6.4965 4.18908 0
M  V30 12603 C 778.865 -5.80886 5.05289 0
M  V30 12604 C 778.135 -4.78366 5.89277 0
M  V30 12605 O 777.925 -3.58302 5.08433 0
M  V30 12606 C 776.735 -5.16748 6.36559 0
M  V30 12607 O 776.345 -4.45271 7.53232 0
M  V30 12608 C 775.855 -4.74572 5.19863 0
M  V30 12609 C 776.565 -3.49373 4.70338 0
M  V30 12610 N 776.515 -3.31704 3.22876 0
M  V30 12611 C 776.365 -2.03326 2.74871 0
M  V30 12612 O 776.275 -1.06486 3.48076 0
M  V30 12613 N 776.325 -1.91838 1.37456 0
M  V30 12614 C 776.415 -2.94295 0.462035 0
M  V30 12615 C 776.565 -4.25064 1.05249 0
M  V30 12616 C 776.615 -4.40214 2.39192 0
M  V30 12617 H 779.356 -6.54063 5.71245 0
M  V30 12618 H 779.625 -5.30339 4.43905 0
M  V30 12619 H 778.758 -4.55889 6.76652 0
M  V30 12620 H 776.103 -2.6167 5.17842 0
M  V30 12621 H 775.824 -5.52155 4.41878 0
M  V30 12622 H 774.832 -4.51918 5.53297 0
M  V30 12623 H 776.666 -6.25055 6.55162 0
M  V30 12624 H 776.737 -5.39798 2.81523 0
M  V30 12625 P 774.795 -4.23843 7.83734 0
M  V30 12626 O 774.575 -4.19407 9.29784 0
M  V30 12627 O 774.005 -5.24426 7.09156 0
M  V30 12628 O 774.545 -2.7935 7.20758 0
M  V30 12629 C 775.485 -1.7299 7.50419 0
M  V30 12630 C 774.755 -0.406376 7.57911 0
M  V30 12631 O 774.545 0.0897726 6.21935 0
M  V30 12632 C 773.355 -0.447224 8.1878 0
M  V30 12633 O 772.965 0.825065 8.71101 0
M  V30 12634 C 772.475 -0.783801 6.99623 0
M  V30 12635 C 773.185 -0.0619192 5.85967 0
M  V30 12636 N 773.135 -0.7859 4.56281 0
M  V30 12637 H 775.974 -1.93423 8.4679 0
M  V30 12638 H 776.246 -1.68181 6.71046 0
M  V30 12639 H 775.378 0.289041 8.15388 0
M  V30 12640 P 771.415 1.17771 8.83182 0
M  V30 12641 O 771.195 2.07206 9.98732 0
M  V30 12642 O 770.625 -0.0743816 8.81969 0
M  V30 12643 O 771.165 1.97652 7.47304 0
M  V30 12644 C 772.105 3.01133 7.08783 0
M  V30 12645 C 771.375 4.12613 6.37049 0
M  V30 12646 O 771.165 3.72827 4.97879 0
M  V30 12647 C 769.975 4.45085 6.88694 0
M  V30 12648 O 769.585 5.7877 6.5624 0
M  V30 12649 C 769.095 3.47817 6.12078 0
M  V30 12650 C 769.805 3.39414 4.77697 0
M  V30 12651 N 769.755 2.04615 4.15333 0
M  V30 12652 H 772.594 3.41248 7.98759 0
M  V30 12653 H 772.866 2.5837 6.41742 0
M  V30 12654 H 771.998 5.02657 6.42673 0
M  V30 12655 P 768.035 6.144 6.45285 0
M  V30 12656 O 767.815 7.54673 6.86199 0
M  V30 12657 O 767.245 5.12391 7.179 0
M  V30 12658 O 767.785 5.99236 4.88467 0
M  V30 12659 C 768.725 6.60234 3.96415 0
M  V30 12660 C 767.995 7.08079 2.736 0
M  V30 12661 O 767.785 5.94365 1.8368 0
M  V30 12662 C 766.595 7.64886 2.9555 0
M  V30 12663 O 766.205 8.5406 1.90739 0
M  V30 12664 C 765.715 6.4116 2.90739 0
M  V30 12665 C 766.425 5.55375 1.86963 0
M  V30 12666 N 766.375 4.09664 2.15742 0
M  V30 12667 C 766.225 3.22231 1.08477 0
M  V30 12668 O 766.135 3.68951 -0.0600489 0
M  V30 12669 N 766.175 1.76692 1.48799 0
M  V30 12670 C 766.275 1.41695 2.57602 0
M  V30 12671 N 766.225 0.107296 2.75791 0
M  V30 12672 C 766.425 2.29178 3.69733 0
M  V30 12673 C 766.475 3.62753 3.42653 0
M  V30 12674 H 769.215 7.45488 4.45578 0
M  V30 12675 H 769.485 5.86232 3.67314 0
M  V30 12676 H 768.618 7.84508 2.24507 0
M  V30 12677 H 765.963 5.73556 0.888715 0
M  V30 12678 H 765.683 5.9096 3.88638 0
M  V30 12679 H 764.692 6.66053 2.58894 0
M  V30 12680 H 766.526 8.16339 3.92049 0
M  V30 12681 H 766.598 4.33052 4.24913 0
M  V30 12682 H 766.496 1.9103 4.71577 0
M  V30 12683 H 766.108 -0.521221 1.95056 0
M  V30 12684 H 766.304 -0.286429 3.70695 0
M  V30 12685 P 764.656 8.7635 1.60911 0
M  V30 12686 O 764.436 10.1388 1.11561 0
M  V30 12687 O 763.866 8.36503 2.79617 0
M  V30 12688 O 764.406 7.71806 0.42951 0
M  V30 12689 C 765.346 7.66948 -0.673514 0
M  V30 12690 C 764.616 7.33374 -1.95559 0
M  V30 12691 O 764.406 5.88721 -2.00726 0
M  V30 12692 C 763.216 7.92218 -2.1125 0
M  V30 12693 O 762.826 8.02971 -3.47653 0
M  V30 12694 C 762.336 6.89504 -1.41631 0
M  V30 12695 C 763.046 5.59106 -1.75155 0
M  V30 12696 N 762.996 4.58136 -0.662409 0
M  V30 12697 C 762.846 3.26059 -1.02863 0
M  V30 12698 O 762.756 2.90743 -2.19009 0
M  V30 12699 N 762.806 2.35995 0.0155585 0
M  V30 12700 C 762.896 2.65248 1.35603 0
M  V30 12701 O 762.846 1.75605 2.20651 0
M  V30 12702 C 763.046 4.05747 1.64698 0
M  V30 12703 C 763.156 4.42345 3.09553 0
M  V30 12704 C 763.096 4.96734 0.652411 0
M  V30 12705 H 765.837 8.64917 -0.776982 0
M  V30 12706 H 766.106 6.89974 -0.474015 0
M  V30 12707 H 765.239 7.66548 -2.79458 0
M  V30 12708 H 762.584 5.16076 -2.65138 0
M  V30 12709 H 762.305 7.06433 -0.329384 0
M  V30 12710 H 761.313 6.90829 -1.81996 0
M  V30 12711 H 763.147 8.90774 -1.62639 0
M  V30 12712 H 763.218 6.02181 0.895285 0
M  V30 12713 H 762.188 4.80252 3.45468 0
M  V30 12714 H 763.925 5.20015 3.22119 0
M  V30 12715 H 763.437 3.53269 3.67833 0
M  V30 12716 H 762.701 1.39558 -0.227499 0
M  V30 12717 P 761.276 8.03563 -3.84925 0
M  V30 12718 O 761.056 8.85821 -5.0569 0
M  V30 12719 O 760.486 8.41101 -2.65469 0
M  V30 12720 O 761.026 6.4965 -4.18908 0
M  V30 12721 C 761.966 5.81037 -5.05421 0
M  V30 12722 C 761.236 4.78366 -5.89277 0
M  V30 12723 O 761.026 3.58302 -5.08433 0
M  V30 12724 C 759.836 5.17448 -6.36119 0
M  V30 12725 O 759.446 4.45271 -7.53232 0
M  V30 12726 C 758.956 4.74639 -5.19936 0
M  V30 12727 C 759.666 3.49432 -4.70418 0
M  V30 12728 N 759.616 3.31776 -3.22945 0
M  V30 12729 H 762.455 6.54213 -5.71376 0
M  V30 12730 H 762.727 5.30492 -4.44033 0
M  V30 12731 H 761.859 4.55889 -6.76652 0
M  V30 12732 P 757.896 4.23843 -7.83734 0
M  V30 12733 O 757.676 4.19407 -9.29784 0
M  V30 12734 O 757.106 5.24426 -7.09156 0
M  V30 12735 O 757.646 2.7935 -7.20758 0
M  V30 12736 C 758.586 1.7299 -7.50419 0
M  V30 12737 C 757.856 0.406376 -7.57911 0
M  V30 12738 O 757.646 -0.0897726 -6.21935 0
M  V30 12739 C 756.456 0.447224 -8.1878 0
M  V30 12740 O 756.066 -0.825065 -8.71101 0
M  V30 12741 C 755.576 0.783801 -6.99623 0
M  V30 12742 C 756.286 0.0619192 -5.85967 0
M  V30 12743 N 756.236 0.790462 -4.56202 0
M  V30 12744 H 759.075 1.93423 -8.4679 0
M  V30 12745 H 759.347 1.68852 -6.70877 0
M  V30 12746 H 758.479 -0.289041 -8.15388 0
M  V30 12747 H 755.824 -0.927006 -5.72848 0
M  V30 12748 H 755.544 1.86973 -6.82036 0
M  V30 12749 H 754.553 0.403953 -7.13357 0
M  V30 12750 H 756.387 1.20599 -8.97534 0
M  V30 12751 P 754.516 -1.17771 -8.83182 0
M  V30 12752 O 754.296 -2.07206 -9.98732 0
M  V30 12753 O 753.726 0.0743816 -8.81969 0
M  V30 12754 O 754.266 -1.97652 -7.47304 0
M  V30 12755 C 755.206 -3.01133 -7.08783 0
M  V30 12756 C 754.476 -4.12613 -6.37049 0
M  V30 12757 O 754.266 -3.72827 -4.97879 0
M  V30 12758 C 753.076 -4.45085 -6.88694 0
M  V30 12759 O 752.686 -5.7877 -6.5624 0
M  V30 12760 C 752.196 -3.47817 -6.12078 0
M  V30 12761 C 752.906 -3.39414 -4.77697 0
M  V30 12762 N 752.856 -2.04615 -4.15333 0
M  V30 12763 H 755.695 -3.41248 -7.98759 0
M  V30 12764 H 755.967 -2.5837 -6.41742 0
M  V30 12765 H 755.099 -5.02657 -6.42673 0
M  V30 12766 P 751.136 -6.144 -6.45285 0
M  V30 12767 O 750.916 -7.54673 -6.86199 0
M  V30 12768 O 750.346 -5.12391 -7.179 0
M  V30 12769 O 750.886 -5.99158 -4.88404 0
M  V30 12770 C 751.826 -6.60234 -3.96415 0
M  V30 12771 C 751.096 -7.08259 -2.72856 0
M  V30 12772 O 750.886 -5.9427 -1.83651 0
M  V30 12773 C 749.696 -7.64886 -2.9555 0
M  V30 12774 O 749.306 -8.53963 -1.90717 0
M  V30 12775 C 748.816 -6.4116 -2.90739 0
M  V30 12776 C 749.526 -5.55375 -1.86963 0
M  V30 12777 N 749.476 -4.09664 -2.15742 0
M  V30 12778 H 752.315 -7.45574 -4.45629 0
M  V30 12779 H 752.587 -5.86232 -3.67314 0
M  V30 12780 H 751.719 -7.84412 -2.24479 0
M  V30 12781 P 747.756 -8.7635 -1.60911 0
M  V30 12782 O 747.536 -10.1388 -1.11561 0
M  V30 12783 O 746.966 -8.36503 -2.79617 0
M  V30 12784 O 747.506 -7.71906 -0.429565 0
M  V30 12785 C 748.446 -7.67148 0.673689 0
M  V30 12786 C 747.716 -7.33666 1.94851 0
M  V30 12787 O 747.506 -5.88816 2.00759 0
M  V30 12788 C 746.316 -7.92526 2.10483 0
M  V30 12789 O 745.926 -8.03063 3.47693 0
M  V30 12790 C 745.436 -6.89602 1.41652 0
M  V30 12791 C 746.146 -5.59201 1.75185 0
M  V30 12792 N 746.096 -4.58235 0.662552 0
M  V30 12793 C 745.946 -3.24451 1.01643 0
M  V30 12794 O 745.856 -2.94958 2.21722 0
M  V30 12795 N 745.896 -2.30408 -0.165238 0
M  V30 12796 C 745.996 -2.66048 -1.25118 0
M  V30 12797 N 745.946 -1.70787 -2.16813 0
M  V30 12798 C 746.146 -4.02732 -1.64413 0
M  V30 12799 C 746.196 -4.9488 -0.63991 0
M  V30 12800 H 748.936 -8.65017 0.777072 0
M  V30 12801 H 749.206 -6.90173 0.474152 0
M  V30 12802 H 748.339 -7.66642 2.79492 0
M  V30 12803 H 745.684 -5.16254 2.65229 0
M  V30 12804 H 745.404 -7.06532 0.329431 0
M  V30 12805 H 744.413 -6.91023 1.82047 0
M  V30 12806 H 746.247 -8.90873 1.62657 0
M  V30 12807 H 746.319 -6.00104 -0.892197 0
M  V30 12808 H 746.217 -4.31733 -2.69229 0
M  V30 12809 H 745.829 -0.724835 -1.8844 0
M  V30 12810 H 746.025 -1.94716 -3.16734 0
M  V30 12811 P 744.376 -8.03563 3.84925 0
M  V30 12812 O 744.156 -8.85821 5.0569 0
M  V30 12813 O 743.586 -8.41101 2.65469 0
M  V30 12814 O 744.126 -6.4965 4.18908 0
M  V30 12815 C 745.066 -5.81037 5.05421 0
M  V30 12816 C 744.336 -4.78366 5.89277 0
M  V30 12817 O 744.126 -3.58302 5.08433 0
M  V30 12818 C 742.936 -5.17448 6.36119 0
M  V30 12819 O 742.546 -4.45271 7.53232 0
M  V30 12820 C 742.056 -4.74639 5.19936 0
M  V30 12821 C 742.766 -3.49432 4.70418 0
M  V30 12822 N 742.716 -3.31776 3.22945 0
M  V30 12823 H 745.555 -6.54213 5.71376 0
M  V30 12824 H 745.827 -5.30492 4.44033 0
M  V30 12825 H 744.959 -4.55889 6.76652 0
M  V30 12826 P 740.996 -4.23843 7.83734 0
M  V30 12827 O 740.776 -4.19407 9.29784 0
M  V30 12828 O 740.206 -5.24426 7.09156 0
M  V30 12829 O 740.746 -2.7935 7.20758 0
M  V30 12830 C 741.686 -1.7299 7.50419 0
M  V30 12831 C 740.956 -0.406376 7.57911 0
M  V30 12832 O 740.746 0.0897726 6.21935 0
M  V30 12833 C 739.556 -0.447224 8.1878 0
M  V30 12834 O 739.166 0.825065 8.71101 0
M  V30 12835 C 738.676 -0.783801 6.99623 0
M  V30 12836 C 739.386 -0.0619192 5.85967 0
M  V30 12837 N 739.336 -0.7859 4.56281 0
M  V30 12838 C 739.416 -2.14308 4.31736 0
M  V30 12839 N 739.336 -2.46106 3.05116 0
M  V30 12840 C 739.196 -1.23422 2.4014 0
M  V30 12841 C 739.066 -0.938381 1.02409 0
M  V30 12842 N 738.946 0.444647 0.805413 0
M  V30 12843 C 738.946 1.40829 1.79435 0
M  V30 12844 N 738.816 2.67213 1.38558 0
M  V30 12845 N 739.076 1.12947 3.09005 0
M  V30 12846 C 739.196 -0.204887 3.32369 0
M  V30 12847 H 742.175 -1.93423 8.4679 0
M  V30 12848 H 742.447 -1.68181 6.71046 0
M  V30 12849 H 741.579 0.289041 8.15388 0
M  V30 12850 P 737.616 1.17771 8.83182 0
M  V30 12851 O 737.396 2.07206 9.98732 0
M  V30 12852 O 736.826 -0.0743816 8.81969 0
M  V30 12853 O 737.366 1.97652 7.47304 0
M  V30 12854 C 738.306 3.01055 7.08599 0
M  V30 12855 C 737.576 4.12613 6.37049 0
M  V30 12856 O 737.366 3.72827 4.97879 0
M  V30 12857 C 736.176 4.45719 6.88164 0
M  V30 12858 O 735.786 5.7877 6.5624 0
M  V30 12859 C 735.296 3.47768 6.11991 0
M  V30 12860 C 736.006 3.39356 4.77615 0
M  V30 12861 N 735.956 2.04571 4.15244 0
M  V30 12862 C 735.806 1.98587 2.78314 0
M  V30 12863 O 735.716 2.98134 2.08835 0
M  V30 12864 N 735.766 0.714467 2.24925 0
M  V30 12865 C 735.856 -0.470001 2.94169 0
M  V30 12866 C 736.006 -0.312541 4.36783 0
M  V30 12867 C 736.056 0.914512 4.92583 0
M  V30 12868 H 738.797 3.41169 7.98575 0
M  V30 12869 H 739.066 2.58295 6.41556 0
M  V30 12870 H 738.199 5.02657 6.42673 0
M  V30 12871 H 735.544 4.11637 4.08885 0
M  V30 12872 H 735.265 2.49626 6.61679 0
M  V30 12873 H 734.273 3.86566 6.00778 0
M  V30 12874 H 736.107 4.29943 7.96918 0
M  V30 12875 H 736.178 1.00937 6.00374 0
M  V30 12876 P 734.236 6.144 6.45285 0
M  V30 12877 O 734.016 7.54673 6.86199 0
M  V30 12878 O 733.446 5.12391 7.179 0
M  V30 12879 O 733.986 5.99158 4.88404 0
M  V30 12880 C 734.926 6.60062 3.96313 0
M  V30 12881 C 734.196 7.08259 2.72856 0
M  V30 12882 O 733.986 5.9427 1.83651 0
M  V30 12883 C 732.796 7.65087 2.94749 0
M  V30 12884 O 732.406 8.53963 1.90717 0
M  V30 12885 C 731.916 6.41069 2.90698 0
M  V30 12886 C 732.626 5.5528 1.86931 0
M  V30 12887 N 732.576 4.09575 2.15696 0
M  V30 12888 C 732.426 3.24249 1.08435 0
M  V30 12889 O 732.336 3.63946 -0.0628747 0
M  V30 12890 N 732.386 1.90009 1.39973 0
M  V30 12891 C 732.476 1.34884 2.65614 0
M  V30 12892 C 732.626 2.3145 3.71736 0
M  V30 12893 C 732.676 3.63518 3.44754 0
M  V30 12894 H 735.417 7.45402 4.45526 0
M  V30 12895 H 735.686 5.86062 3.67208 0
M  V30 12896 H 734.819 7.84412 2.24479 0
M  V30 12897 H 732.164 5.73358 0.888409 0
M  V30 12898 H 731.885 5.90877 3.88583 0
M  V30 12899 H 730.893 6.65867 2.58821 0
M  V30 12900 H 732.727 8.16248 3.92006 0
M  V30 12901 H 732.798 4.34551 4.26383 0
M  V30 12902 P 730.856 8.7635 1.60911 0
M  V30 12903 O 730.636 10.1388 1.11561 0
M  V30 12904 O 730.066 8.36503 2.79617 0
M  V30 12905 O 730.606 7.71806 0.42951 0
M  V30 12906 C 731.546 7.66948 -0.673514 0
M  V30 12907 C 730.816 7.33374 -1.95559 0
M  V30 12908 O 730.606 5.88721 -2.00726 0
M  V30 12909 C 729.416 7.92218 -2.1125 0
M  V30 12910 O 729.026 8.02971 -3.47653 0
M  V30 12911 C 728.536 6.89504 -1.41631 0
M  V30 12912 C 729.246 5.59106 -1.75155 0
M  V30 12913 N 729.196 4.58136 -0.662409 0
M  V30 12914 C 729.046 3.26059 -1.02863 0
M  V30 12915 O 728.956 2.90743 -2.19009 0
M  V30 12916 N 729.006 2.35995 0.0155585 0
M  V30 12917 C 729.096 2.65248 1.35603 0
M  V30 12918 O 729.046 1.75605 2.20651 0
M  V30 12919 C 729.246 4.05747 1.64698 0
M  V30 12920 C 729.356 4.42345 3.09553 0
M  V30 12921 C 729.296 4.96734 0.652411 0
M  V30 12922 H 732.037 8.64917 -0.776982 0
M  V30 12923 H 732.306 6.89974 -0.474015 0
M  V30 12924 H 731.439 7.66548 -2.79458 0
M  V30 12925 H 728.784 5.16076 -2.65138 0
M  V30 12926 H 728.505 7.06433 -0.329384 0
M  V30 12927 H 727.513 6.90829 -1.81996 0
M  V30 12928 H 729.347 8.90774 -1.62639 0
M  V30 12929 H 729.418 6.02181 0.895285 0
M  V30 12930 H 728.388 4.80252 3.45468 0
M  V30 12931 H 730.125 5.20015 3.22119 0
M  V30 12932 H 729.637 3.53269 3.67833 0
M  V30 12933 H 728.901 1.39558 -0.227499 0
M  V30 12934 P 727.476 8.03563 -3.84925 0
M  V30 12935 O 727.256 8.85821 -5.0569 0
M  V30 12936 O 726.686 8.41101 -2.65469 0
M  V30 12937 O 727.226 6.4965 -4.18908 0
M  V30 12938 C 728.166 5.81037 -5.05421 0
M  V30 12939 C 727.436 4.78366 -5.89277 0
M  V30 12940 O 727.226 3.58302 -5.08433 0
M  V30 12941 C 726.036 5.17448 -6.36119 0
M  V30 12942 O 725.646 4.45271 -7.53232 0
M  V30 12943 C 725.156 4.74639 -5.19936 0
M  V30 12944 C 725.866 3.49432 -4.70418 0
M  V30 12945 N 725.816 3.32099 -3.22613 0
M  V30 12946 C 725.896 4.28245 -2.25527 0
M  V30 12947 N 725.826 3.80823 -1.04874 0
M  V30 12948 C 725.676 2.44571 -1.23535 0
M  V30 12949 C 725.546 1.37068 -0.330675 0
M  V30 12950 N 725.536 1.51472 0.990824 0
M  V30 12951 N 725.426 0.138614 -0.848756 0
M  V30 12952 C 725.436 -0.00675923 -2.16999 0
M  V30 12953 N 725.556 0.904372 -3.11122 0
M  V30 12954 C 725.676 2.12707 -2.56212 0
M  V30 12955 H 728.655 6.54213 -5.71376 0
M  V30 12956 H 728.927 5.30936 -4.43503 0
M  V30 12957 H 728.059 4.55889 -6.76652 0
M  V30 12958 H 725.404 2.61715 -5.17932 0
M  V30 12959 H 725.124 5.52155 -4.41878 0
M  V30 12960 H 724.133 4.51981 -5.53374 0
M  V30 12961 H 725.967 6.25124 -6.55234 0
M  V30 12962 H 726.008 5.34372 -2.47488 0
M  V30 12963 H 725.627 2.45153 1.4078 0
M  V30 12964 H 725.438 0.688422 1.59911 0
M  V30 12965 H 725.33 -1.02584 -2.52346 0
M  V30 12966 P 724.096 4.23843 -7.83734 0
M  V30 12967 O 723.876 4.19407 -9.29784 0
M  V30 12968 O 723.306 5.24426 -7.09156 0
M  V30 12969 O 723.846 2.79386 -7.20852 0
M  V30 12970 C 724.786 1.7299 -7.50419 0
M  V30 12971 C 724.056 0.41401 -7.5797 0
M  V30 12972 O 723.846 -0.089787 -6.22035 0
M  V30 12973 C 722.656 0.447224 -8.1878 0
M  V30 12974 O 722.266 -0.825159 -8.71201 0
M  V30 12975 C 721.776 0.783801 -6.99623 0
M  V30 12976 C 722.486 0.0619192 -5.85967 0
M  V30 12977 N 722.436 0.7859 -4.56281 0
M  V30 12978 C 722.286 0.0359258 -3.39981 0
M  V30 12979 O 722.196 -1.19723 -3.49038 0
M  V30 12980 N 722.236 0.869151 -2.14025 0
M  V30 12981 C 722.336 2.01207 -2.14363 0
M  V30 12982 N 722.286 2.58978 -0.954287 0
M  V30 12983 C 722.486 2.80817 -3.32215 0
M  V30 12984 C 722.536 2.13785 -4.50884 0
M  V30 12985 H 725.276 1.93401 -8.46693 0
M  V30 12986 H 725.546 1.68181 -6.71046 0
M  V30 12987 H 724.679 -0.289076 -8.15488 0
M  V30 12988 H 722.024 -0.927166 -5.72947 0
M  V30 12989 H 721.744 1.87 -6.82132 0
M  V30 12990 H 720.753 0.404009 -7.13457 0
M  V30 12991 H 722.587 1.20599 -8.97534 0
M  V30 12992 H 722.659 2.70295 -5.43162 0
M  V30 12993 H 722.557 3.89465 -3.27406 0
M  V30 12994 H 722.169 2.01616 -0.107046 0
M  V30 12995 H 722.365 3.61403 -0.873101 0
M  V30 12996 P 720.716 -1.17771 -8.83182 0
M  V30 12997 O 720.496 -2.07206 -9.98732 0
M  V30 12998 O 719.926 0.0743816 -8.81969 0
M  V30 12999 O 720.466 -1.97652 -7.47304 0
M  V30 13000 C 721.406 -3.01133 -7.08783 0
M  V30 13001 C 720.676 -4.12613 -6.37049 0
M  V30 13002 O 720.466 -3.72827 -4.97879 0
M  V30 13003 C 719.276 -4.45085 -6.88694 0
M  V30 13004 O 718.886 -5.7877 -6.5624 0
M  V30 13005 C 718.396 -3.47817 -6.12078 0
M  V30 13006 C 719.106 -3.39414 -4.77697 0
M  V30 13007 N 719.056 -2.04615 -4.15333 0
M  V30 13008 H 721.895 -3.41248 -7.98759 0
M  V30 13009 H 722.167 -2.5837 -6.41742 0
M  V30 13010 H 721.299 -5.02657 -6.42673 0
M  V30 13011 P 717.336 -6.144 -6.45285 0
M  V30 13012 O 717.116 -7.54673 -6.86199 0
M  V30 13013 O 716.546 -5.12391 -7.179 0
M  V30 13014 O 717.086 -5.99158 -4.88404 0
M  V30 13015 C 718.026 -6.60062 -3.96313 0
M  V30 13016 C 717.296 -7.08259 -2.72856 0
M  V30 13017 O 717.086 -5.9427 -1.83651 0
M  V30 13018 C 715.896 -7.65087 -2.94749 0
M  V30 13019 O 715.506 -8.53963 -1.90717 0
M  V30 13020 C 715.016 -6.41069 -2.90698 0
M  V30 13021 C 715.726 -5.5528 -1.86931 0
M  V30 13022 N 715.676 -4.09575 -2.15696 0
M  V30 13023 C 715.526 -3.24249 -1.08435 0
M  V30 13024 O 715.436 -3.63946 0.0628747 0
M  V30 13025 N 715.486 -1.90009 -1.39973 0
M  V30 13026 C 715.576 -1.34884 -2.65614 0
M  V30 13027 C 715.726 -2.3145 -3.71736 0
M  V30 13028 C 715.776 -3.63518 -3.44754 0
M  V30 13029 H 718.517 -7.45402 -4.45526 0
M  V30 13030 H 718.786 -5.86062 -3.67208 0
M  V30 13031 H 717.919 -7.84412 -2.24479 0
M  V30 13032 H 715.264 -5.73358 -0.888409 0
M  V30 13033 H 714.985 -5.90877 -3.88583 0
M  V30 13034 H 713.993 -6.65867 -2.58821 0
M  V30 13035 H 715.827 -8.16248 -3.92006 0
M  V30 13036 H 715.898 -4.34551 -4.26383 0
M  V30 13037 P 713.956 -8.7635 -1.60911 0
M  V30 13038 O 713.736 -10.1388 -1.11561 0
M  V30 13039 O 713.166 -8.36503 -2.79617 0
M  V30 13040 O 713.706 -7.71806 -0.42951 0
M  V30 13041 C 714.646 -7.67148 0.673689 0
M  V30 13042 C 713.916 -7.33374 1.95559 0
M  V30 13043 O 713.706 -5.88721 2.00726 0
M  V30 13044 C 712.516 -7.92526 2.10483 0
M  V30 13045 O 712.126 -8.02971 3.47653 0
M  V30 13046 C 711.636 -6.89602 1.41652 0
M  V30 13047 C 712.346 -5.59201 1.75185 0
M  V30 13048 N 712.296 -4.58301 0.657969 0
M  V30 13049 H 715.135 -8.65116 0.777161 0
M  V30 13050 H 715.407 -6.9022 0.46725 0
M  V30 13051 H 714.539 -7.66548 2.79458 0
M  V30 13052 H 711.884 -5.16165 2.65183 0
M  V30 13053 H 711.604 -7.06433 0.329384 0
M  V30 13054 H 710.613 -6.90926 1.82021 0
M  V30 13055 H 712.447 -8.90873 1.62657 0
M  V30 13056 P 710.576 -8.03563 3.84925 0
M  V30 13057 O 710.356 -8.85821 5.0569 0
M  V30 13058 O 709.786 -8.41101 2.65469 0
M  V30 13059 O 710.326 -6.4965 4.18908 0
M  V30 13060 C 711.266 -5.81037 5.05421 0
M  V30 13061 C 710.536 -4.78366 5.89277 0
M  V30 13062 O 710.326 -3.58302 5.08433 0
M  V30 13063 C 709.136 -5.17448 6.36119 0
M  V30 13064 O 708.746 -4.45271 7.53232 0
M  V30 13065 C 708.256 -4.74639 5.19936 0
M  V30 13066 C 708.966 -3.49432 4.70418 0
M  V30 13067 N 708.916 -3.31776 3.22945 0
M  V30 13068 C 708.996 -4.27147 2.23315 0
M  V30 13069 N 708.916 -3.78447 1.02186 0
M  V30 13070 C 708.776 -2.41001 1.21732 0
M  V30 13071 C 708.646 -1.36111 0.27694 0
M  V30 13072 N 708.526 -0.113683 0.912949 0
M  V30 13073 C 708.526 0.0846396 2.27943 0
M  V30 13074 N 708.396 1.34737 2.6916 0
M  V30 13075 N 708.656 -0.902521 3.16379 0
M  V30 13076 C 708.776 -2.11937 2.56849 0
M  V30 13077 H 711.755 -6.54213 5.71376 0
M  V30 13078 H 712.027 -5.30492 4.44033 0
M  V30 13079 H 711.159 -4.55889 6.76652 0
M  V30 13080 P 707.196 -4.23843 7.83734 0
M  V30 13081 O 706.976 -4.19407 9.29784 0
M  V30 13082 O 706.406 -5.24426 7.09156 0
M  V30 13083 O 706.946 -2.7935 7.20758 0
M  V30 13084 C 707.886 -1.7299 7.50419 0
M  V30 13085 C 707.156 -0.406376 7.57911 0
M  V30 13086 O 706.946 0.0897726 6.21935 0
M  V30 13087 C 705.756 -0.447224 8.1878 0
M  V30 13088 O 705.366 0.825065 8.71101 0
M  V30 13089 C 704.876 -0.783801 6.99623 0
M  V30 13090 C 705.586 -0.0619192 5.85967 0
M  V30 13091 N 705.536 -0.7859 4.56281 0
M  V30 13092 H 708.375 -1.93423 8.4679 0
M  V30 13093 H 708.647 -1.68181 6.71046 0
M  V30 13094 H 707.779 0.289041 8.15388 0
M  V30 13095 P 703.816 1.17771 8.83182 0
M  V30 13096 O 703.596 2.07206 9.98732 0
M  V30 13097 O 703.026 -0.0743816 8.81969 0
M  V30 13098 O 703.566 1.97678 7.474 0
M  V30 13099 C 704.506 3.01133 7.08783 0
M  V30 13100 C 703.776 4.1203 6.37546 0
M  V30 13101 O 703.566 3.72887 4.9796 0
M  V30 13102 C 702.376 4.45085 6.88694 0
M  V30 13103 O 701.986 5.78836 6.56315 0
M  V30 13104 C 701.496 3.47817 6.12078 0
M  V30 13105 C 702.206 3.39414 4.77697 0
M  V30 13106 N 702.156 2.04615 4.15333 0
M  V30 13107 C 702.006 1.96929 2.77162 0
M  V30 13108 O 701.916 3.02017 2.12006 0
M  V30 13109 N 701.956 0.55485 2.24237 0
M  V30 13110 C 702.056 -0.367808 2.9169 0
M  V30 13111 N 702.006 -1.53426 2.29427 0
M  V30 13112 C 702.206 -0.319148 4.33828 0
M  V30 13113 C 702.256 0.920672 4.90433 0
M  V30 13114 H 704.996 3.41209 7.98667 0
M  V30 13115 H 705.266 2.5837 6.41742 0
M  V30 13116 H 704.399 5.02718 6.42752 0
M  V30 13117 H 701.744 4.11779 4.09026 0
M  V30 13118 H 701.464 2.49661 6.61772 0
M  V30 13119 H 700.473 3.86674 6.00946 0
M  V30 13120 H 702.307 4.29991 7.97006 0
M  V30 13121 H 702.379 1.00589 5.98303 0
M  V30 13122 H 702.277 -1.22639 4.93799 0
M  V30 13123 H 701.889 -1.56819 1.27167 0
M  V30 13124 H 702.085 -2.41062 2.83063 0
M  V30 13125 P 700.436 6.144 6.45285 0
M  V30 13126 O 700.216 7.54673 6.86199 0
M  V30 13127 O 699.646 5.12391 7.179 0
M  V30 13128 O 700.186 5.99158 4.88404 0
M  V30 13129 C 701.126 6.60234 3.96415 0
M  V30 13130 C 700.396 7.08259 2.72856 0
M  V30 13131 O 700.186 5.9427 1.83651 0
M  V30 13132 C 698.996 7.64886 2.9555 0
M  V30 13133 O 698.606 8.53963 1.90717 0
M  V30 13134 C 698.116 6.4116 2.90739 0
M  V30 13135 C 698.826 5.55375 1.86963 0
M  V30 13136 N 698.776 4.09664 2.15742 0
M  V30 13137 H 701.615 7.45574 4.45629 0
M  V30 13138 H 701.887 5.86232 3.67314 0
M  V30 13139 H 701.019 7.84412 2.24479 0
M  V30 13140 P 697.056 8.7635 1.60911 0
M  V30 13141 O 696.836 10.1388 1.11561 0
M  V30 13142 O 696.266 8.36503 2.79617 0
M  V30 13143 O 696.806 7.71806 0.42951 0
M  V30 13144 C 697.746 7.66948 -0.673514 0
M  V30 13145 C 697.016 7.33374 -1.95559 0
M  V30 13146 O 696.806 5.88721 -2.00726 0
M  V30 13147 C 695.616 7.92218 -2.1125 0
M  V30 13148 O 695.226 8.02971 -3.47653 0
M  V30 13149 C 694.736 6.89504 -1.41631 0
M  V30 13150 C 695.446 5.59106 -1.75155 0
M  V30 13151 N 695.396 4.58136 -0.662409 0
M  V30 13152 C 695.246 3.26059 -1.02863 0
M  V30 13153 O 695.156 2.90743 -2.19009 0
M  V30 13154 N 695.206 2.35995 0.0155585 0
M  V30 13155 C 695.296 2.65248 1.35603 0
M  V30 13156 C 695.446 4.05747 1.64698 0
M  V30 13157 C 695.496 4.96734 0.652411 0
M  V30 13158 H 698.237 8.64917 -0.776982 0
M  V30 13159 H 698.506 6.89974 -0.474015 0
M  V30 13160 H 697.639 7.66548 -2.79458 0
M  V30 13161 H 694.984 5.16076 -2.65138 0
M  V30 13162 H 694.705 7.06433 -0.329384 0
M  V30 13163 H 693.713 6.90829 -1.81996 0
M  V30 13164 H 695.547 8.90774 -1.62639 0
M  V30 13165 H 695.618 6.02181 0.895285 0
M  V30 13166 P 693.676 8.03563 -3.84925 0
M  V30 13167 O 693.456 8.85821 -5.0569 0
M  V30 13168 O 692.886 8.41101 -2.65469 0
M  V30 13169 O 693.426 6.4965 -4.18908 0
M  V30 13170 C 694.366 5.81037 -5.05421 0
M  V30 13171 C 693.636 4.78366 -5.89277 0
M  V30 13172 O 693.426 3.58302 -5.08433 0
M  V30 13173 C 692.236 5.17448 -6.36119 0
M  V30 13174 O 691.846 4.45271 -7.53232 0
M  V30 13175 C 691.356 4.74639 -5.19936 0
M  V30 13176 C 692.066 3.49432 -4.70418 0
M  V30 13177 N 692.016 3.31776 -3.22945 0
M  V30 13178 H 694.855 6.54213 -5.71376 0
M  V30 13179 H 695.127 5.30492 -4.44033 0
M  V30 13180 H 694.259 4.55889 -6.76652 0
M  V30 13181 P 690.296 4.23843 -7.83734 0
M  V30 13182 O 690.076 4.19407 -9.29784 0
M  V30 13183 O 689.506 5.24426 -7.09156 0
M  V30 13184 O 690.046 2.7935 -7.20758 0
M  V30 13185 C 690.986 1.7299 -7.50419 0
M  V30 13186 C 690.256 0.406376 -7.57911 0
M  V30 13187 O 690.046 -0.0897726 -6.21935 0
M  V30 13188 C 688.856 0.447224 -8.1878 0
M  V30 13189 O 688.466 -0.825065 -8.71101 0
M  V30 13190 C 687.976 0.783801 -6.99623 0
M  V30 13191 C 688.686 0.0619192 -5.85967 0
M  V30 13192 N 688.636 0.7859 -4.56281 0
M  V30 13193 H 691.475 1.93423 -8.4679 0
M  V30 13194 H 691.747 1.68181 -6.71046 0
M  V30 13195 H 690.879 -0.289041 -8.15388 0
M  V30 13196 P 686.916 -1.17771 -8.83182 0
M  V30 13197 O 686.696 -2.07206 -9.98732 0
M  V30 13198 O 686.126 0.0743816 -8.81969 0
M  V30 13199 O 686.666 -1.97652 -7.47304 0
M  V30 13200 C 687.606 -3.01133 -7.08783 0
M  V30 13201 C 686.876 -4.12613 -6.37049 0
M  V30 13202 O 686.666 -3.72827 -4.97879 0
M  V30 13203 C 685.476 -4.45085 -6.88694 0
M  V30 13204 O 685.086 -5.7877 -6.5624 0
M  V30 13205 C 684.596 -3.47817 -6.12078 0
M  V30 13206 C 685.306 -3.39414 -4.77697 0
M  V30 13207 N 685.256 -2.04199 -4.15538 0
M  V30 13208 H 688.095 -3.41248 -7.98759 0
M  V30 13209 H 688.367 -2.57728 -6.42 0
M  V30 13210 H 687.499 -5.02657 -6.42673 0
M  V30 13211 H 684.844 -4.11708 -4.08956 0
M  V30 13212 H 684.564 -2.49626 -6.61679 0
M  V30 13213 H 683.573 -3.8662 -6.00862 0
M  V30 13214 H 685.407 -4.29991 -7.97006 0
M  V30 13215 P 683.536 -6.144 -6.45285 0
M  V30 13216 O 683.316 -7.54673 -6.86199 0
M  V30 13217 O 682.746 -5.12391 -7.179 0
M  V30 13218 O 683.286 -5.99158 -4.88404 0
M  V30 13219 C 684.226 -6.60234 -3.96415 0
M  V30 13220 C 683.496 -7.08259 -2.72856 0
M  V30 13221 O 683.286 -5.9427 -1.83651 0
M  V30 13222 C 682.096 -7.64886 -2.9555 0
M  V30 13223 O 681.706 -8.53963 -1.90717 0
M  V30 13224 C 681.216 -6.4116 -2.90739 0
M  V30 13225 C 681.926 -5.55375 -1.86963 0
M  V30 13226 N 681.876 -4.09664 -2.15742 0
M  V30 13227 H 684.715 -7.45574 -4.45629 0
M  V30 13228 H 684.987 -5.86232 -3.67314 0
M  V30 13229 H 684.119 -7.84412 -2.24479 0
M  V30 13230 P 680.156 -8.7635 -1.60911 0
M  V30 13231 O 679.936 -10.1388 -1.11561 0
M  V30 13232 O 679.366 -8.36503 -2.79617 0
M  V30 13233 O 679.906 -7.71806 -0.42951 0
M  V30 13234 C 680.846 -7.67148 0.673689 0
M  V30 13235 C 680.116 -7.33374 1.95559 0
M  V30 13236 O 679.906 -5.88721 2.00726 0
M  V30 13237 C 678.716 -7.92526 2.10483 0
M  V30 13238 O 678.326 -8.02971 3.47653 0
M  V30 13239 C 677.836 -6.89602 1.41652 0
M  V30 13240 C 678.546 -5.59201 1.75185 0
M  V30 13241 N 678.496 -4.58235 0.662552 0
M  V30 13242 H 681.335 -8.65116 0.777161 0
M  V30 13243 H 681.607 -6.90173 0.474152 0
M  V30 13244 H 680.739 -7.66548 2.79458 0
M  V30 13245 P 676.776 -8.03563 3.84925 0
M  V30 13246 O 676.556 -8.85821 5.0569 0
M  V30 13247 O 675.986 -8.41101 2.65469 0
M  V30 13248 O 676.526 -6.4965 4.18908 0
M  V30 13249 C 677.466 -5.81037 5.05421 0
M  V30 13250 C 676.736 -4.78366 5.89277 0
M  V30 13251 O 676.526 -3.58302 5.08433 0
M  V30 13252 C 675.336 -5.17448 6.36119 0
M  V30 13253 O 674.946 -4.45271 7.53232 0
M  V30 13254 C 674.456 -4.74639 5.19936 0
M  V30 13255 C 675.166 -3.49432 4.70418 0
M  V30 13256 N 675.116 -3.32099 3.22613 0
M  V30 13257 H 677.955 -6.54213 5.71376 0
M  V30 13258 H 678.227 -5.30936 4.43503 0
M  V30 13259 H 677.359 -4.55889 6.76652 0
M  V30 13260 H 674.704 -2.61715 5.17932 0
M  V30 13261 H 674.424 -5.52155 4.41878 0
M  V30 13262 H 673.433 -4.51981 5.53374 0
M  V30 13263 H 675.267 -6.25124 6.55234 0
M  V30 13264 P 673.396 -4.23843 7.83734 0
M  V30 13265 O 673.176 -4.19407 9.29784 0
M  V30 13266 O 672.606 -5.24426 7.09156 0
M  V30 13267 O 673.146 -2.7935 7.20758 0
M  V30 13268 C 674.086 -1.7299 7.50419 0
M  V30 13269 C 673.356 -0.406376 7.57911 0
M  V30 13270 O 673.146 0.0897726 6.21935 0
M  V30 13271 C 671.956 -0.447224 8.1878 0
M  V30 13272 O 671.566 0.825065 8.71101 0
M  V30 13273 C 671.076 -0.783801 6.99623 0
M  V30 13274 C 671.786 -0.0619192 5.85967 0
M  V30 13275 N 671.736 -0.7859 4.56281 0
M  V30 13276 H 674.575 -1.93423 8.4679 0
M  V30 13277 H 674.847 -1.68181 6.71046 0
M  V30 13278 H 673.979 0.289041 8.15388 0
M  V30 13279 P 670.016 1.17771 8.83182 0
M  V30 13280 O 669.796 2.07206 9.98732 0
M  V30 13281 O 669.226 -0.0743816 8.81969 0
M  V30 13282 O 669.766 1.97652 7.47304 0
M  V30 13283 C 670.706 3.01133 7.08783 0
M  V30 13284 C 669.976 4.12613 6.37049 0
M  V30 13285 O 669.766 3.72827 4.97879 0
M  V30 13286 C 668.576 4.45085 6.88694 0
M  V30 13287 O 668.186 5.7877 6.5624 0
M  V30 13288 C 667.696 3.47817 6.12078 0
M  V30 13289 C 668.406 3.39414 4.77697 0
M  V30 13290 N 668.356 2.04615 4.15333 0
M  V30 13291 H 671.195 3.41248 7.98759 0
M  V30 13292 H 671.467 2.5837 6.41742 0
M  V30 13293 H 670.599 5.02657 6.42673 0
M  V30 13294 P 666.636 6.144 6.45285 0
M  V30 13295 O 666.416 7.54673 6.86199 0
M  V30 13296 O 665.846 5.12391 7.179 0
M  V30 13297 O 666.386 5.99158 4.88404 0
M  V30 13298 C 667.326 6.60234 3.96415 0
M  V30 13299 C 666.596 7.08259 2.72856 0
M  V30 13300 O 666.386 5.9427 1.83651 0
M  V30 13301 C 665.196 7.64886 2.9555 0
M  V30 13302 O 664.806 8.53963 1.90717 0
M  V30 13303 C 664.316 6.4116 2.90739 0
M  V30 13304 C 665.026 5.55375 1.86963 0
M  V30 13305 N 664.976 4.09664 2.15742 0
M  V30 13306 H 667.815 7.45574 4.45629 0
M  V30 13307 H 668.087 5.86232 3.67314 0
M  V30 13308 H 667.219 7.84412 2.24479 0
M  V30 13309 P 663.256 8.7635 1.60911 0
M  V30 13310 O 663.036 10.1388 1.11561 0
M  V30 13311 O 662.466 8.36503 2.79617 0
M  V30 13312 O 663.006 7.71806 0.42951 0
M  V30 13313 C 663.946 7.67148 -0.673689 0
M  V30 13314 C 663.216 7.33374 -1.95559 0
M  V30 13315 O 663.006 5.88721 -2.00726 0
M  V30 13316 C 661.816 7.92526 -2.10483 0
M  V30 13317 O 661.426 8.02971 -3.47653 0
M  V30 13318 C 660.936 6.89602 -1.41652 0
M  V30 13319 C 661.646 5.59201 -1.75185 0
M  V30 13320 N 661.596 4.58301 -0.657969 0
M  V30 13321 H 664.435 8.65116 -0.777161 0
M  V30 13322 H 664.707 6.9022 -0.46725 0
M  V30 13323 H 663.839 7.66548 -2.79458 0
M  V30 13324 H 661.184 5.16165 -2.65183 0
M  V30 13325 H 660.904 7.06433 -0.329384 0
M  V30 13326 H 659.913 6.90926 -1.82021 0
M  V30 13327 H 661.747 8.90873 -1.62657 0
M  V30 13328 P 659.876 8.03563 -3.84925 0
M  V30 13329 O 659.656 8.85821 -5.0569 0
M  V30 13330 O 659.086 8.41101 -2.65469 0
M  V30 13331 O 659.626 6.4965 -4.18908 0
M  V30 13332 C 660.566 5.81037 -5.05421 0
M  V30 13333 C 659.836 4.78366 -5.89277 0
M  V30 13334 O 659.626 3.58302 -5.08433 0
M  V30 13335 C 658.436 5.17448 -6.36119 0
M  V30 13336 O 658.046 4.45271 -7.53232 0
M  V30 13337 C 657.556 4.74639 -5.19936 0
M  V30 13338 C 658.266 3.49432 -4.70418 0
M  V30 13339 N 658.216 3.32099 -3.22613 0
M  V30 13340 H 661.055 6.54213 -5.71376 0
M  V30 13341 H 661.327 5.30936 -4.43503 0
M  V30 13342 H 660.459 4.55889 -6.76652 0
M  V30 13343 H 657.804 2.61715 -5.17932 0
M  V30 13344 H 657.524 5.52155 -4.41878 0
M  V30 13345 H 656.533 4.51981 -5.53374 0
M  V30 13346 H 658.367 6.25124 -6.55234 0
M  V30 13347 P 656.496 4.23843 -7.83734 0
M  V30 13348 O 656.276 4.19407 -9.29784 0
M  V30 13349 O 655.706 5.24426 -7.09156 0
M  V30 13350 O 656.246 2.7935 -7.20758 0
M  V30 13351 C 657.186 1.7299 -7.50419 0
M  V30 13352 C 656.456 0.406376 -7.57911 0
M  V30 13353 O 656.246 -0.0897726 -6.21935 0
M  V30 13354 C 655.056 0.447224 -8.1878 0
M  V30 13355 O 654.666 -0.825065 -8.71101 0
M  V30 13356 C 654.176 0.783801 -6.99623 0
M  V30 13357 C 654.886 0.0619192 -5.85967 0
M  V30 13358 N 654.836 0.7859 -4.56281 0
M  V30 13359 C 654.916 2.14308 -4.31736 0
M  V30 13360 N 654.836 2.46106 -3.05116 0
M  V30 13361 C 654.696 1.23422 -2.4014 0
M  V30 13362 C 654.566 0.938381 -1.02409 0
M  V30 13363 N 654.446 -0.444647 -0.805413 0
M  V30 13364 C 654.446 -1.40829 -1.79435 0
M  V30 13365 N 654.316 -2.67213 -1.38558 0
M  V30 13366 N 654.576 -1.12947 -3.09005 0
M  V30 13367 C 654.696 0.204887 -3.32369 0
M  V30 13368 H 657.675 1.93423 -8.4679 0
M  V30 13369 H 657.947 1.68181 -6.71046 0
M  V30 13370 H 657.079 -0.289041 -8.15388 0
M  V30 13371 P 653.116 -1.17771 -8.83182 0
M  V30 13372 O 652.896 -2.07206 -9.98732 0
M  V30 13373 O 652.326 0.0743816 -8.81969 0
M  V30 13374 O 652.866 -1.97652 -7.47304 0
M  V30 13375 C 653.806 -3.01133 -7.08783 0
M  V30 13376 C 653.076 -4.12613 -6.37049 0
M  V30 13377 O 652.866 -3.72827 -4.97879 0
M  V30 13378 C 651.676 -4.45085 -6.88694 0
M  V30 13379 O 651.286 -5.7877 -6.5624 0
M  V30 13380 C 650.796 -3.47817 -6.12078 0
M  V30 13381 C 651.506 -3.39414 -4.77697 0
M  V30 13382 N 651.456 -2.04199 -4.15538 0
M  V30 13383 H 654.295 -3.41248 -7.98759 0
M  V30 13384 H 654.567 -2.57728 -6.42 0
M  V30 13385 H 653.699 -5.02657 -6.42673 0
M  V30 13386 H 651.044 -4.11708 -4.08956 0
M  V30 13387 H 650.764 -2.49626 -6.61679 0
M  V30 13388 H 649.773 -3.8662 -6.00862 0
M  V30 13389 H 651.607 -4.29991 -7.97006 0
M  V30 13390 P 649.736 -6.144 -6.45285 0
M  V30 13391 O 649.516 -7.54673 -6.86199 0
M  V30 13392 O 648.946 -5.12391 -7.179 0
M  V30 13393 O 649.486 -5.99158 -4.88404 0
M  V30 13394 C 650.426 -6.60062 -3.96313 0
M  V30 13395 C 649.696 -7.08259 -2.72856 0
M  V30 13396 O 649.486 -5.9427 -1.83651 0
M  V30 13397 C 648.296 -7.65087 -2.94749 0
M  V30 13398 O 647.906 -8.53963 -1.90717 0
M  V30 13399 C 647.416 -6.41069 -2.90698 0
M  V30 13400 C 648.126 -5.5528 -1.86931 0
M  V30 13401 N 648.076 -4.09575 -2.15696 0
M  V30 13402 C 647.926 -3.24249 -1.08435 0
M  V30 13403 O 647.836 -3.63946 0.0628747 0
M  V30 13404 N 647.886 -1.90009 -1.39973 0
M  V30 13405 C 647.976 -1.34884 -2.65614 0
M  V30 13406 C 648.126 -2.3145 -3.71736 0
M  V30 13407 C 648.176 -3.63518 -3.44754 0
M  V30 13408 H 650.917 -7.45402 -4.45526 0
M  V30 13409 H 651.186 -5.86062 -3.67208 0
M  V30 13410 H 650.319 -7.84412 -2.24479 0
M  V30 13411 H 647.664 -5.73358 -0.888409 0
M  V30 13412 H 647.385 -5.90877 -3.88583 0
M  V30 13413 H 646.393 -6.65867 -2.58821 0
M  V30 13414 H 648.227 -8.16248 -3.92006 0
M  V30 13415 H 648.298 -4.34551 -4.26383 0
M  V30 13416 P 646.356 -8.7635 -1.60911 0
M  V30 13417 O 646.136 -10.1388 -1.11561 0
M  V30 13418 O 645.566 -8.36503 -2.79617 0
M  V30 13419 O 646.106 -7.71806 -0.42951 0
M  V30 13420 C 647.046 -7.67148 0.673689 0
M  V30 13421 C 646.316 -7.33374 1.95559 0
M  V30 13422 O 646.106 -5.88721 2.00726 0
M  V30 13423 C 644.916 -7.92526 2.10483 0
M  V30 13424 O 644.526 -8.02971 3.47653 0
M  V30 13425 C 644.036 -6.89602 1.41652 0
M  V30 13426 C 644.746 -5.59201 1.75185 0
M  V30 13427 N 644.696 -4.58235 0.662552 0
M  V30 13428 H 647.535 -8.65116 0.777161 0
M  V30 13429 H 647.807 -6.90173 0.474152 0
M  V30 13430 H 646.939 -7.66548 2.79458 0
M  V30 13431 P 642.976 -8.03563 3.84925 0
M  V30 13432 O 642.756 -8.85821 5.0569 0
M  V30 13433 O 642.186 -8.41101 2.65469 0
M  V30 13434 O 642.726 -6.4965 4.18908 0
M  V30 13435 C 643.666 -5.81037 5.05421 0
M  V30 13436 C 642.936 -4.78366 5.89277 0
M  V30 13437 O 642.726 -3.58302 5.08433 0
M  V30 13438 C 641.536 -5.17448 6.36119 0
M  V30 13439 O 641.146 -4.45271 7.53232 0
M  V30 13440 C 640.656 -4.74639 5.19936 0
M  V30 13441 C 641.366 -3.49432 4.70418 0
M  V30 13442 N 641.316 -3.31776 3.22945 0
M  V30 13443 H 644.155 -6.54213 5.71376 0
M  V30 13444 H 644.427 -5.30492 4.44033 0
M  V30 13445 H 643.559 -4.55889 6.76652 0
M  V30 13446 P 639.596 -4.23843 7.83734 0
M  V30 13447 O 639.376 -4.19407 9.29784 0
M  V30 13448 O 638.806 -5.24426 7.09156 0
M  V30 13449 O 639.346 -2.7935 7.20758 0
M  V30 13450 C 640.286 -1.7299 7.50419 0
M  V30 13451 C 639.556 -0.406376 7.57911 0
M  V30 13452 O 639.346 0.0897726 6.21935 0
M  V30 13453 C 638.156 -0.447224 8.1878 0
M  V30 13454 O 637.766 0.825065 8.71101 0
M  V30 13455 C 637.276 -0.783801 6.99623 0
M  V30 13456 C 637.986 -0.0619192 5.85967 0
M  V30 13457 N 637.936 -0.7859 4.56281 0
M  V30 13458 H 640.775 -1.93423 8.4679 0
M  V30 13459 H 641.047 -1.68181 6.71046 0
M  V30 13460 H 640.179 0.289041 8.15388 0
M  V30 13461 P 636.216 1.17771 8.83182 0
M  V30 13462 O 635.996 2.07206 9.98732 0
M  V30 13463 O 635.426 -0.0743816 8.81969 0
M  V30 13464 O 635.966 1.97652 7.47304 0
M  V30 13465 C 636.906 3.01133 7.08783 0
M  V30 13466 C 636.176 4.12613 6.37049 0
M  V30 13467 O 635.966 3.72827 4.97879 0
M  V30 13468 C 634.776 4.45085 6.88694 0
M  V30 13469 O 634.386 5.7877 6.5624 0
M  V30 13470 C 633.896 3.47817 6.12078 0
M  V30 13471 C 634.606 3.39414 4.77697 0
M  V30 13472 N 634.556 2.04615 4.15333 0
M  V30 13473 H 637.395 3.41248 7.98759 0
M  V30 13474 H 637.667 2.5837 6.41742 0
M  V30 13475 H 636.799 5.02657 6.42673 0
M  V30 13476 P 632.836 6.144 6.45285 0
M  V30 13477 O 632.616 7.54673 6.86199 0
M  V30 13478 O 632.046 5.12391 7.179 0
M  V30 13479 O 632.586 5.99158 4.88404 0
M  V30 13480 C 633.526 6.60234 3.96415 0
M  V30 13481 C 632.796 7.08259 2.72856 0
M  V30 13482 O 632.586 5.9427 1.83651 0
M  V30 13483 C 631.396 7.64886 2.9555 0
M  V30 13484 O 631.006 8.53963 1.90717 0
M  V30 13485 C 630.516 6.4116 2.90739 0
M  V30 13486 C 631.226 5.55375 1.86963 0
M  V30 13487 N 631.176 4.09448 2.16152 0
M  V30 13488 H 634.015 7.45574 4.45629 0
M  V30 13489 H 634.287 5.85864 3.679 0
M  V30 13490 H 633.419 7.84412 2.24479 0
M  V30 13491 H 630.764 5.73457 0.888562 0
M  V30 13492 H 630.484 5.90877 3.88583 0
M  V30 13493 H 629.493 6.6596 2.58858 0
M  V30 13494 H 631.327 8.16339 3.92049 0
M  V30 13495 P 629.456 8.7635 1.60911 0
M  V30 13496 O 629.236 10.1388 1.11561 0
M  V30 13497 O 628.666 8.36503 2.79617 0
M  V30 13498 O 629.206 7.71806 0.42951 0
M  V30 13499 C 630.146 7.67148 -0.673689 0
M  V30 13500 C 629.416 7.33374 -1.95559 0
M  V30 13501 O 629.206 5.88721 -2.00726 0
M  V30 13502 C 628.016 7.92526 -2.10483 0
M  V30 13503 O 627.626 8.02971 -3.47653 0
M  V30 13504 C 627.136 6.89602 -1.41652 0
M  V30 13505 C 627.846 5.59201 -1.75185 0
M  V30 13506 N 627.796 4.58301 -0.657969 0
M  V30 13507 H 630.635 8.65116 -0.777161 0
M  V30 13508 H 630.907 6.9022 -0.46725 0
M  V30 13509 H 630.039 7.66548 -2.79458 0
M  V30 13510 H 627.384 5.16165 -2.65183 0
M  V30 13511 H 627.104 7.06433 -0.329384 0
M  V30 13512 H 626.113 6.90926 -1.82021 0
M  V30 13513 H 627.947 8.90873 -1.62657 0
M  V30 13514 P 626.076 8.03563 -3.84925 0
M  V30 13515 O 625.856 8.85821 -5.0569 0
M  V30 13516 O 625.286 8.41101 -2.65469 0
M  V30 13517 O 625.826 6.4965 -4.18908 0
M  V30 13518 C 626.766 5.81037 -5.05421 0
M  V30 13519 C 626.036 4.78366 -5.89277 0
M  V30 13520 O 625.826 3.58302 -5.08433 0
M  V30 13521 C 624.636 5.17448 -6.36119 0
M  V30 13522 O 624.246 4.45271 -7.53232 0
M  V30 13523 C 623.756 4.74639 -5.19936 0
M  V30 13524 C 624.466 3.49432 -4.70418 0
M  V30 13525 N 624.416 3.32099 -3.22613 0
M  V30 13526 H 627.255 6.54213 -5.71376 0
M  V30 13527 H 627.527 5.30936 -4.43503 0
M  V30 13528 H 626.659 4.55889 -6.76652 0
M  V30 13529 H 624.004 2.61715 -5.17932 0
M  V30 13530 H 623.724 5.52155 -4.41878 0
M  V30 13531 H 622.733 4.51981 -5.53374 0
M  V30 13532 H 624.567 6.25124 -6.55234 0
M  V30 13533 P 622.696 4.23843 -7.83734 0
M  V30 13534 O 622.476 4.19407 -9.29784 0
M  V30 13535 O 621.906 5.24426 -7.09156 0
M  V30 13536 O 622.446 2.7935 -7.20758 0
M  V30 13537 C 623.386 1.7299 -7.50419 0
M  V30 13538 C 622.656 0.406376 -7.57911 0
M  V30 13539 O 622.446 -0.0897726 -6.21935 0
M  V30 13540 C 621.256 0.447224 -8.1878 0
M  V30 13541 O 620.866 -0.825065 -8.71101 0
M  V30 13542 C 620.376 0.783801 -6.99623 0
M  V30 13543 C 621.086 0.0619192 -5.85967 0
M  V30 13544 N 621.036 0.7859 -4.56281 0
M  V30 13545 H 623.875 1.93423 -8.4679 0
M  V30 13546 H 624.147 1.68181 -6.71046 0
M  V30 13547 H 623.279 -0.289041 -8.15388 0
M  V30 13548 P 619.316 -1.17771 -8.83182 0
M  V30 13549 O 619.096 -2.07206 -9.98732 0
M  V30 13550 O 618.526 0.0743816 -8.81969 0
M  V30 13551 O 619.066 -1.97652 -7.47304 0
M  V30 13552 C 620.006 -3.01133 -7.08783 0
M  V30 13553 C 619.276 -4.12613 -6.37049 0
M  V30 13554 O 619.066 -3.72827 -4.97879 0
M  V30 13555 C 617.876 -4.45085 -6.88694 0
M  V30 13556 O 617.486 -5.7877 -6.5624 0
M  V30 13557 C 616.996 -3.47817 -6.12078 0
M  V30 13558 C 617.706 -3.39414 -4.77697 0
M  V30 13559 N 617.656 -2.04615 -4.15333 0
M  V30 13560 H 620.495 -3.41248 -7.98759 0
M  V30 13561 H 620.767 -2.5837 -6.41742 0
M  V30 13562 H 619.899 -5.02657 -6.42673 0
M  V30 13563 P 615.936 -6.144 -6.45285 0
M  V30 13564 O 615.716 -7.54673 -6.86199 0
M  V30 13565 O 615.146 -5.12391 -7.179 0
M  V30 13566 O 615.686 -5.99158 -4.88404 0
M  V30 13567 C 616.626 -6.60234 -3.96415 0
M  V30 13568 C 615.896 -7.08259 -2.72856 0
M  V30 13569 O 615.686 -5.9427 -1.83651 0
M  V30 13570 C 614.496 -7.64886 -2.9555 0
M  V30 13571 O 614.106 -8.53963 -1.90717 0
M  V30 13572 C 613.616 -6.4116 -2.90739 0
M  V30 13573 C 614.326 -5.55375 -1.86963 0
M  V30 13574 N 614.276 -4.09664 -2.15742 0
M  V30 13575 H 617.115 -7.45574 -4.45629 0
M  V30 13576 H 617.387 -5.86232 -3.67314 0
M  V30 13577 H 616.519 -7.84412 -2.24479 0
M  V30 13578 P 612.556 -8.7635 -1.60911 0
M  V30 13579 O 612.336 -10.1388 -1.11561 0
M  V30 13580 O 611.766 -8.36503 -2.79617 0
M  V30 13581 O 612.306 -7.71806 -0.42951 0
M  V30 13582 C 613.246 -7.67148 0.673689 0
M  V30 13583 C 612.516 -7.33374 1.95559 0
M  V30 13584 O 612.306 -5.88721 2.00726 0
M  V30 13585 C 611.116 -7.92526 2.10483 0
M  V30 13586 O 610.726 -8.02971 3.47653 0
M  V30 13587 C 610.236 -6.89602 1.41652 0
M  V30 13588 C 610.946 -5.59201 1.75185 0
M  V30 13589 N 610.896 -4.58235 0.662552 0
M  V30 13590 H 613.735 -8.65116 0.777161 0
M  V30 13591 H 614.007 -6.90173 0.474152 0
M  V30 13592 H 613.139 -7.66548 2.79458 0
M  V30 13593 P 609.176 -8.03563 3.84925 0
M  V30 13594 O 608.956 -8.85821 5.0569 0
M  V30 13595 O 608.386 -8.41101 2.65469 0
M  V30 13596 O 608.926 -6.4965 4.18908 0
M  V30 13597 C 609.866 -5.81037 5.05421 0
M  V30 13598 C 609.136 -4.78366 5.89277 0
M  V30 13599 O 608.926 -3.58302 5.08433 0
M  V30 13600 C 607.736 -5.17448 6.36119 0
M  V30 13601 O 607.346 -4.45271 7.53232 0
M  V30 13602 C 606.856 -4.74639 5.19936 0
M  V30 13603 C 607.566 -3.49432 4.70418 0
M  V30 13604 N 607.516 -3.31776 3.22945 0
M  V30 13605 C 607.596 -4.27147 2.23315 0
M  V30 13606 N 607.516 -3.78447 1.02186 0
M  V30 13607 C 607.376 -2.41001 1.21732 0
M  V30 13608 C 607.246 -1.36111 0.27694 0
M  V30 13609 N 607.126 -0.113683 0.912949 0
M  V30 13610 C 607.126 0.0846396 2.27943 0
M  V30 13611 N 606.996 1.34737 2.6916 0
M  V30 13612 N 607.256 -0.902521 3.16379 0
M  V30 13613 C 607.376 -2.11937 2.56849 0
M  V30 13614 H 610.355 -6.54213 5.71376 0
M  V30 13615 H 610.627 -5.30492 4.44033 0
M  V30 13616 H 609.759 -4.55889 6.76652 0
M  V30 13617 P 605.796 -4.23843 7.83734 0
M  V30 13618 O 605.576 -4.19407 9.29784 0
M  V30 13619 O 605.006 -5.24426 7.09156 0
M  V30 13620 O 605.546 -2.7935 7.20758 0
M  V30 13621 C 606.486 -1.72945 7.50224 0
M  V30 13622 C 605.756 -0.406376 7.57911 0
M  V30 13623 O 605.546 0.0897726 6.21935 0
M  V30 13624 C 604.356 -0.438983 8.18724 0
M  V30 13625 O 603.966 0.825065 8.71101 0
M  V30 13626 C 603.476 -0.783689 6.99524 0
M  V30 13627 C 604.186 -0.0619086 5.85867 0
M  V30 13628 N 604.136 -0.78573 4.56183 0
M  V30 13629 C 603.986 -0.0292889 3.41887 0
M  V30 13630 O 603.896 1.18445 3.4419 0
M  V30 13631 N 603.946 -0.744061 2.23964 0
M  V30 13632 C 604.036 -2.10932 2.10362 0
M  V30 13633 C 604.186 -2.8202 3.34994 0
M  V30 13634 C 604.236 -2.15547 4.52261 0
M  V30 13635 H 606.977 -1.93379 8.46595 0
M  V30 13636 H 607.246 -1.68132 6.70852 0
M  V30 13637 H 606.379 0.289041 8.15388 0
M  V30 13638 H 603.724 0.926847 5.72749 0
M  V30 13639 H 603.445 -1.86973 6.82036 0
M  V30 13640 H 602.453 -0.403896 7.13257 0
M  V30 13641 H 604.287 -1.20585 8.97435 0
M  V30 13642 H 604.358 -2.71231 5.45042 0
M  V30 13643 P 602.416 1.17771 8.83182 0
M  V30 13644 O 602.196 2.07206 9.98732 0
M  V30 13645 O 601.626 -0.0743816 8.81969 0
M  V30 13646 O 602.166 1.97652 7.47304 0
M  V30 13647 C 603.106 3.01133 7.08783 0
M  V30 13648 C 602.376 4.12613 6.37049 0
M  V30 13649 O 602.166 3.72827 4.97879 0
M  V30 13650 C 600.976 4.45085 6.88694 0
M  V30 13651 O 600.586 5.7877 6.5624 0
M  V30 13652 C 600.096 3.47817 6.12078 0
M  V30 13653 C 600.806 3.39414 4.77697 0
M  V30 13654 N 600.756 2.04615 4.15333 0
M  V30 13655 H 603.595 3.41248 7.98759 0
M  V30 13656 H 603.867 2.5837 6.41742 0
M  V30 13657 H 602.999 5.02657 6.42673 0
M  V30 13658 P 599.036 6.144 6.45285 0
M  V30 13659 O 598.816 7.54673 6.86199 0
M  V30 13660 O 598.246 5.12391 7.179 0
M  V30 13661 O 598.786 5.99236 4.88467 0
M  V30 13662 C 599.726 6.60234 3.96415 0
M  V30 13663 C 598.996 7.08079 2.736 0
M  V30 13664 O 598.786 5.94365 1.8368 0
M  V30 13665 C 597.596 7.64886 2.9555 0
M  V30 13666 O 597.206 8.5406 1.90739 0
M  V30 13667 C 596.716 6.4116 2.90739 0
M  V30 13668 C 597.426 5.55375 1.86963 0
M  V30 13669 N 597.376 4.09664 2.15742 0
M  V30 13670 C 597.226 3.22231 1.08477 0
M  V30 13671 O 597.136 3.68951 -0.0600489 0
M  V30 13672 N 597.176 1.76692 1.48799 0
M  V30 13673 C 597.276 1.41695 2.57602 0
M  V30 13674 N 597.226 0.107296 2.75791 0
M  V30 13675 C 597.426 2.29178 3.69733 0
M  V30 13676 C 597.476 3.62753 3.42653 0
M  V30 13677 H 600.216 7.45488 4.45578 0
M  V30 13678 H 600.486 5.86232 3.67314 0
M  V30 13679 H 599.619 7.84508 2.24507 0
M  V30 13680 H 596.964 5.73556 0.888715 0
M  V30 13681 H 596.684 5.9096 3.88638 0
M  V30 13682 H 595.693 6.66053 2.58894 0
M  V30 13683 H 597.527 8.16339 3.92049 0
M  V30 13684 H 597.599 4.33052 4.24913 0
M  V30 13685 H 597.497 1.9103 4.71577 0
M  V30 13686 H 597.109 -0.521221 1.95056 0
M  V30 13687 H 597.305 -0.286429 3.70695 0
M  V30 13688 P 595.656 8.7635 1.60911 0
M  V30 13689 O 595.437 10.1388 1.11561 0
M  V30 13690 O 594.866 8.36503 2.79617 0
M  V30 13691 O 595.406 7.71806 0.42951 0
M  V30 13692 C 596.346 7.67148 -0.673689 0
M  V30 13693 C 595.616 7.33374 -1.95559 0
M  V30 13694 O 595.406 5.88721 -2.00726 0
M  V30 13695 C 594.216 7.92526 -2.10483 0
M  V30 13696 O 593.827 8.02971 -3.47653 0
M  V30 13697 C 593.337 6.89602 -1.41652 0
M  V30 13698 C 594.046 5.59201 -1.75185 0
M  V30 13699 N 593.996 4.58235 -0.662552 0
M  V30 13700 H 596.836 8.65116 -0.777161 0
M  V30 13701 H 597.107 6.90173 -0.474152 0
M  V30 13702 H 596.24 7.66548 -2.79458 0
M  V30 13703 P 592.277 8.03563 -3.84925 0
M  V30 13704 O 592.057 8.85821 -5.0569 0
M  V30 13705 O 591.487 8.41101 -2.65469 0
M  V30 13706 O 592.027 6.4965 -4.18908 0
M  V30 13707 C 592.967 5.80886 -5.05289 0
M  V30 13708 C 592.237 4.78366 -5.89277 0
M  V30 13709 O 592.027 3.58302 -5.08433 0
M  V30 13710 C 590.837 5.16748 -6.36559 0
M  V30 13711 O 590.447 4.45271 -7.53232 0
M  V30 13712 C 589.957 4.74572 -5.19863 0
M  V30 13713 C 590.667 3.49373 -4.70338 0
M  V30 13714 N 590.617 3.31704 -3.22876 0
M  V30 13715 C 590.467 2.03326 -2.74871 0
M  V30 13716 O 590.377 1.06486 -3.48076 0
M  V30 13717 N 590.427 1.91838 -1.37456 0
M  V30 13718 C 590.517 2.94295 -0.462035 0
M  V30 13719 C 590.667 4.25064 -1.05249 0
M  V30 13720 C 590.717 4.40214 -2.39192 0
M  V30 13721 H 593.458 6.54063 -5.71245 0
M  V30 13722 H 593.727 5.30339 -4.43905 0
M  V30 13723 H 592.86 4.55889 -6.76652 0
M  V30 13724 H 590.205 2.6167 -5.17842 0
M  V30 13725 H 589.926 5.52155 -4.41878 0
M  V30 13726 H 588.934 4.51918 -5.53297 0
M  V30 13727 H 590.768 6.25055 -6.55162 0
M  V30 13728 H 590.839 5.39798 -2.81523 0
M  V30 13729 P 588.897 4.23843 -7.83734 0
M  V30 13730 O 588.677 4.19407 -9.29784 0
M  V30 13731 O 588.107 5.24426 -7.09156 0
M  V30 13732 O 588.647 2.7935 -7.20758 0
M  V30 13733 C 589.587 1.7299 -7.50419 0
M  V30 13734 C 588.857 0.406376 -7.57911 0
M  V30 13735 O 588.647 -0.0897726 -6.21935 0
M  V30 13736 C 587.457 0.447224 -8.1878 0
M  V30 13737 O 587.067 -0.825065 -8.71101 0
M  V30 13738 C 586.577 0.783801 -6.99623 0
M  V30 13739 C 587.287 0.0619192 -5.85967 0
M  V30 13740 N 587.237 0.7859 -4.56281 0
M  V30 13741 H 590.076 1.93423 -8.4679 0
M  V30 13742 H 590.348 1.68181 -6.71046 0
M  V30 13743 H 589.48 -0.289041 -8.15388 0
M  V30 13744 P 585.517 -1.17771 -8.83182 0
M  V30 13745 O 585.297 -2.07206 -9.98732 0
M  V30 13746 O 584.727 0.0743816 -8.81969 0
M  V30 13747 O 585.267 -1.97652 -7.47304 0
M  V30 13748 C 586.207 -3.01133 -7.08783 0
M  V30 13749 C 585.477 -4.12613 -6.37049 0
M  V30 13750 O 585.267 -3.72827 -4.97879 0
M  V30 13751 C 584.077 -4.45085 -6.88694 0
M  V30 13752 O 583.687 -5.7877 -6.5624 0
M  V30 13753 C 583.197 -3.47817 -6.12078 0
M  V30 13754 C 583.907 -3.39414 -4.77697 0
M  V30 13755 N 583.857 -2.04199 -4.15538 0
M  V30 13756 H 586.696 -3.41248 -7.98759 0
M  V30 13757 H 586.968 -2.57728 -6.42 0
M  V30 13758 H 586.1 -5.02657 -6.42673 0
M  V30 13759 H 583.445 -4.11708 -4.08956 0
M  V30 13760 H 583.165 -2.49626 -6.61679 0
M  V30 13761 H 582.174 -3.8662 -6.00862 0
M  V30 13762 H 584.008 -4.29991 -7.97006 0
M  V30 13763 P 582.137 -6.144 -6.45285 0
M  V30 13764 O 581.917 -7.54673 -6.86199 0
M  V30 13765 O 581.347 -5.12391 -7.179 0
M  V30 13766 O 581.887 -5.99158 -4.88404 0
M  V30 13767 C 582.827 -6.60234 -3.96415 0
M  V30 13768 C 582.097 -7.08259 -2.72856 0
M  V30 13769 O 581.887 -5.9427 -1.83651 0
M  V30 13770 C 580.697 -7.64886 -2.9555 0
M  V30 13771 O 580.307 -8.53963 -1.90717 0
M  V30 13772 C 579.817 -6.4116 -2.90739 0
M  V30 13773 C 580.527 -5.55375 -1.86963 0
M  V30 13774 N 580.477 -4.09664 -2.15742 0
M  V30 13775 H 583.316 -7.45574 -4.45629 0
M  V30 13776 H 583.588 -5.86232 -3.67314 0
M  V30 13777 H 582.72 -7.84412 -2.24479 0
M  V30 13778 P 578.757 -8.7635 -1.60911 0
M  V30 13779 O 578.537 -10.1388 -1.11561 0
M  V30 13780 O 577.967 -8.36503 -2.79617 0
M  V30 13781 O 578.507 -7.71806 -0.42951 0
M  V30 13782 C 579.447 -7.67148 0.673689 0
M  V30 13783 C 578.717 -7.33374 1.95559 0
M  V30 13784 O 578.507 -5.88721 2.00726 0
M  V30 13785 C 577.317 -7.92526 2.10483 0
M  V30 13786 O 576.927 -8.02971 3.47653 0
M  V30 13787 C 576.437 -6.89602 1.41652 0
M  V30 13788 C 577.147 -5.59201 1.75185 0
M  V30 13789 N 577.097 -4.58301 0.657969 0
M  V30 13790 H 579.936 -8.65116 0.777161 0
M  V30 13791 H 580.208 -6.9022 0.46725 0
M  V30 13792 H 579.34 -7.66548 2.79458 0
M  V30 13793 H 576.685 -5.16165 2.65183 0
M  V30 13794 H 576.405 -7.06433 0.329384 0
M  V30 13795 H 575.414 -6.90926 1.82021 0
M  V30 13796 H 577.248 -8.90873 1.62657 0
M  V30 13797 P 575.377 -8.03563 3.84925 0
M  V30 13798 O 575.157 -8.85821 5.0569 0
M  V30 13799 O 574.587 -8.41101 2.65469 0
M  V30 13800 O 575.127 -6.49734 4.18962 0
M  V30 13801 C 576.067 -5.81037 5.05421 0
M  V30 13802 C 575.337 -4.79018 5.88876 0
M  V30 13803 O 575.127 -3.58359 5.08515 0
M  V30 13804 C 573.937 -5.17448 6.36119 0
M  V30 13805 O 573.547 -4.45322 7.53318 0
M  V30 13806 C 573.057 -4.74639 5.19936 0
M  V30 13807 C 573.767 -3.49432 4.70418 0
M  V30 13808 N 573.717 -3.31776 3.22945 0
M  V30 13809 C 573.567 -2.02742 2.72939 0
M  V30 13810 O 573.477 -1.08301 3.52749 0
M  V30 13811 N 573.517 -1.96117 1.22063 0
M  V30 13812 C 573.617 -2.8878 0.551566 0
M  V30 13813 N 573.567 -2.65609 -0.750198 0
M  V30 13814 C 573.767 -4.22457 1.03707 0
M  V30 13815 C 573.817 -4.37979 2.39113 0
M  V30 13816 H 576.557 -6.54138 5.7131 0
M  V30 13817 H 576.827 -5.30492 4.44033 0
M  V30 13818 H 575.96 -4.55945 6.76735 0
M  V30 13819 H 573.305 -2.6176 5.18021 0
M  V30 13820 H 573.025 -5.52233 4.41941 0
M  V30 13821 H 572.034 -4.52045 5.53452 0
M  V30 13822 H 573.868 -6.25124 6.55234 0
M  V30 13823 H 573.94 -5.37936 2.80552 0
M  V30 13824 H 573.838 -5.07528 0.359553 0
M  V30 13825 H 573.45 -1.69403 -1.09847 0
M  V30 13826 H 573.646 -3.43701 -1.41792 0
M  V30 13827 P 571.997 -4.23843 7.83734 0
M  V30 13828 O 571.777 -4.19407 9.29784 0
M  V30 13829 O 571.207 -5.24426 7.09156 0
M  V30 13830 O 571.747 -2.7935 7.20758 0
M  V30 13831 C 572.687 -1.7299 7.50419 0
M  V30 13832 C 571.957 -0.406376 7.57911 0
M  V30 13833 O 571.747 0.0897726 6.21935 0
M  V30 13834 C 570.557 -0.447224 8.1878 0
M  V30 13835 O 570.167 0.825065 8.71101 0
M  V30 13836 C 569.677 -0.783801 6.99623 0
M  V30 13837 C 570.387 -0.0619192 5.85967 0
M  V30 13838 N 570.337 -0.7859 4.56281 0
M  V30 13839 H 573.176 -1.93423 8.4679 0
M  V30 13840 H 573.448 -1.68181 6.71046 0
M  V30 13841 H 572.58 0.289041 8.15388 0
M  V30 13842 P 568.617 1.17771 8.83182 0
M  V30 13843 O 568.397 2.07206 9.98732 0
M  V30 13844 O 567.827 -0.0743816 8.81969 0
M  V30 13845 O 568.367 1.97652 7.47304 0
M  V30 13846 C 569.307 3.01055 7.08599 0
M  V30 13847 C 568.577 4.12613 6.37049 0
M  V30 13848 O 568.367 3.72827 4.97879 0
M  V30 13849 C 567.177 4.45719 6.88164 0
M  V30 13850 O 566.787 5.7877 6.5624 0
M  V30 13851 C 566.297 3.47768 6.11991 0
M  V30 13852 C 567.007 3.39356 4.77615 0
M  V30 13853 N 566.957 2.04571 4.15244 0
M  V30 13854 C 566.807 1.98587 2.78314 0
M  V30 13855 O 566.717 2.98134 2.08835 0
M  V30 13856 N 566.767 0.714467 2.24925 0
M  V30 13857 C 566.857 -0.470001 2.94169 0
M  V30 13858 O 566.807 -1.55587 2.35195 0
M  V30 13859 C 567.007 -0.312541 4.36783 0
M  V30 13860 C 567.117 -1.57711 5.16352 0
M  V30 13861 C 567.057 0.914512 4.92583 0
M  V30 13862 H 569.798 3.41169 7.98575 0
M  V30 13863 H 570.067 2.58295 6.41556 0
M  V30 13864 H 569.2 5.02657 6.42673 0
M  V30 13865 H 566.545 4.11637 4.08885 0
M  V30 13866 H 566.266 2.49626 6.61679 0
M  V30 13867 H 565.274 3.86566 6.00778 0
M  V30 13868 H 567.108 4.29943 7.96918 0
M  V30 13869 H 567.179 1.00937 6.00374 0
M  V30 13870 H 566.149 -1.80153 5.63503 0
M  V30 13871 H 567.886 -1.4566 5.94104 0
M  V30 13872 H 567.398 -2.40664 4.49645 0
M  V30 13873 H 566.662 0.647622 1.25697 0
M  V30 13874 P 565.237 6.144 6.45285 0
M  V30 13875 O 565.017 7.54673 6.86199 0
M  V30 13876 O 564.447 5.12391 7.179 0
M  V30 13877 O 564.987 5.99158 4.88404 0
M  V30 13878 C 565.927 6.60234 3.96415 0
M  V30 13879 C 565.197 7.08259 2.72856 0
M  V30 13880 O 564.987 5.9427 1.83651 0
M  V30 13881 C 563.797 7.64886 2.9555 0
M  V30 13882 O 563.407 8.53963 1.90717 0
M  V30 13883 C 562.917 6.4116 2.90739 0
M  V30 13884 C 563.627 5.55375 1.86963 0
M  V30 13885 N 563.577 4.09448 2.16152 0
M  V30 13886 H 566.416 7.45574 4.45629 0
M  V30 13887 H 566.688 5.85864 3.679 0
M  V30 13888 H 565.82 7.84412 2.24479 0
M  V30 13889 H 563.165 5.73457 0.888562 0
M  V30 13890 H 562.885 5.90877 3.88583 0
M  V30 13891 H 561.894 6.6596 2.58858 0
M  V30 13892 H 563.728 8.16339 3.92049 0
M  V30 13893 P 561.857 8.7635 1.60911 0
M  V30 13894 O 561.637 10.1388 1.11561 0
M  V30 13895 O 561.067 8.36503 2.79617 0
M  V30 13896 O 561.607 7.71806 0.42951 0
M  V30 13897 C 562.547 7.67148 -0.673689 0
M  V30 13898 C 561.817 7.33374 -1.95559 0
M  V30 13899 O 561.607 5.88721 -2.00726 0
M  V30 13900 C 560.417 7.92526 -2.10483 0
M  V30 13901 O 560.027 8.02971 -3.47653 0
M  V30 13902 C 559.537 6.89602 -1.41652 0
M  V30 13903 C 560.247 5.59201 -1.75185 0
M  V30 13904 N 560.197 4.58235 -0.662552 0
M  V30 13905 H 563.036 8.65116 -0.777161 0
M  V30 13906 H 563.308 6.90173 -0.474152 0
M  V30 13907 H 562.44 7.66548 -2.79458 0
M  V30 13908 P 558.477 8.03563 -3.84925 0
M  V30 13909 O 558.257 8.85821 -5.0569 0
M  V30 13910 O 557.687 8.41101 -2.65469 0
M  V30 13911 O 558.227 6.4965 -4.18908 0
M  V30 13912 C 559.167 5.80886 -5.05289 0
M  V30 13913 C 558.437 4.78366 -5.89277 0
M  V30 13914 O 558.227 3.58302 -5.08433 0
M  V30 13915 C 557.037 5.16748 -6.36559 0
M  V30 13916 O 556.647 4.45271 -7.53232 0
M  V30 13917 C 556.157 4.74572 -5.19863 0
M  V30 13918 C 556.867 3.49373 -4.70338 0
M  V30 13919 N 556.817 3.31704 -3.22876 0
M  V30 13920 C 556.667 2.03326 -2.74871 0
M  V30 13921 O 556.577 1.06486 -3.48076 0
M  V30 13922 N 556.627 1.91838 -1.37456 0
M  V30 13923 C 556.717 2.94295 -0.462035 0
M  V30 13924 O 556.667 2.71763 0.752928 0
M  V30 13925 C 556.867 4.25064 -1.05249 0
M  V30 13926 C 556.977 5.39815 -0.095697 0
M  V30 13927 C 556.917 4.40214 -2.39192 0
M  V30 13928 H 559.658 6.54063 -5.71245 0
M  V30 13929 H 559.927 5.30339 -4.43905 0
M  V30 13930 H 559.06 4.55889 -6.76652 0
M  V30 13931 H 556.405 2.6167 -5.17842 0
M  V30 13932 H 556.126 5.52155 -4.41878 0
M  V30 13933 H 555.134 4.51918 -5.53297 0
M  V30 13934 H 556.968 6.25055 -6.55162 0
M  V30 13935 H 557.039 5.39798 -2.81523 0
M  V30 13936 H 556.009 5.91593 -0.0279582 0
M  V30 13937 H 557.746 6.10038 -0.450573 0
M  V30 13938 H 557.258 5.02007 0.89937 0
M  V30 13939 H 556.522 0.995326 -1.00435 0
M  V30 13940 P 555.097 4.23843 -7.83734 0
M  V30 13941 O 554.877 4.19407 -9.29784 0
M  V30 13942 O 554.307 5.24426 -7.09156 0
M  V30 13943 O 554.847 2.7935 -7.20758 0
M  V30 13944 C 555.787 1.7299 -7.50419 0
M  V30 13945 C 555.057 0.406376 -7.57911 0
M  V30 13946 O 554.847 -0.0897726 -6.21935 0
M  V30 13947 C 553.657 0.447224 -8.1878 0
M  V30 13948 O 553.267 -0.825065 -8.71101 0
M  V30 13949 C 552.777 0.783801 -6.99623 0
M  V30 13950 C 553.487 0.0619192 -5.85967 0
M  V30 13951 N 553.437 0.7859 -4.56281 0
M  V30 13952 H 556.276 1.93423 -8.4679 0
M  V30 13953 H 556.548 1.68181 -6.71046 0
M  V30 13954 H 555.68 -0.289041 -8.15388 0
M  V30 13955 P 551.717 -1.17771 -8.83182 0
M  V30 13956 O 551.497 -2.07206 -9.98732 0
M  V30 13957 O 550.927 0.0743816 -8.81969 0
M  V30 13958 O 551.467 -1.97652 -7.47304 0
M  V30 13959 C 552.407 -3.01133 -7.08783 0
M  V30 13960 C 551.677 -4.12613 -6.37049 0
M  V30 13961 O 551.467 -3.72827 -4.97879 0
M  V30 13962 C 550.277 -4.45085 -6.88694 0
M  V30 13963 O 549.887 -5.7877 -6.5624 0
M  V30 13964 C 549.397 -3.47817 -6.12078 0
M  V30 13965 C 550.107 -3.39414 -4.77697 0
M  V30 13966 N 550.057 -2.04615 -4.15333 0
M  V30 13967 H 552.896 -3.41248 -7.98759 0
M  V30 13968 H 553.168 -2.5837 -6.41742 0
M  V30 13969 H 552.3 -5.02657 -6.42673 0
M  V30 13970 P 548.337 -6.144 -6.45285 0
M  V30 13971 O 548.117 -7.54673 -6.86199 0
M  V30 13972 O 547.547 -5.12391 -7.179 0
M  V30 13973 O 548.087 -5.99158 -4.88404 0
M  V30 13974 C 549.027 -6.60234 -3.96415 0
M  V30 13975 C 548.297 -7.08259 -2.72856 0
M  V30 13976 O 548.087 -5.9427 -1.83651 0
M  V30 13977 C 546.897 -7.64886 -2.9555 0
M  V30 13978 O 546.507 -8.53963 -1.90717 0
M  V30 13979 C 546.017 -6.4116 -2.90739 0
M  V30 13980 C 546.727 -5.55375 -1.86963 0
M  V30 13981 N 546.677 -4.09664 -2.15742 0
M  V30 13982 H 549.516 -7.45574 -4.45629 0
M  V30 13983 H 549.788 -5.86232 -3.67314 0
M  V30 13984 H 548.92 -7.84412 -2.24479 0
M  V30 13985 P 544.957 -8.7635 -1.60911 0
M  V30 13986 O 544.737 -10.1388 -1.11561 0
M  V30 13987 O 544.167 -8.36503 -2.79617 0
M  V30 13988 O 544.707 -7.71806 -0.42951 0
M  V30 13989 C 545.647 -7.67148 0.673689 0
M  V30 13990 C 544.917 -7.33374 1.95559 0
M  V30 13991 O 544.707 -5.88721 2.00726 0
M  V30 13992 C 543.517 -7.92526 2.10483 0
M  V30 13993 O 543.127 -8.02971 3.47653 0
M  V30 13994 C 542.637 -6.89602 1.41652 0
M  V30 13995 C 543.347 -5.59201 1.75185 0
M  V30 13996 N 543.297 -4.58301 0.657969 0
M  V30 13997 H 546.136 -8.65116 0.777161 0
M  V30 13998 H 546.408 -6.9022 0.46725 0
M  V30 13999 H 545.54 -7.66548 2.79458 0
M  V30 14000 H 542.885 -5.16165 2.65183 0
M  V30 14001 H 542.605 -7.06433 0.329384 0
M  V30 14002 H 541.614 -6.90926 1.82021 0
M  V30 14003 H 543.448 -8.90873 1.62657 0
M  V30 14004 P 541.577 -8.03563 3.84925 0
M  V30 14005 O 541.357 -8.85821 5.0569 0
M  V30 14006 O 540.787 -8.41101 2.65469 0
M  V30 14007 O 541.327 -6.4965 4.18908 0
M  V30 14008 C 542.267 -5.80886 5.05289 0
M  V30 14009 C 541.537 -4.78366 5.89277 0
M  V30 14010 O 541.327 -3.58302 5.08433 0
M  V30 14011 C 540.137 -5.16748 6.36559 0
M  V30 14012 O 539.747 -4.45271 7.53232 0
M  V30 14013 C 539.257 -4.74572 5.19863 0
M  V30 14014 C 539.967 -3.49373 4.70338 0
M  V30 14015 N 539.917 -3.31704 3.22876 0
M  V30 14016 C 539.767 -2.03326 2.74871 0
M  V30 14017 O 539.677 -1.06486 3.48076 0
M  V30 14018 N 539.727 -1.91838 1.37456 0
M  V30 14019 C 539.817 -2.94295 0.462035 0
M  V30 14020 O 539.767 -2.71763 -0.752928 0
M  V30 14021 C 539.967 -4.25064 1.05249 0
M  V30 14022 C 540.077 -5.39815 0.095697 0
M  V30 14023 C 540.017 -4.40214 2.39192 0
M  V30 14024 H 542.758 -6.54063 5.71245 0
M  V30 14025 H 543.027 -5.30339 4.43905 0
M  V30 14026 H 542.16 -4.55889 6.76652 0
M  V30 14027 H 539.505 -2.6167 5.17842 0
M  V30 14028 H 539.226 -5.52155 4.41878 0
M  V30 14029 H 538.234 -4.51918 5.53297 0
M  V30 14030 H 540.068 -6.25055 6.55162 0
M  V30 14031 H 540.139 -5.39798 2.81523 0
M  V30 14032 H 539.109 -5.91593 0.0279582 0
M  V30 14033 H 540.846 -6.10038 0.450573 0
M  V30 14034 H 540.358 -5.02007 -0.89937 0
M  V30 14035 H 539.622 -0.995326 1.00435 0
M  V30 14036 P 538.197 -4.23843 7.83734 0
M  V30 14037 O 537.977 -4.19407 9.29784 0
M  V30 14038 O 537.407 -5.24426 7.09156 0
M  V30 14039 O 537.947 -2.7935 7.20758 0
M  V30 14040 C 538.887 -1.7299 7.50419 0
M  V30 14041 C 538.157 -0.406376 7.57911 0
M  V30 14042 O 537.947 0.0897726 6.21935 0
M  V30 14043 C 536.757 -0.447224 8.1878 0
M  V30 14044 O 536.367 0.825065 8.71101 0
M  V30 14045 C 535.877 -0.783801 6.99623 0
M  V30 14046 C 536.587 -0.0619192 5.85967 0
M  V30 14047 N 536.537 -0.7859 4.56281 0
M  V30 14048 H 539.376 -1.93423 8.4679 0
M  V30 14049 H 539.648 -1.68181 6.71046 0
M  V30 14050 H 538.78 0.289041 8.15388 0
M  V30 14051 P 534.817 1.17771 8.83182 0
M  V30 14052 O 534.597 2.07206 9.98732 0
M  V30 14053 O 534.027 -0.0743816 8.81969 0
M  V30 14054 O 534.567 1.97652 7.47304 0
M  V30 14055 C 535.507 3.01133 7.08783 0
M  V30 14056 C 534.777 4.12613 6.37049 0
M  V30 14057 O 534.567 3.72827 4.97879 0
M  V30 14058 C 533.377 4.45085 6.88694 0
M  V30 14059 O 532.987 5.7877 6.5624 0
M  V30 14060 C 532.497 3.47817 6.12078 0
M  V30 14061 C 533.207 3.39414 4.77697 0
M  V30 14062 N 533.157 2.04615 4.15333 0
M  V30 14063 H 535.996 3.41248 7.98759 0
M  V30 14064 H 536.268 2.5837 6.41742 0
M  V30 14065 H 535.4 5.02657 6.42673 0
M  V30 14066 P 531.437 6.144 6.45285 0
M  V30 14067 O 531.217 7.54673 6.86199 0
M  V30 14068 O 530.647 5.12391 7.179 0
M  V30 14069 O 531.187 5.99158 4.88404 0
M  V30 14070 C 532.127 6.60234 3.96415 0
M  V30 14071 C 531.397 7.08259 2.72856 0
M  V30 14072 O 531.187 5.9427 1.83651 0
M  V30 14073 C 529.997 7.64886 2.9555 0
M  V30 14074 O 529.607 8.53963 1.90717 0
M  V30 14075 C 529.117 6.4116 2.90739 0
M  V30 14076 C 529.827 5.55375 1.86963 0
M  V30 14077 N 529.777 4.09664 2.15742 0
M  V30 14078 H 532.616 7.45574 4.45629 0
M  V30 14079 H 532.888 5.86232 3.67314 0
M  V30 14080 H 532.02 7.84412 2.24479 0
M  V30 14081 P 528.057 8.7635 1.60911 0
M  V30 14082 O 527.837 10.1388 1.11561 0
M  V30 14083 O 527.267 8.36503 2.79617 0
M  V30 14084 O 527.807 7.71806 0.42951 0
M  V30 14085 C 528.747 7.67148 -0.673689 0
M  V30 14086 C 528.017 7.33374 -1.95559 0
M  V30 14087 O 527.807 5.88721 -2.00726 0
M  V30 14088 C 526.617 7.92526 -2.10483 0
M  V30 14089 O 526.227 8.02971 -3.47653 0
M  V30 14090 C 525.737 6.89602 -1.41652 0
M  V30 14091 C 526.447 5.59201 -1.75185 0
M  V30 14092 N 526.397 4.58235 -0.662552 0
M  V30 14093 H 529.236 8.65116 -0.777161 0
M  V30 14094 H 529.508 6.90173 -0.474152 0
M  V30 14095 H 528.64 7.66548 -2.79458 0
M  V30 14096 P 524.677 8.03563 -3.84925 0
M  V30 14097 O 524.457 8.85821 -5.0569 0
M  V30 14098 O 523.887 8.41101 -2.65469 0
M  V30 14099 O 524.427 6.4965 -4.18908 0
M  V30 14100 C 525.367 5.80886 -5.05289 0
M  V30 14101 C 524.637 4.78366 -5.89277 0
M  V30 14102 O 524.427 3.58302 -5.08433 0
M  V30 14103 C 523.237 5.16748 -6.36559 0
M  V30 14104 O 522.847 4.45271 -7.53232 0
M  V30 14105 C 522.357 4.74572 -5.19863 0
M  V30 14106 C 523.067 3.49373 -4.70338 0
M  V30 14107 N 523.017 3.31704 -3.22876 0
M  V30 14108 C 522.867 2.03326 -2.74871 0
M  V30 14109 O 522.777 1.06486 -3.48076 0
M  V30 14110 N 522.827 1.91838 -1.37456 0
M  V30 14111 C 522.917 2.94295 -0.462035 0
M  V30 14112 O 522.867 2.71763 0.752928 0
M  V30 14113 C 523.067 4.25064 -1.05249 0
M  V30 14114 C 523.177 5.39815 -0.095697 0
M  V30 14115 C 523.117 4.40214 -2.39192 0
M  V30 14116 H 525.858 6.54063 -5.71245 0
M  V30 14117 H 526.127 5.30339 -4.43905 0
M  V30 14118 H 525.26 4.55889 -6.76652 0
M  V30 14119 H 522.605 2.6167 -5.17842 0
M  V30 14120 H 522.326 5.52155 -4.41878 0
M  V30 14121 H 521.334 4.51918 -5.53297 0
M  V30 14122 H 523.168 6.25055 -6.55162 0
M  V30 14123 H 523.239 5.39798 -2.81523 0
M  V30 14124 H 522.209 5.91593 -0.0279582 0
M  V30 14125 H 523.946 6.10038 -0.450573 0
M  V30 14126 H 523.458 5.02007 0.89937 0
M  V30 14127 H 522.722 0.995326 -1.00435 0
M  V30 14128 P 521.297 4.23843 -7.83734 0
M  V30 14129 O 521.077 4.19407 -9.29784 0
M  V30 14130 O 520.507 5.24426 -7.09156 0
M  V30 14131 O 521.047 2.7935 -7.20758 0
M  V30 14132 C 521.987 1.7299 -7.50419 0
M  V30 14133 C 521.257 0.406376 -7.57911 0
M  V30 14134 O 521.047 -0.0897726 -6.21935 0
M  V30 14135 C 519.857 0.447224 -8.1878 0
M  V30 14136 O 519.467 -0.825065 -8.71101 0
M  V30 14137 C 518.977 0.783801 -6.99623 0
M  V30 14138 C 519.687 0.0619192 -5.85967 0
M  V30 14139 N 519.637 0.7859 -4.56281 0
M  V30 14140 H 522.476 1.93423 -8.4679 0
M  V30 14141 H 522.748 1.68181 -6.71046 0
M  V30 14142 H 521.88 -0.289041 -8.15388 0
M  V30 14143 P 517.917 -1.17771 -8.83182 0
M  V30 14144 O 517.697 -2.07206 -9.98732 0
M  V30 14145 O 517.127 0.0743816 -8.81969 0
M  V30 14146 O 517.667 -1.97678 -7.474 0
M  V30 14147 C 518.607 -3.01133 -7.08783 0
M  V30 14148 C 517.877 -4.1203 -6.37546 0
M  V30 14149 O 517.667 -3.72887 -4.9796 0
M  V30 14150 C 516.477 -4.45085 -6.88694 0
M  V30 14151 O 516.087 -5.78836 -6.56315 0
M  V30 14152 C 515.597 -3.47817 -6.12078 0
M  V30 14153 C 516.307 -3.39414 -4.77697 0
M  V30 14154 N 516.257 -2.04615 -4.15333 0
M  V30 14155 C 516.107 -1.96929 -2.77162 0
M  V30 14156 O 516.017 -3.02017 -2.12006 0
M  V30 14157 N 516.057 -0.55485 -2.24237 0
M  V30 14158 C 516.157 0.367808 -2.9169 0
M  V30 14159 N 516.107 1.53426 -2.29427 0
M  V30 14160 C 516.307 0.319148 -4.33828 0
M  V30 14161 C 516.357 -0.920672 -4.90433 0
M  V30 14162 H 519.097 -3.41209 -7.98667 0
M  V30 14163 H 519.367 -2.5837 -6.41742 0
M  V30 14164 H 518.5 -5.02718 -6.42752 0
M  V30 14165 H 515.845 -4.11779 -4.09026 0
M  V30 14166 H 515.565 -2.49661 -6.61772 0
M  V30 14167 H 514.574 -3.86674 -6.00946 0
M  V30 14168 H 516.408 -4.29991 -7.97006 0
M  V30 14169 H 516.48 -1.00589 -5.98303 0
M  V30 14170 H 516.378 1.22639 -4.93799 0
M  V30 14171 H 515.99 1.56819 -1.27167 0
M  V30 14172 H 516.186 2.41062 -2.83063 0
M  V30 14173 P 514.537 -6.144 -6.45285 0
M  V30 14174 O 514.317 -7.54673 -6.86199 0
M  V30 14175 O 513.747 -5.12391 -7.179 0
M  V30 14176 O 514.287 -5.99158 -4.88404 0
M  V30 14177 C 515.227 -6.60234 -3.96415 0
M  V30 14178 C 514.497 -7.08259 -2.72856 0
M  V30 14179 O 514.287 -5.9427 -1.83651 0
M  V30 14180 C 513.097 -7.64886 -2.9555 0
M  V30 14181 O 512.707 -8.53963 -1.90717 0
M  V30 14182 C 512.217 -6.4116 -2.90739 0
M  V30 14183 C 512.927 -5.55375 -1.86963 0
M  V30 14184 N 512.877 -4.09448 -2.16152 0
M  V30 14185 C 512.957 -3.46824 -3.37593 0
M  V30 14186 N 512.887 -2.17422 -3.29777 0
M  V30 14187 C 512.737 -1.93065 -1.94427 0
M  V30 14188 C 512.607 -0.738053 -1.20141 0
M  V30 14189 N 512.597 0.474256 -1.74676 0
M  V30 14190 N 512.487 -0.850049 0.13045 0
M  V30 14191 C 512.497 -2.06169 0.676992 0
M  V30 14192 N 512.617 -3.23842 0.101312 0
M  V30 14193 C 512.737 -3.09402 -1.23122 0
M  V30 14194 H 515.716 -7.45574 -4.45629 0
M  V30 14195 H 515.988 -5.85864 -3.679 0
M  V30 14196 H 515.12 -7.84412 -2.24479 0
M  V30 14197 H 512.465 -5.73457 -0.888562 0
M  V30 14198 H 512.185 -5.90877 -3.88583 0
M  V30 14199 H 511.194 -6.6596 -2.58858 0
M  V30 14200 H 513.028 -8.16339 -3.92049 0
M  V30 14201 H 513.069 -4.00505 -4.3174 0
M  V30 14202 H 512.688 0.581337 -2.76658 0
M  V30 14203 H 512.499 1.30811 -1.14888 0
M  V30 14204 H 512.391 -2.08295 1.75542 0
M  V30 14205 P 511.157 -8.7635 -1.60911 0
M  V30 14206 O 510.937 -10.1388 -1.11561 0
M  V30 14207 O 510.367 -8.36503 -2.79617 0
M  V30 14208 O 510.907 -7.71806 -0.42951 0
M  V30 14209 C 511.847 -7.67148 0.673689 0
M  V30 14210 C 511.117 -7.33374 1.95559 0
M  V30 14211 O 510.907 -5.88721 2.00726 0
M  V30 14212 C 509.717 -7.92526 2.10483 0
M  V30 14213 O 509.327 -8.02971 3.47653 0
M  V30 14214 C 508.837 -6.89602 1.41652 0
M  V30 14215 C 509.547 -5.59201 1.75185 0
M  V30 14216 N 509.497 -4.58235 0.662552 0
M  V30 14217 H 512.336 -8.65116 0.777161 0
M  V30 14218 H 512.608 -6.90173 0.474152 0
M  V30 14219 H 511.74 -7.66548 2.79458 0
M  V30 14220 P 507.777 -8.03563 3.84925 0
M  V30 14221 O 507.557 -8.85821 5.0569 0
M  V30 14222 O 506.987 -8.41101 2.65469 0
M  V30 14223 O 507.527 -6.4965 4.18908 0
M  V30 14224 C 508.467 -5.81037 5.05421 0
M  V30 14225 C 507.737 -4.78366 5.89277 0
M  V30 14226 O 507.527 -3.58302 5.08433 0
M  V30 14227 C 506.337 -5.17448 6.36119 0
M  V30 14228 O 505.947 -4.45271 7.53232 0
M  V30 14229 C 505.457 -4.74639 5.19936 0
M  V30 14230 C 506.167 -3.49432 4.70418 0
M  V30 14231 N 506.117 -3.32099 3.22613 0
M  V30 14232 H 508.956 -6.54213 5.71376 0
M  V30 14233 H 509.228 -5.30936 4.43503 0
M  V30 14234 H 508.36 -4.55889 6.76652 0
M  V30 14235 H 505.705 -2.61715 5.17932 0
M  V30 14236 H 505.425 -5.52155 4.41878 0
M  V30 14237 H 504.434 -4.51981 5.53374 0
M  V30 14238 H 506.268 -6.25124 6.55234 0
M  V30 14239 P 504.397 -4.23843 7.83734 0
M  V30 14240 O 504.177 -4.19407 9.29784 0
M  V30 14241 O 503.607 -5.24426 7.09156 0
M  V30 14242 O 504.147 -2.79386 7.20852 0
M  V30 14243 C 505.087 -1.7299 7.50419 0
M  V30 14244 C 504.357 -0.41401 7.5797 0
M  V30 14245 O 504.147 0.089787 6.22035 0
M  V30 14246 C 502.957 -0.447224 8.1878 0
M  V30 14247 O 502.567 0.825159 8.71201 0
M  V30 14248 C 502.077 -0.783801 6.99623 0
M  V30 14249 C 502.787 -0.0619192 5.85967 0
M  V30 14250 N 502.737 -0.7859 4.56281 0
M  V30 14251 C 502.587 -0.0359258 3.39981 0
M  V30 14252 O 502.497 1.19723 3.49038 0
M  V30 14253 N 502.537 -0.869151 2.14025 0
M  V30 14254 C 502.637 -2.01207 2.14363 0
M  V30 14255 N 502.587 -2.58978 0.954287 0
M  V30 14256 C 502.787 -2.80817 3.32215 0
M  V30 14257 C 502.837 -2.13785 4.50884 0
M  V30 14258 H 505.577 -1.93401 8.46693 0
M  V30 14259 H 505.847 -1.68181 6.71046 0
M  V30 14260 H 504.98 0.289076 8.15488 0
M  V30 14261 H 502.325 0.927166 5.72947 0
M  V30 14262 H 502.045 -1.87 6.82132 0
M  V30 14263 H 501.054 -0.404009 7.13457 0
M  V30 14264 H 502.888 -1.20599 8.97534 0
M  V30 14265 H 502.96 -2.70295 5.43162 0
M  V30 14266 H 502.858 -3.89465 3.27406 0
M  V30 14267 H 502.47 -2.01616 0.107046 0
M  V30 14268 H 502.666 -3.61403 0.873101 0
M  V30 14269 P 501.017 1.17771 8.83182 0
M  V30 14270 O 500.797 2.07206 9.98732 0
M  V30 14271 O 500.227 -0.0743816 8.81969 0
M  V30 14272 O 500.767 1.97652 7.47304 0
M  V30 14273 C 501.707 3.01133 7.08783 0
M  V30 14274 C 500.977 4.12613 6.37049 0
M  V30 14275 O 500.767 3.72827 4.97879 0
M  V30 14276 C 499.577 4.45085 6.88694 0
M  V30 14277 O 499.187 5.7877 6.5624 0
M  V30 14278 C 498.697 3.47817 6.12078 0
M  V30 14279 C 499.407 3.39414 4.77697 0
M  V30 14280 N 499.357 2.04615 4.15333 0
M  V30 14281 H 502.196 3.41248 7.98759 0
M  V30 14282 H 502.468 2.5837 6.41742 0
M  V30 14283 H 501.6 5.02657 6.42673 0
M  V30 14284 P 497.637 6.144 6.45285 0
M  V30 14285 O 497.417 7.54673 6.86199 0
M  V30 14286 O 496.847 5.12391 7.179 0
M  V30 14287 O 497.387 5.99158 4.88404 0
M  V30 14288 C 498.327 6.60234 3.96415 0
M  V30 14289 C 497.597 7.08259 2.72856 0
M  V30 14290 O 497.387 5.9427 1.83651 0
M  V30 14291 C 496.197 7.64886 2.9555 0
M  V30 14292 O 495.807 8.53963 1.90717 0
M  V30 14293 C 495.317 6.4116 2.90739 0
M  V30 14294 C 496.027 5.55375 1.86963 0
M  V30 14295 N 495.977 4.09664 2.15742 0
M  V30 14296 H 498.816 7.45574 4.45629 0
M  V30 14297 H 499.088 5.86232 3.67314 0
M  V30 14298 H 498.22 7.84412 2.24479 0
M  V30 14299 P 494.257 8.7635 1.60911 0
M  V30 14300 O 494.037 10.1388 1.11561 0
M  V30 14301 O 493.467 8.36503 2.79617 0
M  V30 14302 O 494.007 7.71806 0.42951 0
M  V30 14303 C 494.947 7.67148 -0.673689 0
M  V30 14304 C 494.217 7.33374 -1.95559 0
M  V30 14305 O 494.007 5.88721 -2.00726 0
M  V30 14306 C 492.817 7.92526 -2.10483 0
M  V30 14307 O 492.427 8.02971 -3.47653 0
M  V30 14308 C 491.937 6.89602 -1.41652 0
M  V30 14309 C 492.647 5.59201 -1.75185 0
M  V30 14310 N 492.597 4.58301 -0.657969 0
M  V30 14311 H 495.436 8.65116 -0.777161 0
M  V30 14312 H 495.708 6.9022 -0.46725 0
M  V30 14313 H 494.84 7.66548 -2.79458 0
M  V30 14314 H 492.185 5.16165 -2.65183 0
M  V30 14315 H 491.905 7.06433 -0.329384 0
M  V30 14316 H 490.914 6.90926 -1.82021 0
M  V30 14317 H 492.748 8.90873 -1.62657 0
M  V30 14318 P 490.877 8.03563 -3.84925 0
M  V30 14319 O 490.657 8.85821 -5.0569 0
M  V30 14320 O 490.087 8.41101 -2.65469 0
M  V30 14321 O 490.627 6.4965 -4.18908 0
M  V30 14322 C 491.567 5.81037 -5.05421 0
M  V30 14323 C 490.837 4.78366 -5.89277 0
M  V30 14324 O 490.627 3.58302 -5.08433 0
M  V30 14325 C 489.437 5.17448 -6.36119 0
M  V30 14326 O 489.047 4.45271 -7.53232 0
M  V30 14327 C 488.557 4.74639 -5.19936 0
M  V30 14328 C 489.267 3.49432 -4.70418 0
M  V30 14329 N 489.217 3.31776 -3.22945 0
M  V30 14330 H 492.056 6.54213 -5.71376 0
M  V30 14331 H 492.328 5.30492 -4.44033 0
M  V30 14332 H 491.46 4.55889 -6.76652 0
M  V30 14333 P 487.497 4.23843 -7.83734 0
M  V30 14334 O 487.277 4.19407 -9.29784 0
M  V30 14335 O 486.707 5.24426 -7.09156 0
M  V30 14336 O 487.247 2.7935 -7.20758 0
M  V30 14337 C 488.187 1.7299 -7.50419 0
M  V30 14338 C 487.457 0.406376 -7.57911 0
M  V30 14339 O 487.247 -0.0897726 -6.21935 0
M  V30 14340 C 486.057 0.447224 -8.1878 0
M  V30 14341 O 485.667 -0.825065 -8.71101 0
M  V30 14342 C 485.177 0.783801 -6.99623 0
M  V30 14343 C 485.887 0.0619192 -5.85967 0
M  V30 14344 N 485.837 0.7859 -4.56281 0
M  V30 14345 H 488.676 1.93423 -8.4679 0
M  V30 14346 H 488.948 1.68181 -6.71046 0
M  V30 14347 H 488.08 -0.289041 -8.15388 0
M  V30 14348 P 484.117 -1.17771 -8.83182 0
M  V30 14349 O 483.897 -2.07206 -9.98732 0
M  V30 14350 O 483.327 0.0743816 -8.81969 0
M  V30 14351 O 483.867 -1.97652 -7.47304 0
M  V30 14352 C 484.807 -3.01133 -7.08783 0
M  V30 14353 C 484.077 -4.12613 -6.37049 0
M  V30 14354 O 483.867 -3.72827 -4.97879 0
M  V30 14355 C 482.677 -4.45085 -6.88694 0
M  V30 14356 O 482.287 -5.7877 -6.5624 0
M  V30 14357 C 481.797 -3.47817 -6.12078 0
M  V30 14358 C 482.507 -3.39414 -4.77697 0
M  V30 14359 N 482.457 -2.04615 -4.15333 0
M  V30 14360 H 485.296 -3.41248 -7.98759 0
M  V30 14361 H 485.568 -2.5837 -6.41742 0
M  V30 14362 H 484.7 -5.02657 -6.42673 0
M  V30 14363 P 480.737 -6.144 -6.45285 0
M  V30 14364 O 480.517 -7.54673 -6.86199 0
M  V30 14365 O 479.947 -5.12391 -7.179 0
M  V30 14366 O 480.487 -5.99158 -4.88404 0
M  V30 14367 C 481.427 -6.60234 -3.96415 0
M  V30 14368 C 480.697 -7.08259 -2.72856 0
M  V30 14369 O 480.487 -5.9427 -1.83651 0
M  V30 14370 C 479.297 -7.64886 -2.9555 0
M  V30 14371 O 478.907 -8.53963 -1.90717 0
M  V30 14372 C 478.417 -6.4116 -2.90739 0
M  V30 14373 C 479.127 -5.55375 -1.86963 0
M  V30 14374 N 479.077 -4.09448 -2.16152 0
M  V30 14375 C 479.157 -3.46824 -3.37593 0
M  V30 14376 N 479.087 -2.17422 -3.29777 0
M  V30 14377 C 478.937 -1.93065 -1.94427 0
M  V30 14378 C 478.807 -0.738053 -1.20141 0
M  V30 14379 N 478.797 0.474256 -1.74676 0
M  V30 14380 N 478.687 -0.850049 0.13045 0
M  V30 14381 C 478.697 -2.06169 0.676992 0
M  V30 14382 N 478.817 -3.23842 0.101312 0
M  V30 14383 C 478.937 -3.09402 -1.23122 0
M  V30 14384 H 481.916 -7.45574 -4.45629 0
M  V30 14385 H 482.188 -5.85864 -3.679 0
M  V30 14386 H 481.32 -7.84412 -2.24479 0
M  V30 14387 H 478.665 -5.73457 -0.888562 0
M  V30 14388 H 478.385 -5.90877 -3.88583 0
M  V30 14389 H 477.394 -6.6596 -2.58858 0
M  V30 14390 H 479.228 -8.16339 -3.92049 0
M  V30 14391 H 479.269 -4.00505 -4.3174 0
M  V30 14392 H 478.888 0.581337 -2.76658 0
M  V30 14393 H 478.699 1.30811 -1.14888 0
M  V30 14394 H 478.591 -2.08295 1.75542 0
M  V30 14395 P 477.357 -8.7635 -1.60911 0
M  V30 14396 O 477.137 -10.1388 -1.11561 0
M  V30 14397 O 476.567 -8.36503 -2.79617 0
M  V30 14398 O 477.107 -7.71806 -0.42951 0
M  V30 14399 C 478.047 -7.67148 0.673689 0
M  V30 14400 C 477.317 -7.33374 1.95559 0
M  V30 14401 O 477.107 -5.88721 2.00726 0
M  V30 14402 C 475.917 -7.92526 2.10483 0
M  V30 14403 O 475.527 -8.02971 3.47653 0
M  V30 14404 C 475.037 -6.89602 1.41652 0
M  V30 14405 C 475.747 -5.59201 1.75185 0
M  V30 14406 N 475.697 -4.58235 0.662552 0
M  V30 14407 H 478.536 -8.65116 0.777161 0
M  V30 14408 H 478.808 -6.90173 0.474152 0
M  V30 14409 H 477.94 -7.66548 2.79458 0
M  V30 14410 P 473.977 -8.03563 3.84925 0
M  V30 14411 O 473.757 -8.85821 5.0569 0
M  V30 14412 O 473.187 -8.41101 2.65469 0
M  V30 14413 O 473.727 -6.49734 4.18962 0
M  V30 14414 C 474.667 -5.81037 5.05421 0
M  V30 14415 C 473.937 -4.79018 5.88876 0
M  V30 14416 O 473.727 -3.58359 5.08515 0
M  V30 14417 C 472.537 -5.17448 6.36119 0
M  V30 14418 O 472.147 -4.45322 7.53318 0
M  V30 14419 C 471.657 -4.74639 5.19936 0
M  V30 14420 C 472.367 -3.49432 4.70418 0
M  V30 14421 N 472.317 -3.31776 3.22945 0
M  V30 14422 C 472.167 -2.02742 2.72939 0
M  V30 14423 O 472.077 -1.08301 3.52749 0
M  V30 14424 N 472.117 -1.96117 1.22063 0
M  V30 14425 C 472.217 -2.8878 0.551566 0
M  V30 14426 N 472.167 -2.65609 -0.750198 0
M  V30 14427 C 472.367 -4.22457 1.03707 0
M  V30 14428 C 472.417 -4.37979 2.39113 0
M  V30 14429 H 475.157 -6.54138 5.7131 0
M  V30 14430 H 475.427 -5.30492 4.44033 0
M  V30 14431 H 474.56 -4.55945 6.76735 0
M  V30 14432 H 471.905 -2.6176 5.18021 0
M  V30 14433 H 471.625 -5.52233 4.41941 0
M  V30 14434 H 470.634 -4.52045 5.53452 0
M  V30 14435 H 472.468 -6.25124 6.55234 0
M  V30 14436 H 472.54 -5.37936 2.80552 0
M  V30 14437 H 472.438 -5.07528 0.359553 0
M  V30 14438 H 472.05 -1.69403 -1.09847 0
M  V30 14439 H 472.246 -3.43701 -1.41792 0
M  V30 14440 P 470.597 -4.23843 7.83734 0
M  V30 14441 O 470.377 -4.19407 9.29784 0
M  V30 14442 O 469.807 -5.24426 7.09156 0
M  V30 14443 O 470.347 -2.7935 7.20758 0
M  V30 14444 C 471.287 -1.7299 7.50419 0
M  V30 14445 C 470.557 -0.406376 7.57911 0
M  V30 14446 O 470.347 0.0897726 6.21935 0
M  V30 14447 C 469.157 -0.447224 8.1878 0
M  V30 14448 O 468.767 0.825065 8.71101 0
M  V30 14449 C 468.277 -0.783801 6.99623 0
M  V30 14450 C 468.987 -0.0619192 5.85967 0
M  V30 14451 N 468.937 -0.7859 4.56281 0
M  V30 14452 H 471.776 -1.93423 8.4679 0
M  V30 14453 H 472.048 -1.68181 6.71046 0
M  V30 14454 H 471.18 0.289041 8.15388 0
M  V30 14455 P 467.217 1.17771 8.83182 0
M  V30 14456 O 466.997 2.07206 9.98732 0
M  V30 14457 O 466.427 -0.0743816 8.81969 0
M  V30 14458 O 466.967 1.97652 7.47304 0
M  V30 14459 C 467.907 3.01133 7.08783 0
M  V30 14460 C 467.177 4.12613 6.37049 0
M  V30 14461 O 466.967 3.72827 4.97879 0
M  V30 14462 C 465.777 4.45085 6.88694 0
M  V30 14463 O 465.387 5.7877 6.5624 0
M  V30 14464 C 464.897 3.47817 6.12078 0
M  V30 14465 C 465.607 3.39414 4.77697 0
M  V30 14466 N 465.557 2.04615 4.15333 0
M  V30 14467 H 468.396 3.41248 7.98759 0
M  V30 14468 H 468.668 2.5837 6.41742 0
M  V30 14469 H 467.8 5.02657 6.42673 0
M  V30 14470 P 463.837 6.144 6.45285 0
M  V30 14471 O 463.617 7.54673 6.86199 0
M  V30 14472 O 463.047 5.12391 7.179 0
M  V30 14473 O 463.587 5.99158 4.88404 0
M  V30 14474 C 464.527 6.60234 3.96415 0
M  V30 14475 C 463.797 7.08259 2.72856 0
M  V30 14476 O 463.587 5.9427 1.83651 0
M  V30 14477 C 462.397 7.64886 2.9555 0
M  V30 14478 O 462.007 8.53963 1.90717 0
M  V30 14479 C 461.517 6.4116 2.90739 0
M  V30 14480 C 462.227 5.55375 1.86963 0
M  V30 14481 N 462.177 4.09664 2.15742 0
M  V30 14482 H 465.016 7.45574 4.45629 0
M  V30 14483 H 465.288 5.86232 3.67314 0
M  V30 14484 H 464.42 7.84412 2.24479 0
M  V30 14485 P 460.457 8.7635 1.60911 0
M  V30 14486 O 460.237 10.1388 1.11561 0
M  V30 14487 O 459.667 8.36503 2.79617 0
M  V30 14488 O 460.207 7.71806 0.42951 0
M  V30 14489 C 461.147 7.67148 -0.673689 0
M  V30 14490 C 460.417 7.33374 -1.95559 0
M  V30 14491 O 460.207 5.88721 -2.00726 0
M  V30 14492 C 459.017 7.92526 -2.10483 0
M  V30 14493 O 458.627 8.02971 -3.47653 0
M  V30 14494 C 458.137 6.89602 -1.41652 0
M  V30 14495 C 458.847 5.59201 -1.75185 0
M  V30 14496 N 458.797 4.58235 -0.662552 0
M  V30 14497 H 461.636 8.65116 -0.777161 0
M  V30 14498 H 461.908 6.90173 -0.474152 0
M  V30 14499 H 461.04 7.66548 -2.79458 0
M  V30 14500 P 457.077 8.03563 -3.84925 0
M  V30 14501 O 456.857 8.85821 -5.0569 0
M  V30 14502 O 456.287 8.41101 -2.65469 0
M  V30 14503 O 456.827 6.4965 -4.18908 0
M  V30 14504 C 457.767 5.81037 -5.05421 0
M  V30 14505 C 457.037 4.78366 -5.89277 0
M  V30 14506 O 456.827 3.58302 -5.08433 0
M  V30 14507 C 455.637 5.17448 -6.36119 0
M  V30 14508 O 455.247 4.45271 -7.53232 0
M  V30 14509 C 454.757 4.74639 -5.19936 0
M  V30 14510 C 455.467 3.49432 -4.70418 0
M  V30 14511 N 455.417 3.31776 -3.22945 0
M  V30 14512 H 458.256 6.54213 -5.71376 0
M  V30 14513 H 458.528 5.30492 -4.44033 0
M  V30 14514 H 457.66 4.55889 -6.76652 0
M  V30 14515 P 453.697 4.23843 -7.83734 0
M  V30 14516 O 453.477 4.19407 -9.29784 0
M  V30 14517 O 452.907 5.24426 -7.09156 0
M  V30 14518 O 453.447 2.7935 -7.20758 0
M  V30 14519 C 454.387 1.7299 -7.50419 0
M  V30 14520 C 453.657 0.406376 -7.57911 0
M  V30 14521 O 453.447 -0.0897726 -6.21935 0
M  V30 14522 C 452.257 0.447224 -8.1878 0
M  V30 14523 O 451.867 -0.825065 -8.71101 0
M  V30 14524 C 451.377 0.783801 -6.99623 0
M  V30 14525 C 452.087 0.0619192 -5.85967 0
M  V30 14526 N 452.037 0.7859 -4.56281 0
M  V30 14527 H 454.876 1.93423 -8.4679 0
M  V30 14528 H 455.148 1.68181 -6.71046 0
M  V30 14529 H 454.28 -0.289041 -8.15388 0
M  V30 14530 P 450.317 -1.17771 -8.83182 0
M  V30 14531 O 450.097 -2.07206 -9.98732 0
M  V30 14532 O 449.527 0.0743816 -8.81969 0
M  V30 14533 O 450.067 -1.97678 -7.474 0
M  V30 14534 C 451.007 -3.01133 -7.08783 0
M  V30 14535 C 450.277 -4.1203 -6.37546 0
M  V30 14536 O 450.067 -3.72887 -4.9796 0
M  V30 14537 C 448.877 -4.45085 -6.88694 0
M  V30 14538 O 448.487 -5.78836 -6.56315 0
M  V30 14539 C 447.997 -3.47817 -6.12078 0
M  V30 14540 C 448.707 -3.39414 -4.77697 0
M  V30 14541 N 448.657 -2.04615 -4.15333 0
M  V30 14542 C 448.507 -1.96929 -2.77162 0
M  V30 14543 O 448.417 -3.02017 -2.12006 0
M  V30 14544 N 448.457 -0.55485 -2.24237 0
M  V30 14545 C 448.557 0.367808 -2.9169 0
M  V30 14546 N 448.507 1.53426 -2.29427 0
M  V30 14547 C 448.707 0.319148 -4.33828 0
M  V30 14548 C 448.757 -0.920672 -4.90433 0
M  V30 14549 H 451.497 -3.41209 -7.98667 0
M  V30 14550 H 451.767 -2.5837 -6.41742 0
M  V30 14551 H 450.9 -5.02718 -6.42752 0
M  V30 14552 H 448.245 -4.11779 -4.09026 0
M  V30 14553 H 447.965 -2.49661 -6.61772 0
M  V30 14554 H 446.974 -3.86674 -6.00946 0
M  V30 14555 H 448.808 -4.29991 -7.97006 0
M  V30 14556 H 448.88 -1.00589 -5.98303 0
M  V30 14557 H 448.778 1.22639 -4.93799 0
M  V30 14558 H 448.39 1.56819 -1.27167 0
M  V30 14559 H 448.586 2.41062 -2.83063 0
M  V30 14560 P 446.937 -6.144 -6.45285 0
M  V30 14561 O 446.717 -7.54673 -6.86199 0
M  V30 14562 O 446.147 -5.12391 -7.179 0
M  V30 14563 O 446.687 -5.99158 -4.88404 0
M  V30 14564 C 447.627 -6.60234 -3.96415 0
M  V30 14565 C 446.897 -7.08259 -2.72856 0
M  V30 14566 O 446.687 -5.9427 -1.83651 0
M  V30 14567 C 445.497 -7.64886 -2.9555 0
M  V30 14568 O 445.107 -8.53963 -1.90717 0
M  V30 14569 C 444.617 -6.4116 -2.90739 0
M  V30 14570 C 445.327 -5.55375 -1.86963 0
M  V30 14571 N 445.277 -4.09448 -2.16152 0
M  V30 14572 H 448.116 -7.45574 -4.45629 0
M  V30 14573 H 448.388 -5.85864 -3.679 0
M  V30 14574 H 447.52 -7.84412 -2.24479 0
M  V30 14575 H 444.865 -5.73457 -0.888562 0
M  V30 14576 H 444.585 -5.90877 -3.88583 0
M  V30 14577 H 443.594 -6.6596 -2.58858 0
M  V30 14578 H 445.428 -8.16339 -3.92049 0
M  V30 14579 P 443.557 -8.7635 -1.60911 0
M  V30 14580 O 443.337 -10.1388 -1.11561 0
M  V30 14581 O 442.767 -8.36503 -2.79617 0
M  V30 14582 O 443.307 -7.71806 -0.42951 0
M  V30 14583 C 444.247 -7.67148 0.673689 0
M  V30 14584 C 443.517 -7.33374 1.95559 0
M  V30 14585 O 443.307 -5.88721 2.00726 0
M  V30 14586 C 442.117 -7.92526 2.10483 0
M  V30 14587 O 441.727 -8.02971 3.47653 0
M  V30 14588 C 441.237 -6.89602 1.41652 0
M  V30 14589 C 441.947 -5.59201 1.75185 0
M  V30 14590 N 441.897 -4.58235 0.662552 0
M  V30 14591 H 444.736 -8.65116 0.777161 0
M  V30 14592 H 445.008 -6.90173 0.474152 0
M  V30 14593 H 444.14 -7.66548 2.79458 0
M  V30 14594 P 440.177 -8.03563 3.84925 0
M  V30 14595 O 439.957 -8.85821 5.0569 0
M  V30 14596 O 439.387 -8.41101 2.65469 0
M  V30 14597 O 439.927 -6.4965 4.18908 0
M  V30 14598 C 440.867 -5.81037 5.05421 0
M  V30 14599 C 440.137 -4.78366 5.89277 0
M  V30 14600 O 439.927 -3.58302 5.08433 0
M  V30 14601 C 438.737 -5.17448 6.36119 0
M  V30 14602 O 438.347 -4.45271 7.53232 0
M  V30 14603 C 437.857 -4.74639 5.19936 0
M  V30 14604 C 438.567 -3.49432 4.70418 0
M  V30 14605 N 438.517 -3.31776 3.22945 0
M  V30 14606 H 441.356 -6.54213 5.71376 0
M  V30 14607 H 441.628 -5.30492 4.44033 0
M  V30 14608 H 440.76 -4.55889 6.76652 0
M  V30 14609 P 436.797 -4.23843 7.83734 0
M  V30 14610 O 436.577 -4.19407 9.29784 0
M  V30 14611 O 436.007 -5.24426 7.09156 0
M  V30 14612 O 436.547 -2.7935 7.20758 0
M  V30 14613 C 437.487 -1.7299 7.50419 0
M  V30 14614 C 436.757 -0.406376 7.57911 0
M  V30 14615 O 436.547 0.0897726 6.21935 0
M  V30 14616 C 435.357 -0.447224 8.1878 0
M  V30 14617 O 434.967 0.825065 8.71101 0
M  V30 14618 C 434.477 -0.783801 6.99623 0
M  V30 14619 C 435.187 -0.0619192 5.85967 0
M  V30 14620 N 435.137 -0.7859 4.56281 0
M  V30 14621 H 437.976 -1.93423 8.4679 0
M  V30 14622 H 438.248 -1.68181 6.71046 0
M  V30 14623 H 437.38 0.289041 8.15388 0
M  V30 14624 P 433.417 1.17771 8.83182 0
M  V30 14625 O 433.197 2.07206 9.98732 0
M  V30 14626 O 432.627 -0.0743816 8.81969 0
M  V30 14627 O 433.167 1.97652 7.47304 0
M  V30 14628 C 434.107 3.01133 7.08783 0
M  V30 14629 C 433.377 4.12613 6.37049 0
M  V30 14630 O 433.167 3.72827 4.97879 0
M  V30 14631 C 431.977 4.45085 6.88694 0
M  V30 14632 O 431.587 5.7877 6.5624 0
M  V30 14633 C 431.097 3.47817 6.12078 0
M  V30 14634 C 431.807 3.39414 4.77697 0
M  V30 14635 N 431.757 2.04615 4.15333 0
M  V30 14636 H 434.596 3.41248 7.98759 0
M  V30 14637 H 434.868 2.5837 6.41742 0
M  V30 14638 H 434 5.02657 6.42673 0
M  V30 14639 P 430.037 6.144 6.45285 0
M  V30 14640 O 429.817 7.54673 6.86199 0
M  V30 14641 O 429.247 5.12391 7.179 0
M  V30 14642 O 429.787 5.99158 4.88404 0
M  V30 14643 C 430.727 6.60234 3.96415 0
M  V30 14644 C 429.997 7.08259 2.72856 0
M  V30 14645 O 429.787 5.9427 1.83651 0
M  V30 14646 C 428.597 7.64886 2.9555 0
M  V30 14647 O 428.207 8.53963 1.90717 0
M  V30 14648 C 427.717 6.4116 2.90739 0
M  V30 14649 C 428.427 5.55375 1.86963 0
M  V30 14650 N 428.377 4.09664 2.15742 0
M  V30 14651 H 431.216 7.45574 4.45629 0
M  V30 14652 H 431.488 5.86232 3.67314 0
M  V30 14653 H 430.62 7.84412 2.24479 0
M  V30 14654 P 426.657 8.7635 1.60911 0
M  V30 14655 O 426.437 10.1388 1.11561 0
M  V30 14656 O 425.867 8.36503 2.79617 0
M  V30 14657 O 426.407 7.71806 0.42951 0
M  V30 14658 C 427.347 7.67148 -0.673689 0
M  V30 14659 C 426.617 7.33374 -1.95559 0
M  V30 14660 O 426.407 5.88721 -2.00726 0
M  V30 14661 C 425.217 7.92526 -2.10483 0
M  V30 14662 O 424.827 8.02971 -3.47653 0
M  V30 14663 C 424.337 6.89602 -1.41652 0
M  V30 14664 C 425.047 5.59201 -1.75185 0
M  V30 14665 N 424.997 4.58235 -0.662552 0
M  V30 14666 H 427.836 8.65116 -0.777161 0
M  V30 14667 H 428.108 6.90173 -0.474152 0
M  V30 14668 H 427.24 7.66548 -2.79458 0
M  V30 14669 P 423.278 8.03563 -3.84925 0
M  V30 14670 O 423.058 8.85821 -5.0569 0
M  V30 14671 O 422.488 8.41101 -2.65469 0
M  V30 14672 O 423.028 6.4965 -4.18908 0
M  V30 14673 C 423.968 5.81037 -5.05421 0
M  V30 14674 C 423.238 4.78366 -5.89277 0
M  V30 14675 O 423.028 3.58302 -5.08433 0
M  V30 14676 C 421.838 5.17448 -6.36119 0
M  V30 14677 O 421.448 4.45271 -7.53232 0
M  V30 14678 C 420.958 4.74639 -5.19936 0
M  V30 14679 C 421.668 3.49432 -4.70418 0
M  V30 14680 N 421.618 3.31776 -3.22945 0
M  V30 14681 H 424.457 6.54213 -5.71376 0
M  V30 14682 H 424.729 5.30492 -4.44033 0
M  V30 14683 H 423.861 4.55889 -6.76652 0
M  V30 14684 P 419.898 4.23843 -7.83734 0
M  V30 14685 O 419.678 4.19407 -9.29784 0
M  V30 14686 O 419.108 5.24426 -7.09156 0
M  V30 14687 O 419.648 2.7935 -7.20758 0
M  V30 14688 C 420.588 1.7299 -7.50419 0
M  V30 14689 C 419.858 0.406376 -7.57911 0
M  V30 14690 O 419.648 -0.0897726 -6.21935 0
M  V30 14691 C 418.458 0.447224 -8.1878 0
M  V30 14692 O 418.068 -0.825065 -8.71101 0
M  V30 14693 C 417.578 0.783801 -6.99623 0
M  V30 14694 C 418.288 0.0619192 -5.85967 0
M  V30 14695 N 418.238 0.790462 -4.56202 0
M  V30 14696 H 421.077 1.93423 -8.4679 0
M  V30 14697 H 421.349 1.68852 -6.70877 0
M  V30 14698 H 420.481 -0.289041 -8.15388 0
M  V30 14699 H 417.826 -0.927006 -5.72848 0
M  V30 14700 H 417.546 1.86973 -6.82036 0
M  V30 14701 H 416.555 0.403953 -7.13357 0
M  V30 14702 H 418.389 1.20599 -8.97534 0
M  V30 14703 P 416.518 -1.17771 -8.83182 0
M  V30 14704 O 416.298 -2.07206 -9.98732 0
M  V30 14705 O 415.728 0.0743816 -8.81969 0
M  V30 14706 O 416.268 -1.97652 -7.47304 0
M  V30 14707 C 417.208 -3.01133 -7.08783 0
M  V30 14708 C 416.478 -4.12613 -6.37049 0
M  V30 14709 O 416.268 -3.72827 -4.97879 0
M  V30 14710 C 415.078 -4.45085 -6.88694 0
M  V30 14711 O 414.688 -5.7877 -6.5624 0
M  V30 14712 C 414.198 -3.47817 -6.12078 0
M  V30 14713 C 414.908 -3.39414 -4.77697 0
M  V30 14714 N 414.858 -2.04199 -4.15538 0
M  V30 14715 C 414.938 -0.821545 -4.76977 0
M  V30 14716 N 414.868 0.1794 -3.94592 0
M  V30 14717 C 414.718 -0.419121 -2.70776 0
M  V30 14718 C 414.588 0.109072 -1.40577 0
M  V30 14719 N 414.578 1.4104 -1.1344 0
M  V30 14720 N 414.468 -0.764381 -0.39411 0
M  V30 14721 C 414.478 -2.06587 -0.664135 0
M  V30 14722 N 414.598 -2.67948 -1.82153 0
M  V30 14723 C 414.718 -1.77942 -2.8147 0
M  V30 14724 H 417.697 -3.41248 -7.98759 0
M  V30 14725 H 417.969 -2.57728 -6.42 0
M  V30 14726 H 417.101 -5.02657 -6.42673 0
M  V30 14727 H 414.446 -4.11708 -4.08956 0
M  V30 14728 H 414.166 -2.49626 -6.61679 0
M  V30 14729 H 413.175 -3.8662 -6.00862 0
M  V30 14730 H 415.009 -4.29991 -7.97006 0
M  V30 14731 H 415.05 -0.702451 -5.84696 0
M  V30 14732 H 414.669 2.09647 -1.89651 0
M  V30 14733 H 414.48 1.73358 -0.160575 0
M  V30 14734 H 414.372 -2.71695 0.195838 0
M  V30 14735 P 413.138 -6.144 -6.45285 0
M  V30 14736 O 412.918 -7.54673 -6.86199 0
M  V30 14737 O 412.348 -5.12391 -7.179 0
M  V30 14738 O 412.888 -5.99158 -4.88404 0
M  V30 14739 C 413.828 -6.60234 -3.96415 0
M  V30 14740 C 413.098 -7.08259 -2.72856 0
M  V30 14741 O 412.888 -5.9427 -1.83651 0
M  V30 14742 C 411.698 -7.64886 -2.9555 0
M  V30 14743 O 411.308 -8.53963 -1.90717 0
M  V30 14744 C 410.818 -6.4116 -2.90739 0
M  V30 14745 C 411.528 -5.55375 -1.86963 0
M  V30 14746 N 411.478 -4.09664 -2.15742 0
M  V30 14747 C 411.558 -3.44381 -3.37233 0
M  V30 14748 N 411.478 -2.14131 -3.28347 0
M  V30 14749 C 411.338 -1.90247 -1.91588 0
M  V30 14750 C 411.208 -0.683992 -1.20892 0
M  V30 14751 O 411.188 0.46618 -1.64523 0
M  V30 14752 N 411.088 -0.903396 0.173998 0
M  V30 14753 C 411.088 -2.14171 0.784879 0
M  V30 14754 N 410.958 -2.1435 2.11317 0
M  V30 14755 N 411.218 -3.28784 0.119316 0
M  V30 14756 C 411.338 -3.0977 -1.22194 0
M  V30 14757 H 414.317 -7.45574 -4.45629 0
M  V30 14758 H 414.589 -5.86232 -3.67314 0
M  V30 14759 H 413.721 -7.84412 -2.24479 0
M  V30 14760 H 411.066 -5.73556 -0.888715 0
M  V30 14761 H 410.786 -5.9096 -3.88638 0
M  V30 14762 H 409.795 -6.66053 -2.58894 0
M  V30 14763 H 411.629 -8.16429 -3.92093 0
M  V30 14764 H 411.678 -3.96785 -4.32043 0
M  V30 14765 H 410.996 -0.0999567 0.761467 0
M  V30 14766 H 410.959 -3.03436 2.63076 0
M  V30 14767 H 410.858 -1.25228 2.62233 0
M  V30 14768 P 409.758 -8.7635 -1.60911 0
M  V30 14769 O 409.538 -10.1388 -1.11561 0
M  V30 14770 O 408.968 -8.36503 -2.79617 0
M  V30 14771 O 409.508 -7.71906 -0.429565 0
M  V30 14772 C 410.448 -7.67148 0.673689 0
M  V30 14773 C 409.718 -7.33666 1.94851 0
M  V30 14774 O 409.508 -5.88816 2.00759 0
M  V30 14775 C 408.318 -7.92526 2.10483 0
M  V30 14776 O 407.928 -8.03063 3.47693 0
M  V30 14777 C 407.438 -6.89602 1.41652 0
M  V30 14778 C 408.148 -5.59201 1.75185 0
M  V30 14779 N 408.098 -4.58235 0.662552 0
M  V30 14780 C 407.948 -3.24451 1.01643 0
M  V30 14781 O 407.858 -2.94958 2.21722 0
M  V30 14782 N 407.898 -2.30408 -0.165238 0
M  V30 14783 C 407.998 -2.66048 -1.25118 0
M  V30 14784 N 407.948 -1.70787 -2.16813 0
M  V30 14785 C 408.148 -4.02732 -1.64413 0
M  V30 14786 C 408.198 -4.9488 -0.63991 0
M  V30 14787 H 410.938 -8.65017 0.777072 0
M  V30 14788 H 411.208 -6.90173 0.474152 0
M  V30 14789 H 410.341 -7.66642 2.79492 0
M  V30 14790 H 407.686 -5.16254 2.65229 0
M  V30 14791 H 407.406 -7.06532 0.329431 0
M  V30 14792 H 406.415 -6.91023 1.82047 0
M  V30 14793 H 408.249 -8.90873 1.62657 0
M  V30 14794 H 408.321 -6.00104 -0.892197 0
M  V30 14795 H 408.219 -4.31733 -2.69229 0
M  V30 14796 H 407.831 -0.724835 -1.8844 0
M  V30 14797 H 408.027 -1.94716 -3.16734 0
M  V30 14798 P 406.378 -8.03563 3.84925 0
M  V30 14799 O 406.158 -8.85821 5.0569 0
M  V30 14800 O 405.588 -8.41101 2.65469 0
M  V30 14801 O 406.128 -6.4965 4.18908 0
M  V30 14802 C 407.068 -5.81037 5.05421 0
M  V30 14803 C 406.338 -4.78366 5.89277 0
M  V30 14804 O 406.128 -3.58302 5.08433 0
M  V30 14805 C 404.938 -5.17448 6.36119 0
M  V30 14806 O 404.548 -4.45271 7.53232 0
M  V30 14807 C 404.058 -4.74639 5.19936 0
M  V30 14808 C 404.768 -3.49432 4.70418 0
M  V30 14809 N 404.718 -3.31776 3.22945 0
M  V30 14810 H 407.557 -6.54213 5.71376 0
M  V30 14811 H 407.829 -5.30492 4.44033 0
M  V30 14812 H 406.961 -4.55889 6.76652 0
M  V30 14813 P 402.998 -4.23843 7.83734 0
M  V30 14814 O 402.778 -4.19407 9.29784 0
M  V30 14815 O 402.208 -5.24426 7.09156 0
M  V30 14816 O 402.748 -2.7935 7.20758 0
M  V30 14817 C 403.688 -1.7299 7.50419 0
M  V30 14818 C 402.958 -0.406376 7.57911 0
M  V30 14819 O 402.748 0.0897726 6.21935 0
M  V30 14820 C 401.558 -0.447224 8.1878 0
M  V30 14821 O 401.168 0.825065 8.71101 0
M  V30 14822 C 400.678 -0.783801 6.99623 0
M  V30 14823 C 401.388 -0.0619192 5.85967 0
M  V30 14824 N 401.338 -0.7859 4.56281 0
M  V30 14825 H 404.177 -1.93423 8.4679 0
M  V30 14826 H 404.449 -1.68181 6.71046 0
M  V30 14827 H 403.581 0.289041 8.15388 0
M  V30 14828 P 399.618 1.17771 8.83182 0
M  V30 14829 O 399.398 2.07206 9.98732 0
M  V30 14830 O 398.828 -0.0743816 8.81969 0
M  V30 14831 O 399.368 1.97652 7.47304 0
M  V30 14832 C 400.308 3.01133 7.08783 0
M  V30 14833 C 399.578 4.12613 6.37049 0
M  V30 14834 O 399.368 3.72827 4.97879 0
M  V30 14835 C 398.178 4.45085 6.88694 0
M  V30 14836 O 397.788 5.7877 6.5624 0
M  V30 14837 C 397.298 3.47817 6.12078 0
M  V30 14838 C 398.008 3.39414 4.77697 0
M  V30 14839 N 397.958 2.04615 4.15333 0
M  V30 14840 H 400.797 3.41248 7.98759 0
M  V30 14841 H 401.069 2.5837 6.41742 0
M  V30 14842 H 400.201 5.02657 6.42673 0
M  V30 14843 P 396.238 6.144 6.45285 0
M  V30 14844 O 396.018 7.54673 6.86199 0
M  V30 14845 O 395.448 5.12391 7.179 0
M  V30 14846 O 395.988 5.99236 4.88467 0
M  V30 14847 C 396.928 6.60234 3.96415 0
M  V30 14848 C 396.198 7.08079 2.736 0
M  V30 14849 O 395.988 5.94365 1.8368 0
M  V30 14850 C 394.798 7.64886 2.9555 0
M  V30 14851 O 394.408 8.5406 1.90739 0
M  V30 14852 C 393.918 6.4116 2.90739 0
M  V30 14853 C 394.628 5.55375 1.86963 0
M  V30 14854 N 394.578 4.09664 2.15742 0
M  V30 14855 C 394.428 3.22231 1.08477 0
M  V30 14856 O 394.338 3.68951 -0.0600489 0
M  V30 14857 N 394.378 1.76692 1.48799 0
M  V30 14858 C 394.478 1.41695 2.57602 0
M  V30 14859 N 394.428 0.107296 2.75791 0
M  V30 14860 C 394.628 2.29178 3.69733 0
M  V30 14861 C 394.678 3.62753 3.42653 0
M  V30 14862 H 397.418 7.45488 4.45578 0
M  V30 14863 H 397.688 5.86232 3.67314 0
M  V30 14864 H 396.821 7.84508 2.24507 0
M  V30 14865 H 394.166 5.73556 0.888715 0
M  V30 14866 H 393.886 5.9096 3.88638 0
M  V30 14867 H 392.895 6.66053 2.58894 0
M  V30 14868 H 394.729 8.16339 3.92049 0
M  V30 14869 H 394.801 4.33052 4.24913 0
M  V30 14870 H 394.699 1.9103 4.71577 0
M  V30 14871 H 394.311 -0.521221 1.95056 0
M  V30 14872 H 394.507 -0.286429 3.70695 0
M  V30 14873 P 392.858 8.7635 1.60911 0
M  V30 14874 O 392.638 10.1388 1.11561 0
M  V30 14875 O 392.068 8.36503 2.79617 0
M  V30 14876 O 392.608 7.71806 0.42951 0
M  V30 14877 C 393.548 7.66948 -0.673514 0
M  V30 14878 C 392.818 7.33374 -1.95559 0
M  V30 14879 O 392.608 5.88721 -2.00726 0
M  V30 14880 C 391.418 7.92218 -2.1125 0
M  V30 14881 O 391.028 8.02971 -3.47653 0
M  V30 14882 C 390.538 6.89504 -1.41631 0
M  V30 14883 C 391.248 5.59106 -1.75155 0
M  V30 14884 N 391.198 4.58136 -0.662409 0
M  V30 14885 C 391.048 3.26059 -1.02863 0
M  V30 14886 O 390.958 2.90743 -2.19009 0
M  V30 14887 N 391.008 2.35995 0.0155585 0
M  V30 14888 C 391.098 2.65248 1.35603 0
M  V30 14889 C 391.248 4.05747 1.64698 0
M  V30 14890 C 391.298 4.96734 0.652411 0
M  V30 14891 H 394.039 8.64917 -0.776982 0
M  V30 14892 H 394.308 6.89974 -0.474015 0
M  V30 14893 H 393.441 7.66548 -2.79458 0
M  V30 14894 H 390.786 5.16076 -2.65138 0
M  V30 14895 H 390.507 7.06433 -0.329384 0
M  V30 14896 H 389.515 6.90829 -1.81996 0
M  V30 14897 H 391.349 8.90774 -1.62639 0
M  V30 14898 H 391.42 6.02181 0.895285 0
M  V30 14899 P 389.478 8.03563 -3.84925 0
M  V30 14900 O 389.258 8.85821 -5.0569 0
M  V30 14901 O 388.688 8.41101 -2.65469 0
M  V30 14902 O 389.228 6.4965 -4.18908 0
M  V30 14903 C 390.168 5.81037 -5.05421 0
M  V30 14904 C 389.438 4.78366 -5.89277 0
M  V30 14905 O 389.228 3.58302 -5.08433 0
M  V30 14906 C 388.038 5.17448 -6.36119 0
M  V30 14907 O 387.648 4.45271 -7.53232 0
M  V30 14908 C 387.158 4.74639 -5.19936 0
M  V30 14909 C 387.868 3.49432 -4.70418 0
M  V30 14910 N 387.818 3.31776 -3.22945 0
M  V30 14911 H 390.657 6.54213 -5.71376 0
M  V30 14912 H 390.929 5.30492 -4.44033 0
M  V30 14913 H 390.061 4.55889 -6.76652 0
M  V30 14914 P 386.098 4.23843 -7.83734 0
M  V30 14915 O 385.878 4.19407 -9.29784 0
M  V30 14916 O 385.308 5.24426 -7.09156 0
M  V30 14917 O 385.848 2.7935 -7.20758 0
M  V30 14918 C 386.788 1.72945 -7.50224 0
M  V30 14919 C 386.058 0.406376 -7.57911 0
M  V30 14920 O 385.848 -0.0897726 -6.21935 0
M  V30 14921 C 384.658 0.438983 -8.18724 0
M  V30 14922 O 384.268 -0.825065 -8.71101 0
M  V30 14923 C 383.778 0.783689 -6.99524 0
M  V30 14924 C 384.488 0.0619086 -5.85867 0
M  V30 14925 N 384.438 0.78573 -4.56183 0
M  V30 14926 C 384.288 0.0292889 -3.41887 0
M  V30 14927 O 384.198 -1.18445 -3.4419 0
M  V30 14928 N 384.248 0.744061 -2.23964 0
M  V30 14929 C 384.338 2.10932 -2.10362 0
M  V30 14930 C 384.488 2.8202 -3.34994 0
M  V30 14931 C 384.538 2.15547 -4.52261 0
M  V30 14932 H 387.279 1.93379 -8.46595 0
M  V30 14933 H 387.548 1.68132 -6.70852 0
M  V30 14934 H 386.681 -0.289041 -8.15388 0
M  V30 14935 H 384.026 -0.926847 -5.72749 0
M  V30 14936 H 383.747 1.86973 -6.82036 0
M  V30 14937 H 382.755 0.403896 -7.13257 0
M  V30 14938 H 384.589 1.20585 -8.97435 0
M  V30 14939 H 384.66 2.71231 -5.45042 0
M  V30 14940 P 382.718 -1.17771 -8.83182 0
M  V30 14941 O 382.498 -2.07206 -9.98732 0
M  V30 14942 O 381.928 0.0743816 -8.81969 0
M  V30 14943 O 382.468 -1.97652 -7.47304 0
M  V30 14944 C 383.408 -3.01133 -7.08783 0
M  V30 14945 C 382.678 -4.12613 -6.37049 0
M  V30 14946 O 382.468 -3.72827 -4.97879 0
M  V30 14947 C 381.278 -4.45085 -6.88694 0
M  V30 14948 O 380.888 -5.7877 -6.5624 0
M  V30 14949 C 380.398 -3.47817 -6.12078 0
M  V30 14950 C 381.108 -3.39414 -4.77697 0
M  V30 14951 N 381.058 -2.04615 -4.15333 0
M  V30 14952 H 383.897 -3.41248 -7.98759 0
M  V30 14953 H 384.169 -2.5837 -6.41742 0
M  V30 14954 H 383.301 -5.02657 -6.42673 0
M  V30 14955 P 379.338 -6.144 -6.45285 0
M  V30 14956 O 379.118 -7.54673 -6.86199 0
M  V30 14957 O 378.548 -5.12391 -7.179 0
M  V30 14958 O 379.088 -5.99158 -4.88404 0
M  V30 14959 C 380.028 -6.60234 -3.96415 0
M  V30 14960 C 379.298 -7.08259 -2.72856 0
M  V30 14961 O 379.088 -5.9427 -1.83651 0
M  V30 14962 C 377.898 -7.64886 -2.9555 0
M  V30 14963 O 377.508 -8.53963 -1.90717 0
M  V30 14964 C 377.018 -6.4116 -2.90739 0
M  V30 14965 C 377.728 -5.55375 -1.86963 0
M  V30 14966 N 377.678 -4.09664 -2.15742 0
M  V30 14967 H 380.517 -7.45574 -4.45629 0
M  V30 14968 H 380.789 -5.86232 -3.67314 0
M  V30 14969 H 379.921 -7.84412 -2.24479 0
M  V30 14970 P 375.958 -8.7635 -1.60911 0
M  V30 14971 O 375.738 -10.1388 -1.11561 0
M  V30 14972 O 375.168 -8.36503 -2.79617 0
M  V30 14973 O 375.708 -7.71906 -0.429565 0
M  V30 14974 C 376.648 -7.67148 0.673689 0
M  V30 14975 C 375.918 -7.33666 1.94851 0
M  V30 14976 O 375.708 -5.88816 2.00759 0
M  V30 14977 C 374.518 -7.92526 2.10483 0
M  V30 14978 O 374.128 -8.03063 3.47693 0
M  V30 14979 C 373.638 -6.89602 1.41652 0
M  V30 14980 C 374.348 -5.59201 1.75185 0
M  V30 14981 N 374.298 -4.58235 0.662552 0
M  V30 14982 C 374.148 -3.24451 1.01643 0
M  V30 14983 O 374.058 -2.94958 2.21722 0
M  V30 14984 N 374.098 -2.30408 -0.165238 0
M  V30 14985 C 374.198 -2.66048 -1.25118 0
M  V30 14986 N 374.148 -1.70787 -2.16813 0
M  V30 14987 C 374.348 -4.02732 -1.64413 0
M  V30 14988 C 374.398 -4.9488 -0.63991 0
M  V30 14989 H 377.138 -8.65017 0.777072 0
M  V30 14990 H 377.408 -6.90173 0.474152 0
M  V30 14991 H 376.541 -7.66642 2.79492 0
M  V30 14992 H 373.886 -5.16254 2.65229 0
M  V30 14993 H 373.606 -7.06532 0.329431 0
M  V30 14994 H 372.615 -6.91023 1.82047 0
M  V30 14995 H 374.449 -8.90873 1.62657 0
M  V30 14996 H 374.521 -6.00104 -0.892197 0
M  V30 14997 H 374.419 -4.31733 -2.69229 0
M  V30 14998 H 374.031 -0.724835 -1.8844 0
M  V30 14999 H 374.227 -1.94716 -3.16734 0
M  V30 15000 P 372.578 -8.03563 3.84925 0
M  V30 15001 O 372.358 -8.85821 5.0569 0
M  V30 15002 O 371.788 -8.41101 2.65469 0
M  V30 15003 O 372.328 -6.4965 4.18908 0
M  V30 15004 C 373.268 -5.81037 5.05421 0
M  V30 15005 C 372.538 -4.78366 5.89277 0
M  V30 15006 O 372.328 -3.58302 5.08433 0
M  V30 15007 C 371.138 -5.17448 6.36119 0
M  V30 15008 O 370.748 -4.45271 7.53232 0
M  V30 15009 C 370.258 -4.74639 5.19936 0
M  V30 15010 C 370.968 -3.49432 4.70418 0
M  V30 15011 N 370.918 -3.32099 3.22613 0
M  V30 15012 H 373.757 -6.54213 5.71376 0
M  V30 15013 H 374.029 -5.30936 4.43503 0
M  V30 15014 H 373.161 -4.55889 6.76652 0
M  V30 15015 H 370.506 -2.61715 5.17932 0
M  V30 15016 H 370.226 -5.52155 4.41878 0
M  V30 15017 H 369.235 -4.51981 5.53374 0
M  V30 15018 H 371.069 -6.25124 6.55234 0
M  V30 15019 P 369.198 -4.23843 7.83734 0
M  V30 15020 O 368.978 -4.19407 9.29784 0
M  V30 15021 O 368.408 -5.24426 7.09156 0
M  V30 15022 O 368.948 -2.7935 7.20758 0
M  V30 15023 C 369.888 -1.7299 7.50419 0
M  V30 15024 C 369.158 -0.406376 7.57911 0
M  V30 15025 O 368.948 0.0897726 6.21935 0
M  V30 15026 C 367.758 -0.447224 8.1878 0
M  V30 15027 O 367.368 0.825065 8.71101 0
M  V30 15028 C 366.878 -0.783801 6.99623 0
M  V30 15029 C 367.588 -0.0619192 5.85967 0
M  V30 15030 N 367.538 -0.7859 4.56281 0
M  V30 15031 H 370.377 -1.93423 8.4679 0
M  V30 15032 H 370.649 -1.68181 6.71046 0
M  V30 15033 H 369.781 0.289041 8.15388 0
M  V30 15034 P 365.818 1.17771 8.83182 0
M  V30 15035 O 365.598 2.07206 9.98732 0
M  V30 15036 O 365.028 -0.0743816 8.81969 0
M  V30 15037 O 365.568 1.97652 7.47304 0
M  V30 15038 C 366.508 3.01055 7.08599 0
M  V30 15039 C 365.778 4.12613 6.37049 0
M  V30 15040 O 365.568 3.72827 4.97879 0
M  V30 15041 C 364.378 4.45719 6.88164 0
M  V30 15042 O 363.988 5.7877 6.5624 0
M  V30 15043 C 363.498 3.47768 6.11991 0
M  V30 15044 C 364.208 3.39356 4.77615 0
M  V30 15045 N 364.158 2.04571 4.15244 0
M  V30 15046 C 364.008 1.98587 2.78314 0
M  V30 15047 O 363.918 2.98134 2.08835 0
M  V30 15048 N 363.968 0.714467 2.24925 0
M  V30 15049 C 364.058 -0.470001 2.94169 0
M  V30 15050 O 364.008 -1.55587 2.35195 0
M  V30 15051 C 364.208 -0.312541 4.36783 0
M  V30 15052 C 364.318 -1.57711 5.16352 0
M  V30 15053 C 364.258 0.914512 4.92583 0
M  V30 15054 H 366.999 3.41169 7.98575 0
M  V30 15055 H 367.268 2.58295 6.41556 0
M  V30 15056 H 366.401 5.02657 6.42673 0
M  V30 15057 H 363.746 4.11637 4.08885 0
M  V30 15058 H 363.467 2.49626 6.61679 0
M  V30 15059 H 362.475 3.86566 6.00778 0
M  V30 15060 H 364.309 4.29943 7.96918 0
M  V30 15061 H 364.38 1.00937 6.00374 0
M  V30 15062 H 363.35 -1.80153 5.63503 0
M  V30 15063 H 365.087 -1.4566 5.94104 0
M  V30 15064 H 364.599 -2.40664 4.49645 0
M  V30 15065 H 363.863 0.647622 1.25697 0
M  V30 15066 P 362.438 6.144 6.45285 0
M  V30 15067 O 362.218 7.54673 6.86199 0
M  V30 15068 O 361.648 5.12391 7.179 0
M  V30 15069 O 362.188 5.99158 4.88404 0
M  V30 15070 C 363.128 6.60234 3.96415 0
M  V30 15071 C 362.398 7.08259 2.72856 0
M  V30 15072 O 362.188 5.9427 1.83651 0
M  V30 15073 C 360.998 7.64886 2.9555 0
M  V30 15074 O 360.608 8.53963 1.90717 0
M  V30 15075 C 360.118 6.4116 2.90739 0
M  V30 15076 C 360.828 5.55375 1.86963 0
M  V30 15077 N 360.778 4.09448 2.16152 0
M  V30 15078 H 363.617 7.45574 4.45629 0
M  V30 15079 H 363.889 5.85864 3.679 0
M  V30 15080 H 363.021 7.84412 2.24479 0
M  V30 15081 H 360.366 5.73457 0.888562 0
M  V30 15082 H 360.086 5.90877 3.88583 0
M  V30 15083 H 359.095 6.6596 2.58858 0
M  V30 15084 H 360.929 8.16339 3.92049 0
M  V30 15085 P 359.058 8.7635 1.60911 0
M  V30 15086 O 358.838 10.1388 1.11561 0
M  V30 15087 O 358.268 8.36503 2.79617 0
M  V30 15088 O 358.808 7.71806 0.42951 0
M  V30 15089 C 359.748 7.67148 -0.673689 0
M  V30 15090 C 359.018 7.33374 -1.95559 0
M  V30 15091 O 358.808 5.88721 -2.00726 0
M  V30 15092 C 357.618 7.92526 -2.10483 0
M  V30 15093 O 357.228 8.02971 -3.47653 0
M  V30 15094 C 356.738 6.89602 -1.41652 0
M  V30 15095 C 357.448 5.59201 -1.75185 0
M  V30 15096 N 357.398 4.58301 -0.657969 0
M  V30 15097 H 360.237 8.65116 -0.777161 0
M  V30 15098 H 360.509 6.9022 -0.46725 0
M  V30 15099 H 359.641 7.66548 -2.79458 0
M  V30 15100 H 356.986 5.16165 -2.65183 0
M  V30 15101 H 356.706 7.06433 -0.329384 0
M  V30 15102 H 355.715 6.90926 -1.82021 0
M  V30 15103 H 357.549 8.90873 -1.62657 0
M  V30 15104 P 355.678 8.03563 -3.84925 0
M  V30 15105 O 355.458 8.85821 -5.0569 0
M  V30 15106 O 354.888 8.41101 -2.65469 0
M  V30 15107 O 355.428 6.4965 -4.18908 0
M  V30 15108 C 356.368 5.80886 -5.05289 0
M  V30 15109 C 355.638 4.78366 -5.89277 0
M  V30 15110 O 355.428 3.58302 -5.08433 0
M  V30 15111 C 354.238 5.16748 -6.36559 0
M  V30 15112 O 353.848 4.45271 -7.53232 0
M  V30 15113 C 353.358 4.74572 -5.19863 0
M  V30 15114 C 354.068 3.49373 -4.70338 0
M  V30 15115 N 354.018 3.31704 -3.22876 0
M  V30 15116 C 353.868 2.03326 -2.74871 0
M  V30 15117 O 353.778 1.06486 -3.48076 0
M  V30 15118 N 353.828 1.91838 -1.37456 0
M  V30 15119 C 353.918 2.94295 -0.462035 0
M  V30 15120 O 353.868 2.71763 0.752928 0
M  V30 15121 C 354.068 4.25064 -1.05249 0
M  V30 15122 C 354.178 5.39815 -0.095697 0
M  V30 15123 C 354.118 4.40214 -2.39192 0
M  V30 15124 H 356.859 6.54063 -5.71245 0
M  V30 15125 H 357.128 5.30339 -4.43905 0
M  V30 15126 H 356.261 4.55889 -6.76652 0
M  V30 15127 H 353.606 2.6167 -5.17842 0
M  V30 15128 H 353.327 5.52155 -4.41878 0
M  V30 15129 H 352.335 4.51918 -5.53297 0
M  V30 15130 H 354.169 6.25055 -6.55162 0
M  V30 15131 H 354.24 5.39798 -2.81523 0
M  V30 15132 H 353.21 5.91593 -0.0279582 0
M  V30 15133 H 354.947 6.10038 -0.450573 0
M  V30 15134 H 354.459 5.02007 0.89937 0
M  V30 15135 H 353.723 0.995326 -1.00435 0
M  V30 15136 P 352.298 4.23843 -7.83734 0
M  V30 15137 O 352.078 4.19407 -9.29784 0
M  V30 15138 O 351.508 5.24426 -7.09156 0
M  V30 15139 O 352.048 2.7935 -7.20758 0
M  V30 15140 C 352.988 1.7299 -7.50419 0
M  V30 15141 C 352.258 0.406376 -7.57911 0
M  V30 15142 O 352.048 -0.0897726 -6.21935 0
M  V30 15143 C 350.858 0.447224 -8.1878 0
M  V30 15144 O 350.468 -0.825065 -8.71101 0
M  V30 15145 C 349.978 0.783801 -6.99623 0
M  V30 15146 C 350.688 0.0619192 -5.85967 0
M  V30 15147 N 350.638 0.790462 -4.56202 0
M  V30 15148 H 353.477 1.93423 -8.4679 0
M  V30 15149 H 353.749 1.68852 -6.70877 0
M  V30 15150 H 352.881 -0.289041 -8.15388 0
M  V30 15151 H 350.226 -0.927006 -5.72848 0
M  V30 15152 H 349.946 1.86973 -6.82036 0
M  V30 15153 H 348.955 0.403953 -7.13357 0
M  V30 15154 H 350.789 1.20599 -8.97534 0
M  V30 15155 P 348.918 -1.17771 -8.83182 0
M  V30 15156 O 348.698 -2.07206 -9.98732 0
M  V30 15157 O 348.128 0.0743816 -8.81969 0
M  V30 15158 O 348.668 -1.97652 -7.47304 0
M  V30 15159 C 349.608 -3.01133 -7.08783 0
M  V30 15160 C 348.878 -4.12613 -6.37049 0
M  V30 15161 O 348.668 -3.72827 -4.97879 0
M  V30 15162 C 347.478 -4.45085 -6.88694 0
M  V30 15163 O 347.088 -5.7877 -6.5624 0
M  V30 15164 C 346.598 -3.47817 -6.12078 0
M  V30 15165 C 347.308 -3.39414 -4.77697 0
M  V30 15166 N 347.258 -2.04615 -4.15333 0
M  V30 15167 H 350.097 -3.41248 -7.98759 0
M  V30 15168 H 350.369 -2.5837 -6.41742 0
M  V30 15169 H 349.501 -5.02657 -6.42673 0
M  V30 15170 P 345.538 -6.144 -6.45285 0
M  V30 15171 O 345.318 -7.54673 -6.86199 0
M  V30 15172 O 344.748 -5.12391 -7.179 0
M  V30 15173 O 345.288 -5.99158 -4.88404 0
M  V30 15174 C 346.228 -6.60234 -3.96415 0
M  V30 15175 C 345.498 -7.08259 -2.72856 0
M  V30 15176 O 345.288 -5.9427 -1.83651 0
M  V30 15177 C 344.098 -7.64886 -2.9555 0
M  V30 15178 O 343.708 -8.53963 -1.90717 0
M  V30 15179 C 343.218 -6.4116 -2.90739 0
M  V30 15180 C 343.928 -5.55375 -1.86963 0
M  V30 15181 N 343.878 -4.09664 -2.15742 0
M  V30 15182 H 346.717 -7.45574 -4.45629 0
M  V30 15183 H 346.989 -5.86232 -3.67314 0
M  V30 15184 H 346.121 -7.84412 -2.24479 0
M  V30 15185 P 342.158 -8.7635 -1.60911 0
M  V30 15186 O 341.938 -10.1388 -1.11561 0
M  V30 15187 O 341.368 -8.36503 -2.79617 0
M  V30 15188 O 341.908 -7.71906 -0.429565 0
M  V30 15189 C 342.848 -7.67148 0.673689 0
M  V30 15190 C 342.118 -7.33666 1.94851 0
M  V30 15191 O 341.908 -5.88816 2.00759 0
M  V30 15192 C 340.718 -7.92526 2.10483 0
M  V30 15193 O 340.328 -8.03063 3.47693 0
M  V30 15194 C 339.838 -6.89602 1.41652 0
M  V30 15195 C 340.548 -5.59201 1.75185 0
M  V30 15196 N 340.498 -4.58235 0.662552 0
M  V30 15197 C 340.348 -3.24451 1.01643 0
M  V30 15198 O 340.258 -2.94958 2.21722 0
M  V30 15199 N 340.298 -2.30408 -0.165238 0
M  V30 15200 C 340.398 -2.66048 -1.25118 0
M  V30 15201 N 340.348 -1.70787 -2.16813 0
M  V30 15202 C 340.548 -4.02732 -1.64413 0
M  V30 15203 C 340.598 -4.9488 -0.63991 0
M  V30 15204 H 343.338 -8.65017 0.777072 0
M  V30 15205 H 343.608 -6.90173 0.474152 0
M  V30 15206 H 342.741 -7.66642 2.79492 0
M  V30 15207 H 340.086 -5.16254 2.65229 0
M  V30 15208 H 339.806 -7.06532 0.329431 0
M  V30 15209 H 338.815 -6.91023 1.82047 0
M  V30 15210 H 340.649 -8.90873 1.62657 0
M  V30 15211 H 340.721 -6.00104 -0.892197 0
M  V30 15212 H 340.619 -4.31733 -2.69229 0
M  V30 15213 H 340.231 -0.724835 -1.8844 0
M  V30 15214 H 340.427 -1.94716 -3.16734 0
M  V30 15215 P 338.778 -8.03563 3.84925 0
M  V30 15216 O 338.558 -8.85821 5.0569 0
M  V30 15217 O 337.988 -8.41101 2.65469 0
M  V30 15218 O 338.528 -6.4965 4.18908 0
M  V30 15219 C 339.468 -5.81037 5.05421 0
M  V30 15220 C 338.738 -4.78366 5.89277 0
M  V30 15221 O 338.528 -3.58302 5.08433 0
M  V30 15222 C 337.338 -5.17448 6.36119 0
M  V30 15223 O 336.948 -4.45271 7.53232 0
M  V30 15224 C 336.458 -4.74639 5.19936 0
M  V30 15225 C 337.168 -3.49432 4.70418 0
M  V30 15226 N 337.118 -3.32099 3.22613 0
M  V30 15227 H 339.957 -6.54213 5.71376 0
M  V30 15228 H 340.229 -5.30936 4.43503 0
M  V30 15229 H 339.361 -4.55889 6.76652 0
M  V30 15230 H 336.706 -2.61715 5.17932 0
M  V30 15231 H 336.426 -5.52155 4.41878 0
M  V30 15232 H 335.435 -4.51981 5.53374 0
M  V30 15233 H 337.269 -6.25124 6.55234 0
M  V30 15234 P 335.398 -4.23843 7.83734 0
M  V30 15235 O 335.178 -4.19407 9.29784 0
M  V30 15236 O 334.608 -5.24426 7.09156 0
M  V30 15237 O 335.148 -2.7935 7.20758 0
M  V30 15238 C 336.088 -1.7299 7.50419 0
M  V30 15239 C 335.358 -0.406376 7.57911 0
M  V30 15240 O 335.148 0.0897726 6.21935 0
M  V30 15241 C 333.958 -0.447224 8.1878 0
M  V30 15242 O 333.568 0.825065 8.71101 0
M  V30 15243 C 333.078 -0.783801 6.99623 0
M  V30 15244 C 333.788 -0.0619192 5.85967 0
M  V30 15245 N 333.738 -0.7859 4.56281 0
M  V30 15246 H 336.577 -1.93423 8.4679 0
M  V30 15247 H 336.849 -1.68181 6.71046 0
M  V30 15248 H 335.981 0.289041 8.15388 0
M  V30 15249 P 332.018 1.17771 8.83182 0
M  V30 15250 O 331.798 2.07206 9.98732 0
M  V30 15251 O 331.228 -0.0743816 8.81969 0
M  V30 15252 O 331.768 1.97652 7.47304 0
M  V30 15253 C 332.708 3.01133 7.08783 0
M  V30 15254 C 331.978 4.12613 6.37049 0
M  V30 15255 O 331.768 3.72827 4.97879 0
M  V30 15256 C 330.578 4.45085 6.88694 0
M  V30 15257 O 330.188 5.7877 6.5624 0
M  V30 15258 C 329.698 3.47817 6.12078 0
M  V30 15259 C 330.408 3.39414 4.77697 0
M  V30 15260 N 330.358 2.04199 4.15538 0
M  V30 15261 H 333.197 3.41248 7.98759 0
M  V30 15262 H 333.469 2.57728 6.42 0
M  V30 15263 H 332.601 5.02657 6.42673 0
M  V30 15264 H 329.946 4.11708 4.08956 0
M  V30 15265 H 329.666 2.49626 6.61679 0
M  V30 15266 H 328.675 3.8662 6.00862 0
M  V30 15267 H 330.509 4.29991 7.97006 0
M  V30 15268 P 328.638 6.144 6.45285 0
M  V30 15269 O 328.418 7.54673 6.86199 0
M  V30 15270 O 327.848 5.12391 7.179 0
M  V30 15271 O 328.388 5.99158 4.88404 0
M  V30 15272 C 329.328 6.60234 3.96415 0
M  V30 15273 C 328.598 7.08259 2.72856 0
M  V30 15274 O 328.388 5.9427 1.83651 0
M  V30 15275 C 327.198 7.64886 2.9555 0
M  V30 15276 O 326.808 8.53963 1.90717 0
M  V30 15277 C 326.318 6.4116 2.90739 0
M  V30 15278 C 327.028 5.55375 1.86963 0
M  V30 15279 N 326.978 4.09664 2.15742 0
M  V30 15280 H 329.817 7.45574 4.45629 0
M  V30 15281 H 330.089 5.86232 3.67314 0
M  V30 15282 H 329.221 7.84412 2.24479 0
M  V30 15283 P 325.258 8.7635 1.60911 0
M  V30 15284 O 325.038 10.1388 1.11561 0
M  V30 15285 O 324.468 8.36503 2.79617 0
M  V30 15286 O 325.008 7.71806 0.42951 0
M  V30 15287 C 325.948 7.67148 -0.673689 0
M  V30 15288 C 325.218 7.33374 -1.95559 0
M  V30 15289 O 325.008 5.88721 -2.00726 0
M  V30 15290 C 323.818 7.92526 -2.10483 0
M  V30 15291 O 323.428 8.02971 -3.47653 0
M  V30 15292 C 322.938 6.89602 -1.41652 0
M  V30 15293 C 323.648 5.59201 -1.75185 0
M  V30 15294 N 323.598 4.58235 -0.662552 0
M  V30 15295 H 326.437 8.65116 -0.777161 0
M  V30 15296 H 326.709 6.90173 -0.474152 0
M  V30 15297 H 325.841 7.66548 -2.79458 0
M  V30 15298 P 321.878 8.03563 -3.84925 0
M  V30 15299 O 321.658 8.85821 -5.0569 0
M  V30 15300 O 321.088 8.41101 -2.65469 0
M  V30 15301 O 321.628 6.4965 -4.18908 0
M  V30 15302 C 322.568 5.81037 -5.05421 0
M  V30 15303 C 321.838 4.78366 -5.89277 0
M  V30 15304 O 321.628 3.58302 -5.08433 0
M  V30 15305 C 320.438 5.17448 -6.36119 0
M  V30 15306 O 320.048 4.45271 -7.53232 0
M  V30 15307 C 319.558 4.74639 -5.19936 0
M  V30 15308 C 320.268 3.49432 -4.70418 0
M  V30 15309 N 320.218 3.31776 -3.22945 0
M  V30 15310 H 323.057 6.54213 -5.71376 0
M  V30 15311 H 323.329 5.30492 -4.44033 0
M  V30 15312 H 322.461 4.55889 -6.76652 0
M  V30 15313 P 318.498 4.23843 -7.83734 0
M  V30 15314 O 318.278 4.19407 -9.29784 0
M  V30 15315 O 317.708 5.24426 -7.09156 0
M  V30 15316 O 318.248 2.7935 -7.20758 0
M  V30 15317 C 319.188 1.7299 -7.50419 0
M  V30 15318 C 318.458 0.406376 -7.57911 0
M  V30 15319 O 318.248 -0.0897726 -6.21935 0
M  V30 15320 C 317.058 0.447224 -8.1878 0
M  V30 15321 O 316.668 -0.825065 -8.71101 0
M  V30 15322 C 316.178 0.783801 -6.99623 0
M  V30 15323 C 316.888 0.0619192 -5.85967 0
M  V30 15324 N 316.838 0.790462 -4.56202 0
M  V30 15325 H 319.677 1.93423 -8.4679 0
M  V30 15326 H 319.949 1.68852 -6.70877 0
M  V30 15327 H 319.081 -0.289041 -8.15388 0
M  V30 15328 H 316.426 -0.927006 -5.72848 0
M  V30 15329 H 316.146 1.86973 -6.82036 0
M  V30 15330 H 315.155 0.403953 -7.13357 0
M  V30 15331 H 316.989 1.20599 -8.97534 0
M  V30 15332 P 315.118 -1.17771 -8.83182 0
M  V30 15333 O 314.898 -2.07206 -9.98732 0
M  V30 15334 O 314.328 0.0743816 -8.81969 0
M  V30 15335 O 314.868 -1.97652 -7.47304 0
M  V30 15336 C 315.808 -3.01133 -7.08783 0
M  V30 15337 C 315.078 -4.12613 -6.37049 0
M  V30 15338 O 314.868 -3.72827 -4.97879 0
M  V30 15339 C 313.678 -4.45085 -6.88694 0
M  V30 15340 O 313.288 -5.7877 -6.5624 0
M  V30 15341 C 312.798 -3.47817 -6.12078 0
M  V30 15342 C 313.508 -3.39414 -4.77697 0
M  V30 15343 N 313.458 -2.04615 -4.15333 0
M  V30 15344 H 316.297 -3.41248 -7.98759 0
M  V30 15345 H 316.569 -2.5837 -6.41742 0
M  V30 15346 H 315.701 -5.02657 -6.42673 0
M  V30 15347 P 311.738 -6.144 -6.45285 0
M  V30 15348 O 311.518 -7.54673 -6.86199 0
M  V30 15349 O 310.948 -5.12391 -7.179 0
M  V30 15350 O 311.488 -5.99158 -4.88404 0
M  V30 15351 C 312.428 -6.60234 -3.96415 0
M  V30 15352 C 311.698 -7.08259 -2.72856 0
M  V30 15353 O 311.488 -5.9427 -1.83651 0
M  V30 15354 C 310.298 -7.64886 -2.9555 0
M  V30 15355 O 309.908 -8.53963 -1.90717 0
M  V30 15356 C 309.418 -6.4116 -2.90739 0
M  V30 15357 C 310.128 -5.55375 -1.86963 0
M  V30 15358 N 310.078 -4.09664 -2.15742 0
M  V30 15359 H 312.917 -7.45574 -4.45629 0
M  V30 15360 H 313.189 -5.86232 -3.67314 0
M  V30 15361 H 312.321 -7.84412 -2.24479 0
M  V30 15362 P 308.358 -8.7635 -1.60911 0
M  V30 15363 O 308.138 -10.1388 -1.11561 0
M  V30 15364 O 307.568 -8.36503 -2.79617 0
M  V30 15365 O 308.108 -7.71806 -0.42951 0
M  V30 15366 C 309.048 -7.67148 0.673689 0
M  V30 15367 C 308.318 -7.33374 1.95559 0
M  V30 15368 O 308.108 -5.88721 2.00726 0
M  V30 15369 C 306.918 -7.92526 2.10483 0
M  V30 15370 O 306.528 -8.02971 3.47653 0
M  V30 15371 C 306.038 -6.89602 1.41652 0
M  V30 15372 C 306.748 -5.59201 1.75185 0
M  V30 15373 N 306.698 -4.58301 0.657969 0
M  V30 15374 C 306.778 -4.79019 -0.692603 0
M  V30 15375 N 306.708 -3.69736 -1.38998 0
M  V30 15376 C 306.558 -2.70474 -0.438135 0
M  V30 15377 C 306.428 -1.30327 -0.538142 0
M  V30 15378 N 306.418 -0.64304 -1.69192 0
M  V30 15379 N 306.308 -0.611027 0.605183 0
M  V30 15380 C 306.318 -1.27002 1.75953 0
M  V30 15381 N 306.438 -2.56038 1.98546 0
M  V30 15382 C 306.558 -3.22681 0.822541 0
M  V30 15383 H 309.537 -8.65116 0.777161 0
M  V30 15384 H 309.809 -6.9022 0.46725 0
M  V30 15385 H 308.941 -7.66548 2.79458 0
M  V30 15386 H 306.286 -5.16165 2.65183 0
M  V30 15387 H 306.006 -7.06433 0.329384 0
M  V30 15388 H 305.015 -6.90926 1.82021 0
M  V30 15389 H 306.849 -8.90873 1.62657 0
M  V30 15390 H 306.89 -5.77785 -1.13874 0
M  V30 15391 H 306.509 -1.15585 -2.57991 0
M  V30 15392 H 306.32 0.382989 -1.69835 0
M  V30 15393 H 306.212 -0.653331 2.64449 0
M  V30 15394 P 304.978 -8.03563 3.84925 0
M  V30 15395 O 304.758 -8.85821 5.0569 0
M  V30 15396 O 304.188 -8.41101 2.65469 0
M  V30 15397 O 304.728 -6.4965 4.18908 0
M  V30 15398 C 305.668 -5.80886 5.05289 0
M  V30 15399 C 304.938 -4.78366 5.89277 0
M  V30 15400 O 304.728 -3.58302 5.08433 0
M  V30 15401 C 303.538 -5.16748 6.36559 0
M  V30 15402 O 303.148 -4.45271 7.53232 0
M  V30 15403 C 302.658 -4.74572 5.19863 0
M  V30 15404 C 303.368 -3.49373 4.70338 0
M  V30 15405 N 303.318 -3.31704 3.22876 0
M  V30 15406 C 303.168 -2.03326 2.74871 0
M  V30 15407 O 303.078 -1.06486 3.48076 0
M  V30 15408 N 303.128 -1.91838 1.37456 0
M  V30 15409 C 303.218 -2.94295 0.462035 0
M  V30 15410 C 303.368 -4.25064 1.05249 0
M  V30 15411 C 303.418 -4.40214 2.39192 0
M  V30 15412 H 306.159 -6.54063 5.71245 0
M  V30 15413 H 306.428 -5.30339 4.43905 0
M  V30 15414 H 305.561 -4.55889 6.76652 0
M  V30 15415 H 302.906 -2.6167 5.17842 0
M  V30 15416 H 302.627 -5.52155 4.41878 0
M  V30 15417 H 301.635 -4.51918 5.53297 0
M  V30 15418 H 303.469 -6.25055 6.55162 0
M  V30 15419 H 303.54 -5.39798 2.81523 0
M  V30 15420 P 301.598 -4.23843 7.83734 0
M  V30 15421 O 301.378 -4.19407 9.29784 0
M  V30 15422 O 300.808 -5.24426 7.09156 0
M  V30 15423 O 301.348 -2.7935 7.20758 0
M  V30 15424 C 302.288 -1.7299 7.50419 0
M  V30 15425 C 301.558 -0.406376 7.57911 0
M  V30 15426 O 301.348 0.0897726 6.21935 0
M  V30 15427 C 300.158 -0.447224 8.1878 0
M  V30 15428 O 299.768 0.825065 8.71101 0
M  V30 15429 C 299.278 -0.783801 6.99623 0
M  V30 15430 C 299.988 -0.0619192 5.85967 0
M  V30 15431 N 299.938 -0.7859 4.56281 0
M  V30 15432 H 302.777 -1.93423 8.4679 0
M  V30 15433 H 303.049 -1.68181 6.71046 0
M  V30 15434 H 302.181 0.289041 8.15388 0
M  V30 15435 P 298.218 1.17771 8.83182 0
M  V30 15436 O 297.998 2.07206 9.98732 0
M  V30 15437 O 297.428 -0.0743816 8.81969 0
M  V30 15438 O 297.968 1.97652 7.47304 0
M  V30 15439 C 298.908 3.01133 7.08783 0
M  V30 15440 C 298.178 4.12613 6.37049 0
M  V30 15441 O 297.968 3.72827 4.97879 0
M  V30 15442 C 296.778 4.45085 6.88694 0
M  V30 15443 O 296.388 5.7877 6.5624 0
M  V30 15444 C 295.898 3.47817 6.12078 0
M  V30 15445 C 296.608 3.39414 4.77697 0
M  V30 15446 N 296.558 2.04199 4.15538 0
M  V30 15447 H 299.397 3.41248 7.98759 0
M  V30 15448 H 299.669 2.57728 6.42 0
M  V30 15449 H 298.801 5.02657 6.42673 0
M  V30 15450 H 296.146 4.11708 4.08956 0
M  V30 15451 H 295.866 2.49626 6.61679 0
M  V30 15452 H 294.875 3.8662 6.00862 0
M  V30 15453 H 296.709 4.29991 7.97006 0
M  V30 15454 P 294.838 6.144 6.45285 0
M  V30 15455 O 294.618 7.54673 6.86199 0
M  V30 15456 O 294.048 5.12391 7.179 0
M  V30 15457 O 294.588 5.99158 4.88404 0
M  V30 15458 C 295.528 6.60234 3.96415 0
M  V30 15459 C 294.798 7.08259 2.72856 0
M  V30 15460 O 294.588 5.9427 1.83651 0
M  V30 15461 C 293.398 7.64886 2.9555 0
M  V30 15462 O 293.008 8.53963 1.90717 0
M  V30 15463 C 292.518 6.4116 2.90739 0
M  V30 15464 C 293.228 5.55375 1.86963 0
M  V30 15465 N 293.178 4.09448 2.16152 0
M  V30 15466 H 296.017 7.45574 4.45629 0
M  V30 15467 H 296.289 5.85864 3.679 0
M  V30 15468 H 295.421 7.84412 2.24479 0
M  V30 15469 H 292.766 5.73457 0.888562 0
M  V30 15470 H 292.486 5.90877 3.88583 0
M  V30 15471 H 291.495 6.6596 2.58858 0
M  V30 15472 H 293.329 8.16339 3.92049 0
M  V30 15473 P 291.458 8.7635 1.60911 0
M  V30 15474 O 291.238 10.1388 1.11561 0
M  V30 15475 O 290.668 8.36503 2.79617 0
M  V30 15476 O 291.208 7.71806 0.42951 0
M  V30 15477 C 292.148 7.67148 -0.673689 0
M  V30 15478 C 291.418 7.33374 -1.95559 0
M  V30 15479 O 291.208 5.88721 -2.00726 0
M  V30 15480 C 290.018 7.92526 -2.10483 0
M  V30 15481 O 289.628 8.02971 -3.47653 0
M  V30 15482 C 289.138 6.89602 -1.41652 0
M  V30 15483 C 289.848 5.59201 -1.75185 0
M  V30 15484 N 289.798 4.58235 -0.662552 0
M  V30 15485 H 292.637 8.65116 -0.777161 0
M  V30 15486 H 292.909 6.90173 -0.474152 0
M  V30 15487 H 292.041 7.66548 -2.79458 0
M  V30 15488 P 288.078 8.03563 -3.84925 0
M  V30 15489 O 287.858 8.85821 -5.0569 0
M  V30 15490 O 287.288 8.41101 -2.65469 0
M  V30 15491 O 287.828 6.4965 -4.18908 0
M  V30 15492 C 288.768 5.81037 -5.05421 0
M  V30 15493 C 288.038 4.78366 -5.89277 0
M  V30 15494 O 287.828 3.58302 -5.08433 0
M  V30 15495 C 286.638 5.17448 -6.36119 0
M  V30 15496 O 286.248 4.45271 -7.53232 0
M  V30 15497 C 285.758 4.74639 -5.19936 0
M  V30 15498 C 286.468 3.49432 -4.70418 0
M  V30 15499 N 286.418 3.31776 -3.22945 0
M  V30 15500 H 289.257 6.54213 -5.71376 0
M  V30 15501 H 289.529 5.30492 -4.44033 0
M  V30 15502 H 288.661 4.55889 -6.76652 0
M  V30 15503 P 284.698 4.23843 -7.83734 0
M  V30 15504 O 284.478 4.19407 -9.29784 0
M  V30 15505 O 283.908 5.24426 -7.09156 0
M  V30 15506 O 284.448 2.7935 -7.20758 0
M  V30 15507 C 285.388 1.7299 -7.50419 0
M  V30 15508 C 284.658 0.406376 -7.57911 0
M  V30 15509 O 284.448 -0.0897726 -6.21935 0
M  V30 15510 C 283.258 0.447224 -8.1878 0
M  V30 15511 O 282.868 -0.825065 -8.71101 0
M  V30 15512 C 282.378 0.783801 -6.99623 0
M  V30 15513 C 283.088 0.0619192 -5.85967 0
M  V30 15514 N 283.038 0.7859 -4.56281 0
M  V30 15515 H 285.877 1.93423 -8.4679 0
M  V30 15516 H 286.149 1.68181 -6.71046 0
M  V30 15517 H 285.281 -0.289041 -8.15388 0
M  V30 15518 P 281.318 -1.17771 -8.83182 0
M  V30 15519 O 281.098 -2.07206 -9.98732 0
M  V30 15520 O 280.528 0.0743816 -8.81969 0
M  V30 15521 O 281.068 -1.97652 -7.47304 0
M  V30 15522 C 282.008 -3.01133 -7.08783 0
M  V30 15523 C 281.278 -4.12613 -6.37049 0
M  V30 15524 O 281.068 -3.72827 -4.97879 0
M  V30 15525 C 279.878 -4.45085 -6.88694 0
M  V30 15526 O 279.488 -5.7877 -6.5624 0
M  V30 15527 C 278.998 -3.47817 -6.12078 0
M  V30 15528 C 279.708 -3.39414 -4.77697 0
M  V30 15529 N 279.658 -2.04615 -4.15333 0
M  V30 15530 H 282.497 -3.41248 -7.98759 0
M  V30 15531 H 282.769 -2.5837 -6.41742 0
M  V30 15532 H 281.901 -5.02657 -6.42673 0
M  V30 15533 P 277.938 -6.144 -6.45285 0
M  V30 15534 O 277.718 -7.54673 -6.86199 0
M  V30 15535 O 277.148 -5.12391 -7.179 0
M  V30 15536 O 277.688 -5.99158 -4.88404 0
M  V30 15537 C 278.628 -6.60234 -3.96415 0
M  V30 15538 C 277.898 -7.08259 -2.72856 0
M  V30 15539 O 277.688 -5.9427 -1.83651 0
M  V30 15540 C 276.498 -7.64886 -2.9555 0
M  V30 15541 O 276.108 -8.53963 -1.90717 0
M  V30 15542 C 275.618 -6.4116 -2.90739 0
M  V30 15543 C 276.328 -5.55375 -1.86963 0
M  V30 15544 N 276.278 -4.09664 -2.15742 0
M  V30 15545 C 276.358 -3.44381 -3.37233 0
M  V30 15546 N 276.278 -2.14131 -3.28347 0
M  V30 15547 C 276.138 -1.90247 -1.91588 0
M  V30 15548 C 276.008 -0.683992 -1.20892 0
M  V30 15549 N 275.888 -0.903396 0.173998 0
M  V30 15550 C 275.888 -2.14171 0.784879 0
M  V30 15551 N 275.758 -2.1435 2.11317 0
M  V30 15552 N 276.018 -3.28784 0.119316 0
M  V30 15553 C 276.138 -3.0977 -1.22194 0
M  V30 15554 H 279.117 -7.45574 -4.45629 0
M  V30 15555 H 279.389 -5.86232 -3.67314 0
M  V30 15556 H 278.521 -7.84412 -2.24479 0
M  V30 15557 P 274.558 -8.7635 -1.60911 0
M  V30 15558 O 274.338 -10.1388 -1.11561 0
M  V30 15559 O 273.768 -8.36503 -2.79617 0
M  V30 15560 O 274.308 -7.71806 -0.42951 0
M  V30 15561 C 275.248 -7.66948 0.673514 0
M  V30 15562 C 274.518 -7.33374 1.95559 0
M  V30 15563 O 274.308 -5.88721 2.00726 0
M  V30 15564 C 273.118 -7.92218 2.1125 0
M  V30 15565 O 272.728 -8.02971 3.47653 0
M  V30 15566 C 272.238 -6.89504 1.41631 0
M  V30 15567 C 272.948 -5.59106 1.75155 0
M  V30 15568 N 272.898 -4.58136 0.662409 0
M  V30 15569 C 272.748 -3.26059 1.02863 0
M  V30 15570 O 272.658 -2.90743 2.19009 0
M  V30 15571 N 272.708 -2.35995 -0.0155585 0
M  V30 15572 C 272.798 -2.65248 -1.35603 0
M  V30 15573 C 272.948 -4.05747 -1.64698 0
M  V30 15574 C 272.998 -4.96734 -0.652411 0
M  V30 15575 H 275.739 -8.64917 0.776982 0
M  V30 15576 H 276.008 -6.89974 0.474015 0
M  V30 15577 H 275.141 -7.66548 2.79458 0
M  V30 15578 H 272.486 -5.16076 2.65138 0
M  V30 15579 H 272.207 -7.06433 0.329384 0
M  V30 15580 H 271.215 -6.90829 1.81996 0
M  V30 15581 H 273.049 -8.90774 1.62639 0
M  V30 15582 H 273.12 -6.02181 -0.895285 0
M  V30 15583 P 271.178 -8.03563 3.84925 0
M  V30 15584 O 270.958 -8.85821 5.0569 0
M  V30 15585 O 270.388 -8.41101 2.65469 0
M  V30 15586 O 270.928 -6.4965 4.18908 0
M  V30 15587 C 271.868 -5.81037 5.05421 0
M  V30 15588 C 271.138 -4.78366 5.89277 0
M  V30 15589 O 270.928 -3.58302 5.08433 0
M  V30 15590 C 269.738 -5.17448 6.36119 0
M  V30 15591 O 269.348 -4.45271 7.53232 0
M  V30 15592 C 268.858 -4.74639 5.19936 0
M  V30 15593 C 269.568 -3.49432 4.70418 0
M  V30 15594 N 269.518 -3.31776 3.22945 0
M  V30 15595 H 272.357 -6.54213 5.71376 0
M  V30 15596 H 272.629 -5.30492 4.44033 0
M  V30 15597 H 271.761 -4.55889 6.76652 0
M  V30 15598 P 267.798 -4.23843 7.83734 0
M  V30 15599 O 267.578 -4.19407 9.29784 0
M  V30 15600 O 267.008 -5.24426 7.09156 0
M  V30 15601 O 267.548 -2.79386 7.20852 0
M  V30 15602 C 268.488 -1.7299 7.50419 0
M  V30 15603 C 267.758 -0.41401 7.5797 0
M  V30 15604 O 267.548 0.089787 6.22035 0
M  V30 15605 C 266.358 -0.447224 8.1878 0
M  V30 15606 O 265.968 0.825159 8.71201 0
M  V30 15607 C 265.478 -0.783801 6.99623 0
M  V30 15608 C 266.188 -0.0619192 5.85967 0
M  V30 15609 N 266.138 -0.7859 4.56281 0
M  V30 15610 C 265.988 -0.0359258 3.39981 0
M  V30 15611 O 265.898 1.19723 3.49038 0
M  V30 15612 N 265.938 -0.869151 2.14025 0
M  V30 15613 C 266.038 -2.01207 2.14363 0
M  V30 15614 N 265.988 -2.58978 0.954287 0
M  V30 15615 C 266.188 -2.80817 3.32215 0
M  V30 15616 C 266.238 -2.13785 4.50884 0
M  V30 15617 H 268.978 -1.93401 8.46693 0
M  V30 15618 H 269.248 -1.68181 6.71046 0
M  V30 15619 H 268.381 0.289076 8.15488 0
M  V30 15620 H 265.726 0.927166 5.72947 0
M  V30 15621 H 265.446 -1.87 6.82132 0
M  V30 15622 H 264.455 -0.404009 7.13457 0
M  V30 15623 H 266.289 -1.20599 8.97534 0
M  V30 15624 H 266.361 -2.70295 5.43162 0
M  V30 15625 H 266.259 -3.89465 3.27406 0
M  V30 15626 H 265.871 -2.01616 0.107046 0
M  V30 15627 H 266.067 -3.61403 0.873101 0
M  V30 15628 P 264.418 1.17771 8.83182 0
M  V30 15629 O 264.198 2.07206 9.98732 0
M  V30 15630 O 263.628 -0.0743816 8.81969 0
M  V30 15631 O 264.168 1.97652 7.47304 0
M  V30 15632 C 265.108 3.01133 7.08783 0
M  V30 15633 C 264.378 4.12613 6.37049 0
M  V30 15634 O 264.168 3.72827 4.97879 0
M  V30 15635 C 262.978 4.45085 6.88694 0
M  V30 15636 O 262.588 5.7877 6.5624 0
M  V30 15637 C 262.098 3.47817 6.12078 0
M  V30 15638 C 262.808 3.39414 4.77697 0
M  V30 15639 N 262.758 2.04615 4.15333 0
M  V30 15640 H 265.597 3.41248 7.98759 0
M  V30 15641 H 265.869 2.5837 6.41742 0
M  V30 15642 H 265.001 5.02657 6.42673 0
M  V30 15643 P 261.038 6.144 6.45285 0
M  V30 15644 O 260.818 7.54673 6.86199 0
M  V30 15645 O 260.248 5.12391 7.179 0
M  V30 15646 O 260.788 5.99158 4.88404 0
M  V30 15647 C 261.728 6.60234 3.96415 0
M  V30 15648 C 260.998 7.08259 2.72856 0
M  V30 15649 O 260.788 5.9427 1.83651 0
M  V30 15650 C 259.598 7.64886 2.9555 0
M  V30 15651 O 259.208 8.53963 1.90717 0
M  V30 15652 C 258.718 6.4116 2.90739 0
M  V30 15653 C 259.428 5.55375 1.86963 0
M  V30 15654 N 259.378 4.09448 2.16152 0
M  V30 15655 H 262.217 7.45574 4.45629 0
M  V30 15656 H 262.489 5.85864 3.679 0
M  V30 15657 H 261.621 7.84412 2.24479 0
M  V30 15658 H 258.966 5.73457 0.888562 0
M  V30 15659 H 258.686 5.90877 3.88583 0
M  V30 15660 H 257.695 6.6596 2.58858 0
M  V30 15661 H 259.529 8.16339 3.92049 0
M  V30 15662 P 257.658 8.7635 1.60911 0
M  V30 15663 O 257.438 10.1388 1.11561 0
M  V30 15664 O 256.868 8.36503 2.79617 0
M  V30 15665 O 257.408 7.71806 0.42951 0
M  V30 15666 C 258.348 7.67148 -0.673689 0
M  V30 15667 C 257.618 7.33374 -1.95559 0
M  V30 15668 O 257.408 5.88721 -2.00726 0
M  V30 15669 C 256.218 7.92526 -2.10483 0
M  V30 15670 O 255.828 8.02971 -3.47653 0
M  V30 15671 C 255.338 6.89602 -1.41652 0
M  V30 15672 C 256.048 5.59201 -1.75185 0
M  V30 15673 N 255.998 4.58235 -0.662552 0
M  V30 15674 H 258.837 8.65116 -0.777161 0
M  V30 15675 H 259.109 6.90173 -0.474152 0
M  V30 15676 H 258.241 7.66548 -2.79458 0
M  V30 15677 P 254.279 8.03563 -3.84925 0
M  V30 15678 O 254.059 8.85821 -5.0569 0
M  V30 15679 O 253.489 8.41101 -2.65469 0
M  V30 15680 O 254.029 6.4965 -4.18908 0
M  V30 15681 C 254.969 5.80886 -5.05289 0
M  V30 15682 C 254.239 4.78366 -5.89277 0
M  V30 15683 O 254.029 3.58302 -5.08433 0
M  V30 15684 C 252.839 5.16748 -6.36559 0
M  V30 15685 O 252.449 4.45271 -7.53232 0
M  V30 15686 C 251.959 4.74572 -5.19863 0
M  V30 15687 C 252.669 3.49373 -4.70338 0
M  V30 15688 N 252.619 3.31704 -3.22876 0
M  V30 15689 C 252.469 2.03326 -2.74871 0
M  V30 15690 O 252.379 1.06486 -3.48076 0
M  V30 15691 N 252.429 1.91838 -1.37456 0
M  V30 15692 C 252.519 2.94295 -0.462035 0
M  V30 15693 C 252.669 4.25064 -1.05249 0
M  V30 15694 C 252.719 4.40214 -2.39192 0
M  V30 15695 H 255.46 6.54063 -5.71245 0
M  V30 15696 H 255.729 5.30339 -4.43905 0
M  V30 15697 H 254.862 4.55889 -6.76652 0
M  V30 15698 H 252.207 2.6167 -5.17842 0
M  V30 15699 H 251.928 5.52155 -4.41878 0
M  V30 15700 H 250.936 4.51918 -5.53297 0
M  V30 15701 H 252.77 6.25055 -6.55162 0
M  V30 15702 H 252.841 5.39798 -2.81523 0
M  V30 15703 P 250.899 4.23843 -7.83734 0
M  V30 15704 O 250.679 4.19407 -9.29784 0
M  V30 15705 O 250.109 5.24426 -7.09156 0
M  V30 15706 O 250.649 2.7935 -7.20758 0
M  V30 15707 C 251.589 1.7299 -7.50419 0
M  V30 15708 C 250.859 0.406376 -7.57911 0
M  V30 15709 O 250.649 -0.0897726 -6.21935 0
M  V30 15710 C 249.459 0.447224 -8.1878 0
M  V30 15711 O 249.069 -0.825065 -8.71101 0
M  V30 15712 C 248.579 0.783801 -6.99623 0
M  V30 15713 C 249.289 0.0619192 -5.85967 0
M  V30 15714 N 249.239 0.790462 -4.56202 0
M  V30 15715 H 252.078 1.93423 -8.4679 0
M  V30 15716 H 252.35 1.68852 -6.70877 0
M  V30 15717 H 251.482 -0.289041 -8.15388 0
M  V30 15718 H 248.827 -0.927006 -5.72848 0
M  V30 15719 H 248.547 1.86973 -6.82036 0
M  V30 15720 H 247.556 0.403953 -7.13357 0
M  V30 15721 H 249.39 1.20599 -8.97534 0
M  V30 15722 P 247.519 -1.17771 -8.83182 0
M  V30 15723 O 247.299 -2.07206 -9.98732 0
M  V30 15724 O 246.729 0.0743816 -8.81969 0
M  V30 15725 O 247.269 -1.97652 -7.47304 0
M  V30 15726 C 248.209 -3.01133 -7.08783 0
M  V30 15727 C 247.479 -4.12613 -6.37049 0
M  V30 15728 O 247.269 -3.72827 -4.97879 0
M  V30 15729 C 246.079 -4.45085 -6.88694 0
M  V30 15730 O 245.689 -5.7877 -6.5624 0
M  V30 15731 C 245.199 -3.47817 -6.12078 0
M  V30 15732 C 245.909 -3.39414 -4.77697 0
M  V30 15733 N 245.859 -2.04199 -4.15538 0
M  V30 15734 H 248.698 -3.41248 -7.98759 0
M  V30 15735 H 248.97 -2.57728 -6.42 0
M  V30 15736 H 248.102 -5.02657 -6.42673 0
M  V30 15737 H 245.447 -4.11708 -4.08956 0
M  V30 15738 H 245.167 -2.49626 -6.61679 0
M  V30 15739 H 244.176 -3.8662 -6.00862 0
M  V30 15740 H 246.01 -4.29991 -7.97006 0
M  V30 15741 P 244.139 -6.144 -6.45285 0
M  V30 15742 O 243.919 -7.54673 -6.86199 0
M  V30 15743 O 243.349 -5.12391 -7.179 0
M  V30 15744 O 243.889 -5.99158 -4.88404 0
M  V30 15745 C 244.829 -6.60234 -3.96415 0
M  V30 15746 C 244.099 -7.08259 -2.72856 0
M  V30 15747 O 243.889 -5.9427 -1.83651 0
M  V30 15748 C 242.699 -7.64886 -2.9555 0
M  V30 15749 O 242.309 -8.53963 -1.90717 0
M  V30 15750 C 241.819 -6.4116 -2.90739 0
M  V30 15751 C 242.529 -5.55375 -1.86963 0
M  V30 15752 N 242.479 -4.09448 -2.16152 0
M  V30 15753 H 245.318 -7.45574 -4.45629 0
M  V30 15754 H 245.59 -5.85864 -3.679 0
M  V30 15755 H 244.722 -7.84412 -2.24479 0
M  V30 15756 H 242.067 -5.73457 -0.888562 0
M  V30 15757 H 241.787 -5.90877 -3.88583 0
M  V30 15758 H 240.796 -6.6596 -2.58858 0
M  V30 15759 H 242.63 -8.16339 -3.92049 0
M  V30 15760 P 240.759 -8.7635 -1.60911 0
M  V30 15761 O 240.539 -10.1388 -1.11561 0
M  V30 15762 O 239.969 -8.36503 -2.79617 0
M  V30 15763 O 240.509 -7.71806 -0.42951 0
M  V30 15764 C 241.449 -7.67148 0.673689 0
M  V30 15765 C 240.719 -7.33374 1.95559 0
M  V30 15766 O 240.509 -5.88721 2.00726 0
M  V30 15767 C 239.319 -7.92526 2.10483 0
M  V30 15768 O 238.929 -8.02971 3.47653 0
M  V30 15769 C 238.439 -6.89602 1.41652 0
M  V30 15770 C 239.149 -5.59201 1.75185 0
M  V30 15771 N 239.099 -4.58235 0.662552 0
M  V30 15772 H 241.938 -8.65116 0.777161 0
M  V30 15773 H 242.21 -6.90173 0.474152 0
M  V30 15774 H 241.342 -7.66548 2.79458 0
M  V30 15775 P 237.379 -8.03563 3.84925 0
M  V30 15776 O 237.159 -8.85821 5.0569 0
M  V30 15777 O 236.589 -8.41101 2.65469 0
M  V30 15778 O 237.129 -6.4965 4.18908 0
M  V30 15779 C 238.069 -5.80886 5.05289 0
M  V30 15780 C 237.339 -4.78366 5.89277 0
M  V30 15781 O 237.129 -3.58302 5.08433 0
M  V30 15782 C 235.939 -5.16748 6.36559 0
M  V30 15783 O 235.549 -4.45271 7.53232 0
M  V30 15784 C 235.059 -4.74572 5.19863 0
M  V30 15785 C 235.769 -3.49373 4.70338 0
M  V30 15786 N 235.719 -3.31704 3.22876 0
M  V30 15787 C 235.569 -2.03326 2.74871 0
M  V30 15788 O 235.479 -1.06486 3.48076 0
M  V30 15789 N 235.529 -1.91838 1.37456 0
M  V30 15790 C 235.619 -2.94295 0.462035 0
M  V30 15791 O 235.569 -2.71763 -0.752928 0
M  V30 15792 C 235.769 -4.25064 1.05249 0
M  V30 15793 C 235.879 -5.39815 0.095697 0
M  V30 15794 C 235.819 -4.40214 2.39192 0
M  V30 15795 H 238.56 -6.54063 5.71245 0
M  V30 15796 H 238.829 -5.30339 4.43905 0
M  V30 15797 H 237.962 -4.55889 6.76652 0
M  V30 15798 H 235.307 -2.6167 5.17842 0
M  V30 15799 H 235.028 -5.52155 4.41878 0
M  V30 15800 H 234.036 -4.51918 5.53297 0
M  V30 15801 H 235.87 -6.25055 6.55162 0
M  V30 15802 H 235.941 -5.39798 2.81523 0
M  V30 15803 H 234.911 -5.91593 0.0279582 0
M  V30 15804 H 236.648 -6.10038 0.450573 0
M  V30 15805 H 236.16 -5.02007 -0.89937 0
M  V30 15806 H 235.424 -0.995326 1.00435 0
M  V30 15807 P 233.999 -4.23843 7.83734 0
M  V30 15808 O 233.779 -4.19407 9.29784 0
M  V30 15809 O 233.209 -5.24426 7.09156 0
M  V30 15810 O 233.749 -2.7935 7.20758 0
M  V30 15811 C 234.689 -1.7299 7.50419 0
M  V30 15812 C 233.959 -0.406376 7.57911 0
M  V30 15813 O 233.749 0.0897726 6.21935 0
M  V30 15814 C 232.559 -0.447224 8.1878 0
M  V30 15815 O 232.169 0.825065 8.71101 0
M  V30 15816 C 231.679 -0.783801 6.99623 0
M  V30 15817 C 232.389 -0.0619192 5.85967 0
M  V30 15818 N 232.339 -0.7859 4.56281 0
M  V30 15819 H 235.178 -1.93423 8.4679 0
M  V30 15820 H 235.45 -1.68181 6.71046 0
M  V30 15821 H 234.582 0.289041 8.15388 0
M  V30 15822 P 230.619 1.17771 8.83182 0
M  V30 15823 O 230.399 2.07206 9.98732 0
M  V30 15824 O 229.829 -0.0743816 8.81969 0
M  V30 15825 O 230.369 1.97652 7.47304 0
M  V30 15826 C 231.309 3.01133 7.08783 0
M  V30 15827 C 230.579 4.12613 6.37049 0
M  V30 15828 O 230.369 3.72827 4.97879 0
M  V30 15829 C 229.179 4.45085 6.88694 0
M  V30 15830 O 228.789 5.7877 6.5624 0
M  V30 15831 C 228.299 3.47817 6.12078 0
M  V30 15832 C 229.009 3.39414 4.77697 0
M  V30 15833 N 228.959 2.04199 4.15538 0
M  V30 15834 H 231.798 3.41248 7.98759 0
M  V30 15835 H 232.07 2.57728 6.42 0
M  V30 15836 H 231.202 5.02657 6.42673 0
M  V30 15837 H 228.547 4.11708 4.08956 0
M  V30 15838 H 228.267 2.49626 6.61679 0
M  V30 15839 H 227.276 3.8662 6.00862 0
M  V30 15840 H 229.11 4.29991 7.97006 0
M  V30 15841 P 227.239 6.144 6.45285 0
M  V30 15842 O 227.019 7.54673 6.86199 0
M  V30 15843 O 226.449 5.12391 7.179 0
M  V30 15844 O 226.989 5.99158 4.88404 0
M  V30 15845 C 227.929 6.60234 3.96415 0
M  V30 15846 C 227.199 7.08259 2.72856 0
M  V30 15847 O 226.989 5.9427 1.83651 0
M  V30 15848 C 225.799 7.64886 2.9555 0
M  V30 15849 O 225.409 8.53963 1.90717 0
M  V30 15850 C 224.919 6.4116 2.90739 0
M  V30 15851 C 225.629 5.55375 1.86963 0
M  V30 15852 N 225.579 4.09664 2.15742 0
M  V30 15853 H 228.418 7.45574 4.45629 0
M  V30 15854 H 228.69 5.86232 3.67314 0
M  V30 15855 H 227.822 7.84412 2.24479 0
M  V30 15856 P 223.859 8.7635 1.60911 0
M  V30 15857 O 223.639 10.1388 1.11561 0
M  V30 15858 O 223.069 8.36503 2.79617 0
M  V30 15859 O 223.609 7.71806 0.42951 0
M  V30 15860 C 224.549 7.67148 -0.673689 0
M  V30 15861 C 223.819 7.33374 -1.95559 0
M  V30 15862 O 223.609 5.88721 -2.00726 0
M  V30 15863 C 222.419 7.92526 -2.10483 0
M  V30 15864 O 222.029 8.02971 -3.47653 0
M  V30 15865 C 221.539 6.89602 -1.41652 0
M  V30 15866 C 222.249 5.59201 -1.75185 0
M  V30 15867 N 222.199 4.58301 -0.657969 0
M  V30 15868 H 225.038 8.65116 -0.777161 0
M  V30 15869 H 225.31 6.9022 -0.46725 0
M  V30 15870 H 224.442 7.66548 -2.79458 0
M  V30 15871 H 221.787 5.16165 -2.65183 0
M  V30 15872 H 221.507 7.06433 -0.329384 0
M  V30 15873 H 220.516 6.90926 -1.82021 0
M  V30 15874 H 222.35 8.90873 -1.62657 0
M  V30 15875 P 220.479 8.03563 -3.84925 0
M  V30 15876 O 220.259 8.85821 -5.0569 0
M  V30 15877 O 219.689 8.41101 -2.65469 0
M  V30 15878 O 220.229 6.4965 -4.18908 0
M  V30 15879 C 221.169 5.81037 -5.05421 0
M  V30 15880 C 220.439 4.78366 -5.89277 0
M  V30 15881 O 220.229 3.58302 -5.08433 0
M  V30 15882 C 219.039 5.17448 -6.36119 0
M  V30 15883 O 218.649 4.45271 -7.53232 0
M  V30 15884 C 218.159 4.74639 -5.19936 0
M  V30 15885 C 218.869 3.49432 -4.70418 0
M  V30 15886 N 218.819 3.32099 -3.22613 0
M  V30 15887 H 221.658 6.54213 -5.71376 0
M  V30 15888 H 221.93 5.30936 -4.43503 0
M  V30 15889 H 221.062 4.55889 -6.76652 0
M  V30 15890 H 218.407 2.61715 -5.17932 0
M  V30 15891 H 218.127 5.52155 -4.41878 0
M  V30 15892 H 217.136 4.51981 -5.53374 0
M  V30 15893 H 218.97 6.25124 -6.55234 0
M  V30 15894 P 217.099 4.23843 -7.83734 0
M  V30 15895 O 216.879 4.19407 -9.29784 0
M  V30 15896 O 216.309 5.24426 -7.09156 0
M  V30 15897 O 216.849 2.7935 -7.20758 0
M  V30 15898 C 217.789 1.7299 -7.50419 0
M  V30 15899 C 217.059 0.406376 -7.57911 0
M  V30 15900 O 216.849 -0.0897726 -6.21935 0
M  V30 15901 C 215.659 0.447224 -8.1878 0
M  V30 15902 O 215.269 -0.825065 -8.71101 0
M  V30 15903 C 214.779 0.783801 -6.99623 0
M  V30 15904 C 215.489 0.0619192 -5.85967 0
M  V30 15905 N 215.439 0.7859 -4.56281 0
M  V30 15906 H 218.278 1.93423 -8.4679 0
M  V30 15907 H 218.55 1.68181 -6.71046 0
M  V30 15908 H 217.682 -0.289041 -8.15388 0
M  V30 15909 P 213.719 -1.17771 -8.83182 0
M  V30 15910 O 213.499 -2.07206 -9.98732 0
M  V30 15911 O 212.929 0.0743816 -8.81969 0
M  V30 15912 O 213.469 -1.97652 -7.47304 0
M  V30 15913 C 214.409 -3.01133 -7.08783 0
M  V30 15914 C 213.679 -4.12613 -6.37049 0
M  V30 15915 O 213.469 -3.72827 -4.97879 0
M  V30 15916 C 212.279 -4.45085 -6.88694 0
M  V30 15917 O 211.889 -5.7877 -6.5624 0
M  V30 15918 C 211.399 -3.47817 -6.12078 0
M  V30 15919 C 212.109 -3.39414 -4.77697 0
M  V30 15920 N 212.059 -2.04199 -4.15538 0
M  V30 15921 H 214.898 -3.41248 -7.98759 0
M  V30 15922 H 215.17 -2.57728 -6.42 0
M  V30 15923 H 214.302 -5.02657 -6.42673 0
M  V30 15924 H 211.647 -4.11708 -4.08956 0
M  V30 15925 H 211.367 -2.49626 -6.61679 0
M  V30 15926 H 210.376 -3.8662 -6.00862 0
M  V30 15927 H 212.21 -4.29991 -7.97006 0
M  V30 15928 P 210.339 -6.144 -6.45285 0
M  V30 15929 O 210.119 -7.54673 -6.86199 0
M  V30 15930 O 209.549 -5.12391 -7.179 0
M  V30 15931 O 210.089 -5.99236 -4.88467 0
M  V30 15932 C 211.029 -6.60234 -3.96415 0
M  V30 15933 C 210.299 -7.08079 -2.736 0
M  V30 15934 O 210.089 -5.94365 -1.8368 0
M  V30 15935 C 208.899 -7.64886 -2.9555 0
M  V30 15936 O 208.509 -8.5406 -1.90739 0
M  V30 15937 C 208.019 -6.4116 -2.90739 0
M  V30 15938 C 208.729 -5.55375 -1.86963 0
M  V30 15939 N 208.679 -4.09664 -2.15742 0
M  V30 15940 C 208.529 -3.22231 -1.08477 0
M  V30 15941 O 208.439 -3.68951 0.0600489 0
M  V30 15942 N 208.479 -1.76692 -1.48799 0
M  V30 15943 C 208.579 -1.41695 -2.57602 0
M  V30 15944 N 208.529 -0.107296 -2.75791 0
M  V30 15945 C 208.729 -2.29178 -3.69733 0
M  V30 15946 C 208.779 -3.62753 -3.42653 0
M  V30 15947 H 211.519 -7.45488 -4.45578 0
M  V30 15948 H 211.789 -5.86232 -3.67314 0
M  V30 15949 H 210.922 -7.84508 -2.24507 0
M  V30 15950 H 208.267 -5.73556 -0.888715 0
M  V30 15951 H 207.987 -5.9096 -3.88638 0
M  V30 15952 H 206.996 -6.66053 -2.58894 0
M  V30 15953 H 208.83 -8.16339 -3.92049 0
M  V30 15954 H 208.902 -4.33052 -4.24913 0
M  V30 15955 H 208.8 -1.9103 -4.71577 0
M  V30 15956 H 208.412 0.521221 -1.95056 0
M  V30 15957 H 208.608 0.286429 -3.70695 0
M  V30 15958 P 206.959 -8.7635 -1.60911 0
M  V30 15959 O 206.739 -10.1388 -1.11561 0
M  V30 15960 O 206.169 -8.36503 -2.79617 0
M  V30 15961 O 206.709 -7.71806 -0.42951 0
M  V30 15962 C 207.649 -7.67148 0.673689 0
M  V30 15963 C 206.919 -7.33374 1.95559 0
M  V30 15964 O 206.709 -5.88721 2.00726 0
M  V30 15965 C 205.519 -7.92526 2.10483 0
M  V30 15966 O 205.129 -8.02971 3.47653 0
M  V30 15967 C 204.639 -6.89602 1.41652 0
M  V30 15968 C 205.349 -5.59201 1.75185 0
M  V30 15969 N 205.299 -4.58235 0.662552 0
M  V30 15970 H 208.138 -8.65116 0.777161 0
M  V30 15971 H 208.41 -6.90173 0.474152 0
M  V30 15972 H 207.542 -7.66548 2.79458 0
M  V30 15973 P 203.579 -8.03563 3.84925 0
M  V30 15974 O 203.359 -8.85821 5.0569 0
M  V30 15975 O 202.789 -8.41101 2.65469 0
M  V30 15976 O 203.329 -6.4965 4.18908 0
M  V30 15977 C 204.269 -5.81037 5.05421 0
M  V30 15978 C 203.539 -4.78366 5.89277 0
M  V30 15979 O 203.329 -3.58302 5.08433 0
M  V30 15980 C 202.139 -5.17448 6.36119 0
M  V30 15981 O 201.749 -4.45271 7.53232 0
M  V30 15982 C 201.259 -4.74639 5.19936 0
M  V30 15983 C 201.969 -3.49432 4.70418 0
M  V30 15984 N 201.919 -3.31776 3.22945 0
M  V30 15985 H 204.758 -6.54213 5.71376 0
M  V30 15986 H 205.03 -5.30492 4.44033 0
M  V30 15987 H 204.162 -4.55889 6.76652 0
M  V30 15988 P 200.199 -4.23843 7.83734 0
M  V30 15989 O 199.979 -4.19407 9.29784 0
M  V30 15990 O 199.409 -5.24426 7.09156 0
M  V30 15991 O 199.949 -2.7935 7.20758 0
M  V30 15992 C 200.889 -1.7299 7.50419 0
M  V30 15993 C 200.159 -0.406376 7.57911 0
M  V30 15994 O 199.949 0.0897726 6.21935 0
M  V30 15995 C 198.759 -0.447224 8.1878 0
M  V30 15996 O 198.369 0.825065 8.71101 0
M  V30 15997 C 197.879 -0.783801 6.99623 0
M  V30 15998 C 198.589 -0.0619192 5.85967 0
M  V30 15999 N 198.539 -0.7859 4.56281 0
M  V30 16000 H 201.378 -1.93423 8.4679 0
M  V30 16001 H 201.65 -1.68181 6.71046 0
M  V30 16002 H 200.782 0.289041 8.15388 0
M  V30 16003 P 196.819 1.17771 8.83182 0
M  V30 16004 O 196.599 2.07206 9.98732 0
M  V30 16005 O 196.029 -0.0743816 8.81969 0
M  V30 16006 O 196.569 1.97652 7.47304 0
M  V30 16007 C 197.509 3.01133 7.08783 0
M  V30 16008 C 196.779 4.12613 6.37049 0
M  V30 16009 O 196.569 3.72827 4.97879 0
M  V30 16010 C 195.379 4.45085 6.88694 0
M  V30 16011 O 194.989 5.7877 6.5624 0
M  V30 16012 C 194.499 3.47817 6.12078 0
M  V30 16013 C 195.209 3.39414 4.77697 0
M  V30 16014 N 195.159 2.04615 4.15333 0
M  V30 16015 H 197.998 3.41248 7.98759 0
M  V30 16016 H 198.27 2.5837 6.41742 0
M  V30 16017 H 197.402 5.02657 6.42673 0
M  V30 16018 P 193.439 6.144 6.45285 0
M  V30 16019 O 193.219 7.54673 6.86199 0
M  V30 16020 O 192.649 5.12391 7.179 0
M  V30 16021 O 193.189 5.99158 4.88404 0
M  V30 16022 C 194.129 6.60062 3.96313 0
M  V30 16023 C 193.399 7.08259 2.72856 0
M  V30 16024 O 193.189 5.9427 1.83651 0
M  V30 16025 C 191.999 7.65087 2.94749 0
M  V30 16026 O 191.609 8.53963 1.90717 0
M  V30 16027 C 191.119 6.41069 2.90698 0
M  V30 16028 C 191.829 5.5528 1.86931 0
M  V30 16029 N 191.779 4.09575 2.15696 0
M  V30 16030 C 191.629 3.24249 1.08435 0
M  V30 16031 O 191.539 3.63946 -0.0628747 0
M  V30 16032 N 191.589 1.90009 1.39973 0
M  V30 16033 C 191.679 1.34884 2.65614 0
M  V30 16034 O 191.629 0.123716 2.81728 0
M  V30 16035 C 191.829 2.3145 3.71736 0
M  V30 16036 C 191.939 1.75913 5.10438 0
M  V30 16037 C 191.879 3.63518 3.44754 0
M  V30 16038 H 194.62 7.45402 4.45526 0
M  V30 16039 H 194.889 5.86062 3.67208 0
M  V30 16040 H 194.022 7.84412 2.24479 0
M  V30 16041 H 191.367 5.73358 0.888409 0
M  V30 16042 H 191.088 5.90877 3.88583 0
M  V30 16043 H 190.096 6.65867 2.58821 0
M  V30 16044 H 191.93 8.16248 3.92006 0
M  V30 16045 H 192.001 4.34551 4.26383 0
M  V30 16046 H 190.971 1.85471 5.61775 0
M  V30 16047 H 192.708 2.31364 5.66257 0
M  V30 16048 H 192.22 0.695936 5.05229 0
M  V30 16049 H 191.484 1.26277 0.63625 0
M  V30 16050 P 190.059 8.7635 1.60911 0
M  V30 16051 O 189.839 10.1388 1.11561 0
M  V30 16052 O 189.269 8.36503 2.79617 0
M  V30 16053 O 189.809 7.71806 0.42951 0
M  V30 16054 C 190.749 7.67148 -0.673689 0
M  V30 16055 C 190.019 7.33374 -1.95559 0
M  V30 16056 O 189.809 5.88721 -2.00726 0
M  V30 16057 C 188.619 7.92526 -2.10483 0
M  V30 16058 O 188.229 8.02971 -3.47653 0
M  V30 16059 C 187.739 6.89602 -1.41652 0
M  V30 16060 C 188.449 5.59201 -1.75185 0
M  V30 16061 N 188.399 4.58235 -0.662552 0
M  V30 16062 H 191.238 8.65116 -0.777161 0
M  V30 16063 H 191.51 6.90173 -0.474152 0
M  V30 16064 H 190.642 7.66548 -2.79458 0
M  V30 16065 P 186.679 8.03563 -3.84925 0
M  V30 16066 O 186.459 8.85821 -5.0569 0
M  V30 16067 O 185.889 8.41101 -2.65469 0
M  V30 16068 O 186.429 6.49734 -4.18962 0
M  V30 16069 C 187.369 5.81037 -5.05421 0
M  V30 16070 C 186.639 4.79018 -5.88876 0
M  V30 16071 O 186.429 3.58359 -5.08515 0
M  V30 16072 C 185.239 5.17448 -6.36119 0
M  V30 16073 O 184.849 4.45322 -7.53318 0
M  V30 16074 C 184.359 4.74639 -5.19936 0
M  V30 16075 C 185.069 3.49432 -4.70418 0
M  V30 16076 N 185.019 3.31776 -3.22945 0
M  V30 16077 C 184.869 2.02742 -2.72939 0
M  V30 16078 O 184.779 1.08301 -3.52749 0
M  V30 16079 N 184.819 1.96117 -1.22063 0
M  V30 16080 C 184.919 2.8878 -0.551566 0
M  V30 16081 N 184.869 2.65609 0.750198 0
M  V30 16082 C 185.069 4.22457 -1.03707 0
M  V30 16083 C 185.119 4.37979 -2.39113 0
M  V30 16084 H 187.859 6.54138 -5.7131 0
M  V30 16085 H 188.129 5.30492 -4.44033 0
M  V30 16086 H 187.262 4.55945 -6.76735 0
M  V30 16087 H 184.607 2.6176 -5.18021 0
M  V30 16088 H 184.327 5.52233 -4.41941 0
M  V30 16089 H 183.336 4.52045 -5.53452 0
M  V30 16090 H 185.17 6.25124 -6.55234 0
M  V30 16091 H 185.242 5.37936 -2.80552 0
M  V30 16092 H 185.14 5.07528 -0.359553 0
M  V30 16093 H 184.752 1.69403 1.09847 0
M  V30 16094 H 184.948 3.43701 1.41792 0
M  V30 16095 P 183.299 4.23843 -7.83734 0
M  V30 16096 O 183.079 4.19407 -9.29784 0
M  V30 16097 O 182.509 5.24426 -7.09156 0
M  V30 16098 O 183.049 2.7935 -7.20758 0
M  V30 16099 C 183.989 1.7299 -7.50419 0
M  V30 16100 C 183.259 0.406376 -7.57911 0
M  V30 16101 O 183.049 -0.0897726 -6.21935 0
M  V30 16102 C 181.859 0.447224 -8.1878 0
M  V30 16103 O 181.469 -0.825065 -8.71101 0
M  V30 16104 C 180.979 0.783801 -6.99623 0
M  V30 16105 C 181.689 0.0619192 -5.85967 0
M  V30 16106 N 181.639 0.790462 -4.56202 0
M  V30 16107 H 184.478 1.93423 -8.4679 0
M  V30 16108 H 184.75 1.68852 -6.70877 0
M  V30 16109 H 183.882 -0.289041 -8.15388 0
M  V30 16110 H 181.227 -0.927006 -5.72848 0
M  V30 16111 H 180.947 1.86973 -6.82036 0
M  V30 16112 H 179.956 0.403953 -7.13357 0
M  V30 16113 H 181.79 1.20599 -8.97534 0
M  V30 16114 P 179.919 -1.17771 -8.83182 0
M  V30 16115 O 179.699 -2.07206 -9.98732 0
M  V30 16116 O 179.129 0.0743816 -8.81969 0
M  V30 16117 O 179.669 -1.97652 -7.47304 0
M  V30 16118 C 180.609 -3.01133 -7.08783 0
M  V30 16119 C 179.879 -4.12613 -6.37049 0
M  V30 16120 O 179.669 -3.72827 -4.97879 0
M  V30 16121 C 178.479 -4.45085 -6.88694 0
M  V30 16122 O 178.089 -5.7877 -6.5624 0
M  V30 16123 C 177.599 -3.47817 -6.12078 0
M  V30 16124 C 178.309 -3.39414 -4.77697 0
M  V30 16125 N 178.259 -2.04615 -4.15333 0
M  V30 16126 H 181.098 -3.41248 -7.98759 0
M  V30 16127 H 181.37 -2.5837 -6.41742 0
M  V30 16128 H 180.502 -5.02657 -6.42673 0
M  V30 16129 P 176.539 -6.144 -6.45285 0
M  V30 16130 O 176.319 -7.54673 -6.86199 0
M  V30 16131 O 175.749 -5.12391 -7.179 0
M  V30 16132 O 176.289 -5.99158 -4.88404 0
M  V30 16133 C 177.229 -6.60062 -3.96313 0
M  V30 16134 C 176.499 -7.08259 -2.72856 0
M  V30 16135 O 176.289 -5.9427 -1.83651 0
M  V30 16136 C 175.099 -7.65087 -2.94749 0
M  V30 16137 O 174.709 -8.53963 -1.90717 0
M  V30 16138 C 174.219 -6.41069 -2.90698 0
M  V30 16139 C 174.929 -5.5528 -1.86931 0
M  V30 16140 N 174.879 -4.09575 -2.15696 0
M  V30 16141 C 174.729 -3.24249 -1.08435 0
M  V30 16142 O 174.639 -3.63946 0.0628747 0
M  V30 16143 N 174.689 -1.90009 -1.39973 0
M  V30 16144 C 174.779 -1.34884 -2.65614 0
M  V30 16145 C 174.929 -2.3145 -3.71736 0
M  V30 16146 C 174.979 -3.63518 -3.44754 0
M  V30 16147 H 177.72 -7.45402 -4.45526 0
M  V30 16148 H 177.989 -5.86062 -3.67208 0
M  V30 16149 H 177.122 -7.84412 -2.24479 0
M  V30 16150 H 174.467 -5.73358 -0.888409 0
M  V30 16151 H 174.188 -5.90877 -3.88583 0
M  V30 16152 H 173.196 -6.65867 -2.58821 0
M  V30 16153 H 175.03 -8.16248 -3.92006 0
M  V30 16154 H 175.101 -4.34551 -4.26383 0
M  V30 16155 P 173.159 -8.7635 -1.60911 0
M  V30 16156 O 172.939 -10.1388 -1.11561 0
M  V30 16157 O 172.369 -8.36503 -2.79617 0
M  V30 16158 O 172.909 -7.71906 -0.429565 0
M  V30 16159 C 173.849 -7.67148 0.673689 0
M  V30 16160 C 173.119 -7.33666 1.94851 0
M  V30 16161 O 172.909 -5.88816 2.00759 0
M  V30 16162 C 171.719 -7.92526 2.10483 0
M  V30 16163 O 171.329 -8.03063 3.47693 0
M  V30 16164 C 170.839 -6.89602 1.41652 0
M  V30 16165 C 171.549 -5.59201 1.75185 0
M  V30 16166 N 171.499 -4.58235 0.662552 0
M  V30 16167 C 171.349 -3.24451 1.01643 0
M  V30 16168 O 171.259 -2.94958 2.21722 0
M  V30 16169 N 171.299 -2.30408 -0.165238 0
M  V30 16170 C 171.399 -2.66048 -1.25118 0
M  V30 16171 N 171.349 -1.70787 -2.16813 0
M  V30 16172 C 171.549 -4.02732 -1.64413 0
M  V30 16173 C 171.599 -4.9488 -0.63991 0
M  V30 16174 H 174.339 -8.65017 0.777072 0
M  V30 16175 H 174.609 -6.90173 0.474152 0
M  V30 16176 H 173.742 -7.66642 2.79492 0
M  V30 16177 H 171.087 -5.16254 2.65229 0
M  V30 16178 H 170.807 -7.06532 0.329431 0
M  V30 16179 H 169.816 -6.91023 1.82047 0
M  V30 16180 H 171.65 -8.90873 1.62657 0
M  V30 16181 H 171.722 -6.00104 -0.892197 0
M  V30 16182 H 171.62 -4.31733 -2.69229 0
M  V30 16183 H 171.232 -0.724835 -1.8844 0
M  V30 16184 H 171.428 -1.94716 -3.16734 0
M  V30 16185 P 169.779 -8.03563 3.84925 0
M  V30 16186 O 169.559 -8.85821 5.0569 0
M  V30 16187 O 168.989 -8.41101 2.65469 0
M  V30 16188 O 169.529 -6.4965 4.18908 0
M  V30 16189 C 170.469 -5.81037 5.05421 0
M  V30 16190 C 169.739 -4.78366 5.89277 0
M  V30 16191 O 169.529 -3.58302 5.08433 0
M  V30 16192 C 168.339 -5.17448 6.36119 0
M  V30 16193 O 167.949 -4.45271 7.53232 0
M  V30 16194 C 167.459 -4.74639 5.19936 0
M  V30 16195 C 168.169 -3.49432 4.70418 0
M  V30 16196 N 168.119 -3.31776 3.22945 0
M  V30 16197 H 170.958 -6.54213 5.71376 0
M  V30 16198 H 171.23 -5.30492 4.44033 0
M  V30 16199 H 170.362 -4.55889 6.76652 0
M  V30 16200 P 166.399 -4.23843 7.83734 0
M  V30 16201 O 166.179 -4.19407 9.29784 0
M  V30 16202 O 165.609 -5.24426 7.09156 0
M  V30 16203 O 166.149 -2.7935 7.20758 0
M  V30 16204 C 167.089 -1.72945 7.50224 0
M  V30 16205 C 166.359 -0.406376 7.57911 0
M  V30 16206 O 166.149 0.0897726 6.21935 0
M  V30 16207 C 164.959 -0.438983 8.18724 0
M  V30 16208 O 164.569 0.825065 8.71101 0
M  V30 16209 C 164.079 -0.783689 6.99524 0
M  V30 16210 C 164.789 -0.0619086 5.85867 0
M  V30 16211 N 164.739 -0.78573 4.56183 0
M  V30 16212 C 164.589 -0.0292889 3.41887 0
M  V30 16213 O 164.499 1.18445 3.4419 0
M  V30 16214 N 164.549 -0.744061 2.23964 0
M  V30 16215 C 164.639 -2.10932 2.10362 0
M  V30 16216 C 164.789 -2.8202 3.34994 0
M  V30 16217 C 164.839 -2.15547 4.52261 0
M  V30 16218 H 167.58 -1.93379 8.46595 0
M  V30 16219 H 167.849 -1.68132 6.70852 0
M  V30 16220 H 166.982 0.289041 8.15388 0
M  V30 16221 H 164.327 0.926847 5.72749 0
M  V30 16222 H 164.048 -1.86973 6.82036 0
M  V30 16223 H 163.056 -0.403896 7.13257 0
M  V30 16224 H 164.89 -1.20585 8.97435 0
M  V30 16225 H 164.961 -2.71231 5.45042 0
M  V30 16226 P 163.019 1.17771 8.83182 0
M  V30 16227 O 162.799 2.07206 9.98732 0
M  V30 16228 O 162.229 -0.0743816 8.81969 0
M  V30 16229 O 162.769 1.97652 7.47304 0
M  V30 16230 C 163.709 3.01133 7.08783 0
M  V30 16231 C 162.979 4.12613 6.37049 0
M  V30 16232 O 162.769 3.72827 4.97879 0
M  V30 16233 C 161.579 4.45085 6.88694 0
M  V30 16234 O 161.189 5.7877 6.5624 0
M  V30 16235 C 160.699 3.47817 6.12078 0
M  V30 16236 C 161.409 3.39414 4.77697 0
M  V30 16237 N 161.359 2.04199 4.15538 0
M  V30 16238 C 161.439 0.821545 4.76977 0
M  V30 16239 N 161.369 -0.1794 3.94592 0
M  V30 16240 C 161.219 0.419121 2.70776 0
M  V30 16241 C 161.089 -0.109072 1.40577 0
M  V30 16242 N 161.079 -1.4104 1.1344 0
M  V30 16243 N 160.969 0.764381 0.39411 0
M  V30 16244 C 160.979 2.06587 0.664135 0
M  V30 16245 N 161.099 2.67948 1.82153 0
M  V30 16246 C 161.219 1.77942 2.8147 0
M  V30 16247 H 164.198 3.41248 7.98759 0
M  V30 16248 H 164.47 2.57728 6.42 0
M  V30 16249 H 163.602 5.02657 6.42673 0
M  V30 16250 H 160.947 4.11708 4.08956 0
M  V30 16251 H 160.667 2.49626 6.61679 0
M  V30 16252 H 159.676 3.8662 6.00862 0
M  V30 16253 H 161.51 4.29991 7.97006 0
M  V30 16254 H 161.551 0.702451 5.84696 0
M  V30 16255 H 161.17 -2.09647 1.89651 0
M  V30 16256 H 160.981 -1.73358 0.160575 0
M  V30 16257 H 160.873 2.71695 -0.195838 0
M  V30 16258 P 159.639 6.144 6.45285 0
M  V30 16259 O 159.419 7.54673 6.86199 0
M  V30 16260 O 158.849 5.12391 7.179 0
M  V30 16261 O 159.389 5.99158 4.88404 0
M  V30 16262 C 160.329 6.60234 3.96415 0
M  V30 16263 C 159.599 7.08259 2.72856 0
M  V30 16264 O 159.389 5.9427 1.83651 0
M  V30 16265 C 158.199 7.64886 2.9555 0
M  V30 16266 O 157.809 8.53963 1.90717 0
M  V30 16267 C 157.319 6.4116 2.90739 0
M  V30 16268 C 158.029 5.55375 1.86963 0
M  V30 16269 N 157.979 4.09664 2.15742 0
M  V30 16270 C 158.059 3.44381 3.37233 0
M  V30 16271 N 157.979 2.14131 3.28347 0
M  V30 16272 C 157.839 1.90247 1.91588 0
M  V30 16273 C 157.709 0.683992 1.20892 0
M  V30 16274 N 157.589 0.903396 -0.173998 0
M  V30 16275 C 157.589 2.14171 -0.784879 0
M  V30 16276 N 157.459 2.1435 -2.11317 0
M  V30 16277 N 157.719 3.28784 -0.119316 0
M  V30 16278 C 157.839 3.0977 1.22194 0
M  V30 16279 H 160.818 7.45574 4.45629 0
M  V30 16280 H 161.09 5.86232 3.67314 0
M  V30 16281 H 160.222 7.84412 2.24479 0
M  V30 16282 P 156.259 8.7635 1.60911 0
M  V30 16283 O 156.039 10.1388 1.11561 0
M  V30 16284 O 155.469 8.36503 2.79617 0
M  V30 16285 O 156.009 7.71806 0.42951 0
M  V30 16286 C 156.949 7.67148 -0.673689 0
M  V30 16287 C 156.219 7.33374 -1.95559 0
M  V30 16288 O 156.009 5.88721 -2.00726 0
M  V30 16289 C 154.819 7.92526 -2.10483 0
M  V30 16290 O 154.429 8.02971 -3.47653 0
M  V30 16291 C 153.939 6.89602 -1.41652 0
M  V30 16292 C 154.649 5.59201 -1.75185 0
M  V30 16293 N 154.599 4.58235 -0.662552 0
M  V30 16294 H 157.438 8.65116 -0.777161 0
M  V30 16295 H 157.71 6.90173 -0.474152 0
M  V30 16296 H 156.842 7.66548 -2.79458 0
M  V30 16297 P 152.879 8.03563 -3.84925 0
M  V30 16298 O 152.659 8.85821 -5.0569 0
M  V30 16299 O 152.089 8.41101 -2.65469 0
M  V30 16300 O 152.629 6.4965 -4.18908 0
M  V30 16301 C 153.569 5.81037 -5.05421 0
M  V30 16302 C 152.839 4.78366 -5.89277 0
M  V30 16303 O 152.629 3.58302 -5.08433 0
M  V30 16304 C 151.439 5.17448 -6.36119 0
M  V30 16305 O 151.049 4.45271 -7.53232 0
M  V30 16306 C 150.559 4.74639 -5.19936 0
M  V30 16307 C 151.269 3.49432 -4.70418 0
M  V30 16308 N 151.219 3.31776 -3.22945 0
M  V30 16309 H 154.058 6.54213 -5.71376 0
M  V30 16310 H 154.33 5.30492 -4.44033 0
M  V30 16311 H 153.462 4.55889 -6.76652 0
M  V30 16312 P 149.499 4.23843 -7.83734 0
M  V30 16313 O 149.279 4.19407 -9.29784 0
M  V30 16314 O 148.709 5.24426 -7.09156 0
M  V30 16315 O 149.249 2.7935 -7.20758 0
M  V30 16316 C 150.189 1.7299 -7.50419 0
M  V30 16317 C 149.459 0.406376 -7.57911 0
M  V30 16318 O 149.249 -0.0897726 -6.21935 0
M  V30 16319 C 148.059 0.447224 -8.1878 0
M  V30 16320 O 147.669 -0.825065 -8.71101 0
M  V30 16321 C 147.179 0.783801 -6.99623 0
M  V30 16322 C 147.889 0.0619192 -5.85967 0
M  V30 16323 N 147.839 0.7859 -4.56281 0
M  V30 16324 H 150.678 1.93423 -8.4679 0
M  V30 16325 H 150.95 1.68181 -6.71046 0
M  V30 16326 H 150.082 -0.289041 -8.15388 0
M  V30 16327 P 146.119 -1.17771 -8.83182 0
M  V30 16328 O 145.899 -2.07206 -9.98732 0
M  V30 16329 O 145.329 0.0743816 -8.81969 0
M  V30 16330 O 145.869 -1.97652 -7.47304 0
M  V30 16331 C 146.809 -3.01133 -7.08783 0
M  V30 16332 C 146.079 -4.12613 -6.37049 0
M  V30 16333 O 145.869 -3.72827 -4.97879 0
M  V30 16334 C 144.679 -4.45085 -6.88694 0
M  V30 16335 O 144.289 -5.7877 -6.5624 0
M  V30 16336 C 143.799 -3.47817 -6.12078 0
M  V30 16337 C 144.509 -3.39414 -4.77697 0
M  V30 16338 N 144.459 -2.04615 -4.15333 0
M  V30 16339 H 147.298 -3.41248 -7.98759 0
M  V30 16340 H 147.57 -2.5837 -6.41742 0
M  V30 16341 H 146.702 -5.02657 -6.42673 0
M  V30 16342 P 142.739 -6.144 -6.45285 0
M  V30 16343 O 142.519 -7.54673 -6.86199 0
M  V30 16344 O 141.949 -5.12391 -7.179 0
M  V30 16345 O 142.489 -5.99236 -4.88467 0
M  V30 16346 C 143.429 -6.60234 -3.96415 0
M  V30 16347 C 142.699 -7.08079 -2.736 0
M  V30 16348 O 142.489 -5.94365 -1.8368 0
M  V30 16349 C 141.299 -7.64886 -2.9555 0
M  V30 16350 O 140.909 -8.5406 -1.90739 0
M  V30 16351 C 140.419 -6.4116 -2.90739 0
M  V30 16352 C 141.129 -5.55375 -1.86963 0
M  V30 16353 N 141.079 -4.09664 -2.15742 0
M  V30 16354 C 140.929 -3.22231 -1.08477 0
M  V30 16355 O 140.839 -3.68951 0.0600489 0
M  V30 16356 N 140.879 -1.76692 -1.48799 0
M  V30 16357 C 140.979 -1.41695 -2.57602 0
M  V30 16358 N 140.929 -0.107296 -2.75791 0
M  V30 16359 C 141.129 -2.29178 -3.69733 0
M  V30 16360 C 141.179 -3.62753 -3.42653 0
M  V30 16361 H 143.919 -7.45488 -4.45578 0
M  V30 16362 H 144.189 -5.86232 -3.67314 0
M  V30 16363 H 143.322 -7.84508 -2.24507 0
M  V30 16364 H 140.667 -5.73556 -0.888715 0
M  V30 16365 H 140.387 -5.9096 -3.88638 0
M  V30 16366 H 139.396 -6.66053 -2.58894 0
M  V30 16367 H 141.23 -8.16339 -3.92049 0
M  V30 16368 H 141.302 -4.33052 -4.24913 0
M  V30 16369 H 141.2 -1.9103 -4.71577 0
M  V30 16370 H 140.812 0.521221 -1.95056 0
M  V30 16371 H 141.008 0.286429 -3.70695 0
M  V30 16372 P 139.359 -8.7635 -1.60911 0
M  V30 16373 O 139.139 -10.1388 -1.11561 0
M  V30 16374 O 138.569 -8.36503 -2.79617 0
M  V30 16375 O 139.109 -7.71806 -0.42951 0
M  V30 16376 C 140.049 -7.66948 0.673514 0
M  V30 16377 C 139.319 -7.33374 1.95559 0
M  V30 16378 O 139.109 -5.88721 2.00726 0
M  V30 16379 C 137.919 -7.92218 2.1125 0
M  V30 16380 O 137.529 -8.02971 3.47653 0
M  V30 16381 C 137.039 -6.89504 1.41631 0
M  V30 16382 C 137.749 -5.59106 1.75155 0
M  V30 16383 N 137.699 -4.58136 0.662409 0
M  V30 16384 C 137.549 -3.26059 1.02863 0
M  V30 16385 O 137.459 -2.90743 2.19009 0
M  V30 16386 N 137.509 -2.35995 -0.0155585 0
M  V30 16387 C 137.599 -2.65248 -1.35603 0
M  V30 16388 O 137.549 -1.75605 -2.20651 0
M  V30 16389 C 137.749 -4.05747 -1.64698 0
M  V30 16390 C 137.859 -4.42345 -3.09553 0
M  V30 16391 C 137.799 -4.96734 -0.652411 0
M  V30 16392 H 140.54 -8.64917 0.776982 0
M  V30 16393 H 140.809 -6.89974 0.474015 0
M  V30 16394 H 139.942 -7.66548 2.79458 0
M  V30 16395 H 137.287 -5.16076 2.65138 0
M  V30 16396 H 137.008 -7.06433 0.329384 0
M  V30 16397 H 136.016 -6.90829 1.81996 0
M  V30 16398 H 137.85 -8.90774 1.62639 0
M  V30 16399 H 137.921 -6.02181 -0.895285 0
M  V30 16400 H 136.891 -4.80252 -3.45468 0
M  V30 16401 H 138.628 -5.20015 -3.22119 0
M  V30 16402 H 138.14 -3.53269 -3.67833 0
M  V30 16403 H 137.404 -1.39558 0.227499 0
M  V30 16404 P 135.979 -8.03563 3.84925 0
M  V30 16405 O 135.759 -8.85821 5.0569 0
M  V30 16406 O 135.189 -8.41101 2.65469 0
M  V30 16407 O 135.729 -6.4965 4.18908 0
M  V30 16408 C 136.669 -5.80886 5.05289 0
M  V30 16409 C 135.939 -4.78366 5.89277 0
M  V30 16410 O 135.729 -3.58302 5.08433 0
M  V30 16411 C 134.539 -5.16748 6.36559 0
M  V30 16412 O 134.149 -4.45271 7.53232 0
M  V30 16413 C 133.659 -4.74572 5.19863 0
M  V30 16414 C 134.369 -3.49373 4.70338 0
M  V30 16415 N 134.319 -3.31704 3.22876 0
M  V30 16416 C 134.169 -2.03326 2.74871 0
M  V30 16417 O 134.079 -1.06486 3.48076 0
M  V30 16418 N 134.129 -1.91838 1.37456 0
M  V30 16419 C 134.219 -2.94295 0.462035 0
M  V30 16420 O 134.169 -2.71763 -0.752928 0
M  V30 16421 C 134.369 -4.25064 1.05249 0
M  V30 16422 C 134.479 -5.39815 0.095697 0
M  V30 16423 C 134.419 -4.40214 2.39192 0
M  V30 16424 H 137.16 -6.54063 5.71245 0
M  V30 16425 H 137.429 -5.30339 4.43905 0
M  V30 16426 H 136.562 -4.55889 6.76652 0
M  V30 16427 H 133.907 -2.6167 5.17842 0
M  V30 16428 H 133.628 -5.52155 4.41878 0
M  V30 16429 H 132.636 -4.51918 5.53297 0
M  V30 16430 H 134.47 -6.25055 6.55162 0
M  V30 16431 H 134.541 -5.39798 2.81523 0
M  V30 16432 H 133.511 -5.91593 0.0279582 0
M  V30 16433 H 135.248 -6.10038 0.450573 0
M  V30 16434 H 134.76 -5.02007 -0.89937 0
M  V30 16435 H 134.024 -0.995326 1.00435 0
M  V30 16436 P 132.599 -4.23843 7.83734 0
M  V30 16437 O 132.379 -4.19407 9.29784 0
M  V30 16438 O 131.809 -5.24426 7.09156 0
M  V30 16439 O 132.349 -2.79386 7.20852 0
M  V30 16440 C 133.289 -1.7299 7.50419 0
M  V30 16441 C 132.559 -0.41401 7.5797 0
M  V30 16442 O 132.349 0.089787 6.22035 0
M  V30 16443 C 131.159 -0.447224 8.1878 0
M  V30 16444 O 130.769 0.825159 8.71201 0
M  V30 16445 C 130.279 -0.783801 6.99623 0
M  V30 16446 C 130.989 -0.0619192 5.85967 0
M  V30 16447 N 130.939 -0.7859 4.56281 0
M  V30 16448 C 130.789 -0.0359258 3.39981 0
M  V30 16449 O 130.699 1.19723 3.49038 0
M  V30 16450 N 130.739 -0.869151 2.14025 0
M  V30 16451 C 130.839 -2.01207 2.14363 0
M  V30 16452 N 130.789 -2.58978 0.954287 0
M  V30 16453 C 130.989 -2.80817 3.32215 0
M  V30 16454 C 131.039 -2.13785 4.50884 0
M  V30 16455 H 133.779 -1.93401 8.46693 0
M  V30 16456 H 134.049 -1.68181 6.71046 0
M  V30 16457 H 133.182 0.289076 8.15488 0
M  V30 16458 H 130.527 0.927166 5.72947 0
M  V30 16459 H 130.247 -1.87 6.82132 0
M  V30 16460 H 129.256 -0.404009 7.13457 0
M  V30 16461 H 131.09 -1.20599 8.97534 0
M  V30 16462 H 131.162 -2.70295 5.43162 0
M  V30 16463 H 131.06 -3.89465 3.27406 0
M  V30 16464 H 130.672 -2.01616 0.107046 0
M  V30 16465 H 130.868 -3.61403 0.873101 0
M  V30 16466 P 129.219 1.17771 8.83182 0
M  V30 16467 O 128.999 2.07206 9.98732 0
M  V30 16468 O 128.429 -0.0743816 8.81969 0
M  V30 16469 O 128.969 1.97652 7.47304 0
M  V30 16470 C 129.909 3.01133 7.08783 0
M  V30 16471 C 129.179 4.12613 6.37049 0
M  V30 16472 O 128.969 3.72827 4.97879 0
M  V30 16473 C 127.779 4.45085 6.88694 0
M  V30 16474 O 127.389 5.7877 6.5624 0
M  V30 16475 C 126.899 3.47817 6.12078 0
M  V30 16476 C 127.609 3.39414 4.77697 0
M  V30 16477 N 127.559 2.04199 4.15538 0
M  V30 16478 H 130.398 3.41248 7.98759 0
M  V30 16479 H 130.67 2.57728 6.42 0
M  V30 16480 H 129.802 5.02657 6.42673 0
M  V30 16481 H 127.147 4.11708 4.08956 0
M  V30 16482 H 126.867 2.49626 6.61679 0
M  V30 16483 H 125.876 3.8662 6.00862 0
M  V30 16484 H 127.71 4.29991 7.97006 0
M  V30 16485 P 125.839 6.144 6.45285 0
M  V30 16486 O 125.619 7.54673 6.86199 0
M  V30 16487 O 125.049 5.12391 7.179 0
M  V30 16488 O 125.589 5.99158 4.88404 0
M  V30 16489 C 126.529 6.60234 3.96415 0
M  V30 16490 C 125.799 7.08259 2.72856 0
M  V30 16491 O 125.589 5.9427 1.83651 0
M  V30 16492 C 124.399 7.64886 2.9555 0
M  V30 16493 O 124.009 8.53963 1.90717 0
M  V30 16494 C 123.519 6.4116 2.90739 0
M  V30 16495 C 124.229 5.55375 1.86963 0
M  V30 16496 N 124.179 4.09664 2.15742 0
M  V30 16497 H 127.018 7.45574 4.45629 0
M  V30 16498 H 127.29 5.86232 3.67314 0
M  V30 16499 H 126.422 7.84412 2.24479 0
M  V30 16500 P 122.459 8.7635 1.60911 0
M  V30 16501 O 122.239 10.1388 1.11561 0
M  V30 16502 O 121.669 8.36503 2.79617 0
M  V30 16503 O 122.209 7.71806 0.42951 0
M  V30 16504 C 123.149 7.67148 -0.673689 0
M  V30 16505 C 122.419 7.33374 -1.95559 0
M  V30 16506 O 122.209 5.88721 -2.00726 0
M  V30 16507 C 121.019 7.92526 -2.10483 0
M  V30 16508 O 120.629 8.02971 -3.47653 0
M  V30 16509 C 120.139 6.89602 -1.41652 0
M  V30 16510 C 120.849 5.59201 -1.75185 0
M  V30 16511 N 120.799 4.58235 -0.662552 0
M  V30 16512 H 123.638 8.65116 -0.777161 0
M  V30 16513 H 123.91 6.90173 -0.474152 0
M  V30 16514 H 123.042 7.66548 -2.79458 0
M  V30 16515 P 119.079 8.03563 -3.84925 0
M  V30 16516 O 118.859 8.85821 -5.0569 0
M  V30 16517 O 118.289 8.41101 -2.65469 0
M  V30 16518 O 118.829 6.4965 -4.18908 0
M  V30 16519 C 119.769 5.81037 -5.05421 0
M  V30 16520 C 119.039 4.78366 -5.89277 0
M  V30 16521 O 118.829 3.58302 -5.08433 0
M  V30 16522 C 117.639 5.17448 -6.36119 0
M  V30 16523 O 117.249 4.45271 -7.53232 0
M  V30 16524 C 116.759 4.74639 -5.19936 0
M  V30 16525 C 117.469 3.49432 -4.70418 0
M  V30 16526 N 117.419 3.32099 -3.22613 0
M  V30 16527 C 117.499 4.28245 -2.25527 0
M  V30 16528 N 117.429 3.80823 -1.04874 0
M  V30 16529 C 117.279 2.44571 -1.23535 0
M  V30 16530 C 117.149 1.37068 -0.330675 0
M  V30 16531 N 117.139 1.51472 0.990824 0
M  V30 16532 N 117.029 0.138614 -0.848756 0
M  V30 16533 C 117.039 -0.00675923 -2.16999 0
M  V30 16534 N 117.159 0.904372 -3.11122 0
M  V30 16535 C 117.279 2.12707 -2.56212 0
M  V30 16536 H 120.258 6.54213 -5.71376 0
M  V30 16537 H 120.53 5.30936 -4.43503 0
M  V30 16538 H 119.662 4.55889 -6.76652 0
M  V30 16539 H 117.007 2.61715 -5.17932 0
M  V30 16540 H 116.727 5.52155 -4.41878 0
M  V30 16541 H 115.736 4.51981 -5.53374 0
M  V30 16542 H 117.57 6.25124 -6.55234 0
M  V30 16543 H 117.611 5.34372 -2.47488 0
M  V30 16544 H 117.23 2.45153 1.4078 0
M  V30 16545 H 117.041 0.688422 1.59911 0
M  V30 16546 H 116.933 -1.02584 -2.52346 0
M  V30 16547 P 115.699 4.23843 -7.83734 0
M  V30 16548 O 115.479 4.19407 -9.29784 0
M  V30 16549 O 114.909 5.24426 -7.09156 0
M  V30 16550 O 115.449 2.7935 -7.20758 0
M  V30 16551 C 116.389 1.7299 -7.50419 0
M  V30 16552 C 115.659 0.406376 -7.57911 0
M  V30 16553 O 115.449 -0.0897726 -6.21935 0
M  V30 16554 C 114.259 0.447224 -8.1878 0
M  V30 16555 O 113.869 -0.825065 -8.71101 0
M  V30 16556 C 113.379 0.783801 -6.99623 0
M  V30 16557 C 114.089 0.0619192 -5.85967 0
M  V30 16558 N 114.039 0.7859 -4.56281 0
M  V30 16559 C 114.119 2.14308 -4.31736 0
M  V30 16560 N 114.039 2.46106 -3.05116 0
M  V30 16561 C 113.899 1.23422 -2.4014 0
M  V30 16562 C 113.769 0.938381 -1.02409 0
M  V30 16563 O 113.749 1.70876 -0.0650402 0
M  V30 16564 N 113.649 -0.444647 -0.805413 0
M  V30 16565 C 113.649 -1.40829 -1.79435 0
M  V30 16566 N 113.519 -2.67213 -1.38558 0
M  V30 16567 N 113.779 -1.12947 -3.09005 0
M  V30 16568 C 113.899 0.204887 -3.32369 0
M  V30 16569 H 116.878 1.93423 -8.4679 0
M  V30 16570 H 117.15 1.68181 -6.71046 0
M  V30 16571 H 116.282 -0.289041 -8.15388 0
M  V30 16572 H 113.627 -0.927166 -5.72947 0
M  V30 16573 H 113.347 1.87 -6.82132 0
M  V30 16574 H 112.356 0.404009 -7.13457 0
M  V30 16575 H 114.19 1.20612 -8.97633 0
M  V30 16576 H 114.239 2.88284 -5.10874 0
M  V30 16577 H 113.557 -0.755087 0.140242 0
M  V30 16578 H 113.52 -3.43967 -2.0729 0
M  V30 16579 H 113.419 -2.88096 -0.380644 0
M  V30 16580 P 112.319 -1.17771 -8.83182 0
M  V30 16581 O 112.099 -2.07206 -9.98732 0
M  V30 16582 O 111.529 0.0743816 -8.81969 0
M  V30 16583 O 112.069 -1.97652 -7.47304 0
M  V30 16584 C 113.009 -3.01133 -7.08783 0
M  V30 16585 C 112.279 -4.12613 -6.37049 0
M  V30 16586 O 112.069 -3.72827 -4.97879 0
M  V30 16587 C 110.879 -4.45085 -6.88694 0
M  V30 16588 O 110.489 -5.7877 -6.5624 0
M  V30 16589 C 109.999 -3.47817 -6.12078 0
M  V30 16590 C 110.709 -3.39414 -4.77697 0
M  V30 16591 N 110.659 -2.04199 -4.15538 0
M  V30 16592 H 113.498 -3.41248 -7.98759 0
M  V30 16593 H 113.77 -2.57728 -6.42 0
M  V30 16594 H 112.902 -5.02657 -6.42673 0
M  V30 16595 H 110.247 -4.11708 -4.08956 0
M  V30 16596 H 109.967 -2.49626 -6.61679 0
M  V30 16597 H 108.976 -3.8662 -6.00862 0
M  V30 16598 H 110.81 -4.29991 -7.97006 0
M  V30 16599 P 108.939 -6.144 -6.45285 0
M  V30 16600 O 108.719 -7.54673 -6.86199 0
M  V30 16601 O 108.149 -5.12391 -7.179 0
M  V30 16602 O 108.689 -5.99158 -4.88404 0
M  V30 16603 C 109.629 -6.60234 -3.96415 0
M  V30 16604 C 108.899 -7.08259 -2.72856 0
M  V30 16605 O 108.689 -5.9427 -1.83651 0
M  V30 16606 C 107.499 -7.64886 -2.9555 0
M  V30 16607 O 107.109 -8.53963 -1.90717 0
M  V30 16608 C 106.619 -6.4116 -2.90739 0
M  V30 16609 C 107.329 -5.55375 -1.86963 0
M  V30 16610 N 107.279 -4.09448 -2.16152 0
M  V30 16611 H 110.118 -7.45574 -4.45629 0
M  V30 16612 H 110.39 -5.85864 -3.679 0
M  V30 16613 H 109.522 -7.84412 -2.24479 0
M  V30 16614 H 106.867 -5.73457 -0.888562 0
M  V30 16615 H 106.587 -5.90877 -3.88583 0
M  V30 16616 H 105.596 -6.6596 -2.58858 0
M  V30 16617 H 107.43 -8.16339 -3.92049 0
M  V30 16618 P 105.559 -8.7635 -1.60911 0
M  V30 16619 O 105.339 -10.1388 -1.11561 0
M  V30 16620 O 104.769 -8.36503 -2.79617 0
M  V30 16621 O 105.309 -7.71806 -0.42951 0
M  V30 16622 C 106.249 -7.67148 0.673689 0
M  V30 16623 C 105.519 -7.33374 1.95559 0
M  V30 16624 O 105.309 -5.88721 2.00726 0
M  V30 16625 C 104.119 -7.92526 2.10483 0
M  V30 16626 O 103.729 -8.02971 3.47653 0
M  V30 16627 C 103.239 -6.89602 1.41652 0
M  V30 16628 C 103.949 -5.59201 1.75185 0
M  V30 16629 N 103.899 -4.58235 0.662552 0
M  V30 16630 H 106.738 -8.65116 0.777161 0
M  V30 16631 H 107.01 -6.90173 0.474152 0
M  V30 16632 H 106.142 -7.66548 2.79458 0
M  V30 16633 P 102.179 -8.03563 3.84925 0
M  V30 16634 O 101.959 -8.85821 5.0569 0
M  V30 16635 O 101.389 -8.41101 2.65469 0
M  V30 16636 O 101.929 -6.4965 4.18908 0
M  V30 16637 C 102.869 -5.81037 5.05421 0
M  V30 16638 C 102.139 -4.78366 5.89277 0
M  V30 16639 O 101.929 -3.58302 5.08433 0
M  V30 16640 C 100.739 -5.17448 6.36119 0
M  V30 16641 O 100.349 -4.45271 7.53232 0
M  V30 16642 C 99.8594 -4.74639 5.19936 0
M  V30 16643 C 100.569 -3.49432 4.70418 0
M  V30 16644 N 100.519 -3.31776 3.22945 0
M  V30 16645 H 103.358 -6.54213 5.71376 0
M  V30 16646 H 103.63 -5.30492 4.44033 0
M  V30 16647 H 102.762 -4.55889 6.76652 0
M  V30 16648 P 98.7994 -4.23843 7.83734 0
M  V30 16649 O 98.5794 -4.19407 9.29784 0
M  V30 16650 O 98.0094 -5.24426 7.09156 0
M  V30 16651 O 98.5494 -2.7935 7.20758 0
M  V30 16652 C 99.4894 -1.7299 7.50419 0
M  V30 16653 C 98.7594 -0.406376 7.57911 0
M  V30 16654 O 98.5494 0.0897726 6.21935 0
M  V30 16655 C 97.3594 -0.447224 8.1878 0
M  V30 16656 O 96.9694 0.825065 8.71101 0
M  V30 16657 C 96.4794 -0.783801 6.99623 0
M  V30 16658 C 97.1894 -0.0619192 5.85967 0
M  V30 16659 N 97.1394 -0.7859 4.56281 0
M  V30 16660 H 99.9784 -1.93423 8.4679 0
M  V30 16661 H 100.25 -1.68181 6.71046 0
M  V30 16662 H 99.3824 0.289041 8.15388 0
M  V30 16663 P 95.4195 1.17771 8.83182 0
M  V30 16664 O 95.1995 2.07206 9.98732 0
M  V30 16665 O 94.6295 -0.0743816 8.81969 0
M  V30 16666 O 95.1695 1.97652 7.47304 0
M  V30 16667 C 96.1095 3.01133 7.08783 0
M  V30 16668 C 95.3795 4.12613 6.37049 0
M  V30 16669 O 95.1695 3.72827 4.97879 0
M  V30 16670 C 93.9795 4.45085 6.88694 0
M  V30 16671 O 93.5895 5.7877 6.5624 0
M  V30 16672 C 93.0995 3.47817 6.12078 0
M  V30 16673 C 93.8095 3.39414 4.77697 0
M  V30 16674 N 93.7595 2.04615 4.15333 0
M  V30 16675 H 96.5985 3.41248 7.98759 0
M  V30 16676 H 96.8705 2.5837 6.41742 0
M  V30 16677 H 96.0025 5.02657 6.42673 0
M  V30 16678 P 92.0395 6.144 6.45285 0
M  V30 16679 O 91.8195 7.54673 6.86199 0
M  V30 16680 O 91.2495 5.12391 7.179 0
M  V30 16681 O 91.7895 5.99158 4.88404 0
M  V30 16682 C 92.7295 6.60234 3.96415 0
M  V30 16683 C 91.9995 7.08259 2.72856 0
M  V30 16684 O 91.7895 5.9427 1.83651 0
M  V30 16685 C 90.5995 7.64886 2.9555 0
M  V30 16686 O 90.2095 8.53963 1.90717 0
M  V30 16687 C 89.7195 6.4116 2.90739 0
M  V30 16688 C 90.4295 5.55375 1.86963 0
M  V30 16689 N 90.3795 4.09664 2.15742 0
M  V30 16690 H 93.2185 7.45574 4.45629 0
M  V30 16691 H 93.4905 5.86232 3.67314 0
M  V30 16692 H 92.6225 7.84412 2.24479 0
M  V30 16693 P 88.6595 8.7635 1.60911 0
M  V30 16694 O 88.4395 10.1388 1.11561 0
M  V30 16695 O 87.8695 8.36503 2.79617 0
M  V30 16696 O 88.4095 7.71806 0.42951 0
M  V30 16697 C 89.3495 7.67148 -0.673689 0
M  V30 16698 C 88.6195 7.33374 -1.95559 0
M  V30 16699 O 88.4095 5.88721 -2.00726 0
M  V30 16700 C 87.2195 7.92526 -2.10483 0
M  V30 16701 O 86.8295 8.02971 -3.47653 0
M  V30 16702 C 86.3395 6.89602 -1.41652 0
M  V30 16703 C 87.0495 5.59201 -1.75185 0
M  V30 16704 N 86.9995 4.58301 -0.657969 0
M  V30 16705 H 89.8385 8.65116 -0.777161 0
M  V30 16706 H 90.1105 6.9022 -0.46725 0
M  V30 16707 H 89.2425 7.66548 -2.79458 0
M  V30 16708 H 86.5875 5.16165 -2.65183 0
M  V30 16709 H 86.3075 7.06433 -0.329384 0
M  V30 16710 H 85.3165 6.90926 -1.82021 0
M  V30 16711 H 87.1505 8.90873 -1.62657 0
M  V30 16712 P 85.2795 8.03563 -3.84925 0
M  V30 16713 O 85.0595 8.85821 -5.0569 0
M  V30 16714 O 84.4895 8.41101 -2.65469 0
M  V30 16715 O 85.0295 6.4965 -4.18908 0
M  V30 16716 C 85.9695 5.81037 -5.05421 0
M  V30 16717 C 85.2395 4.78366 -5.89277 0
M  V30 16718 O 85.0295 3.58302 -5.08433 0
M  V30 16719 C 83.8395 5.17448 -6.36119 0
M  V30 16720 O 83.4495 4.45271 -7.53232 0
M  V30 16721 C 82.9595 4.74639 -5.19936 0
M  V30 16722 C 83.6695 3.49432 -4.70418 0
M  V30 16723 N 83.6195 3.31776 -3.22945 0
M  V30 16724 H 86.4585 6.54213 -5.71376 0
M  V30 16725 H 86.7305 5.30492 -4.44033 0
M  V30 16726 H 85.8625 4.55889 -6.76652 0
M  V30 16727 P 81.8995 4.23843 -7.83734 0
M  V30 16728 O 81.6795 4.19407 -9.29784 0
M  V30 16729 O 81.1095 5.24426 -7.09156 0
M  V30 16730 O 81.6495 2.7935 -7.20758 0
M  V30 16731 C 82.5895 1.7299 -7.50419 0
M  V30 16732 C 81.8595 0.406376 -7.57911 0
M  V30 16733 O 81.6495 -0.0897726 -6.21935 0
M  V30 16734 C 80.4595 0.447224 -8.1878 0
M  V30 16735 O 80.0695 -0.825065 -8.71101 0
M  V30 16736 C 79.5795 0.783801 -6.99623 0
M  V30 16737 C 80.2895 0.0619192 -5.85967 0
M  V30 16738 N 80.2395 0.7859 -4.56281 0
M  V30 16739 H 83.0785 1.93423 -8.4679 0
M  V30 16740 H 83.3505 1.68181 -6.71046 0
M  V30 16741 H 82.4825 -0.289041 -8.15388 0
M  V30 16742 P 78.5196 -1.17771 -8.83182 0
M  V30 16743 O 78.2996 -2.07206 -9.98732 0
M  V30 16744 O 77.7296 0.0743816 -8.81969 0
M  V30 16745 O 78.2696 -1.97652 -7.47304 0
M  V30 16746 C 79.2096 -3.01133 -7.08783 0
M  V30 16747 C 78.4796 -4.12613 -6.37049 0
M  V30 16748 O 78.2696 -3.72827 -4.97879 0
M  V30 16749 C 77.0796 -4.45085 -6.88694 0
M  V30 16750 O 76.6896 -5.7877 -6.5624 0
M  V30 16751 C 76.1996 -3.47817 -6.12078 0
M  V30 16752 C 76.9096 -3.39414 -4.77697 0
M  V30 16753 N 76.8596 -2.04199 -4.15538 0
M  V30 16754 H 79.6986 -3.41248 -7.98759 0
M  V30 16755 H 79.9706 -2.57728 -6.42 0
M  V30 16756 H 79.1026 -5.02657 -6.42673 0
M  V30 16757 H 76.4476 -4.11708 -4.08956 0
M  V30 16758 H 76.1676 -2.49626 -6.61679 0
M  V30 16759 H 75.1766 -3.8662 -6.00862 0
M  V30 16760 H 77.0106 -4.29991 -7.97006 0
M  V30 16761 P 75.1396 -6.144 -6.45285 0
M  V30 16762 O 74.9196 -7.54673 -6.86199 0
M  V30 16763 O 74.3496 -5.12391 -7.179 0
M  V30 16764 O 74.8896 -5.99158 -4.88404 0
M  V30 16765 C 75.8296 -6.60234 -3.96415 0
M  V30 16766 C 75.0996 -7.08259 -2.72856 0
M  V30 16767 O 74.8896 -5.9427 -1.83651 0
M  V30 16768 C 73.6996 -7.64886 -2.9555 0
M  V30 16769 O 73.3096 -8.53963 -1.90717 0
M  V30 16770 C 72.8196 -6.4116 -2.90739 0
M  V30 16771 C 73.5296 -5.55375 -1.86963 0
M  V30 16772 N 73.4796 -4.09664 -2.15742 0
M  V30 16773 C 73.5596 -3.44381 -3.37233 0
M  V30 16774 N 73.4796 -2.14131 -3.28347 0
M  V30 16775 C 73.3396 -1.90247 -1.91588 0
M  V30 16776 C 73.2096 -0.683992 -1.20892 0
M  V30 16777 O 73.1896 0.46618 -1.64523 0
M  V30 16778 N 73.0896 -0.903396 0.173998 0
M  V30 16779 C 73.0896 -2.14171 0.784879 0
M  V30 16780 N 72.9596 -2.1435 2.11317 0
M  V30 16781 N 73.2196 -3.28784 0.119316 0
M  V30 16782 C 73.3396 -3.0977 -1.22194 0
M  V30 16783 H 76.3186 -7.45574 -4.45629 0
M  V30 16784 H 76.5906 -5.86232 -3.67314 0
M  V30 16785 H 75.7226 -7.84412 -2.24479 0
M  V30 16786 H 73.0676 -5.73556 -0.888715 0
M  V30 16787 H 72.7876 -5.9096 -3.88638 0
M  V30 16788 H 71.7966 -6.66053 -2.58894 0
M  V30 16789 H 73.6306 -8.16429 -3.92093 0
M  V30 16790 H 73.6796 -3.96785 -4.32043 0
M  V30 16791 H 72.9976 -0.0999567 0.761467 0
M  V30 16792 H 72.9606 -3.03436 2.63076 0
M  V30 16793 H 72.8596 -1.25228 2.62233 0
M  V30 16794 P 71.7596 -8.7635 -1.60911 0
M  V30 16795 O 71.5396 -10.1388 -1.11561 0
M  V30 16796 O 70.9696 -8.36503 -2.79617 0
M  V30 16797 O 71.5096 -7.71806 -0.42951 0
M  V30 16798 C 72.4496 -7.67148 0.673689 0
M  V30 16799 C 71.7196 -7.33374 1.95559 0
M  V30 16800 O 71.5096 -5.88721 2.00726 0
M  V30 16801 C 70.3196 -7.92526 2.10483 0
M  V30 16802 O 69.9296 -8.02971 3.47653 0
M  V30 16803 C 69.4396 -6.89602 1.41652 0
M  V30 16804 C 70.1496 -5.59201 1.75185 0
M  V30 16805 N 70.0996 -4.58301 0.657969 0
M  V30 16806 H 72.9386 -8.65116 0.777161 0
M  V30 16807 H 73.2106 -6.9022 0.46725 0
M  V30 16808 H 72.3426 -7.66548 2.79458 0
M  V30 16809 H 69.6876 -5.16165 2.65183 0
M  V30 16810 H 69.4076 -7.06433 0.329384 0
M  V30 16811 H 68.4166 -6.90926 1.82021 0
M  V30 16812 H 70.2506 -8.90873 1.62657 0
M  V30 16813 P 68.3796 -8.03563 3.84925 0
M  V30 16814 O 68.1596 -8.85821 5.0569 0
M  V30 16815 O 67.5896 -8.41101 2.65469 0
M  V30 16816 O 68.1296 -6.4965 4.18908 0
M  V30 16817 C 69.0696 -5.81037 5.05421 0
M  V30 16818 C 68.3396 -4.78366 5.89277 0
M  V30 16819 O 68.1296 -3.58302 5.08433 0
M  V30 16820 C 66.9396 -5.17448 6.36119 0
M  V30 16821 O 66.5496 -4.45271 7.53232 0
M  V30 16822 C 66.0596 -4.74639 5.19936 0
M  V30 16823 C 66.7696 -3.49432 4.70418 0
M  V30 16824 N 66.7196 -3.31776 3.22945 0
M  V30 16825 H 69.5586 -6.54213 5.71376 0
M  V30 16826 H 69.8306 -5.30492 4.44033 0
M  V30 16827 H 68.9626 -4.55889 6.76652 0
M  V30 16828 P 64.9996 -4.23843 7.83734 0
M  V30 16829 O 64.7796 -4.19407 9.29784 0
M  V30 16830 O 64.2096 -5.24426 7.09156 0
M  V30 16831 O 64.7496 -2.7935 7.20758 0
M  V30 16832 C 65.6896 -1.7299 7.50419 0
M  V30 16833 C 64.9596 -0.406376 7.57911 0
M  V30 16834 O 64.7496 0.0897726 6.21935 0
M  V30 16835 C 63.5596 -0.447224 8.1878 0
M  V30 16836 O 63.1696 0.825065 8.71101 0
M  V30 16837 C 62.6796 -0.783801 6.99623 0
M  V30 16838 C 63.3896 -0.0619192 5.85967 0
M  V30 16839 N 63.3396 -0.7859 4.56281 0
M  V30 16840 H 66.1786 -1.93423 8.4679 0
M  V30 16841 H 66.4506 -1.68181 6.71046 0
M  V30 16842 H 65.5826 0.289041 8.15388 0
M  V30 16843 P 61.6197 1.17771 8.83182 0
M  V30 16844 O 61.3997 2.07206 9.98732 0
M  V30 16845 O 60.8297 -0.0743816 8.81969 0
M  V30 16846 O 61.3697 1.97652 7.47304 0
M  V30 16847 C 62.3097 3.01133 7.08783 0
M  V30 16848 C 61.5797 4.12613 6.37049 0
M  V30 16849 O 61.3697 3.72827 4.97879 0
M  V30 16850 C 60.1797 4.45085 6.88694 0
M  V30 16851 O 59.7897 5.7877 6.5624 0
M  V30 16852 C 59.2997 3.47817 6.12078 0
M  V30 16853 C 60.0097 3.39414 4.77697 0
M  V30 16854 N 59.9597 2.04615 4.15333 0
M  V30 16855 H 62.7987 3.41248 7.98759 0
M  V30 16856 H 63.0707 2.5837 6.41742 0
M  V30 16857 H 62.2027 5.02657 6.42673 0
M  V30 16858 P 58.2397 6.144 6.45285 0
M  V30 16859 O 58.0197 7.54673 6.86199 0
M  V30 16860 O 57.4497 5.12391 7.179 0
M  V30 16861 O 57.9897 5.99236 4.88467 0
M  V30 16862 C 58.9297 6.60234 3.96415 0
M  V30 16863 C 58.1997 7.08079 2.736 0
M  V30 16864 O 57.9897 5.94365 1.8368 0
M  V30 16865 C 56.7997 7.64886 2.9555 0
M  V30 16866 O 56.4097 8.5406 1.90739 0
M  V30 16867 C 55.9197 6.4116 2.90739 0
M  V30 16868 C 56.6297 5.55375 1.86963 0
M  V30 16869 N 56.5797 4.09664 2.15742 0
M  V30 16870 C 56.4297 3.22231 1.08477 0
M  V30 16871 O 56.3397 3.68951 -0.0600489 0
M  V30 16872 N 56.3797 1.76692 1.48799 0
M  V30 16873 C 56.4797 1.41695 2.57602 0
M  V30 16874 N 56.4297 0.107296 2.75791 0
M  V30 16875 C 56.6297 2.29178 3.69733 0
M  V30 16876 C 56.6797 3.62753 3.42653 0
M  V30 16877 H 59.4197 7.45488 4.45578 0
M  V30 16878 H 59.6897 5.86232 3.67314 0
M  V30 16879 H 58.8227 7.84508 2.24507 0
M  V30 16880 H 56.1677 5.73556 0.888715 0
M  V30 16881 H 55.8877 5.9096 3.88638 0
M  V30 16882 H 54.8967 6.66053 2.58894 0
M  V30 16883 H 56.7307 8.16339 3.92049 0
M  V30 16884 H 56.8027 4.33052 4.24913 0
M  V30 16885 H 56.7007 1.9103 4.71577 0
M  V30 16886 H 56.3127 -0.521221 1.95056 0
M  V30 16887 H 56.5087 -0.286429 3.70695 0
M  V30 16888 P 54.8597 8.7635 1.60911 0
M  V30 16889 O 54.6397 10.1388 1.11561 0
M  V30 16890 O 54.0697 8.36503 2.79617 0
M  V30 16891 O 54.6097 7.71806 0.42951 0
M  V30 16892 C 55.5497 7.66948 -0.673514 0
M  V30 16893 C 54.8197 7.33374 -1.95559 0
M  V30 16894 O 54.6097 5.88721 -2.00726 0
M  V30 16895 C 53.4197 7.92218 -2.1125 0
M  V30 16896 O 53.0297 8.02971 -3.47653 0
M  V30 16897 C 52.5397 6.89504 -1.41631 0
M  V30 16898 C 53.2497 5.59106 -1.75155 0
M  V30 16899 N 53.1997 4.58136 -0.662409 0
M  V30 16900 C 53.0497 3.26059 -1.02863 0
M  V30 16901 O 52.9597 2.90743 -2.19009 0
M  V30 16902 N 53.0097 2.35995 0.0155585 0
M  V30 16903 C 53.0997 2.65248 1.35603 0
M  V30 16904 C 53.2497 4.05747 1.64698 0
M  V30 16905 C 53.2997 4.96734 0.652411 0
M  V30 16906 H 56.0407 8.64917 -0.776982 0
M  V30 16907 H 56.3097 6.89974 -0.474015 0
M  V30 16908 H 55.4427 7.66548 -2.79458 0
M  V30 16909 H 52.7877 5.16076 -2.65138 0
M  V30 16910 H 52.5087 7.06433 -0.329384 0
M  V30 16911 H 51.5167 6.90829 -1.81996 0
M  V30 16912 H 53.3507 8.90774 -1.62639 0
M  V30 16913 H 53.4217 6.02181 0.895285 0
M  V30 16914 P 51.4797 8.03563 -3.84925 0
M  V30 16915 O 51.2597 8.85821 -5.0569 0
M  V30 16916 O 50.6897 8.41101 -2.65469 0
M  V30 16917 O 51.2297 6.4965 -4.18908 0
M  V30 16918 C 52.1697 5.81037 -5.05421 0
M  V30 16919 C 51.4397 4.78366 -5.89277 0
M  V30 16920 O 51.2297 3.58302 -5.08433 0
M  V30 16921 C 50.0397 5.17448 -6.36119 0
M  V30 16922 O 49.6497 4.45271 -7.53232 0
M  V30 16923 C 49.1597 4.74639 -5.19936 0
M  V30 16924 C 49.8697 3.49432 -4.70418 0
M  V30 16925 N 49.8197 3.31776 -3.22945 0
M  V30 16926 H 52.6587 6.54213 -5.71376 0
M  V30 16927 H 52.9307 5.30492 -4.44033 0
M  V30 16928 H 52.0627 4.55889 -6.76652 0
M  V30 16929 P 48.0997 4.23843 -7.83734 0
M  V30 16930 O 47.8797 4.19407 -9.29784 0
M  V30 16931 O 47.3097 5.24426 -7.09156 0
M  V30 16932 O 47.8497 2.7935 -7.20758 0
M  V30 16933 C 48.7897 1.7299 -7.50419 0
M  V30 16934 C 48.0597 0.406376 -7.57911 0
M  V30 16935 O 47.8497 -0.0897726 -6.21935 0
M  V30 16936 C 46.6597 0.447224 -8.1878 0
M  V30 16937 O 46.2697 -0.825065 -8.71101 0
M  V30 16938 C 45.7797 0.783801 -6.99623 0
M  V30 16939 C 46.4897 0.0619192 -5.85967 0
M  V30 16940 N 46.4397 0.790462 -4.56202 0
M  V30 16941 H 49.2787 1.93423 -8.4679 0
M  V30 16942 H 49.5507 1.68852 -6.70877 0
M  V30 16943 H 48.6827 -0.289041 -8.15388 0
M  V30 16944 H 46.0277 -0.927006 -5.72848 0
M  V30 16945 H 45.7477 1.86973 -6.82036 0
M  V30 16946 H 44.7567 0.403953 -7.13357 0
M  V30 16947 H 46.5907 1.20599 -8.97534 0
M  V30 16948 P 44.7198 -1.17771 -8.83182 0
M  V30 16949 O 44.4998 -2.07206 -9.98732 0
M  V30 16950 O 43.9298 0.0743816 -8.81969 0
M  V30 16951 O 44.4698 -1.97652 -7.47304 0
M  V30 16952 C 45.4098 -3.01133 -7.08783 0
M  V30 16953 C 44.6798 -4.12613 -6.37049 0
M  V30 16954 O 44.4698 -3.72827 -4.97879 0
M  V30 16955 C 43.2798 -4.45085 -6.88694 0
M  V30 16956 O 42.8898 -5.7877 -6.5624 0
M  V30 16957 C 42.3998 -3.47817 -6.12078 0
M  V30 16958 C 43.1098 -3.39414 -4.77697 0
M  V30 16959 N 43.0598 -2.04615 -4.15333 0
M  V30 16960 H 45.8988 -3.41248 -7.98759 0
M  V30 16961 H 46.1708 -2.5837 -6.41742 0
M  V30 16962 H 45.3028 -5.02657 -6.42673 0
M  V30 16963 P 41.3398 -6.144 -6.45285 0
M  V30 16964 O 41.1198 -7.54673 -6.86199 0
M  V30 16965 O 40.5498 -5.12391 -7.179 0
M  V30 16966 O 41.0898 -5.99158 -4.88404 0
M  V30 16967 C 42.0298 -6.60234 -3.96415 0
M  V30 16968 C 41.2998 -7.08259 -2.72856 0
M  V30 16969 O 41.0898 -5.9427 -1.83651 0
M  V30 16970 C 39.8998 -7.64886 -2.9555 0
M  V30 16971 O 39.5098 -8.53963 -1.90717 0
M  V30 16972 C 39.0198 -6.4116 -2.90739 0
M  V30 16973 C 39.7298 -5.55375 -1.86963 0
M  V30 16974 N 39.6798 -4.09664 -2.15742 0
M  V30 16975 H 42.5188 -7.45574 -4.45629 0
M  V30 16976 H 42.7908 -5.86232 -3.67314 0
M  V30 16977 H 41.9228 -7.84412 -2.24479 0
M  V30 16978 P 37.9598 -8.7635 -1.60911 0
M  V30 16979 O 37.7398 -10.1388 -1.11561 0
M  V30 16980 O 37.1698 -8.36503 -2.79617 0
M  V30 16981 O 37.7098 -7.71806 -0.42951 0
M  V30 16982 C 38.6498 -7.67148 0.673689 0
M  V30 16983 C 37.9198 -7.33374 1.95559 0
M  V30 16984 O 37.7098 -5.88721 2.00726 0
M  V30 16985 C 36.5198 -7.92526 2.10483 0
M  V30 16986 O 36.1298 -8.02971 3.47653 0
M  V30 16987 C 35.6398 -6.89602 1.41652 0
M  V30 16988 C 36.3498 -5.59201 1.75185 0
M  V30 16989 N 36.2998 -4.58235 0.662552 0
M  V30 16990 H 39.1388 -8.65116 0.777161 0
M  V30 16991 H 39.4108 -6.90173 0.474152 0
M  V30 16992 H 38.5428 -7.66548 2.79458 0
M  V30 16993 P 34.5798 -8.03563 3.84925 0
M  V30 16994 O 34.3598 -8.85821 5.0569 0
M  V30 16995 O 33.7898 -8.41101 2.65469 0
M  V30 16996 O 34.3298 -6.49734 4.18962 0
M  V30 16997 C 35.2698 -5.81037 5.05421 0
M  V30 16998 C 34.5398 -4.79018 5.88876 0
M  V30 16999 O 34.3298 -3.58359 5.08515 0
M  V30 17000 C 33.1398 -5.17448 6.36119 0
M  V30 17001 O 32.7498 -4.45322 7.53318 0
M  V30 17002 C 32.2598 -4.74639 5.19936 0
M  V30 17003 C 32.9698 -3.49432 4.70418 0
M  V30 17004 N 32.9198 -3.31776 3.22945 0
M  V30 17005 C 32.7698 -2.02742 2.72939 0
M  V30 17006 O 32.6798 -1.08301 3.52749 0
M  V30 17007 N 32.7198 -1.96117 1.22063 0
M  V30 17008 C 32.8198 -2.8878 0.551566 0
M  V30 17009 N 32.7698 -2.65609 -0.750198 0
M  V30 17010 C 32.9698 -4.22457 1.03707 0
M  V30 17011 C 33.0198 -4.37979 2.39113 0
M  V30 17012 H 35.7598 -6.54138 5.7131 0
M  V30 17013 H 36.0298 -5.30492 4.44033 0
M  V30 17014 H 35.1628 -4.55945 6.76735 0
M  V30 17015 H 32.5078 -2.6176 5.18021 0
M  V30 17016 H 32.2278 -5.52233 4.41941 0
M  V30 17017 H 31.2368 -4.52045 5.53452 0
M  V30 17018 H 33.0708 -6.25124 6.55234 0
M  V30 17019 H 33.1428 -5.37936 2.80552 0
M  V30 17020 H 33.0408 -5.07528 0.359553 0
M  V30 17021 H 32.6528 -1.69403 -1.09847 0
M  V30 17022 H 32.8488 -3.43701 -1.41792 0
M  V30 17023 P 31.1998 -4.23843 7.83734 0
M  V30 17024 O 30.9798 -4.19407 9.29784 0
M  V30 17025 O 30.4098 -5.24426 7.09156 0
M  V30 17026 O 30.9498 -2.7935 7.20758 0
M  V30 17027 C 31.8898 -1.7299 7.50419 0
M  V30 17028 C 31.1598 -0.406376 7.57911 0
M  V30 17029 O 30.9498 0.0897726 6.21935 0
M  V30 17030 C 29.7598 -0.447224 8.1878 0
M  V30 17031 O 29.3698 0.825065 8.71101 0
M  V30 17032 C 28.8798 -0.783801 6.99623 0
M  V30 17033 C 29.5898 -0.0619192 5.85967 0
M  V30 17034 N 29.5398 -0.7859 4.56281 0
M  V30 17035 H 32.3788 -1.93423 8.4679 0
M  V30 17036 H 32.6508 -1.68181 6.71046 0
M  V30 17037 H 31.7828 0.289041 8.15388 0
M  V30 17038 P 27.8199 1.17771 8.83182 0
M  V30 17039 O 27.5999 2.07206 9.98732 0
M  V30 17040 O 27.0299 -0.0743816 8.81969 0
M  V30 17041 O 27.5699 1.97678 7.474 0
M  V30 17042 C 28.5099 3.01133 7.08783 0
M  V30 17043 C 27.7799 4.1203 6.37546 0
M  V30 17044 O 27.5699 3.72887 4.9796 0
M  V30 17045 C 26.3799 4.45085 6.88694 0
M  V30 17046 O 25.9899 5.78836 6.56315 0
M  V30 17047 C 25.4999 3.47817 6.12078 0
M  V30 17048 C 26.2099 3.39414 4.77697 0
M  V30 17049 N 26.1599 2.04615 4.15333 0
M  V30 17050 C 26.0099 1.96929 2.77162 0
M  V30 17051 O 25.9199 3.02017 2.12006 0
M  V30 17052 N 25.9599 0.55485 2.24237 0
M  V30 17053 C 26.0599 -0.367808 2.9169 0
M  V30 17054 N 26.0099 -1.53426 2.29427 0
M  V30 17055 C 26.2099 -0.319148 4.33828 0
M  V30 17056 C 26.2599 0.920672 4.90433 0
M  V30 17057 H 28.9999 3.41209 7.98667 0
M  V30 17058 H 29.2699 2.5837 6.41742 0
M  V30 17059 H 28.4029 5.02718 6.42752 0
M  V30 17060 H 25.7479 4.11779 4.09026 0
M  V30 17061 H 25.4679 2.49661 6.61772 0
M  V30 17062 H 24.4769 3.86674 6.00946 0
M  V30 17063 H 26.3109 4.29991 7.97006 0
M  V30 17064 H 26.3829 1.00589 5.98303 0
M  V30 17065 H 26.2809 -1.22639 4.93799 0
M  V30 17066 H 25.8929 -1.56819 1.27167 0
M  V30 17067 H 26.0889 -2.41062 2.83063 0
M  V30 17068 P 24.4399 6.144 6.45285 0
M  V30 17069 O 24.2199 7.54673 6.86199 0
M  V30 17070 O 23.6499 5.12391 7.179 0
M  V30 17071 O 24.1899 5.99236 4.88467 0
M  V30 17072 C 25.1299 6.60234 3.96415 0
M  V30 17073 C 24.3999 7.08079 2.736 0
M  V30 17074 O 24.1899 5.94365 1.8368 0
M  V30 17075 C 22.9999 7.64886 2.9555 0
M  V30 17076 O 22.6099 8.5406 1.90739 0
M  V30 17077 C 22.1199 6.4116 2.90739 0
M  V30 17078 C 22.8299 5.55375 1.86963 0
M  V30 17079 N 22.7799 4.09664 2.15742 0
M  V30 17080 C 22.6299 3.22231 1.08477 0
M  V30 17081 O 22.5399 3.68951 -0.0600489 0
M  V30 17082 N 22.5799 1.76692 1.48799 0
M  V30 17083 C 22.6799 1.41695 2.57602 0
M  V30 17084 N 22.6299 0.107296 2.75791 0
M  V30 17085 C 22.8299 2.29178 3.69733 0
M  V30 17086 C 22.8799 3.62753 3.42653 0
M  V30 17087 H 25.6199 7.45488 4.45578 0
M  V30 17088 H 25.8899 5.86232 3.67314 0
M  V30 17089 H 25.0229 7.84508 2.24507 0
M  V30 17090 H 22.3679 5.73556 0.888715 0
M  V30 17091 H 22.0879 5.9096 3.88638 0
M  V30 17092 H 21.0969 6.66053 2.58894 0
M  V30 17093 H 22.9309 8.16339 3.92049 0
M  V30 17094 H 23.0029 4.33052 4.24913 0
M  V30 17095 H 22.9009 1.9103 4.71577 0
M  V30 17096 H 22.5129 -0.521221 1.95056 0
M  V30 17097 H 22.7089 -0.286429 3.70695 0
M  V30 17098 P 21.0599 8.7635 1.60911 0
M  V30 17099 O 20.8399 10.1388 1.11561 0
M  V30 17100 O 20.2699 8.36503 2.79617 0
M  V30 17101 O 20.8099 7.71806 0.42951 0
M  V30 17102 C 21.7499 7.67148 -0.673689 0
M  V30 17103 C 21.0199 7.33374 -1.95559 0
M  V30 17104 O 20.8099 5.88721 -2.00726 0
M  V30 17105 C 19.6199 7.92526 -2.10483 0
M  V30 17106 O 19.2299 8.02971 -3.47653 0
M  V30 17107 C 18.7399 6.89602 -1.41652 0
M  V30 17108 C 19.4499 5.59201 -1.75185 0
M  V30 17109 N 19.3999 4.58235 -0.662552 0
M  V30 17110 H 22.2389 8.65116 -0.777161 0
M  V30 17111 H 22.5109 6.90173 -0.474152 0
M  V30 17112 H 21.6429 7.66548 -2.79458 0
M  V30 17113 P 17.6799 8.03563 -3.84925 0
M  V30 17114 O 17.4599 8.85821 -5.0569 0
M  V30 17115 O 16.8899 8.41101 -2.65469 0
M  V30 17116 O 17.4299 6.4965 -4.18908 0
M  V30 17117 C 18.3699 5.81037 -5.05421 0
M  V30 17118 C 17.6399 4.78366 -5.89277 0
M  V30 17119 O 17.4299 3.58302 -5.08433 0
M  V30 17120 C 16.2399 5.17448 -6.36119 0
M  V30 17121 O 15.8499 4.45271 -7.53232 0
M  V30 17122 C 15.3599 4.74639 -5.19936 0
M  V30 17123 C 16.0699 3.49432 -4.70418 0
M  V30 17124 N 16.0199 3.31776 -3.22945 0
M  V30 17125 H 18.8589 6.54213 -5.71376 0
M  V30 17126 H 19.1309 5.30492 -4.44033 0
M  V30 17127 H 18.2629 4.55889 -6.76652 0
M  V30 17128 P 14.2999 4.23843 -7.83734 0
M  V30 17129 O 14.0799 4.19407 -9.29784 0
M  V30 17130 O 13.5099 5.24426 -7.09156 0
M  V30 17131 O 14.0499 2.79386 -7.20852 0
M  V30 17132 C 14.9899 1.7299 -7.50419 0
M  V30 17133 C 14.2599 0.41401 -7.5797 0
M  V30 17134 O 14.0499 -0.089787 -6.22035 0
M  V30 17135 C 12.8599 0.447224 -8.1878 0
M  V30 17136 O 12.4699 -0.825159 -8.71201 0
M  V30 17137 C 11.9799 0.783801 -6.99623 0
M  V30 17138 C 12.6899 0.0619192 -5.85967 0
M  V30 17139 N 12.6399 0.7859 -4.56281 0
M  V30 17140 C 12.4899 0.0359258 -3.39981 0
M  V30 17141 O 12.3999 -1.19723 -3.49038 0
M  V30 17142 N 12.4399 0.869151 -2.14025 0
M  V30 17143 C 12.5399 2.01207 -2.14363 0
M  V30 17144 N 12.4899 2.58978 -0.954287 0
M  V30 17145 C 12.6899 2.80817 -3.32215 0
M  V30 17146 C 12.7399 2.13785 -4.50884 0
M  V30 17147 H 15.4799 1.93401 -8.46693 0
M  V30 17148 H 15.7499 1.68181 -6.71046 0
M  V30 17149 H 14.8829 -0.289076 -8.15488 0
M  V30 17150 H 12.2279 -0.927166 -5.72947 0
M  V30 17151 H 11.9479 1.87 -6.82132 0
M  V30 17152 H 10.9569 0.404009 -7.13457 0
M  V30 17153 H 12.7909 1.20599 -8.97534 0
M  V30 17154 H 12.8629 2.70295 -5.43162 0
M  V30 17155 H 12.7609 3.89465 -3.27406 0
M  V30 17156 H 12.3729 2.01616 -0.107046 0
M  V30 17157 H 12.5689 3.61403 -0.873101 0
M  V30 17158 P 10.92 -1.17771 -8.83182 0
M  V30 17159 O 10.7 -2.07206 -9.98732 0
M  V30 17160 O 10.13 0.0743816 -8.81969 0
M  V30 17161 O 10.67 -1.97652 -7.47304 0
M  V30 17162 C 11.61 -3.01133 -7.08783 0
M  V30 17163 C 10.88 -4.12613 -6.37049 0
M  V30 17164 O 10.67 -3.72827 -4.97879 0
M  V30 17165 C 9.47996 -4.45085 -6.88694 0
M  V30 17166 O 9.08996 -5.7877 -6.5624 0
M  V30 17167 C 8.59996 -3.47817 -6.12078 0
M  V30 17168 C 9.30996 -3.39414 -4.77697 0
M  V30 17169 N 9.25996 -2.04615 -4.15333 0
M  V30 17170 H 12.099 -3.41248 -7.98759 0
M  V30 17171 H 12.371 -2.5837 -6.41742 0
M  V30 17172 H 11.503 -5.02657 -6.42673 0
M  V30 17173 P 7.53998 -6.144 -6.45285 0
M  V30 17174 O 7.31998 -7.54673 -6.86199 0
M  V30 17175 O 6.74998 -5.12391 -7.179 0
M  V30 17176 O 7.28998 -5.99158 -4.88404 0
M  V30 17177 C 8.22998 -6.60234 -3.96415 0
M  V30 17178 C 7.49998 -7.08259 -2.72856 0
M  V30 17179 O 7.28998 -5.9427 -1.83651 0
M  V30 17180 C 6.09998 -7.64886 -2.9555 0
M  V30 17181 O 5.70998 -8.53963 -1.90717 0
M  V30 17182 C 5.21998 -6.4116 -2.90739 0
M  V30 17183 C 5.92998 -5.55375 -1.86963 0
M  V30 17184 N 5.87998 -4.09664 -2.15742 0
M  V30 17185 H 8.71898 -7.45574 -4.45629 0
M  V30 17186 H 8.99098 -5.86232 -3.67314 0
M  V30 17187 H 8.12298 -7.84412 -2.24479 0
M  V30 17188 P 4.16 -8.7635 -1.60911 0
M  V30 17189 O 3.94 -10.1388 -1.11561 0
M  V30 17190 O 3.37 -8.36503 -2.79617 0
M  V30 17191 O 3.91 -7.71806 -0.42951 0
M  V30 17192 C 4.85 -7.67148 0.673689 0
M  V30 17193 C 4.12 -7.33374 1.95559 0
M  V30 17194 O 3.91 -5.88721 2.00726 0
M  V30 17195 C 2.72 -7.92526 2.10483 0
M  V30 17196 O 2.33 -8.02971 3.47653 0
M  V30 17197 C 1.84 -6.89602 1.41652 0
M  V30 17198 C 2.55 -5.59201 1.75185 0
M  V30 17199 N 2.5 -4.58235 0.662552 0
M  V30 17200 H 5.339 -8.65116 0.777161 0
M  V30 17201 H 5.611 -6.90173 0.474152 0
M  V30 17202 H 4.743 -7.66548 2.79458 0
M  V30 17203 H 1.613 -8.66322 3.55694 0
M  V30 END ATOM
M  V30 BEGIN BOND
M  V30 END BOND
M  V30 END CTAB
M  END
$$$$
