drugbank_target|P52687 Sensor histidine kinase CitA (DB04414; DB04494)
 OpenBabel12092120023D

  0  0  0     0  0            999 V3000
M  V30 BEGIN CTAB
M  V30 COUNTS 8761 8838 0 0 0
M  V30 BEGIN ATOM
M  V30 1 H -0.908 1.98254 -0.117106 0
M  V30 2 N 0 1.576 0 0
M  V30 3 C 0.933 2.03868 1.02534 0
M  V30 4 C 1.911 0.928543 1.3348 0
M  V30 5 O 3.095 1.19667 1.45644 0
M  V30 6 C 0.222 2.43627 2.35294 0
M  V30 7 C -0.732 3.65373 2.2001 0
M  V30 8 S 0.101 5.13292 1.52614 0
M  V30 9 C 1.257 5.56322 2.86805 0
M  V30 10 H 1.49 2.90518 0.631377 0
M  V30 11 H -0.977 1.52953 0.210867 0
M  V30 12 H 0.981 2.67203 3.11629 0
M  V30 13 H -0.358 1.57376 2.7183 0
M  V30 14 H -1.165 3.90944 3.18086 0
M  V30 15 H -1.563 3.418 1.51819 0
M  V30 16 H 0.729 5.58782 3.83104 0
M  V30 17 H 1.672 6.56266 2.65933 0
M  V30 18 H 2.08 4.83886 2.90714 0
M  V30 19 N 1.4781 -0.272755 1.55222 0
M  V30 20 C 2.7031 -1.02683 1.80197 0
M  V30 21 C 3.1281 -1.79142 0.573551 0
M  V30 22 O 2.4861 -1.74917 -0.476849 0
M  V30 23 C 2.5341 -1.9609 3.02624 0
M  V30 24 O 1.6381 -3.04863 2.77727 0
M  V30 25 H 0.9791 -0.293557 0.595584 0
M  V30 26 H 3.5091 -0.30159 2.02365 0
M  V30 27 H 3.5191 -2.38039 3.31363 0
M  V30 28 H 2.1941 -1.39851 3.91682 0
M  V30 29 H 0.7711 -2.67228 2.60084 0
M  V30 30 N 2.9562 -1.48159 -0.537278 0
M  V30 31 C 4.2052 -1.5506 -1.28993 0
M  V30 32 C 4.5182 -0.226211 -1.94288 0
M  V30 33 O 5.7242 -0.173395 -2.70946 0
M  V30 34 C 4.1802 -2.73429 -2.34018 0
M  V30 35 C 3.7882 -4.1248 -1.74825 0
M  V30 36 C 5.5322 -2.89638 -3.10339 0
M  V30 37 C 3.4392 -5.22121 -2.77747 0
M  V30 38 H 2.3692 -0.577231 -0.485098 0
M  V30 39 H 5.0202 -1.74478 -0.568317 0
M  V30 40 H 3.4022 -2.47431 -3.09182 0
M  V30 41 H 4.5762 -4.48466 -1.05899 0
M  V30 42 H 2.8912 -4.01327 -1.11022 0
M  V30 43 H 5.4882 -3.68718 -3.87235 0
M  V30 44 H 5.8312 -1.9882 -3.65754 0
M  V30 45 H 6.3642 -3.15502 -2.42288 0
M  V30 46 H 3.1032 -6.1488 -2.27161 0
M  V30 47 H 2.6232 -4.90631 -3.45024 0
M  V30 48 H 4.3022 -5.49924 -3.4087 0
M  V30 49 N 4.4343 0.785586 -1.36625 0
M  V30 50 C 5.6643 1.5722 -1.34036 0
M  V30 51 C 6.0723 1.89033 0.0795062 0
M  V30 52 O 5.4153 1.50881 1.04789 0
M  V30 53 C 5.4773 2.91759 -2.10041 0
M  V30 54 C 5.1413 2.82654 -3.59104 0
M  V30 55 C 6.1383 2.54634 -4.53274 0
M  V30 56 C 3.8233 3.01111 -4.02042 0
M  V30 57 C 5.8173 2.45177 -5.88359 0
M  V30 58 C 3.5043 2.91276 -5.37216 0
M  V30 59 C 4.5023 2.63348 -6.30188 0
M  V30 60 O 4.1903 2.53514 -7.6288 0
M  V30 61 H 3.9223 0.494177 -0.461265 0
M  V30 62 H 6.4763 0.982632 -1.8037 0
M  V30 63 H 4.7063 3.52781 -1.58375 0
M  V30 64 H 6.3953 3.53059 -2.00261 0
M  V30 65 H 7.1613 2.40073 -4.21414 0
M  V30 66 H 3.0403 3.21854 -3.30047 0
M  V30 67 H 6.5843 2.23299 -6.60896 0
M  V30 68 H 2.4813 3.054 -5.68684 0
M  V30 69 H 3.2493 2.68967 -7.73045 0
M  V30 70 N 5.9124 1.20967 1.01018 0
M  V30 71 C 7.3234 1.02319 1.56165 0
M  V30 72 C 7.6744 -0.418546 1.91684 0
M  V30 73 O 6.7994 -1.30096 1.72928 0
M  V30 74 C 7.3944 1.85109 2.8376 0
M  V30 75 C 5.9534 1.70809 3.35412 0
M  V30 76 C 5.1004 1.82643 2.08655 0
M  V30 77 H 8.0514 1.35065 0.833255 0
M  V30 78 H 8.0724 1.35827 3.55431 0
M  V30 79 H 7.5844 2.90035 2.57878 0
M  V30 80 H 5.6854 0.685464 3.66241 0
M  V30 81 H 5.7984 2.52467 4.07182 0
M  V30 82 H 4.1624 1.25896 2.21409 0
M  V30 83 H 4.9454 2.89066 1.85191 0
M  V30 84 N 7.3905 -1.2043 1.01659 0
M  V30 85 C 8.3235 -2.21924 0.531521 0
M  V30 86 C 9.3015 -1.57054 -0.421032 0
M  V30 87 O 10.4855 -1.85389 -0.341035 0
M  V30 88 C 7.6125 -3.37942 -0.226496 0
M  V30 89 C 6.6585 -4.21115 0.67561 0
M  V30 90 S 7.4915 -4.90674 2.14475 0
M  V30 91 C 8.6475 -6.10113 1.3969 0
M  V30 92 H 8.8805 -2.62725 1.3915 0
M  V30 93 H 6.4135 -1.30481 0.825479 0
M  V30 94 H 8.3715 -4.05196 -0.657738 0
M  V30 95 H 7.0325 -2.956 -1.06205 0
M  V30 96 H 6.2255 -5.03918 0.091108 0
M  V30 97 H 5.8275 -3.59115 1.04463 0
M  V30 98 H 8.1195 -6.7411 0.676897 0
M  V30 99 H 9.0625 -6.73022 2.20107 0
M  V30 100 H 9.4705 -5.57283 0.899786 0
M  V30 101 N 8.8686 -0.792821 -1.36206 0
M  V30 102 C 10.0986 -0.378275 -2.03107 0
M  V30 103 C 10.5066 1.01119 -1.59911 0
M  V30 104 O 9.8496 1.66052 -0.785658 0
M  V30 105 C 9.9116 -0.366535 -3.57627 0
M  V30 106 C 9.5756 -1.70416 -4.24037 0
M  V30 107 C 10.5726 -2.6602 -4.46687 0
M  V30 108 C 8.2576 -1.98439 -4.6144 0
M  V30 109 C 10.2516 -3.8784 -5.05825 0
M  V30 110 C 7.9386 -3.20525 -5.20295 0
M  V30 111 C 8.9366 -4.15044 -5.42427 0
M  V30 112 O 8.6246 -5.34978 -6.00045 0
M  V30 113 H 8.3566 -0.153543 -0.658332 0
M  V30 114 H 10.9106 -1.07383 -1.75094 0
M  V30 115 H 9.1406 0.385539 -3.84773 0
M  V30 116 H 10.8296 0.0238088 -4.05893 0
M  V30 117 H 11.5956 -2.45658 -4.18183 0
M  V30 118 H 7.4746 -1.25686 -4.43536 0
M  V30 119 H 11.0186 -4.61628 -5.23015 0
M  V30 120 H 6.9156 -3.40764 -5.48225 0
M  V30 121 H 7.6836 -5.36088 -6.18508 0
M  V30 122 N 10.3467 1.47872 -0.545128 0
M  V30 123 C 11.5747 2.06889 -0.021084 0
M  V30 124 C 11.9897 1.39955 1.2672 0
M  V30 125 O 11.3467 0.492036 1.75742 0
M  V30 126 C 11.3977 3.60996 0.190817 0
M  V30 127 O 11.1187 4.25419 -1.04644 0
M  V30 128 C 12.6197 4.36849 0.753521 0
M  V30 129 H 9.8397 0.669785 -0.0403635 0
M  V30 130 H 12.3837 1.90049 -0.755095 0
M  V30 131 H 10.5387 3.77391 0.87492 0
M  V30 132 H 10.9527 5.17785 -0.836611 0
M  V30 133 H 12.4267 5.45399 0.851139 0
M  V30 134 H 12.9037 4.02306 1.762 0
M  V30 135 H 13.5097 4.25169 0.105503 0
M  V30 136 N 11.8248 0.280983 1.55075 0
M  V30 137 C 13.2408 -0.0729964 1.59433 0
M  V30 138 C 13.4408 -1.5411 1.29817 0
M  V30 139 O 12.4968 -2.29086 1.06187 0
M  V30 140 C 13.8098 0.306921 2.9913 0
M  V30 141 C 15.3578 0.254023 3.11968 0
M  V30 142 C 15.8328 0.608467 4.5394 0
M  V30 143 N 17.3238 0.560241 4.59799 0
M  V30 144 C 18.0588 0.80722 5.6769 0
M  V30 145 N 17.5548 1.11912 6.83701 0
M  V30 146 N 19.3478 0.735623 5.57266 0
M  V30 147 H 11.4988 1.238 1.7259 0
M  V30 148 H 13.7618 0.500547 0.805082 0
M  V30 149 H 13.4678 1.32816 3.25657 0
M  V30 150 H 13.3418 -0.349363 3.75579 0
M  V30 151 H 15.7288 -0.75794 2.852 0
M  V30 152 H 15.8098 0.944649 2.37718 0
M  V30 153 H 15.4538 1.61814 4.81434 0
M  V30 154 H 15.3838 -0.104013 5.26497 0
M  V30 155 H 17.8748 0.329288 3.76463 0
M  V30 156 H 18.1878 1.29409 7.61888 0
M  V30 157 H 16.5328 1.15695 6.85303 0
M  V30 158 H 19.7238 0.491752 4.6551 0
M  V30 159 H 19.8968 0.931482 6.4127 0
M  V30 160 N 13.3029 -1.57598 0.00835791 0
M  V30 161 C 14.2499 -2.08945 -0.980346 0
M  V30 162 C 15.2199 -0.986738 -1.33614 0
M  V30 163 O 16.4049 -1.25968 -1.43306 0
M  V30 164 C 13.5449 -2.60425 -2.26435 0
M  V30 165 C 12.6579 -3.84628 -1.96685 0
M  V30 166 C 11.7929 -4.24579 -3.19228 0
M  V30 167 C 10.8319 -5.41596 -2.85202 0
M  V30 168 N 9.9689 -5.768 -4.00307 0
M  V30 169 H 14.8089 -2.93148 -0.535551 0
M  V30 170 H 12.3459 -1.44912 -0.252776 0
M  V30 171 H 14.3039 -2.88354 -3.01509 0
M  V30 172 H 12.9339 -1.79083 -2.68568 0
M  V30 173 H 11.9859 -3.63556 -1.11942 0
M  V30 174 H 13.2979 -4.69796 -1.67611 0
M  V30 175 H 12.4519 -4.53834 -4.02641 0
M  V30 176 H 11.1909 -3.38137 -3.51447 0
M  V30 177 H 10.1959 -5.12056 -2.00198 0
M  V30 178 H 11.4209 -6.29721 -2.54222 0
M  V30 179 H 9.3669 -4.93316 -4.32407 0
M  V30 180 H 9.2839 -6.5656 -3.74786 0
M  V30 181 H 10.5519 -6.10652 -4.84484 0
M  V30 182 N 14.781 0.264519 -1.55364 0
M  V30 183 C 16.03 0.992812 -1.75574 0
M  V30 184 C 16.343 1.87142 -0.568979 0
M  V30 185 O 17.549 2.63513 -0.653682 0
M  V30 186 C 16.005 1.81519 -3.10771 0
M  V30 187 C 15.613 0.984839 -4.37041 0
M  V30 188 C 17.357 2.53727 -3.40327 0
M  V30 189 C 15.264 1.80209 -5.63275 0
M  V30 190 H 14.194 0.374412 -0.65447 0
M  V30 191 H 16.845 0.248138 -1.81815 0
M  V30 192 H 15.227 2.60115 -2.98591 0
M  V30 193 H 16.401 0.242455 -4.60162 0
M  V30 194 H 14.716 0.37691 -4.14691 0
M  V30 195 H 17.313 3.15292 -4.3185 0
M  V30 196 H 17.656 3.24447 -2.60845 0
M  V30 197 H 18.189 1.82156 -3.53644 0
M  V30 198 H 14.928 1.13896 -6.45529 0
M  V30 199 H 14.448 2.52022 -5.44284 0
M  V30 200 H 16.127 2.37364 -6.01887 0
M  V30 201 N 16.2591 1.48442 0.529413 0
M  V30 202 C 17.4871 1.60151 1.30994 0
M  V30 203 C 17.9021 0.261985 1.86973 0
M  V30 204 O 17.2591 -0.748805 1.66431 0
M  V30 205 C 17.3101 2.64854 2.46038 0
M  V30 206 O 17.0311 3.93608 1.92365 0
M  V30 207 C 18.5321 2.87007 3.37849 0
M  V30 208 H 15.7521 0.539971 0.398338 0
M  V30 209 H 18.2961 1.94273 0.638597 0
M  V30 210 H 16.4511 2.33589 3.09055 0
M  V30 211 H 16.8651 4.51055 2.67675 0
M  V30 212 H 18.3391 3.64068 4.14919 0
M  V30 213 H 18.8161 1.95852 3.93114 0
M  V30 214 H 19.4221 3.19579 2.80623 0
M  V30 215 N 17.7372 -0.778329 1.37039 0
M  V30 216 C 18.6872 -1.88142 1.28789 0
M  V30 217 C 19.6712 -1.59923 0.177063 0
M  V30 218 O 20.8632 -1.72165 0.410873 0
M  V30 219 C 17.9922 -3.25518 1.09055 0
M  V30 220 C 17.0782 -3.5971 2.24654 0
M  V30 221 N 17.4692 -3.65131 3.50018 0
M  V30 222 C 15.7672 -3.89837 2.16663 0
M  V30 223 C 16.4682 -3.95882 4.26207 0
M  V30 224 N 15.4442 -4.11441 3.55271 0
M  V30 225 H 19.2462 -1.90575 2.23737 0
M  V30 226 H 16.7602 -0.974435 1.29917 0
M  V30 227 H 18.7572 -4.04423 1.0123 0
M  V30 228 H 17.4172 -3.24353 0.15018 0
M  V30 229 H 18.4282 -3.475 3.84011 0
M  V30 230 H 15.1052 -3.96533 1.30645 0
M  V30 231 H 16.4952 -4.06907 5.34674 0
M  V30 232 N 19.2153 -1.21501 -1.00376 0
M  V30 233 C 20.4613 -1.04457 -1.74529 0
M  V30 234 C 20.8163 0.417386 -1.87818 0
M  V30 235 O 20.1093 1.30556 -1.40234 0
M  V30 236 C 20.3033 -1.67673 -3.15627 0
M  V30 237 C 20.1323 -3.19865 -3.16096 0
M  V30 238 C 18.9023 -3.88915 -3.22604 0
M  V30 239 C 21.1003 -4.16936 -3.01112 0
M  V30 240 N 19.0823 -5.28284 -3.12712 0
M  V30 241 C 20.4533 -5.43066 -2.99131 0
M  V30 242 C 22.5083 -4.07968 -2.85423 0
M  V30 243 C 21.2113 -6.6126 -2.83068 0
M  V30 244 C 23.2373 -5.258 -2.70718 0
M  V30 245 C 22.5993 -6.50842 -2.69414 0
M  V30 246 H 18.6983 -0.436584 -0.648782 0
M  V30 247 H 21.2823 -1.53875 -1.19293 0
M  V30 248 H 19.4533 -1.20822 -3.6913 0
M  V30 249 H 21.1853 -1.43824 -3.78281 0
M  V30 250 H 17.9403 -3.39847 -3.2985 0
M  V30 251 H 18.3643 -6.01284 -3.11105 0
M  V30 252 H 23.0063 -3.1209 -2.85236 0
M  V30 253 H 20.7243 -7.57298 -2.82002 0
M  V30 254 H 24.3103 -5.20683 -2.59577 0
M  V30 255 H 23.1903 -7.40485 -2.5817 0
M  V30 256 N 20.6934 1.19889 -1.02296 0
M  V30 257 C 21.9404 1.8942 -0.715972 0
M  V30 258 C 22.2684 1.79251 0.754944 0
M  V30 259 O 21.5234 1.17526 1.56481 0
M  V30 260 C 21.8224 3.39883 -1.10518 0
M  V30 261 C 21.4884 3.70254 -2.57337 0
M  V30 262 C 20.1504 3.78254 -2.97452 0
M  V30 263 C 22.5024 3.84052 -3.52354 0
M  V30 264 C 19.8304 3.97514 -4.31509 0
M  V30 265 C 22.1824 4.04824 -4.86108 0
M  V30 266 C 20.8464 4.11054 -5.25919 0
M  V30 267 H 20.1164 0.693138 -0.261993 0
M  V30 268 H 22.7634 1.42012 -1.28472 0
M  V30 269 H 21.0684 3.8915 -0.454953 0
M  V30 270 H 22.7654 3.9199 -0.845261 0
M  V30 271 H 19.3554 3.64632 -2.25258 0
M  V30 272 H 23.5394 3.77221 -3.22518 0
M  V30 273 H 18.7954 4.00574 -4.61898 0
M  V30 274 H 22.9694 4.14442 -5.59653 0
M  V30 275 H 20.5964 4.2573 -6.29808 0
M  V30 276 N 22.1715 0.800033 1.35784 0
M  V30 277 C 23.1345 0.211565 2.28221 0
M  V30 278 C 24.1345 -0.59728 1.49296 0
M  V30 279 O 25.3245 -0.416721 1.69142 0
M  V30 280 C 22.4565 -0.705846 3.33513 0
M  V30 281 H 23.6495 1.02677 2.81776 0
M  V30 282 H 21.2025 0.570211 1.45528 0
M  V30 283 H 21.9375 -1.54498 2.85133 0
M  V30 284 H 21.7225 -0.127655 3.91892 0
M  V30 285 H 23.2125 -1.11211 4.02519 0
M  V30 286 N 23.6496 -1.47581 0.552962 0
M  V30 287 C 25.0656 -1.5818 0.212424 0
M  V30 288 C 25.2656 -1.55213 -1.28496 0
M  V30 289 O 24.3216 -1.45329 -2.06484 0
M  V30 290 C 25.6346 -2.88865 0.835318 0
M  V30 291 C 27.1826 -3.0244 0.806156 0
M  V30 292 C 27.6576 -4.35819 1.40804 0
M  V30 293 N 29.1486 -4.42444 1.37103 0
M  V30 294 C 29.8836 -5.44202 1.80641 0
M  V30 295 N 29.3796 -6.52795 2.32015 0
M  V30 296 N 31.1726 -5.35222 1.71738 0
M  V30 297 H 23.3236 -1.47753 1.52587 0
M  V30 298 H 25.5866 -0.702941 0.636064 0
M  V30 299 H 25.2926 -2.9676 1.88749 0
M  V30 300 H 25.1666 -3.7579 0.325848 0
M  V30 301 H 27.5536 -2.94144 -0.237317 0
M  V30 302 H 27.6346 -2.17068 1.35334 0
M  V30 303 H 27.2786 -4.44871 2.45056 0
M  V30 304 H 27.2086 -5.19916 0.836338 0
M  V30 305 H 29.6996 -3.6456 0.995202 0
M  V30 306 H 30.0126 -7.26609 2.63171 0
M  V30 307 H 28.3576 -6.53696 2.36023 0
M  V30 308 H 31.5486 -4.49284 1.31382 0
M  V30 309 H 31.7216 -6.14389 2.05987 0
M  V30 310 N 25.1277 -0.289203 -1.54924 0
M  V30 311 C 26.5437 0.0645403 -1.59469 0
M  V30 312 C 26.7437 1.53419 -1.30632 0
M  V30 313 O 25.7997 2.2852 -1.074 0
M  V30 314 C 27.1127 -0.32278 -2.98963 0
M  V30 315 C 28.6607 -0.270564 -3.11828 0
M  V30 316 C 29.1357 -0.632532 -4.53611 0
M  V30 317 N 30.6267 -0.584617 -4.59496 0
M  V30 318 C 31.3617 -0.837314 -5.67254 0
M  V30 319 N 30.8577 -1.15536 -6.83098 0
M  V30 320 N 32.6507 -0.765166 -5.56868 0
M  V30 321 H 24.8017 -1.24714 -1.71931 0
M  V30 322 H 27.0647 -0.504809 -0.802416 0
M  V30 323 H 26.7707 -1.34541 -3.24948 0
M  V30 324 H 26.6447 0.32944 -3.75759 0
M  V30 325 H 29.0317 0.742805 -2.85598 0
M  V30 326 H 29.1127 -0.957242 -2.37214 0
M  V30 327 H 28.7567 -1.64365 -4.80569 0
M  V30 328 H 28.6867 0.07609 -5.26545 0
M  V30 329 H 31.1777 -0.349248 -3.76283 0
M  V30 330 H 31.4907 -1.33447 -7.61191 0
M  V30 331 H 29.8357 -1.19328 -6.84679 0
M  V30 332 H 33.0267 -0.516432 -4.65243 0
M  V30 333 H 33.1997 -0.965477 -6.40767 0
M  V30 334 N 26.6058 1.57591 -0.0167156 0
M  V30 335 C 27.8308 1.9598 0.67872 0
M  V30 336 C 28.2558 0.892546 1.65575 0
M  V30 337 O 27.6138 -0.147772 1.80697 0
M  V30 338 C 27.6618 3.33468 1.37227 0
M  V30 339 O 26.7658 3.28954 2.48722 0
M  V30 340 H 26.1068 0.639339 0.17928 0
M  V30 341 H 28.6368 2.04463 -0.0748802 0
M  V30 342 H 28.6468 3.69417 1.7319 0
M  V30 343 H 27.3218 4.10694 0.656007 0
M  V30 344 H 25.8988 3.04705 2.14963 0
M  V30 345 N 28.0839 -0.256276 1.55502 0
M  V30 346 C 29.3309 -0.985619 1.76895 0
M  V30 347 C 29.6589 -1.85671 0.579355 0
M  V30 348 O 28.9139 -1.90744 -0.437651 0
M  V30 349 C 29.2129 -1.88432 3.03691 0
M  V30 350 C 28.8789 -1.16936 4.35473 0
M  V30 351 C 27.5409 -0.97173 4.71286 0
M  V30 352 C 29.8929 -0.661889 5.1698 0
M  V30 353 C 27.2209 -0.254179 5.86149 0
M  V30 354 C 29.5729 0.042149 6.32586 0
M  V30 355 C 28.2369 0.25134 6.67027 0
M  V30 356 H 27.5069 -0.360663 0.647304 0
M  V30 357 H 30.1539 -0.256483 1.89775 0
M  V30 358 H 28.4589 -2.68021 2.85783 0
M  V30 359 H 30.1559 -2.45015 3.1744 0
M  V30 360 H 26.7459 -1.33332 4.07333 0
M  V30 361 H 30.9299 -0.802145 4.89775 0
M  V30 362 H 26.1859 -0.0815408 6.11346 0
M  V30 363 H 30.3599 0.443049 6.94989 0
M  V30 364 H 27.9869 0.809314 7.5588 0
M  V30 365 N 29.562 -1.4872 -0.521534 0
M  V30 366 C 30.494 -1.59968 -1.64143 0
M  V30 367 C 31.507 -0.483463 -1.55456 0
M  V30 368 O 32.696 -0.75467 -1.61762 0
M  V30 369 C 29.796 -1.52127 -3.02838 0
M  V30 370 C 28.969 -2.78932 -3.36921 0
M  V30 371 C 28.028 -2.64428 -4.54933 0
M  V30 372 O 27.054 -3.38331 -4.57735 0
M  V30 373 N 28.256 -1.74606 -5.53618 0
M  V30 374 H 31.021 -2.56548 -1.54929 0
M  V30 375 H 28.582 -1.45551 -0.708988 0
M  V30 376 H 30.574 -1.40106 -3.79674 0
M  V30 377 H 29.144 -0.634868 -3.06085 0
M  V30 378 H 28.364 -3.05455 -2.4918 0
M  V30 379 H 29.652 -3.63041 -3.56481 0
M  V30 380 H 29.05 -1.13782 -5.54139 0
M  V30 381 H 27.607 -1.6852 -6.29638 0
M  V30 382 N 31.0401 0.771051 -1.3745 0
M  V30 383 C 31.9881 1.90574 -1.33358 0
M  V30 384 C 32.9821 1.67936 -0.22224 0
M  V30 385 O 34.1881 1.75717 -0.390304 0
M  V30 386 H 30.5631 0.626714 -0.415612 0
M  V30 387 H 32.5341 1.91142 -2.29144 0
M  V30 388 C 31.2831 3.27845 -1.15813 0
M  V30 389 H 30.6061 3.45842 -2.00583 0
M  V30 390 H 32.0461 4.07538 -1.17 0
M  V30 391 C 30.5051 3.36625 0.136165 0
M  V30 392 O 31.0351 3.85785 1.11949 0
M  V30 393 N 29.2411 2.89997 0.187099 0
M  V30 394 H 28.7881 2.50182 -0.613753 0
M  V30 395 H 28.7461 2.96252 1.05272 0
M  V30 396 N 32.5182 1.22032 0.997298 0
M  V30 397 C 33.9342 0.979326 1.26021 0
M  V30 398 C 34.1342 -0.32972 1.98784 0
M  V30 399 O 33.1902 -1.05345 2.29475 0
M  V30 400 C 34.5032 2.17509 2.07631 0
M  V30 401 C 36.0512 2.21817 2.2083 0
M  V30 402 C 36.5262 3.40933 3.05825 0
M  V30 403 N 38.0172 3.41067 3.13412 0
M  V30 404 C 38.7522 4.29885 3.79455 0
M  V30 405 N 38.2482 5.28914 4.47462 0
M  V30 406 N 40.0412 4.17673 3.76173 0
M  V30 407 H 32.1922 2.06202 0.509352 0
M  V30 408 H 34.4552 0.90334 0.287541 0
M  V30 409 H 34.1612 3.12415 1.61524 0
M  V30 410 H 34.0352 2.17206 3.08385 0
M  V30 411 H 36.4222 1.27462 2.66153 0
M  V30 412 H 36.5032 2.2616 1.1952 0
M  V30 413 H 36.1472 4.35586 2.61203 0
M  V30 414 H 36.0772 3.33829 4.07266 0
M  V30 415 H 38.5682 2.69406 2.65007 0
M  V30 416 H 38.8812 5.92973 4.95583 0
M  V30 417 H 37.2262 5.32831 4.46224 0
M  V30 418 H 40.4172 3.39564 3.22202 0
M  V30 419 H 40.5902 4.87098 4.27363 0
M  V30 420 N 33.9963 -1.19345 1.0293 0
M  V30 421 C 35.2453 -1.88363 0.721256 0
M  V30 422 C 35.5583 -1.80514 -0.753254 0
M  V30 423 O 36.7643 -2.44788 -1.17436 0
M  V30 424 C 35.2203 -3.37872 1.23978 0
M  V30 425 C 34.8283 -3.54278 2.74211 0
M  V30 426 C 36.5723 -4.12365 1.00775 0
M  V30 427 C 34.4793 -4.97682 3.19479 0
M  V30 428 H 33.4093 -0.705484 0.266098 0
M  V30 429 H 36.0603 -1.34928 1.24365 0
M  V30 430 H 34.4423 -3.90707 0.6453 0
M  V30 431 H 35.6163 -3.11769 3.39318 0
M  V30 432 H 33.9313 -2.93174 2.95699 0
M  V30 433 H 36.5283 -5.18119 1.32123 0
M  V30 434 H 36.8713 -4.16263 -0.0554308 0
M  V30 435 H 37.4043 -3.65668 1.56625 0
M  V30 436 H 34.1433 -4.98945 4.25128 0
M  V30 437 H 33.6633 -5.4095 2.591 0
M  V30 438 H 35.3423 -5.66337 3.12845 0
M  V30 439 N 35.4744 -0.807222 -1.35358 0
M  V30 440 C 36.7214 -0.387888 -1.9875 0
M  V30 441 C 37.0494 1.04509 -1.64037 0
M  V30 442 O 36.3044 1.73986 -0.895946 0
M  V30 443 C 36.6034 -0.519036 -3.53611 0
M  V30 444 C 36.2694 -1.91542 -4.08194 0
M  V30 445 C 34.9314 -2.29745 -4.22813 0
M  V30 446 C 37.2834 -2.82896 -4.37744 0
M  V30 447 C 34.6114 -3.58668 -4.643 0
M  V30 448 C 36.9634 -4.11265 -4.8067 0
M  V30 449 C 35.6274 -4.49466 -4.93494 0
M  V30 450 H 34.8974 -0.141938 -0.727279 0
M  V30 451 H 37.5444 -1.02814 -1.6156 0
M  V30 452 H 35.8494 0.204658 -3.91265 0
M  V30 453 H 37.5464 -0.175345 -4.00616 0
M  V30 454 H 34.1364 -1.60862 -3.97268 0
M  V30 455 H 38.3204 -2.54629 -4.26002 0
M  V30 456 H 33.5764 -3.88113 -4.72418 0
M  V30 457 H 37.7504 -4.82153 -5.02496 0
M  V30 458 H 35.3774 -5.49418 -5.25399 0
M  V30 459 N 36.9525 1.47285 -0.560781 0
M  V30 460 C 37.8825 2.32857 0.173105 0
M  V30 461 C 38.8635 1.44009 0.905281 0
M  V30 462 O 40.0485 1.7286 0.885046 0
M  V30 463 C 37.1785 3.25861 1.20133 0
M  V30 464 C 36.1325 4.23978 0.585388 0
M  V30 465 C 35.4585 5.06332 1.7185 0
M  V30 466 C 36.7585 5.20242 -0.463178 0
M  V30 467 H 38.4525 2.94466 -0.541307 0
M  V30 468 H 35.9985 1.41601 -0.261764 0
M  V30 469 H 37.9515 3.84569 1.72293 0
M  V30 470 H 36.6755 2.62315 1.94573 0
M  V30 471 H 35.3345 3.66501 0.085054 0
M  V30 472 H 34.9825 4.39186 2.45203 0
M  V30 473 H 34.6825 5.72762 1.31213 0
M  V30 474 H 36.2065 5.67899 2.24329 0
M  V30 475 H 37.6205 5.73293 -0.027502 0
M  V30 476 H 36.0175 5.94896 -0.788627 0
M  V30 477 H 37.0875 4.65504 -1.35773 0
M  V30 478 N 38.4306 0.297415 1.54768 0
M  V30 479 C 39.3606 -0.573494 2.26348 0
M  V30 480 C 40.3416 -1.14085 1.26169 0
M  V30 481 O 41.5266 -1.17086 1.54934 0
M  V30 482 C 38.6566 -1.74716 3.00153 0
M  V30 483 C 37.6106 -1.31032 4.07449 0
M  V30 484 C 36.9366 -2.56887 4.68949 0
M  V30 485 C 38.2366 -0.444183 5.20408 0
M  V30 486 H 39.9306 0.0235131 2.99391 0
M  V30 487 H 37.4766 0.0127488 1.43994 0
M  V30 488 H 39.4296 -2.3625 3.48947 0
M  V30 489 H 38.1536 -2.37035 2.24682 0
M  V30 490 H 36.8126 -0.718066 3.59499 0
M  V30 491 H 36.4606 -3.17512 3.90122 0
M  V30 492 H 36.1606 -2.2836 5.41411 0
M  V30 493 H 37.6846 -3.19229 5.20505 0
M  V30 494 H 39.0986 -0.9651 5.65118 0
M  V30 495 H 37.4956 -0.252846 5.99567 0
M  V30 496 H 38.5656 0.531609 4.81977 0
M  V30 497 N 39.9087 -1.5758 0.0250728 0
M  V30 498 C 41.1577 -1.90811 -0.653767 0
M  V30 499 C 41.4707 -0.90273 -1.73523 0
M  V30 500 O 42.6767 -1.12614 -2.47043 0
M  V30 501 C 41.1327 -3.38804 -1.21409 0
M  V30 502 C 40.7407 -4.47692 -0.166126 0
M  V30 503 C 42.4847 -3.81108 -1.86967 0
M  V30 504 C 40.3917 -5.86779 -0.737856 0
M  V30 505 H 39.3217 -0.712063 -0.247956 0
M  V30 506 H 41.9727 -1.83281 0.0897137 0
M  V30 507 H 40.3547 -3.41252 -2.00905 0
M  V30 508 H 41.5287 -4.56797 0.606079 0
M  V30 509 H 39.8437 -4.14565 0.390466 0
M  V30 510 H 42.4407 -4.82375 -2.30692 0
M  V30 511 H 42.7837 -3.15953 -2.71071 0
M  V30 512 H 43.3167 -3.81065 -1.14167 0
M  V30 513 H 40.0557 -6.55468 0.0649577 0
M  V30 514 H 39.5757 -5.81288 -1.47864 0
M  V30 515 H 41.2547 -6.35223 -1.22884 0
M  V30 516 N 41.3868 0.248026 -1.55636 0
M  V30 517 C 42.3168 1.31079 -1.93237 0
M  V30 518 C 43.2978 1.50264 -0.797174 0
M  V30 519 O 44.4828 1.62891 -1.05737 0
M  V30 520 C 41.6128 2.66575 -2.22609 0
M  V30 521 C 40.5668 2.62087 -3.3837 0
M  V30 522 C 39.8928 4.01369 -3.53281 0
M  V30 523 C 41.1928 2.19171 -4.7409 0
M  V30 524 H 42.8868 0.998556 -2.82257 0
M  V30 525 H 40.4328 0.47891 -1.35803 0
M  V30 526 H 42.3858 3.41057 -2.47503 0
M  V30 527 H 41.1098 2.99432 -1.30414 0
M  V30 528 H 39.7688 1.90063 -3.13483 0
M  V30 529 H 39.4168 4.31489 -2.58508 0
M  V30 530 H 39.1168 3.99254 -4.31127 0
M  V30 531 H 40.6408 4.77552 -3.80495 0
M  V30 532 H 42.0548 2.83384 -4.98363 0
M  V30 533 H 40.4518 2.2817 -5.5503 0
M  V30 534 H 41.5218 1.14336 -4.71227 0
M  V30 535 N 42.8649 1.48995 0.513639 0
M  V30 536 C 44.1119 1.57843 1.26854 0
M  V30 537 C 44.4399 0.259501 1.92761 0
M  V30 538 O 43.6949 -0.75159 1.80692 0
M  V30 539 C 43.9939 2.67756 2.36731 0
M  V30 540 C 43.6599 4.09669 1.88368 0
M  V30 541 C 42.3219 4.48291 1.74896 0
M  V30 542 C 44.6739 4.98537 1.52021 0
M  V30 543 C 42.0019 5.73568 1.23438 0
M  V30 544 C 44.3539 6.24319 1.0202 0
M  V30 545 C 43.0179 6.61783 0.871778 0
M  V30 546 H 42.2879 0.577587 0.464192 0
M  V30 547 H 44.9349 1.82778 0.571366 0
M  V30 548 H 43.2399 2.36743 3.12185 0
M  V30 549 H 44.9369 2.71813 2.9482 0
M  V30 550 H 41.5269 3.79176 1.99808 0
M  V30 551 H 45.7109 4.69363 1.61281 0
M  V30 552 H 40.9669 6.01304 1.10648 0
M  V30 553 H 45.1409 6.92566 0.729722 0
M  V30 554 H 42.7679 7.5874 0.470852 0
M  V30 555 N 44.343 -0.763751 1.37857 0
M  V30 556 C 45.571 -1.55293 1.36718 0
M  V30 557 C 45.986 -1.88745 -0.0455434 0
M  V30 558 O 45.343 -1.52039 -1.00947 0
M  V30 559 C 45.394 -2.85831 2.2132 0
M  V30 560 O 45.115 -2.5381 3.57089 0
M  V30 561 C 46.616 -3.80023 2.28249 0
M  V30 562 H 43.836 -0.480841 0.468009 0
M  V30 563 H 46.38 -0.946009 1.81303 0
M  V30 564 H 44.535 -3.42926 1.80223 0
M  V30 565 H 44.949 -3.37459 4.01524 0
M  V30 566 H 46.423 -4.68599 2.91752 0
M  V30 567 H 46.9 -4.1973 1.2932 0
M  V30 568 H 47.506 -3.28855 2.69693 0
M  V30 569 N 45.8211 -1.22559 -0.990812 0
M  V30 570 C 47.0461 -1.07862 -1.77145 0
M  V30 571 C 47.4711 0.366447 -1.84496 0
M  V30 572 O 46.8291 1.26478 -1.29896 0
M  V30 573 C 46.8771 -1.69686 -3.18181 0
M  V30 574 O 45.9811 -0.951946 -4.01263 0
M  V30 575 H 45.3221 -0.378712 -0.545411 0
M  V30 576 H 47.8521 -1.62399 -1.2445 0
M  V30 577 H 47.8621 -1.74496 -3.68802 0
M  V30 578 H 46.5371 -2.74841 -3.12146 0
M  V30 579 H 45.1141 -0.980011 -3.59792 0
M  V30 580 N 47.2992 1.18797 -1.03562 0
M  V30 581 C 48.5272 1.92599 -0.755869 0
M  V30 582 C 48.9422 1.75886 0.686271 0
M  V30 583 O 48.2992 1.08517 1.46732 0
M  V30 584 C 48.3502 3.44159 -1.10619 0
M  V30 585 O 48.0712 3.60341 -2.4917 0
M  V30 586 C 49.5722 4.3507 -0.850214 0
M  V30 587 H 46.7922 0.611587 -0.276048 0
M  V30 588 H 49.3362 1.50742 -1.38192 0
M  V30 589 H 47.4912 3.83823 -0.525194 0
M  V30 590 H 47.9052 4.54128 -2.62427 0
M  V30 591 H 49.3792 5.39989 -1.14523 0
M  V30 592 H 49.8562 4.38673 0.215176 0
M  V30 593 H 50.4622 4.01097 -1.41426 0
M  V30 594 N 48.7773 0.814389 1.34928 0
M  V30 595 C 50.0263 0.394871 1.97797 0
M  V30 596 C 50.3393 -1.04555 1.65311 0
M  V30 597 O 51.5453 -1.56856 2.21604 0
M  V30 598 C 50.0013 0.655103 3.53888 0
M  V30 599 C 49.6093 2.10858 3.95276 0
M  V30 600 C 51.3533 0.301329 4.23429 0
M  V30 601 C 49.2603 2.31415 5.44244 0
M  V30 602 H 48.1903 0.143913 0.740139 0
M  V30 603 H 50.8413 0.999544 1.53888 0
M  V30 604 H 49.2233 -0.0196253 3.95995 0
M  V30 605 H 50.3973 2.82176 3.64298 0
M  V30 606 H 48.7123 2.42297 3.38646 0
M  V30 607 H 51.3093 0.432869 5.32945 0
M  V30 608 H 51.6523 -0.75331 4.09428 0
M  V30 609 H 52.1853 0.930288 3.86769 0
M  V30 610 H 48.9243 3.35353 5.63222 0
M  V30 611 H 48.4443 1.6463 5.76764 0
M  V30 612 H 50.1233 2.13352 6.10811 0
M  V30 613 N 50.2554 -1.46986 0.568584 0
M  V30 614 C 51.5014 -2.02741 0.0488709 0
M  V30 615 C 51.8344 -1.44077 -1.30214 0
M  V30 616 O 51.1094 -0.600552 -1.84996 0
M  V30 617 C 51.3924 -3.60086 -0.032047 0
M  V30 618 C 51.2454 -4.29162 1.34686 0
M  V30 619 C 52.5644 -4.33838 -0.739798 0
M  V30 620 H 49.6834 -0.736749 0.0192338 0
M  V30 621 H 52.3254 -1.75289 0.733065 0
M  V30 622 H 50.4754 -3.83606 -0.61473 0
M  V30 623 H 52.1474 -4.16948 1.97362 0
M  V30 624 H 50.3904 -3.89073 1.91846 0
M  V30 625 H 51.0614 -5.37826 1.24285 0
M  V30 626 H 53.5374 -4.15378 -0.244939 0
M  V30 627 H 52.4134 -5.43537 -0.765406 0
M  V30 628 H 52.6744 -4.03875 -1.79827 0
M  V30 629 N 51.7335 -0.305618 -1.54608 0
M  V30 630 C 52.6665 0.610536 -2.19881 0
M  V30 631 C 53.6445 1.1294 -1.16976 0
M  V30 632 O 54.8285 1.19673 -1.45638 0
M  V30 633 C 51.9555 1.83583 -2.84631 0
M  V30 634 C 51.0015 1.4498 -4.01102 0
M  V30 635 S 51.8345 0.501793 -5.33144 0
M  V30 636 C 52.9905 1.73478 -6.01379 0
M  V30 637 H 53.2235 0.0560177 -2.97247 0
M  V30 638 H 50.7565 -0.0897434 -1.54139 0
M  V30 639 H 52.7145 2.53898 -3.22562 0
M  V30 640 H 51.3755 2.36152 -2.07102 0
M  V30 641 H 50.5685 2.36236 -4.45206 0
M  V30 642 H 50.1705 0.826553 -3.64752 0
M  V30 643 H 52.4625 2.67473 -6.22467 0
M  V30 644 H 53.4055 1.33622 -6.95378 0
M  V30 645 H 53.8135 1.9136 -5.31076 0
M  V30 646 N 53.2116 1.57565 -0.0334293 0
M  V30 647 C 54.1416 2.13511 0.945265 0
M  V30 648 C 55.1226 1.05231 1.33643 0
M  V30 649 O 56.3076 1.33084 1.41429 0
M  V30 650 C 53.4376 2.6657 2.22616 0
M  V30 651 C 52.3916 3.79676 1.97561 0
M  V30 652 C 51.7176 4.1918 3.31952 0
M  V30 653 C 53.0176 5.0557 1.31135 0
M  V30 654 H 54.7116 2.95538 0.479325 0
M  V30 655 H 52.2576 1.42166 0.229115 0
M  V30 656 H 54.2106 3.04344 2.91466 0
M  V30 657 H 52.9346 1.8171 2.71384 0
M  V30 658 H 51.5936 3.42347 1.31127 0
M  V30 659 H 51.2416 3.31296 3.78487 0
M  V30 660 H 50.9416 4.95402 3.15992 0
M  V30 661 H 52.4656 4.59541 4.02063 0
M  V30 662 H 53.8796 5.40903 1.89992 0
M  V30 663 H 52.2766 5.86818 1.25559 0
M  V30 664 H 53.3466 4.84062 0.284894 0
M  V30 665 N 54.6897 -0.239769 1.55765 0
M  V30 666 C 55.6527 -1.28038 1.90103 0
M  V30 667 C 56.6527 -1.40723 0.778055 0
M  V30 668 O 57.8427 -1.39301 1.04599 0
M  V30 669 C 54.9747 -2.65702 2.13577 0
M  V30 670 H 56.1677 -0.988048 2.83157 0
M  V30 671 H 53.7207 -0.479382 1.48767 0
M  V30 672 H 54.4557 -3.00063 1.23015 0
M  V30 673 H 54.2407 -2.57875 2.95369 0
M  V30 674 H 55.7307 -3.40828 2.41301 0
M  V30 675 N 56.1678 -1.49265 -0.50573 0
M  V30 676 C 57.1008 -1.60183 -1.62532 0
M  V30 677 C 58.0788 -0.451107 -1.56217 0
M  V30 678 O 59.2628 -0.666016 -1.76342 0
M  V30 679 C 56.3898 -1.55238 -3.01029 0
M  V30 680 C 55.4358 -2.7545 -3.25621 0
M  V30 681 S 56.2688 -4.37174 -3.09256 0
M  V30 682 C 57.4248 -4.34866 -4.50158 0
M  V30 683 H 57.6578 -2.54894 -1.53025 0
M  V30 684 H 55.1908 -1.38098 -0.690535 0
M  V30 685 H 57.1488 -1.53071 -3.80893 0
M  V30 686 H 55.8098 -0.618238 -3.07956 0
M  V30 687 H 55.0028 -2.68197 -4.26716 0
M  V30 688 H 54.6048 -2.75005 -2.53472 0
M  V30 689 H 56.8968 -4.06295 -5.42154 0
M  V30 690 H 57.8398 -5.36223 -4.62462 0
M  V30 691 H 58.2478 -3.65007 -4.30616 0
M  V30 692 N 57.6459 0.756429 -1.3826 0
M  V30 693 C 58.8709 1.55077 -1.37717 0
M  V30 694 C 59.2959 1.88073 0.03164 0
M  V30 695 O 58.6539 1.50364 1.01293 0
M  V30 696 C 58.7019 2.8283 -2.23695 0
M  V30 697 O 57.8059 3.77862 -1.6521 0
M  V30 698 H 57.1469 0.469152 -0.469885 0
M  V30 699 H 59.6769 0.935019 -1.81985 0
M  V30 700 H 59.6869 3.31783 -2.37453 0
M  V30 701 H 58.3619 2.58144 -3.2609 0
M  V30 702 H 56.9389 3.36555 -1.60578 0
M  V30 703 N 59.124 1.23083 0.984299 0
M  V30 704 C 60.37 1.07221 1.72845 0
M  V30 705 C 60.725 -0.387453 1.88458 0
M  V30 706 O 60.018 -1.28309 1.42293 0
M  V30 707 C 60.212 1.72673 3.1292 0
M  V30 708 C 60.041 3.24853 3.10967 0
M  V30 709 C 58.811 3.93998 3.16376 0
M  V30 710 C 61.009 4.21674 2.94441 0
M  V30 711 N 58.991 5.33192 3.04268 0
M  V30 712 C 60.362 5.47756 2.90453 0
M  V30 713 C 62.417 4.12457 2.78897 0
M  V30 714 C 61.12 6.6568 2.72512 0
M  V30 715 C 63.146 5.3004 2.62319 0
M  V30 716 C 62.508 6.55046 2.59026 0
M  V30 717 H 58.607 0.44685 0.641755 0
M  V30 718 H 61.191 1.55753 1.16829 0
M  V30 719 H 59.362 1.26679 3.67161 0
M  V30 720 H 61.094 1.49824 3.75945 0
M  V30 721 H 57.849 3.45052 3.24401 0
M  V30 722 H 58.273 6.06157 3.015 0
M  V30 723 H 62.915 3.16588 2.80235 0
M  V30 724 H 60.633 7.61689 2.69919 0
M  V30 725 H 64.219 5.24747 2.5126 0
M  V30 726 H 63.099 7.44498 2.46357 0
M  V30 727 N 60.6021 -1.18246 1.0419 0
M  V30 728 C 61.8321 -1.91916 0.764961 0
M  V30 729 C 62.2401 -1.76485 -0.681898 0
M  V30 730 O 61.5831 -1.09275 -1.47664 0
M  V30 731 C 61.6451 -3.4373 1.05309 0
M  V30 732 C 61.3091 -3.8294 2.4941 0
M  V30 733 C 62.3061 -3.86621 3.47592 0
M  V30 734 C 59.9911 -4.142 2.84155 0
M  V30 735 C 61.9851 -4.21013 4.78568 0
M  V30 736 C 59.6721 -4.48262 4.15337 0
M  V30 737 C 60.6701 -4.51645 5.12353 0
M  V30 738 O 60.3581 -4.84911 6.41183 0
M  V30 739 H 60.0901 -0.61606 0.278292 0
M  V30 740 H 62.6441 -1.50947 1.39299 0
M  V30 741 H 60.8741 -3.84946 0.367933 0
M  V30 742 H 62.5631 -3.9865 0.763752 0
M  V30 743 H 63.3291 -3.62607 3.22089 0
M  V30 744 H 59.2081 -4.10743 2.09311 0
M  V30 745 H 62.7521 -4.23568 5.54289 0
M  V30 746 H 58.6491 -4.71737 4.40607 0
M  V30 747 H 59.4171 -5.02809 6.45852 0
M  V30 748 N 62.0802 -0.821533 -1.34494 0
M  V30 749 C 63.0102 -0.257138 -2.3208 0
M  V30 750 C 63.9912 0.625645 -1.58176 0
M  V30 751 O 65.1762 0.552811 -1.86166 0
M  V30 752 C 62.3062 0.582958 -3.42372 0
M  V30 753 C 61.2602 -0.202571 -4.2752 0
M  V30 754 C 60.5862 0.760179 -5.29269 0
M  V30 755 C 61.8862 -1.40998 -5.02908 0
M  V30 756 H 63.5802 -1.07247 -2.79532 0
M  V30 757 H 61.1262 -0.517163 -1.34393 0
M  V30 758 H 63.0792 0.987972 -4.09655 0
M  V30 759 H 61.8032 1.43133 -2.93565 0
M  V30 760 H 60.4622 -0.588936 -3.61838 0
M  V30 761 H 60.1102 1.60447 -4.76724 0
M  V30 762 H 59.8102 0.238809 -5.87115 0
M  V30 763 H 61.3342 1.16308 -5.9942 0
M  V30 764 H 62.7482 -1.07905 -5.63054 0
M  V30 765 H 61.1452 -1.86689 -5.70322 0
M  V30 766 H 62.2152 -2.1889 -4.32684 0
M  V30 767 N 63.5583 1.46682 -0.576371 0
M  V30 768 C 64.7863 2.06798 -0.0649635 0
M  V30 769 C 65.2013 1.42612 1.23723 0
M  V30 770 O 64.5583 0.529203 1.74659 0
M  V30 771 C 64.6093 3.6132 0.114202 0
M  V30 772 O 64.3303 4.23104 -1.13644 0
M  V30 773 C 65.8313 4.38349 0.66069 0
M  V30 774 H 63.0513 0.668778 -0.0545616 0
M  V30 775 H 65.5953 1.88404 -0.795237 0
M  V30 776 H 63.7503 3.79162 0.794673 0
M  V30 777 H 64.1643 5.15894 -0.946253 0
M  V30 778 H 65.6383 5.47081 0.73526 0
M  V30 779 H 66.1153 4.05953 1.67627 0
M  V30 780 H 66.7213 4.25297 0.0152951 0
M  V30 781 N 65.0364 0.313813 1.54444 0
M  V30 782 C 66.3134 -0.345447 1.92525 0
M  V30 783 C 66.6934 -1.70667 1.24242 0
M  V30 784 O 66.0414 -2.25273 0.382654 0
M  V30 785 C 66.2514 -0.44737 3.46121 0
M  V30 786 C 67.5994 -0.712238 4.18584 0
M  V30 787 O 68.6234 -0.530678 3.52225 0
M  V30 788 O 67.4824 -1.06183 5.36085 0
M  V30 789 H 64.5764 -0.195407 0.803583 0
M  V30 790 H 67.1224 0.362813 1.65776 0
M  V30 791 H 65.8944 0.509043 3.87975 0
M  V30 792 H 65.5174 -1.20359 3.78945 0
M  V30 793 N 66.5145 -1.57545 0.0417849 0
M  V30 794 C 67.7635 -1.91494 -0.633492 0
M  V30 795 C 68.0765 -0.921084 -1.72556 0
M  V30 796 O 69.2825 -1.15228 -2.45835 0
M  V30 797 C 67.7385 -3.40072 -1.17808 0
M  V30 798 C 67.3465 -4.47843 -0.118633 0
M  V30 799 C 69.0905 -3.8307 -1.82915 0
M  V30 800 C 66.9975 -5.87529 -0.675578 0
M  V30 801 H 65.9275 -0.714653 -0.24039 0
M  V30 802 H 68.5785 -1.83175 0.109148 0
M  V30 803 H 66.9605 -3.43364 -1.97274 0
M  V30 804 H 68.1345 -4.56128 0.654494 0
M  V30 805 H 66.4495 -4.14128 0.434414 0
M  V30 806 H 69.0465 -4.84794 -2.25563 0
M  V30 807 H 69.3895 -3.1881 -2.67705 0
M  V30 808 H 69.9225 -3.82255 -1.10119 0
M  V30 809 H 66.6615 -6.55362 0.134475 0
M  V30 810 H 66.1815 -5.82824 -1.4169 0
M  V30 811 H 67.8605 -6.36491 -1.1614 0
M  V30 812 N 67.9926 0.231505 -1.5589 0
M  V30 813 C 69.2206 0.974505 -1.82513 0
M  V30 814 C 69.6356 1.78344 -0.619591 0
M  V30 815 O 68.9926 1.77792 0.411848 0
M  V30 816 C 69.0436 1.90007 -3.07538 0
M  V30 817 O 68.7646 1.12385 -4.2344 0
M  V30 818 C 70.2656 2.75779 -3.47075 0
M  V30 819 H 67.4856 0.286065 -0.606966 0
M  V30 820 H 70.0296 0.249739 -2.02969 0
M  V30 821 H 68.1846 2.57891 -2.89086 0
M  V30 822 H 68.5986 1.75125 -4.944 0
M  V30 823 H 70.0726 3.36443 -4.37619 0
M  V30 824 H 70.5496 3.47672 -2.68367 0
M  V30 825 H 71.1556 2.13323 -3.67931 0
M  V30 826 N 69.4707 1.49531 0.497807 0
M  V30 827 C 70.3807 1.69176 1.62532 0
M  V30 828 C 71.3967 0.5744 1.64246 0
M  V30 829 O 72.5727 0.849497 1.82608 0
M  V30 830 C 69.6377 1.75695 2.98885 0
M  V30 831 C 68.6987 2.9929 3.07773 0
M  V30 832 C 67.9317 3.05488 4.37622 0
M  V30 833 O 68.1547 2.19192 5.26603 0
M  V30 834 O 67.0887 3.9798 4.51548 0
M  V30 835 H 70.9147 2.647 1.48887 0
M  V30 836 H 68.4997 1.3331 0.674441 0
M  V30 837 H 70.3817 1.82317 3.79919 0
M  V30 838 H 69.0567 0.8335 3.12785 0
M  V30 839 H 67.9637 2.98183 2.25915 0
M  V30 840 H 69.2967 3.91125 2.98801 0
M  V30 841 N 70.9488 -0.749086 1.3866 0
M  V30 842 C 71.8588 -1.89358 1.38494 0
M  V30 843 C 72.8748 -1.71708 0.281476 0
M  V30 844 O 74.0508 -1.94554 0.520643 0
M  V30 845 C 71.1158 -3.24782 1.21316 0
M  V30 846 C 70.1768 -3.54926 2.41508 0
M  V30 847 C 69.4098 -4.83888 2.2514 0
M  V30 848 O 69.6328 -5.56592 1.24746 0
M  V30 849 O 68.5668 -5.13612 3.13826 0
M  V30 850 H 72.3928 -1.92452 2.34938 0
M  V30 851 H 69.9778 -0.894981 1.19626 0
M  V30 852 H 71.8598 -4.05739 1.13814 0
M  V30 853 H 70.5348 -3.2249 0.279592 0
M  V30 854 H 69.4418 -2.74112 2.54585 0
M  V30 855 H 70.7748 -3.61983 3.3351 0
M  V30 856 N 72.4269 -1.23603 -0.977757 0
M  V30 857 C 73.8429 -0.999251 -1.24447 0
M  V30 858 C 74.0429 0.298053 -1.99283 0
M  V30 859 O 73.0989 1.01681 -2.31122 0
M  V30 860 C 74.4119 -2.20784 -2.04144 0
M  V30 861 C 75.9599 -2.25303 -2.17273 0
M  V30 862 C 76.4349 -3.45755 -3.00362 0
M  V30 863 N 77.9259 -3.4601 -3.07947 0
M  V30 864 C 78.6609 -4.35868 -3.72568 0
M  V30 865 N 78.1569 -5.35966 -4.38991 0
M  V30 866 N 79.9499 -4.23605 -3.6948 0
M  V30 867 H 72.1009 -2.06986 -0.476483 0
M  V30 868 H 74.3639 -0.907801 -0.273134 0
M  V30 869 H 74.0699 -3.14945 -1.56533 0
M  V30 870 H 73.9439 -2.22085 -3.04891 0
M  V30 871 H 76.3309 -1.3168 -2.64092 0
M  V30 872 H 76.4119 -2.28033 -1.15907 0
M  V30 873 H 76.0559 -4.39687 -2.5424 0
M  V30 874 H 75.9859 -3.40266 -4.01904 0
M  V30 875 H 78.4769 -2.73588 -2.60688 0
M  V30 876 H 78.7899 -6.00783 -4.86086 0
M  V30 877 H 77.1349 -5.39863 -4.37691 0
M  V30 878 H 80.3259 -3.44647 -3.16759 0
M  V30 879 H 80.4989 -4.93836 -4.1956 0
M  V30 880 N 73.905 1.17692 -1.04816 0
M  V30 881 C 74.835 2.23777 -0.666791 0
M  V30 882 C 75.816 1.66796 0.33361 0
M  V30 883 O 77.001 1.93039 0.212042 0
M  V30 884 C 74.131 3.47281 -0.0367933 0
M  V30 885 C 73.085 4.17059 -0.961546 0
M  V30 886 C 72.411 5.34342 -0.195626 0
M  V30 887 C 73.711 4.69713 -2.28402 0
M  V30 888 H 75.405 2.55933 -1.55367 0
M  V30 889 H 72.951 1.23019 -0.748484 0
M  V30 890 H 74.904 4.20706 0.241775 0
M  V30 891 H 73.628 3.14381 0.885004 0
M  V30 892 H 72.287 3.45541 -1.22462 0
M  V30 893 H 71.935 4.97692 0.728816 0
M  V30 894 H 71.635 5.81966 -0.811775 0
M  V30 895 H 73.159 6.10553 0.0757473 0
M  V30 896 H 74.573 5.34794 -2.06563 0
M  V30 897 H 72.97 5.279 -2.8538 0
M  V30 898 H 74.04 3.86726 -2.92525 0
M  V30 899 N 75.3831 0.828654 1.34056 0
M  V30 900 C 76.3331 0.226828 2.26869 0
M  V30 901 C 77.3171 -0.612243 1.48796 0
M  V30 902 O 78.5091 -0.465884 1.70759 0
M  V30 903 C 75.6381 -0.605654 3.37915 0
M  V30 904 C 74.7241 0.244361 4.23395 0
M  V30 905 N 75.1151 1.31815 4.88322 0
M  V30 906 C 73.4131 0.0296616 4.4599 0
M  V30 907 C 74.1141 1.83895 5.51867 0
M  V30 908 N 73.0901 1.14196 5.3147 0
M  V30 909 H 76.8921 1.04811 2.74576 0
M  V30 910 H 74.4061 0.67205 1.47842 0
M  V30 911 H 76.4031 -1.05302 4.03382 0
M  V30 912 H 75.0631 -1.42504 2.91758 0
M  V30 913 H 76.0741 1.70099 4.8917 0
M  V30 914 H 72.7511 -0.757097 4.10578 0
M  V30 915 H 74.1411 2.7376 6.136 0
M  V30 916 N 76.8612 -1.46375 0.584142 0
M  V30 917 C 78.0912 -2.06461 0.0758195 0
M  V30 918 C 78.4992 -1.43322 -1.23512 0
M  V30 919 O 77.8422 -0.533216 -1.75791 0
M  V30 920 C 77.9042 -3.59131 -0.162773 0
M  V30 921 C 77.5682 -4.4447 1.06279 0
M  V30 922 C 78.5652 -4.80918 1.97519 0
M  V30 923 C 76.2502 -4.85584 1.28504 0
M  V30 924 C 78.2442 -5.57309 3.09331 0
M  V30 925 C 75.9312 -5.61734 2.4062 0
M  V30 926 C 76.9292 -5.9751 3.30863 0
M  V30 927 O 76.6172 -6.72121 4.41032 0
M  V30 928 H 76.3492 -0.673745 0.0551725 0
M  V30 929 H 78.9032 -1.88969 0.804984 0
M  V30 930 H 77.1332 -3.74936 -0.946565 0
M  V30 931 H 78.8222 -4.0114 -0.619782 0
M  V30 932 H 79.5882 -4.49732 1.81565 0
M  V30 933 H 75.4672 -4.57187 0.591702 0
M  V30 934 H 79.0112 -5.85152 3.79793 0
M  V30 935 H 74.9082 -5.92334 2.56537 0
M  V30 936 H 75.6762 -6.90547 4.39417 0
M  V30 937 N 78.3393 -0.321999 -1.54275 0
M  V30 938 C 79.2713 0.578671 -2.21775 0
M  V30 939 C 80.2843 1.08109 -1.21722 0
M  V30 940 O 81.4733 0.994938 -1.482 0
M  V30 941 C 78.5733 1.80661 -2.86731 0
M  V30 942 C 77.7463 1.44314 -4.12907 0
M  V30 943 C 76.8053 2.52845 -4.61472 0
M  V30 944 O 75.8313 2.17054 -5.2619 0
M  V30 945 N 77.0333 3.83748 -4.35566 0
M  V30 946 H 79.7983 0.000709447 -2.997 0
M  V30 947 H 77.3593 -0.145132 -1.61248 0
M  V30 948 H 79.3513 2.52655 -3.16145 0
M  V30 949 H 77.9213 2.29245 -2.12521 0
M  V30 950 H 77.1413 0.554906 -3.90275 0
M  V30 951 H 78.4293 1.17598 -4.95023 0
M  V30 952 H 77.8273 4.15625 -3.83761 0
M  V30 953 H 76.3843 4.51977 -4.69638 0
M  V30 954 N 79.8174 1.5752 -0.0501392 0
M  V30 955 C 81.0634 1.92936 0.624798 0
M  V30 956 C 81.3964 0.928685 1.70555 0
M  V30 957 O 80.6714 -0.0454779 1.94447 0
M  V30 958 C 80.9544 3.38737 1.22185 0
M  V30 959 C 80.8074 4.49552 0.149218 0
M  V30 960 C 82.1264 3.84913 2.13378 0
M  V30 961 H 79.2454 0.701604 0.225657 0
M  V30 962 H 81.8874 1.89671 -0.111693 0
M  V30 963 H 80.0374 3.4165 1.84953 0
M  V30 964 H 81.7094 4.58768 -0.482648 0
M  V30 965 H 79.9524 4.30638 -0.522841 0
M  V30 966 H 80.6234 5.48653 0.606966 0
M  V30 967 H 83.0994 3.8387 1.60572 0
M  V30 968 H 81.9754 4.87584 2.52097 0
M  V30 969 H 82.2364 3.21611 3.03346 0
M  V30 970 N 81.2955 -0.223234 1.56011 0
M  V30 971 C 82.5435 -0.946003 1.78592 0
M  V30 972 C 82.8645 -1.84936 0.618349 0
M  V30 973 O 82.1345 -1.92473 -0.364833 0
M  V30 974 H 80.7145 -0.352298 0.658707 0
M  V30 975 H 83.3765 -0.235494 1.93472 0
M  V30 976 H 82.4725 -1.55381 2.70672 0
M  V30 977 N 82.7736 -1.49793 -0.48987 0
M  V30 978 C 83.7056 -1.63413 -1.60713 0
M  V30 979 C 84.7186 -0.516329 -1.54395 0
M  V30 980 O 85.9076 -0.788812 -1.60125 0
M  V30 981 C 83.0076 -1.58516 -2.99543 0
M  V30 982 C 82.1806 -2.86016 -3.30928 0
M  V30 983 C 81.2396 -2.74018 -4.49222 0
M  V30 984 O 80.2656 -3.47964 -4.50455 0
M  V30 985 N 81.4676 -1.86309 -5.4979 0
M  V30 986 H 84.2326 -2.59777 -1.49452 0
M  V30 987 H 81.7936 -1.47022 -0.677955 0
M  V30 988 H 83.7856 -1.48128 -3.76617 0
M  V30 989 H 82.3556 -0.69965 -3.0467 0
M  V30 990 H 81.5756 -3.10672 -2.42645 0
M  V30 991 H 82.8636 -3.70521 -3.487 0
M  V30 992 H 82.2616 -1.2551 -5.51601 0
M  V30 993 H 80.8186 -1.81837 -6.25922 0
M  V30 994 N 84.2517 0.741722 -1.39055 0
M  V30 995 C 85.6677 1.04638 -1.20512 0
M  V30 996 C 85.8677 2.01405 -0.0620218 0
M  V30 997 O 84.9237 2.45547 0.588457 0
M  V30 998 C 86.2367 1.6151 -2.53643 0
M  V30 999 C 87.7847 1.73623 -2.6043 0
M  V30 1000 C 88.2597 2.33906 -3.93767 0
M  V30 1001 N 89.7507 2.41323 -3.9537 0
M  V30 1002 C 90.4857 2.88888 -4.95309 0
M  V30 1003 N 89.9817 3.36401 -6.05645 0
M  V30 1004 N 91.7747 2.88037 -4.82692 0
M  V30 1005 H 83.9257 0.0998155 -2.12165 0
M  V30 1006 H 86.1887 0.106907 -0.941953 0
M  V30 1007 H 85.8947 0.978739 -3.37807 0
M  V30 1008 H 85.7687 2.60411 -2.72885 0
M  V30 1009 H 88.1557 2.36384 -1.76655 0
M  V30 1010 H 88.2367 0.733945 -2.45045 0
M  V30 1011 H 87.8807 1.71776 -4.7797 0
M  V30 1012 H 87.8107 3.34799 -4.06469 0
M  V30 1013 H 90.3017 2.07734 -3.15682 0
M  V30 1014 H 90.6147 3.71186 -6.77821 0
M  V30 1015 H 88.9597 3.34427 -6.09248 0
M  V30 1016 H 92.1507 2.50237 -3.95599 0
M  V30 1017 H 92.3237 3.24792 -5.60726 0
M  V30 1018 N 85.7298 1.2412 0.971189 0
M  V30 1019 C 86.6928 1.03156 2.04674 0
M  V30 1020 C 87.6928 -0.00990322 1.60797 0
M  V30 1021 O 88.8828 0.230729 1.72665 0
M  V30 1022 C 86.0148 0.562765 3.36223 0
M  V30 1023 H 87.2078 1.98614 2.24705 0
M  V30 1024 H 84.7608 1.06293 1.14593 0
M  V30 1025 H 85.4958 -0.395176 3.21883 0
M  V30 1026 H 85.2808 1.31441 3.69413 0
M  V30 1027 H 86.7708 0.437015 4.15307 0
M  V30 1028 N 87.2079 -1.17134 1.05439 0
M  V30 1029 C 88.1379 -2.2342 0.678649 0
M  V30 1030 C 89.1189 -1.66971 -0.32476 0
M  V30 1031 O 90.3039 -1.93149 -0.201802 0
M  V30 1032 C 87.4339 -3.47256 0.0552099 0
M  V30 1033 C 86.3879 -4.16543 0.98365 0
M  V30 1034 C 85.7139 -5.34231 0.223961 0
M  V30 1035 C 87.0139 -4.68495 2.3089 0
M  V30 1036 H 88.7079 -2.55105 1.56722 0
M  V30 1037 H 86.2539 -1.2262 0.754998 0
M  V30 1038 H 88.2069 -4.20828 -0.21946 0
M  V30 1039 H 86.9309 -3.14846 -0.868319 0
M  V30 1040 H 85.5899 -3.44887 1.24293 0
M  V30 1041 H 85.2379 -4.98071 -0.702412 0
M  V30 1042 H 84.9379 -5.81527 0.842627 0
M  V30 1043 H 86.4619 -6.10585 -0.0433671 0
M  V30 1044 H 87.8759 -5.33691 2.09396 0
M  V30 1045 H 86.2729 -5.26379 2.88176 0
M  V30 1046 H 87.3429 -3.85169 2.94572 0
M  V30 1047 N 88.686 -0.835752 -1.33615 0
M  V30 1048 C 89.935 -0.426289 -1.97144 0
M  V30 1049 C 90.248 1.01912 -1.66953 0
M  V30 1050 O 91.454 1.53311 -2.24072 0
M  V30 1051 C 89.91 -0.711321 -3.52801 0
M  V30 1052 C 89.518 -2.1712 -3.91871 0
M  V30 1053 C 91.262 -0.368654 -4.22896 0
M  V30 1054 C 89.169 -2.40044 -5.40493 0
M  V30 1055 H 88.099 -0.15567 -0.737755 0
M  V30 1056 H 90.75 -1.0239 -1.52278 0
M  V30 1057 H 89.132 -0.0433766 -3.95976 0
M  V30 1058 H 90.306 -2.87936 -3.59763 0
M  V30 1059 H 88.621 -2.47654 -3.34749 0
M  V30 1060 H 91.218 -0.517601 -5.32189 0
M  V30 1061 H 91.561 0.688078 -4.10574 0
M  V30 1062 H 92.094 -0.991702 -3.8524 0
M  V30 1063 H 88.833 -3.44271 -5.57815 0
M  V30 1064 H 88.353 -1.73785 -5.74072 0
M  V30 1065 H 90.032 -2.23042 -6.0734 0
M  V30 1066 N 90.1641 1.46063 -0.591896 0
M  V30 1067 C 91.0961 2.28539 0.174001 0
M  V30 1068 C 92.1091 1.39047 0.846753 0
M  V30 1069 O 93.2981 1.63564 0.714774 0
M  V30 1070 C 90.3981 3.14347 1.26645 0
M  V30 1071 C 89.5711 4.32021 0.683856 0
M  V30 1072 C 88.6301 4.99157 1.66518 0
M  V30 1073 O 87.6561 5.56458 1.19763 0
M  V30 1074 N 88.8581 4.97005 2.99943 0
M  V30 1075 H 91.6231 2.94911 -0.533633 0
M  V30 1076 H 89.1841 1.56077 -0.430294 0
M  V30 1077 H 91.1761 3.56125 1.92242 0
M  V30 1078 H 89.7461 2.49988 1.87682 0
M  V30 1079 H 88.9661 3.93915 -0.1498 0
M  V30 1080 H 90.2541 5.08059 0.274567 0
M  V30 1081 H 89.6521 4.51714 3.40545 0
M  V30 1082 H 88.2091 5.42696 3.61004 0
M  V30 1083 N 91.6422 0.330177 1.54103 0
M  V30 1084 C 92.6052 -0.520144 2.2322 0
M  V30 1085 C 93.6052 -1.03828 1.22786 0
M  V30 1086 O 94.7952 -0.929652 1.4732 0
M  V30 1087 C 91.9272 -1.72317 2.94142 0
M  V30 1088 H 93.1202 0.0841605 2.99782 0
M  V30 1089 H 90.6732 0.0813433 1.56088 0
M  V30 1090 H 91.4082 -2.36653 2.21734 0
M  V30 1091 H 91.1932 -1.35898 3.67796 0
M  V30 1092 H 92.6832 -2.3266 3.46784 0
M  V30 1093 N 93.1203 -1.57491 0.0584922 0
M  V30 1094 C 94.0533 -2.07533 -0.948969 0
M  V30 1095 C 95.0313 -0.977444 -1.29942 0
M  V30 1096 O 96.2153 -1.2499 -1.41102 0
M  V30 1097 C 93.3423 -2.52192 -2.2609 0
M  V30 1098 C 92.3883 -3.73287 -2.06298 0
M  V30 1099 S 93.2213 -5.18603 -1.33459 0
M  V30 1100 C 94.3773 -5.66583 -2.65959 0
M  V30 1101 H 94.6103 -2.92662 -0.523118 0
M  V30 1102 H 92.1433 -1.53631 -0.153954 0
M  V30 1103 H 94.1013 -2.78585 -3.01498 0
M  V30 1104 H 92.7623 -1.67356 -2.65802 0
M  V30 1105 H 91.9553 -4.0248 -3.03357 0
M  V30 1106 H 91.5573 -3.47199 -1.39029 0
M  V30 1107 H 93.8493 -5.72616 -3.62101 0
M  V30 1108 H 94.7923 -6.65684 -2.41393 0
M  V30 1109 H 95.2003 -4.94342 -2.72554 0
M  V30 1110 N 94.5984 0.214957 -1.56127 0
M  V30 1111 C 95.5304 1.29004 -1.89448 0
M  V30 1112 C 96.5434 1.42716 -0.783326 0
M  V30 1113 O 97.7324 1.43496 -1.06166 0
M  V30 1114 C 94.8324 2.66482 -2.09381 0
M  V30 1115 C 94.0054 2.74633 -3.40434 0
M  V30 1116 C 93.0644 3.9317 -3.49719 0
M  V30 1117 O 92.0904 3.812 -4.227 0
M  V30 1118 N 93.2924 5.07765 -2.81346 0
M  V30 1119 H 96.0574 1.00743 -2.82261 0
M  V30 1120 H 93.6184 0.40497 -1.56753 0
M  V30 1121 H 95.6104 3.44173 -2.12901 0
M  V30 1122 H 94.1804 2.87314 -1.23163 0
M  V30 1123 H 93.4004 1.83368 -3.48955 0
M  V30 1124 H 94.6884 2.77054 -4.26754 0
M  V30 1125 H 94.0864 5.20386 -2.21843 0
M  V30 1126 H 92.6434 5.83474 -2.90519 0
M  V30 1127 N 96.0765 1.50051 0.48192 0
M  V30 1128 C 97.3255 1.59741 1.23149 0
M  V30 1129 C 97.6385 0.298163 1.93314 0
M  V30 1130 O 98.8445 0.273835 2.70116 0
M  V30 1131 C 97.3005 2.81926 2.23708 0
M  V30 1132 C 96.9085 4.18685 1.59396 0
M  V30 1133 C 98.6525 3.00956 2.99375 0
M  V30 1134 C 96.5595 5.3207 2.58178 0
M  V30 1135 H 95.4895 0.594838 0.46334 0
M  V30 1136 H 98.1405 1.76467 0.503169 0
M  V30 1137 H 96.5225 2.58736 2.99786 0
M  V30 1138 H 97.6965 4.52088 0.891811 0
M  V30 1139 H 96.0115 4.05171 0.960503 0
M  V30 1140 H 98.6085 3.82836 3.73283 0
M  V30 1141 H 98.9515 2.12258 3.58123 0
M  V30 1142 H 99.4845 3.24277 2.30411 0
M  V30 1143 H 96.2235 6.22888 2.04184 0
M  V30 1144 H 95.7435 5.03098 3.26577 0
M  V30 1145 H 97.4225 5.62196 3.20225 0
M  V30 1146 N 97.5546 -0.734337 1.39446 0
M  V30 1147 C 98.7796 -1.52866 1.40167 0
M  V30 1148 C 99.2046 -1.881 -0.00171513 0
M  V30 1149 O 98.5626 -1.51957 -0.988879 0
M  V30 1150 C 98.6106 -2.79235 2.28167 0
M  V30 1151 O 97.7146 -3.75185 1.71201 0
M  V30 1152 H 97.0556 -0.461618 0.477289 0
M  V30 1153 H 99.5856 -0.905949 1.8345 0
M  V30 1154 H 99.5956 -3.27963 2.42702 0
M  V30 1155 H 98.2706 -2.52923 3.30156 0
M  V30 1156 H 96.8476 -3.33958 1.65912 0
M  V30 1157 N 99.0327 -1.24633 -0.964593 0
M  V30 1158 C 99.9957 -1.0424 -2.04124 0
M  V30 1159 C 100.996 0.00137563 -1.608 0
M  V30 1160 O 102.186 -0.239883 -1.7254 0
M  V30 1161 C 99.3177 -0.580588 -3.3592 0
M  V30 1162 H 100.511 -1.99803 -2.23649 0
M  V30 1163 H 98.0637 -1.06899 -1.14027 0
M  V30 1164 H 98.7987 0.3781 -3.22088 0
M  V30 1165 H 98.5837 -1.33398 -3.6871 0
M  V30 1166 H 100.074 -0.459034 -4.15069 0
M  V30 1167 N 100.511 1.16574 -1.06058 0
M  V30 1168 C 101.444 2.19798 -0.61352 0
M  V30 1169 C 102.422 1.58509 0.362453 0
M  V30 1170 O 103.606 1.86527 0.271994 0
M  V30 1171 C 100.733 3.3855 0.100915 0
M  V30 1172 C 99.7788 4.18317 -0.831438 0
M  V30 1173 S 100.612 4.82375 -2.32539 0
M  V30 1174 C 101.768 6.04508 -1.62238 0
M  V30 1175 H 102.001 2.5738 -1.48805 0
M  V30 1176 H 99.5338 1.27327 -0.873338 0
M  V30 1177 H 101.492 4.07358 0.506898 0
M  V30 1178 H 100.153 2.99338 0.951604 0
M  V30 1179 H 99.3458 5.03232 -0.278071 0
M  V30 1180 H 98.9478 3.5499 -1.17719 0
M  V30 1181 H 101.24 6.71133 -0.926622 0
M  V30 1182 H 102.183 6.64389 -2.44934 0
M  V30 1183 H 102.591 5.53559 -1.106 0
M  V30 1184 N 101.989 0.842826 1.3317 0
M  V30 1185 C 103.4 0.496651 1.79973 0
M  V30 1186 C 103.751 -0.984641 1.69703 0
M  V30 1187 O 102.876 -1.76743 1.24863 0
M  V30 1188 C 103.471 0.894727 3.26772 0
M  V30 1189 C 102.03 0.600629 3.71577 0
M  V30 1190 C 101.177 1.10091 2.5451 0
M  V30 1191 H 104.128 1.03116 1.20635 0
M  V30 1192 H 104.149 0.206347 3.7994 0
M  V30 1193 H 103.661 1.97287 3.34215 0
M  V30 1194 H 101.762 -0.467284 3.69658 0
M  V30 1195 H 101.875 1.15863 4.64879 0
M  V30 1196 H 100.239 0.52162 2.49301 0
M  V30 1197 H 101.022 2.18591 2.64713 0
M  V30 1198 N 103.467 -1.45747 0.599634 0
M  V30 1199 C 104.377 -2.34262 -0.125888 0
M  V30 1200 C 105.393 -1.50768 -0.868625 0
M  V30 1201 O 106.569 -1.83592 -0.828003 0
M  V30 1202 C 103.634 -3.28252 -1.11587 0
M  V30 1203 C 102.695 -4.27651 -0.375956 0
M  V30 1204 C 101.928 -5.1715 -1.31877 0
M  V30 1205 O 102.151 -5.09916 -2.55621 0
M  V30 1206 O 101.085 -5.96286 -0.820157 0
M  V30 1207 H 104.911 -2.97688 0.601315 0
M  V30 1208 H 102.496 -1.44999 0.359934 0
M  V30 1209 H 104.378 -3.86191 -1.68626 0
M  V30 1210 H 103.053 -2.67401 -1.82424 0
M  V30 1211 H 101.96 -3.7335 0.236698 0
M  V30 1212 H 103.293 -4.91334 0.29177 0
M  V30 1213 N 104.945 -0.338344 -1.53925 0
M  V30 1214 C 105.875 0.51328 -2.27789 0
M  V30 1215 C 106.856 1.107 -1.29149 0
M  V30 1216 O 108.041 1.12937 -1.57984 0
M  V30 1217 C 105.171 1.66697 -3.04679 0
M  V30 1218 C 104.125 1.20183 -4.1078 0
M  V30 1219 C 103.451 2.44363 -4.75595 0
M  V30 1220 C 104.751 0.30605 -5.21403 0
M  V30 1221 H 106.445 -0.102883 -2.99223 0
M  V30 1222 H 103.991 -0.0509219 -1.4391 0
M  V30 1223 H 105.944 2.26915 -3.55088 0
M  V30 1224 H 104.668 2.30995 -2.30887 0
M  V30 1225 H 103.327 0.622499 -3.61276 0
M  V30 1226 H 102.975 3.07057 -3.98403 0
M  V30 1227 H 102.675 2.13925 -5.47275 0
M  V30 1228 H 104.199 3.05317 -5.28786 0
M  V30 1229 H 105.613 0.814929 -5.67478 0
M  V30 1230 H 104.01 0.0937929 -6.00027 0
M  V30 1231 H 105.08 -0.65921 -4.80398 0
M  V30 1232 N 106.423 1.57458 -0.0668435 0
M  V30 1233 C 107.669 1.93587 0.6043 0
M  V30 1234 C 108.002 0.946722 1.69561 0
M  V30 1235 O 107.277 -0.0248516 1.94484 0
M  V30 1236 C 107.56 3.40014 1.18585 0
M  V30 1237 C 107.413 4.49685 0.101529 0
M  V30 1238 C 108.732 3.87154 2.09284 0
M  V30 1239 H 105.851 0.703958 0.218202 0
M  V30 1240 H 108.493 1.89542 -0.131804 0
M  V30 1241 H 106.643 3.43592 1.81319 0
M  V30 1242 H 108.315 4.5823 -0.531279 0
M  V30 1243 H 106.558 4.30059 -0.568487 0
M  V30 1244 H 107.229 5.49266 0.54874 0
M  V30 1245 H 109.705 3.85551 1.56491 0
M  V30 1246 H 108.581 4.90231 2.46911 0
M  V30 1247 H 108.842 3.2481 2.99918 0
M  V30 1248 N 107.901 -0.206675 1.56239 0
M  V30 1249 C 108.811 -1.27686 1.96808 0
M  V30 1250 C 109.827 -1.50455 0.874035 0
M  V30 1251 O 111.003 -1.63295 1.17884 0
M  V30 1252 C 108.068 -2.60358 2.28942 0
M  V30 1253 C 107.129 -2.45762 3.51994 0
M  V30 1254 C 106.362 -3.72108 3.82585 0
M  V30 1255 O 106.585 -4.75776 3.14631 0
M  V30 1256 O 105.519 -3.6833 4.76043 0
M  V30 1257 H 109.345 -0.962593 2.88041 0
M  V30 1258 H 106.93 -0.410746 1.43643 0
M  V30 1259 H 108.812 -3.38687 2.50737 0
M  V30 1260 H 107.487 -2.91435 1.4088 0
M  V30 1261 H 106.394 -1.65584 3.35459 0
M  V30 1262 H 107.727 -2.19621 4.40486 0
M  V30 1263 N 109.379 -1.50304 -0.473955 0
M  V30 1264 C 110.342 -1.6841 -1.55469 0
M  V30 1265 C 111.342 -0.554905 -1.50922 0
M  V30 1266 O 112.532 -0.821882 -1.53593 0
M  V30 1267 C 109.664 -1.70667 -2.95102 0
M  V30 1268 H 110.857 -2.64828 -1.40733 0
M  V30 1269 H 108.41 -1.39742 -0.700132 0
M  V30 1270 H 109.145 -0.75932 -3.15285 0
M  V30 1271 H 108.93 -2.52698 -2.9981 0
M  V30 1272 H 110.42 -1.8664 -3.73571 0
M  V30 1273 N 110.857 0.726932 -1.39834 0
M  V30 1274 C 112.103 1.48884 -1.377 0
M  V30 1275 C 112.436 1.94185 0.0244852 0
M  V30 1276 O 111.711 1.67361 0.990986 0
M  V30 1277 C 111.994 2.72288 -2.3565 0
M  V30 1278 C 111.847 2.32956 -3.84775 0
M  V30 1279 C 113.166 3.74414 -2.31306 0
M  V30 1280 H 110.285 0.540062 -0.5015 0
M  V30 1281 H 112.927 0.830547 -1.70886 0
M  V30 1282 H 111.077 3.28457 -2.07481 0
M  V30 1283 H 112.749 1.82356 -4.23726 0
M  V30 1284 H 110.992 1.65088 -4.01159 0
M  V30 1285 H 111.663 3.21362 -4.4881 0
M  V30 1286 H 114.139 3.27849 -2.56231 0
M  V30 1287 H 113.015 4.58414 -3.01907 0
M  V30 1288 H 113.276 4.21909 -1.32081 0
M  V30 1289 N 112.336 1.25143 0.95797 0
M  V30 1290 C 113.268 1.01023 2.05735 0
M  V30 1291 C 114.281 -0.0236902 1.62783 0
M  V30 1292 O 115.47 0.21448 1.77207 0
M  V30 1293 C 112.57 0.504595 3.35122 0
M  V30 1294 C 111.743 1.6039 4.06932 0
M  V30 1295 C 110.802 1.09922 5.14591 0
M  V30 1296 O 109.828 1.79293 5.40225 0
M  V30 1297 N 111.03 -0.0612545 5.80468 0
M  V30 1298 H 113.795 1.95683 2.26998 0
M  V30 1299 H 111.356 1.16303 1.12629 0
M  V30 1300 H 113.348 0.151516 4.04416 0
M  V30 1301 H 111.918 -0.347989 3.10657 0
M  V30 1302 H 111.138 2.12872 3.31782 0
M  V30 1303 H 112.426 2.34252 4.51667 0
M  V30 1304 H 111.824 -0.640985 5.62057 0
M  V30 1305 H 110.381 -0.355395 6.5083 0
M  V30 1306 N 113.814 -1.1601 1.06675 0
M  V30 1307 C 114.761 -2.20525 0.680967 0
M  V30 1308 C 115.731 -1.62904 -0.324283 0
M  V30 1309 O 116.916 -1.89615 -0.212294 0
M  V30 1310 C 114.056 -3.45013 0.0776551 0
M  V30 1311 C 113.169 -4.16863 1.13355 0
M  V30 1312 C 112.304 -5.2888 0.49597 0
M  V30 1313 C 111.343 -5.92537 1.53513 0
M  V30 1314 N 110.48 -6.96038 0.920631 0
M  V30 1315 H 115.32 -2.52876 1.57663 0
M  V30 1316 H 112.857 -1.24199 0.788223 0
M  V30 1317 H 114.815 -4.16193 -0.289704 0
M  V30 1318 H 113.445 -3.132 -0.781393 0
M  V30 1319 H 112.497 -3.44248 1.61857 0
M  V30 1320 H 113.809 -4.60294 1.92174 0
M  V30 1321 H 112.963 -6.06653 0.0758604 0
M  V30 1322 H 111.702 -4.86622 -0.324062 0
M  V30 1323 H 110.707 -5.13482 1.9651 0
M  V30 1324 H 111.932 -6.36873 2.35733 0
M  V30 1325 H 109.878 -6.55888 0.12138 0
M  V30 1326 H 109.795 -7.3786 1.64616 0
M  V30 1327 H 111.063 -7.77725 0.525795 0
M  V30 1328 N 115.292 -0.849877 -1.32721 0
M  V30 1329 C 116.708 -0.539102 -1.50219 0
M  V30 1330 C 116.908 0.931271 -1.78689 0
M  V30 1331 O 115.964 1.71455 -1.85363 0
M  V30 1332 C 117.277 -1.42196 -2.64954 0
M  V30 1333 C 118.825 -1.42189 -2.78839 0
M  V30 1334 C 119.3 -2.28985 -3.96648 0
M  V30 1335 N 120.791 -2.26754 -4.03902 0
M  V30 1336 C 121.526 -2.90644 -4.94281 0
M  V30 1337 N 121.022 -3.63629 -5.897 0
M  V30 1338 N 122.815 -2.80057 -4.87365 0
M  V30 1339 H 114.966 -1.80156 -1.12506 0
M  V30 1340 H 117.229 -0.769217 -0.554085 0
M  V30 1341 H 116.935 -2.46733 -2.50631 0
M  V30 1342 H 116.809 -1.10591 -3.60624 0
M  V30 1343 H 119.196 -0.38419 -2.92588 0
M  V30 1344 H 119.277 -1.77807 -1.83898 0
M  V30 1345 H 118.921 -3.32819 -3.83658 0
M  V30 1346 H 118.851 -1.90702 -4.90857 0
M  V30 1347 H 121.342 -1.73688 -3.3562 0
M  V30 1348 H 121.655 -4.09558 -6.55349 0
M  V30 1349 H 120 -3.67737 -5.89741 0
M  V30 1350 H 123.191 -2.22593 -4.11789 0
M  V30 1351 H 123.364 -3.30132 -5.57599 0
M  V30 1352 N 116.77 1.45427 -0.607355 0
M  V30 1353 C 118.047 1.9557 -0.0344566 0
M  V30 1354 C 118.427 1.54979 1.43334 0
M  V30 1355 O 117.775 0.812241 2.13576 0
M  V30 1356 C 117.985 3.48226 -0.232321 0
M  V30 1357 C 119.333 4.2445 -0.113001 0
M  V30 1358 O 120.357 3.55829 -0.162431 0
M  V30 1359 O 119.216 5.465 0.00209442 0
M  V30 1360 H 116.31 0.826222 0.0358667 0
M  V30 1361 H 118.856 1.55594 -0.6774 0
M  V30 1362 H 117.628 3.70739 -1.25174 0
M  V30 1363 H 117.251 3.95092 0.445896 0
M  V30 1364 N 118.248 0.346503 1.53744 0
M  V30 1365 C 119.178 -0.501193 2.28058 0
M  V30 1366 C 120.159 -1.10014 1.29734 0
M  V30 1367 O 121.344 -1.12097 1.58581 0
M  V30 1368 C 118.474 -1.65078 3.05559 0
M  V30 1369 C 117.428 -1.18003 4.11411 0
M  V30 1370 C 116.754 -2.41837 4.76884 0
M  V30 1371 C 118.054 -0.278394 5.21558 0
M  V30 1372 H 119.748 0.11875 2.99164 0
M  V30 1373 H 117.294 0.0585531 1.43881 0
M  V30 1374 H 119.247 -2.25028 3.56287 0
M  V30 1375 H 117.971 -2.29767 2.32109 0
M  V30 1376 H 116.63 -0.603331 3.61601 0
M  V30 1377 H 116.278 -3.0494 4.00026 0
M  V30 1378 H 115.978 -2.1102 5.48402 0
M  V30 1379 H 117.502 -3.02508 5.30397 0
M  V30 1380 H 118.916 -0.784823 5.67903 0
M  V30 1381 H 117.313 -0.0619707 6.00068 0
M  V30 1382 H 118.383 0.684677 4.80042 0
M  V30 1383 N 119.726 -1.57421 0.075193 0
M  V30 1384 C 120.689 -2.11791 -0.876203 0
M  V30 1385 C 121.689 -1.04268 -1.22412 0
M  V30 1386 O 122.879 -1.30242 -1.15684 0
M  V30 1387 C 120.011 -2.62207 -2.17854 0
M  V30 1388 H 121.204 -2.9716 -0.40444 0
M  V30 1389 H 118.757 -1.55333 -0.173557 0
M  V30 1390 H 119.492 -1.803 -2.6956 0
M  V30 1391 H 119.277 -3.40802 -1.93897 0
M  V30 1392 H 120.767 -3.04335 -2.85955 0
M  V30 1393 N 121.204 0.198386 -1.56346 0
M  V30 1394 C 122.62 0.549085 -1.49857 0
M  V30 1395 C 122.82 1.86016 -0.774611 0
M  V30 1396 O 121.876 2.50416 -0.323776 0
M  V30 1397 C 123.189 0.606868 -2.94512 0
M  V30 1398 C 124.737 0.695925 -3.05165 0
M  V30 1399 C 125.212 0.784848 -4.51225 0
M  V30 1400 N 126.703 0.848463 -4.55363 0
M  V30 1401 C 127.438 0.937378 -5.65686 0
M  V30 1402 N 126.934 0.9888 -6.85707 0
M  V30 1403 N 128.727 0.974312 -5.53592 0
M  V30 1404 H 120.878 -0.661655 -2.01831 0
M  V30 1405 H 123.141 -0.235261 -0.918344 0
M  V30 1406 H 122.847 -0.28732 -3.50524 0
M  V30 1407 H 122.721 1.46268 -3.47686 0
M  V30 1408 H 125.108 1.58055 -2.49204 0
M  V30 1409 H 125.189 -0.186022 -2.55123 0
M  V30 1410 H 124.833 -0.0954072 -5.0781 0
M  V30 1411 H 124.763 1.68255 -4.98997 0
M  V30 1412 H 127.254 0.818103 -3.68938 0
M  V30 1413 H 127.567 1.05707 -7.65536 0
M  V30 1414 H 125.912 0.957534 -6.88372 0
M  V30 1415 H 129.103 0.930954 -4.58749 0
M  V30 1416 H 129.276 1.04015 -6.39597 0
M  V30 1417 N 122.682 1.50554 0.465978 0
M  V30 1418 C 123.931 1.61038 1.21448 0
M  V30 1419 C 124.244 0.31865 1.92987 0
M  V30 1420 O 125.45 0.302469 2.6981 0
M  V30 1421 C 123.906 2.84283 2.20706 0
M  V30 1422 C 123.514 4.20352 1.54946 0
M  V30 1423 C 125.258 3.04115 2.96166 0
M  V30 1424 C 123.165 5.34778 2.5252 0
M  V30 1425 H 122.095 0.599718 0.457005 0
M  V30 1426 H 124.746 1.7699 0.484424 0
M  V30 1427 H 123.128 2.61901 2.97025 0
M  V30 1428 H 124.302 4.53008 0.843811 0
M  V30 1429 H 122.617 4.06167 0.917475 0
M  V30 1430 H 125.214 3.86774 3.69202 0
M  V30 1431 H 125.557 2.16045 3.55852 0
M  V30 1432 H 126.09 3.26702 2.26959 0
M  V30 1433 H 122.829 6.25018 1.97566 0
M  V30 1434 H 122.349 5.06534 3.21222 0
M  V30 1435 H 124.028 5.65561 3.14245 0
M  V30 1436 N 124.16 -0.719506 1.40217 0
M  V30 1437 C 125.107 -1.83359 1.40172 0
M  V30 1438 C 126.077 -1.64065 0.259206 0
M  V30 1439 O 127.262 -1.85254 0.456677 0
M  V30 1440 C 124.402 -3.2103 1.26624 0
M  V30 1441 C 123.515 -3.51923 2.50548 0
M  V30 1442 C 122.65 -4.79079 2.29471 0
M  V30 1443 C 121.689 -5.02863 3.48992 0
M  V30 1444 N 120.826 -6.2123 3.27135 0
M  V30 1445 H 125.666 -1.82733 2.35399 0
M  V30 1446 H 123.203 -0.892688 1.16917 0
M  V30 1447 H 125.161 -4.00524 1.16776 0
M  V30 1448 H 123.791 -3.20895 0.350176 0
M  V30 1449 H 122.843 -2.67014 2.70939 0
M  V30 1450 H 124.155 -3.6541 3.39525 0
M  V30 1451 H 123.309 -5.66582 2.16955 0
M  V30 1452 H 122.048 -4.67794 1.37913 0
M  V30 1453 H 121.053 -4.13816 3.6199 0
M  V30 1454 H 122.278 -5.16023 4.41472 0
M  V30 1455 H 120.224 -6.11204 2.38256 0
M  V30 1456 H 120.141 -6.35375 4.09675 0
M  V30 1457 H 121.409 -7.11532 3.18344 0
M  V30 1458 N 125.638 -1.25649 -0.95132 0
M  V30 1459 C 126.601 -1.06399 -2.03007 0
M  V30 1460 C 127.601 -0.0156794 -1.60792 0
M  V30 1461 O 128.791 -0.25817 -1.72276 0
M  V30 1462 C 125.923 -0.616184 -3.35285 0
M  V30 1463 H 127.116 -2.02164 -2.21517 0
M  V30 1464 H 124.669 -1.08103 -1.12887 0
M  V30 1465 H 125.404 0.343917 -3.22471 0
M  V30 1466 H 125.189 -1.37301 -3.67275 0
M  V30 1467 H 126.679 -0.503032 -4.14559 0
M  V30 1468 N 127.117 1.15442 -1.07289 0
M  V30 1469 C 128.047 2.22312 -0.714107 0
M  V30 1470 C 129.028 1.67467 0.298155 0
M  V30 1471 O 130.213 1.93445 0.171048 0
M  V30 1472 C 127.343 3.47124 -0.110448 0
M  V30 1473 C 126.297 4.14926 -1.04979 0
M  V30 1474 C 125.623 5.33807 -0.308924 0
M  V30 1475 C 126.923 4.64762 -2.38314 0
M  V30 1476 H 128.617 2.5258 -1.6076 0
M  V30 1477 H 126.163 1.21404 -0.77441 0
M  V30 1478 H 128.116 4.21124 0.152482 0
M  V30 1479 H 126.84 3.16187 0.81812 0
M  V30 1480 H 125.499 3.42866 -1.29764 0
M  V30 1481 H 125.147 4.99126 0.623084 0
M  V30 1482 H 124.847 5.80113 -0.935036 0
M  V30 1483 H 126.371 6.10576 -0.0537771 0
M  V30 1484 H 127.785 5.30292 -2.1786 0
M  V30 1485 H 126.182 5.21728 -2.96514 0
M  V30 1486 H 127.252 3.80434 -3.00663 0
M  V30 1487 N 128.595 0.856903 1.32268 0
M  V30 1488 C 129.844 0.457599 1.96441 0
M  V30 1489 C 130.157 -0.992426 1.68553 0
M  V30 1490 O 131.363 -1.49727 2.26482 0
M  V30 1491 C 129.819 0.767358 3.51624 0
M  V30 1492 C 129.427 2.23326 3.88367 0
M  V30 1493 C 131.171 0.435887 4.22256 0
M  V30 1494 C 129.078 2.48613 5.36606 0
M  V30 1495 H 128.008 0.167387 0.735185 0
M  V30 1496 H 130.659 1.048 1.5063 0
M  V30 1497 H 129.041 0.106367 3.95857 0
M  V30 1498 H 130.215 2.93623 3.55137 0
M  V30 1499 H 128.53 2.52948 3.30766 0
M  V30 1500 H 131.127 0.602202 5.31298 0
M  V30 1501 H 131.47 -0.622672 4.11617 0
M  V30 1502 H 132.003 1.05286 3.83614 0
M  V30 1503 H 128.742 3.53101 5.52268 0
M  V30 1504 H 128.262 1.82896 5.71235 0
M  V30 1505 H 129.941 2.32676 6.03714 0
M  V30 1506 N 130.073 -1.45103 0.615059 0
M  V30 1507 C 131.35 -1.95549 0.0448276 0
M  V30 1508 C 131.73 -1.55737 -1.4251 0
M  V30 1509 O 131.078 -0.823556 -2.13143 0
M  V30 1510 C 131.288 -3.48098 0.250785 0
M  V30 1511 C 132.636 -4.24384 0.135509 0
M  V30 1512 O 133.66 -3.55738 0.181299 0
M  V30 1513 O 132.519 -5.46493 0.0268878 0
M  V30 1514 H 129.613 -0.8264 -0.0314845 0
M  V30 1515 H 132.159 -1.55232 0.685642 0
M  V30 1516 H 130.931 -3.7007 1.27139 0
M  V30 1517 H 130.554 -3.95323 -0.424937 0
M  V30 1518 N 131.551 -0.354651 -1.53558 0
M  V30 1519 C 132.962 0.126902 -1.86268 0
M  V30 1520 C 133.313 1.49075 -1.27558 0
M  V30 1521 O 132.438 2.08105 -0.5934 0
M  V30 1522 C 133.033 0.237046 -3.3797 0
M  V30 1523 C 131.592 0.662842 -3.70518 0
M  V30 1524 C 130.739 -0.196652 -2.76602 0
M  V30 1525 H 133.69 -0.573849 -1.47962 0
M  V30 1526 H 133.711 1.06259 -3.65362 0
M  V30 1527 H 133.223 -0.755725 -3.80671 0
M  V30 1528 H 131.324 1.66424 -3.33367 0
M  V30 1529 H 131.437 0.445034 -4.77029 0
M  V30 1530 H 129.801 0.332763 -2.52517 0
M  V30 1531 H 130.584 -1.18676 -3.22135 0
M  V30 1532 N 133.029 1.57378 -0.0835403 0
M  V30 1533 C 133.962 2.09016 0.915833 0
M  V30 1534 C 134.94 0.997993 1.2837 0
M  V30 1535 O 136.124 1.27219 1.39096 0
M  V30 1536 C 133.251 2.55757 2.22049 0
M  V30 1537 C 132.297 3.76522 2.00333 0
M  V30 1538 S 133.13 5.20661 1.25191 0
M  V30 1539 C 134.286 5.70743 2.56912 0
M  V30 1540 H 134.519 2.93457 0.476492 0
M  V30 1541 H 132.052 1.53856 0.129493 0
M  V30 1542 H 134.01 2.83346 2.97027 0
M  V30 1543 H 132.671 1.71564 2.63106 0
M  V30 1544 H 131.864 4.07256 2.96916 0
M  V30 1545 H 131.466 3.49367 1.33488 0
M  V30 1546 H 133.758 5.78304 3.52946 0
M  V30 1547 H 134.701 6.6944 2.30772 0
M  V30 1548 H 135.109 4.98616 2.64655 0
M  V30 1549 N 134.507 -0.190092 1.56449 0
M  V30 1550 C 135.923 -0.54113 1.50146 0
M  V30 1551 C 136.123 -1.85603 0.784465 0
M  V30 1552 O 135.179 -2.5024 0.337051 0
M  V30 1553 C 136.492 -0.591241 2.9483 0
M  V30 1554 C 138.04 -0.679732 3.0553 0
M  V30 1555 C 138.515 -0.760908 4.51635 0
M  V30 1556 N 140.006 -0.824302 4.55806 0
M  V30 1557 C 140.741 -0.907365 5.66175 0
M  V30 1558 N 140.237 -0.952422 6.86222 0
M  V30 1559 N 142.03 -0.94494 5.541 0
M  V30 1560 H 134.181 0.67235 2.01478 0
M  V30 1561 H 136.444 0.240127 0.917084 0
M  V30 1562 H 136.15 0.305905 3.50367 0
M  V30 1563 H 136.024 -1.44422 3.48457 0
M  V30 1564 H 138.411 -1.56731 2.50039 0
M  V30 1565 H 138.492 0.199549 2.5502 0
M  V30 1566 H 138.136 0.122336 5.07753 0
M  V30 1567 H 138.066 -1.65606 4.99882 0
M  V30 1568 H 140.557 -0.798526 3.69367 0
M  V30 1569 H 140.87 -1.01645 7.66086 0
M  V30 1570 H 139.215 -0.921014 6.8887 0
M  V30 1571 H 142.406 -0.906612 4.59236 0
M  V30 1572 H 142.579 -1.00622 6.4014 0
M  V30 1573 N 135.985 -1.50799 -0.457987 0
M  V30 1574 C 137.21 -1.66496 -1.23668 0
M  V30 1575 C 137.635 -0.353288 -1.84752 0
M  V30 1576 O 136.993 0.684346 -1.67888 0
M  V30 1577 C 137.041 -2.76763 -2.3116 0
M  V30 1578 O 136.145 -2.38928 -3.36136 0
M  V30 1579 H 135.486 -0.555828 -0.363252 0
M  V30 1580 H 138.016 -1.9725 -0.543474 0
M  V30 1581 H 138.026 -3.00232 -2.76269 0
M  V30 1582 H 136.701 -3.71954 -1.86073 0
M  V30 1583 H 135.278 -2.25953 -2.96647 0
M  V30 1584 N 137.463 0.71206 -1.40597 0
M  V30 1585 C 138.71 1.47197 -1.39065 0
M  V30 1586 C 139.038 1.94499 0.00583891 0
M  V30 1587 O 138.293 1.68752 0.99102 0
M  V30 1588 C 138.592 2.71039 -2.32965 0
M  V30 1589 C 138.258 2.42484 -3.80148 0
M  V30 1590 C 136.92 2.34406 -4.20247 0
M  V30 1591 C 139.272 2.18598 -4.73143 0
M  V30 1592 C 136.6 2.00516 -5.51371 0
M  V30 1593 C 138.952 1.8622 -6.0457 0
M  V30 1594 C 137.616 1.76626 -6.43708 0
M  V30 1595 H 136.886 0.538634 -0.508876 0
M  V30 1596 H 139.533 0.815325 -1.73276 0
M  V30 1597 H 137.838 3.41558 -1.91951 0
M  V30 1598 H 139.535 3.29138 -2.29061 0
M  V30 1599 H 136.125 2.49659 -3.4838 0
M  V30 1600 H 140.309 2.23793 -4.42979 0
M  V30 1601 H 135.565 1.91628 -5.80593 0
M  V30 1602 H 139.739 1.66752 -6.76141 0
M  V30 1603 H 137.366 1.50133 -7.45228 0
M  V30 1604 N 138.941 1.26152 0.944643 0
M  V30 1605 C 140.166 1.14363 1.7302 0
M  V30 1606 C 140.591 -0.29772 1.85729 0
M  V30 1607 O 139.949 -1.2157 1.34501 0
M  V30 1608 C 139.997 1.81378 3.11664 0
M  V30 1609 O 139.101 1.10022 3.97453 0
M  V30 1610 H 138.442 0.398694 0.53098 0
M  V30 1611 H 140.972 1.66906 1.18337 0
M  V30 1612 H 140.982 1.88064 3.62072 0
M  V30 1613 H 139.657 2.86237 3.0173 0
M  V30 1614 H 138.234 1.11287 3.55907 0
M  V30 1615 N 140.419 -1.14872 1.07899 0
M  V30 1616 C 141.696 -1.81928 0.71845 0
M  V30 1617 C 142.076 -1.95417 -0.798455 0
M  V30 1618 O 141.424 -1.50997 -1.715 0
M  V30 1619 C 141.634 -3.17937 1.43935 0
M  V30 1620 C 142.982 -3.93501 1.59506 0
M  V30 1621 O 144.006 -3.27509 1.40058 0
M  V30 1622 O 142.865 -5.1183 1.91551 0
M  V30 1623 H 139.959 -0.78628 0.256305 0
M  V30 1624 H 142.505 -1.21934 1.18026 0
M  V30 1625 H 141.277 -3.0325 2.47295 0
M  V30 1626 H 140.9 -3.85619 0.968687 0
M  V30 1627 N 141.898 -0.863906 -1.31812 0
M  V30 1628 C 142.861 -0.320212 -2.26952 0
M  V30 1629 C 143.861 0.525369 -1.51975 0
M  V30 1630 O 145.051 0.335547 -1.70938 0
M  V30 1631 C 142.183 0.545919 -3.365 0
M  V30 1632 H 143.376 -1.16004 -2.76556 0
M  V30 1633 H 140.929 -0.638995 -1.42641 0
M  V30 1634 H 141.664 1.40718 -2.92179 0
M  V30 1635 H 141.449 -0.0594674 -3.92055 0
M  V30 1636 H 142.939 0.918796 -4.07367 0
M  V30 1637 N 143.376 1.44774 -0.622745 0
M  V30 1638 C 144.604 2.06487 -0.130722 0
M  V30 1639 C 145.019 1.46476 1.19123 0
M  V30 1640 O 144.376 0.584502 1.72887 0
M  V30 1641 C 144.427 3.615 -0.000807207 0
M  V30 1642 O 144.148 4.19274 -1.27048 0
M  V30 1643 C 145.649 4.40229 0.520898 0
M  V30 1644 H 142.869 0.666704 -0.0758106 0
M  V30 1645 H 145.413 1.85779 -0.854774 0
M  V30 1646 H 143.568 3.81498 0.673643 0
M  V30 1647 H 143.982 5.12622 -1.1099 0
M  V30 1648 H 145.456 5.49144 0.560838 0
M  V30 1649 H 145.933 4.1108 1.54627 0
M  V30 1650 H 146.539 4.25131 -0.120018 0
M  V30 1651 N 144.854 0.36279 1.53368 0
M  V30 1652 C 146.084 -0.228281 2.05335 0
M  V30 1653 C 146.492 -1.43226 1.23625 0
M  V30 1654 O 145.835 -1.81717 0.269206 0
M  V30 1655 C 145.897 -0.688549 3.52845 0
M  V30 1656 C 145.561 0.398362 4.5526 0
M  V30 1657 C 146.558 1.24732 5.04716 0
M  V30 1658 C 144.243 0.557805 4.99193 0
M  V30 1659 C 146.237 2.2411 5.96702 0
M  V30 1660 C 143.924 1.55495 5.90986 0
M  V30 1661 C 144.922 2.39503 6.39631 0
M  V30 1662 O 144.61 3.37517 7.29615 0
M  V30 1663 H 144.342 -0.044395 0.674541 0
M  V30 1664 H 146.896 0.518668 1.98744 0
M  V30 1665 H 145.126 -1.48706 3.56964 0
M  V30 1666 H 146.815 -1.20231 3.87685 0
M  V30 1667 H 147.581 1.13532 4.71525 0
M  V30 1668 H 143.46 -0.0862959 4.60919 0
M  V30 1669 H 147.004 2.89718 6.34594 0
M  V30 1670 H 142.901 1.66744 6.23592 0
M  V30 1671 H 143.669 3.33213 7.47604 0
M  V30 1672 N 146.332 -1.57332 0.0918853 0
M  V30 1673 C 147.581 -1.93412 -0.572249 0
M  V30 1674 C 147.894 -0.975515 -1.69538 0
M  V30 1675 O 149.1 -1.22991 -2.42045 0
M  V30 1676 C 147.556 -3.43648 -1.0693 0
M  V30 1677 C 147.164 -4.47994 0.0239049 0
M  V30 1678 C 148.908 -3.88695 -1.70635 0
M  V30 1679 C 146.815 -5.89381 -0.488319 0
M  V30 1680 H 145.745 -0.721939 -0.217532 0
M  V30 1681 H 148.396 -1.82735 0.167369 0
M  V30 1682 H 146.778 -3.49466 -1.8625 0
M  V30 1683 H 147.952 -4.53815 0.799277 0
M  V30 1684 H 146.267 -4.12536 0.565946 0
M  V30 1685 H 148.864 -4.91725 -2.10025 0
M  V30 1686 H 149.207 -3.27166 -2.57426 0
M  V30 1687 H 149.74 -3.85564 -0.979023 0
M  V30 1688 H 146.479 -6.54602 0.342906 0
M  V30 1689 H 145.999 -5.87037 -1.23077 0
M  V30 1690 H 147.678 -6.39863 -0.958317 0
M  V30 1691 N 147.81 0.181792 -1.56548 0
M  V30 1692 C 149.038 0.915947 -1.85521 0
M  V30 1693 C 149.453 1.76282 -0.676016 0
M  V30 1694 O 148.81 1.79012 0.355077 0
M  V30 1695 C 148.861 1.80126 -3.13427 0
M  V30 1696 O 148.582 0.988562 -4.26801 0
M  V30 1697 C 150.083 2.64597 -3.55673 0
M  V30 1698 H 147.303 0.26661 -0.61576 0
M  V30 1699 H 149.847 0.185039 -2.03661 0
M  V30 1700 H 148.002 2.48563 -2.97145 0
M  V30 1701 H 148.416 1.59308 -4.99721 0
M  V30 1702 H 149.89 3.2235 -4.48101 0
M  V30 1703 H 150.367 3.38958 -2.79292 0
M  V30 1704 H 150.973 2.0151 -3.74532 0
M  V30 1705 N 149.288 1.51039 0.449983 0
M  V30 1706 C 150.534 1.63322 1.20223 0
M  V30 1707 C 150.867 0.34241 1.91158 0
M  V30 1708 O 150.142 -0.657344 1.83055 0
M  V30 1709 C 150.425 2.82801 2.22925 0
M  V30 1710 C 150.278 4.21823 1.56157 0
M  V30 1711 C 151.597 2.97807 3.24035 0
M  V30 1712 H 148.716 0.594407 0.435718 0
M  V30 1713 H 151.358 1.83489 0.493136 0
M  V30 1714 H 149.508 2.65738 2.834 0
M  V30 1715 H 151.18 4.50526 0.991162 0
M  V30 1716 H 149.423 4.25105 0.864172 0
M  V30 1717 H 150.094 5.01391 2.30891 0
M  V30 1718 H 152.57 3.13497 2.73603 0
M  V30 1719 H 151.446 3.82992 3.93202 0
M  V30 1720 H 151.707 2.09328 3.89402 0
M  V30 1721 N 150.766 -0.704594 1.40972 0
M  V30 1722 C 152.014 -1.46169 1.39568 0
M  V30 1723 C 152.335 -1.95 0.00253745 0
M  V30 1724 O 151.605 -1.71095 -0.954114 0
M  V30 1725 H 150.185 -0.542326 0.513704 0
M  V30 1726 H 152.847 -0.834553 1.76128 0
M  V30 1727 H 151.943 -2.32922 2.07735 0
M  V30 1728 N 152.244 -1.26651 -0.937939 0
M  V30 1729 C 153.521 -1.0313 -1.66204 0
M  V30 1730 C 153.901 0.437256 -2.06522 0
M  V30 1731 O 153.249 1.41831 -1.79154 0
M  V30 1732 C 153.459 -1.98314 -2.87181 0
M  V30 1733 C 154.807 -2.27107 -3.58758 0
M  V30 1734 O 155.831 -1.96205 -2.97291 0
M  V30 1735 O 154.69 -2.79736 -4.69479 0
M  V30 1736 H 151.784 -0.392384 -0.727986 0
M  V30 1737 H 154.33 -1.37874 -0.989382 0
M  V30 1738 H 153.102 -2.97399 -2.54302 0
M  V30 1739 H 152.725 -1.64068 -3.6217 0
M  V30 1740 N 153.722 1.14298 -1.08507 0
M  V30 1741 C 154.685 2.17607 -0.719711 0
M  V30 1742 C 155.685 1.58907 0.245997 0
M  V30 1743 O 156.875 1.74181 0.0254081 0
M  V30 1744 C 154.007 3.40842 -0.0627695 0
M  V30 1745 H 155.2 2.51443 -1.63452 0
M  V30 1746 H 152.753 1.28963 -0.88307 0
M  V30 1747 H 153.488 3.12587 0.863716 0
M  V30 1748 H 153.273 3.84713 -0.757504 0
M  V30 1749 H 154.763 4.17221 0.177786 0
M  V30 1750 N 155.201 0.870884 1.31352 0
M  V30 1751 C 156.426 0.495957 2.01383 0
M  V30 1752 C 156.851 -0.904324 1.64935 0
M  V30 1753 O 156.209 -1.59687 0.858466 0
M  V30 1754 C 156.257 0.661433 3.54482 0
M  V30 1755 O 155.361 -0.298851 4.11316 0
M  V30 1756 H 154.702 0.197158 0.634054 0
M  V30 1757 H 157.232 1.17455 1.67527 0
M  V30 1758 H 157.242 0.555072 4.04207 0
M  V30 1759 H 155.917 1.68246 3.8035 0
M  V30 1760 H 154.494 -0.147368 3.72609 0
M  V30 1761 N 156.679 -1.44442 0.630414 0
M  V30 1762 C 157.927 -2.01653 0.134351 0
M  V30 1763 C 158.248 -1.49836 -1.24796 0
M  V30 1764 O 157.518 -0.701684 -1.82902 0
M  V30 1765 H 156.098 -0.74554 0.0466769 0
M  V30 1766 H 158.76 -1.76952 0.816955 0
M  V30 1767 H 157.856 -3.11935 0.101498 0
M  V30 1768 N 158.157 -0.370918 -1.53173 0
M  V30 1769 C 159.089 0.507823 -2.23503 0
M  V30 1770 C 160.102 1.04182 -1.251 0
M  V30 1771 O 161.291 0.947286 -1.5129 0
M  V30 1772 C 158.391 1.71447 -2.92334 0
M  V30 1773 C 157.564 1.31105 -4.17289 0
M  V30 1774 C 156.623 2.38035 -4.69282 0
M  V30 1775 O 155.649 2.00204 -5.32829 0
M  V30 1776 N 156.851 3.69697 -4.47554 0
M  V30 1777 H 159.616 -0.0946382 -2.99551 0
M  V30 1778 H 157.177 -0.196358 -1.60705 0
M  V30 1779 H 159.169 2.42469 -3.24023 0
M  V30 1780 H 157.739 2.22368 -2.19707 0
M  V30 1781 H 156.959 0.430462 -3.91843 0
M  V30 1782 H 158.247 1.0179 -4.98514 0
M  V30 1783 H 157.645 4.03205 -3.9679 0
M  V30 1784 H 156.202 4.36807 -4.8378 0
M  V30 1785 N 159.635 1.57281 -0.100228 0
M  V30 1786 C 161.051 1.57527 0.256416 0
M  V30 1787 C 161.251 1.11173 1.68056 0
M  V30 1788 O 160.307 0.79053 2.39806 0
M  V30 1789 C 161.62 3.00673 0.0401747 0
M  V30 1790 C 163.168 3.12815 0.107528 0
M  V30 1791 C 163.643 4.57929 -0.0807834 0
M  V30 1792 N 165.134 4.63193 -0.0261207 0
M  V30 1793 C 165.869 5.73212 -0.146999 0
M  V30 1794 N 165.365 6.92047 -0.322999 0
M  V30 1795 N 167.158 5.62031 -0.0879044 0
M  V30 1796 H 159.309 1.85718 -1.03065 0
M  V30 1797 H 161.572 0.857446 -0.404339 0
M  V30 1798 H 161.278 3.38804 -0.943649 0
M  V30 1799 H 161.152 3.69042 0.780262 0
M  V30 1800 H 163.539 2.74554 1.08186 0
M  V30 1801 H 163.62 2.47028 -0.664134 0
M  V30 1802 H 163.264 4.96886 -1.05201 0
M  V30 1803 H 163.194 5.21783 0.710635 0
M  V30 1804 H 165.685 3.77748 0.107161 0
M  V30 1805 H 165.998 7.7173 -0.406608 0
M  V30 1806 H 164.343 6.94074 -0.358733 0
M  V30 1807 H 167.534 4.68075 0.048498 0
M  V30 1808 H 167.707 6.47734 -0.185557 0
M  V30 1809 N 161.113 -0.173488 1.56642 0
M  V30 1810 C 162.043 -1.2171 1.99271 0
M  V30 1811 C 163.024 -1.46289 0.867959 0
M  V30 1812 O 164.209 -1.5766 1.13388 0
M  V30 1813 C 161.339 -2.55651 2.35074 0
M  V30 1814 C 160.293 -2.45645 3.50489 0
M  V30 1815 C 159.619 -3.84056 3.72028 0
M  V30 1816 C 160.919 -1.96302 4.84007 0
M  V30 1817 H 162.613 -0.86275 2.867 0
M  V30 1818 H 160.159 -0.413571 1.37933 0
M  V30 1819 H 162.112 -3.2886 2.63494 0
M  V30 1820 H 160.836 -2.92869 1.44552 0
M  V30 1821 H 159.495 -1.7489 3.22194 0
M  V30 1822 H 159.143 -4.18664 2.788 0
M  V30 1823 H 158.843 -3.7823 4.49684 0
M  V30 1824 H 160.367 -4.58854 4.02846 0
M  V30 1825 H 161.781 -2.59284 5.11317 0
M  V30 1826 H 160.178 -2.01429 5.65284 0
M  V30 1827 H 161.248 -0.917226 4.76146 0
M  V30 1828 N 162.591 -1.51276 -0.441967 0
M  V30 1829 C 163.821 -1.67273 -1.21257 0
M  V30 1830 C 164.229 -0.367624 -1.85594 0
M  V30 1831 O 163.572 0.663349 -1.71305 0
M  V30 1832 C 163.634 -2.72807 -2.34129 0
M  V30 1833 C 163.298 -4.1554 -1.90198 0
M  V30 1834 C 164.295 -5.00471 -1.40801 0
M  V30 1835 C 161.98 -4.61616 -1.9803 0
M  V30 1836 C 163.974 -6.29536 -0.998174 0
M  V30 1837 C 161.661 -5.90679 -1.56658 0
M  V30 1838 C 162.659 -6.74466 -1.07633 0
M  V30 1839 O 162.347 -8.01116 -0.668459 0
M  V30 1840 H 162.079 -0.564614 -0.371734 0
M  V30 1841 H 164.633 -1.9843 -0.530521 0
M  V30 1842 H 162.863 -2.36954 -3.05597 0
M  V30 1843 H 164.552 -2.77729 -2.96009 0
M  V30 1844 H 165.318 -4.66079 -1.34148 0
M  V30 1845 H 161.197 -3.96526 -2.35135 0
M  V30 1846 H 164.741 -6.94885 -0.61482 0
M  V30 1847 H 160.638 -6.24586 -1.62979 0
M  V30 1848 H 161.406 -8.14633 -0.794722 0
M  V30 1849 N 164.069 0.697108 -1.41344 0
M  V30 1850 C 165.019 1.80313 -1.39539 0
M  V30 1851 C 166.003 1.58618 -0.270001 0
M  V30 1852 O 167.195 1.69477 -0.510551 0
M  V30 1853 C 164.324 3.18606 -1.27848 0
M  V30 1854 C 163.41 3.46001 -2.45244 0
M  V30 1855 N 163.801 3.44103 -3.70711 0
M  V30 1856 C 162.099 3.76542 -2.39023 0
M  V30 1857 C 162.8 3.7036 -4.48563 0
M  V30 1858 N 161.776 3.90027 -3.78655 0
M  V30 1859 H 165.578 1.77207 -2.34468 0
M  V30 1860 H 163.092 0.897031 -1.35378 0
M  V30 1861 H 165.089 3.97833 -1.24637 0
M  V30 1862 H 163.749 3.22925 -0.339032 0
M  V30 1863 H 164.76 3.2452 -4.03618 0
M  V30 1864 H 161.437 3.88241 -1.53542 0
M  V30 1865 H 162.827 3.75042 -5.57488 0
M  V30 1866 N 165.547 1.27147 0.931209 0
M  V30 1867 C 166.793 1.13446 1.68101 0
M  V30 1868 C 167.126 -0.319628 1.91552 0
M  V30 1869 O 166.401 -1.23407 1.50336 0
M  V30 1870 C 166.684 1.91482 3.0497 0
M  V30 1871 C 166.537 3.44855 2.88782 0
M  V30 1872 C 167.856 1.71651 4.05246 0
M  V30 1873 H 164.975 0.413498 0.610072 0
M  V30 1874 H 167.617 1.56261 1.08086 0
M  V30 1875 H 165.767 1.55095 3.56199 0
M  V30 1876 H 167.439 3.9105 2.44698 0
M  V30 1877 H 165.682 3.71373 2.24198 0
M  V30 1878 H 166.353 3.94694 3.85902 0
M  V30 1879 H 168.829 2.0337 3.63015 0
M  V30 1880 H 167.705 2.28651 4.99009 0
M  V30 1881 H 167.966 0.663555 4.37092 0
M  V30 1882 N 167.025 -1.13721 1.09112 0
M  V30 1883 C 167.973 -2.21103 0.722219 0
M  V30 1884 C 168.967 -1.67147 -0.275374 0
M  V30 1885 O 170.173 -1.79477 -0.137176 0
M  V30 1886 H 166.548 -0.720445 0.215553 0
M  V30 1887 H 168.519 -2.49483 1.63709 0
M  V30 1888 C 167.268 -3.47352 0.15543 0
M  V30 1889 H 166.591 -3.89206 0.914246 0
M  V30 1890 H 168.031 -4.2395 -0.0647967 0
M  V30 1891 C 166.49 -3.1814 -1.10852 0
M  V30 1892 O 167.02 -3.36604 -2.19227 0
M  V30 1893 N 165.226 -2.72045 -1.02176 0
M  V30 1894 H 164.773 -2.57221 -0.139764 0
M  V30 1895 H 164.731 -2.52875 -1.8682 0
M  V30 1896 N 168.503 -0.877838 -1.30888 0
M  V30 1897 C 169.914 -0.544193 -1.78593 0
M  V30 1898 C 170.265 0.939301 -1.72254 0
M  V30 1899 O 169.39 1.7337 -1.29505 0
M  V30 1900 C 169.985 -0.98105 -3.24285 0
M  V30 1901 C 168.544 -0.698935 -3.69854 0
M  V30 1902 C 167.691 -1.168 -2.51502 0
M  V30 1903 H 170.642 -1.06278 -1.17859 0
M  V30 1904 H 170.663 -0.307009 -3.79259 0
M  V30 1905 H 170.175 -2.06079 -3.28866 0
M  V30 1906 H 168.276 0.369112 -3.70767 0
M  V30 1907 H 168.389 -1.28148 -4.61644 0
M  V30 1908 H 166.753 -0.587535 -2.47831 0
M  V30 1909 H 167.536 -2.25533 -2.58824 0
M  V30 1910 N 169.982 1.44106 -0.638065 0
M  V30 1911 C 171.259 1.95453 -0.0759321 0
M  V30 1912 C 171.639 1.57984 1.40015 0
M  V30 1913 O 170.987 0.857361 2.11806 0
M  V30 1914 C 171.197 3.47655 -0.306132 0
M  V30 1915 C 172.545 4.24114 -0.203008 0
M  V30 1916 O 173.569 3.55405 -0.237871 0
M  V30 1917 O 172.428 5.46381 -0.113827 0
M  V30 1918 H 169.522 0.826797 0.0183332 0
M  V30 1919 H 172.068 1.54122 -0.710251 0
M  V30 1920 H 170.84 3.68 -1.3301 0
M  V30 1921 H 170.463 3.95949 0.361991 0
M  V30 1922 N 171.46 0.379036 1.52974 0
M  V30 1923 C 172.37 -0.468639 2.29872 0
M  V30 1924 C 173.386 -1.08067 1.36373 0
M  V30 1925 O 174.562 -1.08871 1.69438 0
M  V30 1926 C 171.627 -1.58594 3.083 0
M  V30 1927 C 170.688 -1.00007 4.17489 0
M  V30 1928 C 169.921 -2.06413 4.92168 0
M  V30 1929 O 170.144 -3.27751 4.66835 0
M  V30 1930 O 169.078 -1.68717 5.7777 0
M  V30 1931 H 172.904 0.157508 3.03291 0
M  V30 1932 H 170.489 0.143035 1.48714 0
M  V30 1933 H 172.371 -2.23525 3.57232 0
M  V30 1934 H 171.046 -2.19724 2.37703 0
M  V30 1935 H 169.953 -0.314299 3.72777 0
M  V30 1936 H 171.286 -0.433135 4.90291 0
M  V30 1937 N 172.938 -1.57226 0.108567 0
M  V30 1938 C 174.187 -1.94008 -0.551703 0
M  V30 1939 C 174.5 -0.993442 -1.68494 0
M  V30 1940 O 175.706 -1.25551 -2.40726 0
M  V30 1941 C 174.162 -3.44763 -1.03279 0
M  V30 1942 C 173.77 -4.47943 0.0714193 0
M  V30 1943 C 175.514 -3.90483 -1.66503 0
M  V30 1944 C 173.421 -5.89865 -0.425779 0
M  V30 1945 H 172.351 -0.724206 -0.209863 0
M  V30 1946 H 175.002 -1.82547 0.186741 0
M  V30 1947 H 173.384 -3.51422 -1.82533 0
M  V30 1948 H 174.558 -4.52942 0.847365 0
M  V30 1949 H 172.873 -4.11913 0.609669 0
M  V30 1950 H 175.47 -4.93925 -2.04798 0
M  V30 1951 H 175.813 -3.29877 -2.53942 0
M  V30 1952 H 176.346 -3.86581 -0.938074 0
M  V30 1953 H 173.085 -6.54202 0.412316 0
M  V30 1954 H 172.605 -5.88309 -1.16843 0
M  V30 1955 H 174.284 -6.40844 -0.890397 0
M  V30 1956 N 174.416 0.165178 -1.56732 0
M  V30 1957 C 175.664 0.879068 -1.8198 0
M  V30 1958 C 175.985 1.82514 -0.686561 0
M  V30 1959 O 175.255 1.93694 0.293146 0
M  V30 1960 H 173.835 0.327608 -0.671329 0
M  V30 1961 H 176.497 0.163526 -1.94213 0
M  V30 1962 H 175.593 1.45228 -2.76252 0
M  V30 1963 N 175.894 1.51508 0.433938 0
M  V30 1964 C 176.841 1.73068 1.52696 0
M  V30 1965 C 177.811 0.572441 1.55924 0
M  V30 1966 O 178.996 0.807253 1.72882 0
M  V30 1967 C 176.136 1.86474 2.90381 0
M  V30 1968 C 175.249 3.14037 2.96656 0
M  V30 1969 C 174.384 3.18019 4.25485 0
M  V30 1970 C 173.423 4.39882 4.2564 0
M  V30 1971 N 172.56 4.41394 5.45999 0
M  V30 1972 H 177.4 2.66366 1.33615 0
M  V30 1973 H 174.937 1.32008 0.649018 0
M  V30 1974 H 176.895 1.92229 3.70275 0
M  V30 1975 H 175.525 0.965809 3.08013 0
M  V30 1976 H 174.577 3.17575 2.09404 0
M  V30 1977 H 175.889 4.0394 2.92633 0
M  V30 1978 H 175.043 3.22708 5.13755 0
M  V30 1979 H 173.782 2.2601 4.3217 0
M  V30 1980 H 172.787 4.35366 3.35763 0
M  V30 1981 H 174.012 5.33159 4.20617 0
M  V30 1982 H 171.958 3.52258 5.53399 0
M  V30 1983 H 171.875 5.25111 5.4387 0
M  V30 1984 H 173.143 4.50281 6.36292 0
M  V30 1985 N 177.372 -0.689602 1.41712 0
M  V30 1986 C 178.597 -1.48329 1.44959 0
M  V30 1987 C 179.022 -1.8801 0.0581283 0
M  V30 1988 O 178.38 -1.55026 -0.940035 0
M  V30 1989 C 178.428 -2.71835 2.36935 0
M  V30 1990 O 177.532 -3.69549 1.8305 0
M  V30 1991 H 176.873 -0.446199 0.491734 0
M  V30 1992 H 179.403 -0.847127 1.86239 0
M  V30 1993 H 179.413 -3.20076 2.53013 0
M  V30 1994 H 178.088 -2.42291 3.38035 0
M  V30 1995 H 176.665 -3.2851 1.76452 0
M  V30 1996 N 178.85 -1.27639 -0.924453 0
M  V30 1997 C 179.783 -1.04966 -2.02626 0
M  V30 1998 C 180.761 0.0309505 -1.62571 0
M  V30 1999 O 181.945 -0.114846 -1.8815 0
M  V30 2000 C 179.072 -0.59292 -3.3347 0
M  V30 2001 C 178.118 -1.66858 -3.92506 0
M  V30 2002 S 178.951 -3.2619 -4.24689 0
M  V30 2003 C 180.107 -2.82325 -5.58609 0
M  V30 2004 H 180.34 -1.98252 -2.21547 0
M  V30 2005 H 177.873 -1.11506 -1.06798 0
M  V30 2006 H 179.831 -0.336086 -4.09122 0
M  V30 2007 H 178.492 0.319939 -3.12466 0
M  V30 2008 H 177.685 -1.30038 -4.86935 0
M  V30 2009 H 177.287 -1.87766 -3.2345 0
M  V30 2010 H 179.579 -2.2783 -6.38044 0
M  V30 2011 H 180.522 -3.75511 -6.00331 0
M  V30 2012 H 180.93 -2.21367 -5.19285 0
M  V30 2013 N 180.328 1.1314 -1.09713 0
M  V30 2014 C 181.238 2.22242 -0.751367 0
M  V30 2015 C 182.254 1.72224 0.247938 0
M  V30 2016 O 183.43 2.01205 0.0885463 0
M  V30 2017 C 180.495 3.46231 -0.180274 0
M  V30 2018 C 179.556 4.11125 -1.2359 0
M  V30 2019 C 178.789 5.29195 -0.691966 0
M  V30 2020 O 179.012 5.68342 0.48414 0
M  V30 2021 O 177.946 5.84214 -1.44838 0
M  V30 2022 H 181.772 2.54197 -1.66186 0
M  V30 2023 H 179.357 1.21331 -0.871735 0
M  V30 2024 H 181.239 4.21185 0.134739 0
M  V30 2025 H 179.914 3.1597 0.703185 0
M  V30 2026 H 178.821 3.37985 -1.60366 0
M  V30 2027 H 180.154 4.45524 -2.09211 0
M  V30 2028 N 181.806 0.884767 1.30421 0
M  V30 2029 C 183.054 0.502112 1.95763 0
M  V30 2030 C 183.375 -0.951815 1.70192 0
M  V30 2031 O 182.645 -1.6692 1.0254 0
M  V30 2032 H 181.225 0.182694 0.724315 0
M  V30 2033 H 183.887 1.1278 1.58955 0
M  V30 2034 H 182.983 0.672188 3.04775 0
M  V30 2035 N 183.284 -1.43765 0.645699 0
M  V30 2036 C 184.532 -2.01499 0.155731 0
M  V30 2037 C 184.853 -1.51151 -1.232 0
M  V30 2038 O 184.123 -0.721044 -1.82148 0
M  V30 2039 H 182.703 -0.745003 0.0545817 0
M  V30 2040 H 185.365 -1.76075 0.835677 0
M  V30 2041 H 184.461 -3.1181 0.134577 0
M  V30 2042 N 184.763 -0.387143 -1.52771 0
M  V30 2043 C 186.04 0.253197 -1.93954 0
M  V30 2044 C 186.42 1.64545 -1.32243 0
M  V30 2045 O 185.768 2.23191 -0.489699 0
M  V30 2046 C 185.978 0.281722 -3.47861 0
M  V30 2047 C 187.326 0.511715 -4.21505 0
M  V30 2048 O 188.35 0.362023 -3.54356 0
M  V30 2049 O 187.209 0.804847 -5.40541 0
M  V30 2050 H 184.303 0.156845 -0.811991 0
M  V30 2051 H 186.849 -0.441494 -1.63856 0
M  V30 2052 H 185.621 -0.693571 -3.85104 0
M  V30 2053 H 185.244 1.02142 -3.84256 0
M  V30 2054 N 186.241 1.57166 -0.116904 0
M  V30 2055 C 187.466 1.999 0.55271 0
M  V30 2056 C 187.891 0.996039 1.59564 0
M  V30 2057 O 187.249 -0.032556 1.81271 0
M  V30 2058 C 187.297 3.4152 1.15742 0
M  V30 2059 O 186.401 3.44106 2.27299 0
M  V30 2060 H 185.742 0.649447 0.138258 0
M  V30 2061 H 188.272 2.03573 -0.204759 0
M  V30 2062 H 188.282 3.79684 1.49346 0
M  V30 2063 H 186.957 4.14034 0.393493 0
M  V30 2064 H 185.534 3.17759 1.9515 0
M  V30 2065 N 187.719 -0.156864 1.56817 0
M  V30 2066 C 188.996 -0.899244 1.73704 0
M  V30 2067 C 189.376 -1.99771 0.682254 0
M  V30 2068 O 188.724 -2.26515 -0.300522 0
M  V30 2069 C 188.934 -1.45075 3.17418 0
M  V30 2070 C 190.282 -1.91802 3.7881 0
M  V30 2071 O 191.306 -1.54838 3.20786 0
M  V30 2072 O 190.165 -2.5994 4.80722 0
M  V30 2073 H 187.259 -0.424267 0.709878 0
M  V30 2074 H 189.805 -0.143561 1.69092 0
M  V30 2075 H 188.577 -0.660846 3.85679 0
M  V30 2076 H 188.2 -2.27021 3.26416 0
M  V30 2077 N 189.197 -1.51736 -0.425897 0
M  V30 2078 C 190.107 -1.76738 -1.54275 0
M  V30 2079 C 191.123 -0.65211 -1.61318 0
M  V30 2080 O 192.299 -0.935654 -1.78346 0
M  V30 2081 C 189.364 -1.89755 -2.90162 0
M  V30 2082 C 188.425 -3.13633 -2.93143 0
M  V30 2083 C 187.658 -3.2602 -4.22548 0
M  V30 2084 O 187.881 -2.44067 -5.15546 0
M  V30 2085 O 186.815 -4.19071 -4.32046 0
M  V30 2086 H 190.641 -2.71502 -1.36089 0
M  V30 2087 H 188.226 -1.36376 -0.610069 0
M  V30 2088 H 190.108 -2.00236 -3.70788 0
M  V30 2089 H 188.783 -0.981785 -3.08452 0
M  V30 2090 H 187.69 -3.08622 -2.11431 0
M  V30 2091 H 189.023 -4.04936 -2.798 0
M  V30 2092 N 190.675 0.682077 -1.42076 0
M  V30 2093 C 191.638 1.77756 -1.44691 0
M  V30 2094 C 192.638 1.5726 -0.335535 0
M  V30 2095 O 193.828 1.63686 -0.596037 0
M  V30 2096 C 190.96 3.16301 -1.27146 0
M  V30 2097 H 192.153 1.76826 -2.42224 0
M  V30 2098 H 189.706 0.891012 -1.28416 0
M  V30 2099 H 190.441 3.22862 -0.305075 0
M  V30 2100 H 190.226 3.32581 -2.07683 0
M  V30 2101 H 191.716 3.96241 -1.31843 0
M  V30 2102 N 192.153 1.28127 0.917671 0
M  V30 2103 C 193.083 1.14248 2.03641 0
M  V30 2104 C 194.064 0.0412748 1.7005 0
M  V30 2105 O 195.249 0.217566 1.92977 0
M  V30 2106 C 192.379 0.799431 3.37974 0
M  V30 2107 C 191.333 1.85497 3.85713 0
M  V30 2108 C 190.659 1.36565 5.16966 0
M  V30 2109 C 191.959 3.26085 4.08002 0
M  V30 2110 H 193.653 2.07835 2.15511 0
M  V30 2111 H 191.199 1.00064 1.03553 0
M  V30 2112 H 193.152 0.689114 4.15727 0
M  V30 2113 H 191.876 -0.172145 3.26146 0
M  V30 2114 H 190.535 1.95437 3.10161 0
M  V30 2115 H 190.183 0.383253 5.01538 0
M  V30 2116 H 189.883 2.07143 5.49878 0
M  V30 2117 H 191.407 1.26848 5.97279 0
M  V30 2118 H 192.821 3.19089 4.76293 0
M  V30 2119 H 191.218 3.94462 4.52238 0
M  V30 2120 H 192.288 3.70394 3.12948 0
M  V30 2121 N 193.631 -1.12557 1.10312 0
M  V30 2122 C 194.88 -1.83395 0.839588 0
M  V30 2123 C 195.193 -1.84939 -0.636929 0
M  V30 2124 O 196.399 -2.51761 -1.01631 0
M  V30 2125 C 194.855 -3.29303 1.45215 0
M  V30 2126 C 194.463 -3.36122 2.96186 0
M  V30 2127 C 196.207 -4.05121 1.26796 0
M  V30 2128 C 194.114 -4.76357 3.50483 0
M  V30 2129 H 193.044 -0.687133 0.310425 0
M  V30 2130 H 195.695 -1.26746 1.32694 0
M  V30 2131 H 194.077 -3.85812 0.892469 0
M  V30 2132 H 195.251 -2.89559 3.58458 0
M  V30 2133 H 193.566 -2.73776 3.13745 0
M  V30 2134 H 196.163 -5.08668 1.64806 0
M  V30 2135 H 196.506 -4.15773 0.209409 0
M  V30 2136 H 197.039 -3.54967 1.79563 0
M  V30 2137 H 193.778 -4.70899 4.55998 0
M  V30 2138 H 193.298 -5.23377 2.92978 0
M  V30 2139 H 194.977 -5.45294 3.48228 0
M  V30 2140 N 195.109 -0.891671 -1.2995 0
M  V30 2141 C 196.057 -0.353066 -2.29905 0
M  V30 2142 C 197.051 0.543509 -1.60444 0
M  V30 2143 O 198.257 0.4272 -1.74857 0
M  V30 2144 H 194.632 -0.095531 -0.745907 0
M  V30 2145 H 196.603 -1.20961 -2.72784 0
M  V30 2146 C 195.352 0.411475 -3.45257 0
M  V30 2147 H 194.675 -0.269182 -3.98893 0
M  V30 2148 H 196.115 0.753328 -4.17254 0
M  V30 2149 C 194.574 1.6111 -2.9588 0
M  V30 2150 O 195.104 2.71045 -2.96475 0
M  V30 2151 N 193.31 1.45054 -2.51809 0
M  V30 2152 H 192.857 0.556175 -2.51524 0
M  V30 2153 H 192.815 2.25453 -2.1913 0
M  V30 2154 N 196.587 1.43421 -0.653314 0
M  V30 2155 C 197.55 2.29182 0.0287951 0
M  V30 2156 C 198.55 1.42213 0.750465 0
M  V30 2157 O 199.74 1.63843 0.591701 0
M  V30 2158 C 196.872 3.24278 1.05151 0
M  V30 2159 H 198.065 2.90985 -0.725786 0
M  V30 2160 H 195.618 1.50702 -0.414545 0
M  V30 2161 H 196.353 2.6737 1.83532 0
M  V30 2162 H 196.138 3.88396 0.537687 0
M  V30 2163 H 197.628 3.88647 1.52786 0
M  V30 2164 N 198.065 0.39524 1.52563 0
M  V30 2165 C 199.012 -0.437036 2.26624 0
M  V30 2166 C 199.982 -1.05281 1.28472 0
M  V30 2167 O 201.167 -1.07971 1.57311 0
M  V30 2168 C 198.307 -1.55524 3.08069 0
M  V30 2169 C 197.42 -0.961745 4.21158 0
M  V30 2170 C 196.555 -2.05149 4.89987 0
M  V30 2171 C 195.594 -1.4342 5.95061 0
M  V30 2172 N 194.731 -2.46351 6.57462 0
M  V30 2173 H 199.571 0.200976 2.97322 0
M  V30 2174 H 197.108 0.110944 1.46681 0
M  V30 2175 H 199.066 -2.21437 3.53584 0
M  V30 2176 H 197.696 -2.16348 2.3957 0
M  V30 2177 H 196.748 -0.192048 3.79915 0
M  V30 2178 H 198.06 -0.470701 4.96574 0
M  V30 2179 H 197.214 -2.78819 5.38837 0
M  V30 2180 H 195.953 -2.57615 4.14109 0
M  V30 2181 H 194.958 -0.682774 5.45544 0
M  V30 2182 H 196.183 -0.917416 6.72875 0
M  V30 2183 H 194.129 -2.97975 5.8442 0
M  V30 2184 H 194.046 -2.02019 7.28508 0
M  V30 2185 H 195.314 -3.19633 7.10954 0
M  V30 2186 N 199.544 -1.57102 0.125237 0
M  V30 2187 C 200.769 -2.0019 -0.542101 0
M  V30 2188 C 201.194 -1.00449 -1.59034 0
M  V30 2189 O 200.552 0.0229423 -1.81285 0
M  V30 2190 C 200.6 -3.42129 -1.13929 0
M  V30 2191 O 199.704 -3.45307 -2.2547 0
M  V30 2192 H 199.045 -0.650171 -0.134812 0
M  V30 2193 H 201.575 -2.03461 0.215553 0
M  V30 2194 H 201.585 -3.80471 -1.4733 0
M  V30 2195 H 200.26 -4.14237 -0.371531 0
M  V30 2196 H 198.837 -3.1879 -1.93462 0
M  V30 2197 N 201.022 0.148545 -1.56898 0
M  V30 2198 C 202.252 0.875118 -1.8715 0
M  V30 2199 C 202.66 1.75322 -0.711262 0
M  V30 2200 O 202.003 1.80745 0.328151 0
M  V30 2201 C 202.065 1.7844 -3.12089 0
M  V30 2202 C 201.729 1.08361 -4.43967 0
M  V30 2203 C 202.726 0.438247 -5.1805 0
M  V30 2204 C 200.411 1.07358 -4.90693 0
M  V30 2205 C 202.405 -0.20779 -6.37061 0
M  V30 2206 C 200.092 0.42373 -6.09629 0
M  V30 2207 C 201.09 -0.215829 -6.82659 0
M  V30 2208 O 200.778 -0.855378 -7.99336 0
M  V30 2209 H 200.51 0.258504 -0.624621 0
M  V30 2210 H 203.064 0.14652 -2.04877 0
M  V30 2211 H 201.294 2.55389 -2.90367 0
M  V30 2212 H 202.983 2.38279 -3.286 0
M  V30 2213 H 203.749 0.437817 -4.8302 0
M  V30 2214 H 199.628 1.5608 -4.33774 0
M  V30 2215 H 203.172 -0.70758 -6.94002 0
M  V30 2216 H 199.069 0.421822 -6.4412 0
M  V30 2217 H 199.837 -0.756892 -8.14993 0
M  V30 2218 N 202.5 1.5196 0.417844 0
M  V30 2219 C 203.746 1.65836 1.16732 0
M  V30 2220 C 204.079 0.382881 1.90388 0
M  V30 2221 O 203.354 -0.618368 1.84408 0
M  V30 2222 C 203.637 2.87466 2.16876 0
M  V30 2223 C 203.49 4.25041 1.47174 0
M  V30 2224 C 204.809 3.04613 3.17646 0
M  V30 2225 H 201.928 0.603515 0.423011 0
M  V30 2226 H 204.57 1.84494 0.454105 0
M  V30 2227 H 202.72 2.71689 2.777 0
M  V30 2228 H 204.392 4.52527 0.895376 0
M  V30 2229 H 202.635 4.26843 0.773806 0
M  V30 2230 H 203.306 5.06176 2.20204 0
M  V30 2231 H 205.782 3.1923 2.66892 0
M  V30 2232 H 204.658 3.91247 3.8499 0
M  V30 2233 H 204.919 2.17541 3.84874 0
M  V30 2234 N 203.978 -0.674533 1.42435 0
M  V30 2235 C 205.203 -1.46784 1.46524 0
M  V30 2236 C 205.628 -1.87938 0.078066 0
M  V30 2237 O 204.986 -1.56014 -0.92354 0
M  V30 2238 C 205.034 -2.69307 2.39805 0
M  V30 2239 O 204.138 -3.67587 1.86959 0
M  V30 2240 H 203.479 -0.440959 0.496439 0
M  V30 2241 H 206.009 -0.827326 1.87127 0
M  V30 2242 H 206.019 -3.17374 2.56393 0
M  V30 2243 H 204.694 -2.38692 3.40586 0
M  V30 2244 H 203.271 -3.2662 1.79927 0
M  V30 2245 N 205.456 -1.28612 -0.910864 0
M  V30 2246 C 206.702 -1.16106 -1.66274 0
M  V30 2247 C 207.035 0.289113 -1.92036 0
M  V30 2248 O 206.31 1.21 -1.52281 0
M  V30 2249 C 206.593 -1.96309 -3.01885 0
M  V30 2250 C 206.446 -3.49405 -2.8326 0
M  V30 2251 C 207.765 -1.78076 -4.02463 0
M  V30 2252 H 204.884 -0.423152 -0.603417 0
M  V30 2253 H 207.526 -1.57961 -1.05586 0
M  V30 2254 H 205.676 -1.60742 -3.53687 0
M  V30 2255 H 207.348 -3.94894 -2.38446 0
M  V30 2256 H 205.591 -3.74893 -2.18261 0
M  V30 2257 H 206.262 -4.00784 -3.79574 0
M  V30 2258 H 208.738 -2.0912 -3.59733 0
M  V30 2259 H 207.614 -2.36561 -4.95308 0
M  V30 2260 H 207.875 -0.733008 -4.35981 0
M  V30 2261 N 206.934 1.1197 -1.10907 0
M  V30 2262 C 208.35 1.35591 -0.841852 0
M  V30 2263 C 208.55 1.94233 0.536246 0
M  V30 2264 O 207.606 2.1717 1.28816 0
M  V30 2265 C 208.919 2.29284 -1.94549 0
M  V30 2266 C 210.467 2.42862 -1.97451 0
M  V30 2267 C 210.942 3.39873 -3.07002 0
M  V30 2268 N 212.433 3.47433 -3.06341 0
M  V30 2269 C 213.168 4.22421 -3.87748 0
M  V30 2270 N 212.664 5.00432 -4.79103 0
M  V30 2271 N 214.457 4.17876 -3.75946 0
M  V30 2272 H 206.608 0.722664 -1.99728 0
M  V30 2273 H 208.871 0.380635 -0.868229 0
M  V30 2274 H 208.577 1.93378 -2.93765 0
M  V30 2275 H 208.451 3.29452 -1.83688 0
M  V30 2276 H 210.838 2.78046 -0.988645 0
M  V30 2277 H 210.919 1.42566 -2.12388 0
M  V30 2278 H 210.563 3.05417 -4.05811 0
M  V30 2279 H 210.493 4.40011 -2.89306 0
M  V30 2280 H 212.984 2.91784 -2.40147 0
M  V30 2281 H 213.297 5.55002 -5.37766 0
M  V30 2282 H 211.642 4.99612 -4.83128 0
M  V30 2283 H 214.833 3.56016 -3.03924 0
M  V30 2284 H 215.006 4.76061 -4.39624 0
M  V30 2285 N 208.412 0.89855 1.29475 0
M  V30 2286 C 209.359 0.373819 2.27753 0
M  V30 2287 C 210.329 -0.543444 1.56958 0
M  V30 2288 O 211.514 -0.468934 1.84948 0
M  V30 2289 C 208.654 -0.393648 3.42848 0
M  V30 2290 C 207.767 0.554379 4.28428 0
M  V30 2291 C 206.902 -0.230026 5.30702 0
M  V30 2292 C 205.941 0.712599 6.07938 0
M  V30 2293 N 205.078 -0.0373283 7.0209 0
M  V30 2294 H 209.918 1.21699 2.72017 0
M  V30 2295 H 207.455 0.611456 1.33789 0
M  V30 2296 H 209.413 -0.85466 4.08352 0
M  V30 2297 H 208.043 -1.20128 2.99615 0
M  V30 2298 H 207.095 1.13391 3.63107 0
M  V30 2299 H 208.407 1.27597 4.82204 0
M  V30 2300 H 207.561 -0.752288 6.02018 0
M  V30 2301 H 206.3 -0.984758 4.77654 0
M  V30 2302 H 205.305 1.24637 5.35486 0
M  V30 2303 H 206.53 1.46664 6.63074 0
M  V30 2304 H 204.476 -0.774348 6.51414 0
M  V30 2305 H 204.393 0.624374 7.53417 0
M  V30 2306 H 205.661 -0.539891 7.77628 0
M  V30 2307 N 209.89 -1.43072 0.660911 0
M  V30 2308 C 211.138 -2.01323 0.177094 0
M  V30 2309 C 211.459 -1.5245 -1.2159 0
M  V30 2310 O 210.729 -0.740322 -1.81373 0
M  V30 2311 H 209.309 -0.744382 0.0624804 0
M  V30 2312 H 211.971 -1.75179 0.854305 0
M  V30 2313 H 211.067 -3.11649 0.167641 0
M  V30 2314 N 211.368 -0.403325 -1.52352 0
M  V30 2315 C 212.593 0.176499 -2.06648 0
M  V30 2316 C 213.018 1.38577 -1.27193 0
M  V30 2317 O 212.376 1.7879 -0.300637 0
M  V30 2318 C 212.424 0.511061 -3.5696 0
M  V30 2319 O 211.528 1.60294 -3.79973 0
M  V30 2320 H 210.869 0.0167337 -0.663789 0
M  V30 2321 H 213.399 -0.574848 -1.96359 0
M  V30 2322 H 213.409 0.771362 -4.00642 0
M  V30 2323 H 212.084 -0.37296 -4.14224 0
M  V30 2324 H 210.661 1.33526 -3.48174 0
M  V30 2325 N 212.846 1.57033 -0.133567 0
M  V30 2326 C 213.776 2.1909 0.807567 0
M  V30 2327 C 214.757 1.13517 1.26681 0
M  V30 2328 O 215.942 1.41809 1.32679 0
M  V30 2329 C 213.072 2.80188 2.05212 0
M  V30 2330 C 212.026 3.91471 1.73015 0
M  V30 2331 C 211.352 4.39443 3.04622 0
M  V30 2332 C 212.652 5.12886 0.987168 0
M  V30 2333 H 214.346 2.97988 0.290403 0
M  V30 2334 H 211.892 1.43335 0.138239 0
M  V30 2335 H 213.845 3.22264 2.71521 0
M  V30 2336 H 212.569 1.98601 2.59278 0
M  V30 2337 H 211.228 3.49993 1.0909 0
M  V30 2338 H 210.876 3.54695 3.56651 0
M  V30 2339 H 210.576 5.14495 2.83847 0
M  V30 2340 H 212.1 4.8418 3.72024 0
M  V30 2341 H 213.514 5.51891 1.55208 0
M  V30 2342 H 211.911 5.93615 0.87985 0
M  V30 2343 H 212.981 4.84894 -0.0235286 0
M  V30 2344 N 214.325 -0.140222 1.56975 0
M  V30 2345 C 215.573 -0.850005 1.83356 0
M  V30 2346 C 215.894 -1.81399 0.71551 0
M  V30 2347 O 215.164 -1.94136 -0.262294 0
M  V30 2348 H 213.744 -0.316886 0.676456 0
M  V30 2349 H 216.406 -0.132608 1.94448 0
M  V30 2350 H 215.502 -1.40814 2.78528 0
M  V30 2351 N 215.803 -1.52179 -0.40978 0
M  V30 2352 C 217.028 -1.70347 -1.18308 0
M  V30 2353 C 217.453 -0.411887 -1.83535 0
M  V30 2354 O 216.811 0.630587 -1.6998 0
M  V30 2355 C 216.859 -2.83977 -2.22238 0
M  V30 2356 O 215.963 -2.495 -3.28365 0
M  V30 2357 H 215.304 -0.567103 -0.345384 0
M  V30 2358 H 217.834 -1.98879 -0.480445 0
M  V30 2359 H 217.844 -3.0887 -2.66577 0
M  V30 2360 H 216.519 -3.77685 -1.74146 0
M  V30 2361 H 215.096 -2.35277 -2.89308 0
M  V30 2362 N 217.281 0.66697 -1.42791 0
M  V30 2363 C 218.506 1.46004 -1.47301 0
M  V30 2364 C 218.931 1.87894 -0.0880317 0
M  V30 2365 O 218.289 1.56502 0.915253 0
M  V30 2366 C 218.337 2.68031 -2.41229 0
M  V30 2367 O 217.441 3.6659 -1.88906 0
M  V30 2368 H 216.782 0.43832 -0.49877 0
M  V30 2369 H 219.312 0.817391 -1.87563 0
M  V30 2370 H 219.322 3.1601 -2.58073 0
M  V30 2371 H 217.997 2.36883 -3.41847 0
M  V30 2372 H 216.574 3.25661 -1.81656 0
M  V30 2373 N 218.759 1.29093 0.90403 0
M  V30 2374 C 219.689 1.16401 2.02418 0
M  V30 2375 C 220.67 0.0593085 1.69997 0
M  V30 2376 O 221.855 0.238021 1.92736 0
M  V30 2377 C 218.985 0.835233 3.37107 0
M  V30 2378 C 217.939 1.89578 3.83724 0
M  V30 2379 C 217.265 1.42041 5.15489 0
M  V30 2380 C 218.565 3.30394 4.04521 0
M  V30 2381 H 220.259 2.10109 2.13295 0
M  V30 2382 H 217.805 1.01157 1.02486 0
M  V30 2383 H 219.758 0.733169 4.14973 0
M  V30 2384 H 218.482 -0.137543 3.2631 0
M  V30 2385 H 217.141 1.98715 3.08071 0
M  V30 2386 H 216.789 0.436426 5.01103 0
M  V30 2387 H 216.489 2.12964 5.4765 0
M  V30 2388 H 218.013 1.33176 5.959 0
M  V30 2389 H 219.427 3.24123 4.72882 0
M  V30 2390 H 217.824 3.99237 4.48029 0
M  V30 2391 H 218.894 3.73692 3.09002 0
M  V30 2392 N 220.237 -1.11381 1.11499 0
M  V30 2393 C 221.653 -1.35143 0.849031 0
M  V30 2394 C 221.853 -1.94515 -0.525938 0
M  V30 2395 O 220.909 -2.1785 -1.27662 0
M  V30 2396 C 222.222 -2.28249 1.95762 0
M  V30 2397 C 223.77 -2.41812 1.98736 0
M  V30 2398 C 224.245 -3.3824 3.088 0
M  V30 2399 N 225.736 -3.45803 3.08179 0
M  V30 2400 C 226.471 -4.20358 3.89982 0
M  V30 2401 N 225.967 -4.97884 4.8175 0
M  V30 2402 N 227.76 -4.15877 3.78157 0
M  V30 2403 H 219.911 -0.712062 2.00109 0
M  V30 2404 H 222.174 -0.376025 0.870235 0
M  V30 2405 H 221.88 -1.91817 2.94787 0
M  V30 2406 H 221.754 -3.28473 1.85433 0
M  V30 2407 H 224.141 -2.77518 1.00338 0
M  V30 2408 H 224.222 -1.41437 2.13141 0
M  V30 2409 H 223.866 -3.03261 4.07425 0
M  V30 2410 H 223.796 -4.38471 2.91635 0
M  V30 2411 H 226.287 -2.90506 2.41691 0
M  V30 2412 H 226.6 -5.52142 5.40702 0
M  V30 2413 H 224.945 -4.97043 4.85771 0
M  V30 2414 H 228.136 -3.544 3.05808 0
M  V30 2415 H 228.309 -4.73723 4.42143 0
M  V30 2416 N 221.715 -0.905404 -1.28997 0
M  V30 2417 C 222.963 -0.533192 -1.9494 0
M  V30 2418 C 223.284 0.924618 -1.71685 0
M  V30 2419 O 222.554 1.65268 -1.05183 0
M  V30 2420 H 221.134 -0.194194 -0.721317 0
M  V30 2421 H 223.796 -1.15294 -1.57141 0
M  V30 2422 H 222.892 -0.72059 -3.03667 0
M  V30 2423 N 223.193 1.4272 -0.668489 0
M  V30 2424 C 224.14 2.30796 0.0137489 0
M  V30 2425 C 225.11 1.4561 0.799177 0
M  V30 2426 O 226.295 1.74453 0.772702 0
M  V30 2427 C 223.435 3.31377 0.963507 0
M  V30 2428 C 222.548 4.31655 0.172569 0
M  V30 2429 C 221.683 5.19312 1.1175 0
M  V30 2430 C 220.722 6.11274 0.317886 0
M  V30 2431 N 219.859 6.91504 1.2152 0
M  V30 2432 H 224.699 2.88585 -0.743161 0
M  V30 2433 H 222.236 1.42154 -0.378226 0
M  V30 2434 H 224.194 3.88214 1.52792 0
M  V30 2435 H 222.824 2.75202 1.68712 0
M  V30 2436 H 221.876 3.76988 -0.508374 0
M  V30 2437 H 223.188 4.96779 -0.448527 0
M  V30 2438 H 222.342 5.80851 1.75206 0
M  V30 2439 H 221.081 4.5435 1.77249 0
M  V30 2440 H 220.086 5.48809 -0.329918 0
M  V30 2441 H 221.311 6.78283 -0.332917 0
M  V30 2442 H 219.257 6.29176 1.85671 0
M  V30 2443 H 219.174 7.53209 0.649036 0
M  V30 2444 H 220.442 7.57535 1.83742 0
M  V30 2445 N 224.671 0.411399 1.52136 0
M  V30 2446 C 225.896 -0.165538 2.06738 0
M  V30 2447 C 226.321 -1.379 1.27926 0
M  V30 2448 O 225.679 -1.78628 0.310114 0
M  V30 2449 C 225.727 -0.492124 3.57226 0
M  V30 2450 O 224.831 -1.58276 3.80818 0
M  V30 2451 H 224.172 -0.0132132 0.663869 0
M  V30 2452 H 226.702 0.585253 1.96051 0
M  V30 2453 H 226.712 -0.750104 4.01045 0
M  V30 2454 H 225.387 0.394922 4.14021 0
M  V30 2455 H 223.964 -1.31677 3.48877 0
M  V30 2456 N 226.149 -1.5696 0.141893 0
M  V30 2457 C 227.56 -1.82797 -0.379776 0
M  V30 2458 C 227.911 -1.06033 -1.6508 0
M  V30 2459 O 227.036 -0.304011 -2.14254 0
M  V30 2460 C 227.631 -3.31578 -0.695802 0
M  V30 2461 C 226.19 -3.58014 -1.16201 0
M  V30 2462 C 225.337 -2.76699 -0.182455 0
M  V30 2463 H 228.288 -1.54406 0.366675 0
M  V30 2464 H 228.309 -3.47454 -1.55099 0
M  V30 2465 H 227.821 -3.87421 0.229449 0
M  V30 2466 H 225.922 -3.07553 -2.10338 0
M  V30 2467 H 226.035 -4.66501 -1.09151 0
M  V30 2468 H 224.399 -2.45618 -0.674072 0
M  V30 2469 H 225.182 -3.35311 0.736297 0
M  V30 2470 N 227.627 0.131896 -1.57047 0
M  V30 2471 C 228.876 0.84044 -1.83356 0
M  V30 2472 C 229.189 1.81646 -0.725535 0
M  V30 2473 O 230.395 2.57025 -0.874659 0
M  V30 2474 C 228.851 1.54528 -3.25037 0
M  V30 2475 C 228.459 0.610902 -4.43815 0
M  V30 2476 C 230.203 2.23972 -3.60606 0
M  V30 2477 C 228.11 1.31823 -5.76521 0
M  V30 2478 H 227.04 0.317599 -0.683847 0
M  V30 2479 H 229.691 0.0931561 -1.83263 0
M  V30 2480 H 228.073 2.33873 -3.19561 0
M  V30 2481 H 229.247 -0.148407 -4.60561 0
M  V30 2482 H 227.562 0.0241016 -4.16393 0
M  V30 2483 H 230.159 2.77558 -4.57018 0
M  V30 2484 H 230.502 3.01173 -2.87403 0
M  V30 2485 H 231.035 1.51529 -3.6781 0
M  V30 2486 H 227.774 0.587771 -6.52859 0
M  V30 2487 H 227.294 2.04987 -5.63685 0
M  V30 2488 H 228.973 1.855 -6.19838 0
M  V30 2489 N 229.106 1.52395 0.401703 0
M  V30 2490 C 230.038 1.72505 1.50912 0
M  V30 2491 C 231.051 0.605468 1.51122 0
M  V30 2492 O 232.24 0.880828 1.55254 0
M  V30 2493 C 229.34 1.75711 2.89791 0
M  V30 2494 C 228.513 3.04824 3.1369 0
M  V30 2495 C 227.572 2.99743 4.32482 0
M  V30 2496 O 226.598 3.73635 4.29402 0
M  V30 2497 N 227.8 2.18047 5.37992 0
M  V30 2498 H 230.565 2.68049 1.34052 0
M  V30 2499 H 228.126 1.50724 0.591084 0
M  V30 2500 H 230.118 1.69834 3.6734 0
M  V30 2501 H 228.688 0.876092 3.00072 0
M  V30 2502 H 227.908 3.2429 2.24119 0
M  V30 2503 H 229.196 3.90221 3.26504 0
M  V30 2504 H 228.594 1.57456 5.43345 0
M  V30 2505 H 227.151 2.18021 6.14256 0
M  V30 2506 N 230.584 -0.659388 1.43143 0
M  V30 2507 C 231.861 -1.41627 1.34912 0
M  V30 2508 C 232.241 -2.11099 -0.00607785 0
M  V30 2509 O 231.589 -2.04353 -1.02236 0
M  V30 2510 C 231.799 -2.40604 2.52805 0
M  V30 2511 C 233.147 -3.04789 2.95616 0
M  V30 2512 O 234.171 -2.50932 2.52807 0
M  V30 2513 O 233.03 -4.02421 3.69756 0
M  V30 2514 H 230.124 -0.63246 0.532844 0
M  V30 2515 H 232.67 -0.686814 1.5518 0
M  V30 2516 H 231.442 -1.88174 3.43083 0
M  V30 2517 H 231.065 -3.21009 2.34604 0
M  V30 2518 N 232.062 -1.29571 -0.897171 0
M  V30 2519 C 233.025 -1.14913 -1.98312 0
M  V30 2520 C 234.025 -0.0838629 -1.60581 0
M  V30 2521 O 235.215 -0.331006 -1.71026 0
M  V30 2522 C 232.347 -0.757835 -3.3237 0
M  V30 2523 H 233.54 -2.11377 -2.12743 0
M  V30 2524 H 231.093 -1.12793 -1.08201 0
M  V30 2525 H 231.828 0.206837 -3.2364 0
M  V30 2526 H 231.613 -1.52755 -3.61121 0
M  V30 2527 H 233.103 -0.678408 -4.12053 0
M  V30 2528 N 233.54 1.10788 -1.12088 0
M  V30 2529 C 234.768 1.86461 -0.896651 0
M  V30 2530 C 235.183 1.80492 0.553912 0
M  V30 2531 O 234.54 1.19102 1.38278 0
M  V30 2532 C 234.591 3.35006 -1.35843 0
M  V30 2533 O 234.312 3.40866 -2.75213 0
M  V30 2534 C 235.813 4.27565 -1.1706 0
M  V30 2535 H 233.033 0.589425 -0.320654 0
M  V30 2536 H 235.577 1.40076 -1.48993 0
M  V30 2537 H 233.732 3.7887 -0.808458 0
M  V30 2538 H 234.146 4.33411 -2.9539 0
M  V30 2539 H 235.62 5.30007 -1.54263 0
M  V30 2540 H 236.097 4.3906 -0.110814 0
M  V30 2541 H 236.703 3.89501 -1.70789 0
M  V30 2542 N 235.018 0.912232 1.28515 0
M  V30 2543 C 236.266 0.543523 1.94654 0
M  V30 2544 C 236.587 -0.9155 1.72173 0
M  V30 2545 O 235.857 -1.64708 1.06058 0
M  V30 2546 H 234.437 0.198017 0.720277 0
M  V30 2547 H 237.099 1.16126 1.56527 0
M  V30 2548 H 236.195 0.736684 3.03281 0
M  V30 2549 N 236.496 -1.42363 0.676048 0
M  V30 2550 C 237.443 -2.308 -0.00150904 0
M  V30 2551 C 238.413 -1.46032 -0.791444 0
M  V30 2552 O 239.598 -1.74861 -0.76344 0
M  V30 2553 C 236.738 -3.31883 -0.945919 0
M  V30 2554 C 235.851 -4.31741 -0.149675 0
M  V30 2555 C 234.986 -5.19898 -1.08995 0
M  V30 2556 C 234.025 -6.11434 -0.285465 0
M  V30 2557 N 233.162 -6.92138 -1.17851 0
M  V30 2558 H 238.002 -2.88187 0.758455 0
M  V30 2559 H 235.539 -1.41952 0.38576 0
M  V30 2560 H 237.497 -3.89019 -1.50731 0
M  V30 2561 H 236.127 -2.76093 -1.6725 0
M  V30 2562 H 235.179 -3.76713 0.528359 0
M  V30 2563 H 236.491 -4.96534 0.474866 0
M  V30 2564 H 235.645 -5.81772 -1.72123 0
M  V30 2565 H 234.384 -4.55284 -1.74837 0
M  V30 2566 H 233.389 -5.48627 0.359018 0
M  V30 2567 H 234.614 -6.78097 0.368883 0
M  V30 2568 H 232.56 -6.30152 -1.82332 0
M  V30 2569 H 232.477 -7.53542 -0.609082 0
M  V30 2570 H 233.745 -7.58499 -1.79722 0
M  V30 2571 N 237.974 -0.419461 -1.51915 0
M  V30 2572 C 239.22 0.153166 -2.02221 0
M  V30 2573 C 239.553 1.43907 -1.30401 0
M  V30 2574 O 238.828 1.90055 -0.413438 0
M  V30 2575 C 239.111 0.390291 -3.57979 0
M  V30 2576 C 238.964 -0.913014 -4.40436 0
M  V30 2577 C 240.283 1.16794 -4.2432 0
M  V30 2578 H 237.402 0.0541924 -0.735005 0
M  V30 2579 H 240.044 -0.554955 -1.81715 0
M  V30 2580 H 238.194 0.993491 -3.75582 0
M  V30 2581 H 239.866 -1.54882 -4.34522 0
M  V30 2582 H 238.109 -1.52168 -4.06236 0
M  V30 2583 H 238.78 -0.701361 -5.47526 0
M  V30 2584 H 241.256 0.657161 -4.10878 0
M  V30 2585 H 240.132 1.3026 -5.3322 0
M  V30 2586 H 240.393 2.19132 -3.83971 0
M  V30 2587 N 239.452 1.56882 -0.150215 0
M  V30 2588 C 240.701 1.95403 0.500071 0
M  V30 2589 C 241.014 1.03777 1.658 0
M  V30 2590 O 242.22 1.31889 2.37313 0
M  V30 2591 C 240.676 3.4738 0.941018 0
M  V30 2592 C 240.284 4.47596 -0.190158 0
M  V30 2593 C 242.028 3.9476 1.56091 0
M  V30 2594 C 239.935 5.90787 0.269237 0
M  V30 2595 H 238.865 0.729515 0.190588 0
M  V30 2596 H 241.516 1.81988 -0.235074 0
M  V30 2597 H 239.898 3.56138 1.73152 0
M  V30 2598 H 241.072 4.50536 -0.967157 0
M  V30 2599 H 239.387 4.10151 -0.718666 0
M  V30 2600 H 241.984 4.99181 1.9163 0
M  V30 2601 H 242.327 3.36494 2.45107 0
M  V30 2602 H 242.86 3.88932 0.835249 0
M  V30 2603 H 239.599 6.52879 -0.585621 0
M  V30 2604 H 239.119 5.912 1.01204 0
M  V30 2605 H 240.798 6.42979 0.720176 0
M  V30 2606 N 240.93 -0.123565 1.57115 0
M  V30 2607 C 242.178 -0.83051 1.84247 0
M  V30 2608 C 242.499 -1.80629 0.73471 0
M  V30 2609 O 241.769 -1.94403 -0.241688 0
M  V30 2610 H 240.349 -0.309694 0.679778 0
M  V30 2611 H 243.011 -0.111976 1.94578 0
M  V30 2612 H 242.107 -1.37852 2.80006 0
M  V30 2613 N 242.408 -1.52605 -0.393616 0
M  V30 2614 C 243.657 -1.66649 -1.13627 0
M  V30 2615 C 243.97 -0.410364 -1.91247 0
M  V30 2616 O 245.176 -0.430854 -2.68059 0
M  V30 2617 C 243.632 -2.9449 -2.06891 0
M  V30 2618 C 243.24 -4.27266 -1.34714 0
M  V30 2619 C 244.984 -3.17899 -2.81319 0
M  V30 2620 C 242.891 -5.46217 -2.26717 0
M  V30 2621 H 241.821 -0.62084 -0.427871 0
M  V30 2622 H 244.472 -1.791 -0.399428 0
M  V30 2623 H 242.854 -2.75774 -2.84191 0
M  V30 2624 H 244.028 -4.56518 -0.626714 0
M  V30 2625 H 242.343 -4.10081 -0.722643 0
M  V30 2626 H 244.94 -4.03949 -3.50328 0
M  V30 2627 H 245.283 -2.32777 -3.45139 0
M  V30 2628 H 245.816 -3.37159 -2.11113 0
M  V30 2629 H 242.555 -6.33733 -1.67521 0
M  V30 2630 H 242.075 -5.21283 -2.96689 0
M  V30 2631 H 243.754 -5.7991 -2.86903 0
M  V30 2632 N 243.887 0.651787 -1.4349 0
M  V30 2633 C 245.133 1.41376 -1.45398 0
M  V30 2634 C 245.466 1.94041 -0.0784823 0
M  V30 2635 O 244.741 1.72379 0.900878 0
M  V30 2636 C 245.024 2.59414 -2.49752 0
M  V30 2637 C 244.877 2.12232 -3.96582 0
M  V30 2638 C 246.196 3.61626 -2.50827 0
M  V30 2639 H 243.315 0.512719 -0.529422 0
M  V30 2640 H 245.957 0.738796 -1.75048 0
M  V30 2641 H 244.107 3.16997 -2.246 0
M  V30 2642 H 245.779 1.59639 -4.32797 0
M  V30 2643 H 244.022 1.43592 -4.09346 0
M  V30 2644 H 244.693 2.9712 -4.65214 0
M  V30 2645 H 247.169 3.13805 -2.7325 0
M  V30 2646 H 246.045 4.41766 -3.25783 0
M  V30 2647 H 246.306 4.14314 -1.5426 0
M  V30 2648 N 245.365 1.30045 0.890287 0
M  V30 2649 C 246.59 1.21598 1.68014 0
M  V30 2650 C 247.015 -0.218678 1.86825 0
M  V30 2651 O 246.373 -1.15756 1.39536 0
M  V30 2652 C 246.421 1.94434 3.03691 0
M  V30 2653 O 245.525 1.2678 3.92429 0
M  V30 2654 H 244.866 0.420856 0.513592 0
M  V30 2655 H 247.396 1.71775 1.11151 0
M  V30 2656 H 247.406 2.03251 3.5377 0
M  V30 2657 H 246.081 2.98777 2.89318 0
M  V30 2658 H 244.658 1.26282 3.50866 0
M  V30 2659 N 246.843 -1.10192 1.12674 0
M  V30 2660 C 248.089 -1.82475 0.884915 0
M  V30 2661 C 248.422 -1.85093 -0.58773 0
M  V30 2662 O 247.697 -1.3134 -1.43457 0
M  V30 2663 C 247.98 -3.29018 1.46353 0
M  V30 2664 C 247.833 -3.34718 3.00473 0
M  V30 2665 C 249.152 -4.25473 1.12519 0
M  V30 2666 H 246.271 -0.662492 0.322915 0
M  V30 2667 H 248.913 -1.2913 1.39375 0
M  V30 2668 H 247.063 -3.74576 1.03077 0
M  V30 2669 H 248.735 -2.97622 3.52447 0
M  V30 2670 H 246.978 -2.74541 3.35872 0
M  V30 2671 H 247.649 -4.37918 3.36053 0
M  V30 2672 H 250.125 -3.88161 1.499 0
M  V30 2673 H 249.001 -5.26365 1.55663 0
M  V30 2674 H 249.262 -4.42084 0.0377407 0
M  V30 2675 N 248.321 -0.919034 -1.28029 0
M  V30 2676 C 249.569 -0.553838 -1.94363 0
M  V30 2677 C 249.89 0.906357 -1.72656 0
M  V30 2678 O 249.16 1.64143 -1.0693 0
M  V30 2679 H 247.74 -0.201834 -0.719216 0
M  V30 2680 H 250.402 -1.16954 -1.55909 0
M  V30 2681 H 249.498 -0.752758 -3.02886 0
M  V30 2682 N 249.799 1.42003 -0.683588 0
M  V30 2683 C 251.029 2.05448 -0.217866 0
M  V30 2684 C 251.437 1.51491 1.13346 0
M  V30 2685 O 250.78 0.653048 1.717 0
M  V30 2686 C 250.842 3.59399 -0.0850118 0
M  V30 2687 C 250.506 4.36093 -1.36645 0
M  V30 2688 C 251.503 4.66169 -2.30179 0
M  V30 2689 C 249.188 4.75578 -1.61649 0
M  V30 2690 C 251.182 5.34676 -3.46988 0
M  V30 2691 C 248.869 5.43824 -2.78745 0
M  V30 2692 C 249.867 5.73299 -3.71238 0
M  V30 2693 O 249.555 6.40142 -4.86285 0
M  V30 2694 H 249.287 0.668344 -0.101454 0
M  V30 2695 H 251.841 1.82974 -0.933248 0
M  V30 2696 H 250.071 3.80566 0.686031 0
M  V30 2697 H 251.76 4.04457 0.341973 0
M  V30 2698 H 252.526 4.36156 -2.12115 0
M  V30 2699 H 248.405 4.52025 -0.905243 0
M  V30 2700 H 251.949 5.57599 -4.19201 0
M  V30 2701 H 247.846 5.73254 -2.96732 0
M  V30 2702 H 248.614 6.58636 -4.85944 0
M  V30 2703 N 251.277 0.427512 1.51691 0
M  V30 2704 C 252.505 -0.141191 2.06418 0
M  V30 2705 C 252.92 -1.37303 1.29589 0
M  V30 2706 O 252.277 -1.79059 0.352732 0
M  V30 2707 C 252.328 -0.473266 3.58389 0
M  V30 2708 O 252.049 0.709673 4.32314 0
M  V30 2709 C 253.55 -1.09371 4.29596 0
M  V30 2710 H 250.77 -0.0122747 0.670888 0
M  V30 2711 H 253.314 0.603764 1.95384 0
M  V30 2712 H 251.469 -1.16812 3.69369 0
M  V30 2713 H 251.883 0.42807 5.2275 0
M  V30 2714 H 253.357 -1.27613 5.37046 0
M  V30 2715 H 253.834 -2.072 3.87253 0
M  V30 2716 H 254.44 -0.43853 4.23033 0
M  V30 2717 N 252.755 -1.56801 0.158532 0
M  V30 2718 C 254.004 -1.95665 -0.489702 0
M  V30 2719 C 254.317 -1.04654 -1.65248 0
M  V30 2720 O 255.523 -1.33146 -2.3661 0
M  V30 2721 C 253.979 -3.47874 -0.922582 0
M  V30 2722 C 253.587 -4.47489 0.213893 0
M  V30 2723 C 255.331 -3.95583 -1.53996 0
M  V30 2724 C 253.238 -5.90921 -0.237903 0
M  V30 2725 H 252.168 -0.730516 -0.186716 0
M  V30 2726 H 254.819 -1.81861 0.244722 0
M  V30 2727 H 253.201 -3.57051 -1.71261 0
M  V30 2728 H 254.375 -4.50017 0.991036 0
M  V30 2729 H 252.69 -4.09764 0.740407 0
M  V30 2730 H 255.287 -5.0019 -1.8898 0
M  V30 2731 H 255.63 -3.37789 -2.43319 0
M  V30 2732 H 256.163 -3.8937 -0.814611 0
M  V30 2733 H 252.902 -6.52559 0.620236 0
M  V30 2734 H 252.422 -5.91729 -0.980676 0
M  V30 2735 H 254.101 -6.43352 -0.686067 0
M  V30 2736 N 254.233 0.115231 -1.57178 0
M  V30 2737 C 255.143 1.15994 -2.03918 0
M  V30 2738 C 256.159 1.45103 -0.960268 0
M  V30 2739 O 257.335 1.56144 -1.27204 0
M  V30 2740 C 254.4 2.46568 -2.43732 0
M  V30 2741 C 253.461 2.24822 -3.65723 0
M  V30 2742 C 252.694 3.4917 -4.03629 0
M  V30 2743 O 252.917 4.56623 -3.41835 0
M  V30 2744 O 251.851 3.39949 -4.96708 0
M  V30 2745 H 255.677 0.793019 -2.93164 0
M  V30 2746 H 253.262 0.3263 -1.45793 0
M  V30 2747 H 255.144 3.23492 -2.70057 0
M  V30 2748 H 253.819 2.82726 -1.57631 0
M  V30 2749 H 252.726 1.45744 -3.44542 0
M  V30 2750 H 254.059 1.93566 -4.52541 0
M  V30 2751 N 255.711 1.52812 0.385517 0
M  V30 2752 C 256.643 1.74096 1.49074 0
M  V30 2753 C 257.656 0.621462 1.50472 0
M  V30 2754 O 258.845 0.897245 1.54311 0
M  V30 2755 C 255.945 1.78774 2.87911 0
M  V30 2756 C 255.118 3.08134 3.10439 0
M  V30 2757 C 254.177 3.04313 4.29278 0
M  V30 2758 O 253.203 3.78168 4.25415 0
M  V30 2759 N 254.405 2.23741 5.35649 0
M  V30 2760 H 257.17 2.69455 1.31202 0
M  V30 2761 H 254.731 1.51343 0.575065 0
M  V30 2762 H 256.723 1.73721 3.65518 0
M  V30 2763 H 255.293 0.907869 2.99126 0
M  V30 2764 H 254.513 3.26649 2.20667 0
M  V30 2765 H 255.801 3.93662 3.22347 0
M  V30 2766 H 255.199 1.63211 5.41645 0
M  V30 2767 H 253.756 2.24524 6.11909 0
M  V30 2768 N 257.189 -0.644168 1.43834 0
M  V30 2769 C 258.119 -1.76814 1.52509 0
M  V30 2770 C 259.1 -1.65823 0.379052 0
M  V30 2771 O 260.285 -1.84781 0.597466 0
M  V30 2772 C 257.415 -3.15288 1.4564 0
M  V30 2773 C 256.369 -3.41053 2.58586 0
M  V30 2774 C 255.695 -4.79421 2.36769 0
M  V30 2775 C 256.995 -3.34902 4.00797 0
M  V30 2776 H 258.689 -1.69812 2.46586 0
M  V30 2777 H 256.235 -0.815542 1.1868 0
M  V30 2778 H 258.188 -3.93681 1.50311 0
M  V30 2779 H 256.912 -3.23043 0.480725 0
M  V30 2780 H 255.571 -2.65035 2.53282 0
M  V30 2781 H 255.219 -4.83863 1.37424 0
M  V30 2782 H 254.919 -4.9762 3.12487 0
M  V30 2783 H 256.443 -5.6006 2.43238 0
M  V30 2784 H 257.857 -4.03218 4.07539 0
M  V30 2785 H 256.254 -3.64637 4.76613 0
M  V30 2786 H 257.324 -2.32928 4.25291 0
M  V30 2787 N 258.668 -1.30515 -0.883378 0
M  V30 2788 C 259.578 -1.18959 -2.02203 0
M  V30 2789 C 260.594 -0.109172 -1.73657 0
M  V30 2790 O 261.77 -0.324413 -1.9877 0
M  V30 2791 C 258.835 -0.883871 -3.35244 0
M  V30 2792 C 257.896 -2.04982 -3.77201 0
M  V30 2793 C 257.129 -1.75859 -5.03894 0
M  V30 2794 O 257.352 -0.687276 -5.66244 0
M  V30 2795 O 256.286 -2.61146 -5.42297 0
M  V30 2796 H 260.112 -2.14616 -2.1488 0
M  V30 2797 H 257.697 -1.10124 -1.0096 0
M  V30 2798 H 259.579 -0.728644 -4.15053 0
M  V30 2799 H 258.254 0.0427798 -3.23672 0
M  V30 2800 H 257.161 -2.26038 -2.9809 0
M  V30 2801 H 258.494 -2.95825 -3.93381 0
M  V30 2802 N 260.146 1.09593 -1.13257 0
M  V30 2803 C 261.094 2.18271 -0.803783 0
M  V30 2804 C 262.088 1.68054 0.213148 0
M  V30 2805 O 263.294 1.79862 0.0704699 0
M  V30 2806 H 259.669 0.711949 -0.242143 0
M  V30 2807 H 261.64 2.43235 -1.72856 0
M  V30 2808 C 260.389 3.46536 -0.28424 0
M  V30 2809 H 259.712 3.85545 -1.05807 0
M  V30 2810 H 261.152 4.23899 -0.0925945 0
M  V30 2811 C 259.611 3.22036 0.989684 0
M  V30 2812 O 260.141 3.44509 2.06584 0
M  V30 2813 N 258.347 2.7565 0.920086 0
M  V30 2814 H 257.894 2.57562 0.0442019 0
M  V30 2815 H 257.852 2.59635 1.77306 0
M  V30 2816 N 261.624 0.925811 1.2754 0
M  V30 2817 C 262.87 0.575575 1.95086 0
M  V30 2818 C 263.225 -0.873246 1.71441 0
M  V30 2819 O 262.518 -1.61443 1.03183 0
M  V30 2820 C 262.712 0.835296 3.47502 0
M  V30 2821 C 262.541 2.30781 3.85967 0
M  V30 2822 C 261.311 2.96017 4.09514 0
M  V30 2823 C 263.509 3.28519 3.95702 0
M  V30 2824 N 261.491 4.3344 4.34744 0
M  V30 2825 C 262.862 4.51146 4.25285 0
M  V30 2826 C 264.917 3.23753 3.7827 0
M  V30 2827 C 263.62 5.69606 4.39251 0
M  V30 2828 C 265.646 4.41523 3.9346 0
M  V30 2829 C 265.008 5.62928 4.23428 0
M  V30 2830 H 261.107 0.260711 0.737261 0
M  V30 2831 H 263.691 1.19204 1.53943 0
M  V30 2832 H 261.862 0.248005 3.87607 0
M  V30 2833 H 263.594 0.447878 4.02214 0
M  V30 2834 H 260.349 2.46695 4.04275 0
M  V30 2835 H 260.773 5.04528 4.5142 0
M  V30 2836 H 265.415 2.3096 3.54143 0
M  V30 2837 H 263.133 6.62866 4.62205 0
M  V30 2838 H 266.719 4.39351 3.81394 0
M  V30 2839 H 265.599 6.52538 4.34929 0
M  V30 2840 N 263.102 -1.41638 0.69111 0
M  V30 2841 C 264.032 -2.3347 0.037248 0
M  V30 2842 C 265.013 -1.51575 -0.771947 0
M  V30 2843 O 266.198 -1.80126 -0.72582 0
M  V30 2844 C 263.328 -3.35354 -0.903064 0
M  V30 2845 C 262.282 -4.27526 -0.201288 0
M  V30 2846 C 261.608 -5.19747 -1.25565 0
M  V30 2847 C 262.908 -5.13959 0.929689 0
M  V30 2848 H 264.602 -2.88397 0.804227 0
M  V30 2849 H 262.148 -1.38669 0.388189 0
M  V30 2850 H 264.101 -3.98519 -1.36969 0
M  V30 2851 H 262.825 -2.78767 -1.70166 0
M  V30 2852 H 261.484 -3.65779 0.245265 0
M  V30 2853 H 261.132 -4.59479 -2.04666 0
M  V30 2854 H 260.832 -5.8225 -0.791128 0
M  V30 2855 H 262.356 -5.85789 -1.72288 0
M  V30 2856 H 263.77 -5.70718 0.543546 0
M  V30 2857 H 262.167 -5.85379 1.32103 0
M  V30 2858 H 263.237 -4.51389 1.77133 0
M  V30 2859 N 264.58 -0.43555 -1.51462 0
M  V30 2860 C 265.805 0.132627 -2.06976 0
M  V30 2861 C 266.23 1.35848 -1.30104 0
M  V30 2862 O 265.588 1.78112 -0.338493 0
M  V30 2863 C 265.636 0.43523 -3.57964 0
M  V30 2864 O 264.74 1.52198 -3.83288 0
M  V30 2865 H 264.081 0.00265 -0.663995 0
M  V30 2866 H 266.611 -0.616369 -1.95095 0
M  V30 2867 H 266.621 0.686206 -4.02188 0
M  V30 2868 H 265.296 -0.460739 -4.1334 0
M  V30 2869 H 263.873 1.2611 -3.50928 0
M  V30 2870 N 266.058 1.56714 -0.166846 0
M  V30 2871 C 266.988 2.20754 0.760913 0
M  V30 2872 C 267.969 1.16178 1.24244 0
M  V30 2873 O 269.154 1.44592 1.29641 0
M  V30 2874 C 266.284 2.84478 1.99223 0
M  V30 2875 C 265.238 3.95053 1.64672 0
M  V30 2876 C 264.564 4.45805 2.95232 0
M  V30 2877 C 265.864 5.14865 0.878155 0
M  V30 2878 H 267.558 2.98537 0.22713 0
M  V30 2879 H 265.104 1.43596 0.107805 0
M  V30 2880 H 267.057 3.27951 2.64624 0
M  V30 2881 H 265.781 2.04056 2.55007 0
M  V30 2882 H 264.44 3.52228 1.01641 0
M  V30 2883 H 264.088 3.62181 3.49047 0
M  V30 2884 H 263.788 5.204 2.7287 0
M  V30 2885 H 265.312 4.91962 3.6167 0
M  V30 2886 H 266.726 5.55059 1.43466 0
M  V30 2887 H 265.123 5.95348 0.753738 0
M  V30 2888 H 266.193 4.84735 -0.126377 0
M  V30 2889 N 267.536 -0.106894 1.57237 0
M  V30 2890 C 268.468 -1.15646 1.97885 0
M  V30 2891 C 269.481 -1.36981 0.879779 0
M  V30 2892 O 270.67 -1.35841 1.15799 0
M  V30 2893 C 267.77 -2.51425 2.27241 0
M  V30 2894 C 266.943 -2.50529 3.58545 0
M  V30 2895 C 266.002 -3.68145 3.75973 0
M  V30 2896 O 265.028 -3.51176 4.47956 0
M  V30 2897 N 266.23 -4.87177 3.15656 0
M  V30 2898 H 268.995 -0.81059 2.8853 0
M  V30 2899 H 266.556 -0.296024 1.59171 0
M  V30 2900 H 268.548 -3.28689 2.36105 0
M  V30 2901 H 267.118 -2.78147 1.42663 0
M  V30 2902 H 266.338 -1.58894 3.60758 0
M  V30 2903 H 267.626 -2.46997 4.44826 0
M  V30 2904 H 267.024 -5.03868 2.57165 0
M  V30 2905 H 265.581 -5.62075 3.30023 0
M  V30 2906 N 269.014 -1.53014 -0.377408 0
M  V30 2907 C 270.263 -1.67845 -1.11853 0
M  V30 2908 C 270.576 -0.430625 -1.90801 0
M  V30 2909 O 271.782 -0.459261 -2.67587 0
M  V30 2910 C 270.238 -2.96668 -2.03756 0
M  V30 2911 C 269.846 -4.28671 -1.30175 0
M  V30 2912 C 271.59 -3.20865 -2.77932 0
M  V30 2913 C 269.497 -5.48591 -2.20911 0
M  V30 2914 H 268.427 -0.625343 -0.421263 0
M  V30 2915 H 271.078 -1.79514 -0.380409 0
M  V30 2916 H 269.46 -2.78773 -2.8125 0
M  V30 2917 H 270.634 -4.57157 -0.578259 0
M  V30 2918 H 268.949 -4.10825 -0.679108 0
M  V30 2919 H 271.546 -4.07642 -3.46024 0
M  V30 2920 H 271.889 -2.36424 -3.4265 0
M  V30 2921 H 272.422 -3.39379 -2.07525 0
M  V30 2922 H 269.161 -6.35474 -1.6079 0
M  V30 2923 H 268.681 -5.244 -2.91144 0
M  V30 2924 H 270.36 -5.8292 -2.80736 0
M  V30 2925 N 270.492 0.636531 -1.44174 0
M  V30 2926 C 271.717 1.42847 -1.50364 0
M  V30 2927 C 272.142 1.87665 -0.127867 0
M  V30 2928 O 271.5 1.58408 0.88185 0
M  V30 2929 C 271.548 2.62854 -2.4686 0
M  V30 2930 O 270.652 3.62501 -1.9664 0
M  V30 2931 H 269.993 0.427642 -0.507955 0
M  V30 2932 H 272.523 0.777422 -1.89255 0
M  V30 2933 H 272.533 3.10465 -2.64718 0
M  V30 2934 H 271.208 2.29578 -3.46795 0
M  V30 2935 H 269.785 3.21735 -1.88523 0
M  V30 2936 N 271.97 1.30982 0.876444 0
M  V30 2937 C 273.195 1.23373 1.66715 0
M  V30 2938 C 273.62 -0.19885 1.87046 0
M  V30 2939 O 272.978 -1.1427 1.40756 0
M  V30 2940 C 273.026 1.97644 3.01611 0
M  V30 2941 O 272.13 1.30935 3.91062 0
M  V30 2942 H 271.471 0.426279 0.509099 0
M  V30 2943 H 274.001 1.72944 1.09323 0
M  V30 2944 H 274.011 2.06992 3.51594 0
M  V30 2945 H 272.686 3.01829 2.86133 0
M  V30 2946 H 271.263 1.29996 3.49507 0
M  V30 2947 N 273.449 -1.08991 1.13837 0
M  V30 2948 C 274.379 -2.17771 0.842507 0
M  V30 2949 C 275.36 -1.6892 -0.20001 0
M  V30 2950 O 276.545 -1.94113 -0.0579731 0
M  V30 2951 C 273.675 -3.4589 0.312644 0
M  V30 2952 C 272.629 -4.08099 1.28992 0
M  V30 2953 C 271.955 -5.31098 0.619623 0
M  V30 2954 C 273.255 -4.50077 2.65005 0
M  V30 2955 H 274.949 -2.42777 1.75213 0
M  V30 2956 H 272.495 -1.16682 0.843875 0
M  V30 2957 H 274.448 -4.21297 0.0933043 0
M  V30 2958 H 273.172 -3.20419 -0.632382 0
M  V30 2959 H 271.831 -3.34717 1.49533 0
M  V30 2960 H 271.479 -5.0191 -0.33102 0
M  V30 2961 H 271.179 -5.73674 1.27167 0
M  V30 2962 H 272.703 -6.09224 0.409669 0
M  V30 2963 H 274.117 -5.16688 2.48407 0
M  V30 2964 H 272.514 -5.03553 3.26427 0
M  V30 2965 H 273.584 -3.62257 3.22332 0
M  V30 2966 N 274.927 -0.932562 -1.27047 0
M  V30 2967 C 275.857 -0.452902 -2.29066 0
M  V30 2968 C 276.838 0.489338 -1.62909 0
M  V30 2969 O 278.023 0.393046 -1.90181 0
M  V30 2970 C 275.153 0.290698 -3.46081 0
M  V30 2971 C 274.107 -0.564168 -4.24265 0
M  V30 2972 C 273.433 0.308886 -5.33807 0
M  V30 2973 C 274.733 -1.83112 -4.89149 0
M  V30 2974 H 276.427 -1.30552 -2.69437 0
M  V30 2975 H 273.973 -0.629201 -1.29526 0
M  V30 2976 H 275.926 0.637233 -4.16554 0
M  V30 2977 H 274.65 1.17738 -3.0464 0
M  V30 2978 H 273.309 -0.893477 -3.55545 0
M  V30 2979 H 272.957 1.19467 -4.88607 0
M  V30 2980 H 272.657 -0.259633 -5.87026 0
M  V30 2981 H 274.181 0.650884 -6.07121 0
M  V30 2982 H 275.595 -1.55236 -5.51883 0
M  V30 2983 H 273.992 -2.34353 -5.52448 0
M  V30 2984 H 275.062 -2.54772 -4.12576 0
M  V30 2985 N 276.405 1.4127 -0.698611 0
M  V30 2986 C 277.654 2.00408 -0.227949 0
M  V30 2987 C 277.967 1.55981 1.18023 0
M  V30 2988 O 279.173 2.07699 1.74852 0
M  V30 2989 C 277.629 3.58129 -0.356636 0
M  V30 2990 C 277.237 4.11536 -1.77037 0
M  V30 2991 C 278.981 4.24466 0.0540969 0
M  V30 2992 C 276.888 5.61701 -1.85055 0
M  V30 2993 H 275.818 0.749586 -0.0814657 0
M  V30 2994 H 278.469 1.61713 -0.867249 0
M  V30 2995 H 276.851 3.94442 0.350965 0
M  V30 2996 H 278.025 3.86636 -2.50698 0
M  V30 2997 H 276.34 3.57736 -2.13105 0
M  V30 2998 H 278.937 5.34698 0.0146723 0
M  V30 2999 H 279.28 4.01687 1.09332 0
M  V30 3000 H 279.813 3.93198 -0.603337 0
M  V30 3001 H 276.552 5.89312 -2.8704 0
M  V30 3002 H 276.072 5.88519 -1.15783 0
M  V30 3003 H 277.751 6.26524 -1.61484 0
M  V30 3004 N 277.883 0.443576 1.51229 0
M  V30 3005 C 279.294 -0.0180867 1.86691 0
M  V30 3006 C 279.645 -1.41384 1.36033 0
M  V30 3007 O 278.77 -2.04291 0.713722 0
M  V30 3008 C 279.365 -0.039597 3.38777 0
M  V30 3009 C 277.924 -0.445692 3.73752 0
M  V30 3010 C 277.071 0.357584 2.74985 0
M  V30 3011 H 280.022 0.659138 1.44364 0
M  V30 3012 H 280.043 -0.847761 3.70936 0
M  V30 3013 H 279.555 0.976382 3.75617 0
M  V30 3014 H 277.656 -1.46704 3.42503 0
M  V30 3015 H 277.769 -0.166155 4.78812 0
M  V30 3016 H 276.133 -0.184973 2.54027 0
M  V30 3017 H 276.916 1.37256 3.14668 0
M  V30 3018 N 279.361 -1.56624 0.175154 0
M  V30 3019 C 280.294 -2.14 -0.792412 0
M  V30 3020 C 281.272 -1.07114 -1.22333 0
M  V30 3021 O 282.456 -1.35112 -1.31442 0
M  V30 3022 C 279.583 -2.68268 -2.0676 0
M  V30 3023 C 278.629 -3.87562 -1.7804 0
M  V30 3024 S 279.462 -5.27074 -0.946222 0
M  V30 3025 C 280.618 -5.8475 -2.23199 0
M  V30 3026 H 280.851 -2.95736 -0.304588 0
M  V30 3027 H 278.384 -1.54349 -0.0395705 0
M  V30 3028 H 280.342 -3.00182 -2.80002 0
M  V30 3029 H 279.003 -1.86612 -2.52656 0
M  V30 3030 H 278.196 -4.23874 -2.72666 0
M  V30 3031 H 277.798 -3.56555 -1.12891 0
M  V30 3032 H 280.09 -5.97898 -3.18629 0
M  V30 3033 H 281.033 -6.81756 -1.91349 0
M  V30 3034 H 281.441 -5.13198 -2.35134 0
M  V30 3035 N 280.839 0.0985539 -1.57292 0
M  V30 3036 C 281.802 1.10402 -2.00858 0
M  V30 3037 C 282.802 1.33146 -0.901593 0
M  V30 3038 O 283.992 1.29318 -1.16716 0
M  V30 3039 C 281.124 2.45394 -2.36632 0
M  V30 3040 H 282.317 0.729099 -2.90902 0
M  V30 3041 H 279.87 0.343495 -1.52479 0
M  V30 3042 H 280.605 2.87769 -1.49531 0
M  V30 3043 H 280.39 2.30235 -3.17387 0
M  V30 3044 H 281.88 3.17718 -2.71007 0
M  V30 3045 N 282.317 1.53212 0.369288 0
M  V30 3046 C 283.566 1.68436 1.10961 0
M  V30 3047 C 283.879 0.440738 1.9057 0
M  V30 3048 O 285.085 0.473446 2.6734 0
M  V30 3049 C 283.541 2.97744 2.0218 0
M  V30 3050 C 283.149 4.29355 1.279 0
M  V30 3051 C 284.893 3.22334 2.76226 0
M  V30 3052 C 282.8 5.49755 2.17999 0
M  V30 3053 H 281.73 0.627568 0.41794 0
M  V30 3054 H 284.381 1.79713 0.370884 0
M  V30 3055 H 282.763 2.8026 2.79768 0
M  V30 3056 H 283.937 4.57458 0.554007 0
M  V30 3057 H 282.252 4.11179 0.657311 0
M  V30 3058 H 284.849 4.09471 3.43857 0
M  V30 3059 H 285.192 2.38238 3.41392 0
M  V30 3060 H 285.725 3.40475 2.05723 0
M  V30 3061 H 282.464 6.36318 1.57417 0
M  V30 3062 H 281.984 5.25937 2.88359 0
M  V30 3063 H 283.663 5.84401 2.77641 0
M  V30 3064 N 283.795 -0.628877 1.44509 0
M  V30 3065 C 284.728 -1.75367 1.46019 0
M  V30 3066 C 285.706 -1.59444 0.318787 0
M  V30 3067 O 286.89 -1.81297 0.516099 0
M  V30 3068 C 284.017 -3.12965 1.29501 0
M  V30 3069 C 283.063 -3.47532 2.47233 0
M  V30 3070 S 283.896 -3.44758 4.09758 0
M  V30 3071 C 285.052 -4.84973 3.95667 0
M  V30 3072 H 285.285 -1.7382 2.41193 0
M  V30 3073 H 282.818 -0.803686 1.31834 0
M  V30 3074 H 284.776 -3.92367 1.20658 0
M  V30 3075 H 283.437 -3.12049 0.358341 0
M  V30 3076 H 282.63 -4.47664 2.31544 0
M  V30 3077 H 282.232 -2.75598 2.52828 0
M  V30 3078 H 284.524 -5.74255 3.59496 0
M  V30 3079 H 285.467 -5.05716 4.95638 0
M  V30 3080 H 285.875 -4.59653 3.27688 0
M  V30 3081 N 285.273 -1.31445 -0.869486 0
M  V30 3082 C 286.203 -1.21727 -1.99261 0
M  V30 3083 C 287.184 -0.104359 -1.6978 0
M  V30 3084 O 288.369 -0.289038 -1.92037 0
M  V30 3085 C 285.499 -0.924317 -3.34774 0
M  V30 3086 C 284.453 -1.99685 -3.78563 0
M  V30 3087 C 283.779 -1.55658 -5.11541 0
M  V30 3088 C 285.079 -3.41003 -3.95619 0
M  V30 3089 H 286.773 -2.1569 -2.07649 0
M  V30 3090 H 284.319 -1.03839 -0.997675 0
M  V30 3091 H 286.272 -0.842934 -4.12883 0
M  V30 3092 H 284.996 0.0509793 -3.2656 0
M  V30 3093 H 283.655 -2.06813 -3.02694 0
M  V30 3094 H 283.303 -0.569132 -4.9977 0
M  V30 3095 H 283.003 -2.27409 -5.41811 0
M  V30 3096 H 284.527 -1.48928 -5.92159 0
M  V30 3097 H 285.941 -3.36547 -4.64122 0
M  V30 3098 H 284.338 -4.10975 -4.37286 0
M  V30 3099 H 285.408 -3.81754 -2.98985 0
M  V30 3100 N 286.751 1.08385 -1.14413 0
M  V30 3101 C 287.681 2.17321 -0.854044 0
M  V30 3102 C 288.662 1.69024 0.191049 0
M  V30 3103 O 289.847 1.94141 0.0476779 0
M  V30 3104 C 286.977 3.45719 -0.330983 0
M  V30 3105 C 285.931 4.07409 -1.31155 0
M  V30 3106 C 285.257 5.30762 -0.64778 0
M  V30 3107 C 286.557 4.48665 -2.67388 0
M  V30 3108 H 288.251 2.41845 -1.76498 0
M  V30 3109 H 285.797 1.16233 -0.850051 0
M  V30 3110 H 287.75 4.21241 -0.115645 0
M  V30 3111 H 286.474 3.2075 0.615381 0
M  V30 3112 H 285.133 3.33919 -1.51306 0
M  V30 3113 H 284.781 5.02078 0.304398 0
M  V30 3114 H 284.481 5.72992 -1.30207 0
M  V30 3115 H 286.005 6.08998 -0.441972 0
M  V30 3116 H 287.419 5.15364 -2.51143 0
M  V30 3117 H 285.816 5.01814 -3.29093 0
M  V30 3118 H 286.886 3.60543 -3.24248 0
M  V30 3119 N 288.23 0.939286 1.26551 0
M  V30 3120 C 289.16 0.465044 2.28822 0
M  V30 3121 C 290.141 -0.480692 1.63167 0
M  V30 3122 O 291.326 -0.382955 1.90387 0
M  V30 3123 C 288.456 -0.27234 3.46231 0
M  V30 3124 C 287.41 0.58666 4.2396 0
M  V30 3125 C 286.736 -0.280573 5.33963 0
M  V30 3126 C 288.036 1.85704 4.88171 0
M  V30 3127 H 289.73 1.31979 2.68741 0
M  V30 3128 H 287.276 0.636061 1.29191 0
M  V30 3129 H 289.229 -0.615133 4.16886 0
M  V30 3130 H 287.953 -1.16121 3.0526 0
M  V30 3131 H 286.612 0.91232 3.55067 0
M  V30 3132 H 286.26 -1.16874 4.89234 0
M  V30 3133 H 285.96 0.29076 5.8688 0
M  V30 3134 H 287.484 -0.618678 6.07458 0
M  V30 3135 H 288.898 1.58161 5.51052 0
M  V30 3136 H 287.295 2.37279 5.51197 0
M  V30 3137 H 288.365 2.56957 4.11219 0
M  V30 3138 N 289.708 -1.40897 0.706093 0
M  V30 3139 C 290.638 -2.33418 0.0620085 0
M  V30 3140 C 291.619 -1.52385 -0.755827 0
M  V30 3141 O 292.804 -1.80886 -0.706674 0
M  V30 3142 C 289.934 -3.36293 -0.867445 0
M  V30 3143 C 288.888 -4.27716 -0.155932 0
M  V30 3144 C 288.214 -5.2105 -1.20046 0
M  V30 3145 C 289.514 -5.12944 0.984149 0
M  V30 3146 H 291.208 -2.87527 0.83477 0
M  V30 3147 H 288.754 -1.38249 0.402875 0
M  V30 3148 H 290.707 -3.99949 -1.32735 0
M  V30 3149 H 289.431 -2.80556 -1.67199 0
M  V30 3150 H 288.09 -3.65498 0.284047 0
M  V30 3151 H 287.738 -4.61624 -1.99781 0
M  V30 3152 H 287.438 -5.83056 -0.729328 0
M  V30 3153 H 288.962 -5.87584 -1.66066 0
M  V30 3154 H 290.376 -5.70109 0.604048 0
M  V30 3155 H 288.773 -5.83945 1.38304 0
M  V30 3156 H 289.843 -4.49485 1.81911 0
M  V30 3157 N 291.186 -0.45159 -1.50991 0
M  V30 3158 C 292.116 0.342898 -2.30969 0
M  V30 3159 C 293.097 1.00815 -1.37005 0
M  V30 3160 O 294.282 1.00907 -1.65926 0
M  V30 3161 C 291.412 1.43637 -3.16205 0
M  V30 3162 C 290.366 0.893818 -4.18563 0
M  V30 3163 C 289.692 2.08411 -4.92411 0
M  V30 3164 C 290.992 -0.0815568 -5.22236 0
M  V30 3165 H 292.686 -0.324556 -2.97636 0
M  V30 3166 H 290.232 -0.157531 -1.43136 0
M  V30 3167 H 292.185 1.9995 -3.70942 0
M  V30 3168 H 290.909 2.13232 -2.47386 0
M  V30 3169 H 289.568 0.352798 -3.64898 0
M  V30 3170 H 289.216 2.76658 -4.20082 0
M  V30 3171 H 288.916 1.72741 -5.61636 0
M  V30 3172 H 290.44 2.65251 -5.49976 0
M  V30 3173 H 291.854 0.391742 -5.7196 0
M  V30 3174 H 290.251 -0.351551 -5.99069 0
M  V30 3175 H 291.321 -1.01374 -4.74185 0
M  V30 3176 N 292.664 1.56529 -0.183458 0
M  V30 3177 C 293.911 1.97244 0.458357 0
M  V30 3178 C 294.239 1.06992 1.62428 0
M  V30 3179 O 293.494 0.106542 1.9541 0
M  V30 3180 C 293.793 3.43939 0.971637 0
M  V30 3181 C 293.459 4.5083 -0.0796784 0
M  V30 3182 C 292.121 4.79786 -0.368584 0
M  V30 3183 C 294.473 5.15138 -0.792638 0
M  V30 3184 C 291.801 5.70345 -1.37563 0
M  V30 3185 C 294.153 6.06784 -1.78875 0
M  V30 3186 C 292.817 6.34102 -2.08497 0
M  V30 3187 H 292.087 0.721768 0.167725 0
M  V30 3188 H 294.734 1.89472 -0.277976 0
M  V30 3189 H 293.039 3.48724 1.78602 0
M  V30 3190 H 294.736 3.72791 1.47744 0
M  V30 3191 H 291.326 4.28317 0.155668 0
M  V30 3192 H 295.51 4.92868 -0.582659 0
M  V30 3193 H 290.766 5.89789 -1.61118 0
M  V30 3194 H 294.94 6.55677 -2.3465 0
M  V30 3195 H 292.567 7.04074 -2.86678 0
M  V30 3196 N 294.142 -0.090211 1.57342 0
M  V30 3197 C 295.382 -0.798365 1.88163 0
M  V30 3198 C 295.746 -1.75662 0.775046 0
M  V30 3199 O 296.947 -2.50849 0.965816 0
M  V30 3200 C 295.218 -1.50376 3.24225 0
M  V30 3201 S 296.777 -2.24952 3.76752 0
M  V30 3202 H 293.595 -0.265883 0.659414 0
M  V30 3203 H 296.197 -0.055264 1.95422 0
M  V30 3204 H 294.901 -0.792286 4.0268 0
M  V30 3205 H 294.432 -2.28666 3.20118 0
M  V30 3206 H 296.447 -3.51173 3.5056 0
M  V30 3207 N 295.62 -1.53406 -0.361157 0
M  V30 3208 C 296.583 -1.79479 -1.42548 0
M  V30 3209 C 297.583 -0.665327 -1.4639 0
M  V30 3210 O 298.773 -0.933549 -1.47073 0
M  V30 3211 C 295.905 -1.92087 -2.8163 0
M  V30 3212 H 297.098 -2.74538 -1.20701 0
M  V30 3213 H 294.651 -1.4455 -0.594546 0
M  V30 3214 H 295.386 -0.991099 -3.08784 0
M  V30 3215 H 295.171 -2.74241 -2.80239 0
M  V30 3216 H 296.661 -2.13836 -3.58697 0
M  V30 3217 N 297.098 0.621204 -1.44841 0
M  V30 3218 C 298.514 0.94048 -1.28946 0
M  V30 3219 C 298.714 2.00154 -0.23249 0
M  V30 3220 O 297.77 2.49651 0.378237 0
M  V30 3221 C 299.083 1.39433 -2.66419 0
M  V30 3222 C 300.631 1.50927 -2.74208 0
M  V30 3223 C 301.106 1.99692 -4.12174 0
M  V30 3224 N 302.597 2.06947 -4.144 0
M  V30 3225 C 303.332 2.45871 -5.1801 0
M  V30 3226 N 302.828 2.83862 -6.31977 0
M  V30 3227 N 304.621 2.46092 -5.05366 0
M  V30 3228 H 296.772 -0.0803548 -2.12248 0
M  V30 3229 H 299.035 0.0266913 -0.947624 0
M  V30 3230 H 298.741 0.688925 -3.44887 0
M  V30 3231 H 298.615 2.36347 -2.93973 0
M  V30 3232 H 301.002 2.20561 -1.96053 0
M  V30 3233 H 301.083 0.523627 -2.50383 0
M  V30 3234 H 300.727 1.30649 -4.90809 0
M  V30 3235 H 300.657 2.99146 -4.33381 0
M  V30 3236 H 303.148 1.80232 -3.32152 0
M  V30 3237 H 303.461 3.12405 -7.0684 0
M  V30 3238 H 301.806 2.8159 -6.35399 0
M  V30 3239 H 304.997 2.1581 -4.15384 0
M  V30 3240 H 305.17 2.76102 -5.86235 0
M  V30 3241 N 298.576 1.31904 0.862503 0
M  V30 3242 C 299.992 1.10724 1.14945 0
M  V30 3243 C 300.192 -0.117421 2.01158 0
M  V30 3244 O 299.248 -0.804595 2.39338 0
M  V30 3245 C 300.561 2.38267 1.83437 0
M  V30 3246 C 302.109 2.43949 1.96106 0
M  V30 3247 C 302.584 3.71394 2.68013 0
M  V30 3248 N 304.075 3.72331 2.75543 0
M  V30 3249 C 304.81 4.67641 3.31812 0
M  V30 3250 N 304.306 5.73313 3.88953 0
M  V30 3251 N 306.099 4.5515 3.29841 0
M  V30 3252 H 298.25 2.10436 0.288191 0
M  V30 3253 H 300.513 0.928705 0.190292 0
M  V30 3254 H 300.219 3.27759 1.27542 0
M  V30 3255 H 300.093 2.48633 2.83657 0
M  V30 3256 H 302.48 1.54922 2.51164 0
M  V30 3257 H 302.561 2.37543 0.949059 0
M  V30 3258 H 302.205 4.60791 2.13621 0
M  V30 3259 H 302.135 3.75069 3.69636 0
M  V30 3260 H 304.626 2.95947 2.34997 0
M  V30 3261 H 304.939 6.42107 4.30022 0
M  V30 3262 H 303.284 5.77077 3.87308 0
M  V30 3263 H 306.475 3.71766 2.84443 0
M  V30 3264 H 306.648 5.29604 3.73394 0
M  V30 3265 N 300.054 -1.07777 1.14986 0
M  V30 3266 C 301.301 -1.8029 0.922056 0
M  V30 3267 C 301.629 -1.86531 -0.55105 0
M  V30 3268 O 300.884 -1.34189 -1.42449 0
M  V30 3269 C 301.183 -3.25495 1.47608 0
M  V30 3270 C 300.849 -3.39361 2.96893 0
M  V30 3271 C 299.511 -3.42852 3.37647 0
M  V30 3272 C 301.863 -3.42512 3.92854 0
M  V30 3273 C 299.191 -3.47094 4.73015 0
M  V30 3274 C 301.543 -3.4829 5.28088 0
M  V30 3275 C 300.207 -3.50058 5.68345 0
M  V30 3276 H 299.477 -0.659727 0.337404 0
M  V30 3277 H 302.124 -1.26854 1.43459 0
M  V30 3278 H 300.429 -3.81683 0.88463 0
M  V30 3279 H 302.126 -3.80168 1.27568 0
M  V30 3280 H 298.716 -3.37339 2.64387 0
M  V30 3281 H 302.9 -3.3904 3.62444 0
M  V30 3282 H 298.156 -3.46758 5.03556 0
M  V30 3283 H 302.33 -3.49675 6.02246 0
M  V30 3284 H 299.957 -3.53097 6.73221 0
M  V30 3285 N 301.532 -0.945985 -1.26051 0
M  V30 3286 C 302.757 -0.612525 -1.98149 0
M  V30 3287 C 303.182 0.806623 -1.69927 0
M  V30 3288 O 302.54 1.54411 -0.950108 0
M  V30 3289 C 302.588 -0.866981 -3.50023 0
M  V30 3290 O 301.692 0.0585333 -4.12358 0
M  V30 3291 H 301.033 -0.23379 -0.621481 0
M  V30 3292 H 303.563 -1.27023 -1.60395 0
M  V30 3293 H 303.573 -0.789792 -4.00283 0
M  V30 3294 H 302.248 -1.90135 -3.69894 0
M  V30 3295 H 300.825 -0.0701241 -3.72834 0
M  V30 3296 N 303.011 1.40521 -0.713556 0
M  V30 3297 C 303.941 2.33381 -0.0743864 0
M  V30 3298 C 304.922 1.52784 0.747735 0
M  V30 3299 O 306.107 1.81258 0.697071 0
M  V30 3300 C 303.237 3.36748 0.849598 0
M  V30 3301 C 302.191 4.27793 0.133247 0
M  V30 3302 C 301.517 5.21679 1.17281 0
M  V30 3303 C 302.817 5.12415 -1.01134 0
M  V30 3304 H 304.511 2.87081 -0.850007 0
M  V30 3305 H 302.057 1.38034 -0.410201 0
M  V30 3306 H 304.01 4.00648 1.30612 0
M  V30 3307 H 302.734 2.81439 1.65709 0
M  V30 3308 H 301.393 3.65342 -0.303426 0
M  V30 3309 H 301.041 4.62677 1.9733 0
M  V30 3310 H 300.741 5.83435 0.698397 0
M  V30 3311 H 302.265 5.88456 1.62947 0
M  V30 3312 H 303.679 5.69781 -0.634274 0
M  V30 3313 H 302.076 5.83203 -1.41399 0
M  V30 3314 H 303.146 4.48514 -1.84292 0
M  V30 3315 N 304.489 0.459591 1.5075 0
M  V30 3316 C 305.439 -0.358926 2.25157 0
M  V30 3317 C 306.423 -0.971285 1.28276 0
M  V30 3318 O 307.615 -0.885739 1.53244 0
M  V30 3319 C 304.744 -1.44695 3.11317 0
M  V30 3320 C 303.83 -0.842894 4.15639 0
M  V30 3321 N 304.221 0.0299373 5.05791 0
M  V30 3322 C 302.519 -1.10809 4.32015 0
M  V30 3323 C 303.22 0.371563 5.80512 0
M  V30 3324 N 302.196 -0.250409 5.43023 0
M  V30 3325 H 305.998 0.313636 2.92222 0
M  V30 3326 H 303.512 0.273021 1.60089 0
M  V30 3327 H 305.509 -2.04641 3.63218 0
M  V30 3328 H 304.169 -2.12162 2.45799 0
M  V30 3329 H 305.18 0.39797 5.16369 0
M  V30 3330 H 301.857 -1.7786 3.77719 0
M  V30 3331 H 303.247 1.08319 6.63111 0
M  V30 3332 N 305.967 -1.56429 0.191757 0
M  V30 3333 C 307.216 -1.9666 -0.448088 0
M  V30 3334 C 307.529 -1.08136 -1.62991 0
M  V30 3335 O 308.735 -1.38135 -2.33733 0
M  V30 3336 C 307.191 -3.49753 -0.848585 0
M  V30 3337 C 306.799 -4.46935 0.308764 0
M  V30 3338 C 308.543 -3.9876 -1.4557 0
M  V30 3339 C 306.45 -5.91293 -0.112506 0
M  V30 3340 H 305.38 -0.734312 -0.171179 0
M  V30 3341 H 308.031 -1.81301 0.283242 0
M  V30 3342 H 306.413 -3.60604 -1.63649 0
M  V30 3343 H 307.587 -4.47813 1.08627 0
M  V30 3344 H 305.902 -4.08102 0.827158 0
M  V30 3345 H 308.499 -5.04086 -1.78328 0
M  V30 3346 H 308.842 -3.42875 -2.36099 0
M  V30 3347 H 309.375 -3.9101 -0.731836 0
M  V30 3348 H 306.114 -6.51097 0.758514 0
M  V30 3349 H 305.634 -5.93676 -0.854941 0
M  V30 3350 H 307.313 -6.44663 -0.549448 0
M  V30 3351 N 307.445 0.0818655 -1.57387 0
M  V30 3352 C 308.392 1.09834 -2.0299 0
M  V30 3353 C 309.362 1.39043 -0.908639 0
M  V30 3354 O 310.547 1.50282 -1.17559 0
M  V30 3355 C 307.687 2.40971 -2.47037 0
M  V30 3356 C 306.8 2.18379 -3.7274 0
M  V30 3357 C 305.935 3.43008 -4.0561 0
M  V30 3358 C 304.974 3.15736 -5.24383 0
M  V30 3359 N 304.111 4.32667 -5.52941 0
M  V30 3360 H 308.951 0.702472 -2.89602 0
M  V30 3361 H 306.488 0.33531 -1.43227 0
M  V30 3362 H 308.446 3.1752 -2.70623 0
M  V30 3363 H 307.076 2.78379 -1.63417 0
M  V30 3364 H 306.128 1.32569 -3.56552 0
M  V30 3365 H 307.44 1.94227 -4.59431 0
M  V30 3366 H 306.594 4.27958 -4.30043 0
M  V30 3367 H 305.333 3.70225 -3.17466 0
M  V30 3368 H 304.338 2.2918 -4.99757 0
M  V30 3369 H 305.563 2.8985 -6.14136 0
M  V30 3370 H 303.509 4.59935 -4.67756 0
M  V30 3371 H 303.426 4.11753 -6.34031 0
M  V30 3372 H 304.694 5.18644 -5.81918 0
M  V30 3373 N 308.923 1.53595 0.353017 0
M  V30 3374 C 309.87 1.80919 1.43308 0
M  V30 3375 C 310.84 0.654288 1.5267 0
M  V30 3376 O 312.025 0.897759 1.6836 0
M  V30 3377 C 309.165 2.01605 2.80089 0
M  V30 3378 C 308.278 3.29321 2.79593 0
M  V30 3379 C 307.413 3.40125 4.0803 0
M  V30 3380 C 306.452 4.61826 4.01725 0
M  V30 3381 N 305.589 4.69716 5.21834 0
M  V30 3382 H 310.429 2.73074 1.19308 0
M  V30 3383 H 307.966 1.35263 0.578131 0
M  V30 3384 H 309.924 2.11586 3.59565 0
M  V30 3385 H 308.554 1.12772 3.0246 0
M  V30 3386 H 307.606 3.28229 1.92276 0
M  V30 3387 H 308.918 4.18884 2.70809 0
M  V30 3388 H 308.072 3.49488 4.95927 0
M  V30 3389 H 306.811 2.48601 4.19582 0
M  V30 3390 H 305.816 4.52552 3.12213 0
M  V30 3391 H 307.041 5.54705 3.91764 0
M  V30 3392 H 304.987 3.81097 5.33948 0
M  V30 3393 H 304.904 5.53202 5.1527 0
M  V30 3394 H 306.172 4.83376 6.11529 0
M  V30 3395 N 310.401 -0.613514 1.45168 0
M  V30 3396 C 311.333 -1.73825 1.4939 0
M  V30 3397 C 312.346 -1.58175 0.385304 0
M  V30 3398 O 313.535 -1.66165 0.652036 0
M  V30 3399 C 310.635 -3.11758 1.32891 0
M  V30 3400 C 309.808 -3.53704 2.57317 0
M  V30 3401 C 308.867 -4.70579 2.35462 0
M  V30 3402 O 307.893 -4.77996 3.09044 0
M  V30 3403 N 309.095 -5.63454 1.39644 0
M  V30 3404 H 311.86 -1.70669 2.46358 0
M  V30 3405 H 309.421 -0.79862 1.40832 0
M  V30 3406 H 311.413 -3.87692 1.1609 0
M  V30 3407 H 309.983 -3.09456 0.442218 0
M  V30 3408 H 309.203 -2.67794 2.89275 0
M  V30 3409 H 310.491 -3.78486 3.40038 0
M  V30 3410 H 309.889 -5.6017 0.789062 0
M  V30 3411 H 308.446 -6.38944 1.28816 0
M  V30 3412 N 311.879 -1.3236 -0.855495 0
M  V30 3413 C 312.812 -1.15559 -1.96777 0
M  V30 3414 C 313.79 -0.0552681 -1.62506 0
M  V30 3415 O 314.974 -0.214419 -1.87277 0
M  V30 3416 C 312.101 -0.768851 -3.29858 0
M  V30 3417 C 311.147 -1.87429 -3.83109 0
M  V30 3418 S 311.98 -3.48243 -4.06801 0
M  V30 3419 C 313.136 -3.11539 -5.42858 0
M  V30 3420 H 313.369 -2.09717 -2.10727 0
M  V30 3421 H 310.902 -1.17011 -1.00737 0
M  V30 3422 H 312.86 -0.55248 -4.06765 0
M  V30 3423 H 311.521 0.153857 -3.13723 0
M  V30 3424 H 310.714 -1.55667 -4.79358 0
M  V30 3425 H 310.316 -2.04647 -3.13042 0
M  V30 3426 H 312.608 -2.61331 -6.2507 0
M  V30 3427 H 313.551 -4.06806 -5.79582 0
M  V30 3428 H 313.959 -2.48582 -5.06821 0
M  V30 3429 N 313.357 1.07166 -1.15556 0
M  V30 3430 C 314.287 2.16403 -0.877046 0
M  V30 3431 C 315.268 1.69217 0.173111 0
M  V30 3432 O 316.453 1.94181 0.027084 0
M  V30 3433 C 313.583 3.45349 -0.367632 0
M  V30 3434 C 312.537 4.05995 -1.35468 0
M  V30 3435 C 311.863 5.30045 -0.704038 0
M  V30 3436 C 313.163 4.45804 -2.72132 0
M  V30 3437 H 314.857 2.39959 -1.79053 0
M  V30 3438 H 312.403 1.15325 -0.862331 0
M  V30 3439 H 314.356 4.21095 -0.160317 0
M  V30 3440 H 313.08 3.21385 0.581326 0
M  V30 3441 H 311.739 3.32296 -1.54839 0
M  V30 3442 H 311.387 5.02373 0.251128 0
M  V30 3443 H 311.087 5.71579 -1.36277 0
M  V30 3444 H 312.611 6.08495 -0.50654 0
M  V30 3445 H 314.025 5.12671 -2.56595 0
M  V30 3446 H 312.422 4.98296 -3.34397 0
M  V30 3447 H 313.492 3.57083 -3.28054 0
M  V30 3448 N 314.835 0.952656 1.25548 0
M  V30 3449 C 315.783 0.462354 2.27958 0
M  V30 3450 C 316.777 -0.46634 1.62855 0
M  V30 3451 O 317.983 -0.343287 1.76696 0
M  V30 3452 H 314.358 0.13101 0.7405 0
M  V30 3453 H 316.329 1.33839 2.66702 0
M  V30 3454 C 315.078 -0.24628 3.46827 0
M  V30 3455 H 314.401 0.459192 3.97154 0
M  V30 3456 H 315.841 -0.553393 4.20373 0
M  V30 3457 C 314.3 -1.4681 3.0323 0
M  V30 3458 O 314.83 -2.56591 3.09069 0
M  V30 3459 N 313.036 -1.32874 2.58443 0
M  V30 3460 H 312.583 -0.435536 2.53891 0
M  V30 3461 H 312.541 -2.14742 2.29637 0
M  V30 3462 N 316.313 -1.40141 0.720998 0
M  V30 3463 C 317.246 -2.2819 0.020916 0
M  V30 3464 C 318.224 -1.43633 -0.762129 0
M  V30 3465 O 319.408 -1.7304 -0.747633 0
M  V30 3466 C 316.535 -3.24281 -0.977715 0
M  V30 3467 C 315.581 -4.25548 -0.284836 0
M  V30 3468 S 316.414 -5.26247 0.991169 0
M  V30 3469 C 317.57 -6.259 -0.0052214 0
M  V30 3470 H 317.803 -2.87218 0.767649 0
M  V30 3471 H 315.336 -1.45656 0.512233 0
M  V30 3472 H 317.294 -3.80167 -1.54865 0
M  V30 3473 H 315.955 -2.643 -1.69719 0
M  V30 3474 H 315.148 -4.93154 -1.03996 0
M  V30 3475 H 314.75 -3.73389 0.213684 0
M  V30 3476 H 317.042 -6.72143 -0.850279 0
M  V30 3477 H 317.985 -7.05224 0.637599 0
M  V30 3478 H 318.393 -5.63277 -0.371366 0
M  V30 3479 N 317.792 -0.46758 -1.50504 0
M  V30 3480 C 318.702 0.33382 -2.32213 0
M  V30 3481 C 319.718 0.999323 -1.42441 0
M  V30 3482 O 320.894 0.988068 -1.75497 0
M  V30 3483 C 317.959 1.4035 -3.17022 0
M  V30 3484 C 317.02 0.754961 -4.2261 0
M  V30 3485 C 316.253 1.77367 -5.03365 0
M  V30 3486 O 316.476 2.99976 -4.8515 0
M  V30 3487 O 315.41 1.34744 -5.86624 0
M  V30 3488 H 319.236 -0.334067 -3.01857 0
M  V30 3489 H 316.821 -0.229496 -1.47627 0
M  V30 3490 H 318.703 2.02318 -3.69656 0
M  V30 3491 H 317.378 2.05492 -2.5011 0
M  V30 3492 H 316.285 0.0964244 -3.73976 0
M  V30 3493 H 317.618 0.146545 -4.91982 0
M  V30 3494 N 319.27 1.56325 -0.20005 0
M  V30 3495 C 320.681 1.8408 0.31167 0
M  V30 3496 C 321.032 1.12087 1.61031 0
M  V30 3497 O 320.157 0.38332 2.12978 0
M  V30 3498 C 320.752 3.33932 0.57226 0
M  V30 3499 C 319.311 3.6208 1.02834 0
M  V30 3500 C 318.458 2.77186 0.079634 0
M  V30 3501 H 321.409 1.52939 -0.423729 0
M  V30 3502 H 321.43 3.52971 1.42096 0
M  V30 3503 H 320.942 3.86303 -0.37308 0
M  V30 3504 H 319.043 3.15147 1.98778 0
M  V30 3505 H 319.156 4.7023 0.917624 0
M  V30 3506 H 317.52 2.47951 0.582448 0
M  V30 3507 H 318.303 3.32347 -0.860238 0
M  V30 3508 N 320.748 -0.0735177 1.57428 0
M  V30 3509 C 321.68 -1.11423 2.00294 0
M  V30 3510 C 322.693 -1.35084 0.908637 0
M  V30 3511 O 323.882 -1.33355 1.18654 0
M  V30 3512 C 320.982 -2.46548 2.32523 0
M  V30 3513 C 320.155 -2.42867 3.63778 0
M  V30 3514 C 319.214 -3.60087 3.83697 0
M  V30 3515 O 318.24 -3.41595 4.55304 0
M  V30 3516 N 319.442 -4.80372 3.25919 0
M  V30 3517 H 322.207 -0.749206 2.90184 0
M  V30 3518 H 319.768 -0.262195 1.59763 0
M  V30 3519 H 321.76 -3.23607 2.43024 0
M  V30 3520 H 320.33 -2.75059 1.48531 0
M  V30 3521 H 319.55 -1.51206 3.64047 0
M  V30 3522 H 320.838 -2.37506 4.49965 0
M  V30 3523 H 320.236 -4.983 2.67795 0
M  V30 3524 H 318.793 -5.54948 3.41871 0
M  V30 3525 N 322.226 -1.5378 -0.344866 0
M  V30 3526 C 323.158 -1.77988 -1.44406 0
M  V30 3527 C 324.171 -0.661138 -1.48771 0
M  V30 3528 O 325.36 -0.937842 -1.51877 0
M  V30 3529 C 322.46 -1.86345 -2.8307 0
M  V30 3530 C 321.633 -3.16256 -3.0216 0
M  V30 3531 C 320.692 -3.15588 -4.21059 0
M  V30 3532 O 319.718 -3.89314 -4.15239 0
M  V30 3533 N 320.92 -2.37864 -5.29529 0
M  V30 3534 H 323.685 -2.72839 -1.24012 0
M  V30 3535 H 321.246 -1.52814 -0.534737 0
M  V30 3536 H 323.238 -1.83351 -3.60783 0
M  V30 3537 H 321.808 -0.986858 -2.96614 0
M  V30 3538 H 321.028 -3.32385 -2.11929 0
M  V30 3539 H 322.316 -4.0207 -3.11797 0
M  V30 3540 H 321.714 -1.77514 -5.37127 0
M  V30 3541 H 320.271 -2.40668 -6.05741 0
M  V30 3542 N 323.704 0.605807 -1.45491 0
M  V30 3543 C 324.634 1.72709 -1.57143 0
M  V30 3544 C 325.615 1.6476 -0.422884 0
M  V30 3545 O 326.8 1.83132 -0.646247 0
M  V30 3546 C 323.93 3.11316 -1.53948 0
M  V30 3547 C 322.884 3.34077 -2.67537 0
M  V30 3548 C 322.21 4.72975 -2.49397 0
M  V30 3549 C 323.51 3.24158 -4.09535 0
M  V30 3550 H 325.204 1.63214 -2.51001 0
M  V30 3551 H 322.75 0.78379 -1.208 0
M  V30 3552 H 324.703 3.89557 -1.60696 0
M  V30 3553 H 323.427 3.21655 -0.566205 0
M  V30 3554 H 322.086 2.58227 -2.6022 0
M  V30 3555 H 321.734 4.8005 -1.50205 0
M  V30 3556 H 321.434 4.8916 -3.25571 0
M  V30 3557 H 322.958 5.53414 -2.58002 0
M  V30 3558 H 324.372 3.92271 -4.18086 0
M  V30 3559 H 322.769 3.51872 -4.86113 0
M  V30 3560 H 323.839 2.2157 -4.31317 0
M  V30 3561 N 325.182 1.32811 0.848464 0
M  V30 3562 C 326.407 1.26882 1.6406 0
M  V30 3563 C 326.832 -0.15913 1.87426 0
M  V30 3564 O 326.19 -1.11258 1.43148 0
M  V30 3565 C 326.238 2.03997 2.97351 0
M  V30 3566 O 325.342 1.39201 3.88197 0
M  V30 3567 H 324.683 0.436982 0.499943 0
M  V30 3568 H 327.213 1.75224 1.0563 0
M  V30 3569 H 327.223 2.14403 3.47124 0
M  V30 3570 H 325.898 3.0783 2.79666 0
M  V30 3571 H 324.475 1.37381 3.46671 0
M  V30 3572 N 326.66 -1.06551 1.16123 0
M  V30 3573 C 327.592 -2.13908 0.823171 0
M  V30 3574 C 328.605 -1.61926 -0.16843 0
M  V30 3575 O 329.794 -1.78412 0.055962 0
M  V30 3576 C 326.894 -3.38283 0.204424 0
M  V30 3577 C 326.067 -4.19589 1.23548 0
M  V30 3578 C 325.126 -5.2233 0.637011 0
M  V30 3579 O 324.152 -5.54034 1.30516 0
M  V30 3580 N 325.354 -5.77621 -0.577474 0
M  V30 3581 H 328.119 -2.43508 1.74711 0
M  V30 3582 H 325.68 -1.2253 1.05821 0
M  V30 3583 H 327.672 -4.0416 -0.208909 0
M  V30 3584 H 326.242 -3.06329 -0.623012 0
M  V30 3585 H 325.462 -3.49406 1.82507 0
M  V30 3586 H 326.75 -4.70718 1.93137 0
M  V30 3587 H 326.148 -5.54125 -1.13853 0
M  V30 3588 H 324.705 -6.45087 -0.933053 0
M  V30 3589 N 328.138 -0.959301 -1.25041 0
M  V30 3590 C 329.068 -0.501388 -2.28053 0
M  V30 3591 C 330.049 0.454673 -1.63911 0
M  V30 3592 O 331.234 0.352618 -1.90972 0
M  V30 3593 C 328.364 0.217224 -3.4662 0
M  V30 3594 C 327.318 -0.654034 -4.22973 0
M  V30 3595 C 326.644 0.195589 -5.34342 0
M  V30 3596 C 327.944 -1.93447 -4.85155 0
M  V30 3597 H 329.638 -1.36238 -2.66608 0
M  V30 3598 H 327.184 -0.656534 -1.28163 0
M  V30 3599 H 329.137 0.548732 -4.17812 0
M  V30 3600 H 327.861 1.1125 -3.07068 0
M  V30 3601 H 326.52 -0.968693 -3.5357 0
M  V30 3602 H 326.168 1.09076 -4.91031 0
M  V30 3603 H 325.868 -0.384091 -5.86343 0
M  V30 3604 H 327.392 0.521958 -6.08365 0
M  V30 3605 H 328.806 -1.66908 -5.48466 0
M  V30 3606 H 327.203 -2.46018 -5.47353 0
M  V30 3607 H 328.273 -2.63466 -4.07079 0
M  V30 3608 N 329.616 1.39756 -0.72842 0
M  V30 3609 C 330.546 2.33289 -0.0991354 0
M  V30 3610 C 331.527 1.53568 0.731489 0
M  V30 3611 O 332.712 1.81987 0.677807 0
M  V30 3612 C 329.842 3.3763 0.813834 0
M  V30 3613 C 328.796 4.2791 0.0878663 0
M  V30 3614 C 328.122 5.22894 1.11741 0
M  V30 3615 C 329.422 5.11314 -1.06563 0
M  V30 3616 H 331.116 2.86163 -0.880408 0
M  V30 3617 H 328.662 1.37591 -0.424819 0
M  V30 3618 H 330.615 4.0201 1.26355 0
M  V30 3619 H 329.339 2.83181 1.62715 0
M  V30 3620 H 327.998 3.65 -0.342159 0
M  V30 3621 H 327.646 4.64744 1.92412 0
M  V30 3622 H 327.346 5.84143 0.636477 0
M  V30 3623 H 328.87 5.90151 1.56697 0
M  V30 3624 H 330.284 5.69076 -0.694671 0
M  V30 3625 H 328.681 5.81671 -1.47577 0
M  V30 3626 H 329.751 4.46534 -1.89038 0
M  V30 3627 N 331.094 0.475555 1.50254 0
M  V30 3628 C 332.343 -0.0795996 2.01543 0
M  V30 3629 C 332.656 -1.4038 1.36209 0
M  V30 3630 O 333.862 -2.04415 1.7868 0
M  V30 3631 C 332.318 -0.192363 3.59386 0
M  V30 3632 C 331.926 1.12367 4.33679 0
M  V30 3633 C 333.67 -0.699238 4.18701 0
M  V30 3634 C 331.577 0.974453 5.83317 0
M  V30 3635 H 330.507 -0.0335228 0.753254 0
M  V30 3636 H 333.158 0.611128 1.73025 0
M  V30 3637 H 331.54 -0.946974 3.84511 0
M  V30 3638 H 332.714 1.88958 4.20276 0
M  V30 3639 H 331.029 1.562 3.85993 0
M  V30 3640 H 333.626 -0.827978 5.28251 0
M  V30 3641 H 333.969 -1.69171 3.80377 0
M  V30 3642 H 334.502 -0.00188807 3.978 0
M  V30 3643 H 331.241 1.94042 6.26121 0
M  V30 3644 H 330.761 0.248998 5.99283 0
M  V30 3645 H 332.44 0.642867 6.43798 0
M  V30 3646 N 332.573 -1.56217 0.208337 0
M  V30 3647 C 333.505 -2.1695 -0.739276 0
M  V30 3648 C 334.518 -1.13492 -1.1672 0
M  V30 3649 O 335.707 -1.40529 -1.10063 0
M  V30 3650 C 332.807 -2.72755 -2.01142 0
M  V30 3651 C 331.98 -4.0125 -1.74118 0
M  V30 3652 C 331.039 -4.41749 -2.85909 0
M  V30 3653 O 330.065 -5.08912 -2.54946 0
M  V30 3654 N 331.267 -4.06342 -4.14568 0
M  V30 3655 H 334.032 -2.98893 -0.219837 0
M  V30 3656 H 331.593 -1.61878 0.0268445 0
M  V30 3657 H 333.585 -2.96826 -2.75094 0
M  V30 3658 H 332.155 -1.95191 -2.4417 0
M  V30 3659 H 331.375 -3.85173 -0.838775 0
M  V30 3660 H 332.663 -4.851 -1.53477 0
M  V30 3661 H 332.061 -3.52345 -4.42571 0
M  V30 3662 H 330.618 -4.35335 -4.85105 0
M  V30 3663 N 334.051 0.0651679 -1.57465 0
M  V30 3664 C 334.983 1.10359 -2.00882 0
M  V30 3665 C 335.996 1.346 -0.915788 0
M  V30 3666 O 337.185 1.32723 -1.1936 0
M  V30 3667 C 334.285 2.45312 -2.33828 0
M  V30 3668 C 333.458 2.40934 -3.65061 0
M  V30 3669 C 332.517 3.58047 -3.85602 0
M  V30 3670 O 331.543 3.39175 -4.57109 0
M  V30 3671 N 332.745 4.78637 -3.28462 0
M  V30 3672 H 335.51 0.733807 -2.90578 0
M  V30 3673 H 333.071 0.253719 -1.599 0
M  V30 3674 H 335.063 3.22314 -2.44737 0
M  V30 3675 H 333.633 2.74267 -1.49988 0
M  V30 3676 H 332.853 1.49273 -3.64844 0
M  V30 3677 H 334.141 2.35117 -4.51218 0
M  V30 3678 H 333.539 4.96872 -2.70433 0
M  V30 3679 H 332.096 5.53127 -3.44809 0
M  V30 3680 N 335.529 1.53961 0.336706 0
M  V30 3681 C 336.754 1.75797 1.10046 0
M  V30 3682 C 337.179 0.498985 1.81361 0
M  V30 3683 O 336.537 -0.548769 1.72795 0
M  V30 3684 C 336.585 2.94257 2.08436 0
M  V30 3685 O 335.689 2.64883 3.16087 0
M  V30 3686 H 335.03 0.582936 0.317934 0
M  V30 3687 H 337.56 2.00945 0.38501 0
M  V30 3688 H 337.57 3.21237 2.51537 0
M  V30 3689 H 336.245 3.85564 1.55927 0
M  V30 3690 H 334.822 2.48812 2.77753 0
M  V30 3691 N 337.007 -0.598083 1.45811 0
M  V30 3692 C 338.253 -1.35882 1.50545 0
M  V30 3693 C 338.586 -1.93616 0.150445 0
M  V30 3694 O 337.861 -1.75604 -0.83628 0
M  V30 3695 C 338.144 -2.49966 2.59208 0
M  V30 3696 C 337.997 -1.97367 4.04186 0
M  V30 3697 C 339.316 -3.52068 2.64076 0
M  V30 3698 H 336.435 -0.492717 0.548087 0
M  V30 3699 H 339.077 -0.673319 1.77669 0
M  V30 3700 H 337.227 -3.08443 2.3621 0
M  V30 3701 H 338.899 -1.43466 4.38423 0
M  V30 3702 H 337.142 -1.283 4.14393 0
M  V30 3703 H 337.813 -2.79649 4.75921 0
M  V30 3704 H 340.289 -3.03448 2.84708 0
M  V30 3705 H 339.165 -4.2937 3.41954 0
M  V30 3706 H 339.426 -4.08304 1.69531 0
M  V30 3707 N 338.485 -1.33259 -0.841409 0
M  V30 3708 C 339.415 -1.25926 -1.96634 0
M  V30 3709 C 340.396 -0.140349 -1.6952 0
M  V30 3710 O 341.581 -0.329707 -1.91381 0
M  V30 3711 C 338.711 -0.99512 -3.32738 0
M  V30 3712 C 337.665 -2.0767 -3.74242 0
M  V30 3713 C 336.991 -1.66474 -5.08125 0
M  V30 3714 C 338.291 -3.49318 -3.88297 0
M  V30 3715 H 339.985 -2.20046 -2.03027 0
M  V30 3716 H 337.531 -1.05931 -0.975425 0
M  V30 3717 H 339.484 -0.930323 -4.11002 0
M  V30 3718 H 338.208 -0.0183004 -3.26595 0
M  V30 3719 H 336.867 -2.13187 -2.98239 0
M  V30 3720 H 336.515 -0.675012 -4.9845 0
M  V30 3721 H 336.215 -2.3885 -5.36865 0
M  V30 3722 H 337.739 -1.61455 -5.88867 0
M  V30 3723 H 339.153 -3.46316 -4.56879 0
M  V30 3724 H 337.55 -4.20158 -4.28471 0
M  V30 3725 H 338.62 -3.8801 -2.9082 0
M  V30 3726 N 339.963 1.05934 -1.16686 0
M  V30 3727 C 341.21 1.788 -0.950622 0
M  V30 3728 C 341.538 1.87384 0.521305 0
M  V30 3729 O 340.793 1.36438 1.40297 0
M  V30 3730 C 341.092 3.23105 -1.52767 0
M  V30 3731 C 340.758 3.34594 -3.02254 0
M  V30 3732 C 339.42 3.37437 -3.43059 0
M  V30 3733 C 341.772 3.36219 -3.98254 0
M  V30 3734 C 339.1 3.39525 -4.78477 0
M  V30 3735 C 341.452 3.39845 -5.33562 0
M  V30 3736 C 340.116 3.40971 -5.73842 0
M  V30 3737 H 339.386 0.654275 -0.347857 0
M  V30 3738 H 342.033 1.24555 -1.45459 0
M  V30 3739 H 340.338 3.80227 -0.94524 0
M  V30 3740 H 342.035 3.7809 -1.336 0
M  V30 3741 H 338.625 3.3309 -2.6972 0
M  V30 3742 H 342.809 3.33231 -3.67792 0
M  V30 3743 H 338.065 3.38703 -5.09009 0
M  V30 3744 H 342.239 3.4005 -6.07733 0
M  V30 3745 H 339.866 3.42342 -6.78753 0
M  V30 3746 N 341.441 0.965919 1.2453 0
M  V30 3747 C 342.351 0.502154 2.29163 0
M  V30 3748 C 343.367 -0.436017 1.68448 0
M  V30 3749 O 344.543 -0.309497 1.99008 0
M  V30 3750 C 341.608 -0.201956 3.46111 0
M  V30 3751 C 340.669 0.775821 4.22232 0
M  V30 3752 C 339.902 0.105217 5.33596 0
M  V30 3753 O 340.125 -1.10683 5.59558 0
M  V30 3754 O 339.059 0.796475 5.96607 0
M  V30 3755 H 342.885 1.37194 2.70946 0
M  V30 3756 H 340.47 0.732875 1.30189 0
M  V30 3757 H 342.352 -0.597564 4.17142 0
M  V30 3758 H 341.027 -1.04673 3.06309 0
M  V30 3759 H 339.934 1.22185 3.53584 0
M  V30 3760 H 341.267 1.58896 4.65846 0
M  V30 3761 N 342.919 -1.39368 0.735821 0
M  V30 3762 C 344.144 -2.05319 0.293052 0
M  V30 3763 C 344.569 -1.55115 -1.064 0
M  V30 3764 O 343.927 -0.695261 -1.67439 0
M  V30 3765 C 343.975 -3.59305 0.305323 0
M  V30 3766 O 343.079 -4.06299 -0.706761 0
M  V30 3767 H 342.42 -0.650529 0.13307 0
M  V30 3768 H 344.95 -1.78386 1.00197 0
M  V30 3769 H 344.96 -4.07724 0.149997 0
M  V30 3770 H 343.635 -3.95207 1.29553 0
M  V30 3771 H 342.212 -3.69292 -0.517504 0
M  V30 3772 N 344.397 -0.483516 -1.5 0
M  V30 3773 C 345.643 0.0672592 -2.02688 0
M  V30 3774 C 345.976 1.38247 -1.36387 0
M  V30 3775 O 345.251 1.88131 -0.493675 0
M  V30 3776 C 345.534 0.238109 -3.59312 0
M  V30 3777 C 345.387 -1.099 -4.36168 0
M  V30 3778 C 346.706 0.986916 -4.28892 0
M  V30 3779 H 343.825 0.0229696 -0.736642 0
M  V30 3780 H 346.467 -0.631527 -1.79197 0
M  V30 3781 H 344.617 0.8333 -3.79458 0
M  V30 3782 H 346.289 -1.73172 -4.27562 0
M  V30 3783 H 344.532 -1.69261 -3.99416 0
M  V30 3784 H 345.203 -0.932954 -5.44059 0
M  V30 3785 H 347.679 0.482302 -4.13295 0
M  V30 3786 H 346.555 1.07527 -5.38265 0
M  V30 3787 H 346.816 2.0265 -3.92919 0
M  V30 3788 N 345.875 1.56104 -0.216619 0
M  V30 3789 C 347.122 1.98172 0.416416 0
M  V30 3790 C 347.45 1.10413 1.60122 0
M  V30 3791 O 346.705 0.147967 1.9514 0
M  V30 3792 C 347.004 3.45923 0.898464 0
M  V30 3793 C 346.67 4.50559 -0.175288 0
M  V30 3794 C 345.332 4.78897 -0.470271 0
M  V30 3795 C 347.684 5.1334 -0.901728 0
M  V30 3796 C 345.012 5.67299 -1.4963 0
M  V30 3797 C 347.364 6.02853 -1.91705 0
M  V30 3798 C 346.028 6.29537 -2.21901 0
M  V30 3799 H 345.298 0.725164 0.152377 0
M  V30 3800 H 347.945 1.88839 -0.318103 0
M  V30 3801 H 346.25 3.52434 1.71165 0
M  V30 3802 H 347.947 3.75841 1.39803 0
M  V30 3803 H 344.537 4.28551 0.0647806 0
M  V30 3804 H 348.721 4.91521 -0.687072 0
M  V30 3805 H 343.977 5.86239 -1.73592 0
M  V30 3806 H 348.151 6.50552 -2.48505 0
M  V30 3807 H 345.778 6.97835 -3.01548 0
M  V30 3808 N 347.353 -0.0568162 1.57498 0
M  V30 3809 C 348.263 -1.08346 2.08083 0
M  V30 3810 C 349.279 -1.41439 1.01346 0
M  V30 3811 O 350.455 -1.51316 1.32912 0
M  V30 3812 C 347.52 -2.37352 2.52715 0
M  V30 3813 C 346.581 -2.11093 3.73816 0
M  V30 3814 C 345.814 -3.33949 4.1631 0
M  V30 3815 O 346.037 -4.43622 3.58547 0
M  V30 3816 O 344.971 -3.21279 5.08983 0
M  V30 3817 H 348.797 -0.683667 2.95905 0
M  V30 3818 H 346.382 -0.271965 1.46904 0
M  V30 3819 H 348.264 -3.13246 2.81877 0
M  V30 3820 H 346.939 -2.76681 1.68016 0
M  V30 3821 H 345.846 -1.32856 3.49714 0
M  V30 3822 H 347.179 -1.76637 4.59413 0
M  V30 3823 N 348.832 -1.54138 -0.328536 0
M  V30 3824 C 350.08 -1.71765 -1.06496 0
M  V30 3825 C 350.401 -0.49149 -1.88704 0
M  V30 3826 O 349.671 0.494539 -1.89555 0
M  V30 3827 H 348.251 -0.633295 -0.396164 0
M  V30 3828 H 350.913 -1.91429 -0.366176 0
M  V30 3829 H 350.009 -2.5951 -1.73381 0
M  V30 3830 N 350.31 0.590341 -1.46126 0
M  V30 3831 C 351.24 1.71032 -1.58966 0
M  V30 3832 C 352.221 1.64302 -0.440335 0
M  V30 3833 O 353.406 1.82436 -0.665634 0
M  V30 3834 C 350.536 3.09665 -1.57241 0
M  V30 3835 C 349.49 3.31221 -2.71066 0
M  V30 3836 C 348.816 4.70303 -2.54399 0
M  V30 3837 C 350.116 3.19796 -4.1295 0
M  V30 3838 H 351.81 1.60543 -2.52718 0
M  V30 3839 H 349.356 0.770933 -1.21625 0
M  V30 3840 H 351.309 3.87831 -1.64819 0
M  V30 3841 H 350.033 3.21036 -0.600289 0
M  V30 3842 H 348.692 2.55452 -2.62944 0
M  V30 3843 H 348.34 4.78429 -1.55288 0
M  V30 3844 H 348.04 4.85679 -3.30741 0
M  V30 3845 H 349.564 5.50647 -2.63857 0
M  V30 3846 H 350.978 3.87815 -4.22223 0
M  V30 3847 H 349.375 3.46696 -4.89818 0
M  V30 3848 H 350.445 2.16983 -4.33643 0
M  V30 3849 N 351.788 1.33704 0.83433 0
M  V30 3850 C 353.037 1.24763 1.58484 0
M  V30 3851 C 353.35 -0.183775 1.94735 0
M  V30 3852 O 354.556 -0.395234 2.68608 0
M  V30 3853 C 353.012 2.18638 2.85876 0
M  V30 3854 C 352.62 3.66974 2.56971 0
M  V30 3855 C 354.364 2.18581 3.63899 0
M  V30 3856 C 352.271 4.5275 3.80488 0
M  V30 3857 H 351.201 0.463425 0.594772 0
M  V30 3858 H 353.852 1.58797 0.919551 0
M  V30 3859 H 352.234 1.77542 3.5397 0
M  V30 3860 H 353.408 4.16538 1.9706 0
M  V30 3861 H 351.723 3.69366 1.92244 0
M  V30 3862 H 354.32 2.79894 4.55591 0
M  V30 3863 H 354.663 1.18207 3.99165 0
M  V30 3864 H 355.196 2.58062 3.02735 0
M  V30 3865 H 351.935 5.54017 3.5035 0
M  V30 3866 H 351.455 4.07927 4.39722 0
M  V30 3867 H 353.134 4.66784 4.4802 0
M  V30 3868 N 353.266 -1.05314 1.17247 0
M  V30 3869 C 354.229 -2.112 0.890357 0
M  V30 3870 C 355.229 -1.60359 -0.118943 0
M  V30 3871 O 356.419 -1.73833 0.113086 0
M  V30 3872 C 353.551 -3.39266 0.333422 0
M  V30 3873 H 354.744 -2.37659 1.82916 0
M  V30 3874 H 352.297 -1.21538 0.982758 0
M  V30 3875 H 353.032 -3.18462 -0.612587 0
M  V30 3876 H 352.817 -3.77477 1.06082 0
M  V30 3877 H 354.307 -4.17315 0.154322 0
M  V30 3878 N 354.744 -0.972509 -1.24016 0
M  V30 3879 C 355.993 -0.632603 -1.91523 0
M  V30 3880 C 356.306 0.836641 -1.76804 0
M  V30 3881 O 357.512 1.28728 -2.39043 0
M  V30 3882 C 355.968 -1.08082 -3.43287 0
M  V30 3883 C 355.576 -2.57386 -3.66683 0
M  V30 3884 C 357.32 -0.814288 -4.16617 0
M  V30 3885 C 355.227 -2.95915 -5.12043 0
M  V30 3886 H 354.157 -0.232898 -0.717129 0
M  V30 3887 H 356.808 -1.17936 -1.40582 0
M  V30 3888 H 355.19 -0.462339 -3.93292 0
M  V30 3889 H 356.364 -3.24405 -3.27258 0
M  V30 3890 H 354.679 -2.81701 -3.06649 0
M  V30 3891 H 357.276 -1.0781 -5.23718 0
M  V30 3892 H 357.619 0.24955 -4.15551 0
M  V30 3893 H 358.152 -1.39397 -3.72577 0
M  V30 3894 H 354.891 -4.0139 -5.18234 0
M  V30 3895 H 354.411 -2.33584 -5.52448 0
M  V30 3896 H 356.09 -2.86086 -5.80314 0
M  V30 3897 N 356.222 1.38976 -0.743202 0
M  V30 3898 C 357.499 1.94351 -0.220705 0
M  V30 3899 C 357.879 1.67935 1.2791 0
M  V30 3900 O 357.227 1.01211 2.04862 0
M  V30 3901 C 357.437 3.44426 -0.563171 0
M  V30 3902 C 358.785 4.2144 -0.517046 0
M  V30 3903 O 359.809 3.52661 -0.500846 0
M  V30 3904 O 358.668 5.44032 -0.518806 0
M  V30 3905 H 355.762 0.825879 -0.043047 0
M  V30 3906 H 358.308 1.48429 -0.822618 0
M  V30 3907 H 357.08 3.5712 -1.59941 0
M  V30 3908 H 356.703 3.97543 0.0672883 0
M  V30 3909 N 357.7 0.491464 1.49741 0
M  V30 3910 C 358.925 -0.0557177 2.07325 0
M  V30 3911 C 359.35 -1.30925 1.35056 0
M  V30 3912 O 358.708 -1.76733 0.404365 0
M  V30 3913 C 358.756 -0.302074 3.59333 0
M  V30 3914 O 357.86 -1.37868 3.88672 0
M  V30 3915 H 357.201 0.0219956 0.663636 0
M  V30 3916 H 359.731 0.688352 1.92673 0
M  V30 3917 H 359.741 -0.536464 4.04458 0
M  V30 3918 H 358.416 0.61383 4.11345 0
M  V30 3919 H 356.993 -1.12999 3.55367 0
M  V30 3920 N 359.178 -1.55987 0.224894 0
M  V30 3921 C 360.455 -1.90232 -0.455083 0
M  V30 3922 C 360.835 -1.14269 -1.77499 0
M  V30 3923 O 360.183 -0.253079 -2.27094 0
M  V30 3924 C 360.393 -3.42993 -0.644758 0
M  V30 3925 C 361.741 -4.13821 -0.950669 0
M  V30 3926 O 362.765 -3.4861 -0.731423 0
M  V30 3927 O 361.624 -5.29128 -1.36695 0
M  V30 3928 H 358.718 -0.79108 -0.241084 0
M  V30 3929 H 361.264 -1.67581 0.267327 0
M  V30 3930 H 360.036 -3.90252 0.28613 0
M  V30 3931 H 359.659 -3.71434 -1.41853 0
M  V30 3932 N 360.656 0.0484629 -1.57525 0
M  V30 3933 C 361.886 0.754326 -1.92337 0
M  V30 3934 C 362.294 1.70443 -0.82132 0
M  V30 3935 O 361.637 1.82466 0.21254 0
M  V30 3936 C 361.699 1.58231 -3.22805 0
M  V30 3937 C 361.363 0.799074 -4.4996 0
M  V30 3938 C 362.36 0.1079 -5.19788 0
M  V30 3939 C 360.045 0.759345 -4.96527 0
M  V30 3940 C 362.039 -0.612516 -6.3445 0
M  V30 3941 C 359.726 0.0351713 -6.1109 0
M  V30 3942 C 360.724 -0.649537 -6.79904 0
M  V30 3943 O 360.412 -1.36199 -7.92278 0
M  V30 3944 H 360.144 0.218257 -0.639797 0
M  V30 3945 H 362.698 0.0159295 -2.05394 0
M  V30 3946 H 360.928 2.36406 -3.06021 0
M  V30 3947 H 362.617 2.16898 -3.43089 0
M  V30 3948 H 363.383 0.129748 -4.84826 0
M  V30 3949 H 359.262 1.28177 -4.42822 0
M  V30 3950 H 362.806 -1.14751 -6.88097 0
M  V30 3951 H 358.703 0.0113314 -6.45499 0
M  V30 3952 H 359.471 -1.27366 -8.0853 0
M  V30 3953 N 362.134 1.5431 0.320358 0
M  V30 3954 C 363.081 1.83918 1.39438 0
M  V30 3955 C 364.051 0.686525 1.51248 0
M  V30 3956 O 365.236 0.933269 1.66417 0
M  V30 3957 C 362.376 2.075 2.75749 0
M  V30 3958 C 361.489 3.35177 2.72544 0
M  V30 3959 C 360.624 3.48704 4.00723 0
M  V30 3960 C 359.663 4.70244 3.91838 0
M  V30 3961 N 358.8 4.80679 5.11754 0
M  V30 3962 H 363.64 2.75544 1.13489 0
M  V30 3963 H 361.177 1.36459 0.549309 0
M  V30 3964 H 363.135 2.19166 3.54996 0
M  V30 3965 H 361.765 1.19163 3 0
M  V30 3966 H 360.817 3.32233 1.85271 0
M  V30 3967 H 362.129 4.24534 2.61863 0
M  V30 3968 H 361.283 3.59928 4.88402 0
M  V30 3969 H 360.022 2.57445 4.14214 0
M  V30 3970 H 359.027 4.59072 3.02544 0
M  V30 3971 H 360.252 5.6289 3.7991 0
M  V30 3972 H 358.198 3.92337 5.25745 0
M  V30 3973 H 358.115 5.64007 5.0342 0
M  V30 3974 H 359.383 4.96239 6.01138 0
M  V30 3975 N 363.613 -0.582584 1.46437 0
M  V30 3976 C 364.862 -1.337 1.5102 0
M  V30 3977 C 365.175 -1.94891 0.166359 0
M  V30 3978 O 366.381 -2.71351 0.0899954 0
M  V30 3979 C 364.837 -2.42315 2.66104 0
M  V30 3980 C 364.445 -1.87427 4.06909 0
M  V30 3981 C 366.189 -3.19099 2.79958 0
M  V30 3982 C 364.096 -2.93672 5.13333 0
M  V30 3983 H 363.026 -0.502619 0.562041 0
M  V30 3984 H 365.677 -0.621701 1.72647 0
M  V30 3985 H 364.059 -3.16645 2.37807 0
M  V30 3986 H 365.233 -1.19639 4.44998 0
M  V30 3987 H 363.548 -1.2331 3.97723 0
M  V30 3988 H 366.145 -3.9839 3.56636 0
M  V30 3989 H 366.488 -3.71695 1.87479 0
M  V30 3990 H 367.021 -2.51875 3.07902 0
M  V30 3991 H 363.76 -2.45962 6.07604 0
M  V30 3992 H 363.28 -3.59948 4.79789 0
M  V30 3993 H 364.959 -3.5762 5.39182 0
M  V30 3994 N 365.091 -1.34144 -0.827227 0
M  V30 3995 C 366.319 -1.29325 -1.61501 0
M  V30 3996 C 366.734 0.13354 -1.88327 0
M  V30 3997 O 366.091 1.0793 -1.47164 0
M  V30 3998 C 366.142 -2.07746 -2.95844 0
M  V30 3999 O 365.863 -3.4486 -2.70191 0
M  V30 4000 C 367.364 -2.10273 -3.90256 0
M  V30 4001 H 364.584 -0.445069 -0.50215 0
M  V30 4002 H 367.128 -1.76693 -1.02955 0
M  V30 4003 H 365.283 -1.6403 -3.5096 0
M  V30 4004 H 365.697 -3.85345 -3.55822 0
M  V30 4005 H 367.171 -2.69575 -4.81698 0
M  V30 4006 H 367.648 -1.096 -4.25305 0
M  V30 4007 H 368.254 -2.54059 -3.41078 0
M  V30 4008 N 366.569 1.04691 -1.17803 0
M  V30 4009 C 367.532 2.10724 -0.901545 0
M  V30 4010 C 368.532 1.6042 0.110437 0
M  V30 4011 O 369.722 1.7377 -0.122303 0
M  V30 4012 C 366.854 3.39084 -0.351409 0
M  V30 4013 H 368.047 2.36686 -1.84174 0
M  V30 4014 H 365.6 1.21015 -0.98919 0
M  V30 4015 H 366.335 3.18782 0.59569 0
M  V30 4016 H 366.12 3.76909 -1.08083 0
M  V30 4017 H 367.61 4.17227 -0.176451 0
M  V30 4018 N 368.047 0.979072 1.23499 0
M  V30 4019 C 369.296 0.642751 1.91185 0
M  V30 4020 C 369.609 -0.827253 1.77245 0
M  V30 4021 O 370.815 -1.27458 2.39722 0
M  V30 4022 C 369.271 1.09901 3.42709 0
M  V30 4023 C 368.879 2.59327 3.65313 0
M  V30 4024 C 370.623 0.836371 4.16179 0
M  V30 4025 C 368.53 2.98627 5.10467 0
M  V30 4026 H 367.46 0.236698 0.715884 0
M  V30 4027 H 370.111 1.1868 1.39955 0
M  V30 4028 H 368.493 0.48319 3.93041 0
M  V30 4029 H 369.667 3.26136 3.25533 0
M  V30 4030 H 367.982 2.83323 3.05151 0
M  V30 4031 H 370.579 1.10586 5.23139 0
M  V30 4032 H 370.922 -0.227509 4.15678 0
M  V30 4033 H 371.455 1.41371 3.71832 0
M  V30 4034 H 368.194 4.04133 5.16098 0
M  V30 4035 H 367.714 2.3651 5.51201 0
M  V30 4036 H 369.393 2.89159 5.78788 0
M  V30 4037 N 369.525 -1.3858 0.750561 0
M  V30 4038 C 370.473 -2.32339 0.110162 0
M  V30 4039 C 371.467 -1.53864 -0.708674 0
M  V30 4040 O 372.673 -1.69417 -0.608112 0
M  V30 4041 H 369.048 -0.751812 0.0168275 0
M  V30 4042 H 371.019 -2.83959 0.917053 0
M  V30 4043 C 369.768 -3.39043 -0.771067 0
M  V30 4044 H 369.091 -3.99517 -0.150374 0
M  V30 4045 H 370.531 -4.07061 -1.1865 0
M  V30 4046 C 368.99 -2.77365 -1.91234 0
M  V30 4047 O 369.52 -2.66434 -3.00626 0
M  V30 4048 N 367.726 -2.35219 -1.70646 0
M  V30 4049 H 367.273 -2.4431 -0.81673 0
M  V30 4050 H 367.231 -1.94294 -2.47178 0
M  V30 4051 N 371.003 -0.499398 -1.49478 0
M  V30 4052 C 371.935 0.316575 -2.27003 0
M  V30 4053 C 372.948 0.932047 -1.33479 0
M  V30 4054 O 374.137 0.815658 -1.58774 0
M  V30 4055 C 371.237 1.46055 -3.05812 0
M  V30 4056 C 370.41 0.952679 -4.26899 0
M  V30 4057 C 369.469 1.97407 -4.87767 0
M  V30 4058 O 368.495 1.54326 -5.4788 0
M  V30 4059 N 369.697 3.30436 -4.77276 0
M  V30 4060 H 372.462 -0.348168 -2.97671 0
M  V30 4061 H 370.023 -0.33185 -1.58463 0
M  V30 4062 H 372.015 2.14135 -3.43407 0
M  V30 4063 H 370.585 2.02948 -2.37762 0
M  V30 4064 H 369.805 0.0968248 -3.94081 0
M  V30 4065 H 371.093 0.59174 -5.05347 0
M  V30 4066 H 370.491 3.68126 -4.29534 0
M  V30 4067 H 369.048 3.94235 -5.19059 0
M  V30 4068 N 372.481 1.55866 -0.233164 0
M  V30 4069 C 373.709 2.02998 0.399905 0
M  V30 4070 C 374.124 1.11274 1.52524 0
M  V30 4071 O 373.481 0.124528 1.82075 0
M  V30 4072 C 373.532 3.4958 0.920639 0
M  V30 4073 O 373.253 4.37808 -0.159834 0
M  V30 4074 C 374.754 4.12411 1.62578 0
M  V30 4075 H 371.974 0.664006 0.0966281 0
M  V30 4076 H 374.518 2.0143 -0.353013 0
M  V30 4077 H 372.673 3.51727 1.62379 0
M  V30 4078 H 373.087 5.23981 0.23337 0
M  V30 4079 H 374.561 5.16711 1.94201 0
M  V30 4080 H 375.038 3.5809 2.54299 0
M  V30 4081 H 375.644 4.14148 0.967553 0
M  V30 4082 N 373.959 -0.0401083 1.57549 0
M  V30 4083 C 374.922 -1.02871 2.04817 0
M  V30 4084 C 375.922 -1.29708 0.950388 0
M  V30 4085 O 377.112 -1.24897 1.21435 0
M  V30 4086 C 374.244 -2.36443 2.45576 0
M  V30 4087 H 375.437 -0.620631 2.93408 0
M  V30 4088 H 372.99 -0.286667 1.53649 0
M  V30 4089 H 373.725 -2.82021 1.60108 0
M  V30 4090 H 373.51 -2.18296 3.25713 0
M  V30 4091 H 375 -3.07441 2.82612 0
M  V30 4092 N 375.437 -1.54477 -0.31217 0
M  V30 4093 C 376.853 -1.45442 -0.657185 0
M  V30 4094 C 377.053 -0.63653 -1.91182 0
M  V30 4095 O 376.109 -0.139815 -2.52113 0
M  V30 4096 C 377.422 -2.89287 -0.82058 0
M  V30 4097 C 378.97 -2.9926 -0.917188 0
M  V30 4098 C 379.445 -4.44279 -1.11267 0
M  V30 4099 N 380.936 -4.4794 -1.17914 0
M  V30 4100 C 381.671 -5.57318 -1.34848 0
M  V30 4101 N 381.167 -6.76642 -1.48752 0
M  V30 4102 N 382.96 -5.44986 -1.37647 0
M  V30 4103 H 375.111 -2.06129 0.512313 0
M  V30 4104 H 377.374 -0.933088 0.167485 0
M  V30 4105 H 377.08 -3.51687 0.0302604 0
M  V30 4106 H 376.954 -3.36061 -1.71298 0
M  V30 4107 H 379.341 -2.36981 -1.75852 0
M  V30 4108 H 379.422 -2.558 -0.00101257 0
M  V30 4109 H 379.066 -5.07149 -0.27614 0
M  V30 4110 H 378.996 -4.85359 -2.04289 0
M  V30 4111 H 381.487 -3.61969 -1.08567 0
M  V30 4112 H 381.8 -7.55758 -1.61397 0
M  V30 4113 H 380.145 -6.79529 -1.45828 0
M  V30 4114 H 383.336 -4.50715 -1.26388 0
M  V30 4115 H 383.509 -6.3028 -1.50501 0
M  V30 4116 N 376.915 0.57481 -1.46744 0
M  V30 4117 C 378.331 0.898981 -1.31873 0
M  V30 4118 C 378.531 1.99313 -0.29605 0
M  V30 4119 O 377.587 2.50728 0.298621 0
M  V30 4120 C 378.9 1.30886 -2.7072 0
M  V30 4121 C 380.448 1.42127 -2.78871 0
M  V30 4122 C 380.923 1.86478 -4.18318 0
M  V30 4123 N 382.414 1.93658 -4.20774 0
M  V30 4124 C 383.149 2.29267 -5.2557 0
M  V30 4125 N 382.645 2.63612 -6.40688 0
M  V30 4126 N 384.438 2.29889 -5.1294 0
M  V30 4127 H 376.589 -0.147839 -2.11885 0
M  V30 4128 H 378.852 -0.00347013 -0.947994 0
M  V30 4129 H 378.558 0.578853 -3.46904 0
M  V30 4130 H 378.432 2.26874 -3.01343 0
M  V30 4131 H 380.819 2.14213 -2.0297 0
M  V30 4132 H 380.9 0.443705 -2.51922 0
M  V30 4133 H 380.544 1.14968 -4.94717 0
M  V30 4134 H 380.474 2.85207 -4.42679 0
M  V30 4135 H 382.965 1.69574 -3.37718 0
M  V30 4136 H 383.278 2.89759 -7.16421 0
M  V30 4137 H 381.623 2.61232 -6.44036 0
M  V30 4138 H 384.814 2.02485 -4.22039 0
M  V30 4139 H 384.987 2.57312 -5.94722 0
M  V30 4140 N 378.394 1.34581 0.820102 0
M  V30 4141 C 379.324 1.29038 1.94606 0
M  V30 4142 C 380.305 0.1673 1.69275 0
M  V30 4143 O 381.49 0.360112 1.90832 0
M  V30 4144 C 378.62 1.04793 3.31113 0
M  V30 4145 C 377.574 2.13597 3.70891 0
M  V30 4146 C 376.9 1.74537 5.05412 0
M  V30 4147 C 378.2 3.55451 3.8269 0
M  V30 4148 H 379.894 2.23248 1.99501 0
M  V30 4149 H 377.44 1.0747 0.958449 0
M  V30 4150 H 379.393 0.995592 4.0947 0
M  V30 4151 H 378.117 0.0702565 3.26524 0
M  V30 4152 H 376.776 2.17905 2.9481 0
M  V30 4153 H 376.424 0.754226 4.97313 0
M  V30 4154 H 376.124 2.47361 5.32997 0
M  V30 4155 H 377.648 1.70803 5.86224 0
M  V30 4156 H 379.062 3.5354 4.51312 0
M  V30 4157 H 377.459 4.26922 4.21732 0
M  V30 4158 H 378.529 3.92587 2.84611 0
M  V30 4159 N 379.872 -1.04064 1.18357 0
M  V30 4160 C 380.802 -2.14001 0.934113 0
M  V30 4161 C 381.783 -1.69616 -0.128186 0
M  V30 4162 O 382.968 -1.94185 0.0244093 0
M  V30 4163 C 380.098 -3.44253 0.459066 0
M  V30 4164 C 379.052 -4.02261 1.46185 0
M  V30 4165 C 378.378 -5.27992 0.844322 0
M  V30 4166 C 379.678 -4.38432 2.83856 0
M  V30 4167 H 381.372 -2.35127 1.85352 0
M  V30 4168 H 378.918 -1.12998 0.892604 0
M  V30 4169 H 380.871 -4.20522 0.271907 0
M  V30 4170 H 379.595 -3.22813 -0.495912 0
M  V30 4171 H 378.254 -3.28074 1.63595 0
M  V30 4172 H 377.902 -5.02862 -0.117845 0
M  V30 4173 H 377.602 -5.67765 1.51384 0
M  V30 4174 H 379.126 -6.06938 0.667693 0
M  V30 4175 H 380.54 -5.05688 2.70098 0
M  V30 4176 H 378.937 -4.89254 3.47491 0
M  V30 4177 H 380.007 -3.4826 3.37406 0
M  V30 4178 N 381.35 -0.985608 -1.22978 0
M  V30 4179 C 382.298 -0.522631 -2.26652 0
M  V30 4180 C 383.292 0.422998 -1.64034 0
M  V30 4181 O 384.498 0.296319 -1.77544 0
M  V30 4182 H 380.873 -0.150597 -0.736766 0
M  V30 4183 H 382.844 -1.40863 -2.63059 0
M  V30 4184 C 381.593 0.154238 -3.47358 0
M  V30 4185 H 380.916 -0.564329 -3.95797 0
M  V30 4186 H 382.356 0.441744 -4.21693 0
M  V30 4187 C 380.815 1.38719 -3.07016 0
M  V30 4188 O 381.345 2.48307 -3.15764 0
M  V30 4189 N 379.551 1.25975 -2.61875 0
M  V30 4190 H 379.098 0.368068 -2.54957 0
M  V30 4191 H 379.056 2.08578 -2.3525 0
M  V30 4192 N 382.828 1.3818 -0.7579 0
M  V30 4193 C 383.758 2.33027 -0.148597 0
M  V30 4194 C 384.739 1.55085 0.69875 0
M  V30 4195 O 385.924 1.83384 0.639053 0
M  V30 4196 C 383.054 3.3928 0.742034 0
M  V30 4197 C 382.008 4.28 -0.00291946 0
M  V30 4198 C 381.334 5.25146 1.00625 0
M  V30 4199 C 382.634 5.08938 -1.17385 0
M  V30 4200 H 384.328 2.84231 -0.940909 0
M  V30 4201 H 381.874 1.36659 -0.453908 0
M  V30 4202 H 383.827 4.046 1.17799 0
M  V30 4203 H 382.551 2.86569 1.56671 0
M  V30 4204 H 381.21 3.64192 -0.419504 0
M  V30 4205 H 380.858 4.68721 1.8251 0
M  V30 4206 H 380.558 5.85361 0.512428 0
M  V30 4207 H 382.082 5.93342 1.44143 0
M  V30 4208 H 383.496 5.67474 -0.815224 0
M  V30 4209 H 381.893 5.7841 -1.59882 0
M  V30 4210 H 382.963 4.42424 -1.98468 0
M  V30 4211 N 384.306 0.507319 1.49211 0
M  V30 4212 C 385.531 -0.033725 2.07373 0
M  V30 4213 C 385.956 -1.29485 1.36437 0
M  V30 4214 O 385.314 -1.76294 0.423087 0
M  V30 4215 C 385.362 -0.263945 3.59633 0
M  V30 4216 O 384.466 -1.33737 3.90113 0
M  V30 4217 H 383.807 0.0290331 0.663365 0
M  V30 4218 H 386.337 0.708749 1.91932 0
M  V30 4219 H 386.347 -0.493536 4.05004 0
M  V30 4220 H 385.022 0.657424 4.10671 0
M  V30 4221 H 383.599 -1.09224 3.56545 0
M  V30 4222 N 385.784 -1.5574 0.241426 0
M  V30 4223 C 386.716 -2.18469 -0.693091 0
M  V30 4224 C 387.729 -1.15942 -1.14286 0
M  V30 4225 O 388.918 -1.42832 -1.07058 0
M  V30 4226 C 386.018 -2.7696 -1.95311 0
M  V30 4227 C 385.191 -4.04853 -1.65568 0
M  V30 4228 C 384.25 -4.47715 -2.76474 0
M  V30 4229 O 383.276 -5.14205 -2.44094 0
M  V30 4230 N 384.478 -4.15044 -4.05855 0
M  V30 4231 H 387.243 -2.99292 -0.156388 0
M  V30 4232 H 384.804 -1.61784 0.0611752 0
M  V30 4233 H 386.796 -3.02594 -2.68736 0
M  V30 4234 H 385.366 -2.00326 -2.39975 0
M  V30 4235 H 384.586 -3.86865 -0.756886 0
M  V30 4236 H 385.874 -4.88246 -1.43153 0
M  V30 4237 H 385.272 -3.61654 -4.34998 0
M  V30 4238 H 383.829 -4.45526 -4.75762 0
M  V30 4239 N 387.262 0.0317525 -1.57568 0
M  V30 4240 C 388.673 0.578692 -1.77505 0
M  V30 4241 C 389.024 1.75749 -0.872164 0
M  V30 4242 O 388.149 2.16298 -0.0663106 0
M  V30 4243 C 388.744 1.05658 -3.21904 0
M  V30 4244 C 387.303 1.54906 -3.43047 0
M  V30 4245 C 386.45 0.485939 -2.73009 0
M  V30 4246 H 389.401 -0.194475 -1.57504 0
M  V30 4247 H 389.422 1.92404 -3.28269 0
M  V30 4248 H 388.934 0.198422 -3.87592 0
M  V30 4249 H 387.035 2.42915 -2.82529 0
M  V30 4250 H 387.148 1.59841 -4.5165 0
M  V30 4251 H 385.512 0.940354 -2.36705 0
M  V30 4252 H 386.295 -0.362709 -3.41379 0
M  V30 4253 N 388.74 1.54641 0.303973 0
M  V30 4254 C 389.65 1.88439 1.39743 0
M  V30 4255 C 390.666 0.778239 1.55626 0
M  V30 4256 O 391.842 1.07442 1.70347 0
M  V30 4257 C 388.907 2.12212 2.74166 0
M  V30 4258 C 387.968 3.35936 2.67293 0
M  V30 4259 C 387.201 3.58566 3.95305 0
M  V30 4260 O 387.424 2.84263 4.9452 0
M  V30 4261 O 386.358 4.52078 3.97378 0
M  V30 4262 H 390.184 2.81458 1.14083 0
M  V30 4263 H 387.769 1.40793 0.499768 0
M  V30 4264 H 389.651 2.29067 3.53704 0
M  V30 4265 H 388.326 1.22379 2.99675 0
M  V30 4266 H 387.233 3.24448 1.86237 0
M  V30 4267 H 388.566 4.2589 2.46736 0
M  V30 4268 N 390.218 -0.567019 1.47046 0
M  V30 4269 C 391.629 -1.14916 1.47143 0
M  V30 4270 C 391.98 -1.94954 0.220767 0
M  V30 4271 O 391.105 -2.05602 -0.67505 0
M  V30 4272 C 391.7 -2.09069 2.666 0
M  V30 4273 C 390.259 -2.62575 2.69687 0
M  V30 4274 C 389.406 -1.38755 2.40088 0
M  V30 4275 H 392.357 -0.354126 1.54699 0
M  V30 4276 H 392.378 -2.92789 2.43011 0
M  V30 4277 H 391.89 -1.50789 3.57609 0
M  V30 4278 H 389.991 -3.24681 1.82792 0
M  V30 4279 H 390.104 -3.04239 3.70102 0
M  V30 4280 H 388.468 -1.69098 1.90468 0
M  V30 4281 H 389.251 -0.822822 3.33293 0
M  V30 4282 N 391.696 -1.35014 -0.812953 0
M  V30 4283 C 392.924 -1.31031 -1.6012 0
M  V30 4284 C 393.339 0.113558 -1.88458 0
M  V30 4285 O 392.696 1.06363 -1.48301 0
M  V30 4286 C 392.747 -2.10872 -2.93624 0
M  V30 4287 O 392.468 -3.47706 -2.66518 0
M  V30 4288 C 393.969 -2.14401 -3.88004 0
M  V30 4289 H 391.189 -0.45037 -0.497401 0
M  V30 4290 H 393.733 -1.77775 -1.01076 0
M  V30 4291 H 391.888 -1.67744 -3.492 0
M  V30 4292 H 392.302 -3.89097 -3.51715 0
M  V30 4293 H 393.776 -2.74669 -4.78812 0
M  V30 4294 H 394.253 -1.14105 -4.24119 0
M  V30 4295 H 394.859 -2.57662 -3.38364 0
M  V30 4296 N 393.175 1.03435 -1.18907 0
M  V30 4297 C 394.105 2.13503 -0.945448 0
M  V30 4298 C 395.086 1.69682 0.119189 0
M  V30 4299 O 396.271 1.94169 -0.034707 0
M  V30 4300 C 393.401 3.44004 -0.477316 0
M  V30 4301 C 392.355 4.0148 -1.48316 0
M  V30 4302 C 391.681 5.27537 -0.872311 0
M  V30 4303 C 392.981 4.36921 -2.86177 0
M  V30 4304 H 394.675 2.34141 -1.86597 0
M  V30 4305 H 392.221 1.12523 -0.898584 0
M  V30 4306 H 394.174 4.20372 -0.294204 0
M  V30 4307 H 392.898 3.23072 0.478786 0
M  V30 4308 H 391.557 3.27201 -1.65332 0
M  V30 4309 H 391.205 5.02917 0.0911752 0
M  V30 4310 H 390.905 5.66954 -1.54393 0
M  V30 4311 H 392.429 6.06576 -0.699871 0
M  V30 4312 H 393.843 5.04248 -2.72776 0
M  V30 4313 H 392.24 4.87405 -3.50081 0
M  V30 4314 H 393.31 3.46466 -3.39248 0
M  V30 4315 N 394.653 0.992116 1.22453 0
M  V30 4316 C 395.902 0.662992 1.90492 0
M  V30 4317 C 396.215 -0.808407 1.78113 0
M  V30 4318 O 397.421 -1.24908 2.41061 0
M  V30 4319 C 395.877 1.1353 3.41524 0
M  V30 4320 C 395.485 2.63187 3.62542 0
M  V30 4321 C 397.229 0.880465 4.15269 0
M  V30 4322 C 395.136 3.04024 5.0727 0
M  V30 4323 H 394.066 0.244278 0.713333 0
M  V30 4324 H 396.717 1.20157 1.38688 0
M  V30 4325 H 395.099 0.52485 3.92506 0
M  V30 4326 H 396.273 3.2957 3.22056 0
M  V30 4327 H 394.588 2.86543 3.02129 0
M  V30 4328 H 397.185 1.16128 5.21937 0
M  V30 4329 H 397.528 -0.183408 4.15896 0
M  V30 4330 H 398.061 1.45307 3.70312 0
M  V30 4331 H 394.8 4.09584 5.11782 0
M  V30 4332 H 394.32 2.42343 5.48662 0
M  V30 4333 H 395.999 2.95282 5.75689 0
M  V30 4334 N 396.131 -1.37776 0.765217 0
M  V30 4335 C 397.379 -1.99454 0.325943 0
M  V30 4336 C 397.7 -1.61049 -1.09947 0
M  V30 4337 O 396.97 -0.872821 -1.75381 0
M  V30 4338 H 395.55 -0.737697 0.117525 0
M  V30 4339 H 398.212 -1.68359 0.981895 0
M  V30 4340 H 397.308 -3.09547 0.398353 0
M  V30 4341 N 397.609 -0.515225 -1.4894 0
M  V30 4342 C 398.556 0.255567 -2.29381 0
M  V30 4343 C 399.526 0.947387 -1.36432 0
M  V30 4344 O 400.711 0.951288 -1.65394 0
M  V30 4345 C 397.851 1.30551 -3.19453 0
M  V30 4346 C 396.964 0.624029 -4.27469 0
M  V30 4347 C 396.099 1.65563 -5.0474 0
M  V30 4348 C 395.138 0.956802 -6.04576 0
M  V30 4349 N 394.275 1.93326 -6.74959 0
M  V30 4350 H 399.115 -0.436607 -2.94784 0
M  V30 4351 H 396.652 -0.227154 -1.45336 0
M  V30 4352 H 398.61 1.92639 -3.70062 0
M  V30 4353 H 397.24 1.96626 -2.56004 0
M  V30 4354 H 396.292 -0.110459 -3.8024 0
M  V30 4355 H 397.604 0.0746092 -4.98744 0
M  V30 4356 H 396.758 2.35119 -5.59289 0
M  V30 4357 H 395.497 2.23893 -4.3327 0
M  V30 4358 H 394.502 0.247097 -5.49244 0
M  V30 4359 H 395.727 0.379814 -6.78037 0
M  V30 4360 H 393.673 2.50591 -6.06251 0
M  V30 4361 H 393.59 1.43489 -7.42258 0
M  V30 4362 H 394.858 2.62126 -7.34105 0
M  V30 4363 N 399.087 1.5561 -0.249682 0
M  V30 4364 C 400.503 1.59254 0.105103 0
M  V30 4365 C 400.703 1.26685 1.56694 0
M  V30 4366 O 399.759 1.0155 2.31179 0
M  V30 4367 C 401.072 2.99687 -0.246592 0
M  V30 4368 C 402.62 3.12416 -0.191118 0
M  V30 4369 C 403.095 4.55074 -0.516885 0
M  V30 4370 N 404.586 4.60835 -0.467489 0
M  V30 4371 C 405.321 5.69201 -0.69268 0
M  V30 4372 N 404.817 6.85817 -0.981146 0
M  V30 4373 N 406.61 5.58635 -0.623198 0
M  V30 4374 H 398.761 1.75049 -1.20298 0
M  V30 4375 H 401.024 0.815003 -0.484225 0
M  V30 4376 H 400.73 3.28267 -1.26228 0
M  V30 4377 H 400.604 3.74798 0.424962 0
M  V30 4378 H 402.991 2.83615 0.815247 0
M  V30 4379 H 403.072 2.39573 -0.896563 0
M  V30 4380 H 402.716 4.84596 -1.52082 0
M  V30 4381 H 402.646 5.26181 0.210068 0
M  V30 4382 H 405.137 3.7705 -0.253373 0
M  V30 4383 H 405.45 7.64341 -1.14032 0
M  V30 4384 H 403.795 6.87494 -1.01865 0
M  V30 4385 H 406.986 4.66406 -0.397863 0
M  V30 4386 H 407.159 6.43017 -0.802093 0
M  V30 4387 N 400.565 -0.0233959 1.57583 0
M  V30 4388 C 401.814 -0.712133 1.8871 0
M  V30 4389 C 402.127 -1.76217 0.848944 0
M  V30 4390 O 403.333 -2.50389 1.04964 0
M  V30 4391 C 401.789 -1.3177 3.3491 0
M  V30 4392 C 401.397 -0.303715 4.46969 0
M  V30 4393 C 403.141 -1.98598 3.75179 0
M  V30 4394 C 401.048 -0.917945 5.84233 0
M  V30 4395 H 399.978 -0.269735 0.704101 0
M  V30 4396 H 402.629 0.0333114 1.8347 0
M  V30 4397 H 401.011 -2.11304 3.34913 0
M  V30 4398 H 402.185 0.465325 4.58445 0
M  V30 4399 H 400.5 0.2628 4.1557 0
M  V30 4400 H 403.097 -2.45416 4.75053 0
M  V30 4401 H 403.44 -2.80659 3.07468 0
M  V30 4402 H 403.973 -1.25831 3.77374 0
M  V30 4403 H 400.712 -0.136633 6.55358 0
M  V30 4404 H 400.232 -1.65669 5.76467 0
M  V30 4405 H 401.911 -1.4236 6.31144 0
M  V30 4406 N 402.043 -1.548 -0.295768 0
M  V30 4407 C 403.268 -1.78653 -1.05346 0
M  V30 4408 C 403.693 -0.546894 -1.79974 0
M  V30 4409 O 403.051 0.502763 -1.7419 0
M  V30 4410 C 403.099 -2.99679 -2.00561 0
M  V30 4411 O 402.203 -2.7317 -3.08953 0
M  V30 4412 H 401.544 -0.59116 -0.302367 0
M  V30 4413 H 404.074 -2.01895 -0.331598 0
M  V30 4414 H 404.084 -3.27793 -2.42932 0
M  V30 4415 H 402.759 -3.89562 -1.4565 0
M  V30 4416 H 401.336 -2.56089 -2.71059 0
M  V30 4417 N 403.521 0.559213 -1.47345 0
M  V30 4418 C 404.746 1.34676 -1.57725 0
M  V30 4419 C 405.171 1.86723 -0.227164 0
M  V30 4420 O 404.529 1.6286 0.796642 0
M  V30 4421 C 404.577 2.49399 -2.60447 0
M  V30 4422 O 403.681 3.51567 -2.15578 0
M  V30 4423 H 403.022 0.400115 -0.52991 0
M  V30 4424 H 405.552 0.676009 -1.93109 0
M  V30 4425 H 405.562 2.95996 -2.80803 0
M  V30 4426 H 404.237 2.10873 -3.58477 0
M  V30 4427 H 402.814 3.11289 -2.05313 0
M  V30 4428 N 404.999 1.35443 0.805782 0
M  V30 4429 C 406.245 1.28952 1.56522 0
M  V30 4430 C 406.578 -0.135597 1.93726 0
M  V30 4431 O 405.853 -1.08516 1.61414 0
M  V30 4432 C 406.136 2.19678 2.85331 0
M  V30 4433 C 405.989 3.7081 2.54598 0
M  V30 4434 C 407.308 2.09495 3.8704 0
M  V30 4435 H 404.427 0.469764 0.567883 0
M  V30 4436 H 407.069 1.65851 0.927001 0
M  V30 4437 H 405.219 1.8834 3.39795 0
M  V30 4438 H 406.891 4.12593 2.06312 0
M  V30 4439 H 405.134 3.91051 1.8778 0
M  V30 4440 H 405.805 4.29679 3.46525 0
M  V30 4441 H 408.281 2.37045 3.41978 0
M  V30 4442 H 407.157 2.75173 4.74943 0
M  V30 4443 H 407.418 1.07714 4.28777 0
M  V30 4444 N 406.477 -1.02803 1.19454 0
M  V30 4445 C 407.726 -1.7562 0.991996 0
M  V30 4446 C 408.039 -1.89672 -0.477901 0
M  V30 4447 O 409.245 -2.59468 -0.799287 0
M  V30 4448 C 407.701 -3.15812 1.72601 0
M  V30 4449 C 407.309 -3.0981 3.23607 0
M  V30 4450 C 409.053 -3.92918 1.60674 0
M  V30 4451 C 406.96 -4.44939 3.89594 0
M  V30 4452 H 405.89 -0.658352 0.367543 0
M  V30 4453 H 408.541 -1.15044 1.42959 0
M  V30 4454 H 406.923 -3.7686 1.21624 0
M  V30 4455 H 408.097 -2.58138 3.81709 0
M  V30 4456 H 406.412 -2.46201 3.35819 0
M  V30 4457 H 409.009 -4.9287 2.07323 0
M  V30 4458 H 409.352 -4.12502 0.561025 0
M  V30 4459 H 409.885 -3.38472 2.09001 0
M  V30 4460 H 406.624 -4.30559 4.94267 0
M  V30 4461 H 406.144 -4.96664 3.36281 0
M  V30 4462 H 407.823 -5.1382 3.93189 0
M  V30 4463 N 407.956 -0.998596 -1.21925 0
M  V30 4464 C 409.181 -0.696015 -1.95372 0
M  V30 4465 C 409.606 0.733826 -1.73195 0
M  V30 4466 O 408.964 1.50242 -1.01474 0
M  V30 4467 C 409.012 -1.01466 -3.4603 0
M  V30 4468 O 408.116 -0.116415 -4.12236 0
M  V30 4469 H 407.457 -0.259938 -0.611006 0
M  V30 4470 H 409.987 -1.33711 -1.54863 0
M  V30 4471 H 409.997 -0.958855 -3.96573 0
M  V30 4472 H 408.672 -2.05653 -3.61497 0
M  V30 4473 H 407.249 -0.228193 -3.72201 0
M  V30 4474 N 409.434 1.37368 -0.772513 0
M  V30 4475 C 410.366 2.28899 -0.117502 0
M  V30 4476 C 411.379 1.4867 0.663405 0
M  V30 4477 O 412.568 1.71314 0.501372 0
M  V30 4478 C 409.668 3.2788 0.857192 0
M  V30 4479 C 408.841 4.37207 0.129938 0
M  V30 4480 C 407.9 5.16257 1.01811 0
M  V30 4481 O 406.926 5.67159 0.481601 0
M  V30 4482 N 408.128 5.31058 2.3443 0
M  V30 4483 H 410.893 2.85752 -0.903662 0
M  V30 4484 H 408.454 1.49353 -0.62493 0
M  V30 4485 H 410.446 3.77647 1.45482 0
M  V30 4486 H 409.016 2.7179 1.54432 0
M  V30 4487 H 408.236 3.88827 -0.648605 0
M  V30 4488 H 409.524 5.07434 -0.372559 0
M  V30 4489 H 408.922 4.91287 2.80452 0
M  V30 4490 H 407.479 5.84131 2.89197 0
M  V30 4491 N 410.912 0.523116 1.48665 0
M  V30 4492 C 411.822 -0.247406 2.33292 0
M  V30 4493 C 412.838 -0.945769 1.46052 0
M  V30 4494 O 414.014 -0.922253 1.79043 0
M  V30 4495 C 411.079 -1.28487 3.22012 0
M  V30 4496 C 410.14 -0.597592 4.2512 0
M  V30 4497 C 409.373 -1.58563 5.09601 0
M  V30 4498 O 409.596 -2.81763 4.95949 0
M  V30 4499 O 408.53 -1.12879 5.91221 0
M  V30 4500 H 412.356 0.445869 3.00409 0
M  V30 4501 H 409.941 0.284128 1.46673 0
M  V30 4502 H 411.823 -1.88459 3.7691 0
M  V30 4503 H 410.498 -1.96068 2.57564 0
M  V30 4504 H 409.405 0.0424407 3.74076 0
M  V30 4505 H 410.738 0.0361517 4.92187 0
M  V30 4506 N 412.39 -1.55475 0.257931 0
M  V30 4507 C 413.636 -1.99502 -0.364266 0
M  V30 4508 C 413.969 -1.146 -1.56782 0
M  V30 4509 O 413.244 -0.211968 -1.93342 0
M  V30 4510 C 413.527 -3.51917 -0.763333 0
M  V30 4511 C 413.38 -4.4758 0.446371 0
M  V30 4512 C 414.699 -4.09742 -1.60623 0
M  V30 4513 H 411.818 -0.725277 -0.130929 0
M  V30 4514 H 414.46 -1.8653 0.361446 0
M  V30 4515 H 412.61 -3.63101 -1.38166 0
M  V30 4516 H 414.282 -4.48362 1.08487 0
M  V30 4517 H 412.525 -4.19947 1.08753 0
M  V30 4518 H 413.196 -5.51862 0.123645 0
M  V30 4519 H 415.672 -4.01727 -1.08418 0
M  V30 4520 H 414.548 -5.16631 -1.85429 0
M  V30 4521 H 414.809 -3.58889 -2.58169 0
M  V30 4522 N 413.868 0.0150385 -1.57593 0
M  V30 4523 C 415.115 0.703001 -1.89906 0
M  V30 4524 C 415.443 1.74604 -0.856944 0
M  V30 4525 O 414.698 1.95197 0.140287 0
M  V30 4526 C 414.997 1.39686 -3.28972 0
M  V30 4527 C 414.663 0.488457 -4.48246 0
M  V30 4528 C 413.325 0.2383 -4.8061 0
M  V30 4529 C 415.677 -0.137881 -5.21018 0
M  V30 4530 C 413.005 -0.646738 -5.83125 0
M  V30 4531 C 415.357 -1.0107 -6.24474 0
M  V30 4532 C 414.021 -1.27019 -6.55303 0
M  V30 4533 H 413.291 0.257246 -0.694914 0
M  V30 4534 H 415.938 -0.037259 -1.91464 0
M  V30 4535 H 414.243 2.21079 -3.23468 0
M  V30 4536 H 415.94 1.93495 -3.51227 0
M  V30 4537 H 412.53 0.693593 -4.22951 0
M  V30 4538 H 416.714 0.0423953 -4.96282 0
M  V30 4539 H 411.97 -0.855937 -6.05379 0
M  V30 4540 H 416.144 -1.50247 -6.79999 0
M  V30 4541 H 413.771 -1.95769 -7.3456 0
M  V30 4542 N 415.346 1.54954 0.287554 0
M  V30 4543 C 416.593 1.74873 1.02106 0
M  V30 4544 C 416.921 0.541829 1.86801 0
M  V30 4545 O 416.176 -0.475992 1.89823 0
M  V30 4546 C 416.475 2.99833 1.94512 0
M  V30 4547 C 416.141 4.33029 1.25686 0
M  V30 4548 C 414.803 4.69233 1.06649 0
M  V30 4549 C 417.155 5.15542 0.765913 0
M  V30 4550 C 414.483 5.85518 0.372222 0
M  V30 4551 C 416.835 6.32542 0.0853101 0
M  V30 4552 C 415.499 6.67398 -0.1169 0
M  V30 4553 H 414.769 0.639906 0.373632 0
M  V30 4554 H 417.416 1.89219 0.294665 0
M  V30 4555 H 415.721 2.80325 2.73725 0
M  V30 4556 H 417.418 3.1244 2.51361 0
M  V30 4557 H 414.008 4.04564 1.41512 0
M  V30 4558 H 418.192 4.88059 0.90066 0
M  V30 4559 H 413.448 6.11057 0.204695 0
M  V30 4560 H 417.622 6.95741 -0.302936 0
M  V30 4561 H 415.249 7.57357 -0.656859 0
M  V30 4562 N 416.824 -0.551391 1.4764 0
M  V30 4563 C 418.054 -1.33163 1.57959 0
M  V30 4564 C 418.462 -1.87785 0.23094 0
M  V30 4565 O 417.805 -1.65996 -0.786825 0
M  V30 4566 C 417.867 -2.53449 2.54958 0
M  V30 4567 C 417.531 -2.20071 4.00522 0
M  V30 4568 C 418.528 -1.77017 4.88836 0
M  V30 4569 C 416.213 -2.31252 4.45901 0
M  V30 4570 C 418.207 -1.4558 6.20552 0
M  V30 4571 C 415.894 -1.99427 5.77644 0
M  V30 4572 C 416.892 -1.56659 6.64791 0
M  V30 4573 O 416.58 -1.25242 7.94084 0
M  V30 4574 H 416.312 -0.412022 0.535923 0
M  V30 4575 H 418.866 -0.674186 1.9402 0
M  V30 4576 H 417.096 -3.22104 2.13976 0
M  V30 4577 H 418.785 -3.15523 2.55343 0
M  V30 4578 H 419.551 -1.67867 4.55023 0
M  V30 4579 H 415.43 -2.63498 3.78272 0
M  V30 4580 H 418.974 -1.12125 6.8853 0
M  V30 4581 H 414.871 -2.08211 6.10998 0
M  V30 4582 H 415.639 -1.38822 8.06642 0
M  V30 4583 N 418.302 -1.35869 -0.798587 0
M  V30 4584 C 419.579 -1.20145 -1.54352 0
M  V30 4585 C 419.959 0.216161 -2.0999 0
M  V30 4586 O 419.307 1.22068 -1.93162 0
M  V30 4587 C 419.517 -2.27602 -2.64572 0
M  V30 4588 C 420.865 -2.63811 -3.32699 0
M  V30 4589 O 421.889 -2.26576 -2.74849 0
M  V30 4590 O 420.748 -3.27866 -4.37226 0
M  V30 4591 H 417.842 -0.467248 -0.682355 0
M  V30 4592 H 420.388 -1.47574 -0.837859 0
M  V30 4593 H 419.16 -3.2265 -2.21388 0
M  V30 4594 H 418.783 -2.01488 -3.42766 0
M  V30 4595 N 419.78 1.02168 -1.19998 0
M  V30 4596 C 420.743 2.08765 -0.94604 0
M  V30 4597 C 421.743 1.60618 0.0763846 0
M  V30 4598 O 422.933 1.73472 -0.159135 0
M  V30 4599 C 420.065 3.38262 -0.423255 0
M  V30 4600 H 421.258 2.32726 -1.89153 0
M  V30 4601 H 418.811 1.1889 -1.01464 0
M  V30 4602 H 419.546 3.19974 0.527938 0
M  V30 4603 H 419.331 3.74532 -1.16053 0
M  V30 4604 H 420.821 4.16759 -0.264911 0
M  V30 4605 N 421.258 1.00505 1.21394 0
M  V30 4606 C 422.669 0.721082 1.72213 0
M  V30 4607 C 423.02 -0.761263 1.80829 0
M  V30 4608 O 422.145 -1.59464 1.46288 0
M  V30 4609 C 422.74 1.30228 3.12772 0
M  V30 4610 C 421.299 1.06743 3.60947 0
M  V30 4611 C 420.446 1.41507 2.38477 0
M  V30 4612 H 423.397 1.17594 1.06571 0
M  V30 4613 H 423.418 0.686955 3.74247 0
M  V30 4614 H 422.93 2.38115 3.06468 0
M  V30 4615 H 421.031 0.00572162 3.726 0
M  V30 4616 H 421.144 1.73936 4.46411 0
M  V30 4617 H 419.508 0.833852 2.40664 0
M  V30 4618 H 420.291 2.50424 2.34824 0
M  V30 4619 N 422.737 -1.36956 0.779787 0
M  V30 4620 C 423.669 -2.28833 0.129639 0
M  V30 4621 C 424.682 -1.4902 -0.655511 0
M  V30 4622 O 425.871 -1.71578 -0.492279 0
M  V30 4623 C 422.971 -3.2833 -0.839792 0
M  V30 4624 C 422.144 -4.3727 -0.10675 0
M  V30 4625 C 421.203 -5.16789 -0.990717 0
M  V30 4626 O 420.229 -5.67406 -0.451516 0
M  V30 4627 N 421.431 -5.32294 -2.3161 0
M  V30 4628 H 424.196 -2.85268 0.918803 0
M  V30 4629 H 421.757 -1.49019 0.632841 0
M  V30 4630 H 423.749 -3.78413 -1.43477 0
M  V30 4631 H 422.319 -2.72605 -1.52988 0
M  V30 4632 H 421.539 -3.88478 0.669216 0
M  V30 4633 H 422.827 -5.07229 0.399464 0
M  V30 4634 H 422.225 -4.92768 -2.77843 0
M  V30 4635 H 420.782 -5.85656 -2.86095 0
M  V30 4636 N 424.215 -0.530993 -1.48385 0
M  V30 4637 C 425.443 -0.00134122 -2.069 0
M  V30 4638 C 425.858 1.2805 -1.3874 0
M  V30 4639 O 425.215 1.76204 -0.475244 0
M  V30 4640 C 425.266 0.225256 -3.60798 0
M  V30 4641 O 424.987 -1.0058 -4.26398 0
M  V30 4642 C 426.488 0.795172 -4.3611 0
M  V30 4643 H 423.708 -0.0339704 -0.67014 0
M  V30 4644 H 426.252 -0.736926 -1.90761 0
M  V30 4645 H 424.407 0.910891 -3.76539 0
M  V30 4646 H 424.821 -0.787165 -5.1856 0
M  V30 4647 H 426.295 0.903143 -5.44562 0
M  V30 4648 H 426.772 1.80031 -4.00606 0
M  V30 4649 H 427.378 0.146069 -4.25049 0
M  V30 4650 N 425.693 1.55336 -0.266172 0
M  V30 4651 C 426.641 2.23587 0.641228 0
M  V30 4652 C 427.635 1.22986 1.16494 0
M  V30 4653 O 428.841 1.40943 1.1196 0
M  V30 4654 H 425.216 0.717452 0.225315 0
M  V30 4655 H 427.187 2.9837 0.0426561 0
M  V30 4656 C 425.936 2.96369 1.81826 0
M  V30 4657 H 425.259 3.73563 1.42445 0
M  V30 4658 H 426.699 3.47459 2.42998 0
M  V30 4659 C 425.158 2.0133 2.70125 0
M  V30 4660 O 425.688 1.55875 3.70224 0
M  V30 4661 N 423.894 1.6802 2.37102 0
M  V30 4662 H 423.441 2.05181 1.55751 0
M  V30 4663 H 423.399 1.047 2.96454 0
M  V30 4664 N 427.171 -0.0066808 1.57599 0
M  V30 4665 C 428.118 -1.00024 2.08 0
M  V30 4666 C 429.088 -1.34549 0.973943 0
M  V30 4667 O 430.273 -1.44502 1.24595 0
M  V30 4668 C 427.413 -2.2891 2.58252 0
M  V30 4669 C 426.526 -2.00346 3.82734 0
M  V30 4670 C 425.661 -3.23265 4.21513 0
M  V30 4671 C 424.7 -2.90357 5.3885 0
M  V30 4672 N 423.837 -4.05793 5.72954 0
M  V30 4673 H 428.677 -0.563499 2.92624 0
M  V30 4674 H 426.214 -0.266592 1.44664 0
M  V30 4675 H 428.172 -3.04247 2.85464 0
M  V30 4676 H 426.802 -2.70265 1.76512 0
M  V30 4677 H 425.854 -1.15406 3.62471 0
M  V30 4678 H 427.166 -1.72086 4.68175 0
M  V30 4679 H 426.32 -4.06953 4.49971 0
M  V30 4680 H 425.059 -3.54657 3.34768 0
M  V30 4681 H 424.064 -2.05075 5.10122 0
M  V30 4682 H 425.289 -2.60219 6.27266 0
M  V30 4683 H 423.235 -4.37094 4.89167 0
M  V30 4684 H 423.152 -3.81034 6.52954 0
M  V30 4685 H 424.42 -4.90289 6.06001 0
M  V30 4686 N 428.649 -1.55105 -0.279332 0
M  V30 4687 C 429.596 -1.8755 -1.34513 0
M  V30 4688 C 430.566 -0.726384 -1.49375 0
M  V30 4689 O 431.751 -0.977063 -1.63884 0
M  V30 4690 C 428.891 -2.14738 -2.70151 0
M  V30 4691 C 428.004 -3.42285 -2.63562 0
M  V30 4692 C 427.139 -3.59206 -3.91337 0
M  V30 4693 C 426.178 -4.80467 -3.79233 0
M  V30 4694 N 425.315 -4.94079 -4.98829 0
M  V30 4695 H 430.155 -2.78456 -1.06143 0
M  V30 4696 H 427.692 -1.37867 -0.512936 0
M  V30 4697 H 429.65 -2.28501 -3.49061 0
M  V30 4698 H 428.28 -1.27075 -2.96735 0
M  V30 4699 H 427.332 -3.37029 -1.76397 0
M  V30 4700 H 428.644 -4.31328 -2.50515 0
M  V30 4701 H 427.798 -3.72751 -4.78687 0
M  V30 4702 H 426.537 -2.68337 -4.07243 0
M  V30 4703 H 425.542 -4.66932 -2.90266 0
M  V30 4704 H 426.767 -5.72765 -3.64852 0
M  V30 4705 H 424.713 -4.06139 -5.15158 0
M  V30 4706 H 424.63 -5.77156 -4.8829 0
M  V30 4707 H 425.898 -5.12003 -5.8777 0
M  V30 4708 N 430.127 0.543554 -1.4793 0
M  V30 4709 C 431.404 1.30458 -1.4574 0
M  V30 4710 C 431.784 2.1048 -0.161692 0
M  V30 4711 O 431.132 2.11831 0.856734 0
M  V30 4712 C 431.342 2.19754 -2.71126 0
M  V30 4713 C 432.69 2.80334 -3.18901 0
M  V30 4714 O 433.714 2.30049 -2.71948 0
M  V30 4715 O 432.573 3.71766 -4.00565 0
M  V30 4716 H 429.667 0.588117 -0.581418 0
M  V30 4717 H 432.213 0.561328 -1.60147 0
M  V30 4718 H 430.985 1.60316 -3.56952 0
M  V30 4719 H 430.608 3.01351 -2.59371 0
M  V30 4720 N 431.605 1.3629 0.791371 0
M  V30 4721 C 432.515 1.32606 1.93527 0
M  V30 4722 C 433.531 0.228541 1.72493 0
M  V30 4723 O 434.707 0.460571 1.96063 0
M  V30 4724 C 431.772 1.11271 3.28359 0
M  V30 4725 C 430.833 2.3048 3.62185 0
M  V30 4726 C 430.066 2.10154 4.90583 0
M  V30 4727 O 430.289 1.07572 5.60165 0
M  V30 4728 O 429.223 2.97884 5.23019 0
M  V30 4729 H 433.049 2.28909 1.99585 0
M  V30 4730 H 430.634 1.16818 0.931344 0
M  V30 4731 H 432.516 1.01283 4.09047 0
M  V30 4732 H 431.191 0.180292 3.23198 0
M  V30 4733 H 430.098 2.46036 2.81811 0
M  V30 4734 H 431.431 3.22221 3.72068 0
M  V30 4735 N 433.083 -1.0153 1.20538 0
M  V30 4736 C 434.332 -1.74558 1.01057 0
M  V30 4737 C 434.645 -1.90168 -0.457756 0
M  V30 4738 O 435.851 -2.60301 -0.771722 0
M  V30 4739 C 434.307 -3.13963 1.75941 0
M  V30 4740 C 433.915 -3.06361 3.26875 0
M  V30 4741 C 435.659 -3.91191 1.64832 0
M  V30 4742 C 433.566 -4.40782 3.94291 0
M  V30 4743 H 432.496 -0.654417 0.374505 0
M  V30 4744 H 435.147 -1.13521 1.44171 0
M  V30 4745 H 433.529 -3.75549 1.25614 0
M  V30 4746 H 434.703 -2.54074 3.84425 0
M  V30 4747 H 433.018 -2.42625 3.38411 0
M  V30 4748 H 435.615 -4.90644 2.12539 0
M  V30 4749 H 435.958 -4.11884 0.604745 0
M  V30 4750 H 436.491 -3.36236 2.12579 0
M  V30 4751 H 433.23 -4.25292 4.98805 0
M  V30 4752 H 432.75 -4.9307 3.41529 0
M  V30 4753 H 434.429 -5.09621 3.98617 0
M  V30 4754 N 434.561 -1.01147 -1.20859 0
M  V30 4755 C 435.807 -0.698899 -1.90377 0
M  V30 4756 C 436.14 0.76904 -1.78324 0
M  V30 4757 O 435.415 1.55817 -1.16409 0
M  V30 4758 C 435.698 -1.12878 -3.41951 0
M  V30 4759 C 435.551 -2.65665 -3.62963 0
M  V30 4760 C 436.87 -0.696114 -4.3456 0
M  V30 4761 H 433.989 -0.255372 -0.691342 0
M  V30 4762 H 436.631 -1.25831 -1.42361 0
M  V30 4763 H 434.781 -0.652827 -3.82976 0
M  V30 4764 H 436.453 -3.21074 -3.31224 0
M  V30 4765 H 434.696 -3.06878 -3.06608 0
M  V30 4766 H 435.367 -2.90797 -4.69192 0
M  V30 4767 H 437.843 -1.10521 -4.01154 0
M  V30 4768 H 436.719 -1.025 -5.39245 0
M  V30 4769 H 436.98 0.402465 -4.40264 0
M  V30 4770 N 436.039 1.36541 -0.78704 0
M  V30 4771 C 437.267 2.03561 -0.370199 0
M  V30 4772 C 437.682 1.59347 1.01263 0
M  V30 4773 O 437.039 0.781781 1.64907 0
M  V30 4774 C 437.09 3.59033 -0.421614 0
M  V30 4775 O 436.811 4.01634 -1.7499 0
M  V30 4776 C 438.312 4.433 0.00489763 0
M  V30 4777 H 435.532 0.653346 -0.152904 0
M  V30 4778 H 438.076 1.74566 -1.06522 0
M  V30 4779 H 436.231 3.86746 0.224971 0
M  V30 4780 H 436.645 4.96217 -1.69909 0
M  V30 4781 H 438.119 5.51939 -0.0822184 0
M  V30 4782 H 438.596 4.26285 1.05723 0
M  V30 4783 H 439.202 4.20843 -0.614085 0
M  V30 4784 N 437.518 0.538854 1.48102 0
M  V30 4785 C 438.765 0.0080018 2.02498 0
M  V30 4786 C 439.093 -1.33437 1.41509 0
M  V30 4787 O 438.348 -1.87709 0.553507 0
M  V30 4788 C 438.647 -0.153808 3.57069 0
M  V30 4789 C 438.313 1.11533 4.36888 0
M  V30 4790 C 436.975 1.46314 4.58417 0
M  V30 4791 C 439.327 1.95718 4.83057 0
M  V30 4792 C 436.655 2.6516 5.23361 0
M  V30 4793 C 439.007 3.13751 5.49312 0
M  V30 4794 C 437.671 3.48866 5.69077 0
M  V30 4795 H 436.941 0.00292807 0.740994 0
M  V30 4796 H 439.588 0.706668 1.77984 0
M  V30 4797 H 437.893 -0.935309 3.80472 0
M  V30 4798 H 439.59 -0.579607 3.96789 0
M  V30 4799 H 436.18 0.834484 4.20398 0
M  V30 4800 H 440.364 1.70158 4.66219 0
M  V30 4801 H 435.62 2.92558 5.36861 0
M  V30 4802 H 439.794 3.79282 5.84053 0
M  V30 4803 H 437.421 4.41054 6.19173 0
M  V30 4804 N 438.996 -1.55193 0.274407 0
M  V30 4805 C 439.944 -2.23924 -0.629362 0
M  V30 4806 C 440.938 -1.23602 -1.1584 0
M  V30 4807 O 442.144 -1.41535 -1.11211 0
M  V30 4808 H 438.519 -0.718637 -0.221507 0
M  V30 4809 H 440.49 -2.98388 -0.0268322 0
M  V30 4810 C 439.239 -2.97329 -1.80252 0
M  V30 4811 H 438.562 -3.74313 -1.40462 0
M  V30 4812 H 440.002 -3.48743 -2.41152 0
M  V30 4813 C 438.461 -2.0276 -2.69054 0
M  V30 4814 O 438.991 -1.57836 -3.69392 0
M  V30 4815 N 437.197 -1.69275 -2.36208 0
M  V30 4816 H 436.744 -2.06004 -1.54661 0
M  V30 4817 H 436.702 -1.06271 -2.95895 0
M  V30 4818 N 440.474 -0.00167713 -1.576 0
M  V30 4819 C 441.406 1.0174 -2.05382 0
M  V30 4820 C 442.419 1.30595 -0.972052 0
M  V30 4821 O 443.608 1.27542 -1.24882 0
M  V30 4822 C 440.708 2.35174 -2.44022 0
M  V30 4823 C 439.881 2.25234 -3.74951 0
M  V30 4824 C 438.94 3.4137 -4.00441 0
M  V30 4825 O 437.966 3.19483 -4.71083 0
M  V30 4826 N 439.168 4.64275 -3.48467 0
M  V30 4827 H 441.933 0.609902 -2.93428 0
M  V30 4828 H 439.494 0.185672 -1.60832 0
M  V30 4829 H 441.486 3.11643 -2.58187 0
M  V30 4830 H 440.056 2.67659 -1.61485 0
M  V30 4831 H 439.276 1.33664 -3.70847 0
M  V30 4832 H 440.564 2.15767 -4.60784 0
M  V30 4833 H 439.962 4.84955 -2.91264 0
M  V30 4834 H 438.519 5.38005 -3.67959 0
M  V30 4835 N 441.952 1.55251 0.271103 0
M  V30 4836 C 443.201 1.75151 1.00025 0
M  V30 4837 C 443.514 0.561041 1.87381 0
M  V30 4838 O 444.72 0.642506 2.63788 0
M  V30 4839 C 443.176 3.09999 1.82835 0
M  V30 4840 C 442.784 4.3662 1.00336 0
M  V30 4841 C 444.528 3.39249 2.55168 0
M  V30 4842 C 442.435 5.62506 1.82595 0
M  V30 4843 H 441.365 0.652877 0.377183 0
M  V30 4844 H 444.016 1.81708 0.255843 0
M  V30 4845 H 442.398 2.97485 2.61378 0
M  V30 4846 H 443.572 4.60055 0.261959 0
M  V30 4847 H 441.887 4.14527 0.394486 0
M  V30 4848 H 444.484 4.3051 3.1712 0
M  V30 4849 H 444.827 2.59467 3.2555 0
M  V30 4850 H 445.36 3.52869 1.83653 0
M  V30 4851 H 442.099 6.45041 1.16631 0
M  V30 4852 H 441.619 5.43211 2.54327 0
M  V30 4853 H 443.298 6.00875 2.39913 0
M  V30 4854 N 443.43 -0.535701 1.48216 0
M  V30 4855 C 444.377 -1.64083 1.62312 0
M  V30 4856 C 445.347 -1.59448 0.465365 0
M  V30 4857 O 446.532 -1.77959 0.688135 0
M  V30 4858 C 443.672 -3.0236 1.66349 0
M  V30 4859 C 442.785 -3.17273 2.93193 0
M  V30 4860 C 441.92 -4.46075 2.88427 0
M  V30 4861 C 440.959 -4.54496 4.1 0
M  V30 4862 N 440.096 -5.7468 4.03345 0
M  V30 4863 H 444.936 -1.51374 2.5669 0
M  V30 4864 H 442.473 -0.737059 1.27302 0
M  V30 4865 H 444.431 -3.82461 1.66672 0
M  V30 4866 H 443.061 -3.13854 0.754672 0
M  V30 4867 H 442.113 -2.30462 3.02641 0
M  V30 4868 H 443.425 -3.19357 3.83162 0
M  V30 4869 H 442.579 -5.3446 2.87119 0
M  V30 4870 H 441.318 -4.46504 1.96177 0
M  V30 4871 H 440.323 -3.64519 4.11589 0
M  V30 4872 H 441.548 -4.5581 5.03402 0
M  V30 4873 H 439.494 -5.76017 3.13912 0
M  V30 4874 H 439.411 -5.78234 4.87013 0
M  V30 4875 H 440.679 -6.65367 4.06087 0
M  V30 4876 N 444.908 -1.36708 -0.784132 0
M  V30 4877 C 446.154 -1.31426 -1.54451 0
M  V30 4878 C 446.487 0.10476 -1.93917 0
M  V30 4879 O 445.762 1.05934 -1.6312 0
M  V30 4880 C 446.045 -2.24189 -2.818 0
M  V30 4881 C 445.898 -3.74813 -2.48667 0
M  V30 4882 C 447.217 -2.15626 -3.83658 0
M  V30 4883 H 444.336 -0.478739 -0.560337 0
M  V30 4884 H 446.978 -1.67305 -0.900498 0
M  V30 4885 H 445.128 -1.93722 -3.36755 0
M  V30 4886 H 446.8 -4.15823 -1.99722 0
M  V30 4887 H 445.043 -3.93989 -1.81535 0
M  V30 4888 H 445.714 -4.35138 -3.39646 0
M  V30 4889 H 448.19 -2.42456 -3.38163 0
M  V30 4890 H 447.066 -2.82694 -4.70506 0
M  V30 4891 H 447.327 -1.14522 -4.27009 0
M  V30 4892 N 446.386 1.0089 -1.21074 0
M  V30 4893 C 447.635 1.74019 -1.01981 0
M  V30 4894 C 447.948 1.90408 0.447665 0
M  V30 4895 O 449.154 2.60707 0.757906 0
M  V30 4896 C 447.61 3.13026 -1.77603 0
M  V30 4897 C 447.218 3.04623 -3.28495 0
M  V30 4898 C 448.962 3.90312 -1.66904 0
M  V30 4899 C 446.869 4.38685 -3.96623 0
M  V30 4900 H 445.799 0.652422 -0.377971 0
M  V30 4901 H 448.45 1.12755 -1.44771 0
M  V30 4902 H 446.832 3.74878 -1.27604 0
M  V30 4903 H 448.006 2.52032 -3.85767 0
M  V30 4904 H 446.321 2.40827 -3.39693 0
M  V30 4905 H 448.918 4.8951 -2.15138 0
M  V30 4906 H 449.261 4.11558 -0.62658 0
M  V30 4907 H 449.794 3.35104 -2.14359 0
M  V30 4908 H 446.533 4.22641 -5.01054 0
M  V30 4909 H 446.053 4.91252 -3.4414 0
M  V30 4910 H 447.732 5.075 -4.01314 0
M  V30 4911 N 447.864 1.01787 1.20321 0
M  V30 4912 C 448.827 0.593972 2.2137 0
M  V30 4913 C 449.827 -0.336553 1.57239 0
M  V30 4914 O 451.017 -0.125069 1.7375 0
M  V30 4915 C 448.149 -0.132433 3.40643 0
M  V30 4916 H 449.342 1.48791 2.60387 0
M  V30 4917 H 446.895 0.807803 1.33807 0
M  V30 4918 H 447.63 -1.04123 3.0713 0
M  V30 4919 H 447.415 0.53605 3.88418 0
M  V30 4920 H 448.905 -0.416314 4.1552 0
M  V30 4921 N 449.342 -1.36122 0.79427 0
M  V30 4922 C 450.567 -2.03891 0.379871 0
M  V30 4923 C 450.992 -1.59488 -0.997251 0
M  V30 4924 O 450.35 -0.765652 -1.64339 0
M  V30 4925 C 450.398 -3.57687 0.457442 0
M  V30 4926 O 449.502 -4.08931 -0.5338 0
M  V30 4927 H 448.843 -0.6443 0.160541 0
M  V30 4928 H 451.373 -1.73976 1.07673 0
M  V30 4929 H 451.383 -4.06721 0.322792 0
M  V30 4930 H 450.058 -3.89357 1.46199 0
M  V30 4931 H 448.635 -3.71154 -0.360409 0
M  V30 4932 N 450.82 -0.546701 -1.47814 0
M  V30 4933 C 452.236 -0.205717 -1.58269 0
M  V30 4934 C 452.436 1.29153 -1.54667 0
M  V30 4935 O 451.492 2.07098 -1.44453 0
M  V30 4936 C 452.805 -0.823065 -2.89216 0
M  V30 4937 C 454.353 -0.793328 -3.02779 0
M  V30 4938 C 454.828 -1.38955 -4.36412 0
M  V30 4939 N 456.319 -1.35227 -4.43021 0
M  V30 4940 C 457.054 -1.78333 -5.44963 0
M  V30 4941 N 456.55 -2.29246 -6.53772 0
M  V30 4942 N 458.343 -1.69467 -5.35945 0
M  V30 4943 H 450.494 -1.5196 -1.48398 0
M  V30 4944 H 452.757 -0.633078 -0.705632 0
M  V30 4945 H 452.463 -1.8749 -2.97558 0
M  V30 4946 H 452.337 -0.309915 -3.75925 0
M  V30 4947 H 454.724 0.249784 -2.94041 0
M  V30 4948 H 454.805 -1.34412 -2.17639 0
M  V30 4949 H 454.449 -2.43168 -4.45906 0
M  V30 4950 H 454.379 -0.814291 -5.20266 0
M  V30 4951 H 456.87 -0.979739 -3.64979 0
M  V30 4952 H 457.183 -2.60089 -7.27718 0
M  V30 4953 H 455.528 -2.3325 -6.5469 0
M  V30 4954 H 458.719 -1.29477 -4.49837 0
M  V30 4955 H 458.892 -2.03381 -6.15256 0
M  V30 4956 N 452.299 1.55045 -0.282633 0
M  V30 4957 C 453.232 2.18951 0.64311 0
M  V30 4958 C 454.21 1.15287 1.14664 0
M  V30 4959 O 455.394 1.43846 1.21822 0
M  V30 4960 C 452.521 2.81874 1.87789 0
M  V30 4961 C 451.567 3.98906 1.50919 0
M  V30 4962 S 452.4 5.3234 0.580884 0
M  V30 4963 C 453.556 5.98737 1.82387 0
M  V30 4964 H 453.789 2.97131 0.100138 0
M  V30 4965 H 451.322 1.54255 -0.0668514 0
M  V30 4966 H 453.28 3.18757 2.58658 0
M  V30 4967 H 451.941 2.03573 2.392 0
M  V30 4968 H 451.134 4.4165 2.42819 0
M  V30 4969 H 450.736 3.63485 0.88061 0
M  V30 4970 H 453.028 6.18427 2.76684 0
M  V30 4971 H 453.971 6.93318 1.4393 0
M  V30 4972 H 454.379 5.28177 1.99223 0
M  V30 4973 N 453.777 0.010035 1.57597 0
M  V30 4974 C 454.74 -0.963029 2.07986 0
M  V30 4975 C 455.74 -1.26619 0.991173 0
M  V30 4976 O 456.93 -1.2097 1.25347 0
M  V30 4977 C 454.062 -2.2851 2.52974 0
M  V30 4978 H 455.255 -0.526971 2.95234 0
M  V30 4979 H 452.808 -0.237639 1.54483 0
M  V30 4980 H 453.543 -2.76784 1.69 0
M  V30 4981 H 453.328 -2.07824 3.32493 0
M  V30 4982 H 454.818 -2.98294 2.9225 0
M  V30 4983 N 455.255 -1.55392 -0.262866 0
M  V30 4984 C 456.501 -1.76737 -0.99458 0
M  V30 4985 C 456.834 -0.572453 -1.85571 0
M  V30 4986 O 456.109 0.429732 -1.89693 0
M  V30 4987 C 456.392 -3.07824 -1.8686 0
M  V30 4988 C 456.245 -4.3769 -1.03672 0
M  V30 4989 C 457.564 -3.35021 -2.85393 0
M  V30 4990 H 454.683 -0.643005 -0.360157 0
M  V30 4991 H 457.325 -1.88126 -0.266216 0
M  V30 4992 H 455.475 -2.98245 -2.48962 0
M  V30 4993 H 457.147 -4.59238 -0.43563 0
M  V30 4994 H 455.39 -4.32461 -0.340513 0
M  V30 4995 H 456.061 -5.25759 -1.6817 0
M  V30 4996 H 458.537 -3.44458 -2.33426 0
M  V30 4997 H 457.413 -4.27989 -3.43681 0
M  V30 4998 H 457.674 -2.55153 -3.61039 0
M  V30 4999 N 456.733 0.527833 -1.48498 0
M  V30 5000 C 457.982 1.28003 -1.55878 0
M  V30 5001 C 458.295 1.9414 -0.238577 0
M  V30 5002 O 459.501 2.7083 -0.190643 0
M  V30 5003 C 457.957 2.32272 -2.74914 0
M  V30 5004 C 457.565 1.72196 -4.13585 0
M  V30 5005 C 459.309 3.08488 -2.91608 0
M  V30 5006 C 457.216 2.74417 -5.23879 0
M  V30 5007 H 456.146 0.481413 -0.580308 0
M  V30 5008 H 458.797 0.557195 -1.74836 0
M  V30 5009 H 457.179 3.07601 -2.49395 0
M  V30 5010 H 458.353 1.03041 -4.49132 0
M  V30 5011 H 456.668 1.08464 -4.02025 0
M  V30 5012 H 459.265 3.84879 -3.71177 0
M  V30 5013 H 459.608 3.64481 -2.01145 0
M  V30 5014 H 460.141 2.40274 -3.17038 0
M  V30 5015 H 456.88 2.23242 -6.16314 0
M  V30 5016 H 456.4 3.41893 -4.92818 0
M  V30 5017 H 458.079 3.37362 -5.52083 0
M  V30 5018 N 458.211 1.37122 0.776871 0
M  V30 5019 C 459.141 1.35164 1.90402 0
M  V30 5020 C 460.122 0.221069 1.68657 0
M  V30 5021 O 461.307 0.420642 1.8959 0
M  V30 5022 C 458.437 1.15274 3.27611 0
M  V30 5023 C 457.391 2.25289 3.63908 0
M  V30 5024 C 456.717 1.90527 4.99603 0
M  V30 5025 C 458.017 3.67446 3.71188 0
M  V30 5026 H 459.711 2.29482 1.92297 0
M  V30 5027 H 457.257 1.10465 0.923773 0
M  V30 5028 H 459.21 1.12536 4.06096 0
M  V30 5029 H 457.934 0.174102 3.26136 0
M  V30 5030 H 456.593 2.27174 2.87728 0
M  V30 5031 H 456.241 0.91206 4.94662 0
M  V30 5032 H 455.941 2.64193 5.24858 0
M  V30 5033 H 457.465 1.89367 5.80493 0
M  V30 5034 H 458.879 3.67719 4.39836 0
M  V30 5035 H 457.276 4.40123 4.07936 0
M  V30 5036 H 458.346 4.01443 2.71977 0
M  V30 5037 N 459.689 -1.00246 1.21608 0
M  V30 5038 C 460.637 -2.11193 0.97469 0
M  V30 5039 C 461.631 -1.69216 -0.0789303 0
M  V30 5040 O 462.837 -1.79853 0.0726806 0
M  V30 5041 H 459.212 -0.690455 0.297953 0
M  V30 5042 H 461.183 -2.2873 1.91638 0
M  V30 5043 C 459.932 -3.43182 0.558717 0
M  V30 5044 H 459.255 -3.75918 1.3611 0
M  V30 5045 H 460.695 -4.21823 0.429154 0
M  V30 5046 C 459.154 -3.28882 -0.730648 0
M  V30 5047 O 459.684 -3.59835 -1.78554 0
M  V30 5048 N 457.89 -2.8209 -0.698131 0
M  V30 5049 H 457.437 -2.57099 0.16061 0
M  V30 5050 H 457.395 -2.72903 -1.56113 0
M  V30 5051 N 461.167 -1.02423 -1.1978 0
M  V30 5052 C 462.115 -0.594474 -2.24875 0
M  V30 5053 C 463.109 0.370598 -1.65296 0
M  V30 5054 O 464.315 0.239684 -1.78397 0
M  V30 5055 H 460.69 -0.173961 -0.731602 0
M  V30 5056 H 462.661 -1.4916 -2.58445 0
M  V30 5057 C 461.41 0.0436512 -3.47673 0
M  V30 5058 H 460.733 -0.689963 -3.93801 0
M  V30 5059 H 462.173 0.307362 -4.22884 0
M  V30 5060 C 460.632 1.28881 -3.11274 0
M  V30 5061 O 461.162 2.38135 -3.23503 0
M  V30 5062 N 459.368 1.1758 -2.6575 0
M  V30 5063 H 458.915 0.286769 -2.55999 0
M  V30 5064 H 458.873 2.00988 -2.41767 0
M  V30 5065 N 462.645 1.35699 -0.801477 0
M  V30 5066 C 463.555 2.33661 -0.209691 0
M  V30 5067 C 464.571 1.6162 0.644591 0
M  V30 5068 O 465.747 1.93529 0.557545 0
M  V30 5069 C 462.812 3.40816 0.636033 0
M  V30 5070 C 461.873 4.28639 -0.238147 0
M  V30 5071 C 461.106 5.30676 0.567307 0
M  V30 5072 O 461.329 5.41174 1.8024 0
M  V30 5073 O 460.263 6.01887 -0.0391336 0
M  V30 5074 H 464.089 2.8606 -1.01996 0
M  V30 5075 H 461.674 1.38379 -0.563164 0
M  V30 5076 H 463.556 4.06301 1.11791 0
M  V30 5077 H 462.231 2.90696 1.42399 0
M  V30 5078 H 461.138 3.66152 -0.767044 0
M  V30 5079 H 462.471 4.82143 -0.989915 0
M  V30 5080 N 464.123 0.554532 1.47522 0
M  V30 5081 C 465.534 0.120446 1.86311 0
M  V30 5082 C 465.885 -1.30904 1.46145 0
M  V30 5083 O 465.01 -1.98434 0.863294 0
M  V30 5084 C 465.605 0.211808 3.38137 0
M  V30 5085 C 464.164 -0.167224 3.76028 0
M  V30 5086 C 463.311 0.560576 2.71575 0
M  V30 5087 H 466.262 0.764408 1.39077 0
M  V30 5088 H 466.283 -0.570275 3.76202 0
M  V30 5089 H 465.795 1.25232 3.6734 0
M  V30 5090 H 463.896 -1.20894 3.52442 0
M  V30 5091 H 464.009 0.189473 4.78725 0
M  V30 5092 H 462.373 0.00396836 2.547 0
M  V30 5093 H 463.156 1.60219 3.0362 0
M  V30 5094 N 465.601 -1.54893 0.290851 0
M  V30 5095 C 466.533 -2.20564 -0.623236 0
M  V30 5096 C 467.546 -1.19519 -1.1054 0
M  V30 5097 O 468.735 -1.46165 -1.02459 0
M  V30 5098 C 465.835 -2.83033 -1.86401 0
M  V30 5099 C 465.008 -4.09916 -1.52604 0
M  V30 5100 C 464.067 -4.56284 -2.62091 0
M  V30 5101 O 463.093 -5.2171 -2.27612 0
M  V30 5102 N 464.295 -4.27746 -3.92446 0
M  V30 5103 H 467.06 -2.99638 -0.0610915 0
M  V30 5104 H 464.621 -1.61508 0.112615 0
M  V30 5105 H 466.613 -3.1099 -2.58973 0
M  V30 5106 H 465.183 -2.0786 -2.33481 0
M  V30 5107 H 464.403 -3.89078 -0.633424 0
M  V30 5108 H 465.691 -4.92554 -1.27547 0
M  V30 5109 H 465.089 -3.7531 -4.23272 0
M  V30 5110 H 463.646 -4.60437 -4.61347 0
M  V30 5111 N 467.08 -0.0183926 -1.57589 0
M  V30 5112 C 468.328 0.661253 -1.90976 0
M  V30 5113 C 468.649 1.73281 -0.894353 0
M  V30 5114 O 467.919 1.9579 0.0656788 0
M  V30 5115 H 466.499 0.247233 -0.704901 0
M  V30 5116 H 469.161 -0.0636639 -1.94796 0
M  V30 5117 H 468.257 1.12083 -2.9128 0
M  V30 5118 N 468.558 1.5553 0.254621 0
M  V30 5119 C 469.804 1.7818 0.980989 0
M  V30 5120 C 470.159 0.586059 1.83257 0
M  V30 5121 O 469.452 -0.420889 1.8692 0
M  V30 5122 C 469.646 3.03891 1.88109 0
M  V30 5123 C 469.475 4.35578 1.11812 0
M  V30 5124 C 468.245 4.98497 0.826343 0
M  V30 5125 C 470.443 5.11869 0.499486 0
M  V30 5126 N 468.425 6.13888 0.0385095 0
M  V30 5127 C 469.796 6.1981 -0.153292 0
M  V30 5128 C 471.851 4.96216 0.409175 0
M  V30 5129 C 470.554 7.13801 -0.8877 0
M  V30 5130 C 472.58 5.90578 -0.311683 0
M  V30 5131 C 471.942 6.97922 -0.953129 0
M  V30 5132 H 468.041 0.704057 0.340335 0
M  V30 5133 H 470.625 1.93025 0.254855 0
M  V30 5134 H 468.796 2.90389 2.57932 0
M  V30 5135 H 470.528 3.14869 2.54244 0
M  V30 5136 H 467.283 4.59769 1.13621 0
M  V30 5137 H 467.707 6.76129 -0.343275 0
M  V30 5138 H 472.349 4.1331 0.890765 0
M  V30 5139 H 470.067 7.96214 -1.38092 0
M  V30 5140 H 473.653 5.80544 -0.382125 0
M  V30 5141 H 472.533 7.69681 -1.50203 0
M  V30 5142 N 470.036 -0.519951 1.48776 0
M  V30 5143 C 471.282 -1.27711 1.57536 0
M  V30 5144 C 471.615 -1.92547 0.252866 0
M  V30 5145 O 470.89 -1.7979 -0.742021 0
M  V30 5146 C 471.173 -2.35875 2.72094 0
M  V30 5147 C 471.026 -1.75664 4.1408 0
M  V30 5148 C 472.345 -3.37575 2.82367 0
M  V30 5149 H 469.464 -0.462971 0.573434 0
M  V30 5150 H 472.106 -0.578194 1.80989 0
M  V30 5151 H 470.256 -2.95488 2.52228 0
M  V30 5152 H 471.928 -1.20025 4.45412 0
M  V30 5153 H 470.171 -1.06154 4.20611 0
M  V30 5154 H 470.842 -2.54029 4.90075 0
M  V30 5155 H 473.318 -2.87929 3.00393 0
M  V30 5156 H 472.194 -4.1064 3.64233 0
M  V30 5157 H 472.455 -3.98743 1.90936 0
M  V30 5158 N 471.514 -1.37532 -0.769588 0
M  V30 5159 C 472.763 -1.32183 -1.5235 0
M  V30 5160 C 473.076 0.0906555 -1.9539 0
M  V30 5161 O 474.282 0.266628 -2.70188 0
M  V30 5162 C 472.738 -2.32029 -2.75119 0
M  V30 5163 C 472.346 -3.78816 -2.3917 0
M  V30 5164 C 474.09 -2.35694 -3.53056 0
M  V30 5165 C 471.997 -4.70388 -3.58453 0
M  V30 5166 H 470.927 -0.491275 -0.571984 0
M  V30 5167 H 473.578 -1.63004 -0.842739 0
M  V30 5168 H 471.96 -1.94229 -3.45096 0
M  V30 5169 H 473.134 -4.25466 -1.76962 0
M  V30 5170 H 471.449 -3.78117 -1.74402 0
M  V30 5171 H 474.046 -3.01312 -4.41718 0
M  V30 5172 H 474.389 -1.37117 -3.93071 0
M  V30 5173 H 474.922 -2.72212 -2.90078 0
M  V30 5174 H 471.661 -5.70102 -3.23518 0
M  V30 5175 H 471.181 -4.28442 -4.19758 0
M  V30 5176 H 472.86 -4.87628 -4.25239 0
M  V30 5177 N 472.992 0.995999 -1.22138 0
M  V30 5178 C 474.217 1.77601 -1.0711 0
M  V30 5179 C 474.642 1.84339 0.374264 0
M  V30 5180 O 474 1.29359 1.27028 0
M  V30 5181 C 474.048 3.18897 -1.68336 0
M  V30 5182 O 473.152 4.01663 -0.934928 0
M  V30 5183 H 472.493 0.547011 -0.376397 0
M  V30 5184 H 475.023 1.25137 -1.6187 0
M  V30 5185 H 475.033 3.69539 -1.72931 0
M  V30 5186 H 473.708 3.13308 -2.73516 0
M  V30 5187 H 472.285 3.60204 -0.964751 0
M  V30 5188 N 474.47 1.03057 1.19235 0
M  V30 5189 C 475.717 0.728019 1.88961 0
M  V30 5190 C 476.045 -0.743515 1.79728 0
M  V30 5191 O 475.3 -1.55729 1.1852 0
M  V30 5192 C 475.599 1.1268 3.39172 0
M  V30 5193 C 475.265 2.5969 3.68608 0
M  V30 5194 C 473.927 2.99854 3.76352 0
M  V30 5195 C 476.279 3.54793 3.81801 0
M  V30 5196 C 473.607 4.34031 3.94758 0
M  V30 5197 C 475.959 4.88675 4.0172 0
M  V30 5198 C 474.623 5.28526 4.07697 0
M  V30 5199 H 473.893 0.266401 0.691456 0
M  V30 5200 H 476.54 1.29373 1.41191 0
M  V30 5201 H 474.845 0.479722 3.88852 0
M  V30 5202 H 476.542 0.870203 3.91444 0
M  V30 5203 H 473.132 2.27575 3.63191 0
M  V30 5204 H 477.316 3.24914 3.7516 0
M  V30 5205 H 472.572 4.6444 3.97625 0
M  V30 5206 H 476.746 5.6228 4.1087 0
M  V30 5207 H 474.373 6.32506 4.21712 0
M  V30 5208 N 475.948 -1.35272 0.808662 0
M  V30 5209 C 477.364 -1.51806 0.492653 0
M  V30 5210 C 477.564 -1.7574 -0.985778 0
M  V30 5211 O 476.62 -1.80003 -1.77074 0
M  V30 5212 C 477.933 -2.69202 1.33981 0
M  V30 5213 C 479.481 -2.8308 1.33547 0
M  V30 5214 C 479.956 -4.03502 2.16679 0
M  V30 5215 N 481.447 -4.10684 2.14227 0
M  V30 5216 C 482.182 -5.02984 2.75308 0
M  V30 5217 N 481.678 -6.00603 3.45323 0
M  V30 5218 N 483.471 -4.95746 2.64938 0
M  V30 5219 H 475.622 -1.17993 1.76611 0
M  V30 5220 H 477.885 -0.577476 0.751814 0
M  V30 5221 H 477.591 -2.581 2.38909 0
M  V30 5222 H 477.465 -3.63854 0.994491 0
M  V30 5223 H 479.852 -2.93631 0.294036 0
M  V30 5224 H 479.933 -1.89278 1.72068 0
M  V30 5225 H 479.577 -3.93711 3.20864 0
M  V30 5226 H 479.507 -4.96489 1.75517 0
M  V30 5227 H 481.998 -3.40802 1.63285 0
M  V30 5228 H 482.311 -6.67633 3.89212 0
M  V30 5229 H 480.656 -6.0077 3.49428 0
M  V30 5230 H 483.847 -4.18439 2.09825 0
M  V30 5231 H 484.02 -5.67487 3.12829 0
M  V30 5232 N 477.426 -0.562348 -1.47226 0
M  V30 5233 C 478.651 -0.0432632 -2.07355 0
M  V30 5234 C 479.076 1.24332 -1.41149 0
M  V30 5235 O 478.434 1.74603 -0.488226 0
M  V30 5236 C 478.482 0.130288 -3.60365 0
M  V30 5237 O 477.586 1.19166 -3.94808 0
M  V30 5238 H 476.927 -0.0536334 -0.66183 0
M  V30 5239 H 479.457 -0.779495 -1.89169 0
M  V30 5240 H 479.467 0.342881 -4.06557 0
M  V30 5241 H 478.142 -0.809389 -4.07948 0
M  V30 5242 H 476.719 0.959153 -3.60354 0
M  V30 5243 N 478.904 1.54736 -0.299062 0
M  V30 5244 C 479.851 2.23448 0.577899 0
M  V30 5245 C 480.821 1.21637 1.13109 0
M  V30 5246 O 482.006 1.50252 1.17597 0
M  V30 5247 C 479.146 2.9774 1.74484 0
M  V30 5248 C 478.259 4.1432 1.22323 0
M  V30 5249 C 477.394 4.76199 2.35388 0
M  V30 5250 C 476.433 5.84927 1.80351 0
M  V30 5251 N 475.57 6.4077 2.86982 0
M  V30 5252 H 480.41 2.97996 -0.0146545 0
M  V30 5253 H 477.947 1.47088 -0.0190013 0
M  V30 5254 H 479.905 3.39045 2.43114 0
M  V30 5255 H 478.535 2.25572 2.30905 0
M  V30 5256 H 477.587 3.7797 0.429249 0
M  V30 5257 H 478.899 4.92659 0.780309 0
M  V30 5258 H 478.053 5.20346 3.11969 0
M  V30 5259 H 476.792 3.97188 2.83006 0
M  V30 5260 H 475.797 5.40207 1.02259 0
M  V30 5261 H 477.022 6.65821 1.3364 0
M  V30 5262 H 474.968 5.64643 3.33938 0
M  V30 5263 H 474.885 7.1445 2.4718 0
M  V30 5264 H 476.153 6.89574 3.63466 0
M  V30 5265 N 480.382 0.0267497 1.57577 0
M  V30 5266 C 481.659 -0.690926 1.82991 0
M  V30 5267 C 482.039 -1.90471 0.910164 0
M  V30 5268 O 481.387 -2.28474 -0.0347985 0
M  V30 5269 C 481.597 -1.07139 3.32148 0
M  V30 5270 C 482.945 -1.46402 3.98562 0
M  V30 5271 O 483.969 -1.16443 3.36629 0
M  V30 5272 O 482.828 -2.02214 5.07712 0
M  V30 5273 H 479.922 -0.338747 0.75444 0
M  V30 5274 H 482.468 0.0542506 1.69613 0
M  V30 5275 H 481.24 -0.207394 3.9075 0
M  V30 5276 H 480.863 -1.87481 3.50623 0
M  V30 5277 N 481.861 -1.55662 -0.24637 0
M  V30 5278 C 483.138 -1.68272 -0.997198 0
M  V30 5279 C 483.518 -0.566785 -2.03349 0
M  V30 5280 O 482.866 0.429688 -2.24424 0
M  V30 5281 C 483.076 -3.08594 -1.63006 0
M  V30 5282 C 484.424 -3.6721 -2.13171 0
M  V30 5283 O 485.448 -3.11397 -1.72946 0
M  V30 5284 O 484.307 -4.65054 -2.87031 0
M  V30 5285 H 481.401 -0.684429 -0.464205 0
M  V30 5286 H 483.947 -1.67993 -0.240114 0
M  V30 5287 H 482.719 -3.81264 -0.880527 0
M  V30 5288 H 482.342 -3.12886 -2.45333 0
M  V30 5289 N 483.339 0.512053 -1.4905 0
M  V30 5290 C 484.588 1.26343 -1.57227 0
M  V30 5291 C 484.901 1.93876 -0.259155 0
M  V30 5292 O 486.107 2.70612 -0.219358 0
M  V30 5293 C 484.563 2.29343 -2.77362 0
M  V30 5294 C 484.171 1.67799 -4.15388 0
M  V30 5295 C 485.915 3.05378 -2.94864 0
M  V30 5296 C 483.822 2.68845 -5.2676 0
M  V30 5297 H 482.752 0.475231 -0.585382 0
M  V30 5298 H 485.403 0.53862 -1.75417 0
M  V30 5299 H 483.785 3.04938 -2.52643 0
M  V30 5300 H 484.959 0.982715 -4.50199 0
M  V30 5301 H 483.274 1.04194 -4.03153 0
M  V30 5302 H 485.871 3.80921 -3.75238 0
M  V30 5303 H 486.214 3.62327 -2.05 0
M  V30 5304 H 486.747 2.36898 -3.19569 0
M  V30 5305 H 483.486 2.16692 -6.18647 0
M  V30 5306 H 483.006 3.36647 -4.96416 0
M  V30 5307 H 484.685 3.31487 -5.5563 0
M  V30 5308 N 484.817 1.37938 0.762283 0
M  V30 5309 C 485.765 1.34569 1.89721 0
M  V30 5310 C 486.759 0.232929 1.67791 0
M  V30 5311 O 487.965 0.401485 1.75465 0
M  V30 5312 H 484.34 0.419594 0.624055 0
M  V30 5313 H 486.311 2.30357 1.8968 0
M  V30 5314 C 485.06 1.17898 3.27101 0
M  V30 5315 H 484.383 2.02781 3.44558 0
M  V30 5316 H 485.823 1.19593 4.06784 0
M  V30 5317 C 484.282 -0.114728 3.36705 0
M  V30 5318 O 484.812 -1.0949 3.8649 0
M  V30 5319 N 483.018 -0.16863 2.9011 0
M  V30 5320 H 482.565 0.62967 2.49786 0
M  V30 5321 H 482.523 -1.03383 2.96916 0
M  V30 5322 N 486.295 -0.989507 1.22664 0
M  V30 5323 C 487.523 -1.76496 1.07967 0
M  V30 5324 C 487.938 -1.85148 -0.369543 0
M  V30 5325 O 487.295 -1.32408 -1.25596 0
M  V30 5326 C 487.346 -3.19642 1.68853 0
M  V30 5327 O 487.067 -3.11453 3.08105 0
M  V30 5328 C 488.568 -4.13621 1.59475 0
M  V30 5329 H 485.788 -0.55418 0.378319 0
M  V30 5330 H 488.332 -1.24378 1.62328 0
M  V30 5331 H 486.487 -3.68816 1.18547 0
M  V30 5332 H 486.901 -4.01499 3.37489 0
M  V30 5333 H 488.375 -5.11801 2.06795 0
M  V30 5334 H 488.852 -4.35718 0.55191 0
M  V30 5335 H 489.458 -3.70346 2.09103 0
M  V30 5336 N 487.773 -1.03688 -1.18687 0
M  V30 5337 C 488.703 -0.645407 -2.24403 0
M  V30 5338 C 489.684 0.349511 -1.66471 0
M  V30 5339 O 490.869 0.230453 -1.92828 0
M  V30 5340 C 487.999 -0.00365337 -3.473 0
M  V30 5341 C 486.953 -0.921705 -4.17958 0
M  V30 5342 C 486.279 -0.144629 -5.34504 0
M  V30 5343 C 487.579 -2.23909 -4.71871 0
M  V30 5344 H 489.273 -1.52917 -2.57404 0
M  V30 5345 H 486.819 -0.736711 -1.23728 0
M  V30 5346 H 488.772 0.281908 -4.20456 0
M  V30 5347 H 487.496 0.914963 -3.13522 0
M  V30 5348 H 486.155 -1.19159 -3.46694 0
M  V30 5349 H 485.803 0.776274 -4.96974 0
M  V30 5350 H 485.503 -0.756206 -5.82714 0
M  V30 5351 H 487.027 0.134004 -6.10453 0
M  V30 5352 H 488.441 -2.0145 -5.36741 0
M  V30 5353 H 486.838 -2.8033 -5.30599 0
M  V30 5354 H 487.908 -2.88822 -3.895 0
M  V30 5355 N 489.251 1.34841 -0.815825 0
M  V30 5356 C 490.476 2.03261 -0.41226 0
M  V30 5357 C 490.901 1.61055 0.971751 0
M  V30 5358 O 490.259 0.7917 1.63101 0
M  V30 5359 C 490.307 3.56914 -0.514289 0
M  V30 5360 O 489.411 4.09728 0.468675 0
M  V30 5361 H 488.752 0.641664 -0.170771 0
M  V30 5362 H 491.282 1.72241 -1.10427 0
M  V30 5363 H 491.292 4.06156 -0.387457 0
M  V30 5364 H 489.967 3.86982 -1.52375 0
M  V30 5365 H 488.544 3.71681 0.301316 0
M  V30 5366 N 490.729 0.570148 1.46925 0
M  V30 5367 C 491.659 -0.158274 2.32963 0
M  V30 5368 C 492.64 -0.896093 1.44583 0
M  V30 5369 O 493.825 -0.874022 1.7342 0
M  V30 5370 C 490.955 -1.18055 3.26619 0
M  V30 5371 C 489.909 -0.558379 4.24342 0
M  V30 5372 C 489.235 -1.68623 5.07415 0
M  V30 5373 C 490.535 0.496295 5.19937 0
M  V30 5374 H 492.229 0.560046 2.94115 0
M  V30 5375 H 489.775 0.270775 1.41431 0
M  V30 5376 H 491.728 -1.69841 3.85658 0
M  V30 5377 H 490.452 -1.92899 2.63548 0
M  V30 5378 H 489.111 -0.0617157 3.66548 0
M  V30 5379 H 488.759 -2.42402 4.40738 0
M  V30 5380 H 488.459 -1.27564 5.73586 0
M  V30 5381 H 489.983 -2.20709 5.69315 0
M  V30 5382 H 491.397 0.0640052 5.73264 0
M  V30 5383 H 489.794 0.82649 5.94381 0
M  V30 5384 H 490.864 1.38735 4.6463 0
M  V30 5385 N 492.207 -1.54576 0.307264 0
M  V30 5386 C 493.139 -2.21212 -0.599807 0
M  V30 5387 C 494.152 -1.20685 -1.09266 0
M  V30 5388 O 495.341 -1.47244 -1.00903 0
M  V30 5389 C 492.441 -2.84994 -1.83389 0
M  V30 5390 C 491.614 -4.11511 -1.48248 0
M  V30 5391 C 490.673 -4.59038 -2.57237 0
M  V30 5392 O 489.699 -5.24095 -2.22065 0
M  V30 5393 N 490.901 -4.31884 -3.87887 0
M  V30 5394 H 493.666 -2.99686 -0.0293075 0
M  V30 5395 H 491.227 -1.61379 0.129738 0
M  V30 5396 H 493.219 -3.1372 -2.5566 0
M  V30 5397 H 491.789 -2.10324 -2.31263 0
M  V30 5398 H 491.009 -3.89728 -0.592122 0
M  V30 5399 H 492.297 -4.93879 -1.22316 0
M  V30 5400 H 491.695 -3.79778 -4.19268 0
M  V30 5401 H 490.252 -4.65304 -4.56438 0
M  V30 5402 N 493.685 -0.035106 -1.57561 0
M  V30 5403 C 494.615 0.942993 -2.13612 0
M  V30 5404 C 495.596 1.33531 -1.05373 0
M  V30 5405 O 496.781 1.41287 -1.33235 0
M  V30 5406 C 493.911 2.22332 -2.66807 0
M  V30 5407 C 492.865 1.97156 -3.79886 0
M  V30 5408 C 492.191 3.31506 -4.19533 0
M  V30 5409 C 493.491 1.30596 -5.05709 0
M  V30 5410 H 495.185 0.476179 -2.95589 0
M  V30 5411 H 492.731 0.227602 -1.4219 0
M  V30 5412 H 494.684 2.91142 -3.04654 0
M  V30 5413 H 493.408 2.7119 -1.81999 0
M  V30 5414 H 492.067 1.30763 -3.42486 0
M  V30 5415 H 491.715 3.78134 -3.31698 0
M  V30 5416 H 491.415 3.15465 -4.95738 0
M  V30 5417 H 492.939 4.01574 -4.59968 0
M  V30 5418 H 494.353 1.89416 -5.41105 0
M  V30 5419 H 492.75 1.24934 -5.86951 0
M  V30 5420 H 493.82 0.279742 -4.84092 0
M  V30 5421 N 495.163 1.55791 0.238111 0
M  V30 5422 C 496.388 1.8244 0.986432 0
M  V30 5423 C 496.813 0.613314 1.7782 0
M  V30 5424 O 496.171 -0.437767 1.75935 0
M  V30 5425 C 496.219 3.06917 1.893 0
M  V30 5426 O 495.323 2.84449 2.98601 0
M  V30 5427 H 494.664 0.601975 0.280218 0
M  V30 5428 H 497.194 2.02987 0.256437 0
M  V30 5429 H 497.204 3.36583 2.30598 0
M  V30 5430 H 495.879 3.947 1.31091 0
M  V30 5431 H 494.456 2.65972 2.61368 0
M  V30 5432 N 496.642 -0.504142 1.49319 0
M  V30 5433 C 497.574 -1.62265 1.61872 0
M  V30 5434 C 498.587 -1.54881 0.501573 0
M  V30 5435 O 499.776 -1.6087 0.773497 0
M  V30 5436 C 496.876 -3.01042 1.55651 0
M  V30 5437 C 496.049 -3.33642 2.82845 0
M  V30 5438 C 495.108 -4.51816 2.69719 0
M  V30 5439 O 494.134 -4.53755 3.4365 0
M  V30 5440 N 495.336 -5.51543 1.81055 0
M  V30 5441 H 498.101 -1.51924 2.58339 0
M  V30 5442 H 495.662 -0.691954 1.46368 0
M  V30 5443 H 497.654 -3.78013 1.44528 0
M  V30 5444 H 496.224 -3.05323 0.670546 0
M  V30 5445 H 495.444 -2.45598 3.08343 0
M  V30 5446 H 496.732 -3.5222 3.67177 0
M  V30 5447 H 496.13 -5.52774 1.20241 0
M  V30 5448 H 494.687 -6.27629 1.75856 0
M  V30 5449 N 498.12 -1.38341 -0.754957 0
M  V30 5450 C 499.366 -1.34672 -1.51628 0
M  V30 5451 C 499.699 0.0636036 -1.94096 0
M  V30 5452 O 498.974 1.0245 -1.6533 0
M  V30 5453 C 499.257 -2.30116 -2.76981 0
M  V30 5454 C 499.11 -3.80003 -2.4066 0
M  V30 5455 C 500.429 -2.23715 -3.78998 0
M  V30 5456 H 497.548 -0.490517 -0.550056 0
M  V30 5457 H 500.19 -1.69178 -0.864807 0
M  V30 5458 H 498.34 -2.00821 -3.3257 0
M  V30 5459 H 500.012 -4.19966 -1.90856 0
M  V30 5460 H 498.255 -3.97751 -1.73137 0
M  V30 5461 H 498.926 -4.42244 -3.30339 0
M  V30 5462 H 501.402 -2.49574 -3.32945 0
M  V30 5463 H 500.278 -2.9261 -4.64403 0
M  V30 5464 H 500.539 -1.23554 -4.24484 0
M  V30 5465 N 499.598 0.982988 -1.23187 0
M  V30 5466 C 500.53 2.07729 -0.968572 0
M  V30 5467 C 501.543 1.62702 0.0564821 0
M  V30 5468 O 502.732 1.77603 -0.178733 0
M  V30 5469 C 499.832 3.36071 -0.436974 0
M  V30 5470 C 499.005 4.10081 -1.52159 0
M  V30 5471 C 498.064 5.16701 -0.99532 0
M  V30 5472 O 497.09 5.43727 -1.68373 0
M  V30 5473 N 498.292 5.80226 0.178192 0
M  V30 5474 H 501.057 2.30894 -1.9107 0
M  V30 5475 H 498.618 1.14949 -1.1401 0
M  V30 5476 H 500.61 4.04639 -0.0700051 0
M  V30 5477 H 499.18 3.09893 0.410509 0
M  V30 5478 H 498.4 3.36004 -2.06144 0
M  V30 5479 H 499.688 4.56295 -2.25105 0
M  V30 5480 H 499.086 5.60651 0.754096 0
M  V30 5481 H 497.643 6.49982 0.486449 0
M  V30 5482 N 501.076 1.04316 1.18135 0
M  V30 5483 C 502.008 0.594444 2.21357 0
M  V30 5484 C 503.021 -0.337215 1.59269 0
M  V30 5485 O 504.21 -0.131337 1.78016 0
M  V30 5486 C 501.31 -0.151251 3.38562 0
M  V30 5487 C 500.483 0.788907 4.30227 0
M  V30 5488 C 499.542 0.0860572 5.2613 0
M  V30 5489 O 498.568 0.717302 5.64662 0
M  V30 5490 N 499.77 -1.17969 5.68387 0
M  V30 5491 H 502.535 1.48227 2.60478 0
M  V30 5492 H 500.096 0.92396 1.32946 0
M  V30 5493 H 502.088 -0.631352 3.99745 0
M  V30 5494 H 500.658 -0.940639 2.98112 0
M  V30 5495 H 499.878 1.44882 3.6661 0
M  V30 5496 H 501.166 1.42738 4.88368 0
M  V30 5497 H 500.564 -1.71302 5.3914 0
M  V30 5498 H 499.121 -1.60402 6.31755 0
M  V30 5499 N 502.554 -1.34406 0.822964 0
M  V30 5500 C 503.784 -2.02214 0.423424 0
M  V30 5501 C 504.192 -1.62124 -0.975322 0
M  V30 5502 O 503.535 -0.822452 -1.6426 0
M  V30 5503 C 503.597 -3.56721 0.446107 0
M  V30 5504 C 503.261 -4.20136 1.79819 0
M  V30 5505 C 504.258 -4.4065 2.75904 0
M  V30 5506 C 501.943 -4.56906 2.08669 0
M  V30 5507 C 503.937 -4.9706 3.99012 0
M  V30 5508 C 501.624 -5.13026 3.32036 0
M  V30 5509 C 502.622 -5.33047 4.27024 0
M  V30 5510 O 502.31 -5.87979 5.48211 0
M  V30 5511 H 502.042 -0.654748 0.168169 0
M  V30 5512 H 504.596 -1.72659 1.11257 0
M  V30 5513 H 502.826 -3.85537 -0.299734 0
M  V30 5514 H 504.515 -4.05845 0.0666114 0
M  V30 5515 H 505.281 -4.12607 2.54912 0
M  V30 5516 H 501.16 -4.40626 1.35535 0
M  V30 5517 H 504.704 -5.12603 4.73164 0
M  V30 5518 H 500.601 -5.40498 3.52891 0
M  V30 5519 H 501.369 -6.06413 5.49732 0
M  V30 5520 N 504.032 -0.577932 -1.46621 0
M  V30 5521 C 504.995 0.147805 -2.28723 0
M  V30 5522 C 505.995 0.823325 -1.38123 0
M  V30 5523 O 507.185 0.676011 -1.60548 0
M  V30 5524 C 504.317 1.21853 -3.18378 0
M  V30 5525 H 505.51 -0.573654 -2.94362 0
M  V30 5526 H 503.063 -0.335703 -1.52652 0
M  V30 5527 H 503.798 1.97173 -2.57475 0
M  V30 5528 H 503.583 0.738714 -3.85078 0
M  V30 5529 H 505.073 1.72768 -3.80186 0
M  V30 5530 N 505.51 1.54411 -0.315457 0
M  V30 5531 C 506.787 1.92562 0.343398 0
M  V30 5532 C 507.167 1.24423 1.70535 0
M  V30 5533 O 506.515 0.385051 2.25232 0
M  V30 5534 C 506.725 3.46168 0.443687 0
M  V30 5535 C 508.073 4.18659 0.707783 0
M  V30 5536 O 509.097 3.52281 0.52693 0
M  V30 5537 O 507.956 5.36198 1.05612 0
M  V30 5538 H 505.05 0.80379 0.194552 0
M  V30 5539 H 507.596 1.65738 -0.364577 0
M  V30 5540 H 506.368 3.8792 -0.513172 0
M  V30 5541 H 505.991 3.79073 1.19956 0
M  V30 5542 N 506.988 0.0434614 1.5754 0
M  V30 5543 C 507.936 -0.951465 2.1225 0
M  V30 5544 C 508.93 -1.3274 1.05245 0
M  V30 5545 O 510.136 -1.30795 1.23663 0
M  V30 5546 H 506.511 -0.324667 0.678303 0
M  V30 5547 H 508.482 -0.464855 2.94757 0
M  V30 5548 C 507.231 -2.21972 2.67626 0
M  V30 5549 H 506.554 -1.93923 3.4962 0
M  V30 5550 H 507.994 -2.89765 3.09536 0
M  V30 5551 C 506.453 -2.95919 1.61038 0
M  V30 5552 O 506.983 -3.8857 1.01862 0
M  V30 5553 N 505.189 -2.58511 1.32741 0
M  V30 5554 H 504.736 -1.83244 1.81051 0
M  V30 5555 H 504.694 -3.08296 0.616531 0
M  V30 5556 N 508.466 -1.55915 -0.229846 0
M  V30 5557 C 509.396 -1.94754 -1.28815 0
M  V30 5558 C 510.377 -0.814657 -1.49323 0
M  V30 5559 O 511.562 -1.07631 -1.61645 0
M  V30 5560 C 508.692 -2.25705 -2.63959 0
M  V30 5561 C 507.646 -3.41406 -2.5812 0
M  V30 5562 C 506.972 -3.57941 -3.97218 0
M  V30 5563 C 508.272 -4.76616 -2.13623 0
M  V30 5564 H 509.966 -2.83404 -0.965547 0
M  V30 5565 H 507.512 -1.36353 -0.463028 0
M  V30 5566 H 509.465 -2.51467 -3.38146 0
M  V30 5567 H 508.189 -1.339 -2.9789 0
M  V30 5568 H 506.848 -3.1568 -1.86391 0
M  V30 5569 H 506.496 -2.63526 -4.28443 0
M  V30 5570 H 506.196 -4.35757 -3.94195 0
M  V30 5571 H 507.72 -3.86042 -4.73079 0
M  V30 5572 H 509.134 -5.01637 -2.77549 0
M  V30 5573 H 507.531 -5.57655 -2.21677 0
M  V30 5574 H 508.601 -4.7253 -1.08829 0
M  V30 5575 N 509.944 0.496216 -1.49584 0
M  V30 5576 C 511.36 0.827814 -1.36453 0
M  V30 5577 C 511.56 1.97464 -0.401285 0
M  V30 5578 O 510.616 2.51958 0.165296 0
M  V30 5579 C 511.929 1.16352 -2.77277 0
M  V30 5580 C 513.477 1.27145 -2.86013 0
M  V30 5581 C 513.952 1.64042 -4.27615 0
M  V30 5582 N 515.443 1.71082 -4.30448 0
M  V30 5583 C 516.178 2.01085 -5.36984 0
M  V30 5584 N 515.674 2.2928 -6.5376 0
M  V30 5585 N 517.467 2.02376 -5.24405 0
M  V30 5586 H 509.618 -0.259947 -2.10803 0
M  V30 5587 H 511.881 -0.0537163 -0.946477 0
M  V30 5588 H 511.587 0.394153 -3.49484 0
M  V30 5589 H 511.461 2.10582 -3.12946 0
M  V30 5590 H 513.848 2.03152 -2.1404 0
M  V30 5591 H 513.929 0.309542 -2.5392 0
M  V30 5592 H 513.573 0.88583 -5.00115 0
M  V30 5593 H 513.503 2.6134 -4.57175 0
M  V30 5594 H 515.994 1.51434 -3.46232 0
M  V30 5595 H 516.307 2.51376 -7.30774 0
M  V30 5596 H 514.652 2.26726 -6.56978 0
M  V30 5597 H 517.843 1.79829 -4.32179 0
M  V30 5598 H 518.016 2.25425 -6.07526 0
M  V30 5599 N 511.423 1.38739 0.74761 0
M  V30 5600 C 512.386 1.36241 1.84312 0
M  V30 5601 C 513.386 0.261811 1.58654 0
M  V30 5602 O 514.576 0.519031 1.66288 0
M  V30 5603 C 511.708 1.12253 3.21888 0
M  V30 5604 H 512.901 2.33712 1.87933 0
M  V30 5605 H 510.454 1.2412 0.949946 0
M  V30 5606 H 511.189 0.154133 3.23934 0
M  V30 5607 H 510.974 1.91943 3.41907 0
M  V30 5608 H 512.464 1.13215 4.0196 0
M  V30 5609 N 512.901 -0.976442 1.23707 0
M  V30 5610 C 514.147 -1.72081 1.07312 0
M  V30 5611 C 514.48 -1.90275 -0.388476 0
M  V30 5612 O 513.755 -1.4579 -1.28746 0
M  V30 5613 C 514.038 -3.11675 1.80363 0
M  V30 5614 C 513.891 -3.01027 3.3422 0
M  V30 5615 C 515.21 -4.1117 1.5693 0
M  V30 5616 H 512.329 -0.624583 0.391236 0
M  V30 5617 H 514.971 -1.13649 1.52263 0
M  V30 5618 H 513.121 -3.61559 1.42153 0
M  V30 5619 H 514.793 -2.58637 3.81975 0
M  V30 5620 H 513.036 -2.3744 3.63049 0
M  V30 5621 H 513.707 -3.9988 3.80525 0
M  V30 5622 H 516.183 -3.7011 1.90151 0
M  V30 5623 H 515.059 -5.06928 2.10513 0
M  V30 5624 H 515.32 -4.392 0.505548 0
M  V30 5625 N 514.379 -1.04941 -1.1758 0
M  V30 5626 C 515.311 -0.606174 -2.21039 0
M  V30 5627 C 516.324 0.328763 -1.59446 0
M  V30 5628 O 517.513 0.121895 -1.78083 0
M  V30 5629 C 514.613 0.133294 -3.38638 0
M  V30 5630 C 513.786 -0.811711 -4.29802 0
M  V30 5631 C 512.845 -0.113958 -5.26077 0
M  V30 5632 O 511.871 -0.747237 -5.64274 0
M  V30 5633 N 513.073 1.14953 -5.69004 0
M  V30 5634 H 515.838 -1.49606 -2.59689 0
M  V30 5635 H 513.399 -0.930997 -1.32454 0
M  V30 5636 H 515.391 0.610144 -4.00074 0
M  V30 5637 H 513.961 0.924816 -2.98607 0
M  V30 5638 H 513.181 -1.46824 -3.65837 0
M  V30 5639 H 514.469 -1.45326 -4.87604 0
M  V30 5640 H 513.867 1.68441 -5.40041 0
M  V30 5641 H 512.424 1.57049 -6.32597 0
M  V30 5642 N 515.857 1.33968 -0.830081 0
M  V30 5643 C 516.807 2.26845 -0.229242 0
M  V30 5644 C 517.791 1.48862 0.610659 0
M  V30 5645 O 518.983 1.70808 0.464067 0
M  V30 5646 C 516.112 3.3798 0.602057 0
M  V30 5647 C 515.198 4.23369 -0.248866 0
M  V30 5648 N 515.589 4.88182 -1.32334 0
M  V30 5649 C 513.887 4.45987 -0.0344077 0
M  V30 5650 C 514.588 5.51671 -1.84482 0
M  V30 5651 N 513.564 5.31348 -1.14762 0
M  V30 5652 H 517.366 2.74464 -1.05104 0
M  V30 5653 H 514.88 1.4777 -0.673623 0
M  V30 5654 H 516.877 4.03494 1.04873 0
M  V30 5655 H 515.537 2.9191 1.42193 0
M  V30 5656 H 516.548 4.88988 -1.70619 0
M  V30 5657 H 513.225 4.10658 0.752727 0
M  V30 5658 H 514.615 6.13308 -2.74413 0
M  V30 5659 N 517.335 0.585699 1.46312 0
M  V30 5660 C 518.245 -0.148236 2.34131 0
M  V30 5661 C 519.261 -0.882972 1.49932 0
M  V30 5662 O 520.437 -0.845484 1.82794 0
M  V30 5663 C 517.502 -1.14714 3.27172 0
M  V30 5664 C 516.563 -0.416746 4.27272 0
M  V30 5665 C 515.796 -1.36806 5.15868 0
M  V30 5666 O 516.019 -2.60475 5.07454 0
M  V30 5667 O 514.953 -0.877018 5.95476 0
M  V30 5668 H 518.779 0.572882 2.98248 0
M  V30 5669 H 516.364 0.346082 1.45336 0
M  V30 5670 H 518.246 -1.72303 3.84564 0
M  V30 5671 H 516.921 -1.84967 2.65648 0
M  V30 5672 H 515.828 0.201061 3.73559 0
M  V30 5673 H 517.161 0.244872 4.9159 0
M  V30 5674 N 518.813 -1.54241 0.323641 0
M  V30 5675 C 519.763 -2.21071 -0.557833 0
M  V30 5676 C 520.747 -1.19126 -1.08157 0
M  V30 5677 O 521.939 -1.44755 -1.01857 0
M  V30 5678 C 519.068 -2.97208 -1.71821 0
M  V30 5679 C 518.154 -4.06491 -1.20936 0
M  V30 5680 N 518.545 -5.04052 -0.420202 0
M  V30 5681 C 516.843 -4.20443 -1.48808 0
M  V30 5682 C 517.544 -5.81516 -0.146413 0
M  V30 5683 N 516.52 -5.38641 -0.732562 0
M  V30 5684 H 520.322 -2.93853 0.0523921 0
M  V30 5685 H 517.836 -1.61883 0.129502 0
M  V30 5686 H 519.833 -3.4357 -2.36146 0
M  V30 5687 H 518.493 -2.25947 -2.33191 0
M  V30 5688 H 519.504 -5.17862 -0.0630401 0
M  V30 5689 H 516.181 -3.60396 -2.10762 0
M  V30 5690 H 517.571 -6.70119 0.488895 0
M  V30 5691 N 520.291 -0.0518155 -1.57515 0
M  V30 5692 C 521.707 0.304735 -1.56664 0
M  V30 5693 C 521.907 1.71395 -1.05953 0
M  V30 5694 O 520.963 2.42123 -0.716414 0
M  V30 5695 C 522.276 0.132614 -3.00407 0
M  V30 5696 C 523.824 0.20367 -3.12337 0
M  V30 5697 C 524.299 0.0600706 -4.57961 0
M  V30 5698 N 525.79 0.116326 -4.63054 0
M  V30 5699 C 526.525 0.0293363 -5.73392 0
M  V30 5700 N 526.021 -0.110038 -6.92713 0
M  V30 5701 N 527.814 0.0849651 -5.62036 0
M  V30 5702 H 519.965 -0.973056 -1.888 0
M  V30 5703 H 522.228 -0.377781 -0.869474 0
M  V30 5704 H 521.934 -0.839019 -3.41546 0
M  V30 5705 H 521.808 0.893376 -3.66468 0
M  V30 5706 H 524.195 1.16578 -2.71097 0
M  V30 5707 H 524.276 -0.587857 -2.48954 0
M  V30 5708 H 523.92 -0.898715 -4.99886 0
M  V30 5709 H 523.85 0.87075 -5.19351 0
M  V30 5710 H 526.341 0.22327 -3.7724 0
M  V30 5711 H 526.654 -0.169104 -7.72615 0
M  V30 5712 H 524.999 -0.145132 -6.94848 0
M  V30 5713 H 528.19 0.192411 -4.67704 0
M  V30 5714 H 528.363 0.0137131 -6.47999 0
M  V30 5715 N 521.769 1.56035 0.221574 0
M  V30 5716 C 522.717 1.93269 1.29421 0
M  V30 5717 C 523.711 0.814727 1.48521 0
M  V30 5718 O 524.917 0.999559 1.49696 0
M  V30 5719 H 521.292 0.614188 0.43391 0
M  V30 5720 H 523.263 2.82773 0.952987 0
M  V30 5721 C 522.012 2.26573 2.63742 0
M  V30 5722 H 521.335 3.12112 2.49853 0
M  V30 5723 H 522.775 2.5651 3.37607 0
M  V30 5724 C 521.234 1.09086 3.1875 0
M  V30 5725 O 521.764 0.351985 4.00155 0
M  V30 5726 N 519.97 0.874693 2.77124 0
M  V30 5727 H 519.517 1.47726 2.11033 0
M  V30 5728 H 519.475 0.0903349 3.1427 0
M  V30 5729 N 523.247 -0.488276 1.49845 0
M  V30 5730 C 524.177 -1.59675 1.70371 0
M  V30 5731 C 525.158 -1.60878 0.552473 0
M  V30 5732 O 526.343 -1.77417 0.78973 0
M  V30 5733 C 523.473 -2.98098 1.782 0
M  V30 5734 C 522.427 -3.11761 2.93239 0
M  V30 5735 C 521.753 -4.51661 2.86193 0
M  V30 5736 C 523.053 -2.90589 4.33999 0
M  V30 5737 H 524.747 -1.42752 2.63177 0
M  V30 5738 H 522.293 -0.685317 1.26647 0
M  V30 5739 H 524.246 -3.75555 1.91144 0
M  V30 5740 H 522.97 -3.16138 0.820018 0
M  V30 5741 H 521.629 -2.36732 2.79917 0
M  V30 5742 H 521.277 -4.66595 1.87877 0
M  V30 5743 H 520.977 -4.61742 3.63412 0
M  V30 5744 H 522.501 -5.31162 3.01163 0
M  V30 5745 H 523.915 -3.57807 4.47936 0
M  V30 5746 H 522.312 -3.1213 5.12538 0
M  V30 5747 H 523.382 -1.86595 4.4756 0
M  V30 5748 N 524.725 -1.39134 -0.740242 0
M  V30 5749 C 525.974 -1.35384 -1.49512 0
M  V30 5750 C 526.287 0.04919 -1.95538 0
M  V30 5751 O 527.493 0.209257 -2.70692 0
M  V30 5752 C 525.949 -2.37812 -2.70136 0
M  V30 5753 C 525.557 -3.83804 -2.31081 0
M  V30 5754 C 527.301 -2.4313 -3.47977 0
M  V30 5755 C 525.208 -4.77886 -3.48395 0
M  V30 5756 H 524.138 -0.503297 -0.561434 0
M  V30 5757 H 526.789 -1.64754 -0.807974 0
M  V30 5758 H 525.171 -2.01505 -3.40899 0
M  V30 5759 H 526.345 -4.29123 -1.67898 0
M  V30 5760 H 524.66 -3.81732 -1.66343 0
M  V30 5761 H 527.257 -3.10614 -4.35228 0
M  V30 5762 H 527.6 -1.45423 -3.90074 0
M  V30 5763 H 528.133 -2.78304 -2.84239 0
M  V30 5764 H 524.872 -5.76836 -3.11353 0
M  V30 5765 H 524.392 -4.3725 -4.10576 0
M  V30 5766 H 526.071 -4.96538 -4.148 0
M  V30 5767 N 526.204 0.969867 -1.24223 0
M  V30 5768 C 527.429 1.75289 -1.10853 0
M  V30 5769 C 527.854 1.85091 0.335079 0
M  V30 5770 O 527.212 1.32024 1.24255 0
M  V30 5771 C 527.26 3.15255 -1.75062 0
M  V30 5772 O 526.364 3.99589 -1.01992 0
M  V30 5773 H 525.705 0.538904 -0.387915 0
M  V30 5774 H 528.235 1.21675 -1.64488 0
M  V30 5775 H 528.245 3.65787 -1.80731 0
M  V30 5776 H 526.92 3.07436 -2.801 0
M  V30 5777 H 525.497 3.58077 -1.04094 0
M  V30 5778 N 527.682 1.05563 1.17022 0
M  V30 5779 C 528.91 0.78845 1.91288 0
M  V30 5780 C 529.325 -0.656318 1.77025 0
M  V30 5781 O 528.682 -1.44869 1.10992 0
M  V30 5782 C 528.733 1.16444 3.42232 0
M  V30 5783 O 528.454 2.5525 3.5606 0
M  V30 5784 C 529.955 0.923937 4.33565 0
M  V30 5785 H 527.175 0.286389 0.606813 0
M  V30 5786 H 529.719 1.4073 1.48375 0
M  V30 5787 H 527.874 0.590266 3.82877 0
M  V30 5788 H 528.288 2.70097 4.49609 0
M  V30 5789 H 529.762 1.23672 5.37968 0
M  V30 5790 H 530.239 -0.140688 4.38975 0
M  V30 5791 H 530.845 1.48214 3.98639 0
M  V30 5792 N 529.16 -1.33526 0.837174 0
M  V30 5793 C 530.409 -1.97098 0.428387 0
M  V30 5794 C 530.722 -1.67062 -1.01734 0
M  V30 5795 O 531.928 -2.24235 -1.53072 0
M  V30 5796 C 530.384 -3.52725 0.715075 0
M  V30 5797 C 529.992 -3.9164 2.17537 0
M  V30 5798 C 531.736 -4.22857 0.373154 0
M  V30 5799 C 529.643 -5.40237 2.40619 0
M  V30 5800 H 528.573 -0.737589 0.156455 0
M  V30 5801 H 531.224 -1.52169 1.02552 0
M  V30 5802 H 529.606 -3.95971 0.0475904 0
M  V30 5803 H 530.78 -3.59456 2.88319 0
M  V30 5804 H 529.095 -3.34485 2.4801 0
M  V30 5805 H 531.692 -5.32133 0.523264 0
M  V30 5806 H 532.035 -4.10647 -0.683708 0
M  V30 5807 H 532.568 -3.85135 0.995801 0
M  V30 5808 H 529.307 -5.57449 3.44864 0
M  V30 5809 H 528.827 -5.73887 1.74396 0
M  V30 5810 H 530.506 -6.07102 2.23688 0
M  V30 5811 N 530.638 -0.59345 -1.46 0
M  V30 5812 C 531.601 0.123538 -2.28867 0
M  V30 5813 C 532.601 0.808628 -1.38989 0
M  V30 5814 O 533.791 0.658945 -1.61256 0
M  V30 5815 C 530.923 1.1847 -3.19653 0
M  V30 5816 H 532.116 -0.604843 -2.93737 0
M  V30 5817 H 529.669 -0.351875 -1.52288 0
M  V30 5818 H 530.404 1.94431 -2.59552 0
M  V30 5819 H 530.189 0.69783 -3.8584 0
M  V30 5820 H 531.679 1.68726 -3.81997 0
M  V30 5821 N 532.116 1.54067 -0.331816 0
M  V30 5822 C 533.364 2.00319 0.267739 0
M  V30 5823 C 533.685 1.22148 1.52003 0
M  V30 5824 O 532.955 0.325494 1.93177 0
M  V30 5825 H 531.535 0.740014 0.101922 0
M  V30 5826 H 534.197 1.89628 -0.450267 0
M  V30 5827 H 533.293 3.07765 0.518385 0
M  V30 5828 N 533.594 0.0601682 1.57485 0
M  V30 5829 C 534.524 -0.90889 2.15085 0
M  V30 5830 C 535.505 -1.31838 1.07484 0
M  V30 5831 O 536.69 -1.3915 1.35466 0
M  V30 5832 C 533.82 -2.18059 2.7031 0
M  V30 5833 C 532.774 -1.91088 3.82974 0
M  V30 5834 C 532.1 -3.24789 4.24754 0
M  V30 5835 C 533.4 -1.22535 5.07723 0
M  V30 5836 H 535.094 -0.429093 2.96309 0
M  V30 5837 H 532.64 -0.204952 1.42534 0
M  V30 5838 H 534.593 -2.86258 3.09248 0
M  V30 5839 H 533.317 -2.6826 1.8629 0
M  V30 5840 H 531.976 -1.25297 3.44523 0
M  V30 5841 H 531.624 -3.72809 3.37672 0
M  V30 5842 H 531.324 -3.07538 5.00694 0
M  V30 5843 H 532.848 -3.94205 4.66299 0
M  V30 5844 H 534.262 -1.80783 5.4405 0
M  V30 5845 H 532.659 -1.1558 5.88864 0
M  V30 5846 H 533.729 -0.202692 4.84476 0
M  V30 5847 N 535.072 -1.5615 -0.213296 0
M  V30 5848 C 536.002 -1.96109 -1.26742 0
M  V30 5849 C 536.983 -0.830448 -1.48451 0
M  V30 5850 O 538.168 -1.09339 -1.60495 0
M  V30 5851 C 535.298 -2.28492 -2.61551 0
M  V30 5852 C 534.252 -3.44124 -2.54485 0
M  V30 5853 C 533.578 -3.62134 -3.93399 0
M  V30 5854 C 534.878 -4.78855 -2.08556 0
M  V30 5855 H 536.572 -2.84412 -0.935434 0
M  V30 5856 H 534.118 -1.36836 -0.44854 0
M  V30 5857 H 536.071 -2.55039 -3.3546 0
M  V30 5858 H 534.795 -1.37052 -2.96453 0
M  V30 5859 H 533.454 -3.17639 -1.83033 0
M  V30 5860 H 533.102 -2.68055 -4.25623 0
M  V30 5861 H 532.802 -4.39913 -3.89551 0
M  V30 5862 H 534.326 -3.91038 -4.68958 0
M  V30 5863 H 535.74 -5.04552 -2.72213 0
M  V30 5864 H 534.137 -5.59975 -2.1575 0
M  V30 5865 H 535.207 -4.73657 -1.03811 0
M  V30 5866 N 536.55 0.480323 -1.50102 0
M  V30 5867 C 537.797 1.23307 -1.60629 0
M  V30 5868 C 538.125 1.92135 -0.302375 0
M  V30 5869 O 537.38 1.82321 0.711154 0
M  V30 5870 C 537.679 2.30708 -2.72963 0
M  V30 5871 C 537.345 1.79195 -4.13763 0
M  V30 5872 C 536.007 1.64867 -4.52076 0
M  V30 5873 C 538.359 1.40878 -5.018 0
M  V30 5874 C 535.687 1.10631 -5.76175 0
M  V30 5875 C 538.039 0.880872 -6.26437 0
M  V30 5876 C 536.703 0.724146 -6.6356 0
M  V30 5877 H 535.973 0.451211 -0.587784 0
M  V30 5878 H 538.62 0.53051 -1.84005 0
M  V30 5879 H 536.925 3.06834 -2.43639 0
M  V30 5880 H 538.622 2.88692 -2.78313 0
M  V30 5881 H 535.212 1.91313 -3.83533 0
M  V30 5882 H 539.396 1.50786 -4.7284 0
M  V30 5883 H 534.652 0.972263 -6.0362 0
M  V30 5884 H 538.826 0.575269 -6.9402 0
M  V30 5885 H 536.453 0.301722 -7.59601 0
M  V30 5886 N 538.028 1.39524 0.732853 0
M  V30 5887 C 538.958 1.41153 1.86005 0
M  V30 5888 C 539.939 0.274614 1.67869 0
M  V30 5889 O 541.124 0.480745 1.88155 0
M  V30 5890 C 538.254 1.25638 3.23778 0
M  V30 5891 C 537.208 2.36752 3.56556 0
M  V30 5892 C 536.534 2.06326 4.93289 0
M  V30 5893 C 537.834 3.79069 3.5931 0
M  V30 5894 H 539.528 2.35484 1.84899 0
M  V30 5895 H 537.074 1.13348 0.888162 0
M  V30 5896 H 539.027 1.25398 4.0231 0
M  V30 5897 H 537.751 0.277772 3.25417 0
M  V30 5898 H 536.41 2.36213 2.80355 0
M  V30 5899 H 536.058 1.06897 4.9151 0
M  V30 5900 H 535.758 2.80757 5.16187 0
M  V30 5901 H 537.282 2.07739 5.74175 0
M  V30 5902 H 538.696 3.81526 4.27914 0
M  V30 5903 H 537.093 4.52878 3.93728 0
M  V30 5904 H 538.163 4.09893 2.59068 0
M  V30 5905 N 539.506 -0.963266 1.24736 0
M  V30 5906 C 540.453 -2.05857 1.04363 0
M  V30 5907 C 541.423 -1.6604 -0.0444951 0
M  V30 5908 O 542.608 -1.90477 0.110999 0
M  V30 5909 C 539.748 -3.38745 0.659235 0
M  V30 5910 C 538.861 -3.9173 1.82131 0
M  V30 5911 C 537.996 -5.12906 1.38208 0
M  V30 5912 C 537.035 -5.58098 2.51382 0
M  V30 5913 N 536.172 -6.7049 2.08295 0
M  V30 5914 H 541.012 -2.22616 1.98107 0
M  V30 5915 H 538.549 -1.09103 0.986661 0
M  V30 5916 H 540.507 -4.15107 0.417371 0
M  V30 5917 H 539.137 -3.21898 -0.241201 0
M  V30 5918 H 538.189 -3.11966 2.17672 0
M  V30 5919 H 539.501 -4.21225 2.67153 0
M  V30 5920 H 538.655 -5.96657 1.09935 0
M  V30 5921 H 537.394 -4.85105 0.502456 0
M  V30 5922 H 536.399 -4.72917 2.80409 0
M  V30 5923 H 537.624 -5.87911 3.39909 0
M  V30 5924 H 535.57 -6.44416 1.22737 0
M  V30 5925 H 535.487 -6.99458 2.86869 0
M  V30 5926 H 536.755 -7.57672 1.83175 0
M  V30 5927 N 540.985 -1.06182 -1.16461 0
M  V30 5928 C 542.401 -0.785065 -1.38956 0
M  V30 5929 C 542.601 0.616103 -1.9185 0
M  V30 5930 O 541.657 1.37686 -2.11657 0
M  V30 5931 C 542.97 -1.84902 -2.37132 0
M  V30 5932 C 544.518 -1.8724 -2.50819 0
M  V30 5933 C 544.993 -2.92686 -3.52277 0
M  V30 5934 N 546.484 -2.91712 -3.59803 0
M  V30 5935 C 547.219 -3.69949 -4.38093 0
M  V30 5936 N 546.715 -4.58 -5.19815 0
M  V30 5937 N 548.508 -3.58346 -4.33064 0
M  V30 5938 H 540.659 -1.96569 -0.804634 0
M  V30 5939 H 542.922 -0.851747 -0.416211 0
M  V30 5940 H 542.628 -2.85518 -2.0536 0
M  V30 5941 H 542.502 -1.69908 -3.36766 0
M  V30 5942 H 544.889 -0.872827 -2.81897 0
M  V30 5943 H 544.97 -2.06311 -1.51226 0
M  V30 5944 H 544.614 -3.92835 -3.21937 0
M  V30 5945 H 544.544 -2.70864 -4.51598 0
M  V30 5946 H 547.035 -2.27876 -3.01464 0
M  V30 5947 H 547.348 -5.14357 -5.76764 0
M  V30 5948 H 545.693 -4.62056 -5.19162 0
M  V30 5949 H 548.884 -2.88943 -3.68279 0
M  V30 5950 H 549.057 -4.19563 -4.93833 0
M  V30 5951 N 542.463 1.3308 -0.844243 0
M  V30 5952 C 543.693 2.01515 -0.455541 0
M  V30 5953 C 544.101 1.63655 0.949406 0
M  V30 5954 O 543.444 0.84848 1.62931 0
M  V30 5955 C 543.506 3.55967 -0.502801 0
M  V30 5956 C 543.17 4.17222 -1.86481 0
M  V30 5957 C 544.167 4.36205 -2.8288 0
M  V30 5958 C 541.852 4.53528 -2.15911 0
M  V30 5959 C 543.846 4.90649 -4.06869 0
M  V30 5960 C 541.533 5.07679 -3.40155 0
M  V30 5961 C 542.531 5.26186 -4.35451 0
M  V30 5962 O 542.219 5.79183 -5.57496 0
M  V30 5963 H 541.951 0.65199 -0.178565 0
M  V30 5964 H 544.505 1.70867 -1.1399 0
M  V30 5965 H 542.735 3.85965 0.23836 0
M  V30 5966 H 544.424 4.05688 -0.131169 0
M  V30 5967 H 545.19 4.085 -2.61444 0
M  V30 5968 H 541.069 4.38414 -1.42528 0
M  V30 5969 H 544.613 5.0501 -4.81259 0
M  V30 5970 H 540.51 5.34815 -3.61446 0
M  V30 5971 H 541.278 5.97591 -5.5931 0
M  V30 5972 N 543.941 0.601185 1.45683 0
M  V30 5973 C 544.889 -0.133955 2.32214 0
M  V30 5974 C 545.883 -0.866034 1.45589 0
M  V30 5975 O 547.089 -0.782326 1.6211 0
M  V30 5976 H 543.464 -0.0620613 0.749435 0
M  V30 5977 H 545.435 0.614389 2.92007 0
M  V30 5978 C 544.184 -1.12216 3.29094 0
M  V30 5979 H 543.507 -0.568273 3.95741 0
M  V30 5980 H 544.947 -1.60659 3.92383 0
M  V30 5981 C 543.406 -2.19251 2.55794 0
M  V30 5982 O 543.936 -3.26894 2.33459 0
M  V30 5983 N 542.142 -1.9436 2.16039 0
M  V30 5984 H 541.689 -1.06829 2.34404 0
M  V30 5985 H 541.647 -2.66181 1.67318 0
M  V30 5986 N 545.419 -1.53889 0.339982 0
M  V30 5987 C 546.351 -2.22435 -0.55275 0
M  V30 5988 C 547.364 -1.22975 -1.06681 0
M  V30 5989 O 548.553 -1.49351 -0.977575 0
M  V30 5990 C 545.653 -2.8882 -1.77302 0
M  V30 5991 C 544.826 -4.14563 -1.39486 0
M  V30 5992 C 543.885 -4.64391 -2.47442 0
M  V30 5993 O 542.911 -5.28687 -2.10899 0
M  V30 5994 N 544.113 -4.40015 -3.78639 0
M  V30 5995 H 546.878 -2.9968 0.0342669 0
M  V30 5996 H 544.439 -1.61068 0.16394 0
M  V30 5997 H 546.431 -3.19072 -2.48948 0
M  V30 5998 H 545.001 -2.15182 -2.26749 0
M  V30 5999 H 544.221 -3.90896 -0.509321 0
M  V30 6000 H 545.509 -4.96362 -1.11813 0
M  V30 6001 H 544.907 -3.88586 -4.11118 0
M  V30 6002 H 543.464 -4.74881 -4.46465 0
M  V30 6003 N 546.897 -0.0685191 -1.57451 0
M  V30 6004 C 547.86 0.885173 -2.11417 0
M  V30 6005 C 548.86 1.22853 -1.03748 0
M  V30 6006 O 550.05 1.16235 -1.2975 0
M  V30 6007 C 547.182 2.18964 -2.61281 0
M  V30 6008 H 548.375 0.417034 -2.96986 0
M  V30 6009 H 545.928 0.18014 -1.55258 0
M  V30 6010 H 546.663 2.70321 -1.79156 0
M  V30 6011 H 546.448 1.9534 -3.39977 0
M  V30 6012 H 547.938 2.87242 -3.0312 0
M  V30 6013 N 548.375 1.56261 0.205012 0
M  V30 6014 C 549.305 1.96779 1.257 0
M  V30 6015 C 550.286 0.838309 1.48008 0
M  V30 6016 O 551.471 1.10189 1.59913 0
M  V30 6017 C 548.601 2.29876 2.60335 0
M  V30 6018 C 547.555 3.45469 2.52656 0
M  V30 6019 C 546.881 3.64215 3.91473 0
M  V30 6020 C 548.181 4.79954 2.06014 0
M  V30 6021 H 549.875 2.84904 0.920338 0
M  V30 6022 H 547.421 1.37072 0.441277 0
M  V30 6023 H 549.374 2.56814 3.34102 0
M  V30 6024 H 548.098 1.38622 2.95722 0
M  V30 6025 H 546.757 3.18605 1.81345 0
M  V30 6026 H 546.405 2.70309 4.24196 0
M  V30 6027 H 546.105 4.41973 3.87213 0
M  V30 6028 H 547.629 3.93519 4.66878 0
M  V30 6029 H 549.043 5.05989 2.69533 0
M  V30 6030 H 547.44 5.61111 2.12777 0
M  V30 6031 H 548.51 4.74201 1.01297 0
M  V30 6032 N 549.853 -0.472356 1.50355 0
M  V30 6033 C 550.763 -1.59637 1.7191 0
M  V30 6034 C 551.779 -1.63247 0.602195 0
M  V30 6035 O 552.955 -1.81139 0.880369 0
M  V30 6036 C 550.02 -2.9586 1.80742 0
M  V30 6037 C 549.081 -3.02649 3.04471 0
M  V30 6038 C 548.314 -4.32374 3.12872 0
M  V30 6039 O 548.537 -5.22807 2.28099 0
M  V30 6040 O 547.471 -4.44728 4.05587 0
M  V30 6041 H 551.297 -1.44373 2.67189 0
M  V30 6042 H 548.882 -0.651717 1.34436 0
M  V30 6043 H 550.764 -3.7677 1.88739 0
M  V30 6044 H 549.439 -3.11325 0.88647 0
M  V30 6045 H 548.346 -2.20821 3.01975 0
M  V30 6046 H 549.679 -2.92119 3.9614 0
M  V30 6047 N 551.331 -1.39911 -0.725443 0
M  V30 6048 C 552.261 -1.42138 -1.85254 0
M  V30 6049 C 553.242 -0.283513 -1.67721 0
M  V30 6050 O 554.427 -0.490717 -1.87898 0
M  V30 6051 C 551.557 -1.27354 -3.23107 0
M  V30 6052 C 550.511 -2.3864 -3.55296 0
M  V30 6053 C 549.837 -2.08939 -4.92188 0
M  V30 6054 C 551.137 -3.8097 -3.57295 0
M  V30 6055 H 552.831 -2.36461 -1.83648 0
M  V30 6056 H 550.377 -1.13817 -0.882138 0
M  V30 6057 H 552.33 -1.2753 -4.01639 0
M  V30 6058 H 551.054 -0.295025 -3.25265 0
M  V30 6059 H 549.713 -2.37696 -2.79099 0
M  V30 6060 H 549.361 -1.09502 -4.90936 0
M  V30 6061 H 549.061 -2.83491 -5.14691 0
M  V30 6062 H 550.585 -2.10781 -5.73065 0
M  V30 6063 H 551.999 -3.8379 -4.25885 0
M  V30 6064 H 550.396 -4.5496 -3.9132 0
M  V30 6065 H 551.466 -4.11261 -2.5689 0
M  V30 6066 N 552.809 0.956637 -1.25245 0
M  V30 6067 C 554.058 1.69537 -1.0927 0
M  V30 6068 C 554.371 1.92136 0.366503 0
M  V30 6069 O 555.577 2.63687 0.64665 0
M  V30 6070 C 554.033 3.05211 -1.9072 0
M  V30 6071 C 553.641 2.90416 -3.41119 0
M  V30 6072 C 555.385 3.82882 -1.83308 0
M  V30 6073 C 553.292 4.21468 -4.14872 0
M  V30 6074 H 552.222 0.635804 -0.405302 0
M  V30 6075 H 554.873 1.06513 -1.49423 0
M  V30 6076 H 553.255 3.69128 -1.43389 0
M  V30 6077 H 554.429 2.35444 -3.9611 0
M  V30 6078 H 552.744 2.26203 -3.49602 0
M  V30 6079 H 555.341 4.79944 -2.35706 0
M  V30 6080 H 555.684 4.0853 -0.800572 0
M  V30 6081 H 556.217 3.25711 -2.28379 0
M  V30 6082 H 552.956 4.01009 -5.18529 0
M  V30 6083 H 552.476 4.76213 -3.64665 0
M  V30 6084 H 554.155 4.90022 -4.22478 0
M  V30 6085 N 554.287 1.06798 1.15896 0
M  V30 6086 C 555.219 0.641263 2.20046 0
M  V30 6087 C 556.232 -0.303355 1.59949 0
M  V30 6088 O 557.421 -0.0935478 1.78255 0
M  V30 6089 C 554.521 -0.0794029 3.38807 0
M  V30 6090 C 553.694 0.879986 4.28457 0
M  V30 6091 C 552.753 0.197638 5.25829 0
M  V30 6092 O 551.779 0.836913 5.63014 0
M  V30 6093 N 552.981 -1.05886 5.70761 0
M  V30 6094 H 555.746 1.53718 2.57276 0
M  V30 6095 H 553.307 0.951951 1.30956 0
M  V30 6096 H 555.299 -0.546418 4.00994 0
M  V30 6097 H 553.869 -0.877193 3.0004 0
M  V30 6098 H 553.089 1.52625 3.63454 0
M  V30 6099 H 554.377 1.53065 4.8523 0
M  V30 6100 H 553.775 -1.59828 5.42652 0
M  V30 6101 H 552.332 -1.46965 6.35015 0
M  V30 6102 N 555.766 -1.3263 0.851289 0
M  V30 6103 C 556.698 -2.27824 0.250757 0
M  V30 6104 C 557.711 -1.52285 -0.575598 0
M  V30 6105 O 558.9 -1.73946 -0.400638 0
M  V30 6106 C 556 -3.3232 -0.664571 0
M  V30 6107 C 555.173 -4.37221 0.125187 0
M  V30 6108 C 554.232 -5.21314 -0.715385 0
M  V30 6109 O 553.258 -5.69002 -0.150111 0
M  V30 6110 N 554.46 -5.43823 -2.03069 0
M  V30 6111 H 557.225 -2.79997 1.06873 0
M  V30 6112 H 554.786 -1.45455 0.710943 0
M  V30 6113 H 556.778 -3.85486 -1.23216 0
M  V30 6114 H 555.348 -2.80331 -1.38323 0
M  V30 6115 H 554.568 -3.84384 0.874199 0
M  V30 6116 H 555.856 -5.04399 0.667774 0
M  V30 6117 H 555.254 -5.06803 -2.51332 0
M  V30 6118 H 553.811 -5.99998 -2.54648 0
M  V30 6119 N 557.244 -0.608902 -1.45362 0
M  V30 6120 C 558.176 0.147318 -2.28726 0
M  V30 6121 C 559.189 0.830468 -1.40025 0
M  V30 6122 O 560.378 0.695636 -1.64387 0
M  V30 6123 C 557.478 1.22968 -3.15804 0
M  V30 6124 C 556.651 0.633391 -4.3279 0
M  V30 6125 C 555.71 1.60682 -5.01067 0
M  V30 6126 O 554.736 1.13261 -5.57818 0
M  V30 6127 N 555.938 2.94123 -5.00472 0
M  V30 6128 H 558.703 -0.568014 -2.94268 0
M  V30 6129 H 556.264 -0.448479 -1.55564 0
M  V30 6130 H 558.256 1.88072 -3.58345 0
M  V30 6131 H 556.826 1.84752 -2.52162 0
M  V30 6132 H 556.046 -0.195762 -3.93714 0
M  V30 6133 H 557.334 0.215255 -5.08344 0
M  V30 6134 H 556.732 3.3525 -4.55657 0
M  V30 6135 H 555.289 3.54646 -5.46872 0
M  V30 6136 N 558.722 1.53707 -0.348139 0
M  V30 6137 C 559.947 2.05877 0.250883 0
M  V30 6138 C 560.372 1.22115 1.43072 0
M  V30 6139 O 559.73 0.235986 1.79758 0
M  V30 6140 C 559.778 3.54886 0.639416 0
M  V30 6141 O 558.882 3.73948 1.73888 0
M  V30 6142 H 558.223 0.662754 0.040653 0
M  V30 6143 H 560.753 1.98303 -0.503685 0
M  V30 6144 H 560.763 3.97601 0.915295 0
M  V30 6145 H 559.438 4.153 -0.223386 0
M  V30 6146 H 558.015 3.43134 1.45991 0
M  V30 6147 N 560.2 0.0768682 1.57412 0
M  V30 6148 C 561.11 -0.903207 2.16516 0
M  V30 6149 C 562.126 -1.32341 1.12968 0
M  V30 6150 O 563.302 -1.39507 1.45258 0
M  V30 6151 C 560.367 -2.1508 2.71922 0
M  V30 6152 C 559.428 -1.78653 3.90361 0
M  V30 6153 C 558.661 -2.97465 4.43114 0
M  V30 6154 O 558.884 -4.11638 3.94854 0
M  V30 6155 O 557.818 -2.76987 5.3438 0
M  V30 6156 H 561.644 -0.430427 3.00634 0
M  V30 6157 H 559.229 -0.146485 1.4868 0
M  V30 6158 H 561.111 -2.8823 3.07411 0
M  V30 6159 H 559.786 -2.61446 1.9086 0
M  V30 6160 H 558.693 -1.0274 3.59716 0
M  V30 6161 H 560.026 -1.37066 4.7273 0
M  V30 6162 N 561.678 -1.56367 -0.196722 0
M  V30 6163 C 562.903 -1.84991 -0.937714 0
M  V30 6164 C 563.328 -0.660244 -1.76132 0
M  V30 6165 O 562.686 0.390967 -1.77034 0
M  V30 6166 C 562.734 -3.11828 -1.81096 0
M  V30 6167 O 561.838 -2.92266 -2.90955 0
M  V30 6168 H 561.179 -0.609193 -0.264159 0
M  V30 6169 H 563.709 -2.03595 -0.202529 0
M  V30 6170 H 563.719 -3.42579 -2.21594 0
M  V30 6171 H 562.394 -3.98037 -1.2058 0
M  V30 6172 H 560.971 -2.72809 -2.54224 0
M  V30 6173 N 563.156 0.464375 -1.50603 0
M  V30 6174 C 564.106 1.55929 -1.66343 0
M  V30 6175 C 565.09 1.52338 -0.517887 0
M  V30 6176 O 566.282 1.59248 -0.772601 0
M  V30 6177 C 563.411 2.94327 -1.7671 0
M  V30 6178 C 562.497 3.02777 -2.96962 0
M  V30 6179 N 562.888 2.81026 -4.20545 0
M  V30 6180 C 561.186 3.33919 -2.95659 0
M  V30 6181 C 561.887 2.94618 -5.01573 0
M  V30 6182 N 560.863 3.25112 -4.35664 0
M  V30 6183 H 564.665 1.37822 -2.59581 0
M  V30 6184 H 562.179 0.671227 -1.47879 0
M  V30 6185 H 564.176 3.73063 -1.86091 0
M  V30 6186 H 562.836 3.13476 -0.846353 0
M  V30 6187 H 563.847 2.56477 -4.49933 0
M  V30 6188 H 560.524 3.59013 -2.13111 0
M  V30 6189 H 561.914 2.81984 -6.09865 0
M  V30 6190 N 564.634 1.40294 0.718013 0
M  V30 6191 C 565.566 1.36281 1.84283 0
M  V30 6192 C 566.579 0.268621 1.60569 0
M  V30 6193 O 567.768 0.528798 1.70487 0
M  V30 6194 C 564.868 1.09741 3.2064 0
M  V30 6195 C 564.041 2.30767 3.71571 0
M  V30 6196 C 563.1 2.00424 4.86535 0
M  V30 6197 O 562.126 2.73268 4.99313 0
M  V30 6198 N 563.328 0.980724 5.72156 0
M  V30 6199 H 566.093 2.3322 1.88225 0
M  V30 6200 H 563.654 1.34616 0.899453 0
M  V30 6201 H 565.646 0.874322 3.95143 0
M  V30 6202 H 564.216 0.214771 3.11861 0
M  V30 6203 H 563.436 2.68921 2.88228 0
M  V30 6204 H 564.724 3.11455 4.02335 0
M  V30 6205 H 564.122 0.377375 5.6444 0
M  V30 6206 H 562.679 0.817538 6.46653 0
M  V30 6207 N 566.112 -0.949982 1.2575 0
M  V30 6208 C 567.059 -2.04738 1.06541 0
M  V30 6209 C 568.029 -1.66078 -0.0268818 0
M  V30 6210 O 569.214 -1.90348 0.131196 0
M  V30 6211 C 566.354 -3.38027 0.695127 0
M  V30 6212 C 565.467 -3.89776 1.86276 0
M  V30 6213 C 564.602 -5.11411 1.4364 0
M  V30 6214 C 563.641 -5.554 2.57287 0
M  V30 6215 N 562.778 -6.68244 2.15395 0
M  V30 6216 H 567.618 -2.20502 2.00457 0
M  V30 6217 H 565.155 -1.0805 0.998178 0
M  V30 6218 H 567.113 -4.14641 0.461375 0
M  V30 6219 H 565.743 -3.22135 -0.207046 0
M  V30 6220 H 564.795 -3.0964 2.20969 0
M  V30 6221 H 566.107 -4.18368 2.71606 0
M  V30 6222 H 565.261 -5.95457 1.16257 0
M  V30 6223 H 564 -4.84545 0.553879 0
M  V30 6224 H 563.005 -4.69916 2.85409 0
M  V30 6225 H 564.23 -5.84272 3.46125 0
M  V30 6226 H 562.176 -6.43078 1.29565 0
M  V30 6227 H 562.093 -6.96377 2.94272 0
M  V30 6228 H 563.361 -7.55687 1.91201 0
M  V30 6229 N 567.59 -1.07411 -1.15328 0
M  V30 6230 C 568.836 -0.798831 -1.86404 0
M  V30 6231 C 569.169 0.673433 -1.8215 0
M  V30 6232 O 568.444 1.49428 -1.24505 0
M  V30 6233 C 568.727 -1.30846 -3.35487 0
M  V30 6234 C 568.58 -2.84532 -3.4837 0
M  V30 6235 C 569.899 -0.925486 -4.30259 0
M  V30 6236 H 567.018 -0.291659 -0.676834 0
M  V30 6237 H 569.66 -1.332 -1.35491 0
M  V30 6238 H 567.81 -0.854916 -3.78977 0
M  V30 6239 H 569.482 -3.3818 -3.13739 0
M  V30 6240 H 567.725 -3.22699 -2.8991 0
M  V30 6241 H 568.396 -3.15259 -4.53118 0
M  V30 6242 H 570.872 -1.3163 -3.94731 0
M  V30 6243 H 569.748 -1.3094 -5.33053 0
M  V30 6244 H 570.009 0.168525 -4.41779 0
M  V30 6245 N 569.068 1.32177 -0.85831 0
M  V30 6246 C 570.317 1.96392 -0.459689 0
M  V30 6247 C 570.63 1.68659 0.990632 0
M  V30 6248 O 571.836 2.26641 1.49485 0
M  V30 6249 C 570.292 3.51542 -0.7711 0
M  V30 6250 C 569.9 3.8813 -2.2374 0
M  V30 6251 C 571.644 4.2221 -0.44038 0
M  V30 6252 C 569.551 5.36341 -2.49183 0
M  V30 6253 H 568.481 0.735007 -0.168169 0
M  V30 6254 H 571.132 1.50518 -1.0496 0
M  V30 6255 H 569.514 3.95846 -0.11058 0
M  V30 6256 H 570.688 3.54824 -2.94001 0
M  V30 6257 H 569.003 3.30497 -2.533 0
M  V30 6258 H 571.6 5.31234 -0.607855 0
M  V30 6259 H 571.943 4.11683 0.618291 0
M  V30 6260 H 572.476 3.83502 -1.05695 0
M  V30 6261 H 569.215 5.51892 -3.53689 0
M  V30 6262 H 568.735 5.7104 -1.83504 0
M  V30 6263 H 570.414 6.03466 -2.33318 0
M  V30 6264 N 570.547 0.616602 1.45037 0
M  V30 6265 C 571.824 0.0469086 1.95544 0
M  V30 6266 C 572.204 -1.42345 1.55888 0
M  V30 6267 O 571.552 -2.13055 0.825824 0
M  V30 6268 C 571.762 0.254489 3.48071 0
M  V30 6269 C 573.11 0.140025 4.24369 0
M  V30 6270 O 574.134 0.185084 3.55719 0
M  V30 6271 O 572.993 0.0327034 5.4649 0
M  V30 6272 H 570.087 -0.0306051 0.826433 0
M  V30 6273 H 572.633 0.687293 1.55159 0
M  V30 6274 H 571.405 1.27532 3.69934 0
M  V30 6275 H 571.028 -0.42073 3.95368 0
M  V30 6276 N 572.025 -1.5352 0.356285 0
M  V30 6277 C 573.272 -2.01117 -0.236303 0
M  V30 6278 C 573.6 -1.24381 -1.49531 0
M  V30 6279 O 572.855 -0.323057 -1.93015 0
M  V30 6280 C 573.154 -3.52607 -0.583369 0
M  V30 6281 C 572.82 -4.47151 0.58023 0
M  V30 6282 C 571.482 -4.72718 0.899528 0
M  V30 6283 C 573.834 -5.03137 1.36024 0
M  V30 6284 C 571.162 -5.51523 2.00098 0
M  V30 6285 C 573.514 -5.83145 2.45204 0
M  V30 6286 C 572.178 -6.07001 2.77679 0
M  V30 6287 H 571.448 -0.735938 -0.0864695 0
M  V30 6288 H 574.095 -1.85209 0.48683 0
M  V30 6289 H 572.4 -3.66413 -1.38739 0
M  V30 6290 H 574.097 -3.86901 -1.05397 0
M  V30 6291 H 570.687 -4.27394 0.321322 0
M  V30 6292 H 574.871 -4.83339 1.12682 0
M  V30 6293 H 570.127 -5.68229 2.25668 0
M  V30 6294 H 574.301 -6.25537 3.06067 0
M  V30 6295 H 571.928 -6.67851 3.63151 0
M  V30 6296 N 573.503 -0.0852151 -1.57369 0
M  V30 6297 C 574.752 0.580443 -1.93168 0
M  V30 6298 C 575.065 1.6995 -0.968319 0
M  V30 6299 O 576.271 2.42564 -1.21963 0
M  V30 6300 C 574.727 1.08386 -3.43192 0
M  V30 6301 C 574.335 -0.00491388 -4.48 0
M  V30 6302 C 576.079 1.72281 -3.87968 0
M  V30 6303 C 573.986 0.513299 -5.89168 0
M  V30 6304 H 572.916 0.22059 -0.72101 0
M  V30 6305 H 575.567 -0.159621 -1.82804 0
M  V30 6306 H 573.949 1.8773 -3.48674 0
M  V30 6307 H 575.123 -0.780032 -4.5415 0
M  V30 6308 H 573.438 -0.548453 -4.12772 0
M  V30 6309 H 576.035 2.12108 -4.9083 0
M  V30 6310 H 576.378 2.58811 -3.26071 0
M  V30 6311 H 576.911 0.995359 -3.85146 0
M  V30 6312 H 573.65 -0.315153 -6.54742 0
M  V30 6313 H 573.17 1.25564 -5.8651 0
M  V30 6314 H 574.849 0.985433 -6.39451 0
M  V30 6315 N 574.981 1.5647 0.188427 0
M  V30 6316 C 575.944 1.9421 1.21718 0
M  V30 6317 C 576.944 0.823901 1.38089 0
M  V30 6318 O 578.134 1.09122 1.35787 0
M  V30 6319 C 575.266 2.22197 2.58537 0
M  V30 6320 H 576.459 2.86252 0.894418 0
M  V30 6321 H 574.012 1.50263 0.430211 0
M  V30 6322 H 574.747 1.32814 2.95856 0
M  V30 6323 H 574.532 3.03688 2.48025 0
M  V30 6324 H 576.022 2.52376 3.3271 0
M  V30 6325 N 576.459 -0.456382 1.50847 0
M  V30 6326 C 577.875 -0.791345 1.386 0
M  V30 6327 C 578.075 -1.9633 0.453498 0
M  V30 6328 O 577.131 -2.52308 -0.0984353 0
M  V30 6329 C 578.444 -1.08959 2.80265 0
M  V30 6330 C 579.992 -1.19517 2.89283 0
M  V30 6331 C 580.467 -1.52647 4.31814 0
M  V30 6332 N 581.958 -1.59609 4.34832 0
M  V30 6333 C 582.693 -1.86777 5.42127 0
M  V30 6334 N 582.189 -2.11866 6.59609 0
M  V30 6335 N 583.982 -1.88402 5.29586 0
M  V30 6336 H 576.133 0.315746 2.1004 0
M  V30 6337 H 578.396 0.0787916 0.94472 0
M  V30 6338 H 578.102 -0.301355 3.50407 0
M  V30 6339 H 577.976 -2.02211 3.18419 0
M  V30 6340 H 580.363 -1.97406 2.19351 0
M  V30 6341 H 580.444 -0.242111 2.54652 0
M  V30 6342 H 580.088 -0.752922 5.02288 0
M  V30 6343 H 580.018 -2.49127 4.63943 0
M  V30 6344 H 582.509 -1.42201 3.50125 0
M  V30 6345 H 582.822 -2.31912 7.37182 0
M  V30 6346 H 581.167 -2.09228 6.62758 0
M  V30 6347 H 584.358 -1.68307 4.36795 0
M  V30 6348 H 584.531 -2.09238 6.13289 0
M  V30 6349 N 577.937 -1.40673 -0.710563 0
M  V30 6350 C 578.885 -1.41517 -1.84596 0
M  V30 6351 C 579.879 -0.295043 -1.66811 0
M  V30 6352 O 581.085 -0.466331 -1.73854 0
M  V30 6353 H 577.46 -0.442467 -0.608052 0
M  V30 6354 H 579.431 -2.37238 -1.80999 0
M  V30 6355 C 578.18 -1.29957 -3.225 0
M  V30 6356 H 577.503 -2.15429 -3.36794 0
M  V30 6357 H 578.943 -1.34608 -4.02066 0
M  V30 6358 C 577.402 -0.0103164 -3.36898 0
M  V30 6359 O 577.932 0.950707 -3.90288 0
M  V30 6360 N 576.138 0.0608409 -2.90536 0
M  V30 6361 H 575.685 -0.721943 -2.47277 0
M  V30 6362 H 575.643 0.92292 -3.00549 0
M  V30 6363 N 579.415 0.9433 -1.26252 0
M  V30 6364 C 580.662 1.68925 -1.11672 0
M  V30 6365 C 580.99 1.91499 0.340329 0
M  V30 6366 O 580.245 1.49189 1.26653 0
M  V30 6367 C 580.544 3.07073 -1.82868 0
M  V30 6368 C 580.21 3.04262 -3.32769 0
M  V30 6369 C 578.872 3.03203 -3.7366 0
M  V30 6370 C 581.224 2.96729 -4.28487 0
M  V30 6371 C 578.552 2.92373 -5.0866 0
M  V30 6372 C 580.904 2.87442 -5.63525 0
M  V30 6373 C 579.568 2.84724 -6.03729 0
M  V30 6374 H 578.838 0.618141 -0.408635 0
M  V30 6375 H 581.485 1.10124 -1.56668 0
M  V30 6376 H 579.79 3.69486 -1.30335 0
M  V30 6377 H 581.487 3.63635 -1.69029 0
M  V30 6378 H 578.077 3.05865 -3.00241 0
M  V30 6379 H 582.261 2.96658 -3.97879 0
M  V30 6380 H 577.517 2.88645 -5.38975 0
M  V30 6381 H 581.691 2.80576 -6.37377 0
M  V30 6382 H 579.318 2.76089 -7.08293 0
M  V30 6383 N 580.893 1.08022 1.14757 0
M  V30 6384 C 581.825 0.664566 2.19354 0
M  V30 6385 C 582.838 -0.286374 1.60261 0
M  V30 6386 O 584.027 -0.0746362 1.78344 0
M  V30 6387 C 581.127 -0.0434634 3.38872 0
M  V30 6388 C 580.3 0.925381 4.27499 0
M  V30 6389 C 579.359 0.253398 5.2559 0
M  V30 6390 O 578.385 0.896581 5.62094 0
M  V30 6391 N 579.587 -0.998263 5.71852 0
M  V30 6392 H 582.352 1.56438 2.55631 0
M  V30 6393 H 579.913 0.965788 1.29939 0
M  V30 6394 H 581.905 -0.503857 4.01551 0
M  V30 6395 H 580.475 -0.845321 3.00954 0
M  V30 6396 H 579.695 1.56472 3.61815 0
M  V30 6397 H 580.983 1.58203 4.8358 0
M  V30 6398 H 580.381 -1.54063 5.44317 0
M  V30 6399 H 578.938 -1.40222 6.36538 0
M  V30 6400 N 582.371 -1.3172 0.865308 0
M  V30 6401 C 583.648 -1.91574 0.394789 0
M  V30 6402 C 584.028 -1.78769 -1.12271 0
M  V30 6403 O 583.376 -1.19245 -1.94918 0
M  V30 6404 C 583.586 -3.37957 0.870982 0
M  V30 6405 C 584.934 -4.15073 0.894384 0
M  V30 6406 O 585.958 -3.4672 0.816325 0
M  V30 6407 O 584.817 -5.37151 1.00651 0
M  V30 6408 H 581.911 -0.818649 0.117229 0
M  V30 6409 H 584.457 -1.4042 0.952913 0
M  V30 6410 H 583.229 -3.41269 1.91444 0
M  V30 6411 H 582.852 -3.96534 0.290907 0
M  V30 6412 N 583.85 -0.624285 -1.44708 0
M  V30 6413 C 584.798 0.0969952 -2.32398 0
M  V30 6414 C 585.792 0.842762 -1.46949 0
M  V30 6415 O 586.998 0.756436 -1.63334 0
M  V30 6416 H 583.373 0.0501306 -0.750327 0
M  V30 6417 H 585.344 -0.660767 -2.90992 0
M  V30 6418 C 584.093 1.06967 -3.30837 0
M  V30 6419 H 583.416 0.505242 -3.96595 0
M  V30 6420 H 584.856 1.54397 -3.94889 0
M  V30 6421 C 583.315 2.15153 -2.5925 0
M  V30 6422 O 583.845 3.23139 -2.3863 0
M  V30 6423 N 582.051 1.90898 -2.19103 0
M  V30 6424 H 581.598 1.03086 -2.36074 0
M  V30 6425 H 581.556 2.63485 -1.71531 0
M  V30 6426 N 585.328 1.53329 -0.364422 0
M  V30 6427 C 586.278 2.22472 0.499024 0
M  V30 6428 C 587.262 1.21952 1.0496 0
M  V30 6429 O 588.454 1.47405 0.979836 0
M  V30 6430 C 585.583 3.01659 1.6388 0
M  V30 6431 C 584.669 4.09555 1.10116 0
M  V30 6432 N 585.06 5.04988 0.286414 0
M  V30 6433 C 583.358 4.2424 1.37608 0
M  V30 6434 C 584.059 5.81699 -0.00781682 0
M  V30 6435 N 583.035 5.40394 0.589494 0
M  V30 6436 H 586.837 2.93611 -0.130284 0
M  V30 6437 H 584.351 1.61483 -0.172377 0
M  V30 6438 H 586.348 3.4971 2.26954 0
M  V30 6439 H 585.008 2.32051 2.27118 0
M  V30 6440 H 586.019 5.17847 -0.0742839 0
M  V30 6441 H 582.696 3.65858 2.01133 0
M  V30 6442 H 584.086 6.68587 -0.666394 0
M  V30 6443 N 586.806 0.0935595 1.57322 0
M  V30 6444 C 587.736 -0.863062 2.16964 0
M  V30 6445 C 588.717 -1.29528 1.10256 0
M  V30 6446 O 589.902 -1.36245 1.38387 0
M  V30 6447 C 587.032 -2.12276 2.74875 0
M  V30 6448 C 585.986 -1.82921 3.86942 0
M  V30 6449 C 585.312 -3.15707 4.31548 0
M  V30 6450 C 586.612 -1.11737 5.10208 0
M  V30 6451 H 588.306 -0.366145 2.97153 0
M  V30 6452 H 585.852 -0.174673 1.42937 0
M  V30 6453 H 587.805 -2.79634 3.1525 0
M  V30 6454 H 586.529 -2.64248 1.91938 0
M  V30 6455 H 585.188 -1.17961 3.47103 0
M  V30 6456 H 584.836 -3.65563 3.45504 0
M  V30 6457 H 584.536 -2.96849 5.07104 0
M  V30 6458 H 586.06 -3.84226 4.74555 0
M  V30 6459 H 587.474 -1.69203 5.47762 0
M  V30 6460 H 585.871 -1.03064 5.91183 0
M  V30 6461 H 586.941 -0.0998818 4.84797 0
M  V30 6462 N 588.284 -1.56567 -0.180126 0
M  V30 6463 C 589.247 -1.94852 -1.20686 0
M  V30 6464 C 590.247 -0.831212 -1.3765 0
M  V30 6465 O 591.437 -1.09841 -1.35206 0
M  V30 6466 C 588.569 -2.23565 -2.57355 0
M  V30 6467 H 589.762 -2.86722 -0.879225 0
M  V30 6468 H 587.315 -1.50489 -0.422237 0
M  V30 6469 H 588.05 -1.34381 -2.95148 0
M  V30 6470 H 587.835 -3.04999 -2.46411 0
M  V30 6471 H 589.325 -2.54137 -3.31367 0
M  V30 6472 N 589.762 0.448376 -1.51087 0
M  V30 6473 C 591.01 1.19635 -1.62886 0
M  V30 6474 C 591.331 1.91977 -0.342024 0
M  V30 6475 O 590.601 1.85094 0.641636 0
M  V30 6476 H 589.181 0.444598 -0.600285 0
M  V30 6477 H 591.843 0.515138 -1.87969 0
M  V30 6478 H 590.939 1.93194 -2.45117 0
M  V30 6479 N 591.24 1.41047 0.703093 0
M  V30 6480 C 592.17 1.45067 1.82969 0
M  V30 6481 C 593.151 0.31016 1.67248 0
M  V30 6482 O 594.336 0.520548 1.87093 0
M  V30 6483 C 591.466 1.32478 3.2104 0
M  V30 6484 C 590.42 2.44262 3.51454 0
M  V30 6485 C 589.746 2.16742 4.88801 0
M  V30 6486 C 591.046 3.86606 3.51189 0
M  V30 6487 H 592.74 2.39353 1.79863 0
M  V30 6488 H 590.286 1.15206 0.863919 0
M  V30 6489 H 592.239 1.33904 3.99559 0
M  V30 6490 H 590.963 0.346735 3.24754 0
M  V30 6491 H 589.622 2.42107 2.75282 0
M  V30 6492 H 589.27 1.17299 4.89132 0
M  V30 6493 H 588.97 2.91643 5.10116 0
M  V30 6494 H 590.494 2.19872 5.69639 0
M  V30 6495 H 591.908 3.90517 4.19725 0
M  V30 6496 H 590.305 4.61128 3.84033 0
M  V30 6497 H 591.375 4.15296 2.50315 0
M  V30 6498 N 592.718 -0.936591 1.26751 0
M  V30 6499 C 593.648 -2.05315 1.11212 0
M  V30 6500 C 594.629 -1.70092 0.0160262 0
M  V30 6501 O 595.814 -1.93279 0.188894 0
M  V30 6502 C 592.944 -3.39123 0.749171 0
M  V30 6503 C 591.898 -3.88425 1.79751 0
M  V30 6504 C 591.224 -5.18936 1.28876 0
M  V30 6505 C 592.524 -4.12798 3.19992 0
M  V30 6506 H 594.218 -2.18573 2.04613 0
M  V30 6507 H 591.764 -1.05027 0.985159 0
M  V30 6508 H 593.717 -4.16704 0.627323 0
M  V30 6509 H 592.441 -3.25855 -0.220543 0
M  V30 6510 H 591.1 -3.13028 1.90811 0
M  V30 6511 H 590.748 -5.02051 0.308757 0
M  V30 6512 H 590.448 -5.52892 1.98958 0
M  V30 6513 H 591.972 -5.99096 1.17967 0
M  V30 6514 H 593.386 -4.80977 3.11983 0
M  V30 6515 H 591.783 -4.58044 3.87705 0
M  V30 6516 H 592.853 -3.18412 3.65707 0
M  V30 6517 N 594.196 -1.08629 -1.14182 0
M  V30 6518 C 595.445 -0.812271 -1.84621 0
M  V30 6519 C 595.758 0.664313 -1.83973 0
M  V30 6520 O 596.964 1.05357 -2.50224 0
M  V30 6521 C 595.42 -1.4031 -3.31423 0
M  V30 6522 C 595.028 -2.91164 -3.40481 0
M  V30 6523 C 596.772 -1.20767 -4.06959 0
M  V30 6524 C 594.679 -3.43373 -4.81507 0
M  V30 6525 H 593.609 -0.30019 -0.691666 0
M  V30 6526 H 596.26 -1.30798 -1.28701 0
M  V30 6527 H 594.642 -0.835096 -3.87094 0
M  V30 6528 H 595.816 -3.5412 -2.94848 0
M  V30 6529 H 594.131 -3.09646 -2.78403 0
M  V30 6530 H 596.728 -1.57237 -5.11058 0
M  V30 6531 H 597.071 -0.147664 -4.16038 0
M  V30 6532 H 597.604 -1.74274 -3.57594 0
M  V30 6533 H 594.343 -4.48958 -4.77616 0
M  V30 6534 H 593.863 -2.85176 -5.27669 0
M  V30 6535 H 595.542 -3.40095 -5.50404 0
M  V30 6536 N 595.674 1.31259 -0.872281 0
M  V30 6537 C 596.922 1.96233 -0.483409 0
M  V30 6538 C 597.243 1.69276 0.968012 0
M  V30 6539 O 596.513 1.00943 1.67891 0
M  V30 6540 H 595.093 0.726025 -0.175774 0
M  V30 6541 H 597.755 1.60024 -1.11258 0
M  V30 6542 H 596.851 3.05403 -0.643075 0
M  V30 6543 N 597.152 0.631951 1.44375 0
M  V30 6544 C 598.099 -0.0724807 2.30686 0
M  V30 6545 C 599.069 -0.835975 1.43529 0
M  V30 6546 O 600.254 -0.816849 1.7243 0
M  V30 6547 C 597.394 -1.04753 3.28817 0
M  V30 6548 C 596.507 -0.282367 4.31076 0
M  V30 6549 C 595.642 -1.2493 5.163 0
M  V30 6550 C 594.681 -0.473349 6.10267 0
M  V30 6551 N 593.818 -1.39079 6.88187 0
M  V30 6552 H 598.658 0.669477 2.90383 0
M  V30 6553 H 596.195 0.341927 1.43071 0
M  V30 6554 H 598.153 -1.62623 3.842 0
M  V30 6555 H 596.783 -1.75661 2.70819 0
M  V30 6556 H 595.835 0.412268 3.78159 0
M  V30 6557 H 597.147 0.321955 4.9776 0
M  V30 6558 H 596.301 -1.89931 5.76204 0
M  V30 6559 H 595.04 -1.88755 4.49692 0
M  V30 6560 H 594.045 0.190142 5.49471 0
M  V30 6561 H 595.27 0.16019 6.78911 0
M  V30 6562 H 593.216 -2.01623 6.24247 0
M  V30 6563 H 593.133 -0.840513 7.51313 0
M  V30 6564 H 594.401 -2.02961 7.52613 0
M  V30 6565 N 598.631 -1.53133 0.372548 0
M  V30 6566 C 599.861 -2.05476 -0.215202 0
M  V30 6567 C 600.269 -1.24534 -1.42436 0
M  V30 6568 O 599.612 -0.280771 -1.81542 0
M  V30 6569 C 599.674 -3.53276 -0.666068 0
M  V30 6570 C 599.338 -4.54998 0.427342 0
M  V30 6571 C 600.335 -5.03911 1.27944 0
M  V30 6572 C 598.02 -4.98828 0.589579 0
M  V30 6573 C 600.014 -5.95263 2.27905 0
M  V30 6574 C 597.701 -5.89984 1.59255 0
M  V30 6575 C 598.699 -6.38093 2.43571 0
M  V30 6576 O 598.387 -7.27451 3.42156 0
M  V30 6577 H 598.119 -0.67481 -0.040099 0
M  V30 6578 H 600.673 -1.98409 0.531312 0
M  V30 6579 H 598.903 -3.57904 -1.4643 0
M  V30 6580 H 600.592 -3.88442 -1.1776 0
M  V30 6581 H 601.358 -4.70792 1.16532 0
M  V30 6582 H 597.237 -4.60965 -0.0569456 0
M  V30 6583 H 600.781 -6.32736 2.93753 0
M  V30 6584 H 596.678 -6.22518 1.70711 0
M  V30 6585 H 597.446 -7.45467 3.37967 0
M  V30 6586 N 600.109 -0.101901 -1.5727 0
M  V30 6587 C 601.339 0.567568 -1.98651 0
M  V30 6588 C 601.747 1.61839 -0.980037 0
M  V30 6589 O 601.09 1.83661 0.0376564 0
M  V30 6590 C 601.152 1.26742 -3.36417 0
M  V30 6591 C 600.816 0.366561 -4.55528 0
M  V30 6592 C 601.813 -0.388022 -5.1845 0
M  V30 6593 C 599.498 0.282629 -5.01504 0
M  V30 6594 C 601.492 -1.21445 -6.25724 0
M  V30 6595 C 599.179 -0.547443 -6.08643 0
M  V30 6596 C 600.177 -1.29462 -6.70618 0
M  V30 6597 O 599.865 -2.11095 -7.7569 0
M  V30 6598 H 599.597 0.156282 -0.657687 0
M  V30 6599 H 602.151 -0.179912 -2.04611 0
M  V30 6600 H 600.381 2.06162 -3.27161 0
M  V30 6601 H 602.07 1.8321 -3.622 0
M  V30 6602 H 602.836 -0.332949 -4.83856 0
M  V30 6603 H 598.715 0.853868 -4.53023 0
M  V30 6604 H 602.259 -1.79814 -6.74027 0
M  V30 6605 H 598.156 -0.603971 -6.42668 0
M  V30 6606 H 598.924 -2.03851 -7.92709 0
M  V30 6607 N 601.587 1.56661 0.17182 0
M  V30 6608 C 603.003 1.50768 0.52357 0
M  V30 6609 C 603.203 0.806072 1.84675 0
M  V30 6610 O 602.259 0.366233 2.4983 0
M  V30 6611 C 603.572 2.955 0.556793 0
M  V30 6612 C 605.12 3.06303 0.644029 0
M  V30 6613 C 605.595 4.52492 0.708148 0
M  V30 6614 N 607.086 4.56737 0.771051 0
M  V30 6615 C 607.821 5.67196 0.841229 0
M  V30 6616 N 607.317 6.87287 0.872272 0
M  V30 6617 N 609.11 5.55165 0.88021 0
M  V30 6618 H 601.261 2.00679 -0.695817 0
M  V30 6619 H 603.524 0.914219 -0.250814 0
M  V30 6620 H 603.23 3.49986 -0.346774 0
M  V30 6621 H 603.104 3.50119 1.40346 0
M  V30 6622 H 605.491 2.51851 1.53802 0
M  V30 6623 H 605.572 2.5477 -0.229297 0
M  V30 6624 H 605.216 5.07575 -0.181585 0
M  V30 6625 H 605.146 5.01781 1.59761 0
M  V30 6626 H 607.637 3.70274 0.755364 0
M  V30 6627 H 607.95 7.6722 0.92698 0
M  V30 6628 H 606.295 6.89898 0.840557 0
M  V30 6629 H 609.486 4.60263 0.852956 0
M  V30 6630 H 609.659 6.41271 0.931439 0
M  V30 6631 N 603.065 -0.440357 1.51323 0
M  V30 6632 C 604.028 -1.51679 1.71832 0
M  V30 6633 C 605.028 -1.49648 0.588386 0
M  V30 6634 O 606.218 -1.51724 0.855891 0
M  V30 6635 C 603.35 -2.91228 1.77199 0
M  V30 6636 H 604.543 -1.34799 2.67898 0
M  V30 6637 H 602.096 -0.66883 1.41267 0
M  V30 6638 H 602.831 -3.13516 0.829363 0
M  V30 6639 H 602.616 -2.94107 2.59314 0
M  V30 6640 H 604.106 -3.69321 1.94915 0
M  V30 6641 N 604.543 -1.41418 -0.695603 0
M  V30 6642 C 605.49 -1.43264 -1.80954 0
M  V30 6643 C 606.46 -0.287016 -1.63601 0
M  V30 6644 O 607.645 -0.488054 -1.84452 0
M  V30 6645 C 604.785 -1.32054 -3.18835 0
M  V30 6646 C 603.898 -2.56485 -3.4762 0
M  V30 6647 C 603.033 -2.3757 -4.75115 0
M  V30 6648 C 602.072 -3.57477 -4.96867 0
M  V30 6649 N 601.209 -3.37632 -6.15588 0
M  V30 6650 H 606.049 -2.38467 -1.78711 0
M  V30 6651 H 603.586 -1.18415 -0.872715 0
M  V30 6652 H 605.544 -1.23558 -3.98484 0
M  V30 6653 H 604.174 -0.404592 -3.20254 0
M  V30 6654 H 603.226 -2.75432 -2.62376 0
M  V30 6655 H 604.538 -3.45678 -3.59594 0
M  V30 6656 H 603.692 -2.2654 -5.62818 0
M  V30 6657 H 602.431 -1.45834 -4.65386 0
M  V30 6658 H 601.436 -3.68961 -4.07612 0
M  V30 6659 H 602.661 -4.50167 -5.08455 0
M  V30 6660 H 600.607 -2.48596 -6.07072 0
M  V30 6661 H 600.524 -4.20401 -6.2833 0
M  V30 6662 H 601.792 -3.30375 -7.06026 0
M  V30 6663 N 606.021 0.929856 -1.27246 0
M  V30 6664 C 606.931 2.0636 -1.11592 0
M  V30 6665 C 607.947 1.73938 -0.046496 0
M  V30 6666 O 609.123 1.9981 -0.252544 0
M  V30 6667 C 606.188 3.38213 -0.762437 0
M  V30 6668 C 605.249 3.84346 -1.9125 0
M  V30 6669 C 604.482 5.09906 -1.57579 0
M  V30 6670 O 604.705 5.68354 -0.482694 0
M  V30 6671 O 603.639 5.51359 -2.41426 0
M  V30 6672 H 607.465 2.22478 -2.0673 0
M  V30 6673 H 605.05 1.04865 -1.06413 0
M  V30 6674 H 606.932 4.1741 -0.57854 0
M  V30 6675 H 605.607 3.23307 0.159439 0
M  V30 6676 H 604.514 3.06045 -2.15144 0
M  V30 6677 H 605.847 4.0379 -2.81451 0
M  V30 6678 N 607.499 1.09233 1.13605 0
M  V30 6679 C 608.429 0.751738 2.21068 0
M  V30 6680 C 609.41 -0.269688 1.67948 0
M  V30 6681 O 610.595 -0.13819 1.93708 0
M  V30 6682 C 607.725 0.16935 3.46887 0
M  V30 6683 C 606.679 1.12007 4.13084 0
M  V30 6684 C 606.005 0.399483 5.33206 0
M  V30 6685 C 607.305 2.46168 4.6065 0
M  V30 6686 H 608.999 1.65024 2.49815 0
M  V30 6687 H 606.545 0.794905 1.20072 0
M  V30 6688 H 608.498 -0.0809824 4.21322 0
M  V30 6689 H 607.222 -0.764335 3.1753 0
M  V30 6690 H 605.881 1.35564 3.40614 0
M  V30 6691 H 605.529 -0.538277 5.00112 0
M  V30 6692 H 605.229 1.03337 5.78442 0
M  V30 6693 H 606.753 0.157403 6.10397 0
M  V30 6694 H 608.167 2.26829 5.26518 0
M  V30 6695 H 606.564 3.05326 5.1662 0
M  V30 6696 H 607.634 3.07076 3.75276 0
M  V30 6697 N 608.977 -1.30795 0.87923 0
M  V30 6698 C 610.225 -1.95974 0.493809 0
M  V30 6699 C 610.546 -1.69787 -0.959021 0
M  V30 6700 O 609.816 -1.01832 -1.67353 0
M  V30 6701 H 608.396 -0.725083 0.179622 0
M  V30 6702 H 611.058 -1.59432 1.12105 0
M  V30 6703 H 610.154 -3.05058 0.659263 0
M  V30 6704 N 610.455 -0.639598 -1.44038 0
M  V30 6705 C 611.385 0.0469443 -2.33453 0
M  V30 6706 C 612.366 0.82609 -1.48694 0
M  V30 6707 O 613.551 0.790285 -1.77393 0
M  V30 6708 C 610.681 1.02338 -3.3188 0
M  V30 6709 C 609.635 0.355284 -4.26523 0
M  V30 6710 C 608.961 1.44221 -5.14883 0
M  V30 6711 C 610.261 -0.743798 -5.16977 0
M  V30 6712 H 611.955 -0.699735 -2.91108 0
M  V30 6713 H 609.501 -0.337946 -1.39978 0
M  V30 6714 H 611.454 1.51247 -3.93322 0
M  V30 6715 H 610.178 1.80105 -2.72451 0
M  V30 6716 H 608.837 -0.113239 -3.66425 0
M  V30 6717 H 608.485 2.21097 -4.51802 0
M  V30 6718 H 608.185 1.00052 -5.79019 0
M  V30 6719 H 609.709 1.93295 -5.79197 0
M  V30 6720 H 611.123 -0.337444 -5.72306 0
M  V30 6721 H 609.52 -1.10914 -5.89761 0
M  V30 6722 H 610.59 -1.60745 -4.57481 0
M  V30 6723 N 611.933 1.52934 -0.380664 0
M  V30 6724 C 612.843 2.29921 0.466192 0
M  V30 6725 C 613.859 1.36488 1.07922 0
M  V30 6726 O 615.035 1.69553 1.0869 0
M  V30 6727 C 612.1 3.08468 1.58266 0
M  V30 6728 C 611.161 4.17595 0.995627 0
M  V30 6729 C 610.394 4.92387 2.05889 0
M  V30 6730 O 610.617 4.67184 3.27254 0
M  V30 6731 O 609.551 5.77949 1.68102 0
M  V30 6732 H 613.377 3.03274 -0.160735 0
M  V30 6733 H 610.962 1.48698 -0.144617 0
M  V30 6734 H 612.844 3.57469 2.23145 0
M  V30 6735 H 611.519 2.37937 2.19471 0
M  V30 6736 H 610.426 3.72811 0.310332 0
M  V30 6737 H 611.759 4.90336 0.427918 0
M  V30 6738 N 613.412 0.11024 1.57214 0
M  V30 6739 C 614.342 -0.840002 2.17867 0
M  V30 6740 C 615.323 -1.28352 1.11624 0
M  V30 6741 O 616.508 -1.3477 1.39824 0
M  V30 6742 C 613.638 -2.09349 2.77111 0
M  V30 6743 C 612.592 -1.78807 3.8886 0
M  V30 6744 C 611.918 -3.11112 4.34872 0
M  V30 6745 C 613.218 -1.0632 5.11364 0
M  V30 6746 H 614.912 -0.334608 2.97524 0
M  V30 6747 H 612.458 -0.159502 1.43114 0
M  V30 6748 H 614.411 -2.76275 3.18198 0
M  V30 6749 H 613.135 -2.62198 1.9473 0
M  V30 6750 H 611.794 -1.14273 3.48335 0
M  V30 6751 H 611.442 -3.61877 3.49362 0
M  V30 6752 H 611.142 -2.91453 5.10224 0
M  V30 6753 H 612.666 -3.79171 4.78604 0
M  V30 6754 H 614.08 -1.63383 5.49526 0
M  V30 6755 H 612.477 -0.967876 5.92243 0
M  V30 6756 H 613.547 -0.0484569 4.84876 0
M  V30 6757 N 614.89 -1.56749 -0.16351 0
M  V30 6758 C 616.139 -1.81626 -0.877211 0
M  V30 6759 C 616.452 -0.688791 -1.83071 0
M  V30 6760 O 617.658 -0.822697 -2.58735 0
M  V30 6761 C 616.114 -3.21858 -1.61045 0
M  V30 6762 C 615.722 -4.42494 -0.700195 0
M  V30 6763 C 617.466 -3.56021 -2.31192 0
M  V30 6764 C 615.373 -5.73748 -1.43412 0
M  V30 6765 H 614.303 -0.67731 -0.331312 0
M  V30 6766 H 616.954 -1.83039 -0.13006 0
M  V30 6767 H 615.336 -3.14784 -2.40264 0
M  V30 6768 H 616.51 -4.60766 0.0555849 0
M  V30 6769 H 614.825 -4.1626 -0.10799 0
M  V30 6770 H 617.422 -4.51333 -2.8671 0
M  V30 6771 H 617.765 -2.81277 -3.06902 0
M  V30 6772 H 618.298 -3.64682 -1.58909 0
M  V30 6773 H 615.037 -6.51543 -0.719186 0
M  V30 6774 H 614.557 -5.5944 -2.16302 0
M  V30 6775 H 616.236 -6.15975 -1.9795 0
M  V30 6776 N 616.368 0.432326 -1.51554 0
M  V30 6777 C 617.615 1.18134 -1.64471 0
M  V30 6778 C 617.943 1.91076 -0.363349 0
M  V30 6779 O 617.198 1.84492 0.65279 0
M  V30 6780 C 617.497 2.21907 -2.80164 0
M  V30 6781 C 617.163 1.65941 -4.19255 0
M  V30 6782 C 615.825 1.50401 -4.57092 0
M  V30 6783 C 618.177 1.24843 -5.06027 0
M  V30 6784 C 615.505 0.922443 -5.79403 0
M  V30 6785 C 617.857 0.68113 -6.28922 0
M  V30 6786 C 616.521 0.512673 -6.65528 0
M  V30 6787 H 615.791 0.432283 -0.601841 0
M  V30 6788 H 618.438 0.471701 -1.856 0
M  V30 6789 H 616.743 2.98928 -2.53277 0
M  V30 6790 H 618.44 2.79691 -2.87357 0
M  V30 6791 H 615.03 1.79014 -3.89425 0
M  V30 6792 H 619.214 1.35667 -4.77397 0
M  V30 6793 H 614.47 0.779733 -6.06408 0
M  V30 6794 H 618.644 0.35418 -6.95499 0
M  V30 6795 H 616.271 0.0599084 -7.60176 0
M  V30 6796 N 617.846 1.41785 0.688094 0
M  V30 6797 C 619.123 1.32031 1.44316 0
M  V30 6798 C 619.503 -0.0486079 2.11044 0
M  V30 6799 O 618.851 -1.06332 2.02252 0
M  V30 6800 C 619.061 2.47906 2.45649 0
M  V30 6801 C 620.409 2.89415 3.10683 0
M  V30 6802 O 621.433 2.477 2.55975 0
M  V30 6803 O 620.292 3.61573 4.09789 0
M  V30 6804 H 617.386 0.519994 0.643067 0
M  V30 6805 H 619.932 1.53765 0.71794 0
M  V30 6806 H 618.704 3.39222 1.95048 0
M  V30 6807 H 618.327 2.28089 3.25671 0
M  V30 6808 N 619.324 -0.923095 1.27737 0
M  V30 6809 C 620.735 -1.48626 1.12993 0
M  V30 6810 C 621.086 -1.94142 -0.283439 0
M  V30 6811 O 620.211 -1.81605 -1.17681 0
M  V30 6812 C 620.806 -2.70117 2.04505 0
M  V30 6813 C 619.365 -3.22642 1.93853 0
M  V30 6814 C 618.512 -1.95368 1.96791 0
M  V30 6815 H 621.463 -0.736737 1.40563 0
M  V30 6816 H 621.484 -3.4506 1.60356 0
M  V30 6817 H 620.996 -2.36959 3.07363 0
M  V30 6818 H 619.097 -3.60549 0.939968 0
M  V30 6819 H 619.21 -3.88525 2.80331 0
M  V30 6820 H 617.574 -2.12061 1.41076 0
M  V30 6821 H 618.357 -1.64517 3.01312 0
M  V30 6822 N 620.802 -1.09834 -1.13024 0
M  V30 6823 C 621.765 -0.745058 -2.16752 0
M  V30 6824 C 622.765 0.227435 -1.59183 0
M  V30 6825 O 623.955 0.0050786 -1.74199 0
M  V30 6826 C 621.087 -0.102543 -3.40746 0
M  V30 6827 H 622.28 -1.66375 -2.49518 0
M  V30 6828 H 619.833 -0.898061 -1.27924 0
M  V30 6829 H 620.568 0.827177 -3.13573 0
M  V30 6830 H 620.353 -0.80235 -3.83803 0
M  V30 6831 H 621.843 0.129082 -4.174 0
M  V30 6832 N 622.28 1.30327 -0.886154 0
M  V30 6833 C 623.52 1.97886 -0.511912 0
M  V30 6834 C 623.884 1.68417 0.921944 0
M  V30 6835 O 625.085 2.29319 1.40237 0
M  V30 6836 C 623.356 3.48775 -0.780444 0
M  V30 6837 S 624.915 4.35844 -0.508482 0
M  V30 6838 H 621.733 0.685024 -0.190428 0
M  V30 6839 H 624.335 1.58413 -1.14567 0
M  V30 6840 H 623.039 3.67714 -1.82248 0
M  V30 6841 H 622.57 3.93171 -0.134284 0
M  V30 6842 H 624.585 4.91893 0.65239 0
M  V30 6843 N 623.758 0.647228 1.43697 0
M  V30 6844 C 625.005 0.158188 2.01881 0
M  V30 6845 C 625.333 -1.22573 1.51017 0
M  V30 6846 O 624.588 -1.83086 0.69122 0
M  V30 6847 C 624.887 0.111481 3.57226 0
M  V30 6848 C 624.553 1.43633 4.27411 0
M  V30 6849 C 623.215 1.79915 4.463 0
M  V30 6850 C 625.567 2.31011 4.67208 0
M  V30 6851 C 622.895 3.03251 5.02251 0
M  V30 6852 C 625.247 3.53633 5.24525 0
M  V30 6853 C 623.911 3.90118 5.41631 0
M  V30 6854 H 623.181 0.0578851 0.738736 0
M  V30 6855 H 625.828 0.836746 1.72252 0
M  V30 6856 H 624.133 -0.650507 3.86362 0
M  V30 6857 H 625.83 -0.283682 3.99995 0
M  V30 6858 H 622.42 1.14403 4.1305 0
M  V30 6859 H 626.604 2.04272 4.52313 0
M  V30 6860 H 621.86 3.31575 5.13681 0
M  V30 6861 H 626.034 4.21561 5.5431 0
M  V30 6862 H 623.661 4.85768 5.84751 0
M  V30 6863 N 625.236 -1.5273 0.388769 0
M  V30 6864 C 626.482 -2.01871 -0.193877 0
M  V30 6865 C 626.815 -1.27475 -1.46505 0
M  V30 6866 O 626.09 -0.375063 -1.90849 0
M  V30 6867 C 626.373 -3.5712 -0.462336 0
M  V30 6868 C 626.226 -4.42186 0.824091 0
M  V30 6869 C 627.545 -4.21881 -1.25319 0
M  V30 6870 H 624.664 -0.733764 -0.0689899 0
M  V30 6871 H 627.306 -1.82796 0.518231 0
M  V30 6872 H 625.456 -3.73504 -1.06896 0
M  V30 6873 H 627.128 -4.37554 1.46096 0
M  V30 6874 H 625.371 -4.09219 1.43952 0
M  V30 6875 H 626.042 -5.48828 0.590905 0
M  V30 6876 H 628.518 -4.0947 -0.73981 0
M  V30 6877 H 627.394 -5.30487 -1.40977 0
M  V30 6878 H 627.655 -3.79478 -2.26824 0
M  V30 6879 N 626.714 -0.118576 -1.57153 0
M  V30 6880 C 627.991 0.583062 -1.86708 0
M  V30 6881 C 628.371 1.84841 -1.01967 0
M  V30 6882 O 627.719 2.28288 -0.0984673 0
M  V30 6883 C 627.929 0.875912 -3.3783 0
M  V30 6884 C 629.277 1.22916 -4.0642 0
M  V30 6885 O 630.301 0.966188 -3.42846 0
M  V30 6886 O 629.16 1.72269 -5.18638 0
M  V30 6887 H 626.254 0.294185 -0.772906 0
M  V30 6888 H 628.8 -0.153048 -1.69008 0
M  V30 6889 H 627.572 -0.0207776 -3.91294 0
M  V30 6890 H 627.195 1.66719 -3.60958 0
M  V30 6891 N 628.193 1.56834 0.155195 0
M  V30 6892 C 629.609 1.51315 0.50755 0
M  V30 6893 C 629.809 0.825614 1.83809 0
M  V30 6894 O 628.865 0.39271 2.49427 0
M  V30 6895 C 630.178 2.96074 0.52542 0
M  V30 6896 C 631.726 3.06968 0.611505 0
M  V30 6897 C 632.201 4.53218 0.660115 0
M  V30 6898 N 633.692 4.5753 0.722564 0
M  V30 6899 C 634.427 5.68056 0.781023 0
M  V30 6900 N 633.923 6.88173 0.799327 0
M  V30 6901 N 635.716 5.56068 0.821278 0
M  V30 6902 H 627.867 1.9993 -0.717063 0
M  V30 6903 H 630.13 0.911507 -0.260496 0
M  V30 6904 H 629.836 3.49599 -0.383875 0
M  V30 6905 H 629.71 3.51587 1.36624 0
M  V30 6906 H 632.097 2.53468 1.51122 0
M  V30 6907 H 632.178 2.54513 -0.256306 0
M  V30 6908 H 631.822 5.07354 -0.23541 0
M  V30 6909 H 631.752 5.03447 1.5443 0
M  V30 6910 H 634.243 3.71054 0.716049 0
M  V30 6911 H 634.556 7.6816 0.845553 0
M  V30 6912 H 632.901 6.90751 0.767337 0
M  V30 6913 H 636.092 4.61142 0.804091 0
M  V30 6914 H 636.265 6.42223 0.863372 0
M  V30 6915 N 629.671 -0.424282 1.51781 0
M  V30 6916 C 630.601 -1.52305 1.7699 0
M  V30 6917 C 631.582 -1.5839 0.620209 0
M  V30 6918 O 632.767 -1.73908 0.864268 0
M  V30 6919 C 629.897 -2.90271 1.90683 0
M  V30 6920 C 628.851 -2.99043 3.06198 0
M  V30 6921 C 628.177 -4.39116 3.05092 0
M  V30 6922 C 629.477 -2.7192 4.45934 0
M  V30 6923 H 631.171 -1.31461 2.68995 0
M  V30 6924 H 628.717 -0.630985 1.29439 0
M  V30 6925 H 630.67 -3.6711 2.06901 0
M  V30 6926 H 629.394 -3.12376 0.953365 0
M  V30 6927 H 628.053 -2.24646 2.89706 0
M  V30 6928 H 627.701 -4.58207 2.07498 0
M  V30 6929 H 627.401 -4.45912 3.82669 0
M  V30 6930 H 628.925 -5.17911 3.2342 0
M  V30 6931 H 630.339 -3.38487 4.62709 0
M  V30 6932 H 628.736 -2.90111 5.25315 0
M  V30 6933 H 629.806 -1.67445 4.55072 0
M  V30 6934 N 631.149 -1.42148 -0.680565 0
M  V30 6935 C 632.56 -1.3768 -1.26099 0
M  V30 6936 C 632.911 -0.0672348 -1.96085 0
M  V30 6937 O 632.036 0.834172 -1.99676 0
M  V30 6938 C 632.631 -2.49387 -2.29328 0
M  V30 6939 C 631.19 -2.4827 -2.82911 0
M  V30 6940 C 630.337 -2.2847 -1.57152 0
M  V30 6941 H 633.288 -1.51446 -0.474326 0
M  V30 6942 H 633.309 -2.19307 -3.10941 0
M  V30 6943 H 632.821 -3.44686 -1.78363 0
M  V30 6944 H 630.922 -1.56773 -3.38013 0
M  V30 6945 H 631.035 -3.45109 -3.3232 0
M  V30 6946 H 629.399 -1.76623 -1.83511 0
M  V30 6947 H 630.182 -3.25816 -1.0816 0
M  V30 6948 N 632.627 0.916307 -1.28225 0
M  V30 6949 C 633.855 1.69901 -1.18073 0
M  V30 6950 C 634.27 1.86988 0.260968 0
M  V30 6951 O 633.627 1.39505 1.17663 0
M  V30 6952 C 633.678 3.09254 -1.87201 0
M  V30 6953 O 633.399 2.92959 -3.2574 0
M  V30 6954 C 634.9 4.0362 -1.83319 0
M  V30 6955 H 632.12 0.531181 -0.409985 0
M  V30 6956 H 634.664 1.14703 -1.69303 0
M  V30 6957 H 632.819 3.61277 -1.39848 0
M  V30 6958 H 633.233 3.81139 -3.60324 0
M  V30 6959 H 634.707 4.98873 -2.36282 0
M  V30 6960 H 635.184 4.3176 -0.805007 0
M  V30 6961 H 635.79 3.57524 -2.3034 0
M  V30 6962 N 634.105 1.10431 1.1244 0
M  V30 6963 C 635.068 0.756542 2.16354 0
M  V30 6964 C 636.068 -0.21899 1.59302 0
M  V30 6965 O 637.258 0.00415969 1.742 0
M  V30 6966 C 634.39 0.120612 3.40687 0
M  V30 6967 H 635.583 1.67696 2.48632 0
M  V30 6968 H 633.136 0.904832 1.27446 0
M  V30 6969 H 633.871 -0.810536 3.14008 0
M  V30 6970 H 633.656 0.822693 3.83372 0
M  V30 6971 H 635.146 -0.106945 4.17463 0
M  V30 6972 N 635.583 -1.29855 0.893053 0
M  V30 6973 C 636.513 -2.3035 0.382249 0
M  V30 6974 C 637.494 -1.61328 -0.539203 0
M  V30 6975 O 638.679 -1.88882 -0.451342 0
M  V30 6976 C 635.809 -3.45024 -0.396983 0
M  V30 6977 C 634.763 -4.258 0.433437 0
M  V30 6978 C 634.089 -5.32605 -0.472889 0
M  V30 6979 C 635.389 -4.94549 1.67984 0
M  V30 6980 H 637.083 -2.73325 1.22205 0
M  V30 6981 H 634.629 -1.314 0.589073 0
M  V30 6982 H 636.582 -4.14398 -0.765024 0
M  V30 6983 H 635.306 -3.00875 -1.2705 0
M  V30 6984 H 633.965 -3.58125 0.783723 0
M  V30 6985 H 633.613 -4.84702 -1.34435 0
M  V30 6986 H 633.313 -5.87547 0.0789958 0
M  V30 6987 H 634.837 -6.04832 -0.837269 0
M  V30 6988 H 636.251 -5.56395 1.38192 0
M  V30 6989 H 634.648 -5.59393 2.17254 0
M  V30 6990 H 635.718 -4.20215 2.41965 0
M  V30 6991 N 637.061 -0.65484 -1.43351 0
M  V30 6992 C 638.286 -0.175046 -2.0666 0
M  V30 6993 C 638.711 1.15104 -1.4877 0
M  V30 6994 O 638.069 1.71144 -0.598279 0
M  V30 6995 C 638.117 -0.0991544 -3.60464 0
M  V30 6996 O 637.221 0.938169 -4.01587 0
M  V30 6997 H 636.562 -0.0956148 -0.65708 0
M  V30 6998 H 639.092 -0.898222 -1.83829 0
M  V30 6999 H 639.102 0.083632 -4.07914 0
M  V30 7000 H 637.777 -1.06719 -4.01975 0
M  V30 7001 H 636.354 0.72804 -3.65724 0
M  V30 7002 N 638.539 1.52521 -0.396863 0
M  V30 7003 C 639.489 2.2348 0.451722 0
M  V30 7004 C 640.473 1.2415 1.0235 0
M  V30 7005 O 641.665 1.4945 0.948348 0
M  V30 7006 C 638.794 3.05067 1.57445 0
M  V30 7007 C 637.88 4.11799 1.01404 0
M  V30 7008 N 638.271 5.05482 0.179234 0
M  V30 7009 C 636.569 4.27064 1.28578 0
M  V30 7010 C 637.27 5.81552 -0.131202 0
M  V30 7011 N 636.246 5.41523 0.474735 0
M  V30 7012 H 640.048 2.93269 -0.192534 0
M  V30 7013 H 637.562 1.61081 -0.206591 0
M  V30 7014 H 639.559 3.54446 2.19485 0
M  V30 7015 H 638.219 2.36816 2.22145 0
M  V30 7016 H 639.23 5.17573 -0.18411 0
M  V30 7017 H 635.907 3.70042 1.93327 0
M  V30 7018 H 637.297 6.67023 -0.808061 0
M  V30 7019 N 640.017 0.126909 1.57088 0
M  V30 7020 C 640.965 -0.837618 2.16995 0
M  V30 7021 C 641.959 -1.26974 1.12133 0
M  V30 7022 O 643.165 -1.24056 1.30423 0
M  V30 7023 H 639.54 -0.288256 0.694559 0
M  V30 7024 H 641.511 -0.307957 2.96807 0
M  V30 7025 C 640.26 -2.07474 2.79016 0
M  V30 7026 H 639.583 -1.75117 3.59408 0
M  V30 7027 H 641.023 -2.72949 3.24461 0
M  V30 7028 C 639.482 -2.86967 1.76498 0
M  V30 7029 O 640.012 -3.82625 1.22316 0
M  V30 7030 N 638.218 -2.51111 1.46258 0
M  V30 7031 H 637.765 -1.73389 1.90509 0
M  V30 7032 H 637.723 -3.04594 0.779085 0
M  V30 7033 N 641.495 -1.56914 -0.146875 0
M  V30 7034 C 642.405 -2.0154 -1.20079 0
M  V30 7035 C 643.421 -0.930838 -1.47008 0
M  V30 7036 O 644.597 -1.24032 -1.58676 0
M  V30 7037 C 641.662 -2.38715 -2.51428 0
M  V30 7038 C 640.723 -3.6112 -2.32145 0
M  V30 7039 C 639.956 -3.96512 -3.57231 0
M  V30 7040 O 640.179 -3.32566 -4.63418 0
M  V30 7041 O 639.113 -4.89758 -3.49887 0
M  V30 7042 H 642.939 -2.91506 -0.851924 0
M  V30 7043 H 640.524 -1.45106 -0.355607 0
M  V30 7044 H 642.406 -2.63485 -3.28867 0
M  V30 7045 H 641.081 -1.51903 -2.85845 0
M  V30 7046 H 639.988 -3.41536 -1.52656 0
M  V30 7047 H 641.321 -4.48549 -2.02644 0
M  V30 7048 N 642.974 0.416227 -1.52004 0
M  V30 7049 C 644.22 1.16233 -1.66917 0
M  V30 7050 C 644.575 1.8839 -0.390763 0
M  V30 7051 O 643.868 1.81479 0.614478 0
M  V30 7052 C 644.062 2.18923 -2.82502 0
M  V30 7053 C 643.891 1.56849 -4.2146 0
M  V30 7054 C 642.661 1.34426 -4.87091 0
M  V30 7055 C 644.859 1.03322 -5.03815 0
M  V30 7056 N 642.841 0.681703 -6.10103 0
M  V30 7057 C 644.212 0.497165 -6.18003 0
M  V30 7058 C 646.267 0.926997 -4.89194 0
M  V30 7059 C 644.97 -0.134687 -7.19174 0
M  V30 7060 C 646.996 0.309009 -5.90592 0
M  V30 7061 C 646.358 -0.216399 -7.04068 0
M  V30 7062 H 642.457 0.412252 -0.664509 0
M  V30 7063 H 645.041 0.455758 -1.89291 0
M  V30 7064 H 643.212 2.86946 -2.61756 0
M  V30 7065 H 644.944 2.85844 -2.86488 0
M  V30 7066 H 641.699 1.61183 -4.45328 0
M  V30 7067 H 642.123 0.367256 -6.76003 0
M  V30 7068 H 646.765 1.31904 -4.01698 0
M  V30 7069 H 644.483 -0.538811 -8.06302 0
M  V30 7070 H 648.069 0.228438 -5.81351 0
M  V30 7071 H 646.949 -0.687064 -7.81184 0
M  V30 7072 N 644.452 1.42507 0.673017 0
M  V30 7073 C 645.701 1.42364 1.42883 0
M  V30 7074 C 646.014 0.0441598 1.9555 0
M  V30 7075 O 647.22 -0.0798679 2.71382 0
M  V30 7076 C 645.676 2.5043 2.58482 0
M  V30 7077 C 645.284 3.94392 2.12506 0
M  V30 7078 C 647.028 2.59455 3.35981 0
M  V30 7079 C 644.935 4.93964 3.25198 0
M  V30 7080 H 643.865 0.52951 0.536782 0
M  V30 7081 H 646.516 1.68422 0.728448 0
M  V30 7082 H 644.898 2.1754 3.30896 0
M  V30 7083 H 646.072 4.36645 1.47233 0
M  V30 7084 H 644.387 3.89233 1.4794 0
M  V30 7085 H 646.984 3.31025 4.19912 0
M  V30 7086 H 647.327 1.63869 3.82691 0
M  V30 7087 H 647.86 2.91549 2.70637 0
M  V30 7088 H 644.599 5.91034 2.83477 0
M  V30 7089 H 644.119 4.56341 3.89247 0
M  V30 7090 H 645.798 5.15763 3.90637 0
M  V30 7091 N 645.93 -0.909495 1.28709 0
M  V30 7092 C 647.155 -1.69801 1.1909 0
M  V30 7093 C 647.58 -1.86479 -0.246388 0
M  V30 7094 O 646.938 -1.37802 -1.17815 0
M  V30 7095 C 646.986 -3.06543 1.89904 0
M  V30 7096 O 646.09 -3.94268 1.2094 0
M  V30 7097 H 645.431 -0.519783 0.413185 0
M  V30 7098 H 647.961 -1.13689 1.70106 0
M  V30 7099 H 647.971 -3.56748 1.97977 0
M  V30 7100 H 646.646 -2.93722 2.94449 0
M  V30 7101 H 645.223 -3.52702 1.2106 0
M  V30 7102 N 647.408 -1.11026 -1.11852 0
M  V30 7103 C 648.657 -0.851249 -1.82857 0
M  V30 7104 C 648.97 0.62514 -1.85341 0
M  V30 7105 O 650.176 1.00026 -2.52403 0
M  V30 7106 C 648.632 -1.47309 -3.28372 0
M  V30 7107 C 648.24 -2.9832 -3.34229 0
M  V30 7108 C 649.984 -1.29373 -4.04306 0
M  V30 7109 C 647.891 -3.53509 -4.74115 0
M  V30 7110 H 646.821 -0.314794 -0.685143 0
M  V30 7111 H 649.472 -1.33499 -1.25898 0
M  V30 7112 H 647.854 -0.917017 -3.85236 0
M  V30 7113 H 649.028 -3.60295 -2.87271 0
M  V30 7114 H 647.343 -3.15482 -2.71772 0
M  V30 7115 H 649.94 -1.68042 -5.07608 0
M  V30 7116 H 650.283 -0.235879 -4.15631 0
M  V30 7117 H 650.816 -1.8182 -3.53817 0
M  V30 7118 H 647.555 -4.58987 -4.67986 0
M  V30 7119 H 647.075 -2.96305 -5.21501 0
M  V30 7120 H 648.754 -3.51693 -5.43066 0
M  V30 7121 N 648.886 1.2938 -0.899927 0
M  V30 7122 C 650.132 1.9584 -0.526742 0
M  V30 7123 C 650.465 1.70774 0.924651 0
M  V30 7124 O 649.74 1.02084 1.65557 0
M  V30 7125 C 650.023 3.50638 -0.820062 0
M  V30 7126 C 649.876 3.85161 -2.32317 0
M  V30 7127 C 651.195 4.3903 -0.30671 0
M  V30 7128 H 648.314 0.711322 -0.192848 0
M  V30 7129 H 650.956 1.52992 -1.12665 0
M  V30 7130 H 649.106 3.87265 -0.309491 0
M  V30 7131 H 650.778 3.58477 -2.9033 0
M  V30 7132 H 649.021 3.32696 -2.78381 0
M  V30 7133 H 649.692 4.93204 -2.47898 0
M  V30 7134 H 652.168 4.09396 -0.743908 0
M  V30 7135 H 651.044 5.46226 -0.541144 0
M  V30 7136 H 651.305 4.34937 0.792588 0
M  V30 7137 N 650.364 0.662433 1.43002 0
M  V30 7138 C 651.612 0.179237 2.01304 0
M  V30 7139 C 651.933 -1.21428 1.52579 0
M  V30 7140 O 651.203 -1.81294 0.742252 0
M  V30 7141 H 649.783 0.0632725 0.744316 0
M  V30 7142 H 652.445 0.856169 1.75088 0
M  V30 7143 H 651.541 0.170957 3.11631 0
M  V30 7144 N 651.842 -1.52309 0.404946 0
M  V30 7145 C 652.79 -2.28452 -0.437321 0
M  V30 7146 C 653.784 -1.32975 -1.04948 0
M  V30 7147 O 654.99 -1.50451 -0.988159 0
M  V30 7148 H 651.365 -0.734824 -0.159805 0
M  V30 7149 H 653.336 -2.97542 0.22615 0
M  V30 7150 C 652.085 -3.11536 -1.54404 0
M  V30 7151 H 651.408 -3.84871 -1.08233 0
M  V30 7152 H 652.848 -3.67926 -2.10729 0
M  V30 7153 C 651.307 -2.24833 -2.50902 0
M  V30 7154 O 651.837 -1.88574 -3.54687 0
M  V30 7155 N 650.043 -1.88685 -2.21012 0
M  V30 7156 H 649.59 -2.18371 -1.36646 0
M  V30 7157 H 649.548 -1.30966 -2.85824 0
M  V30 7158 N 653.32 -0.135238 -1.57019 0
M  V30 7159 C 654.25 0.805235 -2.19176 0
M  V30 7160 C 655.231 1.2656 -1.13651 0
M  V30 7161 O 656.416 1.32528 -1.4195 0
M  V30 7162 C 653.546 2.04914 -2.80406 0
M  V30 7163 C 652.5 1.72598 -3.91655 0
M  V30 7164 C 651.826 3.04154 -4.39766 0
M  V30 7165 C 653.126 0.981709 -5.12991 0
M  V30 7166 H 654.82 0.287232 -2.98019 0
M  V30 7167 H 652.366 0.136714 -1.4335 0
M  V30 7168 H 654.319 2.71178 -3.22553 0
M  V30 7169 H 653.043 2.59067 -1.98877 0
M  V30 7170 H 651.702 1.08717 -3.50109 0
M  V30 7171 H 651.35 3.56274 -3.55075 0
M  V30 7172 H 651.05 2.83299 -5.14796 0
M  V30 7173 H 652.574 3.71509 -4.84576 0
M  V30 7174 H 653.988 1.5462 -5.52056 0
M  V30 7175 H 652.385 0.873533 -5.93708 0
M  V30 7176 H 653.455 -0.0286887 -4.84892 0
M  V30 7177 N 654.798 1.5699 0.138552 0
M  V30 7178 C 655.728 2.01933 1.17241 0
M  V30 7179 C 656.709 0.90033 1.44319 0
M  V30 7180 O 657.894 1.16872 1.55095 0
M  V30 7181 C 655.024 2.40711 2.50351 0
M  V30 7182 C 653.978 3.55874 2.37776 0
M  V30 7183 C 653.304 3.80491 3.75674 0
M  V30 7184 C 654.604 4.8826 1.85472 0
M  V30 7185 H 656.298 2.88551 0.798672 0
M  V30 7186 H 653.844 1.3882 0.382743 0
M  V30 7187 H 655.797 2.70754 3.22909 0
M  V30 7188 H 654.521 1.5104 2.89576 0
M  V30 7189 H 653.18 3.2601 1.67669 0
M  V30 7190 H 652.828 2.88057 4.12349 0
M  V30 7191 H 652.528 4.57998 3.68119 0
M  V30 7192 H 654.052 4.12967 4.49767 0
M  V30 7193 H 655.466 5.16965 2.4783 0
M  V30 7194 H 653.863 5.69631 1.88787 0
M  V30 7195 H 654.933 4.78071 0.810935 0
M  V30 7196 N 656.276 -0.40816 1.52223 0
M  V30 7197 C 657.553 -1.16807 1.56893 0
M  V30 7198 C 657.933 -2.08169 0.350537 0
M  V30 7199 O 657.281 -2.18684 -0.662536 0
M  V30 7200 C 657.491 -1.94451 2.8981 0
M  V30 7201 C 658.839 -2.50484 3.42845 0
M  V30 7202 O 659.863 -2.0463 2.91556 0
M  V30 7203 O 658.722 -3.34192 4.3241 0
M  V30 7204 H 655.816 -0.533382 0.632007 0
M  V30 7205 H 658.362 -0.414862 1.64551 0
M  V30 7206 H 657.134 -1.27527 3.69936 0
M  V30 7207 H 656.757 -2.76775 2.85449 0
M  V30 7208 N 657.755 -1.42862 -0.66545 0
M  V30 7209 C 658.703 -1.47319 -1.8 0
M  V30 7210 C 659.697 -0.347963 -1.65788 0
M  V30 7211 O 660.903 -0.521406 -1.72283 0
M  V30 7212 H 657.278 -0.461588 -0.593667 0
M  V30 7213 H 659.249 -2.42876 -1.7336 0
M  V30 7214 C 657.998 -1.40152 -3.18203 0
M  V30 7215 H 657.321 -2.26035 -3.2977 0
M  V30 7216 H 658.761 -1.47331 -3.9758 0
M  V30 7217 C 657.22 -0.117493 -3.36695 0
M  V30 7218 O 657.75 0.826058 -3.93115 0
M  V30 7219 N 655.956 -0.0316218 -2.90583 0
M  V30 7220 H 655.503 -0.800247 -2.44855 0
M  V30 7221 H 655.461 0.826835 -3.03333 0
M  V30 7222 N 659.233 0.902656 -1.29189 0
M  V30 7223 C 660.196 1.98797 -1.14071 0
M  V30 7224 C 661.196 1.60615 -0.0770549 0
M  V30 7225 O 662.386 1.71165 -0.323753 0
M  V30 7226 C 659.518 3.32688 -0.743739 0
M  V30 7227 H 660.711 2.13637 -2.10473 0
M  V30 7228 H 658.264 1.08678 -1.12334 0
M  V30 7229 H 658.999 3.23549 0.220554 0
M  V30 7230 H 658.784 3.61765 -1.51223 0
M  V30 7231 H 660.274 4.12337 -0.660935 0
M  V30 7232 N 660.711 1.11618 1.11262 0
M  V30 7233 C 661.941 0.88745 1.86569 0
M  V30 7234 C 662.349 -0.56636 1.80524 0
M  V30 7235 O 661.692 -1.40289 1.18594 0
M  V30 7236 C 661.754 1.27313 3.36202 0
M  V30 7237 C 661.418 2.73649 3.66013 0
M  V30 7238 C 662.415 3.71863 3.63337 0
M  V30 7239 C 660.1 3.10342 3.9496 0
M  V30 7240 C 662.094 5.04788 3.89188 0
M  V30 7241 C 659.781 4.43451 4.20469 0
M  V30 7242 C 660.779 5.40484 4.17572 0
M  V30 7243 O 660.467 6.71195 4.42439 0
M  V30 7244 H 660.199 0.317543 0.596777 0
M  V30 7245 H 662.753 1.48768 1.41624 0
M  V30 7246 H 660.983 0.616062 3.81761 0
M  V30 7247 H 662.672 1.01991 3.92877 0
M  V30 7248 H 663.438 3.44861 3.41022 0
M  V30 7249 H 659.317 2.35431 3.9635 0
M  V30 7250 H 662.861 5.80516 3.86842 0
M  V30 7251 H 658.758 4.70187 4.42261 0
M  V30 7252 H 659.526 6.77012 4.59997 0
M  V30 7253 N 662.189 -1.289 0.906776 0
M  V30 7254 C 663.137 -2.29477 0.379873 0
M  V30 7255 C 664.131 -1.61068 -0.524747 0
M  V30 7256 O 665.337 -1.75344 -0.406765 0
M  V30 7257 H 661.712 -0.744742 0.10423 0
M  V30 7258 H 663.683 -2.71353 1.24137 0
M  V30 7259 C 662.432 -3.45713 -0.371154 0
M  V30 7260 H 661.755 -3.98551 0.315716 0
M  V30 7261 H 663.195 -4.18105 -0.704581 0
M  V30 7262 C 661.654 -2.9774 -1.57646 0
M  V30 7263 O 662.184 -2.99618 -2.67567 0
M  V30 7264 N 660.39 -2.53485 -1.42105 0
M  V30 7265 H 659.937 -2.52156 -0.526783 0
M  V30 7266 H 659.895 -2.21747 -2.22881 0
M  V30 7267 N 663.667 -0.670007 -1.42649 0
M  V30 7268 C 664.63 0.00204659 -2.292 0
M  V30 7269 C 665.63 0.733817 -1.4308 0
M  V30 7270 O 666.82 0.57254 -1.64522 0
M  V30 7271 C 663.952 1.01359 -3.25483 0
M  V30 7272 H 665.145 -0.759696 -2.90118 0
M  V30 7273 H 662.698 -0.432105 -1.50208 0
M  V30 7274 H 663.433 1.80399 -2.69493 0
M  V30 7275 H 663.218 0.492323 -3.88997 0
M  V30 7276 H 664.708 1.4824 -3.90403 0
M  V30 7277 N 665.145 1.52092 -0.413018 0
M  V30 7278 C 666.37 2.06756 0.163338 0
M  V30 7279 C 666.795 1.28073 1.37764 0
M  V30 7280 O 666.153 0.312015 1.78595 0
M  V30 7281 C 666.201 3.57278 0.488322 0
M  V30 7282 O 665.305 3.80986 1.57871 0
M  V30 7283 H 664.646 0.663882 0.0125068 0
M  V30 7284 H 667.176 1.95988 -0.587339 0
M  V30 7285 H 667.186 4.01125 0.745836 0
M  V30 7286 H 665.861 4.13978 -0.399327 0
M  V30 7287 H 664.438 3.49017 1.31306 0
M  V30 7288 N 666.623 0.143563 1.56945 0
M  V30 7289 C 667.553 -0.7936 2.196 0
M  V30 7290 C 668.534 -1.25955 1.14321 0
M  V30 7291 O 669.719 -1.31773 1.42651 0
M  V30 7292 C 666.849 -2.03424 2.81489 0
M  V30 7293 C 665.803 -1.70519 3.92565 0
M  V30 7294 C 665.129 -3.01817 4.41373 0
M  V30 7295 C 666.429 -0.95449 5.13504 0
M  V30 7296 H 668.123 -0.271423 2.98167 0
M  V30 7297 H 665.669 -0.12911 1.4342 0
M  V30 7298 H 667.622 -2.69463 3.23987 0
M  V30 7299 H 666.346 -2.58008 2.00248 0
M  V30 7300 H 665.005 -1.06859 3.5068 0
M  V30 7301 H 664.653 -3.54386 3.56959 0
M  V30 7302 H 664.353 -2.80565 5.16292 0
M  V30 7303 H 665.877 -3.68934 4.86539 0
M  V30 7304 H 667.291 -1.5169 5.52868 0
M  V30 7305 H 665.688 -0.842035 5.94163 0
M  V30 7306 H 666.758 0.0544033 4.84869 0
M  V30 7307 N 668.101 -1.57061 -0.130224 0
M  V30 7308 C 669.517 -1.52103 -0.483413 0
M  V30 7309 C 669.717 -0.854752 -1.82473 0
M  V30 7310 O 668.773 -0.432342 -2.48771 0
M  V30 7311 C 670.086 -2.96872 -0.47825 0
M  V30 7312 C 671.634 -3.07902 -0.562592 0
M  V30 7313 C 672.109 -4.54211 -0.587929 0
M  V30 7314 N 673.6 -4.58621 -0.649684 0
M  V30 7315 C 674.335 -5.69227 -0.690551 0
M  V30 7316 N 673.831 -6.89358 -0.689743 0
M  V30 7317 N 675.624 -5.57304 -0.732708 0
M  V30 7318 H 667.775 -1.98764 0.748779 0
M  V30 7319 H 670.038 -0.907248 0.274965 0
M  V30 7320 H 669.744 -3.48944 0.439444 0
M  V30 7321 H 669.618 -3.53716 -1.31013 0
M  V30 7322 H 672.005 -2.5584 -1.47071 0
M  V30 7323 H 672.086 -2.54073 0.296764 0
M  V30 7324 H 671.73 -5.06915 0.316096 0
M  V30 7325 H 671.66 -5.0584 -1.46401 0
M  V30 7326 H 674.151 -3.72146 -0.656927 0
M  V30 7327 H 674.464 -7.69408 -0.723239 0
M  V30 7328 H 672.809 -6.91884 -0.657347 0
M  V30 7329 H 676 -4.62363 -0.730625 0
M  V30 7330 H 676.173 -6.43515 -0.76109 0
M  V30 7331 N 669.579 0.400081 -1.52437 0
M  V30 7332 C 670.511 1.50729 -1.72666 0
M  V30 7333 C 671.524 1.51058 -0.607075 0
M  V30 7334 O 672.713 1.5516 -0.88248 0
M  V30 7335 C 669.813 2.89604 -1.76019 0
M  V30 7336 C 668.986 3.13365 -3.05157 0
M  V30 7337 C 668.045 4.32163 -3.00203 0
M  V30 7338 O 667.071 4.29004 -3.74092 0
M  V30 7339 N 668.273 5.3776 -2.18619 0
M  V30 7340 H 671.038 1.33767 -2.68191 0
M  V30 7341 H 668.599 0.58948 -1.50787 0
M  V30 7342 H 670.591 3.67159 -1.70225 0
M  V30 7343 H 669.161 2.99979 -0.879284 0
M  V30 7344 H 668.381 2.23774 -3.24529 0
M  V30 7345 H 669.669 3.26089 -3.90568 0
M  V30 7346 H 669.067 5.43177 -1.58035 0
M  V30 7347 H 667.624 6.14023 -2.18674 0
M  V30 7348 N 671.057 1.43213 0.657864 0
M  V30 7349 C 672.468 1.39669 1.23893 0
M  V30 7350 C 672.819 0.0984217 1.95953 0
M  V30 7351 O 671.944 -0.8023 2.00978 0
M  V30 7352 C 672.539 2.53004 2.25332 0
M  V30 7353 C 671.098 2.5274 2.78926 0
M  V30 7354 C 670.245 2.30941 1.53497 0
M  V30 7355 H 673.196 1.52181 0.450172 0
M  V30 7356 H 673.217 2.24226 3.07413 0
M  V30 7357 H 672.729 3.4748 1.72856 0
M  V30 7358 H 670.83 1.6213 3.35477 0
M  V30 7359 H 670.943 3.50352 3.26787 0
M  V30 7360 H 669.307 1.7952 1.80678 0
M  V30 7361 H 670.09 3.27496 1.02963 0
M  V30 7362 N 672.536 -0.895792 1.29666 0
M  V30 7363 C 673.468 -2.00563 1.10937 0
M  V30 7364 C 674.481 -1.62705 0.055734 0
M  V30 7365 O 675.67 -1.7595 0.300656 0
M  V30 7366 C 672.77 -3.32262 0.667448 0
M  V30 7367 C 671.943 -3.98625 1.80047 0
M  V30 7368 C 671.002 -5.08617 1.3489 0
M  V30 7369 O 670.028 -5.30837 2.05429 0
M  V30 7370 N 671.23 -5.80076 0.221937 0
M  V30 7371 H 673.995 -2.17184 2.06522 0
M  V30 7372 H 671.556 -1.06822 1.21658 0
M  V30 7373 H 673.548 -4.03196 0.348586 0
M  V30 7374 H 672.118 -3.11985 -0.196055 0
M  V30 7375 H 671.338 -3.21005 2.28801 0
M  V30 7376 H 672.626 -4.39704 2.56003 0
M  V30 7377 H 672.024 -5.64514 -0.366084 0
M  V30 7378 H 670.581 -6.51789 -0.0375346 0
M  V30 7379 N 674.014 -1.12206 -1.10668 0
M  V30 7380 C 675.262 -0.874144 -1.82217 0
M  V30 7381 C 675.583 0.601736 -1.85484 0
M  V30 7382 O 674.853 1.43725 -1.33116 0
M  V30 7383 H 673.433 -0.320404 -0.674797 0
M  V30 7384 H 676.095 -1.41606 -1.33917 0
M  V30 7385 H 675.191 -1.25349 -2.85822 0
M  V30 7386 N 675.492 1.28418 -0.913599 0
M  V30 7387 C 676.717 1.99643 -0.561899 0
M  V30 7388 C 677.142 1.67819 0.849608 0
M  V30 7389 O 676.5 0.910503 1.56779 0
M  V30 7390 C 676.548 3.52116 -0.777622 0
M  V30 7391 O 675.652 4.12076 0.163457 0
M  V30 7392 H 674.993 0.627229 -0.217898 0
M  V30 7393 H 677.523 1.63575 -1.229 0
M  V30 7394 H 677.533 4.02163 -0.687666 0
M  V30 7395 H 676.208 3.74613 -1.8066 0
M  V30 7396 H 674.785 3.72892 0.0247827 0
M  V30 7397 N 676.97 0.677563 1.42291 0
M  V30 7398 C 677.917 0.000947061 2.308 0
M  V30 7399 C 678.887 -0.789889 1.46116 0
M  V30 7400 O 680.072 -0.761578 1.74942 0
M  V30 7401 C 677.212 -0.942387 3.31984 0
M  V30 7402 C 676.325 -0.14508 4.31756 0
M  V30 7403 C 675.46 -1.08442 5.20013 0
M  V30 7404 C 674.499 -0.278958 6.11464 0
M  V30 7405 N 673.636 -1.17115 6.92263 0
M  V30 7406 H 678.476 0.761521 2.88106 0
M  V30 7407 H 676.013 0.38727 1.41911 0
M  V30 7408 H 677.971 -1.50317 3.89179 0
M  V30 7409 H 676.601 -1.66956 2.76271 0
M  V30 7410 H 675.653 0.532368 3.76656 0
M  V30 7411 H 676.965 0.48015 4.96484 0
M  V30 7412 H 676.119 -1.71504 5.81955 0
M  V30 7413 H 674.858 -1.74353 4.55469 0
M  V30 7414 H 673.863 0.364856 5.48588 0
M  V30 7415 H 675.088 0.376099 6.78058 0
M  V30 7416 H 673.034 -1.81661 6.30345 0
M  V30 7417 H 672.951 -0.601063 7.53607 0
M  V30 7418 H 674.219 -1.78915 7.58689 0
M  V30 7419 N 678.448 -1.51871 0.421078 0
M  V30 7420 C 679.38 -2.25052 -0.434065 0
M  V30 7421 C 680.393 -1.28458 -1.00013 0
M  V30 7422 O 681.582 -1.54323 -0.897033 0
M  V30 7423 C 678.682 -2.97813 -1.61743 0
M  V30 7424 C 677.855 -4.21374 -1.17315 0
M  V30 7425 C 676.914 -4.76854 -2.22478 0
M  V30 7426 O 675.94 -5.39123 -1.82577 0
M  V30 7427 N 677.142 -4.59467 -3.54782 0
M  V30 7428 H 679.907 -2.99077 0.193073 0
M  V30 7429 H 677.468 -1.59972 0.249088 0
M  V30 7430 H 679.46 -3.3182 -2.31685 0
M  V30 7431 H 678.03 -2.26899 -2.15024 0
M  V30 7432 H 677.25 -3.93046 -0.3014 0
M  V30 7433 H 678.538 -5.01591 -0.853444 0
M  V30 7434 H 677.936 -4.09832 -3.89941 0
M  V30 7435 H 676.493 -4.9788 -4.20665 0
M  V30 7436 N 679.926 -0.151884 -1.56866 0
M  V30 7437 C 681.175 0.497992 -1.95456 0
M  V30 7438 C 681.488 1.6569 -1.03953 0
M  V30 7439 O 682.694 2.37173 -1.32142 0
M  V30 7440 C 681.15 0.93732 -3.4748 0
M  V30 7441 C 680.758 -0.194921 -4.47576 0
M  V30 7442 C 682.502 1.55671 -3.94926 0
M  V30 7443 C 680.409 0.26295 -5.90815 0
M  V30 7444 H 679.339 0.189811 -0.729717 0
M  V30 7445 H 681.99 -0.237011 -1.81963 0
M  V30 7446 H 680.372 1.72773 -3.56322 0
M  V30 7447 H 681.546 -0.971951 -4.50433 0
M  V30 7448 H 679.861 -0.72303 -4.10075 0
M  V30 7449 H 682.458 1.91099 -4.99385 0
M  V30 7450 H 682.801 2.44748 -3.36755 0
M  V30 7451 H 683.334 0.831109 -3.89021 0
M  V30 7452 H 680.073 -0.592568 -6.52816 0
M  V30 7453 H 679.593 1.00575 -5.91308 0
M  V30 7454 H 681.272 0.713333 -6.43056 0
M  V30 7455 N 681.404 1.57128 0.121893 0
M  V30 7456 C 682.314 2.03425 1.16857 0
M  V30 7457 C 683.33 0.954108 1.45509 0
M  V30 7458 O 684.506 1.26541 1.56682 0
M  V30 7459 C 681.571 2.42685 2.47599 0
M  V30 7460 C 680.632 3.64767 2.2637 0
M  V30 7461 C 679.865 4.02145 3.50878 0
M  V30 7462 O 680.088 3.39897 4.58068 0
M  V30 7463 O 679.022 4.95262 3.42051 0
M  V30 7464 H 682.848 2.92825 0.80544 0
M  V30 7465 H 680.433 1.45654 0.332477 0
M  V30 7466 H 682.315 2.68684 3.24634 0
M  V30 7467 H 680.99 1.56432 2.83392 0
M  V30 7468 H 679.897 3.43922 1.47203 0
M  V30 7469 H 681.23 4.51716 1.95482 0
M  V30 7470 N 682.882 -0.391992 1.52647 0
M  V30 7471 C 684.122 -1.1463 1.69232 0
M  V30 7472 C 684.486 -1.87312 0.421684 0
M  V30 7473 O 685.687 -2.64768 0.463852 0
M  V30 7474 C 683.958 -2.10088 2.89133 0
M  V30 7475 S 685.517 -2.93395 3.2629 0
M  V30 7476 H 682.335 -0.388076 0.59575 0
M  V30 7477 H 684.937 -0.431149 1.90687 0
M  V30 7478 H 683.641 -1.55408 3.79837 0
M  V30 7479 H 683.172 -2.86116 2.70003 0
M  V30 7480 H 685.187 -4.12193 2.76244 0
M  V30 7481 N 684.36 -1.4356 -0.65026 0
M  V30 7482 C 685.29 -1.51758 -1.77459 0
M  V30 7483 C 686.271 -0.372019 -1.65982 0
M  V30 7484 O 687.456 -0.589627 -1.85033 0
M  V30 7485 C 684.586 -1.44302 -3.15902 0
M  V30 7486 C 683.54 -2.57138 -3.42146 0
M  V30 7487 C 682.866 -2.34735 -4.8042 0
M  V30 7488 C 684.166 -3.99373 -3.36598 0
M  V30 7489 H 685.86 -2.45863 -1.70855 0
M  V30 7490 H 683.406 -1.18333 -0.820566 0
M  V30 7491 H 685.359 -1.48641 -3.94314 0
M  V30 7492 H 684.083 -0.467026 -3.23244 0
M  V30 7493 H 682.742 -2.52157 -2.66106 0
M  V30 7494 H 682.39 -1.35372 -4.84441 0
M  V30 7495 H 682.09 -3.10375 -4.9894 0
M  V30 7496 H 683.614 -2.40862 -5.61086 0
M  V30 7497 H 685.028 -4.05826 -4.04942 0
M  V30 7498 H 683.425 -4.75063 -3.66654 0
M  V30 7499 H 684.495 -4.243 -2.34729 0
M  V30 7500 N 685.838 0.888903 -1.30139 0
M  V30 7501 C 687.087 1.63507 -1.18103 0
M  V30 7502 C 687.4 1.93808 0.264141 0
M  V30 7503 O 688.606 2.66744 0.505966 0
M  V30 7504 C 687.062 2.94673 -2.0663 0
M  V30 7505 C 686.67 2.71926 -3.56034 0
M  V30 7506 C 688.414 3.72626 -2.03346 0
M  V30 7507 C 686.321 3.98884 -4.3663 0
M  V30 7508 H 685.251 0.613426 -0.438435 0
M  V30 7509 H 687.902 0.984427 -1.54859 0
M  V30 7510 H 686.284 3.61009 -1.62754 0
M  V30 7511 H 687.458 2.14116 -4.08033 0
M  V30 7512 H 685.773 2.07353 -3.61101 0
M  V30 7513 H 688.37 4.66775 -2.60816 0
M  V30 7514 H 688.713 4.03712 -1.016 0
M  V30 7515 H 689.246 3.13147 -2.45324 0
M  V30 7516 H 685.985 3.72959 -5.39056 0
M  V30 7517 H 685.505 4.56214 -3.89396 0
M  V30 7518 H 687.184 4.66938 -4.47859 0
M  V30 7519 N 687.317 1.12792 1.10072 0
M  V30 7520 C 688.265 0.794523 2.18609 0
M  V30 7521 C 689.259 -0.220271 1.67962 0
M  V30 7522 O 690.465 -0.0780938 1.79831 0
M  V30 7523 H 686.84 0.239123 0.712969 0
M  V30 7524 H 688.811 1.71823 2.43966 0
M  V30 7525 C 687.56 0.269548 3.46654 0
M  V30 7526 H 686.883 1.04171 3.8599 0
M  V30 7527 H 688.323 0.0746242 4.23934 0
M  V30 7528 C 686.782 -1.00333 3.21613 0
M  V30 7529 O 687.312 -2.08042 3.4363 0
M  V30 7530 N 685.518 -0.931763 2.75257 0
M  V30 7531 H 685.065 -0.0551197 2.57541 0
M  V30 7532 H 685.023 -1.78405 2.58881 0
M  V30 7533 N 688.795 -1.27931 0.920396 0
M  V30 7534 C 690.02 -1.99343 0.572478 0
M  V30 7535 C 690.445 -1.68267 -0.840696 0
M  V30 7536 O 689.803 -0.918805 -1.56294 0
M  V30 7537 C 689.851 -3.51698 0.796284 0
M  V30 7538 O 688.955 -4.12157 -0.141602 0
M  V30 7539 H 688.296 -0.626065 0.221221 0
M  V30 7540 H 690.826 -1.62921 1.23765 0
M  V30 7541 H 690.836 -4.01793 0.708984 0
M  V30 7542 H 689.511 -3.73649 1.82644 0
M  V30 7543 H 688.088 -3.729 -0.005007 0
M  V30 7544 N 690.273 -0.685099 -1.4193 0
M  V30 7545 C 691.55 -0.140152 -1.95097 0
M  V30 7546 C 691.93 1.34745 -1.62502 0
M  V30 7547 O 691.278 2.08872 -0.926534 0
M  V30 7548 C 691.488 -0.420268 -3.4646 0
M  V30 7549 C 692.836 -0.342338 -4.23218 0
M  V30 7550 O 693.86 -0.354592 -3.54431 0
M  V30 7551 O 692.719 -0.293404 -5.45712 0
M  V30 7552 H 689.813 -0.00885998 -0.826953 0
M  V30 7553 H 692.359 -0.760539 -1.51703 0
M  V30 7554 H 691.131 -1.45037 -3.63428 0
M  V30 7555 H 690.754 0.231616 -3.96925 0
M  V30 7556 N 691.751 1.51645 -0.429126 0
M  V30 7557 C 692.999 2.01616 0.139802 0
M  V30 7558 C 693.32 1.31568 1.43927 0
M  V30 7559 O 692.59 0.447688 1.90716 0
M  V30 7560 H 691.17 0.744998 0.054654 0
M  V30 7561 H 693.832 1.8638 -0.569952 0
M  V30 7562 H 692.928 3.10439 0.321609 0
M  V30 7563 N 693.229 0.160201 1.56784 0
M  V30 7564 C 694.161 -0.80564 2.14574 0
M  V30 7565 C 695.174 -1.20154 1.09849 0
M  V30 7566 O 696.363 -1.14333 1.37078 0
M  V30 7567 C 693.463 -2.09434 2.6644 0
M  V30 7568 C 692.636 -1.86375 3.95706 0
M  V30 7569 C 691.695 -2.99358 4.32749 0
M  V30 7570 O 690.721 -2.70475 5.00831 0
M  V30 7571 N 691.923 -4.26867 3.93402 0
M  V30 7572 H 694.688 -0.311644 2.98075 0
M  V30 7573 H 692.249 -0.0229465 1.61884 0
M  V30 7574 H 694.241 -2.84091 2.88226 0
M  V30 7575 H 692.811 -2.50057 1.8759 0
M  V30 7576 H 692.031 -0.956821 3.82412 0
M  V30 7577 H 693.319 -1.68322 4.80151 0
M  V30 7578 H 692.717 -4.53197 3.38569 0
M  V30 7579 H 691.274 -4.98263 4.20211 0
M  V30 7580 N 694.707 -1.5719 -0.113559 0
M  V30 7581 C 695.617 -2.04041 -1.15777 0
M  V30 7582 C 696.633 -0.961812 -1.45001 0
M  V30 7583 O 697.809 -1.2737 -1.56009 0
M  V30 7584 C 694.874 -2.43994 -2.46308 0
M  V30 7585 C 693.935 -3.65962 -2.24433 0
M  V30 7586 C 693.168 -4.04 -3.4874 0
M  V30 7587 O 693.391 -3.42321 -4.56259 0
M  V30 7588 O 692.325 -4.97069 -3.3942 0
M  V30 7589 H 696.151 -2.93248 -0.789899 0
M  V30 7590 H 693.736 -1.45828 -0.324748 0
M  V30 7591 H 695.618 -2.70401 -3.23204 0
M  V30 7592 H 694.293 -1.57932 -2.82558 0
M  V30 7593 H 693.2 -3.44697 -1.45377 0
M  V30 7594 H 694.533 -4.52746 -1.93084 0
M  V30 7595 N 696.185 0.383891 -1.52853 0
M  V30 7596 C 697.431 1.13009 -1.68395 0
M  V30 7597 C 697.764 1.89488 -0.425195 0
M  V30 7598 O 697.039 1.8574 0.577136 0
M  V30 7599 C 697.322 2.10419 -2.92226 0
M  V30 7600 C 697.175 1.3767 -4.28214 0
M  V30 7601 C 698.494 3.10781 -3.11614 0
M  V30 7602 H 695.613 0.409463 -0.612788 0
M  V30 7603 H 698.255 0.412895 -1.85459 0
M  V30 7604 H 696.405 2.71579 -2.77808 0
M  V30 7605 H 698.077 0.794352 -4.54409 0
M  V30 7606 H 696.32 0.678533 -4.2846 0
M  V30 7607 H 696.991 2.08874 -5.10956 0
M  V30 7608 H 699.467 2.59715 -3.25096 0
M  V30 7609 H 698.343 3.76179 -3.99725 0
M  V30 7610 H 698.604 3.79933 -2.2606 0
M  V30 7611 N 697.663 1.43903 0.642637 0
M  V30 7612 C 698.912 1.45362 1.39831 0
M  V30 7613 C 699.225 0.0856289 1.95412 0
M  V30 7614 O 700.431 -0.0222856 2.71491 0
M  V30 7615 C 698.887 2.55857 2.53111 0
M  V30 7616 C 698.495 3.98811 2.04092 0
M  V30 7617 C 700.239 2.66524 3.30402 0
M  V30 7618 C 698.146 5.00751 3.14647 0
M  V30 7619 H 697.076 0.540777 0.52543 0
M  V30 7620 H 699.727 1.69929 0.692559 0
M  V30 7621 H 698.109 2.2451 3.26207 0
M  V30 7622 H 699.283 4.3967 1.37938 0
M  V30 7623 H 697.598 3.92284 1.39651 0
M  V30 7624 H 700.195 3.39858 4.12796 0
M  V30 7625 H 700.538 1.71949 3.79129 0
M  V30 7626 H 701.071 2.97224 2.64392 0
M  V30 7627 H 697.81 5.96914 2.70876 0
M  V30 7628 H 697.33 4.64495 3.79479 0
M  V30 7629 H 699.009 5.23933 3.79609 0
M  V30 7630 N 699.141 -0.881989 1.30609 0
M  V30 7631 C 700.39 -1.62878 1.18969 0
M  V30 7632 C 700.703 -1.93946 -0.253859 0
M  V30 7633 O 701.909 -2.67008 -0.491813 0
M  V30 7634 C 700.365 -2.93573 2.0819 0
M  V30 7635 C 699.973 -2.70034 3.57471 0
M  V30 7636 C 701.717 -3.71543 2.0532 0
M  V30 7637 C 699.624 -3.96563 4.38739 0
M  V30 7638 H 698.554 -0.611092 0.441682 0
M  V30 7639 H 701.205 -0.976201 1.55379 0
M  V30 7640 H 699.587 -3.6014 1.64666 0
M  V30 7641 H 700.761 -2.11949 4.09163 0
M  V30 7642 H 699.076 -2.05435 3.62195 0
M  V30 7643 H 701.673 -4.65386 2.63288 0
M  V30 7644 H 702.016 -4.03167 1.03739 0
M  V30 7645 H 702.549 -3.11842 2.46981 0
M  V30 7646 H 699.288 -3.70095 5.41027 0
M  V30 7647 H 698.808 -4.54142 3.9181 0
M  V30 7648 H 700.487 -4.64557 4.50329 0
M  V30 7649 N 700.619 -1.13374 -1.09472 0
M  V30 7650 C 701.529 -0.824029 -2.19652 0
M  V30 7651 C 702.545 0.19118 -1.72947 0
M  V30 7652 O 703.721 0.0223464 -2.01388 0
M  V30 7653 C 700.786 -0.294009 -3.45451 0
M  V30 7654 C 699.847 -1.3704 -4.0684 0
M  V30 7655 C 699.08 -0.86558 -5.26634 0
M  V30 7656 O 699.303 0.29702 -5.69626 0
M  V30 7657 O 698.237 -1.63968 -5.79136 0
M  V30 7658 H 702.063 -1.74454 -2.48595 0
M  V30 7659 H 699.648 -0.911155 -1.18399 0
M  V30 7660 H 701.53 -0.00381039 -4.214 0
M  V30 7661 H 700.205 0.598921 -3.18111 0
M  V30 7662 H 699.112 -1.71391 -3.3253 0
M  V30 7663 H 700.445 -2.23746 -4.38405 0
M  V30 7664 N 702.098 1.27442 -0.927168 0
M  V30 7665 C 703.347 1.93679 -0.563146 0
M  V30 7666 C 703.66 1.73673 0.899837 0
M  V30 7667 O 704.866 2.34247 1.37262 0
M  V30 7668 C 703.322 3.46961 -0.95636 0
M  V30 7669 C 702.93 3.75724 -2.43999 0
M  V30 7670 C 704.674 4.19282 -0.663565 0
M  V30 7671 C 702.581 5.22378 -2.77263 0
M  V30 7672 H 701.511 0.725059 -0.206894 0
M  V30 7673 H 704.162 1.44743 -1.12791 0
M  V30 7674 H 702.544 3.94703 -0.320254 0
M  V30 7675 H 703.718 3.38741 -3.12396 0
M  V30 7676 H 702.033 3.16605 -2.70463 0
M  V30 7677 H 704.63 5.27265 -0.888596 0
M  V30 7678 H 704.973 4.14382 0.399198 0
M  V30 7679 H 705.506 3.7736 -1.25875 0
M  V30 7680 H 702.245 5.32367 -3.82446 0
M  V30 7681 H 701.765 5.6051 -2.13516 0
M  V30 7682 H 703.444 5.9025 -2.64979 0
M  V30 7683 N 703.576 0.692616 1.41565 0
M  V30 7684 C 704.539 0.0344174 2.29174 0
M  V30 7685 C 705.539 -0.710961 1.44229 0
M  V30 7686 O 706.729 -0.546293 1.65412 0
M  V30 7687 C 703.861 -0.961682 3.27054 0
M  V30 7688 H 705.054 0.805755 2.88873 0
M  V30 7689 H 702.607 0.455947 1.49502 0
M  V30 7690 H 703.342 -1.76089 2.72329 0
M  V30 7691 H 703.127 -0.430375 3.89731 0
M  V30 7692 H 704.617 -1.4201 3.92712 0
M  V30 7693 N 705.054 -1.51416 0.437162 0
M  V30 7694 C 706.331 -1.94682 -0.189292 0
M  V30 7695 C 706.711 -1.37581 -1.60108 0
M  V30 7696 O 706.059 -0.562815 -2.2146 0
M  V30 7697 C 706.269 -3.48599 -0.167201 0
M  V30 7698 C 707.617 -4.2296 -0.372856 0
M  V30 7699 O 708.641 -3.55354 -0.245323 0
M  V30 7700 O 707.5 -5.42895 -0.626693 0
M  V30 7701 H 704.594 -0.816708 -0.130063 0
M  V30 7702 H 707.14 -1.62316 0.495128 0
M  V30 7703 H 705.912 -3.82616 0.81981 0
M  V30 7704 H 705.535 -3.87406 -0.894537 0
M  V30 7705 N 706.532 -0.168513 -1.56696 0
M  V30 7706 C 707.464 0.794249 -2.14998 0
M  V30 7707 C 708.477 1.1957 -1.10485 0
M  V30 7708 O 709.666 1.13604 -1.37682 0
M  V30 7709 C 706.766 2.08018 -2.67547 0
M  V30 7710 C 705.939 1.84274 -3.96689 0
M  V30 7711 C 704.998 2.97059 -4.3433 0
M  V30 7712 O 704.024 2.67815 -5.02259 0
M  V30 7713 N 705.226 4.24775 -3.9566 0
M  V30 7714 H 707.991 0.295832 -2.98236 0
M  V30 7715 H 705.552 0.0143611 -1.61894 0
M  V30 7716 H 707.544 2.82559 -2.89729 0
M  V30 7717 H 706.114 2.49059 -1.88914 0
M  V30 7718 H 705.334 0.936528 -3.82914 0
M  V30 7719 H 706.622 1.65773 -4.81037 0
M  V30 7720 H 706.02 4.51395 -3.40968 0
M  V30 7721 H 704.577 4.96027 -4.22848 0
M  V30 7722 N 708.01 1.57248 0.105221 0
M  V30 7723 C 709.258 1.85204 0.808951 0
M  V30 7724 C 709.579 0.75574 1.7976 0
M  V30 7725 O 708.849 -0.218984 1.94672 0
M  V30 7726 H 707.429 0.683346 0.301739 0
M  V30 7727 H 710.091 1.94695 0.0892605 0
M  V30 7728 H 709.187 2.81595 1.34575 0
M  V30 7729 N 709.488 -0.375779 1.53054 0
M  V30 7730 C 710.728 -1.12828 1.70438 0
M  V30 7731 C 711.092 -1.86854 0.441527 0
M  V30 7732 O 712.293 -2.64261 0.491908 0
M  V30 7733 C 710.564 -2.07009 2.91345 0
M  V30 7734 S 712.123 -2.89917 3.29383 0
M  V30 7735 H 708.941 -0.381736 0.599832 0
M  V30 7736 H 711.543 -0.4109 1.91133 0
M  V30 7737 H 710.247 -1.51371 3.81464 0
M  V30 7738 H 709.778 -2.83236 2.73022 0
M  V30 7739 H 711.793 -4.0924 2.80601 0
M  V30 7740 N 710.966 -1.44241 -0.634997 0
M  V30 7741 C 712.214 -1.46531 -1.39187 0
M  V30 7742 C 712.535 -0.0976441 -1.94755 0
M  V30 7743 O 711.805 0.869528 -1.75545 0
M  V30 7744 H 710.385 -0.539544 -0.516625 0
M  V30 7745 H 713.047 -1.79989 -0.747655 0
M  V30 7746 H 712.143 -2.18848 -2.22513 0
M  V30 7747 N 712.444 0.87505 -1.31075 0
M  V30 7748 C 713.693 1.62245 -1.19831 0
M  V30 7749 C 714.006 1.94078 0.24357 0
M  V30 7750 O 715.212 2.67265 0.477646 0
M  V30 7751 C 713.668 2.92464 -2.09744 0
M  V30 7752 C 713.276 2.68134 -3.58898 0
M  V30 7753 C 715.02 3.70449 -2.07287 0
M  V30 7754 C 712.927 3.9423 -4.40836 0
M  V30 7755 H 711.857 0.608741 -0.444916 0
M  V30 7756 H 714.508 0.967947 -1.55894 0
M  V30 7757 H 712.89 3.59262 -1.66574 0
M  V30 7758 H 714.064 2.09776 -4.10281 0
M  V30 7759 H 712.379 2.03511 -3.6328 0
M  V30 7760 H 714.976 4.63983 -2.65752 0
M  V30 7761 H 715.319 4.02611 -1.05876 0
M  V30 7762 H 715.852 3.10528 -2.48631 0
M  V30 7763 H 712.591 3.67221 -5.42982 0
M  V30 7764 H 712.111 4.52058 -3.94213 0
M  V30 7765 H 713.79 4.62162 -4.52786 0
M  V30 7766 N 713.922 1.13953 1.08869 0
M  V30 7767 C 715.199 0.815768 1.77777 0
M  V30 7768 C 715.579 -0.691624 1.99449 0
M  V30 7769 O 714.927 -1.63085 1.60049 0
M  V30 7770 C 715.137 1.60916 3.09689 0
M  V30 7771 C 716.485 1.80549 3.84301 0
M  V30 7772 O 717.509 1.57562 3.19457 0
M  V30 7773 O 716.368 2.18946 5.00724 0
M  V30 7774 H 713.462 0.298445 0.771271 0
M  V30 7775 H 716.008 1.24446 1.15374 0
M  V30 7776 H 714.78 2.6333 2.89435 0
M  V30 7777 H 714.403 1.17578 3.79817 0
M  V30 7778 N 715.4 -1.26948 0.933913 0
M  V30 7779 C 716.31 -2.30366 0.443671 0
M  V30 7780 C 717.326 -1.67284 -0.478745 0
M  V30 7781 O 718.502 -1.98156 -0.360043 0
M  V30 7782 C 715.567 -3.45485 -0.289974 0
M  V30 7783 C 714.628 -4.24069 0.668114 0
M  V30 7784 C 713.861 -5.33691 -0.0306138 0
M  V30 7785 O 714.084 -5.5656 -1.24888 0
M  V30 7786 O 713.018 -5.98441 0.644384 0
M  V30 7787 H 716.844 -2.74349 1.30254 0
M  V30 7788 H 714.429 -1.32012 0.699506 0
M  V30 7789 H 716.311 -4.15486 -0.70353 0
M  V30 7790 H 714.986 -3.03546 -1.12435 0
M  V30 7791 H 713.893 -3.56579 1.13147 0
M  V30 7792 H 715.226 -4.69739 1.46989 0
M  V30 7793 N 716.879 -0.700114 -1.41195 0
M  V30 7794 C 717.842 -0.0465706 -2.29153 0
M  V30 7795 C 718.842 0.703302 -1.44604 0
M  V30 7796 O 720.032 0.537513 -1.657 0
M  V30 7797 C 717.164 0.944324 -3.2756 0
M  V30 7798 H 718.357 -0.821064 -2.88442 0
M  V30 7799 H 715.91 -0.463869 -1.49258 0
M  V30 7800 H 716.645 1.74642 -2.73259 0
M  V30 7801 H 716.43 0.409701 -3.89954 0
M  V30 7802 H 717.92 1.39925 -3.9346 0
M  V30 7803 N 718.357 1.51182 -0.445186 0
M  V30 7804 C 719.287 2.30821 0.352686 0
M  V30 7805 C 720.268 1.36576 1.01395 0
M  V30 7806 O 721.453 1.65497 1.01609 0
M  V30 7807 C 718.583 3.15593 1.44976 0
M  V30 7808 C 717.537 4.1818 0.911553 0
M  V30 7809 C 716.863 4.91523 2.10497 0
M  V30 7810 C 718.163 5.22266 -0.059418 0
M  V30 7811 H 719.857 2.97771 -0.311936 0
M  V30 7812 H 717.403 1.43201 -0.151461 0
M  V30 7813 H 719.356 3.70091 2.01521 0
M  V30 7814 H 718.08 2.4648 2.14278 0
M  V30 7815 H 716.739 3.64746 0.368264 0
M  V30 7816 H 716.387 4.18906 2.78437 0
M  V30 7817 H 716.087 5.60898 1.7512 0
M  V30 7818 H 717.611 5.48847 2.6758 0
M  V30 7819 H 719.025 5.71789 0.415985 0
M  V30 7820 H 717.422 5.99213 -0.326152 0
M  V30 7821 H 718.492 4.7461 -0.993631 0
M  V30 7822 N 719.835 0.176821 1.56605 0
M  V30 7823 C 721.251 -0.179278 1.5859 0
M  V30 7824 C 721.451 -1.62433 1.19238 0
M  V30 7825 O 720.507 -2.35665 0.906552 0
M  V30 7826 C 721.82 0.106524 3.00511 0
M  V30 7827 C 723.368 0.0451731 3.12967 0
M  V30 7828 C 723.843 0.304038 4.5699 0
M  V30 7829 N 725.334 0.252008 4.62514 0
M  V30 7830 C 726.069 0.426404 5.71812 0
M  V30 7831 N 725.565 0.660155 6.89648 0
M  V30 7832 N 727.358 0.361926 5.60934 0
M  V30 7833 H 719.509 1.12001 1.8047 0
M  V30 7834 H 721.772 0.445679 0.836704 0
M  V30 7835 H 721.478 1.10778 3.33798 0
M  V30 7836 H 721.352 -0.599337 3.72408 0
M  V30 7837 H 723.739 -0.946662 2.79504 0
M  V30 7838 H 723.82 0.78383 2.43495 0
M  V30 7839 H 723.464 1.29311 4.91163 0
M  V30 7840 H 723.394 -0.455294 5.24628 0
M  V30 7841 H 725.885 0.0772102 3.77821 0
M  V30 7842 H 726.198 0.782529 7.68828 0
M  V30 7843 H 724.543 0.696835 6.91498 0
M  V30 7844 H 727.734 0.17986 4.67754 0
M  V30 7845 H 727.907 0.501263 6.46058 0
M  V30 7846 N 721.313 -1.57302 -0.09688 0
M  V30 7847 C 722.59 -1.7701 -0.832272 0
M  V30 7848 C 722.97 -0.758025 -1.97021 0
M  V30 7849 O 722.318 0.213824 -2.27497 0
M  V30 7850 C 722.528 -3.22725 -1.32851 0
M  V30 7851 C 723.876 -3.85856 -1.772 0
M  V30 7852 O 724.9 -3.26464 -1.42478 0
M  V30 7853 O 723.759 -4.90295 -2.41398 0
M  V30 7854 H 720.853 -0.725558 -0.396856 0
M  V30 7855 H 723.399 -1.69516 -0.0789005 0
M  V30 7856 H 722.171 -3.87921 -0.51312 0
M  V30 7857 H 721.794 -3.34845 -2.14394 0
M  V30 7858 N 722.791 0.367657 -1.53252 0
M  V30 7859 C 724.207 0.709191 -1.42978 0
M  V30 7860 C 724.407 1.93352 -0.567193 0
M  V30 7861 O 723.463 2.52453 -0.0488349 0
M  V30 7862 C 724.776 0.924338 -2.86141 0
M  V30 7863 C 726.324 1.02448 -2.95759 0
M  V30 7864 C 726.799 1.27211 -4.39979 0
M  V30 7865 N 728.29 1.33986 -4.43398 0
M  V30 7866 C 729.025 1.54852 -5.52095 0
M  V30 7867 N 728.521 1.73049 -6.7084 0
M  V30 7868 N 730.314 1.57205 -5.39669 0
M  V30 7869 H 722.465 -0.437669 -2.07842 0
M  V30 7870 H 724.728 -0.133737 -0.938519 0
M  V30 7871 H 724.434 0.0965455 -3.51567 0
M  V30 7872 H 724.308 1.83302 -3.29667 0
M  V30 7873 H 726.695 1.84282 -2.30487 0
M  V30 7874 H 726.776 0.0932301 -2.5563 0
M  V30 7875 H 726.42 0.458792 -5.05824 0
M  V30 7876 H 726.35 2.21654 -4.77679 0
M  V30 7877 H 728.841 1.21545 -3.5782 0
M  V30 7878 H 729.154 1.88538 -7.49449 0
M  V30 7879 H 727.499 1.70231 -6.7383 0
M  V30 7880 H 730.69 1.42555 -4.45865 0
M  V30 7881 H 730.863 1.73126 -6.24445 0
M  V30 7882 N 724.269 1.44576 0.627338 0
M  V30 7883 C 725.518 1.46837 1.38281 0
M  V30 7884 C 725.831 0.10635 1.95311 0
M  V30 7885 O 727.037 0.00651084 2.71499 0
M  V30 7886 C 725.493 2.58527 2.50384 0
M  V30 7887 C 725.101 4.00953 1.99851 0
M  V30 7888 C 726.845 2.70013 3.27557 0
M  V30 7889 C 724.752 5.0406 3.09318 0
M  V30 7890 H 723.682 0.546319 0.519664 0
M  V30 7891 H 726.333 1.70654 0.674497 0
M  V30 7892 H 724.715 2.27957 3.23808 0
M  V30 7893 H 725.889 4.41108 1.33267 0
M  V30 7894 H 724.204 3.93743 1.35482 0
M  V30 7895 H 726.801 3.44217 4.09168 0
M  V30 7896 H 727.144 1.75961 3.77284 0
M  V30 7897 H 727.677 3.00011 2.61224 0
M  V30 7898 H 724.416 5.99753 2.6453 0
M  V30 7899 H 723.936 4.68493 3.74532 0
M  V30 7900 H 725.615 5.2793 3.74031 0
M  V30 7901 N 725.747 -0.868086 1.31537 0
M  V30 7902 C 726.994 -1.62127 1.2133 0
M  V30 7903 C 727.322 -1.93158 -0.2281 0
M  V30 7904 O 726.577 -1.5632 -1.1774 0
M  V30 7905 C 726.876 -2.95889 2.0046 0
M  V30 7906 C 726.542 -2.84343 3.49943 0
M  V30 7907 C 725.204 -2.80901 3.90702 0
M  V30 7908 C 727.556 -2.71243 4.45058 0
M  V30 7909 C 724.884 -2.6222 5.24841 0
M  V30 7910 C 727.236 -2.54098 5.79325 0
M  V30 7911 C 725.9 -2.4904 6.19302 0
M  V30 7912 H 725.17 -0.593265 0.443979 0
M  V30 7913 H 727.817 -1.00803 1.62822 0
M  V30 7914 H 726.122 -3.61259 1.51655 0
M  V30 7915 H 727.819 -3.53161 1.89942 0
M  V30 7916 H 724.409 -2.8784 3.17563 0
M  V30 7917 H 728.593 -2.72956 4.14498 0
M  V30 7918 H 723.849 -2.56731 5.54887 0
M  V30 7919 H 728.023 -2.42938 6.52652 0
M  V30 7920 H 725.65 -2.34324 7.23185 0
M  V30 7921 N 727.225 -1.14528 -1.08264 0
M  V30 7922 C 728.135 -0.84728 -2.18765 0
M  V30 7923 C 729.151 0.172826 -1.7314 0
M  V30 7924 O 730.327 0.000985336 -2.014 0
M  V30 7925 C 727.392 -0.330633 -3.4512 0
M  V30 7926 C 726.453 -1.41348 -4.05363 0
M  V30 7927 C 725.686 -0.921387 -5.25686 0
M  V30 7928 O 725.909 0.236587 -5.69909 0
M  V30 7929 O 724.843 -1.70101 -5.77364 0
M  V30 7930 H 728.669 -1.7708 -2.46731 0
M  V30 7931 H 726.254 -0.923661 -1.17426 0
M  V30 7932 H 728.136 -0.0485053 -4.21372 0
M  V30 7933 H 726.811 0.565147 -3.18728 0
M  V30 7934 H 725.718 -1.74908 -3.30693 0
M  V30 7935 H 727.051 -2.28383 -4.36007 0
M  V30 7936 N 728.703 1.26451 -0.940633 0
M  V30 7937 C 730.119 1.4608 -0.642859 0
M  V30 7938 C 730.319 1.84765 0.803998 0
M  V30 7939 O 729.375 1.96902 1.58069 0
M  V30 7940 C 730.688 2.54359 -1.60381 0
M  V30 7941 C 732.236 2.6821 -1.61345 0
M  V30 7942 C 732.711 3.79659 -2.56169 0
M  V30 7943 N 734.202 3.87051 -2.54452 0
M  V30 7944 C 734.937 4.72739 -3.24507 0
M  V30 7945 N 734.433 5.6282 -4.03987 0
M  V30 7946 N 736.226 4.66581 -3.13462 0
M  V30 7947 H 728.377 0.996289 -1.87584 0
M  V30 7948 H 730.64 0.498921 -0.80609 0
M  V30 7949 H 730.346 2.32758 -2.6366 0
M  V30 7950 H 730.22 3.52005 -1.35545 0
M  V30 7951 H 732.607 2.89184 -0.587913 0
M  V30 7952 H 732.688 1.7101 -1.90235 0
M  V30 7953 H 732.332 3.59438 -3.58841 0
M  V30 7954 H 732.262 4.76315 -2.2457 0
M  V30 7955 H 734.753 3.22649 -1.96739 0
M  V30 7956 H 735.066 6.25095 -4.54396 0
M  V30 7957 H 733.411 5.62574 -4.08088 0
M  V30 7958 H 736.602 3.9521 -2.50852 0
M  V30 7959 H 736.775 5.33141 -3.68327 0
M  V30 7960 N 730.181 0.707592 1.40822 0
M  V30 7961 C 731.429 0.243189 2.00632 0
M  V30 7962 C 731.75 -1.16512 1.56365 0
M  V30 7963 O 731.02 -1.78841 0.799553 0
M  V30 7964 H 729.6 0.0869203 0.741926 0
M  V30 7965 H 732.262 0.911438 1.72275 0
M  V30 7966 H 731.358 0.270014 3.1093 0
M  V30 7967 N 731.66 -1.50943 0.453197 0
M  V30 7968 C 732.906 -2.02512 -0.108082 0
M  V30 7969 C 733.239 -1.33574 -1.40967 0
M  V30 7970 O 732.514 -0.455671 -1.89087 0
M  V30 7971 C 732.797 -3.58759 -0.310453 0
M  V30 7972 C 732.65 -4.38293 1.0109 0
M  V30 7973 C 733.969 -4.26816 -1.07313 0
M  V30 7974 H 731.088 -0.73603 -0.0378064 0
M  V30 7975 H 733.73 -1.80433 0.595295 0
M  V30 7976 H 731.88 -3.77702 -0.909582 0
M  V30 7977 H 733.552 -4.30964 1.64523 0
M  V30 7978 H 731.795 -4.02745 1.61179 0
M  V30 7979 H 732.466 -5.45828 0.82315 0
M  V30 7980 H 734.942 -4.1224 -0.565473 0
M  V30 7981 H 733.818 -5.35989 -1.1835 0
M  V30 7982 H 734.079 -3.88757 -2.10525 0
M  V30 7983 N 733.138 -0.185124 -1.56509 0
M  V30 7984 C 734.366 0.462139 -2.01673 0
M  V30 7985 C 734.781 1.55873 -1.06532 0
M  V30 7986 O 734.138 1.82371 -0.0684805 0
M  V30 7987 C 734.189 1.0277 -3.46584 0
M  V30 7988 O 733.91 -0.0251296 -4.38093 0
M  V30 7989 C 735.411 1.75183 -4.07217 0
M  V30 7990 H 732.631 0.117001 -0.660721 0
M  V30 7991 H 735.175 -0.290905 -2.0242 0
M  V30 7992 H 733.33 1.73118 -3.46568 0
M  V30 7993 H 733.744 0.394387 -5.23015 0
M  V30 7994 H 735.218 2.09999 -5.10494 0
M  V30 7995 H 735.695 2.6519 -3.50101 0
M  V30 7996 H 736.301 1.09445 -4.10977 0
M  V30 7997 N 734.616 1.57351 0.0885366 0
M  V30 7998 C 735.841 1.91011 0.80805 0
M  V30 7999 C 736.266 0.780009 1.71165 0
M  V30 8000 O 735.624 -0.268083 1.79307 0
M  V30 8001 C 735.672 3.23562 1.59185 0
M  V30 8002 O 734.776 3.11615 2.7013 0
M  V30 8003 H 734.117 0.625943 0.221565 0
M  V30 8004 H 736.647 2.04507 0.0617954 0
M  V30 8005 H 736.657 3.5703 1.97468 0
M  V30 8006 H 735.332 4.05398 0.928741 0
M  V30 8007 H 733.909 2.89673 2.34827 0
M  V30 8008 N 736.094 -0.359525 1.53444 0
M  V30 8009 C 737.319 -1.12644 1.74144 0
M  V30 8010 C 737.744 -1.82082 0.472007 0
M  V30 8011 O 737.102 -1.71962 -0.57436 0
M  V30 8012 C 737.15 -2.12781 2.9113 0
M  V30 8013 O 736.254 -3.19984 2.60162 0
M  V30 8014 H 735.595 -0.326553 0.578152 0
M  V30 8015 H 738.125 -0.414798 2.00351 0
M  V30 8016 H 738.135 -2.56278 3.17467 0
M  V30 8017 H 736.81 -1.61634 3.83207 0
M  V30 8018 H 735.387 -2.81417 2.44661 0
M  V30 8019 N 737.572 -1.44907 -0.619662 0
M  V30 8020 C 738.535 -1.52282 -1.71297 0
M  V30 8021 C 739.535 -0.40359 -1.55653 0
M  V30 8022 O 740.725 -0.666638 -1.6094 0
M  V30 8023 C 737.857 -1.40778 -3.10474 0
M  V30 8024 H 739.05 -2.49683 -1.66128 0
M  V30 8025 H 736.603 -1.32168 -0.834339 0
M  V30 8026 H 737.338 -0.445156 -3.2123 0
M  V30 8027 H 737.123 -2.21947 -3.23237 0
M  V30 8028 H 738.613 -1.48946 -3.90135 0
M  V30 8029 N 739.05 0.861098 -1.31996 0
M  V30 8030 C 740.275 1.65264 -1.2531 0
M  V30 8031 C 740.7 1.87265 0.177007 0
M  V30 8032 O 740.058 1.4208 1.12619 0
M  V30 8033 C 740.106 2.99284 -2.0115 0
M  V30 8034 O 739.21 3.89508 -1.3549 0
M  V30 8035 H 738.551 0.50409 -0.432192 0
M  V30 8036 H 741.081 1.07297 -1.74208 0
M  V30 8037 H 741.091 3.49154 -2.11081 0
M  V30 8038 H 739.766 2.82591 -3.05148 0
M  V30 8039 H 738.343 3.47966 -1.34066 0
M  V30 8040 N 740.528 1.15101 1.07655 0
M  V30 8041 C 741.475 0.844958 2.14777 0
M  V30 8042 C 742.445 -0.200798 1.64882 0
M  V30 8043 O 743.63 -0.0690278 1.90675 0
M  V30 8044 C 740.77 0.337018 3.4345 0
M  V30 8045 C 739.883 1.44398 4.07153 0
M  V30 8046 C 739.018 0.892487 5.23649 0
M  V30 8047 C 738.057 1.9766 5.79307 0
M  V30 8048 N 737.194 1.44171 6.87138 0
M  V30 8049 H 742.034 1.76242 2.40297 0
M  V30 8050 H 739.571 0.879435 1.17917 0
M  V30 8051 H 741.529 0.024256 4.17193 0
M  V30 8052 H 740.159 -0.543531 3.18191 0
M  V30 8053 H 739.211 1.87299 3.31094 0
M  V30 8054 H 740.523 2.26262 4.4453 0
M  V30 8055 H 739.677 0.532083 6.04362 0
M  V30 8056 H 738.416 0.0429854 4.87681 0
M  V30 8057 H 737.421 2.34586 4.97242 0
M  V30 8058 H 738.646 2.82982 6.17331 0
M  V30 8059 H 736.592 0.614518 6.53115 0
M  V30 8060 H 736.509 2.19665 7.23383 0
M  V30 8061 H 737.777 1.10945 7.71564 0
M  V30 8062 N 742.006 -1.2595 0.947325 0
M  V30 8063 C 743.283 -1.88676 0.515824 0
M  V30 8064 C 743.663 -1.85547 -1.00675 0
M  V30 8065 O 743.011 -1.31399 -1.8694 0
M  V30 8066 C 743.221 -3.31734 1.08415 0
M  V30 8067 C 744.569 -4.08545 1.15654 0
M  V30 8068 O 745.593 -3.40826 1.03517 0
M  V30 8069 O 744.452 -5.29663 1.34608 0
M  V30 8070 H 741.546 -0.809537 0.169055 0
M  V30 8071 H 744.092 -1.34075 1.04029 0
M  V30 8072 H 742.864 -3.28404 2.1276 0
M  V30 8073 H 742.487 -3.93882 0.542499 0
M  V30 8074 N 743.484 -0.715051 -1.40445 0
M  V30 8075 C 744.434 -0.038591 -2.27967 0
M  V30 8076 C 745.418 0.733099 -1.43229 0
M  V30 8077 O 746.61 0.605388 -1.66325 0
M  V30 8078 C 743.739 0.882801 -3.31755 0
M  V30 8079 C 742.825 0.106325 -4.23967 0
M  V30 8080 N 743.216 -0.910143 -4.97544 0
M  V30 8081 C 741.514 0.33896 -4.4471 0
M  V30 8082 C 742.215 -1.37665 -5.65175 0
M  V30 8083 N 741.191 -0.698905 -5.39088 0
M  V30 8084 H 744.993 -0.81765 -2.82297 0
M  V30 8085 H 742.507 -0.547591 -1.5289 0
M  V30 8086 H 744.504 1.38273 -3.93302 0
M  V30 8087 H 743.164 1.66124 -2.78985 0
M  V30 8088 H 744.175 -1.29097 -5.01552 0
M  V30 8089 H 740.852 1.09377 -4.02918 0
M  V30 8090 H 742.242 -2.22122 -6.34123 0
M  V30 8091 N 744.962 1.50701 -0.461195 0
M  V30 8092 C 746.21 2.01867 0.0970051 0
M  V30 8093 C 746.531 1.34591 1.41104 0
M  V30 8094 O 745.801 0.488041 1.89723 0
M  V30 8095 H 744.381 0.74599 0.0388392 0
M  V30 8096 H 747.043 1.85129 -0.609357 0
M  V30 8097 H 746.139 3.11051 0.255688 0
M  V30 8098 N 746.441 0.193421 1.56409 0
M  V30 8099 C 747.69 -0.445995 1.96707 0
M  V30 8100 C 748.003 -1.62876 1.08309 0
M  V30 8101 O 749.209 -2.33586 1.38383 0
M  V30 8102 C 747.665 -0.844863 3.49843 0
M  V30 8103 C 747.273 0.31352 4.46902 0
M  V30 8104 C 749.017 -1.45146 3.98915 0
M  V30 8105 C 746.924 -0.106214 5.91305 0
M  V30 8106 H 745.854 -0.170398 0.734493 0
M  V30 8107 H 748.505 0.285172 1.81271 0
M  V30 8108 H 746.887 -1.63265 3.60778 0
M  V30 8109 H 748.061 1.09103 4.47698 0
M  V30 8110 H 746.376 0.8315 4.08014 0
M  V30 8111 H 748.973 -1.77792 5.04276 0
M  V30 8112 H 749.316 -2.35734 3.43126 0
M  V30 8113 H 749.849 -0.727675 3.91088 0
M  V30 8114 H 746.588 0.765442 6.51016 0
M  V30 8115 H 746.108 -0.848623 5.93766 0
M  V30 8116 H 747.787 -0.542588 6.44721 0
M  V30 8117 N 747.919 -1.57396 -0.0801906 0
M  V30 8118 C 749.167 -1.86467 -0.779384 0
M  V30 8119 C 749.488 -0.784243 -1.78535 0
M  V30 8120 O 748.758 0.187986 -1.94996 0
M  V30 8121 H 747.338 -0.68806 -0.29083 0
M  V30 8122 H 750 -1.94813 -0.0582749 0
M  V30 8123 H 749.096 -2.83701 -1.30078 0
M  V30 8124 N 749.397 0.351382 -1.53633 0
M  V30 8125 C 750.327 1.43688 -1.84055 0
M  V30 8126 C 751.308 1.55251 -0.695073 0
M  V30 8127 O 752.493 1.69587 -0.946257 0
M  V30 8128 C 749.623 2.80843 -2.04315 0
M  V30 8129 C 748.577 2.84094 -3.20117 0
M  V30 8130 C 747.903 4.2406 -3.25696 0
M  V30 8131 C 749.203 2.50334 -4.58399 0
M  V30 8132 H 750.897 1.18478 -2.74961 0
M  V30 8133 H 748.443 0.568509 -1.32303 0
M  V30 8134 H 750.396 3.56821 -2.2418 0
M  V30 8135 H 749.12 3.07471 -1.10132 0
M  V30 8136 H 747.779 2.10568 -3.00094 0
M  V30 8137 H 747.427 4.47785 -2.29123 0
M  V30 8138 H 747.127 4.27147 -4.03509 0
M  V30 8139 H 748.651 5.0189 -3.47762 0
M  V30 8140 H 750.065 3.16025 -4.78332 0
M  V30 8141 H 748.462 2.64717 -5.38558 0
M  V30 8142 H 749.532 1.45542 -4.62543 0
M  V30 8143 N 750.875 1.45233 0.611969 0
M  V30 8144 C 752.121 1.50233 1.37119 0
M  V30 8145 C 752.476 0.140336 1.91888 0
M  V30 8146 O 751.769 -0.847161 1.71854 0
M  V30 8147 C 751.963 2.51353 2.54079 0
M  V30 8148 C 751.792 3.97251 2.10764 0
M  V30 8149 C 750.562 4.65256 1.97141 0
M  V30 8150 C 752.76 4.85914 1.68499 0
M  V30 8151 N 750.742 5.95895 1.4759 0
M  V30 8152 C 752.113 6.06147 1.30331 0
M  V30 8153 C 754.168 4.72813 1.56051 0
M  V30 8154 C 752.871 7.14729 0.809591 0
M  V30 8155 C 754.897 5.8144 1.08083 0
M  V30 8156 C 754.259 7.00825 0.708775 0
M  V30 8157 H 750.358 0.604708 0.495835 0
M  V30 8158 H 752.942 1.81679 0.700055 0
M  V30 8159 H 751.113 2.21866 3.18795 0
M  V30 8160 H 752.845 2.46528 3.20945 0
M  V30 8161 H 749.6 4.20345 2.18191 0
M  V30 8162 H 750.024 6.65349 1.25059 0
M  V30 8163 H 754.666 3.80931 1.83443 0
M  V30 8164 H 752.384 8.06404 0.523215 0
M  V30 8165 H 755.97 5.73335 0.988842 0
M  V30 8166 H 754.85 7.83448 0.343305 0
M  V30 8167 N 752.353 -0.854086 1.3245 0
M  V30 8168 C 753.283 -1.97827 1.24044 0
M  V30 8169 C 754.264 -1.69646 0.124166 0
M  V30 8170 O 755.449 -1.91687 0.31143 0
M  V30 8171 C 752.579 -3.33673 0.963324 0
M  V30 8172 C 751.533 -3.76207 2.04089 0
M  V30 8173 C 750.859 -5.0969 1.61618 0
M  V30 8174 C 752.159 -3.91612 3.45597 0
M  V30 8175 H 753.853 -2.05118 2.18099 0
M  V30 8176 H 751.399 -0.985489 1.04996 0
M  V30 8177 H 753.352 -4.11871 0.891061 0
M  V30 8178 H 752.076 -3.26597 -0.0128649 0
M  V30 8179 H 750.735 -3.0026 2.10332 0
M  V30 8180 H 750.383 -4.99072 0.627418 0
M  V30 8181 H 750.083 -5.3912 2.33717 0
M  V30 8182 H 751.607 -5.90381 1.55829 0
M  V30 8183 H 753.021 -4.60163 3.4194 0
M  V30 8184 H 751.418 -4.3246 4.16051 0
M  V30 8185 H 752.488 -2.9451 3.85217 0
M  V30 8186 N 753.831 -1.1567 -1.07043 0
M  V30 8187 C 755.077 -0.9349 -1.79965 0
M  V30 8188 C 755.41 0.536464 -1.86643 0
M  V30 8189 O 754.685 1.39781 -1.35247 0
M  V30 8190 C 754.968 -1.55371 -3.24857 0
M  V30 8191 C 754.821 -3.09589 -3.26305 0
M  V30 8192 C 756.14 -1.24209 -4.22209 0
M  V30 8193 H 753.259 -0.341061 -0.653335 0
M  V30 8194 H 755.901 -1.42883 -1.25237 0
M  V30 8195 H 754.051 -1.13368 -3.71591 0
M  V30 8196 H 755.723 -3.60521 -2.87789 0
M  V30 8197 H 753.966 -3.43315 -2.65174 0
M  V30 8198 H 754.637 -3.48002 -4.28484 0
M  V30 8199 H 757.113 -1.60548 -3.8388 0
M  V30 8200 H 755.989 -1.70119 -5.21872 0
M  V30 8201 H 756.25 -0.15964 -4.41812 0
M  V30 8202 N 755.309 1.25446 -0.953992 0
M  V30 8203 C 756.725 1.4539 -0.658316 0
M  V30 8204 C 756.925 1.85607 0.784356 0
M  V30 8205 O 755.981 1.98568 1.55972 0
M  V30 8206 C 757.294 2.52643 -1.6307 0
M  V30 8207 C 758.842 2.66484 -1.64181 0
M  V30 8208 C 759.317 3.76921 -2.60182 0
M  V30 8209 N 760.808 3.84331 -2.58542 0
M  V30 8210 C 761.543 4.69271 -3.29503 0
M  V30 8211 N 761.039 5.58503 -4.09934 0
M  V30 8212 N 762.832 4.6323 -3.18393 0
M  V30 8213 H 754.983 0.976337 -1.8863 0
M  V30 8214 H 757.246 0.490343 -0.811337 0
M  V30 8215 H 756.952 2.29949 -2.66114 0
M  V30 8216 H 756.826 3.50547 -1.39271 0
M  V30 8217 H 759.213 2.88545 -0.618552 0
M  V30 8218 H 759.294 1.68982 -1.92038 0
M  V30 8219 H 758.938 3.55612 -3.62633 0
M  V30 8220 H 758.868 4.73906 -2.29609 0
M  V30 8221 H 761.359 3.20544 -2.0015 0
M  V30 8222 H 761.672 6.20241 -4.61 0
M  V30 8223 H 760.017 5.58214 -4.14032 0
M  V30 8224 H 763.208 3.92527 -2.5503 0
M  V30 8225 H 763.381 5.29204 -3.73961 0
M  V30 8226 N 756.787 0.722489 1.40064 0
M  V30 8227 C 758.012 0.273446 2.05589 0
M  V30 8228 C 758.437 -1.07875 1.54093 0
M  V30 8229 O 757.795 -1.68095 0.679252 0
M  V30 8230 C 757.843 0.271023 3.5958 0
M  V30 8231 O 756.947 -0.745499 4.05606 0
M  V30 8232 H 756.288 0.126856 0.65177 0
M  V30 8233 H 758.818 0.984906 1.79334 0
M  V30 8234 H 758.828 0.111084 4.07849 0
M  V30 8235 H 757.503 1.25776 3.96425 0
M  V30 8236 H 756.08 -0.552719 3.68781 0
M  V30 8237 N 758.265 -1.50454 0.469181 0
M  V30 8238 C 759.495 -2.06429 -0.0840913 0
M  V30 8239 C 759.903 -1.3334 -1.34227 0
M  V30 8240 O 759.246 -0.395656 -1.79389 0
M  V30 8241 C 759.308 -3.56797 -0.440049 0
M  V30 8242 C 758.972 -4.51359 0.715838 0
M  V30 8243 C 759.969 -4.94754 1.59732 0
M  V30 8244 C 757.654 -4.94069 0.905621 0
M  V30 8245 C 759.648 -5.79564 2.653 0
M  V30 8246 C 757.335 -5.78662 1.96453 0
M  V30 8247 C 758.333 -6.21311 2.83658 0
M  V30 8248 O 758.021 -7.04218 3.87727 0
M  V30 8249 H 757.753 -0.675994 0.00289751 0
M  V30 8250 H 760.307 -1.94629 0.656417 0
M  V30 8251 H 758.537 -3.66492 -1.23372 0
M  V30 8252 H 760.226 -3.95145 -0.928181 0
M  V30 8253 H 760.992 -4.62428 1.46237 0
M  V30 8254 H 756.871 -4.60394 0.236326 0
M  V30 8255 H 760.415 -6.12774 3.33398 0
M  V30 8256 H 756.312 -6.10401 2.09955 0
M  V30 8257 H 757.08 -7.22464 3.84692 0
M  V30 8258 N 759.743 -0.201713 -1.56304 0
M  V30 8259 C 760.989 0.435952 -1.98059 0
M  V30 8260 C 761.322 1.60811 -1.08873 0
M  V30 8261 O 760.597 1.9398 -0.142128 0
M  V30 8262 C 760.88 0.889706 -3.48936 0
M  V30 8263 C 760.733 -0.284725 -4.48898 0
M  V30 8264 C 762.052 1.7529 -4.03685 0
M  V30 8265 H 759.171 0.15699 -0.720085 0
M  V30 8266 H 761.813 -0.293965 -1.87712 0
M  V30 8267 H 759.963 1.51166 -3.57884 0
M  V30 8268 H 761.635 -0.922531 -4.51981 0
M  V30 8269 H 759.878 -0.935427 -4.23594 0
M  V30 8270 H 760.549 0.0753865 -5.51949 0
M  V30 8271 H 763.025 1.2283 -3.97558 0
M  V30 8272 H 761.901 2.03933 -5.0961 0
M  V30 8273 H 762.162 2.70939 -3.49348 0
M  V30 8274 N 761.222 1.57436 0.0718424 0
M  V30 8275 C 762.132 2.07039 1.10326 0
M  V30 8276 C 763.148 0.999918 1.424 0
M  V30 8277 O 764.324 1.31462 1.52577 0
M  V30 8278 C 761.389 2.50439 2.39752 0
M  V30 8279 C 760.45 3.71784 2.14651 0
M  V30 8280 C 759.683 4.13104 3.37906 0
M  V30 8281 O 759.906 3.54298 4.47023 0
M  V30 8282 O 758.84 5.05894 3.26121 0
M  V30 8283 H 762.666 2.95239 0.711872 0
M  V30 8284 H 760.251 1.46638 0.28597 0
M  V30 8285 H 762.133 2.78876 3.15921 0
M  V30 8286 H 760.808 1.65368 2.78271 0
M  V30 8287 H 759.715 3.48431 1.36187 0
M  V30 8288 H 761.048 4.57707 1.81012 0
M  V30 8289 N 762.7 -0.34323 1.53817 0
M  V30 8290 C 763.632 -1.44216 1.78141 0
M  V30 8291 C 764.645 -1.48701 0.662721 0
M  V30 8292 O 765.834 -1.51778 0.939458 0
M  V30 8293 C 762.934 -2.82872 1.86646 0
M  V30 8294 C 762.107 -3.01824 3.16577 0
M  V30 8295 C 761.166 -4.20723 3.16036 0
M  V30 8296 O 760.192 -4.14824 3.89756 0
M  V30 8297 N 761.394 -5.29276 2.38427 0
M  V30 8298 H 764.159 -1.23721 2.72971 0
M  V30 8299 H 761.72 -0.53311 1.52871 0
M  V30 8300 H 763.712 -3.60588 1.83735 0
M  V30 8301 H 762.282 -2.96509 0.990014 0
M  V30 8302 H 761.502 -2.11575 3.3261 0
M  V30 8303 H 762.79 -3.11369 4.02402 0
M  V30 8304 H 762.188 -5.36938 1.78085 0
M  V30 8305 H 760.745 -6.05484 2.41313 0
M  V30 8306 N 764.178 -1.45556 -0.604258 0
M  V30 8307 C 765.141 -1.54091 -1.69672 0
M  V30 8308 C 766.141 -0.420076 -1.55216 0
M  V30 8309 O 767.331 -0.683671 -1.60224 0
M  V30 8310 C 764.463 -1.44063 -3.08964 0
M  V30 8311 H 765.656 -2.51431 -1.6347 0
M  V30 8312 H 763.209 -1.33046 -0.820273 0
M  V30 8313 H 763.944 -0.479201 -3.2074 0
M  V30 8314 H 763.729 -2.25362 -3.20865 0
M  V30 8315 H 765.219 -1.53075 -3.88533 0
M  V30 8316 N 765.656 0.84705 -1.32902 0
M  V30 8317 C 766.904 1.5986 -1.2365 0
M  V30 8318 C 767.225 1.93974 0.199789 0
M  V30 8319 O 766.495 1.60273 1.12648 0
M  V30 8320 H 765.075 0.592696 -0.454665 0
M  V30 8321 H 767.737 1.01278 -1.66519 0
M  V30 8322 H 766.833 2.53218 -1.82448 0
M  V30 8323 N 767.134 1.16236 1.06428 0
M  V30 8324 C 768.382 0.941171 1.78847 0
M  V30 8325 C 768.703 -0.53248 1.87589 0
M  V30 8326 O 767.973 -1.38686 1.38358 0
M  V30 8327 H 766.553 0.345228 0.66244 0
M  V30 8328 H 769.215 1.46479 1.28569 0
M  V30 8329 H 768.311 1.35871 2.80972 0
M  V30 8330 N 768.612 -1.24939 0.960631 0
M  V30 8331 C 769.837 -1.9742 0.635608 0
M  V30 8332 C 770.262 -1.70857 -0.786737 0
M  V30 8333 O 769.62 -0.968063 -1.53291 0
M  V30 8334 C 769.668 -3.48987 0.907771 0
M  V30 8335 O 768.772 -4.12399 -0.0104053 0
M  V30 8336 H 768.113 -0.61871 0.241027 0
M  V30 8337 H 770.643 -1.58901 1.28886 0
M  V30 8338 H 770.653 -3.99334 0.836453 0
M  V30 8339 H 769.328 -3.6765 1.94439 0
M  V30 8340 H 767.905 -3.72727 0.113631 0
M  V30 8341 N 770.09 -0.729906 -1.39679 0
M  V30 8342 C 771.339 -0.272534 -1.9985 0
M  V30 8343 C 771.652 1.14519 -1.58571 0
M  V30 8344 O 772.858 1.70182 -2.11543 0
M  V30 8345 C 771.314 -0.436322 -3.57245 0
M  V30 8346 C 770.922 -1.86161 -4.0749 0
M  V30 8347 C 772.666 -0.0404679 -4.24481 0
M  V30 8348 C 770.573 -1.97522 -5.5744 0
M  V30 8349 H 769.503 -0.0981428 -0.747585 0
M  V30 8350 H 772.154 -0.903056 -1.59741 0
M  V30 8351 H 770.536 0.263015 -3.95126 0
M  V30 8352 H 771.71 -2.59248 -3.80955 0
M  V30 8353 H 770.025 -2.21021 -3.529 0
M  V30 8354 H 772.622 -0.104437 -5.34598 0
M  V30 8355 H 772.965 1.00357 -4.04023 0
M  V30 8356 H 773.498 -0.690774 -3.91757 0
M  V30 8357 H 770.237 -3.00096 -5.82771 0
M  V30 8358 H 769.757 -1.28864 -5.85794 0
M  V30 8359 H 771.436 -1.754 -6.22771 0
M  V30 8360 N 771.568 1.50203 -0.477153 0
M  V30 8361 C 772.814 2.02658 0.0758507 0
M  V30 8362 C 773.147 1.358 1.38824 0
M  V30 8363 O 772.422 0.485696 1.88338 0
M  V30 8364 C 772.705 3.59208 0.253339 0
M  V30 8365 C 772.558 4.36629 -1.0805 0
M  V30 8366 C 773.877 4.28469 1.00509 0
M  V30 8367 H 770.996 0.736538 0.0260921 0
M  V30 8368 H 773.638 1.79464 -0.623925 0
M  V30 8369 H 771.788 3.79101 0.849378 0
M  V30 8370 H 773.46 4.28292 -1.71358 0
M  V30 8371 H 771.703 4.0013 -1.67566 0
M  V30 8372 H 772.374 5.44449 -0.909883 0
M  V30 8373 H 774.85 4.13087 0.499818 0
M  V30 8374 H 773.726 5.37804 1.09808 0
M  V30 8375 H 773.987 3.92057 2.04314 0
M  V30 8376 N 773.046 0.209999 1.56195 0
M  V30 8377 C 774.292 -0.425442 1.98287 0
M  V30 8378 C 774.625 -1.60232 1.09724 0
M  V30 8379 O 773.9 -1.93902 0.152414 0
M  V30 8380 C 774.183 -0.871189 3.49403 0
M  V30 8381 C 774.036 0.308527 4.48741 0
M  V30 8382 C 775.355 -1.73146 4.04609 0
M  V30 8383 H 772.474 -0.153169 0.720908 0
M  V30 8384 H 775.116 0.303916 1.87554 0
M  V30 8385 H 773.266 -1.49266 3.58681 0
M  V30 8386 H 774.938 0.946487 4.51486 0
M  V30 8387 H 773.181 0.957878 4.23092 0
M  V30 8388 H 773.852 -0.0461143 5.51981 0
M  V30 8389 H 776.328 -1.2072 3.98203 0
M  V30 8390 H 775.204 -2.01228 5.10684 0
M  V30 8391 H 775.465 -2.69083 3.5078 0
M  V30 8392 N 774.524 -1.57472 -0.0634922 0
M  V30 8393 C 775.434 -2.07621 -1.09227 0
M  V30 8394 C 776.45 -1.00746 -1.41867 0
M  V30 8395 O 777.626 -1.32269 -1.51878 0
M  V30 8396 C 774.691 -2.51707 -2.38421 0
M  V30 8397 C 773.752 -3.72917 -2.12676 0
M  V30 8398 C 772.985 -4.14891 -3.3571 0
M  V30 8399 O 773.208 -3.56663 -4.45137 0
M  V30 8400 O 772.142 -5.07616 -3.23434 0
M  V30 8401 H 775.968 -2.95612 -0.696205 0
M  V30 8402 H 773.553 -1.46787 -0.27819 0
M  V30 8403 H 775.435 -2.80547 -3.14438 0
M  V30 8404 H 774.11 -1.66842 -2.77391 0
M  V30 8405 H 773.017 -3.49148 -1.34337 0
M  V30 8406 H 774.35 -4.5866 -1.78583 0
M  V30 8407 N 776.003 0.335068 -1.53997 0
M  V30 8408 C 776.951 1.43206 -1.83289 0
M  V30 8409 C 777.945 1.54081 -0.703953 0
M  V30 8410 O 779.151 1.56603 -0.887432 0
M  V30 8411 H 775.526 0.477655 -0.580818 0
M  V30 8412 H 777.497 1.15719 -2.75049 0
M  V30 8413 C 776.246 2.79602 -2.06683 0
M  V30 8414 H 775.569 2.72004 -2.93008 0
M  V30 8415 H 777.009 3.55459 -2.31139 0
M  V30 8416 C 775.468 3.25873 -0.854883 0
M  V30 8417 O 775.998 4.01657 -0.0584648 0
M  V30 8418 N 774.204 2.82777 -0.669729 0
M  V30 8419 H 773.751 2.21269 -1.31901 0
M  V30 8420 H 773.709 3.1409 0.13969 0
M  V30 8421 N 777.481 1.45874 0.596531 0
M  V30 8422 C 778.429 1.55739 1.72766 0
M  V30 8423 C 779.423 0.426666 1.63939 0
M  V30 8424 O 780.629 0.60301 1.69599 0
M  V30 8425 H 777.004 0.489386 0.570968 0
M  V30 8426 H 778.975 2.50871 1.61575 0
M  V30 8427 C 777.724 1.55174 3.11153 0
M  V30 8428 H 777.047 2.41511 3.1861 0
M  V30 8429 H 778.487 1.66133 3.90097 0
M  V30 8430 C 776.946 0.278001 3.35751 0
M  V30 8431 O 777.476 -0.637557 3.96608 0
M  V30 8432 N 775.682 0.170227 2.90101 0
M  V30 8433 H 775.229 0.916159 2.40758 0
M  V30 8434 H 775.187 -0.68117 3.06932 0
M  V30 8435 N 778.959 -0.83999 1.33349 0
M  V30 8436 C 780.208 -1.59011 1.2409 0
M  V30 8437 C 780.521 -1.94655 -0.192029 0
M  V30 8438 O 781.727 -2.68438 -0.406617 0
M  V30 8439 C 780.183 -2.86801 2.17425 0
M  V30 8440 C 779.791 -2.58525 3.65881 0
M  V30 8441 C 781.535 -3.64823 2.17036 0
M  V30 8442 C 779.442 -3.82404 4.51133 0
M  V30 8443 H 778.372 -0.596731 0.460899 0
M  V30 8444 H 781.023 -0.926274 1.58406 0
M  V30 8445 H 779.405 -3.54719 1.7604 0
M  V30 8446 H 780.579 -1.98824 4.15699 0
M  V30 8447 H 778.894 -1.93808 3.68548 0
M  V30 8448 H 781.491 -4.56774 2.7796 0
M  V30 8449 H 781.834 -3.99663 1.16513 0
M  V30 8450 H 782.367 -3.03826 2.56777 0
M  V30 8451 H 779.106 -3.52696 5.52527 0
M  V30 8452 H 778.626 -4.41447 4.0606 0
M  V30 8453 H 780.305 -4.49995 4.6488 0
M  V30 8454 N 780.437 -1.16799 -1.0581 0
M  V30 8455 C 781.848 -0.95945 -1.60161 0
M  V30 8456 C 782.199 0.49543 -1.89842 0
M  V30 8457 O 781.324 1.36957 -1.67546 0
M  V30 8458 C 781.919 -1.73527 -2.90987 0
M  V30 8459 C 780.478 -1.57158 -3.42021 0
M  V30 8460 C 779.625 -1.74089 -2.15843 0
M  V30 8461 H 782.576 -1.31598 -0.886992 0
M  V30 8462 H 782.597 -1.21397 -3.60615 0
M  V30 8463 H 782.109 -2.79411 -2.69353 0
M  V30 8464 H 780.21 -0.537361 -3.68705 0
M  V30 8465 H 780.323 -2.35858 -4.17022 0
M  V30 8466 H 778.687 -1.16874 -2.26302 0
M  V30 8467 H 779.47 -2.81371 -1.96686 0
M  V30 8468 N 781.915 1.24427 -0.967243 0
M  V30 8469 C 783.162 1.92487 -0.62888 0
M  V30 8470 C 783.49 1.75623 0.835871 0
M  V30 8471 O 782.745 1.1027 1.61675 0
M  V30 8472 C 783.044 3.44568 -0.949096 0
M  V30 8473 C 782.71 3.816 -2.40192 0
M  V30 8474 C 781.372 3.9142 -2.799 0
M  V30 8475 C 783.724 3.99715 -3.34481 0
M  V30 8476 C 781.052 4.16771 -4.12939 0
M  V30 8477 C 783.404 4.26562 -4.67148 0
M  V30 8478 C 782.068 4.34601 -5.06634 0
M  V30 8479 H 781.338 0.704361 -0.230124 0
M  V30 8480 H 783.985 1.4772 -1.21864 0
M  V30 8481 H 782.29 3.90819 -0.277085 0
M  V30 8482 H 783.987 3.95436 -0.665692 0
M  V30 8483 H 780.577 3.74522 -2.08402 0
M  V30 8484 H 784.761 3.91531 -3.04987 0
M  V30 8485 H 780.017 4.21214 -4.43158 0
M  V30 8486 H 784.191 4.39523 -5.40178 0
M  V30 8487 H 781.818 4.53998 -6.09746 0
M  V30 8488 N 783.393 0.737304 1.3929 0
M  V30 8489 C 784.641 0.285691 2.00071 0
M  V30 8490 C 784.962 -1.13169 1.58801 0
M  V30 8491 O 784.232 -1.77104 0.837308 0
M  V30 8492 H 782.812 0.102638 0.739915 0
M  V30 8493 H 785.474 0.947775 1.70303 0
M  V30 8494 H 784.57 0.335906 3.10287 0
M  V30 8495 N 784.871 -1.49948 0.485112 0
M  V30 8496 C 786.099 -2.06806 -0.0622824 0
M  V30 8497 C 786.514 -1.34736 -1.32256 0
M  V30 8498 O 785.871 -0.420836 -1.77582 0
M  V30 8499 C 785.922 -3.59934 -0.336096 0
M  V30 8500 O 785.643 -4.29289 0.874203 0
M  V30 8501 C 787.144 -4.33459 -0.928903 0
M  V30 8502 H 784.364 -0.670867 0.0133472 0
M  V30 8503 H 786.908 -1.92937 0.677917 0
M  V30 8504 H 785.063 -3.7356 -1.02625 0
M  V30 8505 H 785.477 -5.20735 0.627332 0
M  V30 8506 H 786.951 -5.41527 -1.07017 0
M  V30 8507 H 787.428 -3.94881 -1.92265 0
M  V30 8508 H 788.034 -4.24399 -0.276705 0
M  V30 8509 N 786.349 -0.21828 -1.56081 0
M  V30 8510 C 787.598 0.414644 -1.97392 0
M  V30 8511 C 787.911 1.61132 -1.10887 0
M  V30 8512 O 789.117 2.31355 -1.42082 0
M  V30 8513 C 787.573 0.789099 -3.51143 0
M  V30 8514 C 787.181 -0.384578 -4.46346 0
M  V30 8515 C 788.925 1.38781 -4.01173 0
M  V30 8516 C 786.832 0.0121288 -5.91399 0
M  V30 8517 H 785.762 0.158691 -0.737111 0
M  V30 8518 H 788.413 -0.313974 -1.80794 0
M  V30 8519 H 786.795 1.57505 -3.6333 0
M  V30 8520 H 787.969 -1.16212 -4.45905 0
M  V30 8521 H 786.284 -0.896306 -4.06639 0
M  V30 8522 H 788.881 1.69746 -5.07041 0
M  V30 8523 H 789.224 2.30245 -3.46833 0
M  V30 8524 H 789.757 0.665364 -3.92196 0
M  V30 8525 H 786.496 -0.868917 -6.49715 0
M  V30 8526 H 786.016 0.754053 -5.95041 0
M  V30 8527 H 787.695 0.439949 -6.45502 0
M  V30 8528 N 787.827 1.57504 0.0551401 0
M  V30 8529 C 789.074 1.88055 0.751104 0
M  V30 8530 C 789.402 0.812231 1.76729 0
M  V30 8531 O 788.657 -0.189918 1.94776 0
M  V30 8532 C 788.956 3.25311 1.48013 0
M  V30 8533 C 788.622 4.46858 0.602375 0
M  V30 8534 C 787.284 4.79847 0.360536 0
M  V30 8535 C 789.636 5.212 -0.00524047 0
M  V30 8536 C 786.964 5.84582 -0.498127 0
M  V30 8537 C 789.316 6.26844 -0.851453 0
M  V30 8538 C 787.98 6.58324 -1.103 0
M  V30 8539 H 787.25 0.688142 0.274848 0
M  V30 8540 H 789.897 1.91497 0.0114795 0
M  V30 8541 H 788.202 3.17737 2.29239 0
M  V30 8542 H 789.899 3.46189 2.02371 0
M  V30 8543 H 786.489 4.21049 0.801007 0
M  V30 8544 H 790.673 4.96013 0.168682 0
M  V30 8545 H 785.929 6.07361 -0.701594 0
M  V30 8546 H 790.103 6.83603 -1.32893 0
M  V30 8547 H 787.73 7.39304 -1.77011 0
M  V30 8548 N 789.305 -0.326896 1.54172 0
M  V30 8549 C 790.533 -1.08486 1.76177 0
M  V30 8550 C 790.948 -1.81815 0.508788 0
M  V30 8551 O 790.305 -1.74924 -0.520362 0
M  V30 8552 C 790.356 -2.08552 2.95276 0
M  V30 8553 O 790.077 -1.38202 4.15731 0
M  V30 8554 C 791.578 -2.96593 3.29466 0
M  V30 8555 H 788.798 -0.322835 0.588233 0
M  V30 8556 H 791.342 -0.374036 2.0105 0
M  V30 8557 H 789.497 -2.75174 2.72687 0
M  V30 8558 H 789.911 -2.05186 4.827 0
M  V30 8559 H 791.385 -3.62708 4.16109 0
M  V30 8560 H 791.862 -3.63511 2.46487 0
M  V30 8561 H 792.468 -2.35537 3.54122 0
M  V30 8562 N 790.784 -1.46188 -0.588786 0
M  V30 8563 C 791.714 -1.59148 -1.70863 0
M  V30 8564 C 792.695 -0.442083 -1.64255 0
M  V30 8565 O 793.88 -0.667575 -1.82365 0
M  V30 8566 C 791.01 -1.5757 -3.09498 0
M  V30 8567 C 789.964 -2.71418 -3.30932 0
M  V30 8568 C 789.29 -2.549 -4.70032 0
M  V30 8569 C 790.59 -4.1329 -3.19356 0
M  V30 8570 H 792.284 -2.52889 -1.60274 0
M  V30 8571 H 789.83 -1.21707 -0.769638 0
M  V30 8572 H 791.783 -1.65231 -3.87655 0
M  V30 8573 H 790.507 -0.603705 -3.20972 0
M  V30 8574 H 789.166 -2.63216 -2.55172 0
M  V30 8575 H 788.814 -1.55797 -4.78264 0
M  V30 8576 H 788.514 -3.31257 -4.85327 0
M  V30 8577 H 790.038 -2.64443 -5.50366 0
M  V30 8578 H 791.452 -4.22636 -3.87365 0
M  V30 8579 H 789.849 -4.90187 -3.46175 0
M  V30 8580 H 790.919 -4.33874 -2.16522 0
M  V30 8581 N 792.262 0.832906 -1.33792 0
M  V30 8582 C 793.492 1.61813 -1.28453 0
M  V30 8583 C 793.9 1.88639 0.145595 0
M  V30 8584 O 793.243 1.47122 1.10004 0
M  V30 8585 C 793.305 2.98929 -1.99704 0
M  V30 8586 C 792.969 2.95045 -3.48995 0
M  V30 8587 C 793.966 2.70337 -4.44088 0
M  V30 8588 C 791.651 3.14993 -3.91261 0
M  V30 8589 C 793.645 2.65612 -5.79421 0
M  V30 8590 C 791.332 3.09893 -5.26697 0
M  V30 8591 C 792.33 2.85235 -6.20588 0
M  V30 8592 O 792.018 2.8005 -7.53543 0
M  V30 8593 H 791.75 0.510013 -0.443693 0
M  V30 8594 H 794.304 1.04514 -1.76822 0
M  V30 8595 H 792.534 3.58106 -1.45935 0
M  V30 8596 H 794.223 3.59849 -1.87786 0
M  V30 8597 H 794.989 2.54671 -4.12756 0
M  V30 8598 H 790.868 3.33204 -3.18584 0
M  V30 8599 H 794.412 2.46285 -6.52679 0
M  V30 8600 H 790.309 3.2511 -5.5765 0
M  V30 8601 H 791.077 2.95849 -7.63162 0
M  V30 8602 N 793.74 1.17359 1.05189 0
M  V30 8603 C 794.989 0.956412 1.77583 0
M  V30 8604 C 795.302 -0.516018 1.88671 0
M  V30 8605 O 796.508 -0.851401 2.57805 0
M  V30 8606 C 794.964 1.66203 3.19225 0
M  V30 8607 C 794.572 3.17299 3.16267 0
M  V30 8608 C 796.316 1.52725 3.96075 0
M  V30 8609 C 794.223 3.8055 4.52698 0
M  V30 8610 H 793.153 0.354204 0.665624 0
M  V30 8611 H 795.804 1.40612 1.17901 0
M  V30 8612 H 794.186 1.14006 3.79234 0
M  V30 8613 H 795.36 3.76431 2.65776 0
M  V30 8614 H 793.675 3.3079 2.52917 0
M  V30 8615 H 796.272 1.97351 4.96947 0
M  V30 8616 H 796.615 0.477803 4.13549 0
M  V30 8617 H 797.148 2.02139 3.42614 0
M  V30 8618 H 793.887 4.85492 4.4043 0
M  V30 8619 H 793.407 3.26206 5.03339 0
M  V30 8620 H 795.086 3.82757 5.21638 0
M  V30 8621 N 795.218 -1.23913 0.973828 0
M  V30 8622 C 796.629 -1.73992 0.677021 0
M  V30 8623 C 796.98 -1.78833 -0.807036 0
M  V30 8624 O 796.105 -1.42183 -1.63135 0
M  V30 8625 C 796.7 -3.15985 1.22226 0
M  V30 8626 C 795.259 -3.63547 0.975228 0
M  V30 8627 C 794.406 -2.42001 1.35392 0
M  V30 8628 H 797.357 -1.09529 1.14844 0
M  V30 8629 H 797.378 -3.75875 0.591489 0
M  V30 8630 H 796.89 -3.12429 2.30238 0
M  V30 8631 H 794.991 -3.72493 -0.0891047 0
M  V30 8632 H 795.104 -4.50693 1.62518 0
M  V30 8633 H 793.468 -2.42708 0.772334 0
M  V30 8634 H 794.251 -2.41122 2.44367 0
M  V30 8635 N 796.696 -0.74468 -1.38897 0
M  V30 8636 C 797.626 -0.126355 -2.33158 0
M  V30 8637 C 798.607 0.713517 -1.54412 0
M  V30 8638 O 799.792 0.656523 -1.82766 0
M  V30 8639 C 796.922 0.774375 -3.38557 0
M  V30 8640 C 795.876 0.0379214 -4.27983 0
M  V30 8641 C 795.202 1.05631 -5.24162 0
M  V30 8642 C 796.502 -1.12523 -5.10035 0
M  V30 8643 H 798.196 -0.913744 -2.85116 0
M  V30 8644 H 795.742 -0.440847 -1.37086 0
M  V30 8645 H 797.695 1.21655 -4.03458 0
M  V30 8646 H 796.419 1.59399 -2.85061 0
M  V30 8647 H 795.078 -0.384733 -3.64576 0
M  V30 8648 H 794.726 1.86975 -4.66958 0
M  V30 8649 H 794.426 0.568261 -5.84846 0
M  V30 8650 H 795.95 1.49799 -5.9194 0
M  V30 8651 H 797.364 -0.761037 -5.68226 0
M  V30 8652 H 795.761 -1.54355 -5.79909 0
M  V30 8653 H 796.831 -1.94237 -4.44297 0
M  V30 8654 N 798.174 1.49689 -0.493057 0
M  V30 8655 C 799.402 2.06836 0.0513141 0
M  V30 8656 C 799.817 1.35436 1.31539 0
M  V30 8657 O 799.174 0.430248 1.77356 0
M  V30 8658 C 799.225 3.60107 0.317003 0
M  V30 8659 O 798.946 4.2882 -0.896957 0
M  V30 8660 C 800.447 4.33945 0.905902 0
M  V30 8661 H 797.667 0.670787 -0.0169048 0
M  V30 8662 H 800.211 1.92574 -0.688139 0
M  V30 8663 H 798.366 3.74099 1.00642 0
M  V30 8664 H 798.78 5.20395 -0.654939 0
M  V30 8665 H 800.254 5.42087 1.04144 0
M  V30 8666 H 800.731 3.95895 1.90168 0
M  V30 8667 H 801.337 4.2454 0.254195 0
M  V30 8668 N 799.652 0.226554 1.55963 0
M  V30 8669 C 801.068 -0.128733 1.5908 0
M  V30 8670 C 801.268 -1.58558 1.24345 0
M  V30 8671 O 800.324 -2.32661 0.981069 0
M  V30 8672 C 801.637 0.202076 3.0002 0
M  V30 8673 C 803.185 0.144718 3.12665 0
M  V30 8674 C 803.66 0.449272 4.55791 0
M  V30 8675 N 805.151 0.399026 4.61478 0
M  V30 8676 C 805.886 0.608106 5.70166 0
M  V30 8677 N 805.382 0.879227 6.87198 0
M  V30 8678 N 807.175 0.5402 5.59498 0
M  V30 8679 H 799.326 1.17686 1.76816 0
M  V30 8680 H 801.589 0.472072 0.822102 0
M  V30 8681 H 801.295 1.21341 3.30105 0
M  V30 8682 H 801.169 -0.480554 3.74126 0
M  V30 8683 H 803.556 -0.857261 2.82374 0
M  V30 8684 H 803.637 0.860899 2.40878 0
M  V30 8685 H 803.281 1.44871 4.86801 0
M  V30 8686 H 803.211 -0.288157 5.25811 0
M  V30 8687 H 805.702 0.197372 3.77384 0
M  V30 8688 H 806.015 1.02673 7.65949 0
M  V30 8689 H 804.36 0.916477 6.88931 0
M  V30 8690 H 807.551 0.328581 4.66945 0
M  V30 8691 H 807.724 0.706548 6.44137 0
M  V30 8692 N 801.13 -1.57531 -0.0467866 0
M  V30 8693 C 802.407 -1.79568 -0.775536 0
M  V30 8694 C 802.787 -0.820322 -1.94509 0
M  V30 8695 O 802.135 0.14134 -2.28062 0
M  V30 8696 C 802.345 -3.26789 -1.22516 0
M  V30 8697 C 803.693 -3.91299 -1.64835 0
M  V30 8698 O 804.717 -3.30831 -1.3202 0
M  V30 8699 O 803.576 -4.97727 -2.25677 0
M  V30 8700 H 800.67 -0.737817 -0.373572 0
M  V30 8701 H 803.216 -1.69682 -0.0249302 0
M  V30 8702 H 801.988 -3.89357 -0.389446 0
M  V30 8703 H 801.611 -3.41496 -2.03633 0
M  V30 8704 N 802.608 0.318715 -1.54344 0
M  V30 8705 C 803.518 1.41535 -1.87097 0
M  V30 8706 C 804.534 1.56361 -0.763353 0
M  V30 8707 O 805.71 1.71365 -1.05811 0
M  V30 8708 C 802.775 2.76178 -2.09587 0
M  V30 8709 C 801.836 2.70486 -3.3337 0
M  V30 8710 C 801.069 3.98708 -3.54778 0
M  V30 8711 O 801.292 4.9721 -2.79532 0
M  V30 8712 O 800.226 4.01674 -4.48266 0
M  V30 8713 H 804.052 1.16764 -2.80357 0
M  V30 8714 H 801.637 0.51318 -1.4031 0
M  V30 8715 H 803.519 3.55873 -2.25682 0
M  V30 8716 H 802.194 3.00829 -1.19514 0
M  V30 8717 H 801.101 1.89325 -3.22656 0
M  V30 8718 H 802.434 2.50789 -4.23516 0
M  V30 8719 N 804.086 1.46499 0.581025 0
M  V30 8720 C 805.036 1.53606 1.68491 0
M  V30 8721 C 806.02 0.396853 1.55929 0
M  V30 8722 O 807.212 0.645366 1.64815 0
M  V30 8723 C 804.341 1.53089 3.07276 0
M  V30 8724 C 803.427 2.72309 3.25128 0
M  V30 8725 N 803.818 3.97216 3.13134 0
M  V30 8726 C 802.116 2.68568 3.56072 0
M  V30 8727 C 802.817 4.7693 3.33036 0
M  V30 8728 N 801.793 4.08833 3.58269 0
M  V30 8729 H 805.595 2.47976 1.5775 0
M  V30 8730 H 803.109 1.42161 0.785104 0
M  V30 8731 H 805.106 1.56268 3.86505 0
M  V30 8732 H 803.766 0.597969 3.19146 0
M  V30 8733 H 804.777 4.28439 2.90964 0
M  V30 8734 H 801.454 1.84307 3.74616 0
M  V30 8735 H 802.844 5.85879 3.28932 0
M  V30 8736 N 805.565 -0.825799 1.34232 0
M  V30 8737 C 806.515 -1.92533 1.22128 0
M  V30 8738 C 807.499 -1.60444 0.121002 0
M  V30 8739 O 808.691 -1.73497 0.350385 0
M  V30 8740 C 805.82 -3.29134 0.975995 0
M  V30 8741 C 804.906 -3.6735 2.11931 0
M  V30 8742 N 805.297 -3.77154 3.37029 0
M  V30 8743 C 803.595 -3.97179 2.02891 0
M  V30 8744 C 804.296 -4.10552 4.12095 0
M  V30 8745 N 803.272 -4.23619 3.40658 0
M  V30 8746 H 807.074 -1.98287 2.16932 0
M  V30 8747 H 804.588 -1.01929 1.26429 0
M  V30 8748 H 806.585 -4.07717 0.870187 0
M  V30 8749 H 805.245 -3.24679 0.036606 0
M  V30 8750 H 806.256 -3.60723 3.71618 0
M  V30 8751 H 802.933 -4.00861 1.16692 0
M  V30 8752 H 804.323 -4.25365 5.2011 0
M  V30 8753 N 807.043 -1.17915 -1.04565 0
M  V30 8754 C 808.291 -0.969505 -1.77327 0
M  V30 8755 C 808.612 0.502569 -1.88412 0
M  V30 8756 O 807.882 1.36467 -1.40547 0
M  V30 8757 H 806.462 -0.355723 -0.656864 0
M  V30 8758 H 809.124 -1.48506 -1.26223 0
M  V30 8759 H 808.22 -1.40324 -2.78775 0
M  V30 8760 O 808.56 1.1738 -1.10924 0
M  V30 8761 H 809.251 1.75813 -0.81298 0
M  V30 END ATOM
M  V30 BEGIN BOND
M  V30 END BOND
M  V30 END CTAB
M  END
$$$$
