drugbank_target|P52647 Probable pyruvate-flavodoxin oxidoreductase (DB00698)
 OpenBabel12092120103D

  0  0  0     0  0            999 V3000
M  V30 BEGIN CTAB
M  V30 COUNTS 18025 18222 0 0 0
M  V30 BEGIN ATOM
M  V30 1 H -0.908 1.98254 -0.117106 0
M  V30 2 N 0 1.576 0 0
M  V30 3 C 0.933 2.03868 1.02534 0
M  V30 4 C 1.911 0.928543 1.3348 0
M  V30 5 O 3.095 1.19667 1.45644 0
M  V30 6 C 0.222 2.43627 2.35294 0
M  V30 7 C -0.732 3.65373 2.2001 0
M  V30 8 S 0.101 5.13292 1.52614 0
M  V30 9 C 1.257 5.56322 2.86805 0
M  V30 10 H 1.49 2.90518 0.631377 0
M  V30 11 H -0.977 1.52953 0.210867 0
M  V30 12 H 0.981 2.67203 3.11629 0
M  V30 13 H -0.358 1.57376 2.7183 0
M  V30 14 H -1.165 3.90944 3.18086 0
M  V30 15 H -1.563 3.418 1.51819 0
M  V30 16 H 0.729 5.58782 3.83104 0
M  V30 17 H 1.672 6.56266 2.65933 0
M  V30 18 H 2.08 4.83886 2.90714 0
M  V30 19 N 1.4781 -0.272755 1.55222 0
M  V30 20 C 2.7271 -1.00211 1.75045 0
M  V30 21 C 3.0401 -1.87441 0.559046 0
M  V30 22 O 4.2461 -2.63856 0.639698 0
M  V30 23 C 2.7021 -1.83165 3.09804 0
M  V30 24 C 2.3101 -1.008 4.36513 0
M  V30 25 C 4.0541 -2.55529 3.38977 0
M  V30 26 C 1.9611 -1.83194 5.62311 0
M  V30 27 H 0.8911 -0.377878 0.652476 0
M  V30 28 H 3.5421 -0.257776 1.8168 0
M  V30 29 H 1.9241 -2.61694 2.97207 0
M  V30 30 H 3.0981 -0.266855 4.60027 0
M  V30 31 H 1.4131 -0.398897 4.14485 0
M  V30 32 H 4.0101 -3.17578 4.30172 0
M  V30 33 H 4.3531 -3.25825 2.59121 0
M  V30 34 H 4.8861 -1.84029 3.52673 0
M  V30 35 H 1.6251 -1.17318 6.44916 0
M  V30 36 H 1.1451 -2.54905 5.4294 0
M  V30 37 H 2.8241 -2.40552 6.00619 0
M  V30 38 N 2.9562 -1.48159 -0.537278 0
M  V30 39 C 4.1842 -1.59454 -1.31841 0
M  V30 40 C 4.5992 -0.252065 -1.8711 0
M  V30 41 O 3.9562 0.757621 -1.66031 0
M  V30 42 C 4.0072 -2.63546 -2.47439 0
M  V30 43 O 3.7282 -3.92583 -1.94449 0
M  V30 44 C 5.2292 -2.85212 -3.39366 0
M  V30 45 H 2.4492 -0.53785 -0.401196 0
M  V30 46 H 4.9932 -1.93932 -0.648891 0
M  V30 47 H 3.1482 -2.31946 -3.1029 0
M  V30 48 H 3.5622 -4.49629 -2.70063 0
M  V30 49 H 5.0362 -3.61863 -4.16844 0
M  V30 50 H 5.5132 -1.93765 -3.94147 0
M  V30 51 H 6.1192 -3.18086 -2.82314 0
M  V30 52 N 4.4343 0.785586 -1.36625 0
M  V30 53 C 5.6833 1.53883 -1.30396 0
M  V30 54 C 5.9963 1.95271 0.113452 0
M  V30 55 O 7.2023 2.69858 0.298142 0
M  V30 56 C 5.6583 2.77808 -2.28802 0
M  V30 57 C 5.2663 2.43574 -3.75999 0
M  V30 58 C 7.0103 3.55783 -2.31558 0
M  V30 59 C 4.9173 3.63919 -4.66173 0
M  V30 60 H 3.8473 0.577678 -0.484566 0
M  V30 61 H 6.4983 0.861705 -1.62009 0
M  V30 62 H 4.8803 3.47339 -1.90188 0
M  V30 63 H 6.0543 1.81916 -4.23371 0
M  V30 64 H 4.3693 1.78803 -3.76056 0
M  V30 65 H 6.9663 4.45205 -2.96137 0
M  V30 66 H 7.3093 3.94644 -1.3252 0
M  V30 67 H 7.8423 2.93235 -2.68809 0
M  V30 68 H 4.5813 3.3015 -5.66287 0
M  V30 69 H 4.1013 4.2473 -4.23515 0
M  V30 70 H 5.7803 4.30901 -4.82632 0
M  V30 71 N 5.9124 1.20967 1.01018 0
M  V30 72 C 7.1894 0.93264 1.71934 0
M  V30 73 C 7.5694 -0.55692 2.03621 0
M  V30 74 O 6.9174 -1.52035 1.7058 0
M  V30 75 C 7.1274 1.81233 2.98254 0
M  V30 76 C 8.4754 2.05804 3.71389 0
M  V30 77 O 9.4994 1.78539 3.08225 0
M  V30 78 O 8.3584 2.51888 4.84989 0
M  V30 79 H 5.4524 0.349272 0.749625 0
M  V30 80 H 7.9984 1.31871 1.06808 0
M  V30 81 H 6.7704 2.82067 2.71208 0
M  V30 82 H 6.3934 1.42674 3.7112 0
M  V30 83 N 7.3905 -1.2043 1.01659 0
M  V30 84 C 8.6385 -1.89423 0.704522 0
M  V30 85 C 8.9595 -1.79231 -0.768197 0
M  V30 86 O 8.2295 -1.1947 -1.55254 0
M  V30 87 H 6.8095 -0.701178 0.257602 0
M  V30 88 H 9.4715 -1.4626 1.28818 0
M  V30 89 H 8.5675 -2.96052 0.987916 0
M  V30 90 N 8.8686 -0.792821 -1.36206 0
M  V30 91 C 9.8166 -0.181555 -2.3189 0
M  V30 92 C 10.8106 0.661025 -1.55971 0
M  V30 93 O 12.0166 0.555728 -1.71206 0
M  V30 94 H 8.3916 -0.0399382 -0.750939 0
M  V30 95 H 10.3626 -1.00394 -2.81005 0
M  V30 96 C 9.1116 0.666444 -3.41253 0
M  V30 97 H 8.4346 0.0274489 -3.99791 0
M  V30 98 H 9.8746 1.06076 -4.10517 0
M  V30 99 C 8.3336 1.82614 -2.83114 0
M  V30 100 O 8.8636 2.9229 -2.75553 0
M  V30 101 N 7.0696 1.63333 -2.40356 0
M  V30 102 H 6.6166 0.741217 -2.46706 0
M  V30 103 H 6.5746 2.41087 -2.01803 0
M  V30 104 N 10.3467 1.47872 -0.545128 0
M  V30 105 C 11.5947 2.02093 -0.016553 0
M  V30 106 C 11.9157 1.42305 1.3332 0
M  V30 107 O 11.1857 0.593853 1.86682 0
M  V30 108 H 9.7657 0.746993 -0.00313038 0
M  V30 109 H 12.4277 1.81414 -0.712397 0
M  V30 110 H 11.5237 3.11996 0.0805422 0
M  V30 111 N 11.8248 0.280983 1.55075 0
M  V30 112 C 12.7878 -0.590896 2.21452 0
M  V30 113 C 13.7878 -1.07682 1.19421 0
M  V30 114 O 14.9778 -0.97605 1.44288 0
M  V30 115 C 12.1098 -1.81587 2.88511 0
M  V30 116 H 13.3028 -0.0112554 2.99898 0
M  V30 117 H 10.8558 0.0316438 1.56268 0
M  V30 118 H 11.5908 -2.43587 2.14093 0
M  V30 119 H 11.3758 -1.4753 3.63287 0
M  V30 120 H 12.8658 -2.43575 3.39206 0
M  V30 121 N 13.3029 -1.57598 0.00835791 0
M  V30 122 C 14.5489 -1.91211 -0.675732 0
M  V30 123 C 14.8819 -0.883139 -1.72958 0
M  V30 124 O 14.1569 0.097016 -1.94258 0
M  V30 125 C 14.4399 -3.35379 -1.31123 0
M  V30 126 C 14.2929 -4.48999 -0.268356 0
M  V30 127 C 15.6119 -3.7912 -2.23508 0
M  V30 128 H 12.7309 -0.695374 -0.244179 0
M  V30 129 H 15.3729 -1.89901 0.0613655 0
M  V30 130 H 13.5229 -3.36626 -1.93946 0
M  V30 131 H 15.1949 -4.59887 0.360844 0
M  V30 132 H 13.4379 -4.31873 0.408482 0
M  V30 133 H 14.1089 -5.46851 -0.752218 0
M  V30 134 H 16.5849 -3.79477 -1.70693 0
M  V30 135 H 15.4609 -4.80729 -2.64936 0
M  V30 136 H 15.7219 -3.13455 -3.11766 0
M  V30 137 N 14.781 0.264519 -1.55364 0
M  V30 138 C 15.744 1.31046 -1.88042 0
M  V30 139 C 16.744 1.41943 -0.755569 0
M  V30 140 O 17.934 1.40947 -1.02369 0
M  V30 141 C 15.066 2.69067 -2.09323 0
M  V30 142 H 16.259 1.03297 -2.81549 0
M  V30 143 H 13.812 0.502989 -1.47986 0
M  V30 144 H 14.547 3.01982 -1.18226 0
M  V30 145 H 14.332 2.62542 -2.91229 0
M  V30 146 H 15.822 3.44623 -2.35848 0
M  V30 147 N 16.2591 1.48442 0.529413 0
M  V30 148 C 17.4841 1.60406 1.31471 0
M  V30 149 C 17.9091 0.264738 1.86228 0
M  V30 150 O 17.2671 -0.763668 1.64432 0
M  V30 151 C 17.3151 2.65419 2.44101 0
M  V30 152 O 16.4191 2.22618 3.47153 0
M  V30 153 H 15.7601 0.537863 0.389357 0
M  V30 154 H 18.2901 1.94432 0.636965 0
M  V30 155 H 18.3001 2.86709 2.90279 0
M  V30 156 H 16.9751 3.62652 2.03608 0
M  V30 157 H 15.5521 2.11543 3.0709 0
M  V30 158 N 17.7372 -0.778329 1.37039 0
M  V30 159 C 18.9832 -1.53892 1.32079 0
M  V30 160 C 19.3162 -1.9396 -0.0965386 0
M  V30 161 O 18.5912 -1.63568 -1.05242 0
M  V30 162 C 18.8742 -2.80847 2.25382 0
M  V30 163 C 18.7272 -2.47076 3.75864 0
M  V30 164 C 20.0462 -3.82741 2.1725 0
M  V30 165 H 17.1652 -0.558303 0.48111 0
M  V30 166 H 19.8072 -0.893397 1.67685 0
M  V30 167 H 17.9572 -3.35931 1.95148 0
M  V30 168 H 19.6292 -1.97957 4.16666 0
M  V30 169 H 17.8722 -1.79863 3.94755 0
M  V30 170 H 18.5432 -3.37798 4.36574 0
M  V30 171 H 21.0192 -3.37133 2.43887 0
M  V30 172 H 19.8952 -4.69303 2.84686 0
M  V30 173 H 20.1562 -4.2652 1.16331 0
M  V30 174 N 19.2153 -1.21501 -1.00376 0
M  V30 175 C 20.1783 -0.976927 -2.07337 0
M  V30 176 C 21.1783 0.0525322 -1.60714 0
M  V30 177 O 22.3683 -0.184869 -1.73216 0
M  V30 178 C 19.5003 -0.473423 -3.37597 0
M  V30 179 H 20.6933 -1.92587 -2.29892 0
M  V30 180 H 18.2463 -1.03217 -1.17371 0
M  V30 181 H 18.9813 0.480379 -3.20722 0
M  V30 182 H 18.7663 -1.216 -3.72768 0
M  V30 183 H 20.2563 -0.32675 -4.1632 0
M  V30 184 N 20.6934 1.19889 -1.02296 0
M  V30 185 C 21.9404 1.8942 -0.715972 0
M  V30 186 C 22.2684 1.79251 0.754944 0
M  V30 187 O 21.5234 1.17526 1.56481 0
M  V30 188 C 21.8224 3.39883 -1.10518 0
M  V30 189 C 21.4884 3.70254 -2.57337 0
M  V30 190 C 20.1504 3.78254 -2.97452 0
M  V30 191 C 22.5024 3.84052 -3.52354 0
M  V30 192 C 19.8304 3.97514 -4.31509 0
M  V30 193 C 22.1824 4.04824 -4.86108 0
M  V30 194 C 20.8464 4.11054 -5.25919 0
M  V30 195 H 20.1164 0.693138 -0.261993 0
M  V30 196 H 22.7634 1.42012 -1.28472 0
M  V30 197 H 21.0684 3.8915 -0.454953 0
M  V30 198 H 22.7654 3.9199 -0.845261 0
M  V30 199 H 19.3554 3.64632 -2.25258 0
M  V30 200 H 23.5394 3.77221 -3.22518 0
M  V30 201 H 18.7954 4.00574 -4.61898 0
M  V30 202 H 22.9694 4.14442 -5.59653 0
M  V30 203 H 20.5964 4.2573 -6.29808 0
M  V30 204 N 22.1715 0.800033 1.35784 0
M  V30 205 C 23.5875 0.482977 1.52117 0
M  V30 206 C 23.7875 -0.996948 1.75109 0
M  V30 207 O 22.8435 -1.78216 1.78872 0
M  V30 208 C 24.1565 1.32264 2.70049 0
M  V30 209 C 25.7045 1.31742 2.83924 0
M  V30 210 C 26.1795 2.14106 4.04874 0
M  V30 211 N 27.6705 2.11607 4.12039 0
M  V30 212 C 28.4055 2.72099 5.04727 0
M  V30 213 N 27.9015 3.41492 6.02789 0
M  V30 214 N 29.6945 2.61776 4.97423 0
M  V30 215 H 21.8455 1.75856 1.19115 0
M  V30 216 H 24.1085 0.748122 0.582252 0
M  V30 217 H 23.8145 2.37261 2.59616 0
M  V30 218 H 23.6885 0.971303 3.6448 0
M  V30 219 H 26.0755 0.275333 2.93813 0
M  V30 220 H 26.1565 1.70859 1.9037 0
M  V30 221 H 25.8005 3.18351 3.95746 0
M  V30 222 H 25.7305 1.72353 4.97596 0
M  V30 223 H 28.2215 1.61112 3.41835 0
M  V30 224 H 28.5345 3.84953 6.70098 0
M  V30 225 H 26.8795 3.45596 6.02983 0
M  V30 226 H 30.0705 2.07157 4.19766 0
M  V30 227 H 30.2435 3.0921 5.69468 0
M  V30 228 N 23.6496 -1.47581 0.552962 0
M  V30 229 C 24.8776 -2.06875 0.0320556 0
M  V30 230 C 25.2926 -1.40625 -1.25976 0
M  V30 231 O 24.6496 -0.501349 -1.75479 0
M  V30 232 C 24.7006 -3.61092 -0.17167 0
M  V30 233 O 24.4216 -4.24858 1.06899 0
M  V30 234 C 25.9226 -4.37242 -0.730344 0
M  V30 235 H 23.1426 -0.669561 0.043915 0
M  V30 236 H 25.6866 -1.89646 0.765163 0
M  V30 237 H 23.8416 -3.7785 -0.854894 0
M  V30 238 H 24.2556 -5.17334 0.864059 0
M  V30 239 H 25.7296 -5.45842 -0.822203 0
M  V30 240 H 26.2066 -4.03235 -1.74064 0
M  V30 241 H 26.8126 -4.25219 -0.0829543 0
M  V30 242 N 25.1277 -0.289203 -1.54924 0
M  V30 243 C 26.3527 0.329299 -2.04769 0
M  V30 244 C 26.7777 1.4763 -1.16564 0
M  V30 245 O 26.1357 1.80527 -0.167186 0
M  V30 246 C 26.1837 0.774438 -3.52186 0
M  V30 247 O 25.2877 1.88038 -3.67036 0
M  V30 248 H 24.6287 0.0659259 -0.660719 0
M  V30 249 H 27.1587 -0.42761 -2.00082 0
M  V30 250 H 27.1687 1.06642 -3.93816 0
M  V30 251 H 25.8437 -0.0646707 -4.1585 0
M  V30 252 H 24.4207 1.58985 -3.3731 0
M  V30 253 N 26.6058 1.57591 -0.0167156 0
M  V30 254 C 27.5158 2.1291 0.98521 0
M  V30 255 C 28.5318 1.07834 1.36557 0
M  V30 256 O 29.7078 1.39826 1.44951 0
M  V30 257 C 26.7728 2.63512 2.25305 0
M  V30 258 C 25.8338 3.83256 1.93426 0
M  V30 259 C 25.0668 4.31435 3.14165 0
M  V30 260 O 25.2898 3.78851 4.26413 0
M  V30 261 O 24.2238 5.23416 2.97186 0
M  V30 262 H 28.0498 2.98772 0.544888 0
M  V30 263 H 25.6348 1.48012 0.203141 0
M  V30 264 H 27.5168 2.96183 2.99756 0
M  V30 265 H 26.1918 1.8074 2.68542 0
M  V30 266 H 25.0988 3.55531 1.16398 0
M  V30 267 H 26.4318 4.67153 1.55013 0
M  V30 268 N 28.0839 -0.256276 1.55502 0
M  V30 269 C 29.3299 -0.987079 1.77157 0
M  V30 270 C 29.6629 -1.85327 0.580315 0
M  V30 271 O 28.9379 -1.89874 -0.421686 0
M  V30 272 C 29.2209 -1.85553 3.08613 0
M  V30 273 C 29.0739 -1.01816 4.38125 0
M  V30 274 C 30.3929 -2.8397 3.36228 0
M  V30 275 H 27.5119 -0.357428 0.644526 0
M  V30 276 H 30.1539 -0.258239 1.88237 0
M  V30 277 H 28.3039 -2.47695 2.99298 0
M  V30 278 H 29.9759 -0.416159 4.59419 0
M  V30 279 H 28.2189 -0.322178 4.32602 0
M  V30 280 H 28.8899 -1.65939 5.26468 0
M  V30 281 H 31.3659 -2.31964 3.45445 0
M  V30 282 H 30.2419 -3.41864 4.29442 0
M  V30 283 H 30.5029 -3.59955 2.56681 0
M  V30 284 N 29.562 -1.4872 -0.521534 0
M  V30 285 C 30.811 -1.56419 -1.27341 0
M  V30 286 C 31.124 -0.246805 -1.94037 0
M  V30 287 O 32.33 -0.202122 -2.70747 0
M  V30 288 C 30.786 -2.75896 -2.31105 0
M  V30 289 C 30.394 -4.14311 -1.70441 0
M  V30 290 C 32.138 -2.92913 -3.07249 0
M  V30 291 C 30.045 -5.25038 -2.72194 0
M  V30 292 H 28.975 -0.582344 -0.478949 0
M  V30 293 H 31.626 -1.75071 -0.549779 0
M  V30 294 H 30.008 -2.50697 -3.06541 0
M  V30 295 H 31.182 -4.49564 -1.01136 0
M  V30 296 H 29.497 -4.02482 -1.06759 0
M  V30 297 H 32.094 -3.72805 -3.83302 0
M  V30 298 H 32.437 -2.02689 -3.63625 0
M  V30 299 H 32.97 -3.18054 -2.38928 0
M  V30 300 H 29.709 -6.17255 -2.20627 0
M  V30 301 H 29.229 -4.94263 -3.39801 0
M  V30 302 H 30.908 -5.53508 -3.35019 0
M  V30 303 N 31.0401 0.771051 -1.3745 0
M  V30 304 C 32.0031 1.86598 -1.33093 0
M  V30 305 C 33.0031 1.59076 -0.234845 0
M  V30 306 O 34.1931 1.67145 -0.490732 0
M  V30 307 C 31.3251 3.23747 -1.06773 0
M  V30 308 H 32.5181 1.91873 -2.30488 0
M  V30 309 H 30.0711 0.970876 -1.2249 0
M  V30 310 H 30.8061 3.24148 -0.099129 0
M  V30 311 H 30.5911 3.45115 -1.86112 0
M  V30 312 H 32.0811 4.03824 -1.06377 0
M  V30 313 N 32.5182 1.22032 0.997298 0
M  V30 314 C 33.7672 1.03637 1.73038 0
M  V30 315 C 34.0802 -0.429475 1.90827 0
M  V30 316 O 35.2862 -0.732995 2.61418 0
M  V30 317 C 33.7422 1.80582 3.11317 0
M  V30 318 C 33.3502 3.31387 3.01474 0
M  V30 319 C 35.0942 1.70621 3.88701 0
M  V30 320 C 33.0012 4.00791 4.3488 0
M  V30 321 H 31.9312 0.384179 0.648785 0
M  V30 322 H 34.5822 1.4584 1.11368 0
M  V30 323 H 32.9642 1.31175 3.73643 0
M  V30 324 H 34.1382 3.88155 2.4834 0
M  V30 325 H 32.4532 3.41976 2.37575 0
M  V30 326 H 35.0502 2.19799 4.87434 0
M  V30 327 H 35.3932 0.665823 4.10941 0
M  V30 328 H 35.9262 2.17547 3.33044 0
M  V30 329 H 32.6652 5.05064 4.1784 0
M  V30 330 H 32.1852 3.48811 4.87945 0
M  V30 331 H 33.8642 4.06139 5.03647 0
M  V30 332 N 33.9963 -1.19345 1.0293 0
M  V30 333 C 35.2263 -1.92717 0.744563 0
M  V30 334 C 35.6343 -1.75751 -0.700579 0
M  V30 335 O 34.9773 -1.07703 -1.48815 0
M  V30 336 C 35.0393 -3.44828 1.01657 0
M  V30 337 C 34.7033 -3.85564 2.45335 0
M  V30 338 C 35.7003 -3.90286 3.43472 0
M  V30 339 C 33.3853 -4.1719 2.79746 0
M  V30 340 C 35.3793 -4.26065 4.74075 0
M  V30 341 C 33.0663 -4.52642 4.10559 0
M  V30 342 C 34.0643 -4.57054 5.07534 0
M  V30 343 O 33.7523 -4.91685 6.36004 0
M  V30 344 H 33.4843 -0.618977 0.271742 0
M  V30 345 H 36.0383 -1.52415 1.37691 0
M  V30 346 H 34.2683 -3.85314 0.327084 0
M  V30 347 H 35.9573 -3.99437 0.721427 0
M  V30 348 H 36.7233 -3.66002 3.18225 0
M  V30 349 H 32.6023 -4.1294 2.04943 0
M  V30 350 H 36.1463 -4.29423 5.49765 0
M  V30 351 H 32.0433 -4.76383 4.35579 0
M  V30 352 H 32.8113 -5.09631 6.40483 0
M  V30 353 N 35.4744 -0.807222 -1.35358 0
M  V30 354 C 36.8854 -0.44876 -1.81226 0
M  V30 355 C 37.2364 1.02929 -1.67033 0
M  V30 356 O 36.3614 1.79991 -1.20133 0
M  V30 357 C 36.9564 -0.807774 -3.2903 0
M  V30 358 C 35.5154 -0.501901 -3.73039 0
M  V30 359 C 34.6624 -1.03304 -2.57339 0
M  V30 360 H 37.6134 -0.998808 -1.23327 0
M  V30 361 H 37.6344 -0.10554 -3.80354 0
M  V30 362 H 37.1464 -1.88357 -3.39328 0
M  V30 363 H 35.2474 0.565128 -3.68289 0
M  V30 364 H 35.3604 -1.03497 -4.67787 0
M  V30 365 H 33.7244 -0.455339 -2.50597 0
M  V30 366 H 34.5074 -2.11496 -2.70415 0
M  V30 367 N 36.9525 1.47285 -0.560781 0
M  V30 368 C 38.2015 2.01668 -0.035895 0
M  V30 369 C 38.5145 1.44021 1.32353 0
M  V30 370 O 39.7205 1.90088 1.93853 0
M  V30 371 C 38.1765 3.59897 -0.0136659 0
M  V30 372 C 37.7845 4.26536 -1.37006 0
M  V30 373 C 39.5285 4.22017 0.458425 0
M  V30 374 C 37.4355 5.76782 -1.30675 0
M  V30 375 H 36.3655 0.753938 -0.00964879 0
M  V30 376 H 39.0165 1.69243 -0.709166 0
M  V30 377 H 37.3985 3.89301 0.725325 0
M  V30 378 H 38.5725 4.0877 -2.12705 0
M  V30 379 H 36.8875 3.76419 -1.78038 0
M  V30 380 H 39.4845 5.32124 0.524247 0
M  V30 381 H 39.8275 3.89437 1.4712 0
M  V30 382 H 40.3605 3.97159 -0.225818 0
M  V30 383 H 37.0995 6.13988 -2.29564 0
M  V30 384 H 36.6195 5.96875 -0.591622 0
M  V30 385 H 38.2985 6.39063 -1.01033 0
M  V30 386 N 38.4306 0.297415 1.54768 0
M  V30 387 C 39.6586 -0.315623 2.04478 0
M  V30 388 C 40.0736 -1.47792 1.17486 0
M  V30 389 O 39.4306 -1.81404 0.19971 0
M  V30 390 C 39.4816 -0.7753 3.53088 0
M  V30 391 O 39.2026 0.340732 4.36773 0
M  V30 392 C 40.7036 -1.45386 4.18781 0
M  V30 393 H 37.9236 -0.0690887 0.667434 0
M  V30 394 H 40.4676 0.436003 1.99798 0
M  V30 395 H 38.6226 -1.47696 3.58141 0
M  V30 396 H 39.0366 -0.0165035 5.24497 0
M  V30 397 H 40.5106 -1.72669 5.24299 0
M  V30 398 H 40.9876 -2.39275 3.68299 0
M  V30 399 H 41.5936 -0.795475 4.17795 0
M  V30 400 N 39.9087 -1.5758 0.0250728 0
M  V30 401 C 41.3197 -1.79476 -0.514323 0
M  V30 402 C 41.6707 -0.934956 -1.72491 0
M  V30 403 O 40.7957 -0.144245 -2.15919 0
M  V30 404 C 41.3907 -3.25503 -0.939842 0
M  V30 405 C 39.9497 -3.48408 -1.42438 0
M  V30 406 C 39.0967 -2.74583 -0.387201 0
M  V30 407 H 42.0477 -1.567 0.25113 0
M  V30 408 H 42.0687 -3.34992 -1.80445 0
M  V30 409 H 41.5807 -3.88056 -0.0585628 0
M  V30 410 H 39.6817 -2.91103 -2.32572 0
M  V30 411 H 39.7947 -4.57119 -1.43455 0
M  V30 412 H 38.1587 -2.39942 -0.854409 0
M  V30 413 H 38.9417 -3.39849 0.485543 0
M  V30 414 N 41.3868 0.248026 -1.55636 0
M  V30 415 C 42.6118 0.998028 -1.81808 0
M  V30 416 C 43.0368 1.78207 -0.601979 0
M  V30 417 O 42.3948 1.75653 0.448961 0
M  V30 418 C 42.4428 1.9125 -3.05705 0
M  V30 419 O 41.5468 3.00406 -2.82542 0
M  V30 420 H 40.8878 0.284045 -0.600179 0
M  V30 421 H 43.4178 0.269357 -2.02819 0
M  V30 422 H 43.4278 2.32737 -3.35108 0
M  V30 423 H 42.1028 1.33602 -3.93857 0
M  V30 424 H 40.6798 2.63056 -2.64303 0
M  V30 425 N 42.8649 1.48995 0.513639 0
M  V30 426 C 44.0899 1.61792 1.29762 0
M  V30 427 C 44.5149 0.284475 1.85936 0
M  V30 428 O 43.8729 -0.746185 1.65232 0
M  V30 429 C 43.9209 2.67993 2.41272 0
M  V30 430 O 43.0249 2.26287 3.44772 0
M  V30 431 H 42.3659 0.541963 0.38363 0
M  V30 432 H 44.8959 1.95097 0.616307 0
M  V30 433 H 44.9059 2.89772 2.87221 0
M  V30 434 H 43.5809 3.64791 1.9975 0
M  V30 435 H 42.1579 2.14788 3.04829 0
M  V30 436 N 44.343 -0.763751 1.37857 0
M  V30 437 C 45.571 -1.55293 1.36718 0
M  V30 438 C 45.986 -1.88745 -0.0455434 0
M  V30 439 O 45.343 -1.52039 -1.00947 0
M  V30 440 C 45.394 -2.85831 2.2132 0
M  V30 441 O 45.115 -2.5381 3.57089 0
M  V30 442 C 46.616 -3.80023 2.28249 0
M  V30 443 H 43.836 -0.480841 0.468009 0
M  V30 444 H 46.38 -0.946009 1.81303 0
M  V30 445 H 44.535 -3.42926 1.80223 0
M  V30 446 H 44.949 -3.37459 4.01524 0
M  V30 447 H 46.423 -4.68599 2.91752 0
M  V30 448 H 46.9 -4.1973 1.2932 0
M  V30 449 H 47.506 -3.28855 2.69693 0
M  V30 450 N 45.8211 -1.22559 -0.990812 0
M  V30 451 C 46.7541 -0.940773 -2.07905 0
M  V30 452 C 47.7321 0.117082 -1.62178 0
M  V30 453 O 48.9161 -0.0149506 -1.88494 0
M  V30 454 C 46.0431 -0.415321 -3.36144 0
M  V30 455 C 45.0891 -1.45818 -4.00799 0
M  V30 456 S 45.9221 -3.03219 -4.41382 0
M  V30 457 C 47.0781 -2.52317 -5.72789 0
M  V30 458 H 47.3111 -1.8623 -2.31745 0
M  V30 459 H 44.8441 -1.05688 -1.12558 0
M  V30 460 H 46.8021 -0.118747 -4.10328 0
M  V30 461 H 45.4631 0.485121 -3.10331 0
M  V30 462 H 44.6561 -1.04044 -4.93144 0
M  V30 463 H 44.2581 -1.70356 -3.32949 0
M  V30 464 H 46.5501 -1.93688 -6.49224 0
M  V30 465 H 47.4931 -3.43161 -6.19392 0
M  V30 466 H 47.9011 -1.93529 -5.30289 0
M  V30 467 N 47.2992 1.18797 -1.03562 0
M  V30 468 C 48.2622 2.20464 -0.626769 0
M  V30 469 C 49.2622 1.57721 0.313173 0
M  V30 470 O 50.4522 1.73917 0.0992615 0
M  V30 471 C 47.5842 3.40802 0.0818498 0
M  V30 472 H 48.7772 2.58149 -1.5264 0
M  V30 473 H 46.3302 1.32593 -0.827578 0
M  V30 474 H 47.0652 3.08642 0.995518 0
M  V30 475 H 46.8502 3.8758 -0.593652 0
M  V30 476 H 48.3402 4.16092 0.354584 0
M  V30 477 N 48.7773 0.814389 1.34928 0
M  V30 478 C 49.6873 0.231978 2.3345 0
M  V30 479 C 50.7033 -0.629139 1.62228 0
M  V30 480 O 51.8793 -0.539052 1.94052 0
M  V30 481 C 48.9443 -0.603482 3.41407 0
M  V30 482 C 48.0053 0.279037 4.28392 0
M  V30 483 C 47.2383 -0.516643 5.31193 0
M  V30 484 O 47.4613 -1.75068 5.4287 0
M  V30 485 O 46.3953 0.0965652 6.01823 0
M  V30 486 H 50.2213 1.04721 2.85074 0
M  V30 487 H 47.8063 0.576343 1.37836 0
M  V30 488 H 49.6883 -1.07908 4.0735 0
M  V30 489 H 48.3633 -1.39618 2.92042 0
M  V30 490 H 47.2703 0.801948 3.65403 0
M  V30 491 H 48.6033 1.03588 4.81176 0
M  V30 492 N 50.2554 -1.46986 0.568584 0
M  V30 493 C 51.1874 -2.28233 -0.210337 0
M  V30 494 C 52.2004 -1.37682 -0.868767 0
M  V30 495 O 53.3894 -1.62406 -0.740705 0
M  V30 496 C 50.4894 -3.12293 -1.3163 0
M  V30 497 C 49.6624 -4.30878 -0.7525 0
M  V30 498 C 48.7214 -4.96445 -1.74439 0
M  V30 499 O 47.7474 -5.54482 -1.286 0
M  V30 500 N 48.9494 -4.92171 -3.07812 0
M  V30 501 H 51.7144 -2.95723 0.486648 0
M  V30 502 H 49.2754 -1.56742 0.405409 0
M  V30 503 H 51.2674 -3.53022 -1.97883 0
M  V30 504 H 49.8374 -2.46971 -1.91636 0
M  V30 505 H 49.0574 -3.94104 0.0871128 0
M  V30 506 H 50.3454 -5.07558 -0.35536 0
M  V30 507 H 49.7434 -4.46239 -3.47688 0
M  V30 508 H 48.3004 -5.36884 -3.69592 0
M  V30 509 N 51.7335 -0.305618 -1.54608 0
M  V30 510 C 52.6965 0.555591 -2.22364 0
M  V30 511 C 53.6965 1.05768 -1.21119 0
M  V30 512 O 54.8865 0.952972 -1.45822 0
M  V30 513 C 52.0185 1.76974 -2.91364 0
M  V30 514 H 53.2115 -0.0364572 -2.99878 0
M  V30 515 H 50.7645 -0.0565007 -1.56198 0
M  V30 516 H 51.4995 2.40151 -2.17941 0
M  V30 517 H 51.2845 1.41732 -3.65588 0
M  V30 518 H 52.7745 2.38148 -3.43038 0
M  V30 519 N 53.2116 1.57565 -0.0334293 0
M  V30 520 C 54.4886 1.83282 0.683163 0
M  V30 521 C 54.8686 0.91823 1.90084 0
M  V30 522 O 54.2166 -0.025113 2.28486 0
M  V30 523 C 54.4266 3.32599 1.0573 0
M  V30 524 C 55.7746 3.99179 1.44711 0
M  V30 525 O 56.7986 3.3712 1.15015 0
M  V30 526 O 55.6576 5.08565 2.0006 0
M  V30 527 H 52.7516 0.755869 0.335546 0
M  V30 528 H 55.2976 1.69589 -0.0614402 0
M  V30 529 H 54.0696 3.90834 0.190828 0
M  V30 530 H 53.6926 3.51415 1.85993 0
M  V30 531 N 54.6897 -0.239769 1.55765 0
M  V30 532 C 55.6527 -1.28038 1.90103 0
M  V30 533 C 56.6527 -1.40723 0.778055 0
M  V30 534 O 57.8427 -1.39301 1.04599 0
M  V30 535 C 54.9747 -2.65702 2.13577 0
M  V30 536 H 56.1677 -0.988048 2.83157 0
M  V30 537 H 53.7207 -0.479382 1.48767 0
M  V30 538 H 54.4557 -3.00063 1.23015 0
M  V30 539 H 54.2407 -2.57875 2.95369 0
M  V30 540 H 55.7307 -3.40828 2.41301 0
M  V30 541 N 56.1678 -1.49265 -0.50573 0
M  V30 542 C 57.4138 -1.59723 -1.25937 0
M  V30 543 C 57.7688 -0.278236 -1.90378 0
M  V30 544 O 57.0618 0.72113 -1.77511 0
M  V30 545 C 57.2558 -2.69008 -2.35308 0
M  V30 546 C 57.0848 -4.11405 -1.81592 0
M  V30 547 C 55.8548 -4.78252 -1.63105 0
M  V30 548 C 58.0528 -4.96792 -1.33048 0
M  V30 549 N 56.0348 -6.0498 -1.04269 0
M  V30 550 C 57.4058 -6.13962 -0.863168 0
M  V30 551 C 59.4608 -4.82828 -1.21577 0
M  V30 552 C 58.1638 -7.18705 -0.292489 0
M  V30 553 C 60.1898 -5.87716 -0.65907 0
M  V30 554 C 59.5518 -7.0411 -0.201954 0
M  V30 555 H 55.6508 -0.638864 -0.450973 0
M  V30 556 H 58.2348 -1.86251 -0.567326 0
M  V30 557 H 56.4058 -2.4426 -3.01979 0
M  V30 558 H 58.1378 -2.69013 -3.02348 0
M  V30 559 H 54.8928 -4.34974 -1.87336 0
M  V30 560 H 55.3168 -6.72631 -0.767919 0
M  V30 561 H 59.9588 -3.93159 -1.55518 0
M  V30 562 H 57.6768 -8.08078 0.0591987 0
M  V30 563 H 61.2628 -5.7897 -0.573156 0
M  V30 564 H 60.1428 -7.83885 0.222101 0
M  V30 565 N 57.6459 0.756429 -1.3826 0
M  V30 566 C 58.6089 1.85176 -1.35065 0
M  V30 567 C 59.6089 1.58818 -0.251703 0
M  V30 568 O 60.7989 1.66615 -0.508433 0
M  V30 569 C 57.9309 3.22596 -1.10201 0
M  V30 570 H 59.1239 1.89417 -2.3251 0
M  V30 571 H 56.6769 0.95783 -1.23512 0
M  V30 572 H 57.4119 3.24025 -0.133504 0
M  V30 573 H 57.1969 3.43122 -1.89762 0
M  V30 574 H 58.6869 4.02673 -1.10654 0
M  V30 575 N 59.124 1.23083 0.984299 0
M  V30 576 C 60.372 1.05848 1.72165 0
M  V30 577 C 60.693 -0.406049 1.90726 0
M  V30 578 O 59.963 -1.29139 1.47309 0
M  V30 579 H 58.543 0.388685 0.637913 0
M  V30 580 H 61.205 1.54736 1.18503 0
M  V30 581 H 60.301 1.54327 2.71274 0
M  V30 582 N 60.6021 -1.18246 1.0419 0
M  V30 583 C 61.5501 -2.23968 0.627792 0
M  V30 584 C 62.5441 -1.65828 -0.346019 0
M  V30 585 O 63.7501 -1.78733 -0.213175 0
M  V30 586 H 60.1251 -0.728939 0.184802 0
M  V30 587 H 62.0961 -2.56202 1.52981 0
M  V30 588 C 60.8451 -3.47699 0.00796591 0
M  V30 589 H 60.1681 -3.92734 0.748347 0
M  V30 590 H 61.6081 -4.23294 -0.24455 0
M  V30 591 C 60.0671 -3.13153 -1.24246 0
M  V30 592 O 60.5971 -3.27003 -2.33307 0
M  V30 593 N 58.8031 -2.67467 -1.13622 0
M  V30 594 H 58.3501 -2.56396 -0.248734 0
M  V30 595 H 58.3081 -2.44724 -1.97377 0
M  V30 596 N 62.0802 -0.821533 -1.34494 0
M  V30 597 C 63.3282 -0.408139 -1.97936 0
M  V30 598 C 63.6492 1.03193 -1.65457 0
M  V30 599 O 62.9192 1.71622 -0.944595 0
M  V30 600 H 61.4992 -0.147928 -0.732206 0
M  V30 601 H 64.1612 -1.05067 -1.64155 0
M  V30 602 H 63.2572 -0.52601 -3.07635 0
M  V30 603 N 63.5583 1.46682 -0.576371 0
M  V30 604 C 64.4883 2.33028 0.148397 0
M  V30 605 C 65.4693 1.44961 0.889956 0
M  V30 606 O 66.6543 1.73789 0.866662 0
M  V30 607 C 63.7843 3.27117 1.1667 0
M  V30 608 C 62.7383 4.24575 0.540386 0
M  V30 609 C 62.0643 5.08126 1.6647 0
M  V30 610 C 63.3643 5.19722 -0.518331 0
M  V30 611 H 65.0583 2.93875 -0.572509 0
M  V30 612 H 62.6043 1.41315 -0.276768 0
M  V30 613 H 64.5573 3.86374 1.68204 0
M  V30 614 H 63.2813 2.64364 1.9178 0
M  V30 615 H 61.9403 3.66571 0.0461769 0
M  V30 616 H 61.5883 4.41762 2.40531 0
M  V30 617 H 61.2883 5.74122 1.25131 0
M  V30 618 H 62.8123 5.70246 2.18293 0
M  V30 619 H 64.2263 5.73232 -0.0883058 0
M  V30 620 H 62.6233 5.94026 -0.851679 0
M  V30 621 H 63.6933 4.64037 -1.40703 0
M  V30 622 N 65.0364 0.313813 1.54444 0
M  V30 623 C 65.9834 -0.55655 2.23989 0
M  V30 624 C 66.9534 -1.11943 1.22711 0
M  V30 625 O 68.1384 -1.16158 1.51367 0
M  V30 626 C 65.2784 -1.71635 2.99392 0
M  V30 627 C 64.3914 -1.18364 4.15468 0
M  V30 628 C 63.5264 -2.30834 4.78424 0
M  V30 629 C 62.5654 -1.74762 5.86622 0
M  V30 630 N 61.7024 -2.80855 6.43479 0
M  V30 631 H 66.5424 0.0430893 2.97969 0
M  V30 632 H 64.0794 0.0330359 1.47063 0
M  V30 633 H 66.0374 -2.39868 3.41349 0
M  V30 634 H 64.6674 -2.28742 2.27765 0
M  V30 635 H 63.7194 -0.393163 3.78363 0
M  V30 636 H 65.0314 -0.733262 4.93381 0
M  V30 637 H 64.1854 -3.0699 5.23299 0
M  V30 638 H 62.9244 -2.79204 3.99871 0
M  V30 639 H 61.9294 -0.970995 5.41158 0
M  V30 640 H 63.1544 -1.2728 6.67066 0
M  V30 641 H 61.1004 -3.28535 5.67804 0
M  V30 642 H 61.0174 -2.40351 7.16776 0
M  V30 643 H 62.2854 -3.5687 6.93011 0
M  V30 644 N 66.5145 -1.57545 0.0417849 0
M  V30 645 C 67.4625 -2.12148 -0.953723 0
M  V30 646 C 68.4565 -1.05104 -1.32852 0
M  V30 647 O 69.6625 -1.23524 -1.30927 0
M  V30 648 H 66.0375 -0.677957 -0.325389 0
M  V30 649 H 68.0085 -2.94707 -0.467991 0
M  V30 650 C 66.7575 -2.6739 -2.22257 0
M  V30 651 H 66.0805 -3.49413 -1.94295 0
M  V30 652 H 67.5205 -3.09227 -2.90094 0
M  V30 653 C 65.9795 -1.60723 -2.96091 0
M  V30 654 O 66.5095 -1.01449 -3.88679 0
M  V30 655 N 64.7155 -1.32466 -2.58652 0
M  V30 656 H 64.2625 -1.80856 -1.83437 0
M  V30 657 H 64.2205 -0.61325 -3.08361 0
M  V30 658 N 67.9926 0.231505 -1.5589 0
M  V30 659 C 69.2386 0.95877 -1.78705 0
M  V30 660 C 69.5716 1.8438 -0.609725 0
M  V30 661 O 68.8466 1.90521 0.391426 0
M  V30 662 C 69.1296 1.8062 -3.11526 0
M  V30 663 C 68.9826 0.948328 -4.39689 0
M  V30 664 C 70.3016 2.78585 -3.40703 0
M  V30 665 H 67.4206 0.347129 -0.650131 0
M  V30 666 H 70.0626 0.228259 -1.88624 0
M  V30 667 H 68.2126 2.42902 -3.03201 0
M  V30 668 H 69.8846 0.343016 -4.60023 0
M  V30 669 H 68.1276 0.253314 -4.3306 0
M  V30 670 H 68.7986 1.57543 -5.29041 0
M  V30 671 H 71.2746 2.26439 -3.49091 0
M  V30 672 H 70.1506 3.34988 -4.34826 0
M  V30 673 H 70.4116 3.55825 -2.62375 0
M  V30 674 N 69.4707 1.49531 0.497807 0
M  V30 675 C 70.7167 1.60388 1.25089 0
M  V30 676 C 71.0717 0.288328 1.90227 0
M  V30 677 O 70.3647 -0.711706 1.77891 0
M  V30 678 C 70.5587 2.70252 2.33878 0
M  V30 679 C 70.3877 4.12363 1.79408 0
M  V30 680 C 69.1577 4.7911 1.60566 0
M  V30 681 C 71.3557 4.97491 1.30412 0
M  V30 682 N 69.3377 6.05525 1.01059 0
M  V30 683 C 70.7087 6.14411 0.830595 0
M  V30 684 C 72.7637 4.83466 1.19015 0
M  V30 685 C 71.4667 7.1885 0.254371 0
M  V30 686 C 73.4927 5.88057 0.627892 0
M  V30 687 C 72.8547 7.04208 0.16461 0
M  V30 688 H 68.9537 0.641246 0.447579 0
M  V30 689 H 71.5377 1.86549 0.557441 0
M  V30 690 H 69.7087 2.45858 3.0068 0
M  V30 691 H 71.4407 2.70613 3.00917 0
M  V30 692 H 68.1957 4.35961 1.85026 0
M  V30 693 H 68.6197 6.73028 0.732236 0
M  V30 694 H 73.2617 3.93978 1.53431 0
M  V30 695 H 70.9797 8.08036 -0.102052 0
M  V30 696 H 74.5657 5.79266 0.542444 0
M  V30 697 H 73.4457 7.83757 -0.263669 0
M  V30 698 N 70.9488 -0.749086 1.3866 0
M  V30 699 C 72.1968 -1.50535 1.34847 0
M  V30 700 C 72.5178 -1.94909 -0.0595016 0
M  V30 701 O 71.7878 -1.67973 -1.00806 0
M  V30 702 H 70.3678 -0.558395 0.49619 0
M  V30 703 H 73.0298 -0.890165 1.73384 0
M  V30 704 H 72.1258 -2.39413 2.00219 0
M  V30 705 N 72.4269 -1.23603 -0.977757 0
M  V30 706 C 73.7039 -0.977897 -1.69401 0
M  V30 707 C 74.0839 0.502738 -2.05026 0
M  V30 708 O 73.4319 1.47459 -1.74551 0
M  V30 709 C 73.6419 -1.89077 -2.93345 0
M  V30 710 C 74.9899 -2.15579 -3.65802 0
M  V30 711 O 76.0139 -1.86648 -3.03383 0
M  V30 712 O 74.8729 -2.64658 -4.78141 0
M  V30 713 H 71.9669 -0.369025 -0.740101 0
M  V30 714 H 74.5129 -1.34657 -1.03274 0
M  V30 715 H 73.2849 -2.89158 -2.63634 0
M  V30 716 H 72.9079 -1.52463 -3.67207 0
M  V30 717 N 73.905 1.17692 -1.04816 0
M  V30 718 C 75.133 1.91786 -0.776254 0
M  V30 719 C 75.548 1.76604 0.667577 0
M  V30 720 O 74.905 1.10067 1.45573 0
M  V30 721 C 74.956 3.42967 -1.14263 0
M  V30 722 O 74.677 3.57678 -2.52978 0
M  V30 723 C 76.178 4.34144 -0.896311 0
M  V30 724 H 73.398 0.608624 -0.282519 0
M  V30 725 H 75.942 1.49268 -1.39783 0
M  V30 726 H 74.097 3.83245 -0.565874 0
M  V30 727 H 74.511 4.51319 -2.67229 0
M  V30 728 H 75.985 5.38744 -1.20244 0
M  V30 729 H 76.462 4.38876 0.168636 0
M  V30 730 H 77.068 3.99574 -1.45672 0
M  V30 731 N 75.3831 0.828654 1.34056 0
M  V30 732 C 76.7941 0.477534 1.8049 0
M  V30 733 C 77.1451 -1.00258 1.6865 0
M  V30 734 O 76.2701 -1.78057 1.22982 0
M  V30 735 C 76.8651 0.860018 3.27703 0
M  V30 736 C 75.4241 0.561185 3.72193 0
M  V30 737 C 74.5711 1.07385 2.55663 0
M  V30 738 H 77.5221 1.0183 1.21722 0
M  V30 739 H 77.5431 0.166038 3.80138 0
M  V30 740 H 77.0551 1.93731 3.36288 0
M  V30 741 H 75.1561 -0.506465 3.69142 0
M  V30 742 H 75.2691 1.10926 4.66082 0
M  V30 743 H 73.6331 0.495149 2.49841 0
M  V30 744 H 74.4161 2.15771 2.67016 0
M  V30 745 N 76.8612 -1.46375 0.584142 0
M  V30 746 C 78.2772 -1.57694 0.245929 0
M  V30 747 C 78.4772 -1.57903 -1.25175 0
M  V30 748 O 77.5332 -1.49676 -2.03355 0
M  V30 749 C 78.8462 -2.87028 0.896402 0
M  V30 750 C 80.3942 -3.00662 0.870127 0
M  V30 751 C 80.8692 -4.32734 1.50017 0
M  V30 752 N 82.3602 -4.39436 1.46458 0
M  V30 753 C 83.0952 -5.40248 1.92144 0
M  V30 754 N 82.5912 -6.47726 2.4581 0
M  V30 755 N 84.3842 -5.31459 1.83052 0
M  V30 756 H 76.5352 -1.44483 1.55687 0
M  V30 757 H 78.7982 -0.689291 0.650831 0
M  V30 758 H 78.5042 -2.9269 1.95002 0
M  V30 759 H 78.3782 -3.75014 0.405486 0
M  V30 760 H 80.7652 -2.94581 -0.174871 0
M  V30 761 H 80.8462 -2.14148 1.39908 0
M  V30 762 H 80.4902 -4.39573 2.54437 0
M  V30 763 H 80.4202 -5.18025 0.946432 0
M  V30 764 H 82.9112 -3.62367 1.07231 0
M  V30 765 H 83.2242 -7.20863 2.78525 0
M  V30 766 H 81.5692 -6.48542 2.49836 0
M  V30 767 H 84.7602 -4.46396 1.40883 0
M  V30 768 H 84.9332 -6.09881 2.18973 0
M  V30 769 N 78.3393 -0.321999 -1.54275 0
M  V30 770 C 79.5853 0.281461 -2.00837 0
M  V30 771 C 79.9183 1.51909 -1.20985 0
M  V30 772 O 79.1933 1.923 -0.291733 0
M  V30 773 C 79.4763 0.617162 -3.54772 0
M  V30 774 C 79.3293 -0.631064 -4.45351 0
M  V30 775 C 80.6483 1.43542 -4.16033 0
M  V30 776 H 77.7673 0.100826 -0.730071 0
M  V30 777 H 80.4093 -0.438268 -1.84876 0
M  V30 778 H 78.5593 1.23034 -3.68504 0
M  V30 779 H 80.2313 -1.26934 -4.43492 0
M  V30 780 H 78.4743 -1.26025 -4.15091 0
M  V30 781 H 79.1453 -0.351735 -5.50878 0
M  V30 782 H 81.6213 0.917134 -4.05867 0
M  V30 783 H 80.4973 1.63907 -5.23856 0
M  V30 784 H 80.7583 2.43108 -3.69257 0
M  V30 785 N 79.8174 1.5752 -0.0501392 0
M  V30 786 C 81.0634 1.92936 0.624798 0
M  V30 787 C 81.3964 0.928685 1.70555 0
M  V30 788 O 80.6714 -0.0454779 1.94447 0
M  V30 789 C 80.9544 3.38737 1.22185 0
M  V30 790 C 80.8074 4.49552 0.149218 0
M  V30 791 C 82.1264 3.84913 2.13378 0
M  V30 792 H 79.2454 0.701604 0.225657 0
M  V30 793 H 81.8874 1.89671 -0.111693 0
M  V30 794 H 80.0374 3.4165 1.84953 0
M  V30 795 H 81.7094 4.58768 -0.482648 0
M  V30 796 H 79.9524 4.30638 -0.522841 0
M  V30 797 H 80.6234 5.48653 0.606966 0
M  V30 798 H 83.0994 3.8387 1.60572 0
M  V30 799 H 81.9754 4.87584 2.52097 0
M  V30 800 H 82.2364 3.21611 3.03346 0
M  V30 801 N 81.2955 -0.223234 1.56011 0
M  V30 802 C 82.2055 -1.29766 1.95443 0
M  V30 803 C 83.2215 -1.51373 0.858028 0
M  V30 804 O 84.3975 -1.64536 1.16146 0
M  V30 805 C 81.4625 -2.62772 2.26167 0
M  V30 806 C 80.5235 -2.49482 3.49367 0
M  V30 807 C 79.7565 -3.76145 3.78616 0
M  V30 808 O 79.9795 -4.79087 3.09568 0
M  V30 809 O 78.9135 -3.73358 4.72109 0
M  V30 810 H 82.7395 -0.99309 2.87004 0
M  V30 811 H 80.3245 -0.425958 1.43199 0
M  V30 812 H 82.2065 -3.41327 2.47131 0
M  V30 813 H 80.8815 -2.92913 1.37781 0
M  V30 814 H 79.7885 -1.69133 3.33684 0
M  V30 815 H 81.1215 -2.2428 4.38131 0
M  V30 816 N 82.7736 -1.49793 -0.48987 0
M  V30 817 C 83.7066 -1.61898 -1.60823 0
M  V30 818 C 84.6846 -0.467651 -1.5573 0
M  V30 819 O 85.8686 -0.684682 -1.75626 0
M  V30 820 C 82.9956 -1.58422 -2.99366 0
M  V30 821 C 82.0416 -2.78889 -3.22682 0
M  V30 822 S 82.8746 -4.40429 -3.04602 0
M  V30 823 C 84.0306 -4.39617 -4.4552 0
M  V30 824 H 84.2636 -2.56502 -1.50312 0
M  V30 825 H 81.7966 -1.38822 -0.675849 0
M  V30 826 H 83.7546 -1.57103 -3.79248 0
M  V30 827 H 82.4156 -0.650866 -3.07283 0
M  V30 828 H 81.6086 -2.72708 -4.23847 0
M  V30 829 H 81.2106 -2.77678 -2.50541 0
M  V30 830 H 83.5026 -4.12022 -5.37814 0
M  V30 831 H 84.4456 -5.41097 -4.56749 0
M  V30 832 H 84.8536 -3.69554 -4.2672 0
M  V30 833 N 84.2517 0.741722 -1.39055 0
M  V30 834 C 85.1837 1.8657 -1.33133 0
M  V30 835 C 86.1967 1.61001 -0.241329 0
M  V30 836 O 87.3857 1.7136 -0.499784 0
M  V30 837 C 84.4857 3.22457 -1.04283 0
M  V30 838 C 83.6587 3.75435 -2.24427 0
M  V30 839 C 82.7177 4.89867 -1.92138 0
M  V30 840 O 81.7437 5.03879 -2.64754 0
M  V30 841 N 82.9457 5.73738 -0.88347 0
M  V30 842 H 85.7107 1.92156 -2.29991 0
M  V30 843 H 83.2717 0.922172 -1.3307 0
M  V30 844 H 85.2637 3.9657 -0.807128 0
M  V30 845 H 83.8337 3.12181 -0.161807 0
M  V30 846 H 83.0537 2.92751 -2.6399 0
M  V30 847 H 84.3417 4.07563 -3.04581 0
M  V30 848 H 83.7397 5.64999 -0.281517 0
M  V30 849 H 82.2967 6.47947 -0.707662 0
M  V30 850 N 85.7298 1.2412 0.971189 0
M  V30 851 C 86.9548 1.10667 1.75407 0
M  V30 852 C 87.3798 -0.337048 1.85056 0
M  V30 853 O 86.7378 -1.24396 1.31892 0
M  V30 854 C 86.7858 1.74726 3.15441 0
M  V30 855 O 85.8898 1.01566 3.99697 0
M  V30 856 H 85.2308 0.387341 0.539317 0
M  V30 857 H 87.7608 1.64358 1.2185 0
M  V30 858 H 87.7708 1.80341 3.6598 0
M  V30 859 H 86.4458 2.79773 3.07734 0
M  V30 860 H 85.0228 1.03713 3.58187 0
M  V30 861 N 87.2079 -1.17134 1.05439 0
M  V30 862 C 88.1179 -2.24878 0.668365 0
M  V30 863 C 89.1339 -1.71186 -0.311687 0
M  V30 864 O 90.3099 -2.00738 -0.163161 0
M  V30 865 C 87.3749 -3.46662 0.051648 0
M  V30 866 C 86.4359 -4.15429 1.08246 0
M  V30 867 C 85.6689 -5.31399 0.495082 0
M  V30 868 O 85.8919 -5.66153 -0.694743 0
M  V30 869 O 84.8259 -5.89187 1.23056 0
M  V30 870 H 88.6519 -2.60189 1.56637 0
M  V30 871 H 86.2369 -1.24482 0.826104 0
M  V30 872 H 88.1189 -4.20394 -0.290966 0
M  V30 873 H 86.7939 -3.13142 -0.819971 0
M  V30 874 H 85.7009 -3.43704 1.47711 0
M  V30 875 H 87.0339 -4.52982 1.92532 0
M  V30 876 N 88.686 -0.835752 -1.33615 0
M  V30 877 C 89.649 -0.272 -2.2758 0
M  V30 878 C 90.649 0.557487 -1.50827 0
M  V30 879 O 91.839 0.37173 -1.70188 0
M  V30 880 C 88.971 0.617173 -3.35267 0
M  V30 881 H 90.164 -1.10111 -2.78954 0
M  V30 882 H 87.717 -0.608594 -1.43965 0
M  V30 883 H 88.452 1.46884 -2.89129 0
M  V30 884 H 88.237 0.0237066 -3.92093 0
M  V30 885 H 89.727 1.005 -4.05326 0
M  V30 886 N 90.1641 1.46063 -0.591896 0
M  V30 887 C 91.4121 2.01938 -0.0808391 0
M  V30 888 C 91.7331 1.46475 1.28725 0
M  V30 889 O 91.0031 0.652944 1.84698 0
M  V30 890 H 89.5831 0.746516 -0.0268938 0
M  V30 891 H 92.2451 1.79055 -0.769752 0
M  V30 892 H 91.3411 3.12094 -0.0187578 0
M  V30 893 N 91.6422 0.330177 1.54103 0
M  V30 894 C 92.6052 -0.520144 2.2322 0
M  V30 895 C 93.6052 -1.03828 1.22786 0
M  V30 896 O 94.7952 -0.929652 1.4732 0
M  V30 897 C 91.9272 -1.72317 2.94142 0
M  V30 898 H 93.1202 0.0841605 2.99782 0
M  V30 899 H 90.6732 0.0813433 1.56088 0
M  V30 900 H 91.4082 -2.36653 2.21734 0
M  V30 901 H 91.1932 -1.35898 3.67796 0
M  V30 902 H 92.6832 -2.3266 3.46784 0
M  V30 903 N 93.1203 -1.57491 0.0584922 0
M  V30 904 C 94.3693 -1.92155 -0.613146 0
M  V30 905 C 94.6823 -0.939334 -1.71569 0
M  V30 906 O 95.8883 -1.17829 -2.44599 0
M  V30 907 C 94.3443 -3.41303 -1.14195 0
M  V30 908 C 93.9523 -4.47944 -0.0711265 0
M  V30 909 C 95.6963 -3.84988 -1.78841 0
M  V30 910 C 93.6033 -5.88212 -0.613225 0
M  V30 911 H 92.5333 -0.717162 -0.232796 0
M  V30 912 H 95.1843 -1.83049 0.12857 0
M  V30 913 H 93.5663 -3.45437 -1.93621 0
M  V30 914 H 94.7403 -4.55408 0.702836 0
M  V30 915 H 93.0553 -4.13644 0.478313 0
M  V30 916 H 95.6523 -4.87159 -2.20408 0
M  V30 917 H 95.9953 -3.21632 -2.64308 0
M  V30 918 H 96.5283 -3.83401 -1.06059 0
M  V30 919 H 93.2673 -6.55183 0.203978 0
M  V30 920 H 92.7873 -5.84294 -1.35501 0
M  V30 921 H 94.4663 -6.37687 -1.09383 0
M  V30 922 N 94.5984 0.214957 -1.56127 0
M  V30 923 C 95.5614 1.24997 -1.92116 0
M  V30 924 C 96.5614 1.39467 -0.800344 0
M  V30 925 O 97.7514 1.37619 -1.06802 0
M  V30 926 C 94.8834 2.62271 -2.17777 0
M  V30 927 H 96.0764 0.942875 -2.84693 0
M  V30 928 H 93.6294 0.455654 -1.49511 0
M  V30 929 H 94.3644 2.98068 -1.27773 0
M  V30 930 H 94.1494 2.53143 -2.99434 0
M  V30 931 H 95.6394 3.36946 -2.46693 0
M  V30 932 N 96.0765 1.50051 0.48192 0
M  V30 933 C 97.3045 1.64237 1.25832 0
M  V30 934 C 97.7195 0.321336 1.86045 0
M  V30 935 O 97.0765 -0.695478 1.68729 0
M  V30 936 C 97.1275 2.72548 2.37487 0
M  V30 937 O 96.8485 3.99529 1.79745 0
M  V30 938 C 98.3495 2.9761 3.28547 0
M  V30 939 H 95.5695 0.55237 0.380957 0
M  V30 940 H 98.1135 1.96207 0.576467 0
M  V30 941 H 96.2685 2.43303 3.01467 0
M  V30 942 H 96.6825 4.59342 2.5319 0
M  V30 943 H 98.1565 3.77084 4.03127 0
M  V30 944 H 98.6335 2.0826 3.86684 0
M  V30 945 H 99.2395 3.28345 2.70314 0
M  V30 946 N 97.5546 -0.734337 1.39446 0
M  V30 947 C 98.8006 -1.49613 1.36908 0
M  V30 948 C 99.1336 -1.94169 -0.0347829 0
M  V30 949 O 98.4086 -1.66833 -0.999847 0
M  V30 950 C 98.6916 -2.73534 2.34203 0
M  V30 951 C 98.5446 -2.34993 3.83534 0
M  V30 952 C 99.8636 -3.75635 2.29317 0
M  V30 953 H 96.9826 -0.542714 0.498629 0
M  V30 954 H 99.6246 -0.839597 1.70443 0
M  V30 955 H 97.7746 -3.29553 2.05736 0
M  V30 956 H 99.4466 -1.84601 4.22753 0
M  V30 957 H 97.6896 -1.67213 4.00278 0
M  V30 958 H 98.3606 -3.23738 4.47099 0
M  V30 959 H 100.837 -3.29203 2.54489 0
M  V30 960 H 99.7126 -4.60008 2.99472 0
M  V30 961 H 99.9736 -4.22603 1.29842 0
M  V30 962 N 99.0327 -1.24633 -0.964593 0
M  V30 963 C 99.9827 -1.00841 -2.04487 0
M  V30 964 C 100.967 0.0512468 -1.60818 0
M  V30 965 O 102.159 -0.162865 -1.76249 0
M  V30 966 C 99.2877 -0.618474 -3.37683 0
M  V30 967 C 98.3737 -1.71437 -3.87905 0
M  V30 968 N 98.7647 -2.9477 -4.11029 0
M  V30 969 C 97.0627 -1.5926 -4.16596 0
M  V30 970 C 97.7637 -3.65834 -4.52261 0
M  V30 971 N 96.7397 -2.9341 -4.57615 0
M  V30 972 H 100.542 -1.94487 -2.20345 0
M  V30 973 H 98.0557 -1.14805 -1.14863 0
M  V30 974 H 100.053 -0.429247 -4.14684 0
M  V30 975 H 98.7127 0.310766 -3.23209 0
M  V30 976 H 99.7237 -3.30917 -3.9839 0
M  V30 977 H 96.4007 -0.731606 -4.1104 0
M  V30 978 H 97.7907 -4.71646 -4.78539 0
M  V30 979 N 100.511 1.16574 -1.06058 0
M  V30 980 C 101.759 1.86677 -0.77434 0
M  V30 981 C 102.08 1.81959 0.701147 0
M  V30 982 O 101.35 1.2515 1.50713 0
M  V30 983 H 99.9298 0.691134 -0.283449 0
M  V30 984 H 102.592 1.41378 -1.34158 0
M  V30 985 H 101.688 2.92181 -1.09711 0
M  V30 986 N 101.989 0.842826 1.3317 0
M  V30 987 C 102.952 0.284065 2.27433 0
M  V30 988 C 103.952 -0.54948 1.5112 0
M  V30 989 O 105.142 -0.362699 1.70382 0
M  V30 990 C 102.274 -0.599384 3.35589 0
M  V30 991 H 103.467 1.11589 2.78366 0
M  V30 992 H 101.02 0.616221 1.4364 0
M  V30 993 H 101.755 -1.45349 2.89904 0
M  V30 994 H 101.54 -0.00291266 3.921 0
M  V30 995 H 103.03 -0.983488 4.05854 0
M  V30 996 N 103.467 -1.45747 0.599634 0
M  V30 997 C 104.397 -2.33235 -0.111306 0
M  V30 998 C 105.378 -1.46359 -0.866781 0
M  V30 999 O 106.563 -1.75146 -0.838904 0
M  V30 1000 C 103.693 -3.28932 -1.11451 0
M  V30 1001 C 102.647 -4.25381 -0.472772 0
M  V30 1002 C 101.973 -5.1071 -1.58365 0
M  V30 1003 C 103.273 -5.18831 0.600948 0
M  V30 1004 H 104.967 -2.92927 0.61919 0
M  V30 1005 H 102.513 -1.40857 0.299215 0
M  V30 1006 H 104.466 -3.89002 -1.62036 0
M  V30 1007 H 103.19 -2.67381 -1.8755 0
M  V30 1008 H 101.849 -3.66598 0.0121472 0
M  V30 1009 H 101.497 -4.45533 -2.33473 0
M  V30 1010 H 101.197 -5.7604 -1.15982 0
M  V30 1011 H 102.721 -5.73647 -2.09194 0
M  V30 1012 H 104.135 -5.73019 0.179491 0
M  V30 1013 H 102.532 -5.92595 0.946076 0
M  V30 1014 H 103.602 -4.6174 1.48068 0
M  V30 1015 N 104.945 -0.338344 -1.53925 0
M  V30 1016 C 105.877 0.555117 -2.22376 0
M  V30 1017 C 106.89 1.06812 -1.22862 0
M  V30 1018 O 108.079 0.979163 -1.49247 0
M  V30 1019 C 105.179 1.77609 -2.88631 0
M  V30 1020 C 104.352 1.39927 -4.14414 0
M  V30 1021 C 103.411 2.47936 -4.64127 0
M  V30 1022 O 102.437 2.11461 -5.28463 0
M  V30 1023 N 103.639 3.79107 -4.39612 0
M  V30 1024 H 106.404 -0.0310778 -2.99684 0
M  V30 1025 H 103.965 -0.162226 -1.61085 0
M  V30 1026 H 105.957 2.49287 -3.18807 0
M  V30 1027 H 104.527 2.26978 -2.14941 0
M  V30 1028 H 103.747 0.513481 -3.90841 0
M  V30 1029 H 105.035 1.12341 -4.96243 0
M  V30 1030 H 104.433 4.11531 -3.88148 0
M  V30 1031 H 102.99 4.4697 -4.74406 0
M  V30 1032 N 106.423 1.57458 -0.0668435 0
M  V30 1033 C 107.651 1.97624 0.612565 0
M  V30 1034 C 108.066 0.94502 1.63447 0
M  V30 1035 O 107.423 -0.0689276 1.8237 0
M  V30 1036 C 107.474 3.37869 1.28555 0
M  V30 1037 O 107.195 4.3704 0.304557 0
M  V30 1038 C 108.696 3.92882 2.05325 0
M  V30 1039 H 105.916 0.650045 0.166381 0
M  V30 1040 H 108.46 2.04035 -0.137782 0
M  V30 1041 H 106.615 3.3256 1.98702 0
M  V30 1042 H 107.029 5.18565 0.786779 0
M  V30 1043 H 108.503 4.93247 2.47812 0
M  V30 1044 H 108.98 3.29156 2.9078 0
M  V30 1045 H 109.586 4.01577 1.40056 0
M  V30 1046 N 107.901 -0.206675 1.56239 0
M  V30 1047 C 109.149 -0.927007 1.79586 0
M  V30 1048 C 109.47 -1.8427 0.637929 0
M  V30 1049 O 108.74 -1.92849 -0.344398 0
M  V30 1050 H 107.32 -0.345292 0.662407 0
M  V30 1051 H 109.982 -0.21496 1.93711 0
M  V30 1052 H 109.078 -1.52501 2.72305 0
M  V30 1053 N 109.379 -1.50304 -0.473955 0
M  V30 1054 C 110.342 -1.6841 -1.55469 0
M  V30 1055 C 111.342 -0.554905 -1.50922 0
M  V30 1056 O 112.532 -0.821882 -1.53593 0
M  V30 1057 C 109.664 -1.70667 -2.95102 0
M  V30 1058 H 110.857 -2.64828 -1.40733 0
M  V30 1059 H 108.41 -1.39742 -0.700132 0
M  V30 1060 H 109.145 -0.75932 -3.15285 0
M  V30 1061 H 108.93 -2.52698 -2.9981 0
M  V30 1062 H 110.42 -1.8664 -3.73571 0
M  V30 1063 N 110.857 0.726932 -1.39834 0
M  V30 1064 C 111.787 1.85405 -1.41941 0
M  V30 1065 C 112.768 1.67751 -0.281728 0
M  V30 1066 O 113.953 1.8795 -0.488717 0
M  V30 1067 C 111.083 3.23243 -1.2701 0
M  V30 1068 C 110.037 3.55549 -2.38262 0
M  V30 1069 C 109.363 4.9241 -2.08415 0
M  V30 1070 C 110.663 3.577 -3.80589 0
M  V30 1071 H 112.357 1.83899 -2.36266 0
M  V30 1072 H 109.903 0.883349 -1.13723 0
M  V30 1073 H 111.856 4.01775 -1.27103 0
M  V30 1074 H 110.58 3.25296 -0.291564 0
M  V30 1075 H 109.239 2.79351 -2.37399 0
M  V30 1076 H 108.887 4.91052 -1.0898 0
M  V30 1077 H 108.587 5.14992 -2.82943 0
M  V30 1078 H 110.111 5.73289 -2.10171 0
M  V30 1079 H 111.525 4.26293 -3.83337 0
M  V30 1080 H 109.922 3.91804 -4.54543 0
M  V30 1081 H 110.992 2.57328 -4.10987 0
M  V30 1082 N 112.336 1.25143 0.95797 0
M  V30 1083 C 113.561 1.12521 1.74223 0
M  V30 1084 C 113.986 -0.317402 1.85403 0
M  V30 1085 O 113.344 -1.2299 1.33204 0
M  V30 1086 C 113.392 1.78062 3.1357 0
M  V30 1087 O 112.496 1.058 3.98598 0
M  V30 1088 H 111.837 0.39304 0.535178 0
M  V30 1089 H 114.367 1.65641 1.201 0
M  V30 1090 H 114.377 1.84213 3.64046 0
M  V30 1091 H 113.052 2.83021 3.04749 0
M  V30 1092 H 111.629 1.07506 3.57067 0
M  V30 1093 N 113.814 -1.1601 1.06675 0
M  V30 1094 C 115.042 -1.90527 0.806667 0
M  V30 1095 C 115.457 -1.77643 -0.639396 0
M  V30 1096 O 114.814 -1.12369 -1.43803 0
M  V30 1097 C 114.865 -3.41106 1.19705 0
M  V30 1098 O 114.586 -3.53608 2.58636 0
M  V30 1099 C 116.087 -4.32663 0.965266 0
M  V30 1100 H 113.307 -0.604053 0.292166 0
M  V30 1101 H 115.851 -1.47026 1.4214 0
M  V30 1102 H 114.006 -3.82296 0.626774 0
M  V30 1103 H 114.42 -4.47011 2.74375 0
M  V30 1104 H 115.894 -5.36763 1.288 0
M  V30 1105 H 116.371 -4.39089 -0.0987936 0
M  V30 1106 H 116.977 -3.97206 1.52011 0
M  V30 1107 N 115.292 -0.849877 -1.32721 0
M  V30 1108 C 116.517 -0.463856 -2.02146 0
M  V30 1109 C 116.942 0.930449 -1.63476 0
M  V30 1110 O 116.3 1.61033 -0.832952 0
M  V30 1111 C 116.348 -0.604955 -3.55489 0
M  V30 1112 O 115.452 0.36425 -4.10788 0
M  V30 1113 H 114.793 -0.187046 -0.637111 0
M  V30 1114 H 117.323 -1.14775 -1.69375 0
M  V30 1115 H 117.333 -0.490696 -4.05038 0
M  V30 1116 H 116.008 -1.62174 -3.82978 0
M  V30 1117 H 114.585 0.206628 -3.72327 0
M  V30 1118 N 116.77 1.45427 -0.607355 0
M  V30 1119 C 118.017 2.02241 -0.102455 0
M  V30 1120 C 118.345 1.4758 1.26691 0
M  V30 1121 O 117.6 0.640468 1.84923 0
M  V30 1122 C 117.899 3.57398 -0.0129263 0
M  V30 1123 C 117.565 4.3121 -1.31792 0
M  V30 1124 C 116.227 4.51092 -1.67539 0
M  V30 1125 C 118.579 4.73401 -2.18039 0
M  V30 1126 C 115.907 5.10422 -2.89285 0
M  V30 1127 C 118.259 5.34078 -3.39034 0
M  V30 1128 C 116.923 5.52184 -3.75033 0
M  V30 1129 H 116.193 0.740051 -0.037491 0
M  V30 1130 H 118.84 1.74494 -0.788926 0
M  V30 1131 H 117.145 3.84421 0.756806 0
M  V30 1132 H 118.842 3.99061 0.393881 0
M  V30 1133 H 115.432 4.16047 -1.02968 0
M  V30 1134 H 119.616 4.57774 -1.91721 0
M  V30 1135 H 114.872 5.22629 -3.17283 0
M  V30 1136 H 119.046 5.65724 -4.06115 0
M  V30 1137 H 116.673 5.97925 -4.69457 0
M  V30 1138 N 118.248 0.346503 1.53744 0
M  V30 1139 C 119.476 -0.25041 2.05379 0
M  V30 1140 C 119.891 -1.43979 1.22129 0
M  V30 1141 O 119.248 -1.80677 0.257321 0
M  V30 1142 C 119.299 -0.662575 3.55376 0
M  V30 1143 O 119.02 0.479515 4.35468 0
M  V30 1144 C 120.521 -1.31989 4.23195 0
M  V30 1145 H 117.741 -0.0478198 0.669294 0
M  V30 1146 H 120.285 0.499346 1.9831 0
M  V30 1147 H 118.44 -1.36227 3.62658 0
M  V30 1148 H 118.854 0.15037 5.24284 0
M  V30 1149 H 120.328 -1.55902 5.29527 0
M  V30 1150 H 120.805 -2.27436 3.75725 0
M  V30 1151 H 121.411 -0.662154 4.20114 0
M  V30 1152 N 119.726 -1.57421 0.075193 0
M  V30 1153 C 120.951 -1.98364 -0.605515 0
M  V30 1154 C 121.376 -0.953383 -1.62149 0
M  V30 1155 O 120.734 0.0806053 -1.81121 0
M  V30 1156 C 120.782 -3.38332 -1.24756 0
M  V30 1157 O 119.886 -3.37959 -2.36342 0
M  V30 1158 H 119.227 -0.645553 -0.155428 0
M  V30 1159 H 121.757 -2.04044 0.150714 0
M  V30 1160 H 121.767 -3.75591 -1.5936 0
M  V30 1161 H 120.442 -4.12846 -0.503129 0
M  V30 1162 H 119.019 -3.12474 -2.03506 0
M  V30 1163 N 121.204 0.198386 -1.56346 0
M  V30 1164 C 122.429 0.939682 -1.84891 0
M  V30 1165 C 122.854 1.76202 -0.658369 0
M  V30 1166 O 122.212 1.76993 0.392851 0
M  V30 1167 C 122.26 1.81428 -3.11635 0
M  V30 1168 O 121.364 2.91265 -2.91956 0
M  V30 1169 H 120.705 0.264807 -0.608912 0
M  V30 1170 H 123.235 0.204695 -2.03573 0
M  V30 1171 H 123.245 2.21958 -3.42343 0
M  V30 1172 H 121.92 1.21004 -3.97908 0
M  V30 1173 H 120.497 2.54514 -2.72538 0
M  V30 1174 N 122.682 1.50554 0.465978 0
M  V30 1175 C 123.614 1.65949 1.58093 0
M  V30 1176 C 124.627 0.540827 1.53554 0
M  V30 1177 O 125.816 0.814187 1.5885 0
M  V30 1178 C 122.916 1.63261 2.96983 0
M  V30 1179 C 122.089 2.91245 3.26336 0
M  V30 1180 C 121.148 2.8113 4.44806 0
M  V30 1181 O 120.174 3.55086 4.44862 0
M  V30 1182 N 121.376 1.95032 5.46756 0
M  V30 1183 H 124.141 2.62122 1.45301 0
M  V30 1184 H 121.702 1.48082 0.65448 0
M  V30 1185 H 123.694 1.54101 3.74212 0
M  V30 1186 H 122.264 0.748032 3.03518 0
M  V30 1187 H 121.484 3.14493 2.37672 0
M  V30 1188 H 122.772 3.76022 3.42761 0
M  V30 1189 H 122.17 1.3427 5.49534 0
M  V30 1190 H 120.727 1.91772 6.2295 0
M  V30 1191 N 124.16 -0.719506 1.40217 0
M  V30 1192 C 125.408 -1.47641 1.3801 0
M  V30 1193 C 125.729 -1.94992 -0.018145 0
M  V30 1194 O 124.999 -1.70073 -0.972207 0
M  V30 1195 H 123.579 -0.547744 0.507923 0
M  V30 1196 H 126.241 -0.853187 1.75233 0
M  V30 1197 H 125.337 -2.35112 2.05253 0
M  V30 1198 N 125.638 -1.25649 -0.95132 0
M  V30 1199 C 126.568 -1.08808 -2.06599 0
M  V30 1200 C 127.549 0.00382547 -1.701 0
M  V30 1201 O 128.734 -0.166325 -1.93486 0
M  V30 1202 C 125.864 -0.709542 -3.39975 0
M  V30 1203 C 124.818 -1.75206 -3.90496 0
M  V30 1204 C 124.144 -1.22811 -5.20405 0
M  V30 1205 C 125.444 -3.15153 -4.16504 0
M  V30 1206 H 127.138 -2.02048 -2.20946 0
M  V30 1207 H 124.684 -0.972835 -1.06169 0
M  V30 1208 H 126.637 -0.578649 -4.17408 0
M  V30 1209 H 125.361 0.258556 -3.25575 0
M  V30 1210 H 124.02 -1.87145 -3.15234 0
M  V30 1211 H 123.668 -0.250145 -5.02378 0
M  V30 1212 H 123.368 -1.92492 -5.55176 0
M  V30 1213 H 124.892 -1.10968 -6.00432 0
M  V30 1214 H 126.306 -3.06349 -4.84586 0
M  V30 1215 H 124.703 -3.82333 -4.62538 0
M  V30 1216 H 125.773 -3.61966 -3.22658 0
M  V30 1217 N 127.117 1.15442 -1.07289 0
M  V30 1218 C 128.047 2.22312 -0.714107 0
M  V30 1219 C 129.028 1.67467 0.298155 0
M  V30 1220 O 130.213 1.93445 0.171048 0
M  V30 1221 C 127.343 3.47124 -0.110448 0
M  V30 1222 C 126.297 4.14926 -1.04979 0
M  V30 1223 C 125.623 5.33807 -0.308924 0
M  V30 1224 C 126.923 4.64762 -2.38314 0
M  V30 1225 H 128.617 2.5258 -1.6076 0
M  V30 1226 H 126.163 1.21404 -0.77441 0
M  V30 1227 H 128.116 4.21124 0.152482 0
M  V30 1228 H 126.84 3.16187 0.81812 0
M  V30 1229 H 125.499 3.42866 -1.29764 0
M  V30 1230 H 125.147 4.99126 0.623084 0
M  V30 1231 H 124.847 5.80113 -0.935036 0
M  V30 1232 H 126.371 6.10576 -0.0537771 0
M  V30 1233 H 127.785 5.30292 -2.1786 0
M  V30 1234 H 126.182 5.21728 -2.96514 0
M  V30 1235 H 127.252 3.80434 -3.00663 0
M  V30 1236 N 128.595 0.856903 1.32268 0
M  V30 1237 C 129.525 0.31858 2.31316 0
M  V30 1238 C 130.506 -0.583487 1.59779 0
M  V30 1239 O 131.691 -0.503259 1.87566 0
M  V30 1240 C 128.821 -0.491979 3.43798 0
M  V30 1241 C 127.775 0.315849 4.26833 0
M  V30 1242 C 127.101 -0.619586 5.31098 0
M  V30 1243 C 128.401 1.54282 4.98993 0
M  V30 1244 H 130.095 1.14621 2.76591 0
M  V30 1245 H 127.641 0.552613 1.32974 0
M  V30 1246 H 129.594 -0.879012 4.1213 0
M  V30 1247 H 128.318 -1.35299 2.97257 0
M  V30 1248 H 126.977 0.684664 3.6015 0
M  V30 1249 H 126.625 -1.47751 4.8081 0
M  V30 1250 H 126.325 -0.0830621 5.87541 0
M  V30 1251 H 127.849 -1.00375 6.02293 0
M  V30 1252 H 129.263 1.22796 5.59995 0
M  V30 1253 H 127.66 2.01745 5.65172 0
M  V30 1254 H 128.73 2.30285 4.26728 0
M  V30 1255 N 130.073 -1.45103 0.615059 0
M  V30 1256 C 131.006 -2.27717 -0.148408 0
M  V30 1257 C 131.984 -1.37584 -0.866572 0
M  V30 1258 O 133.168 -1.67017 -0.87393 0
M  V30 1259 C 130.295 -3.16136 -1.21557 0
M  V30 1260 C 129.341 -4.22263 -0.599712 0
M  V30 1261 S 130.174 -5.3215 0.598081 0
M  V30 1262 C 131.33 -6.24137 -0.469484 0
M  V30 1263 H 131.563 -2.92121 0.552483 0
M  V30 1264 H 129.096 -1.49054 0.402778 0
M  V30 1265 H 131.054 -3.67633 -1.82638 0
M  V30 1266 H 129.715 -2.50982 -1.88857 0
M  V30 1267 H 128.908 -4.84081 -1.4029 0
M  V30 1268 H 128.51 -3.73945 -0.063876 0
M  V30 1269 H 130.802 -6.63984 -1.34652 0
M  V30 1270 H 131.745 -7.0801 0.112725 0
M  V30 1271 H 132.153 -5.58971 -0.788168 0
M  V30 1272 N 131.551 -0.354651 -1.53558 0
M  V30 1273 C 132.8 0.239504 -2.00273 0
M  V30 1274 C 133.113 1.50759 -1.24623 0
M  V30 1275 O 134.319 2.17968 -1.61871 0
M  V30 1276 C 132.775 0.477341 -3.5672 0
M  V30 1277 C 132.383 -0.775488 -4.41237 0
M  V30 1278 C 134.127 1.02975 -4.11821 0
M  V30 1279 C 132.034 -0.507838 -5.89216 0
M  V30 1280 H 130.964 0.0932743 -0.748208 0
M  V30 1281 H 133.615 -0.471701 -1.77334 0
M  V30 1282 H 131.997 1.24953 -3.7577 0
M  V30 1283 H 133.171 -1.54963 -4.33962 0
M  V30 1284 H 131.486 -1.25033 -3.97185 0
M  V30 1285 H 134.083 1.24513 -5.2 0
M  V30 1286 H 134.426 1.98862 -3.65731 0
M  V30 1287 H 134.959 0.317994 -3.96527 0
M  V30 1288 H 131.698 -1.43674 -6.39561 0
M  V30 1289 H 131.218 0.228011 -5.99366 0
M  V30 1290 H 132.897 -0.129238 -6.46871 0
M  V30 1291 N 133.029 1.57378 -0.0835403 0
M  V30 1292 C 134.44 1.81261 0.447358 0
M  V30 1293 C 134.791 0.998331 1.68902 0
M  V30 1294 O 133.916 0.224282 2.15235 0
M  V30 1295 C 134.511 3.28767 0.818386 0
M  V30 1296 C 133.07 3.53455 1.29409 0
M  V30 1297 C 132.217 2.75831 0.285024 0
M  V30 1298 H 135.168 1.5566 -0.309115 0
M  V30 1299 H 135.189 3.41459 1.67887 0
M  V30 1300 H 134.701 3.88006 -0.0855019 0
M  V30 1301 H 132.802 2.99534 2.21608 0
M  V30 1302 H 132.915 4.62128 1.2639 0
M  V30 1303 H 131.279 2.42947 0.764767 0
M  V30 1304 H 132.062 3.37813 -0.611341 0
M  V30 1305 N 134.507 -0.190092 1.56449 0
M  V30 1306 C 135.735 -0.925772 1.85033 0
M  V30 1307 C 136.15 -1.76638 0.666658 0
M  V30 1308 O 135.507 -1.78822 -0.364565 0
M  V30 1309 C 135.558 -1.81786 3.12468 0
M  V30 1310 O 135.279 -1.01118 4.26271 0
M  V30 1311 C 136.78 -2.6648 3.54265 0
M  V30 1312 H 134 -0.269872 0.614337 0
M  V30 1313 H 136.544 -0.195837 2.0356 0
M  V30 1314 H 134.699 -2.50136 2.95822 0
M  V30 1315 H 135.113 -1.61956 4.98869 0
M  V30 1316 H 136.587 -3.24722 4.46385 0
M  V30 1317 H 137.064 -3.40434 2.77491 0
M  V30 1318 H 137.67 -2.03493 3.73458 0
M  V30 1319 N 135.985 -1.50799 -0.457987 0
M  V30 1320 C 136.915 -1.73553 -1.5621 0
M  V30 1321 C 137.896 -0.584774 -1.59732 0
M  V30 1322 O 139.081 -0.825314 -1.7579 0
M  V30 1323 C 136.211 -1.84169 -2.94447 0
M  V30 1324 C 135.165 -2.99461 -3.0579 0
M  V30 1325 C 134.491 -2.95235 -4.45803 0
M  V30 1326 C 135.791 -4.39766 -2.81786 0
M  V30 1327 H 137.485 -2.66 -1.37421 0
M  V30 1328 H 135.031 -1.28002 -0.659662 0
M  V30 1329 H 136.984 -1.98672 -3.71628 0
M  V30 1330 H 135.708 -0.883545 -3.14422 0
M  V30 1331 H 134.367 -2.8463 -2.31044 0
M  V30 1332 H 134.015 -1.97239 -4.62715 0
M  V30 1333 H 133.715 -3.72642 -4.54326 0
M  V30 1334 H 135.239 -3.11803 -5.24987 0
M  V30 1335 H 136.653 -4.55054 -3.4871 0
M  V30 1336 H 135.05 -5.18722 -3.0174 0
M  V30 1337 H 136.12 -4.51229 -1.7754 0
M  V30 1338 N 137.463 0.71206 -1.40597 0
M  V30 1339 C 138.693 1.49894 -1.42181 0
M  V30 1340 C 139.101 1.89189 -0.0208078 0
M  V30 1341 O 138.444 1.56223 0.966436 0
M  V30 1342 C 138.506 2.80215 -2.25211 0
M  V30 1343 C 138.17 2.63221 -3.73582 0
M  V30 1344 C 139.167 2.30249 -4.66135 0
M  V30 1345 C 136.852 2.79376 -4.17438 0
M  V30 1346 C 138.846 2.13645 -6.00529 0
M  V30 1347 C 136.533 2.6239 -5.51901 0
M  V30 1348 C 137.531 2.29573 -6.43262 0
M  V30 1349 O 137.219 2.12719 -7.75246 0
M  V30 1350 H 136.951 0.469031 -0.486812 0
M  V30 1351 H 139.505 0.88564 -1.85326 0
M  V30 1352 H 137.735 3.4389 -1.76852 0
M  V30 1353 H 139.424 3.41947 -2.18694 0
M  V30 1354 H 140.19 2.17398 -4.33547 0
M  V30 1355 H 136.069 3.03906 -3.46644 0
M  V30 1356 H 139.613 1.87953 -6.71803 0
M  V30 1357 H 135.51 2.74826 -5.84073 0
M  V30 1358 H 136.278 2.27611 -7.86216 0
M  V30 1359 N 138.941 1.26152 0.944643 0
M  V30 1360 C 139.888 1.07408 2.04285 0
M  V30 1361 C 140.858 -0.0198413 1.66088 0
M  V30 1362 O 142.043 0.139264 1.90291 0
M  V30 1363 C 139.183 0.70945 3.37729 0
M  V30 1364 C 138.296 1.87926 3.88983 0
M  V30 1365 C 137.431 1.45807 5.10797 0
M  V30 1366 C 136.47 2.5964 5.54305 0
M  V30 1367 N 135.607 2.18226 6.67324 0
M  V30 1368 H 140.447 2.01389 2.1965 0
M  V30 1369 H 137.984 1.00275 1.07626 0
M  V30 1370 H 139.942 0.478948 4.14442 0
M  V30 1371 H 138.572 -0.193389 3.2222 0
M  V30 1372 H 137.624 2.22279 3.08701 0
M  V30 1373 H 138.936 2.73377 4.17213 0
M  V30 1374 H 138.09 1.18781 5.94959 0
M  V30 1375 H 136.829 0.574414 4.84305 0
M  V30 1376 H 135.834 2.87399 4.68702 0
M  V30 1377 H 137.059 3.48599 5.828 0
M  V30 1378 H 135.005 1.3229 6.42523 0
M  V30 1379 H 134.922 2.97221 6.95123 0
M  V30 1380 H 136.19 1.94403 7.54869 0
M  V30 1381 N 140.419 -1.14872 1.07899 0
M  V30 1382 C 141.349 -2.2193 0.725887 0
M  V30 1383 C 142.33 -1.67622 -0.28927 0
M  V30 1384 O 143.515 -1.93533 -0.160787 0
M  V30 1385 C 140.645 -3.47061 0.128856 0
M  V30 1386 C 139.599 -4.14363 1.07178 0
M  V30 1387 C 138.925 -5.33636 0.337229 0
M  V30 1388 C 140.225 -4.63492 2.40775 0
M  V30 1389 H 141.919 -2.51724 1.62097 0
M  V30 1390 H 139.465 -1.20991 0.780838 0
M  V30 1391 H 141.418 -4.21199 -0.130147 0
M  V30 1392 H 140.142 -3.16617 -0.80134 0
M  V30 1393 H 138.801 -3.42173 1.3158 0
M  V30 1394 H 138.449 -4.99449 -0.596606 0
M  V30 1395 H 138.149 -5.79609 0.965788 0
M  V30 1396 H 139.673 -6.10539 0.0861567 0
M  V30 1397 H 141.087 -5.2913 2.20669 0
M  V30 1398 H 139.484 -5.20148 2.99276 0
M  V30 1399 H 140.554 -3.78834 3.02676 0
M  V30 1400 N 141.898 -0.863906 -1.31812 0
M  V30 1401 C 142.861 -0.320212 -2.26952 0
M  V30 1402 C 143.861 0.525369 -1.51975 0
M  V30 1403 O 145.051 0.335547 -1.70938 0
M  V30 1404 C 142.183 0.545919 -3.365 0
M  V30 1405 H 143.376 -1.16004 -2.76556 0
M  V30 1406 H 140.929 -0.638995 -1.42641 0
M  V30 1407 H 141.664 1.40718 -2.92179 0
M  V30 1408 H 141.449 -0.0594674 -3.92055 0
M  V30 1409 H 142.939 0.918796 -4.07367 0
M  V30 1410 N 143.376 1.44774 -0.622745 0
M  V30 1411 C 144.624 2.01721 -0.123655 0
M  V30 1412 C 144.945 1.49172 1.25589 0
M  V30 1413 O 144.215 0.691974 1.83272 0
M  V30 1414 H 142.795 0.745777 -0.0427225 0
M  V30 1415 H 145.457 1.77382 -0.807559 0
M  V30 1416 H 144.553 3.11984 -0.0849534 0
M  V30 1417 N 144.854 0.36279 1.53368 0
M  V30 1418 C 145.764 -0.492994 2.29362 0
M  V30 1419 C 146.78 -1.09507 1.35219 0
M  V30 1420 O 147.956 -1.10662 1.68273 0
M  V30 1421 C 145.021 -1.61855 3.066 0
M  V30 1422 C 144.082 -1.04429 4.16405 0
M  V30 1423 C 143.315 -2.11621 4.89951 0
M  V30 1424 O 143.538 -3.32684 4.63333 0
M  V30 1425 O 142.472 -1.74835 5.75948 0
M  V30 1426 H 146.298 0.125331 3.03441 0
M  V30 1427 H 143.883 0.127253 1.48857 0
M  V30 1428 H 145.765 -2.27302 3.54841 0
M  V30 1429 H 144.44 -2.22233 2.3536 0
M  V30 1430 H 143.347 -0.353819 3.72423 0
M  V30 1431 H 144.68 -0.485113 4.89804 0
M  V30 1432 N 146.332 -1.57332 0.0918853 0
M  V30 1433 C 147.262 -2.16872 -0.865371 0
M  V30 1434 C 148.243 -1.10118 -1.29646 0
M  V30 1435 O 149.428 -1.38242 -1.36392 0
M  V30 1436 C 146.558 -2.74649 -2.12569 0
M  V30 1437 C 145.512 -3.86747 -1.83333 0
M  V30 1438 C 144.838 -4.31212 -3.16166 0
M  V30 1439 C 146.138 -5.10089 -1.1228 0
M  V30 1440 H 147.832 -2.97114 -0.369307 0
M  V30 1441 H 145.378 -1.42918 -0.176194 0
M  V30 1442 H 147.331 -3.14952 -2.7997 0
M  V30 1443 H 146.055 -1.91657 -2.64452 0
M  V30 1444 H 144.714 -3.46978 -1.18331 0
M  V30 1445 H 144.362 -3.45115 -3.6593 0
M  V30 1446 H 144.062 -5.06788 -2.97388 0
M  V30 1447 H 145.586 -4.74146 -3.84731 0
M  V30 1448 H 147 -5.47582 -1.69785 0
M  V30 1449 H 145.397 -5.91073 -1.03693 0
M  V30 1450 H 146.467 -4.84786 -0.105041 0
M  V30 1451 N 147.81 0.181792 -1.56548 0
M  V30 1452 C 149.038 0.915947 -1.85521 0
M  V30 1453 C 149.453 1.76282 -0.676016 0
M  V30 1454 O 148.81 1.79012 0.355077 0
M  V30 1455 C 148.861 1.80126 -3.13427 0
M  V30 1456 O 148.582 0.988562 -4.26801 0
M  V30 1457 C 150.083 2.64597 -3.55673 0
M  V30 1458 H 147.303 0.26661 -0.61576 0
M  V30 1459 H 149.847 0.185039 -2.03661 0
M  V30 1460 H 148.002 2.48563 -2.97145 0
M  V30 1461 H 148.416 1.59308 -4.99721 0
M  V30 1462 H 149.89 3.2235 -4.48101 0
M  V30 1463 H 150.367 3.38958 -2.79292 0
M  V30 1464 H 150.973 2.0151 -3.74532 0
M  V30 1465 N 149.288 1.51039 0.449983 0
M  V30 1466 C 150.699 1.557 1.03026 0
M  V30 1467 C 151.05 0.372939 1.92623 0
M  V30 1468 O 150.175 -0.511771 2.10261 0
M  V30 1469 C 150.77 2.82171 1.87523 0
M  V30 1470 C 149.329 2.89444 2.40622 0
M  V30 1471 C 148.476 2.50228 1.19504 0
M  V30 1472 H 151.427 1.56999 0.231745 0
M  V30 1473 H 151.448 2.65219 2.72835 0
M  V30 1474 H 150.96 3.68331 1.22286 0
M  V30 1475 H 149.061 2.07685 3.0935 0
M  V30 1476 H 149.174 3.92816 2.74285 0
M  V30 1477 H 147.538 2.03139 1.53644 0
M  V30 1478 H 148.321 3.38719 0.558972 0
M  V30 1479 N 150.766 -0.704594 1.40972 0
M  V30 1480 C 152.013 -1.46458 1.39844 0
M  V30 1481 C 152.341 -1.94499 0.00447594 0
M  V30 1482 O 151.596 -1.69275 -0.982057 0
M  V30 1483 C 151.895 -2.698 2.34399 0
M  V30 1484 C 151.561 -2.40464 3.81429 0
M  V30 1485 C 150.223 -2.32174 4.21484 0
M  V30 1486 C 152.575 -2.16086 4.74296 0
M  V30 1487 C 149.903 -1.97589 5.52427 0
M  V30 1488 C 152.255 -1.83011 6.05549 0
M  V30 1489 C 150.919 -1.7321 6.44635 0
M  V30 1490 H 150.189 -0.535927 0.511725 0
M  V30 1491 H 152.836 -0.806124 1.73706 0
M  V30 1492 H 151.141 -3.40536 1.93759 0
M  V30 1493 H 152.838 -3.27919 2.30804 0
M  V30 1494 H 149.428 -2.47808 3.49699 0
M  V30 1495 H 153.612 -2.2144 4.4416 0
M  V30 1496 H 148.868 -1.88547 5.81601 0
M  V30 1497 H 153.042 -1.63164 6.77016 0
M  V30 1498 H 150.669 -1.46179 7.46013 0
M  V30 1499 N 152.244 -1.26651 -0.937939 0
M  V30 1500 C 153.49 -1.12553 -1.687 0
M  V30 1501 C 153.823 0.329782 -1.91379 0
M  V30 1502 O 153.098 1.24202 -1.4968 0
M  V30 1503 C 153.381 -1.89862 -3.05981 0
M  V30 1504 C 153.234 -3.43318 -2.90607 0
M  V30 1505 C 154.553 -1.69499 -4.0615 0
M  V30 1506 H 151.672 -0.410257 -0.612257 0
M  V30 1507 H 154.314 -1.55685 -1.08913 0
M  V30 1508 H 152.464 -1.53204 -3.57017 0
M  V30 1509 H 154.136 -3.89747 -2.46769 0
M  V30 1510 H 152.379 -3.70179 -2.26164 0
M  V30 1511 H 153.05 -3.92642 -3.8799 0
M  V30 1512 H 155.526 -2.01442 -3.64088 0
M  V30 1513 H 154.402 -2.26002 -5.00214 0
M  V30 1514 H 154.663 -0.640365 -4.37438 0
M  V30 1515 N 153.722 1.14298 -1.08507 0
M  V30 1516 C 154.652 2.21542 -0.737646 0
M  V30 1517 C 155.633 1.67773 0.280377 0
M  V30 1518 O 156.818 1.93616 0.150521 0
M  V30 1519 C 153.948 3.46988 -0.147259 0
M  V30 1520 C 152.902 4.13789 -1.09374 0
M  V30 1521 C 152.228 5.33449 -0.365524 0
M  V30 1522 C 153.528 4.62208 -2.4323 0
M  V30 1523 H 155.222 2.5086 -1.6343 0
M  V30 1524 H 152.768 1.20576 -0.787243 0
M  V30 1525 H 154.721 4.21262 0.107808 0
M  V30 1526 H 153.445 3.17037 0.784538 0
M  V30 1527 H 152.104 3.4147 -1.33393 0
M  V30 1528 H 151.752 4.99759 0.57011 0
M  V30 1529 H 151.452 5.79088 -0.996512 0
M  V30 1530 H 152.976 6.10485 -0.118534 0
M  V30 1531 H 154.39 5.27952 -2.23472 0
M  V30 1532 H 152.787 5.18553 -3.02031 0
M  V30 1533 H 153.857 3.77224 -3.04681 0
M  V30 1534 N 155.201 0.870884 1.31352 0
M  V30 1535 C 156.151 0.298889 2.26032 0
M  V30 1536 C 157.135 -0.564595 1.50669 0
M  V30 1537 O 158.327 -0.411323 1.72154 0
M  V30 1538 C 155.456 -0.497842 3.39671 0
M  V30 1539 C 154.542 0.378937 4.22404 0
M  V30 1540 N 154.933 1.47284 4.83881 0
M  V30 1541 C 153.231 0.171535 4.4567 0
M  V30 1542 C 153.932 2.01359 5.45738 0
M  V30 1543 N 152.908 1.31047 5.27568 0
M  V30 1544 H 156.71 1.13494 2.71102 0
M  V30 1545 H 154.224 0.718745 1.45629 0
M  V30 1546 H 156.221 -0.924155 4.06528 0
M  V30 1547 H 154.881 -1.33149 2.96144 0
M  V30 1548 H 155.892 1.85575 4.8351 0
M  V30 1549 H 152.569 -0.626091 4.12779 0
M  V30 1550 H 153.959 2.93143 6.0458 0
M  V30 1551 N 156.679 -1.44442 0.630414 0
M  V30 1552 C 157.925 -2.02351 0.134816 0
M  V30 1553 C 158.258 -1.4947 -1.23986 0
M  V30 1554 O 157.533 -0.678475 -1.82283 0
M  V30 1555 C 157.816 -3.59898 0.120707 0
M  V30 1556 C 157.669 -4.23063 1.52767 0
M  V30 1557 C 158.988 -4.36585 -0.555127 0
M  V30 1558 H 156.107 -0.73527 0.0504646 0
M  V30 1559 H 158.749 -1.72022 0.806751 0
M  V30 1560 H 156.899 -3.85868 -0.451477 0
M  V30 1561 H 158.571 -4.08202 2.14869 0
M  V30 1562 H 156.814 -3.80586 2.08175 0
M  V30 1563 H 157.485 -5.32071 1.46984 0
M  V30 1564 H 159.961 -4.16044 -0.0685429 0
M  V30 1565 H 158.837 -5.46294 -0.534185 0
M  V30 1566 H 159.098 -4.11138 -1.62535 0
M  V30 1567 N 158.157 -0.370918 -1.53173 0
M  V30 1568 C 159.12 0.460778 -2.24521 0
M  V30 1569 C 160.12 1.00536 -1.25496 0
M  V30 1570 O 161.31 0.890266 -1.49733 0
M  V30 1571 C 158.442 1.64457 -2.98608 0
M  V30 1572 H 159.635 -0.163613 -2.99453 0
M  V30 1573 H 157.188 -0.122699 -1.55818 0
M  V30 1574 H 157.923 2.30691 -2.2793 0
M  V30 1575 H 157.708 1.26099 -3.7127 0
M  V30 1576 H 159.198 2.23384 -3.5283 0
M  V30 1577 N 159.635 1.57281 -0.100228 0
M  V30 1578 C 160.598 2.13158 0.842398 0
M  V30 1579 C 161.598 1.06202 1.20738 0
M  V30 1580 O 162.788 1.32066 1.13597 0
M  V30 1581 C 159.92 2.65639 2.13655 0
M  V30 1582 H 161.113 2.97766 0.357114 0
M  V30 1583 H 158.666 1.5559 0.148823 0
M  V30 1584 H 159.401 1.84566 2.66657 0
M  V30 1585 H 159.186 3.43844 1.88451 0
M  V30 1586 H 160.676 3.08846 2.81077 0
M  V30 1587 N 161.113 -0.173488 1.56642 0
M  V30 1588 C 162.529 -0.525174 1.50712 0
M  V30 1589 C 162.729 -1.8476 0.804107 0
M  V30 1590 O 161.785 -2.49869 0.363574 0
M  V30 1591 C 163.098 -0.559937 2.95441 0
M  V30 1592 C 164.646 -0.647288 3.06234 0
M  V30 1593 C 165.121 -0.712963 4.52417 0
M  V30 1594 N 166.612 -0.775911 4.56655 0
M  V30 1595 C 167.347 -0.847264 5.67106 0
M  V30 1596 N 166.843 -0.879585 6.87194 0
M  V30 1597 N 168.636 -0.886117 5.55071 0
M  V30 1598 H 160.787 0.693681 2.00753 0
M  V30 1599 H 163.05 0.249841 0.914485 0
M  V30 1600 H 162.756 0.343049 3.50023 0
M  V30 1601 H 162.63 -1.40718 3.49969 0
M  V30 1602 H 165.017 -1.5407 2.51687 0
M  V30 1603 H 165.098 0.226586 2.54794 0
M  V30 1604 H 164.742 0.176183 5.07594 0
M  V30 1605 H 164.672 -1.60295 5.0161 0
M  V30 1606 H 167.163 -0.759304 3.70193 0
M  V30 1607 H 167.476 -0.935144 7.67121 0
M  V30 1608 H 165.821 -0.847898 6.89808 0
M  V30 1609 H 169.012 -0.857853 4.60172 0
M  V30 1610 H 169.185 -0.938263 6.41171 0
M  V30 1611 N 162.591 -1.51276 -0.441967 0
M  V30 1612 C 163.819 -1.67516 -1.21434 0
M  V30 1613 C 164.234 -0.37055 -1.85128 0
M  V30 1614 O 163.591 0.650498 -1.70513 0
M  V30 1615 C 163.642 -2.78748 -2.30177 0
M  V30 1616 O 163.363 -4.04154 -1.69089 0
M  V30 1617 C 164.864 -3.06217 -3.20541 0
M  V30 1618 H 162.084 -0.562276 -0.366178 0
M  V30 1619 H 164.628 -1.97666 -0.524244 0
M  V30 1620 H 162.783 -2.5121 -2.94911 0
M  V30 1621 H 163.197 -4.65894 -2.40922 0
M  V30 1622 H 164.671 -3.8764 -3.92987 0
M  V30 1623 H 165.148 -2.18439 -3.81026 0
M  V30 1624 H 165.754 -3.35397 -2.61513 0
M  V30 1625 N 164.069 0.697108 -1.41344 0
M  V30 1626 C 165.315 1.4593 -1.40827 0
M  V30 1627 C 165.648 1.94193 -0.0167098 0
M  V30 1628 O 164.923 1.69425 0.955263 0
M  V30 1629 C 165.206 2.67229 -2.41373 0
M  V30 1630 C 165.059 2.24741 -3.8963 0
M  V30 1631 C 166.378 3.69423 -2.39196 0
M  V30 1632 H 163.497 0.529303 -0.512842 0
M  V30 1633 H 166.139 0.794112 -1.72609 0
M  V30 1634 H 164.289 3.23982 -2.14401 0
M  V30 1635 H 165.961 1.73327 -4.27499 0
M  V30 1636 H 164.204 1.56542 -4.0457 0
M  V30 1637 H 164.875 3.1177 -4.55525 0
M  V30 1638 H 167.351 3.2234 -2.63128 0
M  V30 1639 H 166.227 4.51907 -3.11563 0
M  V30 1640 H 166.488 4.19012 -1.41001 0
M  V30 1641 N 165.547 1.27147 0.931209 0
M  V30 1642 C 166.51 1.09615 2.01289 0
M  V30 1643 C 167.51 0.0412581 1.60747 0
M  V30 1644 O 168.7 0.285545 1.71844 0
M  V30 1645 C 165.832 0.669447 3.34262 0
M  V30 1646 H 167.025 2.05662 2.18273 0
M  V30 1647 H 164.578 1.09885 1.11153 0
M  V30 1648 H 165.313 -0.292572 3.22978 0
M  V30 1649 H 165.098 1.43127 3.65044 0
M  V30 1650 H 166.588 0.568921 4.13706 0
M  V30 1651 N 167.025 -1.13721 1.09112 0
M  V30 1652 C 168.253 -1.88773 0.846899 0
M  V30 1653 C 168.668 -1.7896 -0.601572 0
M  V30 1654 O 168.025 -1.15394 -1.41388 0
M  V30 1655 C 168.076 -3.3849 1.26913 0
M  V30 1656 O 167.797 -3.48043 2.66079 0
M  V30 1657 C 169.298 -4.30518 1.05682 0
M  V30 1658 H 166.518 -0.59772 0.304914 0
M  V30 1659 H 169.062 -1.43977 1.45227 0
M  V30 1660 H 167.217 -3.80881 0.707723 0
M  V30 1661 H 167.631 -4.4109 2.83795 0
M  V30 1662 H 169.105 -5.3391 1.40156 0
M  V30 1663 H 169.582 -4.392 -0.00563416 0
M  V30 1664 H 170.188 -3.93893 1.60402 0
M  V30 1665 N 168.503 -0.877838 -1.30888 0
M  V30 1666 C 169.453 -0.310872 -2.25871 0
M  V30 1667 C 170.437 0.556596 -1.50966 0
M  V30 1668 O 171.629 0.402187 -1.7237 0
M  V30 1669 C 168.758 0.479821 -3.3993 0
M  V30 1670 C 167.844 -0.401333 -4.22197 0
M  V30 1671 N 168.235 -1.49848 -4.83093 0
M  V30 1672 C 166.533 -0.195167 -4.45573 0
M  V30 1673 C 167.234 -2.0425 -5.44662 0
M  V30 1674 N 166.21 -1.33843 -5.26865 0
M  V30 1675 H 170.012 -1.1493 -2.70496 0
M  V30 1676 H 167.526 -0.726458 -1.45246 0
M  V30 1677 H 169.523 0.902582 -4.07012 0
M  V30 1678 H 168.183 1.31577 -2.96846 0
M  V30 1679 H 169.194 -1.88137 -4.82519 0
M  V30 1680 H 165.871 0.604192 -4.13105 0
M  V30 1681 H 167.261 -2.96345 -6.03017 0
M  V30 1682 N 169.982 1.44106 -0.638065 0
M  V30 1683 C 170.945 2.29138 0.0531013 0
M  V30 1684 C 171.945 1.41409 0.765506 0
M  V30 1685 O 173.135 1.63206 0.609046 0
M  V30 1686 C 170.267 3.23144 1.08584 0
M  V30 1687 H 171.46 2.91739 -0.694883 0
M  V30 1688 H 169.013 1.51134 -0.398538 0
M  V30 1689 H 169.748 2.65408 1.86357 0
M  V30 1690 H 169.533 3.87804 0.578852 0
M  V30 1691 H 171.023 3.87004 1.56899 0
M  V30 1692 N 171.46 0.379036 1.52974 0
M  V30 1693 C 172.39 -0.452706 2.29069 0
M  V30 1694 C 173.371 -1.07237 1.32039 0
M  V30 1695 O 174.556 -1.08708 1.60923 0
M  V30 1696 C 171.686 -1.5856 3.08992 0
M  V30 1697 C 170.64 -1.0925 4.13822 0
M  V30 1698 C 169.966 -2.31668 4.81907 0
M  V30 1699 C 171.266 -0.167702 5.22031 0
M  V30 1700 H 172.96 0.182181 2.98845 0
M  V30 1701 H 170.506 0.0890592 1.43724 0
M  V30 1702 H 172.459 -2.1742 3.6098 0
M  V30 1703 H 171.183 -2.24792 2.36931 0
M  V30 1704 H 169.842 -0.526494 3.628 0
M  V30 1705 H 169.49 -2.96386 4.06404 0
M  V30 1706 H 169.19 -1.9934 5.52754 0
M  V30 1707 H 170.714 -2.91189 5.36695 0
M  V30 1708 H 172.128 -0.664186 5.6944 0
M  V30 1709 H 170.525 0.0653265 6.00064 0
M  V30 1710 H 171.595 0.786347 4.78482 0
M  V30 1711 N 172.938 -1.57226 0.108567 0
M  V30 1712 C 174.163 -1.99604 -0.563303 0
M  V30 1713 C 174.588 -0.987563 -1.6009 0
M  V30 1714 O 173.946 0.0421687 -1.81251 0
M  V30 1715 C 173.994 -3.40902 -1.17552 0
M  V30 1716 O 173.098 -3.42896 -2.2912 0
M  V30 1717 H 172.439 -0.648704 -0.1417 0
M  V30 1718 H 174.969 -2.03679 0.193961 0
M  V30 1719 H 174.979 -3.78886 -1.51357 0
M  V30 1720 H 173.654 -4.1382 -0.415445 0
M  V30 1721 H 172.231 -3.1672 -1.96832 0
M  V30 1722 N 174.416 0.165178 -1.56732 0
M  V30 1723 C 175.665 0.879143 -1.81532 0
M  V30 1724 C 175.978 1.83144 -0.686842 0
M  V30 1725 O 177.184 2.58823 -0.819944 0
M  V30 1726 C 175.64 1.61388 -3.21686 0
M  V30 1727 C 175.248 0.704904 -4.4242 0
M  V30 1728 C 176.992 2.3157 -3.55774 0
M  V30 1729 C 174.899 1.44022 -5.73595 0
M  V30 1730 H 173.829 0.332033 -0.676957 0
M  V30 1731 H 176.48 0.132008 -1.83025 0
M  V30 1732 H 174.862 2.40599 -3.14529 0
M  V30 1733 H 176.036 -0.0506815 -4.60772 0
M  V30 1734 H 174.351 0.112419 -4.16248 0
M  V30 1735 H 176.948 2.8719 -4.51028 0
M  V30 1736 H 177.291 3.07201 -2.8095 0
M  V30 1737 H 177.824 1.59297 -3.64513 0
M  V30 1738 H 174.563 0.72612 -6.51466 0
M  V30 1739 H 174.083 2.16898 -5.5921 0
M  V30 1740 H 175.762 1.98606 -6.15764 0
M  V30 1741 N 175.894 1.51508 0.433938 0
M  V30 1742 C 177.141 1.64345 1.18309 0
M  V30 1743 C 177.469 0.361315 1.91115 0
M  V30 1744 O 176.724 -0.654753 1.84422 0
M  V30 1745 C 177.023 2.79928 2.22205 0
M  V30 1746 C 176.689 4.19078 1.66387 0
M  V30 1747 C 175.351 4.56932 1.50887 0
M  V30 1748 C 177.703 5.05894 1.25381 0
M  V30 1749 C 175.031 5.79305 0.928608 0
M  V30 1750 C 177.383 6.2885 0.687823 0
M  V30 1751 C 176.047 6.65473 0.519755 0
M  V30 1752 H 175.317 0.601381 0.432923 0
M  V30 1753 H 177.964 1.85549 0.473676 0
M  V30 1754 H 176.269 2.52959 2.99197 0
M  V30 1755 H 177.966 2.87059 2.79997 0
M  V30 1756 H 174.556 3.89234 1.79428 0
M  V30 1757 H 178.74 4.77253 1.36175 0
M  V30 1758 H 173.996 6.06324 0.786186 0
M  V30 1759 H 178.17 6.95461 0.361581 0
M  V30 1760 H 175.797 7.6017 0.0679979 0
M  V30 1761 N 177.372 -0.689602 1.41712 0
M  V30 1762 C 178.62 -1.4468 1.4111 0
M  V30 1763 C 178.941 -1.94986 0.0232196 0
M  V30 1764 O 178.211 -1.72097 -0.935913 0
M  V30 1765 H 176.791 -0.536847 0.519427 0
M  V30 1766 H 179.453 -0.815825 1.77004 0
M  V30 1767 H 178.549 -2.30706 2.10193 0
M  V30 1768 N 178.85 -1.27639 -0.924453 0
M  V30 1769 C 180.127 -1.04887 -1.651 0
M  V30 1770 C 180.507 0.415327 -2.06974 0
M  V30 1771 O 179.855 1.39923 -1.80648 0
M  V30 1772 C 180.065 -2.01348 -2.85061 0
M  V30 1773 C 181.413 -2.30899 -3.56329 0
M  V30 1774 O 182.437 -1.99348 -2.95193 0
M  V30 1775 O 181.296 -2.84699 -4.66485 0
M  V30 1776 H 178.39 -0.400083 -0.723784 0
M  V30 1777 H 180.936 -1.38916 -0.974703 0
M  V30 1778 H 179.708 -3.0008 -2.51133 0
M  V30 1779 H 179.331 -1.679 -3.6041 0
M  V30 1780 N 180.328 1.1314 -1.09713 0
M  V30 1781 C 181.278 2.16709 -0.708593 0
M  V30 1782 C 182.262 1.58471 0.278523 0
M  V30 1783 O 183.454 1.76779 0.088427 0
M  V30 1784 C 180.583 3.43039 -0.133923 0
M  V30 1785 C 179.669 4.08277 -1.14763 0
M  V30 1786 N 180.06 4.48637 -2.33577 0
M  V30 1787 C 178.358 4.34954 -0.986446 0
M  V30 1788 C 179.059 4.9952 -2.98085 0
M  V30 1789 N 178.035 4.94561 -2.25632 0
M  V30 1790 H 181.837 2.45672 -1.61315 0
M  V30 1791 H 179.351 1.29967 -0.973775 0
M  V30 1792 H 181.348 4.16583 0.162465 0
M  V30 1793 H 180.008 3.15549 0.765447 0
M  V30 1794 H 181.019 4.41246 -2.7115 0
M  V30 1795 H 177.696 4.17258 -0.142008 0
M  V30 1796 H 179.086 5.40521 -3.99108 0
M  V30 1797 N 181.806 0.884767 1.30421 0
M  V30 1798 C 183.031 0.517288 2.00845 0
M  V30 1799 C 183.456 -0.886779 1.65885 0
M  V30 1800 O 182.814 -1.58768 0.875354 0
M  V30 1801 C 182.862 0.698994 3.5376 0
M  V30 1802 O 181.966 -0.255208 4.1161 0
M  V30 1803 H 181.307 0.203872 0.631927 0
M  V30 1804 H 183.837 1.19225 1.66272 0
M  V30 1805 H 183.847 0.597912 4.03595 0
M  V30 1806 H 182.522 1.72271 3.78544 0
M  V30 1807 H 181.099 -0.10784 3.72744 0
M  V30 1808 N 183.284 -1.43765 0.645699 0
M  V30 1809 C 184.561 -1.9541 0.0862963 0
M  V30 1810 C 184.941 -1.58725 -1.39175 0
M  V30 1811 O 184.289 -0.868581 -2.11348 0
M  V30 1812 C 184.499 -3.47488 0.324565 0
M  V30 1813 C 185.847 -4.24001 0.225497 0
M  V30 1814 O 186.871 -3.55274 0.256715 0
M  V30 1815 O 185.73 -5.46313 0.142801 0
M  V30 1816 H 182.824 -0.826882 -0.0139483 0
M  V30 1817 H 185.37 -1.53743 0.718415 0
M  V30 1818 H 184.142 -3.67289 1.3496 0
M  V30 1819 H 183.765 -3.96135 -0.340987 0
M  V30 1820 N 184.763 -0.387143 -1.52771 0
M  V30 1821 C 186.009 0.196025 -2.0185 0
M  V30 1822 C 186.342 1.46641 -1.27319 0
M  V30 1823 O 185.617 1.90889 -0.373032 0
M  V30 1824 C 185.9 0.466136 -3.5707 0
M  V30 1825 C 185.753 -0.819385 -4.42274 0
M  V30 1826 C 187.072 1.25768 -4.21747 0
M  V30 1827 H 184.191 0.0697708 -0.73369 0
M  V30 1828 H 186.833 -0.516286 -1.82851 0
M  V30 1829 H 184.983 1.07293 -3.7339 0
M  V30 1830 H 186.655 -1.4563 -4.37709 0
M  V30 1831 H 184.898 -1.43517 -4.09372 0
M  V30 1832 H 185.569 -0.585065 -5.48891 0
M  V30 1833 H 188.045 0.744167 -4.09391 0
M  V30 1834 H 186.921 1.41541 -5.30337 0
M  V30 1835 H 187.182 2.27228 -3.79236 0
M  V30 1836 N 186.241 1.57166 -0.116904 0
M  V30 1837 C 187.174 2.10912 0.871291 0
M  V30 1838 C 188.152 1.025 1.26224 0
M  V30 1839 O 189.336 1.3014 1.36366 0
M  V30 1840 C 186.463 2.6041 2.16574 0
M  V30 1841 C 185.509 3.80687 1.92302 0
M  V30 1842 S 186.342 5.23199 1.14119 0
M  V30 1843 C 187.498 5.76064 2.44748 0
M  V30 1844 H 187.731 2.94401 0.414138 0
M  V30 1845 H 185.264 1.54096 0.096829 0
M  V30 1846 H 187.222 2.89583 2.9095 0
M  V30 1847 H 185.883 1.77106 2.59408 0
M  V30 1848 H 185.076 4.13462 2.8821 0
M  V30 1849 H 184.678 3.5212 1.26047 0
M  V30 1850 H 186.97 5.8566 3.406 0
M  V30 1851 H 187.913 6.74184 2.16521 0
M  V30 1852 H 188.321 5.04117 2.54019 0
M  V30 1853 N 187.719 -0.156864 1.56817 0
M  V30 1854 C 188.682 -1.17781 1.96622 0
M  V30 1855 C 189.682 -1.36401 0.851555 0
M  V30 1856 O 190.872 -1.33561 1.11836 0
M  V30 1857 C 188.004 -2.54008 2.27361 0
M  V30 1858 H 189.197 -0.836564 2.87996 0
M  V30 1859 H 186.75 -0.39985 1.51099 0
M  V30 1860 H 187.485 -2.9312 1.38748 0
M  V30 1861 H 187.27 -2.41856 3.08623 0
M  V30 1862 H 188.76 -3.27558 2.59029 0
M  V30 1863 N 189.197 -1.51736 -0.425897 0
M  V30 1864 C 190.443 -1.65214 -1.1761 0
M  V30 1865 C 190.776 -0.372778 -1.90589 0
M  V30 1866 O 190.051 0.628139 -1.84078 0
M  V30 1867 C 190.334 -2.86312 -2.18398 0
M  V30 1868 C 190.187 -4.24254 -1.49426 0
M  V30 1869 C 191.506 -3.02925 -3.19256 0
M  V30 1870 H 188.625 -0.601263 -0.426206 0
M  V30 1871 H 191.267 -1.8425 -0.463882 0
M  V30 1872 H 189.417 -2.70213 -2.79137 0
M  V30 1873 H 191.089 -4.52046 -0.919362 0
M  V30 1874 H 189.332 -4.26426 -0.796432 0
M  V30 1875 H 190.003 -5.05001 -2.22885 0
M  V30 1876 H 192.479 -3.1781 -2.68581 0
M  V30 1877 H 191.355 -3.89199 -3.8706 0
M  V30 1878 H 191.616 -2.15497 -3.86023 0
M  V30 1879 N 190.675 0.682077 -1.42076 0
M  V30 1880 C 192.091 0.994324 -1.24841 0
M  V30 1881 C 192.291 2.0096 -0.147389 0
M  V30 1882 O 191.347 2.47822 0.483782 0
M  V30 1883 C 192.66 1.50607 -2.60265 0
M  V30 1884 C 194.208 1.62421 -2.6756 0
M  V30 1885 C 194.683 2.16994 -4.03333 0
M  V30 1886 N 196.174 2.24337 -4.0525 0
M  V30 1887 C 196.909 2.67621 -5.07116 0
M  V30 1888 N 196.405 3.1041 -6.19368 0
M  V30 1889 N 198.198 2.67305 -4.94474 0
M  V30 1890 H 190.349 0.00973908 -2.12398 0
M  V30 1891 H 192.612 0.0668593 -0.945639 0
M  V30 1892 H 192.318 0.834583 -3.41654 0
M  V30 1893 H 192.192 2.48602 -2.83684 0
M  V30 1894 H 194.579 2.28678 -1.86521 0
M  V30 1895 H 194.66 0.629352 -2.47937 0
M  V30 1896 H 194.304 1.51349 -4.84826 0
M  V30 1897 H 194.234 3.17258 -4.20304 0
M  V30 1898 H 196.725 1.94158 -3.24209 0
M  V30 1899 H 197.038 3.42103 -6.92954 0
M  V30 1900 H 195.383 3.08286 -6.22884 0
M  V30 1901 H 198.574 2.33233 -4.05857 0
M  V30 1902 H 198.747 3.00718 -5.73997 0
M  V30 1903 N 192.153 1.28127 0.917671 0
M  V30 1904 C 193.085 1.07517 2.02417 0
M  V30 1905 C 194.098 0.0281099 1.62776 0
M  V30 1906 O 195.287 0.270748 1.76435 0
M  V30 1907 C 192.387 0.610957 3.33347 0
M  V30 1908 C 191.56 1.73255 4.01624 0
M  V30 1909 C 190.619 1.26238 5.10833 0
M  V30 1910 O 189.645 1.96389 5.34247 0
M  V30 1911 N 190.847 0.123448 5.80369 0
M  V30 1912 H 193.612 2.02806 2.20658 0
M  V30 1913 H 191.173 1.19827 1.08871 0
M  V30 1914 H 193.165 0.280101 4.0373 0
M  V30 1915 H 191.735 -0.24898 3.11607 0
M  V30 1916 H 190.955 2.23319 3.24842 0
M  V30 1917 H 192.243 2.48503 4.43986 0
M  V30 1918 H 191.641 -0.461847 5.63812 0
M  V30 1919 H 190.198 -0.148158 6.51632 0
M  V30 1920 N 193.631 -1.12557 1.10312 0
M  V30 1921 C 194.859 -1.87864 0.866873 0
M  V30 1922 C 195.274 -1.79588 -0.582557 0
M  V30 1923 O 194.631 -1.16887 -1.40156 0
M  V30 1924 C 194.682 -3.37125 1.30496 0
M  V30 1925 O 194.403 -3.45201 2.69755 0
M  V30 1926 C 195.904 -4.29373 1.10243 0
M  V30 1927 H 193.124 -0.594452 0.311236 0
M  V30 1928 H 195.668 -1.42429 1.46745 0
M  V30 1929 H 193.823 -3.80109 0.748081 0
M  V30 1930 H 194.237 -4.38056 2.88457 0
M  V30 1931 H 195.711 -5.32394 1.45811 0
M  V30 1932 H 196.188 -4.39181 0.0409492 0
M  V30 1933 H 196.794 -3.92169 1.64571 0
M  V30 1934 N 195.109 -0.891671 -1.2995 0
M  V30 1935 C 196.357 -0.512486 -1.95494 0
M  V30 1936 C 196.678 0.942776 -1.70695 0
M  V30 1937 O 195.948 1.66374 -1.03424 0
M  V30 1938 H 194.528 -0.186533 -0.723336 0
M  V30 1939 H 197.19 -1.13621 -1.58355 0
M  V30 1940 H 196.286 -0.688342 -3.04415 0
M  V30 1941 N 196.587 1.43421 -0.653314 0
M  V30 1942 C 197.827 2.03689 -0.170346 0
M  V30 1943 C 198.191 1.50427 1.19314 0
M  V30 1944 O 199.392 2.0234 1.76952 0
M  V30 1945 C 197.663 3.56946 -0.180183 0
M  V30 1946 S 199.222 4.38171 0.234925 0
M  V30 1947 H 196.04 0.707345 -0.0719976 0
M  V30 1948 H 198.642 1.75486 -0.86167 0
M  V30 1949 H 197.346 3.93212 -1.17526 0
M  V30 1950 H 196.877 3.89791 0.531675 0
M  V30 1951 H 198.892 4.73808 1.47378 0
M  V30 1952 N 198.065 0.39524 1.52563 0
M  V30 1953 C 199.028 -0.425001 2.25225 0
M  V30 1954 C 200.028 -0.985266 1.27079 0
M  V30 1955 O 201.218 -0.866332 1.5113 0
M  V30 1956 C 198.35 -1.59686 3.01186 0
M  V30 1957 H 199.543 0.211233 2.99155 0
M  V30 1958 H 197.096 0.147472 1.55603 0
M  V30 1959 H 197.831 -2.27035 2.31572 0
M  V30 1960 H 197.616 -1.20176 3.73229 0
M  V30 1961 H 199.106 -2.17743 3.5634 0
M  V30 1962 N 199.544 -1.57102 0.125237 0
M  V30 1963 C 200.477 -2.11371 -0.860094 0
M  V30 1964 C 201.455 -1.03168 -1.25679 0
M  V30 1965 O 202.639 -1.30862 -1.35674 0
M  V30 1966 C 199.766 -2.61555 -2.1519 0
M  V30 1967 C 198.812 -3.81701 -1.9028 0
M  V30 1968 S 199.645 -5.23797 -1.11343 0
M  V30 1969 C 200.801 -5.77353 -2.41689 0
M  V30 1970 H 201.034 -2.94617 -0.39852 0
M  V30 1971 H 198.567 -1.54145 -0.0886555 0
M  V30 1972 H 200.525 -2.91122 -2.89411 0
M  V30 1973 H 199.186 -1.78479 -2.58465 0
M  V30 1974 H 198.379 -4.14985 -2.86014 0
M  V30 1975 H 197.981 -3.52783 -1.24178 0
M  V30 1976 H 200.273 -5.87458 -3.37489 0
M  V30 1977 H 201.216 -6.75323 -2.12942 0
M  V30 1978 H 201.624 -5.05457 -2.51342 0
M  V30 1979 N 201.022 0.148545 -1.56898 0
M  V30 1980 C 201.952 1.18524 -2.01182 0
M  V30 1981 C 202.933 1.4489 -0.891123 0
M  V30 1982 O 204.118 1.55836 -1.15882 0
M  V30 1983 C 201.248 2.51879 -2.39112 0
M  V30 1984 C 200.202 2.40038 -3.54353 0
M  V30 1985 C 199.528 3.78089 -3.78091 0
M  V30 1986 C 200.828 1.88577 -4.87069 0
M  V30 1987 H 202.522 0.817029 -2.88036 0
M  V30 1988 H 200.068 0.391575 -1.38574 0
M  V30 1989 H 202.021 3.24627 -2.68692 0
M  V30 1990 H 200.745 2.90532 -1.49193 0
M  V30 1991 H 199.404 1.69742 -3.24936 0
M  V30 1992 H 199.052 4.14175 -2.85426 0
M  V30 1993 H 198.752 3.71028 -4.55645 0
M  V30 1994 H 200.276 4.52387 -4.10095 0
M  V30 1995 H 201.69 2.51117 -5.15377 0
M  V30 1996 H 200.087 1.9241 -5.68417 0
M  V30 1997 H 201.157 0.84136 -4.77545 0
M  V30 1998 N 202.5 1.5196 0.417844 0
M  V30 1999 C 203.74 1.67262 1.17486 0
M  V30 2000 C 204.104 0.38983 1.88001 0
M  V30 2001 O 205.305 0.418845 2.65517 0
M  V30 2002 C 203.576 2.85526 2.14965 0
M  V30 2003 S 205.135 3.21263 2.98891 0
M  V30 2004 H 201.953 0.589077 0.398132 0
M  V30 2005 H 204.555 1.89927 0.463452 0
M  V30 2006 H 203.259 3.77145 1.61833 0
M  V30 2007 H 202.79 2.65107 2.90657 0
M  V30 2008 H 204.805 2.69208 4.16823 0
M  V30 2009 N 203.978 -0.674533 1.42435 0
M  V30 2010 C 204.941 -1.76986 1.45632 0
M  V30 2011 C 205.941 -1.5708 0.343871 0
M  V30 2012 O 207.131 -1.63367 0.604709 0
M  V30 2013 C 204.263 -3.15623 1.28822 0
M  V30 2014 H 205.456 -1.75539 2.43158 0
M  V30 2015 H 203.009 -0.884189 1.28887 0
M  V30 2016 H 203.744 -3.22696 0.322193 0
M  V30 2017 H 203.529 -3.31475 2.09444 0
M  V30 2018 H 205.019 -3.95537 1.33942 0
M  V30 2019 N 205.456 -1.28612 -0.910864 0
M  V30 2020 C 206.419 -1.12803 -1.9952 0
M  V30 2021 C 207.419 -0.0668264 -1.60661 0
M  V30 2022 O 208.609 -0.312847 -1.71368 0
M  V30 2023 C 205.741 -0.72254 -3.33155 0
M  V30 2024 H 206.934 -2.09109 -2.14973 0
M  V30 2025 H 204.487 -1.11639 -1.09391 0
M  V30 2026 H 205.222 0.241152 -3.23402 0
M  V30 2027 H 205.007 -1.48916 -3.62721 0
M  V30 2028 H 206.497 -0.634666 -4.12749 0
M  V30 2029 N 206.934 1.1197 -1.10907 0
M  V30 2030 C 207.882 2.19927 -0.757303 0
M  V30 2031 C 208.876 1.67564 0.248747 0
M  V30 2032 O 210.082 1.79672 0.108605 0
M  V30 2033 H 206.457 0.716925 -0.226987 0
M  V30 2034 H 208.428 2.46847 -1.67658 0
M  V30 2035 C 207.177 3.47061 -0.210671 0
M  V30 2036 H 206.5 3.87703 -0.976049 0
M  V30 2037 H 207.94 4.24 -0.0026584 0
M  V30 2038 C 206.399 3.19864 1.05777 0
M  V30 2039 O 206.929 3.40049 2.13845 0
M  V30 2040 N 205.135 2.73636 0.978349 0
M  V30 2041 H 204.682 2.5741 0.0988246 0
M  V30 2042 H 204.64 2.55815 1.82773 0
M  V30 2043 N 208.412 0.89855 1.29475 0
M  V30 2044 C 209.658 0.524658 1.95896 0
M  V30 2045 C 209.991 -0.926468 1.70676 0
M  V30 2046 O 209.266 -1.65665 1.01908 0
M  V30 2047 C 209.549 0.81633 3.50725 0
M  V30 2048 C 209.402 2.31907 3.85408 0
M  V30 2049 C 210.721 0.302038 4.39062 0
M  V30 2050 H 207.84 0.19209 0.711527 0
M  V30 2051 H 210.482 1.12502 1.53112 0
M  V30 2052 H 208.632 0.305369 3.87298 0
M  V30 2053 H 210.304 2.89949 3.58786 0
M  V30 2054 H 208.547 2.78027 3.32992 0
M  V30 2055 H 209.218 2.47373 4.93468 0
M  V30 2056 H 211.694 0.739551 4.09475 0
M  V30 2057 H 210.57 0.535331 5.46283 0
M  V30 2058 H 210.831 -0.797216 4.34853 0
M  V30 2059 N 209.89 -1.43072 0.660911 0
M  V30 2060 C 210.822 -2.29108 -0.0647641 0
M  V30 2061 C 211.835 -1.42928 -0.779448 0
M  V30 2062 O 213.024 -1.66788 -0.635921 0
M  V30 2063 C 210.124 -3.20032 -1.11503 0
M  V30 2064 C 209.297 -4.34792 -0.476955 0
M  V30 2065 C 208.356 -5.06534 -1.42513 0
M  V30 2066 O 207.382 -5.61538 -0.930771 0
M  V30 2067 N 208.584 -5.1075 -2.75889 0
M  V30 2068 H 211.349 -2.92029 0.673731 0
M  V30 2069 H 208.91 -1.53846 0.50427 0
M  V30 2070 H 210.902 -3.64892 -1.75032 0
M  V30 2071 H 209.472 -2.58658 -1.75541 0
M  V30 2072 H 208.692 -3.92752 0.337572 0
M  V30 2073 H 209.98 -5.0879 -0.0318525 0
M  V30 2074 H 209.378 -4.67447 -3.18606 0
M  V30 2075 H 207.935 -5.59302 -3.347 0
M  V30 2076 N 211.368 -0.403325 -1.52352 0
M  V30 2077 C 212.278 0.432009 -2.30588 0
M  V30 2078 C 213.294 1.05884 -1.38075 0
M  V30 2079 O 214.47 1.06161 -1.71148 0
M  V30 2080 C 211.535 1.53669 -3.10784 0
M  V30 2081 C 210.596 0.933525 -4.19027 0
M  V30 2082 C 209.829 1.98557 -4.9539 0
M  V30 2083 O 210.052 3.20283 -4.71991 0
M  V30 2084 O 208.986 1.59504 -5.80381 0
M  V30 2085 H 212.812 -0.205739 -3.03002 0
M  V30 2086 H 210.397 -0.166675 -1.48467 0
M  V30 2087 H 212.279 2.17814 -3.60742 0
M  V30 2088 H 210.954 2.15915 -2.41169 0
M  V30 2089 H 209.861 0.254954 -3.7323 0
M  V30 2090 H 211.194 0.35508 -4.90918 0
M  V30 2091 N 212.846 1.57033 -0.133567 0
M  V30 2092 C 213.809 2.14897 0.796995 0
M  V30 2093 C 214.809 1.0874 1.18458 0
M  V30 2094 O 215.999 1.34446 1.1077 0
M  V30 2095 C 213.131 2.70112 2.07973 0
M  V30 2096 H 214.324 2.98457 0.293873 0
M  V30 2097 H 211.877 1.55871 0.115787 0
M  V30 2098 H 212.612 1.9018 2.62682 0
M  V30 2099 H 212.397 3.47764 1.81115 0
M  V30 2100 H 213.887 3.14738 2.74462 0
M  V30 2101 N 214.325 -0.140222 1.56975 0
M  V30 2102 C 215.257 -1.19818 1.95388 0
M  V30 2103 C 216.27 -1.38816 0.850525 0
M  V30 2104 O 217.459 -1.38267 1.12891 0
M  V30 2105 C 214.559 -2.56189 2.21857 0
M  V30 2106 C 213.732 -2.58077 3.5315 0
M  V30 2107 C 212.791 -3.76037 3.6808 0
M  V30 2108 O 211.817 -3.60598 4.40406 0
M  V30 2109 N 213.019 -4.93763 3.05251 0
M  V30 2110 H 215.784 -0.871609 2.86746 0
M  V30 2111 H 213.345 -0.32972 1.58507 0
M  V30 2112 H 215.337 -3.33623 2.2908 0
M  V30 2113 H 213.907 -2.81111 1.36731 0
M  V30 2114 H 213.127 -1.6651 3.57307 0
M  V30 2115 H 214.415 -2.56377 4.39486 0
M  V30 2116 H 213.813 -5.09209 2.46419 0
M  V30 2117 H 212.37 -5.68949 3.18026 0
M  V30 2118 N 215.803 -1.52179 -0.40978 0
M  V30 2119 C 217.08 -1.56769 -1.16974 0
M  V30 2120 C 217.46 -0.348322 -2.08206 0
M  V30 2121 O 216.808 0.664862 -2.18613 0
M  V30 2122 C 217.018 -2.89603 -1.9476 0
M  V30 2123 C 218.366 -3.42579 -2.50849 0
M  V30 2124 O 219.39 -2.91338 -2.04941 0
M  V30 2125 O 218.249 -4.32054 -3.34652 0
M  V30 2126 H 215.343 -0.631439 -0.534054 0
M  V30 2127 H 217.889 -1.64507 -0.416613 0
M  V30 2128 H 216.661 -3.698 -1.27921 0
M  V30 2129 H 216.284 -2.85155 -2.77079 0
M  V30 2130 N 217.281 0.66697 -1.42791 0
M  V30 2131 C 218.528 1.42699 -1.43678 0
M  V30 2132 C 218.856 1.94419 -0.0560425 0
M  V30 2133 O 218.111 1.7182 0.936831 0
M  V30 2134 C 218.41 2.6349 -2.4147 0
M  V30 2135 C 218.076 2.30267 -3.8767 0
M  V30 2136 C 216.738 2.20918 -4.27491 0
M  V30 2137 C 219.09 2.03435 -4.79858 0
M  V30 2138 C 216.418 1.82873 -5.57471 0
M  V30 2139 C 218.77 1.66892 -6.10188 0
M  V30 2140 C 217.434 1.56058 -6.49001 0
M  V30 2141 H 216.704 0.522171 -0.525755 0
M  V30 2142 H 219.351 0.759785 -1.75783 0
M  V30 2143 H 217.656 3.35279 -2.0272 0
M  V30 2144 H 219.353 3.21684 -2.39417 0
M  V30 2145 H 215.943 2.38449 -3.56146 0
M  V30 2146 H 220.127 2.09586 -4.49875 0
M  V30 2147 H 215.383 1.7306 -5.86396 0
M  V30 2148 H 219.557 1.45157 -6.81104 0
M  V30 2149 H 217.184 1.26348 -7.49627 0
M  V30 2150 N 218.759 1.29093 0.90403 0
M  V30 2151 C 219.722 1.1386 1.98919 0
M  V30 2152 C 220.722 0.0753457 1.60623 0
M  V30 2153 O 221.912 0.321931 1.71199 0
M  V30 2154 C 219.044 0.740198 3.32767 0
M  V30 2155 H 220.237 2.10246 2.13861 0
M  V30 2156 H 217.79 1.12218 1.08797 0
M  V30 2157 H 218.525 -0.223997 3.23525 0
M  V30 2158 H 218.31 1.50838 3.61926 0
M  V30 2159 H 219.8 0.656546 4.12407 0
M  V30 2160 N 220.237 -1.11381 1.11499 0
M  V30 2161 C 221.167 -2.19509 0.796125 0
M  V30 2162 C 222.148 -1.68458 -0.235796 0
M  V30 2163 O 223.333 -1.93947 -0.0991344 0
M  V30 2164 C 220.463 -3.46475 0.239205 0
M  V30 2165 C 219.417 -4.10744 1.20307 0
M  V30 2166 C 218.743 -5.32293 0.50683 0
M  V30 2167 C 220.043 -4.55597 2.55399 0
M  V30 2168 H 221.737 -2.46439 1.70024 0
M  V30 2169 H 219.283 -1.18446 0.818935 0
M  V30 2170 H 221.236 -4.214 0.00392006 0
M  V30 2171 H 219.96 -3.19006 -0.700206 0
M  V30 2172 H 218.619 -3.37813 1.42399 0
M  V30 2173 H 218.267 -5.01095 -0.437408 0
M  V30 2174 H 217.967 -5.76243 1.1497 0
M  V30 2175 H 219.491 -6.09956 0.280351 0
M  V30 2176 H 220.905 -5.21841 2.37391 0
M  V30 2177 H 219.302 -5.10363 3.15673 0
M  V30 2178 H 220.372 -3.69013 3.14575 0
M  V30 2179 N 221.715 -0.905404 -1.28997 0
M  V30 2180 C 222.964 -0.530191 -1.94607 0
M  V30 2181 C 223.277 0.929185 -1.72121 0
M  V30 2182 O 224.483 1.41218 -2.31883 0
M  V30 2183 C 222.939 -0.897333 -3.48534 0
M  V30 2184 C 222.547 -2.37587 -3.79811 0
M  V30 2185 C 224.291 -0.592304 -4.20347 0
M  V30 2186 C 222.198 -2.68357 -5.27009 0
M  V30 2187 H 221.128 -0.194558 -0.728466 0
M  V30 2188 H 223.779 -1.10318 -1.46636 0
M  V30 2189 H 222.161 -0.253214 -3.9519 0
M  V30 2190 H 223.335 -3.06602 -3.43994 0
M  V30 2191 H 221.65 -2.6505 -3.2115 0
M  V30 2192 H 224.247 -0.798975 -5.28697 0
M  V30 2193 H 224.59 0.469474 -4.13644 0
M  V30 2194 H 225.123 -1.19452 -3.79442 0
M  V30 2195 H 221.862 -3.73355 -5.38782 0
M  V30 2196 H 221.382 -2.03971 -5.64053 0
M  V30 2197 H 223.061 -2.54922 -5.94663 0
M  V30 2198 N 223.193 1.4272 -0.668489 0
M  V30 2199 C 224.418 2.06484 -0.194758 0
M  V30 2200 C 224.843 1.49862 1.13679 0
M  V30 2201 O 224.201 0.614582 1.70565 0
M  V30 2202 C 224.249 3.60353 -0.133546 0
M  V30 2203 O 223.353 4.02464 0.899806 0
M  V30 2204 H 222.694 0.656137 -0.10188 0
M  V30 2205 H 225.224 1.82964 -0.915722 0
M  V30 2206 H 225.234 4.07976 0.0447041 0
M  V30 2207 H 223.909 4.00938 -1.1055 0
M  V30 2208 H 222.486 3.66402 0.693109 0
M  V30 2209 N 224.671 0.411399 1.52136 0
M  V30 2210 C 225.603 -0.448386 2.24771 0
M  V30 2211 C 226.616 -1.00828 1.27818 0
M  V30 2212 O 227.805 -0.906841 1.53749 0
M  V30 2213 C 224.905 -1.63636 2.96777 0
M  V30 2214 C 224.078 -1.19995 4.20618 0
M  V30 2215 C 223.137 -2.25509 4.75428 0
M  V30 2216 O 222.163 -1.86007 5.3795 0
M  V30 2217 N 223.365 -3.577 4.57199 0
M  V30 2218 H 226.13 0.174025 2.99194 0
M  V30 2219 H 223.691 0.238897 1.60128 0
M  V30 2220 H 225.683 -2.33793 3.30338 0
M  V30 2221 H 224.253 -2.16465 2.25526 0
M  V30 2222 H 223.473 -0.326421 3.92846 0
M  V30 2223 H 224.761 -0.885365 5.01038 0
M  V30 2224 H 224.159 -3.92543 4.07341 0
M  V30 2225 H 222.716 -4.23827 4.95191 0
M  V30 2226 N 226.149 -1.5696 0.141893 0
M  V30 2227 C 227.398 -1.95135 -0.510427 0
M  V30 2228 C 227.711 -1.02896 -1.66348 0
M  V30 2229 O 228.917 -1.30629 -2.38009 0
M  V30 2230 C 227.373 -3.46876 -0.959427 0
M  V30 2231 C 226.981 -4.47691 0.166419 0
M  V30 2232 C 228.725 -3.93927 -1.58183 0
M  V30 2233 C 226.632 -5.90636 -0.300565 0
M  V30 2234 H 225.562 -0.728494 -0.194454 0
M  V30 2235 H 228.213 -1.8211 0.22542 0
M  V30 2236 H 226.595 -3.55215 -1.75038 0
M  V30 2237 H 227.769 -4.51043 0.94325 0
M  V30 2238 H 226.084 -4.10527 0.696905 0
M  V30 2239 H 228.681 -4.98158 -1.94275 0
M  V30 2240 H 229.024 -3.3519 -2.46888 0
M  V30 2241 H 229.557 -3.88484 -0.855863 0
M  V30 2242 H 226.296 -6.5318 0.550989 0
M  V30 2243 H 225.816 -5.90655 -1.04338 0
M  V30 2244 H 227.495 -6.42588 -0.754265 0
M  V30 2245 N 227.627 0.131896 -1.57047 0
M  V30 2246 C 228.59 1.14638 -1.98471 0
M  V30 2247 C 229.59 1.35029 -0.873148 0
M  V30 2248 O 230.78 1.31764 -1.13946 0
M  V30 2249 C 227.912 2.50358 -2.31373 0
M  V30 2250 H 229.105 0.79064 -2.8929 0
M  V30 2251 H 226.658 0.375761 -1.51716 0
M  V30 2252 H 227.393 2.90876 -1.43393 0
M  V30 2253 H 227.178 2.36915 -3.12432 0
M  V30 2254 H 228.668 3.23395 -2.64207 0
M  V30 2255 N 229.106 1.52395 0.401703 0
M  V30 2256 C 230.334 1.70676 1.16949 0
M  V30 2257 C 230.749 0.419503 1.8408 0
M  V30 2258 O 230.106 -0.605061 1.72178 0
M  V30 2259 C 230.157 2.84753 2.22706 0
M  V30 2260 O 229.878 4.08495 1.58314 0
M  V30 2261 C 231.379 3.14608 3.12309 0
M  V30 2262 H 228.599 0.571787 0.351142 0
M  V30 2263 H 231.143 1.98987 0.471652 0
M  V30 2264 H 229.298 2.58941 2.88147 0
M  V30 2265 H 229.712 4.72117 2.28485 0
M  V30 2266 H 231.186 3.97923 3.82572 0
M  V30 2267 H 231.663 2.28464 3.75101 0
M  V30 2268 H 232.269 3.42212 2.52529 0
M  V30 2269 N 230.584 -0.659388 1.43143 0
M  V30 2270 C 231.514 -1.78422 1.50625 0
M  V30 2271 C 232.495 -1.66216 0.361443 0
M  V30 2272 O 233.68 -1.85404 0.577834 0
M  V30 2273 C 230.81 -3.16815 1.42287 0
M  V30 2274 C 229.764 -3.43777 2.54954 0
M  V30 2275 C 229.09 -4.81905 2.31671 0
M  V30 2276 C 230.39 -3.39134 3.97222 0
M  V30 2277 H 232.084 -1.72417 2.44771 0
M  V30 2278 H 229.63 -0.828084 1.17808 0
M  V30 2279 H 231.583 -3.95253 1.46127 0
M  V30 2280 H 230.307 -3.23534 0.446435 0
M  V30 2281 H 228.966 -2.67707 2.50457 0
M  V30 2282 H 228.614 -4.85294 1.32284 0
M  V30 2283 H 228.314 -5.00906 3.07192 0
M  V30 2284 H 229.838 -5.62609 2.37284 0
M  V30 2285 H 231.252 -4.07518 4.03239 0
M  V30 2286 H 229.649 -3.69671 4.72719 0
M  V30 2287 H 230.719 -2.37426 4.22797 0
M  V30 2288 N 232.062 -1.29571 -0.897171 0
M  V30 2289 C 233.009 -1.14916 -2.00158 0
M  V30 2290 C 233.979 -0.0418149 -1.66047 0
M  V30 2291 O 235.164 -0.209793 -1.89643 0
M  V30 2292 C 232.304 -0.834307 -3.34863 0
M  V30 2293 C 231.417 -2.02234 -3.8174 0
M  V30 2294 C 230.552 -1.64664 -5.05034 0
M  V30 2295 C 229.591 -2.80033 -5.44286 0
M  V30 2296 N 228.728 -2.42843 -6.58765 0
M  V30 2297 H 233.568 -2.09403 -2.12025 0
M  V30 2298 H 231.105 -1.042 -1.0383 0
M  V30 2299 H 233.063 -0.632436 -4.12379 0
M  V30 2300 H 231.693 0.0736656 -3.22716 0
M  V30 2301 H 230.745 -2.33583 -3.00238 0
M  V30 2302 H 232.057 -2.88673 -4.06779 0
M  V30 2303 H 231.211 -1.4078 -5.9014 0
M  V30 2304 H 229.95 -0.753766 -4.8184 0
M  V30 2305 H 228.955 -3.04596 -4.57713 0
M  V30 2306 H 230.18 -3.69989 -5.6946 0
M  V30 2307 H 228.126 -1.56046 -6.3717 0
M  V30 2308 H 228.043 -3.22815 -6.83613 0
M  V30 2309 H 229.311 -2.22285 -7.47134 0
M  V30 2310 N 233.54 1.10788 -1.12088 0
M  V30 2311 C 234.765 1.87002 -0.896949 0
M  V30 2312 C 235.19 1.79933 0.548261 0
M  V30 2313 O 234.548 1.16662 1.38779 0
M  V30 2314 C 234.596 3.3349 -1.37174 0
M  V30 2315 O 233.7 4.08745 -0.547831 0
M  V30 2316 H 233.041 0.580397 -0.322545 0
M  V30 2317 H 235.571 1.39996 -1.49206 0
M  V30 2318 H 235.581 3.84339 -1.36922 0
M  V30 2319 H 234.256 3.37951 -2.42408 0
M  V30 2320 H 232.833 3.6776 -0.617034 0
M  V30 2321 N 235.018 0.912232 1.28515 0
M  V30 2322 C 236.434 0.610159 1.47476 0
M  V30 2323 C 236.634 -0.844955 1.82928 0
M  V30 2324 O 235.69 -1.62416 1.93332 0
M  V30 2325 C 237.003 1.54675 2.57868 0
M  V30 2326 C 238.551 1.55331 2.71738 0
M  V30 2327 C 239.026 2.47649 3.85272 0
M  V30 2328 N 240.517 2.45767 3.92623 0
M  V30 2329 C 241.252 3.13896 4.79851 0
M  V30 2330 N 240.748 3.9135 5.71679 0
M  V30 2331 N 242.541 3.02991 4.73448 0
M  V30 2332 H 234.692 1.85318 1.03783 0
M  V30 2333 H 236.955 0.794777 0.516753 0
M  V30 2334 H 236.661 2.5841 2.38574 0
M  V30 2335 H 236.535 1.27671 3.54937 0
M  V30 2336 H 238.922 0.52335 2.90422 0
M  V30 2337 H 239.003 1.86378 1.75205 0
M  V30 2338 H 238.647 3.50745 3.67342 0
M  V30 2339 H 238.577 2.13904 4.81199 0
M  V30 2340 H 241.068 1.89503 3.26951 0
M  V30 2341 H 241.381 4.40359 6.35062 0
M  V30 2342 H 239.726 3.95455 5.71524 0
M  V30 2343 H 242.917 2.41987 4.007 0
M  V30 2344 H 243.09 3.5636 5.41213 0
M  V30 2345 N 236.496 -1.42363 0.676048 0
M  V30 2346 C 237.742 -2.0182 0.199125 0
M  V30 2347 C 238.075 -1.53339 -1.19168 0
M  V30 2348 O 237.35 -0.736124 -1.80032 0
M  V30 2349 C 237.633 -3.59331 0.235144 0
M  V30 2350 C 237.486 -4.17989 1.66149 0
M  V30 2351 C 238.805 -4.3813 -0.41595 0
M  V30 2352 H 235.924 -0.733293 0.0738311 0
M  V30 2353 H 238.566 -1.69368 0.86107 0
M  V30 2354 H 236.716 -3.87109 -0.328487 0
M  V30 2355 H 238.388 -4.0116 2.27747 0
M  V30 2356 H 236.631 -3.7377 2.20178 0
M  V30 2357 H 237.302 -5.27126 1.63837 0
M  V30 2358 H 239.778 -4.16051 0.0638529 0
M  V30 2359 H 238.654 -5.47717 -0.360115 0
M  V30 2360 H 238.915 -4.16101 -1.49373 0
M  V30 2361 N 237.974 -0.419461 -1.51915 0
M  V30 2362 C 239.385 0.0477853 -1.86639 0
M  V30 2363 C 239.736 1.43531 -1.33766 0
M  V30 2364 O 238.861 2.05401 -0.68113 0
M  V30 2365 C 239.456 0.0934885 -3.38671 0
M  V30 2366 C 238.015 0.505097 -3.72996 0
M  V30 2367 C 237.162 -0.313792 -2.75519 0
M  V30 2368 H 240.113 -0.636088 -1.45395 0
M  V30 2369 H 240.134 0.906667 -3.6954 0
M  V30 2370 H 239.646 -0.916501 -3.77123 0
M  V30 2371 H 237.747 1.52135 -3.40126 0
M  V30 2372 H 237.86 0.242309 -4.78487 0
M  V30 2373 H 236.224 0.225363 -2.53701 0
M  V30 2374 H 237.007 -1.32232 -3.16812 0
M  V30 2375 N 239.452 1.56882 -0.150215 0
M  V30 2376 C 240.699 1.96228 0.500093 0
M  V30 2377 C 241.027 1.03522 1.64661 0
M  V30 2378 O 240.282 0.0650683 1.95592 0
M  V30 2379 C 240.581 3.41801 1.04437 0
M  V30 2380 C 240.247 4.50897 0.0159671 0
M  V30 2381 C 238.909 4.8046 -0.266731 0
M  V30 2382 C 241.261 5.16703 -0.683192 0
M  V30 2383 C 238.589 5.73135 -1.25434 0
M  V30 2384 C 240.941 6.10441 -1.65964 0
M  V30 2385 C 239.605 6.38382 -1.95 0
M  V30 2386 H 238.875 0.718048 0.182997 0
M  V30 2387 H 241.522 1.90019 -0.237724 0
M  V30 2388 H 239.827 3.44857 1.85959 0
M  V30 2389 H 241.524 3.69573 1.55618 0
M  V30 2390 H 238.114 4.27891 0.246485 0
M  V30 2391 H 242.298 4.93993 -0.477983 0
M  V30 2392 H 237.554 5.93074 -1.48571 0
M  V30 2393 H 241.728 6.60507 -2.20689 0
M  V30 2394 H 239.355 7.09996 -2.71679 0
M  V30 2395 N 240.93 -0.123565 1.57115 0
M  V30 2396 C 242.179 -0.830704 1.83799 0
M  V30 2397 C 242.492 -1.81259 0.735158 0
M  V30 2398 O 243.698 -2.56558 0.888278 0
M  V30 2399 C 242.154 -1.52802 3.25852 0
M  V30 2400 C 241.762 -0.587356 4.44133 0
M  V30 2401 C 243.506 -2.22056 3.61789 0
M  V30 2402 C 241.413 -1.28764 5.77212 0
M  V30 2403 H 240.343 -0.313967 0.685522 0
M  V30 2404 H 242.994 -0.0834359 1.8331 0
M  V30 2405 H 241.376 -2.32175 3.20797 0
M  V30 2406 H 242.55 0.172829 4.60476 0
M  V30 2407 H 240.865 -0.00201892 4.164 0
M  V30 2408 H 243.462 -2.75131 4.58483 0
M  V30 2409 H 243.805 -2.99644 2.88997 0
M  V30 2410 H 244.338 -1.49576 3.68608 0
M  V30 2411 H 241.077 -0.55314 6.53162 0
M  V30 2412 H 240.597 -2.01995 5.64764 0
M  V30 2413 H 242.276 -1.8221 6.20813 0
M  V30 2414 N 242.408 -1.52605 -0.393616 0
M  V30 2415 C 243.358 -1.73436 -1.48 0
M  V30 2416 C 244.342 -0.588386 -1.49756 0
M  V30 2417 O 245.534 -0.846047 -1.5547 0
M  V30 2418 C 242.663 -1.90247 -2.85764 0
M  V30 2419 C 241.749 -3.10763 -2.88595 0
M  V30 2420 N 242.14 -4.33196 -2.61103 0
M  V30 2421 C 240.438 -3.10914 -3.19763 0
M  V30 2422 C 241.139 -5.1477 -2.70899 0
M  V30 2423 N 240.115 -4.50356 -3.04435 0
M  V30 2424 H 243.917 -2.65727 -1.25563 0
M  V30 2425 H 241.431 -1.5085 -0.601513 0
M  V30 2426 H 243.428 -2.03291 -3.63976 0
M  V30 2427 H 242.088 -0.991663 -3.09186 0
M  V30 2428 H 243.099 -4.61408 -2.35209 0
M  V30 2429 H 239.776 -2.29626 -3.4868 0
M  V30 2430 H 241.166 -6.22355 -2.53227 0
M  V30 2431 N 243.887 0.651787 -1.4349 0
M  V30 2432 C 245.134 1.41167 -1.45183 0
M  V30 2433 C 245.462 1.94349 -0.0766601 0
M  V30 2434 O 244.717 1.72804 0.918555 0
M  V30 2435 C 245.016 2.60914 -2.44251 0
M  V30 2436 C 244.682 2.26142 -3.9009 0
M  V30 2437 C 243.344 2.16371 -4.2981 0
M  V30 2438 C 245.696 1.98334 -4.81989 0
M  V30 2439 C 243.024 1.7695 -5.5938 0
M  V30 2440 C 245.376 1.6041 -6.11924 0
M  V30 2441 C 244.04 1.49166 -6.5062 0
M  V30 2442 H 243.31 0.516566 -0.531263 0
M  V30 2443 H 245.957 0.741099 -1.76579 0
M  V30 2444 H 244.262 3.3311 -2.06265 0
M  V30 2445 H 245.959 3.19127 -2.42815 0
M  V30 2446 H 242.549 2.34658 -3.58655 0
M  V30 2447 H 246.733 2.04803 -4.52072 0
M  V30 2448 H 241.989 1.66831 -5.88198 0
M  V30 2449 H 246.163 1.37925 -6.82605 0
M  V30 2450 H 243.79 1.1839 -7.50925 0
M  V30 2451 N 245.365 1.30045 0.890287 0
M  V30 2452 C 246.612 1.18561 1.64163 0
M  V30 2453 C 246.94 -0.260852 1.92743 0
M  V30 2454 O 246.195 -1.20376 1.54299 0
M  V30 2455 C 246.494 1.95409 2.99249 0
M  V30 2456 C 246.16 3.45066 2.90242 0
M  V30 2457 C 244.822 3.85878 2.87492 0
M  V30 2458 C 247.174 4.4039 2.78758 0
M  V30 2459 C 244.502 5.20314 2.7109 0
M  V30 2460 C 246.854 5.74928 2.63894 0
M  V30 2461 C 245.518 6.14986 2.59516 0
M  V30 2462 H 244.788 0.433846 0.600715 0
M  V30 2463 H 247.435 1.61088 1.03552 0
M  V30 2464 H 245.74 1.45501 3.63781 0
M  V30 2465 H 247.437 1.8392 3.56334 0
M  V30 2466 H 244.027 3.12631 2.93189 0
M  V30 2467 H 248.211 4.09806 2.79952 0
M  V30 2468 H 243.467 5.50449 2.66112 0
M  V30 2469 H 247.641 6.48434 2.53981 0
M  V30 2470 H 245.268 7.19104 2.46565 0
M  V30 2471 N 246.843 -1.10192 1.12674 0
M  V30 2472 C 248.12 -1.78717 0.794965 0
M  V30 2473 C 248.5 -1.98628 -0.714853 0
M  V30 2474 O 247.848 -1.58135 -1.64941 0
M  V30 2475 C 248.058 -3.11546 1.5729 0
M  V30 2476 C 249.406 -3.86382 1.76052 0
M  V30 2477 O 250.43 -3.21274 1.53823 0
M  V30 2478 O 249.289 -5.03246 2.13087 0
M  V30 2479 H 246.383 -0.774702 0.289423 0
M  V30 2480 H 248.929 -1.16819 1.23091 0
M  V30 2481 H 247.701 -2.92489 2.59935 0
M  V30 2482 H 247.324 -3.81164 1.13137 0
M  V30 2483 N 248.321 -0.919034 -1.28029 0
M  V30 2484 C 249.569 -0.553838 -1.94363 0
M  V30 2485 C 249.89 0.906357 -1.72656 0
M  V30 2486 O 249.16 1.64143 -1.0693 0
M  V30 2487 H 247.74 -0.201834 -0.719216 0
M  V30 2488 H 250.402 -1.16954 -1.55909 0
M  V30 2489 H 249.498 -0.752758 -3.02886 0
M  V30 2490 N 249.799 1.42003 -0.683588 0
M  V30 2491 C 251.046 2.01413 -0.209514 0
M  V30 2492 C 251.374 1.54088 1.1869 0
M  V30 2493 O 250.629 0.737591 1.81268 0
M  V30 2494 C 250.928 3.56827 -0.202357 0
M  V30 2495 C 250.594 4.23617 -1.54464 0
M  V30 2496 C 249.256 4.41577 -1.91215 0
M  V30 2497 C 251.608 4.61178 -2.42826 0
M  V30 2498 C 248.936 4.9437 -3.15935 0
M  V30 2499 C 251.288 5.15355 -3.66867 0
M  V30 2500 C 249.952 5.31528 -4.03776 0
M  V30 2501 H 249.222 0.737023 -0.0766668 0
M  V30 2502 H 251.869 1.70067 -0.880312 0
M  V30 2503 H 250.174 3.87892 0.551969 0
M  V30 2504 H 251.871 4.00588 0.181793 0
M  V30 2505 H 248.461 4.10004 -1.24877 0
M  V30 2506 H 252.645 4.46968 -2.15717 0
M  V30 2507 H 247.901 5.05076 -3.44541 0
M  V30 2508 H 252.075 5.43402 -4.35531 0
M  V30 2509 H 249.702 5.72199 -5.00492 0
M  V30 2510 N 251.277 0.427512 1.51691 0
M  V30 2511 C 252.693 0.0792977 1.59403 0
M  V30 2512 C 252.893 -1.41035 1.43914 0
M  V30 2513 O 251.949 -2.17922 1.27539 0
M  V30 2514 C 253.262 0.590636 2.94842 0
M  V30 2515 C 254.81 0.550215 3.08126 0
M  V30 2516 C 255.285 1.03836 4.46074 0
M  V30 2517 N 256.776 0.995943 4.52366 0
M  V30 2518 C 257.511 1.34463 5.57411 0
M  V30 2519 N 257.007 1.76569 6.69922 0
M  V30 2520 N 258.8 1.26343 5.47717 0
M  V30 2521 H 250.951 1.39687 1.60004 0
M  V30 2522 H 253.214 0.575003 0.753708 0
M  V30 2523 H 252.92 1.63251 3.11516 0
M  V30 2524 H 252.794 0.0102061 3.77199 0
M  V30 2525 H 255.181 -0.482654 2.91126 0
M  V30 2526 H 255.262 1.16693 2.27632 0
M  V30 2527 H 254.906 2.06965 4.63819 0
M  V30 2528 H 254.836 0.398286 5.25092 0
M  V30 2529 H 257.327 0.68661 3.7161 0
M  V30 2530 H 257.64 2.01438 7.46085 0
M  V30 2531 H 255.985 1.80488 6.71155 0
M  V30 2532 H 259.176 0.933209 4.58703 0
M  V30 2533 H 259.349 1.53846 6.29472 0
M  V30 2534 N 252.755 -1.56801 0.158532 0
M  V30 2535 C 253.983 -2.00859 -0.496303 0
M  V30 2536 C 254.398 -1.03871 -1.57659 0
M  V30 2537 O 253.755 -0.0375165 -1.82461 0
M  V30 2538 C 253.806 -3.4479 -1.08638 0
M  V30 2539 O 253.527 -4.38072 -0.0492322 0
M  V30 2540 C 255.028 -4.04185 -1.8207 0
M  V30 2541 H 252.248 -0.65864 -0.128199 0
M  V30 2542 H 254.792 -2.02885 0.256506 0
M  V30 2543 H 252.947 -3.43579 -1.78975 0
M  V30 2544 H 253.361 -5.2227 -0.483102 0
M  V30 2545 H 254.835 -5.06857 -2.18633 0
M  V30 2546 H 255.312 -3.45549 -2.71095 0
M  V30 2547 H 255.918 -4.0906 -1.16405 0
M  V30 2548 N 254.233 0.115231 -1.57178 0
M  V30 2549 C 255.458 0.840354 -1.89612 0
M  V30 2550 C 255.883 1.72464 -0.750845 0
M  V30 2551 O 255.241 1.78826 0.298478 0
M  V30 2552 C 255.289 1.64654 -3.20814 0
M  V30 2553 O 254.393 2.7538 -3.06985 0
M  V30 2554 H 253.734 0.232158 -0.622092 0
M  V30 2555 H 256.264 0.0964977 -2.04372 0
M  V30 2556 H 256.274 2.03499 -3.53627 0
M  V30 2557 H 254.949 0.997416 -4.03763 0
M  V30 2558 H 253.526 2.3971 -2.85646 0
M  V30 2559 N 255.711 1.52812 0.385517 0
M  V30 2560 C 256.661 1.74219 1.47078 0
M  V30 2561 C 257.645 0.59632 1.49442 0
M  V30 2562 O 258.837 0.85428 1.5502 0
M  V30 2563 C 255.966 1.9176 2.84751 0
M  V30 2564 C 255.052 3.12289 2.86943 0
M  V30 2565 N 255.443 4.34575 2.58802 0
M  V30 2566 C 253.741 3.12605 3.1811 0
M  V30 2567 C 254.442 5.162 2.68166 0
M  V30 2568 N 253.418 4.51964 3.02043 0
M  V30 2569 H 257.22 2.6639 1.24152 0
M  V30 2570 H 254.734 1.51166 0.593504 0
M  V30 2571 H 256.731 2.05218 3.62893 0
M  V30 2572 H 255.391 1.00805 3.08656 0
M  V30 2573 H 256.402 4.62649 2.32759 0
M  V30 2574 H 253.079 2.31472 3.47458 0
M  V30 2575 H 254.469 6.23689 2.49923 0
M  V30 2576 N 257.189 -0.644168 1.43834 0
M  V30 2577 C 258.099 -1.78563 1.52159 0
M  V30 2578 C 259.115 -1.69147 0.408069 0
M  V30 2579 O 260.291 -1.90156 0.663524 0
M  V30 2580 C 257.356 -3.14888 1.45073 0
M  V30 2581 C 256.417 -3.36034 2.6717 0
M  V30 2582 C 255.65 -4.65855 2.60413 0
M  V30 2583 O 255.873 -5.45805 1.65689 0
M  V30 2584 O 254.807 -4.88918 3.5106 0
M  V30 2585 H 258.633 -1.74494 2.48567 0
M  V30 2586 H 256.218 -0.80378 1.25935 0
M  V30 2587 H 258.1 -3.96179 1.43597 0
M  V30 2588 H 256.775 -3.19528 0.518037 0
M  V30 2589 H 255.682 -2.54472 2.74217 0
M  V30 2590 H 257.015 -3.36247 3.59442 0
M  V30 2591 N 258.668 -1.30515 -0.883378 0
M  V30 2592 C 259.917 -1.18795 -1.63005 0
M  V30 2593 C 260.23 0.255923 -1.93919 0
M  V30 2594 O 261.436 0.494654 -2.66956 0
M  V30 2595 C 259.892 -2.07878 -2.93794 0
M  V30 2596 C 259.5 -3.57184 -2.70414 0
M  V30 2597 C 261.244 -2.04924 -3.71761 0
M  V30 2598 C 259.151 -4.38317 -3.97029 0
M  V30 2599 H 258.081 -0.441031 -0.611562 0
M  V30 2600 H 260.732 -1.55275 -0.977854 0
M  V30 2601 H 259.114 -1.64283 -3.60315 0
M  V30 2602 H 260.288 -4.08937 -2.12384 0
M  V30 2603 H 258.603 -3.61976 -2.0582 0
M  V30 2604 H 261.2 -2.62792 -4.65665 0
M  V30 2605 H 261.543 -1.0331 -4.03277 0
M  V30 2606 H 262.076 -2.46649 -3.12104 0
M  V30 2607 H 258.815 -5.40632 -3.70671 0
M  V30 2608 H 258.335 -3.91326 -4.54559 0
M  V30 2609 H 260.014 -4.49834 -4.65036 0
M  V30 2610 N 260.146 1.09593 -1.13257 0
M  V30 2611 C 261.094 2.18271 -0.803783 0
M  V30 2612 C 262.088 1.68054 0.213148 0
M  V30 2613 O 263.294 1.79862 0.0704699 0
M  V30 2614 H 259.669 0.711949 -0.242143 0
M  V30 2615 H 261.64 2.43235 -1.72856 0
M  V30 2616 C 260.389 3.46536 -0.28424 0
M  V30 2617 H 259.712 3.85545 -1.05807 0
M  V30 2618 H 261.152 4.23899 -0.0925945 0
M  V30 2619 C 259.611 3.22036 0.989684 0
M  V30 2620 O 260.141 3.44509 2.06584 0
M  V30 2621 N 258.347 2.7565 0.920086 0
M  V30 2622 H 257.894 2.57562 0.0442019 0
M  V30 2623 H 257.852 2.59635 1.77306 0
M  V30 2624 N 261.624 0.925811 1.2754 0
M  V30 2625 C 262.571 0.422045 2.26908 0
M  V30 2626 C 263.541 -0.510029 1.58076 0
M  V30 2627 O 264.726 -0.429599 1.85901 0
M  V30 2628 C 261.866 -0.320837 3.43605 0
M  V30 2629 C 260.979 0.64513 4.27156 0
M  V30 2630 C 260.114 -0.117405 5.3107 0
M  V30 2631 C 259.153 0.841391 6.0629 0
M  V30 2632 N 258.29 0.111604 7.02011 0
M  V30 2633 H 263.13 1.27441 2.69375 0
M  V30 2634 H 260.667 0.639697 1.32462 0
M  V30 2635 H 262.625 -0.76785 4.10073 0
M  V30 2636 H 261.255 -1.13745 3.02096 0
M  V30 2637 H 260.307 1.21067 3.6062 0
M  V30 2638 H 261.619 1.37797 4.79389 0
M  V30 2639 H 260.773 -0.624422 6.03478 0
M  V30 2640 H 259.512 -0.883219 4.79636 0
M  V30 2641 H 258.517 1.35967 5.32722 0
M  V30 2642 H 259.742 1.60696 6.59813 0
M  V30 2643 H 257.688 -0.635999 6.5291 0
M  V30 2644 H 257.605 0.784044 7.51923 0
M  V30 2645 H 258.873 -0.374823 7.78598 0
M  V30 2646 N 263.102 -1.41638 0.69111 0
M  V30 2647 C 264.351 -2.00526 0.217318 0
M  V30 2648 C 264.664 -1.55353 -1.18848 0
M  V30 2649 O 265.87 -2.06769 -1.75951 0
M  V30 2650 C 264.326 -3.58313 0.337639 0
M  V30 2651 C 263.934 -4.12469 1.74852 0
M  V30 2652 C 265.678 -4.24431 -0.0766066 0
M  V30 2653 C 263.585 -5.62675 1.82074 0
M  V30 2654 H 262.515 -0.750008 0.0774893 0
M  V30 2655 H 265.166 -1.6217 0.858661 0
M  V30 2656 H 263.548 -3.9425 -0.371879 0
M  V30 2657 H 264.722 -3.8796 2.48644 0
M  V30 2658 H 263.037 -3.58861 2.11205 0
M  V30 2659 H 265.634 -5.34683 -0.0430284 0
M  V30 2660 H 265.977 -4.01101 -1.1146 0
M  V30 2661 H 266.51 -3.93512 0.582476 0
M  V30 2662 H 263.249 -5.90826 2.83911 0
M  V30 2663 H 262.769 -5.89124 1.12661 0
M  V30 2664 H 264.448 -6.27371 1.58159 0
M  V30 2665 N 264.58 -0.43555 -1.51462 0
M  V30 2666 C 265.826 0.131709 -2.02372 0
M  V30 2667 C 266.159 1.42516 -1.3192 0
M  V30 2668 O 265.434 1.89606 -0.433573 0
M  V30 2669 C 265.717 0.352301 -3.58373 0
M  V30 2670 C 265.57 -0.959676 -4.39443 0
M  V30 2671 C 266.889 1.12286 -4.25535 0
M  V30 2672 H 264.008 0.0463936 -0.735538 0
M  V30 2673 H 266.65 -0.574197 -1.81116 0
M  V30 2674 H 264.8 0.9536 -3.76615 0
M  V30 2675 H 266.472 -1.59482 -4.32855 0
M  V30 2676 H 264.715 -1.56468 -4.04599 0
M  V30 2677 H 265.386 -0.759394 -5.46752 0
M  V30 2678 H 267.862 0.613545 -4.11552 0
M  V30 2679 H 266.738 1.24598 -5.34571 0
M  V30 2680 H 266.999 2.15048 -3.86273 0
M  V30 2681 N 266.058 1.56714 -0.166846 0
M  V30 2682 C 267.469 1.83378 0.350646 0
M  V30 2683 C 267.82 1.08646 1.63372 0
M  V30 2684 O 266.945 0.338058 2.13743 0
M  V30 2685 C 267.54 3.32643 0.642963 0
M  V30 2686 C 266.099 3.59818 1.10491 0
M  V30 2687 C 265.246 2.76954 0.138411 0
M  V30 2688 H 268.197 1.53803 -0.391193 0
M  V30 2689 H 268.218 3.49878 1.49551 0
M  V30 2690 H 267.73 3.87007 -0.291055 0
M  V30 2691 H 265.831 3.1086 2.05418 0
M  V30 2692 H 265.944 4.68178 1.01716 0
M  V30 2693 H 264.308 2.4666 0.634911 0
M  V30 2694 H 265.091 3.34097 -0.789549 0
M  V30 2695 N 267.536 -0.106894 1.57237 0
M  V30 2696 C 268.466 -1.13148 2.04254 0
M  V30 2697 C 269.447 -1.42476 0.929224 0
M  V30 2698 O 270.632 -1.52709 1.19973 0
M  V30 2699 C 267.762 -2.4545 2.45706 0
M  V30 2700 C 266.716 -2.30558 3.60592 0
M  V30 2701 C 266.042 -3.67931 3.87983 0
M  V30 2702 C 267.342 -1.75597 4.91897 0
M  V30 2703 H 269.036 -0.740374 2.90101 0
M  V30 2704 H 266.582 -0.354696 1.39563 0
M  V30 2705 H 268.535 -3.17389 2.77205 0
M  V30 2706 H 267.259 -2.86475 1.56843 0
M  V30 2707 H 265.918 -1.61067 3.29322 0
M  V30 2708 H 265.566 -4.06462 2.96306 0
M  V30 2709 H 265.266 -3.58817 4.65322 0
M  V30 2710 H 266.79 -4.41356 4.21945 0
M  V30 2711 H 268.204 -2.37364 5.21854 0
M  V30 2712 H 266.601 -1.77272 5.73319 0
M  V30 2713 H 267.671 -0.714451 4.79608 0
M  V30 2714 N 269.014 -1.53014 -0.377408 0
M  V30 2715 C 269.977 -1.77957 -1.44444 0
M  V30 2716 C 270.977 -0.649763 -1.47087 0
M  V30 2717 O 272.167 -0.917897 -1.48055 0
M  V30 2718 C 269.299 -1.89089 -2.83651 0
M  V30 2719 H 270.492 -2.73243 -1.23606 0
M  V30 2720 H 268.045 -1.43912 -0.609844 0
M  V30 2721 H 268.78 -0.958293 -3.09818 0
M  V30 2722 H 268.565 -2.71254 -2.83132 0
M  V30 2723 H 270.055 -2.1002 -3.60945 0
M  V30 2724 N 270.492 0.636531 -1.44174 0
M  V30 2725 C 271.769 1.39463 -1.37148 0
M  V30 2726 C 272.149 2.11082 -0.027507 0
M  V30 2727 O 271.497 2.05954 0.989716 0
M  V30 2728 C 271.707 2.36552 -2.56601 0
M  V30 2729 C 273.055 3.00048 -3.00427 0
M  V30 2730 O 274.079 2.46878 -2.56767 0
M  V30 2731 O 272.938 3.96488 -3.76111 0
M  V30 2732 H 270.032 0.623903 -0.542839 0
M  V30 2733 H 272.578 0.662039 -1.56253 0
M  V30 2734 H 271.35 1.82692 -3.46034 0
M  V30 2735 H 270.973 3.17236 -2.39681 0
M  V30 2736 N 271.97 1.30982 0.876444 0
M  V30 2737 C 273.247 1.10942 1.61094 0
M  V30 2738 C 273.627 -0.338223 2.08373 0
M  V30 2739 O 272.975 -1.33122 1.85717 0
M  V30 2740 C 273.185 2.11789 2.77392 0
M  V30 2741 C 274.533 2.43965 3.47514 0
M  V30 2742 O 275.557 2.10166 2.87591 0
M  V30 2743 O 274.416 3.01817 4.55597 0
M  V30 2744 H 271.51 0.42667 0.708436 0
M  V30 2745 H 274.056 1.42438 0.922474 0
M  V30 2746 H 272.828 3.09194 2.39823 0
M  V30 2747 H 272.451 1.81161 3.5393 0
M  V30 2748 N 273.449 -1.08991 1.13837 0
M  V30 2749 C 274.677 -1.85011 0.926202 0
M  V30 2750 C 275.092 -1.8135 -0.525127 0
M  V30 2751 O 274.449 -1.21287 -1.36366 0
M  V30 2752 C 274.5 -3.32802 1.41155 0
M  V30 2753 O 274.221 -3.36444 2.80601 0
M  V30 2754 C 275.722 -4.25649 1.23847 0
M  V30 2755 H 272.942 -0.584249 0.32999 0
M  V30 2756 H 275.486 -1.37688 1.51202 0
M  V30 2757 H 273.641 -3.77536 0.868631 0
M  V30 2758 H 274.055 -4.28657 3.02248 0
M  V30 2759 H 275.529 -5.27485 1.62675 0
M  V30 2760 H 276.006 -4.38828 0.18065 0
M  V30 2761 H 276.612 -3.86735 1.76964 0
M  V30 2762 N 274.927 -0.932562 -1.27047 0
M  V30 2763 C 276.176 -0.571351 -1.93439 0
M  V30 2764 C 276.489 0.892467 -1.74053 0
M  V30 2765 O 277.695 1.36267 -2.34826 0
M  V30 2766 C 276.151 -0.97106 -3.46552 0
M  V30 2767 C 275.759 -2.4559 -3.74686 0
M  V30 2768 C 277.503 -0.681333 -4.18997 0
M  V30 2769 C 275.41 -2.79475 -5.21198 0
M  V30 2770 H 274.34 -0.209966 -0.724176 0
M  V30 2771 H 276.991 -1.13403 -1.44263 0
M  V30 2772 H 275.373 -0.336983 -3.94564 0
M  V30 2773 H 276.547 -3.13829 -3.37414 0
M  V30 2774 H 274.862 -2.71802 -3.15456 0
M  V30 2775 H 277.459 -0.910939 -5.26883 0
M  V30 2776 H 277.802 0.381628 -4.14547 0
M  V30 2777 H 278.335 -1.27473 -3.76823 0
M  V30 2778 H 275.074 -3.847 -5.30741 0
M  V30 2779 H 274.594 -2.1589 -5.596 0
M  V30 2780 H 276.273 -2.67478 -5.89122 0
M  V30 2781 N 276.405 1.4127 -0.698611 0
M  V30 2782 C 277.335 2.33447 -0.049629 0
M  V30 2783 C 278.316 1.51982 0.763898 0
M  V30 2784 O 279.501 1.80509 0.716257 0
M  V30 2785 C 276.631 3.35828 0.885267 0
M  V30 2786 C 275.585 4.27627 0.178613 0
M  V30 2787 C 274.911 5.20406 1.22807 0
M  V30 2788 C 276.211 5.13459 -0.956933 0
M  V30 2789 H 277.905 2.87966 -0.81951 0
M  V30 2790 H 275.451 1.38461 -0.395538 0
M  V30 2791 H 277.404 3.9924 1.34854 0
M  V30 2792 H 276.128 2.79666 1.68685 0
M  V30 2793 H 274.787 3.65643 -0.26466 0
M  V30 2794 H 274.435 4.60558 2.02226 0
M  V30 2795 H 274.135 5.82661 0.760239 0
M  V30 2796 H 275.659 5.86695 1.69179 0
M  V30 2797 H 277.073 5.70421 -0.573805 0
M  V30 2798 H 275.47 5.8467 -1.35205 0
M  V30 2799 H 276.54 4.50443 -1.79524 0
M  V30 2800 N 277.883 0.443576 1.51229 0
M  V30 2801 C 279.16 -0.181038 1.9476 0
M  V30 2802 C 279.54 -1.59523 1.38259 0
M  V30 2803 O 278.888 -2.2122 0.572198 0
M  V30 2804 C 279.098 -0.152422 3.48667 0
M  V30 2805 C 280.446 -0.354923 4.23114 0
M  V30 2806 O 281.47 -0.230257 3.55455 0
M  V30 2807 O 280.329 -0.603674 5.43156 0
M  V30 2808 H 277.423 -0.1266 0.817252 0
M  V30 2809 H 279.969 0.502004 1.62105 0
M  V30 2810 H 278.741 0.836022 3.82265 0
M  V30 2811 H 278.364 -0.878107 3.87782 0
M  V30 2812 N 279.361 -1.56624 0.175154 0
M  V30 2813 C 280.291 -2.21155 -0.749195 0
M  V30 2814 C 281.272 -1.16836 -1.23626 0
M  V30 2815 O 282.457 -1.45277 -1.28873 0
M  V30 2816 C 279.587 -2.8553 -1.97711 0
M  V30 2817 C 278.541 -3.95921 -1.62575 0
M  V30 2818 C 277.867 -4.47365 -2.92864 0
M  V30 2819 C 279.167 -5.15323 -0.850838 0
M  V30 2820 H 280.861 -2.98653 -0.211295 0
M  V30 2821 H 278.407 -1.43651 -0.100188 0
M  V30 2822 H 280.36 -3.2935 -2.62881 0
M  V30 2823 H 279.084 -2.05406 -2.53921 0
M  V30 2824 H 277.743 -3.52762 -0.997719 0
M  V30 2825 H 277.391 -3.64027 -3.47122 0
M  V30 2826 H 277.091 -5.21839 -2.70106 0
M  V30 2827 H 278.615 -4.93873 -3.59056 0
M  V30 2828 H 280.029 -5.55812 -1.40521 0
M  V30 2829 H 278.426 -5.95739 -0.722154 0
M  V30 2830 H 279.496 -4.84661 0.152082 0
M  V30 2831 N 280.839 0.0985539 -1.57292 0
M  V30 2832 C 281.772 1.15082 -1.97057 0
M  V30 2833 C 282.75 1.39025 -0.843255 0
M  V30 2834 O 283.934 1.52842 -1.10325 0
M  V30 2835 C 281.061 2.50069 -2.28437 0
M  V30 2836 C 280.107 2.42428 -3.509 0
M  V30 2837 S 280.94 1.84414 -5.02744 0
M  V30 2838 C 282.096 3.21032 -5.37298 0
M  V30 2839 H 282.329 0.811815 -2.86002 0
M  V30 2840 H 279.862 0.306102 -1.51335 0
M  V30 2841 H 281.82 3.27729 -2.47192 0
M  V30 2842 H 280.481 2.8114 -1.40069 0
M  V30 2843 H 279.674 3.41911 -3.70288 0
M  V30 2844 H 279.276 1.72896 -3.31637 0
M  V30 2845 H 281.568 4.17297 -5.33731 0
M  V30 2846 H 282.511 3.06452 -6.38352 0
M  V30 2847 H 282.919 3.20404 -4.64759 0
M  V30 2848 N 282.317 1.53212 0.369288 0
M  V30 2849 C 283.728 1.60943 0.946276 0
M  V30 2850 C 284.079 0.47452 1.90375 0
M  V30 2851 O 283.204 -0.399597 2.12679 0
M  V30 2852 C 283.799 2.91715 1.72302 0
M  V30 2853 C 282.358 3.01792 2.24941 0
M  V30 2854 C 281.505 2.56211 1.06072 0
M  V30 2855 H 284.456 1.58007 0.148198 0
M  V30 2856 H 284.477 2.79309 2.58393 0
M  V30 2857 H 283.989 3.74295 1.0259 0
M  V30 2858 H 282.09 2.23791 2.97906 0
M  V30 2859 H 282.203 4.06803 2.53077 0
M  V30 2860 H 280.567 2.10998 1.4266 0
M  V30 2861 H 281.35 3.41206 0.378639 0
M  V30 2862 N 283.795 -0.628877 1.44509 0
M  V30 2863 C 284.727 -1.754 1.47538 0
M  V30 2864 C 285.74 -1.58575 0.368506 0
M  V30 2865 O 286.929 -1.66847 0.634376 0
M  V30 2866 C 284.029 -3.1315 1.29577 0
M  V30 2867 C 283.202 -3.56413 2.53551 0
M  V30 2868 C 282.261 -4.7305 2.30457 0
M  V30 2869 O 281.287 -4.81247 3.03957 0
M  V30 2870 N 282.489 -5.64903 1.3366 0
M  V30 2871 H 285.254 -1.73272 2.44534 0
M  V30 2872 H 282.815 -0.813512 1.39977 0
M  V30 2873 H 284.807 -3.88902 1.11971 0
M  V30 2874 H 283.377 -3.09908 0.409371 0
M  V30 2875 H 282.597 -2.70847 2.86419 0
M  V30 2876 H 283.885 -3.82071 3.36005 0
M  V30 2877 H 283.283 -5.60975 0.729604 0
M  V30 2878 H 281.84 -6.40275 1.22032 0
M  V30 2879 N 285.273 -1.31445 -0.869486 0
M  V30 2880 C 286.519 -1.21337 -1.62496 0
M  V30 2881 C 286.852 0.227872 -1.92858 0
M  V30 2882 O 286.127 1.16094 -1.56053 0
M  V30 2883 C 286.41 -2.05814 -2.95487 0
M  V30 2884 C 286.263 -3.5824 -2.72 0
M  V30 2885 C 287.582 -1.9079 -3.96594 0
M  V30 2886 H 284.701 -0.442135 -0.589649 0
M  V30 2887 H 287.343 -1.6124 -1.00507 0
M  V30 2888 H 285.493 -1.71913 -3.48394 0
M  V30 2889 H 287.165 -4.0228 -2.25762 0
M  V30 2890 H 285.408 -3.81647 -2.06224 0
M  V30 2891 H 286.079 -4.12657 -3.66631 0
M  V30 2892 H 288.555 -2.20459 -3.52898 0
M  V30 2893 H 287.431 -2.52199 -4.87531 0
M  V30 2894 H 287.692 -0.871341 -4.33428 0
M  V30 2895 N 286.751 1.08385 -1.14413 0
M  V30 2896 C 287.661 2.18856 -0.844951 0
M  V30 2897 C 288.677 1.73121 0.174668 0
M  V30 2898 O 289.853 2.014 0.00312857 0
M  V30 2899 C 286.918 3.45155 -0.32696 0
M  V30 2900 C 285.979 4.05513 -1.40916 0
M  V30 2901 C 285.212 5.25784 -0.915793 0
M  V30 2902 O 285.435 5.69884 0.242651 0
M  V30 2903 O 284.369 5.77545 -1.69487 0
M  V30 2904 H 288.195 2.46919 -1.76818 0
M  V30 2905 H 285.78 1.17524 -0.922411 0
M  V30 2906 H 287.662 4.21377 -0.0440211 0
M  V30 2907 H 286.337 3.18668 0.568539 0
M  V30 2908 H 285.244 3.30879 -1.74556 0
M  V30 2909 H 286.577 4.3625 -2.27919 0
M  V30 2910 N 288.23 0.939286 1.26551 0
M  V30 2911 C 289.479 0.581601 1.93133 0
M  V30 2912 C 289.792 -0.883224 1.74524 0
M  V30 2913 O 290.998 -1.3502 2.35546 0
M  V30 2914 C 289.454 0.989425 3.46032 0
M  V30 2915 C 289.062 2.47573 3.73379 0
M  V30 2916 C 290.806 0.703544 4.18629 0
M  V30 2917 C 288.713 2.82235 5.19709 0
M  V30 2918 H 287.643 0.213803 0.723052 0
M  V30 2919 H 290.294 1.14167 1.4366 0
M  V30 2920 H 288.676 0.357902 3.94379 0
M  V30 2921 H 289.85 3.15614 3.35744 0
M  V30 2922 H 288.165 2.73471 3.1401 0
M  V30 2923 H 290.762 0.938869 5.26393 0
M  V30 2924 H 291.105 -0.359639 4.14744 0
M  V30 2925 H 291.638 1.2947 3.76141 0
M  V30 2926 H 288.377 3.87509 5.28694 0
M  V30 2927 H 287.897 2.18854 5.58447 0
M  V30 2928 H 289.576 2.70599 5.87695 0
M  V30 2929 N 289.708 -1.40897 0.706093 0
M  V30 2930 C 290.985 -1.94868 0.169099 0
M  V30 2931 C 291.365 -1.64485 -1.32318 0
M  V30 2932 O 290.713 -0.95744 -2.07474 0
M  V30 2933 C 290.923 -3.45798 0.471654 0
M  V30 2934 C 292.271 -4.22663 0.405127 0
M  V30 2935 O 293.295 -3.53865 0.407168 0
M  V30 2936 O 292.154 -5.45216 0.374383 0
M  V30 2937 H 289.248 -0.82673 0.0211352 0
M  V30 2938 H 291.794 -1.50558 0.782976 0
M  V30 2939 H 290.566 -3.61235 1.50416 0
M  V30 2940 H 290.189 -3.97225 -0.172666 0
M  V30 2941 N 291.186 -0.45159 -1.50991 0
M  V30 2942 C 292.149 0.341117 -2.26647 0
M  V30 2943 C 293.149 0.937422 -1.30649 0
M  V30 2944 O 294.339 0.809644 -1.54241 0
M  V30 2945 C 291.471 1.48398 -3.06905 0
M  V30 2946 H 292.664 -0.322117 -2.98165 0
M  V30 2947 H 290.217 -0.205122 -1.54948 0
M  V30 2948 H 290.952 2.18284 -2.39838 0
M  V30 2949 H 290.737 1.06241 -3.77432 0
M  V30 2950 H 292.227 2.04367 -3.64176 0
M  V30 2951 N 292.664 1.56529 -0.183458 0
M  V30 2952 C 293.614 2.1515 0.754605 0
M  V30 2953 C 294.598 1.08904 1.18443 0
M  V30 2954 O 295.79 1.34997 1.14476 0
M  V30 2955 C 292.919 2.80531 1.97881 0
M  V30 2956 C 292.005 3.93952 1.57043 0
M  V30 2957 N 292.396 4.98221 0.87231 0
M  V30 2958 C 290.694 4.05338 1.86057 0
M  V30 2959 C 291.395 5.77836 0.669377 0
M  V30 2960 N 290.371 5.29858 1.21454 0
M  V30 2961 H 294.173 2.93132 0.212387 0
M  V30 2962 H 291.687 1.62391 0.0167725 0
M  V30 2963 H 293.684 3.20914 2.6612 0
M  V30 2964 H 292.344 2.04035 2.52586 0
M  V30 2965 H 293.355 5.15191 0.529033 0
M  V30 2966 H 290.032 3.39957 2.42354 0
M  V30 2967 H 291.422 6.71799 0.116422 0
M  V30 2968 N 294.142 -0.090211 1.57342 0
M  V30 2969 C 295.558 -0.444547 1.53284 0
M  V30 2970 C 295.758 -1.80238 0.900914 0
M  V30 2971 O 294.814 -2.4759 0.495513 0
M  V30 2972 C 296.127 -0.402543 2.97993 0
M  V30 2973 C 297.675 -0.48405 3.09234 0
M  V30 2974 C 298.15 -0.472144 4.5556 0
M  V30 2975 N 299.641 -0.532757 4.60126 0
M  V30 2976 C 300.376 -0.545462 5.708 0
M  V30 2977 N 299.872 -0.514082 6.9089 0
M  V30 2978 N 301.665 -0.59064 5.58988 0
M  V30 2979 H 293.816 0.799121 1.96794 0
M  V30 2980 H 296.079 0.297965 0.899956 0
M  V30 2981 H 295.785 0.528106 3.47712 0
M  V30 2982 H 295.659 -1.21969 3.56936 0
M  V30 2983 H 298.046 -1.40512 2.595 0
M  V30 2984 H 298.127 0.361328 2.53235 0
M  V30 2985 H 297.771 0.445 5.05947 0
M  V30 2986 H 297.701 -1.3348 5.09402 0
M  V30 2987 H 300.192 -0.562006 3.73698 0
M  V30 2988 H 300.505 -0.527195 7.71 0
M  V30 2989 H 298.85 -0.481054 6.93333 0
M  V30 2990 H 302.041 -0.61272 4.64073 0
M  V30 2991 H 302.214 -0.597073 6.45243 0
M  V30 2992 N 295.62 -1.53406 -0.361157 0
M  V30 2993 C 296.583 -1.79479 -1.42548 0
M  V30 2994 C 297.583 -0.665327 -1.4639 0
M  V30 2995 O 298.773 -0.933549 -1.47073 0
M  V30 2996 C 295.905 -1.92087 -2.8163 0
M  V30 2997 H 297.098 -2.74538 -1.20701 0
M  V30 2998 H 294.651 -1.4455 -0.594546 0
M  V30 2999 H 295.386 -0.991099 -3.08784 0
M  V30 3000 H 295.171 -2.74241 -2.80239 0
M  V30 3001 H 296.661 -2.13836 -3.58697 0
M  V30 3002 N 297.098 0.621204 -1.44841 0
M  V30 3003 C 298.514 0.94048 -1.28946 0
M  V30 3004 C 298.714 2.00154 -0.23249 0
M  V30 3005 O 297.77 2.49651 0.378237 0
M  V30 3006 C 299.083 1.39433 -2.66419 0
M  V30 3007 C 300.631 1.50927 -2.74208 0
M  V30 3008 C 301.106 1.99692 -4.12174 0
M  V30 3009 N 302.597 2.06947 -4.144 0
M  V30 3010 C 303.332 2.45871 -5.1801 0
M  V30 3011 N 302.828 2.83862 -6.31977 0
M  V30 3012 N 304.621 2.46092 -5.05366 0
M  V30 3013 H 296.772 -0.0803548 -2.12248 0
M  V30 3014 H 299.035 0.0266913 -0.947624 0
M  V30 3015 H 298.741 0.688925 -3.44887 0
M  V30 3016 H 298.615 2.36347 -2.93973 0
M  V30 3017 H 301.002 2.20561 -1.96053 0
M  V30 3018 H 301.083 0.523627 -2.50383 0
M  V30 3019 H 300.727 1.30649 -4.90809 0
M  V30 3020 H 300.657 2.99146 -4.33381 0
M  V30 3021 H 303.148 1.80232 -3.32152 0
M  V30 3022 H 303.461 3.12405 -7.0684 0
M  V30 3023 H 301.806 2.8159 -6.35399 0
M  V30 3024 H 304.997 2.1581 -4.15384 0
M  V30 3025 H 305.17 2.76102 -5.86235 0
M  V30 3026 N 298.576 1.31904 0.862503 0
M  V30 3027 C 299.539 1.20131 1.95195 0
M  V30 3028 C 300.539 0.126409 1.60302 0
M  V30 3029 O 301.729 0.376234 1.70089 0
M  V30 3030 C 298.861 0.845691 3.30244 0
M  V30 3031 H 300.054 2.16943 2.07064 0
M  V30 3032 H 297.607 1.15622 1.05172 0
M  V30 3033 H 298.342 -0.120957 3.24074 0
M  V30 3034 H 298.127 1.62276 3.56944 0
M  V30 3035 H 299.617 0.787418 4.10109 0
M  V30 3036 N 300.054 -1.07777 1.14986 0
M  V30 3037 C 300.984 -2.16865 0.865557 0
M  V30 3038 C 301.965 -1.69123 -0.182083 0
M  V30 3039 O 303.15 -1.94164 -0.0373815 0
M  V30 3040 C 300.28 -3.45539 0.349313 0
M  V30 3041 C 299.234 -4.06708 1.33313 0
M  V30 3042 C 298.56 -5.30411 0.675918 0
M  V30 3043 C 299.86 -4.47241 2.69764 0
M  V30 3044 H 301.554 -2.40905 1.77778 0
M  V30 3045 H 299.1 -1.15781 0.856203 0
M  V30 3046 H 301.053 -4.21174 0.137983 0
M  V30 3047 H 299.777 -3.21072 -0.598362 0
M  V30 3048 H 298.436 -3.33112 1.53075 0
M  V30 3049 H 298.084 -5.02232 -0.277767 0
M  V30 3050 H 297.784 -5.72293 1.33244 0
M  V30 3051 H 299.308 -6.08755 0.474262 0
M  V30 3052 H 300.722 -5.14025 2.53873 0
M  V30 3053 H 299.119 -5.00062 3.3175 0
M  V30 3054 H 300.189 -3.58818 3.26156 0
M  V30 3055 N 301.532 -0.945985 -1.26051 0
M  V30 3056 C 302.48 -0.450259 -2.282 0
M  V30 3057 C 303.474 0.47497 -1.62605 0
M  V30 3058 O 304.68 0.352653 -1.76512 0
M  V30 3059 H 301.055 -0.127081 -0.741184 0
M  V30 3060 H 303.026 -1.32422 -2.67408 0
M  V30 3061 C 301.775 0.26467 -3.46691 0
M  V30 3062 H 301.098 -0.438123 -3.97392 0
M  V30 3063 H 302.538 0.575678 -4.20074 0
M  V30 3064 C 300.997 1.48416 -3.02447 0
M  V30 3065 O 301.527 2.58227 -3.07704 0
M  V30 3066 N 299.733 1.34243 -2.57735 0
M  V30 3067 H 299.28 0.448994 -2.53657 0
M  V30 3068 H 299.238 2.15957 -2.28495 0
M  V30 3069 N 303.011 1.40521 -0.713556 0
M  V30 3070 C 304.422 1.83853 -0.324807 0
M  V30 3071 C 304.773 1.59667 1.14021 0
M  V30 3072 O 303.898 1.07649 1.87725 0
M  V30 3073 C 304.493 3.33751 -0.582746 0
M  V30 3074 C 303.052 3.75584 -0.247727 0
M  V30 3075 C 302.199 2.63753 -0.856121 0
M  V30 3076 H 305.15 1.29817 -0.91286 0
M  V30 3077 H 305.171 3.80194 0.152682 0
M  V30 3078 H 304.683 3.51322 -1.64908 0
M  V30 3079 H 302.784 3.63608 0.813624 0
M  V30 3080 H 302.897 4.7373 -0.715307 0
M  V30 3081 H 301.261 2.53108 -0.28432 0
M  V30 3082 H 302.044 2.84137 -1.92668 0
M  V30 3083 N 304.489 0.459591 1.5075 0
M  V30 3084 C 305.399 -0.34613 2.32033 0
M  V30 3085 C 306.415 -1.00686 1.41909 0
M  V30 3086 O 307.591 -0.997361 1.7497 0
M  V30 3087 C 304.656 -1.42029 3.16273 0
M  V30 3088 C 303.717 -0.777362 4.22203 0
M  V30 3089 C 302.95 -1.80034 5.02418 0
M  V30 3090 O 303.173 -3.02544 4.83553 0
M  V30 3091 O 302.107 -1.37853 5.85901 0
M  V30 3092 H 305.933 0.318054 3.0203 0
M  V30 3093 H 303.518 0.221663 1.47746 0
M  V30 3094 H 305.4 -2.04275 3.68578 0
M  V30 3095 H 304.075 -2.06815 2.49016 0
M  V30 3096 H 302.982 -0.116256 3.73919 0
M  V30 3097 H 304.315 -0.172634 4.91897 0
M  V30 3098 N 305.967 -1.56429 0.191757 0
M  V30 3099 C 306.917 -2.15548 -0.743184 0
M  V30 3100 C 307.901 -1.09531 -1.17863 0
M  V30 3101 O 309.093 -1.35602 -1.13759 0
M  V30 3102 C 306.222 -2.81577 -1.96391 0
M  V30 3103 C 305.308 -3.9478 -1.54951 0
M  V30 3104 N 305.699 -4.98677 -0.845876 0
M  V30 3105 C 303.997 -4.06319 -1.83905 0
M  V30 3106 C 304.698 -5.78183 -0.638724 0
M  V30 3107 N 303.674 -5.30495 -1.18643 0
M  V30 3108 H 307.476 -2.9324 -0.196839 0
M  V30 3109 H 304.99 -1.62398 -0.0081603 0
M  V30 3110 H 306.987 -3.22321 -2.64415 0
M  V30 3111 H 305.647 -2.05371 -2.51501 0
M  V30 3112 H 306.658 -5.15464 -0.501704 0
M  V30 3113 H 303.335 -3.41238 -2.40548 0
M  V30 3114 H 304.725 -6.71851 -0.0807929 0
M  V30 3115 N 307.445 0.0818655 -1.57387 0
M  V30 3116 C 308.856 0.634871 -1.75574 0
M  V30 3117 C 309.207 1.78435 -0.815809 0
M  V30 3118 O 308.332 2.164 0.0025366 0
M  V30 3119 C 308.927 1.15845 -3.18379 0
M  V30 3120 C 307.486 1.65741 -3.37945 0
M  V30 3121 C 306.633 0.572549 -2.71325 0
M  V30 3122 H 309.584 -0.144268 -1.58043 0
M  V30 3123 H 309.605 2.02751 -3.21982 0
M  V30 3124 H 309.117 0.321631 -3.86765 0
M  V30 3125 H 307.218 2.51781 -2.74658 0
M  V30 3126 H 307.331 1.74129 -4.46336 0
M  V30 3127 H 305.695 1.01518 -2.33594 0
M  V30 3128 H 306.478 -0.253918 -3.4236 0
M  V30 3129 N 308.923 1.53595 0.353017 0
M  V30 3130 C 310.169 1.70638 1.09593 0
M  V30 3131 C 310.502 0.463286 1.88593 0
M  V30 3132 O 309.777 -0.539597 1.86865 0
M  V30 3133 C 310.06 2.96406 2.04489 0
M  V30 3134 C 309.913 4.30901 1.29014 0
M  V30 3135 C 311.232 3.17812 3.0444 0
M  V30 3136 H 308.351 0.620913 0.397034 0
M  V30 3137 H 310.993 1.86254 0.375446 0
M  V30 3138 H 309.143 2.83223 2.65927 0
M  V30 3139 H 310.815 4.55917 0.702638 0
M  V30 3140 H 309.058 4.29741 0.592071 0
M  V30 3141 H 309.729 5.1506 1.98537 0
M  V30 3142 H 312.205 3.30263 2.53112 0
M  V30 3143 H 311.081 4.07223 3.6805 0
M  V30 3144 H 311.342 2.33669 3.75301 0
M  V30 3145 N 310.401 -0.613514 1.45168 0
M  V30 3146 C 311.65 -1.36874 1.4815 0
M  V30 3147 C 311.963 -1.952 0.124982 0
M  V30 3148 O 313.169 -2.71481 0.0324176 0
M  V30 3149 C 311.625 -2.47905 2.60904 0
M  V30 3150 C 311.233 -1.96016 4.02842 0
M  V30 3151 C 312.977 -3.24965 2.73126 0
M  V30 3152 C 310.884 -3.04494 5.06988 0
M  V30 3153 H 309.814 -0.514428 0.551253 0
M  V30 3154 H 312.465 -0.658182 1.7129 0
M  V30 3155 H 310.847 -3.21618 2.31037 0
M  V30 3156 H 312.021 -1.29051 4.4236 0
M  V30 3157 H 310.336 -1.31719 3.95018 0
M  V30 3158 H 312.933 -4.05865 3.48106 0
M  V30 3159 H 313.276 -3.75588 1.79553 0
M  V30 3160 H 313.809 -2.5835 3.0249 0
M  V30 3161 H 310.548 -2.58795 6.0225 0
M  V30 3162 H 310.068 -3.70044 4.72046 0
M  V30 3163 H 311.747 -3.68976 5.31475 0
M  V30 3164 N 311.879 -1.3236 -0.855495 0
M  V30 3165 C 313.295 -1.11332 -1.14356 0
M  V30 3166 C 313.495 0.106751 -2.01217 0
M  V30 3167 O 312.551 0.791891 -2.39761 0
M  V30 3168 C 313.864 -2.39237 -1.82171 0
M  V30 3169 C 315.412 -2.44986 -1.9481 0
M  V30 3170 C 315.887 -3.7281 -2.66039 0
M  V30 3171 N 317.378 -3.73787 -2.73565 0
M  V30 3172 C 318.113 -4.69394 -3.29327 0
M  V30 3173 N 317.609 -5.75367 -3.85907 0
M  V30 3174 N 319.402 -4.56893 -3.27423 0
M  V30 3175 H 311.553 -2.10586 -0.277027 0
M  V30 3176 H 313.816 -0.929701 -0.185364 0
M  V30 3177 H 313.522 -3.28431 -1.25802 0
M  V30 3178 H 313.396 -2.50134 -2.82335 0
M  V30 3179 H 315.783 -1.56252 -2.50338 0
M  V30 3180 H 315.864 -2.38043 -0.936448 0
M  V30 3181 H 315.508 -4.61918 -2.11174 0
M  V30 3182 H 315.438 -3.77024 -3.67642 0
M  V30 3183 H 317.929 -2.97189 -2.33424 0
M  V30 3184 H 318.242 -6.44378 -4.26611 0
M  V30 3185 H 316.587 -5.79123 -3.84242 0
M  V30 3186 H 319.778 -3.73269 -2.82467 0
M  V30 3187 H 319.951 -5.31577 -3.7058 0
M  V30 3188 N 313.357 1.07166 -1.15556 0
M  V30 3189 C 314.605 1.79443 -0.929764 0
M  V30 3190 C 314.926 1.87246 0.544414 0
M  V30 3191 O 314.196 1.37473 1.39564 0
M  V30 3192 H 312.776 0.664625 -0.341003 0
M  V30 3193 H 315.438 1.29499 -1.45657 0
M  V30 3194 H 314.534 2.81832 -1.34079 0
M  V30 3195 N 314.835 0.952656 1.25548 0
M  V30 3196 C 316.063 0.623496 1.97282 0
M  V30 3197 C 316.478 -0.803987 1.70826 0
M  V30 3198 O 315.835 -1.53755 0.983147 0
M  V30 3199 C 315.886 0.870209 3.5087 0
M  V30 3200 O 315.607 2.24156 3.76412 0
M  V30 3201 C 317.108 0.553164 4.39835 0
M  V30 3202 H 314.328 0.233931 0.628902 0
M  V30 3203 H 316.872 1.27649 1.59768 0
M  V30 3204 H 315.027 0.263652 3.86502 0
M  V30 3205 H 315.441 2.31021 4.70882 0
M  V30 3206 H 316.915 0.776342 5.46513 0
M  V30 3207 H 317.392 -0.512215 4.36203 0
M  V30 3208 H 317.998 1.13896 4.09766 0
M  V30 3209 N 316.313 -1.40141 0.720998 0
M  V30 3210 C 317.538 -2.05618 0.271258 0
M  V30 3211 C 317.963 -1.53978 -1.08039 0
M  V30 3212 O 317.321 -0.677463 -1.68167 0
M  V30 3213 C 317.369 -3.59609 0.267197 0
M  V30 3214 O 316.473 -4.05526 -0.749814 0
M  V30 3215 H 315.814 -0.651904 0.126162 0
M  V30 3216 H 318.344 -1.79439 0.982997 0
M  V30 3217 H 318.354 -4.0786 0.106744 0
M  V30 3218 H 317.029 -3.96559 1.25354 0
M  V30 3219 H 315.606 -3.68722 -0.556644 0
M  V30 3220 N 317.792 -0.46758 -1.50504 0
M  V30 3221 C 318.755 0.317059 -2.26996 0
M  V30 3222 C 319.755 0.923513 -1.31635 0
M  V30 3223 O 320.945 0.793239 -1.55091 0
M  V30 3224 C 318.077 1.45134 -3.08462 0
M  V30 3225 H 319.27 -0.353723 -2.97807 0
M  V30 3226 H 316.823 -0.221545 -1.54722 0
M  V30 3227 H 317.558 2.15728 -2.4214 0
M  V30 3228 H 317.343 1.02232 -3.78538 0
M  V30 3229 H 318.833 2.00493 -3.66323 0
M  V30 3230 N 319.27 1.56325 -0.20005 0
M  V30 3231 C 320.218 2.20666 0.735482 0
M  V30 3232 C 321.212 1.17934 1.21605 0
M  V30 3233 O 322.418 1.36068 1.17837 0
M  V30 3234 H 318.793 0.70725 0.255542 0
M  V30 3235 H 320.764 2.9792 0.169166 0
M  V30 3236 C 319.513 2.88391 1.94232 0
M  V30 3237 H 318.836 3.67185 1.58161 0
M  V30 3238 H 320.276 3.3684 2.57517 0
M  V30 3239 C 318.735 1.89692 2.78421 0
M  V30 3240 O 319.265 1.40032 3.76502 0
M  V30 3241 N 317.471 1.57813 2.44015 0
M  V30 3242 H 317.018 1.9839 1.64314 0
M  V30 3243 H 316.976 0.920325 3.00628 0
M  V30 3244 N 320.748 -0.0735177 1.57428 0
M  V30 3245 C 322.159 -0.625551 1.75908 0
M  V30 3246 C 322.51 -1.78 0.825261 0
M  V30 3247 O 321.635 -2.16398 0.00893964 0
M  V30 3248 C 322.23 -1.14155 3.18989 0
M  V30 3249 C 320.789 -1.63946 3.38819 0
M  V30 3250 C 319.936 -0.558151 2.71625 0
M  V30 3251 H 322.887 0.152647 1.57964 0
M  V30 3252 H 322.908 -2.0104 3.23053 0
M  V30 3253 H 322.42 -0.301116 3.8693 0
M  V30 3254 H 320.521 -2.50321 2.7599 0
M  V30 3255 H 320.634 -1.71759 4.47253 0
M  V30 3256 H 318.998 -1.00278 2.34129 0
M  V30 3257 H 319.781 0.272071 3.4222 0
M  V30 3258 N 322.226 -1.5378 -0.344866 0
M  V30 3259 C 323.503 -1.61589 -1.10219 0
M  V30 3260 C 323.883 -0.436316 -2.06542 0
M  V30 3261 O 323.231 0.571543 -2.21237 0
M  V30 3262 C 323.441 -2.97602 -1.82301 0
M  V30 3263 C 324.789 -3.5291 -2.36093 0
M  V30 3264 O 325.813 -2.99768 -1.924 0
M  V30 3265 O 324.672 -4.45859 -3.16026 0
M  V30 3266 H 321.766 -0.653522 -0.506792 0
M  V30 3267 H 324.312 -1.66126 -0.346465 0
M  V30 3268 H 323.084 -3.74893 -1.12121 0
M  V30 3269 H 322.707 -2.9665 -2.64735 0
M  V30 3270 N 323.704 0.605807 -1.45491 0
M  V30 3271 C 324.932 1.39136 -1.5313 0
M  V30 3272 C 325.347 1.88082 -0.164507 0
M  V30 3273 O 324.704 1.62316 0.834247 0
M  V30 3274 C 324.755 2.59463 -2.51716 0
M  V30 3275 O 324.476 2.12551 -3.83084 0
M  V30 3276 C 325.977 3.52301 -2.6907 0
M  V30 3277 H 323.197 0.425849 -0.51855 0
M  V30 3278 H 325.741 0.73865 -1.90694 0
M  V30 3279 H 323.896 3.20772 -2.17219 0
M  V30 3280 H 324.31 2.90744 -4.36541 0
M  V30 3281 H 325.784 4.33271 -3.42024 0
M  V30 3282 H 326.261 4.02757 -1.75167 0
M  V30 3283 H 326.867 2.96845 -3.04571 0
M  V30 3284 N 325.182 1.32811 0.848464 0
M  V30 3285 C 326.412 1.26556 1.63301 0
M  V30 3286 C 326.82 -0.1676 1.88456 0
M  V30 3287 O 326.163 -1.11713 1.45828 0
M  V30 3288 C 326.225 1.96202 3.01239 0
M  V30 3289 C 325.889 3.45528 2.99098 0
M  V30 3290 C 326.886 4.40903 2.75501 0
M  V30 3291 C 324.571 3.87558 3.19537 0
M  V30 3292 C 326.565 5.76282 2.72356 0
M  V30 3293 C 324.252 5.23044 3.16019 0
M  V30 3294 C 325.25 6.17217 2.92458 0
M  V30 3295 O 324.938 7.50223 2.88825 0
M  V30 3296 H 324.67 0.43771 0.515156 0
M  V30 3297 H 327.224 1.7559 1.0657 0
M  V30 3298 H 325.454 1.41746 3.59785 0
M  V30 3299 H 327.143 1.83573 3.62016 0
M  V30 3300 H 327.909 4.09756 2.5947 0
M  V30 3301 H 323.788 3.14674 3.369 0
M  V30 3302 H 327.332 6.4976 2.53886 0
M  V30 3303 H 323.229 5.53818 3.31596 0
M  V30 3304 H 323.997 7.59657 3.04735 0
M  V30 3305 N 326.66 -1.06551 1.16123 0
M  V30 3306 C 327.907 -1.79302 0.941126 0
M  V30 3307 C 328.235 -1.87105 -0.531235 0
M  V30 3308 O 327.49 -1.35692 -1.41018 0
M  V30 3309 C 327.789 -3.23911 1.51052 0
M  V30 3310 C 327.455 -3.36193 3.00475 0
M  V30 3311 C 326.117 -3.39252 3.41265 0
M  V30 3312 C 328.469 -3.38326 3.96465 0
M  V30 3313 C 325.797 -3.42057 4.76669 0
M  V30 3314 C 328.149 -3.4267 5.31752 0
M  V30 3315 C 326.813 -3.4401 5.72026 0
M  V30 3316 H 326.083 -0.656111 0.344382 0
M  V30 3317 H 328.73 -1.25325 1.44796 0
M  V30 3318 H 327.035 -3.80723 0.925063 0
M  V30 3319 H 328.732 -3.78793 1.31593 0
M  V30 3320 H 325.322 -3.34516 2.6795 0
M  V30 3321 H 329.506 -3.35176 3.6602 0
M  V30 3322 H 324.762 -3.41398 5.07206 0
M  V30 3323 H 328.936 -3.43268 6.05921 0
M  V30 3324 H 326.563 -3.45937 6.76928 0
M  V30 3325 N 328.138 -0.959301 -1.25041 0
M  V30 3326 C 329.07 -0.440543 -2.24926 0
M  V30 3327 C 330.083 0.446131 -1.56568 0
M  V30 3328 O 331.272 0.253657 -1.76689 0
M  V30 3329 C 328.372 0.38412 -3.36716 0
M  V30 3330 C 327.545 -0.490658 -4.34639 0
M  V30 3331 C 326.604 0.276587 -5.25473 0
M  V30 3332 O 325.63 -0.326614 -5.68262 0
M  V30 3333 N 326.832 1.56844 -5.5891 0
M  V30 3334 H 329.597 -1.29931 -2.70071 0
M  V30 3335 H 327.158 -0.830181 -1.38995 0
M  V30 3336 H 329.15 0.905228 -3.94446 0
M  V30 3337 H 327.72 1.14377 -2.90924 0
M  V30 3338 H 326.94 -1.19282 -3.7572 0
M  V30 3339 H 328.228 -1.08756 -4.97041 0
M  V30 3340 H 327.626 2.08036 -5.26059 0
M  V30 3341 H 326.183 2.03541 -6.19205 0
M  V30 3342 N 329.616 1.39756 -0.72842 0
M  V30 3343 C 330.841 2.05472 -0.282159 0
M  V30 3344 C 331.266 1.54549 1.07221 0
M  V30 3345 O 330.624 0.686372 1.67805 0
M  V30 3346 C 330.672 3.59462 -0.286264 0
M  V30 3347 O 329.776 4.05918 0.728298 0
M  V30 3348 H 329.117 0.651226 -0.129618 0
M  V30 3349 H 331.647 1.78915 -0.992499 0
M  V30 3350 H 331.657 4.07798 -0.128373 0
M  V30 3351 H 330.332 3.95889 -1.27456 0
M  V30 3352 H 328.909 3.69012 0.537081 0
M  V30 3353 N 331.094 0.475555 1.50254 0
M  V30 3354 C 332.51 0.12997 1.5907 0
M  V30 3355 C 332.71 -1.36385 1.48328 0
M  V30 3356 O 331.766 -2.13754 1.34407 0
M  V30 3357 C 333.079 0.684139 2.92814 0
M  V30 3358 C 334.627 0.647965 3.0622 0
M  V30 3359 C 335.102 1.17975 4.42545 0
M  V30 3360 N 336.593 1.13936 4.48969 0
M  V30 3361 C 337.328 1.52129 5.52851 0
M  V30 3362 N 336.824 1.97793 6.63965 0
M  V30 3363 N 338.617 1.43704 5.4342 0
M  V30 3364 H 330.768 1.44706 1.55479 0
M  V30 3365 H 333.031 0.598691 0.735033 0
M  V30 3366 H 332.737 1.73079 3.06164 0
M  V30 3367 H 332.611 0.130204 3.76975 0
M  V30 3368 H 334.998 -0.38979 2.92514 0
M  V30 3369 H 335.079 1.23876 2.23805 0
M  V30 3370 H 334.723 2.21616 4.57 0
M  V30 3371 H 334.653 0.565138 5.23559 0
M  V30 3372 H 337.144 0.804488 3.69238 0
M  V30 3373 H 337.457 2.25072 7.39299 0
M  V30 3374 H 335.802 2.01749 6.65073 0
M  V30 3375 H 338.993 1.07867 4.55502 0
M  V30 3376 H 339.166 1.73794 6.24259 0
M  V30 3377 N 332.573 -1.56217 0.208337 0
M  V30 3378 C 333.483 -2.23316 -0.718836 0
M  V30 3379 C 334.499 -1.23648 -1.22422 0
M  V30 3380 O 335.675 -1.56423 -1.26861 0
M  V30 3381 C 332.74 -2.88968 -1.91568 0
M  V30 3382 C 331.801 -4.03943 -1.45357 0
M  V30 3383 C 331.034 -4.66455 -2.59337 0
M  V30 3384 O 331.257 -4.27919 -3.77149 0
M  V30 3385 O 330.191 -5.55686 -2.31293 0
M  V30 3386 H 334.017 -3.03182 -0.177315 0
M  V30 3387 H 331.602 -1.49384 -0.0215402 0
M  V30 3388 H 333.484 -3.30455 -2.61491 0
M  V30 3389 H 332.159 -2.12071 -2.44556 0
M  V30 3390 H 331.066 -3.67052 -0.722746 0
M  V30 3391 H 332.399 -4.82543 -0.970219 0
M  V30 3392 N 334.051 0.0651679 -1.57465 0
M  V30 3393 C 335.014 1.06117 -2.03155 0
M  V30 3394 C 336.014 1.31204 -0.929632 0
M  V30 3395 O 337.204 1.26813 -1.19432 0
M  V30 3396 C 334.336 2.4032 -2.41783 0
M  V30 3397 H 335.529 0.667231 -2.92383 0
M  V30 3398 H 333.082 0.311075 -1.53173 0
M  V30 3399 H 333.817 2.84532 -1.55601 0
M  V30 3400 H 333.602 2.23451 -3.22199 0
M  V30 3401 H 335.092 3.11898 -2.77685 0
M  V30 3402 N 335.529 1.53961 0.336706 0
M  V30 3403 C 336.757 1.75483 1.09605 0
M  V30 3404 C 337.172 0.4972 1.82136 0
M  V30 3405 O 336.529 -0.53149 1.74589 0
M  V30 3406 C 336.58 2.93943 2.10428 0
M  V30 3407 O 336.301 4.14842 1.40846 0
M  V30 3408 C 337.802 3.27571 2.98684 0
M  V30 3409 H 335.022 0.586166 0.326574 0
M  V30 3410 H 337.566 2.00808 0.38683 0
M  V30 3411 H 335.721 2.70929 2.76905 0
M  V30 3412 H 336.135 4.81383 2.08255 0
M  V30 3413 H 337.609 4.13791 3.6535 0
M  V30 3414 H 338.086 2.44168 3.65074 0
M  V30 3415 H 338.692 3.52615 2.37787 0
M  V30 3416 N 337.007 -0.598083 1.45811 0
M  V30 3417 C 337.955 -1.72932 1.55555 0
M  V30 3418 C 338.949 -1.63984 0.424921 0
M  V30 3419 O 340.155 -1.69663 0.601205 0
M  V30 3420 H 336.53 -0.571489 0.488779 0
M  V30 3421 H 338.501 -1.61842 2.50699 0
M  V30 3422 C 337.25 -3.11318 1.54843 0
M  V30 3423 H 336.573 -3.18867 2.41172 0
M  V30 3424 H 338.013 -3.90274 1.65717 0
M  V30 3425 C 336.472 -3.3578 0.274427 0
M  V30 3426 O 337.002 -3.9654 -0.641778 0
M  V30 3427 N 335.208 -2.90119 0.167139 0
M  V30 3428 H 334.755 -2.40855 0.913596 0
M  V30 3429 H 334.713 -3.0686 -0.684435 0
M  V30 3430 N 338.485 -1.33259 -0.841409 0
M  V30 3431 C 339.896 -1.22066 -1.41269 0
M  V30 3432 C 340.247 0.161479 -1.95534 0
M  V30 3433 O 339.372 1.06094 -1.88608 0
M  V30 3434 C 339.967 -2.20996 -2.568 0
M  V30 3435 C 338.526 -2.13649 -3.09888 0
M  V30 3436 C 337.673 -2.08623 -1.82679 0
M  V30 3437 H 340.624 -1.44895 -0.647395 0
M  V30 3438 H 340.645 -1.81621 -3.34356 0
M  V30 3439 H 340.157 -3.2158 -2.17274 0
M  V30 3440 H 338.258 -1.16359 -3.53965 0
M  V30 3441 H 338.371 -3.04079 -3.70234 0
M  V30 3442 H 336.735 -1.54061 -2.02824 0
M  V30 3443 H 337.518 -3.1101 -1.45353 0
M  V30 3444 N 339.963 1.05934 -1.16686 0
M  V30 3445 C 341.209 1.79211 -0.962023 0
M  V30 3446 C 341.564 1.85667 0.504545 0
M  V30 3447 O 340.857 1.33991 1.36956 0
M  V30 3448 C 341.051 3.23105 -1.52767 0
M  V30 3449 C 340.88 3.30673 -3.04771 0
M  V30 3450 C 339.65 3.40395 -3.73442 0
M  V30 3451 C 341.848 3.20234 -4.02436 0
M  V30 3452 N 339.83 3.37015 -5.13122 0
M  V30 3453 C 341.201 3.24138 -5.28521 0
M  V30 3454 C 343.256 3.04143 -3.9421 0
M  V30 3455 C 341.959 3.13607 -6.47336 0
M  V30 3456 C 343.985 2.94951 -5.12599 0
M  V30 3457 C 343.347 2.99481 -6.37566 0
M  V30 3458 H 339.446 0.668442 -0.405844 0
M  V30 3459 H 342.03 1.26341 -1.48142 0
M  V30 3460 H 340.201 3.74364 -1.03471 0
M  V30 3461 H 341.933 3.84579 -1.26021 0
M  V30 3462 H 338.688 3.45344 -3.2409 0
M  V30 3463 H 339.112 3.38815 -5.86117 0
M  V30 3464 H 343.754 2.99484 -2.98445 0
M  V30 3465 H 341.472 3.17022 -7.43319 0
M  V30 3466 H 345.058 2.83583 -5.08008 0
M  V30 3467 H 343.938 2.92431 -7.27636 0
M  V30 3468 N 341.441 0.965919 1.2453 0
M  V30 3469 C 342.671 0.643451 1.96324 0
M  V30 3470 C 343.079 -0.790927 1.71875 0
M  V30 3471 O 342.422 -1.54208 0.998273 0
M  V30 3472 C 342.484 0.836078 3.49643 0
M  V30 3473 C 342.148 2.24975 3.97788 0
M  V30 3474 C 343.145 3.22735 4.07601 0
M  V30 3475 C 340.83 2.57697 4.31158 0
M  V30 3476 C 342.824 4.51303 4.50116 0
M  V30 3477 C 340.511 3.86492 4.73357 0
M  V30 3478 C 341.509 4.83107 4.828 0
M  V30 3479 O 341.197 6.09605 5.24058 0
M  V30 3480 H 340.929 0.239223 0.632257 0
M  V30 3481 H 343.483 1.29587 1.59362 0
M  V30 3482 H 341.713 0.12649 3.86493 0
M  V30 3483 H 343.402 0.512965 4.02646 0
M  V30 3484 H 344.168 2.98783 3.82039 0
M  V30 3485 H 340.047 1.83216 4.23028 0
M  V30 3486 H 343.591 5.26716 4.57401 0
M  V30 3487 H 339.488 4.10245 4.98366 0
M  V30 3488 H 340.256 6.13146 5.42213 0
M  V30 3489 N 342.919 -1.39368 0.735821 0
M  V30 3490 C 343.867 -2.32443 0.0855131 0
M  V30 3491 C 344.861 -1.53104 -0.724954 0
M  V30 3492 O 346.067 -1.68762 -0.626047 0
M  V30 3493 H 342.442 -0.751948 0.00885257 0
M  V30 3494 H 344.413 -2.84916 0.886883 0
M  V30 3495 C 343.162 -3.38206 -0.806983 0
M  V30 3496 H 342.485 -3.99335 -0.19274 0
M  V30 3497 H 343.925 -4.05779 -1.2296 0
M  V30 3498 C 342.384 -2.75321 -1.94165 0
M  V30 3499 O 342.914 -2.63231 -3.03435 0
M  V30 3500 N 341.12 -2.33396 -1.73132 0
M  V30 3501 H 340.667 -2.4343 -0.842596 0
M  V30 3502 H 340.625 -1.91661 -2.49225 0
M  V30 3503 N 344.397 -0.483516 -1.5 0
M  V30 3504 C 345.36 0.292965 -2.2732 0
M  V30 3505 C 346.36 0.909499 -1.32608 0
M  V30 3506 O 347.55 0.776745 -1.55924 0
M  V30 3507 C 344.682 1.41854 -3.09984 0
M  V30 3508 H 345.875 -0.385289 -2.97415 0
M  V30 3509 H 343.428 -0.237942 -1.54478 0
M  V30 3510 H 344.163 2.13148 -2.44414 0
M  V30 3511 H 343.948 0.982114 -3.79601 0
M  V30 3512 H 345.438 1.96597 -3.68429 0
M  V30 3513 N 345.875 1.56104 -0.216619 0
M  V30 3514 C 347.121 1.98466 0.417033 0
M  V30 3515 C 347.454 1.10403 1.59765 0
M  V30 3516 O 346.729 0.160632 1.93836 0
M  V30 3517 C 347.012 3.49769 0.85637 0
M  V30 3518 C 346.865 4.48606 -0.327546 0
M  V30 3519 C 348.184 4.05339 1.7143 0
M  V30 3520 H 345.303 0.721551 0.150112 0
M  V30 3521 H 347.945 1.87423 -0.311864 0
M  V30 3522 H 346.095 3.5931 1.47745 0
M  V30 3523 H 347.767 4.5108 -0.965618 0
M  V30 3524 H 346.01 4.22682 -0.975805 0
M  V30 3525 H 346.681 5.51995 0.0227149 0
M  V30 3526 H 349.157 3.98712 1.19031 0
M  V30 3527 H 348.033 5.11533 1.99061 0
M  V30 3528 H 348.294 3.51918 2.67593 0
M  V30 3529 N 347.353 -0.0568162 1.57498 0
M  V30 3530 C 348.583 -0.764515 1.91934 0
M  V30 3531 C 348.991 -1.70877 0.81227 0
M  V30 3532 O 348.334 -1.82351 -0.222213 0
M  V30 3533 C 348.396 -1.5994 3.21962 0
M  V30 3534 C 348.06 -0.822925 4.4953 0
M  V30 3535 C 349.057 -0.135464 5.19723 0
M  V30 3536 C 346.742 -0.785666 4.96117 0
M  V30 3537 C 348.736 0.578861 6.34766 0
M  V30 3538 C 346.423 -0.0675784 6.11063 0
M  V30 3539 C 347.421 0.613471 6.80239 0
M  V30 3540 O 347.109 1.31996 7.92989 0
M  V30 3541 H 346.841 -0.221647 0.63863 0
M  V30 3542 H 349.395 -0.0268218 2.05382 0
M  V30 3543 H 347.625 -2.38026 3.04763 0
M  V30 3544 H 349.314 -2.18715 3.41934 0
M  V30 3545 H 350.08 -0.155458 4.84751 0
M  V30 3546 H 345.959 -1.30524 4.42136 0
M  V30 3547 H 349.503 1.111 6.88696 0
M  V30 3548 H 345.4 -0.0455636 6.45484 0
M  V30 3549 H 346.168 1.23077 8.09194 0
M  V30 3550 N 348.832 -1.54138 -0.328536 0
M  V30 3551 C 350.109 -1.62749 -1.08499 0
M  V30 3552 C 350.489 -0.458198 -2.06067 0
M  V30 3553 O 349.837 0.548046 -2.2183 0
M  V30 3554 C 350.047 -2.99519 -1.79135 0
M  V30 3555 C 351.395 -3.55394 -2.32337 0
M  V30 3556 O 352.419 -3.01792 -1.89209 0
M  V30 3557 O 351.278 -4.49186 -3.11279 0
M  V30 3558 H 348.372 -0.65886 -0.499832 0
M  V30 3559 H 350.918 -1.66484 -0.328826 0
M  V30 3560 H 349.69 -3.76061 -1.08139 0
M  V30 3561 H 349.313 -2.99441 -2.61574 0
M  V30 3562 N 350.31 0.590341 -1.46126 0
M  V30 3563 C 351.26 1.69466 -1.5253 0
M  V30 3564 C 352.244 1.56179 -0.386917 0
M  V30 3565 O 353.436 1.65223 -0.634858 0
M  V30 3566 C 350.565 3.08245 -1.5113 0
M  V30 3567 C 349.651 3.26856 -2.70233 0
M  V30 3568 N 350.042 3.15657 -3.95214 0
M  V30 3569 C 348.34 3.57775 -2.66296 0
M  V30 3570 C 349.041 3.36066 -4.74799 0
M  V30 3571 N 348.017 3.60865 -4.06543 0
M  V30 3572 H 351.819 1.59326 -2.46966 0
M  V30 3573 H 349.333 0.79414 -1.41659 0
M  V30 3574 H 351.33 3.87492 -1.53804 0
M  V30 3575 H 349.99 3.19521 -0.577636 0
M  V30 3576 H 351.001 2.93686 -4.26578 0
M  V30 3577 H 347.678 3.75782 -1.81918 0
M  V30 3578 H 349.068 3.32655 -5.83772 0
M  V30 3579 N 351.788 1.33704 0.83433 0
M  V30 3580 C 353.034 1.25603 1.59222 0
M  V30 3581 C 353.367 -0.176659 1.93395 0
M  V30 3582 O 352.642 -1.11915 1.59076 0
M  V30 3583 C 352.925 2.13576 2.89926 0
M  V30 3584 C 352.778 3.65326 2.62406 0
M  V30 3585 C 354.097 2.01238 3.91397 0
M  V30 3586 H 351.216 0.457613 0.577719 0
M  V30 3587 H 353.858 1.63848 0.961972 0
M  V30 3588 H 352.008 1.8109 3.43713 0
M  V30 3589 H 353.68 4.08124 2.15017 0
M  V30 3590 H 351.923 3.8698 1.96033 0
M  V30 3591 H 352.594 4.22232 3.55562 0
M  V30 3592 H 355.07 2.29738 3.46929 0
M  V30 3593 H 353.946 2.65036 4.80673 0
M  V30 3594 H 354.207 0.985951 4.30966 0
M  V30 3595 N 353.266 -1.05314 1.17247 0
M  V30 3596 C 354.176 -2.16538 0.90268 0
M  V30 3597 C 355.192 -1.73523 -0.128707 0
M  V30 3598 O 356.368 -2.01337 0.0502701 0
M  V30 3599 C 353.433 -3.44167 0.418356 0
M  V30 3600 C 352.494 -4.01635 1.51618 0
M  V30 3601 C 351.727 -5.23171 1.05487 0
M  V30 3602 O 351.95 -5.70327 -0.0914715 0
M  V30 3603 O 350.884 -5.72848 1.8474 0
M  V30 3604 H 354.71 -2.42145 1.83302 0
M  V30 3605 H 352.295 -1.15037 0.953246 0
M  V30 3606 H 354.177 -4.21112 0.155726 0
M  V30 3607 H 352.852 -3.20063 -0.48385 0
M  V30 3608 H 351.759 -3.26135 1.83268 0
M  V30 3609 H 353.092 -4.30053 2.39405 0
M  V30 3610 N 354.744 -0.972509 -1.24016 0
M  V30 3611 C 355.676 -0.464375 -2.24446 0
M  V30 3612 C 356.689 0.4295 -1.57032 0
M  V30 3613 O 357.878 0.234902 -1.76948 0
M  V30 3614 C 354.978 0.348385 -3.37105 0
M  V30 3615 C 354.151 -0.53673 -4.34094 0
M  V30 3616 C 353.21 0.220838 -5.25736 0
M  V30 3617 O 352.236 -0.386867 -5.67884 0
M  V30 3618 N 353.438 1.50907 -5.60542 0
M  V30 3619 H 356.203 -1.32788 -2.68677 0
M  V30 3620 H 353.764 -0.844877 -1.38107 0
M  V30 3621 H 355.756 0.863341 -3.95384 0
M  V30 3622 H 354.326 1.11285 -2.92121 0
M  V30 3623 H 353.546 -1.23261 -3.74433 0
M  V30 3624 H 354.834 -1.14022 -4.95859 0
M  V30 3625 H 354.232 2.02444 -5.28236 0
M  V30 3626 H 352.789 1.96962 -6.21329 0
M  V30 3627 N 356.222 1.38976 -0.743202 0
M  V30 3628 C 357.185 2.28901 -0.117014 0
M  V30 3629 C 358.185 1.46698 0.658503 0
M  V30 3630 O 359.375 1.67274 0.486305 0
M  V30 3631 C 356.507 3.30309 0.84315 0
M  V30 3632 H 357.7 2.8578 -0.909373 0
M  V30 3633 H 355.253 1.47761 -0.509547 0
M  V30 3634 H 355.988 2.785 1.66157 0
M  V30 3635 H 355.773 3.91029 0.289594 0
M  V30 3636 H 357.263 3.97577 1.2776 0
M  V30 3637 N 357.7 0.491464 1.49741 0
M  V30 3638 C 358.633 -0.338464 2.25676 0
M  V30 3639 C 359.611 -0.978676 1.29849 0
M  V30 3640 O 360.795 -1.01064 1.59117 0
M  V30 3641 C 357.922 -1.47588 3.04853 0
M  V30 3642 C 356.968 -0.951 4.15762 0
M  V30 3643 S 357.801 0.150626 5.35288 0
M  V30 3644 C 358.957 -0.990178 6.18018 0
M  V30 3645 H 359.19 0.306068 2.9572 0
M  V30 3646 H 356.723 0.276622 1.51902 0
M  V30 3647 H 358.681 -2.12764 3.51058 0
M  V30 3648 H 357.342 -2.09199 2.34296 0
M  V30 3649 H 356.535 -1.80311 4.70642 0
M  V30 3650 H 356.137 -0.376607 3.72099 0
M  V30 3651 H 358.429 -1.89748 6.50386 0
M  V30 3652 H 359.372 -0.480205 7.0647 0
M  V30 3653 H 359.78 -1.25321 5.50413 0
M  V30 3654 N 359.178 -1.55987 0.224894 0
M  V30 3655 C 360.126 -2.21808 -0.700283 0
M  V30 3656 C 361.12 -1.19854 -1.19714 0
M  V30 3657 O 362.326 -1.37925 -1.15658 0
M  V30 3658 H 358.701 -0.711226 -0.244258 0
M  V30 3659 H 360.672 -2.98152 -0.121749 0
M  V30 3660 C 359.421 -2.91444 -1.8962 0
M  V30 3661 H 358.744 -3.69655 -1.52299 0
M  V30 3662 H 360.184 -3.40894 -2.52125 0
M  V30 3663 C 358.643 -1.94098 -2.75368 0
M  V30 3664 O 359.173 -1.46004 -3.74227 0
M  V30 3665 N 357.379 -1.61675 -2.41474 0
M  V30 3666 H 356.926 -2.00979 -1.61137 0
M  V30 3667 H 356.884 -0.968036 -2.99126 0
M  V30 3668 N 360.656 0.0484629 -1.57525 0
M  V30 3669 C 361.933 0.777447 -1.79486 0
M  V30 3670 C 362.313 1.94597 -0.818251 0
M  V30 3671 O 361.661 2.28047 0.143767 0
M  V30 3672 C 361.871 1.22864 -3.26658 0
M  V30 3673 C 363.219 1.65251 -3.91123 0
M  V30 3674 O 364.243 1.32372 -3.3069 0
M  V30 3675 O 363.102 2.26207 -4.97486 0
M  V30 3676 H 360.196 0.374357 -0.737419 0
M  V30 3677 H 362.742 0.0267359 -1.69679 0
M  V30 3678 H 361.514 0.393589 -3.89316 0
M  V30 3679 H 361.137 2.03996 -3.41279 0
M  V30 3680 N 362.134 1.5431 0.320358 0
M  V30 3681 C 363.381 1.72668 1.05792 0
M  V30 3682 C 363.709 0.502084 1.87908 0
M  V30 3683 O 362.964 -0.516149 1.88771 0
M  V30 3684 C 363.263 2.95639 2.00828 0
M  V30 3685 C 362.929 4.30265 1.34843 0
M  V30 3686 C 361.591 4.66865 1.16578 0
M  V30 3687 C 363.943 5.13801 0.875095 0
M  V30 3688 C 361.271 5.84597 0.496336 0
M  V30 3689 C 363.623 6.32219 0.219463 0
M  V30 3690 C 362.287 6.67495 0.0246915 0
M  V30 3691 H 361.557 0.631837 0.387121 0
M  V30 3692 H 364.204 1.88552 0.334735 0
M  V30 3693 H 362.509 2.74456 2.79609 0
M  V30 3694 H 364.206 3.07038 2.57932 0
M  V30 3695 H 360.796 4.01472 1.50061 0
M  V30 3696 H 364.98 4.86039 1.00398 0
M  V30 3697 H 360.236 6.10486 0.334264 0
M  V30 3698 H 364.41 6.96227 -0.155291 0
M  V30 3699 H 362.037 7.5858 -0.496065 0
M  V30 3700 N 363.613 -0.582584 1.46437 0
M  V30 3701 C 364.838 -1.37168 1.55563 0
M  V30 3702 C 365.263 -1.87061 0.19743 0
M  V30 3703 O 364.621 -1.61572 -0.822451 0
M  V30 3704 C 364.669 -2.53511 2.56446 0
M  V30 3705 O 363.773 -3.54953 2.09958 0
M  V30 3706 H 363.114 -0.408494 0.523477 0
M  V30 3707 H 365.644 -0.706646 1.9201 0
M  V30 3708 H 365.654 -3.00426 2.76058 0
M  V30 3709 H 364.329 -2.16549 3.55076 0
M  V30 3710 H 362.906 -3.14516 2.00334 0
M  V30 3711 N 365.091 -1.34144 -0.827227 0
M  V30 3712 C 366.054 -1.25264 -1.91942 0
M  V30 3713 C 367.054 -0.168866 -1.59911 0
M  V30 3714 O 368.244 -0.421198 -1.69031 0
M  V30 3715 C 365.376 -0.932952 -3.27885 0
M  V30 3716 H 366.569 -2.22357 -2.0124 0
M  V30 3717 H 364.122 -1.1837 -1.0207 0
M  V30 3718 H 364.857 0.0349917 -3.24281 0
M  V30 3719 H 364.642 -1.71682 -3.52516 0
M  V30 3720 H 366.132 -0.895874 -4.07877 0
M  V30 3721 N 366.569 1.04691 -1.17803 0
M  V30 3722 C 367.532 2.10724 -0.901545 0
M  V30 3723 C 368.532 1.6042 0.110437 0
M  V30 3724 O 369.722 1.7377 -0.122303 0
M  V30 3725 C 366.854 3.39084 -0.351409 0
M  V30 3726 H 368.047 2.36686 -1.84174 0
M  V30 3727 H 365.6 1.21015 -0.98919 0
M  V30 3728 H 366.335 3.18782 0.59569 0
M  V30 3729 H 366.12 3.76909 -1.08083 0
M  V30 3730 H 367.61 4.17227 -0.176451 0
M  V30 3731 N 368.047 0.979072 1.23499 0
M  V30 3732 C 369.275 0.665202 1.95915 0
M  V30 3733 C 369.69 -0.767571 1.72493 0
M  V30 3734 O 369.047 -1.51635 1.01554 0
M  V30 3735 C 369.098 0.944438 3.48945 0
M  V30 3736 O 368.819 2.3209 3.71572 0
M  V30 3737 C 370.32 0.646336 4.38563 0
M  V30 3738 H 367.54 0.247218 0.623798 0
M  V30 3739 H 370.084 1.31009 1.57025 0
M  V30 3740 H 368.239 0.345575 3.85856 0
M  V30 3741 H 368.653 2.40957 4.65876 0
M  V30 3742 H 370.127 0.892091 5.44744 0
M  V30 3743 H 370.604 -0.419575 4.37191 0
M  V30 3744 H 371.21 1.22562 4.07258 0
M  V30 3745 N 369.525 -1.3858 0.750561 0
M  V30 3746 C 370.773 -1.99789 0.30477 0
M  V30 3747 C 371.094 -1.59874 -1.11649 0
M  V30 3748 O 370.364 -0.85417 -1.76297 0
M  V30 3749 H 368.944 -0.738902 0.109694 0
M  V30 3750 H 371.606 -1.69391 0.963983 0
M  V30 3751 H 370.702 -3.09952 0.365499 0
M  V30 3752 N 371.003 -0.499398 -1.49478 0
M  V30 3753 C 372.419 -0.155261 -1.58843 0
M  V30 3754 C 372.619 1.34008 -1.50479 0
M  V30 3755 O 371.675 2.11589 -1.37791 0
M  V30 3756 C 372.988 -0.730636 -2.91689 0
M  V30 3757 C 374.536 -0.696599 -3.0515 0
M  V30 3758 C 375.011 -1.25001 -4.40612 0
M  V30 3759 N 376.502 -1.21064 -4.47099 0
M  V30 3760 C 377.237 -1.60905 -5.50361 0
M  V30 3761 N 376.733 -2.08331 -6.60735 0
M  V30 3762 N 378.526 -1.52331 -5.41065 0
M  V30 3763 H 370.677 -1.47162 -1.53158 0
M  V30 3764 H 372.94 -0.610309 -0.725415 0
M  V30 3765 H 372.646 -1.77928 -3.03372 0
M  V30 3766 H 372.52 -0.190161 -3.7672 0
M  V30 3767 H 374.907 0.343204 -2.93097 0
M  V30 3768 H 374.988 -1.2742 -2.21806 0
M  V30 3769 H 374.632 -2.28859 -4.53416 0
M  V30 3770 H 374.562 -0.64836 -5.22593 0
M  V30 3771 H 377.053 -0.863128 -3.67911 0
M  V30 3772 H 377.366 -2.36805 -7.35624 0
M  V30 3773 H 375.711 -2.12304 -6.6178 0
M  V30 3774 H 378.902 -1.151 -4.53729 0
M  V30 3775 H 379.075 -1.83704 -6.21415 0
M  V30 3776 N 372.481 1.55866 -0.233164 0
M  V30 3777 C 373.413 2.18099 0.704668 0
M  V30 3778 C 374.426 1.15334 1.14899 0
M  V30 3779 O 375.615 1.42262 1.07814 0
M  V30 3780 C 372.715 2.7592 1.96777 0
M  V30 3781 C 371.888 4.03969 1.67713 0
M  V30 3782 C 370.947 4.46242 2.78845 0
M  V30 3783 O 369.973 5.12903 2.46818 0
M  V30 3784 N 371.175 4.12886 4.08051 0
M  V30 3785 H 373.94 2.99205 0.172258 0
M  V30 3786 H 371.501 1.61815 -0.0525945 0
M  V30 3787 H 373.493 3.01165 2.70337 0
M  V30 3788 H 372.063 1.99051 2.41034 0
M  V30 3789 H 371.283 3.86459 0.777391 0
M  V30 3790 H 372.571 4.8748 1.4574 0
M  V30 3791 H 371.969 3.59342 4.3691 0
M  V30 3792 H 370.526 4.42997 4.78118 0
M  V30 3793 N 373.959 -0.0401083 1.57549 0
M  V30 3794 C 375.189 -0.744115 1.92734 0
M  V30 3795 C 375.597 -1.70005 0.830348 0
M  V30 3796 O 374.94 -1.82576 -0.20286 0
M  V30 3797 C 375.002 -1.56516 3.2364 0
M  V30 3798 C 374.666 -0.7752 4.50377 0
M  V30 3799 C 375.663 -0.0803326 5.19838 0
M  V30 3800 C 373.348 -0.733002 4.96923 0
M  V30 3801 C 375.342 0.646154 6.34116 0
M  V30 3802 C 373.029 -0.00276321 6.111 0
M  V30 3803 C 374.027 0.685585 6.7955 0
M  V30 3804 O 373.715 1.40399 7.91545 0
M  V30 3805 H 373.447 -0.214861 0.640945 0
M  V30 3806 H 376.001 -0.00503675 2.05399 0
M  V30 3807 H 374.231 -2.3478 3.07271 0
M  V30 3808 H 375.92 -2.15076 3.44234 0
M  V30 3809 H 376.686 -0.104035 4.84888 0
M  V30 3810 H 372.565 -1.25827 4.43496 0
M  V30 3811 H 376.109 1.18398 6.87479 0
M  V30 3812 H 372.006 0.0229012 6.45496 0
M  V30 3813 H 372.774 1.31653 8.07843 0
M  V30 3814 N 375.437 -1.54477 -0.31217 0
M  V30 3815 C 376.369 -1.81011 -1.40598 0
M  V30 3816 C 377.382 -0.692546 -1.47335 0
M  V30 3817 O 378.571 -0.969847 -1.49854 0
M  V30 3818 C 375.671 -1.92307 -2.79054 0
M  V30 3819 C 374.844 -3.22594 -2.95384 0
M  V30 3820 C 373.903 -3.24448 -4.1427 0
M  V30 3821 O 372.929 -3.98035 -4.06887 0
M  V30 3822 N 374.131 -2.49042 -5.24365 0
M  V30 3823 H 376.896 -2.75408 -1.18196 0
M  V30 3824 H 374.457 -1.53914 -0.502202 0
M  V30 3825 H 376.449 -1.90962 -3.56813 0
M  V30 3826 H 375.019 -1.04955 -2.94454 0
M  V30 3827 H 374.239 -3.36806 -2.04831 0
M  V30 3828 H 375.527 -4.08593 -3.03198 0
M  V30 3829 H 374.925 -1.88867 -5.33241 0
M  V30 3830 H 373.482 -2.53463 -6.005 0
M  V30 3831 N 376.915 0.57481 -1.46744 0
M  V30 3832 C 378.326 1.15695 -1.46532 0
M  V30 3833 C 378.677 1.95068 -0.210425 0
M  V30 3834 O 377.802 2.05241 0.685944 0
M  V30 3835 C 378.397 2.1048 -2.65487 0
M  V30 3836 C 376.956 2.64002 -2.68291 0
M  V30 3837 C 376.103 1.40026 -2.39349 0
M  V30 3838 H 379.054 0.362325 -1.54509 0
M  V30 3839 H 379.075 2.94074 -2.41455 0
M  V30 3840 H 378.587 1.52683 -3.56805 0
M  V30 3841 H 376.688 3.25646 -1.81067 0
M  V30 3842 H 376.801 3.06197 -3.68483 0
M  V30 3843 H 375.165 1.70106 -1.89568 0
M  V30 3844 H 375.948 0.840485 -3.32852 0
M  V30 3845 N 378.394 1.34581 0.820102 0
M  V30 3846 C 379.641 1.27096 1.57648 0
M  V30 3847 C 379.969 -0.158317 1.93855 0
M  V30 3848 O 379.224 -1.12028 1.60463 0
M  V30 3849 C 379.523 2.10997 2.8847 0
M  V30 3850 C 379.189 3.59966 2.71543 0
M  V30 3851 C 377.851 4.00575 2.66634 0
M  V30 3852 C 380.203 4.54548 2.55021 0
M  V30 3853 C 377.531 5.33953 2.43128 0
M  V30 3854 C 379.883 5.88109 2.33047 0
M  V30 3855 C 378.547 6.27878 2.26552 0
M  V30 3856 H 377.817 0.465078 0.576874 0
M  V30 3857 H 380.464 1.6635 0.948671 0
M  V30 3858 H 378.769 1.6458 3.55557 0
M  V30 3859 H 380.466 2.0255 3.46084 0
M  V30 3860 H 377.056 3.27733 2.76205 0
M  V30 3861 H 381.24 4.24069 2.57835 0
M  V30 3862 H 376.496 5.63781 2.3656 0
M  V30 3863 H 380.67 6.60985 2.19251 0
M  V30 3864 H 378.297 7.31162 2.081 0
M  V30 3865 N 379.872 -1.04064 1.18357 0
M  V30 3866 C 380.782 -2.15569 0.925596 0
M  V30 3867 C 381.798 -1.7365 -0.110295 0
M  V30 3868 O 382.974 -2.01273 0.0716218 0
M  V30 3869 C 380.039 -3.43704 0.454836 0
M  V30 3870 C 379.1 -4.00004 1.55869 0
M  V30 3871 C 378.333 -5.22023 1.1103 0
M  V30 3872 O 378.556 -5.70392 -0.0309756 0
M  V30 3873 O 377.49 -5.70856 1.90805 0
M  V30 3874 H 381.316 -2.40187 1.8586 0
M  V30 3875 H 378.901 -1.1402 0.965394 0
M  V30 3876 H 380.783 -4.20923 0.200382 0
M  V30 3877 H 379.458 -3.20559 -0.449876 0
M  V30 3878 H 378.365 -3.24172 1.86716 0
M  V30 3879 H 379.698 -4.2749 2.43953 0
M  V30 3880 N 381.35 -0.985608 -1.22978 0
M  V30 3881 C 382.58 -0.674603 -1.95276 0
M  V30 3882 C 382.988 0.763483 -1.73111 0
M  V30 3883 O 382.331 1.52601 -1.02268 0
M  V30 3884 C 382.393 -0.891597 -3.48268 0
M  V30 3885 C 382.057 -2.31275 -3.94158 0
M  V30 3886 C 383.054 -3.29179 -4.02415 0
M  V30 3887 C 380.739 -2.64524 -4.27004 0
M  V30 3888 C 382.733 -4.58407 -4.42879 0
M  V30 3889 C 380.42 -3.93974 -4.67149 0
M  V30 3890 C 381.418 -4.90727 -4.75053 0
M  V30 3891 O 381.106 -6.17865 -5.14294 0
M  V30 3892 H 380.838 -0.249251 -0.628371 0
M  V30 3893 H 383.392 -1.32106 -1.5728 0
M  V30 3894 H 381.622 -0.187962 -3.86243 0
M  V30 3895 H 383.311 -0.576957 -4.01779 0
M  V30 3896 H 384.077 -3.04823 -3.77237 0
M  V30 3897 H 379.956 -1.89923 -4.2006 0
M  V30 3898 H 383.5 -5.33926 -4.48964 0
M  V30 3899 H 379.397 -4.18122 -4.91777 0
M  V30 3900 H 380.165 -6.21694 -5.32389 0
M  V30 3901 N 382.828 1.3818 -0.7579 0
M  V30 3902 C 384.058 2.04004 -0.326463 0
M  V30 3903 C 384.466 1.57286 1.05156 0
M  V30 3904 O 383.809 0.743144 1.67997 0
M  V30 3905 C 383.871 3.58444 -0.275402 0
M  V30 3906 C 383.535 4.28237 -1.59569 0
M  V30 3907 C 384.532 4.53312 -2.54566 0
M  V30 3908 C 382.217 4.66341 -1.86631 0
M  V30 3909 C 384.211 5.15531 -3.74842 0
M  V30 3910 C 381.898 5.28283 -3.0718 0
M  V30 3911 C 382.896 5.52814 -4.01106 0
M  V30 3912 O 382.584 6.13465 -5.19534 0
M  V30 3913 H 382.316 0.662026 -0.136739 0
M  V30 3914 H 384.87 1.7777 -1.02893 0
M  V30 3915 H 383.1 3.83667 0.483337 0
M  V30 3916 H 384.789 4.05701 0.127099 0
M  V30 3917 H 385.555 4.24299 -2.34936 0
M  V30 3918 H 381.434 4.46591 -1.14358 0
M  V30 3919 H 384.978 5.34594 -4.48168 0
M  V30 3920 H 380.875 5.56719 -3.26702 0
M  V30 3921 H 381.643 6.31951 -5.20173 0
M  V30 3922 N 384.306 0.507319 1.49211 0
M  V30 3923 C 385.554 -0.0348839 2.0207 0
M  V30 3924 C 385.875 -1.36898 1.38866 0
M  V30 3925 O 385.145 -1.88133 0.546151 0
M  V30 3926 H 383.725 -0.0158812 0.746831 0
M  V30 3927 H 386.387 0.665998 1.83168 0
M  V30 3928 H 385.483 -0.159917 3.1169 0
M  V30 3929 N 385.784 -1.5574 0.241426 0
M  V30 3930 C 386.734 -2.17803 -0.674233 0
M  V30 3931 C 387.718 -1.13225 -1.14319 0
M  V30 3932 O 388.91 -1.39153 -1.09387 0
M  V30 3933 C 386.039 -2.87682 -1.87333 0
M  V30 3934 C 385.125 -3.99509 -1.42313 0
M  V30 3935 N 385.516 -5.01115 -0.686798 0
M  V30 3936 C 383.814 -4.11964 -1.70885 0
M  V30 3937 C 384.515 -5.79922 -0.454456 0
M  V30 3938 N 383.491 -5.34001 -1.01705 0
M  V30 3939 H 387.293 -2.93718 -0.103447 0
M  V30 3940 H 384.807 -1.62342 0.0435095 0
M  V30 3941 H 386.804 -3.3057 -2.54026 0
M  V30 3942 H 385.464 -2.13269 -2.4484 0
M  V30 3943 H 386.475 -5.16799 -0.337459 0
M  V30 3944 H 383.152 -3.48718 -2.2957 0
M  V30 3945 H 384.542 -6.71768 0.132992 0
M  V30 3946 N 387.262 0.0317525 -1.57568 0
M  V30 3947 C 388.673 0.578692 -1.77505 0
M  V30 3948 C 389.024 1.75749 -0.872164 0
M  V30 3949 O 388.149 2.16298 -0.0663106 0
M  V30 3950 C 388.744 1.05658 -3.21904 0
M  V30 3951 C 387.303 1.54906 -3.43047 0
M  V30 3952 C 386.45 0.485939 -2.73009 0
M  V30 3953 H 389.401 -0.194475 -1.57504 0
M  V30 3954 H 389.422 1.92404 -3.28269 0
M  V30 3955 H 388.934 0.198422 -3.87592 0
M  V30 3956 H 387.035 2.42915 -2.82529 0
M  V30 3957 H 387.148 1.59841 -4.5165 0
M  V30 3958 H 385.512 0.940354 -2.36705 0
M  V30 3959 H 386.295 -0.362709 -3.41379 0
M  V30 3960 N 388.74 1.54641 0.303973 0
M  V30 3961 C 389.672 1.81754 1.39636 0
M  V30 3962 C 390.685 0.70035 1.46966 0
M  V30 3963 O 391.874 0.97778 1.49338 0
M  V30 3964 C 388.974 1.93785 2.7803 0
M  V30 3965 C 388.147 3.24156 2.93669 0
M  V30 3966 C 387.206 3.26641 4.12544 0
M  V30 3967 O 386.232 4.00187 4.04771 0
M  V30 3968 N 387.434 2.5182 5.23036 0
M  V30 3969 H 390.199 2.76031 1.16734 0
M  V30 3970 H 387.76 1.54178 0.494033 0
M  V30 3971 H 389.752 1.92852 3.55795 0
M  V30 3972 H 388.322 1.06515 2.93893 0
M  V30 3973 H 387.542 3.37887 2.03042 0
M  V30 3974 H 388.83 4.10195 3.01027 0
M  V30 3975 H 388.228 1.91692 5.32232 0
M  V30 3976 H 386.785 2.56644 5.99147 0
M  V30 3977 N 390.218 -0.567019 1.47046 0
M  V30 3978 C 391.181 -1.65696 1.58359 0
M  V30 3979 C 392.181 -1.54097 0.459441 0
M  V30 3980 O 393.371 -1.58432 0.724225 0
M  V30 3981 C 390.503 -3.05197 1.51879 0
M  V30 3982 H 391.696 -1.57019 2.5551 0
M  V30 3983 H 389.249 -0.786148 1.3509 0
M  V30 3984 H 389.984 -3.19417 0.560673 0
M  V30 3985 H 389.769 -3.15025 2.33455 0
M  V30 3986 H 391.259 -3.84511 1.62913 0
M  V30 3987 N 391.696 -1.35014 -0.812953 0
M  V30 3988 C 392.606 -1.2951 -1.95613 0
M  V30 3989 C 393.622 -0.20107 -1.72834 0
M  V30 3990 O 394.798 -0.42932 -1.96771 0
M  V30 3991 C 391.863 -1.06033 -3.30088 0
M  V30 3992 C 390.924 -2.24688 -3.65805 0
M  V30 3993 C 390.157 -2.02322 -4.93864 0
M  V30 3994 O 390.38 -0.986464 -5.61805 0
M  V30 3995 O 389.314 -2.89525 -5.27692 0
M  V30 3996 H 393.14 -2.25705 -2.03202 0
M  V30 3997 H 390.725 -1.15321 -0.949811 0
M  V30 3998 H 392.607 -0.94763 -4.10607 0
M  V30 3999 H 391.282 -0.128852 -3.23443 0
M  V30 4000 H 390.189 -2.41521 -2.85689 0
M  V30 4001 H 391.522 -3.16261 -3.77147 0
M  V30 4002 N 393.175 1.03435 -1.18907 0
M  V30 4003 C 394.591 1.28973 -0.940111 0
M  V30 4004 C 394.791 1.97676 0.390691 0
M  V30 4005 O 393.847 2.26127 1.12352 0
M  V30 4006 C 395.16 2.14221 -2.11021 0
M  V30 4007 C 396.708 2.27547 -2.14922 0
M  V30 4008 C 397.183 3.16164 -3.31367 0
M  V30 4009 N 398.674 3.23752 -3.31269 0
M  V30 4010 C 399.409 3.92495 -4.18014 0
M  V30 4011 N 398.905 4.63515 -5.14904 0
M  V30 4012 N 400.698 3.88838 -4.05908 0
M  V30 4013 H 392.849 0.57252 -2.04538 0
M  V30 4014 H 395.112 0.315184 -0.894071 0
M  V30 4015 H 394.818 1.71054 -3.073 0
M  V30 4016 H 394.692 3.14919 -2.0762 0
M  V30 4017 H 397.079 2.69947 -1.19217 0
M  V30 4018 H 397.16 1.26418 -2.22378 0
M  V30 4019 H 396.804 2.74474 -4.27348 0
M  V30 4020 H 396.734 4.17339 -3.21148 0
M  V30 4021 H 399.225 2.73167 -2.61129 0
M  V30 4022 H 399.538 5.13583 -5.77453 0
M  V30 4023 H 397.883 4.62398 -5.18857 0
M  V30 4024 H 401.074 3.32491 -3.29495 0
M  V30 4025 H 401.247 4.4214 -4.73726 0
M  V30 4026 N 394.653 0.992116 1.22453 0
M  V30 4027 C 395.899 0.668523 1.91464 0
M  V30 4028 C 396.232 -0.797313 1.77078 0
M  V30 4029 O 395.507 -1.5765 1.13916 0
M  V30 4030 C 395.79 1.07424 3.43703 0
M  V30 4031 C 395.643 2.59857 3.67143 0
M  V30 4032 C 396.962 0.626891 4.35612 0
M  V30 4033 H 394.081 0.244341 0.695318 0
M  V30 4034 H 396.723 1.2355 1.44345 0
M  V30 4035 H 394.873 0.591816 3.83966 0
M  V30 4036 H 396.545 3.15764 3.3629 0
M  V30 4037 H 394.788 3.01961 3.11451 0
M  V30 4038 H 395.459 2.83296 4.73759 0
M  V30 4039 H 397.935 1.04125 4.02861 0
M  V30 4040 H 396.811 0.939076 5.40807 0
M  V30 4041 H 397.072 -0.472457 4.39568 0
M  V30 4042 N 396.131 -1.37776 0.765217 0
M  V30 4043 C 397.38 -1.99092 0.323307 0
M  V30 4044 C 397.693 -1.61434 -1.10446 0
M  V30 4045 O 398.899 -2.15805 -1.64743 0
M  V30 4046 C 397.355 -3.56019 0.527098 0
M  V30 4047 C 396.963 -4.0262 1.96471 0
M  V30 4048 C 398.707 -4.2424 0.148483 0
M  V30 4049 C 396.614 -5.52233 2.11644 0
M  V30 4050 H 395.544 -0.744846 0.117137 0
M  V30 4051 H 398.195 -1.57391 0.943417 0
M  V30 4052 H 396.577 -3.95667 -0.162372 0
M  V30 4053 H 397.751 -3.74234 2.68859 0
M  V30 4054 H 396.066 -3.47161 2.29931 0
M  V30 4055 H 398.663 -5.34159 0.240456 0
M  V30 4056 H 399.006 -4.06446 -0.900422 0
M  V30 4057 H 399.539 -3.89872 0.79025 0
M  V30 4058 H 396.278 -5.74945 3.1483 0
M  V30 4059 H 395.798 -5.82324 1.4373 0
M  V30 4060 H 397.477 -6.18106 1.91193 0
M  V30 4061 N 397.609 -0.515225 -1.4894 0
M  V30 4062 C 398.858 0.0261361 -2.01683 0
M  V30 4063 C 399.171 1.36719 -1.39883 0
M  V30 4064 O 400.377 1.99606 -1.84037 0
M  V30 4065 C 398.833 0.0970111 -3.59769 0
M  V30 4066 C 398.441 -1.23825 -4.30548 0
M  V30 4067 C 400.185 0.587981 -4.20408 0
M  V30 4068 C 398.092 -1.12877 -5.80528 0
M  V30 4069 H 397.022 0.0135398 -0.753878 0
M  V30 4070 H 399.673 -0.656787 -1.71343 0
M  V30 4071 H 398.055 0.844694 -3.86886 0
M  V30 4072 H 399.229 -2.00034 -4.15118 0
M  V30 4073 H 397.544 -1.66379 -3.81716 0
M  V30 4074 H 400.141 0.68763 -5.3026 0
M  V30 4075 H 400.484 1.59026 -3.84729 0
M  V30 4076 H 401.017 -0.103582 -3.97665 0
M  V30 4077 H 397.756 -2.10575 -6.20756 0
M  V30 4078 H 397.276 -0.407799 -5.98412 0
M  V30 4079 H 398.955 -0.813332 -6.41868 0
M  V30 4080 N 399.087 1.5561 -0.249682 0
M  V30 4081 C 400.017 2.24477 0.642826 0
M  V30 4082 C 400.998 1.22601 1.17911 0
M  V30 4083 O 402.183 1.5126 1.21795 0
M  V30 4084 C 399.313 2.94638 1.83863 0
M  V30 4085 C 398.267 4.03227 1.435 0
M  V30 4086 C 397.593 4.60828 2.71186 0
M  V30 4087 C 398.893 5.18796 0.604002 0
M  V30 4088 H 400.587 2.99321 0.0685625 0
M  V30 4089 H 398.133 1.43965 0.0315363 0
M  V30 4090 H 400.086 3.41517 2.46868 0
M  V30 4091 H 398.81 2.17287 2.43832 0
M  V30 4092 H 397.469 3.57121 0.828275 0
M  V30 4093 H 397.117 3.80174 3.29358 0
M  V30 4094 H 396.817 5.34132 2.44901 0
M  V30 4095 H 398.341 5.10442 3.35084 0
M  V30 4096 H 399.755 5.61883 1.13842 0
M  V30 4097 H 398.152 5.98506 0.437097 0
M  V30 4098 H 399.222 4.83384 -0.383147 0
M  V30 4099 N 400.565 -0.0233959 1.57583 0
M  V30 4100 C 401.498 -1.05549 2.02323 0
M  V30 4101 C 402.476 -1.34843 0.908626 0
M  V30 4102 O 403.66 -1.47404 1.17491 0
M  V30 4103 C 400.787 -2.38885 2.40108 0
M  V30 4104 C 399.833 -2.2541 3.62067 0
M  V30 4105 S 400.666 -1.60217 5.1097 0
M  V30 4106 C 401.822 -2.95032 5.52003 0
M  V30 4107 H 402.055 -0.674435 2.89549 0
M  V30 4108 H 399.588 -0.23355 1.52623 0
M  V30 4109 H 401.546 -3.15562 2.62547 0
M  V30 4110 H 400.207 -2.74137 1.53323 0
M  V30 4111 H 399.4 -3.23854 3.86179 0
M  V30 4112 H 399.002 -1.56876 3.39508 0
M  V30 4113 H 401.294 -3.91357 5.53033 0
M  V30 4114 H 402.237 -2.75646 6.52246 0
M  V30 4115 H 402.645 -2.97865 4.79517 0
M  V30 4116 N 402.043 -1.548 -0.295768 0
M  V30 4117 C 403.291 -1.73985 -1.02828 0
M  V30 4118 C 403.612 -0.531406 -1.87619 0
M  V30 4119 O 402.882 0.454221 -1.90561 0
M  V30 4120 H 401.462 -0.641556 -0.382642 0
M  V30 4121 H 404.124 -1.92163 -0.325489 0
M  V30 4122 H 403.22 -2.63129 -1.67838 0
M  V30 4123 N 403.521 0.559213 -1.47345 0
M  V30 4124 C 404.746 1.34676 -1.57725 0
M  V30 4125 C 405.171 1.86723 -0.227164 0
M  V30 4126 O 404.529 1.6286 0.796642 0
M  V30 4127 C 404.577 2.49399 -2.60447 0
M  V30 4128 O 403.681 3.51567 -2.15578 0
M  V30 4129 H 403.022 0.400115 -0.52991 0
M  V30 4130 H 405.552 0.676009 -1.93109 0
M  V30 4131 H 405.562 2.95996 -2.80803 0
M  V30 4132 H 404.237 2.10873 -3.58477 0
M  V30 4133 H 402.814 3.11289 -2.05313 0
M  V30 4134 N 404.999 1.35443 0.805782 0
M  V30 4135 C 405.962 1.28301 1.89925 0
M  V30 4136 C 406.962 0.194285 1.59622 0
M  V30 4137 O 408.152 0.448036 1.6834 0
M  V30 4138 C 405.284 0.984997 3.2636 0
M  V30 4139 H 406.477 2.2553 1.97677 0
M  V30 4140 H 404.03 1.19979 1.00173 0
M  V30 4141 H 404.765 0.016603 3.24296 0
M  V30 4142 H 404.55 1.77269 3.4974 0
M  V30 4143 H 406.04 0.960651 4.064 0
M  V30 4144 N 406.477 -1.02803 1.19454 0
M  V30 4145 C 407.726 -1.7562 0.991996 0
M  V30 4146 C 408.039 -1.89672 -0.477901 0
M  V30 4147 O 409.245 -2.59468 -0.799287 0
M  V30 4148 C 407.701 -3.15812 1.72601 0
M  V30 4149 C 407.309 -3.0981 3.23607 0
M  V30 4150 C 409.053 -3.92918 1.60674 0
M  V30 4151 C 406.96 -4.44939 3.89594 0
M  V30 4152 H 405.89 -0.658352 0.367543 0
M  V30 4153 H 408.541 -1.15044 1.42959 0
M  V30 4154 H 406.923 -3.7686 1.21624 0
M  V30 4155 H 408.097 -2.58138 3.81709 0
M  V30 4156 H 406.412 -2.46201 3.35819 0
M  V30 4157 H 409.009 -4.9287 2.07323 0
M  V30 4158 H 409.352 -4.12502 0.561025 0
M  V30 4159 H 409.885 -3.38472 2.09001 0
M  V30 4160 H 406.624 -4.30559 4.94267 0
M  V30 4161 H 406.144 -4.96664 3.36281 0
M  V30 4162 H 407.823 -5.1382 3.93189 0
M  V30 4163 N 407.956 -0.998596 -1.21925 0
M  V30 4164 C 409.204 -0.676325 -1.90448 0
M  V30 4165 C 409.525 0.794719 -1.78071 0
M  V30 4166 O 408.795 1.5701 -1.17152 0
M  V30 4167 H 407.375 -0.247165 -0.704925 0
M  V30 4168 H 410.037 -1.26633 -1.48156 0
M  V30 4169 H 409.133 -0.943858 -2.97486 0
M  V30 4170 N 409.434 1.37368 -0.772513 0
M  V30 4171 C 410.662 2.03942 -0.348588 0
M  V30 4172 C 411.077 1.58264 1.02947 0
M  V30 4173 O 410.434 0.764246 1.65727 0
M  V30 4174 C 410.485 3.5946 -0.38351 0
M  V30 4175 O 410.206 4.03468 -1.70721 0
M  V30 4176 C 411.707 4.4327 0.0519152 0
M  V30 4177 H 408.927 0.654931 -0.145966 0
M  V30 4178 H 411.471 1.75686 -1.04665 0
M  V30 4179 H 409.626 3.86486 0.265978 0
M  V30 4180 H 410.04 4.97991 -1.64636 0
M  V30 4181 H 411.514 5.51995 -0.0236733 0
M  V30 4182 H 411.991 4.2514 1.10238 0
M  V30 4183 H 412.597 4.21471 -0.569415 0
M  V30 4184 N 410.912 0.523116 1.48665 0
M  V30 4185 C 412.152 -0.0115588 2.04397 0
M  V30 4186 C 412.516 -1.32225 1.39214 0
M  V30 4187 O 413.717 -1.94253 1.85793 0
M  V30 4188 C 411.988 -0.138119 3.57133 0
M  V30 4189 S 413.547 -0.623849 4.34343 0
M  V30 4190 H 410.365 0.00877706 0.710946 0
M  V30 4191 H 412.967 0.702116 1.82457 0
M  V30 4192 H 411.671 0.820748 4.02109 0
M  V30 4193 H 411.202 -0.876377 3.83514 0
M  V30 4194 H 413.217 -1.8895 4.58816 0
M  V30 4195 N 412.39 -1.55475 0.257931 0
M  V30 4196 C 413.3 -2.2549 -0.647425 0
M  V30 4197 C 414.316 -1.2748 -1.18427 0
M  V30 4198 O 415.492 -1.6038 -1.2182 0
M  V30 4199 C 412.557 -2.94916 -1.82278 0
M  V30 4200 C 411.618 -4.08363 -1.32432 0
M  V30 4201 C 410.851 -4.74469 -2.44366 0
M  V30 4202 O 411.074 -4.39701 -3.63344 0
M  V30 4203 O 410.008 -5.62763 -2.13497 0
M  V30 4204 H 413.834 -3.03593 -0.0807707 0
M  V30 4205 H 411.419 -1.49377 0.0259962 0
M  V30 4206 H 413.301 -3.38606 -2.50846 0
M  V30 4207 H 411.976 -2.19744 -2.37685 0
M  V30 4208 H 410.883 -3.69166 -0.605605 0
M  V30 4209 H 412.216 -4.85385 -0.816211 0
M  V30 4210 N 413.868 0.0150385 -1.57593 0
M  V30 4211 C 414.778 1.02791 -2.10882 0
M  V30 4212 C 415.794 1.38702 -1.0506 0
M  V30 4213 O 416.97 1.47739 -1.36877 0
M  V30 4214 C 414.035 2.30568 -2.58919 0
M  V30 4215 C 413.096 2.01108 -3.79281 0
M  V30 4216 C 412.329 3.22794 -4.25018 0
M  V30 4217 O 412.552 4.33959 -3.70183 0
M  V30 4218 O 411.486 3.07672 -5.17322 0
M  V30 4219 H 415.312 0.604973 -2.97613 0
M  V30 4220 H 412.897 0.23292 -1.47573 0
M  V30 4221 H 414.779 3.05662 -2.90084 0
M  V30 4222 H 413.454 2.72129 -1.75293 0
M  V30 4223 H 412.361 1.23537 -3.53114 0
M  V30 4224 H 413.694 1.64394 -4.63935 0
M  V30 4225 N 415.346 1.54954 0.287554 0
M  V30 4226 C 416.592 1.75132 1.02257 0
M  V30 4227 C 416.925 0.542858 1.86458 0
M  V30 4228 O 416.2 -0.459856 1.88986 0
M  V30 4229 C 416.483 3.04812 1.91733 0
M  V30 4230 C 416.336 4.35985 1.10622 0
M  V30 4231 C 417.655 3.30438 2.90687 0
M  V30 4232 H 414.774 0.637194 0.370341 0
M  V30 4233 H 417.416 1.87678 0.296111 0
M  V30 4234 H 415.566 2.94247 2.53675 0
M  V30 4235 H 417.238 4.58487 0.508636 0
M  V30 4236 H 415.481 4.31865 0.409271 0
M  V30 4237 H 416.152 5.23017 1.76513 0
M  V30 4238 H 418.628 3.40701 2.38877 0
M  V30 4239 H 417.504 4.22467 3.50447 0
M  V30 4240 H 417.765 2.49377 3.65053 0
M  V30 4241 N 416.824 -0.551391 1.4764 0
M  V30 4242 C 418.07 -1.31024 1.54792 0
M  V30 4243 C 418.403 -1.9304 0.211967 0
M  V30 4244 O 417.678 -1.78175 -0.77999 0
M  V30 4245 C 417.961 -2.41593 2.67029 0
M  V30 4246 C 417.814 -1.84408 4.10261 0
M  V30 4247 C 419.133 -3.43488 2.75143 0
M  V30 4248 H 416.252 -0.475031 0.563485 0
M  V30 4249 H 418.894 -0.616454 1.79722 0
M  V30 4250 H 417.044 -3.00772 2.45904 0
M  V30 4251 H 418.716 -1.29445 4.42766 0
M  V30 4252 H 416.959 -1.15051 4.18265 0
M  V30 4253 H 417.63 -2.64367 4.84576 0
M  V30 4254 H 420.106 -2.94236 2.94218 0
M  V30 4255 H 418.982 -4.18274 3.55441 0
M  V30 4256 H 419.243 -4.02703 1.82435 0
M  V30 4257 N 418.302 -1.35869 -0.798587 0
M  V30 4258 C 419.579 -1.20145 -1.54352 0
M  V30 4259 C 419.959 0.216161 -2.0999 0
M  V30 4260 O 419.307 1.22068 -1.93162 0
M  V30 4261 C 419.517 -2.27602 -2.64572 0
M  V30 4262 C 420.865 -2.63811 -3.32699 0
M  V30 4263 O 421.889 -2.26576 -2.74849 0
M  V30 4264 O 420.748 -3.27866 -4.37226 0
M  V30 4265 H 417.842 -0.467248 -0.682355 0
M  V30 4266 H 420.388 -1.47574 -0.837859 0
M  V30 4267 H 419.16 -3.2265 -2.21388 0
M  V30 4268 H 418.783 -2.01488 -3.42766 0
M  V30 4269 N 419.78 1.02168 -1.19998 0
M  V30 4270 C 420.69 2.14069 -0.959774 0
M  V30 4271 C 421.706 1.73804 0.082655 0
M  V30 4272 O 422.882 2.01133 -0.103633 0
M  V30 4273 C 419.947 3.42936 -0.509459 0
M  V30 4274 C 419.008 3.97474 -1.62213 0
M  V30 4275 C 418.241 5.2019 -1.19321 0
M  V30 4276 O 418.464 5.70369 -0.0597726 0
M  V30 4277 O 417.398 5.67749 -1.99863 0
M  V30 4278 H 421.224 2.37199 -1.89658 0
M  V30 4279 H 418.809 1.12469 -0.983411 0
M  V30 4280 H 420.691 4.20551 -0.267322 0
M  V30 4281 H 419.366 3.21234 0.398821 0
M  V30 4282 H 418.273 3.21161 -1.9185 0
M  V30 4283 H 419.606 4.23555 -2.50723 0
M  V30 4284 N 421.258 1.00505 1.21394 0
M  V30 4285 C 422.188 0.585684 2.26035 0
M  V30 4286 C 423.169 -0.393525 1.65485 0
M  V30 4287 O 424.354 -0.281497 1.92149 0
M  V30 4288 C 421.484 -0.0884283 3.47187 0
M  V30 4289 C 420.438 0.810567 4.20254 0
M  V30 4290 C 419.764 0.00286382 5.347 0
M  V30 4291 C 421.064 2.1132 4.77641 0
M  V30 4292 H 422.758 1.46039 2.61368 0
M  V30 4293 H 420.304 0.703648 1.25638 0
M  V30 4294 H 422.257 -0.393286 4.19561 0
M  V30 4295 H 420.981 -0.997766 3.10986 0
M  V30 4296 H 419.64 1.09925 3.49731 0
M  V30 4297 H 419.288 -0.907765 4.94741 0
M  V30 4298 H 418.988 0.601444 5.84514 0
M  V30 4299 H 420.512 -0.295808 6.09883 0
M  V30 4300 H 421.926 1.87148 5.41893 0
M  V30 4301 H 420.323 2.66164 5.37845 0
M  V30 4302 H 421.393 2.78393 3.9702 0
M  V30 4303 N 422.737 -1.36956 0.779787 0
M  V30 4304 C 423.667 -2.32761 0.185651 0
M  V30 4305 C 424.648 -1.56177 -0.673989 0
M  V30 4306 O 425.833 -1.84378 -0.609797 0
M  V30 4307 C 422.963 -3.40418 -0.687964 0
M  V30 4308 C 421.917 -4.27941 0.0710102 0
M  V30 4309 C 421.243 -5.26681 -0.922573 0
M  V30 4310 C 422.543 -5.07006 1.25467 0
M  V30 4311 H 424.237 -2.82698 0.986008 0
M  V30 4312 H 421.783 -1.3592 0.475592 0
M  V30 4313 H 423.736 -4.06423 -1.11348 0
M  V30 4314 H 422.46 -2.89025 -1.52093 0
M  V30 4315 H 421.119 -3.63478 0.47739 0
M  V30 4316 H 420.767 -4.71565 -1.7503 0
M  V30 4317 H 420.467 -5.86103 -0.419237 0
M  V30 4318 H 421.991 -5.9556 -1.34686 0
M  V30 4319 H 423.405 -5.66105 0.905401 0
M  V30 4320 H 421.802 -5.75793 1.69063 0
M  V30 4321 H 422.872 -4.3921 2.05481 0
M  V30 4322 N 424.215 -0.530993 -1.48385 0
M  V30 4323 C 425.443 -0.00134122 -2.069 0
M  V30 4324 C 425.858 1.2805 -1.3874 0
M  V30 4325 O 425.215 1.76204 -0.475244 0
M  V30 4326 C 425.266 0.225256 -3.60798 0
M  V30 4327 O 424.987 -1.0058 -4.26398 0
M  V30 4328 C 426.488 0.795172 -4.3611 0
M  V30 4329 H 423.708 -0.0339704 -0.67014 0
M  V30 4330 H 426.252 -0.736926 -1.90761 0
M  V30 4331 H 424.407 0.910891 -3.76539 0
M  V30 4332 H 424.821 -0.787165 -5.1856 0
M  V30 4333 H 426.295 0.903143 -5.44562 0
M  V30 4334 H 426.772 1.80031 -4.00606 0
M  V30 4335 H 427.378 0.146069 -4.25049 0
M  V30 4336 N 425.693 1.55336 -0.266172 0
M  V30 4337 C 427.109 1.59356 0.0882065 0
M  V30 4338 C 427.309 1.2834 1.55342 0
M  V30 4339 O 426.365 1.03996 2.30089 0
M  V30 4340 C 427.678 2.99409 -0.278364 0
M  V30 4341 C 429.226 3.12196 -0.224243 0
M  V30 4342 C 429.701 4.545 -0.565123 0
M  V30 4343 N 431.192 4.60313 -0.51634 0
M  V30 4344 C 431.927 5.68434 -0.753013 0
M  V30 4345 N 431.423 6.84738 -1.05383 0
M  V30 4346 N 433.216 5.57942 -0.682414 0
M  V30 4347 H 425.367 1.73764 -1.22147 0
M  V30 4348 H 427.63 0.809822 -0.492841 0
M  V30 4349 H 427.336 3.2691 -1.29703 0
M  V30 4350 H 427.21 3.75228 0.385186 0
M  V30 4351 H 429.597 2.84464 0.78512 0
M  V30 4352 H 429.678 2.38609 -0.921922 0
M  V30 4353 H 429.322 4.82956 -1.57213 0
M  V30 4354 H 429.252 5.26374 0.154248 0
M  V30 4355 H 431.743 3.7676 -0.29335 0
M  V30 4356 H 432.056 7.63088 -1.22133 0
M  V30 4357 H 430.401 6.86375 -1.09151 0
M  V30 4358 H 433.592 4.65958 -0.44731 0
M  V30 4359 H 433.765 6.4213 -0.870248 0
M  V30 4360 N 427.171 -0.0066808 1.57599 0
M  V30 4361 C 428.419 -0.691552 1.899 0
M  V30 4362 C 428.74 -1.74682 0.866672 0
M  V30 4363 O 428.01 -1.95661 -0.0968189 0
M  V30 4364 H 426.59 -0.258416 0.700878 0
M  V30 4365 H 429.252 0.0326655 1.94873 0
M  V30 4366 H 428.348 -1.16702 2.8946 0
M  V30 4367 N 428.649 -1.55105 -0.279332 0
M  V30 4368 C 429.559 -1.90638 -1.36727 0
M  V30 4369 C 430.575 -0.802899 -1.54368 0
M  V30 4370 O 431.751 -1.10138 -1.68616 0
M  V30 4371 C 428.816 -2.16547 -2.70755 0
M  V30 4372 C 427.877 -3.40146 -2.61915 0
M  V30 4373 C 427.11 -3.6481 -3.8955 0
M  V30 4374 O 427.333 -2.92095 -4.89935 0
M  V30 4375 O 426.267 -4.58343 -3.90135 0
M  V30 4376 H 430.093 -2.83237 -1.09591 0
M  V30 4377 H 427.678 -1.4157 -0.477306 0
M  V30 4378 H 429.56 -2.34665 -3.50014 0
M  V30 4379 H 428.235 -1.27131 -2.9769 0
M  V30 4380 H 427.142 -3.2737 -1.81052 0
M  V30 4381 H 428.475 -4.29761 -2.3993 0
M  V30 4382 N 430.127 0.543554 -1.4793 0
M  V30 4383 C 431.074 1.64942 -1.6144 0
M  V30 4384 C 432.044 1.59692 -0.456903 0
M  V30 4385 O 433.229 1.78321 -0.678688 0
M  V30 4386 C 430.369 3.03238 -1.64744 0
M  V30 4387 C 429.482 3.18823 -2.91506 0
M  V30 4388 C 428.617 4.47599 -2.86057 0
M  V30 4389 C 427.656 4.56664 -4.07584 0
M  V30 4390 N 426.793 5.76811 -4.00292 0
M  V30 4391 H 431.633 1.52733 -2.55884 0
M  V30 4392 H 429.17 0.7438 -1.2691 0
M  V30 4393 H 431.128 3.83339 -1.64641 0
M  V30 4394 H 429.758 3.1425 -0.738017 0
M  V30 4395 H 428.81 2.32064 -3.01414 0
M  V30 4396 H 430.122 3.21384 -3.81463 0
M  V30 4397 H 429.276 5.35975 -2.84281 0
M  V30 4398 H 428.015 4.47538 -1.93807 0
M  V30 4399 H 427.02 3.66697 -4.09651 0
M  V30 4400 H 428.245 4.58474 -5.00978 0
M  V30 4401 H 426.191 5.77673 -3.10853 0
M  V30 4402 H 426.108 5.80808 -4.8394 0
M  V30 4403 H 427.376 6.67512 -4.02553 0
M  V30 4404 N 431.605 1.3629 0.791371 0
M  V30 4405 C 432.851 1.30605 1.55146 0
M  V30 4406 C 433.184 -0.115042 1.93859 0
M  V30 4407 O 432.459 -1.06798 1.62556 0
M  V30 4408 C 432.742 2.22692 2.82985 0
M  V30 4409 C 432.595 3.73489 2.50651 0
M  V30 4410 C 433.914 2.13588 3.84796 0
M  V30 4411 H 431.033 0.475761 0.562868 0
M  V30 4412 H 433.675 1.66825 0.909358 0
M  V30 4413 H 431.825 1.91933 3.37778 0
M  V30 4414 H 433.497 4.14758 2.01924 0
M  V30 4415 H 431.74 3.93021 1.83622 0
M  V30 4416 H 432.411 4.3333 3.41949 0
M  V30 4417 H 434.887 2.40659 3.39445 0
M  V30 4418 H 433.763 2.80195 4.71998 0
M  V30 4419 H 434.024 1.12256 4.27611 0
M  V30 4420 N 433.083 -1.0153 1.20538 0
M  V30 4421 C 434.331 -1.74803 1.01432 0
M  V30 4422 C 434.652 -1.8963 -0.454456 0
M  V30 4423 O 433.922 -1.43975 -1.32846 0
M  V30 4424 H 432.502 -0.647598 0.372324 0
M  V30 4425 H 435.164 -1.22402 1.5167 0
M  V30 4426 H 434.26 -2.75114 1.47373 0
M  V30 4427 N 434.561 -1.01147 -1.20859 0
M  V30 4428 C 435.807 -0.698899 -1.90377 0
M  V30 4429 C 436.14 0.76904 -1.78324 0
M  V30 4430 O 435.415 1.55817 -1.16409 0
M  V30 4431 C 435.698 -1.12878 -3.41951 0
M  V30 4432 C 435.551 -2.65665 -3.62963 0
M  V30 4433 C 436.87 -0.696114 -4.3456 0
M  V30 4434 H 433.989 -0.255372 -0.691342 0
M  V30 4435 H 436.631 -1.25831 -1.42361 0
M  V30 4436 H 434.781 -0.652827 -3.82976 0
M  V30 4437 H 436.453 -3.21074 -3.31224 0
M  V30 4438 H 434.696 -3.06878 -3.06608 0
M  V30 4439 H 435.367 -2.90797 -4.69192 0
M  V30 4440 H 437.843 -1.10521 -4.01154 0
M  V30 4441 H 436.719 -1.025 -5.39245 0
M  V30 4442 H 436.98 0.402465 -4.40264 0
M  V30 4443 N 436.039 1.36541 -0.78704 0
M  V30 4444 C 436.969 2.32659 -0.197992 0
M  V30 4445 C 437.95 1.56533 0.665697 0
M  V30 4446 O 439.135 1.84698 0.60001 0
M  V30 4447 C 436.265 3.40778 0.669901 0
M  V30 4448 C 435.219 4.27897 -0.0937039 0
M  V30 4449 C 434.545 5.27163 0.894629 0
M  V30 4450 C 435.845 5.06334 -1.28154 0
M  V30 4451 H 437.539 2.82171 -1.00099 0
M  V30 4452 H 435.085 1.35665 -0.482793 0
M  V30 4453 H 437.038 4.07008 1.09191 0
M  V30 4454 H 435.762 2.89827 1.50558 0
M  V30 4455 H 434.421 3.6322 -0.49666 0
M  V30 4456 H 434.069 4.72486 1.72527 0
M  V30 4457 H 433.769 5.86317 0.388149 0
M  V30 4458 H 435.293 5.96266 1.31525 0
M  V30 4459 H 436.707 5.65617 -0.93541 0
M  V30 4460 H 435.104 5.74888 -1.72115 0
M  V30 4461 H 436.174 4.38114 -2.07807 0
M  V30 4462 N 437.518 0.538854 1.48102 0
M  V30 4463 C 438.465 -0.219042 2.29758 0
M  V30 4464 C 439.435 -0.925562 1.37922 0
M  V30 4465 O 440.62 -0.924855 1.66886 0
M  V30 4466 C 437.76 -1.25452 3.2149 0
M  V30 4467 C 436.873 -0.555943 4.28408 0
M  V30 4468 C 436.008 -1.57512 5.0731 0
M  V30 4469 C 435.047 -0.860498 6.06021 0
M  V30 4470 N 434.184 -1.82564 6.77949 0
M  V30 4471 H 439.024 0.483449 2.94052 0
M  V30 4472 H 436.561 0.250247 1.44956 0
M  V30 4473 H 438.519 -1.86727 3.7308 0
M  V30 4474 H 437.149 -1.92528 2.591 0
M  V30 4475 H 436.201 0.170938 3.80016 0
M  V30 4476 H 437.513 0.00474616 4.988 0
M  V30 4477 H 436.667 -2.26191 5.62959 0
M  V30 4478 H 435.406 -2.16972 4.36778 0
M  V30 4479 H 434.411 -0.159686 5.49568 0
M  V30 4480 H 435.636 -0.271897 6.78555 0
M  V30 4481 H 433.582 -2.40915 6.10161 0
M  V30 4482 H 433.499 -1.31662 7.44447 0
M  V30 4483 H 434.767 -2.50414 7.38182 0
M  V30 4484 N 438.996 -1.55193 0.274407 0
M  V30 4485 C 440.242 -1.99877 -0.343086 0
M  V30 4486 C 440.575 -1.16256 -1.55558 0
M  V30 4487 O 439.85 -0.232462 -1.93106 0
M  V30 4488 C 440.133 -3.52706 -0.725965 0
M  V30 4489 C 439.986 -4.47081 0.493818 0
M  V30 4490 C 441.305 -4.11422 -1.56268 0
M  V30 4491 H 438.424 -0.726625 -0.123229 0
M  V30 4492 H 441.066 -1.86136 0.38121 0
M  V30 4493 H 439.216 -3.64546 -1.34307 0
M  V30 4494 H 440.888 -4.47186 1.13237 0
M  V30 4495 H 439.131 -4.1877 1.13201 0
M  V30 4496 H 439.802 -5.51699 0.18217 0
M  V30 4497 H 442.278 -4.02855 -1.04151 0
M  V30 4498 H 441.154 -5.18568 -1.79939 0
M  V30 4499 H 441.415 -3.61607 -2.54348 0
M  V30 4500 N 440.474 -0.00167713 -1.576 0
M  V30 4501 C 441.89 0.354422 -1.55615 0
M  V30 4502 C 442.09 1.74679 -1.00447 0
M  V30 4503 O 441.146 2.4428 -0.639022 0
M  V30 4504 C 442.459 0.22812 -2.99833 0
M  V30 4505 C 444.007 0.302934 -3.11531 0
M  V30 4506 C 444.482 0.205737 -4.57538 0
M  V30 4507 N 445.973 0.263584 -4.62449 0
M  V30 4508 C 446.708 0.211742 -5.73009 0
M  V30 4509 N 446.204 0.110399 -6.92712 0
M  V30 4510 N 447.997 0.263729 -5.61481 0
M  V30 4511 H 440.148 -0.912498 -1.918 0
M  V30 4512 H 442.411 -0.349928 -0.881053 0
M  V30 4513 H 442.117 -0.729934 -3.44042 0
M  V30 4514 H 441.991 1.00951 -3.6344 0
M  V30 4515 H 444.378 1.25143 -2.67251 0
M  V30 4516 H 444.459 -0.508357 -2.50698 0
M  V30 4517 H 444.103 -0.739225 -5.02492 0
M  V30 4518 H 444.033 1.03554 -5.16318 0
M  V30 4519 H 446.524 0.343173 -3.76339 0
M  V30 4520 H 446.837 0.0767828 -7.72762 0
M  V30 4521 H 445.182 0.0760025 -6.94958 0
M  V30 4522 H 448.373 0.34111 -4.66855 0
M  V30 4523 H 448.546 0.219862 -6.47627 0
M  V30 4524 N 441.952 1.55251 0.271103 0
M  V30 4525 C 442.882 1.9127 1.33933 0
M  V30 4526 C 443.863 0.77478 1.5143 0
M  V30 4527 O 445.048 1.03307 1.64442 0
M  V30 4528 C 442.178 2.18627 2.69851 0
M  V30 4529 C 441.132 3.34442 2.67081 0
M  V30 4530 C 440.458 3.47284 4.06569 0
M  V30 4531 C 441.758 4.70784 2.26185 0
M  V30 4532 H 443.452 2.80744 1.04035 0
M  V30 4533 H 440.998 1.35077 0.499017 0
M  V30 4534 H 442.951 2.42413 3.44694 0
M  V30 4535 H 441.675 1.25955 3.01335 0
M  V30 4536 H 440.334 3.10627 1.94695 0
M  V30 4537 H 439.982 2.52074 4.35279 0
M  V30 4538 H 439.682 4.25152 4.0561 0
M  V30 4539 H 441.206 3.73363 4.83148 0
M  V30 4540 H 442.62 4.94102 2.90751 0
M  V30 4541 H 441.017 5.51582 2.36384 0
M  V30 4542 H 442.087 4.69478 1.21319 0
M  V30 4543 N 443.43 -0.535701 1.48216 0
M  V30 4544 C 444.66 -1.3148 1.59363 0
M  V30 4545 C 445.068 -1.8753 0.250844 0
M  V30 4546 O 444.411 -1.66821 -0.769174 0
M  V30 4547 C 444.473 -2.50731 2.57632 0
M  V30 4548 C 444.137 -2.15811 4.02833 0
M  V30 4549 C 445.134 -1.71822 4.90686 0
M  V30 4550 C 442.819 -2.26509 4.48329 0
M  V30 4551 C 444.813 -1.3899 6.22062 0
M  V30 4552 C 442.5 -1.93289 5.79726 0
M  V30 4553 C 443.498 -1.49599 6.66415 0
M  V30 4554 O 443.186 -1.16812 7.95368 0
M  V30 4555 H 442.918 -0.406315 0.540263 0
M  V30 4556 H 445.472 -0.653569 1.94725 0
M  V30 4557 H 443.702 -3.19817 2.1738 0
M  V30 4558 H 445.391 -3.12797 2.58675 0
M  V30 4559 H 446.157 -1.63031 4.56778 0
M  V30 4560 H 442.036 -2.59471 3.81045 0
M  V30 4561 H 445.58 -1.04816 6.89681 0
M  V30 4562 H 441.477 -2.01718 6.13172 0
M  V30 4563 H 442.245 -1.30259 8.08069 0
M  V30 4564 N 444.908 -1.36708 -0.784132 0
M  V30 4565 C 446.324 -1.17237 -1.08294 0
M  V30 4566 C 446.524 -5.93947e-05 -2.015 0
M  V30 4567 O 445.58 0.663686 -2.43622 0
M  V30 4568 C 446.893 -2.48557 -1.69233 0
M  V30 4569 C 448.441 -2.54968 -1.8155 0
M  V30 4570 C 448.916 -3.86388 -2.45904 0
M  V30 4571 N 450.407 -3.87762 -2.53367 0
M  V30 4572 C 451.142 -4.86191 -3.03983 0
M  V30 4573 N 450.638 -5.95015 -3.54866 0
M  V30 4574 N 452.431 -4.73606 -3.02743 0
M  V30 4575 H 444.582 -2.11758 -0.16501 0
M  V30 4576 H 446.845 -0.93822 -0.135822 0
M  V30 4577 H 446.551 -3.34638 -1.08215 0
M  V30 4578 H 446.425 -2.64748 -2.68679 0
M  V30 4579 H 448.812 -1.69302 -2.41704 0
M  V30 4580 H 448.893 -2.42672 -0.80895 0
M  V30 4581 H 448.537 -4.72462 -1.86392 0
M  V30 4582 H 448.467 -3.95982 -3.4714 0
M  V30 4583 H 450.958 -3.09145 -2.17343 0
M  V30 4584 H 451.271 -6.66086 -3.91854 0
M  V30 4585 H 449.616 -5.98676 -3.53003 0
M  V30 4586 H 452.807 -3.87717 -2.62284 0
M  V30 4587 H 452.98 -5.50473 -3.41881 0
M  V30 4588 N 446.386 1.0089 -1.21074 0
M  V30 4589 C 447.797 1.56056 -1.02486 0
M  V30 4590 C 448.148 1.91728 0.416506 0
M  V30 4591 O 447.273 1.73066 1.29912 0
M  V30 4592 C 447.868 2.83563 -1.85411 0
M  V30 4593 C 446.427 3.3523 -1.71166 0
M  V30 4594 C 445.574 2.0846 -1.82865 0
M  V30 4595 H 448.525 0.831818 -1.35154 0
M  V30 4596 H 448.546 3.55286 -1.36205 0
M  V30 4597 H 448.058 2.57569 -2.9031 0
M  V30 4598 H 446.159 3.66167 -0.689361 0
M  V30 4599 H 446.272 4.06913 -2.52901 0
M  V30 4600 H 444.636 2.21275 -1.26132 0
M  V30 4601 H 445.419 1.84883 -2.89263 0
M  V30 4602 N 447.864 1.01787 1.20321 0
M  V30 4603 C 449.111 0.707936 1.89722 0
M  V30 4604 C 449.439 -0.762535 1.78929 0
M  V30 4605 O 448.694 -1.56977 1.16861 0
M  V30 4606 C 448.993 1.09076 3.40349 0
M  V30 4607 C 448.659 2.55765 3.71342 0
M  V30 4608 C 447.321 2.95845 3.79511 0
M  V30 4609 C 449.673 3.50723 3.85542 0
M  V30 4610 C 447.001 4.2982 3.99339 0
M  V30 4611 C 449.353 4.84387 4.06881 0
M  V30 4612 C 448.017 5.24172 4.1328 0
M  V30 4613 H 447.287 0.259052 0.694243 0
M  V30 4614 H 449.934 1.27868 1.42555 0
M  V30 4615 H 448.239 0.438453 3.89339 0
M  V30 4616 H 449.936 0.828636 3.92345 0
M  V30 4617 H 446.526 2.2371 3.65584 0
M  V30 4618 H 450.71 3.20916 3.78585 0
M  V30 4619 H 445.966 4.60196 4.02529 0
M  V30 4620 H 450.14 5.57891 4.1681 0
M  V30 4621 H 447.767 6.27997 4.28396 0
M  V30 4622 N 449.342 -1.36122 0.79427 0
M  V30 4623 C 450.567 -2.03891 0.379871 0
M  V30 4624 C 450.992 -1.59488 -0.997251 0
M  V30 4625 O 450.35 -0.765652 -1.64339 0
M  V30 4626 C 450.398 -3.57687 0.457442 0
M  V30 4627 O 449.502 -4.08931 -0.5338 0
M  V30 4628 H 448.843 -0.6443 0.160541 0
M  V30 4629 H 451.373 -1.73976 1.07673 0
M  V30 4630 H 451.383 -4.06721 0.322792 0
M  V30 4631 H 450.058 -3.89357 1.46199 0
M  V30 4632 H 448.635 -3.71154 -0.360409 0
M  V30 4633 N 450.82 -0.546701 -1.47814 0
M  V30 4634 C 451.783 0.196287 -2.28358 0
M  V30 4635 C 452.783 0.852437 -1.36346 0
M  V30 4636 O 453.973 0.709913 -1.59078 0
M  V30 4637 C 451.105 1.28579 -3.15722 0
M  V30 4638 H 452.298 -0.511086 -2.95513 0
M  V30 4639 H 449.851 -0.303248 -1.5333 0
M  V30 4640 H 450.586 2.0259 -2.53235 0
M  V30 4641 H 450.371 0.820229 -3.83425 0
M  V30 4642 H 451.861 1.80793 -3.76435 0
M  V30 4643 N 452.299 1.55045 -0.282633 0
M  V30 4644 C 453.246 2.22822 0.601566 0
M  V30 4645 C 454.216 1.20431 1.14392 0
M  V30 4646 O 455.401 1.48996 1.19184 0
M  V30 4647 C 452.541 2.95873 1.77632 0
M  V30 4648 C 451.654 4.12999 1.26711 0
M  V30 4649 C 450.789 4.73676 2.40426 0
M  V30 4650 C 449.828 5.82981 1.86545 0
M  V30 4651 N 448.965 6.3769 2.93762 0
M  V30 4652 H 453.805 2.97995 0.0169528 0
M  V30 4653 H 451.342 1.471 -0.00339964 0
M  V30 4654 H 453.3 3.36447 2.46697 0
M  V30 4655 H 451.93 2.2311 2.33285 0
M  V30 4656 H 450.982 3.77494 0.469314 0
M  V30 4657 H 452.294 4.91803 0.832518 0
M  V30 4658 H 451.448 5.17008 3.17471 0
M  V30 4659 H 450.187 3.94164 2.87203 0
M  V30 4660 H 449.192 5.39092 1.07983 0
M  V30 4661 H 450.417 6.64366 1.40694 0
M  V30 4662 H 448.363 5.61069 3.39908 0
M  V30 4663 H 448.28 7.11788 2.54744 0
M  V30 4664 H 449.548 6.8568 3.7076 0
M  V30 4665 N 453.777 0.010035 1.57597 0
M  V30 4666 C 454.727 -0.986858 2.05536 0
M  V30 4667 C 455.711 -1.29711 0.952042 0
M  V30 4668 O 456.903 -1.28641 1.21575 0
M  V30 4669 C 454.032 -2.2756 2.57043 0
M  V30 4670 C 453.118 -1.99455 3.74271 0
M  V30 4671 N 453.509 -1.41546 4.85591 0
M  V30 4672 C 451.807 -2.29547 3.82393 0
M  V30 4673 C 452.508 -1.3014 5.66956 0
M  V30 4674 N 451.484 -1.79044 5.13268 0
M  V30 4675 H 455.286 -0.533778 2.89012 0
M  V30 4676 H 452.8 -0.195432 1.6122 0
M  V30 4677 H 454.797 -2.99829 2.89669 0
M  V30 4678 H 453.457 -2.73512 1.7499 0
M  V30 4679 H 454.468 -1.09294 5.06236 0
M  V30 4680 H 451.145 -2.78304 3.11213 0
M  V30 4681 H 452.535 -0.855237 6.66435 0
M  V30 4682 N 455.255 -1.55392 -0.262866 0
M  V30 4683 C 456.185 -1.91978 -1.32917 0
M  V30 4684 C 457.166 -0.7828 -1.51017 0
M  V30 4685 O 458.351 -1.04178 -1.63892 0
M  V30 4686 C 455.481 -2.20055 -2.68687 0
M  V30 4687 C 454.435 -3.35854 -2.65304 0
M  V30 4688 C 453.761 -3.49435 -4.04721 0
M  V30 4689 C 455.061 -4.71977 -2.23685 0
M  V30 4690 H 456.755 -2.81292 -1.02544 0
M  V30 4691 H 454.301 -1.3534 -0.491846 0
M  V30 4692 H 456.254 -2.44237 -3.43404 0
M  V30 4693 H 454.978 -1.27551 -3.00663 0
M  V30 4694 H 453.637 -3.11655 -1.93045 0
M  V30 4695 H 453.285 -2.54379 -4.33936 0
M  V30 4696 H 452.985 -4.27297 -4.0335 0
M  V30 4697 H 454.509 -3.7592 -4.81161 0
M  V30 4698 H 455.923 -4.95637 -2.88127 0
M  V30 4699 H 454.32 -5.52828 -2.33456 0
M  V30 4700 H 455.39 -4.70115 -1.18827 0
M  V30 4701 N 456.733 0.527833 -1.48498 0
M  V30 4702 C 457.663 1.64136 -1.66077 0
M  V30 4703 C 458.644 1.62286 -0.509625 0
M  V30 4704 O 459.829 1.79449 -0.742413 0
M  V30 4705 C 456.959 3.02717 -1.70234 0
M  V30 4706 C 455.913 3.19426 -2.8487 0
M  V30 4707 C 455.239 4.5909 -2.74118 0
M  V30 4708 C 456.539 3.01993 -4.26142 0
M  V30 4709 H 458.233 1.4968 -2.593 0
M  V30 4710 H 455.779 0.718654 -1.24785 0
M  V30 4711 H 457.732 3.80491 -1.8112 0
M  V30 4712 H 456.456 3.18201 -0.735911 0
M  V30 4713 H 455.115 2.4407 -2.73542 0
M  V30 4714 H 454.763 4.71413 -1.7544 0
M  V30 4715 H 454.463 4.71214 -3.51042 0
M  V30 4716 H 455.987 5.3896 -2.86974 0
M  V30 4717 H 457.401 3.69558 -4.38292 0
M  V30 4718 H 455.798 3.2561 -5.04082 0
M  V30 4719 H 456.868 1.98396 -4.42456 0
M  V30 4720 N 458.211 1.37122 0.776871 0
M  V30 4721 C 459.143 1.28342 1.89897 0
M  V30 4722 C 460.156 0.200277 1.61563 0
M  V30 4723 O 461.345 0.456012 1.72577 0
M  V30 4724 C 458.445 0.960427 3.25006 0
M  V30 4725 C 457.618 2.148 3.81025 0
M  V30 4726 C 456.677 1.79608 4.94598 0
M  V30 4727 O 455.703 2.51845 5.10454 0
M  V30 4728 N 456.905 0.737171 5.758 0
M  V30 4729 H 459.67 2.25027 1.97947 0
M  V30 4730 H 457.231 1.3068 0.955739 0
M  V30 4731 H 459.223 0.705942 3.98495 0
M  V30 4732 H 457.793 0.0823066 3.12492 0
M  V30 4733 H 457.013 2.56454 2.99374 0
M  V30 4734 H 458.301 2.9411 4.15183 0
M  V30 4735 H 457.699 0.137637 5.65533 0
M  V30 4736 H 456.256 0.542534 6.49538 0
M  V30 4737 N 459.689 -1.00246 1.21608 0
M  V30 4738 C 460.652 -2.07233 0.979133 0
M  V30 4739 C 461.652 -1.6072 -0.0508219 0
M  V30 4740 O 462.842 -1.73196 0.186712 0
M  V30 4741 C 459.974 -3.37546 0.477016 0
M  V30 4742 H 461.167 -2.29687 1.92831 0
M  V30 4743 H 458.72 -1.17261 1.03342 0
M  V30 4744 H 459.455 -3.20773 -0.476966 0
M  V30 4745 H 459.24 -3.72638 1.21997 0
M  V30 4746 H 460.73 -4.16285 0.331181 0
M  V30 4747 N 461.167 -1.02423 -1.1978 0
M  V30 4748 C 462.097 -0.62157 -2.25075 0
M  V30 4749 C 463.078 0.367148 -1.6609 0
M  V30 4750 O 464.263 0.250892 -1.92573 0
M  V30 4751 C 461.393 0.0331826 -3.47284 0
M  V30 4752 C 460.347 -0.877323 -4.18912 0
M  V30 4753 C 459.673 -0.0879296 -5.34628 0
M  V30 4754 C 460.973 -2.18892 -4.74219 0
M  V30 4755 H 462.667 -1.50179 -2.59011 0
M  V30 4756 H 460.213 -0.723547 -1.24502 0
M  V30 4757 H 462.166 0.326488 -4.20133 0
M  V30 4758 H 460.89 0.948164 -3.12534 0
M  V30 4759 H 459.549 -1.15475 -3.47938 0
M  V30 4760 H 459.197 0.828941 -4.96123 0
M  V30 4761 H 458.897 -0.694359 -5.83483 0
M  V30 4762 H 460.421 0.198743 -6.10276 0
M  V30 4763 H 461.835 -1.95746 -5.38847 0
M  V30 4764 H 460.232 -2.74686 -5.33542 0
M  V30 4765 H 461.302 -2.84674 -3.92541 0
M  V30 4766 N 462.645 1.35699 -0.801477 0
M  V30 4767 C 464.056 1.81415 -0.441073 0
M  V30 4768 C 464.407 1.66595 1.03636 0
M  V30 4769 O 463.532 1.19369 1.80499 0
M  V30 4770 C 464.127 3.29369 -0.793819 0
M  V30 4771 C 462.686 3.73248 -0.486083 0
M  V30 4772 C 461.833 2.57775 -1.02213 0
M  V30 4773 H 464.784 1.23749 -0.993572 0
M  V30 4774 H 464.805 3.80395 -0.0894158 0
M  V30 4775 H 464.317 3.40123 -1.86917 0
M  V30 4776 H 462.418 3.68046 0.580735 0
M  V30 4777 H 462.531 4.68222 -1.01513 0
M  V30 4778 H 460.895 2.50788 -0.444712 0
M  V30 4779 H 461.678 2.71309 -2.10348 0
M  V30 4780 N 464.123 0.554532 1.47522 0
M  V30 4781 C 465.371 0.0294208 2.02079 0
M  V30 4782 C 465.692 -1.32411 1.43151 0
M  V30 4783 O 464.962 -1.863 0.605728 0
M  V30 4784 H 463.542 0.00788672 0.746958 0
M  V30 4785 H 466.204 0.723934 1.80956 0
M  V30 4786 H 465.3 -0.0606745 3.12041 0
M  V30 4787 N 465.601 -1.54893 0.290851 0
M  V30 4788 C 466.826 -2.04804 -0.32712 0
M  V30 4789 C 467.251 -1.16721 -1.47506 0
M  V30 4790 O 466.609 -0.169107 -1.8051 0
M  V30 4791 C 466.657 -3.52268 -0.770689 0
M  V30 4792 O 465.761 -3.67236 -1.87647 0
M  V30 4793 H 465.102 -0.660789 -0.0652227 0
M  V30 4794 H 467.632 -2.00036 0.429739 0
M  V30 4795 H 467.642 -3.9393 -1.06223 0
M  V30 4796 H 466.317 -4.15843 0.069096 0
M  V30 4797 H 464.894 -3.37479 -1.58626 0
M  V30 4798 N 467.08 -0.0183926 -1.57589 0
M  V30 4799 C 468.326 0.663543 -1.91638 0
M  V30 4800 C 468.659 1.72392 -0.894134 0
M  V30 4801 O 467.934 1.94316 0.0846449 0
M  V30 4802 C 468.217 1.28984 -3.36207 0
M  V30 4803 C 468.07 0.239761 -4.49161 0
M  V30 4804 C 469.389 2.2109 -3.80536 0
M  V30 4805 H 466.508 0.239746 -0.696915 0
M  V30 4806 H 469.15 -0.073456 -1.89858 0
M  V30 4807 H 467.3 1.91799 -3.37854 0
M  V30 4808 H 468.972 -0.390119 -4.59647 0
M  V30 4809 H 467.215 -0.435972 -4.31604 0
M  V30 4810 H 467.886 0.717383 -5.47319 0
M  V30 4811 H 470.362 1.68273 -3.80557 0
M  V30 4812 H 469.238 2.61869 -4.82406 0
M  V30 4813 H 469.499 3.09764 -3.15434 0
M  V30 4814 N 468.558 1.5553 0.254621 0
M  V30 4815 C 469.974 1.4778 0.602753 0
M  V30 4816 C 470.174 0.707047 1.88688 0
M  V30 4817 O 469.23 0.233288 2.5142 0
M  V30 4818 C 470.543 2.92133 0.712648 0
M  V30 4819 C 472.091 3.02458 0.805488 0
M  V30 4820 C 472.566 4.48102 0.947009 0
M  V30 4821 N 474.057 4.52008 1.01207 0
M  V30 4822 C 474.792 5.61939 1.1407 0
M  V30 4823 N 474.288 6.81697 1.23536 0
M  V30 4824 N 476.081 5.49719 1.17325 0
M  V30 4825 H 468.232 2.04085 -0.588463 0
M  V30 4826 H 470.495 0.926229 -0.202001 0
M  V30 4827 H 470.201 3.51332 -0.160766 0
M  V30 4828 H 470.075 3.42187 1.58707 0
M  V30 4829 H 472.462 2.43344 1.66936 0
M  V30 4830 H 472.543 2.55627 -0.0939266 0
M  V30 4831 H 472.187 5.07824 0.087725 0
M  V30 4832 H 472.117 4.92607 1.86135 0
M  V30 4833 H 474.608 3.65749 0.950577 0
M  V30 4834 H 474.921 7.61228 1.33236 0
M  V30 4835 H 473.266 6.84473 1.20508 0
M  V30 4836 H 476.457 4.55095 1.09573 0
M  V30 4837 H 476.63 6.35432 1.27005 0
M  V30 4838 N 470.036 -0.519951 1.48776 0
M  V30 4839 C 471.261 -1.30447 1.6124 0
M  V30 4840 C 471.686 -1.86055 0.276591 0
M  V30 4841 O 471.044 -1.64915 -0.753183 0
M  V30 4842 C 471.092 -2.42406 2.66967 0
M  V30 4843 O 470.196 -3.45728 2.24824 0
M  V30 4844 H 469.537 -0.385924 0.540332 0
M  V30 4845 H 472.067 -0.624572 1.94834 0
M  V30 4846 H 472.077 -2.88447 2.88552 0
M  V30 4847 H 470.752 -2.01294 3.63941 0
M  V30 4848 H 469.329 -3.05737 2.13494 0
M  V30 4849 N 471.514 -1.37532 -0.769588 0
M  V30 4850 C 472.76 -1.33057 -1.53048 0
M  V30 4851 C 473.093 0.0841865 -1.94017 0
M  V30 4852 O 472.368 1.04198 -1.64235 0
M  V30 4853 C 472.651 -2.27166 -2.79406 0
M  V30 4854 C 472.504 -3.77429 -2.44677 0
M  V30 4855 C 473.823 -2.19683 -3.81349 0
M  V30 4856 H 470.942 -0.484655 -0.555228 0
M  V30 4857 H 473.584 -1.68251 -0.882702 0
M  V30 4858 H 471.734 -1.97283 -3.34682 0
M  V30 4859 H 473.406 -4.17918 -1.953 0
M  V30 4860 H 471.649 -3.95892 -1.77346 0
M  V30 4861 H 472.32 -4.38716 -3.35011 0
M  V30 4862 H 474.796 -2.46029 -3.35573 0
M  V30 4863 H 473.672 -2.87668 -4.67481 0
M  V30 4864 H 473.933 -1.19045 -4.25771 0
M  V30 4865 N 472.992 0.995999 -1.22138 0
M  V30 4866 C 473.955 2.06711 -0.990109 0
M  V30 4867 C 474.955 1.60744 0.0422978 0
M  V30 4868 O 476.145 1.73095 -0.195895 0
M  V30 4869 C 473.277 3.37288 -0.49491 0
M  V30 4870 H 474.47 2.28661 -1.94047 0
M  V30 4871 H 472.023 1.16711 -1.03963 0
M  V30 4872 H 472.758 3.21022 0.459948 0
M  V30 4873 H 472.543 3.71986 -1.23971 0
M  V30 4874 H 474.033 4.16103 -0.353253 0
M  V30 4875 N 474.47 1.03057 1.19235 0
M  V30 4876 C 475.716 0.729098 1.89241 0
M  V30 4877 C 476.049 -0.740573 1.79525 0
M  V30 4878 O 475.324 -1.53946 1.18874 0
M  V30 4879 C 475.607 1.18304 3.40112 0
M  V30 4880 C 475.46 2.71406 3.5869 0
M  V30 4881 C 476.779 0.765161 4.33397 0
M  V30 4882 H 473.898 0.266338 0.687192 0
M  V30 4883 H 476.54 1.28079 1.40341 0
M  V30 4884 H 474.69 0.713672 3.81889 0
M  V30 4885 H 476.362 3.26303 3.26074 0
M  V30 4886 H 474.605 3.11717 3.01687 0
M  V30 4887 H 475.276 2.98225 4.64506 0
M  V30 4888 H 477.752 1.16889 3.99345 0
M  V30 4889 H 476.628 1.11065 5.37546 0
M  V30 4890 H 476.889 -0.332372 4.40849 0
M  V30 4891 N 475.948 -1.35272 0.808662 0
M  V30 4892 C 476.878 -2.32315 0.234981 0
M  V30 4893 C 477.859 -1.57572 -0.64071 0
M  V30 4894 O 479.044 -1.8563 -0.570551 0
M  V30 4895 C 476.174 -3.41801 -0.615601 0
M  V30 4896 C 475.128 -4.27694 0.161767 0
M  V30 4897 C 474.454 -5.28519 -0.810649 0
M  V30 4898 C 475.754 -5.04231 1.36193 0
M  V30 4899 H 477.448 -2.80543 1.04575 0
M  V30 4900 H 474.994 -1.3488 0.504315 0
M  V30 4901 H 476.947 -4.08693 -1.02702 0
M  V30 4902 H 475.671 -2.92186 -1.45928 0
M  V30 4903 H 474.33 -3.62384 0.554382 0
M  V30 4904 H 473.978 -4.75171 -1.64988 0
M  V30 4905 H 473.678 -5.8686 -0.294822 0
M  V30 4906 H 475.202 -5.98283 -1.22023 0
M  V30 4907 H 476.616 -5.64058 1.02528 0
M  V30 4908 H 475.013 -5.72077 1.81239 0
M  V30 4909 H 476.083 -4.34753 2.14751 0
M  V30 4910 N 477.426 -0.562348 -1.47226 0
M  V30 4911 C 478.703 0.0256985 -1.95583 0
M  V30 4912 C 479.083 1.48032 -1.50498 0
M  V30 4913 O 478.431 2.15973 -0.746181 0
M  V30 4914 C 478.641 -0.125129 -3.48776 0
M  V30 4915 C 479.989 0.0175728 -4.24596 0
M  V30 4916 O 481.013 -0.0529341 -3.56161 0
M  V30 4917 O 479.872 0.170145 -5.46235 0
M  V30 4918 H 476.966 0.0612565 -0.824728 0
M  V30 4919 H 479.512 -0.629233 -1.57603 0
M  V30 4920 H 478.284 -1.13715 -3.74412 0
M  V30 4921 H 477.907 0.567178 -3.93534 0
M  V30 4922 N 478.904 1.54736 -0.299062 0
M  V30 4923 C 480.32 1.59507 0.0543849 0
M  V30 4924 C 480.52 1.31606 1.52585 0
M  V30 4925 O 479.576 1.08853 2.27832 0
M  V30 4926 C 480.889 2.98751 -0.34181 0
M  V30 4927 C 482.437 3.1165 -0.290414 0
M  V30 4928 C 482.912 4.53199 -0.661402 0
M  V30 4929 N 484.403 4.59114 -0.613863 0
M  V30 4930 C 485.138 5.66709 -0.873417 0
M  V30 4931 N 484.634 6.82349 -1.19884 0
M  V30 4932 N 486.427 5.56369 -0.800608 0
M  V30 4933 H 478.578 1.71133 -1.25806 0
M  V30 4934 H 480.841 0.799186 -0.509908 0
M  V30 4935 H 480.547 3.24085 -1.36608 0
M  V30 4936 H 480.421 3.75961 0.305508 0
M  V30 4937 H 482.808 2.86066 0.724605 0
M  V30 4938 H 482.889 2.366 -0.972327 0
M  V30 4939 H 482.533 4.79513 -1.67422 0
M  V30 4940 H 482.463 5.26583 0.0425612 0
M  V30 4941 H 484.954 3.76053 -0.3732 0
M  V30 4942 H 485.267 7.60326 -1.38291 0
M  V30 4943 H 483.612 6.83906 -1.23685 0
M  V30 4944 H 486.803 4.64904 -0.546045 0
M  V30 4945 H 486.976 6.40139 -1.00626 0
M  V30 4946 N 480.382 0.0267497 1.57577 0
M  V30 4947 C 481.61 -0.662661 1.96001 0
M  V30 4948 C 482.025 -1.65799 0.903117 0
M  V30 4949 O 481.382 -1.82135 -0.115317 0
M  V30 4950 C 481.433 -1.37112 3.34488 0
M  V30 4951 O 481.154 -0.415683 4.36123 0
M  V30 4952 C 482.655 -2.15257 3.8753 0
M  V30 4953 H 479.875 -0.18287 0.6456 0
M  V30 4954 H 482.419 0.0858116 2.0432 0
M  V30 4955 H 480.574 -2.07101 3.27395 0
M  V30 4956 H 480.988 -0.918496 5.16395 0
M  V30 4957 H 482.462 -2.60285 4.86781 0
M  V30 4958 H 482.939 -2.99063 3.21649 0
M  V30 4959 H 483.545 -1.50231 3.97883 0
M  V30 4960 N 481.861 -1.55662 -0.24637 0
M  V30 4961 C 482.808 -1.90361 -1.30504 0
M  V30 4962 C 483.778 -0.757905 -1.47801 0
M  V30 4963 O 484.963 -1.01161 -1.61775 0
M  V30 4964 C 482.103 -2.2042 -2.65535 0
M  V30 4965 C 481.216 -3.47799 -2.56242 0
M  V30 4966 C 480.351 -3.67426 -3.8363 0
M  V30 4967 C 479.39 -4.88403 -3.68956 0
M  V30 4968 N 478.527 -5.04548 -4.88237 0
M  V30 4969 H 483.367 -2.80645 -1.00213 0
M  V30 4970 H 480.904 -1.38924 -0.483577 0
M  V30 4971 H 482.862 -2.35853 -3.44135 0
M  V30 4972 H 481.492 -1.3334 -2.93973 0
M  V30 4973 H 480.544 -3.40694 -1.69208 0
M  V30 4974 H 481.856 -4.36544 -2.4131 0
M  V30 4975 H 481.01 -3.82821 -4.70673 0
M  V30 4976 H 479.749 -2.76914 -4.01459 0
M  V30 4977 H 478.754 -4.72984 -2.80296 0
M  V30 4978 H 479.979 -5.80375 -3.52621 0
M  V30 4979 H 477.925 -4.16974 -5.06427 0
M  V30 4980 H 477.842 -5.87384 -4.75937 0
M  V30 4981 H 479.11 -5.24355 -5.76777 0
M  V30 4982 N 483.339 0.512053 -1.4905 0
M  V30 4983 C 484.249 1.64139 -1.67617 0
M  V30 4984 C 485.265 1.64786 -0.558701 0
M  V30 4985 O 486.441 1.8341 -0.832034 0
M  V30 4986 C 483.506 3.00548 -1.72835 0
M  V30 4987 C 482.567 3.10615 -2.96339 0
M  V30 4988 C 481.8 4.40517 -3.01298 0
M  V30 4989 O 482.023 5.28671 -2.14157 0
M  V30 4990 O 480.957 4.55325 -3.93653 0
M  V30 4991 H 484.783 1.51407 -2.63267 0
M  V30 4992 H 482.368 0.687131 -1.32661 0
M  V30 4993 H 484.25 3.81641 -1.78683 0
M  V30 4994 H 482.925 3.13566 -0.803616 0
M  V30 4995 H 481.832 2.2875 -2.96014 0
M  V30 4996 H 483.165 3.0252 -3.88256 0
M  V30 4997 N 484.817 1.37938 0.762283 0
M  V30 4998 C 486.228 1.30094 1.33912 0
M  V30 4999 C 486.579 -0.0472026 1.96143 0
M  V30 5000 O 485.704 -0.94917 1.94473 0
M  V30 5001 C 486.299 2.35592 2.43478 0
M  V30 5002 C 484.858 2.31353 2.96905 0
M  V30 5003 C 484.005 2.18919 1.70205 0
M  V30 5004 H 486.956 1.48423 0.561816 0
M  V30 5005 H 486.977 2.00806 3.23199 0
M  V30 5006 H 486.489 3.33701 1.98155 0
M  V30 5007 H 484.59 1.36799 3.46579 0
M  V30 5008 H 484.703 3.25147 3.51875 0
M  V30 5009 H 483.067 1.65624 1.93496 0
M  V30 5010 H 483.85 3.18956 1.26973 0
M  V30 5011 N 486.295 -0.989507 1.22664 0
M  V30 5012 C 487.543 -1.72612 1.05117 0
M  V30 5013 C 487.864 -1.90552 -0.414131 0
M  V30 5014 O 487.134 -1.4676 -1.29762 0
M  V30 5015 H 485.714 -0.639555 0.385977 0
M  V30 5016 H 488.376 -1.19158 1.54232 0
M  V30 5017 H 487.472 -2.71926 1.53175 0
M  V30 5018 N 487.773 -1.03688 -1.18687 0
M  V30 5019 C 488.736 -0.629115 -2.20397 0
M  V30 5020 C 489.736 0.311495 -1.57754 0
M  V30 5021 O 490.926 0.0974107 -1.73927 0
M  V30 5022 C 488.058 0.0782231 -3.4081 0
M  V30 5023 H 489.251 -1.52915 -2.57987 0
M  V30 5024 H 486.804 -0.828988 -1.32505 0
M  V30 5025 H 487.539 0.992233 -3.08748 0
M  V30 5026 H 487.324 -0.597776 -3.87517 0
M  V30 5027 H 488.814 0.350156 -4.16129 0
M  V30 5028 N 489.251 1.34841 -0.815825 0
M  V30 5029 C 490.183 2.28409 -0.190265 0
M  V30 5030 C 491.196 1.50705 0.615771 0
M  V30 5031 O 492.385 1.72822 0.446616 0
M  V30 5032 C 489.485 3.30441 0.752446 0
M  V30 5033 C 488.658 4.37399 -0.00922152 0
M  V30 5034 C 487.717 5.19234 0.853351 0
M  V30 5035 O 486.743 5.68404 0.300919 0
M  V30 5036 N 487.945 5.38248 2.17416 0
M  V30 5037 H 490.71 2.82732 -0.994114 0
M  V30 5038 H 488.271 1.47289 -0.672129 0
M  V30 5039 H 490.263 3.82084 1.33394 0
M  V30 5040 H 488.833 2.76565 1.45707 0
M  V30 5041 H 488.053 3.86567 -0.771979 0
M  V30 5042 H 489.341 5.05992 -0.533807 0
M  V30 5043 H 488.739 4.99961 2.6468 0
M  V30 5044 H 487.296 5.93035 2.70467 0
M  V30 5045 N 490.729 0.570148 1.46925 0
M  V30 5046 C 491.692 -0.159933 2.28641 0
M  V30 5047 C 492.692 -0.830638 1.37685 0
M  V30 5048 O 493.882 -0.684516 1.60187 0
M  V30 5049 C 491.014 -1.2354 3.17727 0
M  V30 5050 H 492.207 0.558035 2.94662 0
M  V30 5051 H 489.76 0.327603 1.52828 0
M  V30 5052 H 490.495 -1.98535 2.56426 0
M  V30 5053 H 490.28 -0.759125 3.84681 0
M  V30 5054 H 491.77 -1.74782 3.79264 0
M  V30 5055 N 492.207 -1.54576 0.307264 0
M  V30 5056 C 493.117 -2.27435 -0.57536 0
M  V30 5057 C 494.133 -1.31183 -1.14311 0
M  V30 5058 O 495.309 -1.64175 -1.16656 0
M  V30 5059 C 492.374 -3.00566 -1.72803 0
M  V30 5060 C 491.435 -4.12369 -1.19373 0
M  V30 5061 C 490.668 -4.82003 -2.29147 0
M  V30 5062 O 490.891 -4.51038 -3.49171 0
M  V30 5063 O 489.825 -5.69271 -1.95485 0
M  V30 5064 H 493.651 -3.03696 0.0158558 0
M  V30 5065 H 491.236 -1.49219 0.0735064 0
M  V30 5066 H 493.118 -3.46416 -2.39946 0
M  V30 5067 H 491.793 -2.27195 -2.30574 0
M  V30 5068 H 490.7 -3.70905 -0.487851 0
M  V30 5069 H 492.033 -4.87736 -0.661376 0
M  V30 5070 N 493.685 -0.035106 -1.57561 0
M  V30 5071 C 495.096 0.502885 -1.798 0
M  V30 5072 C 495.447 1.71892 -0.945921 0
M  V30 5073 O 494.572 2.15822 -0.157991 0
M  V30 5074 C 495.167 0.919097 -3.26095 0
M  V30 5075 C 493.726 1.40216 -3.49308 0
M  V30 5076 C 492.873 0.369709 -2.74824 0
M  V30 5077 H 495.824 -0.261102 -1.56537 0
M  V30 5078 H 495.845 1.78308 -3.36135 0
M  V30 5079 H 495.357 0.0338526 -3.88085 0
M  V30 5080 H 493.458 2.30714 -2.92578 0
M  V30 5081 H 493.571 1.40541 -4.58023 0
M  V30 5082 H 491.935 0.839113 -2.40481 0
M  V30 5083 H 492.718 -0.507173 -3.39533 0
M  V30 5084 N 495.163 1.55791 0.238111 0
M  V30 5085 C 496.093 1.94068 1.29846 0
M  V30 5086 C 497.074 0.806726 1.49753 0
M  V30 5087 O 498.259 1.06772 1.62214 0
M  V30 5088 C 495.389 2.24302 2.65153 0
M  V30 5089 C 494.343 3.40032 2.59927 0
M  V30 5090 C 493.669 3.55829 3.99111 0
M  V30 5091 C 494.969 4.75476 2.16148 0
M  V30 5092 H 496.663 2.82887 0.980563 0
M  V30 5093 H 494.209 1.36105 0.470253 0
M  V30 5094 H 496.162 2.4967 3.39475 0
M  V30 5095 H 494.886 1.32318 2.98596 0
M  V30 5096 H 493.545 3.14687 1.88063 0
M  V30 5097 H 493.193 2.6125 4.29834 0
M  V30 5098 H 492.893 4.3366 3.96501 0
M  V30 5099 H 494.417 3.83528 4.7512 0
M  V30 5100 H 495.831 5.00158 2.80205 0
M  V30 5101 H 494.228 5.56472 2.24631 0
M  V30 5102 H 495.298 4.71946 1.11333 0
M  V30 5103 N 496.642 -0.504142 1.49319 0
M  V30 5104 C 497.872 -1.28071 1.62116 0
M  V30 5105 C 498.28 -1.86955 0.290566 0
M  V30 5106 O 497.623 -1.68415 -0.733616 0
M  V30 5107 C 497.685 -2.4521 2.62893 0
M  V30 5108 C 497.349 -2.07218 4.0732 0
M  V30 5109 C 498.346 -1.61375 4.94221 0
M  V30 5110 C 496.031 -2.16949 4.53033 0
M  V30 5111 C 498.025 -1.25763 6.2487 0
M  V30 5112 C 495.712 -1.80949 5.83696 0
M  V30 5113 C 496.71 -1.3543 6.69438 0
M  V30 5114 O 496.398 -0.99915 7.97667 0
M  V30 5115 H 496.13 -0.394763 0.54876 0
M  V30 5116 H 498.684 -0.612118 1.96067 0
M  V30 5117 H 496.914 -3.15134 2.24115 0
M  V30 5118 H 498.603 -3.0724 2.65252 0
M  V30 5119 H 499.369 -1.53306 4.60133 0
M  V30 5120 H 495.248 -2.5133 3.86463 0
M  V30 5121 H 498.792 -0.901631 6.91749 0
M  V30 5122 H 494.689 -1.88667 6.17313 0
M  V30 5123 H 495.457 -1.13089 8.1065 0
M  V30 5124 N 498.12 -1.38341 -0.754957 0
M  V30 5125 C 499.05 -1.38176 -1.88227 0
M  V30 5126 C 500.031 -0.247873 -1.68284 0
M  V30 5127 O 501.216 -0.45075 -1.88896 0
M  V30 5128 C 498.346 -1.20471 -3.25736 0
M  V30 5129 C 497.3 -2.3105 -3.60278 0
M  V30 5130 C 496.626 -1.98452 -4.96509 0
M  V30 5131 C 497.926 -3.73305 -3.65295 0
M  V30 5132 H 499.62 -2.32512 -1.88622 0
M  V30 5133 H 497.166 -1.1192 -0.906082 0
M  V30 5134 H 499.119 -1.18982 -4.04254 0
M  V30 5135 H 497.843 -0.225965 -3.25817 0
M  V30 5136 H 496.502 -2.31723 -2.84078 0
M  V30 5137 H 496.15 -0.990641 -4.93148 0
M  V30 5138 H 495.85 -2.7251 -5.20588 0
M  V30 5139 H 497.374 -1.98578 -5.77407 0
M  V30 5140 H 498.788 -3.7467 -4.3393 0
M  V30 5141 H 497.185 -4.46557 -4.00883 0
M  V30 5142 H 498.255 -4.05719 -2.65556 0
M  V30 5143 N 499.598 0.982988 -1.23187 0
M  V30 5144 C 500.875 1.69814 -0.970707 0
M  V30 5145 C 501.255 2.04811 0.511424 0
M  V30 5146 O 500.603 1.73924 1.48198 0
M  V30 5147 C 500.813 2.94143 -1.87831 0
M  V30 5148 C 502.161 3.66712 -2.14026 0
M  V30 5149 O 503.185 3.04171 -1.8536 0
M  V30 5150 O 502.044 4.79258 -2.62629 0
M  V30 5151 H 499.138 0.741659 -0.365884 0
M  V30 5152 H 501.684 1.03844 -1.34218 0
M  V30 5153 H 500.456 2.64858 -2.88038 0
M  V30 5154 H 500.079 3.6785 -1.50905 0
M  V30 5155 N 501.076 1.04316 1.18135 0
M  V30 5156 C 502.322 0.749128 1.88457 0
M  V30 5157 C 502.655 -0.72149 1.803 0
M  V30 5158 O 501.93 -1.52676 1.205 0
M  V30 5159 C 502.213 1.21905 3.38838 0
M  V30 5160 C 502.066 2.75195 3.55792 0
M  V30 5161 C 503.385 0.811085 4.32561 0
M  V30 5162 H 500.504 0.273611 0.684329 0
M  V30 5163 H 503.146 1.29561 1.38975 0
M  V30 5164 H 501.296 0.754137 3.8111 0
M  V30 5165 H 502.968 3.29743 3.22595 0
M  V30 5166 H 501.211 3.14899 2.98364 0
M  V30 5167 H 501.882 3.03135 4.61317 0
M  V30 5168 H 504.358 1.21118 3.98082 0
M  V30 5169 H 503.234 1.16761 5.36338 0
M  V30 5170 H 503.495 -0.285596 4.41177 0
M  V30 5171 N 502.554 -1.34406 0.822964 0
M  V30 5172 C 503.487 -2.27407 0.190124 0
M  V30 5173 C 504.465 -1.4889 -0.653486 0
M  V30 5174 O 505.649 -1.78109 -0.617216 0
M  V30 5175 C 502.776 -3.3064 -0.734477 0
M  V30 5176 C 501.822 -4.26488 0.0316099 0
M  V30 5177 S 502.655 -5.17445 1.3788 0
M  V30 5178 C 503.811 -6.24214 0.45907 0
M  V30 5179 H 504.044 -2.80733 0.978586 0
M  V30 5180 H 501.577 -1.41455 0.618866 0
M  V30 5181 H 503.535 -3.90607 -1.26238 0
M  V30 5182 H 502.196 -2.76161 -1.49646 0
M  V30 5183 H 501.389 -4.9951 -0.671285 0
M  V30 5184 H 500.991 -3.70775 0.490066 0
M  V30 5185 H 503.283 -6.76599 -0.349357 0
M  V30 5186 H 504.226 -6.98551 1.15896 0
M  V30 5187 H 504.634 -5.6448 0.0474825 0
M  V30 5188 N 504.032 -0.577932 -1.46621 0
M  V30 5189 C 505.26 -0.0671642 -2.06791 0
M  V30 5190 C 505.675 1.23571 -1.42743 0
M  V30 5191 O 505.032 1.74602 -0.531062 0
M  V30 5192 C 505.083 0.110357 -3.61332 0
M  V30 5193 O 504.804 -1.14095 -4.22982 0
M  V30 5194 C 506.305 0.656025 -4.38419 0
M  V30 5195 H 503.525 -0.0552732 -0.66872 0
M  V30 5196 H 506.069 -0.797242 -1.8832 0
M  V30 5197 H 504.224 0.790637 -3.79246 0
M  V30 5198 H 504.638 -0.951742 -5.15793 0
M  V30 5199 H 506.112 0.729438 -5.47159 0
M  V30 5200 H 506.589 1.67195 -4.06131 0
M  V30 5201 H 507.195 0.0107692 -4.25299 0
M  V30 5202 N 505.51 1.54411 -0.315457 0
M  V30 5203 C 506.473 2.22713 0.54142 0
M  V30 5204 C 507.473 1.2179 1.04995 0
M  V30 5205 O 508.663 1.46426 0.943667 0
M  V30 5206 C 505.795 2.92485 1.75116 0
M  V30 5207 H 506.988 2.99849 -0.0555508 0
M  V30 5208 H 504.541 1.56159 -0.0664453 0
M  V30 5209 H 505.276 2.19466 2.38758 0
M  V30 5210 H 505.061 3.66483 1.39401 0
M  V30 5211 H 506.551 3.44548 2.35959 0
M  V30 5212 N 506.988 0.0434614 1.5754 0
M  V30 5213 C 507.918 -0.931651 2.14109 0
M  V30 5214 C 508.899 -1.32971 1.06079 0
M  V30 5215 O 510.084 -1.40579 1.33982 0
M  V30 5216 C 507.214 -2.20914 2.67982 0
M  V30 5217 C 506.168 -1.95139 3.80926 0
M  V30 5218 C 505.494 -3.29276 4.21285 0
M  V30 5219 C 506.794 -1.27913 5.06395 0
M  V30 5220 H 508.488 -0.460497 2.95837 0
M  V30 5221 H 506.034 -0.220058 1.42309 0
M  V30 5222 H 507.987 -2.89522 3.06194 0
M  V30 5223 H 506.711 -2.70221 1.83434 0
M  V30 5224 H 505.37 -1.28945 3.43175 0
M  V30 5225 H 505.018 -3.76369 3.33699 0
M  V30 5226 H 504.718 -3.12831 4.97404 0
M  V30 5227 H 506.242 -3.99129 4.62091 0
M  V30 5228 H 507.656 -1.86544 5.42102 0
M  V30 5229 H 506.053 -1.2182 5.87605 0
M  V30 5230 H 507.123 -0.254066 4.84234 0
M  V30 5231 N 508.466 -1.55915 -0.229846 0
M  V30 5232 C 509.429 -1.90914 -1.26824 0
M  V30 5233 C 510.429 -0.786999 -1.40225 0
M  V30 5234 O 511.619 -1.05484 -1.38632 0
M  V30 5235 C 508.751 -2.15264 -2.64337 0
M  V30 5236 H 509.944 -2.8378 -0.969998 0
M  V30 5237 H 507.497 -1.49069 -0.4699 0
M  V30 5238 H 508.232 -1.24923 -2.99274 0
M  V30 5239 H 508.017 -2.97005 -2.55989 0
M  V30 5240 H 509.507 -2.43467 -3.39284 0
M  V30 5241 N 509.944 0.496216 -1.49584 0
M  V30 5242 C 510.854 1.62352 -1.69349 0
M  V30 5243 C 511.87 1.64184 -0.576147 0
M  V30 5244 O 513.046 1.82517 -0.85144 0
M  V30 5245 C 510.111 2.98698 -1.76013 0
M  V30 5246 C 509.172 3.07454 -2.99617 0
M  V30 5247 C 508.405 4.37296 -3.05953 0
M  V30 5248 O 508.628 5.2637 -2.19752 0
M  V30 5249 O 507.562 4.51124 -3.9846 0
M  V30 5250 H 511.388 1.48606 -2.64859 0
M  V30 5251 H 508.973 0.673022 -1.33382 0
M  V30 5252 H 510.855 3.79725 -1.82721 0
M  V30 5253 H 509.53 3.12696 -0.836828 0
M  V30 5254 H 508.437 2.25597 -2.98424 0
M  V30 5255 H 509.77 2.98385 -3.91443 0
M  V30 5256 N 511.423 1.38739 0.74761 0
M  V30 5257 C 512.386 1.36241 1.84312 0
M  V30 5258 C 513.386 0.261811 1.58654 0
M  V30 5259 O 514.576 0.519031 1.66288 0
M  V30 5260 C 511.708 1.12253 3.21888 0
M  V30 5261 H 512.901 2.33712 1.87933 0
M  V30 5262 H 510.454 1.2412 0.949946 0
M  V30 5263 H 511.189 0.154133 3.23934 0
M  V30 5264 H 510.974 1.91943 3.41907 0
M  V30 5265 H 512.464 1.13215 4.0196 0
M  V30 5266 N 512.901 -0.976442 1.23707 0
M  V30 5267 C 514.148 -1.71827 1.07153 0
M  V30 5268 C 514.476 -1.9053 -0.390982 0
M  V30 5269 O 513.731 -1.45779 -1.30564 0
M  V30 5270 C 514.03 -3.11814 1.74662 0
M  V30 5271 C 513.696 -3.12978 3.24585 0
M  V30 5272 C 512.358 -3.13003 3.6549 0
M  V30 5273 C 514.71 -3.07986 4.20469 0
M  V30 5274 C 512.038 -3.05757 5.00729 0
M  V30 5275 C 514.39 -3.02282 5.55705 0
M  V30 5276 C 513.054 -3.00631 5.95968 0
M  V30 5277 H 512.324 -0.628758 0.392102 0
M  V30 5278 H 514.971 -1.14239 1.53693 0
M  V30 5279 H 513.276 -3.72812 1.20492 0
M  V30 5280 H 514.973 -3.67989 1.59328 0
M  V30 5281 H 511.563 -3.13718 2.92026 0
M  V30 5282 H 515.747 -3.07103 3.89874 0
M  V30 5283 H 511.003 -3.02834 5.31132 0
M  V30 5284 H 515.177 -2.97376 6.29714 0
M  V30 5285 H 512.804 -2.94771 7.00724 0
M  V30 5286 N 514.379 -1.04941 -1.1758 0
M  V30 5287 C 515.327 -0.64204 -2.23563 0
M  V30 5288 C 516.321 0.335453 -1.66045 0
M  V30 5289 O 517.527 0.20179 -1.78865 0
M  V30 5290 H 513.902 -0.18944 -0.727748 0
M  V30 5291 H 515.873 -1.54609 -2.55223 0
M  V30 5292 C 514.622 -0.0301051 -3.47687 0
M  V30 5293 H 513.945 -0.773339 -3.92249 0
M  V30 5294 H 515.385 0.217592 -4.23441 0
M  V30 5295 C 513.844 1.2225 -3.13937 0
M  V30 5296 O 514.374 2.3122 -3.28482 0
M  V30 5297 N 512.58 1.11917 -2.68185 0
M  V30 5298 H 512.127 0.232403 -2.5655 0
M  V30 5299 H 512.085 1.95814 -2.45976 0
M  V30 5300 N 515.857 1.33968 -0.830081 0
M  V30 5301 C 516.805 2.31301 -0.245435 0
M  V30 5302 C 517.799 1.57734 0.617762 0
M  V30 5303 O 519.005 1.72674 0.508303 0
M  V30 5304 H 515.38 0.749552 -0.0606316 0
M  V30 5305 H 517.351 2.78129 -1.08105 0
M  V30 5306 C 516.1 3.42961 0.572084 0
M  V30 5307 H 515.423 3.99714 -0.0828118 0
M  V30 5308 H 516.863 4.13286 0.94715 0
M  V30 5309 C 515.322 2.88043 1.74737 0
M  V30 5310 O 515.852 2.83508 2.8458 0
M  V30 5311 N 514.058 2.44768 1.56642 0
M  V30 5312 H 513.605 2.48656 0.672901 0
M  V30 5313 H 513.563 2.08375 2.3543 0
M  V30 5314 N 517.335 0.585699 1.46312 0
M  V30 5315 C 518.583 0.072278 2.01971 0
M  V30 5316 C 518.904 -1.29345 1.45928 0
M  V30 5317 O 518.174 -1.84973 0.645109 0
M  V30 5318 H 516.754 0.023729 0.746623 0
M  V30 5319 H 519.416 0.762155 1.7938 0
M  V30 5320 H 518.512 0.00552767 3.121 0
M  V30 5321 N 518.813 -1.54241 0.323641 0
M  V30 5322 C 519.723 -2.28033 -0.551205 0
M  V30 5323 C 520.739 -1.32388 -1.12913 0
M  V30 5324 O 521.915 -1.65403 -1.14908 0
M  V30 5325 C 518.98 -3.02382 -1.69606 0
M  V30 5326 C 518.041 -4.13612 -1.14993 0
M  V30 5327 C 517.274 -4.84407 -2.24022 0
M  V30 5328 O 517.497 -4.54716 -3.44368 0
M  V30 5329 O 516.431 -5.71312 -1.89436 0
M  V30 5330 H 520.257 -3.03662 0.048066 0
M  V30 5331 H 517.842 -1.49133 0.0893289 0
M  V30 5332 H 519.724 -3.48941 -2.36259 0
M  V30 5333 H 518.399 -2.29628 -2.28151 0
M  V30 5334 H 517.306 -3.71402 -0.448484 0
M  V30 5335 H 518.639 -4.8841 -0.609608 0
M  V30 5336 N 520.291 -0.0518155 -1.57515 0
M  V30 5337 C 521.707 0.304735 -1.56664 0
M  V30 5338 C 521.907 1.71395 -1.05953 0
M  V30 5339 O 520.963 2.42123 -0.716414 0
M  V30 5340 C 522.276 0.132614 -3.00407 0
M  V30 5341 C 523.824 0.20367 -3.12337 0
M  V30 5342 C 524.299 0.0600706 -4.57961 0
M  V30 5343 N 525.79 0.116326 -4.63054 0
M  V30 5344 C 526.525 0.0293363 -5.73392 0
M  V30 5345 N 526.021 -0.110038 -6.92713 0
M  V30 5346 N 527.814 0.0849651 -5.62036 0
M  V30 5347 H 519.965 -0.973056 -1.888 0
M  V30 5348 H 522.228 -0.377781 -0.869474 0
M  V30 5349 H 521.934 -0.839019 -3.41546 0
M  V30 5350 H 521.808 0.893376 -3.66468 0
M  V30 5351 H 524.195 1.16578 -2.71097 0
M  V30 5352 H 524.276 -0.587857 -2.48954 0
M  V30 5353 H 523.92 -0.898715 -4.99886 0
M  V30 5354 H 523.85 0.87075 -5.19351 0
M  V30 5355 H 526.341 0.22327 -3.7724 0
M  V30 5356 H 526.654 -0.169104 -7.72615 0
M  V30 5357 H 524.999 -0.145132 -6.94848 0
M  V30 5358 H 528.19 0.192411 -4.67704 0
M  V30 5359 H 528.363 0.0137131 -6.47999 0
M  V30 5360 N 521.769 1.56035 0.221574 0
M  V30 5361 C 522.679 1.95581 1.29558 0
M  V30 5362 C 523.695 0.859639 1.51282 0
M  V30 5363 O 524.871 1.16321 1.64413 0
M  V30 5364 C 521.936 2.26447 2.62531 0
M  V30 5365 C 520.997 3.49632 2.4911 0
M  V30 5366 C 520.23 3.79017 3.75742 0
M  V30 5367 O 520.453 3.10077 4.78757 0
M  V30 5368 O 519.387 4.72507 3.72855 0
M  V30 5369 H 523.213 2.8711 0.990035 0
M  V30 5370 H 520.798 1.43244 0.424434 0
M  V30 5371 H 522.68 2.47494 3.41064 0
M  V30 5372 H 521.355 1.38092 2.92766 0
M  V30 5373 H 520.262 3.33864 1.68777 0
M  V30 5374 H 521.595 4.3837 2.23814 0
M  V30 5375 N 523.247 -0.488276 1.49845 0
M  V30 5376 C 524.475 -1.26527 1.63702 0
M  V30 5377 C 524.89 -1.8618 0.313447 0
M  V30 5378 O 524.247 -1.68432 -0.702624 0
M  V30 5379 C 524.298 -2.3864 2.71538 0
M  V30 5380 O 524.019 -1.81437 3.98763 0
M  V30 5381 C 525.52 -3.29805 2.96215 0
M  V30 5382 H 522.74 -0.383295 0.55075 0
M  V30 5383 H 525.284 -0.584779 1.95961 0
M  V30 5384 H 523.439 -3.02496 2.42023 0
M  V30 5385 H 523.853 -2.55135 4.58265 0
M  V30 5386 H 525.327 -4.04722 3.75372 0
M  V30 5387 H 525.804 -3.87563 2.06619 0
M  V30 5388 H 526.41 -2.71703 3.27196 0
M  V30 5389 N 524.725 -1.39134 -0.740242 0
M  V30 5390 C 525.655 -1.40165 -1.86751 0
M  V30 5391 C 526.636 -0.265708 -1.68012 0
M  V30 5392 O 527.821 -0.47076 -1.88408 0
M  V30 5393 C 524.951 -1.2392 -3.2444 0
M  V30 5394 C 523.905 -2.34858 -3.57807 0
M  V30 5395 C 523.231 -2.03707 -4.94376 0
M  V30 5396 C 524.531 -3.77159 -3.61315 0
M  V30 5397 H 526.225 -2.345 -1.86145 0
M  V30 5398 H 523.771 -1.12875 -0.89416 0
M  V30 5399 H 525.724 -1.23263 -4.02969 0
M  V30 5400 H 524.448 -0.26051 -3.25559 0
M  V30 5401 H 523.107 -2.34723 -2.81604 0
M  V30 5402 H 522.755 -1.04289 -4.9207 0
M  V30 5403 H 522.455 -2.78016 -5.17669 0
M  V30 5404 H 523.979 -2.04691 -5.75268 0
M  V30 5405 H 525.393 -3.79252 -4.29931 0
M  V30 5406 H 523.79 -4.50784 -3.96124 0
M  V30 5407 H 524.86 -4.08513 -2.61238 0
M  V30 5408 N 526.204 0.969867 -1.24223 0
M  V30 5409 C 527.615 1.52717 -1.07399 0
M  V30 5410 C 527.966 1.92956 0.355298 0
M  V30 5411 O 527.091 1.77112 1.2434 0
M  V30 5412 C 527.686 2.77521 -1.94339 0
M  V30 5413 C 526.245 3.29615 -1.81744 0
M  V30 5414 C 525.392 2.02537 -1.89405 0
M  V30 5415 H 528.343 0.788399 -1.37732 0
M  V30 5416 H 528.364 3.50773 -1.47439 0
M  V30 5417 H 527.876 2.48203 -2.98357 0
M  V30 5418 H 525.977 3.63789 -0.805505 0
M  V30 5419 H 526.09 3.98661 -2.65718 0
M  V30 5420 H 524.454 2.17151 -1.33108 0
M  V30 5421 H 525.237 1.75587 -2.94999 0
M  V30 5422 N 527.682 1.05563 1.17022 0
M  V30 5423 C 529.098 0.777684 1.39371 0
M  V30 5424 C 529.298 -0.626269 1.91521 0
M  V30 5425 O 528.354 -1.38806 2.10924 0
M  V30 5426 C 529.667 1.83642 2.3811 0
M  V30 5427 C 531.215 1.85907 2.51809 0
M  V30 5428 C 531.69 2.90813 3.53824 0
M  V30 5429 N 533.181 2.898 3.61345 0
M  V30 5430 C 533.916 3.6762 4.40049 0
M  V30 5431 N 533.412 4.55237 5.22237 0
M  V30 5432 N 535.205 3.56044 4.34959 0
M  V30 5433 H 527.356 1.9614 0.815047 0
M  V30 5434 H 529.619 0.849527 0.420722 0
M  V30 5435 H 529.325 2.84425 2.06871 0
M  V30 5436 H 529.199 1.6812 3.37662 0
M  V30 5437 H 531.586 0.857865 2.82356 0
M  V30 5438 H 531.667 2.05506 1.52318 0
M  V30 5439 H 531.311 3.91122 3.24015 0
M  V30 5440 H 531.241 2.68465 4.53028 0
M  V30 5441 H 533.732 2.26274 3.02669 0
M  V30 5442 H 534.045 5.11291 5.79484 0
M  V30 5443 H 532.39 4.59296 5.21605 0
M  V30 5444 H 535.581 2.86986 3.69806 0
M  V30 5445 H 535.754 4.16938 4.96051 0
M  V30 5446 N 529.16 -1.33526 0.837174 0
M  V30 5447 C 530.406 -1.9813 0.432704 0
M  V30 5448 C 530.739 -1.66168 -1.00508 0
M  V30 5449 O 530.014 -0.94069 -1.70239 0
M  V30 5450 C 530.297 -3.54151 0.651834 0
M  V30 5451 C 530.15 -3.95806 2.13676 0
M  V30 5452 C 531.469 -4.39993 0.0968937 0
M  V30 5453 H 528.588 -0.719713 0.15869 0
M  V30 5454 H 531.23 -1.58193 1.05237 0
M  V30 5455 H 529.38 -3.88301 0.124369 0
M  V30 5456 H 531.052 -3.71921 2.72896 0
M  V30 5457 H 529.295 -3.45599 2.62191 0
M  V30 5458 H 529.966 -5.0447 2.24084 0
M  V30 5459 H 532.442 -4.12479 0.547733 0
M  V30 5460 H 531.318 -5.48186 0.279917 0
M  V30 5461 H 531.579 -4.3066 -0.9992 0
M  V30 5462 N 530.638 -0.59345 -1.46 0
M  V30 5463 C 531.887 -0.0808084 -2.01538 0
M  V30 5464 C 532.2 1.29112 -1.46934 0
M  V30 5465 O 533.406 1.8957 -1.94359 0
M  V30 5466 C 531.862 -0.0938311 -3.59778 0
M  V30 5467 C 531.47 -1.46474 -4.23379 0
M  V30 5468 C 533.214 0.364306 -4.22934 0
M  V30 5469 C 531.121 -1.4349 -5.73729 0
M  V30 5470 H 530.051 -0.0264407 -0.753536 0
M  V30 5471 H 532.702 -0.746689 -1.67621 0
M  V30 5472 H 531.084 0.638427 -3.9082 0
M  V30 5473 H 532.258 -2.21758 -4.03931 0
M  V30 5474 H 530.573 -1.86379 -3.7236 0
M  V30 5475 H 533.17 0.405584 -5.3316 0
M  V30 5476 H 533.513 1.38409 -3.92618 0
M  V30 5477 H 534.046 -0.31423 -3.96557 0
M  V30 5478 H 530.785 -2.43184 -6.08722 0
M  V30 5479 H 530.305 -0.724431 -5.95409 0
M  V30 5480 H 531.984 -1.15243 -6.36654 0
M  V30 5481 N 532.116 1.54067 -0.331816 0
M  V30 5482 C 533.364 2.00319 0.267739 0
M  V30 5483 C 533.685 1.22148 1.52003 0
M  V30 5484 O 532.955 0.325494 1.93177 0
M  V30 5485 H 531.535 0.740014 0.101922 0
M  V30 5486 H 534.197 1.89628 -0.450267 0
M  V30 5487 H 533.293 3.07765 0.518385 0
M  V30 5488 N 533.594 0.0601682 1.57485 0
M  V30 5489 C 534.842 -0.610386 1.92662 0
M  V30 5490 C 535.163 -1.70849 0.939981 0
M  V30 5491 O 534.433 -1.95895 -0.0137455 0
M  V30 5492 H 533.013 -0.228457 0.711208 0
M  V30 5493 H 535.675 0.115288 1.94559 0
M  V30 5494 H 534.771 -1.0432 2.94149 0
M  V30 5495 N 535.072 -1.5615 -0.213296 0
M  V30 5496 C 536.488 -1.49327 -0.56336 0
M  V30 5497 C 536.688 -0.756826 -1.86747 0
M  V30 5498 O 535.744 -0.299866 -2.50713 0
M  V30 5499 C 537.057 -2.9392 -0.634944 0
M  V30 5500 C 538.605 -3.04487 -0.725013 0
M  V30 5501 C 539.08 -4.50456 -0.82787 0
M  V30 5502 N 540.571 -4.54533 -0.891876 0
M  V30 5503 C 541.306 -5.64766 -0.991315 0
M  V30 5504 N 540.802 -6.84733 -1.05419 0
M  V30 5505 N 542.595 -5.52637 -1.02709 0
M  V30 5506 H 534.746 -2.02453 0.642366 0
M  V30 5507 H 537.009 -0.920548 0.226487 0
M  V30 5508 H 536.715 -3.50783 0.253859 0
M  V30 5509 H 536.589 -3.46274 -1.49579 0
M  V30 5510 H 538.976 -2.47685 -1.60425 0
M  V30 5511 H 539.057 -2.55289 0.161669 0
M  V30 5512 H 538.701 -5.07878 0.0469464 0
M  V30 5513 H 538.631 -4.97369 -1.73009 0
M  V30 5514 H 541.122 -3.68141 -0.85327 0
M  V30 5515 H 541.435 -7.64493 -1.13007 0
M  V30 5516 H 539.78 -6.87427 -1.02318 0
M  V30 5517 H 542.971 -4.5784 -0.974687 0
M  V30 5518 H 543.144 -6.38576 -1.10113 0
M  V30 5519 N 536.55 0.480323 -1.50102 0
M  V30 5520 C 537.78 1.25475 -1.64133 0
M  V30 5521 C 538.188 1.8647 -0.320272 0
M  V30 5522 O 537.531 1.69561 0.70673 0
M  V30 5523 C 537.593 2.40996 -2.6676 0
M  V30 5524 C 537.257 2.00711 -4.10565 0
M  V30 5525 C 538.254 1.53492 -4.96725 0
M  V30 5526 C 535.939 2.09714 -4.56427 0
M  V30 5527 C 537.933 1.15806 -6.26792 0
M  V30 5528 C 535.62 1.7164 -5.86501 0
M  V30 5529 C 536.618 1.24763 -6.71508 0
M  V30 5530 O 536.306 0.872122 -7.99155 0
M  V30 5531 H 536.038 0.385983 -0.554971 0
M  V30 5532 H 538.592 0.580848 -1.97016 0
M  V30 5533 H 536.822 3.11528 -2.291 0
M  V30 5534 H 538.511 3.02981 -2.70106 0
M  V30 5535 H 539.277 1.45966 -4.62514 0
M  V30 5536 H 535.156 2.4515 -3.90413 0
M  V30 5537 H 538.7 0.791465 -6.93096 0
M  V30 5538 H 534.597 1.78822 -6.20236 0
M  V30 5539 H 535.365 1.00178 -8.12346 0
M  V30 5540 N 538.028 1.39524 0.732853 0
M  V30 5541 C 539.276 1.36594 1.48951 0
M  V30 5542 C 539.597 -0.0367507 1.94965 0
M  V30 5543 O 538.867 -0.988391 1.69138 0
M  V30 5544 H 537.447 0.502673 0.552566 0
M  V30 5545 H 540.109 1.74411 0.869869 0
M  V30 5546 H 539.205 2.03 2.3706 0
M  V30 5547 N 539.506 -0.963266 1.24736 0
M  V30 5548 C 540.436 -2.07628 1.06832 0
M  V30 5549 C 541.417 -1.70088 -0.0200566 0
M  V30 5550 O 542.602 -1.93636 0.147854 0
M  V30 5551 C 539.732 -3.40636 0.677069 0
M  V30 5552 C 538.686 -3.9215 1.71471 0
M  V30 5553 C 538.012 -5.21553 1.1784 0
M  V30 5554 C 539.312 -4.19493 3.11164 0
M  V30 5555 H 541.006 -2.22864 1.9993 0
M  V30 5556 H 538.552 -1.07093 0.96266 0
M  V30 5557 H 540.505 -4.17941 0.538792 0
M  V30 5558 H 539.229 -3.25313 -0.289612 0
M  V30 5559 H 537.888 -3.17005 1.84128 0
M  V30 5560 H 537.536 -5.02593 0.202195 0
M  V30 5561 H 537.236 -5.56988 1.87185 0
M  V30 5562 H 538.76 -6.01463 1.05233 0
M  V30 5563 H 540.174 -4.87487 3.01711 0
M  V30 5564 H 538.571 -4.66165 3.77902 0
M  V30 5565 H 539.641 -3.26097 3.58871 0
M  V30 5566 N 540.985 -1.06182 -1.16461 0
M  V30 5567 C 542.21 -0.798599 -1.91408 0
M  V30 5568 C 542.635 0.640987 -1.76842 0
M  V30 5569 O 541.993 1.44652 -1.09296 0
M  V30 5570 C 542.041 -1.19665 -3.40165 0
M  V30 5571 O 541.145 -0.334768 -4.11039 0
M  V30 5572 H 540.486 -0.291961 -0.596368 0
M  V30 5573 H 543.016 -1.41732 -1.47557 0
M  V30 5574 H 543.026 -1.16772 -3.90933 0
M  V30 5575 H 541.701 -2.24526 -3.50087 0
M  V30 5576 H 540.278 -0.425168 -3.70468 0
M  V30 5577 N 542.463 1.3308 -0.844243 0
M  V30 5578 C 543.688 2.02341 -0.455282 0
M  V30 5579 C 544.113 1.6308 0.93737 0
M  V30 5580 O 543.471 0.826118 1.61385 0
M  V30 5581 C 543.519 3.55743 -0.58988 0
M  V30 5582 O 542.623 4.1063 0.38166 0
M  V30 5583 H 541.964 0.637898 -0.184343 0
M  V30 5584 H 544.494 1.6986 -1.14056 0
M  V30 5585 H 544.504 4.05243 -0.473522 0
M  V30 5586 H 543.179 3.83662 -1.60549 0
M  V30 5587 H 541.756 3.72236 0.22241 0
M  V30 5588 N 543.941 0.601185 1.45683 0
M  V30 5589 C 544.888 -0.121396 2.30481 0
M  V30 5590 C 545.858 -0.866232 1.41724 0
M  V30 5591 O 547.043 -0.85324 1.70659 0
M  V30 5592 C 544.183 -1.11704 3.26521 0
M  V30 5593 C 543.296 -0.373741 4.3038 0
M  V30 5594 C 542.431 -1.35854 5.13534 0
M  V30 5595 C 541.47 -0.602689 6.09126 0
M  V30 5596 N 540.607 -1.53645 6.85082 0
M  V30 5597 H 545.447 0.607732 2.91737 0
M  V30 5598 H 542.984 0.311502 1.43764 0
M  V30 5599 H 544.942 -1.70735 3.80664 0
M  V30 5600 H 543.572 -1.81366 2.67032 0
M  V30 5601 H 542.624 0.331962 3.78949 0
M  V30 5602 H 543.936 0.2163 4.98331 0
M  V30 5603 H 543.09 -2.02111 5.72046 0
M  V30 5604 H 541.829 -1.98251 4.45587 0
M  V30 5605 H 540.834 0.0735482 5.49751 0
M  V30 5606 H 542.059 0.0161467 6.79098 0
M  V30 5607 H 540.005 -2.14819 6.1983 0
M  V30 5608 H 539.922 -0.999688 7.49361 0
M  V30 5609 H 541.19 -2.1888 7.48139 0
M  V30 5610 N 545.419 -1.53889 0.339982 0
M  V30 5611 C 546.329 -2.28604 -0.526988 0
M  V30 5612 C 547.345 -1.33578 -1.11503 0
M  V30 5613 O 548.521 -1.66612 -1.13148 0
M  V30 5614 C 545.586 -3.04164 -1.66389 0
M  V30 5615 C 544.647 -4.14809 -1.10599 0
M  V30 5616 C 543.88 -4.86756 -2.18871 0
M  V30 5617 O 544.103 -4.58343 -3.39526 0
M  V30 5618 O 543.037 -5.73289 -1.83366 0
M  V30 5619 H 546.863 -3.03594 0.0802707 0
M  V30 5620 H 544.448 -1.4903 0.105141 0
M  V30 5621 H 546.33 -3.51427 -2.32544 0
M  V30 5622 H 545.005 -2.32035 -2.25703 0
M  V30 5623 H 543.912 -3.71857 -0.409067 0
M  V30 5624 H 545.245 -4.89029 -0.557771 0
M  V30 5625 N 546.897 -0.0685191 -1.57451 0
M  V30 5626 C 548.144 0.601348 -1.93365 0
M  V30 5627 C 548.472 1.69816 -0.948294 0
M  V30 5628 O 547.727 1.95666 0.0366199 0
M  V30 5629 C 548.026 1.22051 -3.35914 0
M  V30 5630 C 547.692 0.250165 -4.50205 0
M  V30 5631 C 546.354 -0.0167954 -4.81197 0
M  V30 5632 C 548.706 -0.413867 -5.19554 0
M  V30 5633 C 546.034 -0.95493 -5.78876 0
M  V30 5634 C 548.386 -1.3403 -6.18238 0
M  V30 5635 C 547.05 -1.61576 -6.47649 0
M  V30 5636 H 546.32 0.220049 -0.707573 0
M  V30 5637 H 548.967 -0.138697 -1.90997 0
M  V30 5638 H 547.272 2.03622 -3.34732 0
M  V30 5639 H 548.969 1.74605 -3.6099 0
M  V30 5640 H 545.559 0.468421 -4.26033 0
M  V30 5641 H 549.743 -0.220733 -4.95809 0
M  V30 5642 H 544.999 -1.17563 -5.99991 0
M  V30 5643 H 549.173 -1.86081 -6.71079 0
M  V30 5644 H 546.8 -2.34431 -7.2315 0
M  V30 5645 N 548.375 1.56261 0.205012 0
M  V30 5646 C 549.623 1.79684 0.925096 0
M  V30 5647 C 549.944 0.63989 1.84202 0
M  V30 5648 O 549.214 -0.342345 1.92885 0
M  V30 5649 H 547.794 0.662774 0.344587 0
M  V30 5650 H 550.456 1.93734 0.212899 0
M  V30 5651 H 549.552 2.72467 1.52211 0
M  V30 5652 N 549.853 -0.472356 1.50355 0
M  V30 5653 C 551.264 -1.05326 1.54154 0
M  V30 5654 C 551.615 -1.93155 0.344303 0
M  V30 5655 O 550.74 -2.09479 -0.542928 0
M  V30 5656 C 551.335 -1.91691 2.79356 0
M  V30 5657 C 549.894 -2.44892 2.8584 0
M  V30 5658 C 549.041 -1.23205 2.48426 0
M  V30 5659 H 551.992 -0.255027 1.56637 0
M  V30 5660 H 552.013 -2.76742 2.6114 0
M  V30 5661 H 551.525 -1.27741 3.66475 0
M  V30 5662 H 549.626 -3.12399 2.0307 0
M  V30 5663 H 549.739 -2.80086 3.88701 0
M  V30 5664 H 548.103 -1.56643 2.00836 0
M  V30 5665 H 548.886 -0.609194 3.37852 0
M  V30 5666 N 551.331 -1.39911 -0.725443 0
M  V30 5667 C 552.608 -1.28158 -1.47766 0
M  V30 5668 C 552.988 0.104545 -2.10841 0
M  V30 5669 O 552.336 1.11657 -1.99361 0
M  V30 5670 C 552.546 -2.41306 -2.52135 0
M  V30 5671 C 553.894 -2.81076 -3.18247 0
M  V30 5672 O 554.918 -2.40827 -2.62452 0
M  V30 5673 O 553.777 -3.50581 -4.19231 0
M  V30 5674 H 550.871 -0.502761 -0.656628 0
M  V30 5675 H 553.417 -1.51808 -0.758456 0
M  V30 5676 H 552.189 -3.33932 -2.03974 0
M  V30 5677 H 551.812 -2.19374 -3.31603 0
M  V30 5678 N 552.809 0.956637 -1.25245 0
M  V30 5679 C 554.049 1.71585 -1.11076 0
M  V30 5680 C 554.413 1.88916 0.34277 0
M  V30 5681 O 555.614 2.61875 0.606227 0
M  V30 5682 C 553.885 3.06267 -1.84215 0
M  V30 5683 S 555.444 3.97469 -1.85914 0
M  V30 5684 H 552.262 0.589803 -0.397055 0
M  V30 5685 H 554.864 1.14114 -1.58739 0
M  V30 5686 H 553.568 2.91322 -2.89067 0
M  V30 5687 H 553.099 3.688 -1.36931 0
M  V30 5688 H 555.114 4.87316 -0.93474 0
M  V30 5689 N 554.287 1.06798 1.15896 0
M  V30 5690 C 555.533 0.788934 1.86825 0
M  V30 5691 C 555.866 -0.683084 1.8179 0
M  V30 5692 O 555.141 -1.50086 1.23711 0
M  V30 5693 C 555.424 1.29065 3.36176 0
M  V30 5694 C 555.277 2.8268 3.49874 0
M  V30 5695 C 556.596 0.902655 4.30744 0
M  V30 5696 H 553.715 0.288066 0.678371 0
M  V30 5697 H 556.357 1.32479 1.36195 0
M  V30 5698 H 554.507 0.834806 3.79425 0
M  V30 5699 H 556.179 3.36511 3.15528 0
M  V30 5700 H 554.422 3.21157 2.91617 0
M  V30 5701 H 555.093 3.12852 4.54783 0
M  V30 5702 H 557.569 1.29535 3.95424 0
M  V30 5703 H 556.445 1.28111 5.3374 0
M  V30 5704 H 556.706 -0.191951 4.41683 0
M  V30 5705 N 555.766 -1.3263 0.851289 0
M  V30 5706 C 556.696 -2.31449 0.308771 0
M  V30 5707 C 557.677 -1.59531 -0.590255 0
M  V30 5708 O 558.862 -1.87351 -0.511205 0
M  V30 5709 C 555.992 -3.43586 -0.506548 0
M  V30 5710 C 554.946 -4.26963 0.297753 0
M  V30 5711 C 554.272 -5.30831 -0.642094 0
M  V30 5712 C 555.572 -4.99643 1.52166 0
M  V30 5713 H 557.266 -2.77074 1.13447 0
M  V30 5714 H 554.812 -1.33207 0.546971 0
M  V30 5715 H 556.765 -4.11754 -0.896474 0
M  V30 5716 H 555.489 -2.96681 -1.36558 0
M  V30 5717 H 554.148 -3.60437 0.669391 0
M  V30 5718 H 553.796 -4.8018 -1.49788 0
M  V30 5719 H 553.496 -5.87501 -0.107968 0
M  V30 5720 H 555.02 -6.01862 -1.02927 0
M  V30 5721 H 556.434 -5.6051 1.20421 0
M  V30 5722 H 554.831 -5.66022 1.99347 0
M  V30 5723 H 555.901 -4.27701 2.28474 0
M  V30 5724 N 557.244 -0.608902 -1.45362 0
M  V30 5725 C 558.207 0.0992563 -2.28985 0
M  V30 5726 C 559.207 0.793841 -1.39838 0
M  V30 5727 O 560.397 0.641804 -1.61946 0
M  V30 5728 C 557.529 1.15073 -3.20891 0
M  V30 5729 H 558.722 -0.635964 -2.93079 0
M  V30 5730 H 556.275 -0.368007 -1.51906 0
M  V30 5731 H 557.01 1.91667 -2.616 0
M  V30 5732 H 556.795 0.656867 -3.86559 0
M  V30 5733 H 558.285 1.64665 -3.83765 0
M  V30 5734 N 558.722 1.53707 -0.348139 0
M  V30 5735 C 559.968 2.01286 0.247332 0
M  V30 5736 C 560.301 1.23546 1.49834 0
M  V30 5737 O 559.576 0.324331 1.91777 0
M  V30 5738 C 559.859 3.55768 0.556858 0
M  V30 5739 C 559.712 4.44216 -0.706564 0
M  V30 5740 C 561.031 4.1841 1.3646 0
M  V30 5741 H 558.15 0.731677 0.0884201 0
M  V30 5742 H 560.792 1.84106 -0.469584 0
M  V30 5743 H 558.942 3.70539 1.16761 0
M  V30 5744 H 560.614 4.41274 -1.34444 0
M  V30 5745 H 558.857 4.12892 -1.33052 0
M  V30 5746 H 559.528 5.50202 -0.445186 0
M  V30 5747 H 562.004 4.07365 0.848113 0
M  V30 5748 H 560.88 5.26563 1.54992 0
M  V30 5749 H 561.141 3.7333 2.36805 0
M  V30 5750 N 560.2 0.0768682 1.57412 0
M  V30 5751 C 561.447 -0.591085 1.93681 0
M  V30 5752 C 561.775 -1.69311 0.957286 0
M  V30 5753 O 561.03 -1.95682 -0.0262428 0
M  V30 5754 C 561.329 -1.20268 3.36557 0
M  V30 5755 C 560.995 -0.226286 4.50332 0
M  V30 5756 C 559.657 0.0423142 4.81181 0
M  V30 5757 C 562.009 0.441415 5.19327 0
M  V30 5758 C 559.337 0.985616 5.78362 0
M  V30 5759 C 561.689 1.37307 6.17519 0
M  V30 5760 C 560.353 1.65009 6.46783 0
M  V30 5761 H 559.623 -0.216293 0.70873 0
M  V30 5762 H 562.27 0.148824 1.90921 0
M  V30 5763 H 560.575 -2.01844 3.35807 0
M  V30 5764 H 562.272 -1.72688 3.61911 0
M  V30 5765 H 558.862 -0.445821 4.26275 0
M  V30 5766 H 563.046 0.247023 4.95685 0
M  V30 5767 H 558.302 1.20743 5.99359 0
M  V30 5768 H 562.476 1.89637 6.70083 0
M  V30 5769 H 560.103 2.38263 7.21897 0
M  V30 5770 N 561.678 -1.56367 -0.196722 0
M  V30 5771 C 562.641 -1.93561 -1.22746 0
M  V30 5772 C 563.641 -0.816566 -1.38524 0
M  V30 5773 O 564.831 -1.084 -1.36363 0
M  V30 5774 C 561.963 -2.20823 -2.59712 0
M  V30 5775 H 563.156 -2.85774 -0.909586 0
M  V30 5776 H 560.709 -1.50032 -0.438174 0
M  V30 5777 H 561.444 -1.31243 -2.96557 0
M  V30 5778 H 561.229 -3.02368 -2.49632 0
M  V30 5779 H 562.719 -2.50608 -3.34044 0
M  V30 5780 N 563.156 0.464375 -1.50603 0
M  V30 5781 C 564.066 1.58723 -1.72754 0
M  V30 5782 C 565.082 1.62925 -0.610844 0
M  V30 5783 O 566.258 1.8067 -0.889963 0
M  V30 5784 C 563.323 2.94897 -1.82309 0
M  V30 5785 C 562.384 3.0103 -3.06071 0
M  V30 5786 C 561.617 4.30708 -3.1516 0
M  V30 5787 O 561.84 5.2159 -2.30868 0
M  V30 5788 O 560.774 4.42571 -4.0794 0
M  V30 5789 H 564.6 1.42954 -2.67951 0
M  V30 5790 H 562.185 0.644579 -1.3478 0
M  V30 5791 H 564.067 3.75764 -1.90735 0
M  V30 5792 H 562.742 3.10851 -0.902967 0
M  V30 5793 H 561.649 2.19217 -3.03142 0
M  V30 5794 H 562.982 2.90014 -3.97684 0
M  V30 5795 N 564.634 1.40294 0.718013 0
M  V30 5796 C 565.564 1.43118 1.84498 0
M  V30 5797 C 566.545 0.292403 1.67568 0
M  V30 5798 O 567.73 0.500675 1.87635 0
M  V30 5799 C 564.86 1.29065 3.22427 0
M  V30 5800 C 563.814 2.40521 3.54025 0
M  V30 5801 C 563.14 2.11546 4.91073 0
M  V30 5802 C 564.44 3.82859 3.55269 0
M  V30 5803 H 566.134 2.37432 1.82391 0
M  V30 5804 H 563.68 1.14283 0.87609 0
M  V30 5805 H 565.633 1.29658 4.00957 0
M  V30 5806 H 564.357 0.312271 3.25104 0
M  V30 5807 H 563.016 2.39173 2.77834 0
M  V30 5808 H 562.664 1.12104 4.90348 0
M  V30 5809 H 562.364 2.86216 5.1318 0
M  V30 5810 H 563.888 2.13817 5.71939 0
M  V30 5811 H 565.302 3.86044 4.23843 0
M  V30 5812 H 563.699 4.57029 3.88902 0
M  V30 5813 H 564.769 4.12617 2.54706 0
M  V30 5814 N 566.112 -0.949982 1.2575 0
M  V30 5815 C 567.06 -2.06869 1.06339 0
M  V30 5816 C 568.054 -1.69399 -0.00708901 0
M  V30 5817 O 569.26 -1.79383 0.148897 0
M  V30 5818 H 565.635 -0.677197 0.326969 0
M  V30 5819 H 567.606 -2.20396 2.01167 0
M  V30 5820 C 566.355 -3.40503 0.703769 0
M  V30 5821 H 565.678 -3.69807 1.51931 0
M  V30 5822 H 567.118 -4.19623 0.607677 0
M  V30 5823 C 565.577 -3.31685 -0.5905 0
M  V30 5824 O 566.107 -3.67085 -1.63131 0
M  V30 5825 N 564.313 -2.84797 -0.577859 0
M  V30 5826 H 563.86 -2.56186 0.26951 0
M  V30 5827 H 563.818 -2.79279 -1.44398 0
M  V30 5828 N 567.59 -1.07411 -1.15328 0
M  V30 5829 C 568.553 -0.698914 -2.18284 0
M  V30 5830 C 569.553 0.261149 -1.58665 0
M  V30 5831 O 570.743 0.0420277 -1.74149 0
M  V30 5832 C 567.875 -0.0302427 -3.40887 0
M  V30 5833 H 569.068 -1.61045 -2.52991 0
M  V30 5834 H 566.621 -0.870724 -1.298 0
M  V30 5835 H 567.356 0.893505 -3.11748 0
M  V30 5836 H 567.141 -0.720759 -3.85419 0
M  V30 5837 H 568.631 0.21759 -4.17033 0
M  V30 5838 N 569.068 1.32177 -0.85831 0
M  V30 5839 C 570.031 2.27086 -0.310588 0
M  V30 5840 C 571.031 1.51751 0.531806 0
M  V30 5841 O 572.221 1.70794 0.34279 0
M  V30 5842 C 569.353 3.36266 0.560179 0
M  V30 5843 H 570.546 2.77045 -1.1483 0
M  V30 5844 H 568.099 1.42911 -0.632942 0
M  V30 5845 H 568.834 2.9158 1.41956 0
M  V30 5846 H 568.619 3.92077 -0.0428473 0
M  V30 5847 H 570.109 4.06974 0.936056 0
M  V30 5848 N 570.547 0.616602 1.45037 0
M  V30 5849 C 571.494 -0.0969439 2.30596 0
M  V30 5850 C 572.464 -0.851151 1.42635 0
M  V30 5851 O 573.649 -0.835092 1.71554 0
M  V30 5852 C 570.789 -1.08234 3.27688 0
M  V30 5853 C 569.902 -0.328072 4.30752 0
M  V30 5854 C 569.037 -1.30399 5.14946 0
M  V30 5855 C 568.076 -0.538049 6.09731 0
M  V30 5856 N 567.213 -1.46371 6.86673 0
M  V30 5857 H 572.053 0.63864 2.91076 0
M  V30 5858 H 569.59 0.326733 1.43425 0
M  V30 5859 H 571.548 -1.66688 3.82454 0
M  V30 5860 H 570.178 -1.78523 2.68941 0
M  V30 5861 H 569.23 0.372136 3.78575 0
M  V30 5862 H 570.542 0.269142 4.98073 0
M  V30 5863 H 569.696 -1.96032 5.74157 0
M  V30 5864 H 568.435 -1.93514 4.47665 0
M  V30 5865 H 567.44 0.131852 5.49642 0
M  V30 5866 H 568.665 0.0881732 6.79043 0
M  V30 5867 H 566.611 -2.08233 6.22073 0
M  V30 5868 H 566.528 -0.920152 7.50379 0
M  V30 5869 H 567.796 -2.10932 7.50418 0
M  V30 5870 N 572.025 -1.5352 0.356285 0
M  V30 5871 C 573.436 -1.86282 -0.12492 0
M  V30 5872 C 573.787 -1.27717 -1.48939 0
M  V30 5873 O 572.912 -0.595614 -2.08042 0
M  V30 5874 C 573.507 -3.37995 -0.23345 0
M  V30 5875 C 572.066 -3.70588 -0.658899 0
M  V30 5876 C 571.213 -2.76581 0.199596 0
M  V30 5877 H 574.164 -1.47901 0.575423 0
M  V30 5878 H 574.185 -3.65475 -1.0587 0
M  V30 5879 H 573.697 -3.8059 0.759776 0
M  V30 5880 H 571.798 -3.33544 -1.66069 0
M  V30 5881 H 571.911 -4.77076 -0.439957 0
M  V30 5882 H 570.275 -2.52552 -0.330076 0
M  V30 5883 H 571.058 -3.22008 1.19019 0
M  V30 5884 N 573.503 -0.0852151 -1.57369 0
M  V30 5885 C 574.45 0.877268 -2.13478 0
M  V30 5886 C 575.42 1.28642 -1.05073 0
M  V30 5887 O 576.605 1.36992 -1.32808 0
M  V30 5888 C 573.745 2.13464 -2.71159 0
M  V30 5889 C 572.858 1.77691 -3.93764 0
M  V30 5890 C 571.993 2.98139 -4.39643 0
M  V30 5891 C 571.032 2.58447 -5.54862 0
M  V30 5892 N 570.169 3.71698 -5.95639 0
M  V30 5893 H 575.009 0.391933 -2.95411 0
M  V30 5894 H 572.546 0.181796 -1.45972 0
M  V30 5895 H 574.504 2.87086 -3.02717 0
M  V30 5896 H 573.134 2.59514 -1.91969 0
M  V30 5897 H 572.186 0.940768 -3.68583 0
M  V30 5898 H 573.498 1.44497 -4.77412 0
M  V30 5899 H 572.652 3.80026 -4.72933 0
M  V30 5900 H 571.391 3.34536 -3.54876 0
M  V30 5901 H 570.396 1.74984 -5.21211 0
M  V30 5902 H 571.621 2.23205 -6.41371 0
M  V30 5903 H 569.567 4.07831 -5.13819 0
M  V30 5904 H 569.484 3.42317 -6.74059 0
M  V30 5905 H 570.752 4.54123 -6.33555 0
M  V30 5906 N 574.981 1.5647 0.188427 0
M  V30 5907 C 575.944 1.9421 1.21718 0
M  V30 5908 C 576.944 0.823901 1.38089 0
M  V30 5909 O 578.134 1.09122 1.35787 0
M  V30 5910 C 575.266 2.22197 2.58537 0
M  V30 5911 H 576.459 2.86252 0.894418 0
M  V30 5912 H 574.012 1.50263 0.430211 0
M  V30 5913 H 574.747 1.32814 2.95856 0
M  V30 5914 H 574.532 3.03688 2.48025 0
M  V30 5915 H 576.022 2.52376 3.3271 0
M  V30 5916 N 576.459 -0.456382 1.50847 0
M  V30 5917 C 577.875 -0.791345 1.386 0
M  V30 5918 C 578.075 -1.9633 0.453498 0
M  V30 5919 O 577.131 -2.52308 -0.0984353 0
M  V30 5920 C 578.444 -1.08959 2.80265 0
M  V30 5921 C 579.992 -1.19517 2.89283 0
M  V30 5922 C 580.467 -1.52647 4.31814 0
M  V30 5923 N 581.958 -1.59609 4.34832 0
M  V30 5924 C 582.693 -1.86777 5.42127 0
M  V30 5925 N 582.189 -2.11866 6.59609 0
M  V30 5926 N 583.982 -1.88402 5.29586 0
M  V30 5927 H 576.133 0.315746 2.1004 0
M  V30 5928 H 578.396 0.0787916 0.94472 0
M  V30 5929 H 578.102 -0.301355 3.50407 0
M  V30 5930 H 577.976 -2.02211 3.18419 0
M  V30 5931 H 580.363 -1.97406 2.19351 0
M  V30 5932 H 580.444 -0.242111 2.54652 0
M  V30 5933 H 580.088 -0.752922 5.02288 0
M  V30 5934 H 580.018 -2.49127 4.63943 0
M  V30 5935 H 582.509 -1.42201 3.50125 0
M  V30 5936 H 582.822 -2.31912 7.37182 0
M  V30 5937 H 581.167 -2.09228 6.62758 0
M  V30 5938 H 584.358 -1.68307 4.36795 0
M  V30 5939 H 584.531 -2.09238 6.13289 0
M  V30 5940 N 577.937 -1.40673 -0.710563 0
M  V30 5941 C 579.184 -1.39222 -1.47049 0
M  V30 5942 C 579.512 0.0037691 -1.945 0
M  V30 5943 O 578.767 0.989224 -1.68857 0
M  V30 5944 C 579.066 -2.33253 -2.70791 0
M  V30 5945 C 578.732 -3.80406 -2.42079 0
M  V30 5946 C 577.394 -4.20496 -2.33959 0
M  V30 5947 C 579.746 -4.73375 -2.18094 0
M  V30 5948 C 577.074 -5.51584 -1.99929 0
M  V30 5949 C 579.426 -6.04768 -1.85576 0
M  V30 5950 C 578.09 -6.43895 -1.75941 0
M  V30 5951 H 577.36 -0.509449 -0.538092 0
M  V30 5952 H 580.007 -1.73363 -0.81348 0
M  V30 5953 H 578.312 -1.92314 -3.41354 0
M  V30 5954 H 580.009 -2.29412 -3.28894 0
M  V30 5955 H 576.599 -3.48645 -2.49288 0
M  V30 5956 H 580.783 -4.43217 -2.23321 0
M  V30 5957 H 576.039 -5.80797 -1.91011 0
M  V30 5958 H 580.213 -6.76318 -1.66033 0
M  V30 5959 H 577.84 -7.45387 -1.4934 0
M  V30 5960 N 579.415 0.9433 -1.26252 0
M  V30 5961 C 580.643 1.72367 -1.14443 0
M  V30 5962 C 581.058 1.86392 0.300572 0
M  V30 5963 O 580.415 1.36978 1.20596 0
M  V30 5964 C 580.466 3.13155 -1.806 0
M  V30 5965 O 580.187 2.99803 -3.19452 0
M  V30 5966 C 581.688 4.07417 -1.74717 0
M  V30 5967 H 578.908 0.539758 -0.398626 0
M  V30 5968 H 581.452 1.18268 -1.66832 0
M  V30 5969 H 579.607 3.64162 -1.32154 0
M  V30 5970 H 580.021 3.88697 -3.52158 0
M  V30 5971 H 581.495 5.03773 -2.25647 0
M  V30 5972 H 581.972 4.3337 -0.713244 0
M  V30 5973 H 582.578 3.6233 -2.22704 0
M  V30 5974 N 580.893 1.08022 1.14757 0
M  V30 5975 C 582.139 0.808705 1.85978 0
M  V30 5976 C 582.472 -0.663764 1.82504 0
M  V30 5977 O 581.747 -1.48765 1.25296 0
M  V30 5978 C 582.03 1.32623 3.34788 0
M  V30 5979 C 581.883 2.86375 3.46856 0
M  V30 5980 C 583.202 0.948291 4.29762 0
M  V30 5981 H 580.321 0.295244 0.675278 0
M  V30 5982 H 582.963 1.33917 1.34783 0
M  V30 5983 H 581.113 0.875002 3.78518 0
M  V30 5984 H 582.785 3.39839 3.11941 0
M  V30 5985 H 581.028 3.24232 2.88194 0
M  V30 5986 H 581.699 3.17658 4.51439 0
M  V30 5987 H 584.175 1.33722 3.94028 0
M  V30 5988 H 583.051 1.33765 5.32352 0
M  V30 5989 H 583.312 -0.145094 4.41862 0
M  V30 5990 N 582.371 -1.3172 0.865308 0
M  V30 5991 C 583.619 -1.96487 0.472995 0
M  V30 5992 C 583.94 -1.68761 -0.976975 0
M  V30 5993 O 583.21 -1.00051 -1.68424 0
M  V30 5994 H 581.79 -0.726947 0.171922 0
M  V30 5995 H 584.452 -1.60612 1.10407 0
M  V30 5996 H 583.548 -3.0574 0.62687 0
M  V30 5997 N 583.85 -0.624285 -1.44708 0
M  V30 5998 C 585.099 -0.123539 -2.01321 0
M  V30 5999 C 585.412 1.25966 -1.49639 0
M  V30 6000 O 586.618 1.85405 -1.98336 0
M  V30 6001 C 585.074 -0.170124 -3.59498 0
M  V30 6002 C 584.682 -1.55421 -4.20176 0
M  V30 6003 C 586.426 0.274513 -4.23611 0
M  V30 6004 C 584.332 -1.55628 -5.70556 0
M  V30 6005 H 583.263 -0.0424183 -0.752806 0
M  V30 6006 H 585.913 -0.782076 -1.65999 0
M  V30 6007 H 584.296 0.555385 -3.92086 0
M  V30 6008 H 585.47 -2.30276 -3.99136 0
M  V30 6009 H 583.784 -1.94235 -3.68323 0
M  V30 6010 H 586.382 0.292402 -5.339 0
M  V30 6011 H 586.725 1.3005 -3.95465 0
M  V30 6012 H 587.258 -0.398275 -3.95801 0
M  V30 6013 H 583.997 -2.56041 -6.03426 0
M  V30 6014 H 583.517 -0.850563 -5.93739 0
M  V30 6015 H 585.196 -1.28721 -6.34066 0
M  V30 6016 N 585.328 1.53329 -0.364422 0
M  V30 6017 C 586.558 2.05359 0.226096 0
M  V30 6018 C 586.966 1.23777 1.43094 0
M  V30 6019 O 586.309 0.271139 1.81688 0
M  V30 6020 C 586.371 3.52918 0.684794 0
M  V30 6021 C 586.035 4.55218 -0.403206 0
M  V30 6022 C 587.032 5.04583 -1.2527 0
M  V30 6023 C 584.717 4.99134 -0.563117 0
M  V30 6024 C 586.711 5.96463 -2.24745 0
M  V30 6025 C 584.398 5.9082 -1.56124 0
M  V30 6026 C 585.396 6.39375 -2.40184 0
M  V30 6027 O 585.084 7.29255 -3.38293 0
M  V30 6028 H 584.816 0.674588 0.0436772 0
M  V30 6029 H 587.37 1.98688 -0.520782 0
M  V30 6030 H 585.6 3.57122 1.48326 0
M  V30 6031 H 587.289 3.87812 1.19818 0
M  V30 6032 H 588.055 4.71403 -1.14034 0
M  V30 6033 H 583.934 4.60928 0.0813909 0
M  V30 6034 H 587.478 6.34285 -2.90393 0
M  V30 6035 H 583.375 6.23414 -1.67407 0
M  V30 6036 H 584.143 7.47249 -3.34009 0
M  V30 6037 N 586.806 0.0935595 1.57322 0
M  V30 6038 C 588.083 -0.612692 1.85756 0
M  V30 6039 C 588.463 -1.86439 0.99013 0
M  V30 6040 O 587.811 -2.28416 0.0621362 0
M  V30 6041 C 588.021 -0.929547 3.36393 0
M  V30 6042 C 589.369 -1.29366 4.04413 0
M  V30 6043 O 590.393 -1.02061 3.41265 0
M  V30 6044 O 589.252 -1.80498 5.15832 0
M  V30 6045 H 586.346 -0.306444 0.768128 0
M  V30 6046 H 588.892 0.126141 1.69231 0
M  V30 6047 H 587.664 -0.0414766 3.91278 0
M  V30 6048 H 587.287 -1.72441 3.5826 0
M  V30 6049 N 588.284 -1.56567 -0.180126 0
M  V30 6050 C 589.561 -1.7235 -0.924931 0
M  V30 6051 C 589.941 -0.652523 -2.00762 0
M  V30 6052 O 589.289 0.334115 -2.26044 0
M  V30 6053 C 589.499 -3.1523 -1.49771 0
M  V30 6054 C 590.847 -3.75921 -1.97405 0
M  V30 6055 O 591.871 -3.18452 -1.59583 0
M  V30 6056 O 590.73 -4.7681 -2.67048 0
M  V30 6057 H 587.824 -0.703502 -0.434758 0
M  V30 6058 H 590.37 -1.6886 -0.168647 0
M  V30 6059 H 589.142 -3.84656 -0.718027 0
M  V30 6060 H 588.765 -3.23009 -2.31842 0
M  V30 6061 N 589.762 0.448376 -1.51087 0
M  V30 6062 C 591.008 1.20049 -1.6345 0
M  V30 6063 C 591.341 1.91121 -0.344444 0
M  V30 6064 O 590.616 1.83125 0.655396 0
M  V30 6065 C 590.899 2.22624 -2.83038 0
M  V30 6066 C 590.752 1.55708 -4.21989 0
M  V30 6067 C 592.071 3.23718 -2.98152 0
M  V30 6068 H 589.19 0.435085 -0.59487 0
M  V30 6069 H 591.832 0.491183 -1.83541 0
M  V30 6070 H 589.982 2.83117 -2.66039 0
M  V30 6071 H 591.654 0.986367 -4.50631 0
M  V30 6072 H 589.897 0.859647 -4.25197 0
M  V30 6073 H 590.568 2.30357 -5.01637 0
M  V30 6074 H 593.044 2.73269 -3.13788 0
M  V30 6075 H 591.92 3.92795 -3.83411 0
M  V30 6076 H 592.181 3.89179 -2.09743 0
M  V30 6077 N 591.24 1.41047 0.703093 0
M  V30 6078 C 592.468 1.4334 1.49202 0
M  V30 6079 C 592.883 0.0365596 1.88765 0
M  V30 6080 O 592.24 -0.942419 1.56284 0
M  V30 6081 C 592.291 2.33538 2.75939 0
M  V30 6082 O 592.012 3.67786 2.38045 0
M  V30 6083 C 593.513 2.44555 3.6974 0
M  V30 6084 H 590.733 0.488472 0.460039 0
M  V30 6085 H 593.277 1.85245 0.86629 0
M  V30 6086 H 591.432 1.94962 3.34766 0
M  V30 6087 H 591.846 4.15816 3.19683 0
M  V30 6088 H 593.32 3.11849 4.55471 0
M  V30 6089 H 593.797 1.47447 4.1371 0
M  V30 6090 H 594.403 2.83735 3.16819 0
M  V30 6091 N 592.718 -0.936591 1.26751 0
M  V30 6092 C 593.666 -2.0573 1.08527 0
M  V30 6093 C 594.66 -1.69397 0.0108784 0
M  V30 6094 O 595.866 -1.79215 0.167915 0
M  V30 6095 H 592.241 -0.673691 0.334133 0
M  V30 6096 H 594.212 -2.1825 2.03493 0
M  V30 6097 C 592.961 -3.39738 0.739845 0
M  V30 6098 H 592.284 -3.68174 1.55845 0
M  V30 6099 H 593.724 -4.18955 0.652149 0
M  V30 6100 C 592.183 -3.32292 -0.555288 0
M  V30 6101 O 592.713 -3.68794 -1.59229 0
M  V30 6102 N 590.919 -2.85394 -0.54762 0
M  V30 6103 H 590.466 -2.55886 0.296667 0
M  V30 6104 H 590.424 -2.80795 -1.41427 0
M  V30 6105 N 594.196 -1.08629 -1.14182 0
M  V30 6106 C 595.126 -0.740003 -2.21464 0
M  V30 6107 C 596.107 0.278591 -1.67803 0
M  V30 6108 O 597.292 0.148461 -1.93632 0
M  V30 6109 C 594.422 -0.150952 -3.46972 0
M  V30 6110 C 593.376 -1.09815 -4.13672 0
M  V30 6111 C 592.702 -0.3712 -5.3341 0
M  V30 6112 C 594.002 -2.43722 -4.61949 0
M  V30 6113 H 595.696 -1.63697 -2.50686 0
M  V30 6114 H 593.242 -0.788526 -1.20492 0
M  V30 6115 H 595.195 0.103325 -4.21273 0
M  V30 6116 H 593.919 0.781164 -3.1712 0
M  V30 6117 H 592.578 -1.33756 -3.41328 0
M  V30 6118 H 592.226 0.564792 -4.99819 0
M  V30 6119 H 591.926 -1.00267 -5.78982 0
M  V30 6120 H 593.45 -0.12503 -6.10472 0
M  V30 6121 H 594.864 -2.24034 -5.27714 0
M  V30 6122 H 593.261 -3.02582 -5.18232 0
M  V30 6123 H 594.331 -3.05082 -3.76899 0
M  V30 6124 N 595.674 1.31259 -0.872281 0
M  V30 6125 C 596.899 2.0133 -0.498099 0
M  V30 6126 C 597.324 1.65031 0.902568 0
M  V30 6127 O 596.682 0.860164 1.59596 0
M  V30 6128 C 596.73 3.54411 -0.665205 0
M  V30 6129 O 595.834 4.11347 0.294473 0
M  V30 6130 H 595.175 0.633844 -0.197832 0
M  V30 6131 H 597.705 1.67402 -1.17633 0
M  V30 6132 H 597.715 4.04147 -0.559373 0
M  V30 6133 H 596.39 3.80171 -1.68651 0
M  V30 6134 H 594.967 3.72624 0.143403 0
M  V30 6135 N 597.152 0.631951 1.44375 0
M  V30 6136 C 598.082 -0.0593243 2.33425 0
M  V30 6137 C 599.063 -0.833964 1.48253 0
M  V30 6138 O 600.248 -0.799682 1.76971 0
M  V30 6139 C 597.378 -1.04096 3.31333 0
M  V30 6140 C 596.332 -0.377899 4.26328 0
M  V30 6141 C 595.658 -1.4695 5.14111 0
M  V30 6142 C 596.958 0.716371 5.17364 0
M  V30 6143 H 598.652 0.684287 2.91475 0
M  V30 6144 H 596.198 0.330518 1.40156 0
M  V30 6145 H 598.151 -1.53331 3.92514 0
M  V30 6146 H 596.875 -1.81547 2.71493 0
M  V30 6147 H 595.534 0.0938054 3.6648 0
M  V30 6148 H 595.182 -2.2349 4.50623 0
M  V30 6149 H 594.882 -1.03121 5.78481 0
M  V30 6150 H 596.406 -1.96363 5.78164 0
M  V30 6151 H 597.82 0.307089 5.72477 0
M  V30 6152 H 596.217 1.07784 5.90341 0
M  V30 6153 H 597.287 1.58316 4.58327 0
M  V30 6154 N 598.631 -1.53133 0.372548 0
M  V30 6155 C 600.042 -1.86404 -0.105155 0
M  V30 6156 C 600.393 -1.29289 -1.47576 0
M  V30 6157 O 599.518 -0.617646 -2.07398 0
M  V30 6158 C 600.113 -3.38223 -0.197588 0
M  V30 6159 C 598.672 -3.71266 -0.619556 0
M  V30 6160 C 597.819 -2.76353 0.228919 0
M  V30 6161 H 600.77 -1.47282 0.591077 0
M  V30 6162 H 600.791 -3.66577 -1.01987 0
M  V30 6163 H 600.303 -3.79763 0.800099 0
M  V30 6164 H 598.404 -3.35287 -1.62522 0
M  V30 6165 H 598.517 -4.77515 -0.389332 0
M  V30 6166 H 596.881 -2.52888 -0.303271 0
M  V30 6167 H 597.664 -3.20728 1.22428 0
M  V30 6168 N 600.109 -0.101901 -1.5727 0
M  V30 6169 C 601.039 0.851544 -2.17419 0
M  V30 6170 C 602.02 1.28942 -1.10941 0
M  V30 6171 O 603.205 1.35509 -1.39107 0
M  V30 6172 C 600.335 2.10816 -2.75996 0
M  V30 6173 C 599.289 1.80867 -3.87906 0
M  V30 6174 C 598.615 3.13413 -4.33216 0
M  V30 6175 C 599.915 1.0903 -5.10793 0
M  V30 6176 H 601.609 0.350381 -2.97343 0
M  V30 6177 H 599.155 0.16709 -1.43027 0
M  V30 6178 H 601.108 2.77959 -3.16729 0
M  V30 6179 H 599.832 2.63227 -1.93337 0
M  V30 6180 H 598.491 1.16119 -3.47724 0
M  V30 6181 H 598.139 3.63725 -3.47438 0
M  V30 6182 H 597.839 2.94155 -5.08671 0
M  V30 6183 H 599.363 3.81704 -4.76586 0
M  V30 6184 H 600.777 1.66295 -5.48652 0
M  V30 6185 H 599.174 0.99927 -5.91722 0
M  V30 6186 H 600.244 0.0741704 -4.84843 0
M  V30 6187 N 601.587 1.56661 0.17182 0
M  V30 6188 C 602.998 1.71652 0.734329 0
M  V30 6189 C 603.349 0.712335 1.82812 0
M  V30 6190 O 602.474 -0.126401 2.16031 0
M  V30 6191 C 603.069 3.11226 1.3388 0
M  V30 6192 C 601.628 3.27904 1.84813 0
M  V30 6193 C 600.775 2.67603 0.726917 0
M  V30 6194 H 603.726 1.5861 -0.0535665 0
M  V30 6195 H 603.747 3.09849 2.20849 0
M  V30 6196 H 603.259 3.8429 0.54249 0
M  V30 6197 H 601.36 2.59796 2.6709 0
M  V30 6198 H 601.473 4.35637 1.99392 0
M  V30 6199 H 599.837 2.274 1.14723 0
M  V30 6200 H 600.62 3.43252 -0.0575334 0
M  V30 6201 N 603.065 -0.440357 1.51323 0
M  V30 6202 C 603.975 -1.55955 1.75258 0
M  V30 6203 C 604.991 -1.61933 0.636687 0
M  V30 6204 O 606.167 -1.79231 0.918593 0
M  V30 6205 C 603.232 -2.9196 1.86977 0
M  V30 6206 C 602.293 -2.96122 3.10822 0
M  V30 6207 C 601.526 -4.2564 3.21973 0
M  V30 6208 O 601.749 -5.17851 2.39137 0
M  V30 6209 O 600.683 -4.36025 4.14929 0
M  V30 6210 H 604.509 -1.38673 2.70191 0
M  V30 6211 H 602.094 -0.623055 1.35788 0
M  V30 6212 H 603.976 -3.72682 1.96688 0
M  V30 6213 H 602.651 -3.09375 0.952307 0
M  V30 6214 H 601.558 -2.14366 3.06591 0
M  V30 6215 H 602.891 -2.83651 4.02247 0
M  V30 6216 N 604.543 -1.41418 -0.695603 0
M  V30 6217 C 605.491 -1.43467 -1.83084 0
M  V30 6218 C 606.485 -0.312719 -1.66489 0
M  V30 6219 O 607.691 -0.484744 -1.7335 0
M  V30 6220 H 604.066 -0.448891 -0.603325 0
M  V30 6221 H 606.037 -2.39144 -1.78473 0
M  V30 6222 C 604.786 -1.3337 -3.21104 0
M  V30 6223 H 604.109 -2.18989 -3.3449 0
M  V30 6224 H 605.549 -1.38865 -4.00615 0
M  V30 6225 C 604.008 -0.0460484 -3.36869 0
M  V30 6226 O 604.538 0.909258 -3.91274 0
M  V30 6227 N 602.744 0.0300222 -2.90584 0
M  V30 6228 H 602.291 -0.748129 -2.46497 0
M  V30 6229 H 602.249 0.890991 -3.01511 0
M  V30 6230 N 606.021 0.929856 -1.27246 0
M  V30 6231 C 607.249 1.71144 -1.16265 0
M  V30 6232 C 607.664 1.867 0.280786 0
M  V30 6233 O 607.021 1.38249 1.19136 0
M  V30 6234 C 607.072 3.11222 -1.83911 0
M  V30 6235 O 606.793 2.96398 -3.22614 0
M  V30 6236 C 608.294 4.05541 -1.79028 0
M  V30 6237 H 605.514 0.535499 -0.404328 0
M  V30 6238 H 608.058 1.16492 -1.68077 0
M  V30 6239 H 606.213 3.6274 -1.36009 0
M  V30 6240 H 606.627 3.8494 -3.56261 0
M  V30 6241 H 608.101 5.01351 -2.30978 0
M  V30 6242 H 608.578 4.32589 -0.759168 0
M  V30 6243 H 609.184 3.59947 -2.26535 0
M  V30 6244 N 607.499 1.09233 1.13605 0
M  V30 6245 C 608.429 0.751738 2.21068 0
M  V30 6246 C 609.41 -0.269688 1.67948 0
M  V30 6247 O 610.595 -0.13819 1.93708 0
M  V30 6248 C 607.725 0.16935 3.46887 0
M  V30 6249 C 606.679 1.12007 4.13084 0
M  V30 6250 C 606.005 0.399483 5.33206 0
M  V30 6251 C 607.305 2.46168 4.6065 0
M  V30 6252 H 608.999 1.65024 2.49815 0
M  V30 6253 H 606.545 0.794905 1.20072 0
M  V30 6254 H 608.498 -0.0809824 4.21322 0
M  V30 6255 H 607.222 -0.764335 3.1753 0
M  V30 6256 H 605.881 1.35564 3.40614 0
M  V30 6257 H 605.529 -0.538277 5.00112 0
M  V30 6258 H 605.229 1.03337 5.78442 0
M  V30 6259 H 606.753 0.157403 6.10397 0
M  V30 6260 H 608.167 2.26829 5.26518 0
M  V30 6261 H 606.564 3.05326 5.1662 0
M  V30 6262 H 607.634 3.07076 3.75276 0
M  V30 6263 N 608.977 -1.30795 0.87923 0
M  V30 6264 C 610.388 -1.78535 0.546093 0
M  V30 6265 C 610.739 -1.72354 -0.937467 0
M  V30 6266 O 609.864 -1.2969 -1.73233 0
M  V30 6267 C 610.459 -3.24181 0.9845 0
M  V30 6268 C 609.018 -3.69779 0.702871 0
M  V30 6269 C 608.165 -2.51377 1.17068 0
M  V30 6270 H 611.116 -1.17746 1.06403 0
M  V30 6271 H 611.137 -3.79227 0.311045 0
M  V30 6272 H 610.649 -3.28647 2.06429 0
M  V30 6273 H 608.75 -3.70806 -0.365166 0
M  V30 6274 H 608.863 -4.61507 1.28639 0
M  V30 6275 H 607.227 -2.47768 0.590172 0
M  V30 6276 H 608.01 -2.58584 2.25808 0
M  V30 6277 N 610.455 -0.639598 -1.44038 0
M  V30 6278 C 611.403 0.0723409 -2.32487 0
M  V30 6279 C 612.397 0.827129 -1.47834 0
M  V30 6280 O 613.603 0.73907 -1.64127 0
M  V30 6281 H 609.978 0.0421696 -0.750817 0
M  V30 6282 H 611.949 -0.691593 -2.90275 0
M  V30 6283 C 610.698 1.03452 -3.31953 0
M  V30 6284 H 610.021 0.46315 -3.97108 0
M  V30 6285 H 611.461 1.502 -3.96505 0
M  V30 6286 C 609.92 2.12392 -2.61518 0
M  V30 6287 O 610.45 3.2059 -2.42044 0
M  V30 6288 N 608.656 1.88563 -2.21116 0
M  V30 6289 H 608.203 1.00577 -2.37154 0
M  V30 6290 H 608.161 2.61651 -1.74316 0
M  V30 6291 N 611.933 1.52934 -0.380664 0
M  V30 6292 C 613.158 2.06363 0.207157 0
M  V30 6293 C 613.583 1.25122 1.4045 0
M  V30 6294 O 612.941 0.274062 1.79217 0
M  V30 6295 C 612.989 3.56162 0.563996 0
M  V30 6296 O 612.093 3.77552 1.65917 0
M  V30 6297 H 611.434 0.663468 0.0265859 0
M  V30 6298 H 613.964 1.9719 -0.545635 0
M  V30 6299 H 613.974 3.99453 0.830752 0
M  V30 6300 H 612.649 4.14732 -0.311427 0
M  V30 6301 H 611.226 3.46154 1.3868 0
M  V30 6302 N 613.412 0.11024 1.57214 0
M  V30 6303 C 614.375 -0.828808 2.1369 0
M  V30 6304 C 615.375 -1.20059 1.06969 0
M  V30 6305 O 616.565 -1.12754 1.32786 0
M  V30 6306 C 613.697 -2.11959 2.66994 0
M  V30 6307 H 614.89 -0.338146 2.97988 0
M  V30 6308 H 612.443 -0.138913 1.55681 0
M  V30 6309 H 613.178 -2.65476 1.8626 0
M  V30 6310 H 612.963 -1.86258 3.45037 0
M  V30 6311 H 614.453 -2.79105 3.10629 0
M  V30 6312 N 614.89 -1.56749 -0.16351 0
M  V30 6313 C 615.837 -1.97011 -1.2023 0
M  V30 6314 C 616.807 -0.835186 -1.43575 0
M  V30 6315 O 617.992 -1.09594 -1.56185 0
M  V30 6316 C 615.132 -2.34186 -2.53478 0
M  V30 6317 C 614.245 -3.60893 -2.37446 0
M  V30 6318 C 613.38 -3.87245 -3.63614 0
M  V30 6319 C 612.419 -5.07274 -3.42548 0
M  V30 6320 N 611.556 -5.29719 -4.60806 0
M  V30 6321 H 616.396 -2.85562 -0.851958 0
M  V30 6322 H 613.933 -1.41292 -0.409257 0
M  V30 6323 H 615.891 -2.53764 -3.31149 0
M  V30 6324 H 614.521 -1.48736 -2.86492 0
M  V30 6325 H 613.573 -3.49185 -1.50911 0
M  V30 6326 H 614.885 -4.48722 -2.1783 0
M  V30 6327 H 614.039 -4.07232 -4.49719 0
M  V30 6328 H 612.778 -2.97806 -3.86216 0
M  V30 6329 H 611.783 -4.87177 -2.5483 0
M  V30 6330 H 613.008 -5.98251 -3.2136 0
M  V30 6331 H 610.954 -4.43233 -4.83612 0
M  V30 6332 H 610.871 -6.11786 -4.44132 0
M  V30 6333 H 612.139 -5.54192 -5.48171 0
M  V30 6334 N 616.368 0.432326 -1.51554 0
M  V30 6335 C 617.298 1.53242 -1.76179 0
M  V30 6336 C 618.279 1.58717 -0.611801 0
M  V30 6337 O 619.464 1.74364 -0.855033 0
M  V30 6338 C 616.594 2.91278 -1.89141 0
M  V30 6339 C 615.548 3.00663 -3.04608 0
M  V30 6340 C 614.874 4.40728 -3.02759 0
M  V30 6341 C 616.174 2.74281 -4.44485 0
M  V30 6342 H 617.868 1.32886 -2.68294 0
M  V30 6343 H 615.414 0.637841 -1.29103 0
M  V30 6344 H 617.367 3.68203 -2.04951 0
M  V30 6345 H 616.091 3.12877 -0.936785 0
M  V30 6346 H 614.75 2.26179 -2.88511 0
M  V30 6347 H 614.398 4.59301 -2.05065 0
M  V30 6348 H 614.098 4.47936 -3.80299 0
M  V30 6349 H 615.622 5.19619 -3.20669 0
M  V30 6350 H 617.036 3.40936 -4.60907 0
M  V30 6351 H 615.433 2.92893 -5.23769 0
M  V30 6352 H 616.503 1.69856 -4.54177 0
M  V30 6353 N 617.846 1.41785 0.688094 0
M  V30 6354 C 618.756 1.46596 1.83158 0
M  V30 6355 C 619.772 0.355862 1.70322 0
M  V30 6356 O 620.948 0.604737 1.92106 0
M  V30 6357 C 618.013 1.35322 3.192 0
M  V30 6358 C 617.074 2.56711 3.4409 0
M  V30 6359 C 616.307 2.45965 4.73642 0
M  V30 6360 O 616.53 1.48827 5.50642 0
M  V30 6361 O 615.464 3.35859 4.99482 0
M  V30 6362 H 619.29 2.43083 1.82056 0
M  V30 6363 H 616.875 1.23404 0.842126 0
M  V30 6364 H 618.757 1.31347 4.00407 0
M  V30 6365 H 617.432 0.419536 3.2097 0
M  V30 6366 H 616.339 2.66262 2.62784 0
M  V30 6367 H 617.672 3.48933 3.47141 0
M  V30 6368 N 619.324 -0.923095 1.27737 0
M  V30 6369 C 620.287 -2.00587 1.10894 0
M  V30 6370 C 621.287 -1.60718 0.0514927 0
M  V30 6371 O 622.477 -1.71658 0.296481 0
M  V30 6372 C 619.609 -3.33829 0.690717 0
M  V30 6373 H 620.802 -2.16959 2.07048 0
M  V30 6374 H 618.355 -1.10451 1.1059 0
M  V30 6375 H 619.09 -3.23157 -0.272 0
M  V30 6376 H 618.875 -3.64125 1.45448 0
M  V30 6377 H 620.365 -4.13336 0.595252 0
M  V30 6378 N 620.802 -1.09834 -1.13024 0
M  V30 6379 C 621.732 -0.763451 -2.20666 0
M  V30 6380 C 622.713 0.260778 -1.68089 0
M  V30 6381 O 623.898 0.127915 -1.93778 0
M  V30 6382 C 621.028 -0.187744 -3.46792 0
M  V30 6383 C 619.982 -1.14196 -4.12484 0
M  V30 6384 C 619.308 -0.427755 -5.32986 0
M  V30 6385 C 620.608 -2.48607 -4.59338 0
M  V30 6386 H 622.302 -1.66347 -2.48936 0
M  V30 6387 H 619.848 -0.801261 -1.19649 0
M  V30 6388 H 621.801 0.0586375 -4.21359 0
M  V30 6389 H 620.525 0.747485 -3.17931 0
M  V30 6390 H 619.184 -1.37369 -3.3989 0
M  V30 6391 H 618.832 0.511747 -5.0039 0
M  V30 6392 H 618.532 -1.06403 -5.77886 0
M  V30 6393 H 620.056 -0.189772 -6.10305 0
M  V30 6394 H 621.47 -2.29618 -5.25308 0
M  V30 6395 H 619.867 -3.08062 -5.14993 0
M  V30 6396 H 620.937 -3.09062 -3.73642 0
M  V30 6397 N 622.28 1.30327 -0.886154 0
M  V30 6398 C 623.527 1.96097 -0.505192 0
M  V30 6399 C 623.855 1.69952 0.945868 0
M  V30 6400 O 623.11 0.997653 1.68361 0
M  V30 6401 C 623.409 3.49906 -0.728042 0
M  V30 6402 C 623.075 3.96103 -2.15437 0
M  V30 6403 C 621.737 4.08428 -2.5444 0
M  V30 6404 C 624.089 4.20177 -3.08384 0
M  V30 6405 C 621.417 4.42189 -3.85598 0
M  V30 6406 C 623.769 4.55407 -4.39075 0
M  V30 6407 C 622.433 4.65941 -4.7797 0
M  V30 6408 H 621.703 0.71757 -0.184863 0
M  V30 6409 H 624.35 1.55171 -1.12223 0
M  V30 6410 H 622.655 3.9179 -0.027978 0
M  V30 6411 H 624.352 3.98869 -0.412862 0
M  V30 6412 H 620.942 3.87017 -1.84162 0
M  V30 6413 H 625.126 4.10134 -2.7947 0
M  V30 6414 H 620.382 4.48544 -4.15473 0
M  V30 6415 H 624.556 4.72986 -5.11133 0
M  V30 6416 H 622.183 4.91856 -5.79639 0
M  V30 6417 N 623.758 0.647228 1.43697 0
M  V30 6418 C 624.988 0.16551 2.05936 0
M  V30 6419 C 625.396 -1.17164 1.48557 0
M  V30 6420 O 624.739 -1.73307 0.60914 0
M  V30 6421 C 624.801 -0.00648082 3.59499 0
M  V30 6422 C 624.465 1.25503 4.39429 0
M  V30 6423 C 625.462 2.18241 4.71876 0
M  V30 6424 C 623.147 1.49494 4.79538 0
M  V30 6425 C 625.141 3.33268 5.43333 0
M  V30 6426 C 622.828 2.64815 5.50742 0
M  V30 6427 C 623.826 3.56528 5.82561 0
M  V30 6428 O 623.514 4.69836 6.52311 0
M  V30 6429 H 623.246 0.0844124 0.670709 0
M  V30 6430 H 625.8 0.88638 1.8529 0
M  V30 6431 H 624.03 -0.782661 3.78697 0
M  V30 6432 H 625.719 -0.444794 4.03456 0
M  V30 6433 H 626.485 2.00946 4.41413 0
M  V30 6434 H 622.364 0.789912 4.54182 0
M  V30 6435 H 625.908 4.04874 5.68087 0
M  V30 6436 H 621.805 2.82047 5.8062 0
M  V30 6437 H 622.573 4.69024 6.70789 0
M  V30 6438 N 625.236 -1.5273 0.388769 0
M  V30 6439 C 626.484 -2.01174 -0.193208 0
M  V30 6440 C 626.805 -1.27705 -1.47365 0
M  V30 6441 O 626.075 -0.396966 -1.91836 0
M  V30 6442 H 624.655 -0.743287 -0.0743871 0
M  V30 6443 H 627.317 -1.87826 0.520336 0
M  V30 6444 H 626.413 -3.09477 -0.403803 0
M  V30 6445 N 626.714 -0.118576 -1.57153 0
M  V30 6446 C 627.644 0.828436 -2.1831 0
M  V30 6447 C 628.625 1.27758 -1.12303 0
M  V30 6448 O 629.81 1.34026 -1.40537 0
M  V30 6449 C 626.94 2.07876 -2.78217 0
M  V30 6450 C 625.894 1.76742 -3.89803 0
M  V30 6451 C 625.22 3.08801 -4.36516 0
M  V30 6452 C 626.52 1.03606 -5.11921 0
M  V30 6453 H 628.214 0.318824 -2.97698 0
M  V30 6454 H 625.76 0.151911 -1.43196 0
M  V30 6455 H 627.713 2.74584 -3.19659 0
M  V30 6456 H 626.437 2.61161 -1.96118 0
M  V30 6457 H 625.096 1.12424 -3.48936 0
M  V30 6458 H 624.744 3.6002 -3.51276 0
M  V30 6459 H 624.444 2.88743 -5.11763 0
M  V30 6460 H 625.968 3.76627 -4.80608 0
M  V30 6461 H 627.382 1.60467 -5.50385 0
M  V30 6462 H 625.779 0.936454 -5.92748 0
M  V30 6463 H 626.849 0.0227421 -4.84895 0
M  V30 6464 N 628.193 1.56834 0.155195 0
M  V30 6465 C 629.441 1.82536 0.867462 0
M  V30 6466 C 629.762 0.698168 1.82073 0
M  V30 6467 O 629.032 -0.280807 1.93877 0
M  V30 6468 H 627.612 0.673401 0.323327 0
M  V30 6469 H 630.274 1.94313 0.151156 0
M  V30 6470 H 629.37 2.77171 1.43466 0
M  V30 6471 N 629.671 -0.424282 1.51781 0
M  V30 6472 C 630.896 -1.19928 1.6921 0
M  V30 6473 C 631.321 -1.8392 0.394355 0
M  V30 6474 O 630.679 -1.69371 -0.646778 0
M  V30 6475 C 630.727 -2.24937 2.81843 0
M  V30 6476 O 629.831 -3.3073 2.46356 0
M  V30 6477 H 629.172 -0.35078 0.563781 0
M  V30 6478 H 631.702 -0.499401 1.98412 0
M  V30 6479 H 631.712 -2.69512 3.06312 0
M  V30 6480 H 630.387 -1.77742 3.76006 0
M  V30 6481 H 628.964 -2.9154 2.32505 0
M  V30 6482 N 631.149 -1.42148 -0.680565 0
M  V30 6483 C 632.426 -1.32795 -1.43614 0
M  V30 6484 C 632.806 0.037415 -2.11067 0
M  V30 6485 O 632.154 1.05258 -2.02813 0
M  V30 6486 C 632.364 -2.49206 -2.44331 0
M  V30 6487 C 633.712 -2.91059 -3.09144 0
M  V30 6488 O 634.736 -2.49054 -2.54657 0
M  V30 6489 O 633.595 -3.63741 -4.07866 0
M  V30 6490 H 630.689 -0.523397 -0.640301 0
M  V30 6491 H 633.235 -1.54144 -0.709775 0
M  V30 6492 H 632.007 -3.40252 -1.93247 0
M  V30 6493 H 631.63 -2.29813 -3.24456 0
M  V30 6494 N 632.627 0.916307 -1.28225 0
M  V30 6495 C 633.875 1.6619 -1.15002 0
M  V30 6496 C 634.196 1.92642 0.302329 0
M  V30 6497 O 633.466 1.54076 1.20985 0
M  V30 6498 H 632.046 0.615964 -0.422608 0
M  V30 6499 H 634.708 1.09963 -1.60917 0
M  V30 6500 H 633.804 2.62533 -1.68769 0
M  V30 6501 N 634.105 1.10431 1.1244 0
M  V30 6502 C 635.33 0.869089 1.88313 0
M  V30 6503 C 635.755 -0.574912 1.79099 0
M  V30 6504 O 635.113 -1.40496 1.14589 0
M  V30 6505 C 635.161 1.32208 3.3549 0
M  V30 6506 O 634.265 0.487092 4.09513 0
M  V30 6507 H 633.606 0.313894 0.585121 0
M  V30 6508 H 636.136 1.47111 1.42195 0
M  V30 6509 H 636.146 1.31201 3.86329 0
M  V30 6510 H 634.821 2.37364 3.41513 0
M  V30 6511 H 633.398 0.562372 3.68635 0
M  V30 6512 N 635.583 -1.29855 0.893053 0
M  V30 6513 C 636.829 -1.96116 0.516349 0
M  V30 6514 C 637.162 -1.70281 -0.933695 0
M  V30 6515 O 636.437 -1.01205 -1.66096 0
M  V30 6516 C 636.72 -3.51068 0.801455 0
M  V30 6517 C 636.573 -3.86387 2.30272 0
M  V30 6518 C 637.892 -4.39186 0.283423 0
M  V30 6519 H 635.011 -0.712335 0.189072 0
M  V30 6520 H 637.653 -1.53587 1.11852 0
M  V30 6521 H 635.803 -3.87424 0.288949 0
M  V30 6522 H 637.475 -3.60012 2.88425 0
M  V30 6523 H 635.718 -3.34167 2.76613 0
M  V30 6524 H 636.389 -4.94512 2.45279 0
M  V30 6525 H 638.865 -4.09785 0.722187 0
M  V30 6526 H 637.741 -5.46505 0.512169 0
M  V30 6527 H 638.002 -4.34511 -0.815643 0
M  V30 6528 N 637.061 -0.65484 -1.43351 0
M  V30 6529 C 638.286 -0.175046 -2.0666 0
M  V30 6530 C 638.711 1.15104 -1.4877 0
M  V30 6531 O 638.069 1.71144 -0.598279 0
M  V30 6532 C 638.117 -0.0991544 -3.60464 0
M  V30 6533 O 637.221 0.938169 -4.01587 0
M  V30 6534 H 636.562 -0.0956148 -0.65708 0
M  V30 6535 H 639.092 -0.898222 -1.83829 0
M  V30 6536 H 639.102 0.083632 -4.07914 0
M  V30 6537 H 637.777 -1.06719 -4.01975 0
M  V30 6538 H 636.354 0.72804 -3.65724 0
M  V30 6539 N 638.539 1.52521 -0.396863 0
M  V30 6540 C 639.502 2.2527 0.422604 0
M  V30 6541 C 640.502 1.27184 0.983913 0
M  V30 6542 O 641.692 1.51222 0.864723 0
M  V30 6543 C 638.824 3.01356 1.59365 0
M  V30 6544 H 640.017 2.99133 -0.214416 0
M  V30 6545 H 637.57 1.55587 -0.149128 0
M  V30 6546 H 638.305 2.31813 2.26789 0
M  V30 6547 H 638.09 3.73357 1.19779 0
M  V30 6548 H 639.58 3.56571 2.17363 0
M  V30 6549 N 640.017 0.126909 1.57088 0
M  V30 6550 C 641.245 -0.53667 1.99819 0
M  V30 6551 C 641.66 -1.5972 1.00673 0
M  V30 6552 O 641.017 -1.825 0.000747365 0
M  V30 6553 C 641.068 -1.15563 3.42531 0
M  V30 6554 O 640.789 -0.137483 4.37884 0
M  V30 6555 C 642.29 -1.90176 4.00435 0
M  V30 6556 H 639.51 -0.141443 0.655923 0
M  V30 6557 H 642.054 0.215578 2.03361 0
M  V30 6558 H 640.209 -1.85861 3.39904 0
M  V30 6559 H 640.623 -0.588229 5.21191 0
M  V30 6560 H 642.097 -2.28801 5.02349 0
M  V30 6561 H 642.574 -2.78002 3.40017 0
M  V30 6562 H 643.18 -1.24623 4.06632 0
M  V30 6563 N 641.495 -1.56914 -0.146875 0
M  V30 6564 C 642.442 -1.98275 -1.18134 0
M  V30 6565 C 643.412 -0.850367 -1.42681 0
M  V30 6566 O 644.597 -1.11244 -1.55014 0
M  V30 6567 C 641.737 -2.36861 -2.5098 0
M  V30 6568 C 640.85 -3.63391 -2.33605 0
M  V30 6569 C 639.985 -3.91079 -3.59486 0
M  V30 6570 C 639.024 -5.10879 -3.37149 0
M  V30 6571 N 638.161 -5.34577 -4.55161 0
M  V30 6572 H 643.001 -2.8645 -0.821622 0
M  V30 6573 H 640.538 -1.41718 -0.394248 0
M  V30 6574 H 642.496 -2.57262 -3.28439 0
M  V30 6575 H 641.126 -1.51766 -2.84898 0
M  V30 6576 H 640.178 -3.50766 -1.47199 0
M  V30 6577 H 641.49 -4.51007 -2.13059 0
M  V30 6578 H 640.644 -4.11979 -4.45374 0
M  V30 6579 H 639.383 -3.01885 -3.83036 0
M  V30 6580 H 638.388 -4.89853 -2.49649 0
M  V30 6581 H 639.613 -6.01626 -3.14997 0
M  V30 6582 H 637.559 -4.48337 -4.78884 0
M  V30 6583 H 637.476 -6.16463 -4.37618 0
M  V30 6584 H 638.744 -5.59975 -5.42263 0
M  V30 6585 N 642.974 0.416227 -1.52004 0
M  V30 6586 C 643.922 1.5272 -1.7544 0
M  V30 6587 C 644.916 1.57596 -0.621289 0
M  V30 6588 O 646.122 1.61087 -0.803172 0
M  V30 6589 H 642.497 0.507772 -0.554682 0
M  V30 6590 H 644.468 1.30136 -2.68528 0
M  V30 6591 C 643.217 2.90165 -1.91571 0
M  V30 6592 H 642.54 2.87154 -2.78178 0
M  V30 6593 H 643.98 3.67211 -2.11972 0
M  V30 6594 C 642.439 3.29947 -0.680942 0
M  V30 6595 O 642.969 4.01403 0.154527 0
M  V30 6596 N 641.175 2.8593 -0.518894 0
M  V30 6597 H 640.722 2.2795 -1.19986 0
M  V30 6598 H 640.68 3.12907 0.305985 0
M  V30 6599 N 644.452 1.42507 0.673017 0
M  V30 6600 C 645.4 1.46362 1.80779 0
M  V30 6601 C 646.394 0.339166 1.6597 0
M  V30 6602 O 647.6 0.512262 1.72557 0
M  V30 6603 H 643.975 0.458433 0.596107 0
M  V30 6604 H 645.946 2.41953 1.74646 0
M  V30 6605 C 644.695 1.38462 3.18941 0
M  V30 6606 H 644.018 2.24283 3.30964 0
M  V30 6607 H 645.458 1.45221 3.98355 0
M  V30 6608 C 643.917 0.0996354 3.36753 0
M  V30 6609 O 644.447 -0.846894 3.92671 0
M  V30 6610 N 642.653 0.016211 2.90595 0
M  V30 6611 H 642.2 0.78725 2.45276 0
M  V30 6612 H 642.158 -0.84291 3.0289 0
M  V30 6613 N 645.93 -0.909495 1.28709 0
M  V30 6614 C 647.179 -1.65365 1.15487 0
M  V30 6615 C 647.492 -1.93364 -0.294941 0
M  V30 6616 O 648.698 -2.65905 -0.548338 0
M  V30 6617 C 647.154 -2.97923 2.01916 0
M  V30 6618 C 646.762 -2.77556 3.51663 0
M  V30 6619 C 648.506 -3.75814 1.97393 0
M  V30 6620 C 646.413 -4.0578 4.30229 0
M  V30 6621 H 645.343 -0.620323 0.42862 0
M  V30 6622 H 647.994 -1.00894 1.53273 0
M  V30 6623 H 646.376 -3.63552 1.5699 0
M  V30 6624 H 647.55 -2.2058 4.04575 0
M  V30 6625 H 645.865 -2.13072 3.57756 0
M  V30 6626 H 648.462 -4.70866 2.53357 0
M  V30 6627 H 648.805 -4.05277 0.951643 0
M  V30 6628 H 649.338 -3.1701 2.40311 0
M  V30 6629 H 646.077 -3.81488 5.33055 0
M  V30 6630 H 645.597 -4.62351 3.82089 0
M  V30 6631 H 647.276 -4.74004 4.40374 0
M  V30 6632 N 647.408 -1.11026 -1.11852 0
M  V30 6633 C 648.355 -0.764662 -2.17765 0
M  V30 6634 C 649.325 0.261854 -1.64023 0
M  V30 6635 O 650.51 0.139748 -1.90288 0
M  V30 6636 C 647.65 -0.209317 -3.44465 0
M  V30 6637 C 646.763 -1.29187 -4.12231 0
M  V30 6638 C 645.898 -0.697523 -5.266 0
M  V30 6639 C 644.937 -1.76023 -5.86244 0
M  V30 6640 N 644.074 -1.18569 -6.92016 0
M  V30 6641 H 648.914 -1.67202 -2.46673 0
M  V30 6642 H 646.451 -0.835065 -1.21099 0
M  V30 6643 H 648.409 0.130599 -4.16996 0
M  V30 6644 H 647.039 0.661251 -3.15955 0
M  V30 6645 H 646.091 -1.74881 -3.37818 0
M  V30 6646 H 647.403 -2.09607 -4.52622 0
M  V30 6647 H 646.557 -0.307412 -6.05921 0
M  V30 6648 H 645.296 0.138044 -4.87505 0
M  V30 6649 H 644.301 -2.1597 -5.05606 0
M  V30 6650 H 645.526 -2.59875 -6.27409 0
M  V30 6651 H 643.472 -0.371695 -6.54946 0
M  V30 6652 H 643.389 -1.92666 -7.31038 0
M  V30 6653 H 644.657 -0.82233 -7.7515 0
M  V30 6654 N 648.886 1.2938 -0.899927 0
M  V30 6655 C 650.135 1.9483 -0.521937 0
M  V30 6656 C 650.448 1.71725 0.936473 0
M  V30 6657 O 651.654 2.31282 1.42199 0
M  V30 6658 C 650.11 3.48911 -0.88255 0
M  V30 6659 C 649.718 3.80815 -2.35974 0
M  V30 6660 C 651.462 4.20595 -0.57448 0
M  V30 6661 C 649.369 5.28142 -2.66121 0
M  V30 6662 H 648.299 0.729285 -0.191468 0
M  V30 6663 H 650.95 1.47103 -1.09695 0
M  V30 6664 H 649.332 3.95293 -0.236459 0
M  V30 6665 H 650.506 3.45291 -3.05141 0
M  V30 6666 H 648.821 3.22271 -2.63686 0
M  V30 6667 H 651.418 5.29031 -0.776556 0
M  V30 6668 H 651.761 4.13442 0.487005 0
M  V30 6669 H 652.294 3.79945 -1.17842 0
M  V30 6670 H 649.033 5.4036 -3.71068 0
M  V30 6671 H 648.553 5.64913 -2.01578 0
M  V30 6672 H 650.232 5.95738 -2.52399 0
M  V30 6673 N 650.364 0.662433 1.43002 0
M  V30 6674 C 651.613 0.176873 2.00923 0
M  V30 6675 C 651.926 -1.21954 1.52927 0
M  V30 6676 O 653.132 -1.80081 2.03182 0
M  V30 6677 C 651.588 0.265379 3.5892 0
M  V30 6678 C 651.196 1.66507 4.15908 0
M  V30 6679 C 652.94 -0.162103 4.2419 0
M  V30 6680 C 650.847 1.707 5.66229 0
M  V30 6681 H 649.777 0.0623627 0.751417 0
M  V30 6682 H 652.428 0.825813 1.63868 0
M  V30 6683 H 650.81 -0.451235 3.93421 0
M  V30 6684 H 651.984 2.40777 3.92891 0
M  V30 6685 H 650.299 2.03932 3.63044 0
M  V30 6686 H 652.896 -0.150745 5.34487 0
M  V30 6687 H 653.239 -1.19519 3.98774 0
M  V30 6688 H 653.772 0.503075 3.94606 0
M  V30 6689 H 650.511 2.7195 5.96426 0
M  V30 6690 H 650.031 1.00768 5.91275 0
M  V30 6691 H 651.71 1.45487 6.3043 0
M  V30 6692 N 651.842 -1.52309 0.404946 0
M  V30 6693 C 653.09 -2.01368 -0.17186 0
M  V30 6694 C 653.411 -1.29261 -1.46002 0
M  V30 6695 O 652.681 -0.41729 -1.91404 0
M  V30 6696 H 651.261 -0.744034 -0.0664993 0
M  V30 6697 H 653.923 -1.87263 0.540228 0
M  V30 6698 H 653.019 -3.09888 -0.370957 0
M  V30 6699 N 653.32 -0.135238 -1.57019 0
M  V30 6700 C 654.268 0.826099 -2.17436 0
M  V30 6701 C 655.262 1.26378 -1.12805 0
M  V30 6702 O 656.468 1.23363 -1.31079 0
M  V30 6703 H 652.843 0.284568 -0.696078 0
M  V30 6704 H 654.814 0.292212 -2.96966 0
M  V30 6705 C 653.563 2.05991 -2.80112 0
M  V30 6706 H 652.886 1.73209 -3.60331 0
M  V30 6707 H 654.326 2.71225 -3.25903 0
M  V30 6708 C 652.785 2.86027 -1.78017 0
M  V30 6709 O 653.315 3.81971 -1.24344 0
M  V30 6710 N 651.521 2.50332 -1.47588 0
M  V30 6711 H 651.068 1.72377 -1.91426 0
M  V30 6712 H 651.026 3.04177 -0.795228 0
M  V30 6713 N 654.798 1.5699 0.138552 0
M  V30 6714 C 656.023 1.88344 0.86841 0
M  V30 6715 C 656.448 0.725159 1.7356 0
M  V30 6716 O 655.806 -0.324992 1.78363 0
M  V30 6717 C 655.854 3.18334 1.69398 0
M  V30 6718 O 654.958 3.02863 2.79907 0
M  V30 6719 H 654.299 0.618577 0.241367 0
M  V30 6720 H 656.829 2.04207 0.126826 0
M  V30 6721 H 656.839 3.50567 2.08726 0
M  V30 6722 H 655.514 4.02238 1.05725 0
M  V30 6723 H 654.091 2.82056 2.43924 0
M  V30 6724 N 656.276 -0.40816 1.52223 0
M  V30 6725 C 657.504 -1.17672 1.70179 0
M  V30 6726 C 657.919 -1.84257 0.411696 0
M  V30 6727 O 657.276 -1.7192 -0.612354 0
M  V30 6728 C 657.327 -2.23911 2.83806 0
M  V30 6729 O 657.048 -1.60044 4.0782 0
M  V30 6730 C 658.549 -3.1364 3.13281 0
M  V30 6731 H 655.769 -0.353562 0.570293 0
M  V30 6732 H 658.313 -0.480083 1.98785 0
M  V30 6733 H 656.468 -2.89242 2.57717 0
M  V30 6734 H 656.882 -2.30484 4.71145 0
M  V30 6735 H 658.356 -3.84255 3.96298 0
M  V30 6736 H 658.833 -3.76066 2.26872 0
M  V30 6737 H 659.439 -2.53977 3.41139 0
M  V30 6738 N 657.755 -1.42862 -0.66545 0
M  V30 6739 C 659.166 -1.3901 -1.24632 0
M  V30 6740 C 659.517 -0.0880285 -1.96002 0
M  V30 6741 O 658.642 0.812947 -2.0055 0
M  V30 6742 C 659.237 -2.51806 -2.2667 0
M  V30 6743 C 657.796 -2.51257 -2.80262 0
M  V30 6744 C 656.943 -2.30124 -1.5472 0
M  V30 6745 H 659.894 -1.5194 -0.458237 0
M  V30 6746 H 659.915 -2.22593 -3.08598 0
M  V30 6747 H 659.427 -3.46558 -1.74697 0
M  V30 6748 H 657.528 -1.60349 -3.36332 0
M  V30 6749 H 657.641 -3.48614 -3.28641 0
M  V30 6750 H 656.005 -1.7856 -1.81627 0
M  V30 6751 H 656.788 -3.26945 -1.04699 0
M  V30 6752 N 659.233 0.902656 -1.29189 0
M  V30 6753 C 660.479 1.6555 -1.18172 0
M  V30 6754 C 660.834 1.90569 0.264788 0
M  V30 6755 O 660.127 1.50292 1.1884 0
M  V30 6756 C 660.321 3.011 -1.92545 0
M  V30 6757 C 660.15 2.89312 -3.4428 0
M  V30 6758 C 658.92 2.90239 -4.1363 0
M  V30 6759 C 661.118 2.6656 -4.3983 0
M  V30 6760 N 659.1 2.69156 -5.5175 0
M  V30 6761 C 660.471 2.54429 -5.6539 0
M  V30 6762 C 662.526 2.51644 -4.29627 0
M  V30 6763 C 661.229 2.289 -6.81907 0
M  V30 6764 C 663.255 2.27498 -5.45892 0
M  V30 6765 C 662.617 2.16129 -6.70423 0
M  V30 6766 H 658.716 0.611519 -0.48741 0
M  V30 6767 H 661.3 1.06514 -1.62981 0
M  V30 6768 H 659.471 3.58202 -1.50154 0
M  V30 6769 H 661.203 3.65471 -1.73818 0
M  V30 6770 H 657.958 3.01412 -3.65305 0
M  V30 6771 H 658.382 2.61676 -6.24383 0
M  V30 6772 H 663.024 2.59178 -3.34045 0
M  V30 6773 H 660.742 2.20104 -7.77547 0
M  V30 6774 H 664.328 2.16805 -5.39895 0
M  V30 6775 H 663.208 1.97703 -7.5887 0
M  V30 6776 N 660.711 1.11618 1.11262 0
M  V30 6777 C 661.941 0.88745 1.86569 0
M  V30 6778 C 662.349 -0.56636 1.80524 0
M  V30 6779 O 661.692 -1.40289 1.18594 0
M  V30 6780 C 661.754 1.27313 3.36202 0
M  V30 6781 C 661.418 2.73649 3.66013 0
M  V30 6782 C 662.415 3.71863 3.63337 0
M  V30 6783 C 660.1 3.10342 3.9496 0
M  V30 6784 C 662.094 5.04788 3.89188 0
M  V30 6785 C 659.781 4.43451 4.20469 0
M  V30 6786 C 660.779 5.40484 4.17572 0
M  V30 6787 O 660.467 6.71195 4.42439 0
M  V30 6788 H 660.199 0.317543 0.596777 0
M  V30 6789 H 662.753 1.48768 1.41624 0
M  V30 6790 H 660.983 0.616062 3.81761 0
M  V30 6791 H 662.672 1.01991 3.92877 0
M  V30 6792 H 663.438 3.44861 3.41022 0
M  V30 6793 H 659.317 2.35431 3.9635 0
M  V30 6794 H 662.861 5.80516 3.86842 0
M  V30 6795 H 658.758 4.70187 4.42261 0
M  V30 6796 H 659.526 6.77012 4.59997 0
M  V30 6797 N 662.189 -1.289 0.906776 0
M  V30 6798 C 663.152 -2.25777 0.394656 0
M  V30 6799 C 664.152 -1.53621 -0.475119 0
M  V30 6800 O 665.342 -1.71949 -0.279165 0
M  V30 6801 C 662.474 -3.38113 -0.43499 0
M  V30 6802 H 663.667 -2.72592 1.25033 0
M  V30 6803 H 661.22 -1.40463 0.685547 0
M  V30 6804 H 661.955 -2.96648 -1.31036 0
M  V30 6805 H 661.74 -3.91647 0.188334 0
M  V30 6806 H 663.23 -4.10168 -0.784365 0
M  V30 6807 N 663.667 -0.670007 -1.42649 0
M  V30 6808 C 664.599 0.0501746 -2.29145 0
M  V30 6809 C 665.612 0.770331 -1.43422 0
M  V30 6810 O 666.801 0.625288 -1.6719 0
M  V30 6811 C 663.901 1.09463 -3.20735 0
M  V30 6812 C 663.074 0.44926 -4.35087 0
M  V30 6813 C 662.133 1.39285 -5.07431 0
M  V30 6814 O 661.159 0.894997 -5.6212 0
M  V30 6815 N 662.361 2.72631 -5.12496 0
M  V30 6816 H 665.126 -0.692312 -2.91594 0
M  V30 6817 H 662.687 -0.514056 -1.53522 0
M  V30 6818 H 664.679 1.72705 -3.65999 0
M  V30 6819 H 663.249 1.73891 -2.59771 0
M  V30 6820 H 662.469 -0.362573 -3.92529 0
M  V30 6821 H 663.757 -0.000544776 -5.088 0
M  V30 6822 H 663.155 3.15623 -4.69467 0
M  V30 6823 H 661.712 3.31132 -5.61422 0
M  V30 6824 N 665.145 1.52092 -0.413018 0
M  V30 6825 C 666.393 2.01456 0.161178 0
M  V30 6826 C 666.714 1.30034 1.45314 0
M  V30 6827 O 665.984 0.427435 1.9118 0
M  V30 6828 H 664.564 0.744376 0.0625526 0
M  V30 6829 H 667.226 1.86974 -0.550151 0
M  V30 6830 H 666.322 3.1008 0.354517 0
M  V30 6831 N 666.623 0.143563 1.56945 0
M  V30 6832 C 667.853 -0.514699 2.00086 0
M  V30 6833 C 668.261 -1.59184 1.0226 0
M  V30 6834 O 667.604 -1.83697 0.0110514 0
M  V30 6835 C 667.666 -1.17778 3.39659 0
M  V30 6836 C 667.33 -0.245657 4.56339 0
M  V30 6837 C 668.327 0.525343 5.17239 0
M  V30 6838 C 666.012 -0.149564 5.02077 0
M  V30 6839 C 668.006 1.37992 6.22284 0
M  V30 6840 C 665.693 0.708621 6.06978 0
M  V30 6841 C 666.691 1.47197 6.6695 0
M  V30 6842 O 666.379 2.31586 7.6982 0
M  V30 6843 H 666.111 -0.138789 0.661599 0
M  V30 6844 H 668.665 0.234098 2.04062 0
M  V30 6845 H 666.895 -1.97415 3.32512 0
M  V30 6846 H 668.584 -1.73542 3.6693 0
M  V30 6847 H 669.35 0.461118 4.82803 0
M  V30 6848 H 665.229 -0.733457 4.55128 0
M  V30 6849 H 668.773 1.97621 6.69023 0
M  V30 6850 H 664.67 0.77415 6.40841 0
M  V30 6851 H 665.438 2.24796 7.87025 0
M  V30 6852 N 668.101 -1.57061 -0.130224 0
M  V30 6853 C 669.348 -1.84257 -0.839972 0
M  V30 6854 C 669.676 -0.726986 -1.80403 0
M  V30 6855 O 668.931 0.282632 -1.93648 0
M  V30 6856 C 669.23 -3.17878 -1.63365 0
M  V30 6857 C 668.896 -4.43475 -0.814891 0
M  V30 6858 C 667.558 -4.77581 -0.589066 0
M  V30 6859 C 669.91 -5.20631 -0.243437 0
M  V30 6860 C 667.238 -5.86292 0.218648 0
M  V30 6861 C 669.59 -6.30192 0.551408 0
M  V30 6862 C 668.254 -6.62837 0.787653 0
M  V30 6863 H 667.524 -0.674245 -0.307367 0
M  V30 6864 H 670.171 -1.91224 -0.102832 0
M  V30 6865 H 668.476 -3.06437 -2.44138 0
M  V30 6866 H 670.173 -3.3614 -2.18658 0
M  V30 6867 H 666.763 -4.16747 -1.00098 0
M  V30 6868 H 670.947 -4.94644 -0.405145 0
M  V30 6869 H 666.203 -6.10017 0.411016 0
M  V30 6870 H 670.377 -6.89165 1.00126 0
M  V30 6871 H 668.004 -7.46908 1.41537 0
M  V30 6872 N 669.579 0.400081 -1.52437 0
M  V30 6873 C 670.825 1.14788 -1.67187 0
M  V30 6874 C 671.158 1.89928 -0.405074 0
M  V30 6875 O 670.433 1.85118 0.596804 0
M  V30 6876 C 670.716 2.13507 -2.89977 0
M  V30 6877 C 670.569 1.42204 -4.2673 0
M  V30 6878 C 671.888 3.14069 -3.083 0
M  V30 6879 H 669.007 0.415939 -0.608411 0
M  V30 6880 H 671.649 0.432542 -1.85011 0
M  V30 6881 H 669.799 2.7451 -2.74912 0
M  V30 6882 H 671.471 0.842503 -4.53541 0
M  V30 6883 H 669.714 0.723939 -4.27717 0
M  V30 6884 H 670.385 2.14281 -5.08712 0
M  V30 6885 H 672.861 2.63148 -3.22323 0
M  V30 6886 H 671.737 3.80398 -3.95713 0
M  V30 6887 H 671.998 3.82309 -2.22018 0
M  V30 6888 N 671.057 1.43213 0.657864 0
M  V30 6889 C 672.287 1.478 1.44356 0
M  V30 6890 C 672.695 0.0930206 1.88971 0
M  V30 6891 O 672.038 -0.906089 1.59799 0
M  V30 6892 C 672.1 2.35745 2.71412 0
M  V30 6893 C 671.764 3.83359 2.48767 0
M  V30 6894 C 672.761 4.74585 2.12285 0
M  V30 6895 C 670.446 4.27799 2.63235 0
M  V30 6896 C 672.44 6.08247 1.90562 0
M  V30 6897 C 670.127 5.61516 2.41128 0
M  V30 6898 C 671.125 6.51557 2.04847 0
M  V30 6899 O 670.813 7.82802 1.82967 0
M  V30 6900 H 670.545 0.504363 0.450104 0
M  V30 6901 H 673.099 1.88572 0.814241 0
M  V30 6902 H 671.329 1.89852 3.36887 0
M  V30 6903 H 673.018 2.31589 3.33348 0
M  V30 6904 H 673.784 4.41531 2.00687 0
M  V30 6905 H 669.663 3.57993 2.90451 0
M  V30 6906 H 673.207 6.78489 1.62168 0
M  V30 6907 H 669.104 5.94139 2.52327 0
M  V30 6908 H 669.872 7.94332 1.97429 0
M  V30 6909 N 672.536 -0.895792 1.29666 0
M  V30 6910 C 673.813 -1.62723 1.08538 0
M  V30 6911 C 674.193 -2.07848 -0.369119 0
M  V30 6912 O 673.541 -1.8372 -1.35864 0
M  V30 6913 C 673.751 -2.80505 2.07648 0
M  V30 6914 C 675.099 -3.51098 2.3878 0
M  V30 6915 O 676.123 -2.90679 2.05874 0
M  V30 6916 O 674.982 -4.60028 2.9502 0
M  V30 6917 H 672.076 -0.714692 0.416106 0
M  V30 6918 H 674.622 -0.943517 1.41053 0
M  V30 6919 H 673.394 -2.44386 3.05599 0
M  V30 6920 H 673.017 -3.5658 1.75887 0
M  V30 6921 N 674.014 -1.12206 -1.10668 0
M  V30 6922 C 675.239 -0.898938 -1.86906 0
M  V30 6923 C 675.664 0.546346 -1.79991 0
M  V30 6924 O 675.022 1.38655 -1.1681 0
M  V30 6925 C 675.07 -1.37529 -3.33344 0
M  V30 6926 O 674.174 -0.55218 -4.08687 0
M  V30 6927 H 673.515 -0.323163 -0.580053 0
M  V30 6928 H 676.045 -1.49355 -1.39837 0
M  V30 6929 H 676.055 -1.3733 -3.84193 0
M  V30 6930 H 674.73 -2.42767 -3.37693 0
M  V30 6931 H 673.307 -0.620947 -3.67694 0
M  V30 6932 N 675.492 1.28418 -0.913599 0
M  V30 6933 C 676.439 2.27301 -0.400373 0
M  V30 6934 C 677.409 1.57582 0.52509 0
M  V30 6935 O 678.594 1.85482 0.447318 0
M  V30 6936 C 675.734 3.43284 0.35361 0
M  V30 6937 C 674.847 4.27752 -0.604341 0
M  V30 6938 C 673.982 5.30934 0.168075 0
M  V30 6939 C 673.021 6.07065 -0.783499 0
M  V30 6940 N 672.158 7.02086 -0.0446112 0
M  V30 6941 H 676.998 2.70579 -1.24865 0
M  V30 6942 H 674.535 1.33067 -0.627028 0
M  V30 6943 H 676.493 4.09322 0.806945 0
M  V30 6944 H 675.123 3.00997 1.16623 0
M  V30 6945 H 674.175 3.61759 -1.17621 0
M  V30 6946 H 675.487 4.80682 -1.33216 0
M  V30 6947 H 674.641 6.02855 0.681979 0
M  V30 6948 H 673.38 4.78771 0.928947 0
M  V30 6949 H 672.385 5.33995 -1.30878 0
M  V30 6950 H 673.61 6.61317 -1.54392 0
M  V30 6951 H 671.556 6.52273 0.698272 0
M  V30 6952 H 671.473 7.52637 -0.712258 0
M  V30 6953 H 672.741 7.78205 0.449102 0
M  V30 6954 N 676.97 0.677563 1.42291 0
M  V30 6955 C 677.917 0.000947061 2.308 0
M  V30 6956 C 678.887 -0.789889 1.46116 0
M  V30 6957 O 680.072 -0.761578 1.74942 0
M  V30 6958 C 677.212 -0.942387 3.31984 0
M  V30 6959 C 676.325 -0.14508 4.31756 0
M  V30 6960 C 675.46 -1.08442 5.20013 0
M  V30 6961 C 674.499 -0.278958 6.11464 0
M  V30 6962 N 673.636 -1.17115 6.92263 0
M  V30 6963 H 678.476 0.761521 2.88106 0
M  V30 6964 H 676.013 0.38727 1.41911 0
M  V30 6965 H 677.971 -1.50317 3.89179 0
M  V30 6966 H 676.601 -1.66956 2.76271 0
M  V30 6967 H 675.653 0.532368 3.76656 0
M  V30 6968 H 676.965 0.48015 4.96484 0
M  V30 6969 H 676.119 -1.71504 5.81955 0
M  V30 6970 H 674.858 -1.74353 4.55469 0
M  V30 6971 H 673.863 0.364856 5.48588 0
M  V30 6972 H 675.088 0.376099 6.78058 0
M  V30 6973 H 673.034 -1.81661 6.30345 0
M  V30 6974 H 672.951 -0.601063 7.53607 0
M  V30 6975 H 674.219 -1.78915 7.58689 0
M  V30 6976 N 678.448 -1.51871 0.421078 0
M  V30 6977 C 679.411 -2.25914 -0.386712 0
M  V30 6978 C 680.411 -1.28733 -0.963555 0
M  V30 6979 O 681.601 -1.52579 -0.840556 0
M  V30 6980 C 678.733 -3.03853 -1.54551 0
M  V30 6981 H 679.926 -2.98754 0.261978 0
M  V30 6982 H 677.479 -1.5533 0.173862 0
M  V30 6983 H 678.214 -2.35392 -2.23072 0
M  V30 6984 H 677.999 -3.75215 -1.13824 0
M  V30 6985 H 679.489 -3.59984 -2.11663 0
M  V30 6986 N 679.926 -0.151884 -1.56866 0
M  V30 6987 C 681.174 0.497021 -1.95893 0
M  V30 6988 C 681.495 1.65078 -1.03799 0
M  V30 6989 O 680.765 1.95642 -0.10049 0
M  V30 6990 H 679.345 0.186603 -0.723318 0
M  V30 6991 H 682.007 -0.228525 -1.93556 0
M  V30 6992 H 681.103 0.869933 -2.99731 0
M  V30 6993 N 681.404 1.57128 0.121893 0
M  V30 6994 C 682.652 1.84335 0.828548 0
M  V30 6995 C 682.973 0.736632 1.80551 0
M  V30 6996 O 682.243 -0.23962 1.94429 0
M  V30 6997 H 680.823 0.680108 0.30897 0
M  V30 6998 H 683.485 1.9459 0.109906 0
M  V30 6999 H 682.581 2.80152 1.37554 0
M  V30 7000 N 682.882 -0.391992 1.52647 0
M  V30 7001 C 683.812 -1.48517 1.8018 0
M  V30 7002 C 684.793 -1.57039 0.653667 0
M  V30 7003 O 685.978 -1.72036 0.900962 0
M  V30 7004 C 683.108 -2.86161 1.96797 0
M  V30 7005 C 682.062 -2.92481 3.12472 0
M  V30 7006 C 681.388 -4.32546 3.14338 0
M  V30 7007 C 682.688 -2.624 4.51601 0
M  V30 7008 H 684.382 -1.25726 2.71723 0
M  V30 7009 H 681.928 -0.603387 1.30749 0
M  V30 7010 H 683.881 -3.62639 2.14641 0
M  V30 7011 H 682.605 -3.10283 1.01941 0
M  V30 7012 H 681.264 -2.18451 2.94406 0
M  V30 7013 H 680.912 -4.53703 2.1717 0
M  V30 7014 H 680.612 -4.37695 3.92042 0
M  V30 7015 H 682.136 -5.10934 3.34333 0
M  V30 7016 H 683.55 -3.28596 4.69785 0
M  V30 7017 H 681.947 -2.78903 5.3135 0
M  V30 7018 H 683.017 -1.57754 4.58521 0
M  V30 7019 N 684.36 -1.4356 -0.65026 0
M  V30 7020 C 685.588 -1.48779 -1.43779 0
M  V30 7021 C 686.003 -0.106593 -1.88499 0
M  V30 7022 O 685.36 0.883766 -1.59674 0
M  V30 7023 C 685.411 -2.43618 -2.67081 0
M  V30 7024 O 685.132 -3.76367 -2.24231 0
M  V30 7025 C 686.633 -2.5811 -3.60409 0
M  V30 7026 H 683.853 -0.50521 -0.441593 0
M  V30 7027 H 686.397 -1.88332 -0.796941 0
M  V30 7028 H 684.552 -2.07253 -3.273 0
M  V30 7029 H 684.966 -4.27394 -3.0403 0
M  V30 7030 H 686.44 -3.28539 -4.43583 0
M  V30 7031 H 686.917 -1.627 -4.07953 0
M  V30 7032 H 687.523 -2.95298 -3.0607 0
M  V30 7033 N 685.838 0.888903 -1.30139 0
M  V30 7034 C 687.084 1.6428 -1.18912 0
M  V30 7035 C 687.417 1.92499 0.256477 0
M  V30 7036 O 686.692 1.54312 1.18397 0
M  V30 7037 C 686.975 2.9851 -2.01405 0
M  V30 7038 C 686.828 2.77288 -3.54163 0
M  V30 7039 C 688.147 3.99383 -1.84882 0
M  V30 7040 H 685.266 0.596148 -0.433333 0
M  V30 7041 H 687.908 1.0289 -1.5973 0
M  V30 7042 H 686.058 3.50907 -1.66722 0
M  V30 7043 H 687.73 2.31709 -3.98884 0
M  V30 7044 H 685.973 2.11867 -3.78543 0
M  V30 7045 H 686.644 3.72717 -4.07168 0
M  V30 7046 H 689.12 3.56132 -2.15196 0
M  V30 7047 H 687.996 4.91222 -2.44934 0
M  V30 7048 H 688.257 4.34674 -0.806902 0
M  V30 7049 N 687.317 1.12792 1.10072 0
M  V30 7050 C 688.542 0.908838 1.86427 0
M  V30 7051 C 688.967 -0.536793 1.80278 0
M  V30 7052 O 688.325 -1.38033 1.17543 0
M  V30 7053 C 688.373 1.39295 3.3261 0
M  V30 7054 O 687.477 0.573846 4.08388 0
M  V30 7055 H 686.818 0.326234 0.578331 0
M  V30 7056 H 689.348 1.50094 1.39043 0
M  V30 7057 H 689.358 1.39366 3.83459 0
M  V30 7058 H 688.033 2.44555 3.36401 0
M  V30 7059 H 686.61 0.640438 3.67359 0
M  V30 7060 N 688.795 -1.27931 0.920396 0
M  V30 7061 C 689.745 -2.24727 0.384966 0
M  V30 7062 C 690.729 -1.52715 -0.506661 0
M  V30 7063 O 691.921 -1.73599 -0.345298 0
M  V30 7064 C 689.05 -3.41324 -0.3678 0
M  V30 7065 C 688.136 -4.20649 0.539925 0
M  V30 7066 N 688.527 -4.77906 1.6565 0
M  V30 7067 C 686.825 -4.4469 0.341557 0
M  V30 7068 C 687.526 -5.37652 2.22047 0
M  V30 7069 N 686.502 -5.2218 1.51093 0
M  V30 7070 H 690.304 -2.66572 1.23761 0
M  V30 7071 H 687.818 -1.42779 0.773819 0
M  V30 7072 H 689.815 -4.0976 -0.768277 0
M  V30 7073 H 688.475 -3.01012 -1.21746 0
M  V30 7074 H 689.486 -4.76073 2.03899 0
M  V30 7075 H 686.163 -4.14868 -0.468045 0
M  V30 7076 H 687.553 -5.92948 3.1601 0
M  V30 7077 N 690.273 -0.685099 -1.4193 0
M  V30 7078 C 691.203 -0.0273506 -2.33484 0
M  V30 7079 C 692.184 0.778366 -1.51246 0
M  V30 7080 O 693.369 0.733449 -1.79817 0
M  V30 7081 C 690.499 0.917272 -3.34968 0
M  V30 7082 C 689.453 0.21941 -4.27437 0
M  V30 7083 C 688.779 1.27768 -5.1921 0
M  V30 7084 C 690.079 -0.907894 -5.14349 0
M  V30 7085 H 691.773 -0.791994 -2.88735 0
M  V30 7086 H 689.319 -0.382308 -1.38832 0
M  V30 7087 H 691.272 1.38657 -3.97935 0
M  V30 7088 H 689.996 1.71346 -2.78043 0
M  V30 7089 H 688.655 -0.229757 -3.65879 0
M  V30 7090 H 688.303 2.06612 -4.58607 0
M  V30 7091 H 688.003 0.815803 -5.81909 0
M  V30 7092 H 689.527 1.7477 -5.85054 0
M  V30 7093 H 690.941 -0.519348 -5.70943 0
M  V30 7094 H 689.338 -1.2962 -5.85934 0
M  V30 7095 H 690.408 -1.75218 -4.52136 0
M  V30 7096 N 691.751 1.51645 -0.429126 0
M  V30 7097 C 693.167 1.59394 -0.080994 0
M  V30 7098 C 693.367 1.44064 1.40882 0
M  V30 7099 O 692.423 1.27771 2.17786 0
M  V30 7100 C 693.736 2.94779 -0.593773 0
M  V30 7101 C 695.284 3.08067 -0.553494 0
M  V30 7102 C 695.759 4.45963 -1.04311 0
M  V30 7103 N 697.25 4.5226 -1.00076 0
M  V30 7104 C 697.985 5.57268 -1.35056 0
M  V30 7105 N 697.481 6.69734 -1.77282 0
M  V30 7106 N 699.274 5.47582 -1.26925 0
M  V30 7107 H 691.425 1.59856 -1.39857 0
M  V30 7108 H 693.688 0.753095 -0.575805 0
M  V30 7109 H 693.394 3.11342 -1.63583 0
M  V30 7110 H 693.268 3.77197 -0.0142202 0
M  V30 7111 H 695.655 2.91177 0.479556 0
M  V30 7112 H 695.736 2.27508 -1.16935 0
M  V30 7113 H 695.38 4.63598 -2.07459 0
M  V30 7114 H 695.31 5.25049 -0.403873 0
M  V30 7115 H 697.801 3.71537 -0.690564 0
M  V30 7116 H 698.114 7.4587 -2.02232 0
M  V30 7117 H 696.459 6.70963 -1.81202 0
M  V30 7118 H 699.65 4.58604 -0.93809 0
M  V30 7119 H 699.823 6.29308 -1.54516 0
M  V30 7120 N 693.229 0.160201 1.56784 0
M  V30 7121 C 694.475 -0.48831 1.96833 0
M  V30 7122 C 694.808 -1.63641 1.04571 0
M  V30 7123 O 694.083 -1.94289 0.0906481 0
M  V30 7124 C 694.366 -0.981908 3.46454 0
M  V30 7125 C 694.219 0.165607 4.49495 0
M  V30 7126 C 695.538 -1.85931 3.98896 0
M  V30 7127 H 692.657 -0.176027 0.71567 0
M  V30 7128 H 695.299 0.244093 1.88426 0
M  V30 7129 H 693.449 -1.60602 3.5375 0
M  V30 7130 H 695.121 0.802372 4.54268 0
M  V30 7131 H 693.364 0.822789 4.25926 0
M  V30 7132 H 694.035 -0.221699 5.51555 0
M  V30 7133 H 696.511 -1.33327 3.94161 0
M  V30 7134 H 695.387 -2.17373 5.04024 0
M  V30 7135 H 695.648 -2.80106 3.42042 0
M  V30 7136 N 694.707 -1.5719 -0.113559 0
M  V30 7137 C 695.932 -1.89702 -0.838336 0
M  V30 7138 C 696.357 -0.752679 -1.72384 0
M  V30 7139 O 695.715 0.296575 -1.78858 0
M  V30 7140 C 695.763 -3.20989 -1.64312 0
M  V30 7141 O 694.867 -3.07278 -2.75053 0
M  V30 7142 H 694.208 -0.622339 -0.231496 0
M  V30 7143 H 696.738 -2.04382 -0.0943228 0
M  V30 7144 H 696.748 -3.53843 -2.03123 0
M  V30 7145 H 695.423 -4.03869 -0.993119 0
M  V30 7146 H 694 -2.85901 -2.39406 0
M  V30 7147 N 696.185 0.383891 -1.52853 0
M  V30 7148 C 697.095 1.49343 -1.80925 0
M  V30 7149 C 698.111 1.59458 -0.696348 0
M  V30 7150 O 699.287 1.75698 -0.984481 0
M  V30 7151 C 696.352 2.84819 -1.97684 0
M  V30 7152 C 695.413 2.84382 -3.21598 0
M  V30 7153 C 694.646 4.13397 -3.37548 0
M  V30 7154 O 694.869 5.08619 -2.58192 0
M  V30 7155 O 693.803 4.20325 -4.30826 0
M  V30 7156 H 697.629 1.2855 -2.75152 0
M  V30 7157 H 695.214 0.572229 -1.38007 0
M  V30 7158 H 697.096 3.65125 -2.10385 0
M  V30 7159 H 695.771 3.05627 -1.06647 0
M  V30 7160 H 694.678 2.0284 -3.14336 0
M  V30 7161 H 696.011 2.68526 -4.12498 0
M  V30 7162 N 697.663 1.43903 0.642637 0
M  V30 7163 C 698.595 1.45857 1.768 0
M  V30 7164 C 699.608 0.353358 1.58919 0
M  V30 7165 O 700.797 0.618426 1.67445 0
M  V30 7166 C 697.897 1.26583 3.14372 0
M  V30 7167 C 697.07 2.50139 3.58817 0
M  V30 7168 C 696.129 2.25933 4.75227 0
M  V30 7169 O 695.155 2.99351 4.84125 0
M  V30 7170 N 696.357 1.28263 5.66153 0
M  V30 7171 H 699.122 2.42869 1.75598 0
M  V30 7172 H 696.683 1.39194 0.826832 0
M  V30 7173 H 698.675 1.08255 3.89953 0
M  V30 7174 H 697.245 0.37978 3.10284 0
M  V30 7175 H 696.465 2.83821 2.73568 0
M  V30 7176 H 697.753 3.32344 3.8526 0
M  V30 7177 H 697.151 0.676041 5.61646 0
M  V30 7178 H 695.708 1.15916 6.4141 0
M  V30 7179 N 699.141 -0.881989 1.30609 0
M  V30 7180 C 700.552 -1.44956 1.17664 0
M  V30 7181 C 700.903 -1.94945 -0.221531 0
M  V30 7182 O 700.028 -1.85257 -1.11844 0
M  V30 7183 C 700.623 -2.63474 2.12995 0
M  V30 7184 C 699.182 -3.16312 2.04019 0
M  V30 7185 C 698.329 -1.89008 2.02907 0
M  V30 7186 H 701.28 -0.691645 1.42835 0
M  V30 7187 H 701.301 -3.39783 1.71253 0
M  V30 7188 H 700.813 -2.2706 3.14746 0
M  V30 7189 H 698.914 -3.57376 1.0542 0
M  V30 7190 H 699.027 -3.79409 2.9255 0
M  V30 7191 H 697.391 -2.07465 1.47751 0
M  V30 7192 H 698.174 -1.54848 3.06394 0
M  V30 7193 N 700.619 -1.13374 -1.09472 0
M  V30 7194 C 701.868 -0.889844 -1.8101 0
M  V30 7195 C 702.181 0.585686 -1.86625 0
M  V30 7196 O 703.387 0.946497 -2.54467 0
M  V30 7197 C 701.843 -1.54241 -3.25174 0
M  V30 7198 C 701.451 -3.05343 -3.27826 0
M  V30 7199 C 703.195 -1.37919 -4.0147 0
M  V30 7200 C 701.102 -3.63486 -4.6651 0
M  V30 7201 H 700.032 -0.329256 -0.678311 0
M  V30 7202 H 702.683 -1.36139 -1.23038 0
M  V30 7203 H 701.065 -0.998525 -3.83204 0
M  V30 7204 H 702.239 -3.66307 -2.79563 0
M  V30 7205 H 700.554 -3.21175 -2.65019 0
M  V30 7206 H 703.151 -1.78771 -5.03929 0
M  V30 7207 H 703.494 -0.323987 -4.15037 0
M  V30 7208 H 704.027 -1.89284 -3.49881 0
M  V30 7209 H 700.766 -4.68811 -4.58145 0
M  V30 7210 H 700.286 -3.073 -5.15099 0
M  V30 7211 H 701.965 -3.63134 -5.35484 0
M  V30 7212 N 702.098 1.27442 -0.927168 0
M  V30 7213 C 703.514 1.46754 -0.627329 0
M  V30 7214 C 703.714 1.83902 0.823549 0
M  V30 7215 O 702.77 1.95215 1.60148 0
M  V30 7216 C 704.083 2.56045 -1.57674 0
M  V30 7217 C 705.631 2.69906 -1.58491 0
M  V30 7218 C 706.106 3.82355 -2.52128 0
M  V30 7219 N 707.597 3.89728 -2.50332 0
M  V30 7220 C 708.332 4.76155 -3.19475 0
M  V30 7221 N 707.828 5.67073 -3.97995 0
M  V30 7222 N 709.621 4.6988 -3.08496 0
M  V30 7223 H 701.772 1.01613 -1.86517 0
M  V30 7224 H 704.035 0.507443 -0.800753 0
M  V30 7225 H 703.741 2.35542 -2.61176 0
M  V30 7226 H 703.615 3.53423 -1.31804 0
M  V30 7227 H 706.002 2.89792 -0.557208 0
M  V30 7228 H 706.083 1.73018 -1.8841 0
M  V30 7229 H 705.727 3.63224 -3.55008 0
M  V30 7230 H 705.657 4.7867 -2.19505 0
M  V30 7231 H 708.148 3.24717 -1.93306 0
M  V30 7232 H 708.461 6.2988 -4.4774 0
M  V30 7233 H 706.806 5.6687 -4.02098 0
M  V30 7234 H 709.997 3.97848 -2.46646 0
M  V30 7235 H 710.17 5.37017 -3.62652 0
M  V30 7236 N 703.576 0.692616 1.41565 0
M  V30 7237 C 704.801 0.229776 2.06123 0
M  V30 7238 C 705.226 -1.11119 1.5177 0
M  V30 7239 O 704.584 -1.69498 0.643444 0
M  V30 7240 C 704.632 0.19469 3.60074 0
M  V30 7241 O 703.736 -0.831366 4.03933 0
M  V30 7242 H 703.077 0.113002 0.654314 0
M  V30 7243 H 705.607 0.946645 1.81383 0
M  V30 7244 H 705.617 0.0245487 4.07993 0
M  V30 7245 H 704.292 1.17339 3.99004 0
M  V30 7246 H 702.869 -0.630819 3.67526 0
M  V30 7247 N 705.054 -1.51416 0.437162 0
M  V30 7248 C 706.017 -2.26312 -0.362729 0
M  V30 7249 C 707.017 -1.29748 -0.949847 0
M  V30 7250 O 708.207 -1.53462 -0.824325 0
M  V30 7251 C 705.339 -3.05475 -1.5132 0
M  V30 7252 H 706.532 -2.98459 0.29365 0
M  V30 7253 H 704.085 -1.55137 0.190327 0
M  V30 7254 H 704.82 -2.37744 -2.20563 0
M  V30 7255 H 704.605 -3.76401 -1.09838 0
M  V30 7256 H 706.095 -3.62209 -2.07833 0
M  V30 7257 N 706.532 -0.168513 -1.56696 0
M  V30 7258 C 707.762 0.482802 -2.0088 0
M  V30 7259 C 708.17 1.57537 -1.0478 0
M  V30 7260 O 707.513 1.83656 -0.0402746 0
M  V30 7261 C 707.575 1.1236 -3.4149 0
M  V30 7262 C 707.239 0.173027 -4.56672 0
M  V30 7263 C 708.236 -0.607565 -5.16338 0
M  V30 7264 C 705.921 0.0696691 -5.02252 0
M  V30 7265 C 707.915 -1.47874 -6.2001 0
M  V30 7266 C 705.602 -0.805096 -6.05773 0
M  V30 7267 C 706.6 -1.57789 -6.64524 0
M  V30 7268 O 706.288 -2.43804 -7.66038 0
M  V30 7269 H 706.02 0.128246 -0.663723 0
M  V30 7270 H 708.574 -0.266532 -2.03663 0
M  V30 7271 H 706.804 1.921 -3.35611 0
M  V30 7272 H 708.493 1.67683 -3.69645 0
M  V30 7273 H 709.259 -0.53787 -4.82008 0
M  V30 7274 H 705.138 0.660957 -4.56237 0
M  V30 7275 H 708.682 -2.0824 -6.65794 0
M  V30 7276 H 704.579 -0.876005 -6.39528 0
M  V30 7277 H 705.347 -2.37289 -7.83349 0
M  V30 7278 N 708.01 1.57248 0.105221 0
M  V30 7279 C 708.94 2.04374 1.12931 0
M  V30 7280 C 709.921 0.93074 1.42377 0
M  V30 7281 O 711.106 1.20136 1.52581 0
M  V30 7282 C 708.236 2.45967 2.45189 0
M  V30 7283 C 707.19 3.60838 2.30174 0
M  V30 7284 C 706.516 3.88374 3.67518 0
M  V30 7285 C 707.816 4.92084 1.75073 0
M  V30 7286 H 709.51 2.9018 0.737287 0
M  V30 7287 H 707.056 1.39601 0.353211 0
M  V30 7288 H 709.009 2.77542 3.17094 0
M  V30 7289 H 707.733 1.57148 2.86308 0
M  V30 7290 H 706.392 3.29493 1.60716 0
M  V30 7291 H 706.04 2.96739 4.06147 0
M  V30 7292 H 705.74 4.65703 3.58321 0
M  V30 7293 H 707.264 4.22415 4.40906 0
M  V30 7294 H 708.678 5.22106 2.36809 0
M  V30 7295 H 707.075 5.73507 1.76662 0
M  V30 7296 H 708.145 4.79684 0.709347 0
M  V30 7297 N 709.488 -0.375779 1.53054 0
M  V30 7298 C 710.737 -1.11674 1.67964 0
M  V30 7299 C 711.05 -1.90755 0.432655 0
M  V30 7300 O 712.256 -2.67538 0.462109 0
M  V30 7301 C 710.712 -2.0344 2.96884 0
M  V30 7302 C 710.32 -1.29719 4.28809 0
M  V30 7303 C 712.064 -2.7759 3.2116 0
M  V30 7304 C 709.971 -2.20327 5.48826 0
M  V30 7305 H 708.901 -0.420597 0.625791 0
M  V30 7306 H 711.552 -0.378499 1.79554 0
M  V30 7307 H 709.934 -2.80953 2.79072 0
M  V30 7308 H 711.108 -0.573394 4.57219 0
M  V30 7309 H 709.423 -0.674735 4.10897 0
M  V30 7310 H 712.02 -3.4559 4.0801 0
M  V30 7311 H 712.363 -3.42399 2.36789 0
M  V30 7312 H 712.896 -2.07164 3.396 0
M  V30 7313 H 709.635 -1.60113 6.35645 0
M  V30 7314 H 709.155 -2.90585 5.2471 0
M  V30 7315 H 710.834 -2.80116 5.83219 0
M  V30 7316 N 710.966 -1.44241 -0.634997 0
M  V30 7317 C 712.191 -1.50516 -1.42687 0
M  V30 7318 C 712.616 -0.129864 -1.87651 0
M  V30 7319 O 711.974 0.880164 -1.58502 0
M  V30 7320 C 712.022 -2.4714 -2.62591 0
M  V30 7321 O 711.126 -1.97025 -3.62291 0
M  V30 7322 H 710.467 -0.50841 -0.427101 0
M  V30 7323 H 712.997 -1.89337 -0.775408 0
M  V30 7324 H 713.007 -2.65048 -3.10183 0
M  V30 7325 H 711.682 -3.47039 -2.29209 0
M  V30 7326 H 710.259 -1.88866 -3.21534 0
M  V30 7327 N 712.444 0.87505 -1.31075 0
M  V30 7328 C 713.376 1.98773 -1.14114 0
M  V30 7329 C 714.389 1.62595 -0.0816119 0
M  V30 7330 O 715.578 1.75449 -0.32861 0
M  V30 7331 C 712.678 3.31159 -0.720224 0
M  V30 7332 C 711.851 3.9571 -1.86366 0
M  V30 7333 C 710.91 5.06407 -1.42965 0
M  V30 7334 O 709.936 5.27501 -2.13848 0
M  V30 7335 N 711.138 5.79649 -0.314194 0
M  V30 7336 H 713.903 2.1387 -2.09951 0
M  V30 7337 H 711.464 1.04873 -1.23342 0
M  V30 7338 H 713.456 4.0259 -0.412687 0
M  V30 7339 H 712.026 3.12257 0.146396 0
M  V30 7340 H 711.246 3.17324 -2.33879 0
M  V30 7341 H 712.534 4.35576 -2.62966 0
M  V30 7342 H 711.932 5.65025 0.276228 0
M  V30 7343 H 710.489 6.51766 -0.0661641 0
M  V30 7344 N 713.922 1.13953 1.08869 0
M  V30 7345 C 714.885 0.824991 2.13838 0
M  V30 7346 C 715.885 -0.168198 1.59918 0
M  V30 7347 O 717.075 0.0595778 1.74098 0
M  V30 7348 C 714.207 0.228938 3.4013 0
M  V30 7349 H 715.4 1.75521 2.43171 0
M  V30 7350 H 712.953 0.94492 1.24503 0
M  V30 7351 H 713.688 -0.710227 3.16427 0
M  V30 7352 H 713.473 0.944243 3.80561 0
M  V30 7353 H 714.963 0.0259223 4.17592 0
M  V30 7354 N 715.4 -1.26948 0.933913 0
M  V30 7355 C 716.677 -1.89212 0.495784 0
M  V30 7356 C 717.057 -1.84469 -1.02637 0
M  V30 7357 O 716.405 -1.29409 -1.88323 0
M  V30 7358 C 716.615 -3.32865 1.0489 0
M  V30 7359 C 717.963 -4.09749 1.11315 0
M  V30 7360 O 718.987 -3.41905 0.998966 0
M  V30 7361 O 717.846 -5.31061 1.28983 0
M  V30 7362 H 714.94 -0.811284 0.160459 0
M  V30 7363 H 717.486 -1.35171 1.02601 0
M  V30 7364 H 716.258 -3.30642 2.09265 0
M  V30 7365 H 715.881 -3.94435 0.500692 0
M  V30 7366 N 716.879 -0.700114 -1.41195 0
M  V30 7367 C 718.126 -0.233006 -2.01155 0
M  V30 7368 C 718.454 1.16883 -1.55462 0
M  V30 7369 O 717.709 1.80395 -0.758695 0
M  V30 7370 C 718.008 -0.243986 -3.56566 0
M  V30 7371 C 717.674 -1.59397 -4.21786 0
M  V30 7372 C 716.336 -1.96355 -4.39316 0
M  V30 7373 C 718.688 -2.48192 -4.58312 0
M  V30 7374 C 716.016 -3.21683 -4.9065 0
M  V30 7375 C 718.368 -3.72857 -5.11039 0
M  V30 7376 C 717.032 -4.09951 -5.26779 0
M  V30 7377 H 716.302 -0.085263 -0.736078 0
M  V30 7378 H 718.949 -0.9001 -1.69028 0
M  V30 7379 H 717.254 0.506663 -3.8851 0
M  V30 7380 H 718.951 0.135031 -4.00773 0
M  V30 7381 H 715.541 -1.29654 -4.08519 0
M  V30 7382 H 719.725 -2.20918 -4.4442 0
M  V30 7383 H 714.981 -3.50412 -5.01021 0
M  V30 7384 H 719.155 -4.41844 -5.38282 0
M  V30 7385 H 716.782 -5.07136 -5.66319 0
M  V30 7386 N 718.357 1.51182 -0.445186 0
M  V30 7387 C 719.603 2.02452 0.11882 0
M  V30 7388 C 719.936 1.32824 1.41673 0
M  V30 7389 O 719.211 0.445637 1.89326 0
M  V30 7390 C 719.494 3.5859 0.329475 0
M  V30 7391 C 719.347 4.38823 -0.987638 0
M  V30 7392 C 720.666 4.26241 1.09575 0
M  V30 7393 H 717.785 0.735819 0.0417092 0
M  V30 7394 H 720.427 1.80747 -0.585718 0
M  V30 7395 H 718.577 3.77214 0.9296 0
M  V30 7396 H 720.249 4.3183 -1.62235 0
M  V30 7397 H 718.492 4.03594 -1.59041 0
M  V30 7398 H 719.163 5.46257 -0.794192 0
M  V30 7399 H 721.639 4.11934 0.587328 0
M  V30 7400 H 720.515 5.35354 1.21191 0
M  V30 7401 H 720.776 3.87635 2.12584 0
M  V30 7402 N 719.835 0.176821 1.56605 0
M  V30 7403 C 721.083 -0.465793 1.96659 0
M  V30 7404 C 721.404 -1.63406 1.06412 0
M  V30 7405 O 720.674 -1.95457 0.131603 0
M  V30 7406 H 719.254 -0.175072 0.726195 0
M  V30 7407 H 721.916 0.25929 1.93168 0
M  V30 7408 H 721.012 -0.822138 3.01077 0
M  V30 7409 N 721.313 -1.57302 -0.09688 0
M  V30 7410 C 722.553 -1.87823 -0.806334 0
M  V30 7411 C 722.917 -0.767593 -1.75989 0
M  V30 7412 O 724.118 -0.955173 -2.51257 0
M  V30 7413 C 722.389 -3.23585 -1.51749 0
M  V30 7414 S 723.948 -3.75795 -2.26547 0
M  V30 7415 H 720.766 -0.658281 -0.268676 0
M  V30 7416 H 723.368 -1.95397 -0.0635476 0
M  V30 7417 H 722.072 -4.0234 -0.809348 0
M  V30 7418 H 721.603 -3.19145 -2.30021 0
M  V30 7419 H 723.618 -3.49068 -3.52656 0
M  V30 7420 N 722.791 0.367657 -1.53252 0
M  V30 7421 C 723.741 1.45035 -1.75923 0
M  V30 7422 C 724.725 1.48736 -0.613719 0
M  V30 7423 O 725.917 1.54012 -0.872313 0
M  V30 7424 C 723.046 2.82493 -1.9507 0
M  V30 7425 C 722.132 2.83279 -3.15617 0
M  V30 7426 N 722.523 2.53712 -4.37566 0
M  V30 7427 C 720.821 3.1444 -3.16297 0
M  V30 7428 C 721.522 2.62123 -5.19294 0
M  V30 7429 N 720.498 2.96747 -4.55458 0
M  V30 7430 H 724.3 1.21035 -2.6782 0
M  V30 7431 H 721.814 0.575822 -1.51849 0
M  V30 7432 H 723.811 3.60473 -2.0944 0
M  V30 7433 H 722.471 3.07459 -1.044 0
M  V30 7434 H 723.482 2.27344 -4.65333 0
M  V30 7435 H 720.159 3.44733 -2.35511 0
M  V30 7436 H 721.549 2.42628 -6.26563 0
M  V30 7437 N 724.269 1.44576 0.627338 0
M  V30 7438 C 725.201 1.47724 1.75243 0
M  V30 7439 C 726.214 0.370193 1.58535 0
M  V30 7440 O 727.403 0.636151 1.66779 0
M  V30 7441 C 724.503 1.2991 3.13012 0
M  V30 7442 C 723.676 2.5393 3.56143 0
M  V30 7443 C 722.735 2.30961 4.72804 0
M  V30 7444 O 721.761 3.04469 4.80923 0
M  V30 7445 N 722.963 1.34261 5.6476 0
M  V30 7446 H 725.728 2.44718 1.73012 0
M  V30 7447 H 723.289 1.40064 0.812022 0
M  V30 7448 H 725.281 1.12385 3.88782 0
M  V30 7449 H 723.851 0.412668 3.09864 0
M  V30 7450 H 723.071 2.86707 2.70542 0
M  V30 7451 H 724.359 3.36411 3.81713 0
M  V30 7452 H 723.757 0.735573 5.60897 0
M  V30 7453 H 722.314 1.22713 6.40144 0
M  V30 7454 N 725.747 -0.868086 1.31537 0
M  V30 7455 C 726.677 -1.99131 1.21939 0
M  V30 7456 C 727.658 -1.69768 0.106166 0
M  V30 7457 O 728.843 -1.92006 0.291081 0
M  V30 7458 C 725.973 -3.34676 0.927879 0
M  V30 7459 C 724.927 -3.7835 2.00088 0
M  V30 7460 C 724.253 -5.11375 1.56203 0
M  V30 7461 C 725.553 -3.95256 3.41424 0
M  V30 7462 H 727.247 -2.07419 2.15911 0
M  V30 7463 H 724.793 -0.996569 1.03945 0
M  V30 7464 H 726.746 -4.12793 0.847327 0
M  V30 7465 H 725.47 -3.26565 -0.0475042 0
M  V30 7466 H 724.129 -3.02474 2.07135 0
M  V30 7467 H 723.777 -4.99709 0.57445 0
M  V30 7468 H 723.477 -5.41568 2.27985 0
M  V30 7469 H 725.001 -5.92001 1.49558 0
M  V30 7470 H 726.415 -4.63764 3.3704 0
M  V30 7471 H 724.812 -4.36849 4.1144 0
M  V30 7472 H 725.882 -2.98579 3.82072 0
M  V30 7473 N 727.225 -1.14528 -1.08264 0
M  V30 7474 C 728.157 -0.791325 -2.15106 0
M  V30 7475 C 729.17 0.192449 -1.61659 0
M  V30 7476 O 730.359 -0.0294704 -1.78476 0
M  V30 7477 C 727.459 -0.154183 -3.38549 0
M  V30 7478 C 726.632 -1.17305 -4.21377 0
M  V30 7479 C 725.691 -0.559401 -5.23218 0
M  V30 7480 O 724.717 -1.22277 -5.55911 0
M  V30 7481 N 725.919 0.663159 -5.767 0
M  V30 7482 H 728.684 -1.71076 -2.46075 0
M  V30 7483 H 726.245 -1.0399 -1.24087 0
M  V30 7484 H 728.237 0.268884 -4.03806 0
M  V30 7485 H 726.807 0.668418 -3.0537 0
M  V30 7486 H 726.027 -1.773 -3.52077 0
M  V30 7487 H 727.315 -1.86128 -4.73533 0
M  V30 7488 H 726.713 1.22066 -5.52373 0
M  V30 7489 H 725.27 1.02871 -6.43631 0
M  V30 7490 N 728.703 1.26451 -0.940633 0
M  V30 7491 C 729.95 1.93778 -0.587909 0
M  V30 7492 C 730.278 1.73811 0.872935 0
M  V30 7493 O 729.533 1.06816 1.63978 0
M  V30 7494 C 729.832 3.46503 -0.875794 0
M  V30 7495 C 729.498 3.86609 -2.32043 0
M  V30 7496 C 728.16 3.97269 -2.71534 0
M  V30 7497 C 730.512 4.0672 -3.25927 0
M  V30 7498 C 727.84 4.25436 -4.04006 0
M  V30 7499 C 730.192 4.36375 -4.57995 0
M  V30 7500 C 728.856 4.45249 -4.97302 0
M  V30 7501 H 728.126 0.709084 -0.215131 0
M  V30 7502 H 730.773 1.50272 -1.18704 0
M  V30 7503 H 729.078 3.91319 -0.194124 0
M  V30 7504 H 730.775 3.96759 -0.581665 0
M  V30 7505 H 727.365 3.78858 -2.00411 0
M  V30 7506 H 731.549 3.97912 -2.96614 0
M  V30 7507 H 726.805 4.30519 -4.34124 0
M  V30 7508 H 730.979 4.50882 -5.30734 0
M  V30 7509 H 728.606 4.66829 -5.99979 0
M  V30 7510 N 730.181 0.707592 1.40822 0
M  V30 7511 C 731.43 0.240705 2.00259 0
M  V30 7512 C 731.743 -1.17027 1.56729 0
M  V30 7513 O 732.949 -1.73526 2.08809 0
M  V30 7514 C 731.405 0.379432 3.57894 0
M  V30 7515 C 731.013 1.79654 4.104 0
M  V30 7516 C 732.757 -0.0270684 4.24491 0
M  V30 7517 C 730.664 1.88628 5.60512 0
M  V30 7518 H 729.594 0.0862369 0.749052 0
M  V30 7519 H 732.245 0.877528 1.61157 0
M  V30 7520 H 730.627 -0.325842 3.94657 0
M  V30 7521 H 731.801 2.53155 3.85032 0
M  V30 7522 H 730.116 2.15379 3.56372 0
M  V30 7523 H 732.713 0.0193743 5.34696 0
M  V30 7524 H 733.056 -1.06772 4.02375 0
M  V30 7525 H 733.589 0.628361 3.92806 0
M  V30 7526 H 730.328 2.90787 5.87472 0
M  V30 7527 H 729.848 1.19528 5.8777 0
M  V30 7528 H 731.527 1.6547 6.25483 0
M  V30 7529 N 731.66 -1.50943 0.453197 0
M  V30 7530 C 732.937 -1.94872 -0.168633 0
M  V30 7531 C 733.317 -1.39272 -1.5864 0
M  V30 7532 O 732.665 -0.586272 -2.20851 0
M  V30 7533 C 732.875 -3.48757 -0.130217 0
M  V30 7534 C 734.223 -4.23331 -0.327975 0
M  V30 7535 O 735.247 -3.55594 -0.207619 0
M  V30 7536 O 734.106 -5.43529 -0.569077 0
M  V30 7537 H 731.2 -0.818042 -0.121394 0
M  V30 7538 H 733.746 -1.61782 0.512316 0
M  V30 7539 H 732.518 -3.81725 0.860346 0
M  V30 7540 H 732.141 -3.88333 -0.853397 0
M  V30 7541 N 733.138 -0.185124 -1.56509 0
M  V30 7542 C 734.085 0.739729 -2.18624 0
M  V30 7543 C 735.055 1.217 -1.13042 0
M  V30 7544 O 736.24 1.28268 -1.41251 0
M  V30 7545 C 733.38 1.95787 -2.84186 0
M  V30 7546 C 732.493 1.52289 -4.04267 0
M  V30 7547 C 731.628 2.69576 -4.57714 0
M  V30 7548 C 730.667 2.22636 -5.70175 0
M  V30 7549 N 729.804 3.33065 -6.18071 0
M  V30 7550 H 734.644 0.203269 -2.97306 0
M  V30 7551 H 732.181 0.0885946 -1.46833 0
M  V30 7552 H 734.139 2.67253 -3.20361 0
M  V30 7553 H 732.769 2.4678 -2.08085 0
M  V30 7554 H 731.821 0.704458 -3.7382 0
M  V30 7555 H 733.133 1.13843 -4.85635 0
M  V30 7556 H 732.287 3.4918 -4.96143 0
M  V30 7557 H 731.026 3.1129 -3.75433 0
M  V30 7558 H 730.031 1.41483 -5.31284 0
M  V30 7559 H 731.256 1.81964 -6.54267 0
M  V30 7560 H 729.202 3.74328 -5.38715 0
M  V30 7561 H 729.119 2.98756 -6.94464 0
M  V30 7562 H 730.387 4.12912 -6.61153 0
M  V30 7563 N 734.616 1.57351 0.0885366 0
M  V30 7564 C 735.846 1.90355 0.80303 0
M  V30 7565 C 736.254 0.777678 1.72478 0
M  V30 7566 O 735.597 -0.258908 1.81866 0
M  V30 7567 C 735.659 3.18674 1.66395 0
M  V30 7568 C 735.323 4.4778 0.913327 0
M  V30 7569 C 736.32 5.19345 0.240148 0
M  V30 7570 C 734.005 4.94434 0.885462 0
M  V30 7571 C 735.999 6.35803 -0.450854 0
M  V30 7572 C 733.686 6.10802 0.190679 0
M  V30 7573 C 734.684 6.81337 -0.476295 0
M  V30 7574 O 734.372 7.95488 -1.15992 0
M  V30 7575 H 734.104 0.634035 0.234469 0
M  V30 7576 H 736.658 2.05287 0.0681959 0
M  V30 7577 H 734.888 2.99906 2.44117 0
M  V30 7578 H 736.577 3.37458 2.2556 0
M  V30 7579 H 737.343 4.84339 0.253092 0
M  V30 7580 H 733.222 4.39417 1.39406 0
M  V30 7581 H 736.766 6.90795 -0.972019 0
M  V30 7582 H 732.663 6.45261 0.175603 0
M  V30 7583 H 733.431 8.11509 -1.06749 0
M  V30 7584 N 736.094 -0.359525 1.53444 0
M  V30 7585 C 737.026 -1.46098 1.76602 0
M  V30 7586 C 738.039 -1.49395 0.646912 0
M  V30 7587 O 739.228 -1.52765 0.923307 0
M  V30 7588 C 736.328 -2.84836 1.83635 0
M  V30 7589 C 735.501 -3.05164 3.13358 0
M  V30 7590 C 734.56 -4.24051 3.11556 0
M  V30 7591 O 733.586 -4.18935 3.85334 0
M  V30 7592 N 734.788 -5.31775 2.328 0
M  V30 7593 H 737.553 -1.2661 2.71643 0
M  V30 7594 H 735.114 -0.549294 1.52297 0
M  V30 7595 H 737.106 -3.62516 1.799 0
M  V30 7596 H 735.676 -2.97542 0.958509 0
M  V30 7597 H 734.896 -2.15091 3.30348 0
M  V30 7598 H 736.184 -3.15619 3.99076 0
M  V30 7599 H 735.582 -5.38796 1.7238 0
M  V30 7600 H 734.139 -6.0801 2.34877 0
M  V30 7601 N 737.572 -1.44907 -0.619662 0
M  V30 7602 C 738.505 -1.47133 -1.74434 0
M  V30 7603 C 739.483 -0.328933 -1.59238 0
M  V30 7604 O 740.667 -0.527632 -1.80965 0
M  V30 7605 C 737.794 -1.31491 -3.12134 0
M  V30 7606 C 736.84 -2.49441 -3.4595 0
M  V30 7607 S 737.673 -4.11945 -3.42142 0
M  V30 7608 C 738.829 -3.98747 -4.82443 0
M  V30 7609 H 739.062 -2.42295 -1.7228 0
M  V30 7610 H 736.595 -1.32343 -0.795276 0
M  V30 7611 H 738.553 -1.23153 -3.91591 0
M  V30 7612 H 737.214 -0.378203 -3.11815 0
M  V30 7613 H 736.407 -2.3439 -4.46181 0
M  V30 7614 H 736.009 -2.54577 -2.73982 0
M  V30 7615 H 738.301 -3.63145 -5.71954 0
M  V30 7616 H 739.244 -4.98848 -5.0255 0
M  V30 7617 H 739.652 -3.30608 -4.57557 0
M  V30 7618 N 739.05 0.861098 -1.31996 0
M  V30 7619 C 740.013 1.95068 -1.20338 0
M  V30 7620 C 741.013 1.60289 -0.128114 0
M  V30 7621 O 742.203 1.70048 -0.378044 0
M  V30 7622 C 739.335 3.30153 -0.849205 0
M  V30 7623 H 740.528 2.06833 -2.17164 0
M  V30 7624 H 738.081 1.05049 -1.15734 0
M  V30 7625 H 738.816 3.24087 0.117508 0
M  V30 7626 H 738.601 3.56771 -1.62655 0
M  V30 7627 H 740.091 4.10025 -0.791782 0
M  V30 7628 N 740.528 1.15101 1.07655 0
M  V30 7629 C 741.438 0.858869 2.18313 0
M  V30 7630 C 742.454 -0.163641 1.73229 0
M  V30 7631 O 743.63 0.00969541 2.01398 0
M  V30 7632 C 740.695 0.34893 3.4494 0
M  V30 7633 C 739.756 1.43495 4.04608 0
M  V30 7634 C 738.989 0.949253 5.2519 0
M  V30 7635 O 739.212 -0.20636 5.70027 0
M  V30 7636 O 738.146 1.73161 5.76454 0
M  V30 7637 H 741.972 1.78386 2.45788 0
M  V30 7638 H 739.557 0.929876 1.16934 0
M  V30 7639 H 741.439 0.070851 4.2134 0
M  V30 7640 H 740.114 -0.548237 3.19024 0
M  V30 7641 H 739.021 1.7666 3.29761 0
M  V30 7642 H 740.354 2.30692 4.3479 0
M  V30 7643 N 742.006 -1.2595 0.947325 0
M  V30 7644 C 743.422 -1.45737 0.650597 0
M  V30 7645 C 743.622 -1.85189 -0.794188 0
M  V30 7646 O 742.678 -1.97738 -1.57022 0
M  V30 7647 C 743.991 -2.53505 1.61728 0
M  V30 7648 C 745.539 -2.67351 1.62765 0
M  V30 7649 C 746.014 -3.78296 2.58179 0
M  V30 7650 N 747.505 -3.85696 2.56501 0
M  V30 7651 C 748.24 -4.71012 3.2701 0
M  V30 7652 N 747.736 -5.60669 4.06966 0
M  V30 7653 N 749.529 -4.64912 3.15932 0
M  V30 7654 H 741.68 -0.986327 1.8811 0
M  V30 7655 H 743.943 -0.494639 0.808725 0
M  V30 7656 H 743.649 -2.31357 2.6489 0
M  V30 7657 H 743.523 -3.51281 1.3741 0
M  V30 7658 H 745.91 -2.88869 0.603241 0
M  V30 7659 H 745.991 -1.69998 1.91139 0
M  V30 7660 H 745.635 -3.5753 3.60742 0
M  V30 7661 H 745.565 -4.75117 2.27093 0
M  V30 7662 H 748.056 -3.21601 1.98447 0
M  V30 7663 H 748.369 -6.22677 4.57704 0
M  V30 7664 H 746.714 -5.60402 4.11066 0
M  V30 7665 H 749.905 -3.93874 2.52945 0
M  V30 7666 H 750.078 -5.3118 3.71149 0
M  V30 7667 N 743.484 -0.715051 -1.40445 0
M  V30 7668 C 744.414 -0.0768699 -2.33373 0
M  V30 7669 C 745.395 0.746109 -1.52863 0
M  V30 7670 O 746.58 0.695142 -1.81332 0
M  V30 7671 C 743.71 0.846014 -3.36838 0
M  V30 7672 C 742.664 0.128694 -4.27806 0
M  V30 7673 C 741.99 1.16726 -5.21804 0
M  V30 7674 C 743.29 -1.01679 -5.12307 0
M  V30 7675 H 744.984 -0.853061 -2.8699 0
M  V30 7676 H 742.53 -0.41167 -1.3799 0
M  V30 7677 H 744.483 1.30185 -4.00786 0
M  V30 7678 H 743.207 1.6541 -2.81615 0
M  V30 7679 H 741.866 -0.307314 -3.6531 0
M  V30 7680 H 741.514 1.96838 -4.62887 0
M  V30 7681 H 741.214 0.692188 -5.83509 0
M  V30 7682 H 742.738 1.62321 -5.88629 0
M  V30 7683 H 744.152 -0.640337 -5.69713 0
M  V30 7684 H 742.549 -1.4202 -5.83053 0
M  V30 7685 H 743.619 -1.84769 -4.48317 0
M  V30 7686 N 744.962 1.50701 -0.461195 0
M  V30 7687 C 745.909 2.2831 0.338094 0
M  V30 7688 C 746.879 1.32928 0.995957 0
M  V30 7689 O 748.064 1.61857 1.0103 0
M  V30 7690 C 745.204 3.14539 1.41983 0
M  V30 7691 C 744.317 4.24942 0.77773 0
M  V30 7692 C 743.452 4.98443 1.83652 0
M  V30 7693 C 742.491 6.00733 1.17413 0
M  V30 7694 N 741.628 6.6755 2.17533 0
M  V30 7695 H 746.468 2.96167 -0.330051 0
M  V30 7696 H 744.005 1.4606 -0.174611 0
M  V30 7697 H 745.963 3.62877 2.05855 0
M  V30 7698 H 744.593 2.48749 2.05727 0
M  V30 7699 H 743.645 3.80391 0.0266924 0
M  V30 7700 H 744.957 4.98151 0.254362 0
M  V30 7701 H 744.111 5.50449 2.55129 0
M  V30 7702 H 742.85 4.24917 2.39367 0
M  V30 7703 H 741.855 5.47997 0.444944 0
M  V30 7704 H 743.08 6.76227 0.624006 0
M  V30 7705 H 741.026 5.96823 2.72284 0
M  V30 7706 H 740.943 7.36603 1.70154 0
M  V30 7707 H 742.211 7.24178 2.88421 0
M  V30 7708 N 746.441 0.193421 1.56409 0
M  V30 7709 C 747.852 -0.319471 1.83946 0
M  V30 7710 C 748.203 -1.61505 1.11403 0
M  V30 7711 O 747.328 -2.13139 0.374289 0
M  V30 7712 C 747.923 -0.586411 3.33686 0
M  V30 7713 C 746.482 -1.04368 3.61641 0
M  V30 7714 C 745.629 -0.0913834 2.77149 0
M  V30 7715 H 748.58 0.417242 1.53117 0
M  V30 7716 H 748.601 -1.43591 3.52366 0
M  V30 7717 H 748.113 0.356701 3.86457 0
M  V30 7718 H 746.214 -2.00113 3.14302 0
M  V30 7719 H 746.327 -0.937549 4.69837 0
M  V30 7720 H 744.691 -0.592954 2.47702 0
M  V30 7721 H 745.474 0.846142 3.32709 0
M  V30 7722 N 747.919 -1.57396 -0.0801906 0
M  V30 7723 C 749.167 -1.86467 -0.779384 0
M  V30 7724 C 749.488 -0.784243 -1.78535 0
M  V30 7725 O 748.758 0.187986 -1.94996 0
M  V30 7726 H 747.338 -0.68806 -0.29083 0
M  V30 7727 H 750 -1.94813 -0.0582749 0
M  V30 7728 H 749.096 -2.83701 -1.30078 0
M  V30 7729 N 749.397 0.351382 -1.53633 0
M  V30 7730 C 750.645 1.09034 -1.70165 0
M  V30 7731 C 750.966 1.89413 -0.463422 0
M  V30 7732 O 750.236 1.888 0.522624 0
M  V30 7733 H 748.816 0.405522 -0.627344 0
M  V30 7734 H 751.478 0.394554 -1.90865 0
M  V30 7735 H 750.574 1.77215 -2.56907 0
M  V30 7736 N 750.875 1.45233 0.611969 0
M  V30 7737 C 752.124 1.48296 1.36716 0
M  V30 7738 C 752.437 0.12706 1.95187 0
M  V30 7739 O 753.643 0.0353066 2.71477 0
M  V30 7740 C 752.099 2.61168 2.47627 0
M  V30 7741 C 751.707 4.03051 1.95587 0
M  V30 7742 C 753.451 2.73472 3.24674 0
M  V30 7743 C 751.358 5.07312 3.03954 0
M  V30 7744 H 750.288 0.5518 0.513841 0
M  V30 7745 H 752.939 1.7136 0.656359 0
M  V30 7746 H 751.321 2.31379 3.21372 0
M  V30 7747 H 752.495 4.42497 1.2858 0
M  V30 7748 H 750.81 3.95158 1.31298 0
M  V30 7749 H 753.407 3.48537 4.05494 0
M  V30 7750 H 753.75 1.79953 3.75397 0
M  V30 7751 H 754.283 3.02765 2.58028 0
M  V30 7752 H 751.022 6.02525 2.58154 0
M  V30 7753 H 750.542 4.7244 3.69541 0
M  V30 7754 H 752.221 5.31867 3.6841 0
M  V30 7755 N 752.353 -0.854086 1.3245 0
M  V30 7756 C 753.6 -1.60831 1.23043 0
M  V30 7757 C 753.928 -1.93389 -0.2076 0
M  V30 7758 O 753.183 -1.5756 -1.16075 0
M  V30 7759 C 753.482 -2.93746 2.03587 0
M  V30 7760 C 753.148 -2.80615 3.52939 0
M  V30 7761 C 751.81 -2.76742 3.93659 0
M  V30 7762 C 754.162 -2.66507 4.4791 0
M  V30 7763 C 751.49 -2.56638 5.27592 0
M  V30 7764 C 753.842 -2.47939 5.81987 0
M  V30 7765 C 752.506 -2.42458 6.21909 0
M  V30 7766 H 751.776 -0.588523 0.450247 0
M  V30 7767 H 754.423 -0.990699 1.63882 0
M  V30 7768 H 752.728 -3.5963 1.55478 0
M  V30 7769 H 754.425 -3.51127 1.93677 0
M  V30 7770 H 751.015 -2.84456 3.20598 0
M  V30 7771 H 755.199 -2.68544 4.1737 0
M  V30 7772 H 750.455 -2.50831 5.57579 0
M  V30 7773 H 754.629 -2.36002 6.55192 0
M  V30 7774 H 752.256 -2.2664 7.2563 0
M  V30 7775 N 753.831 -1.1567 -1.07043 0
M  V30 7776 C 754.761 -0.879348 -2.16309 0
M  V30 7777 C 755.742 0.171311 -1.69235 0
M  V30 7778 O 756.927 0.0250175 -1.94184 0
M  V30 7779 C 754.057 -0.371307 -3.45309 0
M  V30 7780 C 753.011 -1.359 -4.05851 0
M  V30 7781 C 752.337 -0.709678 -5.29969 0
M  V30 7782 C 753.637 -2.72606 -4.45514 0
M  V30 7783 H 755.331 -1.79308 -2.39768 0
M  V30 7784 H 752.877 -0.863558 -1.15233 0
M  V30 7785 H 754.83 -0.164798 -4.21078 0
M  V30 7786 H 753.554 0.577906 -3.21446 0
M  V30 7787 H 752.213 -1.55193 -3.32131 0
M  V30 7788 H 751.861 0.245782 -5.02399 0
M  V30 7789 H 751.561 -1.36886 -5.71433 0
M  V30 7790 H 753.085 -0.513015 -6.08441 0
M  V30 7791 H 754.499 -2.57141 -5.12398 0
M  V30 7792 H 752.896 -3.34927 -4.97939 0
M  V30 7793 H 753.966 -3.28434 -3.56734 0
M  V30 7794 N 755.309 1.25446 -0.953992 0
M  V30 7795 C 756.239 2.28264 -0.491717 0
M  V30 7796 C 757.22 1.63717 0.461617 0
M  V30 7797 O 758.405 1.90821 0.36071 0
M  V30 7798 C 755.535 3.46525 0.231915 0
M  V30 7799 C 754.489 4.23247 -0.636098 0
M  V30 7800 C 753.815 5.34254 0.218238 0
M  V30 7801 C 755.115 4.85971 -1.91389 0
M  V30 7802 H 756.809 2.67183 -1.35106 0
M  V30 7803 H 754.355 1.2844 -0.651095 0
M  V30 7804 H 756.308 4.17576 0.566439 0
M  V30 7805 H 755.032 3.06594 1.12551 0
M  V30 7806 H 753.691 3.53978 -0.953696 0
M  V30 7807 H 753.339 4.90564 1.11156 0
M  V30 7808 H 753.039 5.86501 -0.359232 0
M  V30 7809 H 754.563 6.08138 0.547743 0
M  V30 7810 H 755.977 5.49168 -1.64581 0
M  V30 7811 H 754.374 5.48391 -2.43696 0
M  V30 7812 H 755.444 4.08192 -2.61738 0
M  V30 7813 N 756.787 0.722489 1.40064 0
M  V30 7814 C 757.735 0.063329 2.32514 0
M  V30 7815 C 758.729 -0.73953 1.52405 0
M  V30 7816 O 759.935 -0.642122 1.68157 0
M  V30 7817 H 756.31 0.00167692 0.751998 0
M  V30 7818 H 758.281 0.859656 2.85749 0
M  V30 7819 C 757.03 -0.839219 3.3742 0
M  V30 7820 H 756.353 -0.230836 3.99133 0
M  V30 7821 H 757.793 -1.26827 4.04587 0
M  V30 7822 C 756.252 -1.96783 2.73456 0
M  V30 7823 O 756.782 -3.05933 2.60323 0
M  V30 7824 N 754.988 -1.75351 2.31734 0
M  V30 7825 H 754.535 -0.865787 2.42615 0
M  V30 7826 H 754.493 -2.51043 1.89275 0
M  V30 7827 N 758.265 -1.50454 0.469181 0
M  V30 7828 C 759.493 -2.06729 -0.0842134 0
M  V30 7829 C 759.908 -1.33326 -1.33677 0
M  V30 7830 O 759.265 -0.401977 -1.78018 0
M  V30 7831 C 759.316 -3.59557 -0.374253 0
M  V30 7832 O 759.037 -4.30192 0.828622 0
M  V30 7833 C 760.538 -4.32449 -0.974824 0
M  V30 7834 H 757.758 -0.670971 0.006231 0
M  V30 7835 H 760.302 -1.93645 0.657415 0
M  V30 7836 H 758.457 -3.7245 -1.06581 0
M  V30 7837 H 758.871 -5.21371 0.572066 0
M  V30 7838 H 760.345 -5.40361 -1.12755 0
M  V30 7839 H 760.822 -3.92819 -1.96442 0
M  V30 7840 H 761.428 -4.24082 -0.321703 0
M  V30 7841 N 759.743 -0.201713 -1.56304 0
M  V30 7842 C 761.154 0.309711 -1.84113 0
M  V30 7843 C 761.505 1.60912 -1.12258 0
M  V30 7844 O 760.63 2.12937 -0.385587 0
M  V30 7845 C 761.225 0.568706 -3.33993 0
M  V30 7846 C 759.784 1.02448 -3.6219 0
M  V30 7847 C 758.931 0.0766842 -2.77194 0
M  V30 7848 H 761.882 -0.425356 -1.52893 0
M  V30 7849 H 761.903 1.41721 -3.53122 0
M  V30 7850 H 761.415 -0.37719 -3.86263 0
M  V30 7851 H 759.516 1.98443 -3.15359 0
M  V30 7852 H 759.629 0.912619 -4.70328 0
M  V30 7853 H 757.993 0.579809 -2.48013 0
M  V30 7854 H 758.776 -0.863774 -3.32256 0
M  V30 7855 N 761.222 1.57436 0.0718424 0
M  V30 7856 C 762.452 1.91196 0.782795 0
M  V30 7857 C 762.86 0.795927 1.71644 0
M  V30 7858 O 762.203 -0.239604 1.82131 0
M  V30 7859 C 762.265 3.20421 1.63005 0
M  V30 7860 C 761.929 4.48724 0.865782 0
M  V30 7861 C 762.926 5.19571 0.185051 0
M  V30 7862 C 760.611 4.95345 0.832971 0
M  V30 7863 C 762.605 6.3529 -0.518264 0
M  V30 7864 C 760.292 6.1097 0.125884 0
M  V30 7865 C 761.29 6.80794 -0.548533 0
M  V30 7866 O 760.978 7.94213 -1.24423 0
M  V30 7867 H 760.71 0.636486 0.227731 0
M  V30 7868 H 763.264 2.05348 0.0464187 0
M  V30 7869 H 761.494 3.02478 2.40923 0
M  V30 7870 H 763.183 3.39831 2.21968 0
M  V30 7871 H 763.949 4.8458 0.201707 0
M  V30 7872 H 759.828 4.40871 1.34737 0
M  V30 7873 H 763.372 6.89725 -1.04523 0
M  V30 7874 H 759.269 6.45411 0.107155 0
M  V30 7875 H 760.037 8.10331 -1.1535 0
M  V30 7876 N 762.7 -0.34323 1.53817 0
M  V30 7877 C 763.925 -1.1079 1.75329 0
M  V30 7878 C 764.35 -1.81571 0.491293 0
M  V30 7879 O 763.708 -1.72561 -0.556089 0
M  V30 7880 C 763.756 -2.09681 2.9337 0
M  V30 7881 O 762.86 -3.17207 2.63541 0
M  V30 7882 H 762.201 -0.320402 0.581583 0
M  V30 7883 H 764.731 -0.393525 2.0078 0
M  V30 7884 H 764.741 -2.52897 3.20168 0
M  V30 7885 H 763.416 -1.5756 3.84899 0
M  V30 7886 H 761.993 -2.78806 2.47632 0
M  V30 7887 N 764.178 -1.45556 -0.604258 0
M  V30 7888 C 765.141 -1.54091 -1.69672 0
M  V30 7889 C 766.141 -0.420076 -1.55216 0
M  V30 7890 O 767.331 -0.683671 -1.60224 0
M  V30 7891 C 764.463 -1.44063 -3.08964 0
M  V30 7892 H 765.656 -2.51431 -1.6347 0
M  V30 7893 H 763.209 -1.33046 -0.820273 0
M  V30 7894 H 763.944 -0.479201 -3.2074 0
M  V30 7895 H 763.729 -2.25362 -3.20865 0
M  V30 7896 H 765.219 -1.53075 -3.88533 0
M  V30 7897 N 765.656 0.84705 -1.32902 0
M  V30 7898 C 766.933 1.58583 -1.14503 0
M  V30 7899 C 767.313 2.09075 0.291724 0
M  V30 7900 O 766.661 1.88636 1.28952 0
M  V30 7901 C 766.871 2.72605 -2.17916 0
M  V30 7902 C 768.219 3.41993 -2.51646 0
M  V30 7903 O 769.243 2.82838 -2.1652 0
M  V30 7904 O 768.102 4.48761 -3.1189 0
M  V30 7905 H 765.196 0.698756 -0.442345 0
M  V30 7906 H 767.742 0.890516 -1.44457 0
M  V30 7907 H 766.514 2.32876 -3.14459 0
M  V30 7908 H 766.137 3.49807 -1.89 0
M  V30 7909 N 767.134 1.16236 1.06428 0
M  V30 7910 C 768.044 0.881976 2.1739 0
M  V30 7911 C 769.06 -0.145259 1.73393 0
M  V30 7912 O 770.236 0.0310558 2.01376 0
M  V30 7913 C 767.301 0.385496 3.4455 0
M  V30 7914 C 766.362 1.47779 4.03063 0
M  V30 7915 C 765.595 1.0049 5.24154 0
M  V30 7916 O 765.818 -0.145889 5.70213 0
M  V30 7917 O 764.752 1.79265 5.74585 0
M  V30 7918 H 768.578 1.80983 2.43883 0
M  V30 7919 H 766.163 0.942226 1.15942 0
M  V30 7920 H 768.045 0.115536 4.21242 0
M  V30 7921 H 766.72 -0.514369 3.19587 0
M  V30 7922 H 765.627 1.80147 3.27869 0
M  V30 7923 H 766.96 2.35291 4.32318 0
M  V30 7924 N 768.612 -1.24939 0.960631 0
M  V30 7925 C 769.858 -1.93104 0.61958 0
M  V30 7926 C 770.191 -1.74991 -0.84212 0
M  V30 7927 O 769.466 -1.09867 -1.60498 0
M  V30 7928 C 769.749 -3.46326 0.986422 0
M  V30 7929 C 769.602 -3.73638 2.50429 0
M  V30 7930 C 770.921 -4.37067 0.515827 0
M  V30 7931 H 768.04 -0.701311 0.226566 0
M  V30 7932 H 770.682 -1.47442 1.19836 0
M  V30 7933 H 768.832 -3.85348 0.493907 0
M  V30 7934 H 770.504 -3.44217 3.07103 0
M  V30 7935 H 768.747 -3.19035 2.93937 0
M  V30 7936 H 769.418 -4.80815 2.71147 0
M  V30 7937 H 771.894 -4.05381 0.938389 0
M  V30 7938 H 770.77 -5.43022 0.80114 0
M  V30 7939 H 771.031 -4.38224 -0.584171 0
M  V30 7940 N 770.09 -0.729906 -1.39679 0
M  V30 7941 C 771.336 -0.284905 -2.01395 0
M  V30 7942 C 771.691 1.11394 -1.56873 0
M  V30 7943 O 770.984 1.74765 -0.785342 0
M  V30 7944 C 771.178 -0.319564 -3.55968 0
M  V30 7945 C 771.007 -1.72024 -4.15497 0
M  V30 7946 C 769.777 -2.33128 -4.48307 0
M  V30 7947 C 771.975 -2.67296 -4.39383 0
M  V30 7948 N 769.957 -3.65403 -4.93309 0
M  V30 7949 C 771.328 -3.84298 -4.86534 0
M  V30 7950 C 773.383 -2.65124 -4.21442 0
M  V30 7951 C 772.086 -4.99455 -5.17627 0
M  V30 7952 C 774.112 -3.7942 -4.53646 0
M  V30 7953 C 773.474 -4.95156 -5.00999 0
M  V30 7954 H 769.573 -0.1504 -0.767401 0
M  V30 7955 H 772.157 -0.954783 -1.69682 0
M  V30 7956 H 770.328 0.319938 -3.8708 0
M  V30 7957 H 772.06 0.143504 -4.04445 0
M  V30 7958 H 768.815 -1.85097 -4.35931 0
M  V30 7959 H 769.239 -4.33298 -5.20175 0
M  V30 7960 H 773.881 -1.76842 -3.8404 0
M  V30 7961 H 771.599 -5.88371 -5.53937 0
M  V30 7962 H 775.185 -3.79031 -4.41392 0
M  V30 7963 H 774.065 -5.82131 -5.25446 0
M  V30 7964 N 771.568 1.50203 -0.477153 0
M  V30 7965 C 772.793 2.07263 0.0754986 0
M  V30 7966 C 773.218 1.33801 1.32208 0
M  V30 7967 O 772.576 0.387482 1.77111 0
M  V30 7968 C 772.624 3.59028 0.336348 0
M  V30 7969 O 771.728 3.87339 1.4157 0
M  V30 7970 H 771.069 0.663815 -0.015662 0
M  V30 7971 H 773.599 1.93321 -0.669936 0
M  V30 7972 H 773.609 4.03927 0.575034 0
M  V30 7973 H 772.284 4.11912 -0.574551 0
M  V30 7974 H 770.861 3.54272 1.16385 0
M  V30 7975 N 773.046 0.209999 1.56195 0
M  V30 7976 C 774.462 -0.145598 1.58934 0
M  V30 7977 C 774.662 -1.59868 1.22656 0
M  V30 7978 O 773.718 -2.33689 0.956336 0
M  V30 7979 C 775.031 0.170243 3.00218 0
M  V30 7980 C 776.579 0.111548 3.12801 0
M  V30 7981 C 777.054 0.400904 4.56242 0
M  V30 7982 N 778.545 0.350058 4.61875 0
M  V30 7983 C 779.28 0.547598 5.70779 0
M  V30 7984 N 778.776 0.806291 6.88092 0
M  V30 7985 N 780.569 0.480827 5.6004 0
M  V30 7986 H 772.72 1.15804 1.78054 0
M  V30 7987 H 774.983 0.463326 0.827063 0
M  V30 7988 H 774.689 1.17833 3.31373 0
M  V30 7989 H 774.563 -0.520208 3.73596 0
M  V30 7990 H 776.95 -0.887162 2.81449 0
M  V30 7991 H 777.031 0.835302 2.41777 0
M  V30 7992 H 776.675 1.397 4.8831 0
M  V30 7993 H 776.605 -0.34391 5.25476 0
M  V30 7994 H 779.096 0.157334 3.77572 0
M  V30 7995 H 779.409 0.945433 7.66995 0
M  V30 7996 H 777.754 0.843355 6.89864 0
M  V30 7997 H 780.945 0.279037 4.67268 0
M  V30 7998 H 781.118 0.638189 6.4485 0
M  V30 7999 N 774.524 -1.57472 -0.0634922 0
M  V30 8000 C 775.454 -2.07297 -1.07473 0
M  V30 8001 C 776.435 -0.968162 -1.39859 0
M  V30 8002 O 777.62 -1.24139 -1.49343 0
M  V30 8003 C 774.75 -2.52381 -2.38581 0
M  V30 8004 C 773.704 -3.66813 -2.20526 0
M  V30 8005 C 773.03 -3.97982 -3.57092 0
M  V30 8006 C 774.33 -4.96553 -1.61965 0
M  V30 8007 H 776.024 -2.92033 -0.660092 0
M  V30 8008 H 773.57 -1.40488 -0.316074 0
M  V30 8009 H 775.523 -2.85852 -3.09624 0
M  V30 8010 H 774.247 -1.64684 -2.8204 0
M  V30 8011 H 772.906 -3.33639 -1.51924 0
M  V30 8012 H 772.554 -3.07403 -3.98136 0
M  V30 8013 H 772.254 -4.7504 -3.45848 0
M  V30 8014 H 773.778 -4.33956 -4.29552 0
M  V30 8015 H 775.192 -5.28201 -2.22883 0
M  V30 8016 H 773.589 -5.7799 -1.61394 0
M  V30 8017 H 774.659 -4.81396 -0.581918 0
M  V30 8018 N 776.003 0.335068 -1.53997 0
M  V30 8019 C 777.414 0.910191 -1.6301 0
M  V30 8020 C 777.765 1.89271 -0.516809 0
M  V30 8021 O 776.89 2.13516 0.352123 0
M  V30 8022 C 777.485 1.65761 -2.9548 0
M  V30 8023 C 776.044 2.18163 -3.06728 0
M  V30 8024 C 775.191 1.00338 -2.5851 0
M  V30 8025 H 778.142 0.112965 -1.58297 0
M  V30 8026 H 778.163 2.52107 -2.84995 0
M  V30 8027 H 777.675 0.94227 -3.76488 0
M  V30 8028 H 775.776 2.92847 -2.30372 0
M  V30 8029 H 775.889 2.43952 -4.1234 0
M  V30 8030 H 774.253 1.37925 -2.14124 0
M  V30 8031 H 775.036 0.30254 -3.41964 0
M  V30 8032 N 777.481 1.45874 0.596531 0
M  V30 8033 C 778.413 1.51408 1.7207 0
M  V30 8034 C 779.426 0.403738 1.57714 0
M  V30 8035 O 780.615 0.671384 1.65393 0
M  V30 8036 C 777.715 1.3652 3.10186 0
M  V30 8037 C 776.888 2.61428 3.50677 0
M  V30 8038 C 775.947 2.40937 4.67799 0
M  V30 8039 O 774.973 3.14602 4.74357 0
M  V30 8040 N 776.175 1.4621 5.61785 0
M  V30 8041 H 778.94 2.48333 1.67782 0
M  V30 8042 H 776.501 1.41755 0.782129 0
M  V30 8043 H 778.493 1.20606 3.86311 0
M  V30 8044 H 777.063 0.478302 3.08919 0
M  V30 8045 H 776.283 2.92381 2.644 0
M  V30 8046 H 777.571 3.44432 3.74491 0
M  V30 8047 H 776.969 0.854382 5.59211 0
M  V30 8048 H 775.526 1.36264 6.37397 0
M  V30 8049 N 778.959 -0.83999 1.33349 0
M  V30 8050 C 779.869 -1.98182 1.25543 0
M  V30 8051 C 780.885 -1.73204 0.166208 0
M  V30 8052 O 782.061 -1.97596 0.389589 0
M  V30 8053 C 779.126 -3.32157 0.993614 0
M  V30 8054 C 778.187 -3.70258 2.17273 0
M  V30 8055 C 777.42 -4.9784 1.92331 0
M  V30 8056 O 777.643 -5.63679 0.873074 0
M  V30 8057 O 776.577 -5.33418 2.78835 0
M  V30 8058 H 780.403 -2.07708 2.21565 0
M  V30 8059 H 777.988 -0.972852 1.13384 0
M  V30 8060 H 779.87 -4.12433 0.864711 0
M  V30 8061 H 778.545 -3.23637 0.0636596 0
M  V30 8062 H 777.452 -2.90497 2.35716 0
M  V30 8063 H 778.785 -3.83442 3.08598 0
M  V30 8064 N 780.437 -1.16799 -1.0581 0
M  V30 8065 C 781.683 -0.953935 -1.78963 0
M  V30 8066 C 782.016 0.516638 -1.87202 0
M  V30 8067 O 781.291 1.38338 -1.36721 0
M  V30 8068 C 781.574 -1.58808 -3.23191 0
M  V30 8069 C 781.427 -3.13032 -3.23003 0
M  V30 8070 C 782.746 -1.2868 -4.20867 0
M  V30 8071 H 779.865 -0.347972 -0.64968 0
M  V30 8072 H 782.507 -1.44204 -1.23715 0
M  V30 8073 H 780.657 -1.17303 -3.70368 0
M  V30 8074 H 782.329 -3.63553 -2.83949 0
M  V30 8075 H 780.572 -3.46108 -2.61518 0
M  V30 8076 H 781.243 -3.52527 -4.24769 0
M  V30 8077 H 783.719 -1.6461 -3.82155 0
M  V30 8078 H 782.595 -1.75645 -5.20038 0
M  V30 8079 H 782.856 -0.206491 -4.41618 0
M  V30 8080 N 781.915 1.24427 -0.967243 0
M  V30 8081 C 782.847 2.24641 -0.454856 0
M  V30 8082 C 783.86 1.56849 0.436152 0
M  V30 8083 O 785.049 1.76846 0.242401 0
M  V30 8084 C 782.149 3.36954 0.362672 0
M  V30 8085 C 781.322 4.34318 -0.518324 0
M  V30 8086 C 780.381 5.25638 0.243122 0
M  V30 8087 O 779.407 5.68043 -0.362791 0
M  V30 8088 N 780.609 5.59897 1.53282 0
M  V30 8089 H 783.374 2.69238 -1.31648 0
M  V30 8090 H 780.935 1.38464 -0.839015 0
M  V30 8091 H 782.927 3.95014 0.880094 0
M  V30 8092 H 781.497 2.91646 1.12522 0
M  V30 8093 H 780.717 3.74953 -1.21672 0
M  V30 8094 H 782.005 4.96338 -1.11919 0
M  V30 8095 H 781.403 5.27373 2.04682 0
M  V30 8096 H 779.96 6.20488 1.99594 0
M  V30 8097 N 783.393 0.737304 1.3929 0
M  V30 8098 C 784.356 0.10731 2.28949 0
M  V30 8099 C 785.356 -0.664716 1.46418 0
M  V30 8100 O 786.546 -0.493392 1.67067 0
M  V30 8101 C 783.678 -0.857145 3.29948 0
M  V30 8102 H 784.871 0.89725 2.86163 0
M  V30 8103 H 782.424 0.503279 1.47976 0
M  V30 8104 H 783.159 -1.67336 2.77794 0
M  V30 8105 H 782.944 -0.306167 3.90903 0
M  V30 8106 H 784.434 -1.29444 3.97031 0
M  V30 8107 N 784.871 -1.49948 0.485112 0
M  V30 8108 C 786.117 -2.02695 -0.0651022 0
M  V30 8109 C 786.45 -1.36534 -1.38102 0
M  V30 8110 O 785.725 -0.495677 -1.88078 0
M  V30 8111 C 786.008 -3.59337 -0.234285 0
M  V30 8112 C 785.861 -4.3605 1.10364 0
M  V30 8113 C 787.18 -4.28996 -0.982351 0
M  V30 8114 H 784.299 -0.736666 -0.0221856 0
M  V30 8115 H 786.941 -1.7913 0.633433 0
M  V30 8116 H 785.091 -3.79546 -0.829262 0
M  V30 8117 H 786.763 -4.27377 1.73627 0
M  V30 8118 H 785.006 -3.99236 1.69686 0
M  V30 8119 H 785.677 -5.43959 0.938743 0
M  V30 8120 H 788.153 -4.13346 -0.477904 0
M  V30 8121 H 787.029 -5.38379 -1.06955 0
M  V30 8122 H 787.29 -3.93135 -2.02231 0
M  V30 8123 N 786.349 -0.21828 -1.56081 0
M  V30 8124 C 787.279 0.687922 -2.23136 0
M  V30 8125 C 788.26 1.20357 -1.202 0
M  V30 8126 O 789.445 1.24817 -1.48776 0
M  V30 8127 C 786.575 1.89762 -2.90874 0
M  V30 8128 C 785.529 1.51595 -4.00254 0
M  V30 8129 C 784.855 2.80415 -4.55271 0
M  V30 8130 C 786.155 0.708404 -5.17474 0
M  V30 8131 H 787.849 0.128854 -2.99123 0
M  V30 8132 H 785.395 0.0605354 -1.43873 0
M  V30 8133 H 787.348 2.53699 -3.36474 0
M  V30 8134 H 786.072 2.4816 -2.1233 0
M  V30 8135 H 784.731 0.900058 -3.55379 0
M  V30 8136 H 784.379 3.36951 -3.73461 0
M  V30 8137 H 784.079 2.55613 -5.2909 0
M  V30 8138 H 785.603 3.453 -5.03587 0
M  V30 8139 H 787.017 1.2514 -5.59476 0
M  V30 8140 H 785.414 0.557593 -5.97504 0
M  V30 8141 H 786.484 -0.285679 -4.84058 0
M  V30 8142 N 787.827 1.57504 0.0551401 0
M  V30 8143 C 788.775 2.05884 1.08233 0
M  V30 8144 C 789.769 0.967383 1.39061 0
M  V30 8145 O 790.975 1.15242 1.38273 0
M  V30 8146 H 787.35 0.656673 0.366449 0
M  V30 8147 H 789.321 2.91273 0.648269 0
M  V30 8148 C 788.07 2.53221 2.38273 0
M  V30 8149 H 787.393 3.36809 2.15406 0
M  V30 8150 H 788.833 2.9081 3.08554 0
M  V30 8151 C 787.292 1.42218 3.05411 0
M  V30 8152 O 787.822 0.773638 3.9418 0
M  V30 8153 N 786.028 1.16316 2.66306 0
M  V30 8154 H 785.575 1.69237 1.94207 0
M  V30 8155 H 785.533 0.422534 3.11548 0
M  V30 8156 N 789.305 -0.326896 1.54172 0
M  V30 8157 C 790.237 -1.42319 1.79661 0
M  V30 8158 C 791.25 -1.47989 0.678456 0
M  V30 8159 O 792.439 -1.50773 0.955503 0
M  V30 8160 C 789.539 -2.80876 1.89636 0
M  V30 8161 C 788.712 -2.98449 3.19761 0
M  V30 8162 C 787.771 -4.17347 3.2048 0
M  V30 8163 O 786.797 -4.10667 3.94134 0
M  V30 8164 N 787.999 -5.26717 2.44027 0
M  V30 8165 H 790.764 -1.20819 2.74268 0
M  V30 8166 H 788.325 -0.516866 1.53428 0
M  V30 8167 H 790.317 -3.58619 1.87549 0
M  V30 8168 H 788.887 -2.95442 1.02141 0
M  V30 8169 H 788.107 -2.08035 3.34836 0
M  V30 8170 H 789.395 -3.07083 4.05681 0
M  V30 8171 H 788.793 -5.35019 1.8377 0
M  V30 8172 H 787.35 -6.02891 2.47721 0
M  V30 8173 N 790.784 -1.46188 -0.588786 0
M  V30 8174 C 791.731 -1.56292 -1.69828 0
M  V30 8175 C 792.701 -0.407581 -1.61022 0
M  V30 8176 O 793.886 -0.623532 -1.80324 0
M  V30 8177 C 791.026 -1.55341 -3.08161 0
M  V30 8178 C 790.139 -2.81564 -3.27636 0
M  V30 8179 C 789.274 -2.72158 -4.56183 0
M  V30 8180 C 788.313 -3.93348 -4.68981 0
M  V30 8181 N 787.45 -3.82365 -5.88848 0
M  V30 8182 H 792.29 -2.51066 -1.6053 0
M  V30 8183 H 789.827 -1.24562 -0.782474 0
M  V30 8184 H 791.785 -1.52776 -3.88221 0
M  V30 8185 H 790.415 -0.641034 -3.16371 0
M  V30 8186 H 789.467 -2.94136 -2.41223 0
M  V30 8187 H 790.779 -3.714 -3.32962 0
M  V30 8188 H 789.933 -2.67665 -5.44464 0
M  V30 8189 H 788.672 -1.79953 -4.53286 0
M  V30 8190 H 787.677 -3.98181 -3.7912 0
M  V30 8191 H 788.902 -4.86643 -4.73662 0
M  V30 8192 H 786.848 -2.92942 -5.86959 0
M  V30 8193 H 786.765 -4.65851 -5.95415 0
M  V30 8194 H 788.033 -3.81836 -6.79575 0
M  V30 8195 N 792.262 0.832906 -1.33792 0
M  V30 8196 C 793.209 1.94314 -1.24541 0
M  V30 8197 C 794.179 1.65646 -0.122753 0
M  V30 8198 O 795.364 1.88394 -0.30204 0
M  V30 8199 C 792.504 3.30395 -0.996641 0
M  V30 8200 C 791.617 3.71422 -2.20612 0
M  V30 8201 C 790.752 4.96401 -1.89101 0
M  V30 8202 C 789.791 5.2998 -3.06247 0
M  V30 8203 N 788.928 6.46137 -2.74685 0
M  V30 8204 H 793.768 2.01559 -2.19495 0
M  V30 8205 H 791.305 0.986243 -1.09141 0
M  V30 8206 H 793.263 4.08803 -0.832817 0
M  V30 8207 H 791.893 3.22691 -0.0838242 0
M  V30 8208 H 790.945 2.88488 -2.47949 0
M  V30 8209 H 792.257 3.92215 -3.0817 0
M  V30 8210 H 791.411 5.82572 -1.69396 0
M  V30 8211 H 790.15 4.7759 -0.987882 0
M  V30 8212 H 789.155 4.42312 -3.26559 0
M  V30 8213 H 790.38 5.50737 -3.97323 0
M  V30 8214 H 788.326 6.28801 -1.86938 0
M  V30 8215 H 788.243 6.67054 -3.55774 0
M  V30 8216 H 789.511 7.35403 -2.58461 0
M  V30 8217 N 793.74 1.17359 1.05189 0
M  V30 8218 C 794.703 0.892604 2.11105 0
M  V30 8219 C 795.703 -0.117236 1.60372 0
M  V30 8220 O 796.893 0.114936 1.7382 0
M  V30 8221 C 794.025 0.337032 3.3923 0
M  V30 8222 H 795.218 1.83169 2.37464 0
M  V30 8223 H 792.771 0.984051 1.21434 0
M  V30 8224 H 793.506 -0.609198 3.18527 0
M  V30 8225 H 793.291 1.06484 3.77364 0
M  V30 8226 H 794.781 0.158763 4.17298 0
M  V30 8227 N 795.218 -1.23913 0.973828 0
M  V30 8228 C 796.634 -1.44325 0.681363 0
M  V30 8229 C 796.834 -1.86832 -0.754728 0
M  V30 8230 O 795.89 -2.01024 -1.52793 0
M  V30 8231 C 797.203 -2.50017 1.67069 0
M  V30 8232 C 798.751 -2.63838 1.68399 0
M  V30 8233 C 799.226 -3.72734 2.66145 0
M  V30 8234 N 800.717 -3.80169 2.64624 0
M  V30 8235 C 801.452 -4.6397 3.36927 0
M  V30 8236 N 800.948 -5.51911 4.18767 0
M  V30 8237 N 802.741 -4.58106 3.25722 0
M  V30 8238 H 794.892 -0.946204 1.9016 0
M  V30 8239 H 797.155 -0.477374 0.819035 0
M  V30 8240 H 796.861 -2.25686 2.69738 0
M  V30 8241 H 796.735 -3.48287 1.4483 0
M  V30 8242 H 799.122 -2.87524 0.664379 0
M  V30 8243 H 799.203 -1.65906 1.94702 0
M  V30 8244 H 798.847 -3.49797 3.68245 0
M  V30 8245 H 798.777 -4.70193 2.3712 0
M  V30 8246 H 801.268 -3.17319 2.05224 0
M  V30 8247 H 801.581 -6.12828 4.70809 0
M  V30 8248 H 799.926 -5.51556 4.2286 0
M  V30 8249 H 803.117 -3.8842 2.61242 0
M  V30 8250 H 803.29 -5.23188 3.82333 0
M  V30 8251 N 796.696 -0.74468 -1.38897 0
M  V30 8252 C 797.943 -0.296884 -2.00312 0
M  V30 8253 C 798.271 1.11878 -1.59102 0
M  V30 8254 O 797.526 1.7789 -0.815702 0
M  V30 8255 C 797.825 -0.357302 -3.55609 0
M  V30 8256 C 797.491 -1.72736 -4.16501 0
M  V30 8257 C 796.153 -2.10232 -4.32846 0
M  V30 8258 C 798.505 -2.62647 -4.50184 0
M  V30 8259 C 795.833 -3.3713 -4.80167 0
M  V30 8260 C 798.185 -3.88926 -4.98918 0
M  V30 8261 C 796.849 -4.26503 -5.1347 0
M  V30 8262 H 796.119 -0.108638 -0.732993 0
M  V30 8263 H 798.766 -0.953419 -1.66079 0
M  V30 8264 H 797.071 0.382805 -3.89925 0
M  V30 8265 H 798.768 0.0074596 -4.00999 0
M  V30 8266 H 795.358 -1.42585 -4.04187 0
M  V30 8267 H 799.542 -2.34945 -4.37166 0
M  V30 8268 H 794.798 -3.66174 -4.89619 0
M  V30 8269 H 798.972 -4.58745 -5.23952 0
M  V30 8270 H 796.599 -5.24896 -5.49898 0
M  V30 8271 N 798.174 1.49689 -0.493057 0
M  V30 8272 C 799.404 2.06536 0.0512397 0
M  V30 8273 C 799.812 1.35459 1.32089 0
M  V30 8274 O 799.155 0.424145 1.78736 0
M  V30 8275 C 799.217 3.57452 0.383231 0
M  V30 8276 C 798.881 4.50163 -0.787555 0
M  V30 8277 C 799.878 4.92151 -1.67582 0
M  V30 8278 C 797.563 4.92565 -0.984109 0
M  V30 8279 C 799.557 5.7527 -2.74487 0
M  V30 8280 C 797.244 5.75463 -2.05634 0
M  V30 8281 C 798.242 6.16719 -2.93507 0
M  V30 8282 O 797.93 6.97961 -3.98881 0
M  V30 8283 H 797.662 0.675862 -0.0136516 0
M  V30 8284 H 800.216 1.9356 -0.687298 0
M  V30 8285 H 798.446 3.68408 1.17526 0
M  V30 8286 H 800.135 3.96572 0.8652 0
M  V30 8287 H 800.901 4.60043 -1.53575 0
M  V30 8288 H 796.78 4.5996 -0.309541 0
M  V30 8289 H 800.324 6.07392 -3.43104 0
M  V30 8290 H 796.221 6.06983 -2.19639 0
M  V30 8291 H 796.989 7.16253 -3.96137 0
M  V30 8292 N 799.652 0.226554 1.55963 0
M  V30 8293 C 800.898 -0.404387 1.98727 0
M  V30 8294 C 801.231 -1.59059 1.11418 0
M  V30 8295 O 800.506 -1.93729 0.172971 0
M  V30 8296 C 800.789 -0.834081 3.50307 0
M  V30 8297 C 800.642 0.356104 4.48388 0
M  V30 8298 C 801.961 -1.68845 4.06423 0
M  V30 8299 H 799.08 -0.145515 0.722492 0
M  V30 8300 H 801.722 0.323791 1.87221 0
M  V30 8301 H 799.872 -1.45454 3.60244 0
M  V30 8302 H 801.544 0.99432 4.50456 0
M  V30 8303 H 799.787 1.0027 4.22053 0
M  V30 8304 H 800.458 0.0124333 5.51999 0
M  V30 8305 H 802.934 -1.16489 3.99461 0
M  V30 8306 H 801.81 -1.958 5.1279 0
M  V30 8307 H 802.071 -2.65347 3.53615 0
M  V30 8308 N 801.13 -1.57531 -0.0467866 0
M  V30 8309 C 802.379 -1.87632 -0.740069 0
M  V30 8310 C 802.692 -0.822691 -1.77457 0
M  V30 8311 O 803.898 -1.01235 -2.5192 0
M  V30 8312 C 802.354 -3.32917 -1.36727 0
M  V30 8313 C 801.962 -4.46469 -0.370035 0
M  V30 8314 C 803.706 -3.72189 -2.04146 0
M  V30 8315 C 801.613 -5.82806 -1.00457 0
M  V30 8316 H 800.543 -0.70002 -0.280158 0
M  V30 8317 H 803.194 -1.83499 0.00607151 0
M  V30 8318 H 801.576 -3.31739 -2.16252 0
M  V30 8319 H 802.75 -4.59085 0.397217 0
M  V30 8320 H 801.065 -4.15914 0.201079 0
M  V30 8321 H 803.662 -4.71357 -2.52441 0
M  V30 8322 H 804.005 -3.03268 -2.85192 0
M  V30 8323 H 804.538 -3.75465 -1.3142 0
M  V30 8324 H 801.277 -6.55083 -0.233907 0
M  V30 8325 H 800.797 -5.73944 -1.74209 0
M  V30 8326 H 802.476 -6.28961 -1.51713 0
M  V30 8327 N 802.608 0.318715 -1.54344 0
M  V30 8328 C 803.556 1.41254 -1.84798 0
M  V30 8329 C 804.55 1.53325 -0.720256 0
M  V30 8330 O 805.756 1.55653 -0.903992 0
M  V30 8331 H 802.131 0.471468 -0.585851 0
M  V30 8332 H 804.102 1.12795 -2.7626 0
M  V30 8333 C 802.851 2.77395 -2.09637 0
M  V30 8334 H 802.174 2.68881 -2.95876 0
M  V30 8335 H 803.614 3.52987 -2.34896 0
M  V30 8336 C 802.073 3.24948 -0.889398 0
M  V30 8337 O 802.603 4.01573 -0.101063 0
M  V30 8338 N 800.809 2.82051 -0.699684 0
M  V30 8339 H 800.356 2.19858 -1.3424 0
M  V30 8340 H 800.314 3.1422 0.106368 0
M  V30 8341 N 804.086 1.46499 0.581025 0
M  V30 8342 C 805.049 1.5677 1.672 0
M  V30 8343 C 806.049 0.444716 1.54528 0
M  V30 8344 O 807.239 0.709074 1.59116 0
M  V30 8345 C 804.371 1.4896 3.06633 0
M  V30 8346 H 805.564 2.54 1.5945 0
M  V30 8347 H 803.117 1.34334 0.799003 0
M  V30 8348 H 803.852 0.530168 3.19937 0
M  V30 8349 H 803.637 2.30439 3.17239 0
M  V30 8350 H 805.127 1.59237 3.86048 0
M  V30 8351 N 805.565 -0.825799 1.34232 0
M  V30 8352 C 806.528 -1.91808 1.25468 0
M  V30 8353 C 807.528 -1.59893 0.170567 0
M  V30 8354 O 808.718 -1.68986 0.422996 0
M  V30 8355 C 805.85 -3.27786 0.93644 0
M  V30 8356 H 807.043 -2.01003 2.22571 0
M  V30 8357 H 804.596 -1.01944 1.18479 0
M  V30 8358 H 805.331 -3.24285 -0.0315408 0
M  V30 8359 H 805.116 -3.52333 1.72057 0
M  V30 8360 H 806.606 -4.07782 0.900214 0
M  V30 8361 N 807.043 -1.17915 -1.04565 0
M  V30 8362 C 807.99 -0.901605 -2.12461 0
M  V30 8363 C 808.96 0.157011 -1.65356 0
M  V30 8364 O 810.145 0.0184494 -1.90791 0
M  V30 8365 C 807.285 -0.42796 -3.42436 0
M  V30 8366 C 806.398 -1.55142 -4.03181 0
M  V30 8367 C 805.533 -1.03101 -5.21098 0
M  V30 8368 C 804.572 -2.1295 -5.73863 0
M  V30 8369 N 803.709 -1.62339 -6.83074 0
M  V30 8370 H 808.549 -1.82551 -2.3554 0
M  V30 8371 H 806.086 -0.910389 -1.15544 0
M  V30 8372 H 808.044 -0.134859 -4.16982 0
M  V30 8373 H 806.674 0.458977 -3.1952 0
M  V30 8374 H 805.726 -1.96011 -3.26012 0
M  V30 8375 H 807.038 -2.37968 -4.38375 0
M  V30 8376 H 806.192 -0.692132 -6.02739 0
M  V30 8377 H 804.931 -0.17227 -4.87396 0
M  V30 8378 H 803.936 -2.47687 -4.90847 0
M  V30 8379 H 805.161 -2.9925 -6.09611 0
M  V30 8380 H 803.107 -0.787464 -6.51256 0
M  V30 8381 H 803.024 -2.38767 -7.17305 0
M  V30 8382 H 804.292 -1.31363 -7.68351 0
M  V30 8383 N 808.521 1.23394 -0.980386 0
M  V30 8384 C 809.77 1.91116 -0.644785 0
M  V30 8385 C 810.083 1.77333 0.825367 0
M  V30 8386 O 811.289 2.39858 1.27203 0
M  V30 8387 C 809.745 3.42592 -1.10266 0
M  V30 8388 C 809.353 3.65037 -2.59715 0
M  V30 8389 C 811.097 4.1609 -0.8408 0
M  V30 8390 C 809.004 5.10148 -2.9917 0
M  V30 8391 H 807.934 0.715632 -0.23746 0
M  V30 8392 H 810.585 1.39829 -1.18828 0
M  V30 8393 H 808.967 3.92989 -0.487372 0
M  V30 8394 H 810.141 3.25186 -3.26482 0
M  V30 8395 H 808.456 3.04849 -2.83647 0
M  V30 8396 H 811.053 5.23021 -1.11143 0
M  V30 8397 H 811.396 4.15702 0.223085 0
M  V30 8398 H 811.929 3.71681 -1.41767 0
M  V30 8399 H 808.668 5.15668 -4.04682 0
M  V30 8400 H 808.188 5.50949 -2.37097 0
M  V30 8401 H 809.867 5.7848 -2.89775 0
M  V30 8402 N 809.999 0.752036 1.385 0
M  V30 8403 C 810.962 0.131587 2.28822 0
M  V30 8404 C 811.962 -0.649149 1.47115 0
M  V30 8405 O 813.152 -0.475645 1.67581 0
M  V30 8406 C 810.284 -0.822101 3.30839 0
M  V30 8407 H 811.477 0.927551 2.85196 0
M  V30 8408 H 809.03 0.518945 1.47434 0
M  V30 8409 H 809.765 -1.6438 2.79553 0
M  V30 8410 H 809.55 -0.264689 3.91206 0
M  V30 8411 H 811.04 -1.25226 3.98382 0
M  V30 8412 N 811.477 -1.49425 0.500989 0
M  V30 8413 C 812.893 -1.58826 0.156951 0
M  V30 8414 C 813.093 -1.50622 -1.33848 0
M  V30 8415 O 812.149 -1.38016 -2.11442 0
M  V30 8416 C 813.462 -2.91611 0.73374 0
M  V30 8417 C 815.01 -3.05076 0.699846 0
M  V30 8418 C 815.485 -4.40479 1.2547 0
M  V30 8419 N 816.976 -4.4697 1.2154 0
M  V30 8420 C 817.711 -5.50189 1.6149 0
M  V30 8421 N 817.207 -6.60512 2.09034 0
M  V30 8422 N 819 -5.40903 1.52907 0
M  V30 8423 H 811.151 -1.53001 1.47324 0
M  V30 8424 H 813.414 -0.724765 0.61108 0
M  V30 8425 H 813.12 -3.03182 1.78251 0
M  V30 8426 H 812.994 -3.767 0.19417 0
M  V30 8427 H 815.381 -2.93134 -0.340085 0
M  V30 8428 H 815.462 -2.2167 1.27656 0
M  V30 8429 H 815.106 -4.53172 2.29341 0
M  V30 8430 H 815.036 -5.22524 0.653921 0
M  V30 8431 H 817.527 -3.67819 0.867043 0
M  V30 8432 H 817.84 -7.35372 2.37588 0
M  V30 8433 H 816.185 -6.61553 2.13008 0
M  V30 8434 H 819.376 -4.53606 1.15583 0
M  V30 8435 H 819.549 -6.21219 1.84365 0
M  V30 8436 N 812.955 -0.234822 -1.55841 0
M  V30 8437 C 813.865 0.680828 -2.24504 0
M  V30 8438 C 814.881 1.20306 -1.25708 0
M  V30 8439 O 816.057 1.24188 -1.58554 0
M  V30 8440 C 813.122 1.86636 -2.92178 0
M  V30 8441 C 812.183 1.3848 -4.06352 0
M  V30 8442 C 811.416 2.51382 -4.70789 0
M  V30 8443 O 811.639 3.69831 -4.34259 0
M  V30 8444 O 810.573 2.21828 -5.59532 0
M  V30 8445 H 814.399 0.12583 -3.03439 0
M  V30 8446 H 811.984 -0.00381817 -1.494 0
M  V30 8447 H 813.866 2.55845 -3.34845 0
M  V30 8448 H 812.541 2.40921 -2.16192 0
M  V30 8449 H 811.448 0.660341 -3.68226 0
M  V30 8450 H 812.781 0.888177 -4.8412 0
M  V30 8451 N 814.433 1.57553 0.0384317 0
M  V30 8452 C 815.673 1.90687 0.736069 0
M  V30 8453 C 816.037 0.832381 1.73019 0
M  V30 8454 O 817.238 1.04777 2.47538 0
M  V30 8455 C 815.509 3.28994 1.39635 0
M  V30 8456 S 817.068 3.83944 2.12444 0
M  V30 8457 H 813.886 0.667799 0.244059 0
M  V30 8458 H 816.488 1.95498 -0.00901643 0
M  V30 8459 H 815.192 4.05067 0.659465 0
M  V30 8460 H 814.723 3.27463 2.18018 0
M  V30 8461 H 816.738 3.61916 3.39457 0
M  V30 8462 N 815.911 -0.310526 1.54511 0
M  V30 8463 C 817.159 -1.04484 1.72996 0
M  V30 8464 C 817.48 -1.88118 0.513479 0
M  V30 8465 O 816.75 -1.90119 -0.472384 0
M  V30 8466 H 815.33 -0.388747 0.637875 0
M  V30 8467 H 817.992 -0.343811 1.91844 0
M  V30 8468 H 817.088 -1.70341 2.61515 0
M  V30 8469 N 817.389 -1.46805 -0.573248 0
M  V30 8470 C 818.319 -1.60951 -1.69165 0
M  V30 8471 C 819.3 -0.45948 -1.63777 0
M  V30 8472 O 820.485 -0.68688 -1.81647 0
M  V30 8473 C 817.615 -1.60844 -3.07809 0
M  V30 8474 C 816.569 -2.74913 -3.28035 0
M  V30 8475 C 815.895 -2.59871 -4.67302 0
M  V30 8476 C 817.195 -4.16654 -3.14955 0
M  V30 8477 H 818.889 -2.54574 -1.57582 0
M  V30 8478 H 816.435 -1.22516 -0.756686 0
M  V30 8479 H 818.388 -1.69334 -3.85881 0
M  V30 8480 H 817.112 -0.637714 -3.20314 0
M  V30 8481 H 815.771 -2.65908 -2.52366 0
M  V30 8482 H 815.419 -1.60861 -4.76585 0
M  V30 8483 H 815.119 -3.36386 -4.81786 0
M  V30 8484 H 816.643 -2.70265 -5.4753 0
M  V30 8485 H 818.057 -4.26721 -3.82861 0
M  V30 8486 H 816.454 -4.93831 -3.40956 0
M  V30 8487 H 817.524 -4.36146 -2.11908 0
M  V30 8488 N 818.867 0.818669 -1.34668 0
M  V30 8489 C 819.83 1.9114 -1.26483 0
M  V30 8490 C 820.83 1.598 -0.179044 0
M  V30 8491 O 822.02 1.6876 -0.431952 0
M  V30 8492 C 819.152 3.27285 -0.95381 0
M  V30 8493 H 820.345 1.9982 -2.23634 0
M  V30 8494 H 817.898 1.01314 -1.19018 0
M  V30 8495 H 818.633 3.24297 0.0143428 0
M  V30 8496 H 818.418 3.51416 -1.73924 0
M  V30 8497 H 819.908 4.07299 -0.921827 0
M  V30 8498 N 820.346 1.18468 1.03938 0
M  V30 8499 C 821.309 0.914944 2.10146 0
M  V30 8500 C 822.309 -0.10022 1.60487 0
M  V30 8501 O 823.499 0.133365 1.73689 0
M  V30 8502 C 820.631 0.372993 3.38853 0
M  V30 8503 H 821.824 1.85677 2.35508 0
M  V30 8504 H 819.377 0.996876 1.20383 0
M  V30 8505 H 820.112 -0.57538 3.19155 0
M  V30 8506 H 819.897 1.1048 3.76213 0
M  V30 8507 H 821.387 0.203014 4.17106 0
M  V30 8508 N 821.824 -1.22873 0.986916 0
M  V30 8509 C 823.24 -1.43594 0.696633 0
M  V30 8510 C 823.44 -1.87622 -0.734869 0
M  V30 8511 O 822.496 -2.02633 -1.50652 0
M  V30 8512 C 823.809 -2.48231 1.69711 0
M  V30 8513 C 825.357 -2.62037 1.71188 0
M  V30 8514 C 825.832 -3.6989 2.70084 0
M  V30 8515 N 827.323 -3.77341 2.68641 0
M  V30 8516 C 828.058 -4.6037 3.41829 0
M  V30 8517 N 827.554 -5.47438 4.24598 0
M  V30 8518 N 829.347 -4.54626 3.30563 0
M  V30 8519 H 821.498 -0.925982 1.91153 0
M  V30 8520 H 823.761 -0.46866 0.824052 0
M  V30 8521 H 823.467 -2.22812 2.72117 0
M  V30 8522 H 823.341 -3.46731 1.48516 0
M  V30 8523 H 825.728 -2.86803 0.694837 0
M  V30 8524 H 825.809 -1.63831 1.96451 0
M  V30 8525 H 825.453 -3.45872 3.71934 0
M  V30 8526 H 825.383 -4.67652 2.42093 0
M  V30 8527 H 827.874 -3.15124 2.08578 0
M  V30 8528 H 828.187 -6.078 4.77283 0
M  V30 8529 H 826.532 -5.4704 4.28687 0
M  V30 8530 H 829.723 -3.85627 2.65347 0
M  V30 8531 H 829.896 -5.19103 3.8786 0
M  V30 8532 N 823.302 -0.75937 -1.38099 0
M  V30 8533 C 824.551 -0.314864 -1.99227 0
M  V30 8534 C 824.864 1.1113 -1.60964 0
M  V30 8535 O 826.07 1.65657 -2.15105 0
M  V30 8536 C 824.526 -0.512001 -3.56239 0
M  V30 8537 C 824.134 -1.94762 -4.0345 0
M  V30 8538 C 825.878 -0.130497 -4.24299 0
M  V30 8539 C 823.785 -2.09301 -5.53125 0
M  V30 8540 H 822.715 -0.113978 -0.745335 0
M  V30 8541 H 825.366 -0.936736 -1.57789 0
M  V30 8542 H 823.748 0.179144 -3.95595 0
M  V30 8543 H 824.922 -2.67271 -3.75371 0
M  V30 8544 H 823.237 -2.28457 -3.48133 0
M  V30 8545 H 825.834 -0.21781 -5.34256 0
M  V30 8546 H 826.177 0.917644 -4.0606 0
M  V30 8547 H 826.71 -0.773716 -3.90203 0
M  V30 8548 H 823.449 -3.1239 -5.76275 0
M  V30 8549 H 822.969 -1.41261 -5.82928 0
M  V30 8550 H 824.648 -1.88571 -6.1891 0
M  V30 8551 N 824.78 1.49157 -0.508906 0
M  V30 8552 C 825.728 2.30922 0.278906 0
M  V30 8553 C 826.722 1.39889 0.955382 0
M  V30 8554 O 827.928 1.56901 0.882169 0
M  V30 8555 H 824.303 0.744087 0.108805 0
M  V30 8556 H 826.274 2.95277 -0.430583 0
M  V30 8557 C 825.023 3.21432 1.32576 0
M  V30 8558 H 824.346 3.91413 0.814634 0
M  V30 8559 H 825.786 3.81568 1.84882 0
M  V30 8560 C 824.245 2.41583 2.34817 0
M  V30 8561 O 824.775 2.1256 3.40854 0
M  V30 8562 N 822.981 2.03462 2.07489 0
M  V30 8563 H 822.528 2.27265 1.21278 0
M  V30 8564 H 822.486 1.50345 2.76123 0
M  V30 8565 N 826.258 0.243083 1.55714 0
M  V30 8566 C 827.486 -0.386971 2.03249 0
M  V30 8567 C 827.901 -1.51812 1.12243 0
M  V30 8568 O 827.258 -1.81992 0.136119 0
M  V30 8569 C 827.309 -0.898361 3.5016 0
M  V30 8570 O 827.03 0.187708 4.37698 0
M  V30 8571 C 828.531 -1.59949 4.13438 0
M  V30 8572 H 825.751 -0.0923981 0.664608 0
M  V30 8573 H 828.295 0.365832 2.01201 0
M  V30 8574 H 826.45 -1.60136 3.52754 0
M  V30 8575 H 826.864 -0.200001 5.24119 0
M  V30 8576 H 828.338 -1.90907 5.17937 0
M  V30 8577 H 828.815 -2.52014 3.59702 0
M  V30 8578 H 829.421 -0.941163 4.14756 0
M  V30 8579 N 827.736 -1.57571 -0.0300757 0
M  V30 8580 C 828.982 -1.89506 -0.722159 0
M  V30 8581 C 829.315 -0.840699 -1.7506 0
M  V30 8582 O 828.59 0.144358 -1.93964 0
M  V30 8583 C 828.873 -3.32081 -1.39262 0
M  V30 8584 C 828.726 -4.48211 -0.377768 0
M  V30 8585 C 830.045 -3.73557 -2.32687 0
M  V30 8586 H 827.164 -0.689213 -0.261064 0
M  V30 8587 H 829.806 -1.89994 0.0150388 0
M  V30 8588 H 827.956 -3.31796 -2.02098 0
M  V30 8589 H 829.628 -4.6063 0.248591 0
M  V30 8590 H 827.871 -4.3274 0.303045 0
M  V30 8591 H 828.542 -5.44854 -0.885347 0
M  V30 8592 H 831.018 -3.75202 -1.79896 0
M  V30 8593 H 829.894 -4.74125 -2.7658 0
M  V30 8594 H 830.155 -3.05759 -3.19317 0
M  V30 8595 N 829.214 0.302327 -1.54673 0
M  V30 8596 C 830.147 1.39738 -1.80412 0
M  V30 8597 C 831.125 1.48813 -0.655241 0
M  V30 8598 O 832.309 1.65895 -0.89505 0
M  V30 8599 C 829.436 2.7766 -1.93966 0
M  V30 8600 C 828.482 2.86014 -3.16383 0
M  V30 8601 S 829.315 2.48246 -4.74483 0
M  V30 8602 C 830.471 3.88198 -4.90971 0
M  V30 8603 H 830.704 1.17696 -2.73011 0
M  V30 8604 H 828.237 0.500364 -1.46068 0
M  V30 8605 H 830.195 3.571 -2.0246 0
M  V30 8606 H 828.856 2.96971 -1.02307 0
M  V30 8607 H 828.049 3.87174 -3.22664 0
M  V30 8608 H 827.651 2.14568 -3.06328 0
M  V30 8609 H 829.943 4.83181 -4.74913 0
M  V30 8610 H 830.886 3.86887 -5.93063 0
M  V30 8611 H 831.294 3.78139 -4.19131 0
M  V30 8612 N 830.692 1.47107 0.565454 0
M  V30 8613 C 831.624 1.55024 1.6882 0
M  V30 8614 C 832.637 0.4371 1.56822 0
M  V30 8615 O 833.826 0.706315 1.63931 0
M  V30 8616 C 830.926 1.43069 3.0722 0
M  V30 8617 C 830.099 2.68807 3.45053 0
M  V30 8618 C 829.158 2.50806 4.62583 0
M  V30 8619 O 828.184 3.24593 4.67577 0
M  V30 8620 N 829.386 1.58093 5.58558 0
M  V30 8621 H 832.151 2.51836 1.62477 0
M  V30 8622 H 829.712 1.43382 0.751885 0
M  V30 8623 H 831.704 1.28773 3.83666 0
M  V30 8624 H 830.274 0.543721 3.07835 0
M  V30 8625 H 829.494 2.97923 2.58138 0
M  V30 8626 H 830.782 3.52298 3.67101 0
M  V30 8627 H 830.18 0.972807 5.57273 0
M  V30 8628 H 828.737 1.49753 6.34364 0
M  V30 8629 N 832.17 -0.811516 1.35101 0
M  V30 8630 C 833.103 -1.92872 1.21966 0
M  V30 8631 C 834.081 -1.62236 0.108667 0
M  V30 8632 O 835.265 -1.8647 0.275875 0
M  V30 8633 C 832.392 -3.27152 0.876886 0
M  V30 8634 C 831.438 -3.7674 1.99924 0
M  V30 8635 S 832.271 -3.95132 3.61429 0
M  V30 8636 C 833.427 -5.32322 3.29218 0
M  V30 8637 H 833.66 -2.03718 2.16532 0
M  V30 8638 H 831.193 -0.968352 1.20259 0
M  V30 8639 H 833.151 -4.04729 0.685917 0
M  V30 8640 H 831.812 -3.14059 -0.0506289 0
M  V30 8641 H 831.005 -4.73981 1.71343 0
M  V30 8642 H 830.607 -3.06145 2.14829 0
M  V30 8643 H 832.899 -6.1614 2.8174 0
M  V30 8644 H 833.842 -5.65893 4.25641 0
M  V30 8645 H 834.25 -4.98374 2.65111 0
M  V30 8646 N 833.648 -1.19017 -1.03309 0
M  V30 8647 C 834.611 -0.926076 -2.09658 0
M  V30 8648 C 835.611 0.0917077 -1.60538 0
M  V30 8649 O 836.801 -0.142574 -1.73616 0
M  V30 8650 C 833.933 -0.390958 -3.38651 0
M  V30 8651 H 835.126 -1.86923 -2.3452 0
M  V30 8652 H 832.679 -1.00325 -1.19853 0
M  V30 8653 H 833.414 0.558446 -3.19456 0
M  V30 8654 H 833.199 -1.12474 -3.75622 0
M  V30 8655 H 834.689 -0.225131 -4.16993 0
M  V30 8656 N 835.127 1.22348 -0.993418 0
M  V30 8657 C 836.374 1.9111 -0.669568 0
M  V30 8658 C 836.702 1.77357 0.79843 0
M  V30 8659 O 835.957 1.13675 1.593 0
M  V30 8660 C 836.256 3.42477 -1.02197 0
M  V30 8661 C 835.922 3.7642 -2.48232 0
M  V30 8662 C 834.584 3.85395 -2.88139 0
M  V30 8663 C 836.936 3.9253 -3.42884 0
M  V30 8664 C 834.264 4.07918 -4.21687 0
M  V30 8665 C 836.616 4.16557 -4.76091 0
M  V30 8666 C 835.28 4.23757 -5.15739 0
M  V30 8667 H 834.55 0.699321 -0.245012 0
M  V30 8668 H 837.197 1.45102 -1.2497 0
M  V30 8669 H 835.502 3.90143 -0.359921 0
M  V30 8670 H 837.199 3.93935 -0.74942 0
M  V30 8671 H 833.789 3.70017 -2.16299 0
M  V30 8672 H 837.973 3.84974 -3.13224 0
M  V30 8673 H 833.229 4.11719 -4.51993 0
M  V30 8674 H 837.403 4.27966 -5.4938 0
M  V30 8675 H 835.03 4.40962 -6.19239 0
M  V30 8676 N 836.605 0.766683 1.37694 0
M  V30 8677 C 837.852 0.328714 1.99814 0
M  V30 8678 C 838.18 -1.09333 1.60862 0
M  V30 8679 O 837.435 -1.7657 0.8439 0
M  V30 8680 C 837.734 0.413831 3.54996 0
M  V30 8681 C 837.4 1.7934 4.137 0
M  V30 8682 C 836.062 2.17092 4.29447 0
M  V30 8683 C 838.414 2.69776 4.45949 0
M  V30 8684 C 835.742 3.44726 4.74743 0
M  V30 8685 C 838.094 3.96814 4.92667 0
M  V30 8686 C 836.758 4.34618 5.0662 0
M  V30 8687 H 836.028 0.120285 0.731172 0
M  V30 8688 H 838.675 0.97972 1.64541 0
M  V30 8689 H 836.98 -0.320723 3.90485 0
M  V30 8690 H 838.677 0.0563369 4.0096 0
M  V30 8691 H 835.267 1.48997 4.01868 0
M  V30 8692 H 839.451 2.41871 4.33373 0
M  V30 8693 H 834.707 3.73917 4.83731 0
M  V30 8694 H 838.881 4.67022 5.16588 0
M  V30 8695 H 836.508 5.33578 5.41478 0
M  V30 8696 N 838.083 -1.48885 0.516809 0
M  V30 8697 C 839.033 -2.26363 -0.272704 0
M  V30 8698 C 840.017 -1.31891 -0.921604 0
M  V30 8699 O 841.209 -1.56514 -0.826589 0
M  V30 8700 C 838.338 -3.16614 -1.32705 0
M  V30 8701 C 837.424 -4.18554 -0.683598 0
M  V30 8702 N 837.815 -5.05308 0.223015 0
M  V30 8703 C 836.113 -4.35931 -0.942351 0
M  V30 8704 C 836.814 -5.7867 0.592918 0
M  V30 8705 N 835.79 -5.43583 -0.042912 0
M  V30 8706 H 839.592 -2.90811 0.424971 0
M  V30 8707 H 837.106 -1.5893 0.333941 0
M  V30 8708 H 839.103 -3.70766 -1.90625 0
M  V30 8709 H 837.763 -2.5372 -2.02624 0
M  V30 8710 H 838.774 -5.14473 0.594818 0
M  V30 8711 H 835.451 -3.84234 -1.6331 0
M  V30 8712 H 836.841 -6.58493 1.33556 0
M  V30 8713 N 839.561 -0.251338 -1.55583 0
M  V30 8714 C 840.491 0.640437 -2.24545 0
M  V30 8715 C 841.472 1.17781 -1.22726 0
M  V30 8716 O 842.657 1.21633 -1.5139 0
M  V30 8717 C 839.787 1.8355 -2.94834 0
M  V30 8718 C 838.741 1.4307 -4.03379 0
M  V30 8719 C 838.067 2.70695 -4.61116 0
M  V30 8720 C 839.367 0.59848 -5.1886 0
M  V30 8721 H 841.061 0.0653772 -2.99329 0
M  V30 8722 H 838.607 0.0300042 -1.43969 0
M  V30 8723 H 840.56 2.46505 -3.4178 0
M  V30 8724 H 839.284 2.43601 -2.17546 0
M  V30 8725 H 837.943 0.824474 -3.57209 0
M  V30 8726 H 837.591 3.28954 -3.80524 0
M  V30 8727 H 837.291 2.44332 -5.34393 0
M  V30 8728 H 838.815 3.34541 -5.10798 0
M  V30 8729 H 840.229 1.13244 -5.62004 0
M  V30 8730 H 838.626 0.430728 -5.98552 0
M  V30 8731 H 839.696 -0.38829 -4.83343 0
M  V30 8732 N 841.039 1.57585 0.0217189 0
M  V30 8733 C 842.267 1.93871 0.722619 0
M  V30 8734 C 842.682 0.851706 1.68498 0
M  V30 8735 O 842.039 -0.17127 1.81695 0
M  V30 8736 C 842.09 3.30114 1.47333 0
M  V30 8737 O 841.811 4.34639 0.549597 0
M  V30 8738 C 843.312 3.80727 2.27072 0
M  V30 8739 H 840.532 0.639671 0.202637 0
M  V30 8740 H 843.076 2.04487 -0.0229414 0
M  V30 8741 H 841.231 3.20872 2.17071 0
M  V30 8742 H 841.645 5.13326 1.07686 0
M  V30 8743 H 843.119 4.78547 2.75131 0
M  V30 8744 H 843.596 3.12301 3.08812 0
M  V30 8745 H 844.202 3.93075 1.62395 0
M  V30 8746 N 842.517 -0.29412 1.54831 0
M  V30 8747 C 843.449 -1.38476 1.82639 0
M  V30 8748 C 844.462 -1.46517 0.709694 0
M  V30 8749 O 845.651 -1.48712 0.987269 0
M  V30 8750 C 842.751 -2.76791 1.95551 0
M  V30 8751 C 841.924 -2.91599 3.26019 0
M  V30 8752 C 840.983 -4.10456 3.29261 0
M  V30 8753 O 840.009 -4.02214 4.02756 0
M  V30 8754 N 841.211 -5.21422 2.55145 0
M  V30 8755 H 843.976 -1.14974 2.76769 0
M  V30 8756 H 841.537 -0.484206 1.5449 0
M  V30 8757 H 843.529 -3.5456 1.95113 0
M  V30 8758 H 842.099 -2.93209 1.08384 0
M  V30 8759 H 841.319 -2.00886 3.39173 0
M  V30 8760 H 842.607 -2.98409 4.12104 0
M  V30 8761 H 842.005 -5.31 1.95078 0
M  V30 8762 H 840.562 -5.97501 2.60454 0
M  V30 8763 N 843.995 -1.47404 -0.557645 0
M  V30 8764 C 845.244 -1.53268 -1.31118 0
M  V30 8765 C 845.557 -0.199414 -1.94581 0
M  V30 8766 O 846.763 -0.136039 -2.71159 0
M  V30 8767 C 845.219 -2.70178 -2.37764 0
M  V30 8768 C 844.827 -4.10032 -1.80493 0
M  V30 8769 C 846.571 -2.85334 -3.14301 0
M  V30 8770 C 844.478 -5.18244 -2.84916 0
M  V30 8771 H 843.408 -0.570491 -0.493007 0
M  V30 8772 H 846.059 -1.73678 -0.592308 0
M  V30 8773 H 844.441 -2.43147 -3.12563 0
M  V30 8774 H 845.615 -4.46964 -1.12069 0
M  V30 8775 H 843.93 -3.99759 -1.16542 0
M  V30 8776 H 846.527 -3.63347 -3.92279 0
M  V30 8777 H 846.87 -1.93761 -3.68459 0
M  V30 8778 H 847.403 -3.12133 -2.46613 0
M  V30 8779 H 844.142 -6.11691 -2.35614 0
M  V30 8780 H 843.662 -4.85829 -3.51753 0
M  V30 8781 H 845.341 -5.45174 -3.48417 0
M  V30 8782 N 845.473 0.80434 -1.35529 0
M  V30 8783 C 846.403 1.93086 -1.31301 0
M  V30 8784 C 847.384 1.69068 -0.187044 0
M  V30 8785 O 848.569 1.90399 -0.382359 0
M  V30 8786 C 845.699 3.29867 -1.0865 0
M  V30 8787 C 844.653 3.68373 -2.17911 0
M  V30 8788 C 843.979 5.0334 -1.80423 0
M  V30 8789 C 845.279 3.78516 -3.59893 0
M  V30 8790 H 846.973 1.96882 -2.25561 0
M  V30 8791 H 844.519 0.945841 -1.08581 0
M  V30 8792 H 846.472 4.08281 -1.04331 0
M  V30 8793 H 845.196 3.2642 -0.108359 0
M  V30 8794 H 843.855 2.92247 -2.21331 0
M  V30 8795 H 843.503 4.96399 -0.812213 0
M  V30 8796 H 843.203 5.30074 -2.53565 0
M  V30 8797 H 844.727 5.84191 -1.77633 0
M  V30 8798 H 846.141 4.47155 -3.58783 0
M  V30 8799 H 844.538 4.16721 -4.31814 0
M  V30 8800 H 845.608 2.8001 -3.95882 0
M  V30 8801 N 846.951 1.19563 1.02676 0
M  V30 8802 C 848.362 1.00158 1.57561 0
M  V30 8803 C 848.713 -0.444922 1.91089 0
M  V30 8804 O 847.838 -1.32466 1.71119 0
M  V30 8805 C 848.433 1.81181 2.86284 0
M  V30 8806 C 846.992 1.66171 3.37734 0
M  V30 8807 C 846.139 1.7975 2.11152 0
M  V30 8808 H 849.09 1.33904 0.85179 0
M  V30 8809 H 849.111 1.30916 3.57269 0
M  V30 8810 H 848.623 2.86454 2.6185 0
M  V30 8811 H 846.724 0.634927 3.6715 0
M  V30 8812 H 846.837 2.46832 4.10622 0
M  V30 8813 H 845.201 1.22833 2.23123 0
M  V30 8814 H 845.984 2.86487 1.89157 0
M  V30 8815 N 848.429 -1.21819 0.999893 0
M  V30 8816 C 849.677 -1.90375 0.678351 0
M  V30 8817 C 849.998 -1.78155 -0.792824 0
M  V30 8818 O 849.268 -1.17319 -1.56885 0
M  V30 8819 H 847.848 -0.704661 0.247915 0
M  V30 8820 H 850.51 -1.48021 1.2679 0
M  V30 8821 H 849.606 -2.97385 0.947023 0
M  V30 8822 N 849.908 -0.773975 -1.37286 0
M  V30 8823 C 851.185 -0.263942 -1.93811 0
M  V30 8824 C 851.565 1.24138 -1.70743 0
M  V30 8825 O 850.913 2.02557 -1.05749 0
M  V30 8826 C 851.123 -0.639753 -3.43086 0
M  V30 8827 C 852.471 -0.610796 -4.20184 0
M  V30 8828 O 853.495 -0.579278 -3.51458 0
M  V30 8829 O 852.354 -0.639862 -5.42741 0
M  V30 8830 H 849.448 -0.0614331 -0.824715 0
M  V30 8831 H 851.994 -0.855477 -1.46559 0
M  V30 8832 H 850.766 -1.67856 -3.53469 0
M  V30 8833 H 850.389 -0.0212827 -3.97594 0
M  V30 8834 N 851.386 1.48609 -0.524698 0
M  V30 8835 C 852.611 2.07398 0.00952139 0
M  V30 8836 C 853.036 1.37939 1.27884 0
M  V30 8837 O 852.394 0.443633 1.75788 0
M  V30 8838 C 852.442 3.59916 0.221956 0
M  V30 8839 O 851.546 3.91647 1.29175 0
M  V30 8840 H 850.887 0.662981 -0.0367729 0
M  V30 8841 H 853.417 1.91092 -0.7311 0
M  V30 8842 H 853.427 4.05552 0.446236 0
M  V30 8843 H 852.102 4.09876 -0.705306 0
M  V30 8844 H 850.679 3.57796 1.05055 0
M  V30 8845 N 852.864 0.259585 1.55447 0
M  V30 8846 C 853.827 -0.621359 2.20617 0
M  V30 8847 C 854.827 -1.09317 1.17925 0
M  V30 8848 O 856.017 -0.995842 1.42929 0
M  V30 8849 C 853.149 -1.85546 2.85982 0
M  V30 8850 H 854.342 -0.0525833 2.99854 0
M  V30 8851 H 851.895 0.0101055 1.56297 0
M  V30 8852 H 852.63 -2.46515 2.10715 0
M  V30 8853 H 852.415 -1.52523 3.61219 0
M  V30 8854 H 853.905 -2.48227 3.35817 0
M  V30 8855 N 854.342 -1.57594 -0.0133615 0
M  V30 8856 C 855.272 -2.10611 -1.00823 0
M  V30 8857 C 856.253 -1.01217 -1.36708 0
M  V30 8858 O 857.438 -1.28827 -1.45318 0
M  V30 8859 C 854.568 -2.59844 -2.30431 0
M  V30 8860 C 853.522 -3.73644 -2.08745 0
M  V30 8861 C 852.848 -4.09141 -3.4425 0
M  V30 8862 C 854.148 -5.01454 -1.46086 0
M  V30 8863 H 855.842 -2.93985 -0.566849 0
M  V30 8864 H 853.388 -1.41423 -0.271219 0
M  V30 8865 H 855.341 -2.95557 -3.00373 0
M  V30 8866 H 854.065 -1.73573 -2.76658 0
M  V30 8867 H 852.724 -3.38303 -1.41232 0
M  V30 8868 H 852.372 -3.19914 -3.88155 0
M  V30 8869 H 852.072 -4.85802 -3.3056 0
M  V30 8870 H 853.596 -4.47402 -4.15528 0
M  V30 8871 H 855.01 -5.35024 -2.05966 0
M  V30 8872 H 853.407 -5.82832 -1.42924 0
M  V30 8873 H 854.477 -4.83003 -0.428471 0
M  V30 8874 N 855.82 0.285905 -1.54985 0
M  V30 8875 C 856.783 1.33625 -1.86218 0
M  V30 8876 C 857.783 1.42971 -0.735936 0
M  V30 8877 O 858.973 1.42345 -1.00417 0
M  V30 8878 C 856.105 2.71926 -2.05595 0
M  V30 8879 H 857.298 1.07167 -2.80099 0
M  V30 8880 H 854.851 0.523335 -1.47278 0
M  V30 8881 H 855.586 3.03583 -1.14053 0
M  V30 8882 H 855.371 2.6653 -2.87583 0
M  V30 8883 H 856.861 3.47841 -2.31077 0
M  V30 8884 N 857.298 1.47698 0.54982 0
M  V30 8885 C 858.208 1.63386 1.68351 0
M  V30 8886 C 859.224 0.516583 1.66155 0
M  V30 8887 O 860.4 0.785088 1.85468 0
M  V30 8888 C 857.465 1.6513 3.04849 0
M  V30 8889 C 856.526 2.88338 3.18056 0
M  V30 8890 C 855.759 2.8999 4.48042 0
M  V30 8891 O 855.982 2.00633 5.3395 0
M  V30 8892 O 854.916 3.81938 4.65196 0
M  V30 8893 H 858.742 2.59329 1.58057 0
M  V30 8894 H 856.327 1.30869 0.72067 0
M  V30 8895 H 858.209 1.68913 3.86065 0
M  V30 8896 H 856.884 0.723555 3.1551 0
M  V30 8897 H 855.791 2.90097 2.36209 0
M  V30 8898 H 857.124 3.80431 3.12302 0
M  V30 8899 N 858.776 -0.797141 1.35954 0
M  V30 8900 C 859.706 -1.92387 1.32323 0
M  V30 8901 C 860.687 -1.68967 0.196007 0
M  V30 8902 O 861.872 -1.90193 0.39245 0
M  V30 8903 C 859.002 -3.29286 1.10398 0
M  V30 8904 C 857.956 -3.67212 2.19862 0
M  V30 8905 C 857.282 -5.02377 1.8309 0
M  V30 8906 C 858.582 -3.76602 3.61896 0
M  V30 8907 H 860.276 -1.95683 2.26602 0
M  V30 8908 H 857.822 -0.94007 1.09081 0
M  V30 8909 H 859.775 -4.07721 1.06495 0
M  V30 8910 H 858.499 -3.26358 0.125668 0
M  V30 8911 H 857.158 -2.91069 2.22878 0
M  V30 8912 H 856.806 -4.95961 0.838527 0
M  V30 8913 H 856.506 -5.28722 2.56372 0
M  V30 8914 H 858.03 -5.8324 1.80729 0
M  V30 8915 H 859.444 -4.45246 3.6115 0
M  V30 8916 H 857.841 -4.14425 4.34018 0
M  V30 8917 H 858.911 -2.77906 3.97361 0
M  V30 8918 N 860.254 -1.20106 -1.0204 0
M  V30 8919 C 861.186 -0.904236 -2.10609 0
M  V30 8920 C 862.199 0.106487 -1.62451 0
M  V30 8921 O 863.388 -0.124035 -1.78069 0
M  V30 8922 C 860.488 -0.333423 -3.37256 0
M  V30 8923 C 859.661 -1.39476 -4.14566 0
M  V30 8924 C 858.72 -0.835961 -5.19517 0
M  V30 8925 O 857.746 -1.51573 -5.48648 0
M  V30 8926 N 858.948 0.356531 -5.79404 0
M  V30 8927 H 861.713 -1.8388 -2.36661 0
M  V30 8928 H 859.274 -1.10422 -1.184 0
M  V30 8929 H 861.266 0.0544571 -4.04663 0
M  V30 8930 H 859.836 0.505608 -3.08484 0
M  V30 8931 H 859.056 -1.95714 -3.42184 0
M  V30 8932 H 860.344 -2.10967 -4.63001 0
M  V30 8933 H 859.742 0.926143 -5.58067 0
M  V30 8934 H 858.299 0.686093 -6.48179 0
M  V30 8935 N 861.732 1.21287 -1.00634 0
M  V30 8936 C 862.98 1.90013 -0.688438 0
M  V30 8937 C 863.301 1.78573 0.783365 0
M  V30 8938 O 862.571 1.1815 1.56261 0
M  V30 8939 H 861.151 0.703336 -0.251648 0
M  V30 8940 H 863.813 1.47346 -1.27574 0
M  V30 8941 H 862.909 2.96879 -0.962781 0
M  V30 8942 N 863.21 0.781244 1.36873 0
M  V30 8943 C 864.173 0.180094 2.28491 0
M  V30 8944 C 865.173 -0.617798 1.48458 0
M  V30 8945 O 866.363 -0.439991 1.68552 0
M  V30 8946 C 863.495 -0.751741 3.32508 0
M  V30 8947 H 864.688 0.987837 2.83164 0
M  V30 8948 H 862.241 0.550102 1.463 0
M  V30 8949 H 862.976 -1.58413 2.82977 0
M  V30 8950 H 862.761 -0.181649 3.91679 0
M  V30 8951 H 864.251 -1.16748 4.00949 0
M  V30 8952 N 864.689 -1.48329 0.532571 0
M  V30 8953 C 865.938 -2.017 -0.00259705 0
M  V30 8954 C 866.251 -1.41469 -1.35077 0
M  V30 8955 O 867.457 -1.86354 -1.97445 0
M  V30 8956 C 865.913 -3.59858 -0.0550179 0
M  V30 8957 C 865.521 -4.29073 1.28842 0
M  V30 8958 C 867.265 -4.21066 -0.538878 0
M  V30 8959 C 865.172 -5.79171 1.19644 0
M  V30 8960 H 864.102 -0.753985 -0.00474081 0
M  V30 8961 H 866.753 -1.70565 0.676739 0
M  V30 8962 H 865.135 -3.87846 -0.799486 0
M  V30 8963 H 866.309 -4.12755 2.04865 0
M  V30 8964 H 864.624 -3.79748 1.70822 0
M  V30 8965 H 867.221 -5.31026 -0.6257 0
M  V30 8966 H 867.564 -3.86559 -1.54525 0
M  V30 8967 H 868.097 -3.97517 0.149984 0
M  V30 8968 H 864.836 -6.18257 2.17805 0
M  V30 8969 H 864.356 -5.97895 0.477609 0
M  V30 8970 H 866.035 -6.40875 0.888186 0
M  V30 8971 N 866.167 -0.267825 -1.55308 0
M  V30 8972 C 867.13 0.60965 -2.20943 0
M  V30 8973 C 868.13 1.0869 -1.18504 0
M  V30 8974 O 869.32 0.988248 -1.43455 0
M  V30 8975 C 866.452 1.84027 -2.86961 0
M  V30 8976 H 867.645 0.0366806 -2.99878 0
M  V30 8977 H 865.198 -0.0183941 -1.56289 0
M  V30 8978 H 865.933 2.45394 -2.1202 0
M  V30 8979 H 865.718 1.50605 -3.62023 0
M  V30 8980 H 867.208 2.46442 -3.37129 0
M  V30 8981 N 867.645 1.57599 0.00500368 0
M  V30 8982 C 868.592 2.08106 0.998025 0
M  V30 8983 C 869.562 0.975374 1.34446 0
M  V30 8984 O 870.747 1.24749 1.44369 0
M  V30 8985 C 867.887 2.58496 2.28635 0
M  V30 8986 C 867 3.82947 1.99939 0
M  V30 8987 C 866.135 4.21857 3.22816 0
M  V30 8988 C 865.174 5.39159 2.89783 0
M  V30 8989 N 864.311 5.73386 4.05183 0
M  V30 8990 H 869.151 2.92684 0.560385 0
M  V30 8991 H 866.688 1.44692 0.265053 0
M  V30 8992 H 868.646 2.85787 3.03943 0
M  V30 8993 H 867.276 1.768 2.70077 0
M  V30 8994 H 866.328 3.62594 1.1502 0
M  V30 8995 H 867.64 4.68358 1.71588 0
M  V30 8996 H 866.794 4.50404 4.06474 0
M  V30 8997 H 865.533 3.35145 3.54301 0
M  V30 8998 H 864.538 5.1034 2.04532 0
M  V30 8999 H 865.763 6.27543 2.59551 0
M  V30 9000 H 863.709 4.89632 4.36574 0
M  V30 9001 H 863.626 6.53359 3.80339 0
M  V30 9002 H 864.894 6.06522 4.89644 0
M  V30 9003 N 869.123 -0.277682 1.55134 0
M  V30 9004 C 870.348 -1.03254 1.7987 0
M  V30 9005 C 870.773 -1.79324 0.567861 0
M  V30 9006 O 870.131 -1.74764 -0.4824 0
M  V30 9007 C 870.179 -1.9705 3.02 0
M  V30 9008 O 869.283 -3.05744 2.76757 0
M  V30 9009 H 868.624 -0.295447 0.594649 0
M  V30 9010 H 871.154 -0.308013 2.02268 0
M  V30 9011 H 871.164 -2.3909 3.30606 0
M  V30 9012 H 869.839 -1.41094 3.91236 0
M  V30 9013 H 868.416 -2.68052 2.59235 0
M  V30 9014 N 870.601 -1.47988 -0.541979 0
M  V30 9015 C 871.831 -1.58804 -1.32155 0
M  V30 9016 C 872.239 -0.242893 -1.87634 0
M  V30 9017 O 871.582 0.776239 -1.66494 0
M  V30 9018 C 871.644 -2.56567 -2.51821 0
M  V30 9019 C 871.308 -4.01915 -2.17517 0
M  V30 9020 C 872.305 -4.89954 -1.73901 0
M  V30 9021 C 869.99 -4.47365 -2.28408 0
M  V30 9022 C 871.984 -6.21467 -1.41625 0
M  V30 9023 C 869.671 -5.78902 -1.95745 0
M  V30 9024 C 870.669 -6.65775 -1.52423 0
M  V30 9025 O 870.357 -7.94866 -1.20183 0
M  V30 9026 H 870.089 -0.538536 -0.408601 0
M  V30 9027 H 872.643 -1.94446 -0.661818 0
M  V30 9028 H 870.873 -2.16023 -3.20735 0
M  V30 9029 H 872.562 -2.57347 -3.13891 0
M  V30 9030 H 873.328 -4.56082 -1.64966 0
M  V30 9031 H 869.207 -3.79942 -2.61084 0
M  V30 9032 H 872.751 -6.8923 -1.07738 0
M  V30 9033 H 868.648 -6.12311 -2.04316 0
M  V30 9034 H 869.416 -8.07509 -1.33683 0
M  V30 9035 N 872.079 0.78992 -1.36375 0
M  V30 9036 C 873.304 1.58389 -1.33895 0
M  V30 9037 C 873.729 1.8794 0.0774934 0
M  V30 9038 O 873.087 1.4785 1.0493 0
M  V30 9039 C 873.135 2.88201 -2.16732 0
M  V30 9040 O 872.239 3.81778 -1.55946 0
M  V30 9041 H 871.58 0.480471 -0.458305 0
M  V30 9042 H 874.11 0.979119 -1.79651 0
M  V30 9043 H 874.12 3.37475 -2.29292 0
M  V30 9044 H 872.795 2.66019 -3.19698 0
M  V30 9045 H 871.372 3.40371 -1.52323 0
M  V30 9046 N 873.557 1.20646 1.01402 0
M  V30 9047 C 874.782 1.04462 1.79172 0
M  V30 9048 C 875.207 -0.401588 1.83763 0
M  V30 9049 O 874.565 -1.28934 1.27459 0
M  V30 9050 C 874.613 1.63583 3.21361 0
M  V30 9051 O 873.717 0.875198 4.03006 0
M  V30 9052 H 873.058 0.368235 0.552539 0
M  V30 9053 H 875.588 1.59994 1.27526 0
M  V30 9054 H 875.598 1.67426 3.72065 0
M  V30 9055 H 874.273 2.68835 3.17334 0
M  V30 9056 H 872.85 0.911172 3.61597 0
M  V30 9057 N 875.035 -1.20752 1.01276 0
M  V30 9058 C 875.982 -2.234 0.579732 0
M  V30 9059 C 876.952 -1.61256 -0.398206 0
M  V30 9060 O 878.137 -1.8845 -0.29851 0
M  V30 9061 C 875.277 -3.45008 -0.0797006 0
M  V30 9062 C 874.39 -4.21597 0.942343 0
M  V30 9063 C 873.525 -5.30591 0.254364 0
M  V30 9064 C 872.564 -5.98919 1.26343 0
M  V30 9065 N 871.701 -6.99511 0.602384 0
M  V30 9066 H 876.541 -2.59801 1.45971 0
M  V30 9067 H 874.078 -1.27663 0.730787 0
M  V30 9068 H 876.036 -4.1444 -0.479125 0
M  V30 9069 H 874.666 -3.09312 -0.923354 0
M  V30 9070 H 873.718 -3.51268 1.45996 0
M  V30 9071 H 875.03 -4.68576 1.70992 0
M  V30 9072 H 874.184 -6.06368 -0.200763 0
M  V30 9073 H 872.923 -4.84639 -0.545553 0
M  V30 9074 H 871.928 -5.21906 1.72898 0
M  V30 9075 H 873.153 -6.46957 2.06456 0
M  V30 9076 H 871.099 -6.55759 -0.177734 0
M  V30 9077 H 871.016 -7.44597 1.30809 0
M  V30 9078 H 872.284 -7.79313 0.17072 0
M  V30 9079 N 876.513 -0.788492 -1.36457 0
M  V30 9080 C 877.761 -0.359749 -1.98872 0
M  V30 9081 C 878.082 1.07197 -1.62892 0
M  V30 9082 O 877.352 1.73875 -0.902463 0
M  V30 9083 H 875.932 -0.130029 -0.735596 0
M  V30 9084 H 878.594 -1.01033 -1.66668 0
M  V30 9085 H 877.69 -0.450835 -3.08827 0
M  V30 9086 N 877.991 1.48044 -0.54043 0
M  V30 9087 C 878.923 2.2779 0.253854 0
M  V30 9088 C 879.936 1.35999 0.894883 0
M  V30 9089 O 881.125 1.60963 0.771563 0
M  V30 9090 C 878.225 3.09724 1.37566 0
M  V30 9091 C 877.398 4.29364 0.83459 0
M  V30 9092 C 876.457 4.93026 1.83881 0
M  V30 9093 O 875.483 5.51927 1.39159 0
M  V30 9094 N 876.685 4.86207 3.17149 0
M  V30 9095 H 879.45 2.96597 -0.430125 0
M  V30 9096 H 877.011 1.57487 -0.375423 0
M  V30 9097 H 879.003 3.49181 2.04584 0
M  V30 9098 H 877.573 2.43269 1.96314 0
M  V30 9099 H 876.793 3.94198 -0.0118878 0
M  V30 9100 H 878.081 5.06787 0.452155 0
M  V30 9101 H 877.479 4.39523 3.56141 0
M  V30 9102 H 876.036 5.29733 3.79771 0
M  V30 9103 N 879.47 0.276058 1.55163 0
M  V30 9104 C 880.747 -0.392292 1.91626 0
M  V30 9105 C 881.127 -1.73646 1.20043 0
M  V30 9106 O 880.475 -2.26139 0.327606 0
M  V30 9107 C 880.685 -0.531641 3.44927 0
M  V30 9108 C 882.033 -0.8141 4.16722 0
M  V30 9109 O 883.057 -0.616413 3.50826 0
M  V30 9110 O 881.916 -1.19224 5.33337 0
M  V30 9111 H 879.01 -0.214945 0.798579 0
M  V30 9112 H 881.556 0.32228 1.66612 0
M  V30 9113 H 880.328 0.414282 3.89101 0
M  V30 9114 H 879.951 -1.29564 3.75897 0
M  V30 9115 N 880.948 -1.576 0.00335426 0
M  V30 9116 C 881.878 -2.11668 -0.985839 0
M  V30 9117 C 882.859 -1.02661 -1.35627 0
M  V30 9118 O 884.044 -1.30361 -1.43943 0
M  V30 9119 C 881.174 -2.62273 -2.27662 0
M  V30 9120 C 880.128 -3.75837 -2.0477 0
M  V30 9121 C 879.454 -4.12769 -3.39891 0
M  V30 9122 C 880.754 -5.02975 -1.40759 0
M  V30 9123 H 882.448 -2.9457 -0.535637 0
M  V30 9124 H 879.994 -1.41702 -0.256204 0
M  V30 9125 H 881.947 -2.98727 -2.97221 0
M  V30 9126 H 880.671 -1.76498 -2.74802 0
M  V30 9127 H 879.33 -3.39782 -1.37636 0
M  V30 9128 H 878.978 -3.24013 -3.8474 0
M  V30 9129 H 878.678 -4.89281 -3.25389 0
M  V30 9130 H 880.202 -4.51784 -4.1076 0
M  V30 9131 H 881.616 -5.37179 -2.00279 0
M  V30 9132 H 880.013 -5.84315 -1.36734 0
M  V30 9133 H 881.083 -4.83431 -0.377218 0
M  V30 9134 N 882.426 0.269451 -1.5528 0
M  V30 9135 C 883.672 1.00206 -1.76314 0
M  V30 9136 C 884.005 1.85812 -0.564581 0
M  V30 9137 O 883.28 1.89509 0.437769 0
M  V30 9138 C 883.563 1.88163 -3.07029 0
M  V30 9139 C 883.416 1.05527 -4.37246 0
M  V30 9140 C 884.735 2.8681 -3.33808 0
M  V30 9141 H 881.854 0.36288 -0.641473 0
M  V30 9142 H 884.496 0.274188 -1.88011 0
M  V30 9143 H 882.646 2.50224 -2.97187 0
M  V30 9144 H 884.318 0.455094 -4.5905 0
M  V30 9145 H 882.561 0.358842 -4.32313 0
M  V30 9146 H 883.232 1.70397 -5.25042 0
M  V30 9147 H 885.708 2.34884 -3.43466 0
M  V30 9148 H 884.584 3.45492 -4.26528 0
M  V30 9149 H 884.845 3.62118 -2.5362 0
M  V30 9150 N 883.904 1.48273 0.534124 0
M  V30 9151 C 884.814 1.65162 1.66609 0
M  V30 9152 C 885.83 0.534177 1.65598 0
M  V30 9153 O 887.006 0.804715 1.84625 0
M  V30 9154 C 884.071 1.68354 3.03081 0
M  V30 9155 C 883.132 2.91696 3.1498 0
M  V30 9156 C 882.365 2.94725 4.44941 0
M  V30 9157 O 882.588 2.06285 5.31792 0
M  V30 9158 O 881.522 3.8685 4.61119 0
M  V30 9159 H 885.348 2.60991 1.55298 0
M  V30 9160 H 882.933 1.31626 0.706749 0
M  V30 9161 H 884.815 1.72998 3.84252 0
M  V30 9162 H 883.49 0.756978 3.14725 0
M  V30 9163 H 882.397 2.92586 2.33119 0
M  V30 9164 H 883.73 3.83722 3.0825 0
M  V30 9165 N 885.382 -0.782676 1.36792 0
M  V30 9166 C 886.798 -1.08169 1.17352 0
M  V30 9167 C 886.998 -2.015 0.0022037 0
M  V30 9168 O 886.054 -2.43692 -0.661093 0
M  V30 9169 C 887.367 -1.68969 2.48737 0
M  V30 9170 C 888.915 -1.81278 2.55161 0
M  V30 9171 C 889.39 -2.45492 3.86649 0
M  V30 9172 N 890.881 -2.52954 3.88032 0
M  V30 9173 C 891.616 -3.03465 4.86515 0
M  V30 9174 N 891.112 -3.54232 5.95392 0
M  V30 9175 N 892.905 -3.02239 4.73928 0
M  V30 9176 H 885.056 -0.162757 2.11775 0
M  V30 9177 H 887.319 -0.134823 0.938364 0
M  V30 9178 H 887.025 -1.07859 3.34753 0
M  V30 9179 H 886.899 -2.68397 2.65034 0
M  V30 9180 H 889.286 -2.41524 1.69559 0
M  V30 9181 H 889.367 -0.806367 2.42758 0
M  V30 9182 H 889.011 -1.85889 4.7266 0
M  V30 9183 H 888.941 -3.46718 3.96351 0
M  V30 9184 H 891.432 -2.17014 3.09376 0
M  V30 9185 H 891.745 -3.91145 6.66503 0
M  V30 9186 H 890.09 -3.52366 5.99052 0
M  V30 9187 H 893.281 -2.61871 3.87996 0
M  V30 9188 H 893.454 -3.41295 5.50837 0
M  V30 9189 N 886.86 -1.21182 -1.00761 0
M  V30 9190 C 887.808 -0.965728 -2.11604 0
M  V30 9191 C 888.802 0.0861028 -1.69181 0
M  V30 9192 O 890.008 -0.0650558 -1.79882 0
M  V30 9193 H 886.383 -0.295023 -0.691712 0
M  V30 9194 H 888.354 -1.90667 -2.2954 0
M  V30 9195 C 887.103 -0.544164 -3.43415 0
M  V30 9196 H 886.426 -1.34515 -3.76491 0
M  V30 9197 H 887.866 -0.411268 -4.22001 0
M  V30 9198 C 886.325 0.744583 -3.28569 0
M  V30 9199 O 886.855 1.80078 -3.59075 0
M  V30 9200 N 885.061 0.710083 -2.81791 0
M  V30 9201 H 884.608 -0.14971 -2.57165 0
M  V30 9202 H 884.566 1.57268 -2.72239 0
M  V30 9203 N 888.338 1.20213 -1.01915 0
M  V30 9204 C 889.584 1.90203 -0.720724 0
M  V30 9205 C 889.939 1.77526 0.74178 0
M  V30 9206 O 889.232 1.15037 1.53222 0
M  V30 9207 C 889.426 3.40232 -1.09438 0
M  V30 9208 C 889.255 3.67509 -2.59167 0
M  V30 9209 C 888.025 3.86082 -3.25989 0
M  V30 9210 C 890.223 3.69863 -3.5736 0
M  V30 9211 N 888.205 4.009 -4.64922 0
M  V30 9212 C 889.576 3.90136 -4.81865 0
M  V30 9213 C 891.631 3.52839 -3.51296 0
M  V30 9214 C 890.334 3.9515 -6.0104 0
M  V30 9215 C 892.36 3.59125 -4.69875 0
M  V30 9216 C 891.722 3.79874 -5.93191 0
M  V30 9217 H 887.821 0.715556 -0.315442 0
M  V30 9218 H 890.405 1.44538 -1.30449 0
M  V30 9219 H 888.576 3.84643 -0.538933 0
M  V30 9220 H 890.308 3.97704 -0.74923 0
M  V30 9221 H 887.063 3.84569 -2.76413 0
M  V30 9222 H 887.487 4.12181 -5.37062 0
M  V30 9223 H 892.129 3.35762 -2.56951 0
M  V30 9224 H 889.847 4.11022 -6.95763 0
M  V30 9225 H 893.433 3.47257 -4.66802 0
M  V30 9226 H 892.313 3.846 -6.83412 0
M  V30 9227 N 889.816 0.795718 1.36037 0
M  V30 9228 C 890.748 0.156336 2.28666 0
M  V30 9229 C 891.761 -0.638075 1.49775 0
M  V30 9230 O 892.95 -0.472222 1.7214 0
M  V30 9231 C 890.05 -0.801417 3.29288 0
M  V30 9232 C 889.223 -0.0557118 4.37365 0
M  V30 9233 C 888.282 -0.930338 5.1791 0
M  V30 9234 O 887.308 -0.385266 5.67895 0
M  V30 9235 N 888.51 -2.25382 5.34961 0
M  V30 9236 H 891.275 0.952033 2.84177 0
M  V30 9237 H 888.836 0.650189 1.48271 0
M  V30 9238 H 890.828 -1.39051 3.80062 0
M  V30 9239 H 889.398 -1.49796 2.74372 0
M  V30 9240 H 888.618 0.714508 3.87671 0
M  V30 9241 H 889.906 0.458633 5.06729 0
M  V30 9242 H 889.304 -2.72073 4.95977 0
M  V30 9243 H 887.861 -2.79241 5.88955 0
M  V30 9244 N 891.294 -1.47756 0.548274 0
M  V30 9245 C 892.257 -2.28379 -0.193857 0
M  V30 9246 C 893.257 -1.36436 -0.850986 0
M  V30 9247 O 894.447 -1.59154 -0.70822 0
M  V30 9248 C 891.579 -3.15858 -1.28243 0
M  V30 9249 H 892.772 -2.95458 0.514231 0
M  V30 9250 H 890.325 -1.53298 0.304879 0
M  V30 9251 H 891.06 -2.5345 -2.0232 0
M  V30 9252 H 890.845 -3.83512 -0.816148 0
M  V30 9253 H 892.335 -3.76627 -1.80393 0
M  V30 9254 N 892.772 -0.284283 -1.55015 0
M  V30 9255 C 893.702 0.592663 -2.25853 0
M  V30 9256 C 894.683 1.15151 -1.25197 0
M  V30 9257 O 895.868 1.18395 -1.53936 0
M  V30 9258 C 892.998 1.77254 -2.98661 0
M  V30 9259 C 891.952 1.34482 -4.06323 0
M  V30 9260 C 891.278 2.60853 -4.66754 0
M  V30 9261 C 892.578 0.488288 -5.20013 0
M  V30 9262 H 894.272 0.00187041 -2.994 0
M  V30 9263 H 891.818 -0.000540402 -1.44 0
M  V30 9264 H 893.771 2.39199 -3.46932 0
M  V30 9265 H 892.495 2.38931 -2.22664 0
M  V30 9266 H 891.154 0.748519 -3.58877 0
M  V30 9267 H 890.802 3.20808 -3.87416 0
M  V30 9268 H 890.502 2.32942 -5.39455 0
M  V30 9269 H 892.026 3.23631 -5.1778 0
M  V30 9270 H 893.44 1.01298 -5.6428 0
M  V30 9271 H 891.837 0.303669 -5.99331 0
M  V30 9272 H 892.907 -0.490727 -4.8241 0
M  V30 9273 N 894.251 1.57596 -0.0117121 0
M  V30 9274 C 895.214 2.08089 0.960816 0
M  V30 9275 C 896.214 0.992519 1.26514 0
M  V30 9276 O 897.404 1.25475 1.20837 0
M  V30 9277 C 894.536 2.53217 2.28241 0
M  V30 9278 H 895.729 2.9529 0.523829 0
M  V30 9279 H 893.282 1.54508 0.235995 0
M  V30 9280 H 894.017 1.69294 2.76604 0
M  V30 9281 H 893.802 3.32714 2.0747 0
M  V30 9282 H 895.292 2.92568 2.97983 0
M  V30 9283 N 895.729 -0.261212 1.5542 0
M  V30 9284 C 896.659 -1.32712 1.92119 0
M  V30 9285 C 897.64 -1.50934 0.784406 0
M  V30 9286 O 898.825 -1.63781 1.04352 0
M  V30 9287 C 895.955 -2.68453 2.20341 0
M  V30 9288 C 894.909 -2.64947 3.36136 0
M  V30 9289 C 894.235 -4.04349 3.49865 0
M  V30 9290 C 895.535 -2.23182 4.72215 0
M  V30 9291 H 897.229 -1.02245 2.81401 0
M  V30 9292 H 894.775 -0.490406 1.35392 0
M  V30 9293 H 896.728 -3.43144 2.44603 0
M  V30 9294 H 895.452 -3.00527 1.27871 0
M  V30 9295 H 894.111 -1.92714 3.11861 0
M  V30 9296 H 893.759 -4.33665 2.5484 0
M  V30 9297 H 893.459 -4.02895 4.27726 0
M  V30 9298 H 894.983 -4.80761 3.76432 0
M  V30 9299 H 896.397 -2.87599 4.95943 0
M  V30 9300 H 894.794 -2.32867 5.53076 0
M  V30 9301 H 895.864 -1.18327 4.70241 0
M  V30 9302 N 897.207 -1.48554 -0.526253 0
M  V30 9303 C 898.17 -1.62868 -1.61266 0
M  V30 9304 C 899.17 -0.501762 -1.52771 0
M  V30 9305 O 900.36 -0.76764 -1.56374 0
M  V30 9306 C 897.492 -1.60238 -3.00893 0
M  V30 9307 H 898.685 -2.59742 -1.49913 0
M  V30 9308 H 896.238 -1.37207 -0.748595 0
M  V30 9309 H 896.973 -0.648545 -3.17749 0
M  V30 9310 H 896.758 -2.42054 -3.08468 0
M  V30 9311 H 898.248 -1.73455 -3.79872 0
M  V30 9312 N 898.685 0.775411 -1.37205 0
M  V30 9313 C 900.101 1.07546 -1.17924 0
M  V30 9314 C 900.301 2.01496 -0.0128897 0
M  V30 9315 O 899.357 2.44039 0.64816 0
M  V30 9316 C 900.67 1.67647 -2.49629 0
M  V30 9317 C 902.218 1.79923 -2.56119 0
M  V30 9318 C 902.693 2.43438 -3.87946 0
M  V30 9319 N 904.184 2.50893 -3.89368 0
M  V30 9320 C 904.919 3.00881 -4.88117 0
M  V30 9321 N 904.415 3.5107 -5.97262 0
M  V30 9322 N 906.208 2.99722 -4.75524 0
M  V30 9323 H 898.359 0.151524 -2.11859 0
M  V30 9324 H 900.622 0.129845 -0.939066 0
M  V30 9325 H 900.328 1.06082 -3.3532 0
M  V30 9326 H 900.202 2.66988 -2.66453 0
M  V30 9327 H 902.589 2.40621 -1.70838 0
M  V30 9328 H 902.67 0.793482 -2.43182 0
M  V30 9329 H 902.314 1.8338 -4.73639 0
M  V30 9330 H 902.244 3.44611 -3.98184 0
M  V30 9331 H 904.735 2.1537 -3.10522 0
M  V30 9332 H 905.048 3.87604 -6.68568 0
M  V30 9333 H 903.393 3.49184 -6.00912 0
M  V30 9334 H 906.584 2.5981 -3.8938 0
M  V30 9335 H 906.757 3.38369 -5.52639 0
M  V30 9336 N 900.163 1.21714 1.00117 0
M  V30 9337 C 901.073 0.99597 2.12409 0
M  V30 9338 C 902.089 -0.0531431 1.73919 0
M  V30 9339 O 903.265 0.137757 2.00928 0
M  V30 9340 C 900.33 0.567593 3.42022 0
M  V30 9341 C 899.391 1.68936 3.94663 0
M  V30 9342 C 898.624 1.28133 5.1809 0
M  V30 9343 O 898.847 0.156574 5.70185 0
M  V30 9344 O 897.781 2.0947 5.64275 0
M  V30 9345 H 901.607 1.93657 2.33946 0
M  V30 9346 H 899.192 1.00236 1.10784 0
M  V30 9347 H 901.074 0.338664 4.20037 0
M  V30 9348 H 899.749 -0.34424 3.21864 0
M  V30 9349 H 898.656 1.97274 3.17858 0
M  V30 9350 H 899.989 2.57876 4.19238 0
M  V30 9351 N 901.641 -1.19671 1.02551 0
M  V30 9352 C 902.866 -1.93774 0.739363 0
M  V30 9353 C 903.291 -1.74787 -0.695064 0
M  V30 9354 O 902.649 -1.04796 -1.47944 0
M  V30 9355 C 902.697 -3.43684 1.09149 0
M  V30 9356 O 901.801 -4.11874 0.208213 0
M  V30 9357 H 901.142 -0.605064 0.273484 0
M  V30 9358 H 903.672 -1.51846 1.37128 0
M  V30 9359 H 903.682 -3.94339 1.04695 0
M  V30 9360 H 902.357 -3.56826 2.13654 0
M  V30 9361 H 900.934 -3.716 0.311045 0
M  V30 9362 N 903.119 -0.802921 -1.35613 0
M  V30 9363 C 904.365 -0.382141 -1.99167 0
M  V30 9364 C 904.698 1.04704 -1.63556 0
M  V30 9365 O 903.973 1.72578 -0.89706 0
M  V30 9366 C 904.256 -0.561493 -3.55695 0
M  V30 9367 C 904.109 -2.03534 -4.01116 0
M  V30 9368 C 905.428 0.0151135 -4.40097 0
M  V30 9369 H 902.547 -0.140322 -0.723518 0
M  V30 9370 H 905.189 -1.01177 -1.6082 0
M  V30 9371 H 903.339 -0.0255083 -3.88492 0
M  V30 9372 H 905.011 -2.63343 -3.78746 0
M  V30 9373 H 903.254 -2.5331 -3.52159 0
M  V30 9374 H 903.925 -2.11173 -5.1001 0
M  V30 9375 H 906.401 -0.442582 -4.1374 0
M  V30 9376 H 905.277 -0.140316 -5.48721 0
M  V30 9377 H 905.538 1.10848 -4.27978 0
M  V30 9378 N 904.597 1.47463 -0.556102 0
M  V30 9379 C 905.507 2.33785 0.195378 0
M  V30 9380 C 906.523 1.48123 0.913 0
M  V30 9381 O 907.699 1.81053 0.882141 0
M  V30 9382 C 904.764 3.24795 1.21282 0
M  V30 9383 C 903.825 4.26346 0.502747 0
M  V30 9384 C 903.058 5.13007 1.47172 0
M  V30 9385 O 903.281 5.02103 2.70646 0
M  V30 9386 O 902.215 5.93588 0.996814 0
M  V30 9387 H 906.041 2.99341 -0.512676 0
M  V30 9388 H 903.626 1.46004 -0.31673 0
M  V30 9389 H 905.508 3.81015 1.80016 0
M  V30 9390 H 904.183 2.61868 1.90282 0
M  V30 9391 H 903.09 3.73889 -0.125757 0
M  V30 9392 H 904.423 4.91984 -0.145779 0
M  V30 9393 N 906.075 0.2925 1.54862 0
M  V30 9394 C 906.985 -0.597036 2.26876 0
M  V30 9395 C 908.001 -1.15558 1.30086 0
M  V30 9396 O 909.177 -1.18217 1.63054 0
M  V30 9397 C 906.242 -1.75664 2.98903 0
M  V30 9398 C 905.303 -1.23303 4.11212 0
M  V30 9399 C 904.536 -2.33736 4.79795 0
M  V30 9400 O 904.759 -3.53459 4.47686 0
M  V30 9401 O 903.693 -2.00908 5.67379 0
M  V30 9402 H 907.519 -0.0131242 3.03697 0
M  V30 9403 H 905.104 0.0592642 1.49282 0
M  V30 9404 H 906.986 -2.43241 3.4411 0
M  V30 9405 H 905.661 -2.32731 2.24984 0
M  V30 9406 H 904.568 -0.523222 3.70423 0
M  V30 9407 H 905.901 -0.707887 4.87083 0
M  V30 9408 N 907.553 -1.57587 0.0200696 0
M  V30 9409 C 908.799 -1.91708 -0.661503 0
M  V30 9410 C 909.132 -0.895968 -1.72296 0
M  V30 9411 O 908.407 0.082577 -1.94325 0
M  V30 9412 C 908.69 -3.36344 -1.28627 0
M  V30 9413 C 908.543 -4.49186 -0.234982 0
M  V30 9414 C 909.862 -3.80771 -2.20685 0
M  V30 9415 H 906.981 -0.69717 -0.239005 0
M  V30 9416 H 909.623 -1.8985 0.0754764 0
M  V30 9417 H 907.773 -3.38058 -1.91439 0
M  V30 9418 H 909.445 -4.59606 0.395011 0
M  V30 9419 H 907.688 -4.31557 0.440565 0
M  V30 9420 H 908.359 -5.47395 -0.711558 0
M  V30 9421 H 910.835 -3.80735 -1.67868 0
M  V30 9422 H 909.711 -4.82685 -2.61356 0
M  V30 9423 H 909.972 -3.15764 -3.09428 0
M  V30 9424 N 909.032 0.252966 -1.55557 0
M  V30 9425 C 910.443 0.822503 -1.67606 0
M  V30 9426 C 910.794 1.86265 -0.616411 0
M  V30 9427 O 909.919 2.15082 0.238447 0
M  V30 9428 C 910.514 1.49866 -3.03852 0
M  V30 9429 C 909.073 2.01597 -3.17861 0
M  V30 9430 C 908.22 0.864943 -2.63465 0
M  V30 9431 H 911.171 0.0288958 -1.58674 0
M  V30 9432 H 911.192 2.36646 -2.97958 0
M  V30 9433 H 910.704 0.741378 -3.80953 0
M  V30 9434 H 908.805 2.80224 -2.45571 0
M  V30 9435 H 908.918 2.21752 -4.24692 0
M  V30 9436 H 907.282 1.2638 -2.21134 0
M  V30 9437 H 908.065 0.120847 -3.43087 0
M  V30 9438 N 910.51 1.48831 0.518367 0
M  V30 9439 C 911.44 1.67119 1.63075 0
M  V30 9440 C 912.421 0.519948 1.61958 0
M  V30 9441 O 913.606 0.753824 1.78972 0
M  V30 9442 C 910.736 1.72158 3.01627 0
M  V30 9443 C 909.69 2.86898 3.17606 0
M  V30 9444 C 909.016 2.77035 4.57335 0
M  V30 9445 C 910.316 4.28057 2.99274 0
M  V30 9446 H 912.01 2.60248 1.48025 0
M  V30 9447 H 909.556 1.2524 0.710694 0
M  V30 9448 H 911.509 1.83539 3.7933 0
M  V30 9449 H 910.233 0.756157 3.17726 0
M  V30 9450 H 908.892 2.75091 2.42323 0
M  V30 9451 H 908.54 1.78438 4.70286 0
M  V30 9452 H 908.24 3.54036 4.6897 0
M  V30 9453 H 909.764 2.904 5.37122 0
M  V30 9454 H 911.178 4.40636 3.6676 0
M  V30 9455 H 909.575 5.06145 3.22393 0
M  V30 9456 H 910.645 4.4371 1.95574 0
M  V30 9457 N 911.988 -0.768124 1.37614 0
M  V30 9458 C 912.92 -1.89076 1.29548 0
M  V30 9459 C 913.933 -1.61433 0.21056 0
M  V30 9460 O 915.122 -1.72283 0.466992 0
M  V30 9461 C 912.222 -3.24388 0.981102 0
M  V30 9462 C 911.395 -3.79649 2.17222 0
M  V30 9463 C 910.454 -4.93444 1.82754 0
M  V30 9464 O 909.48 -5.0884 2.5509 0
M  V30 9465 N 910.682 -5.75319 0.773819 0
M  V30 9466 H 913.447 -1.9651 2.26283 0
M  V30 9467 H 911.008 -0.947399 1.31286 0
M  V30 9468 H 913 -3.98038 0.731301 0
M  V30 9469 H 911.57 -3.12433 0.102203 0
M  V30 9470 H 910.79 -2.97735 2.58355 0
M  V30 9471 H 912.078 -4.13302 2.96748 0
M  V30 9472 H 911.476 -5.65433 0.173644 0
M  V30 9473 H 910.033 -6.4918 0.583882 0
M  V30 9474 N 913.466 -1.22244 -0.994698 0
M  V30 9475 C 914.877 -1.043 -1.5485 0
M  V30 9476 C 915.228 0.394102 -1.92201 0
M  V30 9477 O 914.353 1.27883 -1.74571 0
M  V30 9478 C 914.948 -1.88708 -2.8138 0
M  V30 9479 C 913.507 -1.75067 -3.3321 0
M  V30 9480 C 912.654 -1.85286 -2.06312 0
M  V30 9481 H 915.605 -1.36115 -0.815988 0
M  V30 9482 H 915.626 -1.40342 -3.53673 0
M  V30 9483 H 915.138 -2.93296 -2.54164 0
M  V30 9484 H 913.239 -0.732047 -3.65338 0
M  V30 9485 H 913.352 -2.57632 -4.03934 0
M  V30 9486 H 911.716 -1.28706 -2.19788 0
M  V30 9487 H 912.499 -2.91401 -1.81494 0
M  V30 9488 N 914.944 1.19125 -1.03184 0
M  V30 9489 C 916.19 1.89163 -0.731111 0
M  V30 9490 C 916.523 1.79604 0.738662 0
M  V30 9491 O 915.798 1.19037 1.53819 0
M  V30 9492 C 916.081 3.39986 -1.18666 0
M  V30 9493 C 915.934 3.58401 -2.71788 0
M  V30 9494 C 917.253 4.33316 -0.769772 0
M  V30 9495 H 914.372 0.686908 -0.267069 0
M  V30 9496 H 917.014 1.40205 -1.28229 0
M  V30 9497 H 915.164 3.81813 -0.717736 0
M  V30 9498 H 916.836 3.25727 -3.26649 0
M  V30 9499 H 915.079 3.01355 -3.12038 0
M  V30 9500 H 915.75 4.64189 -2.98719 0
M  V30 9501 H 918.226 3.9922 -1.17314 0
M  V30 9502 H 917.102 5.37427 -1.11637 0
M  V30 9503 H 917.363 4.40884 0.327681 0
M  V30 9504 N 916.422 0.810101 1.35185 0
M  V30 9505 C 917.37 0.211071 2.3164 0
M  V30 9506 C 918.364 -0.641109 1.568 0
M  V30 9507 O 919.57 -0.533881 1.719 0
M  V30 9508 H 915.945 0.0494978 0.750369 0
M  V30 9509 H 917.916 1.03964 2.79703 0
M  V30 9510 C 916.665 -0.622933 3.42074 0
M  V30 9511 H 915.988 0.0234648 3.99793 0
M  V30 9512 H 917.428 -1.0084 4.11834 0
M  V30 9513 C 915.887 -1.78994 2.85417 0
M  V30 9514 O 916.417 -2.88758 2.79252 0
M  V30 9515 N 914.623 -1.60259 2.42416 0
M  V30 9516 H 914.17 -0.70974 2.4763 0
M  V30 9517 H 914.128 -2.38498 2.04857 0
M  V30 9518 N 917.9 -1.47166 0.563914 0
M  V30 9519 C 919.311 -1.86231 0.132307 0
M  V30 9520 C 919.662 -1.46976 -1.29971 0
M  V30 9521 O 918.787 -0.875911 -1.97881 0
M  V30 9522 C 919.382 -3.37996 0.233335 0
M  V30 9523 C 917.941 -3.76127 -0.143278 0
M  V30 9524 C 917.088 -2.71212 0.577857 0
M  V30 9525 H 920.039 -1.38588 0.773249 0
M  V30 9526 H 920.06 -3.76558 -0.546309 0
M  V30 9527 H 919.572 -3.66535 1.27568 0
M  V30 9528 H 917.673 -3.53205 -1.18648 0
M  V30 9529 H 917.786 -4.78595 0.219952 0
M  V30 9530 H 916.15 -2.54692 0.020186 0
M  V30 9531 H 916.933 -3.02593 1.62149 0
M  V30 9532 N 919.378 -0.300708 -1.54705 0
M  V30 9533 C 920.328 0.590589 -2.20218 0
M  V30 9534 C 921.312 1.09913 -1.17507 0
M  V30 9535 O 922.504 1.03995 -1.43227 0
M  V30 9536 C 919.633 1.76214 -2.94625 0
M  V30 9537 C 918.719 1.26957 -4.04651 0
M  V30 9538 N 919.11 0.494982 -5.03372 0
M  V30 9539 C 917.408 1.55033 -4.18188 0
M  V30 9540 C 918.109 0.232724 -5.81234 0
M  V30 9541 N 917.085 0.812443 -5.37494 0
M  V30 9542 H 920.887 -0.00876354 -2.93899 0
M  V30 9543 H 918.401 -0.105456 -1.62057 0
M  V30 9544 H 920.398 2.41221 -3.40027 0
M  V30 9545 H 919.058 2.36519 -2.22461 0
M  V30 9546 H 920.069 0.13991 -5.17711 0
M  V30 9547 H 916.746 2.16089 -3.57228 0
M  V30 9548 H 918.136 -0.389362 -6.70771 0
M  V30 9549 N 920.856 1.57574 -0.0284266 0
M  V30 9550 C 922.081 1.96479 0.664137 0
M  V30 9551 C 922.506 0.904826 1.64908 0
M  V30 9552 O 921.864 -0.134339 1.80802 0
M  V30 9553 C 921.912 3.34479 1.34745 0
M  V30 9554 O 921.016 3.30794 2.46271 0
M  V30 9555 H 920.357 0.640654 0.174524 0
M  V30 9556 H 922.887 2.04402 -0.0900729 0
M  V30 9557 H 922.897 3.70694 1.7044 0
M  V30 9558 H 921.572 4.1117 0.625468 0
M  V30 9559 H 920.149 3.06294 2.12693 0
M  V30 9560 N 922.334 -0.244713 1.55689 0
M  V30 9561 C 923.297 -1.2864 1.89695 0
M  V30 9562 C 924.297 -1.40969 0.773583 0
M  V30 9563 O 925.487 -1.39632 1.04156 0
M  V30 9564 C 922.619 -2.66379 2.12732 0
M  V30 9565 H 923.812 -0.997033 2.82841 0
M  V30 9566 H 921.365 -0.484103 1.48614 0
M  V30 9567 H 922.1 -3.00452 1.22062 0
M  V30 9568 H 921.885 -2.58812 2.94549 0
M  V30 9569 H 923.375 -3.41592 2.40218 0
M  V30 9570 N 923.813 -1.49104 -0.510467 0
M  V30 9571 C 924.761 -1.65547 -1.63392 0
M  V30 9572 C 925.755 -0.521522 -1.61172 0
M  V30 9573 O 926.961 -0.700865 -1.65795 0
M  V30 9574 H 923.336 -0.521843 -0.541464 0
M  V30 9575 H 925.307 -2.59864 -1.46673 0
M  V30 9576 C 924.056 -1.73051 -3.01577 0
M  V30 9577 H 923.379 -2.59676 -3.03987 0
M  V30 9578 H 924.819 -1.88594 -3.79748 0
M  V30 9579 C 923.278 -0.47328 -3.33559 0
M  V30 9580 O 923.808 0.405239 -3.99651 0
M  V30 9581 N 922.014 -0.339074 -2.88615 0
M  V30 9582 H 921.561 -1.05497 -2.35007 0
M  V30 9583 H 921.519 0.501061 -3.10382 0
M  V30 9584 N 925.291 0.760815 -1.38019 0
M  V30 9585 C 926.707 1.06289 -1.19058 0
M  V30 9586 C 926.907 2.01471 -0.0342603 0
M  V30 9587 O 925.963 2.44713 0.62224 0
M  V30 9588 C 927.276 1.6499 -2.51394 0
M  V30 9589 C 928.824 1.77196 -2.58013 0
M  V30 9590 C 929.299 2.3931 -3.90506 0
M  V30 9591 N 930.79 2.46749 -3.92007 0
M  V30 9592 C 931.525 2.95687 -4.91281 0
M  V30 9593 N 931.021 3.44715 -6.00952 0
M  V30 9594 N 932.814 2.94661 -4.78677 0
M  V30 9595 H 924.965 0.129045 -2.12008 0
M  V30 9596 H 927.228 0.119878 -0.94039 0
M  V30 9597 H 926.934 1.0252 -3.36426 0
M  V30 9598 H 926.808 2.64146 -2.6927 0
M  V30 9599 H 929.195 2.38796 -1.7338 0
M  V30 9600 H 929.276 0.767645 -2.4401 0
M  V30 9601 H 928.92 1.78346 -4.75558 0
M  V30 9602 H 928.85 3.40369 -4.01817 0
M  V30 9603 H 931.341 2.12064 -3.12789 0
M  V30 9604 H 931.654 3.80492 -6.72641 0
M  V30 9605 H 929.999 3.42791 -6.04582 0
M  V30 9606 H 933.19 2.55665 -3.92113 0
M  V30 9607 H 933.363 3.32489 -5.56197 0
M  V30 9608 N 926.769 1.22769 0.988202 0
M  V30 9609 C 928.18 1.0512 1.54294 0
M  V30 9610 C 928.531 -0.383904 1.92407 0
M  V30 9611 O 927.656 -1.26955 1.75246 0
M  V30 9612 C 928.251 1.90198 2.80375 0
M  V30 9613 C 926.81 1.76831 3.32276 0
M  V30 9614 C 925.957 1.86377 2.05326 0
M  V30 9615 H 928.908 1.36546 0.808758 0
M  V30 9616 H 928.929 1.42216 3.52923 0
M  V30 9617 H 928.441 2.9464 2.52605 0
M  V30 9618 H 926.542 0.751412 3.64945 0
M  V30 9619 H 926.655 2.59771 4.02562 0
M  V30 9620 H 925.019 1.2987 2.19103 0
M  V30 9621 H 925.802 2.9236 1.79946 0
M  V30 9622 N 928.247 -1.18576 1.03814 0
M  V30 9623 C 929.658 -1.70159 0.768299 0
M  V30 9624 C 930.009 -1.8286 -0.711106 0
M  V30 9625 O 929.134 -1.5063 -1.55369 0
M  V30 9626 C 929.729 -3.09062 1.38804 0
M  V30 9627 C 928.288 -3.57866 1.16656 0
M  V30 9628 C 927.435 -2.34484 1.48029 0
M  V30 9629 H 930.386 -1.03287 1.20488 0
M  V30 9630 H 930.407 -3.72211 0.7899 0
M  V30 9631 H 929.919 -2.99785 2.46476 0
M  V30 9632 H 928.02 -3.72442 0.108471 0
M  V30 9633 H 928.133 -4.41445 1.8618 0
M  V30 9634 H 926.497 -2.38273 0.899902 0
M  V30 9635 H 927.28 -2.27829 2.56805 0
M  V30 9636 N 929.725 -0.817259 -1.34754 0
M  V30 9637 C 930.971 -0.403244 -1.98751 0
M  V30 9638 C 931.304 1.02963 -1.64658 0
M  V30 9639 O 930.579 1.71617 -0.915314 0
M  V30 9640 C 930.862 -0.599188 -3.5508 0
M  V30 9641 C 930.715 -2.07777 -3.98934 0
M  V30 9642 C 932.034 -0.0315656 -4.40089 0
M  V30 9643 H 929.153 -0.147988 -0.721989 0
M  V30 9644 H 931.795 -1.02877 -1.59738 0
M  V30 9645 H 929.945 -0.0667116 -3.88443 0
M  V30 9646 H 931.617 -2.67345 -3.75931 0
M  V30 9647 H 929.86 -2.57031 -3.49453 0
M  V30 9648 H 930.531 -2.16571 -5.07741 0
M  V30 9649 H 933.007 -0.48644 -4.13247 0
M  V30 9650 H 931.883 -0.198507 -5.48541 0
M  V30 9651 H 932.144 1.06302 -4.2913 0
M  V30 9652 N 931.203 1.46865 -0.571711 0
M  V30 9653 C 932.449 2.0273 -0.0531858 0
M  V30 9654 C 932.782 1.44353 1.29907 0
M  V30 9655 O 932.057 0.604488 1.84868 0
M  V30 9656 C 932.34 3.60092 0.0243831 0
M  V30 9657 C 932.193 4.28874 -1.35599 0
M  V30 9658 C 933.512 4.33994 0.730563 0
M  V30 9659 H 930.631 0.736706 -0.0208018 0
M  V30 9660 H 933.273 1.75132 -0.736794 0
M  V30 9661 H 931.423 3.83736 0.606565 0
M  V30 9662 H 933.095 4.16527 -1.98249 0
M  V30 9663 H 931.338 3.88664 -1.92674 0
M  V30 9664 H 932.009 5.37561 -1.25429 0
M  V30 9665 H 934.485 4.1543 0.236098 0
M  V30 9666 H 933.361 5.43699 0.753836 0
M  V30 9667 H 933.622 4.04257 1.78967 0
M  V30 9668 N 932.681 0.308908 1.54543 0
M  V30 9669 C 933.906 -0.303196 2.05172 0
M  V30 9670 C 934.331 -1.46133 1.18434 0
M  V30 9671 O 933.689 -1.803 0.190162 0
M  V30 9672 C 933.737 -0.729526 3.53143 0
M  V30 9673 O 932.841 -1.83348 3.69401 0
M  V30 9674 H 932.182 -0.0575066 0.661505 0
M  V30 9675 H 934.712 0.453055 1.99521 0
M  V30 9676 H 934.722 -1.01619 3.95143 0
M  V30 9677 H 933.397 0.117622 4.15734 0
M  V30 9678 H 931.974 -1.54676 3.39308 0
M  V30 9679 N 934.159 -1.57557 0.0367827 0
M  V30 9680 C 935.436 -1.83427 -0.679261 0
M  V30 9681 C 935.816 -0.922274 -1.89888 0
M  V30 9682 O 935.164 0.02025 -2.28491 0
M  V30 9683 C 935.374 -3.32823 -1.05022 0
M  V30 9684 C 936.722 -3.99486 -1.43861 0
M  V30 9685 O 937.746 -3.37364 -1.14297 0
M  V30 9686 O 936.605 -5.0899 -1.98977 0
M  V30 9687 H 933.699 -0.756581 -0.333936 0
M  V30 9688 H 936.245 -1.69575 0.0650494 0
M  V30 9689 H 935.017 -3.90874 -0.182509 0
M  V30 9690 H 934.64 -3.5181 -1.85244 0
M  V30 9691 N 935.637 0.236453 -1.55816 0
M  V30 9692 C 936.6 1.27633 -1.90375 0
M  V30 9693 C 937.6 1.40557 -0.781048 0
M  V30 9694 O 938.79 1.39078 -1.04895 0
M  V30 9695 C 935.922 2.65247 -2.14142 0
M  V30 9696 H 937.115 0.982019 -2.83366 0
M  V30 9697 H 934.668 0.476215 -1.48869 0
M  V30 9698 H 935.403 2.99801 -1.23653 0
M  V30 9699 H 935.188 2.57246 -2.95917 0
M  V30 9700 H 936.678 3.40313 -2.42026 0
M  V30 9701 N 937.115 1.49373 0.502552 0
M  V30 9702 C 938.078 1.65413 1.58654 0
M  V30 9703 C 939.078 0.526003 1.51953 0
M  V30 9704 O 940.268 0.792421 1.55133 0
M  V30 9705 C 937.4 1.65005 2.98306 0
M  V30 9706 H 938.593 2.62095 1.45762 0
M  V30 9707 H 936.146 1.38381 0.726672 0
M  V30 9708 H 936.881 0.699014 3.16677 0
M  V30 9709 H 936.666 2.46931 3.04578 0
M  V30 9710 H 938.156 1.79477 3.77065 0
M  V30 9711 N 938.594 -0.753485 1.38421 0
M  V30 9712 C 940.005 -1.33081 1.30944 0
M  V30 9713 C 940.356 -1.96169 -0.0347124 0
M  V30 9714 O 939.481 -1.95073 -0.936768 0
M  V30 9715 C 940.076 -2.41973 2.37138 0
M  V30 9716 C 938.635 -2.95426 2.33239 0
M  V30 9717 C 937.782 -1.68808 2.19998 0
M  V30 9718 H 940.733 -0.552354 1.48777 0
M  V30 9719 H 940.754 -3.21913 2.02859 0
M  V30 9720 H 940.266 -1.96027 3.34956 0
M  V30 9721 H 938.367 -3.45701 1.39003 0
M  V30 9722 H 938.48 -3.49798 3.27381 0
M  V30 9723 H 936.844 -1.92438 1.66852 0
M  V30 9724 H 937.627 -1.24939 3.19758 0
M  V30 9725 N 940.072 -1.23292 -0.981677 0
M  V30 9726 C 941.349 -0.972514 -1.6971 0
M  V30 9727 C 941.729 0.509244 -2.04866 0
M  V30 9728 O 941.077 1.48013 -1.74082 0
M  V30 9729 C 941.287 -1.88144 -2.93943 0
M  V30 9730 C 942.635 -2.14416 -3.66485 0
M  V30 9731 O 943.659 -1.85684 -3.03974 0
M  V30 9732 O 942.518 -2.63139 -4.78978 0
M  V30 9733 H 939.612 -0.366673 -0.741269 0
M  V30 9734 H 942.158 -1.34328 -1.03701 0
M  V30 9735 H 940.93 -2.8832 -2.64551 0
M  V30 9736 H 940.553 -1.51296 -3.67689 0
M  V30 9737 N 941.55 1.18024 -1.04442 0
M  V30 9738 C 942.797 1.88098 -0.750022 0
M  V30 9739 C 943.125 1.80583 0.722489 0
M  V30 9740 O 942.38 1.20329 1.54335 0
M  V30 9741 C 942.679 3.37834 -1.16631 0
M  V30 9742 C 942.345 3.65553 -2.63974 0
M  V30 9743 C 941.007 3.72827 -3.04226 0
M  V30 9744 C 943.359 3.77634 -3.59224 0
M  V30 9745 C 940.687 3.89666 -4.38608 0
M  V30 9746 C 943.039 3.9599 -4.9333 0
M  V30 9747 C 941.703 4.01501 -5.33248 0
M  V30 9748 H 940.973 0.6883 -0.274452 0
M  V30 9749 H 943.62 1.39671 -1.31012 0
M  V30 9750 H 941.925 3.88266 -0.525071 0
M  V30 9751 H 943.622 3.90402 -0.915827 0
M  V30 9752 H 940.212 3.6051 -2.31798 0
M  V30 9753 H 944.396 3.71342 -3.2927 0
M  V30 9754 H 939.652 3.92178 -4.69048 0
M  V30 9755 H 943.826 4.0428 -5.67037 0
M  V30 9756 H 941.453 4.14301 -6.37384 0
M  V30 9757 N 943.028 0.824394 1.34319 0
M  V30 9758 C 944.274 0.413779 1.98534 0
M  V30 9759 C 944.607 -1.02089 1.65201 0
M  V30 9760 O 943.882 -1.71129 0.924402 0
M  V30 9761 C 944.165 0.61801 3.54757 0
M  V30 9762 C 944.018 2.0989 3.97827 0
M  V30 9763 C 945.337 0.0549041 4.40066 0
M  V30 9764 H 942.456 0.151815 0.721194 0
M  V30 9765 H 945.098 1.03723 1.5919 0
M  V30 9766 H 943.248 0.0873107 3.88402 0
M  V30 9767 H 944.92 2.69335 3.74508 0
M  V30 9768 H 943.163 2.58881 3.48085 0
M  V30 9769 H 943.834 2.1926 5.06586 0
M  V30 9770 H 946.31 0.508348 4.12983 0
M  V30 9771 H 945.186 0.227595 5.48428 0
M  V30 9772 H 945.447 -1.04025 4.29687 0
M  V30 9773 N 944.506 -1.46559 0.579492 0
M  V30 9774 C 945.453 -2.30275 -0.155598 0
M  V30 9775 C 946.423 -1.40422 -0.887175 0
M  V30 9776 O 947.608 -1.69373 -0.878481 0
M  V30 9777 C 944.748 -3.24827 -1.16539 0
M  V30 9778 C 943.861 -4.29778 -0.43759 0
M  V30 9779 C 942.996 -5.11461 -1.43462 0
M  V30 9780 C 942.035 -6.08164 -0.693048 0
M  V30 9781 N 941.172 -6.82726 -1.63799 0
M  V30 9782 H 946.012 -2.92607 0.564356 0
M  V30 9783 H 943.549 -1.44211 0.290126 0
M  V30 9784 H 945.507 -3.78088 -1.76368 0
M  V30 9785 H 944.137 -2.64311 -1.8531 0
M  V30 9786 H 943.189 -3.794 0.27567 0
M  V30 9787 H 944.501 -4.98597 0.142298 0
M  V30 9788 H 943.655 -5.68982 -2.1058 0
M  V30 9789 H 942.394 -4.42595 -2.04844 0
M  V30 9790 H 941.399 -5.49799 -0.00807093 0
M  V30 9791 H 942.624 -6.79047 -0.0846678 0
M  V30 9792 H 940.57 -6.16572 -2.23997 0
M  V30 9793 H 940.487 -7.47795 -1.11082 0
M  V30 9794 H 941.755 -7.44807 -2.29962 0
M  V30 9795 N 945.984 -0.3171 -1.54377 0
M  V30 9796 C 947.212 0.289558 -2.04864 0
M  V30 9797 C 947.627 1.46284 -1.19359 0
M  V30 9798 O 946.984 1.81135 -0.222795 0
M  V30 9799 C 947.035 0.730273 -3.54047 0
M  V30 9800 O 946.756 -0.396325 -4.36304 0
M  V30 9801 C 948.257 1.40041 -4.20599 0
M  V30 9802 H 945.477 0.0605836 -0.668259 0
M  V30 9803 H 948.021 -0.461411 -1.99227 0
M  V30 9804 H 946.176 1.43123 -3.59992 0
M  V30 9805 H 946.59 -0.0502901 -5.24476 0
M  V30 9806 H 948.064 1.65979 -5.26455 0
M  V30 9807 H 948.541 2.34565 -3.71316 0
M  V30 9808 H 949.147 0.742206 -4.18774 0
M  V30 9809 N 947.462 1.57535 -0.0451378 0
M  V30 9810 C 948.708 1.92736 0.630921 0
M  V30 9811 C 949.041 0.923265 1.70849 0
M  V30 9812 O 948.316 -0.0516512 1.94431 0
M  V30 9813 C 948.599 3.38348 1.23259 0
M  V30 9814 C 948.452 4.49503 0.16349 0
M  V30 9815 C 949.771 3.84233 2.14599 0
M  V30 9816 H 946.89 0.700884 0.227883 0
M  V30 9817 H 949.532 1.89706 -0.10567 0
M  V30 9818 H 947.682 3.41061 1.86037 0
M  V30 9819 H 949.354 4.58919 -0.46808 0
M  V30 9820 H 947.597 4.30802 -0.509166 0
M  V30 9821 H 948.268 5.48457 0.624382 0
M  V30 9822 H 950.744 3.83358 1.6179 0
M  V30 9823 H 949.62 4.86781 2.53644 0
M  V30 9824 H 949.881 3.20646 3.04366 0
M  V30 9825 N 948.94 -0.228186 1.55939 0
M  V30 9826 C 950.168 -0.970618 1.8272 0
M  V30 9827 C 950.583 -1.78212 0.623385 0
M  V30 9828 O 949.94 -1.77879 -0.408063 0
M  V30 9829 C 949.991 -1.89352 3.07942 0
M  V30 9830 O 949.712 -1.11483 4.23678 0
M  V30 9831 C 951.213 -2.75039 3.47661 0
M  V30 9832 H 948.433 -0.284772 0.607574 0
M  V30 9833 H 950.977 -0.245419 2.03022 0
M  V30 9834 H 949.132 -2.57275 2.89635 0
M  V30 9835 H 949.546 -1.74073 4.94772 0
M  V30 9836 H 951.02 -3.35511 4.38334 0
M  V30 9837 H 951.497 -3.471 2.69106 0
M  V30 9838 H 952.103 -2.1254 3.68384 0
M  V30 9839 N 950.418 -1.49637 -0.494624 0
M  V30 9840 C 951.381 -1.66252 -1.57775 0
M  V30 9841 C 952.381 -0.534054 -1.51672 0
M  V30 9842 O 953.571 -0.800637 -1.54711 0
M  V30 9843 C 950.703 -1.66584 -2.97426 0
M  V30 9844 H 951.896 -2.62864 -1.4437 0
M  V30 9845 H 949.449 -1.38764 -0.719323 0
M  V30 9846 H 950.184 -0.715798 -3.16302 0
M  V30 9847 H 949.969 -2.48543 -3.03264 0
M  V30 9848 H 951.459 -1.81474 -3.76108 0
M  V30 9849 N 951.896 0.746133 -1.38819 0
M  V30 9850 C 952.859 1.84167 -1.36437 0
M  V30 9851 C 953.859 1.58626 -0.263499 0
M  V30 9852 O 955.049 1.66233 -0.520801 0
M  V30 9853 C 952.181 3.21769 -1.12596 0
M  V30 9854 H 953.374 1.87684 -2.33912 0
M  V30 9855 H 950.927 0.948625 -1.24221 0
M  V30 9856 H 951.662 3.23917 -0.15758 0
M  V30 9857 H 951.447 3.41702 -1.92307 0
M  V30 9858 H 952.937 4.0184 -1.13643 0
M  V30 9859 N 953.375 1.23811 0.975125 0
M  V30 9860 C 954.308 0.967173 2.06691 0
M  V30 9861 C 955.286 -0.09642 1.62314 0
M  V30 9862 O 956.47 0.0389532 1.8846 0
M  V30 9863 C 953.597 0.458094 3.35588 0
M  V30 9864 C 952.643 1.5091 3.98909 0
M  V30 9865 S 953.476 3.08815 4.37485 0
M  V30 9866 C 954.632 2.59591 5.69529 0
M  V30 9867 H 954.865 1.89166 2.29355 0
M  V30 9868 H 952.398 1.07113 1.11203 0
M  V30 9869 H 954.356 0.170991 4.10144 0
M  V30 9870 H 953.017 -0.445562 3.10924 0
M  V30 9871 H 952.21 1.10315 4.91779 0
M  V30 9872 H 951.812 1.74582 3.30752 0
M  V30 9873 H 954.104 2.0194 6.46704 0
M  V30 9874 H 955.047 3.51021 6.14971 0
M  V30 9875 H 955.455 2.00267 5.27782 0
M  V30 9876 N 954.853 -1.17469 1.05066 0
M  V30 9877 C 955.783 -2.23635 0.671552 0
M  V30 9878 C 956.764 -1.66867 -0.33006 0
M  V30 9879 O 957.949 -1.93084 -0.207933 0
M  V30 9880 C 955.079 -3.47272 0.0441845 0
M  V30 9881 C 954.033 -4.16854 0.97042 0
M  V30 9882 C 953.359 -5.34299 0.206998 0
M  V30 9883 C 954.659 -4.69225 2.29401 0
M  V30 9884 H 956.353 -2.55602 1.55911 0
M  V30 9885 H 953.899 -1.2286 0.751101 0
M  V30 9886 H 955.852 -4.20756 -0.23282 0
M  V30 9887 H 954.576 -3.14568 -0.878311 0
M  V30 9888 H 953.235 -3.4528 1.23197 0
M  V30 9889 H 952.883 -4.97846 -0.718222 0
M  V30 9890 H 952.583 -5.81792 0.82416 0
M  V30 9891 H 954.107 -6.10568 -0.0627525 0
M  V30 9892 H 955.521 -5.34353 2.077 0
M  V30 9893 H 953.918 -5.27291 2.86503 0
M  V30 9894 H 954.988 -3.86102 2.93348 0
M  V30 9895 N 956.331 -0.831506 -1.3388 0
M  V30 9896 C 957.294 -0.264773 -2.27666 0
M  V30 9897 C 958.294 0.562273 -1.50649 0
M  V30 9898 O 959.484 0.377131 -1.70069 0
M  V30 9899 C 956.616 0.627814 -3.35069 0
M  V30 9900 H 957.809 -1.09225 -2.79303 0
M  V30 9901 H 955.362 -0.604021 -1.44157 0
M  V30 9902 H 956.097 1.47802 -2.88661 0
M  V30 9903 H 955.882 0.0361552 -3.92083 0
M  V30 9904 H 957.372 1.01786 -4.05005 0
M  V30 9905 N 957.809 1.4625 -0.587256 0
M  V30 9906 C 959.057 2.01963 -0.0744273 0
M  V30 9907 C 959.378 1.46065 1.29189 0
M  V30 9908 O 958.648 0.647077 1.84905 0
M  V30 9909 H 957.228 0.746597 -0.0245236 0
M  V30 9910 H 959.89 1.79299 -0.764063 0
M  V30 9911 H 958.986 3.12099 -0.00884894 0
M  V30 9912 N 959.287 0.325282 1.54207 0
M  V30 9913 C 960.217 -0.532574 2.27345 0
M  V30 9914 C 961.198 -1.11791 1.28206 0
M  V30 9915 O 962.383 -1.14272 1.57021 0
M  V30 9916 C 959.513 -1.69274 3.03255 0
M  V30 9917 C 958.467 -1.23662 4.09746 0
M  V30 9918 C 957.793 -2.48386 4.73506 0
M  V30 9919 C 959.093 -0.350244 5.21124 0
M  V30 9920 H 960.787 0.0775108 2.993 0
M  V30 9921 H 958.333 0.0387193 1.43948 0
M  V30 9922 H 960.286 -2.29917 3.53152 0
M  V30 9923 H 959.01 -2.32944 2.28921 0
M  V30 9924 H 957.669 -0.653106 3.60735 0
M  V30 9925 H 957.317 -3.10424 3.95786 0
M  V30 9926 H 957.017 -2.18558 5.45441 0
M  V30 9927 H 958.541 -3.09789 5.26178 0
M  V30 9928 H 959.955 -0.863011 5.66767 0
M  V30 9929 H 958.352 -0.14466 5.99926 0
M  V30 9930 H 959.422 0.618457 4.8094 0
M  V30 9931 N 960.765 -1.57509 0.0534917 0
M  V30 9932 C 962.013 -1.92402 -0.618548 0
M  V30 9933 C 962.334 -0.93273 -1.71246 0
M  V30 9934 O 961.604 0.0220495 -1.95888 0
M  V30 9935 H 960.184 -0.710233 -0.23147 0
M  V30 9936 H 962.846 -1.94606 0.10704 0
M  V30 9937 H 961.942 -2.93704 -1.05566 0
M  V30 9938 N 962.243 0.219913 -1.56058 0
M  V30 9939 C 963.52 0.968493 -1.6994 0
M  V30 9940 C 963.9 2.02358 -0.601219 0
M  V30 9941 O 963.248 2.25121 0.391534 0
M  V30 9942 C 963.458 1.57745 -3.11316 0
M  V30 9943 C 964.806 2.06908 -3.70775 0
M  V30 9944 O 965.83 1.67636 -3.14288 0
M  V30 9945 O 964.689 2.79096 -4.69859 0
M  V30 9946 H 961.783 0.452521 -0.692209 0
M  V30 9947 H 964.329 0.211566 -1.68376 0
M  V30 9948 H 963.101 0.815687 -3.82704 0
M  V30 9949 H 962.724 2.39987 -3.17005 0
M  V30 9950 N 963.721 1.49897 0.486681 0
M  V30 9951 C 964.684 1.67086 1.56891 0
M  V30 9952 C 965.684 0.54209 1.51387 0
M  V30 9953 O 966.874 0.80883 1.54284 0
M  V30 9954 C 964.006 1.68159 2.96539 0
M  V30 9955 H 965.199 2.63626 1.42974 0
M  V30 9956 H 962.752 1.39143 0.711954 0
M  V30 9957 H 963.487 0.732562 3.15918 0
M  V30 9958 H 963.272 2.50147 3.01942 0
M  V30 9959 H 964.762 1.83466 3.7514 0
M  V30 9960 N 965.199 -0.738761 1.39212 0
M  V30 9961 C 966.129 -1.86602 1.40364 0
M  V30 9962 C 967.11 -1.67984 0.267495 0
M  V30 9963 O 968.295 -1.88358 0.472765 0
M  V30 9964 C 965.425 -3.24308 1.24265 0
M  V30 9965 C 964.379 -3.57557 2.35239 0
M  V30 9966 C 963.705 -4.94159 2.04233 0
M  V30 9967 C 965.005 -3.60914 3.77543 0
M  V30 9968 H 966.699 -1.85896 2.34698 0
M  V30 9969 H 964.245 -0.892959 1.1297 0
M  V30 9970 H 966.198 -4.02838 1.23692 0
M  V30 9971 H 964.922 -3.25531 0.263974 0
M  V30 9972 H 963.581 -2.81354 2.35022 0
M  V30 9973 H 963.229 -4.91959 1.04813 0
M  V30 9974 H 962.929 -5.17373 2.78567 0
M  V30 9975 H 964.453 -5.7505 2.05303 0
M  V30 9976 H 965.867 -4.29528 3.79709 0
M  V30 9977 H 964.264 -3.95644 4.51205 0
M  V30 9978 H 965.334 -2.60803 4.08791 0
M  V30 9979 N 966.677 -1.24326 -0.968545 0
M  V30 9980 C 968.088 -1.07561 -1.52603 0
M  V30 9981 C 968.439 0.353245 -1.92994 0
M  V30 9982 O 967.564 1.24151 -1.77244 0
M  V30 9983 C 968.159 -1.94634 -2.77314 0
M  V30 9984 C 966.718 -1.82095 -3.29421 0
M  V30 9985 C 965.865 -1.8962 -2.02335 0
M  V30 9986 H 968.816 -1.37815 -0.786932 0
M  V30 9987 H 968.837 -1.47812 -3.50616 0
M  V30 9988 H 968.349 -2.98621 -2.47885 0
M  V30 9989 H 966.45 -0.809376 -3.63703 0
M  V30 9990 H 966.563 -2.66142 -3.98378 0
M  V30 9991 H 964.927 -1.33339 -2.17009 0
M  V30 9992 H 965.71 -2.95185 -1.75273 0
M  V30 9993 N 968.156 1.1691 -1.05688 0
M  V30 9994 C 969.402 1.8757 -0.771071 0
M  V30 9995 C 969.735 1.8113 0.700399 0
M  V30 9996 O 969.01 1.22273 1.5126 0
M  V30 9997 C 969.293 3.37392 -1.25851 0
M  V30 9998 C 969.146 3.52556 -2.79329 0
M  V30 9999 C 970.465 4.31585 -0.861512 0
M  V30 10000 H 967.584 0.681089 -0.281579 0
M  V30 10001 H 970.226 1.37453 -1.31174 0
M  V30 10002 H 968.376 3.80204 -0.798563 0
M  V30 10003 H 970.048 3.18725 -3.33485 0
M  V30 10004 H 968.291 2.94668 -3.1836 0
M  V30 10005 H 968.962 4.57748 -3.08498 0
M  V30 10006 H 971.438 3.96642 -1.25756 0
M  V30 10007 H 970.314 5.34939 -1.23012 0
M  V30 10008 H 970.575 4.4148 0.234089 0
M  V30 10009 N 969.634 0.838594 1.33437 0
M  V30 10010 C 970.859 0.446701 2.02532 0
M  V30 10011 C 971.284 -0.944275 1.62681 0
M  V30 10012 O 970.642 -1.61733 0.81927 0
M  V30 10013 C 970.69 0.574794 3.55989 0
M  V30 10014 O 969.794 -0.399063 4.10465 0
M  V30 10015 H 969.135 0.181637 0.638674 0
M  V30 10016 H 971.665 1.13335 1.70342 0
M  V30 10017 H 971.675 0.456339 4.0544 0
M  V30 10018 H 970.35 1.58921 3.8434 0
M  V30 10019 H 968.927 -0.238187 3.72139 0
M  V30 10020 N 971.112 -1.45937 0.595003 0
M  V30 10021 C 972.075 -2.2888 -0.121102 0
M  V30 10022 C 973.075 -1.39075 -0.807149 0
M  V30 10023 O 974.265 -1.61326 -0.657228 0
M  V30 10024 C 971.397 -3.19778 -1.1813 0
M  V30 10025 H 972.59 -2.93673 0.607968 0
M  V30 10026 H 970.143 -1.5225 0.353495 0
M  V30 10027 H 970.878 -2.59759 -1.94154 0
M  V30 10028 H 970.663 -3.85914 -0.693724 0
M  V30 10029 H 972.153 -3.82176 -1.68319 0
M  V30 10030 N 972.59 -0.333456 -1.54032 0
M  V30 10031 C 973.52 0.52051 -2.27625 0
M  V30 10032 C 974.501 1.1111 -1.28797 0
M  V30 10033 O 975.686 1.13438 -1.57625 0
M  V30 10034 C 972.816 1.67663 -3.04149 0
M  V30 10035 C 971.77 1.21487 -4.10396 0
M  V30 10036 C 971.096 2.45872 -4.74817 0
M  V30 10037 C 972.396 0.322603 -5.21303 0
M  V30 10038 H 974.09 -0.0933823 -2.99254 0
M  V30 10039 H 971.636 -0.0463526 -1.43925 0
M  V30 10040 H 973.589 2.28041 -3.54366 0
M  V30 10041 H 972.313 2.31727 -2.30153 0
M  V30 10042 H 970.972 0.633966 -3.61077 0
M  V30 10043 H 970.62 3.0832 -3.97426 0
M  V30 10044 H 970.32 2.15662 -5.46593 0
M  V30 10045 H 971.844 3.06994 -5.27814 0
M  V30 10046 H 973.258 0.832942 -5.67217 0
M  V30 10047 H 971.655 0.112843 -5.99994 0
M  V30 10048 H 972.725 -0.643954 -4.80605 0
M  V30 10049 N 974.068 1.57479 -0.061844 0
M  V30 10050 C 975.479 1.80627 0.472295 0
M  V30 10051 C 975.83 0.97496 1.70261 0
M  V30 10052 O 974.955 0.1946 2.15523 0
M  V30 10053 C 975.55 3.27608 0.863616 0
M  V30 10054 C 974.109 3.51638 1.34267 0
M  V30 10055 C 973.256 2.75412 0.323009 0
M  V30 10056 H 976.207 1.56072 -0.287634 0
M  V30 10057 H 976.228 3.39113 1.72577 0
M  V30 10058 H 975.74 3.88087 -0.0320226 0
M  V30 10059 H 973.841 2.96452 2.25714 0
M  V30 10060 H 973.954 4.60342 1.32747 0
M  V30 10061 H 972.318 2.4187 0.798175 0
M  V30 10062 H 973.101 3.38623 -0.564729 0
M  V30 10063 N 975.546 -0.211634 1.56173 0
M  V30 10064 C 976.957 -0.777776 1.69728 0
M  V30 10065 C 977.308 -1.84566 0.66558 0
M  V30 10066 O 976.433 -2.15639 -0.181338 0
M  V30 10067 C 977.028 -1.41757 3.07718 0
M  V30 10068 C 975.587 -1.93098 3.23094 0
M  V30 10069 C 974.734 -0.794785 2.65666 0
M  V30 10070 H 977.685 0.0131839 1.58695 0
M  V30 10071 H 977.706 -2.28662 3.04128 0
M  V30 10072 H 977.218 -0.640114 3.82785 0
M  V30 10073 H 975.319 -2.73615 2.52914 0
M  V30 10074 H 975.432 -2.10414 4.30422 0
M  V30 10075 H 973.796 -1.20473 2.24407 0
M  V30 10076 H 974.579 -0.0298408 3.43287 0
M  V30 10077 N 977.024 -1.50153 -0.478725 0
M  V30 10078 C 978.301 -1.51274 -1.23999 0
M  V30 10079 C 978.681 -0.253048 -2.09578 0
M  V30 10080 O 978.029 0.763827 -2.15355 0
M  V30 10081 C 978.239 -2.80423 -2.07759 0
M  V30 10082 C 979.587 -3.30788 -2.66204 0
M  V30 10083 O 980.611 -2.81693 -2.18008 0
M  V30 10084 O 979.47 -4.1635 -3.53999 0
M  V30 10085 H 976.564 -0.606438 -0.562283 0
M  V30 10086 H 979.11 -1.62436 -0.491171 0
M  V30 10087 H 977.882 -3.63584 -1.44645 0
M  V30 10088 H 977.505 -2.72228 -2.89789 0
M  V30 10089 N 978.502 0.731368 -1.39602 0
M  V30 10090 C 979.75 1.48805 -1.36753 0
M  V30 10091 C 980.071 1.94969 0.034676 0
M  V30 10092 O 979.341 1.69243 0.986591 0
M  V30 10093 H 977.921 0.55203 -0.503261 0
M  V30 10094 H 980.583 0.868013 -1.74504 0
M  V30 10095 H 979.679 2.36844 -2.03252 0
M  V30 10096 N 979.98 1.24838 0.961938 0
M  V30 10097 C 981.208 1.11871 1.74047 0
M  V30 10098 C 981.623 -0.328209 1.85925 0
M  V30 10099 O 980.98 -1.22616 1.35173 0
M  V30 10100 C 981.031 1.75931 3.15801 0
M  V30 10101 O 980.752 3.14967 3.04512 0
M  V30 10102 C 982.253 1.68649 4.09966 0
M  V30 10103 H 979.473 0.390569 0.545616 0
M  V30 10104 H 982.017 1.65058 1.20732 0
M  V30 10105 H 980.172 1.26733 3.66084 0
M  V30 10106 H 980.586 3.46349 3.93882 0
M  V30 10107 H 982.06 2.18144 5.07067 0
M  V30 10108 H 982.537 0.648831 4.34381 0
M  V30 10109 H 983.143 2.17301 3.65596 0
M  V30 10110 N 981.458 -1.16348 1.06306 0
M  V30 10111 C 982.704 -1.87397 0.79082 0
M  V30 10112 C 983.059 -1.80156 -0.675382 0
M  V30 10113 O 982.352 -1.20644 -1.48847 0
M  V30 10114 C 982.546 -3.35936 1.21991 0
M  V30 10115 C 982.375 -3.57637 2.72628 0
M  V30 10116 C 981.145 -3.73717 3.40094 0
M  V30 10117 C 983.343 -3.56345 3.70841 0
M  V30 10118 N 981.325 -3.83369 4.7948 0
M  V30 10119 C 982.696 -3.71983 4.96013 0
M  V30 10120 C 984.751 -3.39558 3.64149 0
M  V30 10121 C 983.454 -3.7257 6.15292 0
M  V30 10122 C 985.48 -3.41439 4.8288 0
M  V30 10123 C 984.842 -3.57596 6.06881 0
M  V30 10124 H 980.941 -0.703355 0.341782 0
M  V30 10125 H 983.525 -1.39597 1.35723 0
M  V30 10126 H 981.696 -3.82378 0.681319 0
M  V30 10127 H 983.428 -3.94649 0.896319 0
M  V30 10128 H 980.183 -3.74045 2.90495 0
M  V30 10129 H 980.607 -3.91964 5.5199 0
M  V30 10130 H 985.249 -3.25994 2.69235 0
M  V30 10131 H 982.967 -3.84916 7.10539 0
M  V30 10132 H 986.553 -3.29693 4.79368 0
M  V30 10133 H 985.433 -3.58971 6.97216 0
M  V30 10134 N 982.937 -0.845659 -1.3299 0
M  V30 10135 C 984.348 -0.50048 -1.79867 0
M  V30 10136 C 984.699 0.981027 -1.69913 0
M  V30 10137 O 983.824 1.76477 -1.25239 0
M  V30 10138 C 984.419 -0.901679 -3.26581 0
M  V30 10139 C 982.978 -0.608536 -3.71448 0
M  V30 10140 C 982.125 -1.10632 -2.54275 0
M  V30 10141 H 985.076 -1.03372 -1.20416 0
M  V30 10142 H 985.097 -0.214433 -3.79895 0
M  V30 10143 H 984.609 -1.97998 -3.33794 0
M  V30 10144 H 982.71 0.459416 -3.69757 0
M  V30 10145 H 982.823 -1.16853 -4.64631 0
M  V30 10146 H 981.187 -0.526925 -2.4919 0
M  V30 10147 H 981.97 -2.19154 -2.64247 0
M  V30 10148 N 984.415 1.45619 -0.602734 0
M  V30 10149 C 985.348 2.27583 0.167708 0
M  V30 10150 C 986.326 1.36844 0.878206 0
M  V30 10151 O 987.51 1.6627 0.888058 0
M  V30 10152 C 984.637 3.15094 1.24232 0
M  V30 10153 C 983.683 4.21739 0.63549 0
M  V30 10154 S 984.516 5.32638 -0.552944 0
M  V30 10155 C 985.672 6.23716 0.522382 0
M  V30 10156 H 985.905 2.92579 -0.527697 0
M  V30 10157 H 983.438 1.4939 -0.390127 0
M  V30 10158 H 985.396 3.66071 1.85748 0
M  V30 10159 H 984.057 2.49372 1.90978 0
M  V30 10160 H 983.25 4.82874 1.44389 0
M  V30 10161 H 982.852 3.73878 0.0955772 0
M  V30 10162 H 985.144 6.62819 1.40276 0
M  V30 10163 H 986.087 7.0808 -0.0526951 0
M  V30 10164 H 986.495 5.58282 0.83553 0
M  V30 10165 N 985.893 0.34162 1.53853 0
M  V30 10166 C 987.141 -0.254979 2.00485 0
M  V30 10167 C 987.462 -1.51222 1.23114 0
M  V30 10168 O 986.732 -1.92966 0.337787 0
M  V30 10169 H 985.312 -0.0972084 0.740648 0
M  V30 10170 H 987.974 0.462332 1.89337 0
M  V30 10171 H 987.07 -0.498778 3.08089 0
M  V30 10172 N 987.371 -1.57444 0.0701946 0
M  V30 10173 C 988.599 -1.97754 -0.608358 0
M  V30 10174 C 989.014 -0.948496 -1.63245 0
M  V30 10175 O 988.371 0.065046 -1.82384 0
M  V30 10176 C 988.422 -3.38142 -1.27836 0
M  V30 10177 O 988.143 -4.37104 -0.295255 0
M  V30 10178 C 989.644 -3.93318 -2.04489 0
M  V30 10179 H 986.864 -0.650398 -0.164997 0
M  V30 10180 H 989.408 -2.04006 0.142124 0
M  V30 10181 H 987.563 -3.32982 -1.97994 0
M  V30 10182 H 987.977 -5.18732 -0.77574 0
M  V30 10183 H 989.451 -4.93774 -2.46762 0
M  V30 10184 H 989.928 -3.29774 -2.90079 0
M  V30 10185 H 990.534 -4.01875 -1.39201 0
M  V30 10186 N 988.849 0.203349 -1.56283 0
M  V30 10187 C 990.077 0.941426 -1.84241 0
M  V30 10188 C 990.492 1.77197 -0.651658 0
M  V30 10189 O 989.849 1.78506 0.379713 0
M  V30 10190 C 989.9 1.84429 -3.10915 0
M  V30 10191 O 989.621 1.04729 -4.25398 0
M  V30 10192 C 991.122 2.69474 -3.51993 0
M  V30 10193 H 988.342 0.27507 -0.612027 0
M  V30 10194 H 990.886 0.213088 -2.03387 0
M  V30 10195 H 989.041 2.52635 -2.93691 0
M  V30 10196 H 989.455 1.66179 -4.97478 0
M  V30 10197 H 990.929 3.28495 -4.43616 0
M  V30 10198 H 991.406 3.42775 -2.74594 0
M  V30 10199 H 992.012 2.06652 -3.71719 0
M  V30 10200 N 990.327 1.50405 0.470755 0
M  V30 10201 C 991.743 1.37838 0.804534 0
M  V30 10202 C 991.943 0.434743 1.96754 0
M  V30 10203 O 990.999 -0.122507 2.52203 0
M  V30 10204 C 992.312 2.79212 1.11629 0
M  V30 10205 C 993.86 2.88129 1.22272 0
M  V30 10206 C 994.335 4.30337 1.5676 0
M  V30 10207 N 995.826 4.3329 1.63751 0
M  V30 10208 C 996.561 5.4032 1.91942 0
M  V30 10209 N 996.057 6.57558 2.18151 0
M  V30 10210 N 997.85 5.27764 1.93446 0
M  V30 10211 H 990.001 2.10332 -0.295689 0
M  V30 10212 H 992.264 0.945429 -0.0697733 0
M  V30 10213 H 991.97 3.50103 0.334778 0
M  V30 10214 H 991.844 3.16475 2.0524 0
M  V30 10215 H 994.231 2.17457 1.9949 0
M  V30 10216 H 994.312 2.54409 0.2664 0
M  V30 10217 H 993.956 5.01547 0.800817 0
M  V30 10218 H 993.886 4.61545 2.53543 0
M  V30 10219 H 996.377 3.48752 1.45535 0
M  V30 10220 H 996.69 7.34935 2.38936 0
M  V30 10221 H 995.035 6.60732 2.15542 0
M  V30 10222 H 998.226 4.35169 1.72468 0
M  V30 10223 H 998.399 6.11264 2.15081 0
M  V30 10224 N 991.805 -0.723954 1.39988 0
M  V30 10225 C 993.051 -1.48476 1.3902 0
M  V30 10226 C 993.406 -1.92397 -0.0105439 0
M  V30 10227 O 992.699 -1.64683 -0.979294 0
M  V30 10228 C 992.893 -2.73004 2.30659 0
M  V30 10229 C 992.722 -2.41261 3.79504 0
M  V30 10230 C 991.492 -2.33013 4.48367 0
M  V30 10231 C 993.69 -2.06078 4.71207 0
M  V30 10232 N 991.672 -1.93856 5.82489 0
M  V30 10233 C 993.043 -1.77455 5.94062 0
M  V30 10234 C 995.098 -1.92642 4.59123 0
M  V30 10235 C 993.801 -1.36748 7.06182 0
M  V30 10236 C 995.827 -1.53338 5.71175 0
M  V30 10237 C 995.189 -1.25607 6.93111 0
M  V30 10238 H 991.288 -0.54172 0.563971 0
M  V30 10239 H 993.872 -0.840344 1.75631 0
M  V30 10240 H 992.043 -3.35209 1.96188 0
M  V30 10241 H 993.775 -3.39286 2.20606 0
M  V30 10242 H 990.53 -2.50476 4.01944 0
M  V30 10243 H 990.954 -1.7684 6.53496 0
M  V30 10244 H 995.596 -2.12745 3.65376 0
M  V30 10245 H 993.314 -1.15386 7.9982 0
M  V30 10246 H 996.9 -1.43532 5.63817 0
M  V30 10247 H 995.78 -0.956505 7.78345 0
M  V30 10248 N 993.283 -1.25346 -0.955304 0
M  V30 10249 C 994.193 -1.07412 -2.08566 0
M  V30 10250 C 995.209 -0.0114424 -1.73996 0
M  V30 10251 O 996.385 -0.212236 -2.00279 0
M  V30 10252 C 993.45 -0.694141 -3.3968 0
M  V30 10253 C 992.511 -1.83468 -3.88121 0
M  V30 10254 C 991.744 -1.47274 -5.12978 0
M  V30 10255 O 991.967 -0.368086 -5.69211 0
M  V30 10256 O 990.901 -2.30269 -5.56111 0
M  V30 10257 H 994.727 -2.02206 -2.26598 0
M  V30 10258 H 992.312 -1.04279 -1.06988 0
M  V30 10259 H 994.194 -0.494325 -4.18491 0
M  V30 10260 H 992.869 0.224545 -3.2292 0
M  V30 10261 H 991.776 -2.08935 -3.10318 0
M  V30 10262 H 993.109 -2.73258 -4.09379 0
M  V30 10263 N 994.761 1.15782 -1.06922 0
M  V30 10264 C 995.708 2.2038 -0.685659 0
M  V30 10265 C 996.678 1.62972 0.320816 0
M  V30 10266 O 997.863 1.8966 0.208258 0
M  V30 10267 C 995.003 3.44995 -0.084998 0
M  V30 10268 C 994.116 4.16621 -1.14242 0
M  V30 10269 C 993.251 5.28773 -0.507226 0
M  V30 10270 C 992.29 5.92209 -1.54774 0
M  V30 10271 N 991.427 6.9584 -0.935443 0
M  V30 10272 H 996.267 2.5254 -1.58201 0
M  V30 10273 H 993.804 1.24031 -0.790864 0
M  V30 10274 H 995.762 4.16254 0.280845 0
M  V30 10275 H 994.392 3.13365 0.774725 0
M  V30 10276 H 993.444 3.43903 -1.62589 0
M  V30 10277 H 994.756 4.59884 -1.93154 0
M  V30 10278 H 993.91 6.06635 -0.0887719 0
M  V30 10279 H 992.649 4.8669 0.313704 0
M  V30 10280 H 991.654 5.13063 -1.97602 0
M  V30 10281 H 992.879 6.3637 -2.37088 0
M  V30 10282 H 990.825 6.5586 -0.135339 0
M  V30 10283 H 990.742 7.37508 -1.66186 0
M  V30 10284 H 992.01 7.77611 -0.542346 0
M  V30 10285 N 996.239 0.8527 1.3254 0
M  V30 10286 C 997.655 0.542298 1.50104 0
M  V30 10287 C 997.855 -0.927465 1.78886 0
M  V30 10288 O 996.911 -1.7106 1.85728 0
M  V30 10289 C 998.224 1.4276 2.64651 0
M  V30 10290 C 999.772 1.42782 2.78536 0
M  V30 10291 C 1000.25 2.29828 3.9616 0
M  V30 10292 N 1001.74 2.27613 4.03418 0
M  V30 10293 C 1002.47 2.91696 4.93661 0
M  V30 10294 N 1001.97 3.64883 5.88925 0
M  V30 10295 N 1003.76 2.81094 4.86768 0
M  V30 10296 H 995.913 1.80395 1.12123 0
M  V30 10297 H 998.176 0.770394 0.552446 0
M  V30 10298 H 997.882 2.47266 2.50105 0
M  V30 10299 H 997.756 1.11358 3.60388 0
M  V30 10300 H 1000.14 0.390417 2.92506 0
M  V30 10301 H 1000.22 1.78198 1.83519 0
M  V30 10302 H 999.868 3.33635 3.82949 0
M  V30 10303 H 999.798 1.91746 4.9045 0
M  V30 10304 H 1002.29 1.74402 3.3525 0
M  V30 10305 H 1002.6 4.10952 6.54476 0
M  V30 10306 H 1000.95 3.68991 5.88957 0
M  V30 10307 H 1004.14 2.23469 4.11314 0
M  V30 10308 H 1004.31 3.31318 5.56895 0
M  V30 10309 N 997.718 -1.45297 0.610449 0
M  V30 10310 C 998.666 -2.32295 -0.119167 0
M  V30 10311 C 999.66 -1.46138 -0.856746 0
M  V30 10312 O 1000.87 -1.62605 -0.771988 0
M  V30 10313 H 997.241 -0.749815 -0.0572881 0
M  V30 10314 H 999.212 -2.91609 0.63297 0
M  V30 10315 C 997.961 -3.29802 -1.10119 0
M  V30 10316 H 997.284 -3.96095 -0.543063 0
M  V30 10317 H 998.724 -3.93398 -1.58158 0
M  V30 10318 C 997.183 -2.57185 -2.17617 0
M  V30 10319 O 997.713 -2.35535 -3.25401 0
M  V30 10320 N 995.919 -2.17272 -1.9298 0
M  V30 10321 H 995.466 -2.3508 -1.05334 0
M  V30 10322 H 995.424 -1.69009 -2.6511 0
M  V30 10323 N 999.196 -0.349774 -1.5367 0
M  V30 10324 C 1000.44 0.245862 -2.00196 0
M  V30 10325 C 1000.76 1.51154 -1.24144 0
M  V30 10326 O 1001.96 2.18481 -1.61178 0
M  V30 10327 C 1000.42 0.488665 -3.56567 0
M  V30 10328 C 1000.03 -0.761475 -4.41481 0
M  V30 10329 C 1001.77 1.04282 -4.11492 0
M  V30 10330 C 999.679 -0.489128 -5.89374 0
M  V30 10331 H 998.609 0.0956493 -0.747909 0
M  V30 10332 H 1001.26 -0.466068 -1.77483 0
M  V30 10333 H 999.642 1.26145 -3.75371 0
M  V30 10334 H 1000.82 -1.53585 -4.34452 0
M  V30 10335 H 999.131 -1.23771 -3.9758 0
M  V30 10336 H 1001.73 1.26164 -5.19603 0
M  V30 10337 H 1002.07 2.00023 -3.65098 0
M  V30 10338 H 1002.6 0.330582 -3.96424 0
M  V30 10339 H 999.343 -1.41643 -6.40014 0
M  V30 10340 H 998.863 0.247039 -5.99291 0
M  V30 10341 H 1000.54 -0.1087 -6.46909 0
M  V30 10342 N 1000.67 1.57404 -0.0785433 0
M  V30 10343 C 1001.64 2.11977 0.871693 0
M  V30 10344 C 1002.64 1.04529 1.2219 0
M  V30 10345 O 1003.83 1.30488 1.15406 0
M  V30 10346 C 1000.96 2.6267 2.17296 0
M  V30 10347 H 1002.15 2.97246 0.398115 0
M  V30 10348 H 999.705 1.5537 0.170251 0
M  V30 10349 H 1000.44 1.80873 2.69175 0
M  V30 10350 H 1000.22 3.41214 1.93171 0
M  V30 10351 H 1001.71 3.04943 2.85306 0
M  V30 10352 N 1002.15 -0.195058 1.56388 0
M  V30 10353 C 1003.06 -1.26219 1.97752 0
M  V30 10354 C 1004.08 -1.49801 0.885192 0
M  V30 10355 O 1005.25 -1.62415 1.19094 0
M  V30 10356 C 1002.32 -2.5865 2.3087 0
M  V30 10357 C 1001.38 -2.4314 3.5381 0
M  V30 10358 C 1000.61 -3.69255 3.85339 0
M  V30 10359 O 1000.84 -4.73425 3.18159 0
M  V30 10360 O 999.77 -3.64782 4.78767 0
M  V30 10361 H 1003.6 -0.941161 2.88749 0
M  V30 10362 H 1001.18 -0.40006 1.43944 0
M  V30 10363 H 1003.06 -3.36814 2.53247 0
M  V30 10364 H 1001.74 -2.9038 1.43042 0
M  V30 10365 H 1000.64 -1.63086 3.3668 0
M  V30 10366 H 1001.98 -2.16341 4.42105 0
M  V30 10367 N 1003.63 -1.50653 -0.462772 0
M  V30 10368 C 1004.54 -1.72923 -1.58539 0
M  V30 10369 C 1005.56 -0.612577 -1.6286 0
M  V30 10370 O 1006.73 -0.891885 -1.80575 0
M  V30 10371 C 1003.8 -1.82623 -2.94703 0
M  V30 10372 C 1002.86 -3.06392 -3.00704 0
M  V30 10373 C 1002.09 -3.15618 -4.30373 0
M  V30 10374 O 1002.31 -2.31423 -5.21344 0
M  V30 10375 O 1001.25 -4.0841 -4.42136 0
M  V30 10376 H 1005.07 -2.68103 -1.42669 0
M  V30 10377 H 1002.66 -1.34848 -0.643144 0
M  V30 10378 H 1004.54 -1.91134 -3.7556 0
M  V30 10379 H 1003.22 -0.906275 -3.10754 0
M  V30 10380 H 1002.12 -3.03375 -2.18894 0
M  V30 10381 H 1003.46 -3.97992 -2.89591 0
M  V30 10382 N 1005.11 0.71652 -1.4037 0
M  V30 10383 C 1006.36 1.47193 -1.37903 0
M  V30 10384 C 1006.67 1.95593 0.0159939 0
M  V30 10385 O 1007.88 2.71009 0.163282 0
M  V30 10386 C 1006.33 2.6606 -2.42363 0
M  V30 10387 C 1005.94 2.24533 -3.87671 0
M  V30 10388 C 1007.68 3.438 -2.49001 0
M  V30 10389 C 1005.59 3.40234 -4.8373 0
M  V30 10390 H 1004.52 0.552811 -0.512753 0
M  V30 10391 H 1007.17 0.779894 -1.66102 0
M  V30 10392 H 1005.55 3.37429 -2.07262 0
M  V30 10393 H 1006.73 1.6059 -4.31911 0
M  V30 10394 H 1005.04 1.59839 -3.845 0
M  V30 10395 H 1007.64 4.29893 -3.17956 0
M  V30 10396 H 1007.98 3.8755 -1.52023 0
M  V30 10397 H 1008.52 2.79474 -2.83088 0
M  V30 10398 H 1005.26 3.01517 -5.82037 0
M  V30 10399 H 1004.78 4.03095 -4.44156 0
M  V30 10400 H 1006.45 4.06312 -5.03507 0
M  V30 10401 N 1006.59 1.25851 0.948643 0
M  V30 10402 C 1008 1.09975 1.50872 0
M  V30 10403 C 1008.35 -0.322497 1.93531 0
M  V30 10404 O 1007.47 -1.21316 1.79197 0
M  V30 10405 C 1008.07 1.99021 2.74182 0
M  V30 10406 C 1006.63 1.87313 3.26483 0
M  V30 10407 C 1005.77 1.92815 1.99293 0
M  V30 10408 H 1008.73 1.3905 0.764908 0
M  V30 10409 H 1008.75 1.53372 3.4822 0
M  V30 10410 H 1008.26 3.02527 2.43103 0
M  V30 10411 H 1006.36 0.867136 3.62369 0
M  V30 10412 H 1006.47 2.72446 3.94094 0
M  V30 10413 H 1004.84 1.36774 2.1486 0
M  V30 10414 H 1005.62 2.97936 1.70554 0
M  V30 10415 N 1008.06 -1.15214 1.07534 0
M  V30 10416 C 1009.31 -1.85388 0.794617 0
M  V30 10417 C 1009.63 -1.83331 -0.681838 0
M  V30 10418 O 1010.83 -2.49207 -1.0774 0
M  V30 10419 C 1009.29 -3.32747 1.37141 0
M  V30 10420 C 1008.9 -3.43244 2.87902 0
M  V30 10421 C 1010.64 -4.08093 1.16879 0
M  V30 10422 C 1008.55 -4.84762 3.38763 0
M  V30 10423 H 1007.48 -0.694499 0.293577 0
M  V30 10424 H 1010.13 -1.29944 1.29564 0
M  V30 10425 H 1008.51 -3.87874 0.798121 0
M  V30 10426 H 1009.68 -2.98214 3.51291 0
M  V30 10427 H 1008 -2.81345 3.06975 0
M  V30 10428 H 1010.6 -5.12535 1.52353 0
M  V30 10429 H 1010.94 -4.1616 0.107958 0
M  V30 10430 H 1011.47 -3.59241 1.70854 0
M  V30 10431 H 1008.21 -4.81879 4.4438 0
M  V30 10432 H 1007.73 -5.30366 2.80128 0
M  V30 10433 H 1009.41 -5.53624 3.34827 0
M  V30 10434 N 1009.54 -0.859717 -1.32086 0
M  V30 10435 C 1010.79 -0.475565 -1.97762 0
M  V30 10436 C 1011.14 0.959348 -1.66776 0
M  V30 10437 O 1010.44 1.66484 -0.948343 0
M  V30 10438 C 1010.63 -0.657397 -3.51302 0
M  V30 10439 C 1010.46 -2.10843 -3.97209 0
M  V30 10440 C 1009.23 -2.74796 -4.24046 0
M  V30 10441 C 1011.43 -3.07959 -4.11905 0
M  V30 10442 N 1009.41 -4.10758 -4.56236 0
M  V30 10443 C 1010.78 -4.28922 -4.4769 0
M  V30 10444 C 1012.84 -3.04086 -3.94254 0
M  V30 10445 C 1011.54 -5.46518 -4.67665 0
M  V30 10446 C 1013.56 -4.20931 -4.15416 0
M  V30 10447 C 1012.93 -5.40654 -4.51522 0
M  V30 10448 H 1009.03 -0.222859 -0.749572 0
M  V30 10449 H 1011.61 -1.11217 -1.59809 0
M  V30 10450 H 1009.78 -0.0504597 -3.88367 0
M  V30 10451 H 1011.51 -0.242642 -4.03972 0
M  V30 10452 H 1008.27 -2.25805 -4.16304 0
M  V30 10453 H 1008.69 -4.80905 -4.76507 0
M  V30 10454 H 1013.33 -2.12641 -3.65436 0
M  V30 10455 H 1011.05 -6.3849 -4.95335 0
M  V30 10456 H 1014.64 -4.19376 -4.03255 0
M  V30 10457 H 1013.52 -6.29563 -4.67568 0
M  V30 10458 N 1011.02 1.44971 -0.618145 0
M  V30 10459 C 1011.97 2.30606 0.09449 0
M  V30 10460 C 1012.94 1.42725 0.849633 0
M  V30 10461 O 1014.12 1.71643 0.833266 0
M  V30 10462 C 1011.26 3.27803 1.07886 0
M  V30 10463 C 1010.38 4.30787 0.323488 0
M  V30 10464 C 1009.51 5.15085 1.29851 0
M  V30 10465 C 1008.55 6.09788 0.531561 0
M  V30 10466 N 1007.69 6.86829 1.4564 0
M  V30 10467 H 1012.53 2.91008 -0.641738 0
M  V30 10468 H 1010.06 1.43391 -0.328259 0
M  V30 10469 H 1012.02 3.82631 1.66281 0
M  V30 10470 H 1010.65 2.69131 1.78237 0
M  V30 10471 H 1009.7 3.78536 -0.376164 0
M  V30 10472 H 1011.02 4.98044 -0.274443 0
M  V30 10473 H 1010.17 5.74365 1.95421 0
M  V30 10474 H 1008.91 4.4787 1.93037 0
M  V30 10475 H 1007.91 5.49628 -0.137702 0
M  V30 10476 H 1009.14 6.79033 -0.0953993 0
M  V30 10477 H 1007.08 6.22295 2.07571 0
M  V30 10478 H 1007 7.50477 0.912167 0
M  V30 10479 H 1008.27 7.50642 2.10134 0
M  V30 10480 N 1012.5 0.357919 1.53482 0
M  V30 10481 C 1013.41 -0.500273 2.29204 0
M  V30 10482 C 1014.42 -1.09936 1.3487 0
M  V30 10483 O 1015.6 -1.11195 1.67921 0
M  V30 10484 C 1012.67 -1.62828 3.06085 0
M  V30 10485 C 1011.73 -1.05751 4.16071 0
M  V30 10486 C 1010.96 -2.13176 4.89277 0
M  V30 10487 O 1011.18 -3.34153 4.62274 0
M  V30 10488 O 1010.12 -1.76663 5.7539 0
M  V30 10489 H 1013.94 0.115696 3.0348 0
M  V30 10490 H 1011.53 0.122527 1.48897 0
M  V30 10491 H 1013.41 -2.28427 3.54117 0
M  V30 10492 H 1012.08 -2.22979 2.34653 0
M  V30 10493 H 1010.99 -0.365642 3.72309 0
M  V30 10494 H 1012.32 -0.500661 4.89647 0
M  V30 10495 N 1013.98 -1.5736 0.0868897 0
M  V30 10496 C 1014.89 -2.17087 -0.889402 0
M  V30 10497 C 1015.9 -1.13809 -1.31619 0
M  V30 10498 O 1017.08 -1.46143 -1.38579 0
M  V30 10499 C 1014.14 -2.73286 -2.13344 0
M  V30 10500 C 1013.2 -3.91491 -1.76164 0
M  V30 10501 C 1012.44 -4.45 -2.94637 0
M  V30 10502 O 1012.66 -3.97467 -4.09116 0
M  V30 10503 O 1011.59 -5.36133 -2.73579 0
M  V30 10504 H 1015.42 -3.00902 -0.411275 0
M  V30 10505 H 1013.01 -1.4877 -0.137015 0
M  V30 10506 H 1014.89 -3.0924 -2.86266 0
M  V30 10507 H 1013.56 -1.92521 -2.60225 0
M  V30 10508 H 1012.47 -3.60363 -1.00447 0
M  V30 10509 H 1013.8 -4.73593 -1.34053 0
M  V30 10510 N 1015.45 0.186762 -1.56489 0
M  V30 10511 C 1016.38 1.23395 -1.98232 0
M  V30 10512 C 1017.37 1.4702 -0.855526 0
M  V30 10513 O 1018.55 1.58616 -1.12048 0
M  V30 10514 C 1015.68 2.57635 -2.32898 0
M  V30 10515 C 1014.63 2.48607 -3.48394 0
M  V30 10516 C 1013.96 3.87196 -3.68759 0
M  V30 10517 C 1015.26 2.00398 -4.82325 0
M  V30 10518 H 1016.95 0.887026 -2.85958 0
M  V30 10519 H 1014.5 0.42525 -1.37578 0
M  V30 10520 H 1016.45 3.31082 -2.60696 0
M  V30 10521 H 1015.18 2.94084 -1.42064 0
M  V30 10522 H 1013.84 1.77615 -3.207 0
M  V30 10523 H 1013.48 4.21012 -2.75241 0
M  V30 10524 H 1013.18 3.82029 -4.46462 0
M  V30 10525 H 1014.71 4.62253 -3.98941 0
M  V30 10526 H 1016.12 2.6361 -5.091 0
M  V30 10527 H 1014.52 2.06214 -5.63556 0
M  V30 10528 H 1015.59 0.957562 -4.75351 0
M  V30 10529 N 1016.93 1.50896 0.454776 0
M  V30 10530 C 1018.17 1.64347 1.21529 0
M  V30 10531 C 1018.54 0.343869 1.88896 0
M  V30 10532 O 1019.74 0.353973 2.66459 0
M  V30 10533 C 1018.01 2.80199 2.21864 0
M  V30 10534 S 1019.57 3.13879 3.06636 0
M  V30 10535 H 1016.39 0.579193 0.412379 0
M  V30 10536 H 1018.99 1.88741 0.509629 0
M  V30 10537 H 1017.69 3.73086 1.70982 0
M  V30 10538 H 1017.22 2.57941 2.97036 0
M  V30 10539 H 1019.24 2.58964 4.23264 0
M  V30 10540 N 1018.41 -0.709066 1.40748 0
M  V30 10541 C 1019.64 -1.49808 1.42707 0
M  V30 10542 C 1020.05 -1.88778 0.0285574 0
M  V30 10543 O 1019.41 -1.55883 -0.949035 0
M  V30 10544 C 1019.46 -2.76926 2.32366 0
M  V30 10545 O 1019.18 -2.39602 3.66773 0
M  V30 10546 C 1020.68 -3.70773 2.42986 0
M  V30 10547 H 1017.9 -0.462106 0.486517 0
M  V30 10548 H 1020.45 -0.874135 1.84876 0
M  V30 10549 H 1018.6 -3.3559 1.93541 0
M  V30 10550 H 1019.02 -3.21443 4.14457 0
M  V30 10551 H 1020.49 -4.56789 3.09916 0
M  V30 10552 H 1020.97 -4.14332 1.45691 0
M  V30 10553 H 1021.57 -3.18019 2.8239 0
M  V30 10554 N 1019.89 -1.26353 -0.941956 0
M  V30 10555 C 1020.82 -1.03634 -2.04432 0
M  V30 10556 C 1021.83 0.00295864 -1.628 0
M  V30 10557 O 1023.02 -0.237029 -1.76919 0
M  V30 10558 C 1020.12 -0.547231 -3.34453 0
M  V30 10559 C 1019.3 -1.65559 -4.04857 0
M  V30 10560 C 1018.36 -1.16466 -5.13149 0
M  V30 10561 O 1017.38 -1.86158 -5.37898 0
M  V30 10562 N 1018.58 -0.0126703 -5.80499 0
M  V30 10563 H 1021.35 -1.98558 -2.24488 0
M  V30 10564 H 1018.91 -1.17728 -1.11138 0
M  V30 10565 H 1020.9 -0.203004 -4.04191 0
M  V30 10566 H 1019.47 0.308401 -3.11075 0
M  V30 10567 H 1018.69 -2.17079 -3.29044 0
M  V30 10568 H 1019.98 -2.39985 -4.48647 0
M  V30 10569 H 1019.38 0.569358 -5.62828 0
M  V30 10570 H 1017.93 0.272486 -6.5123 0
M  V30 10571 N 1021.37 1.14642 -1.08144 0
M  V30 10572 C 1022.61 1.87277 -0.818953 0
M  V30 10573 C 1022.97 1.80896 0.643482 0
M  V30 10574 O 1024.17 2.4864 1.02135 0
M  V30 10575 C 1022.44 3.32006 -1.32314 0
M  V30 10576 S 1024 4.22284 -1.19256 0
M  V30 10577 H 1020.82 0.646204 -0.29655 0
M  V30 10578 H 1023.42 1.38261 -1.38217 0
M  V30 10579 H 1022.13 3.34197 -2.38203 0
M  V30 10580 H 1021.66 3.86078 -0.75548 0
M  V30 10581 H 1023.67 4.96016 -0.135143 0
M  V30 10582 N 1022.85 0.866709 1.31628 0
M  V30 10583 C 1023.79 0.309128 2.30537 0
M  V30 10584 C 1024.79 -0.574028 1.59378 0
M  V30 10585 O 1025.99 -0.460491 1.7401 0
M  V30 10586 H 1022.37 0.081279 0.747595 0
M  V30 10587 H 1024.34 1.15734 2.75042 0
M  V30 10588 C 1023.09 -0.477287 3.44409 0
M  V30 10589 H 1022.41 0.19301 3.99334 0
M  V30 10590 H 1023.85 -0.832818 4.1574 0
M  V30 10591 C 1022.31 -1.66727 2.92752 0
M  V30 10592 O 1022.84 -2.76654 2.91248 0
M  V30 10593 N 1021.05 -1.49833 2.48995 0
M  V30 10594 H 1020.59 -0.604073 2.50417 0
M  V30 10595 H 1020.55 -2.29594 2.14788 0
M  V30 10596 N 1024.32 -1.44642 0.625825 0
M  V30 10597 C 1025.27 -2.27762 -0.104042 0
M  V30 10598 C 1026.26 -1.38364 -0.821232 0
M  V30 10599 O 1027.45 -1.62214 -0.708213 0
M  V30 10600 C 1024.58 -3.25585 -1.08853 0
M  V30 10601 C 1023.66 -4.22472 -0.371241 0
M  V30 10602 N 1024.06 -5.02262 0.597226 0
M  V30 10603 C 1022.35 -4.4172 -0.616392 0
M  V30 10604 C 1023.05 -5.72678 1.02053 0
M  V30 10605 N 1022.03 -5.42404 0.360423 0
M  V30 10606 H 1025.83 -2.86858 0.639517 0
M  V30 10607 H 1023.35 -1.56015 0.450911 0
M  V30 10608 H 1025.34 -3.83885 -1.62597 0
M  V30 10609 H 1024 -2.68051 -1.83245 0
M  V30 10610 H 1025.01 -5.08643 0.974803 0
M  V30 10611 H 1021.69 -3.9529 -1.34359 0
M  V30 10612 H 1023.08 -6.46772 1.82033 0
M  V30 10613 N 1025.8 -0.366053 -1.5329 0
M  V30 10614 C 1027.04 0.223558 -2.03174 0
M  V30 10615 C 1027.41 1.45955 -1.24745 0
M  V30 10616 O 1028.61 2.12481 -1.64637 0
M  V30 10617 C 1026.88 0.507899 -3.53773 0
M  V30 10618 S 1028.44 1.07111 -4.25526 0
M  V30 10619 H 1025.25 0.0650309 -0.70802 0
M  V30 10620 H 1027.86 -0.509028 -1.88757 0
M  V30 10621 H 1026.56 -0.39913 -4.08455 0
M  V30 10622 H 1026.09 1.26954 -3.72352 0
M  V30 10623 H 1028.11 2.35533 -4.36737 0
M  V30 10624 N 1027.28 1.57312 -0.0952337 0
M  V30 10625 C 1028.53 1.94646 0.569284 0
M  V30 10626 C 1028.86 0.977152 1.67825 0
M  V30 10627 O 1028.13 0.0102318 1.94497 0
M  V30 10628 C 1028.42 3.42098 1.12433 0
M  V30 10629 C 1028.27 4.49795 0.0204016 0
M  V30 10630 C 1029.59 3.90866 2.02266 0
M  V30 10631 H 1026.71 0.707779 0.205469 0
M  V30 10632 H 1029.35 1.89274 -0.16597 0
M  V30 10633 H 1027.5 3.46807 1.75092 0
M  V30 10634 H 1029.17 4.57198 -0.613845 0
M  V30 10635 H 1027.41 4.28964 -0.645965 0
M  V30 10636 H 1028.09 5.50166 0.449579 0
M  V30 10637 H 1030.56 3.88311 1.49512 0
M  V30 10638 H 1029.44 4.94604 2.38029 0
M  V30 10639 H 1029.7 3.30167 2.9401 0
M  V30 10640 N 1028.76 -0.17846 1.56586 0
M  V30 10641 C 1029.72 -1.20479 1.94981 0
M  V30 10642 C 1030.72 -1.37561 0.832677 0
M  V30 10643 O 1031.91 -1.35089 1.09984 0
M  V30 10644 C 1029.04 -2.57117 2.23839 0
M  V30 10645 H 1030.24 -0.876173 2.86816 0
M  V30 10646 H 1027.79 -0.420635 1.50534 0
M  V30 10647 H 1028.52 -2.95005 1.34695 0
M  V30 10648 H 1028.31 -2.46086 3.05261 0
M  V30 10649 H 1029.8 -3.31096 2.5449 0
M  V30 10650 N 1030.24 -1.51135 -0.446768 0
M  V30 10651 C 1031.2 -1.71187 -1.52406 0
M  V30 10652 C 1032.2 -0.582037 -1.49897 0
M  V30 10653 O 1033.39 -0.849452 -1.52085 0
M  V30 10654 C 1030.52 -1.75962 -2.91976 0
M  V30 10655 H 1031.71 -2.67324 -1.35934 0
M  V30 10656 H 1029.27 -1.40982 -0.674813 0
M  V30 10657 H 1030 -0.816065 -3.13864 0
M  V30 10658 H 1029.79 -2.58065 -2.95203 0
M  V30 10659 H 1031.28 -1.93347 -3.70144 0
M  V30 10660 N 1031.71 0.701592 -1.41122 0
M  V30 10661 C 1032.95 1.4739 -1.41618 0
M  V30 10662 C 1033.32 1.91987 -0.0219443 0
M  V30 10663 O 1034.52 2.6862 0.0982793 0
M  V30 10664 C 1032.79 2.65745 -2.38986 0
M  V30 10665 S 1034.35 3.54968 -2.5796 0
M  V30 10666 H 1031.17 0.503742 -0.501762 0
M  V30 10667 H 1033.77 0.819186 -1.77509 0
M  V30 10668 H 1032.47 2.31176 -3.39096 0
M  V30 10669 H 1032 3.36115 -2.04426 0
M  V30 10670 H 1034.02 4.60724 -1.84249 0
M  V30 10671 N 1033.19 1.2685 0.935242 0
M  V30 10672 C 1034.6 1.11569 1.49697 0
M  V30 10673 C 1034.95 -0.301952 1.93863 0
M  V30 10674 O 1034.08 -1.19408 1.80473 0
M  V30 10675 C 1034.67 2.01918 2.72056 0
M  V30 10676 C 1033.23 1.90765 3.24477 0
M  V30 10677 C 1032.38 1.94918 1.97237 0
M  V30 10678 H 1035.33 1.39853 0.750116 0
M  V30 10679 H 1035.35 1.57056 3.46574 0
M  V30 10680 H 1034.86 3.05088 2.39881 0
M  V30 10681 H 1032.96 0.905521 3.61429 0
M  V30 10682 H 1033.08 2.76611 3.91182 0
M  V30 10683 H 1031.44 1.39046 2.13397 0
M  V30 10684 H 1032.22 2.99729 1.67385 0
M  V30 10685 N 1034.67 -1.14067 1.0875 0
M  V30 10686 C 1035.62 -2.17302 0.690195 0
M  V30 10687 C 1036.6 -1.58229 -0.291948 0
M  V30 10688 O 1037.8 -1.76698 -0.103411 0
M  V30 10689 C 1034.93 -3.4314 0.104835 0
M  V30 10690 C 1034.01 -4.09235 1.11298 0
M  V30 10691 N 1034.4 -4.50601 2.29765 0
M  V30 10692 C 1032.7 -4.35775 0.949535 0
M  V30 10693 C 1033.4 -5.02029 2.93839 0
M  V30 10694 N 1032.38 -4.96457 2.21431 0
M  V30 10695 H 1036.18 -2.47031 1.59226 0
M  V30 10696 H 1033.69 -1.30788 0.962722 0
M  V30 10697 H 1035.69 -4.16431 -0.197777 0
M  V30 10698 H 1034.35 -3.14888 -0.792172 0
M  V30 10699 H 1035.36 -4.43529 2.67399 0
M  V30 10700 H 1032.04 -4.17364 0.106627 0
M  V30 10701 H 1033.43 -5.43885 3.94511 0
M  V30 10702 N 1036.15 -0.873678 -1.31166 0
M  V30 10703 C 1037.37 -0.500242 -2.01277 0
M  V30 10704 C 1037.8 0.900811 -1.65127 0
M  V30 10705 O 1037.16 1.59504 -0.861862 0
M  V30 10706 C 1037.2 -0.668976 -3.5434 0
M  V30 10707 O 1036.31 0.290096 -4.11378 0
M  V30 10708 H 1035.65 -0.198507 -0.633633 0
M  V30 10709 H 1038.18 -1.17811 -1.67277 0
M  V30 10710 H 1038.19 -0.563673 -4.04088 0
M  V30 10711 H 1036.86 -1.69055 -3.79991 0
M  V30 10712 H 1035.44 0.139437 -3.72639 0
M  V30 10713 N 1037.63 1.44308 -0.633487 0
M  V30 10714 C 1038.59 2.2912 0.060376 0
M  V30 10715 C 1039.59 1.41166 0.769992 0
M  V30 10716 O 1040.78 1.63012 0.614224 0
M  V30 10717 C 1037.91 3.22798 1.0961 0
M  V30 10718 H 1039.1 2.91958 -0.685617 0
M  V30 10719 H 1036.66 1.51259 -0.393738 0
M  V30 10720 H 1037.39 2.64815 1.87199 0
M  V30 10721 H 1037.18 3.87618 0.591161 0
M  V30 10722 H 1038.67 3.86504 1.58127 0
M  V30 10723 N 1039.1 0.374177 1.53094 0
M  V30 10724 C 1040.35 -0.213981 2.00562 0
M  V30 10725 C 1040.67 -1.4916 1.26533 0
M  V30 10726 O 1041.87 -2.15889 1.64634 0
M  V30 10727 C 1040.33 -0.431876 3.57299 0
M  V30 10728 C 1039.94 0.831615 4.40214 0
M  V30 10729 C 1041.68 -0.977222 4.13099 0
M  V30 10730 C 1039.59 0.582831 5.88521 0
M  V30 10731 H 1038.52 -0.0837386 0.749336 0
M  V30 10732 H 1041.17 0.494245 1.76719 0
M  V30 10733 H 1039.55 -1.20158 3.7733 0
M  V30 10734 H 1040.72 1.60477 4.31953 0
M  V30 10735 H 1039.04 1.30081 3.9556 0
M  V30 10736 H 1041.64 -1.17881 5.21544 0
M  V30 10737 H 1041.98 -1.94189 3.68234 0
M  V30 10738 H 1042.51 -0.267473 3.969 0
M  V30 10739 H 1039.25 1.51807 6.37679 0
M  V30 10740 H 1038.77 -0.151666 5.99608 0
M  V30 10741 H 1040.45 0.211604 6.46654 0
M  V30 10742 N 1040.58 -1.57259 0.103575 0
M  V30 10743 C 1042 -1.57581 -0.253062 0
M  V30 10744 C 1042.2 -1.11531 -1.67819 0
M  V30 10745 O 1041.25 -0.795632 -2.39637 0
M  V30 10746 C 1042.57 -3.00681 -0.0337753 0
M  V30 10747 C 1044.12 -3.12837 -0.10087 0
M  V30 10748 C 1044.59 -4.57911 0.0905295 0
M  V30 10749 N 1046.08 -4.63186 0.0359789 0
M  V30 10750 C 1046.82 -5.73179 0.159199 0
M  V30 10751 N 1046.31 -6.91976 0.337728 0
M  V30 10752 N 1048.11 -5.62011 0.0998662 0
M  V30 10753 H 1040.26 -1.85499 1.0346 0
M  V30 10754 H 1042.52 -0.856584 0.406163 0
M  V30 10755 H 1042.23 -3.38602 0.950858 0
M  V30 10756 H 1042.1 -3.69207 -0.772406 0
M  V30 10757 H 1044.49 -2.74783 -1.07601 0
M  V30 10758 H 1044.57 -2.46886 0.66939 0
M  V30 10759 H 1044.21 -4.9666 1.06258 0
M  V30 10760 H 1044.14 -5.21933 -0.699528 0
M  V30 10761 H 1046.63 -3.7777 -0.099121 0
M  V30 10762 H 1046.95 -7.71641 0.423032 0
M  V30 10763 H 1045.29 -6.93996 0.373504 0
M  V30 10764 H 1048.48 -4.68084 -0.0385356 0
M  V30 10765 H 1048.65 -6.47693 0.199342 0
M  V30 10766 N 1042.06 0.170153 -1.56679 0
M  V30 10767 C 1043.02 1.19443 -1.95617 0
M  V30 10768 C 1044.02 1.37118 -0.83996 0
M  V30 10769 O 1045.21 1.34504 -1.10699 0
M  V30 10770 C 1042.35 2.55926 -2.25199 0
M  V30 10771 H 1043.54 0.86095 -2.87276 0
M  V30 10772 H 1041.09 0.412646 -1.50755 0
M  V30 10773 H 1041.83 2.94286 -1.36257 0
M  V30 10774 H 1041.61 2.44464 -3.06562 0
M  V30 10775 H 1043.1 3.29742 -2.56242 0
M  V30 10776 N 1043.54 1.5137 0.438746 0
M  V30 10777 C 1044.49 1.72582 1.53245 0
M  V30 10778 C 1045.46 0.567488 1.56105 0
M  V30 10779 O 1046.64 0.80176 1.73137 0
M  V30 10780 C 1043.78 1.85551 2.90972 0
M  V30 10781 C 1042.89 3.13094 2.97652 0
M  V30 10782 C 1042.03 3.16666 4.26493 0
M  V30 10783 C 1041.07 4.38529 4.27035 0
M  V30 10784 N 1040.2 4.39659 5.47398 0
M  V30 10785 H 1045.04 2.65941 1.3446 0
M  V30 10786 H 1042.58 1.31801 0.653206 0
M  V30 10787 H 1044.54 1.91053 3.70884 0
M  V30 10788 H 1043.17 0.956025 3.08318 0
M  V30 10789 H 1042.22 3.16909 2.10412 0
M  V30 10790 H 1043.53 4.03009 2.93914 0
M  V30 10791 H 1042.69 3.21075 5.14777 0
M  V30 10792 H 1041.43 2.24637 4.32885 0
M  V30 10793 H 1040.43 4.34297 3.37144 0
M  V30 10794 H 1041.66 5.31821 4.22307 0
M  V30 10795 H 1039.6 3.50499 5.54514 0
M  V30 10796 H 1039.52 5.23382 5.45534 0
M  V30 10797 H 1040.79 4.48259 6.37718 0
M  V30 10798 N 1045.02 -0.694098 1.41492 0
M  V30 10799 C 1046.26 -1.4563 1.41137 0
M  V30 10800 C 1046.6 -1.94189 0.0208428 0
M  V30 10801 O 1045.87 -1.69628 -0.951655 0
M  V30 10802 C 1046.15 -2.66714 2.41941 0
M  V30 10803 C 1046.01 -2.23912 3.90107 0
M  V30 10804 C 1047.33 -3.68913 2.39981 0
M  V30 10805 H 1044.44 -0.52821 0.513968 0
M  V30 10806 H 1047.09 -0.790437 1.72778 0
M  V30 10807 H 1045.24 -3.23525 2.1509 0
M  V30 10808 H 1046.91 -1.72417 4.27867 0
M  V30 10809 H 1045.15 -1.5568 4.04903 0
M  V30 10810 H 1045.82 -3.108 4.56188 0
M  V30 10811 H 1048.3 -3.21779 2.63813 0
M  V30 10812 H 1047.17 -4.51242 3.12524 0
M  V30 10813 H 1047.44 -4.18711 1.41892 0
M  V30 10814 N 1046.49 -1.27344 -0.928501 0
M  V30 10815 C 1047.74 -1.13804 -1.67859 0
M  V30 10816 C 1048.07 0.31555 -1.91619 0
M  V30 10817 O 1047.35 1.23087 -1.50599 0
M  V30 10818 C 1047.63 -1.9213 -3.04562 0
M  V30 10819 C 1047.48 -3.45468 -2.88048 0
M  V30 10820 C 1048.8 -1.72513 -4.04879 0
M  V30 10821 H 1045.92 -0.414796 -0.609191 0
M  V30 10822 H 1048.56 -1.5649 -1.07753 0
M  V30 10823 H 1046.71 -1.55853 -3.55868 0
M  V30 10824 H 1048.39 -3.9157 -2.43865 0
M  V30 10825 H 1046.63 -3.71849 -2.23407 0
M  V30 10826 H 1047.3 -3.95515 -3.85061 0
M  V30 10827 H 1049.78 -2.04143 -3.62581 0
M  V30 10828 H 1048.65 -2.29713 -4.98521 0
M  V30 10829 H 1048.91 -0.672856 -4.3695 0
M  V30 10830 N 1047.97 1.13488 -1.09353 0
M  V30 10831 C 1049.38 1.66299 -0.848609 0
M  V30 10832 C 1049.73 1.86044 0.623051 0
M  V30 10833 O 1048.86 1.57871 1.48005 0
M  V30 10834 C 1049.45 3.02087 -1.53391 0
M  V30 10835 C 1048.01 3.51893 -1.33598 0
M  V30 10836 C 1047.16 2.27154 -1.59048 0
M  V30 10837 H 1050.11 0.974208 -1.25279 0
M  V30 10838 H 1050.13 3.68018 -0.966587 0
M  V30 10839 H 1049.64 2.87684 -2.60498 0
M  V30 10840 H 1047.75 3.715 -0.286045 0
M  V30 10841 H 1047.86 4.32059 -2.0703 0
M  V30 10842 H 1046.22 2.33708 -1.01256 0
M  V30 10843 H 1047.01 2.15317 -2.67383 0
M  V30 10844 N 1049.45 0.880621 1.30701 0
M  V30 10845 C 1050.86 0.547993 1.78477 0
M  V30 10846 C 1051.21 -0.935633 1.72454 0
M  V30 10847 O 1050.34 -1.73094 1.29874 0
M  V30 10848 C 1050.93 0.98795 3.24076 0
M  V30 10849 C 1049.49 0.706805 3.69704 0
M  V30 10850 C 1048.64 1.17335 2.51252 0
M  V30 10851 H 1051.59 1.06528 1.17633 0
M  V30 10852 H 1051.61 0.31508 3.79193 0
M  V30 10853 H 1051.12 2.06778 3.28427 0
M  V30 10854 H 1049.22 -0.36122 3.70845 0
M  V30 10855 H 1049.34 1.2913 4.6137 0
M  V30 10856 H 1047.7 0.592808 2.47705 0
M  V30 10857 H 1048.48 2.26083 2.58343 0
M  V30 10858 N 1050.93 -1.4397 0.641131 0
M  V30 10859 C 1051.84 -2.34526 -0.058742 0
M  V30 10860 C 1052.86 -1.53194 -0.825088 0
M  V30 10861 O 1054.03 -1.85888 -0.775081 0
M  V30 10862 C 1051.1 -3.31313 -1.02139 0
M  V30 10863 C 1050.16 -4.28552 -0.253319 0
M  V30 10864 C 1049.39 -5.20715 -1.17012 0
M  V30 10865 O 1049.61 -5.17028 -2.40911 0
M  V30 10866 O 1048.55 -5.9839 -0.649039 0
M  V30 10867 H 1052.37 -2.95843 0.686329 0
M  V30 10868 H 1049.96 -1.43909 0.401316 0
M  V30 10869 H 1051.84 -3.90862 -1.57496 0
M  V30 10870 H 1050.52 -2.72516 -1.7469 0
M  V30 10871 H 1049.42 -3.72519 0.343531 0
M  V30 10872 H 1050.76 -4.90297 0.432372 0
M  V30 10873 N 1052.41 -0.382291 -1.52893 0
M  V30 10874 C 1053.37 0.44408 -2.24857 0
M  V30 10875 C 1054.37 0.996004 -1.26239 0
M  V30 10876 O 1055.56 0.879114 -1.5039 0
M  V30 10877 C 1052.69 1.62234 -2.99822 0
M  V30 10878 H 1053.89 -0.185862 -2.99324 0
M  V30 10879 H 1051.44 -0.134275 -1.55722 0
M  V30 10880 H 1052.17 2.28991 -2.29638 0
M  V30 10881 H 1051.96 1.23336 -3.72197 0
M  V30 10882 H 1053.45 2.20756 -3.54481 0
M  V30 10883 N 1053.89 1.57202 -0.111913 0
M  V30 10884 C 1054.82 2.10634 0.877983 0
M  V30 10885 C 1055.8 1.02098 1.26549 0
M  V30 10886 O 1056.98 1.29707 1.36779 0
M  V30 10887 C 1054.11 2.59721 2.174 0
M  V30 10888 C 1053.15 3.80074 1.93509 0
M  V30 10889 S 1053.99 5.22834 1.1578 0
M  V30 10890 C 1055.14 5.75284 2.46576 0
M  V30 10891 H 1055.38 2.94268 0.423483 0
M  V30 10892 H 1052.91 1.54065 0.101721 0
M  V30 10893 H 1054.87 2.88657 2.91868 0
M  V30 10894 H 1053.53 1.76281 2.59969 0
M  V30 10895 H 1052.72 4.12545 2.89522 0
M  V30 10896 H 1052.32 3.51718 1.27164 0
M  V30 10897 H 1054.61 5.84576 3.42457 0
M  V30 10898 H 1055.56 6.73493 2.1866 0
M  V30 10899 H 1055.97 5.03308 2.55619 0
M  V30 10900 N 1055.36 -0.161842 1.56767 0
M  V30 10901 C 1056.27 -1.21996 2.00385 0
M  V30 10902 C 1057.29 -1.4789 0.916768 0
M  V30 10903 O 1058.47 -1.59852 1.22513 0
M  V30 10904 C 1055.53 -2.53695 2.36305 0
M  V30 10905 C 1054.59 -2.3558 3.58888 0
M  V30 10906 C 1053.82 -3.60998 3.93085 0
M  V30 10907 O 1054.05 -4.6657 3.28129 0
M  V30 10908 O 1052.98 -3.54544 4.86397 0
M  V30 10909 H 1056.81 -0.879701 2.9068 0
M  V30 10910 H 1054.39 -0.369437 1.4476 0
M  V30 10911 H 1056.27 -3.31366 2.60335 0
M  V30 10912 H 1054.95 -2.87281 1.49169 0
M  V30 10913 H 1053.86 -1.55908 3.40064 0
M  V30 10914 H 1055.19 -2.06915 4.46595 0
M  V30 10915 N 1056.84 -1.516 -0.430713 0
M  V30 10916 C 1057.79 -1.73975 -1.54387 0
M  V30 10917 C 1058.78 -0.606222 -1.58181 0
M  V30 10918 O 1059.99 -0.787764 -1.61846 0
M  V30 10919 H 1056.36 -0.549811 -0.513041 0
M  V30 10920 H 1058.34 -2.67274 -1.32692 0
M  V30 10921 C 1057.08 -1.88794 -2.9198 0
M  V30 10922 H 1056.41 -2.75425 -2.89795 0
M  V30 10923 H 1057.85 -2.08458 -3.69217 0
M  V30 10924 C 1056.31 -0.649427 -3.30581 0
M  V30 10925 O 1056.84 0.192823 -4.01237 0
M  V30 10926 N 1055.04 -0.491586 -2.86412 0
M  V30 10927 H 1054.59 -1.17806 -2.29084 0
M  V30 10928 H 1054.55 0.33583 -3.12601 0
M  V30 10929 N 1058.32 0.686584 -1.41858 0
M  V30 10930 C 1059.28 1.78214 -1.44126 0
M  V30 10931 C 1060.28 1.57366 -0.330541 0
M  V30 10932 O 1061.47 1.63874 -0.590837 0
M  V30 10933 C 1058.6 3.16704 -1.26142 0
M  V30 10934 H 1059.8 1.77594 -2.41661 0
M  V30 10935 H 1057.35 0.895085 -1.28132 0
M  V30 10936 H 1058.09 3.22957 -0.294823 0
M  V30 10937 H 1057.87 3.33238 -2.06627 0
M  V30 10938 H 1059.36 3.96658 -1.30584 0
M  V30 10939 N 1059.8 1.27835 0.921735 0
M  V30 10940 C 1061.21 1.13151 1.48505 0
M  V30 10941 C 1061.56 -0.281373 1.94172 0
M  V30 10942 O 1060.68 -1.17487 1.8173 0
M  V30 10943 C 1061.28 2.04792 2.69899 0
M  V30 10944 C 1059.84 1.94196 3.22436 0
M  V30 10945 C 1058.99 1.96999 1.95158 0
M  V30 10946 H 1061.94 1.40641 0.735241 0
M  V30 10947 H 1061.96 1.60724 3.44889 0
M  V30 10948 H 1061.47 3.07615 2.36631 0
M  V30 10949 H 1059.57 0.943805 3.60448 0
M  V30 10950 H 1059.68 2.80744 3.88226 0
M  V30 10951 H 1058.05 1.41301 2.11911 0
M  V30 10952 H 1058.83 3.01487 1.64196 0
M  V30 10953 N 1061.28 -1.12907 1.09954 0
M  V30 10954 C 1062.24 -2.16673 0.747364 0
M  V30 10955 C 1063.24 -1.59208 -0.225741 0
M  V30 10956 O 1064.43 -1.742 -0.00322482 0
M  V30 10957 C 1061.56 -3.40735 0.106169 0
M  V30 10958 H 1062.75 -2.49341 1.6664 0
M  V30 10959 H 1060.31 -1.27828 0.899421 0
M  V30 10960 H 1061.04 -3.13661 -0.82384 0
M  V30 10961 H 1060.83 -3.83717 0.806434 0
M  V30 10962 H 1062.32 -4.17414 -0.12464 0
M  V30 10963 N 1062.75 -0.88754 -1.30232 0
M  V30 10964 C 1063.98 -0.521562 -2.00735 0
M  V30 10965 C 1064.4 0.883247 -1.66073 0
M  V30 10966 O 1063.76 1.58581 -0.878731 0
M  V30 10967 C 1063.81 -0.706521 -3.53611 0
M  V30 10968 O 1062.91 0.246447 -4.11663 0
M  V30 10969 H 1062.25 -0.205216 -0.631492 0
M  V30 10970 H 1064.78 -1.19579 -1.66018 0
M  V30 10971 H 1064.79 -0.606501 -4.03467 0
M  V30 10972 H 1063.47 -1.73076 -3.78177 0
M  V30 10973 H 1062.05 0.0999062 -3.72766 0
M  V30 10974 N 1064.23 1.43628 -0.648757 0
M  V30 10975 C 1065.16 2.33478 0.0320785 0
M  V30 10976 C 1066.14 1.49217 0.816605 0
M  V30 10977 O 1067.33 1.77892 0.778974 0
M  V30 10978 C 1064.46 3.32525 1.00222 0
M  V30 10979 C 1063.41 4.2674 0.328119 0
M  V30 10980 C 1062.74 5.15791 1.4094 0
M  V30 10981 C 1064.04 5.16493 -0.776701 0
M  V30 10982 H 1065.73 2.90657 -0.718257 0
M  V30 10983 H 1063.28 1.3976 -0.346852 0
M  V30 10984 H 1065.23 3.94277 1.4874 0
M  V30 10985 H 1063.96 2.73593 1.78366 0
M  V30 10986 H 1062.61 3.66346 -0.136569 0
M  V30 10987 H 1062.26 4.53201 2.18216 0
M  V30 10988 H 1061.96 5.79645 0.963631 0
M  V30 10989 H 1063.49 5.80416 1.89603 0
M  V30 10990 H 1064.9 5.7208 -0.373878 0
M  V30 10991 H 1063.3 5.89043 -1.14667 0
M  V30 10992 H 1064.37 4.56448 -1.63654 0
M  V30 10993 N 1065.71 0.390394 1.52688 0
M  V30 10994 C 1066.66 -0.461191 2.23287 0
M  V30 10995 C 1067.64 -1.02875 1.23716 0
M  V30 10996 O 1068.84 -0.954675 1.49047 0
M  V30 10997 C 1065.97 -1.58736 3.04397 0
M  V30 10998 C 1065.05 -1.03149 4.11365 0
M  V30 10999 N 1065.44 -0.20066 5.05402 0
M  V30 11000 C 1063.74 -1.30388 4.26515 0
M  V30 11001 C 1064.44 0.106548 5.81602 0
M  V30 11002 N 1063.42 -0.497687 5.41317 0
M  V30 11003 H 1067.22 0.1801 2.93348 0
M  V30 11004 H 1064.73 0.199761 1.61167 0
M  V30 11005 H 1066.73 -2.20986 3.53512 0
M  V30 11006 H 1065.39 -2.23147 2.35872 0
M  V30 11007 H 1066.4 0.162168 5.17646 0
M  V30 11008 H 1063.08 -1.94894 3.69219 0
M  V30 11009 H 1064.47 0.779778 6.6736 0
M  V30 11010 N 1067.19 -1.57141 0.120249 0
M  V30 11011 C 1068.41 -2.00017 -0.548454 0
M  V30 11012 C 1068.84 -0.999433 -1.59352 0
M  V30 11013 O 1068.2 0.0286978 -1.81277 0
M  V30 11014 C 1068.24 -3.41766 -1.15015 0
M  V30 11015 O 1067.35 -3.44589 -2.26566 0
M  V30 11016 H 1066.69 -0.649739 -0.136875 0
M  V30 11017 H 1069.22 -2.03529 0.209092 0
M  V30 11018 H 1069.23 -3.80001 -1.48537 0
M  V30 11019 H 1067.9 -4.14117 -0.384681 0
M  V30 11020 H 1066.48 -3.18174 -1.94473 0
M  V30 11021 N 1068.67 0.153526 -1.5685 0
M  V30 11022 C 1069.6 1.19162 -2.00805 0
M  V30 11023 C 1070.58 1.45172 -0.886518 0
M  V30 11024 O 1071.76 1.56203 -1.15387 0
M  V30 11025 C 1068.89 2.52637 -2.38311 0
M  V30 11026 C 1067.85 2.41161 -3.53589 0
M  V30 11027 C 1067.17 3.79287 -3.76889 0
M  V30 11028 C 1068.47 1.90122 -4.86468 0
M  V30 11029 H 1070.17 0.82617 -2.87776 0
M  V30 11030 H 1067.71 0.395972 -1.38449 0
M  V30 11031 H 1069.67 3.25478 -2.6766 0
M  V30 11032 H 1068.39 2.91005 -1.4827 0
M  V30 11033 H 1067.05 1.70772 -3.24395 0
M  V30 11034 H 1066.7 4.15079 -2.84109 0
M  V30 11035 H 1066.4 3.72472 -4.54465 0
M  V30 11036 H 1067.92 4.53687 -4.08657 0
M  V30 11037 H 1069.33 2.52752 -5.14577 0
M  V30 11038 H 1067.73 1.94214 -5.67804 0
M  V30 11039 H 1068.8 0.856517 -4.77275 0
M  V30 11040 N 1070.14 1.51827 0.422667 0
M  V30 11041 C 1071.42 1.55772 1.18299 0
M  V30 11042 C 1071.8 0.330657 2.08494 0
M  V30 11043 O 1071.15 -0.683373 2.18042 0
M  V30 11044 C 1071.36 2.87941 1.97208 0
M  V30 11045 C 1072.71 3.4044 2.53744 0
M  V30 11046 O 1073.73 2.8959 2.07403 0
M  V30 11047 O 1072.59 4.29201 3.38303 0
M  V30 11048 H 1069.68 0.626889 0.539388 0
M  V30 11049 H 1072.23 1.64147 0.430545 0
M  V30 11050 H 1071 3.68702 1.31052 0
M  V30 11051 H 1070.63 2.82795 2.79486 0
M  V30 11052 N 1071.62 -0.679052 1.4222 0
M  V30 11053 C 1072.87 -1.44125 1.42674 0
M  V30 11054 C 1073.2 -1.94156 0.041438 0
M  V30 11055 O 1072.48 -1.70628 -0.93361 0
M  V30 11056 C 1072.76 -2.64133 2.44756 0
M  V30 11057 C 1072.61 -2.19761 3.9246 0
M  V30 11058 C 1073.93 -3.66347 2.43881 0
M  V30 11059 H 1071.05 -0.522729 0.519541 0
M  V30 11060 H 1073.69 -0.772067 1.73606 0
M  V30 11061 H 1071.84 -3.21225 2.1851 0
M  V30 11062 H 1073.51 -1.67869 4.29671 0
M  V30 11063 H 1071.76 -1.51377 4.06531 0
M  V30 11064 H 1072.43 -3.05944 4.59459 0
M  V30 11065 H 1074.9 -3.18963 2.67211 0
M  V30 11066 H 1073.78 -4.47902 3.17293 0
M  V30 11067 H 1074.04 -4.17183 1.46325 0
M  V30 11068 N 1073.1 -1.28322 -0.914942 0
M  V30 11069 C 1074.05 -1.12146 -2.01722 0
M  V30 11070 C 1075.02 -0.0189279 -1.66089 0
M  V30 11071 O 1076.2 -0.183638 -1.89914 0
M  V30 11072 C 1073.34 -0.78808 -3.35981 0
M  V30 11073 C 1072.46 -1.96954 -3.84491 0
M  V30 11074 C 1071.59 -1.57688 -5.07255 0
M  V30 11075 C 1070.63 -2.72506 -5.48094 0
M  V30 11076 N 1069.77 -2.33741 -6.62049 0
M  V30 11077 H 1074.61 -2.06461 -2.1489 0
M  V30 11078 H 1072.14 -1.0276 -1.05256 0
M  V30 11079 H 1074.1 -0.575546 -4.13211 0
M  V30 11080 H 1072.73 0.118132 -3.22584 0
M  V30 11081 H 1071.78 -2.29423 -3.03429 0
M  V30 11082 H 1073.1 -2.8304 -4.10719 0
M  V30 11083 H 1072.25 -1.32634 -5.92025 0
M  V30 11084 H 1070.99 -0.687291 -4.82833 0
M  V30 11085 H 1069.99 -2.9826 -4.61867 0
M  V30 11086 H 1071.22 -3.62106 -5.74505 0
M  V30 11087 H 1069.16 -1.4725 -6.3926 0
M  V30 11088 H 1069.08 -3.13364 -6.87997 0
M  V30 11089 H 1070.35 -2.11968 -7.50127 0
M  V30 11090 N 1074.58 1.12322 -1.10551 0
M  V30 11091 C 1075.8 1.8822 -0.871093 0
M  V30 11092 C 1076.23 1.7916 0.573005 0
M  V30 11093 O 1075.59 1.14738 1.40374 0
M  V30 11094 C 1075.63 3.35349 -1.32565 0
M  V30 11095 O 1074.74 4.09461 -0.49145 0
M  V30 11096 H 1074.08 0.584787 -0.314516 0
M  V30 11097 H 1076.61 1.42039 -1.47262 0
M  V30 11098 H 1076.62 3.86189 -1.31612 0
M  V30 11099 H 1075.29 3.4126 -2.37728 0
M  V30 11100 H 1073.87 3.68575 -0.566294 0
M  V30 11101 N 1076.06 0.894434 1.2976 0
M  V30 11102 C 1077.47 0.589778 1.48303 0
M  V30 11103 C 1077.67 -0.870085 1.81746 0
M  V30 11104 O 1076.73 -1.65065 1.91076 0
M  V30 11105 C 1078.04 1.51107 2.59975 0
M  V30 11106 C 1079.59 1.51571 2.73853 0
M  V30 11107 C 1080.06 2.42316 3.88648 0
M  V30 11108 N 1081.56 2.40333 3.95973 0
M  V30 11109 C 1082.29 3.07254 4.84131 0
M  V30 11110 N 1081.79 3.83435 5.77018 0
M  V30 11111 N 1083.58 2.96438 4.77578 0
M  V30 11112 H 1075.73 1.83871 1.06327 0
M  V30 11113 H 1077.99 0.78758 0.527657 0
M  V30 11114 H 1077.7 2.55097 2.42112 0
M  V30 11115 H 1077.57 1.22767 3.56662 0
M  V30 11116 H 1079.96 0.483277 2.91116 0
M  V30 11117 H 1080.04 1.83946 1.77757 0
M  V30 11118 H 1079.69 3.4565 3.72141 0
M  V30 11119 H 1079.62 2.07252 4.84101 0
M  V30 11120 H 1082.11 1.84979 3.29532 0
M  V30 11121 H 1082.42 4.31565 6.4107 0
M  V30 11122 H 1080.76 3.87542 5.7692 0
M  V30 11123 H 1083.96 2.36442 4.03996 0
M  V30 11124 H 1084.13 3.48867 5.46073 0
M  V30 11125 N 1077.53 -1.43282 0.656365 0
M  V30 11126 C 1078.81 -1.9534 0.100816 0
M  V30 11127 C 1079.19 -1.59755 -1.37992 0
M  V30 11128 O 1078.54 -0.884264 -2.10697 0
M  V30 11129 C 1078.75 -3.47237 0.35038 0
M  V30 11130 C 1080.1 -4.23822 0.257001 0
M  V30 11131 O 1081.12 -3.55073 0.283111 0
M  V30 11132 O 1079.98 -5.46192 0.183397 0
M  V30 11133 H 1077.07 -0.826963 -0.00780287 0
M  V30 11134 H 1079.62 -1.53205 0.72982 0
M  V30 11135 H 1078.39 -3.66276 1.37685 0
M  V30 11136 H 1078.02 -3.96378 -0.311539 0
M  V30 11137 N 1079.01 -0.398486 -1.52479 0
M  V30 11138 C 1079.95 0.476551 -2.23169 0
M  V30 11139 C 1080.92 1.05665 -1.23587 0
M  V30 11140 O 1082.11 1.10654 -1.52604 0
M  V30 11141 C 1079.24 1.66048 -2.95204 0
M  V30 11142 C 1078.28 1.20478 -4.0913 0
M  V30 11143 S 1079.11 0.178711 -5.35202 0
M  V30 11144 C 1080.27 1.36821 -6.10762 0
M  V30 11145 H 1080.5 -0.123704 -2.97043 0
M  V30 11146 H 1078.04 -0.182722 -1.53315 0
M  V30 11147 H 1079.99 2.33942 -3.37315 0
M  V30 11148 H 1078.66 2.23206 -2.20993 0
M  V30 11149 H 1077.85 2.08901 -4.58668 0
M  V30 11150 H 1077.45 0.604632 -3.6908 0
M  V30 11151 H 1079.74 2.2937 -6.37492 0
M  V30 11152 H 1080.69 0.913579 -7.02182 0
M  V30 11153 H 1081.09 1.58919 -5.41669 0
M  V30 11154 N 1080.49 1.57075 -0.12858 0
M  V30 11155 C 1081.91 1.57964 0.227961 0
M  V30 11156 C 1082.11 1.14186 1.66023 0
M  V30 11157 O 1081.16 0.833655 2.38341 0
M  V30 11158 C 1082.48 3.00697 -0.0140648 0
M  V30 11159 C 1084.02 3.12958 0.0510876 0
M  V30 11160 C 1084.5 4.57709 -0.163368 0
M  V30 11161 N 1085.99 4.6307 -0.109663 0
M  V30 11162 C 1086.73 5.72853 -0.250366 0
M  V30 11163 N 1086.22 6.91351 -0.447772 0
M  V30 11164 N 1088.01 5.61781 -0.189265 0
M  V30 11165 H 1080.17 1.83829 -1.06398 0
M  V30 11166 H 1082.43 0.850014 -0.419739 0
M  V30 11167 H 1082.13 3.37047 -1.00461 0
M  V30 11168 H 1082.01 3.70389 0.713571 0
M  V30 11169 H 1084.4 2.7646 1.03216 0
M  V30 11170 H 1084.48 2.4579 -0.708583 0
M  V30 11171 H 1084.12 4.94907 -1.14146 0
M  V30 11172 H 1084.05 5.2298 0.616405 0
M  V30 11173 H 1086.54 3.7788 0.0390086 0
M  V30 11174 H 1086.85 7.70871 -0.54574 0
M  V30 11175 H 1085.2 6.93314 -0.483866 0
M  V30 11176 H 1088.39 4.68086 -0.0359374 0
M  V30 11177 H 1088.56 6.47294 -0.302359 0
M  V30 11178 N 1081.97 -0.145205 1.5693 0
M  V30 11179 C 1083.22 -0.855822 1.83085 0
M  V30 11180 C 1083.54 -1.81625 0.709747 0
M  V30 11181 O 1082.81 -1.94052 -0.268456 0
M  V30 11182 H 1081.39 -0.319032 0.675446 0
M  V30 11183 H 1084.05 -0.138781 1.94405 0
M  V30 11184 H 1083.15 -1.41698 2.78079 0
M  V30 11185 N 1083.45 -1.52049 -0.414609 0
M  V30 11186 C 1084.38 -1.7122 -1.52369 0
M  V30 11187 C 1085.39 -0.592634 -1.5163 0
M  V30 11188 O 1086.58 -0.867634 -1.55995 0
M  V30 11189 C 1083.68 -1.73247 -2.91271 0
M  V30 11190 C 1082.85 -3.02153 -3.16263 0
M  V30 11191 C 1081.91 -2.96066 -4.35007 0
M  V30 11192 O 1080.94 -3.69981 -4.32554 0
M  V30 11193 N 1082.14 -2.13478 -5.39822 0
M  V30 11194 H 1084.91 -2.66902 -1.3632 0
M  V30 11195 H 1082.47 -1.50218 -0.603842 0
M  V30 11196 H 1084.46 -1.66714 -3.68766 0
M  V30 11197 H 1083.03 -0.85062 -3.00804 0
M  V30 11198 H 1082.25 -3.22379 -2.2686 0
M  V30 11199 H 1083.54 -3.87439 -3.29801 0
M  V30 11200 H 1082.94 -1.52844 -5.44661 0
M  V30 11201 H 1081.49 -2.12805 -6.16082 0
M  V30 11202 N 1084.93 0.6715 -1.42579 0
M  V30 11203 C 1085.87 1.78496 -1.46314 0
M  V30 11204 C 1086.84 1.63091 -0.314743 0
M  V30 11205 O 1088.03 1.83597 -0.519292 0
M  V30 11206 C 1085.17 3.16548 -1.37447 0
M  V30 11207 C 1084.28 3.43216 -2.62348 0
M  V30 11208 C 1083.42 4.71014 -2.456 0
M  V30 11209 C 1082.45 4.90728 -3.65859 0
M  V30 11210 N 1081.59 6.09769 -3.48032 0
M  V30 11211 H 1086.43 1.74638 -2.41466 0
M  V30 11212 H 1083.97 0.852491 -1.19879 0
M  V30 11213 H 1085.93 3.96329 -1.30303 0
M  V30 11214 H 1084.56 3.19522 -0.458891 0
M  V30 11215 H 1083.61 2.57664 -2.79846 0
M  V30 11216 H 1084.92 3.53675 -3.51732 0
M  V30 11217 H 1084.07 5.58892 -2.3606 0
M  V30 11218 H 1082.81 4.62843 -1.53712 0
M  V30 11219 H 1081.82 4.01291 -3.75827 0
M  V30 11220 H 1083.04 5.00741 -4.58732 0
M  V30 11221 H 1080.99 6.02765 -2.58864 0
M  V30 11222 H 1080.91 6.21104 -4.31005 0
M  V30 11223 H 1082.17 7.00317 -3.42311 0
M  V30 11224 N 1086.4 1.28806 0.908124 0
M  V30 11225 C 1087.63 1.1898 1.689 0
M  V30 11226 C 1088.04 -0.253334 1.87496 0
M  V30 11227 O 1087.38 -1.18245 1.40584 0
M  V30 11228 C 1087.45 1.82266 3.0987 0
M  V30 11229 C 1087.11 3.31534 3.14538 0
M  V30 11230 C 1088.11 4.27886 2.95313 0
M  V30 11231 C 1085.79 3.72589 3.36872 0
M  V30 11232 C 1087.79 5.63267 2.98343 0
M  V30 11233 C 1085.47 5.08095 3.39534 0
M  V30 11234 C 1086.47 6.03244 3.2029 0
M  V30 11235 O 1086.16 7.36277 3.22724 0
M  V30 11236 H 1085.89 0.413772 0.534574 0
M  V30 11237 H 1088.45 1.7055 1.14464 0
M  V30 11238 H 1086.68 1.25197 3.65872 0
M  V30 11239 H 1088.36 1.6688 3.70008 0
M  V30 11240 H 1089.13 3.97502 2.77879 0
M  V30 11241 H 1085.01 2.98989 3.50894 0
M  V30 11242 H 1088.55 6.37511 2.83241 0
M  V30 11243 H 1084.45 5.38126 3.56497 0
M  V30 11244 H 1085.22 7.44976 3.39048 0
M  V30 11245 N 1087.88 -1.11734 1.11145 0
M  V30 11246 C 1089.13 -1.83677 0.859684 0
M  V30 11247 C 1089.46 -1.84265 -0.613182 0
M  V30 11248 O 1088.74 -1.29351 -1.45254 0
M  V30 11249 C 1089.02 -3.31003 1.41805 0
M  V30 11250 C 1088.87 -3.38827 2.95831 0
M  V30 11251 C 1090.19 -4.26984 1.06645 0
M  V30 11252 H 1087.31 -0.666879 0.313754 0
M  V30 11253 H 1089.95 -1.31038 1.37583 0
M  V30 11254 H 1088.1 -3.75961 0.979054 0
M  V30 11255 H 1089.77 -3.02451 3.48312 0
M  V30 11256 H 1088.02 -2.79143 3.32056 0
M  V30 11257 H 1088.69 -4.42508 3.29986 0
M  V30 11258 H 1091.16 -3.9019 1.44537 0
M  V30 11259 H 1090.04 -5.2846 1.48394 0
M  V30 11260 H 1090.3 -4.42094 -0.0231866 0
M  V30 11261 N 1089.36 -0.901303 -1.29284 0
M  V30 11262 C 1090.29 -0.396909 -2.30102 0
M  V30 11263 C 1091.27 0.528919 -1.61668 0
M  V30 11264 O 1092.46 0.439306 -1.89166 0
M  V30 11265 C 1089.59 0.375006 -3.45269 0
M  V30 11266 C 1088.54 -0.46054 -4.25515 0
M  V30 11267 C 1087.87 0.438967 -5.32895 0
M  V30 11268 C 1089.17 -1.7113 -4.93469 0
M  V30 11269 H 1090.86 -1.23943 -2.72541 0
M  V30 11270 H 1088.41 -0.597428 -1.31022 0
M  V30 11271 H 1090.36 0.738622 -4.14876 0
M  V30 11272 H 1089.08 1.25132 -3.01678 0
M  V30 11273 H 1087.74 -0.80651 -3.57618 0
M  V30 11274 H 1087.39 1.31346 -4.85548 0
M  V30 11275 H 1087.09 -0.116406 -5.87485 0
M  V30 11276 H 1088.61 0.79874 -6.05353 0
M  V30 11277 H 1090.03 -1.41732 -5.55504 0
M  V30 11278 H 1088.42 -2.20811 -5.57999 0
M  V30 11279 H 1089.49 -2.44636 -4.18666 0
M  V30 11280 N 1090.84 1.42931 -0.663954 0
M  V30 11281 C 1091.77 2.29122 0.0598878 0
M  V30 11282 C 1092.78 1.43094 0.776404 0
M  V30 11283 O 1093.97 1.66923 0.63237 0
M  V30 11284 C 1091.07 3.20268 1.10822 0
M  V30 11285 C 1090.24 4.34892 0.4677 0
M  V30 11286 C 1089.3 5.06836 1.41435 0
M  V30 11287 O 1088.33 5.61735 0.918818 0
M  V30 11288 N 1089.53 5.11336 2.74801 0
M  V30 11289 H 1092.3 2.91885 -0.679945 0
M  V30 11290 H 1089.86 1.53739 -0.507543 0
M  V30 11291 H 1091.85 3.65264 1.74255 0
M  V30 11292 H 1090.42 2.59031 1.7499 0
M  V30 11293 H 1089.64 3.92679 -0.34593 0
M  V30 11294 H 1090.93 5.08796 0.0210237 0
M  V30 11295 H 1090.33 4.68124 3.1761 0
M  V30 11296 H 1088.88 5.60013 3.33509 0
M  V30 11297 N 1092.32 0.406567 1.52266 0
M  V30 11298 C 1093.56 -0.170305 2.02084 0
M  V30 11299 C 1093.89 -1.45008 1.29176 0
M  V30 11300 O 1093.17 -1.90399 0.39731 0
M  V30 11301 C 1093.45 -0.420627 3.57635 0
M  V30 11302 C 1093.31 0.87564 4.41194 0
M  V30 11303 C 1094.62 -1.20387 4.23314 0
M  V30 11304 H 1091.74 -0.0604219 0.734519 0
M  V30 11305 H 1094.39 0.539529 1.82179 0
M  V30 11306 H 1092.54 -1.0253 3.74726 0
M  V30 11307 H 1094.21 1.51192 4.35819 0
M  V30 11308 H 1092.45 1.48718 4.07511 0
M  V30 11309 H 1093.12 0.654916 5.48101 0
M  V30 11310 H 1095.6 -0.691972 4.10306 0
M  V30 11311 H 1094.47 -1.34776 5.32096 0
M  V30 11312 H 1094.73 -2.2238 3.82099 0
M  V30 11313 N 1093.79 -1.57004 0.136909 0
M  V30 11314 C 1094.76 -2.15066 -0.792419 0
M  V30 11315 C 1095.76 -1.08991 -1.18226 0
M  V30 11316 O 1096.95 -1.34681 -1.10484 0
M  V30 11317 C 1094.08 -2.70554 -2.07397 0
M  V30 11318 H 1095.27 -2.98519 -0.28752 0
M  V30 11319 H 1092.83 -1.55895 -0.112469 0
M  V30 11320 H 1093.56 -1.90739 -2.62277 0
M  V30 11321 H 1093.35 -3.48149 -1.80374 0
M  V30 11322 H 1094.84 -3.15322 -2.73792 0
M  V30 11323 N 1095.27 0.136881 -1.57004 0
M  V30 11324 C 1096.68 0.695911 -1.73245 0
M  V30 11325 C 1097.03 1.8118 -0.75288 0
M  V30 11326 O 1096.16 2.16258 0.0782477 0
M  V30 11327 C 1096.75 1.26914 -3.14131 0
M  V30 11328 C 1095.31 1.77463 -3.31939 0
M  V30 11329 C 1094.46 0.667128 -2.69156 0
M  V30 11330 H 1097.41 -0.0888841 -1.58451 0
M  V30 11331 H 1097.43 2.13892 -3.14691 0
M  V30 11332 H 1096.94 0.456754 -3.85403 0
M  V30 11333 H 1095.05 2.61236 -2.65681 0
M  V30 11334 H 1095.16 1.89638 -4.39971 0
M  V30 11335 H 1093.52 1.09629 -2.29899 0
M  V30 11336 H 1094.31 -0.13398 -3.43038 0
M  V30 11337 N 1096.75 1.52266 0.40654 0
M  V30 11338 C 1097.66 1.78688 1.52012 0
M  V30 11339 C 1098.68 0.6726 1.60475 0
M  V30 11340 O 1099.85 0.95829 1.77141 0
M  V30 11341 C 1096.92 1.93434 2.87722 0
M  V30 11342 C 1095.98 3.17341 2.89125 0
M  V30 11343 C 1095.21 3.31374 4.18362 0
M  V30 11344 O 1095.43 2.50613 5.12396 0
M  V30 11345 O 1094.37 4.24539 4.26674 0
M  V30 11346 H 1098.19 2.73213 1.3262 0
M  V30 11347 H 1095.78 1.37142 0.592653 0
M  V30 11348 H 1097.66 2.04941 3.68208 0
M  V30 11349 H 1096.34 1.02099 3.07177 0
M  V30 11350 H 1095.24 3.1129 2.07483 0
M  V30 11351 H 1096.58 4.08466 2.7462 0
M  V30 11352 N 1098.23 -0.663929 1.42933 0
M  V30 11353 C 1099.51 -1.42054 1.34462 0
M  V30 11354 C 1099.89 -2.11096 -0.0127801 0
M  V30 11355 O 1099.23 -2.04027 -1.02884 0
M  V30 11356 C 1099.44 -2.41406 2.5204 0
M  V30 11357 C 1100.79 -3.05726 2.94647 0
M  V30 11358 O 1101.82 -2.51733 2.52009 0
M  V30 11359 O 1100.67 -4.03593 3.68477 0
M  V30 11360 H 1097.77 -0.634149 0.530834 0
M  V30 11361 H 1100.31 -0.691738 1.54962 0
M  V30 11362 H 1099.09 -1.89263 3.42484 0
M  V30 11363 H 1098.71 -3.21752 2.33584 0
M  V30 11364 N 1099.71 -1.29285 -0.901281 0
M  V30 11365 C 1100.95 -1.18431 -1.66594 0
M  V30 11366 C 1101.31 0.260312 -1.90227 0
M  V30 11367 O 1102.51 0.4918 -2.64263 0
M  V30 11368 C 1100.78 -1.97357 -2.97968 0
M  V30 11369 S 1102.34 -2.03019 -3.8901 0
M  V30 11370 H 1099.16 -0.422323 -0.571983 0
M  V30 11371 H 1101.76 -1.63551 -1.07105 0
M  V30 11372 H 1100.47 -3.01459 -2.78479 0
M  V30 11373 H 1100 -1.52836 -3.62498 0
M  V30 11374 H 1102.01 -1.14572 -4.82791 0
M  V30 11375 N 1101.18 1.11143 -1.11736 0
M  V30 11376 C 1102.41 1.86745 -0.890727 0
M  V30 11377 C 1102.83 1.80315 0.55964 0
M  V30 11378 O 1102.18 1.18663 1.38656 0
M  V30 11379 C 1102.24 3.35436 -1.34779 0
M  V30 11380 O 1101.96 3.41738 -2.74129 0
M  V30 11381 C 1103.46 4.27935 -1.15702 0
M  V30 11382 H 1100.68 0.59044 -0.318781 0
M  V30 11383 H 1103.22 1.40549 -1.48547 0
M  V30 11384 H 1101.38 3.79125 -0.796425 0
M  V30 11385 H 1101.79 4.34347 -2.94012 0
M  V30 11386 H 1103.26 5.30494 -1.52579 0
M  V30 11387 H 1103.74 4.39093 -0.0968735 0
M  V30 11388 H 1104.35 3.90042 -1.69551 0
M  V30 11389 N 1102.66 0.908147 1.28804 0
M  V30 11390 C 1103.91 0.53734 1.94826 0
M  V30 11391 C 1104.23 -0.920962 1.71882 0
M  V30 11392 O 1103.5 -1.65043 1.05534 0
M  V30 11393 H 1102.08 0.195729 0.720902 0
M  V30 11394 H 1104.74 1.15628 1.56895 0
M  V30 11395 H 1103.84 0.727052 3.03513 0
M  V30 11396 N 1104.14 -1.42577 0.671525 0
M  V30 11397 C 1105.38 -2.03455 0.196271 0
M  V30 11398 C 1105.74 -1.51934 -1.17389 0
M  V30 11399 O 1106.95 -2.04577 -1.74361 0
M  V30 11400 C 1105.22 -3.56687 0.225624 0
M  V30 11401 S 1106.78 -4.38434 -0.179107 0
M  V30 11402 H 1103.59 -0.706371 0.0809995 0
M  V30 11403 H 1106.2 -1.74375 0.883948 0
M  V30 11404 H 1104.9 -3.91684 1.22524 0
M  V30 11405 H 1104.43 -3.90436 -0.481994 0
M  V30 11406 H 1106.45 -4.75646 -1.41332 0
M  V30 11407 N 1105.62 -0.414636 -1.52048 0
M  V30 11408 C 1106.57 0.422766 -2.28726 0
M  V30 11409 C 1107.56 1.04099 -1.3364 0
M  V30 11410 O 1108.77 0.978559 -1.51077 0
M  V30 11411 H 1105.14 0.155123 -0.735827 0
M  V30 11412 H 1107.11 -0.245091 -2.97392 0
M  V30 11413 C 1105.86 1.52418 -3.12513 0
M  V30 11414 H 1105.18 1.05781 -3.85552 0
M  V30 11415 H 1106.62 2.08382 -3.6926 0
M  V30 11416 C 1105.08 2.49465 -2.26426 0
M  V30 11417 O 1105.61 3.53479 -1.90829 0
M  V30 11418 N 1103.82 2.19806 -1.90088 0
M  V30 11419 H 1103.37 1.35253 -2.19236 0
M  V30 11420 H 1103.32 2.84984 -1.32783 0
M  V30 11421 N 1107.1 1.56929 -0.145233 0
M  V30 11422 C 1108.03 2.19685 0.791263 0
M  V30 11423 C 1109.01 1.14455 1.25833 0
M  V30 11424 O 1110.19 1.42791 1.31622 0
M  V30 11425 C 1107.32 2.81705 2.03124 0
M  V30 11426 C 1106.28 3.92746 1.70101 0
M  V30 11427 C 1105.6 4.41694 3.01347 0
M  V30 11428 C 1106.9 5.13606 0.949025 0
M  V30 11429 H 1108.6 2.98196 0.26825 0
M  V30 11430 H 1106.14 1.43434 0.127584 0
M  V30 11431 H 1108.1 3.24273 2.69119 0
M  V30 11432 H 1106.82 2.00523 2.57795 0
M  V30 11433 H 1105.48 3.50794 1.06486 0
M  V30 11434 H 1105.13 3.57336 3.54006 0
M  V30 11435 H 1104.83 5.1659 2.80016 0
M  V30 11436 H 1106.35 4.86931 3.68416 0
M  V30 11437 H 1107.76 5.53029 1.51102 0
M  V30 11438 H 1106.16 5.94252 0.835711 0
M  V30 11439 H 1107.23 4.84863 -0.0595631 0
M  V30 11440 N 1108.58 -0.128553 1.57075 0
M  V30 11441 C 1109.82 -0.844012 1.86161 0
M  V30 11442 C 1110.18 -1.77499 0.73198 0
M  V30 11443 O 1111.38 -2.5313 0.904357 0
M  V30 11444 C 1109.65 -1.58238 3.20462 0
M  V30 11445 S 1111.21 -2.34073 3.71154 0
M  V30 11446 H 1108.03 -0.281884 0.652734 0
M  V30 11447 H 1110.63 -0.102902 1.95229 0
M  V30 11448 H 1109.33 -0.890246 4.00628 0
M  V30 11449 H 1108.87 -2.36404 3.14446 0
M  V30 11450 H 1110.88 -3.59617 3.41892 0
M  V30 11451 N 1110.05 -1.5248 -0.398459 0
M  V30 11452 C 1111.3 -1.67309 -1.1461 0
M  V30 11453 C 1111.63 -0.407095 -1.89885 0
M  V30 11454 O 1110.91 0.594834 -1.85181 0
M  V30 11455 C 1111.19 -2.90204 -2.13198 0
M  V30 11456 C 1111.04 -4.26881 -1.4175 0
M  V30 11457 C 1112.36 -3.08634 -3.13741 0
M  V30 11458 H 1109.48 -0.608853 -0.415292 0
M  V30 11459 H 1112.12 -1.85057 -0.430573 0
M  V30 11460 H 1110.27 -2.75204 -2.74218 0
M  V30 11461 H 1111.95 -4.53631 -0.837676 0
M  V30 11462 H 1110.19 -4.27793 -0.719387 0
M  V30 11463 H 1110.86 -5.08939 -2.1374 0
M  V30 11464 H 1113.34 -3.22603 -2.62805 0
M  V30 11465 H 1112.21 -3.96117 -3.79977 0
M  V30 11466 H 1112.47 -2.22425 -3.82073 0
M  V30 11467 N 1111.53 0.65634 -1.43283 0
M  V30 11468 C 1112.44 1.79847 -1.50639 0
M  V30 11469 C 1113.46 1.69487 -0.393714 0
M  V30 11470 O 1114.63 1.90712 -0.647379 0
M  V30 11471 C 1111.7 3.16107 -1.42398 0
M  V30 11472 C 1110.76 3.38287 -2.64312 0
M  V30 11473 C 1109.99 4.68046 -2.56454 0
M  V30 11474 O 1110.22 5.4719 -1.61056 0
M  V30 11475 O 1109.15 4.91877 -3.46902 0
M  V30 11476 H 1112.98 1.76596 -2.47078 0
M  V30 11477 H 1110.56 0.814428 -1.25249 0
M  V30 11478 H 1112.44 3.97382 -1.40233 0
M  V30 11479 H 1111.12 3.19956 -0.490929 0
M  V30 11480 H 1110.02 2.56788 -2.72049 0
M  V30 11481 H 1111.36 3.39282 -3.56579 0
M  V30 11482 N 1113.01 1.29761 0.894412 0
M  V30 11483 C 1114.26 1.18214 1.64782 0
M  V30 11484 C 1114.59 -0.264635 1.92388 0
M  V30 11485 O 1113.86 -1.19051 1.53809 0
M  V30 11486 C 1114.15 2.00138 2.99361 0
M  V30 11487 C 1114 3.52984 2.78787 0
M  V30 11488 C 1115.32 1.83187 4.00163 0
M  V30 11489 H 1112.44 0.430802 0.597979 0
M  V30 11490 H 1115.08 1.59292 1.03566 0
M  V30 11491 H 1113.23 1.65233 3.51611 0
M  V30 11492 H 1114.9 3.97898 2.33398 0
M  V30 11493 H 1113.14 3.77642 2.13469 0
M  V30 11494 H 1113.82 4.05585 3.7444 0
M  V30 11495 H 1116.29 2.13684 3.57041 0
M  V30 11496 H 1115.17 2.42849 4.92255 0
M  V30 11497 H 1115.43 0.788469 4.35012 0
M  V30 11498 N 1114.49 -1.10549 1.12324 0
M  V30 11499 C 1115.73 -1.84108 0.887895 0
M  V30 11500 C 1116.09 -1.83159 -0.5759 0
M  V30 11501 O 1117.29 -2.52259 -0.928367 0
M  V30 11502 C 1115.56 -3.26866 1.44545 0
M  V30 11503 S 1117.12 -4.17567 1.34846 0
M  V30 11504 H 1113.94 -0.634752 0.320329 0
M  V30 11505 H 1116.54 -1.33036 1.43254 0
M  V30 11506 H 1115.25 -3.25126 2.50442 0
M  V30 11507 H 1114.78 -3.83008 0.89825 0
M  V30 11508 H 1116.79 -4.95173 0.319143 0
M  V30 11509 N 1115.97 -0.914965 -1.28321 0
M  V30 11510 C 1117.38 -0.59512 -1.76961 0
M  V30 11511 C 1117.73 0.88958 -1.74874 0
M  V30 11512 O 1116.85 1.6959 -1.34418 0
M  V30 11513 C 1117.45 -1.07353 -3.21342 0
M  V30 11514 C 1116.01 -0.804577 -3.677 0
M  V30 11515 C 1115.15 -1.23955 -2.48053 0
M  V30 11516 H 1118.1 -1.0961 -1.14767 0
M  V30 11517 H 1118.13 -0.415506 -3.78225 0
M  V30 11518 H 1117.64 -2.15413 -3.22829 0
M  V30 11519 H 1115.74 0.26277 -3.71672 0
M  V30 11520 H 1115.85 -1.41317 -4.57784 0
M  V30 11521 H 1114.22 -0.658274 -2.46046 0
M  V30 11522 H 1115 -2.32853 -2.52258 0
M  V30 11523 N 1117.44 1.42219 -0.679077 0
M  V30 11524 C 1118.41 2.29197 -0.0125475 0
M  V30 11525 C 1119.41 1.43544 0.724691 0
M  V30 11526 O 1120.6 1.64884 0.562052 0
M  V30 11527 C 1117.73 3.26122 0.992846 0
M  V30 11528 H 1118.92 2.89629 -0.778154 0
M  V30 11529 H 1116.47 1.4993 -0.44166 0
M  V30 11530 H 1117.21 2.70637 1.78679 0
M  V30 11531 H 1116.99 3.89302 0.467544 0
M  V30 11532 H 1118.48 3.91339 1.45751 0
M  V30 11533 N 1118.92 0.422693 1.51826 0
M  V30 11534 C 1119.87 -0.396088 2.27376 0
M  V30 11535 C 1120.84 -1.02946 1.30351 0
M  V30 11536 O 1122.02 -1.05116 1.59233 0
M  V30 11537 C 1119.16 -1.49942 3.10824 0
M  V30 11538 C 1118.28 -0.885623 4.22825 0
M  V30 11539 C 1117.41 -1.96278 4.93608 0
M  V30 11540 C 1116.45 -1.32664 5.97551 0
M  V30 11541 N 1115.59 -2.34452 6.61798 0
M  V30 11542 H 1120.43 0.254571 2.96911 0
M  V30 11543 H 1117.96 0.137383 1.46457 0
M  V30 11544 H 1119.92 -2.15023 3.57521 0
M  V30 11545 H 1118.55 -2.11991 2.43433 0
M  V30 11546 H 1117.6 -0.123491 3.80199 0
M  V30 11547 H 1118.92 -0.381057 4.97342 0
M  V30 11548 H 1118.07 -2.69055 5.43778 0
M  V30 11549 H 1116.81 -2.50103 4.18688 0
M  V30 11550 H 1115.81 -0.584262 5.46687 0
M  V30 11551 H 1117.04 -0.7959 6.7442 0
M  V30 11552 H 1114.99 -2.87385 5.897 0
M  V30 11553 H 1114.9 -1.88845 7.32034 0
M  V30 11554 H 1116.17 -3.06757 7.16603 0
M  V30 11555 N 1120.4 -1.5685 0.153553 0
M  V30 11556 C 1121.68 -1.8796 -0.541328 0
M  V30 11557 C 1122.06 -1.06059 -1.82523 0
M  V30 11558 O 1121.4 -0.149295 -2.28012 0
M  V30 11559 C 1121.61 -3.39697 -0.800442 0
M  V30 11560 C 1122.96 -4.09057 -1.13832 0
M  V30 11561 O 1123.99 -3.44913 -0.889578 0
M  V30 11562 O 1122.85 -5.22347 -1.60673 0
M  V30 11563 H 1119.94 -0.779268 -0.276895 0
M  V30 11564 H 1122.49 -1.68626 0.190657 0
M  V30 11565 H 1121.26 -3.91151 0.107935 0
M  V30 11566 H 1120.88 -3.64582 -1.58638 0
M  V30 11567 N 1121.88 0.120221 -1.57141 0
M  V30 11568 C 1123.29 0.473718 -1.52408 0
M  V30 11569 C 1123.49 1.81925 -0.866354 0
M  V30 11570 O 1122.55 2.48491 -0.448173 0
M  V30 11571 C 1123.86 0.459338 -2.97171 0
M  V30 11572 C 1125.41 0.542975 -3.08254 0
M  V30 11573 C 1125.89 0.558996 -4.54576 0
M  V30 11574 N 1127.38 0.620469 -4.59026 0
M  V30 11575 C 1128.11 0.654292 -5.69655 0
M  V30 11576 N 1127.61 0.645835 -6.89783 0
M  V30 11577 N 1129.4 0.697208 -5.57759 0
M  V30 11578 H 1121.55 -0.76142 -1.98283 0
M  V30 11579 H 1123.81 -0.280736 -0.905479 0
M  V30 11580 H 1123.52 -0.461654 -3.48657 0
M  V30 11581 H 1123.39 1.28759 -3.54543 0
M  V30 11582 H 1125.78 1.45439 -2.56772 0
M  V30 11583 H 1125.86 -0.312936 -2.53879 0
M  V30 11584 H 1125.51 -0.348367 -5.06704 0
M  V30 11585 H 1125.44 1.43177 -5.06762 0
M  V30 11586 H 1127.93 0.633218 -3.72557 0
M  V30 11587 H 1128.24 0.674233 -7.69853 0
M  V30 11588 H 1126.59 0.613279 -6.92289 0
M  V30 11589 H 1129.78 0.70117 -4.62819 0
M  V30 11590 H 1129.95 0.7201 -6.43986 0
M  V30 11591 N 1123.36 1.52689 0.390367 0
M  V30 11592 C 1124.29 1.73622 1.49626 0
M  V30 11593 C 1125.3 0.616682 1.50668 0
M  V30 11594 O 1126.49 0.892341 1.54595 0
M  V30 11595 C 1123.59 1.77859 2.88477 0
M  V30 11596 C 1122.76 3.07146 3.11416 0
M  V30 11597 C 1121.82 3.02949 4.30242 0
M  V30 11598 O 1120.85 3.76816 4.26613 0
M  V30 11599 N 1122.05 2.22039 5.36357 0
M  V30 11600 H 1124.82 2.69037 1.32057 0
M  V30 11601 H 1122.38 1.51159 0.579867 0
M  V30 11602 H 1124.37 1.72559 3.66067 0
M  V30 11603 H 1122.94 0.898367 2.99413 0
M  V30 11604 H 1122.16 3.25947 2.21703 0
M  V30 11605 H 1123.45 3.92637 3.23595 0
M  V30 11606 H 1122.84 1.6149 5.4216 0
M  V30 11607 H 1121.4 2.2258 6.12619 0
M  V30 11608 N 1124.83 -0.648732 1.43629 0
M  V30 11609 C 1125.78 -1.78269 1.49409 0
M  V30 11610 C 1126.78 -1.6537 0.367288 0
M  V30 11611 O 1127.98 -1.71663 0.541476 0
M  V30 11612 H 1124.36 -0.58824 0.468484 0
M  V30 11613 H 1126.33 -1.70514 2.44883 0
M  V30 11614 C 1125.08 -3.16545 1.43856 0
M  V30 11615 H 1124.4 -3.2711 2.29868 0
M  V30 11616 H 1125.84 -3.95833 1.51961 0
M  V30 11617 C 1124.3 -3.36535 0.156779 0
M  V30 11618 O 1124.83 -3.94052 -0.780124 0
M  V30 11619 N 1123.04 -2.90526 0.0655319 0
M  V30 11620 H 1122.58 -2.43904 0.828768 0
M  V30 11621 H 1122.54 -3.04277 -0.791379 0
M  V30 11622 N 1126.31 -1.30234 -0.887518 0
M  V30 11623 C 1127.72 -1.17048 -1.45453 0
M  V30 11624 C 1128.07 0.229793 -1.9485 0
M  V30 11625 O 1127.2 1.12628 -1.84781 0
M  V30 11626 C 1127.79 -2.11876 -2.64375 0
M  V30 11627 C 1126.35 -2.02676 -3.17174 0
M  V30 11628 C 1125.5 -2.02104 -1.89866 0
M  V30 11629 H 1128.45 -1.42541 -0.697694 0
M  V30 11630 H 1128.47 -1.69811 -3.40506 0
M  V30 11631 H 1127.98 -3.13781 -2.28392 0
M  V30 11632 H 1126.09 -1.03904 -3.57819 0
M  V30 11633 H 1126.2 -2.90939 -3.80646 0
M  V30 11634 H 1124.56 -1.4687 -2.0809 0
M  V30 11635 H 1125.35 -3.05735 -1.56145 0
M  V30 11636 N 1127.79 1.09952 -1.12909 0
M  V30 11637 C 1128.7 2.19999 -0.81471 0
M  V30 11638 C 1129.72 1.72864 0.19851 0
M  V30 11639 O 1130.89 2.01376 0.0308832 0
M  V30 11640 C 1127.96 3.45573 -0.279363 0
M  V30 11641 C 1127.02 4.07417 -1.35314 0
M  V30 11642 C 1126.25 5.26996 -0.843247 0
M  V30 11643 O 1126.47 5.69495 0.321164 0
M  V30 11644 O 1125.41 5.79826 -1.61511 0
M  V30 11645 H 1129.23 2.49333 -1.73398 0
M  V30 11646 H 1126.82 1.18784 -0.906128 0
M  V30 11647 H 1128.7 4.21398 0.0140531 0
M  V30 11648 H 1127.38 3.17854 0.612401 0
M  V30 11649 H 1126.28 3.33253 -1.6998 0
M  V30 11650 H 1127.62 4.39349 -2.21885 0
M  V30 11651 N 1129.27 0.921757 1.27833 0
M  V30 11652 C 1130.52 0.55493 1.93916 0
M  V30 11653 C 1130.83 -0.907191 1.7329 0
M  V30 11654 O 1132.04 -1.38253 2.33663 0
M  V30 11655 C 1130.49 0.941644 3.47363 0
M  V30 11656 C 1130.1 2.42404 3.76755 0
M  V30 11657 C 1131.84 0.645785 4.19559 0
M  V30 11658 C 1129.75 2.75046 5.23549 0
M  V30 11659 H 1128.68 0.203818 0.72593 0
M  V30 11660 H 1131.33 1.12176 1.4522 0
M  V30 11661 H 1129.71 0.303519 3.94835 0
M  V30 11662 H 1130.89 3.10957 3.40062 0
M  V30 11663 H 1129.2 2.69118 3.17749 0
M  V30 11664 H 1131.8 0.866237 5.27637 0
M  V30 11665 H 1132.14 -0.41676 4.14209 0
M  V30 11666 H 1132.68 1.24274 3.7789 0
M  V30 11667 H 1129.42 3.80186 5.33984 0
M  V30 11668 H 1128.94 2.11138 5.6141 0
M  V30 11669 H 1130.61 2.62474 5.91368 0
M  V30 11670 N 1130.75 -1.41857 0.686609 0
M  V30 11671 C 1131.69 -2.30795 0.015643 0
M  V30 11672 C 1132.66 -1.46616 -0.780569 0
M  V30 11673 O 1133.85 -1.75423 -0.750424 0
M  V30 11674 C 1130.99 -3.32577 -0.921229 0
M  V30 11675 C 1130.1 -4.3184 -0.117585 0
M  V30 11676 C 1129.24 -5.20693 -1.05128 0
M  V30 11677 C 1128.28 -6.11629 -0.240018 0
M  V30 11678 N 1127.41 -6.92995 -1.12704 0
M  V30 11679 H 1132.25 -2.87615 0.77985 0
M  V30 11680 H 1129.79 -1.41661 0.396298 0
M  V30 11681 H 1131.75 -3.90129 -1.47836 0
M  V30 11682 H 1130.38 -2.77328 -1.65193 0
M  V30 11683 H 1129.43 -3.7631 0.55634 0
M  V30 11684 H 1130.74 -4.96168 0.511753 0
M  V30 11685 H 1129.9 -5.83035 -1.67795 0
M  V30 11686 H 1128.63 -4.5657 -1.71449 0
M  V30 11687 H 1127.64 -5.48345 0.399779 0
M  V30 11688 H 1128.86 -6.77805 0.419266 0
M  V30 11689 H 1126.81 -6.31489 -1.77644 0
M  V30 11690 H 1126.73 -7.53974 -0.553065 0
M  V30 11691 H 1128 -7.59813 -1.7408 0
M  V30 11692 N 1132.22 -0.430739 -1.51599 0
M  V30 11693 C 1133.19 0.372319 -2.26156 0
M  V30 11694 C 1134.19 0.955338 -1.29344 0
M  V30 11695 O 1135.38 0.830823 -1.53111 0
M  V30 11696 C 1132.51 1.52613 -3.04831 0
M  V30 11697 H 1133.7 -0.280996 -2.98581 0
M  V30 11698 H 1131.26 -0.183749 -1.55216 0
M  V30 11699 H 1131.99 2.21569 -2.36807 0
M  V30 11700 H 1131.78 1.11433 -3.75932 0
M  V30 11701 H 1133.27 2.09366 -3.61325 0
M  V30 11702 N 1133.7 1.56767 -0.161869 0
M  V30 11703 C 1134.95 1.95769 0.485536 0
M  V30 11704 C 1135.26 1.05006 1.65025 0
M  V30 11705 O 1136.47 1.33649 2.36326 0
M  V30 11706 C 1134.93 3.4807 0.915176 0
M  V30 11707 C 1134.53 4.47443 -0.223416 0
M  V30 11708 C 1136.28 3.95909 1.53153 0
M  V30 11709 C 1134.19 5.90971 0.225325 0
M  V30 11710 H 1133.12 0.730911 0.185161 0
M  V30 11711 H 1135.77 1.81808 -0.248592 0
M  V30 11712 H 1134.15 3.57415 1.705 0
M  V30 11713 H 1135.32 4.49805 -1.00061 0
M  V30 11714 H 1133.64 4.09606 -0.749127 0
M  V30 11715 H 1136.23 5.00592 1.87915 0
M  V30 11716 H 1136.58 3.38307 2.42599 0
M  V30 11717 H 1137.11 3.89542 0.806322 0
M  V30 11718 H 1133.85 6.52426 -0.634124 0
M  V30 11719 H 1133.37 5.91936 0.96808 0
M  V30 11720 H 1135.05 6.43497 0.672373 0
M  V30 11721 N 1135.18 -0.111886 1.57202 0
M  V30 11722 C 1136.13 -1.15585 2.01849 0
M  V30 11723 C 1137.12 -1.42458 0.916621 0
M  V30 11724 O 1138.33 -1.42337 1.10182 0
M  V30 11725 H 1134.7 -0.389885 0.643035 0
M  V30 11726 H 1136.67 -0.752854 2.88747 0
M  V30 11727 C 1135.42 -2.47247 2.44467 0
M  V30 11728 H 1134.75 -2.27409 3.28824 0
M  V30 11729 H 1136.19 -3.18837 2.79497 0
M  V30 11730 C 1134.65 -3.10339 1.31115 0
M  V30 11731 O 1135.18 -3.96713 0.631029 0
M  V30 11732 N 1133.38 -2.70326 1.0664 0
M  V30 11733 H 1132.93 -2.00182 1.62126 0
M  V30 11734 H 1132.89 -3.12869 0.309944 0
M  V30 11735 N 1136.66 -1.52894 -0.382264 0
M  V30 11736 C 1137.59 -1.7291 -1.48921 0
M  V30 11737 C 1138.57 -0.577056 -1.52016 0
M  V30 11738 O 1139.75 -0.807667 -1.7032 0
M  V30 11739 C 1136.88 -1.79281 -2.87361 0
M  V30 11740 C 1135.93 -3.01099 -3.02063 0
M  V30 11741 S 1136.76 -4.60947 -2.72558 0
M  V30 11742 C 1137.92 -4.70144 -4.13178 0
M  V30 11743 H 1138.15 -2.66529 -1.31718 0
M  V30 11744 H 1135.68 -1.43271 -0.575563 0
M  V30 11745 H 1137.64 -1.83637 -3.67134 0
M  V30 11746 H 1136.3 -0.867428 -3.01885 0
M  V30 11747 H 1135.49 -3.02117 -4.03412 0
M  V30 11748 H 1135.1 -2.94769 -2.3019 0
M  V30 11749 H 1137.39 -4.49173 -5.07198 0
M  V30 11750 H 1138.33 -5.72166 -4.17172 0
M  V30 11751 H 1138.74 -3.98923 -3.99401 0
M  V30 11752 N 1138.14 0.641106 -1.43971 0
M  V30 11753 C 1139.07 1.76599 -1.44527 0
M  V30 11754 C 1140.05 1.59709 -0.305257 0
M  V30 11755 O 1141.23 1.81728 -0.50071 0
M  V30 11756 C 1138.36 3.14052 -1.26843 0
M  V30 11757 C 1137.41 3.49615 -2.44278 0
M  V30 11758 S 1138.24 3.4822 -4.06821 0
M  V30 11759 C 1139.39 4.8831 -3.91541 0
M  V30 11760 H 1139.63 1.75858 -2.3971 0
M  V30 11761 H 1137.16 0.814834 -1.31148 0
M  V30 11762 H 1139.12 3.93376 -1.17327 0
M  V30 11763 H 1137.78 3.12342 -0.331872 0
M  V30 11764 H 1136.97 4.49611 -2.2774 0
M  V30 11765 H 1136.57 2.77732 -2.50482 0
M  V30 11766 H 1138.87 5.77282 -3.54615 0
M  V30 11767 H 1139.81 5.099 -4.91333 0
M  V30 11768 H 1140.22 4.62414 -3.2378 0
M  V30 11769 N 1139.62 1.30703 0.880598 0
M  V30 11770 C 1140.84 1.22843 1.67106 0
M  V30 11771 C 1141.27 -0.204788 1.86982 0
M  V30 11772 O 1140.62 -1.14716 1.40392 0
M  V30 11773 C 1140.67 1.96685 3.02237 0
M  V30 11774 O 1139.78 1.29693 3.91476 0
M  V30 11775 H 1139.12 0.424661 0.51045 0
M  V30 11776 H 1141.65 1.72596 1.09871 0
M  V30 11777 H 1141.66 2.05874 3.52249 0
M  V30 11778 H 1140.33 3.00919 2.8709 0
M  V30 11779 H 1138.91 1.28886 3.49918 0
M  V30 11780 N 1141.09 -1.09351 1.1349 0
M  V30 11781 C 1142.51 -1.3359 0.873269 0
M  V30 11782 C 1142.71 -1.95432 -0.490767 0
M  V30 11783 O 1141.77 -2.20117 -1.23712 0
M  V30 11784 C 1143.08 -2.24681 1.99847 0
M  V30 11785 C 1144.63 -2.38188 2.03065 0
M  V30 11786 C 1145.1 -3.32615 3.14851 0
M  V30 11787 N 1146.59 -3.40188 3.14366 0
M  V30 11788 C 1147.33 -4.13256 3.97501 0
M  V30 11789 N 1146.82 -4.89114 4.90652 0
M  V30 11790 N 1148.62 -4.08988 3.85597 0
M  V30 11791 H 1140.77 -0.675852 2.0136 0
M  V30 11792 H 1143.03 -0.360268 0.876876 0
M  V30 11793 H 1142.74 -1.86469 2.98198 0
M  V30 11794 H 1142.61 -3.25075 1.91327 0
M  V30 11795 H 1145 -2.75663 1.05327 0
M  V30 11796 H 1145.08 -1.3757 2.15658 0
M  V30 11797 H 1144.72 -2.95863 4.12829 0
M  V30 11798 H 1144.65 -4.33139 2.99496 0
M  V30 11799 H 1147.14 -2.861 2.46892 0
M  V30 11800 H 1147.46 -5.423 5.50573 0
M  V30 11801 H 1145.8 -4.882 4.94657 0
M  V30 11802 H 1148.99 -3.48826 3.12151 0
M  V30 11803 H 1149.17 -4.65671 4.50615 0
M  V30 11804 N 1142.57 -0.928524 -1.27343 0
M  V30 11805 C 1143.5 -0.445627 -2.29208 0
M  V30 11806 C 1144.48 0.494508 -1.62753 0
M  V30 11807 O 1145.67 0.399082 -1.90055 0
M  V30 11808 C 1142.8 0.301684 -3.45987 0
M  V30 11809 C 1141.75 -0.550695 -4.24442 0
M  V30 11810 C 1141.08 0.325833 -5.33706 0
M  V30 11811 C 1142.38 -1.81559 -4.89728 0
M  V30 11812 H 1144.07 -1.29696 -2.69851 0
M  V30 11813 H 1141.62 -0.625085 -1.29725 0
M  V30 11814 H 1143.57 0.650455 -4.1635 0
M  V30 11815 H 1142.29 1.18705 -3.04264 0
M  V30 11816 H 1140.95 -0.882185 -3.55827 0
M  V30 11817 H 1140.6 1.21018 -4.88225 0
M  V30 11818 H 1140.3 -0.240994 -5.87106 0
M  V30 11819 H 1141.83 0.670156 -6.06911 0
M  V30 11820 H 1143.24 -1.53483 -5.52373 0
M  V30 11821 H 1141.64 -2.32598 -5.53189 0
M  V30 11822 H 1142.71 -2.53461 -4.13383 0
M  V30 11823 N 1144.05 1.41491 -0.694123 0
M  V30 11824 C 1144.96 2.34583 -0.0283414 0
M  V30 11825 C 1145.98 1.5615 0.767662 0
M  V30 11826 O 1147.15 1.88637 0.705556 0
M  V30 11827 C 1144.22 3.34876 0.897726 0
M  V30 11828 C 1143.28 4.29197 0.0940905 0
M  V30 11829 C 1142.51 5.24699 0.976051 0
M  V30 11830 O 1142.73 5.25613 2.21556 0
M  V30 11831 O 1141.67 6.00387 0.426503 0
M  V30 11832 H 1145.49 2.93092 -0.795656 0
M  V30 11833 H 1143.08 1.4232 -0.45445 0
M  V30 11834 H 1144.96 3.96438 1.4288 0
M  V30 11835 H 1143.64 2.78812 1.64456 0
M  V30 11836 H 1142.54 3.70988 -0.481552 0
M  V30 11837 H 1143.88 4.88355 -0.614045 0
M  V30 11838 N 1145.53 0.438773 1.51369 0
M  V30 11839 C 1146.48 -0.389921 2.24641 0
M  V30 11840 C 1147.46 -0.988871 1.26926 0
M  V30 11841 O 1148.65 -0.906774 1.52009 0
M  V30 11842 C 1145.78 -1.48972 3.09293 0
M  V30 11843 C 1144.87 -0.900093 4.14438 0
M  V30 11844 N 1145.26 -0.0397688 5.05784 0
M  V30 11845 C 1143.56 -1.16752 4.30447 0
M  V30 11846 C 1144.26 0.291527 5.80969 0
M  V30 11847 N 1143.23 -0.325219 5.42626 0
M  V30 11848 H 1147.04 0.273335 2.92626 0
M  V30 11849 H 1144.55 0.250934 1.6045 0
M  V30 11850 H 1146.55 -2.09627 3.60364 0
M  V30 11851 H 1145.21 -2.1553 2.42852 0
M  V30 11852 H 1146.22 0.326771 5.16868 0
M  V30 11853 H 1142.9 -1.83049 3.75232 0
M  V30 11854 H 1144.29 0.991699 6.64541 0
M  V30 11855 N 1147.01 -1.56678 0.170181 0
M  V30 11856 C 1148.25 -1.9714 -0.475767 0
M  V30 11857 C 1148.58 -1.05611 -1.62972 0
M  V30 11858 O 1147.86 -0.103017 -1.94227 0
M  V30 11859 C 1148.14 -3.47072 -0.959828 0
M  V30 11860 C 1148 -4.4938 0.194225 0
M  V30 11861 C 1149.31 -4.00071 -1.83387 0
M  V30 11862 H 1146.43 -0.716776 -0.171466 0
M  V30 11863 H 1149.08 -1.88266 0.256086 0
M  V30 11864 H 1147.23 -3.54766 -1.58346 0
M  V30 11865 H 1148.9 -4.53748 0.83128 0
M  V30 11866 H 1147.14 -4.25393 0.849893 0
M  V30 11867 H 1147.81 -5.51685 -0.186575 0
M  V30 11868 H 1150.29 -3.95002 -1.30815 0
M  V30 11869 H 1149.16 -5.05398 -2.14159 0
M  V30 11870 H 1149.42 -3.43819 -2.77923 0
M  V30 11871 N 1148.48 0.103547 -1.57259 0
M  V30 11872 C 1149.39 1.14475 -2.04774 0
M  V30 11873 C 1150.41 1.44385 -0.971025 0
M  V30 11874 O 1151.59 1.55195 -1.28361 0
M  V30 11875 C 1148.65 2.4475 -2.45558 0
M  V30 11876 C 1147.71 2.22098 -3.67384 0
M  V30 11877 C 1146.94 3.4616 -4.06213 0
M  V30 11878 O 1147.17 4.5407 -3.45219 0
M  V30 11879 O 1146.1 3.36248 -4.9922 0
M  V30 11880 H 1149.93 0.771211 -2.93745 0
M  V30 11881 H 1147.51 0.315456 -1.46032 0
M  V30 11882 H 1149.39 3.21476 -2.72454 0
M  V30 11883 H 1148.07 2.81547 -1.59728 0
M  V30 11884 H 1146.98 1.43179 -3.45616 0
M  V30 11885 H 1148.31 1.90197 -4.53967 0
M  V30 11886 N 1149.96 1.53094 0.37415 0
M  V30 11887 C 1150.87 1.81872 1.48188 0
M  V30 11888 C 1151.89 0.706487 1.59012 0
M  V30 11889 O 1153.06 0.995648 1.75068 0
M  V30 11890 C 1150.13 1.99494 2.83554 0
M  V30 11891 C 1149.19 3.23402 2.82329 0
M  V30 11892 C 1148.42 3.40174 4.11239 0
M  V30 11893 O 1148.65 2.61425 5.06965 0
M  V30 11894 O 1147.58 4.33493 4.17573 0
M  V30 11895 H 1151.41 2.75965 1.26795 0
M  V30 11896 H 1148.99 1.38368 0.56343 0
M  V30 11897 H 1150.87 2.12705 3.63778 0
M  V30 11898 H 1149.55 1.08591 3.04942 0
M  V30 11899 H 1148.45 3.15621 2.00834 0
M  V30 11900 H 1149.79 4.14199 2.65894 0
M  V30 11901 N 1151.44 -0.633461 1.44309 0
M  V30 11902 C 1152.35 -1.77428 1.53481 0
M  V30 11903 C 1153.37 -1.68839 0.420628 0
M  V30 11904 O 1154.54 -1.89658 0.677638 0
M  V30 11905 C 1151.61 -3.13801 1.47409 0
M  V30 11906 C 1150.67 -3.34039 2.6966 0
M  V30 11907 C 1149.9 -4.63907 2.63868 0
M  V30 11908 O 1150.12 -5.44559 1.69741 0
M  V30 11909 O 1149.06 -4.86295 3.54684 0
M  V30 11910 H 1152.88 -1.72642 2.49857 0
M  V30 11911 H 1150.47 -0.794399 1.26529 0
M  V30 11912 H 1152.35 -3.95101 1.46537 0
M  V30 11913 H 1151.03 -3.19134 0.541769 0
M  V30 11914 H 1149.93 -2.52427 2.761 0
M  V30 11915 H 1151.27 -3.33566 3.61931 0
M  V30 11916 N 1152.92 -1.31168 -0.873655 0
M  V30 11917 C 1153.87 -1.18507 -1.98052 0
M  V30 11918 C 1154.84 -0.0717583 -1.65945 0
M  V30 11919 O 1156.02 -0.243965 -1.89234 0
M  V30 11920 C 1153.16 -0.894571 -3.33304 0
M  V30 11921 C 1152.27 -2.09086 -3.7803 0
M  V30 11922 C 1151.41 -1.73747 -5.01982 0
M  V30 11923 C 1150.45 -2.89805 -5.39147 0
M  V30 11924 N 1149.58 -2.54686 -6.54278 0
M  V30 11925 H 1154.42 -2.13193 -2.08213 0
M  V30 11926 H 1151.96 -1.06056 -1.01934 0
M  V30 11927 H 1153.92 -0.706714 -4.11171 0
M  V30 11928 H 1152.55 0.0154449 -3.22796 0
M  V30 11929 H 1151.6 -2.38961 -2.95976 0
M  V30 11930 H 1152.91 -2.95963 -4.01506 0
M  V30 11931 H 1152.07 -1.51402 -5.87505 0
M  V30 11932 H 1150.81 -0.840553 -4.80402 0
M  V30 11933 H 1149.81 -3.12803 -4.52144 0
M  V30 11934 H 1151.04 -3.802 -5.62694 0
M  V30 11935 H 1148.98 -1.67513 -6.34252 0
M  V30 11936 H 1148.9 -3.35093 -6.77679 0
M  V30 11937 H 1150.17 -2.35725 -7.43003 0
M  V30 11938 N 1154.4 1.08748 -1.14068 0
M  V30 11939 C 1155.65 1.8044 -0.901352 0
M  V30 11940 C 1155.96 1.86995 0.573791 0
M  V30 11941 O 1157.16 2.55065 0.930275 0
M  V30 11942 C 1155.62 3.24185 -1.56308 0
M  V30 11943 C 1155.23 3.25875 -3.07424 0
M  V30 11944 C 1156.97 4.00584 -1.40473 0
M  V30 11945 C 1154.88 4.64186 -3.66449 0
M  V30 11946 H 1153.81 0.676201 -0.333569 0
M  V30 11947 H 1156.46 1.22169 -1.3692 0
M  V30 11948 H 1154.84 3.82561 -1.0229 0
M  V30 11949 H 1156.02 2.77225 -3.6808 0
M  V30 11950 H 1154.33 2.62969 -3.22856 0
M  V30 11951 H 1156.93 5.02781 -1.81976 0
M  V30 11952 H 1157.27 4.14823 -0.350408 0
M  V30 11953 H 1157.8 3.48668 -1.91508 0
M  V30 11954 H 1154.54 4.5515 -4.71719 0
M  V30 11955 H 1154.06 5.13132 -3.10574 0
M  V30 11956 H 1155.74 5.33161 -3.66536 0
M  V30 11957 N 1155.87 0.935264 1.26849 0
M  V30 11958 C 1156.82 0.430895 2.28574 0
M  V30 11959 C 1157.82 -0.488739 1.62196 0
M  V30 11960 O 1159.02 -0.367605 1.76206 0
M  V30 11961 H 1155.4 0.120793 0.742235 0
M  V30 11962 H 1157.37 1.3015 2.68521 0
M  V30 11963 C 1156.12 -0.294053 3.46454 0
M  V30 11964 H 1155.44 0.404416 3.97749 0
M  V30 11965 H 1156.88 -0.611272 4.19571 0
M  V30 11966 C 1155.34 -1.50975 3.01178 0
M  V30 11967 O 1155.87 -2.60826 3.05504 0
M  V30 11968 N 1154.08 -1.36423 2.56587 0
M  V30 11969 H 1153.62 -0.470483 2.53267 0
M  V30 11970 H 1153.58 -2.17886 2.26656 0
M  V30 11971 N 1157.35 -1.41121 0.701616 0
M  V30 11972 C 1158.58 -2.05154 0.244011 0
M  V30 11973 C 1158.99 -1.52922 -1.11407 0
M  V30 11974 O 1158.33 -0.67486 -1.70855 0
M  V30 11975 C 1158.4 -3.59262 0.130773 0
M  V30 11976 C 1158.06 -4.34318 1.42187 0
M  V30 11977 C 1159.06 -4.632 2.36097 0
M  V30 11978 C 1156.74 -4.73481 1.67693 0
M  V30 11979 C 1158.74 -5.30214 3.53768 0
M  V30 11980 C 1156.42 -5.4023 2.85648 0
M  V30 11981 C 1157.42 -5.68524 3.78509 0
M  V30 11982 O 1157.11 -6.33898 4.94397 0
M  V30 11983 H 1156.84 -0.666997 0.109957 0
M  V30 11984 H 1159.39 -1.81771 0.956473 0
M  V30 11985 H 1157.62 -3.81409 -0.637512 0
M  V30 11986 H 1159.31 -4.0486 -0.29044 0
M  V30 11987 H 1160.08 -4.3342 2.17652 0
M  V30 11988 H 1155.96 -4.50835 0.962733 0
M  V30 11989 H 1159.5 -5.52215 4.26267 0
M  V30 11990 H 1155.4 -5.69429 3.04008 0
M  V30 11991 H 1156.17 -6.52394 4.94292 0
M  V30 11992 N 1158.83 -0.446794 -1.51134 0
M  V30 11993 C 1160.11 0.176892 -1.94798 0
M  V30 11994 C 1160.49 1.59229 -1.38598 0
M  V30 11995 O 1159.84 2.21097 -0.576905 0
M  V30 11996 C 1160.05 0.145 -3.48699 0
M  V30 11997 C 1161.39 0.345917 -4.23189 0
M  V30 11998 O 1162.42 0.222691 -3.55503 0
M  V30 11999 O 1161.28 0.592112 -5.43283 0
M  V30 12000 H 1158.37 0.12486 -0.81752 0
M  V30 12001 H 1160.92 -0.505453 -1.61998 0
M  V30 12002 H 1159.69 -0.844156 -3.82086 0
M  V30 12003 H 1159.31 0.869851 -3.87968 0
M  V30 12004 N 1160.31 1.56586 -0.178487 0
M  V30 12005 C 1161.56 1.97098 0.464617 0
M  V30 12006 C 1161.88 1.06476 1.62767 0
M  V30 12007 O 1161.14 0.100337 1.95443 0
M  V30 12008 C 1161.44 3.43629 0.982552 0
M  V30 12009 C 1161.1 4.50853 -0.0653645 0
M  V30 12010 C 1159.77 4.79901 -0.353349 0
M  V30 12011 C 1162.12 5.15387 -0.776279 0
M  V30 12012 C 1159.45 5.70779 -1.35751 0
M  V30 12013 C 1161.8 6.07349 -1.76948 0
M  V30 12014 C 1160.46 6.34761 -2.06483 0
M  V30 12015 H 1159.73 0.721232 0.170016 0
M  V30 12016 H 1162.38 1.89559 -0.271959 0
M  V30 12017 H 1160.68 3.48155 1.79709 0
M  V30 12018 H 1162.38 3.7232 1.48926 0
M  V30 12019 H 1158.97 4.28266 0.169266 0
M  V30 12020 H 1163.15 4.9305 -0.567008 0
M  V30 12021 H 1158.41 5.90298 -1.59244 0
M  V30 12022 H 1162.58 6.56419 -2.32567 0
M  V30 12023 H 1160.21 7.0498 -2.84441 0
M  V30 12024 N 1161.79 -0.095206 1.57312 0
M  V30 12025 C 1163.03 -0.798719 1.86083 0
M  V30 12026 C 1163.36 -1.78739 0.766991 0
M  V30 12027 O 1162.62 -1.9423 -0.239425 0
M  V30 12028 C 1162.92 -1.56244 3.21438 0
M  V30 12029 C 1162.58 -0.715903 4.4518 0
M  V30 12030 C 1161.24 -0.482537 4.78774 0
M  V30 12031 C 1163.6 -0.127404 5.21044 0
M  V30 12032 C 1160.92 0.349193 5.8566 0
M  V30 12033 C 1163.28 0.691649 6.28808 0
M  V30 12034 C 1161.94 0.935107 6.60918 0
M  V30 12035 H 1161.21 -0.292272 0.680924 0
M  V30 12036 H 1163.86 -0.0602105 1.91405 0
M  V30 12037 H 1162.16 -2.37251 3.118 0
M  V30 12038 H 1163.86 -2.11116 3.40927 0
M  V30 12039 H 1160.45 -0.907902 4.18874 0
M  V30 12040 H 1164.63 -0.29486 4.95423 0
M  V30 12041 H 1159.89 0.546797 6.0895 0
M  V30 12042 H 1164.06 1.15452 6.86763 0
M  V30 12043 H 1161.69 1.58139 7.4357 0
M  V30 12044 N 1163.26 -1.53291 -0.366026 0
M  V30 12045 C 1164.19 -1.82675 -1.45437 0
M  V30 12046 C 1165.18 -0.680227 -1.55907 0
M  V30 12047 O 1166.36 -0.930032 -1.70482 0
M  V30 12048 C 1163.49 -2.01626 -2.8278 0
M  V30 12049 C 1162.44 -3.17391 -2.87135 0
M  V30 12050 C 1161.77 -3.21634 -4.27148 0
M  V30 12051 C 1163.07 -4.5599 -2.54697 0
M  V30 12052 H 1164.76 -2.73818 -1.21096 0
M  V30 12053 H 1162.31 -1.31754 -0.581108 0
M  V30 12054 H 1164.26 -2.20765 -3.58944 0
M  V30 12055 H 1162.99 -1.07193 -3.08508 0
M  V30 12056 H 1161.65 -2.98071 -2.13422 0
M  V30 12057 H 1161.29 -2.2484 -4.49951 0
M  V30 12058 H 1160.99 -3.99414 -4.30978 0
M  V30 12059 H 1162.52 -3.42957 -5.05186 0
M  V30 12060 H 1163.93 -4.75294 -3.20575 0
M  V30 12061 H 1162.33 -5.36008 -2.69844 0
M  V30 12062 H 1163.4 -4.61133 -1.49949 0
M  V30 12063 N 1164.74 0.6258 -1.44643 0
M  V30 12064 C 1165.69 1.75869 -1.52226 0
M  V30 12065 C 1166.68 1.64765 -0.39355 0
M  V30 12066 O 1167.89 1.70779 -0.568718 0
M  V30 12067 H 1164.27 0.580712 -0.477784 0
M  V30 12068 H 1166.24 1.66596 -2.47565 0
M  V30 12069 C 1164.99 3.14217 -1.48873 0
M  V30 12070 H 1164.31 3.23411 -2.35043 0
M  V30 12071 H 1165.75 3.93365 -1.58239 0
M  V30 12072 C 1164.21 3.36243 -0.210299 0
M  V30 12073 O 1164.74 3.95243 0.717335 0
M  V30 12074 N 1162.94 2.90385 -0.111744 0
M  V30 12075 H 1162.49 2.42555 -0.867466 0
M  V30 12076 H 1162.45 3.05498 0.742871 0
M  V30 12077 N 1166.22 1.31629 0.866686 0
M  V30 12078 C 1167.15 1.22151 1.99001 0
M  V30 12079 C 1168.13 0.107972 1.69757 0
M  V30 12080 O 1169.32 0.293125 1.91975 0
M  V30 12081 C 1166.45 0.93144 3.34577 0
M  V30 12082 C 1165.4 2.0049 3.78137 0
M  V30 12083 C 1164.73 1.56747 5.11209 0
M  V30 12084 C 1166.03 3.41844 3.94892 0
M  V30 12085 H 1167.72 2.16132 2.0719 0
M  V30 12086 H 1165.27 1.04051 0.995463 0
M  V30 12087 H 1167.22 0.851719 4.12703 0
M  V30 12088 H 1165.94 -0.0440289 3.2657 0
M  V30 12089 H 1164.6 2.07457 3.02253 0
M  V30 12090 H 1164.25 0.579767 4.99648 0
M  V30 12091 H 1163.95 2.28562 5.41326 0
M  V30 12092 H 1165.47 1.50188 5.91841 0
M  V30 12093 H 1166.89 3.37534 4.63405 0
M  V30 12094 H 1165.29 4.11905 4.36411 0
M  V30 12095 H 1166.36 3.82389 2.98172 0
M  V30 12096 N 1167.7 -1.08142 1.14644 0
M  V30 12097 C 1169.11 -1.62061 0.926986 0
M  V30 12098 C 1169.46 -1.88805 -0.533578 0
M  V30 12099 O 1168.59 -1.64753 -1.40305 0
M  V30 12100 C 1169.18 -2.94425 1.67629 0
M  V30 12101 C 1167.74 -3.45118 1.50235 0
M  V30 12102 C 1166.89 -2.19307 1.69705 0
M  V30 12103 H 1169.84 -0.913326 1.29785 0
M  V30 12104 H 1169.86 -3.62987 1.14107 0
M  V30 12105 H 1169.37 -2.74928 2.73927 0
M  V30 12106 H 1167.47 -3.69713 0.462967 0
M  V30 12107 H 1167.59 -4.2169 2.27408 0
M  V30 12108 H 1165.95 -2.28611 1.12291 0
M  V30 12109 H 1166.73 -2.02315 2.77351 0
M  V30 12110 N 1169.18 -0.941978 -1.26351 0
M  V30 12111 C 1170.09 -0.45833 -2.30079 0
M  V30 12112 C 1171.1 0.468084 -1.67586 0
M  V30 12113 O 1172.28 0.347418 -1.98381 0
M  V30 12114 C 1169.34 0.26797 -3.45663 0
M  V30 12115 C 1168.41 -0.695102 -4.23635 0
M  V30 12116 C 1167.64 -0.003369 -5.337 0
M  V30 12117 O 1167.86 1.21342 -5.57344 0
M  V30 12118 O 1166.8 -0.682476 -5.98018 0
M  V30 12119 H 1170.62 -1.31998 -2.73514 0
M  V30 12120 H 1168.21 -0.707897 -1.31564 0
M  V30 12121 H 1170.09 0.677061 -4.15925 0
M  V30 12122 H 1168.76 1.105 -3.04256 0
M  V30 12123 H 1167.67 -1.15415 -3.55851 0
M  V30 12124 H 1169 -1.49977 -4.68794 0
M  V30 12125 N 1170.66 1.40747 -0.709091 0
M  V30 12126 C 1171.9 2.00233 -0.242836 0
M  V30 12127 C 1172.22 1.56853 1.1686 0
M  V30 12128 O 1173.42 2.08993 1.73304 0
M  V30 12129 C 1171.88 3.57854 -0.383241 0
M  V30 12130 C 1171.49 4.10209 -1.80091 0
M  V30 12131 C 1173.23 4.24494 0.0225511 0
M  V30 12132 C 1171.14 5.60311 -1.89225 0
M  V30 12133 H 1170.07 0.74896 -0.087034 0
M  V30 12134 H 1172.72 1.61064 -0.879243 0
M  V30 12135 H 1171.1 3.94692 0.321642 0
M  V30 12136 H 1172.28 3.84762 -2.53564 0
M  V30 12137 H 1170.59 3.56142 -2.15758 0
M  V30 12138 H 1173.19 5.34694 -0.0250644 0
M  V30 12139 H 1173.53 4.02488 1.06344 0
M  V30 12140 H 1174.06 3.92739 -0.632541 0
M  V30 12141 H 1170.8 5.87162 -2.91412 0
M  V30 12142 H 1170.32 5.87642 -1.20154 0
M  V30 12143 H 1172 6.25306 -1.66136 0
M  V30 12144 N 1172.13 0.454803 1.50895 0
M  V30 12145 C 1173.41 -0.166559 1.9489 0
M  V30 12146 C 1173.79 -1.58492 1.3944 0
M  V30 12147 O 1173.14 -2.20788 0.588622 0
M  V30 12148 C 1173.35 -0.126506 3.48771 0
M  V30 12149 C 1174.7 -0.32347 4.23366 0
M  V30 12150 O 1175.72 -0.203835 3.55616 0
M  V30 12151 O 1174.58 -0.563292 5.43589 0
M  V30 12152 H 1171.67 -0.120523 0.818171 0
M  V30 12153 H 1174.22 0.514037 1.61727 0
M  V30 12154 H 1172.99 0.864407 3.81633 0
M  V30 12155 H 1172.61 -0.849264 3.88424 0
M  V30 12156 N 1173.61 -1.56489 0.186789 0
M  V30 12157 C 1175.03 -1.58701 -0.169176 0
M  V30 12158 C 1175.23 -1.2027 -1.61671 0
M  V30 12159 O 1174.28 -0.92154 -2.35083 0
M  V30 12160 C 1175.6 -3.00437 0.125657 0
M  V30 12161 C 1177.14 -3.12932 0.0651 0
M  V30 12162 C 1177.62 -4.56787 0.333131 0
M  V30 12163 N 1179.11 -4.62344 0.281453 0
M  V30 12164 C 1179.85 -5.71529 0.462805 0
M  V30 12165 N 1179.34 -6.89213 0.704054 0
M  V30 12166 N 1181.13 -5.60692 0.397636 0
M  V30 12167 H 1173.29 -1.79754 1.13148 0
M  V30 12168 H 1175.55 -0.83385 0.450997 0
M  V30 12169 H 1175.25 -3.33086 1.12901 0
M  V30 12170 H 1175.13 -3.72782 -0.575612 0
M  V30 12171 H 1177.52 -2.80101 -0.928845 0
M  V30 12172 H 1177.6 -2.42991 0.799318 0
M  V30 12173 H 1177.24 -4.9033 1.32436 0
M  V30 12174 H 1177.17 -5.24907 -0.421879 0
M  V30 12175 H 1179.66 -3.77764 0.101266 0
M  V30 12176 H 1179.97 -7.68314 0.831468 0
M  V30 12177 H 1178.32 -6.9104 0.740851 0
M  V30 12178 H 1181.51 -4.6763 0.20964 0
M  V30 12179 H 1181.68 -6.45726 0.54239 0
M  V30 12180 N 1175.09 0.086862 -1.5736 0
M  V30 12181 C 1176.31 0.806017 -1.91097 0
M  V30 12182 C 1176.74 1.71082 -0.78183 0
M  V30 12183 O 1176.1 1.79335 0.266175 0
M  V30 12184 C 1176.15 1.5884 -3.23732 0
M  V30 12185 O 1175.25 2.69798 -3.11902 0
M  V30 12186 H 1174.59 0.220899 -0.626179 0
M  V30 12187 H 1177.12 0.059619 -2.04513 0
M  V30 12188 H 1177.13 1.97088 -3.5724 0
M  V30 12189 H 1175.81 0.924426 -4.05496 0
M  V30 12190 H 1174.38 2.34519 -2.89923 0
M  V30 12191 N 1176.57 1.53483 0.357892 0
M  V30 12192 C 1177.51 1.80463 1.43881 0
M  V30 12193 C 1178.48 0.649438 1.52877 0
M  V30 12194 O 1179.67 0.892409 1.68644 0
M  V30 12195 C 1176.81 2.00714 2.80727 0
M  V30 12196 C 1175.92 3.28431 2.80637 0
M  V30 12197 C 1175.06 3.38828 4.09107 0
M  V30 12198 C 1174.1 4.60549 4.03189 0
M  V30 12199 N 1173.23 4.68057 5.23323 0
M  V30 12200 H 1178.07 2.72694 1.20174 0
M  V30 12201 H 1175.61 1.35079 0.582422 0
M  V30 12202 H 1177.57 2.10444 3.60235 0
M  V30 12203 H 1176.2 1.11811 3.02817 0
M  V30 12204 H 1175.25 3.27617 1.93317 0
M  V30 12205 H 1176.56 4.18022 2.72138 0
M  V30 12206 H 1175.72 3.47911 4.97034 0
M  V30 12207 H 1174.46 2.47267 4.20369 0
M  V30 12208 H 1173.46 4.51558 3.13649 0
M  V30 12209 H 1174.69 5.53459 3.93523 0
M  V30 12210 H 1172.63 3.794 5.35156 0
M  V30 12211 H 1172.55 5.51563 5.17024 0
M  V30 12212 H 1173.82 4.81433 6.1306 0
M  V30 12213 N 1178.05 -0.61812 1.44973 0
M  V30 12214 C 1178.98 -1.74035 1.55673 0
M  V30 12215 C 1179.96 -1.65112 0.4089 0
M  V30 12216 O 1181.14 -1.83673 0.630698 0
M  V30 12217 C 1178.27 -3.1261 1.51303 0
M  V30 12218 C 1177.23 -3.36334 2.64696 0
M  V30 12219 C 1176.55 -4.75072 2.45378 0
M  V30 12220 C 1177.85 -3.27618 4.06772 0
M  V30 12221 H 1179.55 -1.65336 2.49608 0
M  V30 12222 H 1177.09 -0.794003 1.20132 0
M  V30 12223 H 1179.04 -3.90906 1.57388 0
M  V30 12224 H 1177.77 -3.22123 0.538914 0
M  V30 12225 H 1176.43 -2.60423 2.58022 0
M  V30 12226 H 1176.08 -4.81306 1.46129 0
M  V30 12227 H 1175.78 -4.91903 3.21412 0
M  V30 12228 H 1177.3 -5.55582 2.53301 0
M  V30 12229 H 1178.71 -3.95802 4.14746 0
M  V30 12230 H 1177.11 -3.55981 4.83113 0
M  V30 12231 H 1178.18 -2.25219 4.29423 0
M  V30 12232 N 1179.52 -1.32087 -0.859693 0
M  V30 12233 C 1180.43 -1.22587 -2.00024 0
M  V30 12234 C 1181.45 -0.140477 -1.73432 0
M  V30 12235 O 1182.63 -0.360213 -1.98153 0
M  V30 12236 C 1179.69 -0.944195 -3.33595 0
M  V30 12237 C 1178.75 -2.11752 -3.73443 0
M  V30 12238 C 1177.98 -1.84919 -5.0064 0
M  V30 12239 O 1178.21 -0.789299 -5.64913 0
M  V30 12240 O 1177.14 -2.70885 -5.37499 0
M  V30 12241 H 1180.97 -2.18457 -2.10974 0
M  V30 12242 H 1178.55 -1.11927 -0.989577 0
M  V30 12243 H 1180.43 -0.803389 -4.13671 0
M  V30 12244 H 1179.11 -0.0156083 -3.23696 0
M  V30 12245 H 1178.02 -2.31378 -2.93965 0
M  V30 12246 H 1179.35 -3.02872 -3.87981 0
M  V30 12247 N 1181 1.07532 -1.15215 0
M  V30 12248 C 1182.42 1.32183 -0.894411 0
M  V30 12249 C 1182.62 1.96188 0.459614 0
M  V30 12250 O 1181.67 2.22057 1.20195 0
M  V30 12251 C 1182.99 2.21473 -2.03397 0
M  V30 12252 C 1184.53 2.34927 -2.06829 0
M  V30 12253 C 1185.01 3.27564 -3.20103 0
M  V30 12254 N 1186.5 3.35144 -3.19738 0
M  V30 12255 C 1187.24 4.0688 -4.04025 0
M  V30 12256 N 1186.73 4.81246 -4.98371 0
M  V30 12257 N 1188.52 4.02802 -3.92055 0
M  V30 12258 H 1180.68 0.643732 -2.0241 0
M  V30 12259 H 1182.94 0.346272 -0.882496 0
M  V30 12260 H 1182.64 1.81701 -3.01127 0
M  V30 12261 H 1182.52 3.2199 -1.96475 0
M  V30 12262 H 1184.91 2.73953 -1.09699 0
M  V30 12263 H 1184.99 1.34121 -2.17819 0
M  V30 12264 H 1184.63 2.89258 -4.17483 0
M  V30 12265 H 1184.56 4.2832 -3.06349 0
M  V30 12266 H 1187.05 2.82135 -2.51412 0
M  V30 12267 H 1187.36 5.33472 -5.59131 0
M  V30 12268 H 1185.71 4.80268 -5.02362 0
M  V30 12269 H 1188.9 3.43816 -3.17661 0
M  V30 12270 H 1189.07 4.58443 -4.57967 0
M  V30 12271 N 1182.48 0.948665 1.2585 0
M  V30 12272 C 1183.73 0.595938 1.92695 0
M  V30 12273 C 1184.04 -0.870229 1.75175 0
M  V30 12274 O 1185.25 -1.33266 2.36543 0
M  V30 12275 C 1183.7 1.01511 3.45288 0
M  V30 12276 C 1183.31 2.50341 3.71528 0
M  V30 12277 C 1185.06 0.734635 4.18095 0
M  V30 12278 C 1182.96 2.8609 5.17597 0
M  V30 12279 H 1181.89 0.219171 0.721443 0
M  V30 12280 H 1184.54 1.15231 1.42807 0
M  V30 12281 H 1182.93 0.387201 3.94102 0
M  V30 12282 H 1184.1 3.18101 3.3339 0
M  V30 12283 H 1182.42 2.75797 3.11969 0
M  V30 12284 H 1185.01 0.977962 5.25681 0
M  V30 12285 H 1185.36 -0.328807 4.14999 0
M  V30 12286 H 1185.89 1.32262 3.75169 0
M  V30 12287 H 1182.63 3.91427 5.25799 0
M  V30 12288 H 1182.15 2.22999 5.56805 0
M  V30 12289 H 1183.83 2.74959 5.85668 0
M  V30 12290 N 1183.96 -1.40369 0.716545 0
M  V30 12291 C 1185.24 -1.94737 0.183576 0
M  V30 12292 C 1185.62 -1.65464 -1.31092 0
M  V30 12293 O 1184.96 -0.972832 -2.06756 0
M  V30 12294 C 1185.17 -3.45438 0.497339 0
M  V30 12295 C 1186.52 -4.2235 0.436526 0
M  V30 12296 O 1187.55 -3.53553 0.433454 0
M  V30 12297 O 1186.4 -5.44923 0.41489 0
M  V30 12298 H 1183.5 -0.82655 0.0272785 0
M  V30 12299 H 1186.04 -1.49972 0.794143 0
M  V30 12300 H 1184.82 -3.60107 1.53097 0
M  V30 12301 H 1184.44 -3.97342 -0.143141 0
M  V30 12302 N 1185.44 -0.462799 -1.50652 0
M  V30 12303 C 1186.69 0.0966838 -2.01468 0
M  V30 12304 C 1187 1.41529 -1.35014 0
M  V30 12305 O 1188.2 2.05923 -1.76941 0
M  V30 12306 C 1186.66 0.222826 -3.5921 0
M  V30 12307 C 1186.27 -1.08686 -4.34616 0
M  V30 12308 C 1188.01 0.734711 -4.18094 0
M  V30 12309 C 1185.92 -0.924964 -5.84122 0
M  V30 12310 H 1184.85 0.0399078 -0.752943 0
M  V30 12311 H 1187.5 -0.596437 -1.73536 0
M  V30 12312 H 1185.88 0.979539 -3.83694 0
M  V30 12313 H 1187.06 -1.85388 -4.21862 0
M  V30 12314 H 1185.37 -1.52922 -3.87303 0
M  V30 12315 H 1187.97 0.872734 -5.2753 0
M  V30 12316 H 1188.31 1.72389 -3.7893 0
M  V30 12317 H 1188.84 0.0356139 -3.97784 0
M  V30 12318 H 1185.58 -1.88727 -6.27744 0
M  V30 12319 H 1185.1 -0.198181 -5.99473 0
M  V30 12320 H 1186.78 -0.588262 -6.4432 0
M  V30 12321 N 1186.91 1.56388 -0.195085 0
M  V30 12322 C 1188.33 1.58788 0.160758 0
M  V30 12323 C 1188.53 1.21125 1.61031 0
M  V30 12324 O 1187.59 0.933994 2.34591 0
M  V30 12325 C 1188.9 3.00366 -0.141588 0
M  V30 12326 C 1190.45 3.12893 -0.0816947 0
M  V30 12327 C 1190.92 4.56604 -0.35735 0
M  V30 12328 N 1192.41 4.62188 -0.305968 0
M  V30 12329 C 1193.15 5.71276 -0.493108 0
M  V30 12330 N 1192.64 6.8883 -0.740595 0
M  V30 12331 N 1194.44 5.60473 -0.427365 0
M  V30 12332 H 1186.59 1.79151 -1.14099 0
M  V30 12333 H 1188.85 0.831446 -0.455413 0
M  V30 12334 H 1188.56 3.32483 -1.14666 0
M  V30 12335 H 1188.43 3.73082 0.555834 0
M  V30 12336 H 1190.82 2.80589 0.913978 0
M  V30 12337 H 1190.9 2.42564 -0.812193 0
M  V30 12338 H 1190.54 4.8962 -1.35034 0
M  V30 12339 H 1190.47 5.25124 0.394036 0
M  V30 12340 H 1192.96 3.77705 -0.121298 0
M  V30 12341 H 1193.28 7.67862 -0.872201 0
M  V30 12342 H 1191.62 6.90637 -0.777488 0
M  V30 12343 H 1194.81 4.67513 -0.234436 0
M  V30 12344 H 1194.99 6.45429 -0.576627 0
M  V30 12345 N 1188.39 -0.0785156 1.57404 0
M  V30 12346 C 1189.62 -0.792042 1.9114 0
M  V30 12347 C 1190.04 -1.71458 0.790408 0
M  V30 12348 O 1189.39 -1.80959 -0.236662 0
M  V30 12349 C 1189.44 -1.59138 3.24588 0
M  V30 12350 O 1189.16 -0.705931 4.32375 0
M  V30 12351 C 1190.67 -2.4065 3.72293 0
M  V30 12352 H 1187.89 -0.225566 0.63195 0
M  V30 12353 H 1190.43 -0.0507929 2.04437 0
M  V30 12354 H 1188.58 -2.28498 3.12838 0
M  V30 12355 H 1189 -1.26121 5.09111 0
M  V30 12356 H 1190.47 -2.92204 4.68317 0
M  V30 12357 H 1190.95 -3.1987 3.00965 0
M  V30 12358 H 1191.56 -1.7646 3.86965 0
M  V30 12359 N 1189.87 -1.5367 -0.349747 0
M  V30 12360 C 1191.1 -1.74858 -1.11532 0
M  V30 12361 C 1191.52 -0.483591 -1.81777 0
M  V30 12362 O 1190.88 0.563399 -1.72324 0
M  V30 12363 C 1190.93 -2.92479 -2.10923 0
M  V30 12364 O 1190.03 -2.62194 -3.18321 0
M  V30 12365 H 1189.37 -0.580219 -0.322865 0
M  V30 12366 H 1191.9 -2.00611 -0.402033 0
M  V30 12367 H 1191.91 -3.19093 -2.54252 0
M  V30 12368 H 1190.59 -3.84228 -1.59191 0
M  V30 12369 H 1189.16 -2.46448 -2.79853 0
M  V30 12370 N 1191.35 0.610423 -1.45298 0
M  V30 12371 C 1192.28 1.73507 -1.4976 0
M  V30 12372 C 1193.29 1.58092 -0.38867 0
M  V30 12373 O 1194.48 1.66026 -0.655571 0
M  V30 12374 C 1191.58 3.11475 -1.33554 0
M  V30 12375 C 1190.76 3.53156 -2.5807 0
M  V30 12376 C 1189.81 4.70076 -2.36463 0
M  V30 12377 O 1188.84 4.77337 -3.10061 0
M  V30 12378 N 1190.04 5.63155 -1.40843 0
M  V30 12379 H 1192.81 1.70144 -2.46721 0
M  V30 12380 H 1190.37 0.79562 -1.41002 0
M  V30 12381 H 1192.36 3.87444 -1.16914 0
M  V30 12382 H 1190.93 3.09361 -0.448803 0
M  V30 12383 H 1190.15 2.67178 -2.89844 0
M  V30 12384 H 1191.44 3.77761 -3.40843 0
M  V30 12385 H 1190.84 5.60001 -0.800982 0
M  V30 12386 H 1189.39 6.38669 -1.30175 0
M  V30 12387 N 1192.83 1.32541 0.852676 0
M  V30 12388 C 1193.76 1.24254 1.97694 0
M  V30 12389 C 1194.74 0.125971 1.69633 0
M  V30 12390 O 1195.92 0.31347 1.91653 0
M  V30 12391 C 1193.05 0.966874 3.3357 0
M  V30 12392 C 1192.01 2.0449 3.75989 0
M  V30 12393 C 1191.33 1.6216 5.09518 0
M  V30 12394 C 1192.63 3.46013 3.91244 0
M  V30 12395 H 1194.33 2.18317 2.04886 0
M  V30 12396 H 1191.87 1.05101 0.984371 0
M  V30 12397 H 1193.83 0.895444 4.11776 0
M  V30 12398 H 1192.55 -0.0093893 3.26599 0
M  V30 12399 H 1191.21 2.10651 3.00036 0
M  V30 12400 H 1190.86 0.632729 4.99005 0
M  V30 12401 H 1190.56 2.3429 5.38871 0
M  V30 12402 H 1192.08 1.56457 5.90215 0
M  V30 12403 H 1193.49 3.4243 4.59799 0
M  V30 12404 H 1191.89 4.1651 4.32017 0
M  V30 12405 H 1192.96 3.8553 2.941 0
M  V30 12406 N 1194.3 -1.0692 1.15784 0
M  V30 12407 C 1195.55 -1.78983 0.929944 0
M  V30 12408 C 1195.87 -1.87884 -0.543969 0
M  V30 12409 O 1197.07 -2.56513 -0.889578 0
M  V30 12410 C 1195.53 -3.21657 1.61446 0
M  V30 12411 C 1195.14 -3.20943 3.12569 0
M  V30 12412 C 1196.88 -3.98299 1.46828 0
M  V30 12413 C 1194.79 -4.58298 3.73788 0
M  V30 12414 H 1193.72 -0.670809 0.344284 0
M  V30 12415 H 1196.37 -1.19975 1.38846 0
M  V30 12416 H 1194.75 -3.80885 1.08364 0
M  V30 12417 H 1195.92 -2.71334 3.72444 0
M  V30 12418 H 1194.24 -2.57799 3.26999 0
M  V30 12419 H 1196.84 -4.99822 1.89952 0
M  V30 12420 H 1197.18 -4.14213 0.416358 0
M  V30 12421 H 1197.71 -3.45577 1.97031 0
M  V30 12422 H 1194.45 -4.47588 4.789 0
M  V30 12423 H 1193.97 -5.08126 3.18698 0
M  V30 12424 H 1195.65 -5.27262 3.74972 0
M  V30 12425 N 1195.78 -0.955326 -1.25345 0
M  V30 12426 C 1197.01 -0.627693 -1.97149 0
M  V30 12427 C 1197.43 0.800349 -1.70997 0
M  V30 12428 O 1196.78 1.53545 -0.986417 0
M  V30 12429 C 1196.83 -0.877675 -3.50684 0
M  V30 12430 O 1196.55 -2.24957 -3.75934 0
M  V30 12431 C 1198.06 -0.562524 -4.39716 0
M  V30 12432 H 1195.28 -0.235269 -0.628402 0
M  V30 12433 H 1197.82 -1.27989 -1.59496 0
M  V30 12434 H 1195.97 -0.271878 -3.86445 0
M  V30 12435 H 1196.39 -2.32022 -4.70389 0
M  V30 12436 H 1197.86 -0.787972 -5.46347 0
M  V30 12437 H 1198.34 0.50293 -4.36311 0
M  V30 12438 H 1198.95 -1.14767 -4.09522 0
M  V30 12439 N 1197.26 1.39987 -0.723979 0
M  V30 12440 C 1198.67 1.83606 -0.338461 0
M  V30 12441 C 1199.02 1.6051 1.12831 0
M  V30 12442 O 1198.15 1.09041 1.8692 0
M  V30 12443 C 1198.74 3.33308 -0.607533 0
M  V30 12444 C 1197.3 3.75389 -0.275632 0
M  V30 12445 C 1196.45 2.6311 -0.875699 0
M  V30 12446 H 1199.4 1.29135 -0.922483 0
M  V30 12447 H 1199.42 3.80297 0.124424 0
M  V30 12448 H 1198.93 3.50087 -1.67514 0
M  V30 12449 H 1197.03 3.64203 0.786579 0
M  V30 12450 H 1197.15 4.73185 -0.750492 0
M  V30 12451 H 1195.51 2.5289 -0.303122 0
M  V30 12452 H 1196.29 2.82698 -1.94774 0
M  V30 12453 N 1198.74 0.470782 1.50404 0
M  V30 12454 C 1199.67 -0.313458 2.31386 0
M  V30 12455 C 1200.65 -0.990623 1.38278 0
M  V30 12456 O 1201.84 -0.987854 1.67198 0
M  V30 12457 C 1198.97 -1.39599 3.18009 0
M  V30 12458 C 1197.92 -0.840443 4.19667 0
M  V30 12459 C 1197.25 -2.02124 4.95025 0
M  V30 12460 C 1198.55 0.148055 5.2209 0
M  V30 12461 H 1200.24 0.362432 2.97198 0
M  V30 12462 H 1197.79 0.175745 1.42924 0
M  V30 12463 H 1199.74 -1.9521 3.73458 0
M  V30 12464 H 1198.46 -2.10064 2.50081 0
M  V30 12465 H 1197.12 -0.306302 3.65318 0
M  V30 12466 H 1196.77 -2.71286 4.23571 0
M  V30 12467 H 1196.47 -1.65574 5.6379 0
M  V30 12468 H 1197.99 -2.58226 5.5331 0
M  V30 12469 H 1199.41 -0.318874 5.72413 0
M  V30 12470 H 1197.8 0.427811 5.98573 0
M  V30 12471 H 1198.87 1.07404 4.72855 0
M  V30 12472 N 1200.22 -1.56282 0.203376 0
M  V30 12473 C 1201.46 -1.97812 -0.433202 0
M  V30 12474 C 1201.79 -1.09052 -1.61053 0
M  V30 12475 O 1201.05 -0.131417 -1.95258 0
M  V30 12476 C 1201.35 -3.45148 -0.927759 0
M  V30 12477 C 1201.01 -4.50692 0.137083 0
M  V30 12478 C 1199.67 -4.79278 0.429652 0
M  V30 12479 C 1202.03 -5.14086 0.858174 0
M  V30 12480 C 1199.35 -5.68547 1.44815 0
M  V30 12481 C 1201.71 -6.04457 1.86588 0
M  V30 12482 C 1200.37 -6.31395 2.16556 0
M  V30 12483 H 1199.64 -0.723846 -0.15852 0
M  V30 12484 H 1202.29 -1.89102 0.302082 0
M  V30 12485 H 1200.59 -3.5097 -1.74147 0
M  V30 12486 H 1202.29 -3.74642 -1.42984 0
M  V30 12487 H 1198.88 -4.28481 -0.101111 0
M  V30 12488 H 1203.06 -4.92086 0.645376 0
M  V30 12489 H 1198.32 -5.87689 1.68615 0
M  V30 12490 H 1202.49 -6.52636 2.4298 0
M  V30 12491 H 1200.12 -7.00366 2.9562 0
M  V30 12492 N 1201.7 0.070167 -1.57444 0
M  V30 12493 C 1202.61 1.10106 -2.07157 0
M  V30 12494 C 1203.62 1.42293 -1.00143 0
M  V30 12495 O 1204.8 1.52437 -1.31624 0
M  V30 12496 C 1201.86 2.39486 -2.50694 0
M  V30 12497 C 1200.92 2.14255 -3.72012 0
M  V30 12498 C 1200.16 3.37466 -4.13464 0
M  V30 12499 O 1200.38 4.46645 -3.54773 0
M  V30 12500 O 1199.31 3.25583 -5.0624 0
M  V30 12501 H 1203.14 0.70873 -2.95315 0
M  V30 12502 H 1200.72 0.28441 -1.46668 0
M  V30 12503 H 1202.61 3.15625 -2.79212 0
M  V30 12504 H 1201.28 2.78095 -1.65664 0
M  V30 12505 H 1200.19 1.35816 -3.48575 0
M  V30 12506 H 1201.52 1.80525 -4.57899 0
M  V30 12507 N 1203.17 1.53854 0.341593 0
M  V30 12508 C 1204.4 1.7488 1.10002 0
M  V30 12509 C 1204.81 0.488802 1.82777 0
M  V30 12510 O 1204.15 -0.549333 1.75294 0
M  V30 12511 C 1204.22 2.87604 2.15694 0
M  V30 12512 C 1203.88 4.27142 1.62477 0
M  V30 12513 C 1204.88 5.08642 1.07606 0
M  V30 12514 C 1202.56 4.73633 1.67265 0
M  V30 12515 C 1204.56 6.34735 0.582284 0
M  V30 12516 C 1202.24 5.99697 1.175 0
M  V30 12517 C 1203.24 6.80081 0.630742 0
M  V30 12518 O 1202.93 8.03777 0.140519 0
M  V30 12519 H 1202.66 0.587824 0.333824 0
M  V30 12520 H 1205.22 2.01488 0.398965 0
M  V30 12521 H 1203.45 2.56526 2.89364 0
M  V30 12522 H 1205.13 2.96583 2.77117 0
M  V30 12523 H 1205.9 4.73887 1.03227 0
M  V30 12524 H 1201.78 4.11121 2.08567 0
M  V30 12525 H 1205.32 6.97424 0.156811 0
M  V30 12526 H 1201.22 6.33947 1.21579 0
M  V30 12527 H 1201.99 8.18094 0.257626 0
M  V30 12528 N 1204.65 -0.602709 1.4562 0
M  V30 12529 C 1205.88 -1.39299 1.53657 0
M  V30 12530 C 1206.3 -1.87315 0.171632 0
M  V30 12531 O 1205.66 -1.60423 -0.844639 0
M  V30 12532 C 1205.71 -2.57021 2.52928 0
M  V30 12533 O 1204.81 -3.57812 2.05047 0
M  V30 12534 H 1204.15 -0.41567 0.517798 0
M  V30 12535 H 1206.68 -0.73304 1.91018 0
M  V30 12536 H 1206.69 -3.04202 2.71892 0
M  V30 12537 H 1205.37 -2.21422 3.52058 0
M  V30 12538 H 1203.94 -3.17247 1.95981 0
M  V30 12539 N 1206.13 -1.32992 -0.845635 0
M  V30 12540 C 1207.38 -1.2382 -1.59728 0
M  V30 12541 C 1207.7 0.197724 -1.93995 0
M  V30 12542 O 1206.97 1.12477 -1.60392 0
M  V30 12543 H 1205.55 -0.455296 -0.592212 0
M  V30 12544 H 1208.21 -1.66627 -1.01101 0
M  V30 12545 H 1207.31 -1.82717 -2.53023 0
M  V30 12546 N 1207.61 1.06304 -1.1635 0
M  V30 12547 C 1208.57 2.11947 -0.872419 0
M  V30 12548 C 1209.57 1.60253 0.132534 0
M  V30 12549 O 1210.76 1.73922 -0.0983441 0
M  V30 12550 C 1207.89 3.39536 -0.304646 0
M  V30 12551 H 1209.09 2.39201 -1.80894 0
M  V30 12552 H 1206.64 1.22367 -0.972419 0
M  V30 12553 H 1207.37 3.17931 0.639565 0
M  V30 12554 H 1207.16 3.78363 -1.02878 0
M  V30 12555 H 1208.65 4.17431 -0.118936 0
M  V30 12556 N 1209.09 0.96196 1.24836 0
M  V30 12557 C 1210.33 0.628484 1.94498 0
M  V30 12558 C 1210.69 -0.820337 1.73593 0
M  V30 12559 O 1211.89 -1.26376 2.37239 0
M  V30 12560 C 1210.16 0.986119 3.43527 0
M  V30 12561 S 1211.72 0.766324 4.32057 0
M  V30 12562 H 1208.54 0.230758 0.672511 0
M  V30 12563 H 1211.14 1.23769 1.51332 0
M  V30 12564 H 1209.84 2.03756 3.56247 0
M  V30 12565 H 1209.38 0.367454 3.9168 0
M  V30 12566 H 1211.39 -0.359227 4.94898 0
M  V30 12567 N 1210.56 -1.39601 0.731392 0
M  V30 12568 C 1211.79 -2.05411 0.286532 0
M  V30 12569 C 1212.21 -1.54777 -1.06892 0
M  V30 12570 O 1211.57 -0.689942 -1.67659 0
M  V30 12571 C 1211.62 -3.594 0.293914 0
M  V30 12572 O 1210.72 -4.06072 -0.719657 0
M  V30 12573 H 1210.06 -0.650949 0.131004 0
M  V30 12574 H 1212.59 -1.78703 0.996305 0
M  V30 12575 H 1212.6 -4.0777 0.137052 0
M  V30 12576 H 1211.28 -3.95617 1.28298 0
M  V30 12577 H 1209.86 -3.69125 -0.529226 0
M  V30 12578 N 1212.04 -0.478751 -1.50152 0
M  V30 12579 C 1213.29 0.0734397 -2.01967 0
M  V30 12580 C 1213.61 1.39523 -1.36229 0
M  V30 12581 O 1212.88 1.89141 -0.510149 0
M  V30 12582 H 1211.46 0.0301305 -0.746392 0
M  V30 12583 H 1214.12 -0.630921 -1.84406 0
M  V30 12584 H 1213.22 0.21937 -3.11328 0
M  V30 12585 N 1213.52 1.56172 -0.211661 0
M  V30 12586 C 1214.76 1.9994 0.424672 0
M  V30 12587 C 1215.12 1.09598 1.57646 0
M  V30 12588 O 1216.33 1.4267 2.27813 0
M  V30 12589 C 1214.6 3.46961 0.857497 0
M  V30 12590 S 1216.16 4.12752 1.48933 0
M  V30 12591 H 1212.97 0.698031 0.135179 0
M  V30 12592 H 1215.58 1.92886 -0.318625 0
M  V30 12593 H 1214.28 4.10399 0.009398 0
M  V30 12594 H 1213.81 3.57867 1.63385 0
M  V30 12595 H 1215.83 4.11125 2.77833 0
M  V30 12596 N 1215 -0.0618163 1.57479 0
M  V30 12597 C 1216.25 -0.757569 1.87364 0
M  V30 12598 C 1216.57 -1.77607 0.805025 0
M  V30 12599 O 1215.84 -1.95202 -0.165216 0
M  V30 12600 H 1214.42 -0.28278 0.691408 0
M  V30 12601 H 1217.08 -0.0355354 1.94868 0
M  V30 12602 H 1216.18 -1.26758 2.85199 0
M  V30 12603 N 1216.48 -1.54033 -0.333429 0
M  V30 12604 C 1217.39 -1.85737 -1.43314 0
M  V30 12605 C 1218.4 -0.748398 -1.57083 0
M  V30 12606 O 1219.58 -1.04171 -1.72367 0
M  V30 12607 C 1216.64 -2.06942 -2.78165 0
M  V30 12608 C 1215.7 -3.30774 -2.73655 0
M  V30 12609 C 1214.94 -3.50957 -4.02075 0
M  V30 12610 O 1215.16 -2.74774 -4.99855 0
M  V30 12611 O 1214.09 -4.44412 -4.05933 0
M  V30 12612 H 1217.92 -2.7923 -1.19434 0
M  V30 12613 H 1215.51 -1.39814 -0.526546 0
M  V30 12614 H 1217.39 -2.22276 -3.58011 0
M  V30 12615 H 1216.06 -1.16638 -3.01956 0
M  V30 12616 H 1214.97 -3.20835 -1.92395 0
M  V30 12617 H 1216.3 -4.21103 -2.54819 0
M  V30 12618 N 1217.95 0.594978 -1.45938 0
M  V30 12619 C 1219.18 1.37994 -1.5416 0
M  V30 12620 C 1219.6 1.87954 -0.17848 0
M  V30 12621 O 1218.95 1.62932 0.822161 0
M  V30 12622 C 1219.01 2.57586 -2.53637 0
M  V30 12623 O 1218.73 2.09698 -3.84653 0
M  V30 12624 C 1220.23 3.50292 -2.71681 0
M  V30 12625 H 1217.45 0.421983 -0.5217 0
M  V30 12626 H 1219.99 0.724459 -1.91238 0
M  V30 12627 H 1218.15 3.19149 -2.19597 0
M  V30 12628 H 1218.56 2.87492 -4.3869 0
M  V30 12629 H 1220.03 4.30717 -3.45234 0
M  V30 12630 H 1220.51 4.01444 -1.78156 0
M  V30 12631 H 1221.12 2.94573 -3.06768 0
M  V30 12632 N 1219.43 1.33438 0.838571 0
M  V30 12633 C 1220.84 1.22366 1.41009 0
M  V30 12634 C 1221.19 -0.157317 1.95568 0
M  V30 12635 O 1220.32 -1.05692 1.88834 0
M  V30 12636 C 1220.91 2.21542 2.56329 0
M  V30 12637 C 1219.47 2.14309 3.09433 0
M  V30 12638 C 1218.62 2.09012 1.82235 0
M  V30 12639 H 1221.57 1.45032 0.64431 0
M  V30 12640 H 1221.59 1.82332 3.33969 0
M  V30 12641 H 1221.1 3.22042 2.16589 0
M  V30 12642 H 1219.21 1.17113 3.53717 0
M  V30 12643 H 1219.32 3.04866 3.69586 0
M  V30 12644 H 1217.68 1.54492 2.02495 0
M  V30 12645 H 1218.47 3.11319 1.4469 0
M  V30 12646 N 1220.91 -1.05686 1.16912 0
M  V30 12647 C 1222.14 -1.82018 0.977392 0
M  V30 12648 C 1222.55 -1.83072 -0.477636 0
M  V30 12649 O 1221.89 -1.25296 -1.34338 0
M  V30 12650 C 1221.95 -3.29592 1.4356 0
M  V30 12651 C 1221.62 -3.5223 2.91175 0
M  V30 12652 C 1222.61 -3.44767 3.89142 0
M  V30 12653 C 1220.3 -3.79353 3.29236 0
M  V30 12654 C 1222.29 -3.64104 5.2317 0
M  V30 12655 C 1219.98 -3.98339 4.63432 0
M  V30 12656 C 1220.98 -3.90713 5.60207 0
M  V30 12657 O 1220.67 -4.09175 6.91976 0
M  V30 12658 H 1220.4 -0.580578 0.346273 0
M  V30 12659 H 1222.95 -1.34199 1.55498 0
M  V30 12660 H 1221.18 -3.78302 0.80153 0
M  V30 12661 H 1222.87 -3.87435 1.21032 0
M  V30 12662 H 1223.64 -3.23796 3.61083 0
M  V30 12663 H 1219.52 -3.84395 2.54482 0
M  V30 12664 H 1223.06 -3.58068 5.98693 0
M  V30 12665 H 1218.96 -4.18801 4.91198 0
M  V30 12666 H 1219.73 -4.26429 6.98642 0
M  V30 12667 N 1222.39 -0.968567 -1.24324 0
M  V30 12668 C 1223.64 -0.626519 -1.91723 0
M  V30 12669 C 1223.95 0.84225 -1.76538 0
M  V30 12670 O 1225.16 1.29486 -2.38633 0
M  V30 12671 C 1223.61 -1.06992 -3.43629 0
M  V30 12672 C 1223.22 -2.5622 -3.67499 0
M  V30 12673 C 1224.96 -0.801057 -4.16873 0
M  V30 12674 C 1222.87 -2.94288 -5.1298 0
M  V30 12675 H 1221.8 -0.23062 -0.717865 0
M  V30 12676 H 1224.45 -1.17489 -1.40956 0
M  V30 12677 H 1222.83 -0.44985 -3.93437 0
M  V30 12678 H 1224.01 -3.23364 -3.28287 0
M  V30 12679 H 1222.32 -2.80726 -3.07542 0
M  V30 12680 H 1224.92 -1.06147 -5.24058 0
M  V30 12681 H 1225.26 0.262742 -4.1547 0
M  V30 12682 H 1225.8 -1.38213 -3.73017 0
M  V30 12683 H 1222.54 -3.99743 -5.19506 0
M  V30 12684 H 1222.06 -2.31829 -5.53187 0
M  V30 12685 H 1223.73 -2.84242 -5.81219 0
M  V30 12686 N 1223.87 1.39211 -0.738786 0
M  V30 12687 C 1224.81 2.30578 -0.10129 0
M  V30 12688 C 1225.78 1.49412 0.725616 0
M  V30 12689 O 1226.97 1.78087 0.684799 0
M  V30 12690 C 1224.11 3.35767 0.797161 0
M  V30 12691 C 1223.22 4.31979 -0.0427701 0
M  V30 12692 C 1222.36 5.24236 0.857306 0
M  V30 12693 C 1221.4 6.12099 0.0128501 0
M  V30 12694 N 1220.53 6.96701 0.869067 0
M  V30 12695 H 1225.37 2.84522 -0.88606 0
M  V30 12696 H 1222.91 1.40093 -0.448602 0
M  V30 12697 H 1224.87 3.95347 1.33255 0
M  V30 12698 H 1223.5 2.83268 1.54787 0
M  V30 12699 H 1222.55 3.73986 -0.695622 0
M  V30 12700 H 1223.86 4.93927 -0.69555 0
M  V30 12701 H 1223.02 5.88861 1.4604 0
M  V30 12702 H 1221.75 4.62619 1.54386 0
M  V30 12703 H 1220.76 5.46483 -0.603018 0
M  V30 12704 H 1221.98 6.75781 -0.67054 0
M  V30 12705 H 1219.93 6.37647 1.54084 0
M  V30 12706 H 1219.85 7.55507 0.272852 0
M  V30 12707 H 1221.12 7.65751 1.4576 0
M  V30 12708 N 1225.34 0.486708 1.49896 0
M  V30 12709 C 1226.27 -0.288898 2.31706 0
M  V30 12710 C 1227.26 -0.975901 1.3932 0
M  V30 12711 O 1228.44 -0.970065 1.68236 0
M  V30 12712 C 1225.57 -1.36218 3.19471 0
M  V30 12713 C 1224.52 -0.795884 4.20535 0
M  V30 12714 C 1223.85 -1.96862 4.97141 0
M  V30 12715 C 1225.15 0.203421 5.21904 0
M  V30 12716 H 1226.84 0.393934 2.96797 0
M  V30 12717 H 1224.39 0.190894 1.42729 0
M  V30 12718 H 1226.34 -1.91238 3.75508 0
M  V30 12719 H 1225.07 -2.074 2.52295 0
M  V30 12720 H 1223.73 -0.267538 3.65622 0
M  V30 12721 H 1223.37 -2.66779 4.26425 0
M  V30 12722 H 1223.07 -1.59585 5.65514 0
M  V30 12723 H 1224.6 -2.52343 5.56017 0
M  V30 12724 H 1226.01 -0.258144 5.72719 0
M  V30 12725 H 1224.41 0.491273 5.98086 0
M  V30 12726 H 1225.48 1.12414 4.7169 0
M  V30 12727 N 1226.82 -1.56058 0.219941 0
M  V30 12728 C 1227.75 -2.2321 -0.685547 0
M  V30 12729 C 1228.73 -1.20328 -1.20229 0
M  V30 12730 O 1229.92 -1.48909 -1.24659 0
M  V30 12731 C 1227.05 -2.91076 -1.89452 0
M  V30 12732 C 1226 -4.00415 -1.51169 0
M  V30 12733 C 1225.33 -4.55569 -2.79931 0
M  V30 12734 C 1226.63 -5.17549 -0.702896 0
M  V30 12735 H 1228.32 -2.99136 -0.125671 0
M  V30 12736 H 1225.87 -1.43879 -0.0590043 0
M  V30 12737 H 1227.82 -3.36744 -2.53341 0
M  V30 12738 H 1226.55 -2.12594 -2.47934 0
M  V30 12739 H 1225.21 -3.55475 -0.896275 0
M  V30 12740 H 1224.85 -3.73819 -3.36553 0
M  V30 12741 H 1224.55 -5.29361 -2.55049 0
M  V30 12742 H 1226.08 -5.03955 -3.44764 0
M  V30 12743 H 1227.49 -5.59608 -1.24544 0
M  V30 12744 H 1225.89 -5.97563 -0.551234 0
M  V30 12745 H 1226.96 -4.84027 0.29083 0
M  V30 12746 N 1228.3 0.053464 -1.57509 0
M  V30 12747 C 1229.53 0.761533 -1.92375 0
M  V30 12748 C 1229.94 1.70179 -0.817585 0
M  V30 12749 O 1229.3 1.81313 0.207843 0
M  V30 12750 C 1229.35 1.53954 -3.27078 0
M  V30 12751 O 1229.07 0.637054 -4.33443 0
M  V30 12752 C 1230.57 2.34697 -3.76075 0
M  V30 12753 H 1227.79 0.215483 -0.635459 0
M  V30 12754 H 1230.34 0.0182624 -2.04492 0
M  V30 12755 H 1228.49 2.23492 -3.16434 0
M  V30 12756 H 1228.91 1.18006 -5.11053 0
M  V30 12757 H 1230.38 2.84716 -4.72906 0
M  V30 12758 H 1230.86 3.15041 -3.06016 0
M  V30 12759 H 1231.46 1.70281 -3.89724 0
M  V30 12760 N 1229.78 1.54207 0.325255 0
M  V30 12761 C 1230.71 1.79812 1.42128 0
M  V30 12762 C 1231.72 0.68003 1.47917 0
M  V30 12763 O 1232.91 0.957107 1.50671 0
M  V30 12764 C 1230.01 1.89935 2.80674 0
M  V30 12765 C 1229.19 3.20078 2.98108 0
M  V30 12766 C 1228.25 3.20924 4.17006 0
M  V30 12767 O 1227.27 3.94571 4.10247 0
M  V30 12768 N 1228.47 2.44588 5.26457 0
M  V30 12769 H 1231.24 2.74396 1.20527 0
M  V30 12770 H 1228.8 1.53483 0.515233 0
M  V30 12771 H 1230.79 1.8793 3.58419 0
M  V30 12772 H 1229.36 1.02455 2.95333 0
M  V30 12773 H 1228.58 3.35057 2.07679 0
M  V30 12774 H 1229.87 4.06008 3.06651 0
M  V30 12775 H 1229.27 1.8434 5.34823 0
M  V30 12776 H 1227.82 2.48363 6.02627 0
M  V30 12777 N 1231.26 -0.58723 1.46251 0
M  V30 12778 C 1232.19 -1.70694 1.5933 0
M  V30 12779 C 1233.17 -1.64208 0.443831 0
M  V30 12780 O 1234.35 -1.82294 0.669516 0
M  V30 12781 C 1231.48 -3.0933 1.579 0
M  V30 12782 C 1230.44 -3.30643 2.7177 0
M  V30 12783 C 1229.76 -4.69761 2.554 0
M  V30 12784 C 1231.06 -3.18916 4.1363 0
M  V30 12785 H 1232.76 -1.60004 2.53059 0
M  V30 12786 H 1230.3 -0.768343 1.21789 0
M  V30 12787 H 1232.26 -3.87479 1.65644 0
M  V30 12788 H 1230.98 -3.20907 0.60712 0
M  V30 12789 H 1229.64 -2.54892 2.63488 0
M  V30 12790 H 1229.29 -4.78098 1.56306 0
M  V30 12791 H 1228.99 -4.84974 3.31774 0
M  V30 12792 H 1230.51 -5.50084 2.65028 0
M  V30 12793 H 1231.93 -3.86915 4.23048 0
M  V30 12794 H 1230.32 -3.45653 4.90555 0
M  V30 12795 H 1231.39 -2.1606 4.34104 0
M  V30 12796 N 1232.74 -1.33881 -0.831482 0
M  V30 12797 C 1233.97 -1.28625 -1.61676 0
M  V30 12798 C 1234.37 0.143588 -1.88654 0
M  V30 12799 O 1233.72 1.09847 -1.47239 0
M  V30 12800 C 1233.78 -2.00022 -2.98716 0
M  V30 12801 C 1233.44 -3.49309 -2.94674 0
M  V30 12802 C 1234.44 -4.44375 -2.69864 0
M  V30 12803 C 1232.12 -3.91596 -3.14576 0
M  V30 12804 C 1234.12 -5.79703 -2.64996 0
M  V30 12805 C 1231.81 -5.27026 -3.09333 0
M  V30 12806 C 1232.8 -6.20892 -2.84575 0
M  V30 12807 O 1232.49 -7.53841 -2.79248 0
M  V30 12808 H 1232.22 -0.444235 -0.50954 0
M  V30 12809 H 1234.78 -1.76933 -1.04326 0
M  V30 12810 H 1233.01 -1.46316 -3.57951 0
M  V30 12811 H 1234.7 -1.88168 -3.59649 0
M  V30 12812 H 1235.46 -4.13027 -2.54231 0
M  V30 12813 H 1231.34 -3.18938 -3.32865 0
M  V30 12814 H 1234.89 -6.5294 -2.45591 0
M  V30 12815 H 1230.78 -5.57996 -3.24516 0
M  V30 12816 H 1231.55 -7.63476 -2.95037 0
M  V30 12817 N 1234.21 1.05064 -1.1747 0
M  V30 12818 C 1235.46 1.77737 -0.961979 0
M  V30 12819 C 1235.78 1.88198 0.510551 0
M  V30 12820 O 1235.05 1.39968 1.37062 0
M  V30 12821 H 1233.63 0.658366 -0.352935 0
M  V30 12822 H 1236.29 1.26851 -1.47969 0
M  V30 12823 H 1235.39 2.79368 -1.39141 0
M  V30 12824 N 1235.69 0.975146 1.23809 0
M  V30 12825 C 1236.97 0.557725 1.8748 0
M  V30 12826 C 1237.35 -0.965164 1.87744 0
M  V30 12827 O 1236.7 -1.83966 1.35531 0
M  V30 12828 C 1236.91 1.15777 3.29236 0
M  V30 12829 C 1238.25 1.24726 4.05868 0
M  V30 12830 O 1239.28 1.11084 3.38436 0
M  V30 12831 O 1238.14 1.46373 5.26533 0
M  V30 12832 H 1235.23 0.187045 0.80557 0
M  V30 12833 H 1237.78 1.06989 1.31725 0
M  V30 12834 H 1236.55 2.20023 3.23583 0
M  V30 12835 H 1236.17 0.630103 3.92575 0
M  V30 12836 N 1237.17 -1.38817 0.746158 0
M  V30 12837 C 1238.59 -1.53894 0.42294 0
M  V30 12838 C 1238.79 -1.71064 -1.06486 0
M  V30 12839 O 1237.84 -1.71744 -1.85095 0
M  V30 12840 C 1239.15 -2.75029 1.2157 0
M  V30 12841 C 1240.7 -2.88873 1.20504 0
M  V30 12842 C 1241.18 -4.1296 1.9806 0
M  V30 12843 N 1242.67 -4.20022 1.95283 0
M  V30 12844 C 1243.4 -5.15011 2.52093 0
M  V30 12845 N 1242.9 -6.1572 3.17586 0
M  V30 12846 N 1244.69 -5.07308 2.42064 0
M  V30 12847 H 1236.84 -1.25921 1.71049 0
M  V30 12848 H 1239.11 -0.611148 0.724708 0
M  V30 12849 H 1238.81 -2.68722 2.26895 0
M  V30 12850 H 1238.69 -3.68009 0.827593 0
M  V30 12851 H 1241.07 -2.94667 0.159877 0
M  V30 12852 H 1241.15 -1.96925 1.63261 0
M  V30 12853 H 1240.8 -4.07929 3.02583 0
M  V30 12854 H 1240.73 -5.03974 1.52702 0
M  V30 12855 H 1243.22 -3.47892 1.4758 0
M  V30 12856 H 1243.53 -6.84682 3.58373 0
M  V30 12857 H 1241.88 -6.16075 3.21678 0
M  V30 12858 H 1245.07 -4.27569 1.90532 0
M  V30 12859 H 1245.24 -5.81158 2.86635 0
M  V30 12860 N 1238.65 -0.49465 -1.49636 0
M  V30 12861 C 1239.58 0.33366 -2.25748 0
M  V30 12862 C 1240.56 0.97591 -1.30057 0
M  V30 12863 O 1241.74 1.00725 -1.59332 0
M  V30 12864 C 1238.87 1.46938 -3.05167 0
M  V30 12865 C 1237.92 0.942149 -4.15964 0
M  V30 12866 S 1238.75 -0.162019 -5.35255 0
M  V30 12867 C 1239.9 0.977022 -6.18227 0
M  V30 12868 H 1240.14 -0.312361 -2.95655 0
M  V30 12869 H 1237.67 -0.279854 -1.51843 0
M  V30 12870 H 1239.63 2.12017 -3.5151 0
M  V30 12871 H 1238.29 2.087 -2.34741 0
M  V30 12872 H 1237.48 1.79309 -4.71025 0
M  V30 12873 H 1237.08 0.368687 -3.72178 0
M  V30 12874 H 1239.38 1.88363 -6.50788 0
M  V30 12875 H 1240.32 0.465168 -7.0657 0
M  V30 12876 H 1240.73 1.24149 -5.50679 0
M  V30 12877 N 1240.13 1.55939 -0.228214 0
M  V30 12878 C 1241.06 2.2357 0.6737 0
M  V30 12879 C 1242.04 1.20964 1.1959 0
M  V30 12880 O 1243.22 1.49568 1.23867 0
M  V30 12881 C 1240.35 2.92076 1.87906 0
M  V30 12882 C 1239.31 4.01211 1.49043 0
M  V30 12883 C 1238.63 4.57047 2.77511 0
M  V30 12884 C 1239.93 5.17914 0.67544 0
M  V30 12885 H 1241.63 2.99199 0.109806 0
M  V30 12886 H 1239.17 1.43908 0.0513732 0
M  V30 12887 H 1241.12 3.38083 2.51551 0
M  V30 12888 H 1239.85 2.13906 2.46803 0
M  V30 12889 H 1238.51 3.55945 0.877411 0
M  V30 12890 H 1238.16 3.75599 3.34566 0
M  V30 12891 H 1237.86 5.30707 2.52239 0
M  V30 12892 H 1239.38 5.05776 3.42087 0
M  V30 12893 H 1240.79 5.60261 1.21575 0
M  V30 12894 H 1239.19 5.97847 0.519536 0
M  V30 12895 H 1240.26 4.83866 -0.316495 0
M  V30 12896 N 1241.6 -0.0451101 1.57535 0
M  V30 12897 C 1242.85 -0.738072 1.87711 0
M  V30 12898 C 1243.17 -1.7737 0.824579 0
M  V30 12899 O 1244.37 -2.51812 1.01503 0
M  V30 12900 C 1242.83 -1.36373 3.33062 0
M  V30 12901 C 1242.44 -0.365283 4.46508 0
M  V30 12902 C 1244.18 -2.0375 3.72406 0
M  V30 12903 C 1242.09 -0.998371 5.82912 0
M  V30 12904 H 1241.02 -0.279413 0.700317 0
M  V30 12905 H 1243.67 0.00802425 1.83498 0
M  V30 12906 H 1242.05 -2.15899 3.31969 0
M  V30 12907 H 1243.22 0.402102 4.59042 0
M  V30 12908 H 1241.54 0.205505 4.15893 0
M  V30 12909 H 1244.14 -2.51939 4.71625 0
M  V30 12910 H 1244.48 -2.84869 3.03571 0
M  V30 12911 H 1245.01 -1.3102 3.75604 0
M  V30 12912 H 1241.75 -0.226935 6.55107 0
M  V30 12913 H 1241.27 -1.73598 5.74129 0
M  V30 12914 H 1242.95 -1.51044 6.29122 0
M  V30 12915 N 1243.08 -1.54377 -0.317073 0
M  V30 12916 C 1244.05 -1.83488 -1.37349 0
M  V30 12917 C 1245.05 -0.706981 -1.44424 0
M  V30 12918 O 1246.24 -0.975289 -1.44339 0
M  V30 12919 C 1243.37 -2.00074 -2.76013 0
M  V30 12920 H 1244.56 -2.77883 -1.12789 0
M  V30 12921 H 1242.11 -1.46194 -0.552902 0
M  V30 12922 H 1242.85 -1.07913 -3.05819 0
M  V30 12923 H 1242.63 -2.82155 -2.7227 0
M  V30 12924 H 1244.12 -2.24022 -3.52426 0
M  V30 12925 N 1244.56 0.579466 -1.4656 0
M  V30 12926 C 1245.51 1.70937 -1.57744 0
M  V30 12927 C 1246.5 1.6343 -0.44577 0
M  V30 12928 O 1247.71 1.68884 -0.622762 0
M  V30 12929 H 1244.08 0.565218 -0.496017 0
M  V30 12930 H 1246.05 1.58636 -2.52739 0
M  V30 12931 C 1244.8 3.09321 -1.58794 0
M  V30 12932 H 1244.13 3.1577 -2.45213 0
M  V30 12933 H 1245.57 3.88132 -1.70674 0
M  V30 12934 C 1244.03 3.35404 -0.317165 0
M  V30 12935 O 1244.56 3.97325 0.591228 0
M  V30 12936 N 1242.76 2.89883 -0.204071 0
M  V30 12937 H 1242.31 2.39672 -0.944194 0
M  V30 12938 H 1242.27 3.07706 0.645303 0
M  V30 12939 N 1246.04 1.3432 0.824371 0
M  V30 12940 C 1247 1.25672 1.91675 0
M  V30 12941 C 1248 0.172269 1.59875 0
M  V30 12942 O 1249.19 0.424794 1.68941 0
M  V30 12943 C 1246.32 0.939928 3.27686 0
M  V30 12944 H 1247.52 2.22785 2.00766 0
M  V30 12945 H 1245.07 1.18587 1.01817 0
M  V30 12946 H 1245.8 -0.0280898 3.24288 0
M  V30 12947 H 1245.59 1.72432 3.5215 0
M  V30 12948 H 1247.08 0.904553 4.07686 0
M  V30 12949 N 1247.52 -1.0444 1.18026 0
M  V30 12950 C 1248.74 -1.81234 0.998089 0
M  V30 12951 C 1249.16 -1.83271 -0.453559 0
M  V30 12952 O 1248.52 -1.26545 -1.31502 0
M  V30 12953 C 1248.57 -3.27007 1.54106 0
M  V30 12954 O 1248.29 -3.25174 2.93587 0
M  V30 12955 C 1249.79 -4.20461 1.40455 0
M  V30 12956 H 1247.01 -0.57085 0.352663 0
M  V30 12957 H 1249.55 -1.31649 1.56489 0
M  V30 12958 H 1247.71 -3.73837 1.01611 0
M  V30 12959 H 1248.12 -4.16466 3.18836 0
M  V30 12960 H 1249.6 -5.20695 1.83249 0
M  V30 12961 H 1250.07 -4.37781 0.352713 0
M  V30 12962 H 1250.68 -3.79493 1.92004 0
M  V30 12963 N 1248.99 -0.981699 -1.2329 0
M  V30 12964 C 1250.24 -0.650015 -1.91361 0
M  V30 12965 C 1250.56 0.819184 -1.76959 0
M  V30 12966 O 1249.83 1.5861 -1.14977 0
M  V30 12967 H 1248.41 -0.237427 -0.708264 0
M  V30 12968 H 1251.08 -1.24579 -1.49887 0
M  V30 12969 H 1250.17 -0.902772 -2.98758 0
M  V30 12970 N 1250.47 1.3842 -0.753509 0
M  V30 12971 C 1251.71 2.01965 -0.314558 0
M  V30 12972 C 1252.08 1.58519 1.08331 0
M  V30 12973 O 1253.28 2.14395 1.62137 0
M  V30 12974 C 1251.55 3.54765 -0.433199 0
M  V30 12975 S 1253.11 4.38733 -0.0768176 0
M  V30 12976 H 1249.93 0.700447 -0.122045 0
M  V30 12977 H 1252.53 1.68925 -0.98411 0
M  V30 12978 H 1251.23 3.83874 -1.45152 0
M  V30 12979 H 1250.76 3.92582 0.253539 0
M  V30 12980 H 1252.78 4.83077 1.13361 0
M  V30 12981 N 1251.95 0.502579 1.49372 0
M  V30 12982 C 1253.18 -0.0403087 2.07361 0
M  V30 12983 C 1253.6 -1.29918 1.36026 0
M  V30 12984 O 1252.96 -1.76428 0.417488 0
M  V30 12985 C 1253.01 -0.275362 3.59547 0
M  V30 12986 O 1252.11 -1.34975 3.89686 0
M  V30 12987 H 1251.45 0.0269268 0.663454 0
M  V30 12988 H 1253.98 0.702652 1.92156 0
M  V30 12989 H 1253.99 -0.506392 4.04845 0
M  V30 12990 H 1252.67 0.644382 4.10878 0
M  V30 12991 H 1251.24 -1.10355 3.56197 0
M  V30 12992 N 1253.43 -1.55816 0.23648 0
M  V30 12993 C 1254.65 -2.03534 -0.398575 0
M  V30 12994 C 1255.08 -1.11488 -1.51499 0
M  V30 12995 O 1254.44 -0.105848 -1.80991 0
M  V30 12996 C 1254.48 -3.49356 -0.893467 0
M  V30 12997 O 1253.59 -3.60446 -2.00381 0
M  V30 12998 H 1252.93 -0.658102 -0.0883021 0
M  V30 12999 H 1255.46 -2.01417 0.359488 0
M  V30 13000 H 1255.47 -3.89972 -1.19941 0
M  V30 13001 H 1254.14 -4.1583 -0.0764388 0
M  V30 13002 H 1252.72 -3.31723 -1.70336 0
M  V30 13003 N 1254.91 0.036755 -1.57557 0
M  V30 13004 C 1256.16 0.728107 -1.881 0
M  V30 13005 C 1256.47 1.7693 -0.833974 0
M  V30 13006 O 1257.67 2.5127 -1.02837 0
M  V30 13007 C 1256.13 1.34604 -3.33781 0
M  V30 13008 C 1255.74 0.341599 -4.46696 0
M  V30 13009 C 1257.48 2.01772 -3.73481 0
M  V30 13010 C 1255.39 0.967444 -5.83433 0
M  V30 13011 H 1254.32 0.275695 -0.701789 0
M  V30 13012 H 1256.97 -0.0177555 -1.83491 0
M  V30 13013 H 1255.35 2.14135 -3.3311 0
M  V30 13014 H 1256.53 -0.426441 -4.58823 0
M  V30 13015 H 1254.84 -0.227558 -4.15778 0
M  V30 13016 H 1257.44 2.49435 -4.72955 0
M  V30 13017 H 1257.78 2.83255 -3.05077 0
M  V30 13018 H 1258.31 1.29026 -3.76294 0
M  V30 13019 H 1255.05 0.19219 -6.55218 0
M  V30 13020 H 1254.57 1.70551 -5.75041 0
M  V30 13021 H 1256.25 1.47705 -6.29914 0
M  V30 13022 N 1256.39 1.54543 0.308881 0
M  V30 13023 C 1257.62 1.77174 1.06268 0
M  V30 13024 C 1258.02 0.527461 1.81699 0
M  V30 13025 O 1257.37 -0.512027 1.7642 0
M  V30 13026 C 1257.43 2.92115 2.09545 0
M  V30 13027 C 1257.09 4.30492 1.5338 0
M  V30 13028 C 1258.09 5.1081 0.967923 0
M  V30 13029 C 1255.77 4.77074 1.5718 0
M  V30 13030 C 1257.77 6.35827 0.447517 0
M  V30 13031 C 1255.46 6.02055 1.04753 0
M  V30 13032 C 1256.45 6.81266 0.486345 0
M  V30 13033 O 1256.14 8.03894 -0.0300055 0
M  V30 13034 H 1255.87 0.594773 0.321281 0
M  V30 13035 H 1258.43 2.02289 0.356136 0
M  V30 13036 H 1256.66 2.62606 2.83857 0
M  V30 13037 H 1258.35 3.02394 2.70763 0
M  V30 13038 H 1259.11 4.7597 0.931523 0
M  V30 13039 H 1254.99 4.15453 1.998 0
M  V30 13040 H 1258.54 6.97599 0.00884212 0
M  V30 13041 H 1254.43 6.36383 1.08105 0
M  V30 13042 H 1255.2 8.18457 0.0840381 0
M  V30 13043 N 1257.86 -0.571685 1.46866 0
M  V30 13044 C 1259.11 -1.32685 1.52444 0
M  V30 13045 C 1259.43 -1.94147 0.182225 0
M  V30 13046 O 1258.7 -1.79159 -0.792385 0
M  V30 13047 H 1257.28 -0.492679 0.561495 0
M  V30 13048 H 1259.94 -0.668694 1.8307 0
M  V30 13049 H 1259.04 -2.12788 2.28315 0
M  V30 13050 N 1259.34 -1.34755 -0.817236 0
M  V30 13051 C 1260.59 -1.2718 -1.57066 0
M  V30 13052 C 1260.91 0.156531 -1.94371 0
M  V30 13053 O 1260.18 1.09049 -1.62742 0
M  V30 13054 H 1258.76 -0.467755 -0.582421 0
M  V30 13055 H 1261.42 -1.68734 -0.975438 0
M  V30 13056 H 1260.52 -1.88043 -2.49091 0
M  V30 13057 N 1260.82 1.03812 -1.18578 0
M  V30 13058 C 1261.77 2.13994 -0.911563 0
M  V30 13059 C 1262.76 1.68907 0.129131 0
M  V30 13060 O 1263.97 1.7999 -0.0192557 0
M  V30 13061 H 1260.34 0.698996 -0.277324 0
M  V30 13062 H 1262.31 2.34318 -1.84763 0
M  V30 13063 C 1261.06 3.44689 -0.456591 0
M  V30 13064 H 1260.39 3.79793 -1.2489 0
M  V30 13065 H 1261.83 4.22911 -0.303738 0
M  V30 13066 C 1260.28 3.26568 0.827961 0
M  V30 13067 O 1260.81 3.54376 1.89158 0
M  V30 13068 N 1259.02 2.79893 0.781567 0
M  V30 13069 H 1258.57 2.57462 -0.0842145 0
M  V30 13070 H 1258.53 2.68148 1.64146 0
M  V30 13071 N 1262.3 0.988223 1.22768 0
M  V30 13072 C 1263.23 0.554478 2.26821 0
M  V30 13073 C 1264.21 -0.416293 1.64927 0
M  V30 13074 O 1265.39 -0.30795 1.91743 0
M  V30 13075 C 1262.52 -0.136266 3.47033 0
M  V30 13076 C 1261.48 0.752575 4.21332 0
M  V30 13077 C 1260.8 -0.0708236 5.34653 0
M  V30 13078 C 1262.1 2.04717 4.80508 0
M  V30 13079 H 1263.8 1.42423 2.63355 0
M  V30 13080 H 1261.34 0.686267 1.26595 0
M  V30 13081 H 1263.3 -0.451068 4.18979 0
M  V30 13082 H 1262.02 -1.04053 3.09581 0
M  V30 13083 H 1260.68 1.05095 3.51213 0
M  V30 13084 H 1260.33 -0.975859 4.93443 0
M  V30 13085 H 1260.03 0.520835 5.85287 0
M  V30 13086 H 1261.55 -0.379828 6.09417 0
M  V30 13087 H 1262.97 1.79663 5.44421 0
M  V30 13088 H 1261.36 2.58726 5.41462 0
M  V30 13089 H 1262.43 2.72896 4.00819 0
M  V30 13090 N 1263.78 -1.38018 0.760839 0
M  V30 13091 C 1265.19 -1.82645 0.387022 0
M  V30 13092 C 1265.54 -1.63445 -1.08536 0
M  V30 13093 O 1264.66 -1.13958 -1.83963 0
M  V30 13094 C 1265.26 -3.3158 0.69569 0
M  V30 13095 C 1263.82 -3.74527 0.375063 0
M  V30 13096 C 1262.96 -2.60696 0.94515 0
M  V30 13097 H 1265.91 -1.26644 0.956396 0
M  V30 13098 H 1265.94 -3.80493 -0.0235511 0
M  V30 13099 H 1265.45 -3.45522 1.76737 0
M  V30 13100 H 1263.55 -3.6616 -0.689741 0
M  V30 13101 H 1263.66 -4.71029 0.875685 0
M  V30 13102 H 1262.03 -2.51997 0.370065 0
M  V30 13103 H 1262.81 -2.77434 2.02201 0
M  V30 13104 N 1265.25 -0.510493 -1.49103 0
M  V30 13105 C 1266.48 0.0293113 -2.07379 0
M  V30 13106 C 1266.9 1.29195 -1.36713 0
M  V30 13107 O 1266.26 1.76204 -0.426838 0
M  V30 13108 C 1266.31 0.25629 -3.59688 0
M  V30 13109 O 1265.41 1.32907 -3.90397 0
M  V30 13110 H 1264.75 -0.0304449 -0.663302 0
M  V30 13111 H 1267.28 -0.712832 -1.91781 0
M  V30 13112 H 1267.29 0.484915 -4.05108 0
M  V30 13113 H 1265.97 -0.666163 -4.1053 0
M  V30 13114 H 1264.55 1.08464 -3.56777 0
M  V30 13115 N 1266.73 1.55688 -0.24474 0
M  V30 13116 C 1267.96 2.0329 0.384808 0
M  V30 13117 C 1268.37 1.12405 1.51692 0
M  V30 13118 O 1267.73 0.138056 1.81977 0
M  V30 13119 C 1267.78 3.50255 0.894635 0
M  V30 13120 O 1267.5 4.37677 -0.192365 0
M  V30 13121 C 1269 4.13608 1.59509 0
M  V30 13122 H 1266.22 0.664706 0.0916908 0
M  V30 13123 H 1268.77 2.01162 -0.367973 0
M  V30 13124 H 1266.92 3.52924 1.5976 0
M  V30 13125 H 1267.34 5.2414 0.194424 0
M  V30 13126 H 1268.81 5.1814 1.90356 0
M  V30 13127 H 1269.29 3.5997 2.51631 0
M  V30 13128 H 1269.89 4.14856 0.936749 0
M  V30 13129 N 1268.21 -0.0283989 1.57574 0
M  V30 13130 C 1269.62 -0.574912 1.77628 0
M  V30 13131 C 1269.97 -1.75563 0.875903 0
M  V30 13132 O 1269.1 -2.16284 0.0709141 0
M  V30 13133 C 1269.69 -1.04972 3.22128 0
M  V30 13134 C 1268.25 -1.54175 3.43376 0
M  V30 13135 C 1267.4 -0.480127 2.73112 0
M  V30 13136 H 1270.35 0.197826 1.57462 0
M  V30 13137 H 1270.37 -1.91705 3.28678 0
M  V30 13138 H 1269.88 -0.190173 3.87634 0
M  V30 13139 H 1267.98 -2.42313 2.83046 0
M  V30 13140 H 1268.1 -1.58879 4.51989 0
M  V30 13141 H 1266.46 -0.935314 2.36905 0
M  V30 13142 H 1267.24 0.369973 3.41301 0
M  V30 13143 N 1269.69 -1.54705 -0.300681 0
M  V30 13144 C 1270.92 -1.77735 -1.05327 0
M  V30 13145 C 1271.33 -0.53709 -1.81417 0
M  V30 13146 O 1270.67 0.502663 -1.76689 0
M  V30 13147 C 1270.73 -2.93222 -2.07993 0
M  V30 13148 C 1270.39 -4.313 -1.51095 0
M  V30 13149 C 1271.39 -5.11317 -0.94082 0
M  V30 13150 C 1269.08 -4.77901 -1.54648 0
M  V30 13151 C 1271.07 -6.36055 -0.413791 0
M  V30 13152 C 1268.76 -6.02602 -1.01558 0
M  V30 13153 C 1269.76 -6.81515 -0.450209 0
M  V30 13154 O 1269.44 -8.03867 0.0726375 0
M  V30 13155 H 1269.18 -0.596468 -0.318122 0
M  V30 13156 H 1271.73 -2.02475 -0.345404 0
M  V30 13157 H 1269.96 -2.64108 -2.82461 0
M  V30 13158 H 1271.65 -3.03826 -2.69156 0
M  V30 13159 H 1272.41 -4.76458 -0.906268 0
M  V30 13160 H 1268.29 -4.16507 -1.97594 0
M  V30 13161 H 1271.84 -6.97594 0.0281534 0
M  V30 13162 H 1267.73 -6.36948 -1.04728 0
M  V30 13163 H 1268.5 -8.1849 -0.0406321 0
M  V30 13164 N 1271.17 0.563888 -1.47167 0
M  V30 13165 C 1272.39 1.34693 -1.57052 0
M  V30 13166 C 1272.81 1.87534 -0.218308 0
M  V30 13167 O 1272.17 1.64639 0.787416 0
M  V30 13168 C 1272.22 2.52148 -2.59044 0
M  V30 13169 O 1271.94 2.01492 -3.89015 0
M  V30 13170 C 1273.44 3.4445 -2.7905 0
M  V30 13171 H 1270.66 0.410822 -0.530534 0
M  V30 13172 H 1273.2 0.683731 -1.92731 0
M  V30 13173 H 1271.36 3.14419 -2.26317 0
M  V30 13174 H 1271.77 2.78122 -4.44689 0
M  V30 13175 H 1273.25 4.23297 -3.54293 0
M  V30 13176 H 1273.72 3.97575 -1.86631 0
M  V30 13177 H 1274.33 2.88 -3.12948 0
M  V30 13178 N 1272.64 1.35187 0.810078 0
M  V30 13179 C 1273.87 1.31371 1.59841 0
M  V30 13180 C 1274.29 -0.109547 1.88482 0
M  V30 13181 O 1273.64 -1.06047 1.48527 0
M  V30 13182 C 1273.7 2.11496 2.93175 0
M  V30 13183 O 1273.42 3.48273 2.65777 0
M  V30 13184 C 1274.92 2.15226 3.87547 0
M  V30 13185 H 1272.14 0.451428 0.496441 0
M  V30 13186 H 1274.68 1.7799 1.00697 0
M  V30 13187 H 1272.84 1.68486 3.48843 0
M  V30 13188 H 1273.25 3.89845 3.50886 0
M  V30 13189 H 1274.72 2.75687 4.78226 0
M  V30 13190 H 1275.2 1.15007 4.23875 0
M  V30 13191 H 1275.81 2.58382 3.37815 0
M  V30 13192 N 1274.12 -1.03182 1.19127 0
M  V30 13193 C 1275.4 -1.73586 0.901507 0
M  V30 13194 C 1275.78 -2.02585 -0.593521 0
M  V30 13195 O 1275.13 -1.67813 -1.55084 0
M  V30 13196 C 1275.34 -3.01472 1.75829 0
M  V30 13197 C 1276.69 -3.75037 1.99078 0
M  V30 13198 O 1277.71 -3.11392 1.72956 0
M  V30 13199 O 1276.57 -4.8945 2.43108 0
M  V30 13200 H 1273.66 -0.755797 0.335708 0
M  V30 13201 H 1276.21 -1.09167 1.29925 0
M  V30 13202 H 1274.98 -2.76247 2.77134 0
M  V30 13203 H 1274.6 -3.73631 1.35963 0
M  V30 13204 N 1275.6 -0.99472 -1.22242 0
M  V30 13205 C 1276.56 -0.551619 -2.22463 0
M  V30 13206 C 1277.56 0.366498 -1.56568 0
M  V30 13207 O 1278.75 0.158204 -1.7348 0
M  V30 13208 C 1275.89 0.197416 -3.40328 0
M  V30 13209 H 1277.08 -1.43795 -2.63179 0
M  V30 13210 H 1274.63 -0.782121 -1.35324 0
M  V30 13211 H 1275.37 1.09965 -3.05087 0
M  V30 13212 H 1275.15 -0.461829 -3.89371 0
M  V30 13213 H 1276.64 0.495534 -4.1465 0
M  V30 13214 N 1277.08 1.37613 -0.768148 0
M  V30 13215 C 1278.03 2.3218 -0.13974 0
M  V30 13216 C 1279.02 1.54754 0.689023 0
M  V30 13217 O 1280.23 1.70177 0.586489 0
M  V30 13218 H 1276.6 0.751536 -0.0264001 0
M  V30 13219 H 1278.57 2.82768 -0.953139 0
M  V30 13220 C 1277.32 3.39997 0.727829 0
M  V30 13221 H 1276.64 3.99676 0.0994851 0
M  V30 13222 H 1278.08 4.08538 1.13456 0
M  V30 13223 C 1276.54 2.79778 1.87686 0
M  V30 13224 O 1277.07 2.70241 2.97208 0
M  V30 13225 N 1275.28 2.37373 1.67637 0
M  V30 13226 H 1274.83 2.4533 0.785552 0
M  V30 13227 H 1274.78 1.97426 2.44684 0
M  V30 13228 N 1278.56 0.518393 1.4883 0
M  V30 13229 C 1279.8 -0.019866 2.0209 0
M  V30 13230 C 1280.13 -1.35863 1.3988 0
M  V30 13231 O 1279.4 -1.87722 0.560117 0
M  V30 13232 H 1277.98 -0.0103306 0.746929 0
M  V30 13233 H 1280.64 0.679591 1.82668 0
M  V30 13234 H 1279.73 -0.136749 3.118 0
M  V30 13235 N 1280.03 -1.55556 0.252993 0
M  V30 13236 C 1281.45 -1.59276 -0.101714 0
M  V30 13237 C 1281.65 -1.27018 -1.56424 0
M  V30 13238 O 1280.71 -1.02042 -2.30963 0
M  V30 13239 C 1282.02 -2.99634 0.252969 0
M  V30 13240 C 1283.57 -3.12375 0.197767 0
M  V30 13241 C 1284.04 -4.54963 0.52657 0
M  V30 13242 N 1285.53 -4.60734 0.477296 0
M  V30 13243 C 1286.27 -5.69052 0.704793 0
M  V30 13244 N 1285.76 -6.85607 0.99574 0
M  V30 13245 N 1287.56 -5.58501 0.635086 0
M  V30 13246 H 1279.71 -1.74793 1.2067 0
M  V30 13247 H 1281.97 -0.813971 0.485958 0
M  V30 13248 H 1281.68 -3.27998 1.26926 0
M  V30 13249 H 1281.55 -3.74888 -0.416984 0
M  V30 13250 H 1283.94 -2.83788 -0.809209 0
M  V30 13251 H 1284.02 -2.39382 0.901659 0
M  V30 13252 H 1283.66 -4.84271 1.53113 0
M  V30 13253 H 1283.59 -5.26224 -0.198869 0
M  V30 13254 H 1286.08 -3.76995 0.261398 0
M  V30 13255 H 1286.4 -7.64096 1.15659 0
M  V30 13256 H 1284.74 -6.87276 1.03328 0
M  V30 13257 H 1287.93 -4.6632 0.407789 0
M  V30 13258 H 1288.11 -6.42845 0.815777 0
M  V30 13259 N 1281.51 0.0200419 -1.57587 0
M  V30 13260 C 1282.76 0.707627 -1.89307 0
M  V30 13261 C 1283.08 1.7541 -0.851831 0
M  V30 13262 O 1282.35 1.95571 0.113404 0
M  V30 13263 H 1280.93 0.264349 -0.698662 0
M  V30 13264 H 1283.59 -0.0161428 -1.94893 0
M  V30 13265 H 1282.69 1.19152 -2.8846 0
M  V30 13266 N 1282.99 1.54862 0.292472 0
M  V30 13267 C 1284.4 1.65459 0.864891 0
M  V30 13268 C 1284.75 0.568808 1.87774 0
M  V30 13269 O 1283.88 -0.293107 2.14406 0
M  V30 13270 C 1284.47 2.99939 1.5755 0
M  V30 13271 C 1283.03 3.12628 2.09621 0
M  V30 13272 C 1282.18 2.61179 0.931713 0
M  V30 13273 H 1285.13 1.58549 0.0692679 0
M  V30 13274 H 1285.15 2.91839 2.44152 0
M  V30 13275 H 1284.66 3.78943 0.838088 0
M  V30 13276 H 1282.76 2.3836 2.86383 0
M  V30 13277 H 1282.88 4.18911 2.32488 0
M  V30 13278 H 1281.24 2.17846 1.31967 0
M  V30 13279 H 1282.02 3.42669 0.208121 0
M  V30 13280 N 1284.47 -0.556076 1.47464 0
M  V30 13281 C 1285.43 -1.64515 1.59586 0
M  V30 13282 C 1286.43 -1.53751 0.470881 0
M  V30 13283 O 1287.62 -1.57889 0.735979 0
M  V30 13284 C 1284.75 -3.0406 1.54143 0
M  V30 13285 H 1285.95 -1.55116 2.56669 0
M  V30 13286 H 1283.5 -0.776087 1.35671 0
M  V30 13287 H 1284.23 -3.18991 0.584395 0
M  V30 13288 H 1284.02 -3.13282 2.3579 0
M  V30 13289 H 1285.51 -3.8329 1.65766 0
M  V30 13290 N 1285.95 -1.35615 -0.802897 0
M  V30 13291 C 1287.19 -1.30293 -1.5619 0
M  V30 13292 C 1287.55 0.120656 -1.92021 0
M  V30 13293 O 1286.84 1.07195 -1.58807 0
M  V30 13294 C 1287.04 -2.14653 -2.8576 0
M  V30 13295 C 1286.86 -3.65072 -2.62589 0
M  V30 13296 C 1285.63 -4.34294 -2.58295 0
M  V30 13297 C 1287.83 -4.58639 -2.32712 0
M  V30 13298 N 1285.81 -5.70437 -2.2688 0
M  V30 13299 C 1287.19 -5.82931 -2.11168 0
M  V30 13300 C 1289.24 -4.47343 -2.18606 0
M  V30 13301 C 1287.94 -6.97196 -1.76946 0
M  V30 13302 C 1289.97 -5.61462 -1.85781 0
M  V30 13303 C 1289.33 -6.84784 -1.65075 0
M  V30 13304 H 1285.43 -0.532038 -0.573114 0
M  V30 13305 H 1288.01 -1.70533 -0.939498 0
M  V30 13306 H 1286.19 -1.76679 -3.45889 0
M  V30 13307 H 1287.92 -2.00823 -3.51358 0
M  V30 13308 H 1284.67 -3.86947 -2.73073 0
M  V30 13309 H 1285.1 -6.42302 -2.13956 0
M  V30 13310 H 1289.74 -3.52599 -2.33311 0
M  V30 13311 H 1287.46 -7.91904 -1.60979 0
M  V30 13312 H 1291.04 -5.54677 -1.7557 0
M  V30 13313 H 1289.92 -7.71594 -1.40046 0
M  V30 13314 N 1287.43 1.02549 -1.19673 0
M  V30 13315 C 1288.39 2.09064 -0.939407 0
M  V30 13316 C 1289.39 1.60593 0.0814837 0
M  V30 13317 O 1290.58 1.73521 -0.153626 0
M  V30 13318 C 1287.71 3.38395 -0.412513 0
M  V30 13319 H 1288.9 2.33325 -1.88413 0
M  V30 13320 H 1286.46 1.19211 -1.01086 0
M  V30 13321 H 1287.19 3.19805 0.538094 0
M  V30 13322 H 1286.98 3.74898 -1.14863 0
M  V30 13323 H 1288.47 4.16841 -0.251678 0
M  V30 13324 N 1288.9 1.00119 1.21713 0
M  V30 13325 C 1289.85 0.551452 2.25969 0
M  V30 13326 C 1290.85 -0.402075 1.64559 0
M  V30 13327 O 1292.05 -0.273685 1.77907 0
M  V30 13328 H 1288.43 0.159968 0.734789 0
M  V30 13329 H 1290.4 1.44201 2.61244 0
M  V30 13330 C 1289.15 -0.109992 3.47526 0
M  V30 13331 H 1288.47 0.614686 3.95046 0
M  V30 13332 H 1289.91 -0.388007 4.22221 0
M  V30 13333 C 1288.37 -1.34798 3.08757 0
M  V30 13334 O 1288.9 -2.44266 3.189 0
M  V30 13335 N 1287.1 -1.2263 2.63458 0
M  V30 13336 H 1286.65 -0.335571 2.55405 0
M  V30 13337 H 1286.61 -2.05565 2.37887 0
M  V30 13338 N 1290.38 -1.37203 0.775435 0
M  V30 13339 C 1291.61 -2.04396 0.351737 0
M  V30 13340 C 1292.03 -1.58099 -1.01913 0
M  V30 13341 O 1291.39 -0.742932 -1.65379 0
M  V30 13342 C 1291.44 -3.58283 0.408105 0
M  V30 13343 O 1290.54 -4.08156 -0.590104 0
M  V30 13344 H 1289.88 -0.646451 0.151647 0
M  V30 13345 H 1292.41 -1.75443 1.05265 0
M  V30 13346 H 1292.42 -4.07127 0.266711 0
M  V30 13347 H 1291.1 -3.91335 1.40819 0
M  V30 13348 H 1289.67 -3.70622 -0.411524 0
M  V30 13349 N 1291.86 -0.526279 -1.48553 0
M  V30 13350 C 1292.79 0.227364 -2.3239 0
M  V30 13351 C 1293.77 0.93862 -1.41859 0
M  V30 13352 O 1294.96 0.925119 -1.70749 0
M  V30 13353 C 1292.09 1.277 -3.22971 0
M  V30 13354 C 1291.04 0.684107 -4.22497 0
M  V30 13355 C 1290.37 1.83612 -5.02186 0
M  V30 13356 C 1291.67 -0.341723 -5.21181 0
M  V30 13357 H 1293.36 -0.472486 -2.95648 0
M  V30 13358 H 1290.91 -0.228669 -1.42173 0
M  V30 13359 H 1292.86 1.81215 -3.80446 0
M  V30 13360 H 1291.58 2.00638 -2.57705 0
M  V30 13361 H 1290.24 0.170505 -3.66203 0
M  V30 13362 H 1289.89 2.55379 -4.33348 0
M  V30 13363 H 1289.59 1.44536 -5.69547 0
M  V30 13364 H 1291.11 2.37513 -5.62512 0
M  V30 13365 H 1292.53 0.106207 -5.73202 0
M  V30 13366 H 1290.92 -0.649673 -5.96573 0
M  V30 13367 H 1291.99 -1.2488 -4.68543 0
M  V30 13368 N 1293.34 1.5542 -0.261239 0
M  V30 13369 C 1294.58 1.99284 0.359487 0
M  V30 13370 C 1294.91 1.14954 1.56894 0
M  V30 13371 O 1294.17 0.203796 1.94636 0
M  V30 13372 C 1294.47 3.48354 0.799021 0
M  V30 13373 C 1294.13 4.49872 -0.30426 0
M  V30 13374 C 1292.79 4.77353 -0.607237 0
M  V30 13375 C 1295.15 5.10547 -1.04838 0
M  V30 13376 C 1292.47 5.62781 -1.65816 0
M  V30 13377 C 1294.83 5.97115 -2.08893 0
M  V30 13378 C 1293.49 6.22923 -2.3984 0
M  V30 13379 H 1292.76 0.72923 0.131546 0
M  V30 13380 H 1295.41 1.87851 -0.372058 0
M  V30 13381 H 1293.71 3.57192 1.61001 0
M  V30 13382 H 1295.41 3.7969 1.28981 0
M  V30 13383 H 1292 4.28561 -0.0579863 0
M  V30 13384 H 1296.18 4.89352 -0.827566 0
M  V30 13385 H 1291.44 5.81026 -1.90311 0
M  V30 13386 H 1295.61 6.43168 -2.67035 0
M  V30 13387 H 1293.24 6.88912 -3.2141 0
M  V30 13388 N 1294.82 -0.0116844 1.57596 0
M  V30 13389 C 1295.73 -1.02342 2.111 0
M  V30 13390 C 1296.74 -1.38478 1.05355 0
M  V30 13391 O 1297.92 -1.47447 1.37191 0
M  V30 13392 C 1294.98 -2.30016 2.5941 0
M  V30 13393 C 1294.04 -2.003 3.79708 0
M  V30 13394 C 1293.28 -3.21888 4.25704 0
M  V30 13395 O 1293.5 -4.33171 3.71106 0
M  V30 13396 O 1292.43 -3.0657 5.17975 0
M  V30 13397 H 1296.26 -0.598637 2.97742 0
M  V30 13398 H 1293.84 -0.229779 1.47622 0
M  V30 13399 H 1295.73 -3.05044 2.90733 0
M  V30 13400 H 1294.4 -2.71755 1.75871 0
M  V30 13401 H 1293.31 -1.22785 3.53376 0
M  V30 13402 H 1294.64 -1.63406 4.64284 0
M  V30 13403 N 1296.29 -1.55015 -0.284256 0
M  V30 13404 C 1297.57 -1.6579 -1.03794 0
M  V30 13405 C 1297.95 -0.517029 -2.04671 0
M  V30 13406 O 1297.3 0.484287 -2.23309 0
M  V30 13407 C 1297.51 -3.04527 -1.70483 0
M  V30 13408 C 1298.86 -3.61903 -2.22062 0
M  V30 13409 O 1299.88 -3.07087 -1.80488 0
M  V30 13410 O 1298.74 -4.57917 -2.98286 0
M  V30 13411 H 1295.83 -0.672906 -0.480757 0
M  V30 13412 H 1298.38 -1.67357 -0.281009 0
M  V30 13413 H 1297.15 -3.79004 -0.973238 0
M  V30 13414 H 1296.77 -3.0681 -2.5289 0
M  V30 13415 N 1297.77 0.548248 -1.47757 0
M  V30 13416 C 1298.72 1.67553 -1.61335 0
M  V30 13417 C 1299.71 1.62447 -0.480335 0
M  V30 13418 O 1300.92 1.67525 -0.658445 0
M  V30 13419 H 1297.29 0.55457 -0.507894 0
M  V30 13420 H 1299.27 1.53239 -2.56047 0
M  V30 13421 C 1298.01 3.05883 -1.6532 0
M  V30 13422 H 1297.34 3.10497 -2.51856 0
M  V30 13423 H 1298.78 3.84424 -1.78868 0
M  V30 13424 C 1297.24 3.34656 -0.388238 0
M  V30 13425 O 1297.77 3.9849 0.506816 0
M  V30 13426 N 1295.97 2.89384 -0.265514 0
M  V30 13427 H 1295.52 2.37615 -0.994819 0
M  V30 13428 H 1295.48 3.09006 0.579889 0
M  V30 13429 N 1299.25 1.36039 0.795694 0
M  V30 13430 C 1300.21 1.29709 1.88966 0
M  V30 13431 C 1301.21 0.206142 1.59473 0
M  V30 13432 O 1302.4 0.460534 1.68002 0
M  V30 13433 C 1299.53 1.00922 3.25619 0
M  V30 13434 H 1300.73 2.26993 1.95995 0
M  V30 13435 H 1298.28 1.2072 0.992791 0
M  V30 13436 H 1299.02 0.0407027 3.24274 0
M  V30 13437 H 1298.8 1.79863 3.48413 0
M  V30 13438 H 1300.29 0.990826 4.05675 0
M  V30 13439 N 1300.73 -1.01913 1.20215 0
M  V30 13440 C 1301.64 -2.13864 0.964328 0
M  V30 13441 C 1302.65 -1.73821 -0.0789556 0
M  V30 13442 O 1303.83 -2.01111 0.107914 0
M  V30 13443 C 1300.9 -3.42827 0.516757 0
M  V30 13444 C 1299.96 -3.97127 1.63059 0
M  V30 13445 C 1299.19 -5.19935 1.20428 0
M  V30 13446 O 1299.41 -5.70355 0.0719119 0
M  V30 13447 O 1298.35 -5.67322 2.01071 0
M  V30 13448 H 1302.17 -2.36795 1.90162 0
M  V30 13449 H 1299.76 -1.1226 0.985803 0
M  V30 13450 H 1301.64 -4.20493 0.276272 0
M  V30 13451 H 1300.31 -3.21318 -0.391983 0
M  V30 13452 H 1299.22 -3.20752 1.92533 0
M  V30 13453 H 1300.55 -4.2302 2.51624 0
M  V30 13454 N 1302.21 -1.00763 -1.2118 0
M  V30 13455 C 1303.45 -0.691826 -1.90316 0
M  V30 13456 C 1303.78 0.777678 -1.78276 0
M  V30 13457 O 1303.04 1.57962 -1.15526 0
M  V30 13458 C 1303.34 -1.06187 -3.41261 0
M  V30 13459 C 1303 -2.52608 -3.73497 0
M  V30 13460 C 1301.66 -2.92617 -3.82006 0
M  V30 13461 C 1304.02 -3.47442 -3.88502 0
M  V30 13462 C 1301.34 -4.26419 -4.02969 0
M  V30 13463 C 1303.7 -4.8092 -4.10973 0
M  V30 13464 C 1302.36 -5.20649 -4.17709 0
M  V30 13465 H 1301.63 -0.253157 -0.696414 0
M  V30 13466 H 1304.28 -1.26655 -1.43634 0
M  V30 13467 H 1302.58 -0.405428 -3.89697 0
M  V30 13468 H 1304.28 -0.795343 -3.93033 0
M  V30 13469 H 1300.87 -2.20603 -3.67468 0
M  V30 13470 H 1305.05 -3.17695 -3.81292 0
M  V30 13471 H 1300.31 -4.56767 -4.06416 0
M  V30 13472 H 1304.48 -5.54337 -4.21525 0
M  V30 13473 H 1302.11 -6.24343 -4.33705 0
M  V30 13474 N 1303.68 1.3679 -0.7827 0
M  V30 13475 C 1304.93 1.99023 -0.351316 0
M  V30 13476 C 1305.25 1.62436 1.07887 0
M  V30 13477 O 1304.52 0.895084 1.74256 0
M  V30 13478 H 1303.1 0.736141 -0.126909 0
M  V30 13479 H 1305.77 1.67095 -1.00325 0
M  V30 13480 H 1304.86 3.09015 -0.43774 0
M  V30 13481 N 1305.16 0.53415 1.48272 0
M  V30 13482 C 1306.09 -0.215037 2.32508 0
M  V30 13483 C 1307.07 -0.931083 1.42355 0
M  V30 13484 O 1308.26 -0.916051 1.71237 0
M  V30 13485 C 1305.39 -1.25985 3.23643 0
M  V30 13486 C 1304.34 -0.661692 4.22854 0
M  V30 13487 C 1303.67 -1.80946 5.03153 0
M  V30 13488 C 1304.97 0.369358 5.20992 0
M  V30 13489 H 1306.66 0.488158 2.95394 0
M  V30 13490 H 1304.21 0.236206 1.4205 0
M  V30 13491 H 1306.16 -1.79195 3.81402 0
M  V30 13492 H 1304.89 -1.99268 2.58766 0
M  V30 13493 H 1303.54 -0.151082 3.66289 0
M  V30 13494 H 1303.19 -2.53077 4.34696 0
M  V30 13495 H 1302.89 -1.41513 5.70305 0
M  V30 13496 H 1304.42 -2.34526 5.63764 0
M  V30 13497 H 1305.83 -0.0758076 5.7325 0
M  V30 13498 H 1304.23 0.681301 5.9622 0
M  V30 13499 H 1305.3 1.27363 4.67875 0
M  V30 13500 N 1306.64 -1.55279 0.269478 0
M  V30 13501 C 1307.89 -1.99077 -0.348224 0
M  V30 13502 C 1308.21 -1.15925 -1.568 0
M  V30 13503 O 1307.48 -0.247404 -1.94331 0
M  V30 13504 H 1306.06 -0.735307 -0.131653 0
M  V30 13505 H 1308.72 -1.91288 0.373506 0
M  V30 13506 H 1307.82 -3.05427 -0.641953 0
M  V30 13507 N 1308.12 0.00332656 -1.576 0
M  V30 13508 C 1309.37 0.688869 -1.90423 0
M  V30 13509 C 1309.69 1.73963 -0.869896 0
M  V30 13510 O 1308.95 1.95295 0.125777 0
M  V30 13511 C 1309.25 1.37237 -3.30001 0
M  V30 13512 C 1308.91 0.455132 -4.48597 0
M  V30 13513 C 1307.58 0.202577 -4.80773 0
M  V30 13514 C 1309.93 -0.176597 -5.20901 0
M  V30 13515 C 1307.26 -0.690055 -5.82628 0
M  V30 13516 C 1309.61 -1.05708 -6.23705 0
M  V30 13517 C 1308.27 -1.31885 -6.54341 0
M  V30 13518 H 1307.54 0.252075 -0.696806 0
M  V30 13519 H 1310.19 -0.0514867 -1.91431 0
M  V30 13520 H 1308.49 2.18669 -3.25102 0
M  V30 13521 H 1310.19 1.9088 -3.52656 0
M  V30 13522 H 1306.78 0.662142 -4.23454 0
M  V30 13523 H 1310.96 0.0055127 -4.963 0
M  V30 13524 H 1306.22 -0.900902 -6.04726 0
M  V30 13525 H 1310.39 -1.55296 -6.78864 0
M  V30 13526 H 1308.02 -2.01222 -7.33085 0
M  V30 13527 N 1309.6 1.55164 0.276031 0
M  V30 13528 C 1311.01 1.46936 0.623061 0
M  V30 13529 C 1311.21 0.680977 1.89644 0
M  V30 13530 O 1310.27 0.198618 2.51718 0
M  V30 13531 C 1311.58 2.91123 0.752839 0
M  V30 13532 C 1313.13 3.01319 0.847093 0
M  V30 13533 C 1313.6 4.46755 1.00867 0
M  V30 13534 N 1315.1 4.5057 1.07427 0
M  V30 13535 C 1315.83 5.60314 1.21804 0
M  V30 13536 N 1315.33 6.7993 1.32919 0
M  V30 13537 N 1317.12 5.4805 1.2489 0
M  V30 13538 H 1309.27 2.04877 -0.560282 0
M  V30 13539 H 1311.53 0.928925 -0.189217 0
M  V30 13540 H 1311.24 3.51521 -0.112333 0
M  V30 13541 H 1311.11 3.39967 1.63408 0
M  V30 13542 H 1313.5 2.41021 1.70274 0
M  V30 13543 H 1313.58 2.55733 -0.0586896 0
M  V30 13544 H 1313.23 5.07655 0.1577 0
M  V30 13545 H 1313.16 4.89995 1.92906 0
M  V30 13546 H 1315.65 3.64404 1.00089 0
M  V30 13547 H 1315.96 7.59319 1.43714 0
M  V30 13548 H 1314.3 6.82747 1.29929 0
M  V30 13549 H 1317.5 4.53542 1.15834 0
M  V30 13550 H 1317.67 6.33621 1.3575 0
M  V30 13551 N 1311.07 -0.540404 1.48045 0
M  V30 13552 C 1312 -1.65538 1.6468 0
M  V30 13553 C 1312.99 -1.62713 0.495847 0
M  V30 13554 O 1314.17 -1.80072 0.727172 0
M  V30 13555 C 1311.3 -3.0415 1.67661 0
M  V30 13556 C 1310.25 -3.2183 2.82152 0
M  V30 13557 C 1309.58 -4.61397 2.70216 0
M  V30 13558 C 1310.88 -3.05596 4.23567 0
M  V30 13559 H 1312.57 -1.51873 2.58021 0
M  V30 13560 H 1310.12 -0.729208 1.24171 0
M  V30 13561 H 1312.07 -3.82013 1.77887 0
M  V30 13562 H 1310.8 -3.18814 0.708907 0
M  V30 13563 H 1309.46 -2.4638 2.71463 0
M  V30 13564 H 1309.1 -4.72883 1.71437 0
M  V30 13565 H 1308.8 -4.74174 3.47035 0
M  V30 13566 H 1310.33 -5.41374 2.82395 0
M  V30 13567 H 1311.74 -3.73261 4.35143 0
M  V30 13568 H 1310.14 -3.29871 5.01303 0
M  V30 13569 H 1311.21 -2.0214 4.40758 0
M  V30 13570 N 1312.55 -1.36459 -0.788468 0
M  V30 13571 C 1313.78 -1.33898 -1.57731 0
M  V30 13572 C 1314.2 0.0795471 -1.88632 0
M  V30 13573 O 1313.55 1.03671 -1.50195 0
M  V30 13574 C 1313.6 -2.16134 -2.89773 0
M  V30 13575 O 1313.32 -3.52457 -2.60203 0
M  V30 13576 C 1314.83 -2.21364 -3.84074 0
M  V30 13577 H 1312.05 -0.459269 -0.489197 0
M  V30 13578 H 1314.59 -1.79569 -0.978526 0
M  V30 13579 H 1312.74 -1.74015 -3.46118 0
M  V30 13580 H 1313.16 -3.95378 -3.4464 0
M  V30 13581 H 1314.63 -2.83261 -4.7378 0
M  V30 13582 H 1315.11 -1.21736 -4.21992 0
M  V30 13583 H 1315.72 -2.63723 -3.33662 0
M  V30 13584 N 1314.03 1.01274 -1.20754 0
M  V30 13585 C 1315.28 1.75191 -1.02156 0
M  V30 13586 C 1315.61 1.89038 0.444791 0
M  V30 13587 O 1314.88 1.41903 1.33018 0
M  V30 13588 C 1315.17 3.16892 -1.71031 0
M  V30 13589 C 1315.02 3.10816 -3.25136 0
M  V30 13590 C 1316.34 4.15648 -1.44654 0
M  V30 13591 H 1313.46 0.635922 -0.372521 0
M  V30 13592 H 1316.1 1.18119 -1.48822 0
M  V30 13593 H 1314.25 3.6562 -1.31357 0
M  V30 13594 H 1315.92 2.69863 -3.74128 0
M  V30 13595 H 1314.17 2.48113 -3.5584 0
M  V30 13596 H 1314.84 4.11001 -3.68487 0
M  V30 13597 H 1317.31 3.75592 -1.7908 0
M  V30 13598 H 1316.19 5.12954 -1.95371 0
M  V30 13599 H 1316.45 4.40507 -0.37494 0
M  V30 13600 N 1315.51 1.01404 1.20644 0
M  V30 13601 C 1316.79 0.617088 1.85611 0
M  V30 13602 C 1317.17 -0.904947 1.9072 0
M  V30 13603 O 1316.51 -1.79562 1.41315 0
M  V30 13604 C 1316.72 1.26193 3.25386 0
M  V30 13605 C 1318.07 1.37575 4.01694 0
M  V30 13606 O 1319.1 1.21795 3.34731 0
M  V30 13607 O 1317.96 1.6305 5.2161 0
M  V30 13608 H 1315.05 0.212579 0.799211 0
M  V30 13609 H 1317.6 1.11126 1.28254 0
M  V30 13610 H 1316.37 2.30206 3.16419 0
M  V30 13611 H 1315.99 0.754679 3.90372 0
M  V30 13612 N 1316.99 -1.36373 0.789944 0
M  V30 13613 C 1317.92 -2.2873 0.146642 0
M  V30 13614 C 1318.93 -1.49503 -0.644419 0
M  V30 13615 O 1320.12 -1.71939 -0.479515 0
M  V30 13616 C 1317.22 -3.28945 -0.815369 0
M  V30 13617 C 1316.39 -4.37337 -0.0742515 0
M  V30 13618 C 1315.45 -5.17511 -0.952284 0
M  V30 13619 O 1314.48 -5.67726 -0.409336 0
M  V30 13620 N 1315.68 -5.34001 -2.27648 0
M  V30 13621 H 1318.45 -2.84578 0.939978 0
M  V30 13622 H 1316.01 -1.48545 0.643898 0
M  V30 13623 H 1318 -3.79469 -1.40661 0
M  V30 13624 H 1316.57 -2.73734 -1.50958 0
M  V30 13625 H 1315.79 -3.8797 0.698068 0
M  V30 13626 H 1317.08 -5.06919 0.437148 0
M  V30 13627 H 1316.48 -4.94819 -2.74173 0
M  V30 13628 H 1315.03 -5.87766 -2.81735 0
M  V30 13629 N 1318.47 -0.542005 -1.47987 0
M  V30 13630 C 1319.42 0.234244 -2.26794 0
M  V30 13631 C 1320.4 0.899085 -1.33436 0
M  V30 13632 O 1321.59 0.799904 -1.57894 0
M  V30 13633 C 1318.72 1.27312 -3.18821 0
M  V30 13634 C 1317.81 0.612457 -4.19654 0
M  V30 13635 N 1318.2 -0.30875 -5.04857 0
M  V30 13636 C 1316.5 0.868224 -4.37468 0
M  V30 13637 C 1317.2 -0.691052 -5.77581 0
M  V30 13638 N 1316.17 -0.0493574 -5.43578 0
M  V30 13639 H 1319.97 -0.47427 -2.90048 0
M  V30 13640 H 1317.49 -0.360868 -1.5834 0
M  V30 13641 H 1319.49 1.84305 -3.73948 0
M  V30 13642 H 1318.15 1.98288 -2.57122 0
M  V30 13643 H 1319.16 -0.682054 -5.13389 0
M  V30 13644 H 1315.83 1.56765 -3.86951 0
M  V30 13645 H 1317.22 -1.44713 -6.56131 0
M  V30 13646 N 1319.94 1.55134 -0.277709 0
M  V30 13647 C 1321.36 1.59417 0.0763615 0
M  V30 13648 C 1321.56 1.29491 1.54384 0
M  V30 13649 O 1320.62 1.05703 2.2931 0
M  V30 13650 C 1321.93 2.99194 -0.300607 0
M  V30 13651 C 1323.48 3.1202 -0.247438 0
M  V30 13652 C 1323.95 4.54068 -0.598884 0
M  V30 13653 N 1325.44 4.59917 -0.550534 0
M  V30 13654 C 1326.18 5.67859 -0.795235 0
M  V30 13655 N 1325.67 6.83936 -1.10469 0
M  V30 13656 N 1327.47 5.5742 -0.723859 0
M  V30 13657 H 1319.62 1.72851 -1.23435 0
M  V30 13658 H 1321.88 0.806137 -0.498846 0
M  V30 13659 H 1321.59 3.25937 -1.32129 0
M  V30 13660 H 1321.46 3.75504 0.35729 0
M  V30 13661 H 1323.85 2.8504 0.763959 0
M  V30 13662 H 1323.93 2.37917 -0.939629 0
M  V30 13663 H 1323.57 4.81774 -1.60798 0
M  V30 13664 H 1323.5 5.26474 0.115126 0
M  V30 13665 H 1325.99 3.76531 -0.321341 0
M  V30 13666 H 1326.31 7.62159 -1.278 0
M  V30 13667 H 1324.65 6.85545 -1.14249 0
M  V30 13668 H 1327.84 4.65613 -0.481925 0
M  V30 13669 H 1328.02 6.41465 -0.917944 0
M  V30 13670 N 1321.42 0.00503138 1.57599 0
M  V30 13671 C 1322.67 -0.679766 1.91068 0
M  V30 13672 C 1323 -1.73144 0.879486 0
M  V30 13673 O 1322.28 -1.94237 -0.101116 0
M  V30 13674 C 1322.56 -1.3183 3.35101 0
M  V30 13675 C 1322.41 -0.277833 4.48941 0
M  V30 13676 C 1323.73 -2.24308 3.78647 0
M  V30 13677 H 1320.85 -0.245646 0.694857 0
M  V30 13678 H 1323.49 0.057357 1.89913 0
M  V30 13679 H 1321.64 -1.94657 3.36216 0
M  V30 13680 H 1323.31 0.351136 4.59962 0
M  V30 13681 H 1321.56 0.399365 4.31958 0
M  V30 13682 H 1322.23 -0.763759 5.46691 0
M  V30 13683 H 1324.7 -1.71494 3.79116 0
M  V30 13684 H 1323.58 -2.6595 4.80169 0
M  V30 13685 H 1323.84 -3.12427 3.12797 0
M  V30 13686 N 1322.9 -1.55308 -0.267798 0
M  V30 13687 C 1324.32 -1.47264 -0.61526 0
M  V30 13688 C 1324.52 -0.691025 -1.8928 0
M  V30 13689 O 1323.57 -0.211964 -2.51609 0
M  V30 13690 C 1324.88 -2.91519 -0.73739 0
M  V30 13691 C 1326.43 -3.01764 -0.831102 0
M  V30 13692 C 1326.91 -4.47283 -0.984965 0
M  V30 13693 N 1328.4 -4.51134 -1.05036 0
M  V30 13694 C 1329.13 -5.60952 -1.1883 0
M  V30 13695 N 1328.63 -6.80625 -1.29311 0
M  V30 13696 N 1330.42 -5.48705 -1.21982 0
M  V30 13697 H 1322.57 -2.04577 0.57114 0
M  V30 13698 H 1324.84 -0.927908 0.194141 0
M  V30 13699 H 1324.54 -3.51456 0.130974 0
M  V30 13700 H 1324.42 -3.40829 -1.61603 0
M  V30 13701 H 1326.8 -2.4192 -1.68993 0
M  V30 13702 H 1326.88 -2.55698 0.0722509 0
M  V30 13703 H 1326.53 -5.07732 -0.130776 0
M  V30 13704 H 1326.46 -4.91011 -1.90305 0
M  V30 13705 H 1328.95 -3.6493 -0.981551 0
M  V30 13706 H 1329.26 -7.60071 -1.39685 0
M  V30 13707 H 1327.61 -6.83426 -1.26306 0
M  V30 13708 H 1330.8 -4.5415 -1.13428 0
M  V30 13709 H 1330.97 -6.34332 -1.32388 0
M  V30 13710 N 1324.38 0.532545 -1.4833 0
M  V30 13711 C 1325.62 1.29042 -1.56448 0
M  V30 13712 C 1325.96 1.92754 -0.236532 0
M  V30 13713 O 1325.23 1.79154 0.757237 0
M  V30 13714 C 1325.51 2.38173 -2.70084 0
M  V30 13715 C 1325.37 1.79169 -4.12576 0
M  V30 13716 C 1326.69 3.39957 -2.79495 0
M  V30 13717 H 1323.81 0.467816 -0.569488 0
M  V30 13718 H 1326.45 0.593517 -1.80492 0
M  V30 13719 H 1324.6 2.97616 -2.49714 0
M  V30 13720 H 1326.27 1.23797 -4.44378 0
M  V30 13721 H 1324.51 1.09716 -4.19696 0
M  V30 13722 H 1325.18 2.58174 -4.87904 0
M  V30 13723 H 1327.66 2.90466 -2.97941 0
M  V30 13724 H 1326.54 4.13714 -3.60739 0
M  V30 13725 H 1326.8 4.00347 -1.87548 0
M  V30 13726 N 1325.86 1.36875 0.78122 0
M  V30 13727 C 1326.79 1.34559 1.9083 0
M  V30 13728 C 1327.77 0.215713 1.68727 0
M  V30 13729 O 1328.95 0.41462 1.89722 0
M  V30 13730 C 1326.08 1.14233 3.27976 0
M  V30 13731 C 1325.04 2.24132 3.64621 0
M  V30 13732 C 1324.36 1.8894 5.00206 0
M  V30 13733 C 1325.66 3.66266 3.72353 0
M  V30 13734 H 1327.36 2.28871 1.93025 0
M  V30 13735 H 1324.9 1.10171 0.927275 0
M  V30 13736 H 1326.85 1.11246 4.06451 0
M  V30 13737 H 1325.58 0.163747 3.26189 0
M  V30 13738 H 1324.24 2.26259 2.88448 0
M  V30 13739 H 1323.89 0.896351 4.94949 0
M  V30 13740 H 1323.59 2.62525 5.25694 0
M  V30 13741 H 1325.11 1.87523 5.81092 0
M  V30 13742 H 1326.52 3.66321 4.41001 0
M  V30 13743 H 1324.92 4.38825 4.09332 0
M  V30 13744 H 1325.99 4.00578 2.7325 0
M  V30 13745 N 1327.33 -1.00632 1.21289 0
M  V30 13746 C 1328.75 -1.26744 0.969956 0
M  V30 13747 C 1328.95 -1.98534 -0.344449 0
M  V30 13748 O 1328.01 -2.28687 -1.07044 0
M  V30 13749 C 1329.32 -2.09238 2.15963 0
M  V30 13750 C 1330.87 -2.22469 2.20174 0
M  V30 13751 C 1331.34 -3.08344 3.38656 0
M  V30 13752 N 1332.83 -3.15932 3.38734 0
M  V30 13753 C 1333.57 -3.82632 4.2706 0
M  V30 13754 N 1333.06 -4.51371 5.25582 0
M  V30 13755 N 1334.86 -3.79259 4.14872 0
M  V30 13756 H 1327.01 -0.524626 2.05819 0
M  V30 13757 H 1329.27 -0.294231 0.901184 0
M  V30 13758 H 1328.98 -1.63835 3.11209 0
M  V30 13759 H 1328.85 -3.09987 2.14914 0
M  V30 13760 H 1331.24 -2.67091 1.25485 0
M  V30 13761 H 1331.32 -1.21194 2.25268 0
M  V30 13762 H 1330.96 -2.64425 4.33638 0
M  V30 13763 H 1330.89 -4.0973 3.30801 0
M  V30 13764 H 1333.38 -2.66998 2.67434 0
M  V30 13765 H 1333.7 -4.99966 5.89283 0
M  V30 13766 H 1332.04 -4.50162 5.29508 0
M  V30 13767 H 1335.23 -3.2471 3.37166 0
M  V30 13768 H 1335.41 -4.30963 4.83916 0
M  V30 13769 N 1328.81 -1.02043 -1.20104 0
M  V30 13770 C 1329.74 -0.614421 -2.25271 0
M  V30 13771 C 1330.72 0.37242 -1.65973 0
M  V30 13772 O 1331.91 0.257005 -1.92492 0
M  V30 13773 C 1329.04 0.0442085 -3.47272 0
M  V30 13774 C 1327.99 -0.864019 -4.19188 0
M  V30 13775 C 1327.32 -0.0709551 -5.34653 0
M  V30 13776 C 1328.62 -2.17385 -4.74912 0
M  V30 13777 H 1330.31 -1.49355 -2.59487 0
M  V30 13778 H 1327.86 -0.719591 -1.24731 0
M  V30 13779 H 1329.81 0.339825 -4.20028 0
M  V30 13780 H 1328.53 0.958082 -3.12231 0
M  V30 13781 H 1327.19 -1.1437 -3.48303 0
M  V30 13782 H 1326.84 0.844688 -4.95857 0
M  V30 13783 H 1326.54 -0.67583 -5.83701 0
M  V30 13784 H 1328.07 0.218118 -6.1021 0
M  V30 13785 H 1329.48 -1.94034 -5.39466 0
M  V30 13786 H 1327.88 -2.72991 -5.34412 0
M  V30 13787 H 1328.95 -2.83427 -3.93443 0
M  V30 13788 N 1330.29 1.35952 -0.797165 0
M  V30 13789 C 1331.22 2.32506 -0.215277 0
M  V30 13790 C 1332.2 1.57023 0.654046 0
M  V30 13791 O 1333.39 1.85139 0.586268 0
M  V30 13792 C 1330.52 3.41266 0.644557 0
M  V30 13793 C 1329.47 4.27816 -0.125501 0
M  V30 13794 C 1328.8 5.27813 0.855428 0
M  V30 13795 C 1330.1 5.05367 -1.31913 0
M  V30 13796 H 1331.79 2.8142 -1.02193 0
M  V30 13797 H 1329.34 1.35303 -0.492862 0
M  V30 13798 H 1331.29 4.07808 1.06163 0
M  V30 13799 H 1330.01 2.90938 1.484 0
M  V30 13800 H 1328.67 3.62841 -0.523639 0
M  V30 13801 H 1328.32 4.73755 1.69011 0
M  V30 13802 H 1328.02 5.86589 0.344566 0
M  V30 13803 H 1329.54 5.97227 1.2709 0
M  V30 13804 H 1330.96 5.64907 -0.977418 0
M  V30 13805 H 1329.36 5.73593 -1.76382 0
M  V30 13806 H 1330.43 4.36558 -2.11057 0
M  V30 13807 N 1331.77 0.549846 1.47697 0
M  V30 13808 C 1333.05 -0.0422793 1.95554 0
M  V30 13809 C 1333.43 -1.49303 1.49238 0
M  V30 13810 O 1332.77 -2.16598 0.727844 0
M  V30 13811 C 1332.98 0.0955552 3.48869 0
M  V30 13812 C 1334.33 -0.0535698 4.24566 0
M  V30 13813 O 1335.36 0.0227365 3.56193 0
M  V30 13814 O 1334.21 -0.21645 5.46071 0
M  V30 13815 H 1331.31 -0.0682465 0.824179 0
M  V30 13816 H 1333.85 0.615849 1.58131 0
M  V30 13817 H 1332.63 1.10536 3.75363 0
M  V30 13818 H 1332.25 -0.600522 3.93039 0
M  V30 13819 N 1333.25 -1.54984 0.285932 0
M  V30 13820 C 1334.18 -2.20365 -0.630236 0
M  V30 13821 C 1335.19 -1.19168 -1.10918 0
M  V30 13822 O 1336.38 -1.45839 -1.02923 0
M  V30 13823 C 1333.48 -2.8244 -1.87299 0
M  V30 13824 C 1332.65 -4.09429 -1.53905 0
M  V30 13825 C 1331.71 -4.55449 -2.63538 0
M  V30 13826 O 1330.74 -5.20985 -2.29267 0
M  V30 13827 N 1331.94 -4.26498 -3.93802 0
M  V30 13828 H 1334.71 -2.99617 -0.0706044 0
M  V30 13829 H 1332.27 -1.61543 0.107486 0
M  V30 13830 H 1334.26 -3.10167 -2.59959 0
M  V30 13831 H 1332.83 -2.07117 -2.34139 0
M  V30 13832 H 1332.05 -3.88875 -0.645774 0
M  V30 13833 H 1333.34 -4.92146 -1.29111 0
M  V30 13834 H 1332.73 -3.73964 -4.24461 0
M  V30 13835 H 1331.29 -4.5897 -4.62807 0
M  V30 13836 N 1334.72 -0.0133892 -1.57594 0
M  V30 13837 C 1335.97 0.668634 -1.91143 0
M  V30 13838 C 1336.3 1.7303 -0.888299 0
M  V30 13839 O 1335.55 1.95418 0.105056 0
M  V30 13840 C 1335.85 1.33729 -3.31438 0
M  V30 13841 C 1335.52 0.407527 -4.49055 0
M  V30 13842 C 1334.18 0.151573 -4.80961 0
M  V30 13843 C 1336.53 -0.231835 -5.20684 0
M  V30 13844 C 1333.86 -0.751812 -5.81863 0
M  V30 13845 C 1336.21 -1.12318 -6.22549 0
M  V30 13846 C 1334.88 -1.38818 -6.52906 0
M  V30 13847 H 1334.15 0.24467 -0.699441 0
M  V30 13848 H 1336.79 -0.0717876 -1.91365 0
M  V30 13849 H 1335.1 2.15209 -3.27403 0
M  V30 13850 H 1336.8 1.87128 -3.5466 0
M  V30 13851 H 1333.39 0.617192 -4.24133 0
M  V30 13852 H 1337.57 -0.0471268 -4.96278 0
M  V30 13853 H 1332.83 -0.964991 -6.03737 0
M  V30 13854 H 1337 -1.62488 -6.77179 0
M  V30 13855 H 1334.63 -2.08986 -7.3091 0
M  V30 13856 N 1336.2 1.55448 0.259558 0
M  V30 13857 C 1337.17 1.88459 1.30445 0
M  V30 13858 C 1338.17 0.760096 1.41701 0
M  V30 13859 O 1339.36 1.02819 1.4062 0
M  V30 13860 C 1336.49 2.10181 2.68397 0
M  V30 13861 H 1337.68 2.81877 1.02398 0
M  V30 13862 H 1335.23 1.48145 0.498262 0
M  V30 13863 H 1335.97 1.19189 3.01603 0
M  V30 13864 H 1335.75 2.92066 2.6161 0
M  V30 13865 H 1337.24 2.36947 3.43869 0
M  V30 13866 N 1337.68 -0.524672 1.4861 0
M  V30 13867 C 1338.96 -1.28592 1.47389 0
M  V30 13868 C 1339.34 -2.10257 0.188482 0
M  V30 13869 O 1338.69 -2.12905 -0.829689 0
M  V30 13870 C 1338.9 -2.16284 2.73902 0
M  V30 13871 C 1340.24 -2.7625 3.22445 0
M  V30 13872 O 1341.27 -2.26567 2.74856 0
M  V30 13873 O 1340.13 -3.66635 4.05267 0
M  V30 13874 H 1337.22 -0.580666 0.58886 0
M  V30 13875 H 1339.77 -0.540888 1.60849 0
M  V30 13876 H 1338.54 -1.55757 3.58964 0
M  V30 13877 H 1338.16 -2.98024 2.63188 0
M  V30 13878 N 1339.16 -1.37287 -0.77395 0
M  V30 13879 C 1340.11 -1.32872 -1.88716 0
M  V30 13880 C 1341.08 -0.194655 -1.64955 0
M  V30 13881 O 1342.26 -0.383662 -1.86903 0
M  V30 13882 C 1339.4 -1.13934 -3.2575 0
M  V30 13883 C 1338.51 -2.36552 -3.61479 0
M  V30 13884 C 1337.65 -2.10504 -4.87711 0
M  V30 13885 C 1336.69 -3.28999 -5.16165 0
M  V30 13886 N 1335.82 -3.02517 -6.33584 0
M  V30 13887 H 1340.66 -2.28051 -1.91825 0
M  V30 13888 H 1338.2 -1.13325 -0.93786 0
M  V30 13889 H 1340.16 -1.00976 -4.04796 0
M  V30 13890 H 1338.79 -0.22404 -3.22022 0
M  V30 13891 H 1337.84 -2.60257 -2.77435 0
M  V30 13892 H 1339.15 -3.24931 -3.78446 0
M  V30 13893 H 1338.31 -1.94564 -5.74656 0
M  V30 13894 H 1337.05 -1.19459 -4.72843 0
M  V30 13895 H 1336.05 -3.4548 -4.27696 0
M  V30 13896 H 1337.28 -4.20892 -5.32942 0
M  V30 13897 H 1335.22 -2.14099 -6.20079 0
M  V30 13898 H 1335.14 -3.84439 -6.50955 0
M  V30 13899 H 1336.41 -2.9019 -7.23471 0
M  V30 13900 N 1340.64 0.999871 -1.21821 0
M  V30 13901 C 1341.89 1.73257 -1.03271 0
M  V30 13902 C 1342.2 1.90736 0.433502 0
M  V30 13903 O 1343.4 2.61263 0.738511 0
M  V30 13904 C 1341.86 3.11697 -1.79925 0
M  V30 13905 C 1341.47 3.02173 -3.3075 0
M  V30 13906 C 1343.21 3.89061 -1.698 0
M  V30 13907 C 1341.12 4.35725 -3.99872 0
M  V30 13908 H 1340.05 0.649595 -0.382809 0
M  V30 13909 H 1342.7 1.11676 -1.45605 0
M  V30 13910 H 1341.08 3.73919 -1.30386 0
M  V30 13911 H 1342.26 2.49158 -3.8763 0
M  V30 13912 H 1340.57 2.38296 -3.41473 0
M  V30 13913 H 1343.17 4.87897 -2.1877 0
M  V30 13914 H 1343.51 4.11081 -0.657148 0
M  V30 13915 H 1344.04 3.33502 -2.16844 0
M  V30 13916 H 1340.78 4.18906 -5.04181 0
M  V30 13917 H 1340.3 4.8868 -3.47781 0
M  V30 13918 H 1341.98 5.04503 -4.05075 0
M  V30 13919 N 1342.11 1.02678 1.19562 0
M  V30 13920 C 1343.53 0.752027 1.70884 0
M  V30 13921 C 1343.88 -0.728523 1.82173 0
M  V30 13922 O 1343 -1.56799 1.49141 0
M  V30 13923 C 1343.6 1.35848 3.10372 0
M  V30 13924 C 1342.16 1.13236 3.58963 0
M  V30 13925 C 1341.3 1.45785 2.35886 0
M  V30 13926 H 1344.25 1.19497 1.04432 0
M  V30 13927 H 1344.27 0.754347 3.72948 0
M  V30 13928 H 1343.79 2.43604 3.02124 0
M  V30 13929 H 1341.89 0.0729271 3.72529 0
M  V30 13930 H 1342 1.81959 4.43202 0
M  V30 13931 H 1340.36 0.877125 2.3912 0
M  V30 13932 H 1341.15 2.54619 2.30269 0
M  V30 13933 N 1343.59 -1.35528 0.804364 0
M  V30 13934 C 1344.56 -2.28153 0.21885 0
M  V30 13935 C 1345.56 -1.49486 -0.592511 0
M  V30 13936 O 1346.75 -1.69274 -0.411319 0
M  V30 13937 C 1343.88 -3.33736 -0.695195 0
M  V30 13938 H 1345.07 -2.81446 1.03576 0
M  V30 13939 H 1342.62 -1.45345 0.574854 0
M  V30 13940 H 1343.36 -2.85625 -1.53587 0
M  V30 13941 H 1343.14 -3.91931 -0.115143 0
M  V30 13942 H 1344.63 -4.02872 -1.09925 0
M  V30 13943 N 1345.07 -0.557671 -1.47404 0
M  V30 13944 C 1345.98 0.19289 -2.33806 0
M  V30 13945 C 1347 0.911424 -1.4822 0
M  V30 13946 O 1348.17 0.880214 -1.81147 0
M  V30 13947 C 1345.24 1.20937 -3.24923 0
M  V30 13948 C 1344.3 0.498209 -4.26399 0
M  V30 13949 C 1343.53 1.46626 -5.13163 0
M  V30 13950 O 1343.76 2.70111 -5.0239 0
M  V30 13951 O 1342.69 0.990497 -5.93694 0
M  V30 13952 H 1346.52 -0.515861 -2.99287 0
M  V30 13953 H 1344.1 -0.318283 -1.4597 0
M  V30 13954 H 1345.98 1.7961 -3.81206 0
M  V30 13955 H 1344.66 1.90003 -2.6207 0
M  V30 13956 H 1343.56 -0.129736 -3.73875 0
M  V30 13957 H 1344.9 -0.151015 -4.91968 0
M  V30 13958 N 1346.55 1.54831 -0.294147 0
M  V30 13959 C 1347.48 2.26226 0.57827 0
M  V30 13960 C 1348.46 1.25928 1.14351 0
M  V30 13961 O 1349.65 1.54687 1.17412 0
M  V30 13962 C 1346.78 2.99783 1.75349 0
M  V30 13963 C 1345.73 4.07171 1.31892 0
M  V30 13964 C 1345.06 4.68406 2.57876 0
M  V30 13965 C 1346.36 5.20313 0.455167 0
M  V30 13966 H 1348.05 2.99395 -0.0171936 0
M  V30 13967 H 1345.6 1.43997 -0.00970944 0
M  V30 13968 H 1347.55 3.48448 2.36986 0
M  V30 13969 H 1346.27 2.24181 2.37509 0
M  V30 13970 H 1344.93 3.59346 0.725653 0
M  V30 13971 H 1344.58 3.89451 3.18335 0
M  V30 13972 H 1344.28 5.40927 2.29502 0
M  V30 13973 H 1345.8 5.1983 3.20327 0
M  V30 13974 H 1347.22 5.64913 0.977026 0
M  V30 13975 H 1345.61 5.99512 0.265501 0
M  V30 13976 H 1346.68 4.82088 -0.521434 0
M  V30 13977 N 1348.03 0.0217466 1.57585 0
M  V30 13978 C 1348.96 -0.961069 2.12804 0
M  V30 13979 C 1349.94 -1.3442 1.04237 0
M  V30 13980 O 1351.12 -1.42412 1.32032 0
M  V30 13981 C 1348.25 -2.24586 2.64912 0
M  V30 13982 C 1347.21 -2.0037 3.78201 0
M  V30 13983 C 1346.53 -3.35051 4.16708 0
M  V30 13984 C 1347.83 -1.34879 5.04584 0
M  V30 13985 H 1349.53 -0.501222 2.95175 0
M  V30 13986 H 1347.07 -0.239649 1.41992 0
M  V30 13987 H 1349.03 -2.93715 3.02175 0
M  V30 13988 H 1347.75 -2.72723 1.79693 0
M  V30 13989 H 1346.41 -1.33662 3.41365 0
M  V30 13990 H 1346.06 -3.80932 3.28481 0
M  V30 13991 H 1345.76 -3.19656 4.93045 0
M  V30 13992 H 1347.28 -4.05459 4.56547 0
M  V30 13993 H 1348.7 -1.93997 5.3948 0
M  V30 13994 H 1347.09 -1.29906 5.85871 0
M  V30 13995 H 1348.16 -0.320774 4.83838 0
M  V30 13996 N 1349.51 -1.55583 -0.251311 0
M  V30 13997 C 1350.73 -1.81259 -0.997636 0
M  V30 13998 C 1351.15 -0.596861 -1.79117 0
M  V30 13999 O 1350.51 0.434425 -1.77254 0
M  V30 14000 C 1350.56 -3.05097 -1.93902 0
M  V30 14001 O 1350.28 -4.21976 -1.1776 0
M  V30 14002 C 1351.78 -3.4354 -2.8017 0
M  V30 14003 H 1349 -0.603279 -0.29376 0
M  V30 14004 H 1351.54 -2.02635 -0.27553 0
M  V30 14005 H 1349.7 -2.85784 -2.61546 0
M  V30 14006 H 1350.11 -4.92133 -1.81398 0
M  V30 14007 H 1351.59 -4.33305 -3.41981 0
M  V30 14008 H 1352.06 -2.63924 -3.51057 0
M  V30 14009 H 1352.67 -3.65189 -2.17985 0
M  V30 14010 N 1350.98 0.516783 -1.48886 0
M  V30 14011 C 1351.95 1.60226 -1.63891 0
M  V30 14012 C 1352.95 1.52448 -0.511479 0
M  V30 14013 O 1354.14 1.55882 -0.777582 0
M  V30 14014 C 1351.27 2.99867 -1.62151 0
M  V30 14015 H 1352.46 1.48256 -2.60692 0
M  V30 14016 H 1350.01 0.739844 -1.37681 0
M  V30 14017 H 1350.75 3.1733 -0.668764 0
M  V30 14018 H 1350.53 3.0692 -2.44013 0
M  V30 14019 H 1352.02 3.7876 -1.7587 0
M  V30 14020 N 1352.46 1.37696 0.766659 0
M  V30 14021 C 1353.39 1.36576 1.89392 0
M  V30 14022 C 1354.37 0.233597 1.68488 0
M  V30 14023 O 1355.56 0.434719 1.89272 0
M  V30 14024 C 1352.69 1.17705 3.26746 0
M  V30 14025 C 1351.64 2.27987 3.62224 0
M  V30 14026 C 1350.97 1.94235 4.98174 0
M  V30 14027 C 1352.27 3.70195 3.68447 0
M  V30 14028 H 1353.96 2.30905 1.90587 0
M  V30 14029 H 1351.51 1.11148 0.915538 0
M  V30 14030 H 1353.46 1.15551 4.05248 0
M  V30 14031 H 1352.18 0.198334 3.25997 0
M  V30 14032 H 1350.84 2.29306 2.86032 0
M  V30 14033 H 1350.49 0.948796 4.93971 0
M  V30 14034 H 1350.19 2.68086 5.2288 0
M  V30 14035 H 1351.72 1.93676 5.7907 0
M  V30 14036 H 1353.13 3.70978 4.37091 0
M  V30 14037 H 1351.53 4.43142 4.04654 0
M  V30 14038 H 1352.6 4.03453 2.68986 0
M  V30 14039 N 1353.94 -0.993397 1.22349 0
M  V30 14040 C 1354.89 -2.0834 0.993123 0
M  V30 14041 C 1355.86 -1.65883 -0.0849717 0
M  V30 14042 O 1357.04 -1.90691 0.0645176 0
M  V30 14043 C 1354.18 -3.40252 0.576434 0
M  V30 14044 C 1353.29 -3.96055 1.72524 0
M  V30 14045 C 1352.43 -5.16123 1.25659 0
M  V30 14046 C 1351.47 -5.64062 2.37698 0
M  V30 14047 N 1350.61 -6.7537 1.91883 0
M  V30 14048 H 1355.45 -2.27381 1.92619 0
M  V30 14049 H 1352.98 -1.11476 0.959763 0
M  V30 14050 H 1354.94 -4.16001 0.316021 0
M  V30 14051 H 1353.57 -3.21214 -0.319626 0
M  V30 14052 H 1352.62 -3.17182 2.1 0
M  V30 14053 H 1353.93 -4.27614 2.56802 0
M  V30 14054 H 1353.09 -5.9916 0.953528 0
M  V30 14055 H 1351.83 -4.86186 0.384011 0
M  V30 14056 H 1350.83 -4.79614 2.68794 0
M  V30 14057 H 1352.06 -5.96025 3.25471 0
M  V30 14058 H 1350 -6.47217 1.06986 0
M  V30 14059 H 1349.92 -7.06246 2.69727 0
M  V30 14060 H 1351.19 -7.61914 1.64644 0
M  V30 14061 N 1355.42 -1.03311 -1.19015 0
M  V30 14062 C 1356.64 -0.751686 -1.93299 0
M  V30 14063 C 1357.07 0.68392 -1.75226 0
M  V30 14064 O 1356.43 1.47274 -1.05736 0
M  V30 14065 C 1356.47 -1.11335 -3.42982 0
M  V30 14066 O 1355.58 -0.234434 -4.11733 0
M  V30 14067 H 1354.92 -0.277331 -0.60331 0
M  V30 14068 H 1357.45 -1.38092 -1.5097 0
M  V30 14069 H 1357.46 -1.07204 -3.93664 0
M  V30 14070 H 1356.13 -2.15922 -3.55458 0
M  V30 14071 H 1354.71 -0.3347 -3.71395 0
M  V30 14072 N 1356.9 1.35099 -0.81154 0
M  V30 14073 C 1358.17 1.93009 -0.317289 0
M  V30 14074 C 1358.55 1.74101 1.19382 0
M  V30 14075 O 1357.9 1.11295 1.99564 0
M  V30 14076 C 1358.11 3.41191 -0.734123 0
M  V30 14077 C 1359.46 4.1834 -0.726437 0
M  V30 14078 O 1360.48 3.49727 -0.67598 0
M  V30 14079 O 1359.34 5.4077 -0.789291 0
M  V30 14080 H 1356.44 0.822707 -0.084153 0
M  V30 14081 H 1358.98 1.44145 -0.895569 0
M  V30 14082 H 1357.75 3.48705 -1.7754 0
M  V30 14083 H 1357.38 3.97384 -0.130919 0
M  V30 14084 N 1358.37 0.56548 1.47106 0
M  V30 14085 C 1359.34 -0.167191 2.28589 0
M  V30 14086 C 1360.34 -0.835005 1.3742 0
M  V30 14087 O 1361.53 -0.689598 1.59969 0
M  V30 14088 C 1358.66 -1.24548 3.17333 0
M  V30 14089 H 1359.85 0.548677 2.94838 0
M  V30 14090 H 1357.4 0.322749 1.52931 0
M  V30 14091 H 1358.14 -1.99348 2.55794 0
M  V30 14092 H 1357.92 -0.771335 3.84438 0
M  V30 14093 H 1359.41 -1.75985 3.78707 0
M  V30 14094 N 1359.85 -1.54672 0.302354 0
M  V30 14095 C 1361.08 -2.04578 -0.309093 0
M  V30 14096 C 1361.5 -1.17957 -1.47416 0
M  V30 14097 O 1360.85 -0.2055 -1.81339 0
M  V30 14098 C 1360.9 -3.53334 -0.764023 0
M  V30 14099 O 1360.62 -4.36662 0.354674 0
M  V30 14100 C 1362.13 -4.19243 -1.44048 0
M  V30 14101 H 1359.35 -0.667651 -0.0669575 0
M  V30 14102 H 1361.89 -1.99658 0.442379 0
M  V30 14103 H 1360.04 -3.5861 -1.46552 0
M  V30 14104 H 1360.46 -5.245 0.000241188 0
M  V30 14105 H 1361.93 -5.24847 -1.70995 0
M  V30 14106 H 1362.41 -3.69061 -2.38098 0
M  V30 14107 H 1363.02 -4.18046 -0.782132 0
M  V30 14108 N 1361.33 -0.0301034 -1.57571 0
M  V30 14109 C 1362.74 0.508591 -1.79639 0
M  V30 14110 C 1363.09 1.72191 -0.940458 0
M  V30 14111 O 1362.22 2.15872 -0.151138 0
M  V30 14112 C 1362.81 0.929446 -3.25802 0
M  V30 14113 C 1361.37 1.41325 -3.48861 0
M  V30 14114 C 1360.52 0.378433 -2.74706 0
M  V30 14115 H 1363.47 -0.256131 -1.56619 0
M  V30 14116 H 1363.49 1.79374 -3.35567 0
M  V30 14117 H 1363 0.0461738 -3.88073 0
M  V30 14118 H 1361.1 2.31641 -2.91844 0
M  V30 14119 H 1361.22 1.41995 -4.57574 0
M  V30 14120 H 1359.58 0.846744 -2.40213 0
M  V30 14121 H 1360.36 -0.49639 -3.39692 0
M  V30 14122 N 1362.81 1.55714 0.243056 0
M  V30 14123 C 1363.72 1.93777 1.32241 0
M  V30 14124 C 1364.73 0.838709 1.52452 0
M  V30 14125 O 1365.91 1.14044 1.66 0
M  V30 14126 C 1362.98 2.22808 2.65627 0
M  V30 14127 C 1362.04 3.46166 2.53904 0
M  V30 14128 C 1361.27 3.73802 3.8093 0
M  V30 14129 O 1361.49 3.0345 4.82985 0
M  V30 14130 O 1360.43 4.67323 3.79332 0
M  V30 14131 H 1364.25 2.85718 1.02951 0
M  V30 14132 H 1361.84 1.42646 0.444135 0
M  V30 14133 H 1363.72 2.4277 3.44442 0
M  V30 14134 H 1362.39 1.34045 2.94642 0
M  V30 14135 H 1361.3 3.31506 1.73362 0
M  V30 14136 H 1362.63 4.35244 2.29834 0
M  V30 14137 N 1364.29 -0.50888 1.49158 0
M  V30 14138 C 1365.53 -1.26537 1.58481 0
M  V30 14139 C 1365.87 -1.92353 0.267168 0
M  V30 14140 O 1365.14 -1.80336 -0.728639 0
M  V30 14141 C 1365.42 -2.33846 2.73839 0
M  V30 14142 C 1365.28 -1.72582 4.15374 0
M  V30 14143 C 1366.6 -3.35467 2.84868 0
M  V30 14144 H 1363.71 -0.458697 0.576859 0
M  V30 14145 H 1366.36 -0.564728 1.81413 0
M  V30 14146 H 1364.51 -2.93605 2.54417 0
M  V30 14147 H 1366.18 -1.16711 4.46292 0
M  V30 14148 H 1364.42 -1.03025 4.21389 0
M  V30 14149 H 1365.09 -2.5038 4.91949 0
M  V30 14150 H 1367.57 -2.85689 3.02524 0
M  V30 14151 H 1366.44 -4.07922 3.67275 0
M  V30 14152 H 1366.71 -3.97313 1.93894 0
M  V30 14153 N 1365.76 -1.381 -0.759346 0
M  V30 14154 C 1367.18 -1.19171 -1.06162 0
M  V30 14155 C 1367.38 -0.0364043 -2.01467 0
M  V30 14156 O 1366.44 0.619635 -2.44779 0
M  V30 14157 C 1367.75 -2.51569 -1.64723 0
M  V30 14158 C 1369.3 -2.58201 -1.76921 0
M  V30 14159 C 1369.77 -3.9076 -2.38894 0
M  V30 14160 N 1371.26 -3.92269 -2.46331 0
M  V30 14161 C 1372 -4.91595 -2.95164 0
M  V30 14162 N 1371.49 -6.01318 -3.44075 0
M  V30 14163 N 1373.29 -4.7899 -2.94152 0
M  V30 14164 H 1365.44 -2.12021 -0.126788 0
M  V30 14165 H 1367.7 -0.940517 -0.118877 0
M  V30 14166 H 1367.41 -3.36535 -1.02162 0
M  V30 14167 H 1367.28 -2.69551 -2.6386 0
M  V30 14168 H 1369.67 -1.73634 -2.38611 0
M  V30 14169 H 1369.75 -2.44092 -0.765047 0
M  V30 14170 H 1369.39 -4.75747 -1.7784 0
M  V30 14171 H 1369.32 -4.02179 -3.39941 0
M  V30 14172 H 1371.81 -3.13015 -2.11731 0
M  V30 14173 H 1372.13 -6.73046 -3.79776 0
M  V30 14174 H 1370.47 -6.04946 -3.42148 0
M  V30 14175 H 1373.66 -3.92385 -2.55248 0
M  V30 14176 H 1373.84 -5.5655 -3.31897 0
M  V30 14177 N 1367.24 0.986894 -1.22875 0
M  V30 14178 C 1368.66 1.25185 -0.989997 0
M  V30 14179 C 1368.86 1.99057 0.31282 0
M  V30 14180 O 1367.91 2.30361 1.03392 0
M  V30 14181 C 1369.23 2.05775 -2.19265 0
M  V30 14182 C 1370.78 2.18938 -2.23686 0
M  V30 14183 C 1371.25 3.02917 -3.43519 0
M  V30 14184 N 1372.74 3.10503 -3.43718 0
M  V30 14185 C 1373.48 3.75789 -4.33094 0
M  V30 14186 N 1372.97 4.42952 -5.32696 0
M  V30 14187 N 1374.77 3.72611 -4.20854 0
M  V30 14188 H 1366.92 0.491816 -2.06628 0
M  V30 14189 H 1369.18 0.279856 -0.905751 0
M  V30 14190 H 1368.89 1.58864 -3.13776 0
M  V30 14191 H 1368.76 3.06529 -2.19818 0
M  V30 14192 H 1371.15 2.65061 -1.29718 0
M  V30 14193 H 1371.23 1.17595 -2.27168 0
M  V30 14194 H 1370.87 2.57493 -4.3779 0
M  V30 14195 H 1370.8 4.04415 -3.37277 0
M  V30 14196 H 1373.29 2.62709 -2.71647 0
M  V30 14197 H 1373.61 4.90527 -5.97162 0
M  V30 14198 H 1371.95 4.41681 -5.36603 0
M  V30 14199 H 1375.14 3.19305 -3.42289 0
M  V30 14200 H 1375.31 4.2321 -4.90711 0
M  V30 14201 N 1368.72 1.0394 1.18466 0
M  V30 14202 C 1369.63 0.639714 2.2571 0
M  V30 14203 C 1370.65 -0.333431 1.70775 0
M  V30 14204 O 1371.82 -0.188676 2.00514 0
M  V30 14205 C 1368.89 0.007559 3.46699 0
M  V30 14206 C 1367.95 1.02955 4.16772 0
M  V30 14207 C 1367.18 0.427464 5.31985 0
M  V30 14208 O 1367.4 -0.766684 5.65224 0
M  V30 14209 O 1366.34 1.15553 5.90704 0
M  V30 14210 H 1370.16 1.53316 2.6216 0
M  V30 14211 H 1367.75 0.810206 1.25523 0
M  V30 14212 H 1369.63 -0.344404 4.1999 0
M  V30 14213 H 1368.31 -0.859727 3.12074 0
M  V30 14214 H 1367.21 1.43328 3.45554 0
M  V30 14215 H 1368.55 1.86756 4.55393 0
M  V30 14216 N 1370.2 -1.34667 0.818693 0
M  V30 14217 C 1371.13 -2.28368 0.195126 0
M  V30 14218 C 1372.14 -1.50836 -0.612562 0
M  V30 14219 O 1373.33 -1.72917 -0.442936 0
M  V30 14220 C 1370.43 -3.30601 -0.745411 0
M  V30 14221 C 1369.61 -4.37396 0.0185308 0
M  V30 14222 C 1368.66 -5.19415 -0.842298 0
M  V30 14223 O 1367.69 -5.68467 -0.288821 0
M  V30 14224 N 1368.89 -5.38709 -2.1627 0
M  V30 14225 H 1371.66 -2.8252 1.00013 0
M  V30 14226 H 1369.22 -1.47146 0.675262 0
M  V30 14227 H 1371.21 -3.82367 -1.3258 0
M  V30 14228 H 1369.78 -2.76875 -1.45118 0
M  V30 14229 H 1369 -3.86402 0.780205 0
M  V30 14230 H 1370.29 -5.05877 0.544575 0
M  V30 14231 H 1369.69 -5.00523 -2.63616 0
M  V30 14232 H 1368.24 -5.9361 -2.69204 0
M  V30 14233 N 1371.68 -0.573274 -1.46804 0
M  V30 14234 C 1372.92 -0.0553432 -2.02724 0
M  V30 14235 C 1373.26 1.29753 -1.44492 0
M  V30 14236 O 1372.53 1.84804 -0.606455 0
M  V30 14237 C 1372.81 0.0205511 -3.60094 0
M  V30 14238 C 1372.67 -1.36055 -4.2873 0
M  V30 14239 C 1373.99 0.725944 -4.34071 0
M  V30 14240 H 1371.1 -0.0215858 -0.736684 0
M  V30 14241 H 1373.75 -0.738657 -1.75054 0
M  V30 14242 H 1371.9 0.602481 -3.838 0
M  V30 14243 H 1373.57 -1.98692 -4.16316 0
M  V30 14244 H 1371.81 -1.93087 -3.88458 0
M  V30 14245 H 1372.48 -1.26001 -5.37427 0
M  V30 14246 H 1374.96 0.231677 -4.15455 0
M  V30 14247 H 1373.83 0.74805 -5.43779 0
M  V30 14248 H 1374.1 1.78536 -4.04447 0
M  V30 14249 N 1373.15 1.5451 -0.310553 0
M  V30 14250 C 1374.12 2.2254 0.548489 0
M  V30 14251 C 1375.12 1.21456 1.05381 0
M  V30 14252 O 1376.31 1.46126 0.948311 0
M  V30 14253 C 1373.44 2.91927 1.76043 0
M  V30 14254 H 1374.63 2.99865 -0.0460306 0
M  V30 14255 H 1372.19 1.56179 -0.061487 0
M  V30 14256 H 1372.92 2.18706 2.39454 0
M  V30 14257 H 1372.71 3.66038 1.40564 0
M  V30 14258 H 1374.2 3.43797 2.37051 0
M  V30 14259 N 1374.63 0.0384594 1.57553 0
M  V30 14260 C 1375.6 -0.925358 2.0969 0
M  V30 14261 C 1376.6 -1.24811 1.01385 0
M  V30 14262 O 1377.79 -1.1869 1.27508 0
M  V30 14263 C 1374.92 -2.2391 2.57055 0
M  V30 14264 H 1376.11 -0.473633 2.96136 0
M  V30 14265 H 1373.66 -0.209736 1.54886 0
M  V30 14266 H 1374.4 -2.73691 1.73964 0
M  V30 14267 H 1374.18 -2.01793 3.36188 0
M  V30 14268 H 1375.67 -2.92974 2.97583 0
M  V30 14269 N 1376.11 -1.55841 -0.234795 0
M  V30 14270 C 1377.04 -1.94344 -1.29432 0
M  V30 14271 C 1378.02 -0.809912 -1.49581 0
M  V30 14272 O 1379.21 -1.07117 -1.61986 0
M  V30 14273 C 1376.34 -2.24866 -2.64675 0
M  V30 14274 C 1375.29 -3.40584 -2.59203 0
M  V30 14275 C 1374.62 -3.56678 -3.98353 0
M  V30 14276 C 1375.92 -4.75935 -2.15135 0
M  V30 14277 H 1377.61 -2.83096 -0.97454 0
M  V30 14278 H 1375.16 -1.36205 -0.467355 0
M  V30 14279 H 1377.11 -2.50392 -3.38942 0
M  V30 14280 H 1375.83 -1.32953 -2.98314 0
M  V30 14281 H 1374.49 -3.15087 -1.87393 0
M  V30 14282 H 1374.14 -2.62164 -4.29277 0
M  V30 14283 H 1373.84 -4.34503 -3.95577 0
M  V30 14284 H 1375.37 -3.84538 -4.74302 0
M  V30 14285 H 1376.78 -5.00753 -2.7914 0
M  V30 14286 H 1375.18 -5.56949 -2.23446 0
M  V30 14287 H 1376.25 -4.72182 -1.10328 0
M  V30 14288 N 1377.59 0.500963 -1.49426 0
M  V30 14289 C 1379.01 0.832142 -1.36189 0
M  V30 14290 C 1379.21 1.9759 -0.395014 0
M  V30 14291 O 1378.26 2.51905 0.173294 0
M  V30 14292 C 1379.57 1.17232 -2.76907 0
M  V30 14293 C 1381.12 1.28052 -2.85607 0
M  V30 14294 C 1381.6 1.65399 -4.27092 0
M  V30 14295 N 1383.09 1.72448 -4.29902 0
M  V30 14296 C 1383.82 2.02789 -5.36343 0
M  V30 14297 N 1383.32 2.31354 -6.53029 0
M  V30 14298 N 1385.11 2.0404 -5.23759 0
M  V30 14299 H 1377.26 -0.253253 -2.10885 0
M  V30 14300 H 1379.53 -0.0507111 -0.946643 0
M  V30 14301 H 1379.23 0.405247 -3.49357 0
M  V30 14302 H 1379.11 2.11574 -3.12276 0
M  V30 14303 H 1381.49 2.03831 -2.13394 0
M  V30 14304 H 1381.57 0.317603 -2.53821 0
M  V30 14305 H 1381.22 0.901704 -4.99832 0
M  V30 14306 H 1381.15 2.6279 -4.56343 0
M  V30 14307 H 1383.64 1.52532 -3.45749 0
M  V30 14308 H 1383.95 2.53695 -7.29972 0
M  V30 14309 H 1382.3 2.28811 -6.56255 0
M  V30 14310 H 1385.49 1.812 -4.31606 0
M  V30 14311 H 1385.66 2.27353 -6.06807 0
M  V30 14312 N 1379.07 1.38501 0.752011 0
M  V30 14313 C 1380 1.31746 1.87551 0
M  V30 14314 C 1381.01 0.229386 1.61176 0
M  V30 14315 O 1382.2 0.487066 1.71726 0
M  V30 14316 C 1379.3 1.01889 3.23221 0
M  V30 14317 C 1378.47 2.21637 3.77088 0
M  V30 14318 C 1377.53 1.885 4.91278 0
M  V30 14319 O 1376.56 2.61011 5.05828 0
M  V30 14320 N 1377.76 0.840909 5.74377 0
M  V30 14321 H 1380.53 2.28561 1.93856 0
M  V30 14322 H 1378.09 1.32383 0.932013 0
M  V30 14323 H 1380.08 0.777704 3.97157 0
M  V30 14324 H 1378.65 0.138658 3.12292 0
M  V30 14325 H 1377.87 2.61812 2.947 0
M  V30 14326 H 1379.16 3.01551 4.0981 0
M  V30 14327 H 1378.56 0.23962 5.65192 0
M  V30 14328 H 1377.11 0.659604 6.48454 0
M  V30 14329 N 1380.55 -0.980364 1.23396 0
M  V30 14330 C 1381.48 -2.07522 0.972991 0
M  V30 14331 C 1382.49 -1.62714 -0.0530191 0
M  V30 14332 O 1383.68 -1.77564 0.182513 0
M  V30 14333 C 1380.78 -3.35977 0.444126 0
M  V30 14334 C 1379.95 -4.09756 1.53031 0
M  V30 14335 C 1379.01 -5.16488 1.00631 0
M  V30 14336 O 1378.04 -5.43368 1.69529 0
M  V30 14337 N 1379.24 -5.80263 -0.165842 0
M  V30 14338 H 1382 -2.30487 1.91561 0
M  V30 14339 H 1379.57 -1.14706 1.14255 0
M  V30 14340 H 1381.56 -4.04624 0.078617 0
M  V30 14341 H 1380.13 -3.0998 -0.403912 0
M  V30 14342 H 1379.35 -3.35564 2.06858 0
M  V30 14343 H 1380.64 -4.55815 2.26076 0
M  V30 14344 H 1380.03 -5.60811 -0.742162 0
M  V30 14345 H 1378.59 -6.50084 -0.472614 0
M  V30 14346 N 1382.02 -1.04567 -1.17913 0
M  V30 14347 C 1382.95 -0.662066 -2.23917 0
M  V30 14348 C 1383.93 0.33713 -1.66726 0
M  V30 14349 O 1385.12 0.216116 -1.92994 0
M  V30 14350 C 1382.25 -0.029463 -3.47288 0
M  V30 14351 C 1381.2 -0.95274 -4.17261 0
M  V30 14352 C 1380.53 -0.184347 -5.34382 0
M  V30 14353 C 1381.83 -2.2741 -4.70194 0
M  V30 14354 H 1383.52 -1.54826 -2.5626 0
M  V30 14355 H 1381.07 -0.745886 -1.23177 0
M  V30 14356 H 1383.02 0.250654 -4.20654 0
M  V30 14357 H 1381.75 0.891638 -3.14193 0
M  V30 14358 H 1380.41 -1.21732 -3.45799 0
M  V30 14359 H 1380.05 0.73932 -4.97537 0
M  V30 14360 H 1379.75 -0.79949 -5.82136 0
M  V30 14361 H 1381.28 0.0886344 -6.10536 0
M  V30 14362 H 1382.69 -2.05433 -5.35229 0
M  V30 14363 H 1381.09 -2.84265 -5.28501 0
M  V30 14364 H 1382.16 -2.91708 -3.87342 0
M  V30 14365 N 1383.5 1.34231 -0.825823 0
M  V30 14366 C 1384.45 2.31378 -0.23809 0
M  V30 14367 C 1385.44 1.57537 0.622767 0
M  V30 14368 O 1386.65 1.72512 0.513783 0
M  V30 14369 H 1383.02 0.74974 -0.0582516 0
M  V30 14370 H 1385 2.78471 -1.07221 0
M  V30 14371 C 1383.74 3.42778 0.582969 0
M  V30 14372 H 1383.07 3.99739 -0.0701208 0
M  V30 14373 H 1384.51 4.12983 0.960266 0
M  V30 14374 C 1382.97 2.87486 1.75651 0
M  V30 14375 O 1383.5 2.82603 2.85479 0
M  V30 14376 N 1381.7 2.4427 1.57418 0
M  V30 14377 H 1381.25 2.48441 0.680792 0
M  V30 14378 H 1381.21 2.07626 2.36091 0
M  V30 14379 N 1384.98 0.581051 1.46498 0
M  V30 14380 C 1386.26 -0.000789846 1.956 0
M  V30 14381 C 1386.64 -1.46104 1.52371 0
M  V30 14382 O 1385.98 -2.15005 0.773623 0
M  V30 14383 C 1386.19 0.169534 3.48588 0
M  V30 14384 C 1387.54 0.036499 4.24584 0
M  V30 14385 O 1388.57 0.0982852 3.56064 0
M  V30 14386 O 1387.43 -0.100571 5.46407 0
M  V30 14387 H 1384.52 -0.050749 0.825441 0
M  V30 14388 H 1387.07 0.649252 1.56789 0
M  V30 14389 H 1385.84 1.18473 3.72934 0
M  V30 14390 H 1385.46 -0.517017 3.94224 0
M  V30 14391 N 1386.46 -1.54343 0.318742 0
M  V30 14392 C 1387.7 -2.00777 -0.285699 0
M  V30 14393 C 1388.04 -1.20664 -1.52164 0
M  V30 14394 O 1387.31 -0.287674 -1.92361 0
M  V30 14395 C 1387.59 -3.54641 -0.624649 0
M  V30 14396 C 1387.45 -4.45483 0.621663 0
M  V30 14397 C 1388.77 -4.15729 -1.4442 0
M  V30 14398 H 1385.89 -0.729856 -0.102367 0
M  V30 14399 H 1388.53 -1.84968 0.434364 0
M  V30 14400 H 1386.68 -3.68243 -1.23811 0
M  V30 14401 H 1388.35 -4.43759 1.25998 0
M  V30 14402 H 1386.59 -4.15356 1.25148 0
M  V30 14403 H 1387.26 -5.50951 0.340106 0
M  V30 14404 H 1389.74 -4.05672 -0.925699 0
M  V30 14405 H 1388.62 -5.23509 -1.65013 0
M  V30 14406 H 1388.88 -3.68743 -2.43887 0
M  V30 14407 N 1387.94 -0.0468143 -1.5753 0
M  V30 14408 C 1388.9 0.914225 -2.10177 0
M  V30 14409 C 1389.9 1.24271 -1.02045 0
M  V30 14410 O 1391.09 1.18012 -1.28136 0
M  V30 14411 C 1388.22 2.22544 -2.58238 0
M  V30 14412 H 1389.41 0.457922 -2.96383 0
M  V30 14413 H 1386.97 0.20152 -1.54995 0
M  V30 14414 H 1387.7 2.72765 -1.75413 0
M  V30 14415 H 1387.49 2.00007 -3.37253 0
M  V30 14416 H 1388.98 2.91392 -2.99133 0
M  V30 14417 N 1389.41 1.55964 0.226527 0
M  V30 14418 C 1390.32 1.95169 1.30178 0
M  V30 14419 C 1391.34 0.854831 1.51554 0
M  V30 14420 O 1392.52 1.15798 1.64781 0
M  V30 14421 C 1389.58 2.25612 2.63249 0
M  V30 14422 C 1388.64 3.4884 2.50219 0
M  V30 14423 C 1387.88 3.77822 3.76944 0
M  V30 14424 O 1388.1 3.08556 4.79739 0
M  V30 14425 O 1387.03 4.7132 3.74354 0
M  V30 14426 H 1390.86 2.86794 0.999145 0
M  V30 14427 H 1388.44 1.43109 0.42898 0
M  V30 14428 H 1390.33 2.4641 3.41848 0
M  V30 14429 H 1389 1.37162 2.93203 0
M  V30 14430 H 1387.91 3.33326 1.69836 0
M  V30 14431 H 1389.24 4.37657 2.25205 0
M  V30 14432 N 1390.89 -0.493031 1.4969 0
M  V30 14433 C 1391.86 -1.57598 1.6642 0
M  V30 14434 C 1392.86 -1.51615 0.535668 0
M  V30 14435 O 1394.05 -1.54626 0.802283 0
M  V30 14436 C 1391.18 -2.97249 1.66901 0
M  V30 14437 H 1392.37 -1.4409 2.63017 0
M  V30 14438 H 1389.92 -0.717846 1.3884 0
M  V30 14439 H 1390.66 -3.16225 0.719164 0
M  V30 14440 H 1390.44 -3.02999 2.48865 0
M  V30 14441 H 1391.93 -3.75914 1.81874 0
M  V30 14442 N 1392.37 -1.38898 -0.744656 0
M  V30 14443 C 1393.32 -1.33342 -1.84943 0
M  V30 14444 C 1394.3 -0.216036 -1.59443 0
M  V30 14445 O 1395.5 -0.452764 -1.71111 0
M  V30 14446 C 1392.63 -1.16966 -3.2276 0
M  V30 14447 C 1391.71 -2.33365 -3.54121 0
M  V30 14448 N 1392.1 -3.58824 -3.56481 0
M  V30 14449 C 1390.4 -2.26112 -3.84434 0
M  V30 14450 C 1391.1 -4.35741 -3.85364 0
M  V30 14451 N 1390.08 -3.65206 -4.02648 0
M  V30 14452 H 1393.88 -2.28321 -1.85059 0
M  V30 14453 H 1391.39 -1.32257 -0.94244 0
M  V30 14454 H 1393.39 -1.11069 -4.01832 0
M  V30 14455 H 1392.05 -0.229288 -3.23889 0
M  V30 14456 H 1393.06 -3.92377 -3.38025 0
M  V30 14457 H 1389.74 -1.40283 -3.93226 0
M  V30 14458 H 1391.13 -5.44445 -3.93738 0
M  V30 14459 N 1393.85 0.973806 -1.23914 0
M  V30 14460 C 1394.76 2.10138 -1.04304 0
M  V30 14461 C 1395.77 1.73994 0.0143888 0
M  V30 14462 O 1396.95 2.00572 -0.182481 0
M  V30 14463 C 1394.02 3.40673 -0.643639 0
M  V30 14464 C 1393.08 3.90802 -1.77686 0
M  V30 14465 C 1392.31 5.15108 -1.39642 0
M  V30 14466 O 1392.53 5.69695 -0.283546 0
M  V30 14467 O 1391.47 5.59468 -2.21988 0
M  V30 14468 H 1395.29 2.29574 -1.9882 0
M  V30 14469 H 1392.88 1.08524 -1.02679 0
M  V30 14470 H 1394.76 4.19178 -0.432145 0
M  V30 14471 H 1393.43 3.22551 0.272458 0
M  V30 14472 H 1392.34 3.13385 -2.04305 0
M  V30 14473 H 1393.67 4.1339 -2.67151 0
M  V30 14474 N 1395.33 1.05191 1.17357 0
M  V30 14475 C 1396.26 0.673931 2.23563 0
M  V30 14476 C 1397.24 -0.328284 1.66902 0
M  V30 14477 O 1398.42 -0.205878 1.93106 0
M  V30 14478 C 1395.55 0.0478801 3.47267 0
M  V30 14479 C 1394.51 0.974855 4.1675 0
M  V30 14480 C 1393.83 0.212684 5.34277 0
M  V30 14481 C 1395.13 2.299 4.68981 0
M  V30 14482 H 1396.83 1.56183 2.55436 0
M  V30 14483 H 1394.37 0.752408 1.2278 0
M  V30 14484 H 1396.33 -0.228343 4.20781 0
M  V30 14485 H 1395.05 -0.874963 3.14662 0
M  V30 14486 H 1393.71 1.23564 3.45148 0
M  V30 14487 H 1393.36 -0.712924 4.97922 0
M  V30 14488 H 1393.06 0.830351 5.81703 0
M  V30 14489 H 1394.58 -0.056255 6.10574 0
M  V30 14490 H 1395.99 2.08269 5.34132 0
M  V30 14491 H 1394.39 2.87064 5.26986 0
M  V30 14492 H 1395.46 2.93759 3.8579 0
M  V30 14493 N 1396.8 -1.33791 0.83293 0
M  V30 14494 C 1397.73 -2.31853 0.276846 0
M  V30 14495 C 1398.72 -1.58702 -0.612184 0
M  V30 14496 O 1399.9 -1.86629 -0.536975 0
M  V30 14497 C 1397.03 -3.42855 -0.55385 0
M  V30 14498 C 1395.98 -4.27333 0.238884 0
M  V30 14499 C 1395.31 -5.29895 -0.715187 0
M  V30 14500 C 1396.61 -5.01692 1.45265 0
M  V30 14501 H 1398.3 -2.78611 1.09618 0
M  V30 14502 H 1395.85 -1.33949 0.528562 0
M  V30 14503 H 1397.8 -4.10479 -0.953133 0
M  V30 14504 H 1396.53 -2.94771 -1.40634 0
M  V30 14505 H 1395.19 -3.61325 0.619656 0
M  V30 14506 H 1394.83 -4.7807 -1.56391 0
M  V30 14507 H 1394.53 -5.87296 -0.188921 0
M  V30 14508 H 1396.06 -6.00387 -1.11211 0
M  V30 14509 H 1397.47 -5.62117 1.12685 0
M  V30 14510 H 1395.87 -5.68715 1.91528 0
M  V30 14511 H 1396.94 -4.30809 2.22558 0
M  V30 14512 N 1398.28 -0.588812 -1.46187 0
M  V30 14513 C 1399.7 -0.250962 -1.57615 0
M  V30 14514 C 1399.9 1.2467 -1.58302 0
M  V30 14515 O 1398.95 2.02876 -1.50325 0
M  V30 14516 C 1400.27 -0.905561 -2.8674 0
M  V30 14517 C 1401.82 -0.879721 -3.00383 0
M  V30 14518 C 1402.29 -1.51398 -4.32253 0
M  V30 14519 N 1403.78 -1.4786 -4.38967 0
M  V30 14520 C 1404.52 -1.93868 -5.39632 0
M  V30 14521 N 1404.01 -2.47876 -6.46938 0
M  V30 14522 N 1405.81 -1.84748 -5.30872 0
M  V30 14523 H 1397.96 -1.56148 -1.43985 0
M  V30 14524 H 1400.22 -0.653028 -0.68721 0
M  V30 14525 H 1399.93 -1.95935 -2.92066 0
M  V30 14526 H 1399.8 -0.417456 -3.74883 0
M  V30 14527 H 1402.19 0.165466 -2.94636 0
M  V30 14528 H 1402.27 -1.40591 -2.137 0
M  V30 14529 H 1401.91 -2.55839 -4.38758 0
M  V30 14530 H 1401.84 -0.962965 -5.17721 0
M  V30 14531 H 1404.33 -1.08387 -3.62023 0
M  V30 14532 H 1404.65 -2.80824 -7.1997 0
M  V30 14533 H 1402.99 -2.51905 -6.47741 0
M  V30 14534 H 1406.18 -1.42307 -4.45944 0
M  V30 14535 H 1406.35 -2.20919 -6.09179 0
M  V30 14536 N 1399.76 1.54172 -0.326923 0
M  V30 14537 C 1401.04 1.92812 0.329078 0
M  V30 14538 C 1401.42 1.25687 1.69605 0
M  V30 14539 O 1400.77 0.401779 2.2494 0
M  V30 14540 C 1400.98 3.46488 0.417949 0
M  V30 14541 C 1402.32 4.19174 0.67665 0
M  V30 14542 O 1403.35 3.52663 0.500735 0
M  V30 14543 O 1402.21 5.36968 1.01625 0
M  V30 14544 H 1399.3 0.805214 0.188573 0
M  V30 14545 H 1401.85 1.65462 -0.376884 0
M  V30 14546 H 1400.62 3.87528 -0.541986 0
M  V30 14547 H 1400.24 3.79954 1.17136 0
M  V30 14548 N 1401.24 0.0551678 1.57503 0
M  V30 14549 C 1402.2 -0.903065 2.10659 0
M  V30 14550 C 1403.2 -1.23728 1.02703 0
M  V30 14551 O 1404.39 -1.17331 1.2876 0
M  V30 14552 C 1401.52 -2.21171 2.59415 0
M  V30 14553 H 1402.72 -0.442197 2.96622 0
M  V30 14554 H 1400.27 -0.193297 1.551 0
M  V30 14555 H 1401 -2.71831 1.76858 0
M  V30 14556 H 1400.79 -1.98216 3.38309 0
M  V30 14557 H 1402.28 -2.89802 3.00674 0
M  V30 14558 N 1402.72 -1.56081 -0.218252 0
M  V30 14559 C 1403.99 -1.70043 -0.966684 0
M  V30 14560 C 1404.37 -0.603372 -2.02293 0
M  V30 14561 O 1403.72 0.389138 -2.25162 0
M  V30 14562 C 1403.93 -3.11484 -1.57413 0
M  V30 14563 C 1405.28 -3.70995 -2.06513 0
M  V30 14564 O 1406.3 -3.14466 -1.67301 0
M  V30 14565 O 1405.16 -4.70156 -2.78596 0
M  V30 14566 H 1402.26 -0.692691 -0.451784 0
M  V30 14567 H 1404.8 -1.68398 -0.209774 0
M  V30 14568 H 1403.57 -3.8279 -0.811614 0
M  V30 14569 H 1403.2 -3.1726 -2.3965 0
M  V30 14570 N 1404.2 0.485086 -1.49949 0
M  V30 14571 C 1405.16 1.56713 -1.67253 0
M  V30 14572 C 1406.16 1.51329 -0.543701 0
M  V30 14573 O 1407.35 1.54198 -0.810472 0
M  V30 14574 C 1404.48 2.9636 -1.68475 0
M  V30 14575 H 1405.67 1.42693 -2.63778 0
M  V30 14576 H 1403.23 0.710473 -1.39219 0
M  V30 14577 H 1403.96 3.1584 -0.735924 0
M  V30 14578 H 1403.75 3.01675 -2.50469 0
M  V30 14579 H 1405.24 3.74945 -1.83865 0
M  V30 14580 N 1405.67 1.39291 0.737279 0
M  V30 14581 C 1406.6 1.40562 1.86452 0
M  V30 14582 C 1407.58 0.269283 1.67955 0
M  V30 14583 O 1408.77 0.474769 1.88307 0
M  V30 14584 C 1405.9 1.2461 3.24175 0
M  V30 14585 C 1404.85 2.35619 3.57306 0
M  V30 14586 C 1404.18 2.04758 4.93941 0
M  V30 14587 C 1405.48 3.77927 3.60512 0
M  V30 14588 H 1407.17 2.34896 1.85646 0
M  V30 14589 H 1404.72 1.13065 0.891756 0
M  V30 14590 H 1406.67 1.2412 4.02706 0
M  V30 14591 H 1405.4 0.267438 3.25503 0
M  V30 14592 H 1404.06 2.35322 2.81104 0
M  V30 14593 H 1403.7 1.05336 4.91847 0
M  V30 14594 H 1403.4 2.79117 5.17076 0
M  V30 14595 H 1404.93 2.05915 5.74832 0
M  V30 14596 H 1406.34 3.80166 4.29123 0
M  V30 14597 H 1404.74 4.51626 3.95164 0
M  V30 14598 H 1405.81 4.09068 2.60368 0
M  V30 14599 N 1407.15 -0.967221 1.24429 0
M  V30 14600 C 1408.4 -1.71279 1.08588 0
M  V30 14601 C 1408.73 -1.90558 -0.374325 0
M  V30 14602 O 1408.01 -1.46742 -1.27659 0
M  V30 14603 C 1408.29 -3.10326 1.82674 0
M  V30 14604 C 1408.14 -2.98535 3.36447 0
M  V30 14605 C 1409.46 -4.09993 1.59981 0
M  V30 14606 H 1406.58 -0.621658 0.395867 0
M  V30 14607 H 1409.22 -1.12514 1.53103 0
M  V30 14608 H 1407.37 -3.60492 1.44836 0
M  V30 14609 H 1409.04 -2.55791 3.83886 0
M  V30 14610 H 1407.29 -2.34736 3.64803 0
M  V30 14611 H 1407.96 -3.97041 3.83487 0
M  V30 14612 H 1410.43 -3.68687 1.92897 0
M  V30 14613 H 1409.31 -5.05349 2.14274 0
M  V30 14614 H 1409.57 -4.38812 0.538173 0
M  V30 14615 N 1408.63 -1.05812 -1.16797 0
M  V30 14616 C 1409.54 -0.675541 -2.24663 0
M  V30 14617 C 1410.56 0.30622 -1.71284 0
M  V30 14618 O 1411.73 0.156752 -2.00789 0
M  V30 14619 C 1408.8 -0.0627149 -3.46643 0
M  V30 14620 C 1407.86 -1.09572 -4.15081 0
M  V30 14621 C 1407.09 -0.512044 -5.31238 0
M  V30 14622 O 1407.31 0.676665 -5.66372 0
M  V30 14623 O 1406.25 -1.24936 -5.88791 0
M  V30 14624 H 1410.07 -1.57467 -2.59688 0
M  V30 14625 H 1407.66 -0.830073 -1.24218 0
M  V30 14626 H 1409.54 0.277543 -4.20485 0
M  V30 14627 H 1408.22 0.80997 -3.13403 0
M  V30 14628 H 1407.12 -1.48807 -3.4323 0
M  V30 14629 H 1408.46 -1.93977 -4.52365 0
M  V30 14630 N 1410.11 1.33347 -0.840014 0
M  V30 14631 C 1411.05 2.29191 -0.272048 0
M  V30 14632 C 1412.02 1.54383 0.612787 0
M  V30 14633 O 1413.21 1.82676 0.550812 0
M  V30 14634 C 1410.35 3.40755 0.545901 0
M  V30 14635 C 1409.46 4.30471 -0.363084 0
M  V30 14636 C 1408.6 5.29151 0.466078 0
M  V30 14637 C 1407.64 6.10508 -0.441225 0
M  V30 14638 N 1406.77 7.01228 0.349877 0
M  V30 14639 H 1411.61 2.77166 -1.09467 0
M  V30 14640 H 1409.15 1.36379 -0.551284 0
M  V30 14641 H 1411.11 4.04142 1.03562 0
M  V30 14642 H 1409.74 2.9397 1.33348 0
M  V30 14643 H 1408.79 3.67795 -0.971119 0
M  V30 14644 H 1410.1 4.87406 -1.06002 0
M  V30 14645 H 1409.26 5.98072 1.01957 0
M  V30 14646 H 1408 4.72796 1.19644 0
M  V30 14647 H 1407 5.40504 -1.00672 0
M  V30 14648 H 1408.23 6.68946 -1.16997 0
M  V30 14649 H 1406.17 6.4732 1.0636 0
M  V30 14650 H 1406.09 7.5545 -0.288317 0
M  V30 14651 H 1407.36 7.74453 0.885573 0
M  V30 14652 N 1411.59 0.596556 1.45873 0
M  V30 14653 C 1412.81 0.0916466 2.07197 0
M  V30 14654 C 1413.24 -1.21004 1.44012 0
M  V30 14655 O 1412.59 -1.73415 0.528844 0
M  V30 14656 C 1412.64 -0.0461457 3.6057 0
M  V30 14657 O 1411.75 -1.09919 3.97481 0
M  V30 14658 H 1411.09 0.0690655 0.660398 0
M  V30 14659 H 1413.62 0.823434 1.87299 0
M  V30 14660 H 1413.63 -0.2479 4.07246 0
M  V30 14661 H 1412.3 0.904381 4.05948 0
M  V30 14662 H 1410.88 -0.874788 3.62494 0
M  V30 14663 N 1413.06 -1.53996 0.335095 0
M  V30 14664 C 1414.31 -1.99952 -0.264954 0
M  V30 14665 C 1414.63 -1.22696 -1.52332 0
M  V30 14666 O 1415.83 -1.59086 -2.20009 0
M  V30 14667 C 1414.29 -3.56085 -0.522667 0
M  V30 14668 C 1413.9 -4.42188 0.719314 0
M  V30 14669 C 1415.64 -4.10478 -1.08204 0
M  V30 14670 C 1413.55 -5.89814 0.432867 0
M  V30 14671 H 1412.48 -0.746962 -0.102782 0
M  V30 14672 H 1415.13 -1.77919 0.449111 0
M  V30 14673 H 1413.51 -3.7415 -1.29722 0
M  V30 14674 H 1414.68 -4.35898 1.49432 0
M  V30 14675 H 1413 -3.98743 1.19972 0
M  V30 14676 H 1415.6 -5.18375 -1.31116 0
M  V30 14677 H 1415.94 -3.63173 -2.03497 0
M  V30 14678 H 1416.47 -3.96091 -0.368395 0
M  V30 14679 H 1413.21 -6.41336 1.35529 0
M  V30 14680 H 1412.73 -5.99028 -0.304214 0
M  V30 14681 H 1414.41 -6.46983 0.0469657 0
M  V30 14682 N 1414.54 -0.0635198 -1.57472 0
M  V30 14683 C 1415.79 0.602418 -1.94274 0
M  V30 14684 C 1416.14 1.67717 -0.942797 0
M  V30 14685 O 1415.44 1.91566 0.0361878 0
M  V30 14686 C 1415.63 1.23117 -3.35525 0
M  V30 14687 C 1415.46 0.218848 -4.49167 0
M  V30 14688 C 1414.23 -0.19356 -5.04929 0
M  V30 14689 C 1416.43 -0.540636 -5.1145 0
M  V30 14690 N 1414.41 -1.19745 -6.02108 0
M  V30 14691 C 1415.78 -1.39725 -6.0405 0
M  V30 14692 C 1417.83 -0.597606 -4.94301 0
M  V30 14693 C 1416.54 -2.30575 -6.81342 0
M  V30 14694 C 1418.56 -1.49358 -5.72229 0
M  V30 14695 C 1417.93 -2.33789 -6.64471 0
M  V30 14696 H 1414.02 0.191715 -0.758135 0
M  V30 14697 H 1416.61 -0.138733 -1.94205 0
M  V30 14698 H 1414.78 1.94229 -3.36348 0
M  V30 14699 H 1416.51 1.85691 -3.59584 0
M  V30 14700 H 1413.27 0.187897 -4.73227 0
M  V30 14701 H 1413.69 -1.69666 -6.55395 0
M  V30 14702 H 1418.33 0.0409459 -4.2278 0
M  V30 14703 H 1416.05 -2.9547 -7.52146 0
M  V30 14704 H 1419.64 -1.5424 -5.60983 0
M  V30 14705 H 1418.52 -3.01995 -7.23719 0
M  V30 14706 N 1416.02 1.56195 0.209972 0
M  V30 14707 C 1416.95 1.96378 1.26324 0
M  V30 14708 C 1417.93 0.833606 1.48273 0
M  V30 14709 O 1419.12 1.0968 1.60262 0
M  V30 14710 C 1416.25 2.29048 2.61064 0
M  V30 14711 C 1415.2 3.44665 2.53752 0
M  V30 14712 C 1414.53 3.6297 3.92628 0
M  V30 14713 C 1415.83 4.79297 2.07536 0
M  V30 14714 H 1417.52 2.8461 0.929379 0
M  V30 14715 H 1415.07 1.36931 0.445627 0
M  V30 14716 H 1417.02 2.55752 3.34916 0
M  V30 14717 H 1415.74 1.37682 2.96161 0
M  V30 14718 H 1414.4 3.18028 1.82356 0
M  V30 14719 H 1414.05 2.68961 4.25052 0
M  V30 14720 H 1413.75 4.40741 3.88614 0
M  V30 14721 H 1415.27 3.92035 4.68125 0
M  V30 14722 H 1416.69 5.05131 2.71138 0
M  V30 14723 H 1415.08 5.60433 2.14557 0
M  V30 14724 H 1416.15 4.73877 1.02802 0
M  V30 14725 N 1417.5 -0.477127 1.50204 0
M  V30 14726 C 1418.75 -1.22639 1.60133 0
M  V30 14727 C 1419.06 -1.93218 0.304333 0
M  V30 14728 O 1420.27 -2.70027 0.282457 0
M  V30 14729 C 1418.72 -2.22807 2.82639 0
M  V30 14730 C 1418.33 -1.58059 4.19191 0
M  V30 14731 C 1420.07 -2.98413 3.01911 0
M  V30 14732 C 1417.98 -2.56478 5.32891 0
M  V30 14733 H 1416.91 -0.461439 0.596314 0
M  V30 14734 H 1419.56 -0.497533 1.76626 0
M  V30 14735 H 1417.94 -2.98959 2.59692 0
M  V30 14736 H 1419.12 -0.877374 4.5237 0
M  V30 14737 H 1417.43 -0.947563 4.05475 0
M  V30 14738 H 1420.03 -3.72059 3.84026 0
M  V30 14739 H 1420.37 -3.57444 2.134 0
M  V30 14740 H 1420.91 -2.29375 3.25011 0
M  V30 14741 H 1417.64 -2.02194 6.23536 0
M  V30 14742 H 1417.16 -3.24969 5.04138 0
M  V30 14743 H 1418.84 -3.18429 5.63216 0
M  V30 14744 N 1418.98 -1.3968 -0.729882 0
M  V30 14745 C 1420.22 -1.36911 -1.4866 0
M  V30 14746 C 1420.55 0.0326011 -1.94973 0
M  V30 14747 O 1419.82 0.984789 -1.69348 0
M  V30 14748 H 1418.4 -0.503848 -0.551495 0
M  V30 14749 H 1421.06 -1.74596 -0.866155 0
M  V30 14750 H 1420.15 -2.03504 -2.36628 0
M  V30 14751 N 1420.45 0.960609 -1.2494 0
M  V30 14752 C 1421.7 1.70111 -1.09117 0
M  V30 14753 C 1422.02 1.91466 0.369544 0
M  V30 14754 O 1421.29 1.49749 1.26302 0
M  V30 14755 H 1419.87 0.630372 -0.400799 0
M  V30 14756 H 1422.54 1.15525 -1.56971 0
M  V30 14757 H 1421.63 2.68277 -1.5948 0
M  V30 14758 N 1421.93 1.0643 1.16234 0
M  V30 14759 C 1423.21 0.695256 1.82827 0
M  V30 14760 C 1423.59 -0.823242 1.94386 0
M  V30 14761 O 1422.94 -1.73406 1.48804 0
M  V30 14762 C 1423.15 1.3988 3.19741 0
M  V30 14763 C 1424.5 1.54489 3.95498 0
M  V30 14764 O 1425.52 1.35882 3.29264 0
M  V30 14765 O 1424.38 1.85027 5.14225 0
M  V30 14766 H 1421.47 0.246285 0.789476 0
M  V30 14767 H 1424.02 1.16466 1.23426 0
M  V30 14768 H 1422.79 2.43419 3.06371 0
M  V30 14769 H 1422.41 0.91957 3.8682 0
M  V30 14770 N 1423.41 -1.329 0.847073 0
M  V30 14771 C 1424.66 -1.9712 0.445872 0
M  V30 14772 C 1424.98 -1.67398 -1.00014 0
M  V30 14773 O 1424.25 -0.977204 -1.69787 0
M  V30 14774 H 1422.83 -0.729247 0.161887 0
M  V30 14775 H 1425.49 -1.62118 1.08184 0
M  V30 14776 H 1424.59 -3.06575 0.584676 0
M  V30 14777 N 1424.89 -0.604284 -1.45555 0
M  V30 14778 C 1426.13 -0.106748 -2.0312 0
M  V30 14779 C 1426.49 1.24754 -1.46472 0
M  V30 14780 O 1425.78 1.80993 -0.628659 0
M  V30 14781 C 1425.98 -0.00538243 -3.574 0
M  V30 14782 C 1425.81 -1.3483 -4.29012 0
M  V30 14783 C 1424.58 -1.92813 -4.67067 0
M  V30 14784 C 1426.77 -2.27634 -4.6118 0
M  V30 14785 N 1424.76 -3.20619 -5.23523 0
M  V30 14786 C 1426.13 -3.40037 -5.18435 0
M  V30 14787 C 1428.18 -2.27047 -4.43119 0
M  V30 14788 C 1426.88 -4.52014 -5.59531 0
M  V30 14789 C 1428.91 -3.38069 -4.85245 0
M  V30 14790 C 1428.27 -4.49194 -5.4259 0
M  V30 14791 H 1424.37 -0.0823527 -0.777652 0
M  V30 14792 H 1426.96 -0.801912 -1.77419 0
M  V30 14793 H 1425.13 0.658995 -3.82769 0
M  V30 14794 H 1426.86 0.498511 -4.01618 0
M  V30 14795 H 1423.61 -1.46056 -4.50516 0
M  V30 14796 H 1424.04 -3.8589 -5.56253 0
M  V30 14797 H 1428.68 -1.42395 -3.981 0
M  V30 14798 H 1426.4 -5.37394 -6.03518 0
M  V30 14799 H 1429.98 -3.38759 -4.73005 0
M  V30 14800 H 1428.86 -5.33683 -5.74588 0
M  V30 14801 N 1426.37 1.53816 -0.343257 0
M  V30 14802 C 1427.33 2.23654 0.501161 0
M  V30 14803 C 1428.33 1.23664 1.02781 0
M  V30 14804 O 1429.52 1.48104 0.917103 0
M  V30 14805 C 1426.65 2.95596 1.69812 0
M  V30 14806 H 1427.84 2.997 -0.109626 0
M  V30 14807 H 1425.4 1.56013 -0.0946011 0
M  V30 14808 H 1426.13 2.23736 2.34761 0
M  V30 14809 H 1425.92 3.68938 1.32768 0
M  V30 14810 H 1427.41 3.48748 2.29706 0
M  V30 14811 N 1427.84 0.0718701 1.57436 0
M  V30 14812 C 1429.07 -0.605374 1.97532 0
M  V30 14813 C 1429.48 -1.6368 0.948974 0
M  V30 14814 O 1428.83 -1.83556 -0.0726987 0
M  V30 14815 C 1428.89 -1.33139 3.33937 0
M  V30 14816 C 1428.55 -0.453426 4.54745 0
M  V30 14817 C 1429.55 0.289012 5.19096 0
M  V30 14818 C 1427.23 -0.378282 5.00874 0
M  V30 14819 C 1429.23 1.09482 6.27927 0
M  V30 14820 C 1426.91 0.431192 6.09577 0
M  V30 14821 C 1427.91 1.16641 6.72966 0
M  V30 14822 O 1427.6 1.96253 7.79577 0
M  V30 14823 H 1427.33 -0.168804 0.654585 0
M  V30 14824 H 1429.89 0.140832 2.04917 0
M  V30 14825 H 1428.12 -2.12367 3.23167 0
M  V30 14826 H 1429.81 -1.90089 3.58638 0
M  V30 14827 H 1430.57 0.240552 4.84403 0
M  V30 14828 H 1426.45 -0.940166 4.51311 0
M  V30 14829 H 1429.99 1.66918 6.77336 0
M  V30 14830 H 1425.89 0.481217 6.43704 0
M  V30 14831 H 1426.66 1.88686 7.96455 0
M  V30 14832 N 1429.32 -1.56304 -0.201686 0
M  V30 14833 C 1430.6 -1.71059 -0.948595 0
M  V30 14834 C 1430.98 -0.624794 -2.01642 0
M  V30 14835 O 1430.33 0.365235 -2.25562 0
M  V30 14836 C 1430.54 -3.13136 -1.54101 0
M  V30 14837 C 1431.89 -3.73165 -2.02567 0
M  V30 14838 O 1432.91 -3.16223 -1.63956 0
M  V30 14839 O 1431.77 -4.73084 -2.73594 0
M  V30 14840 H 1428.86 -0.697443 -0.444412 0
M  V30 14841 H 1431.41 -1.68611 -0.191901 0
M  V30 14842 H 1430.18 -3.8363 -0.770968 0
M  V30 14843 H 1429.8 -3.19784 -2.36271 0
M  V30 14844 N 1430.8 0.469154 -1.50455 0
M  V30 14845 C 1432.05 1.21788 -1.60781 0
M  V30 14846 C 1432.36 1.93054 -0.314576 0
M  V30 14847 O 1433.57 2.69873 -0.296773 0
M  V30 14848 C 1432.02 2.21305 -2.83817 0
M  V30 14849 C 1431.63 1.55833 -4.20024 0
M  V30 14850 C 1433.38 2.96808 -3.03489 0
M  V30 14851 C 1431.28 2.53648 -5.34244 0
M  V30 14852 H 1430.21 0.45827 -0.598752 0
M  V30 14853 H 1432.86 0.488159 -1.76888 0
M  V30 14854 H 1431.25 2.97577 -2.61273 0
M  V30 14855 H 1432.42 0.853371 -4.52829 0
M  V30 14856 H 1430.74 0.926046 -4.05972 0
M  V30 14857 H 1433.33 3.70017 -3.85994 0
M  V30 14858 H 1433.68 3.56307 -2.15293 0
M  V30 14859 H 1434.21 2.27648 -3.26223 0
M  V30 14860 H 1430.95 1.98885 -6.246 0
M  V30 14861 H 1430.47 3.22291 -5.05854 0
M  V30 14862 H 1432.15 3.15438 -5.64897 0
M  V30 14863 N 1432.28 1.40065 0.722464 0
M  V30 14864 C 1433.53 1.37698 1.47932 0
M  V30 14865 C 1433.85 -0.0222608 1.94987 0
M  V30 14866 O 1433.12 -0.975795 1.69868 0
M  V30 14867 H 1431.7 0.506766 0.548815 0
M  V30 14868 H 1434.36 1.75053 0.856884 0
M  V30 14869 H 1433.46 2.04756 2.35545 0
M  V30 14870 N 1433.76 -0.95397 1.25448 0
M  V30 14871 C 1435 -1.69866 1.10235 0
M  V30 14872 C 1435.33 -1.91204 -0.356552 0
M  V30 14873 O 1434.59 -1.4811 -1.27914 0
M  V30 14874 C 1434.89 -3.08613 1.80258 0
M  V30 14875 C 1434.55 -3.07072 3.30178 0
M  V30 14876 C 1433.21 -3.0636 3.71076 0
M  V30 14877 C 1435.57 -3.00351 4.25956 0
M  V30 14878 C 1432.89 -2.96675 5.06163 0
M  V30 14879 C 1435.25 -2.92209 5.61067 0
M  V30 14880 C 1433.91 -2.89832 6.01293 0
M  V30 14881 H 1433.18 -0.621583 0.40338 0
M  V30 14882 H 1435.83 -1.11448 1.55729 0
M  V30 14883 H 1434.13 -3.70578 1.27197 0
M  V30 14884 H 1435.83 -3.65055 1.6594 0
M  V30 14885 H 1432.42 -3.084 2.97637 0
M  V30 14886 H 1436.6 -3.0002 3.9535 0
M  V30 14887 H 1431.86 -2.93204 5.36508 0
M  V30 14888 H 1436.03 -2.8597 6.34976 0
M  V30 14889 H 1433.66 -2.82084 7.05927 0
M  V30 14890 N 1435.24 -1.07045 -1.15668 0
M  V30 14891 C 1436.48 -0.790172 -1.86013 0
M  V30 14892 C 1436.8 0.685663 -1.82548 0
M  V30 14893 O 1436.07 1.49644 -1.26426 0
M  V30 14894 H 1434.65 -0.28931 -0.688701 0
M  V30 14895 H 1437.32 -1.35354 -1.40233 0
M  V30 14896 H 1436.41 -1.1219 -2.91239 0
M  V30 14897 N 1436.71 1.32449 -0.85411 0
M  V30 14898 C 1437.96 1.96881 -0.45632 0
M  V30 14899 C 1438.28 1.67926 0.991248 0
M  V30 14900 O 1437.55 0.986195 1.69266 0
M  V30 14901 H 1436.13 0.728378 -0.165752 0
M  V30 14902 H 1438.79 1.61542 -1.09042 0
M  V30 14903 H 1437.89 3.0626 -0.600927 0
M  V30 14904 N 1438.19 0.611994 1.45232 0
M  V30 14905 C 1439.12 -0.0914869 2.33321 0
M  V30 14906 C 1440.1 -0.854315 1.4709 0
M  V30 14907 O 1441.29 -0.823994 1.75852 0
M  V30 14908 C 1438.42 -1.08652 3.29867 0
M  V30 14909 C 1437.37 -0.436615 4.25767 0
M  V30 14910 C 1436.7 -1.54021 5.12037 0
M  V30 14911 C 1438 0.645005 5.18302 0
M  V30 14912 H 1439.69 0.644053 2.92391 0
M  V30 14913 H 1437.24 0.311171 1.40598 0
M  V30 14914 H 1439.19 -1.58726 3.90364 0
M  V30 14915 H 1437.91 -1.85271 2.68965 0
M  V30 14916 H 1436.57 0.0432918 3.66574 0
M  V30 14917 H 1436.22 -2.29679 4.475 0
M  V30 14918 H 1435.92 -1.11084 5.77005 0
M  V30 14919 H 1437.45 -2.04313 5.75403 0
M  V30 14920 H 1438.86 0.228166 5.72846 0
M  V30 14921 H 1437.26 0.996387 5.9177 0
M  V30 14922 H 1438.33 1.51985 4.60466 0
M  V30 14923 N 1439.67 -1.53632 0.351409 0
M  V30 14924 C 1440.95 -1.93311 -0.298362 0
M  V30 14925 C 1441.33 -1.28369 -1.67584 0
M  V30 14926 O 1440.67 -0.437514 -2.24272 0
M  V30 14927 C 1440.88 -3.47109 -0.362773 0
M  V30 14928 C 1442.23 -4.20197 -0.609878 0
M  V30 14929 O 1443.26 -3.53415 -0.444566 0
M  V30 14930 O 1442.12 -5.38517 -0.930691 0
M  V30 14931 H 1439.21 -0.808112 -0.175739 0
M  V30 14932 H 1441.76 -1.64841 0.40316 0
M  V30 14933 H 1440.53 -3.86617 0.60357 0
M  V30 14934 H 1440.15 -3.81769 -1.11076 0
M  V30 14935 N 1441.15 -0.0802183 -1.57396 0
M  V30 14936 C 1442.1 0.894334 -2.09728 0
M  V30 14937 C 1443.08 1.25342 -1.00887 0
M  V30 14938 O 1444.27 1.23099 -1.27184 0
M  V30 14939 C 1441.4 2.15885 -2.66924 0
M  V30 14940 C 1440.49 1.82587 -3.82783 0
M  V30 14941 N 1440.88 1.19777 -4.91413 0
M  V30 14942 C 1439.18 2.12287 -3.92237 0
M  V30 14943 C 1439.88 1.04758 -5.72189 0
M  V30 14944 N 1438.85 1.56005 -5.20733 0
M  V30 14945 H 1442.66 0.404523 -2.91103 0
M  V30 14946 H 1440.17 0.123432 -1.6193 0
M  V30 14947 H 1442.17 2.8663 -3.02736 0
M  V30 14948 H 1440.83 2.65446 -1.86998 0
M  V30 14949 H 1441.84 0.866384 -5.10602 0
M  V30 14950 H 1438.52 2.64166 -3.23299 0
M  V30 14951 H 1439.91 0.55756 -6.69583 0
M  V30 14952 N 1442.63 1.56409 0.193394 0
M  V30 14953 C 1443.87 1.80991 0.914875 0
M  V30 14954 C 1444.2 0.654538 1.82837 0
M  V30 14955 O 1443.48 -0.344816 1.91419 0
M  V30 14956 C 1443.76 3.15841 1.72964 0
M  V30 14957 C 1443.62 4.41873 0.840748 0
M  V30 14958 C 1444.93 3.474 2.70188 0
M  V30 14959 H 1442.05 0.658408 0.331161 0
M  V30 14960 H 1444.7 1.89125 0.182161 0
M  V30 14961 H 1442.85 3.09038 2.35431 0
M  V30 14962 H 1444.52 4.60723 0.230654 0
M  V30 14963 H 1442.76 4.33549 0.147558 0
M  V30 14964 H 1443.43 5.32728 1.44586 0
M  V30 14965 H 1445.91 3.54513 2.17852 0
M  V30 14966 H 1444.78 4.42872 3.24278 0
M  V30 14967 H 1445.04 2.7098 3.49317 0
M  V30 14968 N 1444.1 -0.461169 1.50702 0
M  V30 14969 C 1445.03 -1.56576 1.73223 0
M  V30 14970 C 1446.01 -1.59855 0.581401 0
M  V30 14971 O 1447.2 -1.75964 0.821602 0
M  V30 14972 C 1444.33 -2.94835 1.83548 0
M  V30 14973 C 1443.28 -3.06421 2.98815 0
M  V30 14974 C 1442.61 -4.46425 2.94293 0
M  V30 14975 C 1443.91 -2.82714 4.3917 0
M  V30 14976 H 1445.6 -1.37982 2.65709 0
M  V30 14977 H 1443.15 -0.662362 1.27862 0
M  V30 14978 H 1445.1 -3.72047 1.97887 0
M  V30 14979 H 1443.83 -3.14608 0.876906 0
M  V30 14980 H 1442.49 -2.31644 2.84142 0
M  V30 14981 H 1442.13 -4.63131 1.96262 0
M  V30 14982 H 1441.83 -4.55111 3.71682 0
M  V30 14983 H 1443.36 -5.25644 3.10695 0
M  V30 14984 H 1444.77 -3.4967 4.54317 0
M  V30 14985 H 1443.17 -3.02835 5.18084 0
M  V30 14986 H 1444.24 -1.78492 4.50853 0
M  V30 14987 N 1445.58 -1.40446 -0.715026 0
M  V30 14988 C 1446.81 -1.42263 -1.50917 0
M  V30 14989 C 1447.23 -0.0242402 -1.88084 0
M  V30 14990 O 1446.59 0.967817 -1.53307 0
M  V30 14991 C 1446.64 -2.31998 -2.7606 0
M  V30 14992 O 1445.74 -1.76361 -3.72787 0
M  V30 14993 H 1445.08 -0.483614 -0.454988 0
M  V30 14994 H 1447.61 -1.84682 -0.880549 0
M  V30 14995 H 1447.62 -2.47204 -3.24583 0
M  V30 14996 H 1446.3 -3.33614 -2.48343 0
M  V30 14997 H 1444.87 -1.70504 -3.31636 0
M  V30 14998 N 1447.06 0.947303 -1.25952 0
M  V30 14999 C 1447.99 2.0625 -1.09467 0
M  V30 15000 C 1448.97 1.701 -0.00160498 0
M  V30 15001 O 1450.16 1.93432 -0.172501 0
M  V30 15002 C 1447.29 3.39746 -0.720392 0
M  V30 15003 C 1446.24 3.89935 -1.76451 0
M  V30 15004 C 1445.57 5.2001 -1.24472 0
M  V30 15005 C 1446.87 4.15496 -3.16481 0
M  V30 15006 H 1448.56 2.203 -2.02752 0
M  V30 15007 H 1446.11 1.05858 -0.97622 0
M  V30 15008 H 1448.06 4.17221 -0.591972 0
M  V30 15009 H 1446.78 3.25656 0.248161 0
M  V30 15010 H 1445.44 3.14635 -1.8815 0
M  V30 15011 H 1445.09 5.02295 -0.266182 0
M  V30 15012 H 1444.79 5.54559 -1.94263 0
M  V30 15013 H 1446.31 6.00075 -1.12884 0
M  V30 15014 H 1447.73 4.83605 -3.07894 0
M  V30 15015 H 1446.12 4.61315 -3.83808 0
M  V30 15016 H 1447.19 3.21501 -3.62995 0
M  V30 15017 N 1448.54 1.07657 1.15099 0
M  V30 15018 C 1449.77 0.822825 1.89835 0
M  V30 15019 C 1450.18 -0.624281 1.7818 0
M  V30 15020 O 1449.54 -1.42844 1.13587 0
M  V30 15021 C 1449.59 1.22598 3.40076 0
M  V30 15022 O 1449.31 2.61631 3.51398 0
M  V30 15023 C 1450.81 1.00199 4.31828 0
M  V30 15024 H 1448.03 0.297288 0.601549 0
M  V30 15025 H 1450.58 1.43384 1.45813 0
M  V30 15026 H 1448.73 0.65923 3.8175 0
M  V30 15027 H 1449.14 2.78163 4.44664 0
M  V30 15028 H 1450.62 1.33355 5.35649 0
M  V30 15029 H 1451.1 -0.0614865 4.39157 0
M  V30 15030 H 1451.7 1.5538 3.959 0
M  V30 15031 N 1450.02 -1.31994 0.861122 0
M  V30 15032 C 1450.93 -2.32495 0.313555 0
M  V30 15033 C 1451.94 -1.64331 -0.571966 0
M  V30 15034 O 1453.12 -1.9582 -0.470794 0
M  V30 15035 C 1450.18 -3.43311 -0.483603 0
M  V30 15036 C 1449.24 -4.27153 0.428825 0
M  V30 15037 C 1448.48 -5.32676 -0.330383 0
M  V30 15038 O 1448.7 -5.48665 -1.55957 0
M  V30 15039 O 1447.63 -6.01116 0.307174 0
M  V30 15040 H 1451.46 -2.81234 1.14636 0
M  V30 15041 H 1449.05 -1.35734 0.624239 0
M  V30 15042 H 1450.93 -4.10877 -0.935831 0
M  V30 15043 H 1449.6 -2.9675 -1.2931 0
M  V30 15044 H 1448.51 -3.62372 0.929366 0
M  V30 15045 H 1449.84 -4.77255 1.20368 0
M  V30 15046 N 1451.49 -0.619688 -1.44906 0
M  V30 15047 C 1452.44 0.104373 -2.32366 0
M  V30 15048 C 1453.44 0.847423 -1.4668 0
M  V30 15049 O 1454.64 0.761618 -1.63093 0
M  V30 15050 H 1451.02 0.0525126 -0.750164 0
M  V30 15051 H 1452.99 -0.651525 -2.912 0
M  V30 15052 C 1451.74 1.08017 -3.30496 0
M  V30 15053 H 1451.06 0.517831 -3.96432 0
M  V30 15054 H 1452.5 1.5565 -3.94397 0
M  V30 15055 C 1450.96 2.15975 -2.58566 0
M  V30 15056 O 1451.49 3.23895 -2.37603 0
M  V30 15057 N 1449.7 1.91593 -2.18496 0
M  V30 15058 H 1449.24 1.03835 -2.35746 0
M  V30 15059 H 1449.2 2.64028 -1.70694 0
M  V30 15060 N 1452.97 1.53444 -0.359552 0
M  V30 15061 C 1454.22 2.01464 0.232366 0
M  V30 15062 C 1454.55 1.24656 1.48911 0
M  V30 15063 O 1453.83 0.338574 1.9153 0
M  V30 15064 C 1454.11 3.56172 0.530403 0
M  V30 15065 C 1453.96 4.43678 -0.739556 0
M  V30 15066 C 1455.28 4.19412 1.33347 0
M  V30 15067 H 1452.4 0.732314 0.0829802 0
M  V30 15068 H 1455.04 1.83752 -0.483253 0
M  V30 15069 H 1453.19 3.71396 1.14004 0
M  V30 15070 H 1454.86 4.40263 -1.37719 0
M  V30 15071 H 1453.11 4.11892 -1.36117 0
M  V30 15072 H 1453.78 5.49856 -0.486062 0
M  V30 15073 H 1456.25 4.07984 0.817816 0
M  V30 15074 H 1455.13 5.277 1.51075 0
M  V30 15075 H 1455.39 3.7508 2.34024 0
M  V30 15076 N 1454.45 0.0885642 1.57351 0
M  V30 15077 C 1455.4 -0.890284 2.14888 0
M  V30 15078 C 1456.39 -1.29671 1.09004 0
M  V30 15079 O 1457.6 -1.272 1.27359 0
M  V30 15080 H 1453.97 -0.305107 0.687324 0
M  V30 15081 H 1455.94 -0.380243 2.95967 0
M  V30 15082 C 1454.69 -2.14216 2.73874 0
M  V30 15083 H 1454.02 -1.8383 3.55031 0
M  V30 15084 H 1455.46 -2.8078 3.17708 0
M  V30 15085 C 1453.92 -2.91186 1.69448 0
M  V30 15086 O 1454.45 -3.85494 1.12949 0
M  V30 15087 N 1452.65 -2.54603 1.40091 0
M  V30 15088 H 1452.2 -1.77984 1.86225 0
M  V30 15089 H 1452.16 -3.06403 0.704577 0
M  V30 15090 N 1455.93 -1.56509 -0.185096 0
M  V30 15091 C 1457.18 -1.804 -0.902158 0
M  V30 15092 C 1457.49 -0.663496 -1.84003 0
M  V30 15093 O 1458.7 -0.786963 -2.59844 0
M  V30 15094 C 1457.15 -3.19608 -1.65466 0
M  V30 15095 C 1456.76 -4.41487 -0.761109 0
M  V30 15096 C 1458.5 -3.52801 -2.36076 0
M  V30 15097 C 1456.41 -5.71717 -1.51305 0
M  V30 15098 H 1455.34 -0.67268 -0.340614 0
M  V30 15099 H 1457.99 -1.82842 -0.155273 0
M  V30 15100 H 1456.37 -3.11443 -2.44579 0
M  V30 15101 H 1457.55 -4.60799 -0.00791878 0
M  V30 15102 H 1455.86 -4.16072 -0.165344 0
M  V30 15103 H 1458.46 -4.47339 -2.92902 0
M  V30 15104 H 1458.8 -2.77021 -3.10749 0
M  V30 15105 H 1459.34 -3.62457 -1.63919 0
M  V30 15106 H 1456.08 -6.5049 -0.808907 0
M  V30 15107 H 1455.6 -5.56406 -2.23992 0
M  V30 15108 H 1457.27 -6.13188 -2.0642 0
M  V30 15109 N 1457.41 0.45317 -1.50944 0
M  V30 15110 C 1458.34 1.55655 -1.74051 0
M  V30 15111 C 1459.32 1.59545 -0.58987 0
M  V30 15112 O 1460.5 1.75526 -0.830922 0
M  V30 15113 C 1457.63 2.93857 -1.85109 0
M  V30 15114 C 1456.59 3.04832 -3.00435 0
M  V30 15115 C 1455.91 4.44858 -2.96657 0
M  V30 15116 C 1457.21 2.80381 -4.40663 0
M  V30 15117 H 1458.91 1.36571 -2.66437 0
M  V30 15118 H 1456.45 0.655572 -1.28212 0
M  V30 15119 H 1458.41 3.70992 -1.99857 0
M  V30 15120 H 1457.13 3.14138 -0.893579 0
M  V30 15121 H 1455.79 2.30134 -2.85366 0
M  V30 15122 H 1455.44 4.62083 -1.98716 0
M  V30 15123 H 1455.14 4.53134 -3.7409 0
M  V30 15124 H 1456.66 5.23989 -3.13478 0
M  V30 15125 H 1458.07 3.47255 -4.56165 0
M  V30 15126 H 1456.47 3.00083 -5.19683 0
M  V30 15127 H 1457.54 1.76099 -4.51793 0
M  V30 15128 N 1458.88 1.40823 0.707568 0
M  V30 15129 C 1460.13 1.39741 1.4697 0
M  V30 15130 C 1460.46 0.00231194 1.942 0
M  V30 15131 O 1459.74 -0.967798 1.68713 0
M  V30 15132 C 1460.02 2.39385 2.69011 0
M  V30 15133 C 1459.87 3.87953 2.27624 0
M  V30 15134 C 1461.19 2.3645 3.71186 0
M  V30 15135 H 1458.31 0.508904 0.533091 0
M  V30 15136 H 1460.95 1.72015 0.806888 0
M  V30 15137 H 1459.1 2.11993 3.25563 0
M  V30 15138 H 1460.78 4.26202 1.76492 0
M  V30 15139 H 1459.02 4.03399 1.59537 0
M  V30 15140 H 1459.69 4.53201 3.15139 0
M  V30 15141 H 1462.17 2.60731 3.24282 0
M  V30 15142 H 1461.04 3.08204 4.54204 0
M  V30 15143 H 1461.3 1.3789 4.20046 0
M  V30 15144 N 1460.36 -0.94061 1.26453 0
M  V30 15145 C 1461.29 -2.05667 1.10559 0
M  V30 15146 C 1462.27 -1.70097 0.0106258 0
M  V30 15147 O 1463.46 -1.93338 0.182756 0
M  V30 15148 C 1460.59 -3.3936 0.7384 0
M  V30 15149 C 1459.54 -3.88993 1.78517 0
M  V30 15150 C 1458.87 -5.19343 1.27228 0
M  V30 15151 C 1460.17 -4.13812 3.1868 0
M  V30 15152 H 1461.86 -2.19221 2.03918 0
M  V30 15153 H 1459.41 -1.05339 0.98182 0
M  V30 15154 H 1461.36 -4.16902 0.61409 0
M  V30 15155 H 1460.09 -3.25783 -0.230887 0
M  V30 15156 H 1458.74 -3.13633 1.89816 0
M  V30 15157 H 1458.39 -5.02147 0.292816 0
M  V30 15158 H 1458.09 -5.53521 1.97201 0
M  V30 15159 H 1459.62 -5.99468 1.16065 0
M  V30 15160 H 1461.03 -4.81966 3.10455 0
M  V30 15161 H 1459.43 -4.59273 3.86249 0
M  V30 15162 H 1460.5 -3.19571 3.64695 0
M  V30 15163 N 1461.84 -1.08266 -1.14527 0
M  V30 15164 C 1463.12 -0.724254 -1.81697 0
M  V30 15165 C 1463.5 0.792212 -1.95671 0
M  V30 15166 O 1462.85 1.71017 -1.51543 0
M  V30 15167 C 1463.06 -1.44949 -3.17475 0
M  V30 15168 C 1464.4 -1.60761 -3.9299 0
M  V30 15169 O 1465.43 -1.41103 -3.2706 0
M  V30 15170 O 1464.29 -1.93184 -5.11216 0
M  V30 15171 H 1461.38 -0.258814 -0.785458 0
M  V30 15172 H 1463.93 -1.18414 -1.21557 0
M  V30 15173 H 1462.7 -2.48262 -3.02459 0
M  V30 15174 H 1462.32 -0.980993 -3.85308 0
M  V30 15175 N 1463.32 1.31536 -0.86811 0
M  V30 15176 C 1464.55 2.00952 -0.492529 0
M  V30 15177 C 1464.96 1.65174 0.914487 0
M  V30 15178 O 1464.32 0.880002 1.59882 0
M  V30 15179 C 1464.37 3.55829 -0.637798 0
M  V30 15180 O 1464.09 3.90326 -1.9894 0
M  V30 15181 C 1465.59 4.42519 -0.262986 0
M  V30 15182 H 1462.81 0.642913 -0.192105 0
M  V30 15183 H 1465.36 1.6781 -1.16876 0
M  V30 15184 H 1463.51 3.87399 -0.0091406 0
M  V30 15185 H 1463.93 4.85043 -1.99583 0
M  V30 15186 H 1465.4 5.50433 -0.415591 0
M  V30 15187 H 1465.88 4.31895 0.797705 0
M  V30 15188 H 1466.48 4.16363 -0.867268 0
M  V30 15189 N 1464.8 0.627364 1.44575 0
M  V30 15190 C 1465.73 -0.118179 2.28895 0
M  V30 15191 C 1466.74 -0.812569 1.41071 0
M  V30 15192 O 1467.93 -0.674646 1.6526 0
M  V30 15193 C 1465.03 -1.18937 3.17344 0
M  V30 15194 C 1464.2 -0.578226 4.33561 0
M  V30 15195 C 1463.26 -1.54288 5.03072 0
M  V30 15196 O 1462.29 -1.06148 5.59215 0
M  V30 15197 N 1463.49 -2.87725 5.04177 0
M  V30 15198 H 1466.26 0.605442 2.93521 0
M  V30 15199 H 1463.82 0.468253 1.54981 0
M  V30 15200 H 1465.81 -1.83494 3.60711 0
M  V30 15201 H 1464.38 -1.81526 2.54494 0
M  V30 15202 H 1463.6 0.245883 3.93432 0
M  V30 15203 H 1464.89 -0.150502 5.08577 0
M  V30 15204 H 1464.29 -3.29421 4.5989 0
M  V30 15205 H 1462.84 -3.47653 5.51344 0
M  V30 15206 N 1466.28 -1.53251 0.367684 0
M  V30 15207 C 1467.52 -2.03197 -0.221396 0
M  V30 15208 C 1467.88 -1.249 -1.45822 0
M  V30 15209 O 1469.08 -1.64863 -2.12306 0
M  V30 15210 C 1467.35 -3.53827 -0.504134 0
M  V30 15211 S 1468.91 -4.2564 -1.06658 0
M  V30 15212 H 1465.73 -0.708089 -0.0642774 0
M  V30 15213 H 1468.33 -1.88703 0.511037 0
M  V30 15214 H 1467.03 -4.08412 0.403477 0
M  V30 15215 H 1466.57 -3.72487 -1.26558 0
M  V30 15216 H 1468.58 -4.36987 -2.35068 0
M  V30 15217 N 1467.75 -0.0969077 -1.57302 0
M  V30 15218 C 1468.98 0.573872 -1.9847 0
M  V30 15219 C 1469.39 1.62149 -0.974894 0
M  V30 15220 O 1468.73 1.83649 0.0434873 0
M  V30 15221 C 1468.8 1.2781 -3.36013 0
M  V30 15222 C 1468.46 0.381022 -4.55409 0
M  V30 15223 C 1469.46 -0.371559 -5.18571 0
M  V30 15224 C 1467.14 0.29855 -5.01412 0
M  V30 15225 C 1469.14 -1.19457 -6.26106 0
M  V30 15226 C 1466.82 -0.528116 -6.08814 0
M  V30 15227 C 1467.82 -1.27333 -6.71026 0
M  V30 15228 O 1467.51 -2.08631 -7.76356 0
M  V30 15229 H 1467.24 0.158369 -0.657187 0
M  V30 15230 H 1469.8 -0.173415 -2.04667 0
M  V30 15231 H 1468.03 2.07199 -3.26505 0
M  V30 15232 H 1469.71 1.84359 -3.61617 0
M  V30 15233 H 1470.48 -0.317586 -4.83959 0
M  V30 15234 H 1466.36 0.868247 -4.5275 0
M  V30 15235 H 1469.9 -1.77673 -6.74595 0
M  V30 15236 H 1465.8 -0.583563 -6.42857 0
M  V30 15237 H 1466.57 -2.01333 -7.93352 0
M  V30 15238 N 1469.23 1.56605 0.176793 0
M  V30 15239 C 1470.46 1.8617 0.91408 0
M  V30 15240 C 1470.88 0.68262 1.75277 0
M  V30 15241 O 1470.24 -0.368391 1.77518 0
M  V30 15242 C 1470.29 3.14109 1.7711 0
M  V30 15243 O 1469.39 2.95947 2.87209 0
M  V30 15244 H 1468.73 0.612507 0.25638 0
M  V30 15245 H 1471.26 2.03837 0.176586 0
M  V30 15246 H 1471.27 3.45373 2.17213 0
M  V30 15247 H 1469.95 3.9954 1.15502 0
M  V30 15248 H 1468.52 2.76024 2.50729 0
M  V30 15249 N 1470.71 -0.445159 1.51182 0
M  V30 15250 C 1471.66 -1.5604 1.72494 0
M  V30 15251 C 1472.65 -1.58753 0.591101 0
M  V30 15252 O 1473.86 -1.62591 0.772285 0
M  V30 15253 H 1470.23 -0.518265 0.544891 0
M  V30 15254 H 1472.2 -1.35237 2.65995 0
M  V30 15255 C 1470.95 -2.93768 1.85999 0
M  V30 15256 H 1470.28 -2.9241 2.72647 0
M  V30 15257 H 1471.72 -3.71189 2.04926 0
M  V30 15258 C 1470.17 -3.31186 0.617853 0
M  V30 15259 O 1470.7 -4.01035 -0.231101 0
M  V30 15260 N 1468.91 -2.86868 0.464234 0
M  V30 15261 H 1468.46 -2.30198 1.15614 0
M  V30 15262 H 1468.42 -3.12267 -0.365643 0
M  V30 15263 N 1472.19 -1.41197 -0.700089 0
M  V30 15264 C 1473.42 -1.43658 -1.48896 0
M  V30 15265 C 1473.83 -0.0405771 -1.88756 0
M  V30 15266 O 1473.19 0.93909 -1.56484 0
M  V30 15267 C 1473.24 -2.34125 -2.75441 0
M  V30 15268 O 1472.96 -3.68291 -2.37261 0
M  V30 15269 C 1474.46 -2.45342 -3.69218 0
M  V30 15270 H 1471.68 -0.48945 -0.458999 0
M  V30 15271 H 1474.22 -1.85429 -0.862345 0
M  V30 15272 H 1472.38 -1.95674 -3.34351 0
M  V30 15273 H 1472.79 -4.16495 -3.18798 0
M  V30 15274 H 1474.27 -3.12818 -4.54807 0
M  V30 15275 H 1474.74 -1.48327 -4.13395 0
M  V30 15276 H 1475.35 -2.84409 -3.16214 0
M  V30 15277 N 1473.67 0.933891 -1.2695 0
M  V30 15278 C 1474.91 1.67759 -1.12701 0
M  V30 15279 C 1475.23 1.92207 0.328848 0
M  V30 15280 O 1474.5 1.52394 1.23097 0
M  V30 15281 H 1473.08 0.621729 -0.41408 0
M  V30 15282 H 1475.75 1.1217 -1.59386 0
M  V30 15283 H 1474.84 2.64834 -1.65135 0
M  V30 15284 N 1475.14 1.08871 1.13951 0
M  V30 15285 C 1476.39 0.819665 1.84732 0
M  V30 15286 C 1476.71 -0.656535 1.83615 0
M  V30 15287 O 1475.98 -1.47614 1.28791 0
M  V30 15288 H 1474.56 0.30023 0.684011 0
M  V30 15289 H 1477.22 1.37568 1.38062 0
M  V30 15290 H 1476.32 1.16809 2.89417 0
M  V30 15291 N 1476.62 -1.31073 0.875073 0
M  V30 15292 C 1477.55 -2.27335 0.291809 0
M  V30 15293 C 1478.57 -1.53298 -0.548036 0
M  V30 15294 O 1479.76 -1.7464 -0.369198 0
M  V30 15295 C 1476.86 -3.33465 -0.604521 0
M  V30 15296 C 1476.03 -4.36924 0.204029 0
M  V30 15297 C 1475.09 -5.2252 -0.621238 0
M  V30 15298 O 1474.11 -5.6918 -0.0474551 0
M  V30 15299 N 1475.32 -5.47397 -1.93227 0
M  V30 15300 H 1478.08 -2.78024 1.11906 0
M  V30 15301 H 1475.64 -1.44149 0.737064 0
M  V30 15302 H 1477.63 -3.87646 -1.16243 0
M  V30 15303 H 1476.2 -2.8278 -1.33244 0
M  V30 15304 H 1475.42 -3.82745 0.943389 0
M  V30 15305 H 1476.71 -5.03112 0.758644 0
M  V30 15306 H 1476.11 -5.11253 -2.4215 0
M  V30 15307 H 1474.67 -6.04493 -2.43785 0
M  V30 15308 N 1478.1 -0.635022 -1.4424 0
M  V30 15309 C 1479.06 0.0579377 -2.29127 0
M  V30 15310 C 1480.06 0.768489 -1.41248 0
M  V30 15311 O 1481.25 0.612489 -1.63077 0
M  V30 15312 C 1478.39 1.09266 -3.22914 0
M  V30 15313 H 1479.58 -0.688723 -2.91885 0
M  V30 15314 H 1477.13 -0.395347 -1.51217 0
M  V30 15315 H 1477.87 1.86917 -2.65014 0
M  V30 15316 H 1477.65 0.587036 -3.87681 0
M  V30 15317 H 1479.14 1.57716 -3.86672 0
M  V30 15318 N 1479.58 1.53054 -0.375806 0
M  V30 15319 C 1480.8 2.06296 0.213708 0
M  V30 15320 C 1481.23 1.24675 1.40846 0
M  V30 15321 O 1480.59 0.268371 1.79303 0
M  V30 15322 C 1480.63 3.55981 0.575301 0
M  V30 15323 O 1479.74 3.77023 1.67115 0
M  V30 15324 H 1479.08 0.66338 0.0286922 0
M  V30 15325 H 1481.61 1.97362 -0.539371 0
M  V30 15326 H 1481.62 3.99187 0.843431 0
M  V30 15327 H 1480.29 4.14829 -0.298258 0
M  V30 15328 H 1478.87 3.45712 1.39778 0
M  V30 15329 N 1481.06 0.105248 1.57248 0
M  V30 15330 C 1482 -0.850012 2.14577 0
M  V30 15331 C 1482.97 -1.27294 1.06703 0
M  V30 15332 O 1484.16 -1.35289 1.34542 0
M  V30 15333 C 1481.3 -2.09993 2.73856 0
M  V30 15334 C 1480.41 -1.72662 3.95995 0
M  V30 15335 C 1479.55 -2.92517 4.43404 0
M  V30 15336 C 1478.59 -2.5136 5.58108 0
M  V30 15337 N 1477.72 -3.64082 6.00324 0
M  V30 15338 H 1482.56 -0.354282 2.95887 0
M  V30 15339 H 1480.1 -0.163192 1.46192 0
M  V30 15340 H 1482.06 -2.83208 3.06348 0
M  V30 15341 H 1480.69 -2.57048 1.95259 0
M  V30 15342 H 1479.74 -0.893754 3.69752 0
M  V30 15343 H 1481.05 -1.38406 4.79213 0
M  V30 15344 H 1480.21 -3.73973 4.77734 0
M  V30 15345 H 1478.94 -3.2999 3.59107 0
M  V30 15346 H 1477.95 -1.68333 5.23397 0
M  V30 15347 H 1479.17 -2.15019 6.44161 0
M  V30 15348 H 1477.12 -4.01255 5.18971 0
M  V30 15349 H 1477.04 -3.33705 6.78363 0
M  V30 15350 H 1478.31 -4.46019 6.39287 0
M  V30 15351 N 1482.53 -1.56697 -0.168486 0
M  V30 15352 C 1483.5 -1.95744 -1.19235 0
M  V30 15353 C 1484.5 -0.841419 -1.37028 0
M  V30 15354 O 1485.69 -1.10842 -1.34386 0
M  V30 15355 C 1482.82 -2.25471 -2.55686 0
M  V30 15356 H 1484.01 -2.87368 -0.857892 0
M  V30 15357 H 1481.57 -1.50798 -0.411041 0
M  V30 15358 H 1482.3 -1.36571 -2.94141 0
M  V30 15359 H 1482.09 -3.06822 -2.44137 0
M  V30 15360 H 1483.58 -2.56593 -3.29469 0
M  V30 15361 N 1484.01 0.437135 -1.51416 0
M  V30 15362 C 1485.24 1.20898 -1.67903 0
M  V30 15363 C 1485.66 1.85009 -0.376458 0
M  V30 15364 O 1485.01 1.7072 0.645051 0
M  V30 15365 C 1485.06 2.29286 -2.79482 0
M  V30 15366 O 1484.78 1.67798 -4.04692 0
M  V30 15367 C 1486.29 3.19561 -3.07238 0
M  V30 15368 H 1483.51 0.364381 -0.563442 0
M  V30 15369 H 1486.05 0.517931 -1.97833 0
M  V30 15370 H 1484.2 2.94107 -2.5215 0
M  V30 15371 H 1484.62 2.39433 -4.6666 0
M  V30 15372 H 1486.09 3.91748 -3.88893 0
M  V30 15373 H 1486.57 3.80327 -2.19654 0
M  V30 15374 H 1487.18 2.60441 -3.3623 0
M  V30 15375 N 1485.49 1.41566 0.692592 0
M  V30 15376 C 1486.9 1.36606 1.27262 0
M  V30 15377 C 1487.25 0.0506082 1.96135 0
M  V30 15378 O 1486.38 -0.851071 1.98962 0
M  V30 15379 C 1486.97 2.47434 2.31434 0
M  V30 15380 C 1485.53 2.45863 2.85006 0
M  V30 15381 C 1484.68 2.2713 1.59083 0
M  V30 15382 H 1487.63 1.51038 0.487149 0
M  V30 15383 H 1487.65 2.16663 3.12789 0
M  V30 15384 H 1487.16 3.43161 1.81278 0
M  V30 15385 H 1485.26 1.53901 3.3933 0
M  V30 15386 H 1485.38 3.42279 3.35234 0
M  V30 15387 H 1483.74 1.75061 1.85002 0
M  V30 15388 H 1484.52 3.24887 1.10919 0
M  V30 15389 N 1486.97 -0.927146 1.27443 0
M  V30 15390 C 1487.9 -2.04483 1.12735 0
M  V30 15391 C 1488.88 -1.70076 0.0286662 0
M  V30 15392 O 1490.06 -1.93133 0.203252 0
M  V30 15393 C 1487.19 -3.38557 0.774352 0
M  V30 15394 C 1486.15 -3.87078 1.82632 0
M  V30 15395 C 1485.47 -5.17964 1.32729 0
M  V30 15396 C 1486.77 -4.10409 3.23051 0
M  V30 15397 H 1488.47 -2.17046 2.06231 0
M  V30 15398 H 1486.01 -1.04292 0.992937 0
M  V30 15399 H 1487.97 -4.16227 0.658273 0
M  V30 15400 H 1486.69 -3.26009 -0.196321 0
M  V30 15401 H 1485.35 -3.11602 1.93132 0
M  V30 15402 H 1485 -5.01808 0.346059 0
M  V30 15403 H 1484.7 -5.51398 2.03061 0
M  V30 15404 H 1486.22 -5.98203 1.22416 0
M  V30 15405 H 1487.64 -4.78646 3.15549 0
M  V30 15406 H 1486.03 -4.5515 3.91099 0
M  V30 15407 H 1487.1 -3.15685 3.68064 0
M  V30 15408 N 1488.45 -1.09474 -1.13372 0
M  V30 15409 C 1489.69 -0.82945 -1.84295 0
M  V30 15410 C 1490.02 0.646788 -1.83961 0
M  V30 15411 O 1489.29 1.46929 -1.29572 0
M  V30 15412 H 1487.87 -0.303853 -0.682409 0
M  V30 15413 H 1490.53 -1.38298 -1.3733 0
M  V30 15414 H 1489.62 -1.18342 -2.88793 0
M  V30 15415 N 1489.92 1.30607 -0.882012 0
M  V30 15416 C 1490.89 2.26489 -0.351498 0
M  V30 15417 C 1491.89 1.52686 0.504348 0
M  V30 15418 O 1493.08 1.71385 0.311928 0
M  V30 15419 C 1490.21 3.37222 0.499435 0
M  V30 15420 H 1491.4 2.74929 -1.19809 0
M  V30 15421 H 1488.96 1.41746 -0.658616 0
M  V30 15422 H 1489.69 2.94093 1.36673 0
M  V30 15423 H 1489.48 3.91936 -0.11356 0
M  V30 15424 H 1490.97 4.08596 0.862497 0
M  V30 15425 N 1491.4 0.642663 1.43901 0
M  V30 15426 C 1492.65 0.152003 2.0223 0
M  V30 15427 C 1492.98 -1.22711 1.50518 0
M  V30 15428 O 1492.26 -1.817 0.693937 0
M  V30 15429 C 1492.54 0.151278 3.59782 0
M  V30 15430 C 1492.39 1.56356 4.2175 0
M  V30 15431 C 1493.71 -0.518016 4.37041 0
M  V30 15432 H 1490.83 0.0567094 0.734815 0
M  V30 15433 H 1493.47 0.821337 1.7133 0
M  V30 15434 H 1491.62 -0.418679 3.86237 0
M  V30 15435 H 1493.29 2.18329 4.06362 0
M  V30 15436 H 1491.54 2.11401 3.78803 0
M  V30 15437 H 1492.21 1.51499 5.30803 0
M  V30 15438 H 1494.68 -0.0331947 4.16087 0
M  V30 15439 H 1493.56 -0.487754 5.46729 0
M  V30 15440 H 1493.82 -1.59036 4.12504 0
M  V30 15441 N 1492.88 -1.52852 0.383918 0
M  V30 15442 C 1494.11 -2.05929 -0.200216 0
M  V30 15443 C 1494.52 -1.25606 -1.40956 0
M  V30 15444 O 1493.88 -0.301336 -1.79995 0
M  V30 15445 C 1493.93 -3.56887 -0.575655 0
M  V30 15446 O 1493.65 -4.34168 0.58564 0
M  V30 15447 C 1495.15 -4.2629 -1.21623 0
M  V30 15448 H 1492.37 -0.670261 -0.0314727 0
M  V30 15449 H 1494.92 -1.97032 0.547591 0
M  V30 15450 H 1493.07 -3.65875 -1.27336 0
M  V30 15451 H 1493.49 -5.23761 0.278267 0
M  V30 15452 H 1494.96 -5.33174 -1.42933 0
M  V30 15453 H 1495.44 -3.81163 -2.182 0
M  V30 15454 H 1496.04 -4.21605 -0.559435 0
M  V30 15455 N 1494.36 -0.113586 -1.5719 0
M  V30 15456 C 1495.31 0.83862 -2.15025 0
M  V30 15457 C 1496.28 1.26726 -1.07376 0
M  V30 15458 O 1497.46 1.34574 -1.35257 0
M  V30 15459 C 1494.6 2.08538 -2.74965 0
M  V30 15460 C 1493.71 1.70559 -3.96905 0
M  V30 15461 C 1492.85 2.90161 -4.44949 0
M  V30 15462 C 1491.89 2.48396 -5.59433 0
M  V30 15463 N 1491.03 3.60894 -6.02246 0
M  V30 15464 H 1495.87 0.338585 -2.9607 0
M  V30 15465 H 1493.4 0.155437 -1.46276 0
M  V30 15466 H 1495.36 2.81579 -3.07846 0
M  V30 15467 H 1493.99 2.56009 -1.96619 0
M  V30 15468 H 1493.04 0.874133 -3.7022 0
M  V30 15469 H 1494.35 1.35863 -4.7994 0
M  V30 15470 H 1493.51 3.71434 -4.7971 0
M  V30 15471 H 1492.25 3.28081 -3.60852 0
M  V30 15472 H 1491.25 1.65555 -5.24282 0
M  V30 15473 H 1492.48 2.116 -6.45292 0
M  V30 15474 H 1490.42 3.98497 -5.21091 0
M  V30 15475 H 1490.34 3.30103 -6.80124 0
M  V30 15476 H 1491.61 4.42622 -6.41643 0
M  V30 15477 N 1495.84 1.56784 0.160173 0
M  V30 15478 C 1497.08 1.82621 0.874982 0
M  V30 15479 C 1497.41 0.692427 1.81757 0
M  V30 15480 O 1496.67 -0.319535 1.93074 0
M  V30 15481 C 1496.97 3.14703 1.69402 0
M  V30 15482 C 1496.63 4.41839 0.899373 0
M  V30 15483 C 1495.29 4.7637 0.680099 0
M  V30 15484 C 1497.65 5.20072 0.342747 0
M  V30 15485 C 1494.97 5.86603 -0.106723 0
M  V30 15486 C 1497.33 6.3113 -0.431044 0
M  V30 15487 C 1495.99 6.64219 -0.661017 0
M  V30 15488 H 1495.26 0.668256 0.320178 0
M  V30 15489 H 1497.91 1.90993 0.139305 0
M  V30 15490 H 1496.21 3.01723 2.49941 0
M  V30 15491 H 1497.91 3.31906 2.25032 0
M  V30 15492 H 1494.5 4.14761 1.08033 0
M  V30 15493 H 1498.68 4.9378 0.499467 0
M  V30 15494 H 1493.94 6.1069 -0.294528 0
M  V30 15495 H 1498.11 6.9095 -0.869557 0
M  V30 15496 H 1495.74 7.49473 -1.27257 0
M  V30 15497 N 1497.32 -0.429099 1.51646 0
M  V30 15498 C 1498.56 -1.17551 1.64396 0
M  V30 15499 C 1498.88 -1.91526 0.366444 0
M  V30 15500 O 1498.15 -1.85896 -0.618013 0
M  V30 15501 H 1496.73 -0.436918 0.605898 0
M  V30 15502 H 1499.4 -0.491159 1.8861 0
M  V30 15503 H 1498.49 -1.90057 2.47557 0
M  V30 15504 N 1498.79 -1.41931 -0.685074 0
M  V30 15505 C 1499.7 -1.46985 -1.82846 0
M  V30 15506 C 1500.72 -0.359487 -1.70246 0
M  V30 15507 O 1501.9 -0.608824 -1.91977 0
M  V30 15508 C 1498.96 -1.36001 -3.18912 0
M  V30 15509 C 1498.02 -2.57442 -3.43543 0
M  V30 15510 C 1497.25 -2.46972 -4.73118 0
M  V30 15511 O 1497.48 -1.49999 -5.50324 0
M  V30 15512 O 1496.41 -3.36922 -4.98766 0
M  V30 15513 H 1500.24 -2.4347 -1.81538 0
M  V30 15514 H 1497.82 -1.23583 -0.839497 0
M  V30 15515 H 1499.7 -1.32198 -4.00127 0
M  V30 15516 H 1498.38 -0.426366 -3.2088 0
M  V30 15517 H 1497.29 -2.66821 -2.62217 0
M  V30 15518 H 1498.62 -3.49671 -3.46398 0
M  V30 15519 N 1500.27 0.920374 -1.27933 0
M  V30 15520 C 1501.22 2.00832 -1.07937 0
M  V30 15521 C 1502.21 1.60899 -0.005079 0
M  V30 15522 O 1503.4 1.75571 -0.224461 0
M  V30 15523 C 1500.53 3.35311 -0.736301 0
M  V30 15524 C 1499.61 3.81666 -1.8491 0
M  V30 15525 N 1500 4.00458 -3.08977 0
M  V30 15526 C 1498.3 4.10766 -1.73745 0
M  V30 15527 C 1499 4.39178 -3.81441 0
M  V30 15528 N 1497.98 4.47064 -3.09249 0
M  V30 15529 H 1501.78 2.13402 -2.02081 0
M  V30 15530 H 1499.29 1.10774 -1.18755 0
M  V30 15531 H 1501.29 4.12928 -0.574144 0
M  V30 15532 H 1499.95 3.24099 0.197437 0
M  V30 15533 H 1500.96 3.86562 -3.4466 0
M  V30 15534 H 1497.64 4.08227 -0.875042 0
M  V30 15535 H 1499.03 4.61736 -4.88109 0
M  V30 15536 N 1501.75 1.10074 1.1279 0
M  V30 15537 C 1503 0.839212 1.83852 0
M  V30 15538 C 1503.32 -0.637023 1.84301 0
M  V30 15539 O 1502.59 -1.46239 1.30349 0
M  V30 15540 H 1501.17 0.307468 0.680788 0
M  V30 15541 H 1503.83 1.39025 1.36595 0
M  V30 15542 H 1502.93 1.19872 2.88162 0
M  V30 15543 N 1503.23 -1.30138 0.888926 0
M  V30 15544 C 1504.17 -2.28023 0.356923 0
M  V30 15545 C 1505.14 -1.56551 -0.555066 0
M  V30 15546 O 1506.33 -1.84595 -0.482633 0
M  V30 15547 C 1503.47 -3.42546 -0.419056 0
M  V30 15548 C 1502.58 -4.28827 0.5226 0
M  V30 15549 C 1501.72 -5.30517 -0.269366 0
M  V30 15550 C 1500.76 -6.08449 0.667507 0
M  V30 15551 N 1499.89 -7.02043 -0.08938 0
M  V30 15552 H 1504.73 -2.72912 1.19678 0
M  V30 15553 H 1502.27 -1.34239 0.60152 0
M  V30 15554 H 1504.23 -4.07707 -0.884911 0
M  V30 15555 H 1502.86 -2.98716 -1.22346 0
M  V30 15556 H 1501.91 -3.63938 1.10695 0
M  V30 15557 H 1503.22 -4.83136 1.24018 0
M  V30 15558 H 1502.38 -6.01444 -0.796901 0
M  V30 15559 H 1501.12 -4.76911 -1.02014 0
M  V30 15560 H 1500.12 -5.36396 1.20664 0
M  V30 15561 H 1501.35 -6.64143 1.41744 0
M  V30 15562 H 1499.29 -6.50822 -0.822622 0
M  V30 15563 H 1499.21 -7.53859 0.568499 0
M  V30 15564 H 1500.48 -7.77206 -0.597529 0
M  V30 15565 N 1504.71 -0.650285 -1.43559 0
M  V30 15566 C 1506.12 -0.317586 -1.56408 0
M  V30 15567 C 1506.32 1.17844 -1.63447 0
M  V30 15568 O 1505.38 1.96318 -1.58794 0
M  V30 15569 C 1506.69 -1.02636 -2.82642 0
M  V30 15570 C 1508.24 -1.00633 -2.96381 0
M  V30 15571 C 1508.71 -1.69595 -4.25443 0
M  V30 15572 N 1510.2 -1.66345 -4.323 0
M  V30 15573 C 1510.94 -2.16581 -5.30924 0
M  V30 15574 N 1510.44 -2.75092 -6.35843 0
M  V30 15575 N 1512.23 -2.07098 -5.22558 0
M  V30 15576 H 1504.38 -1.62114 -1.37233 0
M  V30 15577 H 1506.64 -0.681588 -0.658895 0
M  V30 15578 H 1506.35 -2.08146 -2.83493 0
M  V30 15579 H 1506.22 -0.576081 -3.72775 0
M  V30 15580 H 1508.61 0.0403519 -2.95072 0
M  V30 15581 H 1508.69 -1.49528 -2.07545 0
M  V30 15582 H 1508.33 -2.74218 -4.27512 0
M  V30 15583 H 1508.26 -1.18168 -5.1317 0
M  V30 15584 H 1510.76 -1.23644 -3.571 0
M  V30 15585 H 1511.07 -3.11108 -7.07412 0
M  V30 15586 H 1509.41 -2.79152 -6.36474 0
M  V30 15587 H 1512.6 -1.61093 -4.39507 0
M  V30 15588 H 1512.78 -2.46557 -5.99261 0
M  V30 15589 N 1506.18 1.52647 -0.392018 0
M  V30 15590 C 1507.13 2.26532 0.441819 0
M  V30 15591 C 1508.1 1.2825 1.05552 0
M  V30 15592 O 1509.29 1.57083 1.08303 0
M  V30 15593 C 1506.43 3.0774 1.56174 0
M  V30 15594 C 1505.54 4.20955 0.970632 0
M  V30 15595 C 1504.67 4.89553 2.06183 0
M  V30 15596 C 1503.71 5.94756 1.44676 0
M  V30 15597 N 1502.85 6.5694 2.47738 0
M  V30 15598 H 1507.69 2.97363 -0.194699 0
M  V30 15599 H 1505.23 1.46704 -0.107848 0
M  V30 15600 H 1507.18 3.53116 2.22183 0
M  V30 15601 H 1505.81 2.39112 2.16853 0
M  V30 15602 H 1504.87 3.79874 0.200067 0
M  V30 15603 H 1506.18 4.96474 0.481181 0
M  V30 15604 H 1505.33 5.38247 2.79956 0
M  V30 15605 H 1504.07 4.13564 2.58488 0
M  V30 15606 H 1503.08 5.45399 0.694288 0
M  V30 15607 H 1504.3 6.72679 0.931617 0
M  V30 15608 H 1502.25 5.8379 2.99208 0
M  V30 15609 H 1502.16 7.2808 2.03556 0
M  V30 15610 H 1503.43 7.10277 3.21133 0
M  V30 15611 N 1507.66 0.121921 1.57128 0
M  V30 15612 C 1508.63 -0.812905 2.143 0
M  V30 15613 C 1509.63 -1.19261 1.07858 0
M  V30 15614 O 1510.82 -1.11764 1.33621 0
M  V30 15615 C 1507.95 -2.09969 2.68562 0
M  V30 15616 H 1509.14 -0.315992 2.98231 0
M  V30 15617 H 1506.69 -0.12734 1.5578 0
M  V30 15618 H 1507.43 -2.64085 1.88228 0
M  V30 15619 H 1507.21 -1.83688 3.46412 0
M  V30 15620 H 1508.7 -2.76788 3.12695 0
M  V30 15621 N 1509.14 -1.56867 -0.151857 0
M  V30 15622 C 1510.56 -1.51422 -0.504328 0
M  V30 15623 C 1510.76 -0.829524 -1.83633 0
M  V30 15624 O 1509.81 -0.398018 -2.49343 0
M  V30 15625 C 1511.13 -2.96185 -0.519117 0
M  V30 15626 C 1512.67 -3.07098 -0.60497 0
M  V30 15627 C 1513.15 -4.53357 -0.650468 0
M  V30 15628 N 1514.64 -4.57682 -0.712825 0
M  V30 15629 C 1515.37 -5.68221 -0.768931 0
M  V30 15630 N 1514.87 -6.88342 -0.784678 0
M  V30 15631 N 1516.66 -5.56241 -0.809441 0
M  V30 15632 H 1508.81 -1.99777 0.721316 0
M  V30 15633 H 1511.08 -0.910951 0.262436 0
M  V30 15634 H 1510.78 -3.49516 0.391315 0
M  V30 15635 H 1510.66 -3.51877 -1.35876 0
M  V30 15636 H 1513.04 -2.53789 -1.50582 0
M  V30 15637 H 1513.13 -2.54458 0.261722 0
M  V30 15638 H 1512.77 -5.07303 0.246207 0
M  V30 15639 H 1512.7 -5.03775 -1.53358 0
M  V30 15640 H 1515.19 -3.71206 -0.708151 0
M  V30 15641 H 1515.5 -7.68339 -0.829202 0
M  V30 15642 H 1513.85 -6.90913 -0.752634 0
M  V30 15643 H 1517.04 -4.61312 -0.794274 0
M  V30 15644 H 1517.21 -6.42405 -0.849701 0
M  V30 15645 N 1510.62 0.421051 -1.51871 0
M  V30 15646 C 1511.57 1.5122 -1.74359 0
M  V30 15647 C 1512.54 1.55432 -0.585667 0
M  V30 15648 O 1513.72 1.7219 -0.821912 0
M  V30 15649 C 1510.86 2.88787 -1.88935 0
M  V30 15650 C 1509.97 2.93977 -3.16546 0
M  V30 15651 C 1509.11 4.22768 -3.21622 0
M  V30 15652 C 1508.15 4.21888 -4.43483 0
M  V30 15653 N 1507.28 5.4223 -4.46017 0
M  V30 15654 H 1512.12 1.31348 -2.67492 0
M  V30 15655 H 1509.66 0.637779 -1.32555 0
M  V30 15656 H 1511.62 3.68629 -1.95368 0
M  V30 15657 H 1510.25 3.07181 -0.991942 0
M  V30 15658 H 1509.3 2.06699 -3.19343 0
M  V30 15659 H 1510.61 2.8919 -4.06412 0
M  V30 15660 H 1509.77 5.10995 -3.27061 0
M  V30 15661 H 1508.51 4.30234 -2.29674 0
M  V30 15662 H 1507.51 3.32052 -4.38202 0
M  V30 15663 H 1508.74 4.16072 -5.36713 0
M  V30 15664 H 1506.68 5.50386 -3.56947 0
M  V30 15665 H 1506.6 5.39389 -5.29713 0
M  V30 15666 H 1507.87 6.32443 -4.55671 0
M  V30 15667 N 1512.1 1.42293 0.677538 0
M  V30 15668 C 1513.37 1.331 1.43331 0
M  V30 15669 C 1513.75 -0.0329227 2.11074 0
M  V30 15670 O 1513.1 -1.04826 2.03036 0
M  V30 15671 C 1513.31 2.49725 2.438 0
M  V30 15672 C 1514.66 2.91716 3.08524 0
M  V30 15673 O 1515.68 2.49596 2.54127 0
M  V30 15674 O 1514.54 3.64609 4.07091 0
M  V30 15675 H 1511.64 0.524758 0.639185 0
M  V30 15676 H 1514.18 1.54294 0.706493 0
M  V30 15677 H 1512.95 3.40663 1.92522 0
M  V30 15678 H 1512.58 2.30503 3.23966 0
M  V30 15679 N 1513.57 -0.913576 1.28419 0
M  V30 15680 C 1514.5 -2.03275 1.14897 0
M  V30 15681 C 1515.49 -1.70036 0.0467034 0
M  V30 15682 O 1516.67 -1.92907 0.223725 0
M  V30 15683 C 1513.8 -3.37717 0.810217 0
M  V30 15684 C 1512.75 -3.85119 1.86728 0
M  V30 15685 C 1512.08 -5.16527 1.38215 0
M  V30 15686 C 1513.38 -4.06959 3.27386 0
M  V30 15687 H 1515.07 -2.14847 2.08522 0
M  V30 15688 H 1512.62 -1.03233 1.00394 0
M  V30 15689 H 1514.57 -4.15505 0.702382 0
M  V30 15690 H 1513.3 -3.26199 -0.161732 0
M  V30 15691 H 1511.96 -3.09536 1.96426 0
M  V30 15692 H 1511.6 -5.01413 0.399263 0
M  V30 15693 H 1511.3 -5.49213 2.08898 0
M  V30 15694 H 1512.83 -5.96871 1.28754 0
M  V30 15695 H 1514.24 -4.75272 3.20608 0
M  V30 15696 H 1512.64 -4.50977 3.95904 0
M  V30 15697 H 1513.71 -3.11764 3.71391 0
M  V30 15698 N 1515.05 -1.1067 -1.12204 0
M  V30 15699 C 1516.3 -0.84895 -1.83405 0
M  V30 15700 C 1516.62 0.62724 -1.84637 0
M  V30 15701 O 1515.89 1.45546 -1.31123 0
M  V30 15702 H 1514.47 -0.311074 -0.679148 0
M  V30 15703 H 1517.13 -1.39747 -1.35856 0
M  V30 15704 H 1516.23 -1.21398 -2.87522 0
M  V30 15705 N 1516.53 1.29665 -0.895815 0
M  V30 15706 C 1517.78 1.96006 -0.520522 0
M  V30 15707 C 1518.11 1.7048 0.930068 0
M  V30 15708 O 1517.38 1.01558 1.6588 0
M  V30 15709 C 1517.67 3.50897 -0.808925 0
M  V30 15710 C 1517.52 3.85896 -2.31093 0
M  V30 15711 C 1518.84 4.39125 -0.292769 0
M  V30 15712 H 1515.96 0.711931 -0.190588 0
M  V30 15713 H 1518.6 1.53349 -1.12179 0
M  V30 15714 H 1516.75 3.87362 -0.297194 0
M  V30 15715 H 1518.42 3.59397 -2.89191 0
M  V30 15716 H 1516.67 3.33578 -2.77323 0
M  V30 15717 H 1517.34 4.93989 -2.46331 0
M  V30 15718 H 1519.81 4.0963 -0.730906 0
M  V30 15719 H 1518.69 5.46395 -0.523799 0
M  V30 15720 H 1518.95 4.34683 0.806393 0
M  V30 15721 N 1518.01 0.657889 1.43212 0
M  V30 15722 C 1519.23 0.179444 2.06622 0
M  V30 15723 C 1519.66 -1.14787 1.49015 0
M  V30 15724 O 1519.02 -1.71016 0.60192 0
M  V30 15725 C 1519.06 0.106826 3.60442 0
M  V30 15726 O 1518.17 -0.92962 4.01786 0
M  V30 15727 H 1517.51 0.0970131 0.656875 0
M  V30 15728 H 1520.04 0.902132 1.83638 0
M  V30 15729 H 1520.05 -0.07495 4.07931 0
M  V30 15730 H 1518.72 1.07574 4.01747 0
M  V30 15731 H 1517.3 -0.720255 3.65878 0
M  V30 15732 N 1519.49 -1.52437 0.400108 0
M  V30 15733 C 1520.42 -2.23219 -0.474176 0
M  V30 15734 C 1521.4 -1.23699 -1.05533 0
M  V30 15735 O 1522.58 -1.52721 -1.10492 0
M  V30 15736 C 1519.71 -2.95381 -1.65734 0
M  V30 15737 C 1518.75 -4.09258 -1.20042 0
M  V30 15738 S 1519.59 -5.3522 -0.173016 0
M  V30 15739 C 1520.74 -6.10908 -1.36171 0
M  V30 15740 H 1520.98 -2.97029 0.126865 0
M  V30 15741 H 1518.51 -1.53295 0.184353 0
M  V30 15742 H 1520.47 -3.37564 -2.33583 0
M  V30 15743 H 1519.13 -2.21231 -2.2297 0
M  V30 15744 H 1518.32 -4.5889 -2.08413 0
M  V30 15745 H 1517.92 -3.69144 -0.600704 0
M  V30 15746 H 1520.22 -6.37735 -2.28691 0
M  V30 15747 H 1521.16 -7.02279 -0.906106 0
M  V30 15748 H 1521.57 -5.41838 -1.58342 0
M  V30 15749 N 1520.96 -0.130252 -1.57061 0
M  V30 15750 C 1521.9 0.853341 -2.11644 0
M  V30 15751 C 1522.88 1.25349 -1.03568 0
M  V30 15752 O 1524.06 1.35256 -1.31294 0
M  V30 15753 C 1521.19 2.14354 -2.6224 0
M  V30 15754 C 1520.23 1.8906 -3.82307 0
M  V30 15755 S 1521.07 1.0967 -5.2415 0
M  V30 15756 C 1522.22 2.39845 -5.78122 0
M  V30 15757 H 1522.45 0.389112 -2.94743 0
M  V30 15758 H 1519.99 0.083734 -1.54173 0
M  V30 15759 H 1521.95 2.8848 -2.92044 0
M  V30 15760 H 1520.61 2.57894 -1.79303 0
M  V30 15761 H 1519.8 2.84687 -4.15896 0
M  V30 15762 H 1519.4 1.23051 -3.53178 0
M  V30 15763 H 1521.69 3.35612 -5.88533 0
M  V30 15764 H 1522.64 2.10785 -6.75999 0
M  V30 15765 H 1523.04 2.49727 -5.06257 0
M  V30 15766 N 1522.44 1.56945 0.143535 0
M  V30 15767 C 1523.38 1.93682 1.20675 0
M  V30 15768 C 1524.35 0.803117 1.41382 0
M  V30 15769 O 1525.54 1.05905 1.55937 0
M  V30 15770 C 1522.67 2.21185 2.56505 0
M  V30 15771 C 1521.71 3.43817 2.52372 0
M  V30 15772 S 1522.54 4.9726 1.98728 0
M  V30 15773 C 1523.7 5.27889 3.3628 0
M  V30 15774 H 1523.93 2.83561 0.893345 0
M  V30 15775 H 1521.47 1.50397 0.349294 0
M  V30 15776 H 1523.42 2.3771 3.3467 0
M  V30 15777 H 1522.09 1.31964 2.85034 0
M  V30 15778 H 1521.28 3.60349 3.5237 0
M  V30 15779 H 1520.88 3.26552 1.82318 0
M  V30 15780 H 1523.17 5.21568 4.32404 0
M  V30 15781 H 1524.12 6.29318 3.24598 0
M  V30 15782 H 1524.52 4.55398 3.33576 0
M  V30 15783 N 1523.92 -0.412991 1.52093 0
M  V30 15784 C 1525.15 -1.1804 1.69558 0
M  V30 15785 C 1525.56 -1.84858 0.403007 0
M  V30 15786 O 1524.9 -1.72541 -0.630506 0
M  V30 15787 C 1524.96 -2.28876 2.7723 0
M  V30 15788 C 1524.63 -1.82226 4.19098 0
M  V30 15789 C 1525.63 -1.31216 5.03069 0
M  V30 15790 C 1523.31 -1.89177 4.65314 0
M  V30 15791 C 1525.3 -0.877743 6.31328 0
M  V30 15792 C 1522.99 -1.45347 5.93563 0
M  V30 15793 C 1523.99 -0.947302 6.76399 0
M  V30 15794 O 1523.68 -0.515315 8.02247 0
M  V30 15795 H 1523.41 -0.360882 0.571612 0
M  V30 15796 H 1525.96 -0.492521 1.99408 0
M  V30 15797 H 1524.19 -3.01015 2.42748 0
M  V30 15798 H 1525.88 -2.9065 2.83333 0
M  V30 15799 H 1526.65 -1.25221 4.68556 0
M  V30 15800 H 1522.53 -2.27518 4.00945 0
M  V30 15801 H 1526.07 -0.481977 6.95933 0
M  V30 15802 H 1521.97 -1.51019 6.27585 0
M  V30 15803 H 1522.74 -0.638973 8.16002 0
M  V30 15804 N 1525.4 -1.4265 -0.669982 0
M  V30 15805 C 1526.65 -1.43093 -1.42719 0
M  V30 15806 C 1526.97 -0.0501228 -1.94936 0
M  V30 15807 O 1526.24 0.912077 -1.73372 0
M  V30 15808 H 1524.82 -0.526785 -0.529628 0
M  V30 15809 H 1527.48 -1.78113 -0.791324 0
M  V30 15810 H 1526.58 -2.13357 -2.27783 0
M  V30 15811 N 1526.88 0.906753 -1.28902 0
M  V30 15812 C 1527.83 1.99676 -1.10061 0
M  V30 15813 C 1528.81 1.60885 -0.0221442 0
M  V30 15814 O 1530 1.75323 -0.24307 0
M  V30 15815 C 1527.13 3.34511 -0.771823 0
M  V30 15816 C 1526.22 3.79683 -1.88948 0
M  V30 15817 N 1526.61 3.97159 -3.13207 0
M  V30 15818 C 1524.91 4.089 -1.78092 0
M  V30 15819 C 1525.61 4.35108 -3.86078 0
M  V30 15820 N 1524.58 4.43759 -3.13973 0
M  V30 15821 H 1528.39 2.11247 -2.04333 0
M  V30 15822 H 1525.9 1.09508 -1.19924 0
M  V30 15823 H 1527.9 4.12295 -0.617909 0
M  V30 15824 H 1526.56 3.2429 0.16305 0
M  V30 15825 H 1527.57 3.82884 -3.4874 0
M  V30 15826 H 1524.25 4.07276 -0.918291 0
M  V30 15827 H 1525.64 4.56533 -4.92978 0
M  V30 15828 N 1528.36 1.11264 1.11616 0
M  V30 15829 C 1529.6 0.861639 1.83585 0
M  V30 15830 C 1529.93 -0.611221 1.8433 0
M  V30 15831 O 1529.21 -1.45116 1.29505 0
M  V30 15832 C 1529.49 1.42157 3.30852 0
M  V30 15833 C 1529.35 2.96192 3.38512 0
M  V30 15834 C 1530.66 1.07099 4.2687 0
M  V30 15835 H 1527.78 0.314464 0.666545 0
M  V30 15836 H 1530.43 1.37722 1.30892 0
M  V30 15837 H 1528.58 0.983054 3.75857 0
M  V30 15838 H 1530.25 3.48634 3.0208 0
M  V30 15839 H 1528.49 3.32353 2.7879 0
M  V30 15840 H 1529.16 3.30457 4.42156 0
M  V30 15841 H 1531.64 1.44952 3.90036 0
M  V30 15842 H 1530.51 1.48957 5.28302 0
M  V30 15843 H 1530.77 -0.018482 4.42096 0
M  V30 15844 N 1529.83 -1.29188 0.902679 0
M  V30 15845 C 1531.06 -1.99286 0.544844 0
M  V30 15846 C 1531.47 -1.67721 -0.875572 0
M  V30 15847 O 1530.81 -0.920207 -1.5899 0
M  V30 15848 C 1530.88 -3.53374 0.660849 0
M  V30 15849 C 1530.54 -4.08502 2.04878 0
M  V30 15850 C 1531.54 -4.23173 3.02028 0
M  V30 15851 C 1529.22 -4.43461 2.35897 0
M  V30 15852 C 1531.22 -4.7204 4.28318 0
M  V30 15853 C 1528.9 -4.92024 3.6243 0
M  V30 15854 C 1529.9 -5.06269 4.58455 0
M  V30 15855 O 1529.59 -5.53778 5.8274 0
M  V30 15856 H 1529.32 -0.64339 0.207427 0
M  V30 15857 H 1531.88 -1.6562 1.21487 0
M  V30 15858 H 1530.11 -3.86643 -0.066216 0
M  V30 15859 H 1531.79 -4.04701 0.311732 0
M  V30 15860 H 1532.56 -3.96449 2.79379 0
M  V30 15861 H 1528.44 -4.31631 1.61913 0
M  V30 15862 H 1531.98 -4.83074 5.03275 0
M  V30 15863 H 1527.88 -5.18186 3.84907 0
M  V30 15864 H 1528.65 -5.72086 5.85372 0
M  V30 15865 N 1531.31 -0.665475 -1.42861 0
M  V30 15866 C 1532.56 -0.184156 -2.01962 0
M  V30 15867 C 1532.89 1.20301 -1.52451 0
M  V30 15868 O 1532.17 1.80573 -0.722756 0
M  V30 15869 C 1532.45 -0.208497 -3.59496 0
M  V30 15870 C 1532.3 -1.63045 -4.19209 0
M  V30 15871 C 1533.62 0.448421 -4.3781 0
M  V30 15872 H 1530.74 -0.0683924 -0.73382 0
M  V30 15873 H 1533.38 -0.84849 -1.70002 0
M  V30 15874 H 1531.53 0.357179 -3.86855 0
M  V30 15875 H 1533.2 -2.24766 -4.02837 0
M  V30 15876 H 1531.45 -2.17401 -3.75392 0
M  V30 15877 H 1532.12 -1.59924 -5.28326 0
M  V30 15878 H 1534.59 -0.0330053 -4.16087 0
M  V30 15879 H 1533.47 0.400713 -5.47435 0
M  V30 15880 H 1533.73 1.52454 -4.14982 0
M  V30 15881 N 1532.79 1.52222 -0.408187 0
M  V30 15882 C 1533.75 2.25578 0.405851 0
M  V30 15883 C 1534.75 1.27912 0.974434 0
M  V30 15884 O 1535.94 1.51861 0.853461 0
M  V30 15885 C 1533.07 3.02532 1.57122 0
M  V30 15886 H 1534.27 2.98965 -0.23664 0
M  V30 15887 H 1531.82 1.55472 -0.160687 0
M  V30 15888 H 1532.56 2.33492 2.2506 0
M  V30 15889 H 1532.34 3.74237 1.17001 0
M  V30 15890 H 1533.83 3.58177 2.14707 0
M  V30 15891 N 1534.27 0.138579 1.5699 0
M  V30 15892 C 1535.2 -0.835134 2.13444 0
M  V30 15893 C 1536.21 -1.21657 1.08183 0
M  V30 15894 O 1537.4 -1.16211 1.35489 0
M  V30 15895 C 1534.5 -2.13086 2.63529 0
M  V30 15896 C 1533.67 -1.9181 3.931 0
M  V30 15897 C 1532.73 -3.05293 4.28582 0
M  V30 15898 O 1531.76 -2.77351 4.97056 0
M  V30 15899 N 1532.96 -4.32248 3.87482 0
M  V30 15900 H 1535.73 -0.352693 2.97617 0
M  V30 15901 H 1533.29 -0.0452536 1.61837 0
M  V30 15902 H 1535.28 -2.88036 2.84284 0
M  V30 15903 H 1533.85 -2.52619 1.84127 0
M  V30 15904 H 1533.07 -1.00943 3.81057 0
M  V30 15905 H 1534.36 -1.74923 4.77786 0
M  V30 15906 H 1533.76 -4.5782 3.32292 0
M  V30 15907 H 1532.31 -5.04006 4.13305 0
M  V30 15908 N 1535.75 -1.57019 -0.13521 0
M  V30 15909 C 1536.99 -1.83178 -0.844308 0
M  V30 15910 C 1537.31 -0.7217 -1.81799 0
M  V30 15911 O 1538.51 -0.869232 -2.57209 0
M  V30 15912 C 1536.97 -3.2471 -1.55214 0
M  V30 15913 C 1536.58 -4.43685 -0.620268 0
M  V30 15914 C 1538.32 -3.60133 -2.24732 0
M  V30 15915 C 1536.23 -5.76242 -1.3304 0
M  V30 15916 H 1535.16 -0.683175 -0.319041 0
M  V30 15917 H 1537.81 -1.83243 -0.0970242 0
M  V30 15918 H 1536.19 -3.19067 -2.34547 0
M  V30 15919 H 1537.37 -4.60591 0.138685 0
M  V30 15920 H 1535.68 -4.16387 -0.0328906 0
M  V30 15921 H 1538.28 -4.56431 -2.78522 0
M  V30 15922 H 1538.62 -2.86767 -3.01779 0
M  V30 15923 H 1539.15 -3.67489 -1.52305 0
M  V30 15924 H 1535.89 -6.52734 -0.60155 0
M  V30 15925 H 1535.41 -5.63251 -2.06176 0
M  V30 15926 H 1537.09 -6.19445 -1.86808 0
M  V30 15927 N 1537.22 0.404919 -1.52309 0
M  V30 15928 C 1538.45 1.17764 -1.70723 0
M  V30 15929 C 1538.87 1.83403 -0.417744 0
M  V30 15930 O 1538.23 1.70181 0.625157 0
M  V30 15931 C 1538.28 2.2133 -2.84685 0
M  V30 15932 O 1537.38 3.27566 -2.50548 0
M  V30 15933 H 1536.73 0.343572 -0.568203 0
M  V30 15934 H 1539.26 0.474093 -1.99031 0
M  V30 15935 H 1539.27 2.6559 -3.09719 0
M  V30 15936 H 1537.94 1.72939 -3.78239 0
M  V30 15937 H 1536.52 2.88556 -2.36199 0
M  V30 15938 N 1538.7 1.43003 0.662408 0
M  V30 15939 C 1539.63 1.50248 1.78739 0
M  V30 15940 C 1540.61 0.357934 1.66291 0
M  V30 15941 O 1541.8 0.573919 1.85526 0
M  V30 15942 C 1538.93 1.41618 3.17114 0
M  V30 15943 C 1537.88 2.54228 3.44314 0
M  V30 15944 C 1537.21 2.30653 4.82393 0
M  V30 15945 C 1538.51 3.96505 3.39972 0
M  V30 15946 H 1540.2 2.44406 1.72934 0
M  V30 15947 H 1537.75 1.17633 0.830569 0
M  V30 15948 H 1539.7 1.45293 3.9556 0
M  V30 15949 H 1538.43 0.439605 3.23628 0
M  V30 15950 H 1537.08 2.49891 2.68235 0
M  V30 15951 H 1536.73 1.3126 4.85572 0
M  V30 15952 H 1536.43 3.06134 5.01554 0
M  V30 15953 H 1537.96 2.36096 5.63108 0
M  V30 15954 H 1539.37 4.02378 4.08368 0
M  V30 15955 H 1537.77 4.71937 3.70668 0
M  V30 15956 H 1538.84 4.22295 2.38318 0
M  V30 15957 N 1540.18 -0.899904 1.29381 0
M  V30 15958 C 1541.43 -1.64712 1.17109 0
M  V30 15959 C 1541.75 -1.93011 -0.277772 0
M  V30 15960 O 1541.02 -1.55604 -1.19013 0
M  V30 15961 H 1539.6 -0.610532 0.430418 0
M  V30 15962 H 1542.26 -1.07905 1.62304 0
M  V30 15963 H 1541.36 -2.60362 1.72098 0
M  V30 15964 N 1541.66 -1.11854 -1.11024 0
M  V30 15965 C 1542.62 -0.784033 -2.15373 0
M  V30 15966 C 1543.62 0.198686 -1.59568 0
M  V30 15967 O 1544.81 -0.0263428 -1.7418 0
M  V30 15968 C 1541.94 -0.163987 -3.40505 0
M  V30 15969 H 1543.14 -1.70849 -2.46477 0
M  V30 15970 H 1540.69 -0.920988 -1.26283 0
M  V30 15971 H 1541.42 0.770483 -3.15014 0
M  V30 15972 H 1541.21 -0.871447 -3.82293 0
M  V30 15973 H 1542.7 0.0537739 -4.17565 0
M  V30 15974 N 1543.14 1.28707 -0.909517 0
M  V30 15975 C 1544.07 2.26481 -0.35198 0
M  V30 15976 C 1545.08 1.54698 0.507199 0
M  V30 15977 O 1546.27 1.75558 0.322765 0
M  V30 15978 C 1543.37 3.3495 0.515897 0
M  V30 15979 C 1542.54 4.36229 -0.3198 0
M  V30 15980 C 1541.6 5.23983 0.482483 0
M  V30 15981 O 1540.63 5.69106 -0.10347 0
M  V30 15982 N 1541.83 5.52328 1.78645 0
M  V30 15983 H 1544.6 2.74959 -1.19238 0
M  V30 15984 H 1542.16 1.42144 -0.775023 0
M  V30 15985 H 1544.15 3.90592 1.05925 0
M  V30 15986 H 1542.72 2.86214 1.257 0
M  V30 15987 H 1541.94 3.80109 -1.04454 0
M  V30 15988 H 1543.23 5.00924 -0.891769 0
M  V30 15989 H 1542.62 5.17494 2.28509 0
M  V30 15990 H 1541.18 6.10744 2.27672 0
M  V30 15991 N 1544.61 0.673042 1.42506 0
M  V30 15992 C 1545.54 0.00755467 2.33499 0
M  V30 15993 C 1546.53 -0.791161 1.50581 0
M  V30 15994 O 1547.71 -0.748668 1.79189 0
M  V30 15995 C 1544.84 -0.945638 3.34178 0
M  V30 15996 C 1543.79 -0.25564 4.27236 0
M  V30 15997 C 1543.12 -1.32165 5.18109 0
M  V30 15998 C 1544.42 0.864254 5.151 0
M  V30 15999 H 1546.11 0.767487 2.89396 0
M  V30 16000 H 1543.66 0.370524 1.39151 0
M  V30 16001 H 1545.61 -1.42026 3.96745 0
M  V30 16002 H 1544.34 -1.73697 2.76581 0
M  V30 16003 H 1543 0.19873 3.66061 0
M  V30 16004 H 1542.64 -2.10492 4.56839 0
M  V30 16005 H 1542.34 -0.865109 5.81197 0
M  V30 16006 H 1543.87 -1.79724 5.83551 0
M  V30 16007 H 1545.28 0.470924 5.71363 0
M  V30 16008 H 1543.68 1.24648 5.87012 0
M  V30 16009 H 1544.75 1.71378 4.53605 0
M  V30 16010 N 1546.09 -1.52004 0.416254 0
M  V30 16011 C 1547.04 -2.28771 -0.420331 0
M  V30 16012 C 1548.03 -1.33751 -1.03957 0
M  V30 16013 O 1549.24 -1.51181 -0.976951 0
M  V30 16014 H 1545.62 -0.735991 -0.15434 0
M  V30 16015 H 1547.59 -2.97366 0.248255 0
M  V30 16016 C 1546.34 -3.12675 -1.52085 0
M  V30 16017 H 1545.66 -3.85665 -1.0537 0
M  V30 16018 H 1547.1 -3.69482 -2.07989 0
M  V30 16019 C 1545.56 -2.26692 -2.49224 0
M  V30 16020 O 1546.09 -1.91205 -3.53276 0
M  V30 16021 N 1544.29 -1.90322 -2.19604 0
M  V30 16022 H 1543.84 -2.1938 -1.35019 0
M  V30 16023 H 1543.8 -1.33086 -2.84843 0
M  V30 16024 N 1547.57 -0.146903 -1.56914 0
M  V30 16025 C 1548.5 0.823803 -2.13883 0
M  V30 16026 C 1549.52 1.21081 -1.08826 0
M  V30 16027 O 1550.7 1.15491 -1.36103 0
M  V30 16028 C 1547.8 2.11686 -2.64655 0
M  V30 16029 C 1546.98 1.89723 -3.94112 0
M  V30 16030 C 1546.04 3.03016 -4.30195 0
M  V30 16031 O 1545.06 2.74711 -4.9852 0
M  V30 16032 N 1546.26 4.30187 -3.89768 0
M  V30 16033 H 1549.03 0.336904 -2.978 0
M  V30 16034 H 1546.59 0.0366704 -1.61858 0
M  V30 16035 H 1548.58 2.86525 -2.85807 0
M  V30 16036 H 1547.15 2.51639 -1.85464 0
M  V30 16037 H 1546.37 0.989208 -3.81587 0
M  V30 16038 H 1547.66 1.72387 -4.78707 0
M  V30 16039 H 1547.06 4.56051 -3.34715 0
M  V30 16040 H 1545.62 5.01807 -4.15972 0
M  V30 16041 N 1549.05 1.57088 0.126881 0
M  V30 16042 C 1550.28 1.88614 0.850444 0
M  V30 16043 C 1550.69 0.737309 1.73808 0
M  V30 16044 O 1550.05 -0.292196 1.80146 0
M  V30 16045 C 1550.1 3.19541 1.69044 0
M  V30 16046 O 1549.82 4.3 0.838555 0
M  V30 16047 C 1551.32 3.64717 2.51985 0
M  V30 16048 H 1548.54 0.624715 0.244892 0
M  V30 16049 H 1551.09 2.04184 0.113634 0
M  V30 16050 H 1549.24 3.05664 2.38009 0
M  V30 16051 H 1549.65 5.04992 1.41717 0
M  V30 16052 H 1551.13 4.5911 3.06467 0
M  V30 16053 H 1551.61 2.90986 3.28974 0
M  V30 16054 H 1552.21 3.81356 1.88276 0
M  V30 16055 N 1550.53 -0.396836 1.52522 0
M  V30 16056 C 1551.77 -1.14432 1.67431 0
M  V30 16057 C 1552.11 -1.89842 0.409115 0
M  V30 16058 O 1551.38 -1.85244 -0.592863 0
M  V30 16059 C 1551.66 -2.12889 2.90431 0
M  V30 16060 C 1551.52 -1.41295 4.27031 0
M  V30 16061 C 1552.84 -3.13412 3.08967 0
M  V30 16062 H 1549.95 -0.414643 0.609295 0
M  V30 16063 H 1552.6 -0.428604 1.85103 0
M  V30 16064 H 1550.75 -2.73924 2.75495 0
M  V30 16065 H 1552.42 -0.832848 4.53719 0
M  V30 16066 H 1550.66 -0.714834 4.2787 0
M  V30 16067 H 1551.33 -2.13198 5.09167 0
M  V30 16068 H 1553.81 -2.62462 3.22883 0
M  V30 16069 H 1552.68 -3.79555 3.96522 0
M  V30 16070 H 1552.95 -3.81836 2.22831 0
M  V30 16071 N 1552.01 -1.43353 -0.654814 0
M  V30 16072 C 1552.95 -1.48387 -1.76776 0
M  V30 16073 C 1553.92 -0.333755 -1.62712 0
M  V30 16074 O 1555.11 -0.540683 -1.82979 0
M  V30 16075 C 1552.25 -1.41132 -3.14922 0
M  V30 16076 C 1551.36 -2.66336 -3.40131 0
M  V30 16077 C 1550.5 -2.5108 -4.68116 0
M  V30 16078 C 1549.53 -3.71561 -4.86425 0
M  V30 16079 N 1548.67 -3.55125 -6.05666 0
M  V30 16080 H 1553.51 -2.43487 -1.71808 0
M  V30 16081 H 1551.05 -1.20866 -0.838442 0
M  V30 16082 H 1553.01 -1.3492 -3.94782 0
M  V30 16083 H 1551.64 -0.496149 -3.18964 0
M  V30 16084 H 1550.69 -2.82834 -2.5438 0
M  V30 16085 H 1552 -3.55835 -3.49546 0
M  V30 16086 H 1551.15 -2.42567 -5.56099 0
M  V30 16087 H 1549.89 -1.59103 -4.61018 0
M  V30 16088 H 1548.9 -3.80484 -3.96877 0
M  V30 16089 H 1550.12 -4.64545 -4.95353 0
M  V30 16090 H 1548.07 -2.65881 -5.99703 0
M  V30 16091 H 1547.99 -4.38224 -6.16032 0
M  V30 16092 H 1549.25 -3.5046 -6.96274 0
M  V30 16093 N 1553.48 0.89303 -1.29857 0
M  V30 16094 C 1554.45 1.97944 -1.15546 0
M  V30 16095 C 1555.45 1.60554 -0.088989 0
M  V30 16096 O 1556.64 1.7092 -0.336464 0
M  V30 16097 C 1553.77 3.32126 -0.768442 0
M  V30 16098 H 1554.96 2.12067 -2.12055 0
M  V30 16099 H 1552.51 1.0784 -1.13138 0
M  V30 16100 H 1553.25 3.23704 0.196504 0
M  V30 16101 H 1553.03 3.60631 -1.53907 0
M  V30 16102 H 1554.52 4.11834 -0.691559 0
M  V30 16103 N 1554.96 1.12442 1.10429 0
M  V30 16104 C 1556.21 0.874466 1.81758 0
M  V30 16105 C 1556.52 -0.601487 1.86122 0
M  V30 16106 O 1557.73 -0.968037 2.53656 0
M  V30 16107 C 1556.19 1.51478 3.2647 0
M  V30 16108 C 1555.79 3.02552 3.30403 0
M  V30 16109 C 1557.54 1.34511 4.02625 0
M  V30 16110 C 1555.44 3.59518 4.69575 0
M  V30 16111 H 1554.37 0.323494 0.681078 0
M  V30 16112 H 1557.03 1.35091 1.24188 0
M  V30 16113 H 1555.41 0.966 3.84037 0
M  V30 16114 H 1556.58 3.63924 2.82659 0
M  V30 16115 H 1554.9 3.18917 2.67733 0
M  V30 16116 H 1557.49 1.74492 5.05427 0
M  V30 16117 H 1557.84 0.288788 4.15297 0
M  V30 16118 H 1558.37 1.86311 3.51473 0
M  V30 16119 H 1555.11 4.6491 4.62103 0
M  V30 16120 H 1554.63 3.02922 5.17686 0
M  V30 16121 H 1556.31 3.58581 5.38543 0
M  V30 16122 N 1556.44 -1.28223 0.91633 0
M  V30 16123 C 1557.37 -2.26291 0.363986 0
M  V30 16124 C 1558.38 -1.54964 -0.498988 0
M  V30 16125 O 1559.57 -1.75726 -0.31345 0
M  V30 16126 C 1556.67 -3.35219 -0.498126 0
M  V30 16127 C 1555.85 -4.36054 0.34293 0
M  V30 16128 C 1554.91 -5.24232 -0.454688 0
M  V30 16129 O 1553.93 -5.69043 0.133649 0
M  V30 16130 N 1555.13 -5.53268 -1.75714 0
M  V30 16131 H 1557.9 -2.74323 1.20694 0
M  V30 16132 H 1555.46 -1.41731 0.782551 0
M  V30 16133 H 1557.45 -3.91148 -1.03852 0
M  V30 16134 H 1556.02 -2.86876 -1.2418 0
M  V30 16135 H 1555.24 -3.7955 1.06468 0
M  V30 16136 H 1556.53 -5.00444 0.918322 0
M  V30 16137 H 1555.93 -5.18698 -2.25762 0
M  V30 16138 H 1554.48 -6.11943 -2.2443 0
M  V30 16139 N 1557.92 -0.68059 -1.42147 0
M  V30 16140 C 1558.83 -0.00595573 -2.34599 0
M  V30 16141 C 1559.84 0.782528 -1.55411 0
M  V30 16142 O 1561.02 0.723524 -1.87955 0
M  V30 16143 C 1558.08 0.92964 -3.34004 0
M  V30 16144 C 1557.15 0.135041 -4.29088 0
M  V30 16145 C 1556.38 1.02607 -5.23744 0
M  V30 16146 O 1556.6 2.26562 -5.23475 0
M  V30 16147 O 1555.54 0.483774 -5.99953 0
M  V30 16148 H 1559.36 -0.767652 -2.93838 0
M  V30 16149 H 1556.95 -0.440849 -1.42748 0
M  V30 16150 H 1558.83 1.46657 -3.95057 0
M  V30 16151 H 1557.5 1.67109 -2.7723 0
M  V30 16152 H 1556.41 -0.44613 -3.7143 0
M  V30 16153 H 1557.74 -0.567417 -4.88918 0
M  V30 16154 N 1559.4 1.51781 -0.424309 0
M  V30 16155 C 1560.36 2.25996 0.381903 0
M  V30 16156 C 1561.36 1.28938 0.960813 0
M  V30 16157 O 1562.55 1.52757 0.837306 0
M  V30 16158 C 1559.68 3.04181 1.53904 0
M  V30 16159 H 1560.87 2.98697 -0.268336 0
M  V30 16160 H 1558.43 1.55293 -0.177167 0
M  V30 16161 H 1559.16 2.35866 2.22571 0
M  V30 16162 H 1558.95 3.75457 1.13025 0
M  V30 16163 H 1560.44 3.60434 2.10896 0
M  V30 16164 N 1560.87 0.155222 1.56834 0
M  V30 16165 C 1561.78 -0.794179 2.20749 0
M  V30 16166 C 1562.8 -1.26546 1.19424 0
M  V30 16167 O 1563.98 -1.32094 1.5203 0
M  V30 16168 C 1561.04 -2.01261 2.82303 0
M  V30 16169 C 1560.1 -1.58976 3.98779 0
M  V30 16170 C 1559.33 -2.75011 4.57389 0
M  V30 16171 O 1559.56 -3.91449 4.14879 0
M  V30 16172 O 1558.49 -2.50011 5.4752 0
M  V30 16173 H 1562.32 -0.280064 3.02406 0
M  V30 16174 H 1559.9 -0.0722048 1.49225 0
M  V30 16175 H 1561.78 -2.72551 3.21394 0
M  V30 16176 H 1560.46 -2.51609 2.03653 0
M  V30 16177 H 1559.37 -0.846848 3.64389 0
M  V30 16178 H 1560.7 -1.13336 4.78974 0
M  V30 16179 N 1562.35 -1.57153 -0.118549 0
M  V30 16180 C 1563.31 -1.99438 -1.12947 0
M  V30 16181 C 1564.31 -0.884588 -1.34282 0
M  V30 16182 O 1565.5 -1.15062 -1.30792 0
M  V30 16183 C 1562.64 -2.33492 -2.48384 0
M  V30 16184 H 1563.83 -2.89952 -0.766034 0
M  V30 16185 H 1561.38 -1.5203 -0.362858 0
M  V30 16186 H 1562.12 -1.45859 -2.89647 0
M  V30 16187 H 1561.9 -3.14433 -2.34252 0
M  V30 16188 H 1563.39 -2.66945 -3.21139 0
M  V30 16189 N 1563.83 0.388742 -1.5273 0
M  V30 16190 C 1565.06 1.15328 -1.71415 0
M  V30 16191 C 1565.47 1.84193 -0.432366 0
M  V30 16192 O 1564.81 1.73522 0.602977 0
M  V30 16193 C 1564.87 2.24436 -2.80836 0
M  V30 16194 C 1564.54 1.75535 -4.21944 0
M  V30 16195 C 1565.53 1.23196 -5.05093 0
M  V30 16196 C 1563.22 1.8175 -4.68265 0
M  V30 16197 C 1565.21 0.777194 -6.32644 0
M  V30 16198 C 1562.9 1.35885 -5.95801 0
M  V30 16199 C 1563.9 0.839573 -6.7782 0
M  V30 16200 O 1563.59 0.387619 -8.02965 0
M  V30 16201 H 1563.32 0.351742 -0.577281 0
M  V30 16202 H 1565.87 0.460735 -2.00166 0
M  V30 16203 H 1564.1 2.97115 -2.47506 0
M  V30 16204 H 1565.79 2.86106 -2.87921 0
M  V30 16205 H 1566.56 1.17751 -4.70489 0
M  V30 16206 H 1562.44 2.21111 -4.04513 0
M  V30 16207 H 1565.98 0.371199 -6.96612 0
M  V30 16208 H 1561.88 1.41016 -6.29909 0
M  V30 16209 H 1562.64 0.509073 -8.16915 0
M  V30 16210 N 1565.31 1.43698 0.647203 0
M  V30 16211 C 1566.72 1.40586 1.22851 0
M  V30 16212 C 1567.07 0.112981 1.95874 0
M  V30 16213 O 1566.19 -0.787342 2.01569 0
M  V30 16214 C 1566.79 2.54672 2.23445 0
M  V30 16215 C 1565.35 2.54806 2.7704 0
M  V30 16216 C 1564.5 2.32076 1.51777 0
M  V30 16217 H 1567.45 1.52512 0.43885 0
M  V30 16218 H 1567.47 2.26505 3.05738 0
M  V30 16219 H 1566.98 3.48755 1.70269 0
M  V30 16220 H 1565.08 1.64619 3.34262 0
M  V30 16221 H 1565.19 3.52771 3.24175 0
M  V30 16222 H 1563.56 1.80858 1.79339 0
M  V30 16223 H 1564.34 3.28252 1.00527 0
M  V30 16224 N 1566.79 -0.886131 1.30328 0
M  V30 16225 C 1568.03 -1.6346 1.18849 0
M  V30 16226 C 1568.36 -1.93295 -0.257285 0
M  V30 16227 O 1567.63 -1.56858 -1.17356 0
M  V30 16228 H 1566.21 -0.605932 0.43687 0
M  V30 16229 H 1568.87 -1.06177 1.63439 0
M  V30 16230 H 1567.96 -2.58522 1.7485 0
M  V30 16231 N 1568.26 -1.13026 -1.09832 0
M  V30 16232 C 1569.68 -0.902826 -1.6342 0
M  V30 16233 C 1570.03 0.561547 -1.87992 0
M  V30 16234 O 1569.15 1.42735 -1.62652 0
M  V30 16235 C 1569.75 -1.6324 -2.96881 0
M  V30 16236 C 1568.31 -1.45095 -3.4731 0
M  V30 16237 C 1567.45 -1.66431 -2.21802 0
M  V30 16238 H 1570.4 -1.28414 -0.932492 0
M  V30 16239 H 1570.42 -1.08706 -3.64641 0
M  V30 16240 H 1569.94 -2.69816 -2.78964 0
M  V30 16241 H 1568.04 -0.408031 -3.70359 0
M  V30 16242 H 1568.15 -2.21123 -4.25019 0
M  V30 16243 H 1566.51 -1.08885 -2.30252 0
M  V30 16244 H 1567.3 -2.74317 -2.0641 0
M  V30 16245 N 1569.74 1.27735 -0.923117 0
M  V30 16246 C 1570.97 1.9922 -0.57672 0
M  V30 16247 C 1571.39 1.68446 0.837113 0
M  V30 16248 O 1570.75 0.922129 1.56098 0
M  V30 16249 C 1570.8 3.51528 -0.803768 0
M  V30 16250 O 1569.9 4.12186 0.132829 0
M  V30 16251 H 1569.24 0.625593 -0.222553 0
M  V30 16252 H 1571.77 1.62657 -1.24112 0
M  V30 16253 H 1571.78 4.01641 -0.717534 0
M  V30 16254 H 1570.46 3.7326 -1.83439 0
M  V30 16255 H 1569.04 3.729 -0.00292957 0
M  V30 16256 N 1571.22 0.688118 1.41784 0
M  V30 16257 C 1572.15 0.0323199 2.33478 0
M  V30 16258 C 1573.13 -0.775145 1.51412 0
M  V30 16259 O 1574.32 -0.72962 1.79973 0
M  V30 16260 C 1571.45 -0.910141 3.35162 0
M  V30 16261 C 1570.4 -0.210312 4.27483 0
M  V30 16262 C 1569.73 -1.26662 5.19481 0
M  V30 16263 C 1571.03 0.918839 5.14154 0
M  V30 16264 H 1572.72 0.798138 2.88566 0
M  V30 16265 H 1570.27 0.385262 1.38751 0
M  V30 16266 H 1572.22 -1.3781 3.98229 0
M  V30 16267 H 1570.94 -1.70754 2.78408 0
M  V30 16268 H 1569.6 0.237544 3.6583 0
M  V30 16269 H 1569.25 -2.05635 4.59046 0
M  V30 16270 H 1568.95 -0.803416 5.82082 0
M  V30 16271 H 1570.47 -1.73524 5.85424 0
M  V30 16272 H 1571.89 0.531499 5.70831 0
M  V30 16273 H 1570.29 1.30867 5.85657 0
M  V30 16274 H 1571.36 1.7618 4.51762 0
M  V30 16275 N 1572.7 -1.51554 0.432352 0
M  V30 16276 C 1573.95 -2.01232 -0.137255 0
M  V30 16277 C 1574.26 -1.32135 -1.44221 0
M  V30 16278 O 1575.47 -1.72756 -2.09446 0
M  V30 16279 C 1573.92 -3.58688 -0.295152 0
M  V30 16280 C 1573.53 -4.36718 0.999072 0
M  V30 16281 C 1575.27 -4.16528 -0.818798 0
M  V30 16282 C 1573.18 -5.85867 0.80709 0
M  V30 16283 H 1572.11 -0.751986 -0.0550696 0
M  V30 16284 H 1574.76 -1.74703 0.561352 0
M  V30 16285 H 1573.14 -3.81643 -1.05664 0
M  V30 16286 H 1574.32 -4.25512 1.76851 0
M  V30 16287 H 1572.63 -3.90306 1.45087 0
M  V30 16288 H 1575.23 -5.25664 -0.978841 0
M  V30 16289 H 1575.57 -3.75379 -1.79989 0
M  V30 16290 H 1576.11 -3.97632 -0.11575 0
M  V30 16291 H 1572.85 -6.31419 1.76041 0
M  V30 16292 H 1572.37 -5.9975 0.0773617 0
M  V30 16293 H 1574.04 -6.45375 0.458328 0
M  V30 16294 N 1574.18 -0.163538 -1.56749 0
M  V30 16295 C 1575.43 0.483453 -1.9582 0
M  V30 16296 C 1575.74 1.64913 -1.05181 0
M  V30 16297 O 1576.94 2.36184 -1.33901 0
M  V30 16298 C 1575.4 0.911471 -3.48167 0
M  V30 16299 C 1575.01 -0.228178 -4.47419 0
M  V30 16300 C 1576.75 1.52732 -3.96072 0
M  V30 16301 C 1574.66 0.219036 -5.90994 0
M  V30 16302 H 1573.59 0.184383 -0.731108 0
M  V30 16303 H 1576.24 -0.250527 -1.81782 0
M  V30 16304 H 1574.62 1.7012 -3.57596 0
M  V30 16305 H 1575.8 -1.0054 -4.49698 0
M  V30 16306 H 1574.11 -0.753485 -4.09526 0
M  V30 16307 H 1576.71 1.87383 -5.00791 0
M  V30 16308 H 1577.05 2.42239 -3.38565 0
M  V30 16309 H 1577.58 0.802176 -3.89628 0
M  V30 16310 H 1574.32 -0.641066 -6.52358 0
M  V30 16311 H 1573.84 0.96178 -5.92039 0
M  V30 16312 H 1575.52 0.665524 -6.43568 0
M  V30 16313 N 1575.65 1.57214 0.110213 0
M  V30 16314 C 1576.62 2.00034 1.11888 0
M  V30 16315 C 1577.62 0.891697 1.33811 0
M  V30 16316 O 1578.81 1.15754 1.3018 0
M  V30 16317 C 1575.94 2.34806 2.47142 0
M  V30 16318 H 1577.13 2.90354 0.750647 0
M  V30 16319 H 1574.69 1.5222 0.35479 0
M  V30 16320 H 1575.42 1.47393 2.8887 0
M  V30 16321 H 1575.21 3.15671 2.32581 0
M  V30 16322 H 1576.7 2.68644 3.19719 0
M  V30 16323 N 1577.13 -0.380637 1.52934 0
M  V30 16324 C 1578.36 -1.14417 1.72024 0
M  V30 16325 C 1578.77 -1.83962 0.442128 0
M  V30 16326 O 1578.11 -1.73839 -0.593766 0
M  V30 16327 C 1578.18 -2.22944 2.82022 0
M  V30 16328 C 1577.84 -1.73295 4.22869 0
M  V30 16329 C 1578.84 -1.20515 5.05739 0
M  V30 16330 C 1576.52 -1.79264 4.69222 0
M  V30 16331 C 1578.52 -0.743632 6.33047 0
M  V30 16332 C 1576.2 -1.32724 5.96513 0
M  V30 16333 C 1577.2 -0.803615 6.78256 0
M  V30 16334 O 1576.89 -0.34503 8.03159 0
M  V30 16335 H 1576.62 -0.348676 0.579138 0
M  V30 16336 H 1579.17 -0.450113 2.00407 0
M  V30 16337 H 1577.4 -2.95798 2.49079 0
M  V30 16338 H 1579.09 -2.84575 2.89434 0
M  V30 16339 H 1579.86 -1.15254 4.71107 0
M  V30 16340 H 1575.74 -2.18962 4.0568 0
M  V30 16341 H 1579.28 -0.334251 6.96799 0
M  V30 16342 H 1575.18 -1.37673 6.30648 0
M  V30 16343 H 1575.95 -0.465743 8.17174 0
M  V30 16344 N 1578.61 -1.44039 -0.639573 0
M  V30 16345 C 1579.84 -1.50063 -1.43164 0
M  V30 16346 C 1580.26 -0.123906 -1.87691 0
M  V30 16347 O 1579.62 0.885192 -1.58221 0
M  V30 16348 C 1579.67 -2.46305 -2.63375 0
M  V30 16349 O 1578.77 -1.95874 -3.62915 0
M  V30 16350 H 1578.11 -0.507052 -0.428713 0
M  V30 16351 H 1580.64 -1.8909 -0.781415 0
M  V30 16352 H 1580.65 -2.64062 -3.11023 0
M  V30 16353 H 1579.33 -3.46309 -2.3031 0
M  V30 16354 H 1577.9 -1.87844 -3.22132 0
M  V30 16355 N 1580.09 0.879207 -1.30796 0
M  V30 16356 C 1581.5 1.44705 -1.17972 0
M  V30 16357 C 1581.85 1.94992 0.217381 0
M  V30 16358 O 1580.98 1.85494 1.11449 0
M  V30 16359 C 1581.57 2.6302 -2.13555 0
M  V30 16360 C 1580.13 3.15877 -2.04692 0
M  V30 16361 C 1579.28 1.88576 -2.03309 0
M  V30 16362 H 1582.23 0.688604 -1.42982 0
M  V30 16363 H 1582.25 3.39418 -1.71976 0
M  V30 16364 H 1581.76 2.2639 -3.15229 0
M  V30 16365 H 1579.86 3.57151 -1.0618 0
M  V30 16366 H 1579.97 3.78786 -2.93357 0
M  V30 16367 H 1578.34 2.0715 -1.48192 0
M  V30 16368 H 1579.12 1.54195 -3.06723 0
M  V30 16369 N 1581.57 1.13606 1.09231 0
M  V30 16370 C 1582.81 0.909321 1.83059 0
M  V30 16371 C 1583.17 -0.554485 1.83819 0
M  V30 16372 O 1584.37 -0.898864 2.53326 0
M  V30 16373 C 1582.64 1.4835 3.25157 0
M  V30 16374 S 1584.2 1.3971 4.15964 0
M  V30 16375 H 1581.02 0.327715 0.630971 0
M  V30 16376 H 1583.62 1.44796 1.31355 0
M  V30 16377 H 1582.33 2.54219 3.22181 0
M  V30 16378 H 1581.86 0.942887 3.81934 0
M  V30 16379 H 1583.87 0.37691 4.94766 0
M  V30 16380 N 1583.05 -1.27244 0.929878 0
M  V30 16381 C 1583.96 -2.30506 0.436355 0
M  V30 16382 C 1584.97 -1.67131 -0.484054 0
M  V30 16383 O 1586.15 -1.9804 -0.366332 0
M  V30 16384 C 1583.21 -3.45391 -0.300942 0
M  V30 16385 C 1582.27 -4.24279 0.654647 0
M  V30 16386 C 1581.51 -5.33679 -0.047558 0
M  V30 16387 O 1581.73 -5.56161 -1.26654 0
M  V30 16388 O 1580.66 -5.98642 0.62538 0
M  V30 16389 H 1584.49 -2.74762 1.29382 0
M  V30 16390 H 1582.07 -1.32234 0.695311 0
M  V30 16391 H 1583.96 -4.1526 -0.716718 0
M  V30 16392 H 1582.63 -3.03187 -1.13398 0
M  V30 16393 H 1581.54 -3.56936 1.12015 0
M  V30 16394 H 1582.87 -4.70204 1.45497 0
M  V30 16395 N 1584.52 -0.695628 -1.41417 0
M  V30 16396 C 1585.43 -0.0308378 -2.3458 0
M  V30 16397 C 1586.45 0.766 -1.56232 0
M  V30 16398 O 1587.63 0.703548 -1.88712 0
M  V30 16399 C 1584.69 0.894162 -3.34971 0
M  V30 16400 C 1583.75 0.0895231 -4.29207 0
M  V30 16401 C 1582.98 0.970467 -5.24802 0
M  V30 16402 O 1583.21 2.20997 -5.25848 0
M  V30 16403 O 1582.14 0.420114 -6.00432 0
M  V30 16404 H 1585.97 -0.798775 -2.93007 0
M  V30 16405 H 1583.55 -0.455964 -1.42272 0
M  V30 16406 H 1585.43 1.42458 -3.9659 0
M  V30 16407 H 1584.11 1.64159 -2.78987 0
M  V30 16408 H 1583.02 -0.4855 -3.70936 0
M  V30 16409 H 1584.35 -0.619241 -4.88289 0
M  V30 16410 N 1586 1.51322 -0.440383 0
M  V30 16411 C 1586.95 2.24682 0.38753 0
M  V30 16412 C 1587.94 1.27031 0.98752 0
M  V30 16413 O 1589.13 1.52105 0.905156 0
M  V30 16414 C 1586.26 3.09451 1.48643 0
M  V30 16415 C 1585.34 4.14534 0.895682 0
M  V30 16416 N 1585.73 5.05788 0.0343863 0
M  V30 16417 C 1584.03 4.30571 1.16294 0
M  V30 16418 C 1584.73 5.80938 -0.297709 0
M  V30 16419 N 1583.71 5.42661 0.319444 0
M  V30 16420 H 1587.51 2.92597 -0.276449 0
M  V30 16421 H 1585.02 1.60423 -0.252641 0
M  V30 16422 H 1587.02 3.60587 2.09244 0
M  V30 16423 H 1585.68 2.43081 2.15271 0
M  V30 16424 H 1586.69 5.16833 -0.332271 0
M  V30 16425 H 1583.37 3.75427 1.82649 0
M  V30 16426 H 1584.76 6.64435 -0.99877 0
M  V30 16427 N 1587.48 0.171848 1.5666 0
M  V30 16428 C 1588.73 -0.472034 1.9651 0
M  V30 16429 C 1589.05 -1.63743 1.05893 0
M  V30 16430 O 1588.32 -1.95498 0.125396 0
M  V30 16431 H 1586.9 -0.177377 0.725635 0
M  V30 16432 H 1589.56 0.253155 1.93249 0
M  V30 16433 H 1588.66 -0.831693 3.00814 0
M  V30 16434 N 1588.96 -1.5727 -0.101874 0
M  V30 16435 C 1590.19 -1.89667 -0.81914 0
M  V30 16436 C 1590.6 -0.763027 -1.73132 0
M  V30 16437 O 1589.94 0.274317 -1.8164 0
M  V30 16438 C 1590 -3.17252 -1.6909 0
M  V30 16439 C 1589.66 -4.4699 -0.951257 0
M  V30 16440 C 1590.66 -5.19123 -0.28417 0
M  V30 16441 C 1588.35 -4.93665 -0.927349 0
M  V30 16442 C 1590.34 -6.36163 0.396934 0
M  V30 16443 C 1588.03 -6.10619 -0.242456 0
M  V30 16444 C 1589.03 -6.81717 0.418514 0
M  V30 16445 O 1588.71 -7.96443 1.09244 0
M  V30 16446 H 1588.45 -0.632024 -0.239836 0
M  V30 16447 H 1591 -2.05222 -0.0855979 0
M  V30 16448 H 1589.23 -2.97825 -2.46651 0
M  V30 16449 H 1590.92 -3.35533 -2.28413 0
M  V30 16450 H 1591.68 -4.84107 -0.294146 0
M  V30 16451 H 1587.56 -4.38219 -1.43126 0
M  V30 16452 H 1591.11 -6.91594 0.913417 0
M  V30 16453 H 1587 -6.45089 -0.230303 0
M  V30 16454 H 1587.77 -8.12385 0.998647 0
M  V30 16455 N 1590.44 0.372521 -1.53134 0
M  V30 16456 C 1591.71 1.13113 -1.59577 0
M  V30 16457 C 1592.09 2.07294 -0.399027 0
M  V30 16458 O 1591.44 2.20171 0.611316 0
M  V30 16459 C 1591.65 1.87635 -2.94269 0
M  V30 16460 C 1593 2.42414 -3.48598 0
M  V30 16461 O 1594.02 1.9777 -2.96252 0
M  V30 16462 O 1592.88 3.24008 -4.40092 0
M  V30 16463 H 1589.98 0.518486 -0.644284 0
M  V30 16464 H 1592.52 0.376344 -1.65474 0
M  V30 16465 H 1591.29 1.18859 -3.72811 0
M  V30 16466 H 1590.92 2.70037 -2.91831 0
M  V30 16467 N 1591.91 1.44376 0.631925 0
M  V30 16468 C 1592.84 1.54005 1.75512 0
M  V30 16469 C 1593.82 0.393126 1.65495 0
M  V30 16470 O 1595.01 0.613143 1.84267 0
M  V30 16471 C 1592.14 1.48313 3.14039 0
M  V30 16472 C 1591.09 2.61474 3.38844 0
M  V30 16473 C 1590.42 2.40834 4.77392 0
M  V30 16474 C 1591.72 4.03627 3.31485 0
M  V30 16475 H 1593.41 2.48019 1.6771 0
M  V30 16476 H 1590.96 1.19368 0.80543 0
M  V30 16477 H 1592.91 1.5365 3.9239 0
M  V30 16478 H 1591.64 0.508152 3.22623 0
M  V30 16479 H 1590.3 2.55525 2.62874 0
M  V30 16480 H 1589.94 1.4153 4.82678 0
M  V30 16481 H 1589.64 3.16703 4.94947 0
M  V30 16482 H 1591.17 2.47988 5.57974 0
M  V30 16483 H 1592.58 4.1095 3.99741 0
M  V30 16484 H 1590.98 4.79694 3.60574 0
M  V30 16485 H 1592.05 4.27255 2.29307 0
M  V30 16486 N 1593.39 -0.872258 1.31261 0
M  V30 16487 C 1594.35 -1.96081 1.1868 0
M  V30 16488 C 1595.35 -1.60392 0.11452 0
M  V30 16489 O 1596.54 -1.70363 0.363613 0
M  V30 16490 C 1593.68 -3.30862 0.821183 0
M  V30 16491 H 1594.87 -2.08667 2.15402 0
M  V30 16492 H 1592.42 -1.06026 1.14839 0
M  V30 16493 H 1593.16 -3.23976 -0.14498 0
M  V30 16494 H 1592.94 -3.58137 1.59625 0
M  V30 16495 H 1594.43 -4.10682 0.756991 0
M  V30 16496 N 1594.87 -1.14184 -1.08627 0
M  V30 16497 C 1595.8 -0.849455 -2.17501 0
M  V30 16498 C 1596.78 0.194617 -1.68983 0
M  V30 16499 O 1597.97 0.0517757 -1.94131 0
M  V30 16500 C 1595.1 -0.323685 -3.45788 0
M  V30 16501 C 1594.05 -1.30294 -4.07685 0
M  V30 16502 C 1593.38 -0.636575 -5.30897 0
M  V30 16503 C 1594.68 -2.66441 -4.49229 0
M  V30 16504 H 1596.37 -1.75987 -2.42217 0
M  V30 16505 H 1593.92 -0.847595 -1.16412 0
M  V30 16506 H 1595.87 -0.106754 -4.21265 0
M  V30 16507 H 1594.59 0.62215 -3.20619 0
M  V30 16508 H 1593.25 -1.50601 -3.34238 0
M  V30 16509 H 1592.9 0.314995 -5.02013 0
M  V30 16510 H 1592.6 -1.28998 -5.73266 0
M  V30 16511 H 1594.12 -0.429117 -6.0909 0
M  V30 16512 H 1595.54 -2.50055 -5.15893 0
M  V30 16513 H 1593.93 -3.28033 -5.02508 0
M  V30 16514 H 1595 -3.23486 -3.61226 0
M  V30 16515 N 1596.35 1.26749 -0.936613 0
M  V30 16516 C 1597.57 1.98597 -0.597817 0
M  V30 16517 C 1598 1.69324 0.8192 0
M  V30 16518 O 1597.36 0.938634 1.55111 0
M  V30 16519 C 1597.4 3.50656 -0.841007 0
M  V30 16520 O 1596.51 4.12304 0.0891038 0
M  V30 16521 H 1595.85 0.623197 -0.229176 0
M  V30 16522 H 1598.38 1.61332 -1.2583 0
M  V30 16523 H 1598.39 4.00857 -0.760093 0
M  V30 16524 H 1597.06 3.71293 -1.87388 0
M  V30 16525 H 1595.64 3.72876 -0.0424804 0
M  V30 16526 N 1597.83 0.703118 1.41046 0
M  V30 16527 C 1598.78 0.0192623 2.27992 0
M  V30 16528 C 1599.76 -0.745216 1.42602 0
M  V30 16529 O 1600.95 -0.619468 1.65806 0
M  V30 16530 C 1598.08 -0.910896 3.30995 0
M  V30 16531 C 1597.17 -0.142265 4.23861 0
M  V30 16532 N 1597.56 0.867928 4.98298 0
M  V30 16533 C 1595.86 -0.376651 4.44407 0
M  V30 16534 C 1596.56 1.32869 5.66322 0
M  V30 16535 N 1595.53 0.653176 5.39662 0
M  V30 16536 H 1599.34 0.793687 2.8298 0
M  V30 16537 H 1596.85 0.534609 1.53348 0
M  V30 16538 H 1598.85 -1.41603 3.92115 0
M  V30 16539 H 1597.51 -1.68483 2.77567 0
M  V30 16540 H 1598.52 1.2484 5.02628 0
M  V30 16541 H 1595.19 -1.12789 4.01976 0
M  V30 16542 H 1596.58 2.16738 6.35983 0
M  V30 16543 N 1599.3 -1.51086 0.448402 0
M  V30 16544 C 1600.58 -1.94817 -0.174819 0
M  V30 16545 C 1600.96 -1.38767 -1.59081 0
M  V30 16546 O 1600.31 -0.579257 -2.21036 0
M  V30 16547 C 1600.52 -3.48714 -0.14129 0
M  V30 16548 C 1601.87 -4.23225 -0.341414 0
M  V30 16549 O 1602.89 -3.55527 -0.218908 0
M  V30 16550 O 1601.75 -5.43346 -0.586331 0
M  V30 16551 H 1598.84 -0.817652 -0.12399 0
M  V30 16552 H 1601.39 -1.61944 0.507177 0
M  V30 16553 H 1600.16 -3.81996 0.848222 0
M  V30 16554 H 1599.79 -3.88061 -0.865722 0
M  V30 16555 N 1600.78 -0.180154 -1.56567 0
M  V30 16556 C 1601.71 0.77825 -2.15583 0
M  V30 16557 C 1602.73 1.18746 -1.1137 0
M  V30 16558 O 1603.92 1.12578 -1.38523 0
M  V30 16559 C 1601.02 2.06024 -2.69086 0
M  V30 16560 C 1600.19 1.8132 -3.98047 0
M  V30 16561 C 1599.25 2.93823 -4.36526 0
M  V30 16562 O 1598.27 2.64075 -5.04235 0
M  V30 16563 N 1599.48 4.21823 -3.98806 0
M  V30 16564 H 1602.24 0.273661 -2.98448 0
M  V30 16565 H 1599.8 0.00232952 -1.619 0
M  V30 16566 H 1601.79 2.80398 -2.9182 0
M  V30 16567 H 1600.36 2.47648 -1.9076 0
M  V30 16568 H 1599.58 0.908046 -3.83599 0
M  V30 16569 H 1600.87 1.62194 -4.82256 0
M  V30 16570 H 1600.27 4.48849 -3.44313 0
M  V30 16571 H 1598.83 4.92871 -4.26522 0
M  V30 16572 N 1602.26 1.57322 0.0935319 0
M  V30 16573 C 1603.19 1.97423 1.14452 0
M  V30 16574 C 1604.17 0.84769 1.38755 0
M  V30 16575 O 1605.36 1.10812 1.52489 0
M  V30 16576 C 1602.48 2.29234 2.49338 0
M  V30 16577 C 1601.53 3.51672 2.41306 0
M  V30 16578 S 1602.36 5.0333 1.82808 0
M  V30 16579 C 1603.52 5.3832 3.19315 0
M  V30 16580 H 1603.75 2.86259 0.80268 0
M  V30 16581 H 1601.28 1.51432 0.301269 0
M  V30 16582 H 1603.24 2.48237 3.26938 0
M  V30 16583 H 1601.9 1.40966 2.80691 0
M  V30 16584 H 1601.1 3.71377 3.40727 0
M  V30 16585 H 1600.7 3.32187 1.71837 0
M  V30 16586 H 1602.99 5.35061 4.15591 0
M  V30 16587 H 1603.93 6.39327 3.04413 0
M  V30 16588 H 1604.34 4.6578 3.18919 0
M  V30 16589 N 1603.74 -0.364395 1.53329 0
M  V30 16590 C 1605.15 -0.706147 1.43128 0
M  V30 16591 C 1605.35 -1.93231 0.571307 0
M  V30 16592 O 1604.41 -2.52442 0.0542079 0
M  V30 16593 C 1605.72 -0.918245 2.86337 0
M  V30 16594 C 1607.27 -1.01818 2.95976 0
M  V30 16595 C 1607.75 -1.26274 4.40249 0
M  V30 16596 N 1609.24 -1.33042 4.43683 0
M  V30 16597 C 1609.97 -1.53677 5.52423 0
M  V30 16598 N 1609.47 -1.7162 6.71207 0
M  V30 16599 N 1611.26 -1.56056 5.40003 0
M  V30 16600 H 1603.41 0.442091 2.07748 0
M  V30 16601 H 1605.68 0.135735 0.938232 0
M  V30 16602 H 1605.38 -0.0890628 3.51587 0
M  V30 16603 H 1605.26 -1.826 3.30056 0
M  V30 16604 H 1607.64 -1.83791 2.30879 0
M  V30 16605 H 1607.72 -0.0877892 2.55649 0
M  V30 16606 H 1607.37 -0.448026 5.0592 0
M  V30 16607 H 1607.3 -2.20637 4.78149 0
M  V30 16608 H 1609.79 -1.20784 3.58078 0
M  V30 16609 H 1610.1 -1.86942 7.49848 0
M  V30 16610 H 1608.45 -1.68797 6.7419 0
M  V30 16611 H 1611.64 -1.41605 4.46168 0
M  V30 16612 H 1611.81 -1.71796 6.24812 0
M  V30 16613 N 1605.22 -1.44709 -0.62426 0
M  V30 16614 C 1606.15 -1.48097 -1.74928 0
M  V30 16615 C 1607.16 -0.373567 -1.58456 0
M  V30 16616 O 1608.35 -0.639699 -1.66644 0
M  V30 16617 C 1605.45 -1.30576 -3.12735 0
M  V30 16618 C 1604.62 -2.54688 -3.55602 0
M  V30 16619 C 1603.68 -2.31966 -4.72311 0
M  V30 16620 O 1602.71 -3.05492 -4.80274 0
M  V30 16621 N 1603.91 -1.35463 -5.64473 0
M  V30 16622 H 1606.68 -2.45086 -1.72491 0
M  V30 16623 H 1604.24 -1.40236 -0.809039 0
M  V30 16624 H 1606.23 -1.13212 -3.88542 0
M  V30 16625 H 1604.8 -0.419262 -3.09776 0
M  V30 16626 H 1604.02 -2.87282 -2.69931 0
M  V30 16627 H 1605.31 -3.37223 -3.80996 0
M  V30 16628 H 1604.7 -0.747509 -5.60739 0
M  V30 16629 H 1603.26 -1.24075 -6.39882 0
M  V30 16630 N 1606.69 0.865285 -1.31722 0
M  V30 16631 C 1607.62 1.98871 -1.22362 0
M  V30 16632 C 1608.61 1.69745 -0.109779 0
M  V30 16633 O 1609.79 1.91944 -0.295167 0
M  V30 16634 C 1606.92 3.34477 -0.935 0
M  V30 16635 C 1605.87 3.77924 -2.00892 0
M  V30 16636 C 1605.2 5.11042 -1.57291 0
M  V30 16637 C 1606.5 3.94528 -3.42264 0
M  V30 16638 H 1608.19 2.06959 -2.16352 0
M  V30 16639 H 1605.74 0.994355 -1.04157 0
M  V30 16640 H 1607.69 4.12612 -0.856111 0
M  V30 16641 H 1606.42 3.26575 0.0405536 0
M  V30 16642 H 1605.08 3.02032 -2.07779 0
M  V30 16643 H 1604.72 4.99586 -0.585084 0
M  V30 16644 H 1604.42 5.41082 -2.29138 0
M  V30 16645 H 1605.95 5.91681 -1.50818 0
M  V30 16646 H 1607.36 4.63045 -3.38027 0
M  V30 16647 H 1605.76 4.35972 -4.12369 0
M  V30 16648 H 1606.83 2.97765 -3.82706 0
M  V30 16649 N 1608.17 1.14759 1.0802 0
M  V30 16650 C 1609.4 0.941887 1.84218 0
M  V30 16651 C 1609.82 -0.509702 1.8179 0
M  V30 16652 O 1609.17 -1.35331 1.22441 0
M  V30 16653 C 1609.22 1.43978 3.31591 0
M  V30 16654 O 1608.94 2.83449 3.34048 0
M  V30 16655 C 1610.45 1.27459 4.24581 0
M  V30 16656 H 1607.67 0.334942 0.581425 0
M  V30 16657 H 1610.21 1.52367 1.36399 0
M  V30 16658 H 1608.36 0.900674 3.76785 0
M  V30 16659 H 1608.78 3.05878 4.26073 0
M  V30 16660 H 1610.25 1.67151 5.26084 0
M  V30 16661 H 1610.73 0.217925 4.38659 0
M  V30 16662 H 1611.34 1.80243 3.85217 0
M  V30 16663 N 1609.65 -1.26251 0.943322 0
M  V30 16664 C 1610.61 -2.24554 0.459158 0
M  V30 16665 C 1611.61 -1.54918 -0.430926 0
M  V30 16666 O 1612.8 -1.72678 -0.229803 0
M  V30 16667 C 1609.94 -3.39221 -0.337973 0
M  V30 16668 H 1611.13 -2.689 1.32789 0
M  V30 16669 H 1608.68 -1.38442 0.725495 0
M  V30 16670 H 1609.42 -3.00279 -1.22486 0
M  V30 16671 H 1609.2 -3.90947 0.300428 0
M  V30 16672 H 1610.69 -4.12246 -0.666568 0
M  V30 16673 N 1611.13 -0.710588 -1.40671 0
M  V30 16674 C 1612.36 -0.257442 -2.05292 0
M  V30 16675 C 1612.77 1.09891 -1.53523 0
M  V30 16676 O 1612.13 1.68966 -0.689703 0
M  V30 16677 C 1612.18 -0.223091 -3.60811 0
M  V30 16678 O 1611.9 -1.52588 -4.10668 0
M  V30 16679 C 1613.4 0.249217 -4.42599 0
M  V30 16680 H 1610.62 -0.116663 -0.66078 0
M  V30 16681 H 1613.17 -0.967391 -1.80172 0
M  V30 16682 H 1611.32 0.437787 -3.84918 0
M  V30 16683 H 1611.74 -1.42301 -5.04827 0
M  V30 16684 H 1613.21 0.22211 -5.51553 0
M  V30 16685 H 1613.69 1.29057 -4.19811 0
M  V30 16686 H 1614.29 -0.381202 -4.23588 0
M  V30 16687 N 1612.61 1.50847 -0.456408 0
M  V30 16688 C 1613.86 2.01835 0.103414 0
M  V30 16689 C 1614.18 1.34142 1.4153 0
M  V30 16690 O 1613.45 0.482015 1.89877 0
M  V30 16691 H 1612.03 0.745863 0.0412074 0
M  V30 16692 H 1614.69 1.85322 -0.603477 0
M  V30 16693 H 1613.78 3.10968 0.265562 0
M  V30 16694 N 1614.09 0.188454 1.56469 0
M  V30 16695 C 1615.33 -0.452058 1.9739 0
M  V30 16696 C 1615.66 -1.62086 1.0751 0
M  V30 16697 O 1614.92 -1.95375 0.11278 0
M  V30 16698 C 1615.21 -0.960652 3.44247 0
M  V30 16699 C 1614.88 0.0940708 4.50802 0
M  V30 16700 C 1613.54 0.383899 4.79666 0
M  V30 16701 C 1615.89 0.80908 5.14882 0
M  V30 16702 C 1613.22 1.39383 5.69903 0
M  V30 16703 C 1615.57 1.80811 6.0621 0
M  V30 16704 C 1614.24 2.10521 6.33433 0
M  V30 16705 H 1613.51 -0.16542 0.7223 0
M  V30 16706 H 1616.16 0.284024 1.89382 0
M  V30 16707 H 1614.46 -1.77488 3.49292 0
M  V30 16708 H 1616.16 -1.46553 3.7326 0
M  V30 16709 H 1612.75 -0.141993 4.28365 0
M  V30 16710 H 1616.93 0.598391 4.92679 0
M  V30 16711 H 1612.19 1.63 5.89272 0
M  V30 16712 H 1616.36 2.36742 6.54925 0
M  V30 16713 H 1613.99 2.88924 7.03155 0
M  V30 16714 N 1615.56 -1.5737 -0.0851874 0
M  V30 16715 C 1616.81 -1.87731 -0.782849 0
M  V30 16716 C 1617.16 -0.780518 -1.75857 0
M  V30 16717 O 1616.46 0.216586 -1.90372 0
M  V30 16718 C 1616.65 -3.22427 -1.54194 0
M  V30 16719 C 1616.48 -4.45105 -0.641234 0
M  V30 16720 C 1615.25 -5.04506 -0.28322 0
M  V30 16721 C 1617.45 -5.14269 0.0561642 0
M  V30 16722 N 1615.43 -6.10714 0.624609 0
M  V30 16723 C 1616.8 -6.14531 0.821684 0
M  V30 16724 C 1618.86 -4.97733 0.129045 0
M  V30 16725 C 1617.56 -7.00042 1.65329 0
M  V30 16726 C 1619.59 -5.83759 0.947583 0
M  V30 16727 C 1618.95 -6.83549 1.70119 0
M  V30 16728 H 1615.05 -0.73669 -0.262319 0
M  V30 16729 H 1617.63 -1.94648 -0.0449314 0
M  V30 16730 H 1615.8 -3.16543 -2.25066 0
M  V30 16731 H 1617.53 -3.40481 -2.18757 0
M  V30 16732 H 1614.29 -4.69349 -0.633099 0
M  V30 16733 H 1614.71 -6.68469 1.07137 0
M  V30 16734 H 1619.35 -4.20512 -0.439253 0
M  V30 16735 H 1617.07 -7.76647 2.23261 0
M  V30 16736 H 1620.66 -5.73023 1.00678 0
M  V30 16737 H 1619.54 -7.48961 2.32437 0
M  V30 16738 N 1617.04 0.356258 -1.53521 0
M  V30 16739 C 1618.45 0.932569 -1.61741 0
M  V30 16740 C 1618.8 1.89965 -0.490677 0
M  V30 16741 O 1617.93 2.1301 0.381514 0
M  V30 16742 C 1618.52 1.69818 -2.93168 0
M  V30 16743 C 1617.08 2.22369 -3.03692 0
M  V30 16744 C 1616.23 1.03891 -2.57103 0
M  V30 16745 H 1619.18 0.134769 -1.58127 0
M  V30 16746 H 1619.2 2.56011 -2.81494 0
M  V30 16747 H 1618.71 0.994065 -3.75153 0
M  V30 16748 H 1616.81 2.95994 -2.26314 0
M  V30 16749 H 1616.93 2.49611 -4.08939 0
M  V30 16750 H 1615.29 1.40862 -2.12202 0
M  V30 16751 H 1616.07 0.349637 -3.41515 0
M  V30 16752 N 1618.52 1.45038 0.616577 0
M  V30 16753 C 1619.45 1.55858 1.73869 0
M  V30 16754 C 1620.43 0.410657 1.65069 0
M  V30 16755 O 1621.62 0.632652 1.83606 0
M  V30 16756 C 1618.75 1.51635 3.12448 0
M  V30 16757 C 1617.7 2.65053 3.36052 0
M  V30 16758 C 1617.03 2.45883 4.74811 0
M  V30 16759 C 1618.33 4.07121 3.27185 0
M  V30 16760 H 1620.02 2.49784 1.6507 0
M  V30 16761 H 1617.57 1.20216 0.792724 0
M  V30 16762 H 1619.52 1.57803 3.90738 0
M  V30 16763 H 1618.24 0.542342 3.22066 0
M  V30 16764 H 1616.9 2.58299 2.60149 0
M  V30 16765 H 1616.55 1.46641 4.8115 0
M  V30 16766 H 1616.25 3.21935 4.9156 0
M  V30 16767 H 1617.77 2.53892 5.55312 0
M  V30 16768 H 1619.19 4.15167 3.9536 0
M  V30 16769 H 1617.58 4.83491 3.55466 0
M  V30 16770 H 1618.65 4.29663 2.24762 0
M  V30 16771 N 1620 -0.858287 1.32179 0
M  V30 16772 C 1621.23 -1.64235 1.25341 0
M  V30 16773 C 1621.64 -1.88327 -0.181568 0
M  V30 16774 O 1620.98 -1.44996 -1.12791 0
M  V30 16775 C 1621.04 -3.02686 1.93963 0
M  V30 16776 C 1620.7 -3.01651 3.43301 0
M  V30 16777 C 1621.7 -2.78762 4.38848 0
M  V30 16778 C 1619.39 -3.22402 3.85178 0
M  V30 16779 C 1621.38 -2.76621 5.74247 0
M  V30 16780 C 1619.07 -3.19888 5.20687 0
M  V30 16781 C 1620.07 -2.97026 6.15032 0
M  V30 16782 O 1619.75 -2.94379 7.48061 0
M  V30 16783 H 1619.49 -0.518387 0.433879 0
M  V30 16784 H 1622.04 -1.07869 1.74795 0
M  V30 16785 H 1620.27 -3.60826 1.39074 0
M  V30 16786 H 1621.96 -3.63367 1.80884 0
M  V30 16787 H 1622.72 -2.62501 4.07821 0
M  V30 16788 H 1618.6 -3.39223 3.12167 0
M  V30 16789 H 1622.15 -2.58696 6.4786 0
M  V30 16790 H 1618.04 -3.35693 5.51344 0
M  V30 16791 H 1618.81 -3.10359 7.57377 0
M  V30 16792 N 1621.48 -1.1533 -1.07409 0
M  V30 16793 C 1622.89 -0.895817 -1.32088 0
M  V30 16794 C 1623.09 0.457526 -1.96237 0
M  V30 16795 O 1622.15 1.19958 -2.22185 0
M  V30 16796 C 1623.46 -2.03632 -2.21256 0
M  V30 16797 C 1625.01 -2.07079 -2.34707 0
M  V30 16798 C 1625.48 -3.20451 -3.27223 0
M  V30 16799 N 1626.97 -3.20095 -3.34804 0
M  V30 16800 C 1627.71 -4.04458 -4.0645 0
M  V30 16801 N 1627.21 -4.98883 -4.80715 0
M  V30 16802 N 1629 -3.92483 -4.02385 0
M  V30 16803 H 1621.15 -2.02478 -0.641578 0
M  V30 16804 H 1623.41 -0.882864 -0.345332 0
M  V30 16805 H 1623.12 -3.0132 -1.81381 0
M  V30 16806 H 1622.99 -1.96817 -3.21781 0
M  V30 16807 H 1625.38 -1.09991 -2.73836 0
M  V30 16808 H 1625.46 -2.17962 -1.3389 0
M  V30 16809 H 1625.1 -4.17791 -2.88813 0
M  V30 16810 H 1625.03 -3.06805 -4.27993 0
M  V30 16811 H 1627.53 -2.51712 -2.81868 0
M  V30 16812 H 1627.84 -5.59698 -5.32877 0
M  V30 16813 H 1626.18 -5.02872 -4.79734 0
M  V30 16814 H 1629.37 -3.18026 -3.43478 0
M  V30 16815 H 1629.55 -4.58454 -4.57956 0
M  V30 16816 N 1622.95 1.25748 -0.950004 0
M  V30 16817 C 1624.2 1.93336 -0.602294 0
M  V30 16818 C 1624.53 1.74454 0.859994 0
M  V30 16819 O 1623.78 1.08032 1.6318 0
M  V30 16820 C 1624.08 3.45843 -0.901521 0
M  V30 16821 C 1623.75 3.84874 -2.3491 0
M  V30 16822 C 1622.41 3.9524 -2.74479 0
M  V30 16823 C 1624.76 4.04286 -3.28941 0
M  V30 16824 C 1622.09 4.22422 -4.07157 0
M  V30 16825 C 1624.44 4.32959 -4.61225 0
M  V30 16826 C 1623.11 4.41541 -5.00597 0
M  V30 16827 H 1622.38 0.707465 -0.220395 0
M  V30 16828 H 1625.02 1.49386 -1.19817 0
M  V30 16829 H 1623.33 3.91164 -0.2232 0
M  V30 16830 H 1625.03 3.96316 -0.611134 0
M  V30 16831 H 1621.62 3.77358 -2.03221 0
M  V30 16832 H 1625.8 3.95697 -2.99563 0
M  V30 16833 H 1621.06 4.27281 -4.37311 0
M  V30 16834 H 1625.23 4.46925 -5.3407 0
M  V30 16835 H 1622.86 4.62358 -6.03431 0
M  V30 16836 N 1624.43 0.718038 1.40292 0
M  V30 16837 C 1625.71 0.185648 1.94717 0
M  V30 16838 C 1626.09 -1.30916 1.65603 0
M  V30 16839 O 1625.44 -2.06653 0.975031 0
M  V30 16840 C 1625.65 0.501015 3.45385 0
M  V30 16841 C 1626.99 0.441021 4.22303 0
M  V30 16842 O 1628.02 0.437217 3.53507 0
M  V30 16843 O 1626.88 0.420689 5.44878 0
M  V30 16844 H 1623.97 0.0281581 0.82652 0
M  V30 16845 H 1626.52 0.795738 1.49887 0
M  V30 16846 H 1625.29 1.5348 3.59944 0
M  V30 16847 H 1624.91 -0.138913 3.97357 0
M  V30 16848 N 1625.91 -1.50602 0.464402 0
M  V30 16849 C 1627.32 -1.86698 0.00767586 0
M  V30 16850 C 1627.67 -1.37971 -1.39494 0
M  V30 16851 O 1626.8 -0.741843 -2.03287 0
M  V30 16852 C 1627.39 -3.38799 0.00715323 0
M  V30 16853 C 1625.95 -3.74331 -0.394077 0
M  V30 16854 C 1625.1 -2.74465 0.395495 0
M  V30 16855 H 1628.05 -1.43441 0.678996 0
M  V30 16856 H 1628.07 -3.7207 -0.796497 0
M  V30 16857 H 1627.58 -3.74234 1.02812 0
M  V30 16858 H 1625.68 -3.44495 -1.41964 0
M  V30 16859 H 1625.8 -4.78995 -0.10007 0
M  V30 16860 H 1624.16 -2.54258 -0.149903 0
M  V30 16861 H 1624.94 -3.12744 1.41585 0
M  V30 16862 N 1627.39 -0.19675 -1.56367 0
M  V30 16863 C 1628.8 0.159068 -1.58805 0
M  V30 16864 C 1629 1.60902 -1.21297 0
M  V30 16865 O 1628.06 2.34491 -0.93649 0
M  V30 16866 C 1629.37 -0.144784 -3.00351 0
M  V30 16867 C 1630.92 -0.0850243 -3.12884 0
M  V30 16868 C 1631.4 -0.362209 -4.56565 0
M  V30 16869 N 1632.89 -0.310887 -4.62156 0
M  V30 16870 C 1633.62 -0.499187 -5.71223 0
M  V30 16871 N 1633.12 -0.747925 -6.88751 0
M  V30 16872 N 1634.91 -0.433329 -5.60427 0
M  V30 16873 H 1627.06 -1.1429 -1.79029 0
M  V30 16874 H 1629.33 -0.456298 -0.830961 0
M  V30 16875 H 1629.03 -1.15019 -3.3236 0
M  V30 16876 H 1628.91 0.551864 -3.73141 0
M  V30 16877 H 1631.29 0.910992 -2.80687 0
M  V30 16878 H 1631.37 -0.814774 -2.42477 0
M  V30 16879 H 1631.02 -1.35555 -4.89477 0
M  V30 16880 H 1630.95 0.388448 -5.25165 0
M  V30 16881 H 1633.44 -0.125318 -3.77692 0
M  V30 16882 H 1633.75 -0.880372 -7.67769 0
M  V30 16883 H 1632.1 -0.784838 -6.90554 0
M  V30 16884 H 1635.29 -0.239411 -4.67487 0
M  V30 16885 H 1635.46 -0.583495 -6.45368 0
M  V30 16886 N 1628.87 1.57413 0.0768405 0
M  V30 16887 C 1630.28 1.53656 0.431508 0
M  V30 16888 C 1630.48 0.916194 1.79466 0
M  V30 16889 O 1629.54 0.516529 2.4716 0
M  V30 16890 C 1630.85 2.98325 0.377212 0
M  V30 16891 C 1632.4 3.09635 0.457761 0
M  V30 16892 C 1632.87 4.55945 0.433425 0
M  V30 16893 N 1634.37 4.60562 0.493647 0
M  V30 16894 C 1635.1 5.71242 0.496949 0
M  V30 16895 N 1634.6 6.91302 0.455368 0
M  V30 16896 N 1636.39 5.5947 0.543129 0
M  V30 16897 H 1628.54 1.96108 -0.815811 0
M  V30 16898 H 1630.8 0.897392 -0.3056 0
M  V30 16899 H 1630.51 3.47251 -0.557628 0
M  V30 16900 H 1630.38 3.57959 1.18932 0
M  V30 16901 H 1632.77 2.60685 1.38302 0
M  V30 16902 H 1632.85 2.52919 -0.382829 0
M  V30 16903 H 1632.5 5.0555 -0.487968 0
M  V30 16904 H 1632.43 5.10518 1.29148 0
M  V30 16905 H 1634.92 3.74162 0.530237 0
M  V30 16906 H 1635.23 7.7142 0.461674 0
M  V30 16907 H 1633.57 6.93717 0.422133 0
M  V30 16908 H 1636.77 4.64576 0.573272 0
M  V30 16909 H 1636.94 6.45727 0.542234 0
M  V30 16910 N 1630.34 -0.348112 1.53707 0
M  V30 16911 C 1631.31 -1.41018 1.80683 0
M  V30 16912 C 1632.31 -1.4582 0.67774 0
M  V30 16913 O 1633.5 -1.46275 0.94601 0
M  V30 16914 C 1630.63 -2.79988 1.94473 0
M  V30 16915 H 1631.82 -1.18365 2.75554 0
M  V30 16916 H 1629.38 -0.582244 1.4505 0
M  V30 16917 H 1630.11 -3.07931 1.0173 0
M  V30 16918 H 1629.9 -2.77899 2.76612 0
M  V30 16919 H 1631.39 -3.56868 2.16876 0
M  V30 16920 N 1631.82 -1.45363 -0.608876 0
M  V30 16921 C 1633.1 -1.39787 -1.36817 0
M  V30 16922 C 1633.48 -0.067821 -2.10991 0
M  V30 16923 O 1632.83 0.950196 -2.07806 0
M  V30 16924 C 1633.04 -2.61073 -2.31608 0
M  V30 16925 C 1634.39 -3.06104 -2.94254 0
M  V30 16926 O 1635.41 -2.61436 -2.41929 0
M  V30 16927 O 1634.27 -3.83616 -3.89231 0
M  V30 16928 H 1631.36 -0.554657 -0.61342 0
M  V30 16929 H 1633.91 -1.57489 -0.632073 0
M  V30 16930 H 1632.68 -3.4946 -1.76049 0
M  V30 16931 H 1632.3 -2.45697 -3.126 0
M  V30 16932 N 1633.3 0.851265 -1.32632 0
M  V30 16933 C 1634.21 1.99239 -1.23858 0
M  V30 16934 C 1635.23 1.73339 -0.151517 0
M  V30 16935 O 1636.4 1.97919 -0.372822 0
M  V30 16936 C 1633.47 3.32987 -0.965417 0
M  V30 16937 C 1632.53 3.72087 -2.14126 0
M  V30 16938 C 1631.76 4.99453 -1.88103 0
M  V30 16939 O 1631.98 5.64399 -0.825253 0
M  V30 16940 O 1630.92 5.35763 -2.74302 0
M  V30 16941 H 1634.74 2.09579 -2.19796 0
M  V30 16942 H 1632.33 0.98243 -1.12555 0
M  V30 16943 H 1634.21 4.13151 -0.829713 0
M  V30 16944 H 1632.89 3.2368 -0.036219 0
M  V30 16945 H 1631.79 2.92485 -2.33245 0
M  V30 16946 H 1633.13 3.86045 -3.05336 0
M  V30 16947 N 1634.78 1.15898 1.06796 0
M  V30 16948 C 1636.03 0.935488 1.79145 0
M  V30 16949 C 1636.35 -0.538433 1.87419 0
M  V30 16950 O 1635.62 -1.39124 1.37917 0
M  V30 16951 H 1634.2 0.343123 0.663533 0
M  V30 16952 H 1636.86 1.4607 1.29034 0
M  V30 16953 H 1635.96 1.34978 2.81402 0
M  V30 16954 N 1636.26 -1.25243 0.956659 0
M  V30 16955 C 1637.2 -2.25811 0.477292 0
M  V30 16956 C 1638.17 -1.59273 -0.471301 0
M  V30 16957 O 1639.36 -1.86894 -0.384105 0
M  V30 16958 C 1636.5 -3.44286 -0.236891 0
M  V30 16959 C 1635.61 -4.25454 0.749177 0
M  V30 16960 C 1634.75 -5.31199 0.012228 0
M  V30 16961 C 1633.79 -6.04056 0.989094 0
M  V30 16962 N 1632.92 -7.0153 0.282883 0
M  V30 16963 H 1637.76 -2.66185 1.33977 0
M  V30 16964 H 1635.3 -1.30862 0.671832 0
M  V30 16965 H 1637.26 -4.11825 -0.66755 0
M  V30 16966 H 1635.89 -3.04781 -1.06339 0
M  V30 16967 H 1634.94 -3.57558 1.29831 0
M  V30 16968 H 1636.25 -4.75883 1.49454 0
M  V30 16969 H 1635.41 -6.04822 -0.476968 0
M  V30 16970 H 1634.14 -4.81648 -0.76591 0
M  V30 16971 H 1633.15 -5.29245 1.48927 0
M  V30 16972 H 1634.37 -6.55695 1.76749 0
M  V30 16973 H 1632.32 -6.54267 -0.476479 0
M  V30 16974 H 1632.24 -7.49786 0.967304 0
M  V30 16975 H 1633.51 -7.79281 -0.184709 0
M  V30 16976 N 1637.73 -0.725468 -1.3991 0
M  V30 16977 C 1638.66 -0.094211 -2.3331 0
M  V30 16978 C 1639.65 0.734728 -1.53414 0
M  V30 16979 O 1640.83 0.681647 -1.81844 0
M  V30 16980 C 1637.96 0.820958 -3.37457 0
M  V30 16981 C 1636.91 0.0968983 -4.2789 0
M  V30 16982 C 1636.24 1.12845 -5.22657 0
M  V30 16983 C 1637.54 -1.05483 -5.11537 0
M  V30 16984 H 1639.23 -0.874365 -2.86348 0
M  V30 16985 H 1636.78 -0.421913 -1.3768 0
M  V30 16986 H 1638.73 1.27203 -4.01743 0
M  V30 16987 H 1637.46 1.63312 -2.82837 0
M  V30 16988 H 1636.12 -0.334454 -3.65071 0
M  V30 16989 H 1635.76 1.93392 -4.64337 0
M  V30 16990 H 1635.46 0.648805 -5.84007 0
M  V30 16991 H 1636.99 1.57942 -5.89819 0
M  V30 16992 H 1638.4 -0.682657 -5.69221 0
M  V30 16993 H 1636.8 -1.46349 -5.81981 0
M  V30 16994 H 1637.87 -1.88095 -4.46932 0
M  V30 16995 N 1639.21 1.50354 -0.472382 0
M  V30 16996 C 1640.62 1.86692 -0.0175768 0
M  V30 16997 C 1640.97 1.38708 1.3876 0
M  V30 16998 O 1640.1 0.752614 2.02891 0
M  V30 16999 C 1640.69 3.38791 -0.0251205 0
M  V30 17000 C 1639.25 3.74535 0.37422 0
M  V30 17001 C 1638.4 2.74252 -0.410045 0
M  V30 17002 H 1641.35 1.43079 -0.686593 0
M  V30 17003 H 1641.37 3.72487 0.776754 0
M  V30 17004 H 1640.88 3.73684 -1.04795 0
M  V30 17005 H 1638.99 3.45243 1.40135 0
M  V30 17006 H 1639.1 4.79042 0.0746666 0
M  V30 17007 H 1637.46 2.54334 0.136417 0
M  V30 17008 H 1638.25 3.11989 -1.43241 0
M  V30 17009 N 1640.69 0.205039 1.56261 0
M  V30 17010 C 1641.62 -0.706815 2.22545 0
M  V30 17011 C 1642.6 -1.21372 1.19176 0
M  V30 17012 O 1643.79 -1.26074 1.47712 0
M  V30 17013 C 1640.92 -1.92221 2.89255 0
M  V30 17014 C 1639.87 -1.54982 3.98954 0
M  V30 17015 C 1639.2 -2.84265 4.52877 0
M  V30 17016 C 1640.5 -0.75225 5.16854 0
M  V30 17017 H 1642.19 -0.15421 2.99003 0
M  V30 17018 H 1639.74 -0.0727309 1.43816 0
M  V30 17019 H 1641.69 -2.56542 3.34311 0
M  V30 17020 H 1640.41 -2.49952 2.10218 0
M  V30 17021 H 1639.07 -0.930155 3.54604 0
M  V30 17022 H 1638.72 -3.40105 3.70591 0
M  V30 17023 H 1638.42 -2.60089 5.26904 0
M  V30 17024 H 1639.95 -3.49557 5.00642 0
M  V30 17025 H 1641.36 -1.29878 5.58395 0
M  V30 17026 H 1639.76 -0.60823 5.9701 0
M  V30 17027 H 1640.83 0.24463 4.84283 0
M  V30 17028 N 1642.17 -1.57451 -0.0684915 0
M  V30 17029 C 1643.13 -2.0293 -1.06545 0
M  V30 17030 C 1644.13 -0.926861 -1.314 0
M  V30 17031 O 1645.32 -1.19164 -1.27065 0
M  V30 17032 C 1642.45 -2.41276 -2.4083 0
M  V30 17033 H 1643.65 -2.92242 -0.673401 0
M  V30 17034 H 1641.2 -1.53107 -0.314307 0
M  V30 17035 H 1641.94 -1.55 -2.8486 0
M  V30 17036 H 1641.72 -3.21727 -2.2413 0
M  V30 17037 H 1643.21 -2.77026 -3.12484 0
M  V30 17038 N 1643.65 0.339955 -1.5389 0
M  V30 17039 C 1644.58 1.42316 -1.85117 0
M  V30 17040 C 1645.56 1.5473 -0.706591 0
M  V30 17041 O 1646.74 1.68879 -0.958834 0
M  V30 17042 C 1643.87 2.79317 -2.06396 0
M  V30 17043 C 1642.83 2.81707 -3.22219 0
M  V30 17044 C 1642.15 4.21627 -3.28838 0
M  V30 17045 C 1643.45 2.46921 -4.60247 0
M  V30 17046 H 1645.15 1.16431 -2.75834 0
M  V30 17047 H 1642.69 0.558661 -1.32721 0
M  V30 17048 H 1644.65 3.55145 -2.26826 0
M  V30 17049 H 1643.37 3.06644 -1.12414 0
M  V30 17050 H 1642.03 2.08332 -3.01651 0
M  V30 17051 H 1641.68 4.4607 -2.32444 0
M  V30 17052 H 1641.38 4.24137 -4.06672 0
M  V30 17053 H 1642.9 4.99292 -3.51482 0
M  V30 17054 H 1644.32 3.12462 -4.80667 0
M  V30 17055 H 1642.71 2.60707 -5.40511 0
M  V30 17056 H 1643.78 1.421 -4.63611 0
M  V30 17057 N 1645.13 1.45684 0.601159 0
M  V30 17058 C 1646.4 1.4051 1.36074 0
M  V30 17059 C 1646.78 0.0790095 2.10952 0
M  V30 17060 O 1646.13 -0.939162 2.08307 0
M  V30 17061 C 1646.34 2.62297 2.3022 0
M  V30 17062 C 1647.69 3.0766 2.92627 0
M  V30 17063 O 1648.71 2.62716 2.40539 0
M  V30 17064 O 1647.57 3.85675 3.87191 0
M  V30 17065 H 1644.67 0.557902 0.61047 0
M  V30 17066 H 1647.21 1.57822 0.623712 0
M  V30 17067 H 1645.98 3.50389 1.74194 0
M  V30 17068 H 1645.61 2.47351 3.11293 0
M  V30 17069 N 1646.6 -0.84422 1.33082 0
M  V30 17070 C 1647.83 -1.63654 1.27405 0
M  V30 17071 C 1648.25 -1.87476 -0.153146 0
M  V30 17072 O 1647.61 -1.43502 -1.10801 0
M  V30 17073 C 1647.66 -2.96698 2.04945 0
M  V30 17074 O 1646.76 -3.87751 1.40439 0
M  V30 17075 H 1646.1 -0.498545 0.438576 0
M  V30 17076 H 1648.63 -1.0507 1.7556 0
M  V30 17077 H 1648.64 -3.46438 2.1551 0
M  V30 17078 H 1647.32 -2.78682 3.08722 0
M  V30 17079 H 1645.9 -3.46231 1.38487 0
M  V30 17080 N 1648.08 -1.16463 -1.0618 0
M  V30 17081 C 1649.5 -0.909776 -1.31131 0
M  V30 17082 C 1649.7 0.436686 -1.96711 0
M  V30 17083 O 1648.75 1.17595 -2.23445 0
M  V30 17084 C 1650.07 -2.05967 -2.19084 0
M  V30 17085 C 1651.61 -2.09557 -2.32497 0
M  V30 17086 C 1652.09 -3.23904 -3.23806 0
M  V30 17087 N 1653.58 -3.23628 -3.3139 0
M  V30 17088 C 1654.32 -4.08746 -4.02137 0
M  V30 17089 N 1653.81 -5.03954 -4.75397 0
M  V30 17090 N 1655.6 -3.96729 -3.98199 0
M  V30 17091 H 1647.76 -2.03148 -0.620066 0
M  V30 17092 H 1650.02 -0.886477 -0.335949 0
M  V30 17093 H 1649.72 -3.03227 -1.78174 0
M  V30 17094 H 1649.6 -2.00219 -3.19675 0
M  V30 17095 H 1651.99 -1.12889 -2.72654 0
M  V30 17096 H 1652.07 -2.19369 -1.3157 0
M  V30 17097 H 1651.71 -4.20831 -2.84366 0
M  V30 17098 H 1651.64 -3.11327 -4.24715 0
M  V30 17099 H 1654.13 -2.54687 -2.79182 0
M  V30 17100 H 1654.44 -5.65319 -5.2691 0
M  V30 17101 H 1652.79 -5.07932 -4.74373 0
M  V30 17102 H 1655.98 -3.21652 -3.40085 0
M  V30 17103 H 1656.15 -4.63286 -4.53067 0
M  V30 17104 N 1649.56 1.24734 -0.963288 0
M  V30 17105 C 1650.97 1.7456 -0.662246 0
M  V30 17106 C 1651.32 1.78143 0.822169 0
M  V30 17107 O 1650.45 1.40794 1.64335 0
M  V30 17108 C 1651.04 3.1701 -1.19542 0
M  V30 17109 C 1649.6 3.64361 -0.944371 0
M  V30 17110 C 1648.75 2.4314 -1.33335 0
M  V30 17111 H 1651.7 1.10498 -1.13911 0
M  V30 17112 H 1651.72 3.76362 -0.559601 0
M  V30 17113 H 1651.23 3.1437 -2.27581 0
M  V30 17114 H 1649.33 3.72405 0.120682 0
M  V30 17115 H 1649.45 4.52055 -1.58692 0
M  V30 17116 H 1647.81 2.43354 -0.751729 0
M  V30 17117 H 1648.59 2.43185 -2.42314 0
M  V30 17118 N 1651.04 0.732878 1.39523 0
M  V30 17119 C 1652.45 0.350145 1.83387 0
M  V30 17120 C 1652.8 -1.11807 1.61225 0
M  V30 17121 O 1651.92 -1.86222 1.10229 0
M  V30 17122 C 1652.52 0.628743 3.32915 0
M  V30 17123 C 1651.08 0.299529 3.75206 0
M  V30 17124 C 1650.23 0.892434 2.62547 0
M  V30 17125 H 1653.18 0.930687 1.28545 0
M  V30 17126 H 1653.2 -0.100206 3.80368 0
M  V30 17127 H 1652.71 1.6974 3.49013 0
M  V30 17128 H 1650.81 -0.763373 3.64696 0
M  V30 17129 H 1650.92 0.780607 4.72698 0
M  V30 17130 H 1649.29 0.319218 2.52692 0
M  V30 17131 H 1650.07 1.9657 2.81452 0
M  V30 17132 N 1652.52 -1.50101 0.480349 0
M  V30 17133 C 1653.74 -2.07278 -0.0710872 0
M  V30 17134 C 1654.17 -1.34082 -1.31923 0
M  V30 17135 O 1653.52 -0.391251 -1.77028 0
M  V30 17136 C 1653.57 -3.59099 -0.328706 0
M  V30 17137 O 1652.68 -3.8764 -1.40745 0
M  V30 17138 H 1652.02 -0.66378 0.0170748 0
M  V30 17139 H 1654.55 -1.93178 0.674049 0
M  V30 17140 H 1654.56 -4.04049 -0.566435 0
M  V30 17141 H 1653.23 -4.11789 0.583316 0
M  V30 17142 H 1651.81 -3.54519 -1.15631 0
M  V30 17143 N 1653.99 -0.213323 -1.5615 0
M  V30 17144 C 1654.9 0.711703 -2.23544 0
M  V30 17145 C 1655.92 1.22027 -1.24038 0
M  V30 17146 O 1657.1 1.26361 -1.56828 0
M  V30 17147 C 1654.16 1.90645 -2.89578 0
M  V30 17148 C 1653.22 1.44066 -4.04405 0
M  V30 17149 C 1652.45 2.57846 -4.6728 0
M  V30 17150 O 1652.68 3.75781 -4.29121 0
M  V30 17151 O 1651.61 2.29518 -5.56422 0
M  V30 17152 H 1655.44 0.167635 -3.03237 0
M  V30 17153 H 1653.02 0.016771 -1.49391 0
M  V30 17154 H 1654.9 2.60435 -3.31288 0
M  V30 17155 H 1653.58 2.43877 -2.12851 0
M  V30 17156 H 1652.49 0.711024 -3.67281 0
M  V30 17157 H 1653.82 0.954809 -4.8285 0
M  V30 17158 N 1655.47 1.57485 0.0601405 0
M  V30 17159 C 1656.44 2.03493 1.05467 0
M  V30 17160 C 1657.44 0.933816 1.30907 0
M  V30 17161 O 1658.63 1.19837 1.26431 0
M  V30 17162 C 1655.76 2.42549 2.39547 0
M  V30 17163 H 1656.95 2.92595 0.657893 0
M  V30 17164 H 1654.5 1.53272 0.306183 0
M  V30 17165 H 1655.24 1.56509 2.84034 0
M  V30 17166 H 1655.02 3.22911 2.22421 0
M  V30 17167 H 1656.51 2.7868 3.1101 0
M  V30 17168 N 1656.95 -0.331789 1.54068 0
M  V30 17169 C 1658.36 -0.906719 1.63204 0
M  V30 17170 C 1658.71 -1.89161 0.520837 0
M  V30 17171 O 1657.84 -2.1359 -0.347577 0
M  V30 17172 C 1658.43 -1.65132 2.95832 0
M  V30 17173 C 1656.99 -2.17509 3.07192 0
M  V30 17174 C 1656.14 -0.99788 2.58723 0
M  V30 17175 H 1659.09 -0.109595 1.58321 0
M  V30 17176 H 1659.11 -2.515 2.85531 0
M  V30 17177 H 1658.62 -0.934255 3.76687 0
M  V30 17178 H 1656.72 -2.92356 2.30995 0
M  V30 17179 H 1656.84 -2.43074 4.12858 0
M  V30 17180 H 1655.2 -1.37469 2.14417 0
M  V30 17181 H 1655.98 -0.295261 3.42028 0
M  V30 17182 N 1658.43 -1.46001 -0.593424 0
M  V30 17183 C 1659.34 -1.58316 -1.73128 0
M  V30 17184 C 1660.35 -0.467029 -1.67615 0
M  V30 17185 O 1661.53 -0.729682 -1.87717 0
M  V30 17186 C 1658.6 -1.56007 -3.09617 0
M  V30 17187 C 1657.66 -2.78769 -3.26475 0
M  V30 17188 C 1656.89 -2.76561 -4.56453 0
M  V30 17189 O 1657.11 -1.84694 -5.39671 0
M  V30 17190 O 1656.05 -3.67959 -4.76329 0
M  V30 17191 H 1659.87 -2.54522 -1.65686 0
M  V30 17192 H 1657.46 -1.28672 -0.759204 0
M  V30 17193 H 1659.34 -1.57377 -3.9091 0
M  V30 17194 H 1658.01 -0.629571 -3.17519 0
M  V30 17195 H 1656.92 -2.82956 -2.44717 0
M  V30 17196 H 1658.25 -3.70992 -3.23459 0
M  V30 17197 N 1659.91 0.83715 -1.33527 0
M  V30 17198 C 1660.82 1.97915 -1.25964 0
M  V30 17199 C 1661.83 1.73169 -0.169894 0
M  V30 17200 O 1663.01 1.97513 -0.393793 0
M  V30 17201 C 1660.07 3.31945 -1.00068 0
M  V30 17202 C 1659.13 3.69795 -2.1806 0
M  V30 17203 C 1658.37 4.97429 -1.9339 0
M  V30 17204 O 1658.59 5.63492 -0.885069 0
M  V30 17205 O 1657.52 5.32823 -2.79969 0
M  V30 17206 H 1661.35 2.07236 -2.22007 0
M  V30 17207 H 1658.94 0.970437 -1.13591 0
M  V30 17208 H 1660.82 4.12248 -0.873487 0
M  V30 17209 H 1659.49 3.23623 -0.0705475 0
M  V30 17210 H 1658.4 2.89995 -2.36334 0
M  V30 17211 H 1659.73 3.82784 -3.09414 0
M  V30 17212 N 1661.38 1.17024 1.05561 0
M  V30 17213 C 1662.61 0.98075 1.82178 0
M  V30 17214 C 1663.03 -0.471027 1.8283 0
M  V30 17215 O 1662.38 -1.32703 1.25284 0
M  V30 17216 C 1662.44 1.50979 3.28463 0
M  V30 17217 O 1662.16 2.90471 3.27961 0
M  V30 17218 C 1663.66 1.36436 4.21782 0
M  V30 17219 H 1660.88 0.3472 0.574189 0
M  V30 17220 H 1663.42 1.55226 1.33136 0
M  V30 17221 H 1661.58 0.980393 3.74789 0
M  V30 17222 H 1661.99 3.14847 4.19489 0
M  V30 17223 H 1663.46 1.78272 5.2242 0
M  V30 17224 H 1663.94 0.310922 4.38098 0
M  V30 17225 H 1664.55 1.88374 3.81308 0
M  V30 17226 N 1662.86 -1.24221 0.969889 0
M  V30 17227 C 1663.79 -2.27619 0.520745 0
M  V30 17228 C 1664.77 -1.64291 -0.440731 0
M  V30 17229 O 1665.96 -1.91265 -0.336381 0
M  V30 17230 C 1663.09 -3.46792 -0.187768 0
M  V30 17231 C 1662.04 -4.22402 0.689945 0
M  V30 17232 C 1661.37 -5.34489 -0.150186 0
M  V30 17233 C 1662.67 -4.83494 1.97562 0
M  V30 17234 H 1664.36 -2.65441 1.38498 0
M  V30 17235 H 1661.91 -1.276 0.667398 0
M  V30 17236 H 1663.86 -4.18263 -0.513216 0
M  V30 17237 H 1662.59 -3.08002 -1.08637 0
M  V30 17238 H 1661.24 -3.52734 0.998696 0
M  V30 17239 H 1660.89 -4.9194 -1.049 0
M  V30 17240 H 1660.59 -5.85996 0.433891 0
M  V30 17241 H 1662.12 -6.08786 -0.470255 0
M  V30 17242 H 1663.53 -5.47028 1.71561 0
M  V30 17243 H 1661.93 -5.45243 2.5066 0
M  V30 17244 H 1663 -4.04826 2.66915 0
M  V30 17245 N 1664.34 -0.740267 -1.39132 0
M  V30 17246 C 1665.27 -0.118951 -2.33197 0
M  V30 17247 C 1666.25 0.718416 -1.54184 0
M  V30 17248 O 1667.44 0.662322 -1.82557 0
M  V30 17249 C 1664.57 0.78512 -3.38309 0
M  V30 17250 C 1663.52 0.0515093 -4.27969 0
M  V30 17251 C 1662.85 1.07295 -5.23824 0
M  V30 17252 C 1664.15 -1.10903 -5.1039 0
M  V30 17253 H 1665.84 -0.904687 -2.85405 0
M  V30 17254 H 1663.39 -0.436493 -1.37225 0
M  V30 17255 H 1665.34 1.22935 -4.03069 0
M  V30 17256 H 1664.06 1.60303 -2.84553 0
M  V30 17257 H 1662.72 -0.373156 -3.64696 0
M  V30 17258 H 1662.37 1.88456 -4.66362 0
M  V30 17259 H 1662.07 0.586827 -5.84662 0
M  V30 17260 H 1663.59 1.51677 -5.91461 0
M  V30 17261 H 1665.01 -0.742993 -5.68465 0
M  V30 17262 H 1663.41 -1.52513 -5.80396 0
M  V30 17263 H 1664.48 -1.92825 -4.44912 0
M  V30 17264 N 1665.82 1.49844 -0.488302 0
M  V30 17265 C 1666.77 2.25802 0.315853 0
M  V30 17266 C 1667.75 1.30108 0.946606 0
M  V30 17267 O 1668.94 1.54908 0.856306 0
M  V30 17268 C 1666.07 3.14024 1.38723 0
M  V30 17269 C 1665.16 4.17174 0.763348 0
M  V30 17270 N 1665.55 5.05642 -0.126544 0
M  V30 17271 C 1663.85 4.34053 1.02537 0
M  V30 17272 C 1664.55 5.79696 -0.482379 0
M  V30 17273 N 1663.53 5.43402 0.146639 0
M  V30 17274 H 1667.33 2.91569 -0.369397 0
M  V30 17275 H 1664.84 1.59538 -0.30355 0
M  V30 17276 H 1666.84 3.67061 1.97666 0
M  V30 17277 H 1665.5 2.49807 2.07429 0
M  V30 17278 H 1666.51 5.15514 -0.49653 0
M  V30 17279 H 1663.19 3.81048 1.70613 0
M  V30 17280 H 1664.58 6.60921 -1.20965 0
M  V30 17281 N 1667.3 0.221601 1.56034 0
M  V30 17282 C 1668.21 -0.699837 2.23918 0
M  V30 17283 C 1669.22 -1.21367 1.24683 0
M  V30 17284 O 1670.4 -1.25527 1.57495 0
M  V30 17285 C 1667.46 -1.89107 2.90585 0
M  V30 17286 C 1666.52 -1.4192 4.05163 0
M  V30 17287 C 1665.76 -2.55365 4.68641 0
M  V30 17288 O 1665.98 -3.735 4.31108 0
M  V30 17289 O 1664.91 -2.26564 5.57631 0
M  V30 17290 H 1668.74 -0.151552 3.03322 0
M  V30 17291 H 1666.33 -0.0088482 1.49397 0
M  V30 17292 H 1668.21 -2.58674 3.32664 0
M  V30 17293 H 1666.88 -2.42745 2.14141 0
M  V30 17294 H 1665.79 -0.691536 3.67653 0
M  V30 17295 H 1667.12 -0.929189 4.8335 0
M  V30 17296 N 1668.77 -1.57515 -0.0517878 0
M  V30 17297 C 1669.71 -2.01812 -1.08649 0
M  V30 17298 C 1670.72 -0.92719 -1.33817 0
M  V30 17299 O 1671.91 -1.20483 -1.31705 0
M  V30 17300 C 1669.01 -2.35903 -2.43316 0
M  V30 17301 C 1668.18 -3.67095 -2.37824 0
M  V30 17302 C 1667.24 -3.8863 -3.54758 0
M  V30 17303 O 1666.27 -4.59974 -3.3528 0
M  V30 17304 N 1667.47 -3.32516 -4.75829 0
M  V30 17305 H 1670.23 -2.91191 -0.709094 0
M  V30 17306 H 1667.79 -1.60109 -0.240125 0
M  V30 17307 H 1669.79 -2.47466 -3.20223 0
M  V30 17308 H 1668.36 -1.52312 -2.72983 0
M  V30 17309 H 1667.58 -3.66099 -1.46168 0
M  V30 17310 H 1668.86 -4.53199 -2.31275 0
M  V30 17311 H 1668.26 -2.74645 -4.94557 0
M  V30 17312 H 1666.82 -3.49496 -5.50178 0
M  V30 17313 N 1670.25 0.323614 -1.54242 0
M  V30 17314 C 1671.67 0.66795 -1.4495 0
M  V30 17315 C 1671.87 1.91649 -0.622338 0
M  V30 17316 O 1670.93 2.52209 -0.121119 0
M  V30 17317 C 1672.24 0.842006 -2.88671 0
M  V30 17318 C 1673.79 0.93935 -2.98572 0
M  V30 17319 C 1674.26 1.14557 -4.43442 0
M  V30 17320 N 1675.75 1.21231 -4.47054 0
M  V30 17321 C 1676.49 1.38976 -5.56303 0
M  V30 17322 N 1675.98 1.53764 -6.75521 0
M  V30 17323 N 1677.78 1.41684 -5.4395 0
M  V30 17324 H 1669.93 -0.497017 -2.06503 0
M  V30 17325 H 1672.19 -0.160563 -0.934304 0
M  V30 17326 H 1671.9 -0.00418568 -3.517 0
M  V30 17327 H 1671.77 1.73785 -3.34782 0
M  V30 17328 H 1674.16 1.77605 -2.35671 0
M  V30 17329 H 1674.24 0.0199775 -2.55792 0
M  V30 17330 H 1673.88 0.313732 -5.0693 0
M  V30 17331 H 1673.81 2.07882 -4.83831 0
M  V30 17332 H 1676.3 1.11247 -3.61154 0
M  V30 17333 H 1676.62 1.66996 -7.54541 0
M  V30 17334 H 1674.96 1.50862 -6.78429 0
M  V30 17335 H 1678.15 1.29726 -4.49765 0
M  V30 17336 H 1678.33 1.5517 -6.29147 0
M  V30 17337 N 1671.73 1.46313 0.585673 0
M  V30 17338 C 1672.98 1.5147 1.34399 0
M  V30 17339 C 1673.31 0.165209 1.93797 0
M  V30 17340 O 1672.56 -0.838796 1.76813 0
M  V30 17341 C 1672.86 2.55895 2.49504 0
M  V30 17342 C 1672.53 3.99997 2.08118 0
M  V30 17343 C 1671.19 4.3923 1.96545 0
M  V30 17344 C 1673.54 4.90532 1.76147 0
M  V30 17345 C 1670.87 5.66867 1.51256 0
M  V30 17346 C 1673.22 6.18603 1.32338 0
M  V30 17347 C 1671.88 6.56745 1.1934 0
M  V30 17348 H 1671.15 0.554268 0.491801 0
M  V30 17349 H 1673.8 1.79774 0.659803 0
M  V30 17350 H 1672.11 2.21241 3.23357 0
M  V30 17351 H 1673.8 2.57116 3.07722 0
M  V30 17352 H 1670.39 3.68983 2.18058 0
M  V30 17353 H 1674.58 4.60942 1.83974 0
M  V30 17354 H 1669.83 5.95194 1.39834 0
M  V30 17355 H 1674.01 6.88185 1.06653 0
M  V30 17356 H 1671.63 7.55542 0.840228 0
M  V30 17357 N 1673.21 -0.830057 1.33969 0
M  V30 17358 C 1674.63 -1.12209 1.13496 0
M  V30 17359 C 1674.83 -2.01384 -0.0682972 0
M  V30 17360 O 1673.88 -2.4123 -0.745949 0
M  V30 17361 C 1675.19 -1.77568 2.42673 0
M  V30 17362 C 1676.74 -1.90095 2.48662 0
M  V30 17363 C 1677.22 -2.5887 3.77823 0
M  V30 17364 N 1678.71 -2.66375 3.78944 0
M  V30 17365 C 1679.44 -3.20301 4.75599 0
M  V30 17366 N 1678.94 -3.74846 5.82634 0
M  V30 17367 N 1680.73 -3.18636 4.63063 0
M  V30 17368 H 1672.88 -0.236752 2.11076 0
M  V30 17369 H 1675.15 -0.167572 0.933072 0
M  V30 17370 H 1674.85 -1.19505 3.30774 0
M  V30 17371 H 1674.73 -2.77505 2.55481 0
M  V30 17372 H 1677.11 -2.47308 1.61005 0
M  V30 17373 H 1677.19 -0.890808 2.39788 0
M  V30 17374 H 1676.84 -2.02313 4.65867 0
M  V30 17375 H 1676.77 -3.60373 3.83978 0
M  V30 17376 H 1679.26 -2.27705 3.01594 0
M  V30 17377 H 1679.57 -4.14224 6.52409 0
M  V30 17378 H 1677.92 -3.7311 5.86357 0
M  V30 17379 H 1681.11 -2.75286 3.78597 0
M  V30 17380 H 1681.28 -3.60359 5.38559 0
M  V30 17381 N 1674.69 -1.17582 -1.04939 0
M  V30 17382 C 1676.1 -0.923633 -1.30158 0
M  V30 17383 C 1676.3 0.415798 -1.97163 0
M  V30 17384 O 1675.36 1.15218 -2.2468 0
M  V30 17385 C 1676.67 -2.0828 -2.16887 0
M  V30 17386 C 1678.22 -2.12011 -2.30262 0
M  V30 17387 C 1678.7 -3.2732 -3.20352 0
M  V30 17388 N 1680.19 -3.27125 -3.27939 0
M  V30 17389 C 1680.92 -4.12988 -3.97779 0
M  V30 17390 N 1680.42 -5.08968 -4.70025 0
M  V30 17391 N 1682.21 -4.0093 -3.93969 0
M  V30 17392 H 1674.36 -2.03794 -0.598485 0
M  V30 17393 H 1676.62 -0.889991 -0.326528 0
M  V30 17394 H 1676.33 -3.051 -1.74948 0
M  V30 17395 H 1676.2 -2.03599 -3.17533 0
M  V30 17396 H 1678.59 -1.15774 -2.71441 0
M  V30 17397 H 1678.67 -2.20752 -1.29236 0
M  V30 17398 H 1678.32 -4.23823 -2.79886 0
M  V30 17399 H 1678.25 -3.15814 -4.21389 0
M  V30 17400 H 1680.74 -2.57634 -2.76465 0
M  V30 17401 H 1681.05 -5.70876 -5.20885 0
M  V30 17402 H 1679.4 -5.12935 -4.68959 0
M  V30 17403 H 1682.59 -3.2524 -3.36654 0
M  V30 17404 H 1682.76 -4.68065 -4.48128 0
M  V30 17405 N 1676.17 1.23705 -0.976463 0
M  V30 17406 C 1677.1 2.2734 -0.532809 0
M  V30 17407 C 1678.08 1.64523 0.432012 0
M  V30 17408 O 1679.26 1.9144 0.326233 0
M  V30 17409 C 1676.39 3.46887 0.169374 0
M  V30 17410 C 1675.35 4.22031 -0.712336 0
M  V30 17411 C 1674.67 5.34561 0.121838 0
M  V30 17412 C 1675.97 4.8244 -2.00123 0
M  V30 17413 H 1677.67 2.64702 -1.39904 0
M  V30 17414 H 1675.21 1.27244 -0.674156 0
M  V30 17415 H 1677.16 4.18529 0.491028 0
M  V30 17416 H 1675.89 3.08574 1.07002 0
M  V30 17417 H 1674.55 3.522 -1.01739 0
M  V30 17418 H 1674.2 4.92489 1.0229 0
M  V30 17419 H 1673.9 5.85758 -0.464962 0
M  V30 17420 H 1675.42 6.09027 0.437963 0
M  V30 17421 H 1676.83 5.46111 -1.7446 0
M  V30 17422 H 1675.23 5.43906 -2.53548 0
M  V30 17423 H 1676.3 4.03405 -2.69059 0
M  V30 17424 N 1677.64 0.747635 1.38738 0
M  V30 17425 C 1678.59 0.105258 2.32362 0
M  V30 17426 C 1679.59 -0.711921 1.53714 0
M  V30 17427 O 1680.79 -0.611687 1.69288 0
M  V30 17428 H 1677.17 0.0152406 0.751846 0
M  V30 17429 H 1679.14 0.911057 2.84152 0
M  V30 17430 C 1677.89 -0.778221 3.38879 0
M  V30 17431 H 1677.21 -0.158806 3.99484 0
M  V30 17432 H 1678.65 -1.19509 4.06809 0
M  V30 17433 C 1677.11 -1.91819 2.76961 0
M  V30 17434 O 1677.64 -3.01187 2.65799 0
M  V30 17435 N 1675.84 -1.71143 2.34859 0
M  V30 17436 H 1675.39 -0.821885 2.44137 0
M  V30 17437 H 1675.35 -2.47588 1.93772 0
M  V30 17438 N 1679.12 -1.49583 0.496242 0
M  V30 17439 C 1680.35 -2.07342 -0.0490986 0
M  V30 17440 C 1680.77 -1.35474 -1.30493 0
M  V30 17441 O 1680.13 -0.410005 -1.76603 0
M  V30 17442 C 1680.18 -3.59427 -0.290601 0
M  V30 17443 O 1679.28 -3.89111 -1.36626 0
M  V30 17444 H 1678.62 -0.663562 0.0241141 0
M  V30 17445 H 1681.15 -1.92452 0.6945 0
M  V30 17446 H 1681.16 -4.04627 -0.523549 0
M  V30 17447 H 1679.84 -4.11147 0.626959 0
M  V30 17448 H 1678.41 -3.55726 -1.11864 0
M  V30 17449 N 1680.6 -0.229873 -1.55915 0
M  V30 17450 C 1681.53 0.70927 -2.1795 0
M  V30 17451 C 1682.54 1.15142 -1.15092 0
M  V30 17452 O 1683.73 1.08114 -1.42034 0
M  V30 17453 C 1680.83 1.97359 -2.75504 0
M  V30 17454 C 1680.01 1.68565 -4.03614 0
M  V30 17455 C 1679.07 2.79786 -4.45652 0
M  V30 17456 O 1678.09 2.479 -5.12381 0
M  V30 17457 N 1679.29 4.08921 -4.12024 0
M  V30 17458 H 1682.06 0.178573 -2.99168 0
M  V30 17459 H 1679.62 -0.0491789 -1.61825 0
M  V30 17460 H 1681.61 2.70972 -3.00593 0
M  V30 17461 H 1680.18 2.41454 -1.98542 0
M  V30 17462 H 1679.4 0.785547 -3.86294 0
M  V30 17463 H 1680.69 1.46769 -4.87172 0
M  V30 17464 H 1680.09 4.37667 -3.58419 0
M  V30 17465 H 1678.64 4.79052 -4.41987 0
M  V30 17466 N 1682.08 1.5754 0.0434337 0
M  V30 17467 C 1683.01 2.02385 1.07577 0
M  V30 17468 C 1684.02 0.934273 1.33324 0
M  V30 17469 O 1685.21 1.2118 1.31064 0
M  V30 17470 C 1682.31 2.3719 2.42062 0
M  V30 17471 C 1681.48 3.68351 2.35874 0
M  V30 17472 C 1680.54 3.90506 3.52692 0
M  V30 17473 O 1679.57 4.61746 3.32836 0
M  V30 17474 N 1680.77 3.35035 4.74059 0
M  V30 17475 H 1683.54 2.91563 0.693641 0
M  V30 17476 H 1681.1 1.60234 0.231631 0
M  V30 17477 H 1683.09 2.49161 3.18906 0
M  V30 17478 H 1681.66 1.53758 2.72171 0
M  V30 17479 H 1680.88 3.66869 1.44224 0
M  V30 17480 H 1682.17 4.54419 2.28868 0
M  V30 17481 H 1681.57 2.77264 4.93094 0
M  V30 17482 H 1680.12 3.52409 5.48317 0
M  V30 17483 N 1683.56 -0.31543 1.54411 0
M  V30 17484 C 1684.97 -0.889358 1.64156 0
M  V30 17485 C 1685.32 -1.88598 0.54087 0
M  V30 17486 O 1684.44 -2.13947 -0.324904 0
M  V30 17487 C 1685.04 -1.61985 2.97567 0
M  V30 17488 C 1683.6 -2.14239 3.09481 0
M  V30 17489 C 1682.74 -0.970382 2.59767 0
M  V30 17490 H 1685.69 -0.092797 1.58428 0
M  V30 17491 H 1685.72 -2.48457 2.88183 0
M  V30 17492 H 1685.23 -0.89425 3.77657 0
M  V30 17493 H 1683.33 -2.8989 2.34082 0
M  V30 17494 H 1683.44 -2.38681 4.15413 0
M  V30 17495 H 1681.81 -1.35187 2.15863 0
M  V30 17496 H 1682.59 -0.258968 3.42322 0
M  V30 17497 N 1685.03 -1.46622 -0.577906 0
M  V30 17498 C 1685.94 -1.60143 -1.71439 0
M  V30 17499 C 1686.96 -0.484781 -1.6711 0
M  V30 17500 O 1688.14 -0.749551 -1.86932 0
M  V30 17501 C 1685.2 -1.59282 -3.07945 0
M  V30 17502 C 1684.26 -2.82216 -3.235 0
M  V30 17503 C 1683.5 -2.81387 -4.53495 0
M  V30 17504 O 1683.72 -1.90407 -5.37681 0
M  V30 17505 O 1682.65 -3.72991 -4.724 0
M  V30 17506 H 1686.48 -2.56265 -1.62978 0
M  V30 17507 H 1684.06 -1.2947 -0.745514 0
M  V30 17508 H 1685.95 -1.61515 -3.89218 0
M  V30 17509 H 1684.62 -0.663212 -3.16833 0
M  V30 17510 H 1683.53 -2.85536 -2.41702 0
M  V30 17511 H 1684.86 -3.74402 -3.19506 0
M  V30 17512 N 1686.51 0.822941 -1.34408 0
M  V30 17513 C 1687.76 1.58149 -1.26951 0
M  V30 17514 C 1688.09 1.93538 0.160222 0
M  V30 17515 O 1687.37 1.60021 1.1056 0
M  V30 17516 C 1687.65 2.88101 -2.16032 0
M  V30 17517 C 1687.5 2.59293 -3.67542 0
M  V30 17518 C 1688.82 3.89673 -2.04556 0
M  V30 17519 H 1685.94 0.573811 -0.462504 0
M  V30 17520 H 1688.58 0.948017 -1.64659 0
M  V30 17521 H 1686.73 3.42162 -1.84003 0
M  V30 17522 H 1688.4 2.11542 -4.09936 0
M  V30 17523 H 1686.65 1.92738 -3.88632 0
M  V30 17524 H 1687.32 3.51962 -4.25238 0
M  V30 17525 H 1689.79 3.44965 -2.32677 0
M  V30 17526 H 1688.67 4.78404 -2.69111 0
M  V30 17527 H 1688.93 4.30113 -1.02253 0
M  V30 17528 N 1687.99 1.18137 1.04314 0
M  V30 17529 C 1688.95 0.908268 2.10436 0
M  V30 17530 C 1689.95 -0.105315 1.60455 0
M  V30 17531 O 1691.14 0.12785 1.7373 0
M  V30 17532 C 1688.28 0.362233 3.3897 0
M  V30 17533 H 1689.47 1.84928 2.36096 0
M  V30 17534 H 1687.02 0.993048 1.20699 0
M  V30 17535 H 1687.76 -0.58551 3.18971 0
M  V30 17536 H 1687.54 1.09285 3.76562 0
M  V30 17537 H 1689.03 0.18977 4.17169 0
M  V30 17538 N 1689.47 -1.23186 0.98301 0
M  V30 17539 C 1690.38 -2.28448 0.533727 0
M  V30 17540 C 1691.39 -1.69034 -0.412732 0
M  V30 17541 O 1692.57 -1.99416 -0.282007 0
M  V30 17542 C 1689.64 -3.46357 -0.154179 0
M  V30 17543 C 1688.7 -4.21121 0.834009 0
M  V30 17544 C 1687.93 -5.334 0.178836 0
M  V30 17545 O 1688.15 -5.61032 -1.02952 0
M  V30 17546 O 1687.09 -5.95451 0.878722 0
M  V30 17547 H 1690.91 -2.69027 1.40919 0
M  V30 17548 H 1688.5 -1.29166 0.75077 0
M  V30 17549 H 1690.38 -4.17926 -0.539947 0
M  V30 17550 H 1689.05 -3.07724 -1.00437 0
M  V30 17551 H 1687.96 -3.51864 1.27053 0
M  V30 17552 H 1689.29 -4.6361 1.65309 0
M  V30 17553 N 1690.95 -0.754982 -1.38339 0
M  V30 17554 C 1691.88 -0.0883836 -2.2903 0
M  V30 17555 C 1692.89 0.682258 -1.47814 0
M  V30 17556 O 1694.08 0.523117 -1.70663 0
M  V30 17557 C 1691.18 0.898819 -3.26764 0
M  V30 17558 C 1690.35 0.185527 -4.37006 0
M  V30 17559 C 1689.41 1.08368 -5.1492 0
M  V30 17560 O 1688.44 0.553687 -5.66501 0
M  V30 17561 N 1689.64 2.41164 -5.28034 0
M  V30 17562 H 1692.41 -0.86725 -2.86878 0
M  V30 17563 H 1689.97 -0.605886 -1.50135 0
M  V30 17564 H 1691.96 1.50273 -3.75766 0
M  V30 17565 H 1690.53 1.57876 -2.69804 0
M  V30 17566 H 1689.75 -0.599106 -3.89621 0
M  V30 17567 H 1691.04 -0.307999 -5.07867 0
M  V30 17568 H 1690.43 2.86677 -4.87681 0
M  V30 17569 H 1688.99 2.96602 -5.80406 0
M  V30 17570 N 1692.42 1.49318 -0.504168 0
M  V30 17571 C 1693.35 2.32027 0.261837 0
M  V30 17572 C 1694.34 1.4045 0.959575 0
M  V30 17573 O 1695.52 1.69357 0.950365 0
M  V30 17574 C 1692.65 3.21039 1.3248 0
M  V30 17575 C 1691.6 4.21435 0.746752 0
M  V30 17576 C 1690.93 4.99405 1.91047 0
M  V30 17577 C 1692.23 5.21631 -0.264315 0
M  V30 17578 H 1693.92 2.96317 -0.428544 0
M  V30 17579 H 1691.47 1.42497 -0.207539 0
M  V30 17580 H 1693.42 3.77714 1.86843 0
M  V30 17581 H 1692.15 2.54699 2.04441 0
M  V30 17582 H 1690.81 3.6591 0.22485 0
M  V30 17583 H 1690.45 4.29509 2.61784 0
M  V30 17584 H 1690.15 5.67338 1.52975 0
M  V30 17585 H 1691.68 5.58924 2.45837 0
M  V30 17586 H 1693.09 5.72981 0.191288 0
M  V30 17587 H 1691.49 5.97472 -0.561039 0
M  V30 17588 H 1692.56 4.70346 -1.17911 0
M  V30 17589 N 1693.9 0.238138 1.5579 0
M  V30 17590 C 1695.15 -0.382773 1.99766 0
M  V30 17591 C 1695.5 -1.562 1.12335 0
M  V30 17592 O 1694.8 -1.90781 0.17694 0
M  V30 17593 C 1694.99 -0.850646 3.47129 0
M  V30 17594 C 1694.82 0.281705 4.48817 0
M  V30 17595 C 1693.59 0.753532 4.9965 0
M  V30 17596 C 1695.79 1.10571 5.02273 0
M  V30 17597 N 1693.77 1.85921 5.8507 0
M  V30 17598 C 1695.14 2.05993 5.84779 0
M  V30 17599 C 1697.2 1.14326 4.84597 0
M  V30 17600 C 1695.9 3.0487 6.51496 0
M  V30 17601 C 1697.92 2.1203 5.52085 0
M  V30 17602 C 1697.29 3.06189 6.34372 0
M  V30 17603 H 1693.39 -0.106269 0.774746 0
M  V30 17604 H 1695.97 0.353711 1.9146 0
M  V30 17605 H 1694.14 -1.55644 3.5585 0
M  V30 17606 H 1695.87 -1.44577 3.77994 0
M  V30 17607 H 1692.63 0.339205 4.72384 0
M  V30 17608 H 1693.05 2.41455 6.32478 0
M  V30 17609 H 1697.69 0.42918 4.20616 0
M  V30 17610 H 1695.41 3.77232 7.14648 0
M  V30 17611 H 1699 2.15631 5.40365 0
M  V30 17612 H 1697.88 3.80557 6.85672 0
M  V30 17613 N 1695.38 -1.57561 -0.0350783 0
M  V30 17614 C 1696.33 -2.06163 -1.03756 0
M  V30 17615 C 1697.3 -0.94954 -1.36283 0
M  V30 17616 O 1698.48 -1.21971 -1.46723 0
M  V30 17617 C 1695.62 -2.54086 -2.33526 0
M  V30 17618 C 1694.74 -3.79062 -2.0721 0
M  V30 17619 C 1693.87 -4.1562 -3.30808 0
M  V30 17620 C 1692.91 -5.3353 -3.0002 0
M  V30 17621 N 1692.05 -5.65549 -4.16051 0
M  V30 17622 H 1696.89 -2.91561 -0.616137 0
M  V30 17623 H 1694.42 -1.4416 -0.292617 0
M  V30 17624 H 1696.38 -2.79935 -3.09342 0
M  V30 17625 H 1695.01 -1.71614 -2.73402 0
M  V30 17626 H 1694.06 -3.60333 -1.21919 0
M  V30 17627 H 1695.38 -4.64998 -1.80495 0
M  V30 17628 H 1694.53 -4.42565 -4.14995 0
M  V30 17629 H 1693.27 -3.28323 -3.60632 0
M  V30 17630 H 1692.27 -5.06344 -2.14234 0
M  V30 17631 H 1693.5 -6.22475 -2.7148 0
M  V30 17632 H 1691.44 -4.81211 -4.45838 0
M  V30 17633 H 1691.36 -6.45982 -3.92738 0
M  V30 17634 H 1692.63 -5.97068 -5.01129 0
M  V30 17635 N 1696.86 0.307236 -1.54576 0
M  V30 17636 C 1698.14 1.06243 -1.64231 0
M  V30 17637 C 1698.52 2.05415 -0.486589 0
M  V30 17638 O 1697.86 2.22565 0.517384 0
M  V30 17639 C 1698.07 1.74985 -3.01962 0
M  V30 17640 C 1699.42 2.2741 -3.58566 0
M  V30 17641 O 1700.45 1.85027 -3.04374 0
M  V30 17642 O 1699.3 3.05051 -4.53438 0
M  V30 17643 H 1696.4 0.490693 -0.665695 0
M  V30 17644 H 1698.94 0.305822 -1.66922 0
M  V30 17645 H 1697.72 1.02939 -3.77517 0
M  V30 17646 H 1697.34 2.57417 -3.03022 0
M  V30 17647 N 1698.34 1.46926 0.570122 0
M  V30 17648 C 1699.3 1.58009 1.6603 0
M  V30 17649 C 1700.3 0.456188 1.54193 0
M  V30 17650 O 1701.49 0.720879 1.58584 0
M  V30 17651 C 1698.62 1.51235 3.05517 0
M  V30 17652 H 1699.81 2.55178 1.57558 0
M  V30 17653 H 1697.37 1.34924 0.788998 0
M  V30 17654 H 1698.1 0.553929 3.19534 0
M  V30 17655 H 1697.89 2.3279 3.15518 0
M  V30 17656 H 1699.38 1.62101 3.84854 0
M  V30 17657 N 1699.82 -0.815801 1.34842 0
M  V30 17658 C 1700.78 -1.90871 1.2689 0
M  V30 17659 C 1701.78 -1.59762 0.182445 0
M  V30 17660 O 1702.97 -1.68667 0.435543 0
M  V30 17661 C 1700.1 -3.27081 0.960774 0
M  V30 17662 H 1701.29 -1.99343 2.24059 0
M  V30 17663 H 1698.85 -1.0106 1.19233 0
M  V30 17664 H 1699.58 -3.24299 -0.00744059 0
M  V30 17665 H 1699.37 -3.51045 1.74671 0
M  V30 17666 H 1700.86 -4.07101 0.930494 0
M  V30 17667 N 1701.29 -1.18689 -1.03686 0
M  V30 17668 C 1702.26 -0.919415 -2.09951 0
M  V30 17669 C 1703.26 0.0968042 -1.60508 0
M  V30 17670 O 1704.45 -0.137062 -1.7366 0
M  V30 17671 C 1701.58 -0.380204 -3.38773 0
M  V30 17672 H 1702.77 -1.86178 -2.35112 0
M  V30 17673 H 1700.32 -0.999435 -1.20171 0
M  V30 17674 H 1701.06 0.568586 -3.19277 0
M  V30 17675 H 1700.84 -1.11281 -3.75977 0
M  V30 17676 H 1702.33 -0.211891 -4.17062 0
M  V30 17677 N 1702.77 1.22662 -0.989529 0
M  V30 17678 C 1704.05 1.86816 -0.579566 0
M  V30 17679 C 1704.43 1.88858 0.943188 0
M  V30 17680 O 1703.78 1.37668 1.82372 0
M  V30 17681 C 1703.99 3.27863 -1.19612 0
M  V30 17682 C 1705.33 4.04384 -1.29454 0
M  V30 17683 O 1706.36 3.37116 -1.15026 0
M  V30 17684 O 1705.22 5.24789 -1.52508 0
M  V30 17685 H 1702.31 0.803332 -0.196434 0
M  V30 17686 H 1704.86 1.30467 -1.08519 0
M  V30 17687 H 1703.63 3.20993 -2.23784 0
M  V30 17688 H 1703.25 3.91813 -0.675875 0
M  V30 17689 N 1704.25 0.762308 1.37937 0
M  V30 17690 C 1705.18 0.156036 2.32978 0
M  V30 17691 C 1706.16 -0.693795 1.55308 0
M  V30 17692 O 1707.35 -0.633195 1.83587 0
M  V30 17693 C 1704.48 -0.731199 3.39515 0
M  V30 17694 C 1703.43 0.0165834 4.27997 0
M  V30 17695 C 1702.76 -0.989476 5.25465 0
M  V30 17696 C 1704.06 1.19009 5.08561 0
M  V30 17697 H 1705.75 0.949978 2.83929 0
M  V30 17698 H 1703.3 0.458269 1.36513 0
M  V30 17699 H 1705.25 -1.16507 4.04974 0
M  V30 17700 H 1703.97 -1.55756 2.87067 0
M  V30 17701 H 1702.63 0.431128 3.64056 0
M  V30 17702 H 1702.28 -1.81013 4.69301 0
M  V30 17703 H 1701.98 -0.493738 5.85522 0
M  V30 17704 H 1703.5 -1.42248 5.93799 0
M  V30 17705 H 1704.92 0.833336 5.67211 0
M  V30 17706 H 1703.31 1.61727 5.77896 0
M  V30 17707 H 1704.38 1.99879 4.41788 0
M  V30 17708 N 1705.73 -1.49049 0.51208 0
M  V30 17709 C 1706.66 -2.27264 -0.297278 0
M  V30 17710 C 1707.67 -1.34266 -0.920674 0
M  V30 17711 O 1708.86 -1.59461 -0.80214 0
M  V30 17712 C 1705.96 -3.07042 -1.43452 0
M  V30 17713 C 1705.13 -4.27693 -0.916376 0
M  V30 17714 C 1704.19 -4.89427 -1.93256 0
M  V30 17715 O 1703.22 -5.49171 -1.49666 0
M  V30 17716 N 1704.42 -4.80066 -3.26369 0
M  V30 17717 H 1707.19 -2.97364 0.373445 0
M  V30 17718 H 1704.75 -1.58175 0.3453 0
M  V30 17719 H 1706.74 -3.45213 -2.1121 0
M  V30 17720 H 1705.31 -2.39478 -2.0092 0
M  V30 17721 H 1704.53 -3.94149 -0.0633415 0
M  V30 17722 H 1705.82 -5.05832 -0.548786 0
M  V30 17723 H 1705.22 -4.32646 -3.64464 0
M  V30 17724 H 1703.77 -5.2239 -3.89811 0
M  V30 17725 N 1707.21 -0.246397 -1.55662 0
M  V30 17726 C 1708.15 0.653368 -2.21359 0
M  V30 17727 C 1709.12 1.1717 -1.1773 0
M  V30 17728 O 1710.31 1.22626 -1.46176 0
M  V30 17729 C 1707.45 1.84484 -2.9165 0
M  V30 17730 C 1706.56 1.36308 -4.09932 0
M  V30 17731 C 1705.7 2.51407 -4.6794 0
M  V30 17732 C 1704.73 2.0009 -5.78472 0
M  V30 17733 N 1703.87 3.08555 -6.30665 0
M  V30 17734 H 1708.71 0.0864458 -2.97875 0
M  V30 17735 H 1706.25 0.0309074 -1.47068 0
M  V30 17736 H 1708.21 2.54476 -3.30602 0
M  V30 17737 H 1706.84 2.38425 -2.17609 0
M  V30 17738 H 1705.89 0.557224 -3.76297 0
M  V30 17739 H 1707.2 0.946988 -4.89728 0
M  V30 17740 H 1706.35 3.29442 -5.09463 0
M  V30 17741 H 1705.09 2.96318 -3.87359 0
M  V30 17742 H 1704.1 1.20526 -5.36427 0
M  V30 17743 H 1705.32 1.5615 -6.60904 0
M  V30 17744 H 1703.27 3.529 -5.52989 0
M  V30 17745 H 1703.19 2.71274 -7.05653 0
M  V30 17746 H 1704.45 3.8665 -6.76847 0
M  V30 17747 N 1708.68 1.57577 0.026722 0
M  V30 17748 C 1710.1 1.54951 0.382406 0
M  V30 17749 C 1710.3 0.972826 1.76461 0
M  V30 17750 O 1709.36 0.5949 2.45392 0
M  V30 17751 C 1710.67 2.99374 0.282111 0
M  V30 17752 C 1712.22 3.10934 0.359022 0
M  V30 17753 C 1712.69 4.57093 0.28815 0
M  V30 17754 N 1714.18 4.61899 0.346873 0
M  V30 17755 C 1714.92 5.72534 0.314961 0
M  V30 17756 N 1714.41 6.92401 0.235205 0
M  V30 17757 N 1716.21 5.60915 0.364863 0
M  V30 17758 H 1708.36 1.93413 -0.877788 0
M  V30 17759 H 1710.62 0.887216 -0.333995 0
M  V30 17760 H 1710.33 3.45301 -0.667821 0
M  V30 17761 H 1710.2 3.61562 1.07484 0
M  V30 17762 H 1712.59 2.64953 1.29939 0
M  V30 17763 H 1712.67 2.51573 -0.4631 0
M  V30 17764 H 1712.31 5.03742 -0.648558 0
M  V30 17765 H 1712.24 5.14368 1.12841 0
M  V30 17766 H 1714.73 3.75659 0.410932 0
M  V30 17767 H 1715.05 7.72498 0.216019 0
M  V30 17768 H 1713.39 6.94709 0.201219 0
M  V30 17769 H 1716.58 4.66165 0.42518 0
M  V30 17770 H 1716.76 6.47126 0.336526 0
M  V30 17771 N 1710.16 -0.299034 1.54737 0
M  V30 17772 C 1711.39 -1.05138 1.77847 0
M  V30 17773 C 1711.8 -1.81359 0.53902 0
M  V30 17774 O 1711.14 -1.76742 -0.500783 0
M  V30 17775 C 1711.2 -2.07681 2.93443 0
M  V30 17776 C 1710.87 -1.50636 4.3146 0
M  V30 17777 C 1711.87 -0.935378 5.11416 0
M  V30 17778 C 1709.55 -1.5414 4.78065 0
M  V30 17779 C 1711.54 -0.407022 6.36099 0
M  V30 17780 C 1709.23 -1.00917 6.0271 0
M  V30 17781 C 1710.23 -0.442956 6.81562 0
M  V30 17782 O 1709.92 0.081192 8.03859 0
M  V30 17783 H 1709.65 -0.317487 0.596807 0
M  V30 17784 H 1712.2 -0.343249 2.02512 0
M  V30 17785 H 1710.43 -2.82179 2.64408 0
M  V30 17786 H 1712.12 -2.68832 3.04112 0
M  V30 17787 H 1712.89 -0.901197 4.76554 0
M  V30 17788 H 1708.77 -1.9715 4.16717 0
M  V30 17789 H 1712.31 0.035577 6.97591 0
M  V30 17790 H 1708.21 -1.04051 6.37059 0
M  V30 17791 H 1708.98 -0.031922 8.18494 0
M  V30 17792 N 1711.64 -1.47227 -0.562322 0
M  V30 17793 C 1712.92 -1.44069 -1.32301 0
M  V30 17794 C 1713.3 -0.134912 -2.10668 0
M  V30 17795 O 1712.64 0.883603 -2.10724 0
M  V30 17796 C 1712.85 -2.68309 -2.23184 0
M  V30 17797 C 1714.2 -3.1531 -2.84367 0
M  V30 17798 O 1715.23 -2.69001 -2.33489 0
M  V30 17799 O 1714.09 -3.95805 -3.7683 0
M  V30 17800 H 1711.18 -0.573892 -0.595464 0
M  V30 17801 H 1713.73 -1.59421 -0.581648 0
M  V30 17802 H 1712.5 -3.54884 -1.64842 0
M  V30 17803 H 1712.12 -2.55518 -3.04625 0
M  V30 17804 N 1713.12 0.808639 -1.35273 0
M  V30 17805 C 1714.36 1.56562 -1.28431 0
M  V30 17806 C 1714.69 1.93982 0.141842 0
M  V30 17807 O 1713.95 1.61409 1.10661 0
M  V30 17808 C 1714.25 2.86667 -2.1344 0
M  V30 17809 C 1713.91 2.68475 -3.6226 0
M  V30 17810 C 1712.57 2.63221 -4.02825 0
M  V30 17811 C 1714.93 2.51151 -4.56698 0
M  V30 17812 C 1712.25 2.38583 -5.35999 0
M  V30 17813 C 1714.61 2.28043 -5.90067 0
M  V30 17814 C 1713.27 2.2121 -6.2978 0
M  V30 17815 H 1712.54 0.572902 -0.469963 0
M  V30 17816 H 1715.19 0.934504 -1.6715 0
M  V30 17817 H 1713.49 3.54146 -1.67595 0
M  V30 17818 H 1715.19 3.44351 -2.05483 0
M  V30 17819 H 1711.78 2.7341 -3.30068 0
M  V30 17820 H 1715.96 2.54223 -4.26244 0
M  V30 17821 H 1711.22 2.31761 -5.65771 0
M  V30 17822 H 1715.39 2.13628 -6.62824 0
M  V30 17823 H 1713.02 2.01881 -7.32904 0
M  V30 17824 N 1714.6 1.19237 1.03055 0
M  V30 17825 C 1715.53 0.95226 2.132 0
M  V30 17826 C 1716.51 -0.113771 1.69719 0
M  V30 17827 O 1717.69 0.0409057 1.94157 0
M  V30 17828 C 1714.82 0.488296 3.4385 0
M  V30 17829 C 1713.78 1.49597 4.01005 0
M  V30 17830 C 1713.1 0.889148 5.27255 0
M  V30 17831 C 1714.4 2.87571 4.36005 0
M  V30 17832 H 1716.1 1.87343 2.33544 0
M  V30 17833 H 1713.64 0.902172 1.12236 0
M  V30 17834 H 1715.6 0.307623 4.20276 0
M  V30 17835 H 1714.32 -0.468469 3.23223 0
M  V30 17836 H 1712.98 1.66376 3.26672 0
M  V30 17837 H 1712.63 -0.0751191 5.02944 0
M  V30 17838 H 1712.33 1.56202 5.66458 0
M  V30 17839 H 1713.85 0.719233 6.06349 0
M  V30 17840 H 1715.26 2.74384 5.03375 0
M  V30 17841 H 1713.66 3.51635 4.86285 0
M  V30 17842 H 1714.73 3.40353 3.45381 0
M  V30 17843 N 1716.07 -1.22136 0.99602 0
M  V30 17844 C 1717.04 -2.22404 0.553986 0
M  V30 17845 C 1718.04 -1.56607 -0.364832 0
M  V30 17846 O 1719.23 -1.73497 -0.156358 0
M  V30 17847 C 1716.36 -3.40349 -0.193794 0
M  V30 17848 H 1717.55 -2.63026 1.44075 0
M  V30 17849 H 1715.11 -1.35241 0.78356 0
M  V30 17850 H 1715.84 -3.05204 -1.0964 0
M  V30 17851 H 1715.63 -3.89321 0.465972 0
M  V30 17852 H 1717.12 -4.14702 -0.491121 0
M  V30 17853 N 1717.55 -0.769612 -1.37531 0
M  V30 17854 C 1718.48 -0.11267 -2.28923 0
M  V30 17855 C 1719.5 0.666541 -1.4853 0
M  V30 17856 O 1720.69 0.504986 -1.71208 0
M  V30 17857 C 1717.79 0.864111 -3.27699 0
M  V30 17858 C 1716.96 0.139166 -4.37179 0
M  V30 17859 C 1716.02 1.029 -5.16041 0
M  V30 17860 O 1715.04 0.493571 -5.67056 0
M  V30 17861 N 1716.25 2.3555 -5.30562 0
M  V30 17862 H 1719.01 -0.897628 -2.85942 0
M  V30 17863 H 1716.57 -0.621776 -1.49484 0
M  V30 17864 H 1718.56 1.46279 -3.77339 0
M  V30 17865 H 1717.13 1.55005 -2.71463 0
M  V30 17866 H 1716.35 -0.640396 -3.88963 0
M  V30 17867 H 1717.64 -0.361847 -5.07512 0
M  V30 17868 H 1717.04 2.81489 -4.90694 0
M  V30 17869 H 1715.6 2.90429 -5.83519 0
M  V30 17870 N 1719.03 1.48775 -0.519977 0
M  V30 17871 C 1719.96 2.26281 0.295295 0
M  V30 17872 C 1720.94 1.31694 0.953695 0
M  V30 17873 O 1722.13 1.61019 0.980063 0
M  V30 17874 C 1719.25 3.07617 1.41738 0
M  V30 17875 C 1718.3 4.17503 0.871411 0
M  V30 17876 S 1719.13 5.34903 -0.252845 0
M  V30 17877 C 1720.29 6.19797 0.871949 0
M  V30 17878 H 1720.52 2.95082 -0.362498 0
M  V30 17879 H 1718.05 1.51346 -0.305587 0
M  V30 17880 H 1720.01 3.55058 2.0602 0
M  V30 17881 H 1718.67 2.38249 2.04685 0
M  V30 17882 H 1717.87 4.74 1.71288 0
M  V30 17883 H 1717.47 3.7275 0.305463 0
M  V30 17884 H 1719.76 6.53892 1.7729 0
M  V30 17885 H 1720.7 7.07258 0.345174 0
M  V30 17886 H 1721.11 5.52707 1.14784 0
M  V30 17887 N 1720.51 0.254649 1.55529 0
M  V30 17888 C 1721.47 -0.62836 2.20418 0
M  V30 17889 C 1722.47 -1.09691 1.17578 0
M  V30 17890 O 1723.66 -1.00037 1.42612 0
M  V30 17891 C 1720.79 -1.86453 2.85391 0
M  V30 17892 H 1721.99 -0.0621032 2.99836 0
M  V30 17893 H 1719.54 0.00514311 1.56299 0
M  V30 17894 H 1720.27 -2.47182 2.09932 0
M  V30 17895 H 1720.06 -1.53669 3.60733 0
M  V30 17896 H 1721.55 -2.49291 3.35028 0
M  V30 17897 N 1721.99 -1.57589 -0.0183649 0
M  V30 17898 C 1723.23 -1.89382 -0.705612 0
M  V30 17899 C 1723.56 -0.853698 -1.7532 0
M  V30 17900 O 1722.83 0.111322 -1.95583 0
M  V30 17901 H 1721.41 -0.698943 -0.263605 0
M  V30 17902 H 1724.07 -1.94891 0.0182168 0
M  V30 17903 H 1723.16 -2.88587 -1.18845 0
M  V30 17904 N 1723.46 0.290824 -1.54893 0
M  V30 17905 C 1724.41 1.35899 -1.86548 0
M  V30 17906 C 1725.38 1.49909 -0.71529 0
M  V30 17907 O 1726.57 1.64604 -0.964886 0
M  V30 17908 C 1723.71 2.71735 -2.1273 0
M  V30 17909 C 1722.82 2.66092 -3.40322 0
M  V30 17910 C 1721.95 3.93989 -3.56295 0
M  V30 17911 C 1720.99 3.82785 -4.77642 0
M  V30 17912 N 1720.13 5.02479 -4.90367 0
M  V30 17913 H 1724.97 1.08205 -2.77661 0
M  V30 17914 H 1722.51 0.523144 -1.37483 0
M  V30 17915 H 1724.47 3.50745 -2.25907 0
M  V30 17916 H 1723.1 2.97669 -1.24871 0
M  V30 17917 H 1722.15 1.78891 -3.35712 0
M  V30 17918 H 1723.46 2.53706 -4.29458 0
M  V30 17919 H 1722.61 4.81438 -3.69192 0
M  V30 17920 H 1721.35 4.09221 -2.6531 0
M  V30 17921 H 1720.36 2.9372 -4.64767 0
M  V30 17922 H 1721.58 3.69088 -5.70044 0
M  V30 17923 H 1719.53 5.18155 -4.02308 0
M  V30 17924 H 1719.45 4.92555 -5.7352 0
M  V30 17925 H 1720.71 5.9155 -5.07631 0
M  V30 17926 N 1724.94 1.47523 0.554506 0
M  V30 17927 C 1725.91 1.59761 1.64345 0
M  V30 17928 C 1726.91 0.472516 1.53701 0
M  V30 17929 O 1728.1 0.737659 1.57811 0
M  V30 17930 C 1725.23 1.54467 3.03896 0
M  V30 17931 H 1726.42 2.56834 1.54842 0
M  V30 17932 H 1723.97 1.35753 0.774643 0
M  V30 17933 H 1724.71 0.587789 3.18929 0
M  V30 17934 H 1724.49 2.36123 3.13031 0
M  V30 17935 H 1725.98 1.66174 3.83113 0
M  V30 17936 N 1726.42 -0.801453 1.357 0
M  V30 17937 C 1727.33 -1.94505 1.31167 0
M  V30 17938 C 1728.35 -1.72657 0.215747 0
M  V30 17939 O 1729.52 -1.96399 0.446022 0
M  V30 17940 C 1726.59 -3.29175 1.08834 0
M  V30 17941 C 1725.65 -3.63883 2.27788 0
M  V30 17942 C 1724.88 -4.92127 2.06511 0
M  V30 17943 O 1725.1 -5.60947 1.03416 0
M  V30 17944 O 1724.04 -5.25213 2.93998 0
M  V30 17945 H 1727.86 -2.01277 2.27423 0
M  V30 17946 H 1725.45 -0.939979 1.16124 0
M  V30 17947 H 1727.33 -4.09787 0.98248 0
M  V30 17948 H 1726.01 -3.23322 0.156326 0
M  V30 17949 H 1724.91 -2.83627 2.4394 0
M  V30 17950 H 1726.25 -3.74446 3.19454 0
M  V30 17951 N 1727.9 -1.19782 -1.02421 0
M  V30 17952 C 1728.85 -0.93978 -2.108 0
M  V30 17953 C 1729.82 0.12716 -1.65613 0
M  V30 17954 O 1731 -0.0159669 -1.90793 0
M  V30 17955 C 1728.14 -0.489656 -3.41609 0
M  V30 17956 C 1727.25 -1.62389 -4.00317 0
M  V30 17957 C 1726.39 -1.12483 -5.19154 0
M  V30 17958 C 1725.43 -2.23266 -5.69929 0
M  V30 17959 N 1724.56 -1.74633 -6.80035 0
M  V30 17960 H 1729.4 -1.8677 -2.32209 0
M  V30 17961 H 1726.94 -0.931082 -1.13883 0
M  V30 17962 H 1728.9 -0.210049 -4.16671 0
M  V30 17963 H 1727.53 0.40127 -3.20296 0
M  V30 17964 H 1726.58 -2.0186 -3.22423 0
M  V30 17965 H 1727.89 -2.45836 -4.34011 0
M  V30 17966 H 1727.05 -0.800737 -6.01393 0
M  V30 17967 H 1725.79 -0.260155 -4.87006 0
M  V30 17968 H 1724.79 -2.56501 -4.863 0
M  V30 17969 H 1726.02 -3.10197 -6.04115 0
M  V30 17970 H 1723.96 -0.904804 -6.4973 0
M  V30 17971 H 1723.88 -2.51666 -7.12882 0
M  V30 17972 H 1725.15 -1.45201 -7.65857 0
M  V30 17973 N 1729.38 1.21606 -1.00248 0
M  V30 17974 C 1730.6 1.95149 -0.702249 0
M  V30 17975 C 1731.03 1.73429 0.728293 0
M  V30 17976 O 1730.39 1.01953 1.49917 0
M  V30 17977 C 1730.43 3.45705 -1.0257 0
M  V30 17978 O 1729.54 4.12196 -0.129575 0
M  V30 17979 H 1728.88 0.610173 -0.261888 0
M  V30 17980 H 1731.41 1.54435 -1.34205 0
M  V30 17981 H 1731.42 3.96265 -0.97151 0
M  V30 17982 H 1730.09 3.60838 -2.06806 0
M  V30 17983 H 1728.67 3.72126 -0.240074 0
M  V30 17984 N 1730.86 0.776895 1.37121 0
M  V30 17985 C 1731.8 0.154521 2.32086 0
M  V30 17986 C 1732.8 -0.679155 1.5519 0
M  V30 17987 O 1734 -0.575641 1.70547 0
M  V30 17988 H 1730.38 0.0311849 0.751353 0
M  V30 17989 H 1732.35 0.971125 2.82156 0
M  V30 17990 C 1731.1 -0.706165 3.40454 0
M  V30 17991 H 1730.42 -0.0740341 3.99731 0
M  V30 17992 H 1731.86 -1.10853 4.09253 0
M  V30 17993 C 1730.32 -1.85901 2.80967 0
M  V30 17994 O 1730.85 -2.95482 2.72128 0
M  V30 17995 N 1729.06 -1.66122 2.38436 0
M  V30 17996 H 1728.6 -0.769915 2.45825 0
M  V30 17997 H 1728.56 -2.43422 1.9898 0
M  V30 17998 N 1732.33 -1.48497 0.527859 0
M  V30 17999 C 1733.56 -2.069 -0.00302594 0
M  V30 18000 C 1733.98 -1.38469 -1.28342 0
M  V30 18001 O 1733.33 -0.471524 -1.76303 0
M  V30 18002 C 1733.38 -3.60749 -0.232871 0
M  V30 18003 O 1733.11 -4.26609 0.996797 0
M  V30 18004 C 1734.61 -4.35941 -0.804376 0
M  V30 18005 H 1731.83 -0.67021 0.0325559 0
M  V30 18006 H 1734.37 -1.90916 0.732897 0
M  V30 18007 H 1732.53 -3.76346 -0.918837 0
M  V30 18008 H 1732.94 -5.18725 0.776217 0
M  V30 18009 H 1734.41 -5.4437 -0.914635 0
M  V30 18010 H 1734.89 -4.00225 -1.80876 0
M  V30 18011 H 1735.5 -4.25017 -0.155041 0
M  V30 18012 N 1733.81 -0.262893 -1.55392 0
M  V30 18013 C 1735.09 0.408525 -1.91286 0
M  V30 18014 C 1735.47 1.74657 -1.18566 0
M  V30 18015 O 1734.82 2.26409 -0.308422 0
M  V30 18016 C 1735.03 0.560865 -3.44464 0
M  V30 18017 C 1736.37 0.849401 -4.16017 0
M  V30 18018 O 1737.4 0.646134 -3.50291 0
M  V30 18019 O 1736.26 1.23741 -5.32307 0
M  V30 18020 H 1733.35 0.221707 -0.796728 0
M  V30 18021 H 1735.9 -0.308143 -1.66879 0
M  V30 18022 H 1734.67 -0.381279 -3.89438 0
M  V30 18023 H 1734.29 1.32747 -3.74785 0
M  V30 18024 O 1735.33 1.60991 -0.12808 0
M  V30 18025 H 1736.02 1.87934 0.469098 0
M  V30 END ATOM
M  V30 BEGIN BOND
M  V30 END BOND
M  V30 END CTAB
M  END
$$$$
