drugbank_target|P52788 Spermine synthase (DB00127)
 OpenBabel12092119443D

  0  0  0     0  0            999 V3000
M  V30 BEGIN CTAB
M  V30 COUNTS 5780 5834 0 0 0
M  V30 BEGIN ATOM
M  V30 1 H -0.908 1.98254 -0.117106 0
M  V30 2 N 0 1.576 0 0
M  V30 3 C 0.933 2.03868 1.02534 0
M  V30 4 C 1.911 0.928543 1.3348 0
M  V30 5 O 3.095 1.19667 1.45644 0
M  V30 6 C 0.222 2.43627 2.35294 0
M  V30 7 C -0.732 3.65373 2.2001 0
M  V30 8 S 0.101 5.13292 1.52614 0
M  V30 9 C 1.257 5.56322 2.86805 0
M  V30 10 H 1.49 2.90518 0.631377 0
M  V30 11 H -0.977 1.52953 0.210867 0
M  V30 12 H 0.981 2.67203 3.11629 0
M  V30 13 H -0.358 1.57376 2.7183 0
M  V30 14 H -1.165 3.90944 3.18086 0
M  V30 15 H -1.563 3.418 1.51819 0
M  V30 16 H 0.729 5.58782 3.83104 0
M  V30 17 H 1.672 6.56266 2.65933 0
M  V30 18 H 2.08 4.83886 2.90714 0
M  V30 19 N 1.4781 -0.272755 1.55222 0
M  V30 20 C 2.4411 -1.32041 1.87344 0
M  V30 21 C 3.4411 -1.42342 0.74803 0
M  V30 22 O 4.6311 -1.41488 1.0162 0
M  V30 23 C 1.7631 -2.70173 2.07893 0
M  V30 24 H 2.9561 -1.04789 2.80997 0
M  V30 25 H 0.5091 -0.51083 1.47717 0
M  V30 26 H 1.2441 -3.02605 1.16622 0
M  V30 27 H 1.0291 -2.64082 2.89833 0
M  V30 28 H 2.5191 -3.45869 2.34017 0
M  V30 29 N 2.9562 -1.48159 -0.537278 0
M  V30 30 C 3.9192 -1.61665 -1.62472 0
M  V30 31 C 4.9192 -0.490395 -1.5314 0
M  V30 32 O 6.1092 -0.755998 -1.5694 0
M  V30 33 C 3.2412 -1.57997 -3.02076 0
M  V30 34 H 4.4342 -2.58621 -1.51839 0
M  V30 35 H 1.9872 -1.36647 -0.758771 0
M  V30 36 H 2.7222 -0.624913 -3.18222 0
M  V30 37 H 2.5072 -2.39755 -3.10258 0
M  V30 38 H 3.9972 -1.70627 -3.81151 0
M  V30 39 N 4.4343 0.785586 -1.36625 0
M  V30 40 C 5.3973 1.87999 -1.31107 0
M  V30 41 C 6.3973 1.59316 -0.217959 0
M  V30 42 O 7.5873 1.67656 -0.472977 0
M  V30 43 C 4.7193 3.24861 -1.03334 0
M  V30 44 H 5.9123 1.94307 -2.2844 0
M  V30 45 H 3.4653 0.983813 -1.21453 0
M  V30 46 H 4.2003 3.24235 -0.0647432 0
M  V30 47 H 3.9853 3.4707 -1.82441 0
M  V30 48 H 5.4753 4.04929 -1.02088 0
M  V30 49 N 5.9124 1.20967 1.01018 0
M  V30 50 C 7.3284 0.965905 1.27053 0
M  V30 51 C 7.5284 -0.350785 1.98423 0
M  V30 52 O 6.5844 -1.07773 2.28344 0
M  V30 53 C 7.8974 2.15294 2.09926 0
M  V30 54 C 9.4454 2.19463 2.23171 0
M  V30 55 C 9.9204 3.3767 3.09424 0
M  V30 56 N 11.4114 3.37724 3.17012 0
M  V30 57 C 12.1464 4.25837 3.83993 0
M  V30 58 N 11.6424 5.24138 4.53047 0
M  V30 59 N 13.4354 4.1366 3.80581 0
M  V30 60 H 5.5864 2.0565 0.531194 0
M  V30 61 H 7.8494 0.90024 0.297106 0
M  V30 62 H 7.5554 3.10684 1.64828 0
M  V30 63 H 7.4294 2.13923 3.10672 0
M  V30 64 H 9.8164 1.24632 2.6749 0
M  V30 65 H 9.8974 2.2488 1.21912 0
M  V30 66 H 9.5414 4.32791 2.65808 0
M  V30 67 H 9.4714 3.29491 4.10784 0
M  V30 68 H 11.9624 2.6658 2.6785 0
M  V30 69 H 12.2754 5.87684 5.01844 0
M  V30 70 H 10.6204 5.28068 4.5185 0
M  V30 71 H 13.8114 3.36127 3.25785 0
M  V30 72 H 13.9844 4.82538 4.32505 0
M  V30 73 N 7.3905 -1.2043 1.01659 0
M  V30 74 C 8.3405 -2.21076 0.557623 0
M  V30 75 C 9.3245 -1.56176 -0.387029 0
M  V30 76 O 10.5165 -1.7575 -0.209996 0
M  V30 77 C 7.6455 -3.43146 -0.102707 0
M  V30 78 C 6.7315 -4.15213 0.863652 0
M  V30 79 N 7.1225 -4.63662 2.02117 0
M  V30 80 C 5.4205 -4.40716 0.684472 0
M  V30 81 C 6.1215 -5.18868 2.62966 0
M  V30 82 N 5.0975 -5.0893 1.91027 0
M  V30 83 H 8.8995 -2.56201 1.44008 0
M  V30 84 H 6.4135 -1.36366 0.881931 0
M  V30 85 H 8.4105 -4.14475 -0.449054 0
M  V30 86 H 7.0705 -3.09526 -0.981003 0
M  V30 87 H 8.0815 -4.58877 2.40109 0
M  V30 88 H 4.7585 -4.17245 -0.14577 0
M  V30 89 H 6.1485 -5.6673 3.60924 0
M  V30 90 N 8.8686 -0.792821 -1.36206 0
M  V30 91 C 10.0936 -0.377701 -2.03932 0
M  V30 92 C 10.5186 0.998947 -1.59382 0
M  V30 93 O 9.8766 1.64421 -0.763903 0
M  V30 94 C 9.9246 -0.453635 -3.57735 0
M  V30 95 O 9.0286 0.538151 -4.08874 0
M  V30 96 H 8.3696 -0.159855 -0.644471 0
M  V30 97 H 10.8996 -1.07488 -1.7409 0
M  V30 98 H 10.9096 -0.318464 -4.06755 0
M  V30 99 H 9.5846 -1.45784 -3.89512 0
M  V30 100 H 8.1616 0.364359 -3.71116 0
M  V30 101 N 10.3467 1.47872 -0.545128 0
M  V30 102 C 11.5747 2.06889 -0.021084 0
M  V30 103 C 11.9897 1.39955 1.2672 0
M  V30 104 O 11.3467 0.492036 1.75742 0
M  V30 105 C 11.3977 3.60996 0.190817 0
M  V30 106 O 11.1187 4.25419 -1.04644 0
M  V30 107 C 12.6197 4.36849 0.753521 0
M  V30 108 H 9.8397 0.669785 -0.0403635 0
M  V30 109 H 12.3837 1.90049 -0.755095 0
M  V30 110 H 10.5387 3.77391 0.87492 0
M  V30 111 H 10.9527 5.17785 -0.836611 0
M  V30 112 H 12.4267 5.45399 0.851139 0
M  V30 113 H 12.9037 4.02306 1.762 0
M  V30 114 H 13.5097 4.25169 0.105503 0
M  V30 115 N 11.8248 0.280983 1.55075 0
M  V30 116 C 12.7548 -0.597469 2.25727 0
M  V30 117 C 13.7358 -1.15417 1.24952 0
M  V30 118 O 14.9208 -1.18722 1.53684 0
M  V30 119 C 12.0508 -1.7789 2.98283 0
M  V30 120 C 11.0048 -1.35347 4.06036 0
M  V30 121 C 10.3308 -2.61846 4.66198 0
M  V30 122 C 11.6308 -0.499354 5.19907 0
M  V30 123 H 13.3248 -0.00824265 2.99399 0
M  V30 124 H 10.8708 -0.0025244 1.44 0
M  V30 125 H 12.8238 -2.39937 3.46422 0
M  V30 126 H 11.5478 -2.39405 2.22155 0
M  V30 127 H 10.2068 -0.756156 3.58717 0
M  V30 128 H 9.8548 -3.21632 3.86732 0
M  V30 129 H 9.5548 -2.3409 5.38958 0
M  V30 130 H 11.0788 -3.24732 5.1709 0
M  V30 131 H 12.4928 -1.02498 5.64063 0
M  V30 132 H 10.8898 -0.316424 5.99265 0
M  V30 133 H 11.9598 0.480459 4.82514 0
M  V30 134 N 13.3029 -1.57598 0.00835791 0
M  V30 135 C 14.5799 -1.82172 -0.712235 0
M  V30 136 C 14.9599 -0.887873 -1.9152 0
M  V30 137 O 14.3079 0.06146 -2.28417 0
M  V30 138 C 14.5179 -3.30875 -1.11008 0
M  V30 139 C 15.8659 -3.96826 -1.51044 0
M  V30 140 O 16.8899 -3.35248 -1.20364 0
M  V30 141 O 15.7489 -5.05318 -2.08125 0
M  V30 142 H 12.8429 -0.750435 -0.347529 0
M  V30 143 H 15.3889 -1.69665 0.0344523 0
M  V30 144 H 14.1609 -3.90481 -0.252982 0
M  V30 145 H 13.7839 -3.48412 -1.9156 0
M  V30 146 N 14.781 0.264519 -1.55364 0
M  V30 147 C 16.028 0.994986 -1.7637 0
M  V30 148 C 16.356 1.85976 -0.5695 0
M  V30 149 O 15.611 1.90509 0.44776 0
M  V30 150 C 15.91 1.9004 -3.02687 0
M  V30 151 C 15.576 1.19243 -4.34847 0
M  V30 152 C 14.238 0.996709 -4.70764 0
M  V30 153 C 16.59 0.689296 -5.16622 0
M  V30 154 C 13.918 0.285261 -5.86006 0
M  V30 155 C 16.27 -0.00860079 -6.32599 0
M  V30 156 C 14.934 -0.215963 -6.67151 0
M  V30 157 H 14.204 0.364091 -0.645383 0
M  V30 158 H 16.851 0.266543 -1.89636 0
M  V30 159 H 15.156 2.69533 -2.84357 0
M  V30 160 H 16.853 2.46695 -3.16137 0
M  V30 161 H 13.443 1.3549 -4.06621 0
M  V30 162 H 17.627 0.828108 -4.89342 0
M  V30 163 H 12.883 0.113961 -6.11294 0
M  V30 164 H 17.057 -0.406186 -6.95214 0
M  V30 165 H 14.684 -0.769217 -7.56298 0
M  V30 166 N 16.2591 1.48442 0.529413 0
M  V30 167 C 17.1921 1.57577 1.65059 0
M  V30 168 C 18.1701 0.426198 1.56915 0
M  V30 169 O 19.3541 0.637877 1.77379 0
M  V30 170 C 16.4811 1.5043 3.03461 0
M  V30 171 C 15.5271 2.70235 3.29962 0
M  V30 172 S 16.3601 4.32198 3.16172 0
M  V30 173 C 17.5161 4.2765 4.57019 0
M  V30 174 H 17.7491 2.52427 1.5706 0
M  V30 175 H 15.2821 1.36982 0.712417 0
M  V30 176 H 17.2401 1.46992 3.8328 0
M  V30 177 H 15.9011 0.569167 3.089 0
M  V30 178 H 15.0941 2.61374 4.30929 0
M  V30 179 H 14.6961 2.70938 2.57815 0
M  V30 180 H 16.9881 3.97618 5.48549 0
M  V30 181 H 17.9311 5.28797 4.70934 0
M  V30 182 H 18.3391 3.5811 4.36368 0
M  V30 183 N 17.7372 -0.778329 1.37039 0
M  V30 184 C 18.6672 -1.90546 1.34962 0
M  V30 185 C 19.6482 -1.68681 0.219274 0
M  V30 186 O 20.8332 -1.89634 0.418624 0
M  V30 187 C 17.9632 -3.27734 1.14925 0
M  V30 188 C 16.9172 -3.64147 2.24902 0
M  V30 189 C 16.2432 -4.99806 1.89996 0
M  V30 190 C 17.5432 -3.71579 3.67051 0
M  V30 191 H 19.2372 -1.92541 2.29277 0
M  V30 192 H 16.7832 -0.924948 1.10366 0
M  V30 193 H 18.7362 -4.06215 1.12104 0
M  V30 194 H 17.4602 -3.26154 0.170631 0
M  V30 195 H 16.1192 -2.8797 2.26868 0
M  V30 196 H 15.7672 -4.94759 0.906796 0
M  V30 197 H 15.4672 -5.25139 2.63634 0
M  V30 198 H 16.9912 -5.80694 1.88749 0
M  V30 199 H 18.4052 -4.40227 3.67251 0
M  V30 200 H 16.8022 -4.08405 4.39688 0
M  V30 201 H 17.8722 -2.72404 4.01154 0
M  V30 202 N 19.2153 -1.21501 -1.00376 0
M  V30 203 C 20.4633 -1.03095 -1.73827 0
M  V30 204 C 20.7843 0.436341 -1.90055 0
M  V30 205 O 20.0543 1.31466 -1.45236 0
M  V30 206 H 18.6343 -0.378487 -0.644016 0
M  V30 207 H 21.2963 -1.52831 -1.20949 0
M  V30 208 H 20.3923 -1.49991 -2.73695 0
M  V30 209 N 20.6934 1.19889 -1.02296 0
M  V30 210 C 21.6564 2.21116 -0.603351 0
M  V30 211 C 22.6564 1.5738 0.329884 0
M  V30 212 O 23.8464 1.73802 0.117702 0
M  V30 213 C 20.9784 3.40696 0.117992 0
M  V30 214 H 22.1714 2.59754 -1.49893 0
M  V30 215 H 19.7244 1.33463 -0.813468 0
M  V30 216 H 20.4594 3.07569 1.0282 0
M  V30 217 H 20.2444 3.88188 -0.552511 0
M  V30 218 H 21.7344 4.15692 0.398696 0
M  V30 219 N 22.1715 0.800033 1.35784 0
M  V30 220 C 23.1185 0.203848 2.29898 0
M  V30 221 C 24.0885 -0.658375 1.52495 0
M  V30 222 O 25.2735 -0.604832 1.8096 0
M  V30 223 C 22.4135 -0.64688 3.38983 0
M  V30 224 C 21.5265 0.235054 4.3136 0
M  V30 225 C 20.6615 -0.623054 5.27533 0
M  V30 226 C 19.7005 0.259682 6.11549 0
M  V30 227 N 18.8375 -0.558019 6.99879 0
M  V30 228 H 23.6775 1.01186 2.80295 0
M  V30 229 H 21.2145 0.51053 1.37957 0
M  V30 230 H 23.1725 -1.15521 4.00887 0
M  V30 231 H 21.8025 -1.42021 2.89879 0
M  V30 232 H 20.8545 0.861438 3.70518 0
M  V30 233 H 22.1665 0.914768 4.9034 0
M  V30 234 H 21.3205 -1.19678 5.94779 0
M  V30 235 H 20.0595 -1.33636 4.69034 0
M  V30 236 H 19.0645 0.845726 5.43256 0
M  V30 237 H 20.2895 0.970748 6.72126 0
M  V30 238 H 18.2355 -1.25542 6.43875 0
M  V30 239 H 18.1525 0.0637872 7.55973 0
M  V30 240 H 19.4205 -1.11523 7.71481 0
M  V30 241 N 23.6496 -1.47581 0.552962 0
M  V30 242 C 24.6126 -2.28439 -0.186605 0
M  V30 243 C 25.6126 -1.36706 -0.84665 0
M  V30 244 O 26.8026 -1.59378 -0.703164 0
M  V30 245 C 23.9346 -3.16264 -1.2724 0
M  V30 246 H 25.1276 -2.95294 0.523609 0
M  V30 247 H 22.6806 -1.532 0.309745 0
M  V30 248 H 23.4156 -2.54091 -2.01514 0
M  V30 249 H 23.2006 -3.83769 -0.803968 0
M  V30 250 H 24.6906 -3.77198 -1.79196 0
M  V30 251 N 25.1277 -0.289203 -1.54924 0
M  V30 252 C 26.4047 0.376032 -1.91951 0
M  V30 253 C 26.7847 1.72622 -1.21511 0
M  V30 254 O 26.1327 2.25853 -0.346767 0
M  V30 255 C 26.3427 0.502378 -3.45365 0
M  V30 256 C 27.6907 0.778741 -4.17398 0
M  V30 257 O 28.7147 0.586647 -3.51336 0
M  V30 258 O 27.5737 1.14698 -5.34328 0
M  V30 259 H 24.6677 0.208167 -0.800372 0
M  V30 260 H 27.2137 -0.336394 -1.66332 0
M  V30 261 H 25.9857 -0.447255 -3.88736 0
M  V30 262 H 25.6087 1.26373 -3.76982 0
M  V30 263 N 26.6058 1.57591 -0.0167156 0
M  V30 264 C 27.8538 1.90906 0.663285 0
M  V30 265 C 28.1748 0.892509 1.73376 0
M  V30 266 O 27.4448 -0.0677623 1.95783 0
M  V30 267 H 26.0248 0.704637 0.247983 0
M  V30 268 H 28.6868 1.94803 -0.0615909 0
M  V30 269 H 27.7828 2.9116 1.12393 0
M  V30 270 N 28.0839 -0.256276 1.55502 0
M  V30 271 C 28.9939 -1.33882 1.92647 0
M  V30 272 C 30.0099 -1.53159 0.825727 0
M  V30 273 O 31.1859 -1.66963 1.12629 0
M  V30 274 C 28.2509 -2.6751 2.20543 0
M  V30 275 C 27.3119 -2.56836 3.43997 0
M  V30 276 C 26.5449 -3.84092 3.70553 0
M  V30 277 O 26.7679 -4.85545 2.99336 0
M  V30 278 O 25.7019 -3.83288 4.64084 0
M  V30 279 H 29.5279 -1.05374 2.84833 0
M  V30 280 H 27.1129 -0.456237 1.42263 0
M  V30 281 H 28.9949 -3.46492 2.39835 0
M  V30 282 H 27.6699 -2.9577 1.31536 0
M  V30 283 H 26.5769 -1.76172 3.30021 0
M  V30 284 H 27.9099 -2.33523 4.33275 0
M  V30 285 N 29.562 -1.4872 -0.521534 0
M  V30 286 C 30.79 -1.60843 -1.30142 0
M  V30 287 C 31.205 -0.271897 -1.86832 0
M  V30 288 O 30.562 0.739969 -1.66825 0
M  V30 289 C 30.613 -2.66155 -2.4463 0
M  V30 290 O 30.334 -3.94623 -1.90275 0
M  V30 291 C 31.835 -2.88795 -3.36322 0
M  V30 292 H 29.055 -0.542075 -0.395468 0
M  V30 293 H 31.599 -1.94609 -0.628285 0
M  V30 294 H 29.754 -2.35224 -3.07812 0
M  V30 295 H 30.168 -4.52468 -2.65279 0
M  V30 296 H 31.642 -3.66264 -4.12983 0
M  V30 297 H 32.119 -1.97934 -3.9207 0
M  V30 298 H 32.725 -3.21063 -2.78924 0
M  V30 299 N 31.0401 0.771051 -1.3745 0
M  V30 300 C 32.2891 1.52491 -1.3202 0
M  V30 301 C 32.6021 1.9538 0.0927347 0
M  V30 302 O 33.8081 2.70159 0.269503 0
M  V30 303 C 32.2641 2.75366 -2.31736 0
M  V30 304 C 31.8721 2.39573 -3.78562 0
M  V30 305 C 33.6161 3.53307 -2.35318 0
M  V30 306 C 31.5231 3.58954 -4.70007 0
M  V30 307 H 30.4531 0.572506 -0.490666 0
M  V30 308 H 33.1041 0.844474 -1.62914 0
M  V30 309 H 31.4861 3.45303 -1.93861 0
M  V30 310 H 32.6601 1.77415 -4.25277 0
M  V30 311 H 30.9751 1.74805 -3.77932 0
M  V30 312 H 33.5721 4.42039 -3.00842 0
M  V30 313 H 33.9151 3.93217 -1.36698 0
M  V30 314 H 34.4481 2.90367 -2.71904 0
M  V30 315 H 31.1871 3.24125 -5.69757 0
M  V30 316 H 30.7071 4.20214 -4.27996 0
M  V30 317 H 32.3861 4.25758 -4.87175 0
M  V30 318 N 32.5182 1.22032 0.997298 0
M  V30 319 C 33.4482 1.01065 2.10495 0
M  V30 320 C 34.4292 -0.0669542 1.69968 0
M  V30 321 O 35.6142 0.0943987 1.9397 0
M  V30 322 C 32.7442 0.582874 3.42374 0
M  V30 323 C 31.6982 1.60592 3.96729 0
M  V30 324 C 31.0242 1.03412 5.24605 0
M  V30 325 C 32.3242 2.99478 4.27914 0
M  V30 326 H 34.0182 1.93708 2.28292 0
M  V30 327 H 31.5642 0.932761 1.09707 0
M  V30 328 H 33.5172 0.423332 4.19268 0
M  V30 329 H 32.2412 -0.379213 3.24391 0
M  V30 330 H 30.9002 1.75316 3.21963 0
M  V30 331 H 30.5482 0.063518 5.0296 0
M  V30 332 H 30.2482 1.71754 5.61938 0
M  V30 333 H 31.7722 0.886066 6.04137 0
M  V30 334 H 33.1862 2.88153 4.95622 0
M  V30 335 H 31.5832 3.64903 4.76409 0
M  V30 336 H 32.6532 3.49742 3.3587 0
M  V30 337 N 33.9963 -1.19345 1.0293 0
M  V30 338 C 34.9433 -2.2258 0.610464 0
M  V30 339 C 35.9133 -1.6179 -0.375946 0
M  V30 340 O 37.0983 -1.88844 -0.272511 0
M  V30 341 C 34.2383 -3.45085 -0.0321473 0
M  V30 342 C 33.3513 -4.20258 1.00035 0
M  V30 343 C 32.4863 -5.3019 0.32746 0
M  V30 344 C 31.5253 -5.97121 1.34584 0
M  V30 345 N 30.6623 -6.98615 0.698726 0
M  V30 346 H 35.5023 -2.57764 1.49538 0
M  V30 347 H 33.0393 -1.26644 0.748311 0
M  V30 348 H 34.9973 -4.15061 -0.421966 0
M  V30 349 H 33.6273 -3.10555 -0.88064 0
M  V30 350 H 32.6793 -3.49223 1.50823 0
M  V30 351 H 33.9913 -4.66175 1.77433 0
M  V30 352 H 33.1453 -6.06587 -0.11718 0
M  V30 353 H 31.8843 -4.85345 -0.478713 0
M  V30 354 H 30.8893 -5.19474 1.80074 0
M  V30 355 H 32.1143 -6.4405 2.15352 0
M  V30 356 H 30.0603 -6.55942 -0.0873471 0
M  V30 357 H 29.9773 -7.42724 1.41058 0
M  V30 358 H 31.2453 -7.79004 0.278102 0
M  V30 359 N 35.4744 -0.807222 -1.35358 0
M  V30 360 C 36.7224 -0.387122 -1.98358 0
M  V30 361 C 37.0434 1.04942 -1.64354 0
M  V30 362 O 36.3134 1.72615 -0.926339 0
M  V30 363 H 34.8934 -0.140154 -0.733734 0
M  V30 364 H 37.5554 -1.0332 -1.6526 0
M  V30 365 H 36.6514 -0.493352 -3.08176 0
M  V30 366 N 36.9525 1.47285 -0.560781 0
M  V30 367 C 37.8825 2.32857 0.173105 0
M  V30 368 C 38.8635 1.44009 0.905281 0
M  V30 369 O 40.0485 1.7286 0.885046 0
M  V30 370 C 37.1785 3.25861 1.20133 0
M  V30 371 C 36.1325 4.23978 0.585388 0
M  V30 372 C 35.4585 5.06332 1.7185 0
M  V30 373 C 36.7585 5.20242 -0.463178 0
M  V30 374 H 38.4525 2.94466 -0.541307 0
M  V30 375 H 35.9985 1.41601 -0.261764 0
M  V30 376 H 37.9515 3.84569 1.72293 0
M  V30 377 H 36.6755 2.62315 1.94573 0
M  V30 378 H 35.3345 3.66501 0.085054 0
M  V30 379 H 34.9825 4.39186 2.45203 0
M  V30 380 H 34.6825 5.72762 1.31213 0
M  V30 381 H 36.2065 5.67899 2.24329 0
M  V30 382 H 37.6205 5.73293 -0.027502 0
M  V30 383 H 36.0175 5.94896 -0.788627 0
M  V30 384 H 37.0875 4.65504 -1.35773 0
M  V30 385 N 38.4306 0.297415 1.54768 0
M  V30 386 C 39.3626 -0.613881 2.20826 0
M  V30 387 C 40.3756 -1.10032 1.19987 0
M  V30 388 O 41.5646 -1.01839 1.46598 0
M  V30 389 C 38.6646 -1.852 2.83821 0
M  V30 390 C 37.8376 -1.50865 4.10559 0
M  V30 391 C 36.8966 -2.60154 4.57391 0
M  V30 392 O 35.9226 -2.25398 5.2267 0
M  V30 393 N 37.1246 -3.90629 4.29406 0
M  V30 394 H 39.8896 -0.048389 2.99661 0
M  V30 395 H 37.4506 0.11946 1.61459 0
M  V30 396 H 39.4426 -2.57652 3.12086 0
M  V30 397 H 38.0126 -2.32597 2.08847 0
M  V30 398 H 37.2326 -0.616925 3.89343 0
M  V30 399 H 38.5206 -1.25458 4.9309 0
M  V30 400 H 37.9186 -4.21677 3.77101 0
M  V30 401 H 36.4756 -4.59391 4.62388 0
M  V30 402 N 39.9087 -1.5758 0.0250728 0
M  V30 403 C 41.1337 -1.96337 -0.668317 0
M  V30 404 C 41.5587 -0.901314 -1.651 0
M  V30 405 O 40.9167 0.138187 -1.80773 0
M  V30 406 C 40.9647 -3.34191 -1.35457 0
M  V30 407 O 40.0687 -3.30269 -2.46974 0
M  V30 408 H 39.4097 -0.640281 -0.175887 0
M  V30 409 H 41.9397 -2.0442 0.0857224 0
M  V30 410 H 41.9497 -3.70331 -1.71228 0
M  V30 411 H 40.6247 -4.11036 -0.634218 0
M  V30 412 H 39.2017 -3.05841 -2.13344 0
M  V30 413 N 41.3868 0.248026 -1.55636 0
M  V30 414 C 42.6358 0.974134 -1.76617 0
M  V30 415 C 42.9488 1.86528 -0.588796 0
M  V30 416 O 44.1548 2.62805 -0.681594 0
M  V30 417 C 42.6108 1.78213 -3.12679 0
M  V30 418 C 42.2188 0.93843 -4.38061 0
M  V30 419 C 43.9628 2.50104 -3.42999 0
M  V30 420 C 41.8698 1.74225 -5.65155 0
M  V30 421 H 40.7998 0.36745 -0.658405 0
M  V30 422 H 43.4508 0.22884 -1.82067 0
M  V30 423 H 41.8328 2.56933 -3.01333 0
M  V30 424 H 43.0068 0.193635 -4.60393 0
M  V30 425 H 41.3218 0.332905 -4.15067 0
M  V30 426 H 43.9188 3.10694 -4.3517 0
M  V30 427 H 44.2618 3.21662 -2.64271 0
M  V30 428 H 44.7948 1.78395 -3.55556 0
M  V30 429 H 41.5338 1.07043 -6.46701 0
M  V30 430 H 41.0538 2.46235 -5.46926 0
M  V30 431 H 42.7328 2.30967 -6.0437 0
M  V30 432 N 42.8649 1.48995 0.513639 0
M  V30 433 C 44.1119 1.57843 1.26854 0
M  V30 434 C 44.4399 0.259501 1.92761 0
M  V30 435 O 43.6949 -0.75159 1.80692 0
M  V30 436 C 43.9939 2.67756 2.36731 0
M  V30 437 C 43.6599 4.09669 1.88368 0
M  V30 438 C 42.3219 4.48291 1.74896 0
M  V30 439 C 44.6739 4.98537 1.52021 0
M  V30 440 C 42.0019 5.73568 1.23438 0
M  V30 441 C 44.3539 6.24319 1.0202 0
M  V30 442 C 43.0179 6.61783 0.871778 0
M  V30 443 H 42.2879 0.577587 0.464192 0
M  V30 444 H 44.9349 1.82778 0.571366 0
M  V30 445 H 43.2399 2.36743 3.12185 0
M  V30 446 H 44.9369 2.71813 2.9482 0
M  V30 447 H 41.5269 3.79176 1.99808 0
M  V30 448 H 45.7109 4.69363 1.61281 0
M  V30 449 H 40.9669 6.01304 1.10648 0
M  V30 450 H 45.1409 6.92566 0.729722 0
M  V30 451 H 42.7679 7.5874 0.470852 0
M  V30 452 N 44.343 -0.763751 1.37857 0
M  V30 453 C 45.275 -1.88664 1.30148 0
M  V30 454 C 46.288 -1.61365 0.215685 0
M  V30 455 O 47.477 -1.72134 0.472459 0
M  V30 456 C 44.577 -3.24075 0.991396 0
M  V30 457 C 43.75 -3.78958 2.18426 0
M  V30 458 C 42.809 -4.92862 1.8432 0
M  V30 459 O 41.835 -5.08027 2.56704 0
M  V30 460 N 43.037 -5.75071 0.792081 0
M  V30 461 H 45.802 -1.95791 2.26905 0
M  V30 462 H 43.363 -0.943226 1.31586 0
M  V30 463 H 45.355 -3.97804 0.743935 0
M  V30 464 H 43.925 -3.12399 0.112122 0
M  V30 465 H 43.145 -2.96913 2.59299 0
M  V30 466 H 44.433 -4.12357 2.98058 0
M  V30 467 H 43.831 -5.65375 0.191595 0
M  V30 468 H 42.388 -6.48991 0.60449 0
M  V30 469 N 45.8211 -1.22559 -0.990812 0
M  V30 470 C 46.7311 -1.01394 -2.11557 0
M  V30 471 C 47.7471 0.0383962 -1.73958 0
M  V30 472 O 48.9231 -0.154787 -2.00804 0
M  V30 473 C 45.9881 -0.596569 -3.41529 0
M  V30 474 C 45.0491 -1.72276 -3.93217 0
M  V30 475 C 44.2821 -1.32521 -5.16985 0
M  V30 476 O 44.5051 -0.204909 -5.70032 0
M  V30 477 O 43.4391 -2.14247 -5.62478 0
M  V30 478 H 47.2651 -1.95633 -2.32296 0
M  V30 479 H 44.8501 -1.01172 -1.0993 0
M  V30 480 H 46.7321 -0.374263 -4.19735 0
M  V30 481 H 45.4071 0.316939 -3.22145 0
M  V30 482 H 44.3141 -1.99961 -3.16174 0
M  V30 483 H 45.6471 -2.61421 -4.17037 0
M  V30 484 N 47.2992 1.18797 -1.03562 0
M  V30 485 C 48.2312 2.21731 -0.580337 0
M  V30 486 C 49.2442 1.59051 0.347349 0
M  V30 487 O 50.4332 1.77929 0.142669 0
M  V30 488 C 47.5332 3.38459 0.172805 0
M  V30 489 C 46.7062 4.3072 -0.761496 0
M  V30 490 C 45.7652 5.26174 -0.0525547 0
M  V30 491 O 44.7912 5.65108 -0.681333 0
M  V30 492 N 45.9932 5.67624 1.21586 0
M  V30 493 H 48.7582 2.61417 -1.46565 0
M  V30 494 H 46.3192 1.33531 -0.915476 0
M  V30 495 H 48.3112 3.99335 0.656793 0
M  V30 496 H 46.8812 2.97507 0.959602 0
M  V30 497 H 46.1012 3.67525 -1.42544 0
M  V30 498 H 47.3892 4.89267 -1.39626 0
M  V30 499 H 46.7872 5.38038 1.74732 0
M  V30 500 H 45.3442 6.30721 1.64421 0
M  V30 501 N 48.7773 0.814389 1.34928 0
M  V30 502 C 50.0253 0.397636 1.9815 0
M  V30 503 C 50.3463 -1.04069 1.64908 0
M  V30 504 O 49.6163 -1.72121 0.93548 0
M  V30 505 H 48.1963 0.144043 0.732981 0
M  V30 506 H 50.8583 1.04195 1.6471 0
M  V30 507 H 49.9543 0.509688 3.0791 0
M  V30 508 N 50.2554 -1.46986 0.568584 0
M  V30 509 C 51.1884 -2.27129 -0.220779 0
M  V30 510 C 52.1664 -1.34757 -0.909905 0
M  V30 511 O 53.3504 -1.64152 -0.926622 0
M  V30 512 C 50.4774 -3.12108 -1.31553 0
M  V30 513 C 49.5234 -4.20141 -0.733748 0
M  V30 514 S 50.3564 -5.33783 0.428479 0
M  V30 515 C 51.5124 -6.22327 -0.667811 0
M  V30 516 H 51.7454 -2.93731 0.459267 0
M  V30 517 H 49.2784 -1.5026 0.355154 0
M  V30 518 H 51.2364 -3.61636 -1.94241 0
M  V30 519 H 49.8974 -2.44847 -1.96746 0
M  V30 520 H 49.0904 -4.79373 -1.5562 0
M  V30 521 H 48.6924 -3.73553 -0.182812 0
M  V30 522 H 50.9844 -6.59364 -1.55708 0
M  V30 523 H 51.9274 -7.0801 -0.11258 0
M  V30 524 H 52.3354 -5.5618 -0.965601 0
M  V30 525 N 51.7335 -0.305618 -1.54608 0
M  V30 526 C 52.6965 0.555591 -2.22364 0
M  V30 527 C 53.6965 1.05768 -1.21119 0
M  V30 528 O 54.8865 0.952972 -1.45822 0
M  V30 529 C 52.0185 1.76974 -2.91364 0
M  V30 530 H 53.2115 -0.0364572 -2.99878 0
M  V30 531 H 50.7645 -0.0565007 -1.56198 0
M  V30 532 H 51.4995 2.40151 -2.17941 0
M  V30 533 H 51.2845 1.41732 -3.65588 0
M  V30 534 H 52.7745 2.38148 -3.43038 0
M  V30 535 N 53.2116 1.57565 -0.0334293 0
M  V30 536 C 54.1216 2.13943 0.962572 0
M  V30 537 C 55.1376 1.09276 1.35406 0
M  V30 538 O 56.3136 1.41355 1.4346 0
M  V30 539 C 53.3786 2.65887 2.22497 0
M  V30 540 C 52.4396 3.85286 1.8935 0
M  V30 541 C 51.6726 4.34743 3.09571 0
M  V30 542 O 51.8956 3.83352 4.22371 0
M  V30 543 O 50.8296 5.26538 2.91618 0
M  V30 544 H 54.6556 2.99333 0.513169 0
M  V30 545 H 52.2406 1.4822 0.18743 0
M  V30 546 H 54.1226 2.99346 2.96598 0
M  V30 547 H 52.7976 1.83578 2.6661 0
M  V30 548 H 51.7046 3.56746 1.1262 0
M  V30 549 H 53.0376 4.68771 1.5005 0
M  V30 550 N 54.6897 -0.239769 1.55765 0
M  V30 551 C 55.9147 -0.988373 1.82335 0
M  V30 552 C 56.3397 -1.77886 0.611421 0
M  V30 553 O 55.6977 -1.75889 -0.439639 0
M  V30 554 C 55.7457 -1.89627 3.06715 0
M  V30 555 O 54.8497 -2.98904 2.84131 0
M  V30 556 H 54.1907 -0.280858 0.601677 0
M  V30 557 H 56.7207 -0.258597 2.02959 0
M  V30 558 H 56.7307 -2.30957 3.36338 0
M  V30 559 H 55.4057 -1.31511 3.9456 0
M  V30 560 H 53.9827 -2.61651 2.65694 0
M  V30 561 N 56.1678 -1.49265 -0.50573 0
M  V30 562 C 57.4138 -1.58748 -1.26202 0
M  V30 563 C 57.7468 -0.271227 -1.92297 0
M  V30 564 O 57.0218 0.724831 -1.80489 0
M  V30 565 C 57.3048 -2.74332 -2.33268 0
M  V30 566 C 57.1578 -4.15737 -1.71705 0
M  V30 567 C 58.4768 -2.85576 -3.34865 0
M  V30 568 H 55.5958 -0.577826 -0.457478 0
M  V30 569 H 58.2378 -1.81532 -0.560897 0
M  V30 570 H 56.3878 -2.55036 -2.93068 0
M  V30 571 H 58.0598 -4.46537 -1.15769 0
M  V30 572 H 56.3028 -4.21605 -1.02135 0
M  V30 573 H 56.9738 -4.92477 -2.49341 0
M  V30 574 H 59.4498 -3.03127 -2.8505 0
M  V30 575 H 58.3258 -3.68135 -4.07146 0
M  V30 576 H 58.5868 -1.94732 -3.96903 0
M  V30 577 N 57.6459 0.756429 -1.3826 0
M  V30 578 C 58.5959 1.86069 -1.31766 0
M  V30 579 C 59.5799 1.59621 -0.202483 0
M  V30 580 O 60.7719 1.7149 -0.438211 0
M  V30 581 C 57.9009 3.23742 -1.1422 0
M  V30 582 C 56.9869 3.56091 -2.30348 0
M  V30 583 N 57.3779 3.59517 -3.55783 0
M  V30 584 C 55.6759 3.86341 -2.22838 0
M  V30 585 C 56.3769 3.89052 -4.32451 0
M  V30 586 N 55.3529 4.05736 -3.61772 0
M  V30 587 H 59.1549 1.86992 -2.26741 0
M  V30 588 H 56.6689 0.953643 -1.31451 0
M  V30 589 H 58.6659 4.02761 -1.07652 0
M  V30 590 H 57.3259 3.24073 -0.201763 0
M  V30 591 H 58.3369 3.41347 -3.89491 0
M  V30 592 H 55.0139 3.94404 -1.36937 0
M  V30 593 H 56.4039 3.98349 -5.4108 0
M  V30 594 N 59.124 1.23083 0.984299 0
M  V30 595 C 60.352 1.08714 1.76037 0
M  V30 596 C 60.767 -0.361691 1.85303 0
M  V30 597 O 60.124 -1.25034 1.32939 0
M  V30 598 C 60.175 1.70206 3.18923 0
M  V30 599 O 59.896 3.09423 3.10144 0
M  V30 600 C 61.397 1.61227 4.12941 0
M  V30 601 H 58.617 0.380664 0.552572 0
M  V30 602 H 61.161 1.62853 1.23689 0
M  V30 603 H 59.316 1.20109 3.6831 0
M  V30 604 H 59.73 3.39188 4.00065 0
M  V30 605 H 61.204 2.08962 5.10919 0
M  V30 606 H 61.681 0.570375 4.35481 0
M  V30 607 H 62.287 2.10671 3.69456 0
M  V30 608 N 60.6021 -1.18246 1.0419 0
M  V30 609 C 61.8481 -1.88793 0.75689 0
M  V30 610 C 62.2031 -1.78909 -0.707767 0
M  V30 611 O 61.4961 -1.1794 -1.50999 0
M  V30 612 C 61.6901 -3.38082 1.15911 0
M  V30 613 C 61.5191 -3.62496 2.66133 0
M  V30 614 C 60.2891 -3.7979 3.33298 0
M  V30 615 C 62.4871 -3.62976 3.64353 0
M  V30 616 N 60.4691 -3.91955 4.72487 0
M  V30 617 C 61.8401 -3.80869 4.89222 0
M  V30 618 C 63.8951 -3.46071 3.57965 0
M  V30 619 C 62.5981 -3.83608 6.08471 0
M  V30 620 C 64.6241 -3.50093 4.76643 0
M  V30 621 C 63.9861 -3.68484 6.00332 0
M  V30 622 H 60.0851 -0.709406 0.32904 0
M  V30 623 H 62.6691 -1.42022 1.33183 0
M  V30 624 H 60.8401 -3.83544 0.612238 0
M  V30 625 H 62.5721 -3.96202 0.824989 0
M  V30 626 H 59.3271 -3.79224 2.83701 0
M  V30 627 H 59.7511 -4.01857 5.44831 0
M  V30 628 H 64.3931 -3.30797 2.63311 0
M  V30 629 H 62.1111 -3.97669 7.0348 0
M  V30 630 H 65.6971 -3.38285 4.73344 0
M  V30 631 H 64.5771 -3.71488 6.90627 0
M  V30 632 N 62.0802 -0.821533 -1.34494 0
M  V30 633 C 63.0122 -0.199946 -2.28326 0
M  V30 634 C 64.0252 0.609377 -1.50965 0
M  V30 635 O 65.2142 0.439285 -1.7301 0
M  V30 636 C 62.3142 0.738431 -3.30757 0
M  V30 637 C 61.4872 -0.0277632 -4.37391 0
M  V30 638 C 60.5462 0.831332 -5.19591 0
M  V30 639 O 59.5722 0.276822 -5.68526 0
M  V30 640 N 60.7742 2.15132 -5.39165 0
M  V30 641 H 63.5392 -1.00609 -2.82308 0
M  V30 642 H 61.1002 -0.678366 -1.47003 0
M  V30 643 H 63.0922 1.31773 -3.82646 0
M  V30 644 H 61.6622 1.44533 -2.7718 0
M  V30 645 H 60.8822 -0.788359 -3.86236 0
M  V30 646 H 62.1702 -0.555251 -5.05761 0
M  V30 647 H 61.5682 2.62559 -5.01078 0
M  V30 648 H 60.1252 2.6795 -5.94177 0
M  V30 649 N 63.5583 1.46682 -0.576371 0
M  V30 650 C 64.8353 1.95599 0.00703437 0
M  V30 651 C 65.2153 1.51904 1.46589 0
M  V30 652 O 64.5633 0.766755 2.15251 0
M  V30 653 C 64.7733 3.4864 -0.158404 0
M  V30 654 C 66.1213 4.24594 -0.0229439 0
M  V30 655 O 67.1453 3.56094 -0.0869173 0
M  V30 656 O 66.0043 5.46373 0.118015 0
M  V30 657 H 63.0983 0.825275 0.053384 0
M  V30 658 H 65.6443 1.56996 -0.644244 0
M  V30 659 H 64.4163 3.7331 -1.17282 0
M  V30 660 H 64.0393 3.94057 0.5296 0
M  V30 661 N 65.0364 0.313813 1.54444 0
M  V30 662 C 65.9864 -0.571898 2.20711 0
M  V30 663 C 66.9704 -1.08913 1.18435 0
M  V30 664 O 68.1624 -1.02777 1.44104 0
M  V30 665 C 65.2914 -1.7371 2.96108 0
M  V30 666 C 64.3774 -1.23522 4.05713 0
M  V30 667 N 64.7684 -0.452288 5.03774 0
M  V30 668 C 63.0664 -1.51482 4.19487 0
M  V30 669 C 63.7674 -0.183438 5.81411 0
M  V30 670 N 62.7434 -0.766845 5.38164 0
M  V30 671 H 66.5454 0.0336802 2.93881 0
M  V30 672 H 64.0594 0.119192 1.61962 0
M  V30 673 H 66.0564 -2.38329 3.4206 0
M  V30 674 H 64.7164 -2.34625 2.24458 0
M  V30 675 H 65.7274 -0.0960131 5.17811 0
M  V30 676 H 62.4044 -2.13053 3.59047 0
M  V30 677 H 63.7944 0.446216 6.70417 0
M  V30 678 N 66.5145 -1.57545 0.0417849 0
M  V30 679 C 67.7625 -1.91937 -0.632829 0
M  V30 680 C 68.0835 -0.919978 -1.71934 0
M  V30 681 O 67.3535 0.0366064 -1.95866 0
M  V30 682 H 65.9335 -0.708493 -0.236742 0
M  V30 683 H 68.5955 -1.9468 0.0925745 0
M  V30 684 H 67.6915 -2.92912 -1.07746 0
M  V30 685 N 67.9926 0.231505 -1.5589 0
M  V30 686 C 69.2226 0.973092 -1.82248 0
M  V30 687 C 69.6306 1.78845 -0.617328 0
M  V30 688 O 68.9736 1.78752 0.423499 0
M  V30 689 C 69.0356 1.94732 -3.02192 0
M  V30 690 C 68.6996 1.31743 -4.37599 0
M  V30 691 C 69.6966 0.712238 -5.14998 0
M  V30 692 C 67.3816 1.33218 -4.84312 0
M  V30 693 C 69.3756 0.130195 -6.37267 0
M  V30 694 C 67.0626 0.746286 -6.06526 0
M  V30 695 C 68.0606 0.146337 -6.82843 0
M  V30 696 O 67.7486 -0.430465 -8.02747 0
M  V30 697 H 67.4806 0.29125 -0.61004 0
M  V30 698 H 70.0346 0.254915 -2.03812 0
M  V30 699 H 68.2646 2.70422 -2.76422 0
M  V30 700 H 69.9536 2.55362 -3.15508 0
M  V30 701 H 70.7196 0.69324 -4.8002 0
M  V30 702 H 66.5986 1.78854 -4.24891 0
M  V30 703 H 70.1426 -0.33871 -6.96777 0
M  V30 704 H 66.0396 0.762663 -6.40979 0
M  V30 705 H 66.8076 -0.323818 -8.17859 0
M  V30 706 N 69.4707 1.49531 0.497807 0
M  V30 707 C 70.4007 1.6935 1.60757 0
M  V30 708 C 71.3817 0.542218 1.61227 0
M  V30 709 O 72.5667 0.778417 1.77917 0
M  V30 710 C 69.6967 1.76298 2.99226 0
M  V30 711 C 68.6507 2.91248 3.13622 0
M  V30 712 C 67.9767 2.83312 4.53474 0
M  V30 713 C 69.2767 4.3214 2.93346 0
M  V30 714 H 70.9707 2.62263 1.44425 0
M  V30 715 H 68.5167 1.26208 0.693367 0
M  V30 716 H 70.4697 1.88749 3.76765 0
M  V30 717 H 69.1937 0.799871 3.16654 0
M  V30 718 H 67.8527 2.78404 2.38509 0
M  V30 719 H 67.5007 1.84902 4.67782 0
M  V30 720 H 67.2007 3.60465 4.64046 0
M  V30 721 H 68.7247 2.97775 5.33069 0
M  V30 722 H 70.1387 4.45649 3.60652 0
M  V30 723 H 68.5357 5.1054 3.15387 0
M  V30 724 H 69.6057 4.46363 1.89441 0
M  V30 725 N 70.9488 -0.749086 1.3866 0
M  V30 726 C 71.9118 -1.84457 1.36045 0
M  V30 727 C 72.9118 -1.58682 0.260122 0
M  V30 728 O 74.1018 -1.66343 0.517261 0
M  V30 729 C 71.2338 -3.22008 1.11911 0
M  V30 730 H 72.4268 -1.88182 2.33512 0
M  V30 731 H 69.9798 -0.951266 1.24019 0
M  V30 732 H 70.7148 -3.2395 0.150686 0
M  V30 733 H 70.4998 -3.42111 1.91579 0
M  V30 734 H 71.9898 -4.0208 1.12788 0
M  V30 735 N 72.4269 -1.23603 -0.977757 0
M  V30 736 C 73.6549 -1.09646 -1.75458 0
M  V30 737 C 74.0699 0.351859 -1.85492 0
M  V30 738 O 73.4269 1.24327 -1.336 0
M  V30 739 C 73.4779 -1.71895 -3.18016 0
M  V30 740 O 73.1989 -3.11063 -3.08498 0
M  V30 741 C 74.6999 -1.63415 -4.12081 0
M  V30 742 H 71.9199 -0.38359 -0.550545 0
M  V30 743 H 74.4639 -1.63507 -1.22824 0
M  V30 744 H 72.6189 -1.22061 -3.67668 0
M  V30 745 H 73.0329 -3.41305 -3.9826 0
M  V30 746 H 74.5069 -2.11669 -5.09804 0
M  V30 747 H 74.9839 -0.593462 -4.35172 0
M  V30 748 H 75.5899 -2.12628 -3.68334 0
M  V30 749 N 73.905 1.17692 -1.04816 0
M  V30 750 C 75.135 1.91508 -0.775128 0
M  V30 751 C 75.543 1.76844 0.67253 0
M  V30 752 O 74.886 1.10057 1.47082 0
M  V30 753 C 74.948 3.43167 -1.0713 0
M  V30 754 C 74.612 3.81612 -2.51438 0
M  V30 755 C 75.609 3.84772 -3.49638 0
M  V30 756 C 73.294 4.12687 -2.86348 0
M  V30 757 C 75.288 4.18469 -4.80794 0
M  V30 758 C 72.975 4.46053 -4.17708 0
M  V30 759 C 73.973 4.48921 -5.14741 0
M  V30 760 O 73.661 4.81504 -6.43746 0
M  V30 761 H 73.393 0.614575 -0.281555 0
M  V30 762 H 75.947 1.50206 -1.40098 0
M  V30 763 H 74.177 3.84745 -0.388342 0
M  V30 764 H 75.866 3.98239 -0.784883 0
M  V30 765 H 76.632 3.60893 -3.24008 0
M  V30 766 H 72.511 4.09627 -2.11486 0
M  V30 767 H 76.055 4.20623 -5.56527 0
M  V30 768 H 71.952 4.69393 -4.43103 0
M  V30 769 H 72.72 4.99377 -6.4851 0
M  V30 770 N 75.3831 0.828654 1.34056 0
M  V30 771 C 76.6111 0.43262 2.02326 0
M  V30 772 C 77.0261 -0.963147 1.62385 0
M  V30 773 O 76.3831 -1.62425 0.832121 0
M  V30 774 C 76.4341 0.53182 3.57567 0
M  V30 775 O 76.1551 1.87258 3.96063 0
M  V30 776 C 77.6561 0.131422 4.43105 0
M  V30 777 H 74.8761 0.172923 0.648335 0
M  V30 778 H 77.4201 1.1184 1.71208 0
M  V30 779 H 75.5751 -0.105938 3.87255 0
M  V30 780 H 75.9891 1.85087 4.90758 0
M  V30 781 H 77.4631 0.251904 5.51425 0
M  V30 782 H 77.9401 -0.925645 4.29335 0
M  V30 783 H 78.5461 0.743207 4.18756 0
M  V30 784 N 76.8612 -1.46375 0.584142 0
M  V30 785 C 77.8092 -2.32042 -0.161047 0
M  V30 786 C 78.8032 -1.44569 -0.882966 0
M  V30 787 O 80.0092 -1.61186 -0.801191 0
M  V30 788 H 76.3842 -0.748659 -0.0708033 0
M  V30 789 H 78.3552 -2.92704 0.580269 0
M  V30 790 C 77.1042 -3.27762 -1.1605 0
M  V30 791 H 76.4272 -3.95051 -0.614419 0
M  V30 792 H 77.8672 -3.90481 -1.65228 0
M  V30 793 C 76.3262 -2.53218 -2.22221 0
M  V30 794 O 76.8562 -2.29628 -3.29597 0
M  V30 795 N 75.0622 -2.13756 -1.96868 0
M  V30 796 H 74.6092 -2.33142 -1.09557 0
M  V30 797 H 74.5672 -1.642 -2.68115 0
M  V30 798 N 78.3393 -0.321999 -1.54275 0
M  V30 799 C 79.2863 0.544664 -2.24281 0
M  V30 800 C 80.2563 1.1129 -1.23303 0
M  V30 801 O 81.4413 1.15354 -1.51981 0
M  V30 802 C 78.5813 1.70045 -3.00298 0
M  V30 803 C 77.6943 1.16159 -4.1609 0
M  V30 804 C 76.8293 2.28293 -4.79641 0
M  V30 805 C 75.8683 1.71648 -5.8754 0
M  V30 806 N 75.0053 2.77438 -6.44959 0
M  V30 807 H 79.8453 -0.0588907 -2.97942 0
M  V30 808 H 77.3823 -0.0408345 -1.47043 0
M  V30 809 H 79.3403 2.38054 -3.42616 0
M  V30 810 H 77.9703 2.27531 -2.28975 0
M  V30 811 H 77.0223 0.373092 -3.78566 0
M  V30 812 H 78.3343 0.707087 -4.93763 0
M  V30 813 H 77.4883 3.0421 -5.2492 0
M  V30 814 H 76.2273 2.77079 -4.01346 0
M  V30 815 H 75.2323 0.942282 -5.41665 0
M  V30 816 H 76.4573 1.23741 -6.67731 0
M  V30 817 H 74.4033 3.25519 -5.69538 0
M  V30 818 H 74.3203 2.36547 -7.1804 0
M  V30 819 H 75.5883 3.53189 -6.94894 0
M  V30 820 N 79.8174 1.5752 -0.0501392 0
M  V30 821 C 80.7654 2.12651 0.942459 0
M  V30 822 C 81.7594 1.05807 1.32292 0
M  V30 823 O 82.9654 1.24217 1.3027 0
M  V30 824 H 79.3404 0.679673 0.321789 0
M  V30 825 H 81.3114 2.94951 0.452356 0
M  V30 826 C 80.0604 2.68565 2.20836 0
M  V30 827 H 79.3834 3.50439 1.92439 0
M  V30 828 H 80.8234 3.10761 2.8845 0
M  V30 829 C 79.2824 1.62291 2.95234 0
M  V30 830 O 79.8124 1.03508 3.88135 0
M  V30 831 N 78.0184 1.33836 2.57946 0
M  V30 832 H 77.5654 1.81826 1.82475 0
M  V30 833 H 77.5234 0.629595 3.08032 0
M  V30 834 N 81.2955 -0.223234 1.56011 0
M  V30 835 C 82.5435 -0.946003 1.78592 0
M  V30 836 C 82.8645 -1.84936 0.618349 0
M  V30 837 O 82.1345 -1.92473 -0.364833 0
M  V30 838 H 80.7145 -0.352298 0.658707 0
M  V30 839 H 83.3765 -0.235494 1.93472 0
M  V30 840 H 82.4725 -1.55381 2.70672 0
M  V30 841 N 82.7736 -1.49793 -0.48987 0
M  V30 842 C 83.9986 -1.63836 -1.27172 0
M  V30 843 C 84.4236 -0.31402 -1.8546 0
M  V30 844 O 83.7816 0.719803 -1.66399 0
M  V30 845 C 83.8296 -2.71797 -2.36978 0
M  V30 846 O 82.9336 -2.31744 -3.41128 0
M  V30 847 H 82.2746 -0.547997 -0.37496 0
M  V30 848 H 84.8046 -1.96053 -0.585191 0
M  V30 849 H 84.8146 -2.94305 -2.82575 0
M  V30 850 H 83.4896 -3.67923 -1.93921 0
M  V30 851 H 82.0666 -2.1961 -3.01373 0
M  V30 852 N 84.2517 0.741722 -1.39055 0
M  V30 853 C 85.4987 1.50114 -1.35912 0
M  V30 854 C 85.8267 1.94443 0.0470937 0
M  V30 855 O 85.0817 1.66612 1.02659 0
M  V30 856 C 85.3807 2.7592 -2.27163 0
M  V30 857 C 85.0467 2.50493 -3.74919 0
M  V30 858 C 83.7087 2.43267 -4.1518 0
M  V30 859 C 86.0607 2.28585 -4.684 0
M  V30 860 C 83.3887 2.12166 -5.46994 0
M  V30 861 C 85.7407 1.99002 -6.00484 0
M  V30 862 C 84.4047 1.90241 -6.39816 0
M  V30 863 H 83.6747 0.549306 -0.497336 0
M  V30 864 H 86.3217 0.851896 -1.71508 0
M  V30 865 H 84.6267 3.45553 -1.84663 0
M  V30 866 H 86.3237 3.33923 -2.22028 0
M  V30 867 H 82.9137 2.56992 -3.43006 0
M  V30 868 H 87.0977 2.33139 -4.38132 0
M  V30 869 H 82.3537 2.03901 -5.76398 0
M  V30 870 H 86.5277 1.81057 -6.72452 0
M  V30 871 H 84.1547 1.65907 -7.41875 0
M  V30 872 N 85.7298 1.2412 0.971189 0
M  V30 873 C 86.6928 1.03156 2.04674 0
M  V30 874 C 87.6928 -0.00990322 1.60797 0
M  V30 875 O 88.8828 0.230729 1.72665 0
M  V30 876 C 86.0148 0.562765 3.36223 0
M  V30 877 H 87.2078 1.98614 2.24705 0
M  V30 878 H 84.7608 1.06293 1.14593 0
M  V30 879 H 85.4958 -0.395176 3.21883 0
M  V30 880 H 85.2808 1.31441 3.69413 0
M  V30 881 H 86.7708 0.437015 4.15307 0
M  V30 882 N 87.2079 -1.17134 1.05439 0
M  V30 883 C 88.1559 -2.23289 0.651511 0
M  V30 884 C 89.1499 -1.66186 -0.328411 0
M  V30 885 O 90.3559 -1.78949 -0.194206 0
M  V30 886 H 86.7309 -0.726938 0.192523 0
M  V30 887 H 88.7019 -2.54565 1.55689 0
M  V30 888 C 87.4509 -3.47671 0.0448436 0
M  V30 889 H 86.7739 -3.91918 0.78996 0
M  V30 890 H 88.2139 -4.2353 -0.19964 0
M  V30 891 C 86.6729 -3.14453 -1.20918 0
M  V30 892 O 87.2029 -3.29459 -2.29825 0
M  V30 893 N 85.4089 -2.68657 -1.10779 0
M  V30 894 H 84.9559 -2.56646 -0.221526 0
M  V30 895 H 84.9139 -2.46804 -1.9477 0
M  V30 896 N 88.686 -0.835752 -1.33615 0
M  V30 897 C 89.616 -0.281739 -2.31794 0
M  V30 898 C 90.597 0.608833 -1.58831 0
M  V30 899 O 91.782 0.533035 -1.86741 0
M  V30 900 C 88.912 0.546612 -3.42971 0
M  V30 901 C 87.866 -0.247904 -4.27281 0
M  V30 902 C 87.192 0.704001 -5.30045 0
M  V30 903 C 88.492 -1.46324 -5.01385 0
M  V30 904 H 90.186 -1.10206 -2.78379 0
M  V30 905 H 87.732 -0.531388 -1.33837 0
M  V30 906 H 89.685 0.944467 -4.1068 0
M  V30 907 H 88.409 1.40011 -2.95067 0
M  V30 908 H 87.068 -0.627281 -3.61194 0
M  V30 909 H 86.716 1.55381 -4.78399 0
M  V30 910 H 86.416 0.176524 -5.87335 0
M  V30 911 H 87.94 1.09944 -6.0062 0
M  V30 912 H 89.354 -1.13871 -5.61877 0
M  V30 913 H 87.751 -1.92728 -5.6831 0
M  V30 914 H 88.821 -2.23467 -4.30338 0
M  V30 915 N 90.1641 1.46063 -0.591896 0
M  V30 916 C 91.5801 1.57561 -0.254288 0
M  V30 917 C 91.7801 1.58565 1.24336 0
M  V30 918 O 90.8361 1.50753 2.02558 0
M  V30 919 C 92.1491 2.86549 -0.911611 0
M  V30 920 C 93.6971 3.00197 -0.886059 0
M  V30 921 C 94.1721 4.31933 -1.5231 0
M  V30 922 N 95.6631 4.38654 -1.48786 0
M  V30 923 C 96.3981 5.39222 -1.95006 0
M  V30 924 N 95.8941 6.46414 -2.49241 0
M  V30 925 N 97.6871 5.3048 -1.85868 0
M  V30 926 H 89.8381 1.43655 -1.56451 0
M  V30 927 H 92.1011 0.68583 -0.654478 0
M  V30 928 H 91.8071 2.91651 -1.96551 0
M  V30 929 H 91.6811 3.74794 -0.425368 0
M  V30 930 H 94.0681 2.9467 0.159246 0
M  V30 931 H 94.1491 2.13403 -1.41041 0
M  V30 932 H 93.7931 4.38217 -2.56765 0
M  V30 933 H 93.7231 5.17516 -0.973891 0
M  V30 934 H 96.2141 3.61793 -1.09151 0
M  V30 935 H 96.5271 7.19376 -2.82344 0
M  V30 936 H 94.8721 6.47208 -2.53272 0
M  V30 937 H 98.0631 4.45643 -1.43248 0
M  V30 938 H 98.2361 6.08711 -2.22204 0
M  V30 939 N 91.6422 0.330177 1.54103 0
M  V30 940 C 92.8912 -0.271336 1.99867 0
M  V30 941 C 93.2042 -1.52723 1.22209 0
M  V30 942 O 94.4102 -2.20515 1.58383 0
M  V30 943 C 92.8662 -0.534032 3.55916 0
M  V30 944 C 92.4742 0.705193 4.42415 0
M  V30 945 C 94.2182 -1.09514 4.1013 0
M  V30 946 C 92.1252 0.414035 5.89949 0
M  V30 947 H 91.0552 -0.105166 0.74663 0
M  V30 948 H 93.7062 0.443429 1.78062 0
M  V30 949 H 92.0882 -1.30915 3.73734 0
M  V30 950 H 93.2622 1.4804 4.36372 0
M  V30 951 H 91.5772 1.18698 3.99124 0
M  V30 952 H 94.1742 -1.3277 5.17954 0
M  V30 953 H 94.5172 -2.04656 3.62521 0
M  V30 954 H 95.0502 -0.381038 3.95971 0
M  V30 955 H 91.7892 1.33481 6.41766 0
M  V30 956 H 91.3092 -0.323336 5.98928 0
M  V30 957 H 92.9882 0.0263105 6.46995 0
M  V30 958 N 93.1203 -1.57491 0.0584922 0
M  V30 959 C 94.3503 -1.9701 -0.622134 0
M  V30 960 C 94.7583 -0.935034 -1.6448 0
M  V30 961 O 94.1013 0.0882904 -1.83488 0
M  V30 962 C 94.1633 -3.32794 -1.35972 0
M  V30 963 C 93.8273 -4.54343 -0.492043 0
M  V30 964 C 94.8243 -5.19323 0.244901 0
M  V30 965 C 92.5093 -5.00534 -0.420821 0
M  V30 966 C 94.5033 -6.28835 1.04143 0
M  V30 967 C 92.1903 -6.09921 0.379389 0
M  V30 968 C 93.1883 -6.73933 1.10919 0
M  V30 969 O 92.8763 -7.81216 1.89623 0
M  V30 970 H 92.6083 -0.653127 -0.174359 0
M  V30 971 H 95.1623 -2.05029 0.123418 0
M  V30 972 H 93.3923 -3.21351 -2.15105 0
M  V30 973 H 95.0813 -3.5701 -1.93129 0
M  V30 974 H 95.8473 -4.8459 0.19939 0
M  V30 975 H 91.7263 -4.50496 -0.978474 0
M  V30 976 H 95.2703 -6.7873 1.61157 0
M  V30 977 H 91.1673 -6.44089 0.426512 0
M  V30 978 H 91.9353 -7.98029 1.81913 0
M  V30 979 N 94.5984 0.214957 -1.56127 0
M  V30 980 C 96.0094 0.781386 -1.69562 0
M  V30 981 C 96.3604 1.84707 -0.66165 0
M  V30 982 O 95.4854 2.156 0.185927 0
M  V30 983 C 96.0804 1.42411 -3.07416 0
M  V30 984 C 94.6394 1.93786 -3.22683 0
M  V30 985 C 93.7864 0.800438 -2.65496 0
M  V30 986 H 96.7374 -0.00980633 -1.58697 0
M  V30 987 H 96.7584 2.29309 -3.0364 0
M  V30 988 H 96.2704 0.64826 -3.82648 0
M  V30 989 H 94.3714 2.74152 -2.52332 0
M  V30 990 H 94.4844 2.1133 -4.29973 0
M  V30 991 H 92.8484 1.2095 -2.2415 0
M  V30 992 H 93.6314 0.0371471 -3.4328 0
M  V30 993 N 96.0765 1.50051 0.48192 0
M  V30 994 C 97.0265 1.64512 1.5786 0
M  V30 995 C 98.0105 0.500073 1.52932 0
M  V30 996 O 99.2025 0.753964 1.60139 0
M  V30 997 C 96.3315 1.73263 2.9637 0
M  V30 998 C 95.4175 2.93409 3.06222 0
M  V30 999 N 95.8085 4.17236 2.85915 0
M  V30 1000 C 94.1065 2.91742 3.37346 0
M  V30 1001 C 94.8075 4.981 3.00451 0
M  V30 1002 N 93.7835 4.3184 3.30174 0
M  V30 1003 H 97.5855 2.57955 1.40842 0
M  V30 1004 H 95.0995 1.47086 0.688439 0
M  V30 1005 H 97.0965 1.81724 3.75209 0
M  V30 1006 H 95.7565 0.809711 3.14442 0
M  V30 1007 H 96.7675 4.46909 2.6171 0
M  V30 1008 H 93.4445 2.08907 3.61475 0
M  V30 1009 H 94.8345 6.06532 2.89082 0
M  V30 1010 N 97.5546 -0.734337 1.39446 0
M  V30 1011 C 98.8026 -1.49096 1.36436 0
M  V30 1012 C 99.1236 -1.94961 -0.0388255 0
M  V30 1013 O 98.3936 -1.69033 -0.990191 0
M  V30 1014 H 96.9736 -0.5531 0.502085 0
M  V30 1015 H 99.6356 -0.871725 1.74319 0
M  V30 1016 H 98.7316 -2.37276 2.02747 0
M  V30 1017 N 99.0327 -1.24633 -0.964593 0
M  V30 1018 C 99.9627 -1.06611 -2.07741 0
M  V30 1019 C 100.944 0.0218666 -1.70086 0
M  V30 1020 O 102.129 -0.145793 -1.93652 0
M  V30 1021 C 99.2587 -0.673444 -3.40708 0
M  V30 1022 C 98.2127 -1.71054 -3.92332 0
M  V30 1023 C 97.5387 -1.17285 -5.21678 0
M  V30 1024 C 98.8387 -3.10718 -4.19824 0
M  V30 1025 H 100.533 -1.99693 -2.23076 0
M  V30 1026 H 98.0787 -0.96152 -1.07195 0
M  V30 1027 H 100.032 -0.534345 -4.17998 0
M  V30 1028 H 98.7557 0.293073 -3.25282 0
M  V30 1029 H 97.4147 -1.83791 -3.17201 0
M  V30 1030 H 97.0627 -0.196847 -5.02615 0
M  V30 1031 H 96.7627 -1.86592 -5.57187 0
M  V30 1032 H 98.2867 -1.04593 -6.01575 0
M  V30 1033 H 99.7007 -3.01192 -4.87808 0
M  V30 1034 H 98.0977 -3.77406 -4.66567 0
M  V30 1035 H 99.1677 -3.58524 -3.26479 0
M  V30 1036 N 100.511 1.16574 -1.06058 0
M  V30 1037 C 101.757 1.87324 -0.777022 0
M  V30 1038 C 102.09 1.81351 0.694645 0
M  V30 1039 O 101.365 1.22753 1.50871 0
M  V30 1040 C 101.648 3.36991 -1.26922 0
M  V30 1041 C 101.501 3.51667 -2.80447 0
M  V30 1042 C 102.82 4.3131 -0.87521 0
M  V30 1043 H 99.9388 0.680191 -0.28374 0
M  V30 1044 H 102.581 1.37036 -1.3161 0
M  V30 1045 H 100.731 3.79949 -0.81063 0
M  V30 1046 H 102.403 3.17664 -3.34495 0
M  V30 1047 H 100.646 2.93656 -3.19294 0
M  V30 1048 H 101.317 4.56766 -3.0995 0
M  V30 1049 H 103.793 3.9624 -1.27014 0
M  V30 1050 H 102.669 5.34545 -1.2471 0
M  V30 1051 H 102.93 4.41552 0.220071 0
M  V30 1052 N 101.989 0.842826 1.3317 0
M  V30 1053 C 102.919 0.294028 2.31641 0
M  V30 1054 C 103.9 -0.600401 1.59151 0
M  V30 1055 O 105.085 -0.523124 1.87022 0
M  V30 1056 C 102.215 -0.528416 3.43257 0
M  V30 1057 C 101.169 0.27056 4.27144 0
M  V30 1058 C 100.495 -0.675881 5.30411 0
M  V30 1059 C 101.795 1.48981 5.00602 0
M  V30 1060 H 103.489 1.11681 2.77791 0
M  V30 1061 H 101.035 0.538478 1.33553 0
M  V30 1062 H 102.988 -0.922674 4.11175 0
M  V30 1063 H 101.712 -1.38445 2.95805 0
M  V30 1064 H 100.371 0.646427 3.60856 0
M  V30 1065 H 100.019 -1.52842 4.79216 0
M  V30 1066 H 99.7189 -0.145374 5.8742 0
M  V30 1067 H 101.243 -1.06757 6.01195 0
M  V30 1068 H 102.657 1.16849 5.61266 0
M  V30 1069 H 101.054 1.95739 5.6728 0
M  V30 1070 H 102.124 2.25746 4.29147 0
M  V30 1071 N 103.467 -1.45747 0.599634 0
M  V30 1072 C 104.397 -2.33235 -0.111306 0
M  V30 1073 C 105.378 -1.46359 -0.866781 0
M  V30 1074 O 106.563 -1.75146 -0.838904 0
M  V30 1075 C 103.693 -3.28932 -1.11451 0
M  V30 1076 C 102.647 -4.25381 -0.472772 0
M  V30 1077 C 101.973 -5.1071 -1.58365 0
M  V30 1078 C 103.273 -5.18831 0.600948 0
M  V30 1079 H 104.967 -2.92927 0.61919 0
M  V30 1080 H 102.513 -1.40857 0.299215 0
M  V30 1081 H 104.466 -3.89002 -1.62036 0
M  V30 1082 H 103.19 -2.67381 -1.8755 0
M  V30 1083 H 101.849 -3.66598 0.0121472 0
M  V30 1084 H 101.497 -4.45533 -2.33473 0
M  V30 1085 H 101.197 -5.7604 -1.15982 0
M  V30 1086 H 102.721 -5.73647 -2.09194 0
M  V30 1087 H 104.135 -5.73019 0.179491 0
M  V30 1088 H 102.532 -5.92595 0.946076 0
M  V30 1089 H 103.602 -4.6174 1.48068 0
M  V30 1090 N 104.945 -0.338344 -1.53925 0
M  V30 1091 C 106.222 0.314774 -1.93051 0
M  V30 1092 C 106.602 1.68669 -1.26941 0
M  V30 1093 O 105.95 2.24636 -0.418445 0
M  V30 1094 C 106.16 0.392249 -3.46789 0
M  V30 1095 C 107.508 0.645554 -4.19664 0
M  V30 1096 O 108.532 0.474575 -3.53024 0
M  V30 1097 O 107.391 0.976408 -5.37707 0
M  V30 1098 H 104.485 0.182598 -0.80659 0
M  V30 1099 H 107.031 -0.389141 -1.65178 0
M  V30 1100 H 105.803 -0.570702 -3.87116 0
M  V30 1101 H 105.426 1.14316 -3.80812 0
M  V30 1102 N 106.423 1.57458 -0.0668435 0
M  V30 1103 C 107.353 2.15468 0.899764 0
M  V30 1104 C 108.334 1.08042 1.31381 0
M  V30 1105 O 109.519 1.36054 1.38574 0
M  V30 1106 C 106.649 2.71232 2.16911 0
M  V30 1107 C 105.603 3.83781 1.89463 0
M  V30 1108 C 104.929 4.26127 3.22986 0
M  V30 1109 C 106.229 5.08238 1.20381 0
M  V30 1110 H 107.923 2.96488 0.416529 0
M  V30 1111 H 105.469 1.4262 0.198908 0
M  V30 1112 H 107.422 3.10458 2.84945 0
M  V30 1113 H 106.146 1.87426 2.67468 0
M  V30 1114 H 104.805 3.45051 1.23836 0
M  V30 1115 H 104.453 3.39249 3.71374 0
M  V30 1116 H 104.153 5.01993 3.05413 0
M  V30 1117 H 105.677 4.67966 3.92225 0
M  V30 1118 H 107.091 5.44811 1.78475 0
M  V30 1119 H 105.488 5.89349 1.13083 0
M  V30 1120 H 106.558 4.84558 0.182153 0
M  V30 1121 N 107.901 -0.206675 1.56239 0
M  V30 1122 C 108.833 -1.27997 1.9013 0
M  V30 1123 C 109.846 -1.42299 0.790883 0
M  V30 1124 O 111.035 -1.42931 1.06925 0
M  V30 1125 C 108.135 -2.65368 2.10792 0
M  V30 1126 C 107.308 -2.72824 3.41886 0
M  V30 1127 C 106.367 -3.9131 3.51799 0
M  V30 1128 O 105.393 -3.78953 4.24716 0
M  V30 1129 N 106.595 -5.06265 2.84035 0
M  V30 1130 H 109.36 -0.992444 2.82791 0
M  V30 1131 H 106.921 -0.396652 1.56966 0
M  V30 1132 H 108.913 -3.43039 2.14724 0
M  V30 1133 H 107.483 -2.86657 1.24685 0
M  V30 1134 H 106.703 -1.81515 3.49923 0
M  V30 1135 H 107.991 -2.74786 4.28217 0
M  V30 1136 H 107.389 -5.19203 2.246 0
M  V30 1137 H 105.946 -5.81925 2.93609 0
M  V30 1138 N 109.379 -1.50304 -0.473955 0
M  V30 1139 C 110.604 -1.65175 -1.25427 0
M  V30 1140 C 111.029 -0.333673 -1.85117 0
M  V30 1141 O 110.387 0.702114 -1.67153 0
M  V30 1142 C 110.435 -2.74295 -2.34082 0
M  V30 1143 O 109.539 -2.35349 -3.38651 0
M  V30 1144 H 108.88 -0.551944 -0.369126 0
M  V30 1145 H 111.41 -1.96662 -0.564364 0
M  V30 1146 H 111.42 -2.97285 -2.79438 0
M  V30 1147 H 110.095 -3.69959 -1.90008 0
M  V30 1148 H 108.672 -2.22794 -2.99027 0
M  V30 1149 N 110.857 0.726932 -1.39834 0
M  V30 1150 C 112.087 1.51393 -1.40583 0
M  V30 1151 C 112.495 1.892 -0.000740625 0
M  V30 1152 O 111.838 1.55189 0.982951 0
M  V30 1153 C 111.9 2.82588 -2.22226 0
M  V30 1154 C 111.564 2.67169 -3.70769 0
M  V30 1155 C 112.561 2.3518 -4.63666 0
M  V30 1156 C 110.246 2.83788 -4.14451 0
M  V30 1157 C 112.24 2.20002 -5.98229 0
M  V30 1158 C 109.927 2.68229 -5.49087 0
M  V30 1159 C 110.925 2.36382 -6.4079 0
M  V30 1160 O 110.613 2.2093 -7.72946 0
M  V30 1161 H 110.345 0.474168 -0.48181 0
M  V30 1162 H 112.899 0.905247 -1.84376 0
M  V30 1163 H 111.129 3.45746 -1.73195 0
M  V30 1164 H 112.818 3.44247 -2.15055 0
M  V30 1165 H 113.584 2.21984 -4.31217 0
M  V30 1166 H 109.463 3.07566 -3.43401 0
M  V30 1167 H 113.007 1.95067 -6.69772 0
M  V30 1168 H 108.904 2.81006 -5.81125 0
M  V30 1169 H 109.672 2.35937 -7.83757 0
M  V30 1170 N 112.336 1.25143 0.95797 0
M  V30 1171 C 113.613 1.00472 1.67823 0
M  V30 1172 C 113.993 -0.470056 2.058 0
M  V30 1173 O 113.341 -1.44663 1.76875 0
M  V30 1174 C 113.551 1.9372 2.90299 0
M  V30 1175 C 114.899 2.21371 3.62326 0
M  V30 1176 O 115.923 1.91451 3.00375 0
M  V30 1177 O 114.782 2.72231 4.7387 0
M  V30 1178 H 111.876 0.380752 0.734137 0
M  V30 1179 H 114.422 1.36283 1.01119 0
M  V30 1180 H 113.194 2.93316 2.59001 0
M  V30 1181 H 112.817 1.58286 3.64735 0
M  V30 1182 N 113.814 -1.1601 1.06675 0
M  V30 1183 C 115.062 -1.86264 0.784229 0
M  V30 1184 C 115.383 -1.82328 -0.691488 0
M  V30 1185 O 114.653 -1.25947 -1.50047 0
M  V30 1186 H 113.233 -0.689621 0.28711 0
M  V30 1187 H 115.895 -1.40664 1.34906 0
M  V30 1188 H 114.991 -2.91595 1.11259 0
M  V30 1189 N 115.292 -0.849877 -1.32721 0
M  V30 1190 C 116.569 -0.372405 -1.92022 0
M  V30 1191 C 116.949 1.1435 -1.77447 0
M  V30 1192 O 116.297 1.96296 -1.16962 0
M  V30 1193 C 116.507 -0.831482 -3.3895 0
M  V30 1194 C 117.855 -0.845882 -4.16089 0
M  V30 1195 O 118.879 -0.775806 -3.47649 0
M  V30 1196 O 117.738 -0.943753 -5.38289 0
M  V30 1197 H 114.832 -0.107667 -0.819961 0
M  V30 1198 H 117.378 -0.93646 -1.41522 0
M  V30 1199 H 116.15 -1.87448 -3.4348 0
M  V30 1200 H 115.773 -0.24461 -3.96847 0
M  V30 1201 N 116.77 1.45427 -0.607355 0
M  V30 1202 C 117.733 2.28974 0.101693 0
M  V30 1203 C 118.733 1.39754 0.795329 0
M  V30 1204 O 119.923 1.61878 0.643527 0
M  V30 1205 C 117.055 3.20768 1.15414 0
M  V30 1206 H 118.248 2.93147 -0.632844 0
M  V30 1207 H 115.801 1.51945 -0.366391 0
M  V30 1208 H 116.536 2.61395 1.91945 0
M  V30 1209 H 116.321 3.86489 0.66098 0
M  V30 1210 H 117.811 3.83589 1.65073 0
M  V30 1211 N 118.248 0.346503 1.53744 0
M  V30 1212 C 119.18 -0.543316 2.22667 0
M  V30 1213 C 120.193 -1.06159 1.23427 0
M  V30 1214 O 121.382 -0.971235 1.49764 0
M  V30 1215 C 118.482 -1.76076 2.89569 0
M  V30 1216 C 117.655 -1.37727 4.15151 0
M  V30 1217 C 116.714 -2.45471 4.65436 0
M  V30 1218 O 115.74 -2.08655 5.29577 0
M  V30 1219 N 116.942 -3.7677 4.41616 0
M  V30 1220 H 119.707 0.0469703 2.99663 0
M  V30 1221 H 117.268 0.170766 1.60997 0
M  V30 1222 H 119.26 -2.47593 3.20125 0
M  V30 1223 H 117.83 -2.25835 2.16142 0
M  V30 1224 H 117.05 -0.492746 3.91108 0
M  V30 1225 H 118.338 -1.09708 4.96832 0
M  V30 1226 H 117.736 -4.09467 3.90325 0
M  V30 1227 H 116.293 -4.44448 4.7677 0
M  V30 1228 N 119.726 -1.57421 0.075193 0
M  V30 1229 C 120.974 -1.93236 -0.591974 0
M  V30 1230 C 121.295 -0.956241 -1.69944 0
M  V30 1231 O 120.565 -0.00494792 -1.95899 0
M  V30 1232 H 119.145 -0.713355 -0.22166 0
M  V30 1233 H 121.807 -1.9444 0.133848 0
M  V30 1234 H 120.903 -2.95131 -1.01509 0
M  V30 1235 N 121.204 0.198386 -1.56346 0
M  V30 1236 C 122.151 1.24589 -1.94284 0
M  V30 1237 C 123.121 1.454 -0.802997 0
M  V30 1238 O 124.306 1.58588 -1.06087 0
M  V30 1239 C 121.446 2.58631 -2.28482 0
M  V30 1240 C 120.559 2.45426 -3.55514 0
M  V30 1241 C 119.694 3.7215 -3.79049 0
M  V30 1242 C 118.733 3.53763 -4.99518 0
M  V30 1243 N 117.87 4.72491 -5.19323 0
M  V30 1244 H 122.71 0.915356 -2.83593 0
M  V30 1245 H 120.247 0.440629 -1.40346 0
M  V30 1246 H 122.205 3.3672 -2.46324 0
M  V30 1247 H 120.835 2.89734 -1.42317 0
M  V30 1248 H 119.887 1.58652 -3.45737 0
M  V30 1249 H 121.199 2.27772 -4.43758 0
M  V30 1250 H 120.353 4.58679 -3.97113 0
M  V30 1251 H 119.092 3.92754 -2.89129 0
M  V30 1252 H 118.097 2.65619 -4.8138 0
M  V30 1253 H 119.322 3.34607 -5.90944 0
M  V30 1254 H 117.268 4.93365 -4.3235 0
M  V30 1255 H 117.185 4.5765 -6.01741 0
M  V30 1256 H 118.453 5.6038 -5.41843 0
M  V30 1257 N 122.682 1.50554 0.465978 0
M  V30 1258 C 123.592 1.72585 1.58907 0
M  V30 1259 C 124.608 0.60911 1.6299 0
M  V30 1260 O 125.784 0.88804 1.80765 0
M  V30 1261 C 122.849 1.81995 2.95091 0
M  V30 1262 C 121.91 3.05751 3.01355 0
M  V30 1263 C 121.143 3.14702 4.31043 0
M  V30 1264 O 121.366 2.30313 5.21835 0
M  V30 1265 O 120.3 4.07468 4.43005 0
M  V30 1266 H 124.126 2.67799 1.43239 0
M  V30 1267 H 121.711 1.34711 0.646013 0
M  V30 1268 H 123.593 1.90335 3.75966 0
M  V30 1269 H 122.268 0.899659 3.10947 0
M  V30 1270 H 121.175 3.02908 2.19539 0
M  V30 1271 H 122.508 3.97375 2.90437 0
M  V30 1272 N 124.16 -0.719506 1.40217 0
M  V30 1273 C 125.07 -1.86378 1.42479 0
M  V30 1274 C 126.086 -1.71073 0.317834 0
M  V30 1275 O 127.262 -1.93406 0.561794 0
M  V30 1276 C 124.327 -3.22136 1.28178 0
M  V30 1277 C 123.388 -3.49723 2.48982 0
M  V30 1278 C 122.621 -4.79004 2.35353 0
M  V30 1279 O 122.844 -5.53821 1.36524 0
M  V30 1280 O 121.778 -5.06839 3.2465 0
M  V30 1281 H 125.604 -1.87425 2.38968 0
M  V30 1282 H 123.189 -0.869405 1.21498 0
M  V30 1283 H 125.071 -4.03234 1.22395 0
M  V30 1284 H 123.746 -3.21825 0.347934 0
M  V30 1285 H 122.653 -2.6865 2.60342 0
M  V30 1286 H 123.986 -3.54828 3.41113 0
M  V30 1287 N 125.638 -1.25649 -0.95132 0
M  V30 1288 C 126.887 -1.09988 -1.69073 0
M  V30 1289 C 127.2 0.358355 -1.92289 0
M  V30 1290 O 128.406 0.635466 -2.63958 0
M  V30 1291 C 126.862 -1.92012 -3.044 0
M  V30 1292 C 126.47 -3.42347 -2.88968 0
M  V30 1293 C 128.214 -1.8493 -3.82101 0
M  V30 1294 C 126.121 -4.16655 -4.19705 0
M  V30 1295 H 125.051 -0.407993 -0.63408 0
M  V30 1296 H 127.702 -1.49873 -1.05879 0
M  V30 1297 H 126.084 -1.44952 -3.68517 0
M  V30 1298 H 127.258 -3.97104 -2.33762 0
M  V30 1299 H 125.573 -3.50557 -2.24719 0
M  V30 1300 H 128.17 -2.37739 -4.78941 0
M  V30 1301 H 128.513 -0.817883 -4.08187 0
M  V30 1302 H 129.046 -2.29758 -3.2474 0
M  V30 1303 H 125.785 -5.20224 -3.98807 0
M  V30 1304 H 125.305 -3.66681 -4.74663 0
M  V30 1305 H 126.984 -4.24551 -4.88227 0
M  V30 1306 N 127.117 1.15442 -1.07289 0
M  V30 1307 C 128.394 1.82306 -0.708792 0
M  V30 1308 C 128.774 1.94991 0.808807 0
M  V30 1309 O 128.122 1.50085 1.72298 0
M  V30 1310 C 128.332 3.18695 -1.42247 0
M  V30 1311 C 129.68 3.94341 -1.57417 0
M  V30 1312 O 130.704 3.28247 -1.38319 0
M  V30 1313 O 129.563 5.12839 -1.88834 0
M  V30 1314 H 126.657 0.787628 -0.252132 0
M  V30 1315 H 129.203 1.22559 -1.17377 0
M  V30 1316 H 127.975 3.04557 -2.45684 0
M  V30 1317 H 127.598 3.86128 -0.948223 0
M  V30 1318 N 128.595 0.856903 1.32268 0
M  V30 1319 C 129.82 0.474569 2.01897 0
M  V30 1320 C 130.245 -0.921766 1.63967 0
M  V30 1321 O 129.603 -1.60589 0.84148 0
M  V30 1322 C 129.651 0.623799 3.55164 0
M  V30 1323 O 128.755 -0.342459 4.10976 0
M  V30 1324 H 128.096 0.190422 0.63611 0
M  V30 1325 H 130.626 1.15672 1.68764 0
M  V30 1326 H 130.636 0.512169 4.04773 0
M  V30 1327 H 129.311 1.64202 3.82113 0
M  V30 1328 H 127.888 -0.18688 3.72431 0
M  V30 1329 N 130.073 -1.45103 0.615059 0
M  V30 1330 C 131.322 -2.01396 0.110718 0
M  V30 1331 C 131.635 -1.48834 -1.26916 0
M  V30 1332 O 132.841 -1.97152 -1.86664 0
M  V30 1333 C 131.297 -3.59599 0.14723 0
M  V30 1334 C 130.905 -4.21158 1.52743 0
M  V30 1335 C 132.649 -4.23428 -0.30148 0
M  V30 1336 C 130.556 -5.71535 1.51992 0
M  V30 1337 H 129.486 -0.753061 0.0376241 0
M  V30 1338 H 132.137 -1.66494 0.77149 0
M  V30 1339 H 130.519 -3.91724 -0.580339 0
M  V30 1340 H 131.693 -4.00594 2.2773 0
M  V30 1341 H 130.008 -3.69552 1.91886 0
M  V30 1342 H 132.605 -5.33703 -0.326392 0
M  V30 1343 H 132.948 -3.94629 -1.32565 0
M  V30 1344 H 133.481 -3.96047 0.373065 0
M  V30 1345 H 130.22 -6.05044 2.52193 0
M  V30 1346 H 129.74 -5.94268 0.81274 0
M  V30 1347 H 131.419 -6.34873 1.24681 0
M  V30 1348 N 131.551 -0.354651 -1.53558 0
M  V30 1349 C 132.481 0.489091 -2.2832 0
M  V30 1350 C 133.462 1.09324 -1.30316 0
M  V30 1351 O 134.647 1.11255 -1.59173 0
M  V30 1352 C 131.777 1.63456 -3.0643 0
M  V30 1353 C 130.731 1.1582 -4.12031 0
M  V30 1354 C 130.057 2.39305 -4.7816 0
M  V30 1355 C 131.357 0.250731 -5.21698 0
M  V30 1356 H 133.051 -0.134614 -2.99097 0
M  V30 1357 H 130.597 -0.0661826 -1.43848 0
M  V30 1358 H 132.55 2.23136 -3.57475 0
M  V30 1359 H 131.274 2.28533 -2.33325 0
M  V30 1360 H 129.933 0.584146 -3.61916 0
M  V30 1361 H 129.581 3.02814 -4.01637 0
M  V30 1362 H 129.281 2.08109 -5.49513 0
M  V30 1363 H 130.805 2.99691 -5.31994 0
M  V30 1364 H 132.219 0.754695 -5.68311 0
M  V30 1365 H 130.616 0.0301468 -6.00092 0
M  V30 1366 H 131.686 -0.710125 -4.79672 0
M  V30 1367 N 133.029 1.57378 -0.0835403 0
M  V30 1368 C 133.977 2.14602 0.89714 0
M  V30 1369 C 134.971 1.08589 1.30018 0
M  V30 1370 O 136.177 1.26952 1.27606 0
M  V30 1371 H 132.552 0.686346 0.3073 0
M  V30 1372 H 134.523 2.95845 0.38969 0
M  V30 1373 C 133.272 2.73188 2.15089 0
M  V30 1374 H 132.595 3.54442 1.84962 0
M  V30 1375 H 134.035 3.1681 2.81793 0
M  V30 1376 C 132.494 1.68517 2.91725 0
M  V30 1377 O 133.024 1.11718 3.85852 0
M  V30 1378 N 131.23 1.39277 2.55049 0
M  V30 1379 H 130.777 1.85655 1.78577 0
M  V30 1380 H 130.735 0.694791 3.06627 0
M  V30 1381 N 134.507 -0.190092 1.56449 0
M  V30 1382 C 135.454 -1.23557 1.94942 0
M  V30 1383 C 136.424 -1.44972 0.810696 0
M  V30 1384 O 137.609 -1.58023 1.06927 0
M  V30 1385 C 134.749 -2.57416 2.2985 0
M  V30 1386 C 133.862 -2.43537 3.5681 0
M  V30 1387 C 132.997 -3.70134 3.81017 0
M  V30 1388 C 132.036 -3.51109 5.01387 0
M  V30 1389 N 131.173 -4.6973 5.21822 0
M  V30 1390 H 136.013 -0.900304 2.84075 0
M  V30 1391 H 133.55 -0.43318 1.40577 0
M  V30 1392 H 135.508 -3.35409 2.48106 0
M  V30 1393 H 134.138 -2.88975 1.43852 0
M  V30 1394 H 133.19 -1.56816 3.46573 0
M  V30 1395 H 134.502 -2.25415 4.4496 0
M  V30 1396 H 133.656 -4.56566 3.9954 0
M  V30 1397 H 132.395 -3.91215 2.91207 0
M  V30 1398 H 131.4 -2.63063 4.82782 0
M  V30 1399 H 132.625 -3.31468 5.9271 0
M  V30 1400 H 130.571 -4.91065 4.34961 0
M  V30 1401 H 130.488 -4.54452 6.0416 0
M  V30 1402 H 131.756 -5.57499 5.44808 0
M  V30 1403 N 135.985 -1.50799 -0.457987 0
M  V30 1404 C 137.231 -1.62683 -1.21088 0
M  V30 1405 C 137.564 -0.332268 -1.91336 0
M  V30 1406 O 136.839 0.667043 -1.82704 0
M  V30 1407 C 137.122 -2.81615 -2.24422 0
M  V30 1408 C 136.975 -4.20989 -1.58392 0
M  V30 1409 C 138.294 -2.96085 -3.2561 0
M  V30 1410 H 135.413 -0.592087 -0.438864 0
M  V30 1411 H 138.055 -1.83225 -0.50286 0
M  V30 1412 H 136.205 -2.64231 -2.84806 0
M  V30 1413 H 137.877 -4.49994 -1.01504 0
M  V30 1414 H 136.12 -4.24641 -0.886704 0
M  V30 1415 H 136.791 -5.0016 -2.33547 0
M  V30 1416 H 139.267 -3.12042 -2.75262 0
M  V30 1417 H 138.143 -3.80902 -3.95228 0
M  V30 1418 H 138.404 -2.0726 -3.90507 0
M  V30 1419 N 137.463 0.71206 -1.40597 0
M  V30 1420 C 138.373 1.8562 -1.43466 0
M  V30 1421 C 139.389 1.70902 -0.326902 0
M  V30 1422 O 140.565 1.93105 -0.572043 0
M  V30 1423 C 137.63 3.21451 -1.29884 0
M  V30 1424 C 136.691 3.48398 -2.50833 0
M  V30 1425 C 135.924 4.77749 -2.3789 0
M  V30 1426 O 136.147 5.53089 -1.39459 0
M  V30 1427 O 135.081 5.05111 -3.27333 0
M  V30 1428 H 138.907 1.86155 -2.39958 0
M  V30 1429 H 136.492 0.86295 -1.21957 0
M  V30 1430 H 138.374 4.02579 -1.24531 0
M  V30 1431 H 137.049 3.21636 -0.364997 0
M  V30 1432 H 135.956 2.67265 -2.61763 0
M  V30 1433 H 137.289 3.53014 -3.4299 0
M  V30 1434 N 138.941 1.26152 0.944643 0
M  V30 1435 C 139.851 1.09176 2.07648 0
M  V30 1436 C 140.867 0.0261935 1.7398 0
M  V30 1437 O 142.043 0.229208 2.00091 0
M  V30 1438 C 139.108 0.722915 3.39079 0
M  V30 1439 C 138.169 1.86752 3.86552 0
M  V30 1440 C 137.402 1.51617 5.11711 0
M  V30 1441 O 137.625 0.416331 5.68879 0
M  V30 1442 O 136.559 2.34975 5.54139 0
M  V30 1443 H 140.385 2.0412 2.24875 0
M  V30 1444 H 137.97 1.05182 1.061 0
M  V30 1445 H 139.852 0.529787 4.18056 0
M  V30 1446 H 138.527 -0.197159 3.23099 0
M  V30 1447 H 137.434 2.11558 3.08535 0
M  V30 1448 H 138.767 2.76719 4.07047 0
M  V30 1449 N 140.419 -1.14872 1.07899 0
M  V30 1450 C 141.835 -1.37776 0.805606 0
M  V30 1451 C 142.035 -1.92743 -0.587555 0
M  V30 1452 O 141.091 -2.13678 -1.34528 0
M  V30 1453 C 142.404 -2.34361 1.88402 0
M  V30 1454 C 143.952 -2.48012 1.90942 0
M  V30 1455 C 144.427 -3.47893 2.97883 0
M  V30 1456 N 145.918 -3.55433 2.97021 0
M  V30 1457 C 146.653 -4.32553 3.76412 0
M  V30 1458 N 146.149 -5.12959 4.65666 0
M  V30 1459 N 147.942 -4.27697 3.64735 0
M  V30 1460 H 140.093 -0.775365 1.97742 0
M  V30 1461 H 142.356 -0.403521 0.857831 0
M  V30 1462 H 142.062 -2.01098 2.88535 0
M  V30 1463 H 141.936 -3.34206 1.74889 0
M  V30 1464 H 144.323 -2.8057 0.914579 0
M  V30 1465 H 144.404 -1.48147 2.08534 0
M  V30 1466 H 144.048 -3.16069 3.97571 0
M  V30 1467 H 143.978 -4.47527 2.77538 0
M  V30 1468 H 146.469 -2.98048 2.32326 0
M  V30 1469 H 146.782 -5.69065 5.22862 0
M  V30 1470 H 145.127 -5.12245 4.69712 0
M  V30 1471 H 148.318 -3.63949 2.94378 0
M  V30 1472 H 148.491 -4.8755 4.26848 0
M  V30 1473 N 141.898 -0.863906 -1.31812 0
M  V30 1474 C 142.831 -0.259963 -2.26714 0
M  V30 1475 C 143.809 0.607392 -1.50829 0
M  V30 1476 O 144.993 0.562155 -1.79922 0
M  V30 1477 C 142.12 0.632456 -3.32743 0
M  V30 1478 C 141.166 -0.162743 -4.26189 0
M  V30 1479 S 141.999 -1.53726 -5.12961 0
M  V30 1480 C 143.155 -0.650803 -6.22507 0
M  V30 1481 H 143.388 -1.06445 -2.77591 0
M  V30 1482 H 140.921 -0.662071 -1.39485 0
M  V30 1483 H 142.879 1.14167 -3.94305 0
M  V30 1484 H 141.54 1.41083 -2.80632 0
M  V30 1485 H 140.733 0.517366 -5.01338 0
M  V30 1486 H 140.335 -0.60385 -3.69093 0
M  V30 1487 H 142.627 0.141134 -6.77353 0
M  V30 1488 H 143.57 -1.37322 -6.94657 0
M  V30 1489 H 143.978 -0.221041 -5.64067 0
M  V30 1490 N 143.376 1.44774 -0.622745 0
M  V30 1491 C 144.323 2.30635 0.0871679 0
M  V30 1492 C 145.293 1.42994 0.845097 0
M  V30 1493 O 146.478 1.71907 0.827812 0
M  V30 1494 C 143.618 3.28144 1.06844 0
M  V30 1495 C 142.731 4.30888 0.309809 0
M  V30 1496 C 141.866 5.15494 1.28215 0
M  V30 1497 C 140.905 6.09953 0.512198 0
M  V30 1498 N 140.042 6.87287 1.43458 0
M  V30 1499 H 144.882 2.90803 -0.650974 0
M  V30 1500 H 142.419 1.43286 -0.33281 0
M  V30 1501 H 144.377 3.83157 1.65066 0
M  V30 1502 H 143.007 2.69695 1.77382 0
M  V30 1503 H 142.059 3.78414 -0.388181 0
M  V30 1504 H 143.371 4.97955 -0.290254 0
M  V30 1505 H 142.525 5.74983 1.93596 0
M  V30 1506 H 141.264 4.48481 1.91614 0
M  V30 1507 H 140.269 5.49581 -0.155151 0
M  V30 1508 H 141.494 6.78999 -0.116958 0
M  V30 1509 H 139.44 6.2295 2.05594 0
M  V30 1510 H 139.357 7.50763 0.888335 0
M  V30 1511 H 140.625 7.51306 2.07749 0
M  V30 1512 N 144.854 0.36279 1.53368 0
M  V30 1513 C 145.764 -0.492994 2.29362 0
M  V30 1514 C 146.78 -1.09507 1.35219 0
M  V30 1515 O 147.956 -1.10662 1.68273 0
M  V30 1516 C 145.021 -1.61855 3.066 0
M  V30 1517 C 144.082 -1.04429 4.16405 0
M  V30 1518 C 143.315 -2.11621 4.89951 0
M  V30 1519 O 143.538 -3.32684 4.63333 0
M  V30 1520 O 142.472 -1.74835 5.75948 0
M  V30 1521 H 146.298 0.125331 3.03441 0
M  V30 1522 H 143.883 0.127253 1.48857 0
M  V30 1523 H 145.765 -2.27302 3.54841 0
M  V30 1524 H 144.44 -2.22233 2.3536 0
M  V30 1525 H 143.347 -0.353819 3.72423 0
M  V30 1526 H 144.68 -0.485113 4.89804 0
M  V30 1527 N 146.332 -1.57332 0.0918853 0
M  V30 1528 C 147.262 -2.16872 -0.865371 0
M  V30 1529 C 148.243 -1.10118 -1.29646 0
M  V30 1530 O 149.428 -1.38242 -1.36392 0
M  V30 1531 C 146.558 -2.74649 -2.12569 0
M  V30 1532 C 145.512 -3.86747 -1.83333 0
M  V30 1533 C 144.838 -4.31212 -3.16166 0
M  V30 1534 C 146.138 -5.10089 -1.1228 0
M  V30 1535 H 147.832 -2.97114 -0.369307 0
M  V30 1536 H 145.378 -1.42918 -0.176194 0
M  V30 1537 H 147.331 -3.14952 -2.7997 0
M  V30 1538 H 146.055 -1.91657 -2.64452 0
M  V30 1539 H 144.714 -3.46978 -1.18331 0
M  V30 1540 H 144.362 -3.45115 -3.6593 0
M  V30 1541 H 144.062 -5.06788 -2.97388 0
M  V30 1542 H 145.586 -4.74146 -3.84731 0
M  V30 1543 H 147 -5.47582 -1.69785 0
M  V30 1544 H 145.397 -5.91073 -1.03693 0
M  V30 1545 H 146.467 -4.84786 -0.105041 0
M  V30 1546 N 147.81 0.181792 -1.56548 0
M  V30 1547 C 149.035 0.920019 -1.85877 0
M  V30 1548 C 149.46 1.75494 -0.677021 0
M  V30 1549 O 148.818 1.77399 0.374056 0
M  V30 1550 C 148.866 1.78112 -3.13542 0
M  V30 1551 O 147.97 2.88152 -2.95029 0
M  V30 1552 H 147.311 0.258334 -0.611686 0
M  V30 1553 H 149.841 0.183092 -2.03779 0
M  V30 1554 H 149.851 2.18314 -3.44678 0
M  V30 1555 H 148.526 1.16777 -3.99169 0
M  V30 1556 H 147.103 2.51609 -2.75222 0
M  V30 1557 N 149.288 1.51039 0.449983 0
M  V30 1558 C 150.22 1.67617 1.56324 0
M  V30 1559 C 151.233 0.557083 1.52972 0
M  V30 1560 O 152.422 0.830989 1.57977 0
M  V30 1561 C 149.522 1.66402 2.95235 0
M  V30 1562 C 148.695 2.9469 3.23229 0
M  V30 1563 C 147.754 2.85832 4.41799 0
M  V30 1564 O 146.78 3.59785 4.41071 0
M  V30 1565 N 147.982 2.00821 5.44657 0
M  V30 1566 H 150.747 2.63648 1.42512 0
M  V30 1567 H 148.308 1.48767 0.638737 0
M  V30 1568 H 150.3 1.58062 3.72557 0
M  V30 1569 H 148.87 0.780182 3.02708 0
M  V30 1570 H 148.09 3.16996 2.34323 0
M  V30 1571 H 149.378 3.79636 3.38754 0
M  V30 1572 H 148.776 1.40091 5.48079 0
M  V30 1573 H 147.333 1.98368 6.20881 0
M  V30 1574 N 150.766 -0.704594 1.40972 0
M  V30 1575 C 152.043 -1.45847 1.30338 0
M  V30 1576 C 152.423 -2.10973 -0.0732344 0
M  V30 1577 O 151.771 -2.00997 -1.08685 0
M  V30 1578 C 151.981 -2.48525 2.45023 0
M  V30 1579 C 153.329 -3.1404 2.8577 0
M  V30 1580 O 154.353 -2.58848 2.44696 0
M  V30 1581 O 153.212 -4.13981 3.56766 0
M  V30 1582 H 150.306 -0.649092 0.512454 0
M  V30 1583 H 152.852 -0.735836 1.52917 0
M  V30 1584 H 151.624 -1.98994 3.36923 0
M  V30 1585 H 151.247 -3.2831 2.24272 0
M  V30 1586 N 152.244 -1.26651 -0.937939 0
M  V30 1587 C 153.469 -1.15279 -1.72411 0
M  V30 1588 C 153.894 0.287866 -1.85884 0
M  V30 1589 O 153.252 1.20855 -1.35143 0
M  V30 1590 C 153.3 -1.83028 -3.10698 0
M  V30 1591 O 152.404 -1.12128 -3.96864 0
M  V30 1592 H 151.745 -0.401504 -0.528858 0
M  V30 1593 H 154.275 -1.67531 -1.1745 0
M  V30 1594 H 154.285 -1.89981 -3.6107 0
M  V30 1595 H 152.96 -2.87833 -3.00208 0
M  V30 1596 H 151.537 -1.13173 -3.55312 0
M  V30 1597 N 153.722 1.14298 -1.08507 0
M  V30 1598 C 154.95 1.89219 -0.836876 0
M  V30 1599 C 155.365 1.78638 0.611054 0
M  V30 1600 O 154.722 1.14643 1.41998 0
M  V30 1601 C 154.773 3.39158 -1.25116 0
M  V30 1602 O 154.494 3.49449 -2.64229 0
M  V30 1603 C 155.995 4.31073 -1.03398 0
M  V30 1604 H 153.215 0.599328 -0.301739 0
M  V30 1605 H 155.759 1.44746 -1.44461 0
M  V30 1606 H 153.914 3.81251 -0.687514 0
M  V30 1607 H 154.328 4.42589 -2.81452 0
M  V30 1608 H 155.802 5.34646 -1.37323 0
M  V30 1609 H 156.279 4.3919 0.0289259 0
M  V30 1610 H 156.885 3.94738 -1.58311 0
M  V30 1611 N 155.201 0.870884 1.31352 0
M  V30 1612 C 156.449 0.48132 1.96285 0
M  V30 1613 C 156.77 -0.969813 1.69173 0
M  V30 1614 O 156.04 -1.67998 1.00764 0
M  V30 1615 H 154.62 0.175002 0.726212 0
M  V30 1616 H 157.282 1.11087 1.60143 0
M  V30 1617 H 156.378 0.639825 3.05471 0
M  V30 1618 N 156.679 -1.44442 0.630414 0
M  V30 1619 C 158.095 -1.56832 0.295973 0
M  V30 1620 C 158.295 -1.61806 -1.20088 0
M  V30 1621 O 157.351 -1.5607 -1.9849 0
M  V30 1622 C 158.664 -2.84031 0.987264 0
M  V30 1623 C 160.212 -2.97742 0.96534 0
M  V30 1624 C 160.687 -4.27743 1.63708 0
M  V30 1625 N 162.178 -4.34555 1.60364 0
M  V30 1626 C 162.913 -5.33862 2.09234 0
M  V30 1627 N 162.409 -6.39578 2.66292 0
M  V30 1628 N 164.202 -5.25366 1.99867 0
M  V30 1629 H 156.353 -1.39457 1.60205 0
M  V30 1630 H 158.616 -0.668237 0.672431 0
M  V30 1631 H 158.322 -2.86338 2.04215 0
M  V30 1632 H 158.196 -3.73534 0.524588 0
M  V30 1633 H 160.583 -2.94989 -0.0810639 0
M  V30 1634 H 160.664 -2.09589 1.4665 0
M  V30 1635 H 160.308 -4.31255 2.68293 0
M  V30 1636 H 160.238 -5.14752 1.11076 0
M  V30 1637 H 162.729 -3.58772 1.18705 0
M  V30 1638 H 163.042 -7.11637 3.01317 0
M  V30 1639 H 161.387 -6.40265 2.70343 0
M  V30 1640 H 164.578 -4.41688 1.55013 0
M  V30 1641 H 164.751 -6.02606 2.38265 0
M  V30 1642 N 158.157 -0.370918 -1.53173 0
M  V30 1643 C 159.403 0.217423 -2.01631 0
M  V30 1644 C 159.736 1.47983 -1.25756 0
M  V30 1645 O 159.011 1.91274 -0.352764 0
M  V30 1646 C 159.294 0.503982 -3.56556 0
M  V30 1647 C 159.147 -0.77243 -4.43118 0
M  V30 1648 C 160.466 1.30234 -4.20389 0
M  V30 1649 H 157.585 0.0775486 -0.732909 0
M  V30 1650 H 160.227 -0.496863 -1.83388 0
M  V30 1651 H 158.377 1.11248 -3.72231 0
M  V30 1652 H 160.049 -1.4098 -4.39229 0
M  V30 1653 H 158.292 -1.39167 -4.10871 0
M  V30 1654 H 158.963 -0.526815 -5.4948 0
M  V30 1655 H 161.439 0.787546 -4.08579 0
M  V30 1656 H 160.315 1.47158 -5.28806 0
M  V30 1657 H 160.576 2.31237 -3.76805 0
M  V30 1658 N 159.635 1.57281 -0.100228 0
M  V30 1659 C 160.582 2.14305 0.856858 0
M  V30 1660 C 161.552 1.06296 1.27634 0
M  V30 1661 O 162.737 1.34109 1.35718 0
M  V30 1662 C 159.877 2.73184 2.10866 0
M  V30 1663 C 158.99 3.95442 1.73925 0
M  V30 1664 C 158.125 4.42468 2.93931 0
M  V30 1665 C 157.164 5.57303 2.5314 0
M  V30 1666 N 156.301 5.99158 3.65997 0
M  V30 1667 H 161.141 2.95772 0.363726 0
M  V30 1668 H 158.678 1.46139 0.167858 0
M  V30 1669 H 160.636 3.05442 2.84185 0
M  V30 1670 H 159.266 1.94437 2.57671 0
M  V30 1671 H 158.318 3.69464 0.905554 0
M  V30 1672 H 159.63 4.78769 1.39935 0
M  V30 1673 H 158.784 4.76537 3.75496 0
M  V30 1674 H 157.523 3.58052 3.31134 0
M  V30 1675 H 156.528 5.22857 1.70003 0
M  V30 1676 H 157.753 6.43471 2.17075 0
M  V30 1677 H 155.699 5.17687 4.02909 0
M  V30 1678 H 155.616 6.77295 3.35869 0
M  V30 1679 H 156.884 6.3786 4.48057 0
M  V30 1680 N 161.113 -0.173488 1.56642 0
M  V30 1681 C 162.529 -0.525174 1.50712 0
M  V30 1682 C 162.729 -1.8476 0.804107 0
M  V30 1683 O 161.785 -2.49869 0.363574 0
M  V30 1684 C 163.098 -0.559937 2.95441 0
M  V30 1685 C 164.646 -0.647288 3.06234 0
M  V30 1686 C 165.121 -0.712963 4.52417 0
M  V30 1687 N 166.612 -0.775911 4.56655 0
M  V30 1688 C 167.347 -0.847264 5.67106 0
M  V30 1689 N 166.843 -0.879585 6.87194 0
M  V30 1690 N 168.636 -0.886117 5.55071 0
M  V30 1691 H 160.787 0.693681 2.00753 0
M  V30 1692 H 163.05 0.249841 0.914485 0
M  V30 1693 H 162.756 0.343049 3.50023 0
M  V30 1694 H 162.63 -1.40718 3.49969 0
M  V30 1695 H 165.017 -1.5407 2.51687 0
M  V30 1696 H 165.098 0.226586 2.54794 0
M  V30 1697 H 164.742 0.176183 5.07594 0
M  V30 1698 H 164.672 -1.60295 5.0161 0
M  V30 1699 H 167.163 -0.759304 3.70193 0
M  V30 1700 H 167.476 -0.935144 7.67121 0
M  V30 1701 H 165.821 -0.847898 6.89808 0
M  V30 1702 H 169.012 -0.857853 4.60172 0
M  V30 1703 H 169.185 -0.938263 6.41171 0
M  V30 1704 N 162.591 -1.51276 -0.441967 0
M  V30 1705 C 163.521 -1.752 -1.54361 0
M  V30 1706 C 164.502 -0.601682 -1.59103 0
M  V30 1707 O 165.687 -0.843913 -1.74905 0
M  V30 1708 C 162.817 -1.87282 -2.92477 0
M  V30 1709 C 161.771 -3.02687 -3.02596 0
M  V30 1710 C 161.097 -2.99947 -4.42647 0
M  V30 1711 C 162.397 -4.4273 -2.77106 0
M  V30 1712 H 164.091 -2.67442 -1.34592 0
M  V30 1713 H 161.637 -1.28694 -0.646048 0
M  V30 1714 H 163.59 -2.02602 -3.695 0
M  V30 1715 H 162.314 -0.916844 -3.13467 0
M  V30 1716 H 160.973 -2.87065 -2.28012 0
M  V30 1717 H 160.621 -2.02136 -4.60597 0
M  V30 1718 H 160.321 -3.77439 -4.50348 0
M  V30 1719 H 161.845 -3.17354 -5.2165 0
M  V30 1720 H 163.259 -4.58727 -3.43864 0
M  V30 1721 H 161.656 -5.21893 -2.96222 0
M  V30 1722 H 162.726 -4.53087 -1.72744 0
M  V30 1723 N 164.069 0.697108 -1.41344 0
M  V30 1724 C 165.48 1.27697 -1.36199 0
M  V30 1725 C 165.831 1.9615 -0.0443463 0
M  V30 1726 O 164.956 1.98689 0.857419 0
M  V30 1727 C 165.551 2.32223 -2.46694 0
M  V30 1728 C 164.11 2.8579 -2.44952 0
M  V30 1729 C 163.257 1.59807 -2.26621 0
M  V30 1730 H 166.208 0.491968 -1.50882 0
M  V30 1731 H 166.229 3.1348 -2.15664 0
M  V30 1732 H 165.741 1.82373 -3.42581 0
M  V30 1733 H 163.842 3.3982 -1.52817 0
M  V30 1734 H 163.955 3.36325 -3.41207 0
M  V30 1735 H 162.319 1.8556 -1.7447 0
M  V30 1736 H 163.102 1.11956 -3.24532 0
M  V30 1737 N 165.547 1.27147 0.931209 0
M  V30 1738 C 166.958 1.12044 1.49342 0
M  V30 1739 C 167.309 -0.295795 1.93957 0
M  V30 1740 O 166.434 -1.18835 1.80852 0
M  V30 1741 C 167.029 2.02781 2.71414 0
M  V30 1742 C 165.588 1.91794 3.2387 0
M  V30 1743 C 164.735 1.95543 1.96617 0
M  V30 1744 H 167.686 1.40091 0.745672 0
M  V30 1745 H 167.707 1.58156 3.46074 0
M  V30 1746 H 167.219 3.05848 2.38911 0
M  V30 1747 H 165.32 0.916992 3.6114 0
M  V30 1748 H 165.433 2.77852 3.90302 0
M  V30 1749 H 163.797 1.39722 2.12955 0
M  V30 1750 H 164.58 3.00259 1.66432 0
M  V30 1751 N 167.025 -1.13721 1.09112 0
M  V30 1752 C 168.274 -1.84275 0.82009 0
M  V30 1753 C 168.587 -1.84253 -0.656509 0
M  V30 1754 O 169.793 -2.50668 -1.04296 0
M  V30 1755 C 168.249 -3.30825 1.41714 0
M  V30 1756 C 167.857 -3.39244 2.92605 0
M  V30 1757 C 169.601 -4.06443 1.22492 0
M  V30 1758 C 167.508 -4.80047 3.45411 0
M  V30 1759 H 166.438 -0.690387 0.30312 0
M  V30 1760 H 169.089 -1.28146 1.31343 0
M  V30 1761 H 167.471 -3.86737 0.851498 0
M  V30 1762 H 168.645 -2.93344 3.55367 0
M  V30 1763 H 166.96 -2.77088 3.10823 0
M  V30 1764 H 169.557 -5.10387 1.59402 0
M  V30 1765 H 169.9 -4.15972 0.165299 0
M  V30 1766 H 170.433 -3.56852 1.75788 0
M  V30 1767 H 167.172 -4.75709 4.50978 0
M  V30 1768 H 166.692 -5.26455 2.87411 0
M  V30 1769 H 168.371 -5.48957 3.42425 0
M  V30 1770 N 168.503 -0.877838 -1.30888 0
M  V30 1771 C 169.749 -0.493426 -1.96706 0
M  V30 1772 C 170.082 0.953504 -1.6918 0
M  V30 1773 O 169.357 1.67266 -0.992594 0
M  V30 1774 C 169.64 -0.760429 -3.51979 0
M  V30 1775 C 169.493 -2.25747 -3.89048 0
M  V30 1776 C 170.812 -0.232148 -4.39487 0
M  V30 1777 H 167.931 -0.180746 -0.714493 0
M  V30 1778 H 170.573 -1.10052 -1.54882 0
M  V30 1779 H 168.723 -0.243715 -3.87735 0
M  V30 1780 H 170.395 -2.84204 -3.63354 0
M  V30 1781 H 168.638 -2.72694 -3.37373 0
M  V30 1782 H 169.309 -2.39491 -4.97341 0
M  V30 1783 H 171.785 -0.674314 -4.106 0
M  V30 1784 H 170.661 -0.448355 -5.47066 0
M  V30 1785 H 170.922 0.866297 -4.33529 0
M  V30 1786 N 169.982 1.44106 -0.638065 0
M  V30 1787 C 171.398 1.56672 -0.304286 0
M  V30 1788 C 171.598 1.6244 1.19228 0
M  V30 1789 O 170.654 1.57121 1.9766 0
M  V30 1790 C 171.967 2.83503 -1.00231 0
M  V30 1791 C 173.515 2.97226 -0.981116 0
M  V30 1792 C 173.99 4.26868 -1.65974 0
M  V30 1793 N 175.481 4.33698 -1.62666 0
M  V30 1794 C 176.216 5.32745 -2.12063 0
M  V30 1795 N 175.712 6.38157 -2.6968 0
M  V30 1796 N 177.505 5.24299 -2.02651 0
M  V30 1797 H 169.656 1.38605 -1.60942 0
M  V30 1798 H 171.919 0.664661 -0.675965 0
M  V30 1799 H 171.625 2.85251 -2.0573 0
M  V30 1800 H 171.499 3.73251 -0.54439 0
M  V30 1801 H 173.886 2.95027 0.0654188 0
M  V30 1802 H 173.967 2.08808 -1.47759 0
M  V30 1803 H 173.611 4.29826 -2.70576 0
M  V30 1804 H 173.541 5.14156 -1.13804 0
M  V30 1805 H 176.032 3.58138 -1.20606 0
M  V30 1806 H 176.345 7.10029 -3.05087 0
M  V30 1807 H 174.69 6.38823 -2.73734 0
M  V30 1808 H 177.881 4.4086 -1.57353 0
M  V30 1809 H 178.054 6.01334 -2.41457 0
M  V30 1810 N 171.46 0.379036 1.52974 0
M  V30 1811 C 172.708 -0.206014 2.01047 0
M  V30 1812 C 173.029 -1.48175 1.26765 0
M  V30 1813 O 172.299 -1.92085 0.384743 0
M  V30 1814 H 170.879 -0.0791184 0.742798 0
M  V30 1815 H 173.541 0.508366 1.88153 0
M  V30 1816 H 172.637 -0.423501 3.09213 0
M  V30 1817 N 172.938 -1.57226 0.108567 0
M  V30 1818 C 174.186 -1.94448 -0.550853 0
M  V30 1819 C 174.507 -0.992074 -1.67878 0
M  V30 1820 O 173.777 -0.0465 -1.95845 0
M  V30 1821 H 172.357 -0.717897 -0.206479 0
M  V30 1822 H 175.019 -1.94112 0.175062 0
M  V30 1823 H 174.115 -2.97218 -0.952259 0
M  V30 1824 N 174.416 0.165178 -1.56732 0
M  V30 1825 C 175.379 1.18822 -1.95995 0
M  V30 1826 C 176.379 1.3685 -0.84431 0
M  V30 1827 O 177.569 1.34152 -1.11126 0
M  V30 1828 C 174.701 2.5521 -2.26011 0
M  V30 1829 H 175.894 0.851825 -2.87548 0
M  V30 1830 H 173.447 0.407857 -1.50885 0
M  V30 1831 H 174.182 2.93852 -1.37191 0
M  V30 1832 H 173.967 2.43489 -3.07336 0
M  V30 1833 H 175.457 3.28927 -2.57288 0
M  V30 1834 N 175.894 1.51508 0.433938 0
M  V30 1835 C 177.143 1.63578 1.18005 0
M  V30 1836 C 177.456 0.359514 1.92268 0
M  V30 1837 O 178.662 0.359632 2.69108 0
M  V30 1838 C 177.118 2.88901 2.14626 0
M  V30 1839 C 176.726 4.23544 1.45995 0
M  V30 1840 C 178.47 3.10328 2.89649 0
M  V30 1841 C 176.377 5.40014 2.4112 0
M  V30 1842 H 175.307 0.609277 0.444182 0
M  V30 1843 H 177.958 1.77978 0.446773 0
M  V30 1844 H 176.34 2.68142 2.91403 0
M  V30 1845 H 177.514 4.54696 0.747532 0
M  V30 1846 H 175.829 4.08021 0.831115 0
M  V30 1847 H 178.426 3.94518 3.60915 0
M  V30 1848 H 178.769 2.23544 3.51189 0
M  V30 1849 H 179.302 3.31443 2.19978 0
M  V30 1850 H 176.041 6.29068 1.84264 0
M  V30 1851 H 175.561 5.13233 3.10406 0
M  V30 1852 H 177.24 5.72099 3.02177 0
M  V30 1853 N 177.372 -0.689602 1.41712 0
M  V30 1854 C 178.649 -1.44457 1.31877 0
M  V30 1855 C 179.029 -2.11039 -0.0508537 0
M  V30 1856 O 178.377 -2.02138 -1.06547 0
M  V30 1857 C 178.587 -2.45913 2.47645 0
M  V30 1858 C 179.935 -3.10991 2.89084 0
M  V30 1859 O 180.959 -2.56238 2.47428 0
M  V30 1860 O 179.818 -4.10174 3.61137 0
M  V30 1861 H 176.912 -0.64362 0.519309 0
M  V30 1862 H 179.458 -0.719576 1.53689 0
M  V30 1863 H 178.23 -1.95409 3.39015 0
M  V30 1864 H 177.853 -3.25913 2.27742 0
M  V30 1865 N 178.85 -1.27639 -0.924453 0
M  V30 1866 C 180.266 -1.05113 -1.20097 0
M  V30 1867 C 180.466 0.213262 -2.00368 0
M  V30 1868 O 179.522 0.91787 -2.35226 0
M  V30 1869 C 180.835 -2.29244 -1.94596 0
M  V30 1870 C 182.383 -2.34315 -2.07522 0
M  V30 1871 C 182.858 -3.58183 -2.85427 0
M  V30 1872 N 184.349 -3.5876 -2.92994 0
M  V30 1873 C 185.084 -4.51277 -3.53746 0
M  V30 1874 N 184.58 -5.54102 -4.15863 0
M  V30 1875 N 186.373 -4.38894 -3.51181 0
M  V30 1876 H 178.524 -2.08821 -0.388264 0
M  V30 1877 H 180.787 -0.918568 -0.234385 0
M  V30 1878 H 180.493 -3.21301 -1.43034 0
M  V30 1879 H 180.367 -2.34816 -2.95197 0
M  V30 1880 H 182.754 -1.42762 -2.58269 0
M  V30 1881 H 182.835 -2.32744 -1.06131 0
M  V30 1882 H 182.479 -4.50074 -2.35363 0
M  V30 1883 H 182.409 -3.57006 -3.8711 0
M  V30 1884 H 184.9 -2.84398 -2.4885 0
M  V30 1885 H 185.213 -6.20859 -4.60168 0
M  V30 1886 H 183.558 -5.57941 -4.144 0
M  V30 1887 H 186.749 -3.57772 -3.01856 0
M  V30 1888 H 186.922 -5.11186 -3.98237 0
M  V30 1889 N 180.328 1.1314 -1.09713 0
M  V30 1890 C 181.558 1.88048 -0.855656 0
M  V30 1891 C 181.966 1.79537 0.596919 0
M  V30 1892 O 181.309 1.16196 1.42282 0
M  V30 1893 C 181.371 3.38314 -1.21589 0
M  V30 1894 C 181.035 3.70605 -2.67397 0
M  V30 1895 C 182.032 3.69596 -3.65643 0
M  V30 1896 C 179.717 4.0017 -3.03593 0
M  V30 1897 C 181.711 3.977 -4.9811 0
M  V30 1898 C 179.398 4.27935 -4.36251 0
M  V30 1899 C 180.396 4.26685 -5.33318 0
M  V30 1900 O 180.084 4.53767 -6.63589 0
M  V30 1901 H 179.816 0.60208 -0.307368 0
M  V30 1902 H 182.37 1.44128 -1.46343 0
M  V30 1903 H 180.6 3.82752 -0.551177 0
M  V30 1904 H 182.289 3.94552 -0.953083 0
M  V30 1905 H 183.055 3.46826 -3.39023 0
M  V30 1906 H 178.934 4.00289 -2.2867 0
M  V30 1907 H 182.478 3.9664 -5.73866 0
M  V30 1908 H 178.375 4.50178 -4.62613 0
M  V30 1909 H 179.143 4.71422 -6.69107 0
M  V30 1910 N 181.806 0.884767 1.30421 0
M  V30 1911 C 183.052 0.513218 1.96819 0
M  V30 1912 C 183.407 -0.927347 1.68577 0
M  V30 1913 O 182.7 -1.64644 0.979941 0
M  V30 1914 C 182.894 0.724318 3.49983 0
M  V30 1915 C 182.723 2.18385 3.93113 0
M  V30 1916 C 181.493 2.82839 4.18725 0
M  V30 1917 C 183.691 3.15763 4.05953 0
M  V30 1918 N 181.673 4.1939 4.48314 0
M  V30 1919 C 183.044 4.37387 4.39423 0
M  V30 1920 C 185.099 3.11555 3.88379 0
M  V30 1921 C 183.802 5.55343 4.5715 0
M  V30 1922 C 185.828 4.28782 4.07308 0
M  V30 1923 C 185.19 5.49172 4.41123 0
M  V30 1924 H 181.289 0.237123 0.745182 0
M  V30 1925 H 183.873 1.14246 1.57658 0
M  V30 1926 H 182.044 0.124565 3.882 0
M  V30 1927 H 183.776 0.31969 4.03435 0
M  V30 1928 H 180.531 2.33708 4.11919 0
M  V30 1929 H 180.955 4.89911 4.67243 0
M  V30 1930 H 185.597 2.19576 3.61312 0
M  V30 1931 H 183.315 6.47826 4.8306 0
M  V30 1932 H 186.901 4.26995 3.95179 0
M  V30 1933 H 185.781 6.38371 4.55469 0
M  V30 1934 N 183.284 -1.43765 0.645699 0
M  V30 1935 C 184.695 -1.85193 0.236719 0
M  V30 1936 C 185.046 -1.54045 -1.21509 0
M  V30 1937 O 184.171 -0.985694 -1.92647 0
M  V30 1938 C 184.766 -3.36151 0.422845 0
M  V30 1939 C 183.325 -3.76338 0.0682492 0
M  V30 1940 C 182.472 -2.67538 0.729306 0
M  V30 1941 H 185.423 -1.34025 0.849883 0
M  V30 1942 H 185.444 -3.79032 -0.333904 0
M  V30 1943 H 184.956 -3.5879 1.47958 0
M  V30 1944 H 183.057 -3.59312 -0.986179 0
M  V30 1945 H 183.17 -4.76603 0.488469 0
M  V30 1946 H 181.534 -2.54176 0.163235 0
M  V30 1947 H 182.317 -2.93006 1.78892 0
M  V30 1948 N 184.763 -0.387143 -1.52771 0
M  V30 1949 C 185.991 0.195869 -2.05971 0
M  V30 1950 C 186.406 1.40691 -1.25903 0
M  V30 1951 O 185.763 1.79931 -0.305134 0
M  V30 1952 C 185.814 0.56812 -3.57008 0
M  V30 1953 O 185.535 -0.594803 -4.34043 0
M  V30 1954 C 187.036 1.20723 -4.26545 0
M  V30 1955 H 184.256 0.0300578 -0.670326 0
M  V30 1956 H 186.8 -0.551749 -1.96916 0
M  V30 1957 H 184.955 1.26564 -3.66143 0
M  V30 1958 H 185.369 -0.289322 -5.23701 0
M  V30 1959 H 186.843 1.41807 -5.33474 0
M  V30 1960 H 187.32 2.17395 -3.81623 0
M  V30 1961 H 187.926 0.550535 -4.21722 0
M  V30 1962 N 186.241 1.57166 -0.116904 0
M  V30 1963 C 187.204 2.14039 0.819742 0
M  V30 1964 C 188.204 1.07477 1.19605 0
M  V30 1965 O 189.394 1.33263 1.1219 0
M  V30 1966 C 186.526 2.67891 2.10826 0
M  V30 1967 H 187.719 2.98128 0.325511 0
M  V30 1968 H 185.272 1.55739 0.132312 0
M  V30 1969 H 186.007 1.87384 2.64685 0
M  V30 1970 H 185.792 3.45823 1.84793 0
M  V30 1971 H 187.282 3.11809 2.77785 0
M  V30 1972 N 187.719 -0.156864 1.56817 0
M  V30 1973 C 188.996 -0.899244 1.73704 0
M  V30 1974 C 189.376 -1.99771 0.682254 0
M  V30 1975 O 188.724 -2.26515 -0.300522 0
M  V30 1976 C 188.934 -1.45075 3.17418 0
M  V30 1977 C 190.282 -1.91802 3.7881 0
M  V30 1978 O 191.306 -1.54838 3.20786 0
M  V30 1979 O 190.165 -2.5994 4.80722 0
M  V30 1980 H 187.259 -0.424267 0.709878 0
M  V30 1981 H 189.805 -0.143561 1.69092 0
M  V30 1982 H 188.577 -0.660846 3.85679 0
M  V30 1983 H 188.2 -2.27021 3.26416 0
M  V30 1984 N 189.197 -1.51736 -0.425897 0
M  V30 1985 C 190.445 -1.64644 -1.17204 0
M  V30 1986 C 190.766 -0.370486 -1.91448 0
M  V30 1987 O 190.036 0.614088 -1.86026 0
M  V30 1988 H 188.616 -0.606819 -0.435638 0
M  V30 1989 H 191.278 -1.88713 -0.487177 0
M  V30 1990 H 190.374 -2.47958 -1.89534 0
M  V30 1991 N 190.675 0.682077 -1.42076 0
M  V30 1992 C 192.091 0.994324 -1.24841 0
M  V30 1993 C 192.291 2.0096 -0.147389 0
M  V30 1994 O 191.347 2.47822 0.483782 0
M  V30 1995 C 192.66 1.50607 -2.60265 0
M  V30 1996 C 194.208 1.62421 -2.6756 0
M  V30 1997 C 194.683 2.16994 -4.03333 0
M  V30 1998 N 196.174 2.24337 -4.0525 0
M  V30 1999 C 196.909 2.67621 -5.07116 0
M  V30 2000 N 196.405 3.1041 -6.19368 0
M  V30 2001 N 198.198 2.67305 -4.94474 0
M  V30 2002 H 190.349 0.00973908 -2.12398 0
M  V30 2003 H 192.612 0.0668593 -0.945639 0
M  V30 2004 H 192.318 0.834583 -3.41654 0
M  V30 2005 H 192.192 2.48602 -2.83684 0
M  V30 2006 H 194.579 2.28678 -1.86521 0
M  V30 2007 H 194.66 0.629352 -2.47937 0
M  V30 2008 H 194.304 1.51349 -4.84826 0
M  V30 2009 H 194.234 3.17258 -4.20304 0
M  V30 2010 H 196.725 1.94158 -3.24209 0
M  V30 2011 H 197.038 3.42103 -6.92954 0
M  V30 2012 H 195.383 3.08286 -6.22884 0
M  V30 2013 H 198.574 2.33233 -4.05857 0
M  V30 2014 H 198.747 3.00718 -5.73997 0
M  V30 2015 N 192.153 1.28127 0.917671 0
M  V30 2016 C 193.083 1.14248 2.03641 0
M  V30 2017 C 194.064 0.0412748 1.7005 0
M  V30 2018 O 195.249 0.217566 1.92977 0
M  V30 2019 C 192.379 0.799431 3.37974 0
M  V30 2020 C 191.333 1.85497 3.85713 0
M  V30 2021 C 190.659 1.36565 5.16966 0
M  V30 2022 C 191.959 3.26085 4.08002 0
M  V30 2023 H 193.653 2.07835 2.15511 0
M  V30 2024 H 191.199 1.00064 1.03553 0
M  V30 2025 H 193.152 0.689114 4.15727 0
M  V30 2026 H 191.876 -0.172145 3.26146 0
M  V30 2027 H 190.535 1.95437 3.10161 0
M  V30 2028 H 190.183 0.383253 5.01538 0
M  V30 2029 H 189.883 2.07143 5.49878 0
M  V30 2030 H 191.407 1.26848 5.97279 0
M  V30 2031 H 192.821 3.19089 4.76293 0
M  V30 2032 H 191.218 3.94462 4.52238 0
M  V30 2033 H 192.288 3.70394 3.12948 0
M  V30 2034 N 193.631 -1.12557 1.10312 0
M  V30 2035 C 194.877 -1.84311 0.846011 0
M  V30 2036 C 195.21 -1.83805 -0.626859 0
M  V30 2037 O 194.485 -1.28268 -1.46211 0
M  V30 2038 C 194.768 -3.32048 1.39341 0
M  V30 2039 C 194.621 -3.41016 2.93305 0
M  V30 2040 C 195.94 -4.27764 1.03468 0
M  V30 2041 H 193.059 -0.669192 0.30879 0
M  V30 2042 H 195.701 -1.32057 1.36605 0
M  V30 2043 H 193.851 -3.76678 0.951087 0
M  V30 2044 H 195.523 -3.05031 3.46055 0
M  V30 2045 H 193.766 -2.81603 3.29973 0
M  V30 2046 H 194.437 -4.44948 3.26689 0
M  V30 2047 H 196.913 -3.91253 1.41633 0
M  V30 2048 H 195.789 -5.29549 1.44463 0
M  V30 2049 H 196.05 -4.42064 -0.0560404 0
M  V30 2050 N 195.109 -0.891671 -1.2995 0
M  V30 2051 C 196.019 -0.367691 -2.31701 0
M  V30 2052 C 197.035 0.533486 -1.6562 0
M  V30 2053 O 198.211 0.424997 -1.96865 0
M  V30 2054 C 195.276 0.403406 -3.44345 0
M  V30 2055 C 194.337 -0.528328 -4.26037 0
M  V30 2056 C 193.57 0.206063 -5.33302 0
M  V30 2057 O 193.793 1.43119 -5.52153 0
M  V30 2058 O 192.727 -0.447281 -6.00236 0
M  V30 2059 H 196.553 -1.21163 -2.78484 0
M  V30 2060 H 194.138 -0.655725 -1.34241 0
M  V30 2061 H 196.02 0.839753 -4.12948 0
M  V30 2062 H 194.695 1.22354 -2.99685 0
M  V30 2063 H 193.602 -1.01362 -3.60106 0
M  V30 2064 H 194.935 -1.31465 -4.74318 0
M  V30 2065 N 196.587 1.43421 -0.653314 0
M  V30 2066 C 197.817 2.05864 -0.174238 0
M  V30 2067 C 198.225 1.49052 1.16534 0
M  V30 2068 O 197.568 0.616481 1.73047 0
M  V30 2069 C 197.63 3.59499 -0.00875873 0
M  V30 2070 C 197.294 4.38893 -1.27364 0
M  V30 2071 C 198.291 4.70947 -2.20239 0
M  V30 2072 C 195.976 4.789 -1.51525 0
M  V30 2073 C 197.97 5.41916 -3.35568 0
M  V30 2074 C 195.657 5.49614 -2.67147 0
M  V30 2075 C 196.655 5.81044 -3.58994 0
M  V30 2076 O 196.343 6.50313 -4.72597 0
M  V30 2077 H 196.075 0.670345 -0.0872549 0
M  V30 2078 H 198.629 1.84913 -0.894226 0
M  V30 2079 H 196.859 3.79025 0.7666 0
M  V30 2080 H 198.548 4.0364 0.427687 0
M  V30 2081 H 199.314 4.40558 -2.02815 0
M  V30 2082 H 195.193 4.53843 -0.809158 0
M  V30 2083 H 198.737 5.66365 -4.07279 0
M  V30 2084 H 194.634 5.79419 -2.84505 0
M  V30 2085 H 195.402 6.68795 -4.71864 0
M  V30 2086 N 198.065 0.39524 1.52563 0
M  V30 2087 C 199.342 -0.242908 1.94086 0
M  V30 2088 C 199.722 -1.63841 1.33114 0
M  V30 2089 O 199.07 -2.22928 0.501529 0
M  V30 2090 C 199.28 -0.26327 3.48006 0
M  V30 2091 C 200.628 -0.489354 4.21771 0
M  V30 2092 O 201.652 -0.343226 3.54543 0
M  V30 2093 O 200.511 -0.776169 5.4096 0
M  V30 2094 H 197.605 -0.152536 0.812811 0
M  V30 2095 H 200.151 0.450178 1.6362 0
M  V30 2096 H 198.923 0.713985 3.84731 0
M  V30 2097 H 198.546 -1.00103 3.84792 0
M  V30 2098 N 199.544 -1.57102 0.125237 0
M  V30 2099 C 200.793 -1.94582 -0.531095 0
M  V30 2100 C 201.106 -1.01126 -1.6743 0
M  V30 2101 O 202.312 -1.28097 -2.39381 0
M  V30 2102 C 200.768 -3.45839 -0.996164 0
M  V30 2103 C 200.376 -4.47842 0.118926 0
M  V30 2104 C 202.12 -3.92227 -1.62352 0
M  V30 2105 C 200.027 -5.90284 -0.363192 0
M  V30 2106 H 198.957 -0.726391 -0.20217 0
M  V30 2107 H 201.608 -1.82339 0.206092 0
M  V30 2108 H 199.99 -3.53338 -1.78796 0
M  V30 2109 H 201.164 -4.52018 0.895358 0
M  V30 2110 H 199.479 -4.11243 0.653324 0
M  V30 2111 H 202.076 -4.96069 -1.99548 0
M  V30 2112 H 202.419 -3.32552 -2.50429 0
M  V30 2113 H 202.952 -3.87554 -0.897019 0
M  V30 2114 H 199.691 -6.53728 0.481679 0
M  V30 2115 H 199.211 -5.89515 -1.10597 0
M  V30 2116 H 200.89 -6.41752 -0.822377 0
M  V30 2117 N 201.022 0.148545 -1.56898 0
M  V30 2118 C 202.299 0.890019 -1.74178 0
M  V30 2119 C 202.679 1.99407 -0.692839 0
M  V30 2120 O 202.027 2.26671 0.288505 0
M  V30 2121 C 202.237 1.43389 -3.18183 0
M  V30 2122 C 203.585 1.89791 -3.79822 0
M  V30 2123 O 204.609 1.53134 -3.21603 0
M  V30 2124 O 203.468 2.57387 -4.82093 0
M  V30 2125 H 200.562 0.420496 -0.712118 0
M  V30 2126 H 203.108 0.134591 -1.69165 0
M  V30 2127 H 201.88 0.640383 -3.86024 0
M  V30 2128 H 201.503 2.25287 -3.27615 0
M  V30 2129 N 202.5 1.5196 0.417844 0
M  V30 2130 C 203.41 1.77554 1.53336 0
M  V30 2131 C 204.426 0.660655 1.6097 0
M  V30 2132 O 205.602 0.945099 1.77848 0
M  V30 2133 C 202.667 1.91291 2.89152 0
M  V30 2134 C 201.728 3.15183 2.91475 0
M  V30 2135 C 200.961 3.28256 4.20813 0
M  V30 2136 O 201.184 2.46798 5.14244 0
M  V30 2137 O 200.118 4.21356 4.29817 0
M  V30 2138 H 203.944 2.7222 1.34647 0
M  V30 2139 H 201.529 1.36698 0.602828 0
M  V30 2140 H 203.411 2.02199 3.69721 0
M  V30 2141 H 202.086 0.998129 3.07927 0
M  V30 2142 H 200.993 3.09739 2.09791 0
M  V30 2143 H 202.326 4.06414 2.77648 0
M  V30 2144 N 203.978 -0.674533 1.42435 0
M  V30 2145 C 205.224 -1.43671 1.43131 0
M  V30 2146 C 205.557 -1.94142 0.0476021 0
M  V30 2147 O 204.832 -1.70924 -0.928188 0
M  V30 2148 C 205.115 -2.63355 2.45594 0
M  V30 2149 C 204.968 -2.18514 3.93156 0
M  V30 2150 C 206.287 -3.65571 2.45043 0
M  V30 2151 H 203.406 -0.521077 0.521198 0
M  V30 2152 H 206.048 -0.766551 1.7385 0
M  V30 2153 H 204.198 -3.2053 2.19528 0
M  V30 2154 H 205.87 -1.66504 4.30202 0
M  V30 2155 H 204.113 -1.50086 4.07009 0
M  V30 2156 H 204.784 -3.04484 4.60428 0
M  V30 2157 H 207.26 -3.18113 2.68223 0
M  V30 2158 H 206.136 -4.46893 3.18713 0
M  V30 2159 H 206.397 -4.16716 1.47649 0
M  V30 2160 N 205.456 -1.28612 -0.910864 0
M  V30 2161 C 206.702 -1.16106 -1.66274 0
M  V30 2162 C 207.035 0.289113 -1.92036 0
M  V30 2163 O 206.31 1.21 -1.52281 0
M  V30 2164 C 206.593 -1.96309 -3.01885 0
M  V30 2165 C 206.446 -3.49405 -2.8326 0
M  V30 2166 C 207.765 -1.78076 -4.02463 0
M  V30 2167 H 204.884 -0.423152 -0.603417 0
M  V30 2168 H 207.526 -1.57961 -1.05586 0
M  V30 2169 H 205.676 -1.60742 -3.53687 0
M  V30 2170 H 207.348 -3.94894 -2.38446 0
M  V30 2171 H 205.591 -3.74893 -2.18261 0
M  V30 2172 H 206.262 -4.00784 -3.79574 0
M  V30 2173 H 208.738 -2.0912 -3.59733 0
M  V30 2174 H 207.614 -2.36561 -4.95308 0
M  V30 2175 H 207.875 -0.733008 -4.35981 0
M  V30 2176 N 206.934 1.1197 -1.10907 0
M  V30 2177 C 208.164 1.8713 -0.875553 0
M  V30 2178 C 208.572 1.8016 0.577843 0
M  V30 2179 O 207.915 1.17699 1.41042 0
M  V30 2180 C 207.977 3.37005 -1.2517 0
M  V30 2181 C 207.641 3.67748 -2.71313 0
M  V30 2182 C 208.638 3.65698 -3.69542 0
M  V30 2183 C 206.323 3.96928 -3.07821 0
M  V30 2184 C 208.317 3.92395 -5.023 0
M  V30 2185 C 206.004 4.23284 -4.40765 0
M  V30 2186 C 207.002 4.21005 -5.37814 0
M  V30 2187 O 206.69 4.46704 -6.68364 0
M  V30 2188 H 206.422 0.598786 -0.313737 0
M  V30 2189 H 208.976 1.42568 -1.47863 0
M  V30 2190 H 207.206 3.82146 -0.591741 0
M  V30 2191 H 208.895 3.93519 -0.994877 0
M  V30 2192 H 209.661 3.43211 -3.42682 0
M  V30 2193 H 205.54 3.97841 -2.32902 0
M  V30 2194 H 209.084 3.90531 -5.78041 0
M  V30 2195 H 204.981 4.45246 -4.67361 0
M  V30 2196 H 205.749 4.64299 -6.74069 0
M  V30 2197 N 208.412 0.89855 1.29475 0
M  V30 2198 C 209.689 0.443416 1.90508 0
M  V30 2199 C 210.069 -1.07685 1.81569 0
M  V30 2200 O 209.417 -1.9182 1.24166 0
M  V30 2201 C 209.627 0.956708 3.35631 0
M  V30 2202 C 210.975 0.999728 4.12663 0
M  V30 2203 O 211.999 0.904299 3.4453 0
M  V30 2204 O 210.858 1.14289 5.34416 0
M  V30 2205 H 207.952 0.138025 0.815401 0
M  V30 2206 H 210.498 0.98834 1.37949 0
M  V30 2207 H 209.27 2.00067 3.36287 0
M  V30 2208 H 208.893 0.391728 3.95666 0
M  V30 2209 N 209.89 -1.43072 0.660911 0
M  V30 2210 C 210.8 -2.34585 -0.0264163 0
M  V30 2211 C 211.816 -1.54316 -0.803898 0
M  V30 2212 O 212.992 -1.86939 -0.749391 0
M  V30 2213 C 210.057 -3.32689 -0.975639 0
M  V30 2214 C 209.118 -4.2886 -0.194236 0
M  V30 2215 C 208.351 -5.22278 -1.09825 0
M  V30 2216 O 208.574 -5.20299 -2.33763 0
M  V30 2217 O 207.508 -5.99228 -0.566513 0
M  V30 2218 H 211.334 -2.94869 0.727034 0
M  V30 2219 H 208.919 -1.43342 0.42111 0
M  V30 2220 H 210.801 -3.92995 -1.52094 0
M  V30 2221 H 209.476 -2.74898 -1.70918 0
M  V30 2222 H 208.383 -3.72011 0.394835 0
M  V30 2223 H 209.716 -4.89655 0.499899 0
M  V30 2224 N 211.368 -0.403325 -1.52352 0
M  V30 2225 C 212.645 0.232611 -1.94212 0
M  V30 2226 C 213.025 1.63133 -1.33981 0
M  V30 2227 O 212.373 2.22659 -0.513344 0
M  V30 2228 C 212.583 0.244811 -3.4814 0
M  V30 2229 C 213.931 0.46698 -4.22024 0
M  V30 2230 O 214.955 0.324419 -3.5472 0
M  V30 2231 O 213.814 0.74747 -5.41364 0
M  V30 2232 H 210.908 0.148223 -0.813609 0
M  V30 2233 H 213.454 -0.458848 -1.63379 0
M  V30 2234 H 212.226 -0.734378 -3.84347 0
M  V30 2235 H 211.849 0.980611 -3.85318 0
M  V30 2236 N 212.846 1.57033 -0.133567 0
M  V30 2237 C 214.071 2.00475 0.531477 0
M  V30 2238 C 214.496 1.01291 1.58499 0
M  V30 2239 O 213.854 -0.0133279 1.81295 0
M  V30 2240 C 213.902 3.42729 1.12113 0
M  V30 2241 O 213.006 3.46498 2.23636 0
M  V30 2242 H 212.347 0.650876 0.131362 0
M  V30 2243 H 214.877 2.03344 -0.22634 0
M  V30 2244 H 214.887 3.81246 1.4531 0
M  V30 2245 H 213.562 4.14428 0.349557 0
M  V30 2246 H 212.139 3.19811 1.91769 0
M  V30 2247 N 214.325 -0.140222 1.56975 0
M  V30 2248 C 215.736 -0.699596 1.73097 0
M  V30 2249 C 216.087 -1.8134 0.749022 0
M  V30 2250 O 215.212 -2.16241 -0.0828503 0
M  V30 2251 C 215.807 -1.27582 3.1386 0
M  V30 2252 C 214.366 -1.78169 3.31561 0
M  V30 2253 C 213.513 -0.672855 2.69013 0
M  V30 2254 H 216.464 0.0855115 1.58469 0
M  V30 2255 H 216.485 -2.14561 3.14235 0
M  V30 2256 H 215.997 -0.464955 3.85305 0
M  V30 2257 H 214.098 -2.61801 2.65124 0
M  V30 2258 H 214.211 -1.90574 4.39566 0
M  V30 2259 H 212.575 -1.10118 2.29665 0
M  V30 2260 H 213.358 0.126679 3.43066 0
M  V30 2261 N 215.803 -1.52179 -0.40978 0
M  V30 2262 C 217.033 -1.69807 -1.17682 0
M  V30 2263 C 217.441 -0.406908 -1.84773 0
M  V30 2264 O 216.784 0.626863 -1.72673 0
M  V30 2265 C 216.846 -2.77712 -2.2829 0
M  V30 2266 C 216.51 -4.19481 -1.81341 0
M  V30 2267 C 217.507 -5.03345 -1.30154 0
M  V30 2268 C 215.192 -4.65713 -1.88194 0
M  V30 2269 C 217.186 -6.31511 -0.864416 0
M  V30 2270 C 214.873 -5.93869 -1.44093 0
M  V30 2271 C 215.871 -6.76597 -0.933023 0
M  V30 2272 O 215.559 -8.02354 -0.49838 0
M  V30 2273 H 215.291 -0.572372 -0.359675 0
M  V30 2274 H 217.845 -1.99511 -0.488311 0
M  V30 2275 H 216.075 -2.43383 -3.00502 0
M  V30 2276 H 217.764 -2.83946 -2.90051 0
M  V30 2277 H 218.53 -4.68819 -1.24232 0
M  V30 2278 H 214.409 -4.01424 -2.26671 0
M  V30 2279 H 217.953 -6.96033 -0.467286 0
M  V30 2280 H 213.85 -6.27903 -1.49694 0
M  V30 2281 H 214.618 -8.16135 -0.621747 0
M  V30 2282 N 217.281 0.66697 -1.42791 0
M  V30 2283 C 218.213 1.7925 -1.42836 0
M  V30 2284 C 219.226 1.59496 -0.326333 0
M  V30 2285 O 220.415 1.6847 -0.589916 0
M  V30 2286 C 217.515 3.16476 -1.21229 0
M  V30 2287 C 216.688 3.63011 -2.44013 0
M  V30 2288 C 215.747 4.78993 -2.17834 0
M  V30 2289 O 214.773 4.89137 -2.91091 0
M  V30 2290 N 215.975 5.68248 -1.18635 0
M  V30 2291 H 218.74 1.79695 -2.39854 0
M  V30 2292 H 216.301 0.850338 -1.37771 0
M  V30 2293 H 218.293 3.91734 -1.01621 0
M  V30 2294 H 216.863 3.10884 -0.32706 0
M  V30 2295 H 216.083 2.78346 -2.79137 0
M  V30 2296 H 217.371 3.90845 -3.25757 0
M  V30 2297 H 216.769 5.62712 -0.580615 0
M  V30 2298 H 215.326 6.43285 -1.05013 0
M  V30 2299 N 218.759 1.29093 0.90403 0
M  V30 2300 C 219.707 1.13727 2.02901 0
M  V30 2301 C 220.701 0.0539853 1.69314 0
M  V30 2302 O 221.907 0.213469 1.7873 0
M  V30 2303 H 218.282 0.35117 0.664969 0
M  V30 2304 H 220.253 2.08982 2.13001 0
M  V30 2305 C 219.002 0.826066 3.37745 0
M  V30 2306 H 218.325 1.65164 3.64089 0
M  V30 2307 H 219.765 0.758559 4.17159 0
M  V30 2308 C 218.224 -0.470541 3.33598 0
M  V30 2309 O 218.754 -1.49792 3.72727 0
M  V30 2310 N 216.96 -0.474812 2.86695 0
M  V30 2311 H 216.507 0.361692 2.55048 0
M  V30 2312 H 216.465 -1.34236 2.84303 0
M  V30 2313 N 220.237 -1.11381 1.11499 0
M  V30 2314 C 221.486 -1.82494 0.858993 0
M  V30 2315 C 221.799 -1.85605 -0.617278 0
M  V30 2316 O 223.005 -2.52824 -0.989552 0
M  V30 2317 C 221.461 -3.27745 1.48699 0
M  V30 2318 C 221.069 -3.32961 2.99735 0
M  V30 2319 C 222.813 -4.03754 1.31085 0
M  V30 2320 C 220.72 -4.72612 3.55516 0
M  V30 2321 H 219.65 -0.683802 0.317696 0
M  V30 2322 H 222.301 -1.25331 1.34031 0
M  V30 2323 H 220.683 -3.84844 0.933339 0
M  V30 2324 H 221.857 -2.85741 3.61509 0
M  V30 2325 H 220.172 -2.70433 3.16631 0
M  V30 2326 H 222.769 -5.06891 1.70192 0
M  V30 2327 H 223.112 -4.15527 0.253496 0
M  V30 2328 H 223.645 -3.53043 1.83318 0
M  V30 2329 H 220.384 -4.66036 4.60967 0
M  V30 2330 H 219.904 -5.2024 2.98513 0
M  V30 2331 H 221.583 -5.4157 3.53992 0
M  V30 2332 N 221.715 -0.905404 -1.28997 0
M  V30 2333 C 222.662 -0.385892 -2.27551 0
M  V30 2334 C 223.632 0.535113 -1.57244 0
M  V30 2335 O 224.817 0.459119 -1.85194 0
M  V30 2336 C 221.957 0.375461 -3.43051 0
M  V30 2337 C 221.07 -0.577092 -4.28128 0
M  V30 2338 C 220.205 0.201879 -5.30816 0
M  V30 2339 C 219.244 -0.744829 -6.07551 0
M  V30 2340 N 218.381 9.42587e-05 -7.021 0
M  V30 2341 H 223.221 -1.23139 -2.71368 0
M  V30 2342 H 220.758 -0.618542 -1.33463 0
M  V30 2343 H 222.716 0.832992 -4.088 0
M  V30 2344 H 221.346 1.18537 -3.00248 0
M  V30 2345 H 220.398 -1.15315 -3.62501 0
M  V30 2346 H 221.71 -1.30152 -4.8152 0
M  V30 2347 H 220.864 0.720351 -6.02408 0
M  V30 2348 H 219.603 0.959413 -4.7817 0
M  V30 2349 H 218.608 -1.27475 -5.34818 0
M  V30 2350 H 219.833 -1.50178 -6.62286 0
M  V30 2351 H 217.779 0.739791 -6.51815 0
M  V30 2352 H 217.696 -0.664321 -7.53076 0
M  V30 2353 H 218.964 0.498644 -7.77903 0
M  V30 2354 N 223.193 1.4272 -0.668489 0
M  V30 2355 C 224.442 2.00846 -0.185389 0
M  V30 2356 C 224.755 1.53442 1.21305 0
M  V30 2357 O 225.961 2.03944 1.79218 0
M  V30 2358 C 224.417 3.58805 -0.280591 0
M  V30 2359 C 224.025 4.15198 -1.68268 0
M  V30 2360 C 225.769 4.24255 0.14412 0
M  V30 2361 C 223.676 5.655 -1.73099 0
M  V30 2362 H 222.606 0.751145 -0.0655475 0
M  V30 2363 H 225.257 1.63516 -0.832752 0
M  V30 2364 H 223.639 3.93608 0.434553 0
M  V30 2365 H 224.813 3.91866 -2.42441 0
M  V30 2366 H 223.128 3.62176 -2.05469 0
M  V30 2367 H 225.725 5.34547 0.128086 0
M  V30 2368 H 226.068 3.99277 1.17827 0
M  V30 2369 H 226.601 3.94389 -0.519798 0
M  V30 2370 H 223.34 5.95268 -2.74475 0
M  V30 2371 H 222.86 5.90842 -1.03274 0
M  V30 2372 H 224.539 6.29808 -1.48158 0
M  V30 2373 N 224.671 0.411399 1.52136 0
M  V30 2374 C 225.601 -0.404015 2.29978 0
M  V30 2375 C 226.582 -1.04412 1.34284 0
M  V30 2376 O 227.767 -1.0527 1.63192 0
M  V30 2377 C 224.897 -1.5197 3.12286 0
M  V30 2378 C 223.851 -1.00448 4.16046 0
M  V30 2379 C 223.177 -2.21393 4.86712 0
M  V30 2380 C 224.477 -0.0569336 5.22269 0
M  V30 2381 H 226.171 0.245529 2.98392 0
M  V30 2382 H 223.717 0.119525 1.43503 0
M  V30 2383 H 225.67 -2.09715 3.6551 0
M  V30 2384 H 224.394 -2.19716 2.41646 0
M  V30 2385 H 223.053 -0.449421 3.63835 0
M  V30 2386 H 222.701 -2.87699 4.12599 0
M  V30 2387 H 222.401 -1.87571 5.56858 0
M  V30 2388 H 223.925 -2.7974 5.4275 0
M  V30 2389 H 225.339 -0.54325 5.7072 0
M  V30 2390 H 223.736 0.192594 5.99791 0
M  V30 2391 H 224.806 0.887663 4.76706 0
M  V30 2392 N 226.149 -1.5696 0.141893 0
M  V30 2393 C 227.099 -2.13074 -0.811383 0
M  V30 2394 C 228.083 -1.05726 -1.21288 0
M  V30 2395 O 229.275 -1.31914 -1.18015 0
M  V30 2396 C 226.404 -2.75186 -2.0525 0
M  V30 2397 C 225.49 -3.8965 -1.67432 0
M  V30 2398 N 225.881 -4.95733 -1.0041 0
M  V30 2399 C 224.179 -4.00262 -1.96739 0
M  V30 2400 C 224.88 -5.75858 -0.822345 0
M  V30 2401 N 223.856 -5.26452 -1.3546 0
M  V30 2402 H 227.658 -2.92465 -0.290031 0
M  V30 2403 H 225.172 -1.6229 -0.0598218 0
M  V30 2404 H 227.169 -3.13745 -2.74535 0
M  V30 2405 H 225.829 -1.97266 -2.57907 0
M  V30 2406 H 226.84 -5.13607 -0.665441 0
M  V30 2407 H 223.517 -3.33412 -2.51282 0
M  V30 2408 H 224.907 -6.71254 -0.294496 0
M  V30 2409 N 227.627 0.131896 -1.57047 0
M  V30 2410 C 228.852 0.860418 -1.8871 0
M  V30 2411 C 229.277 1.73251 -0.73251 0
M  V30 2412 O 228.635 1.785 0.317429 0
M  V30 2413 C 228.683 1.68047 -3.19049 0
M  V30 2414 O 227.787 2.7862 -3.04047 0
M  V30 2415 H 227.128 0.238743 -0.619595 0
M  V30 2416 H 229.658 0.118169 -2.04258 0
M  V30 2417 H 229.668 2.07238 -3.51449 0
M  V30 2418 H 228.343 1.04018 -4.02682 0
M  V30 2419 H 226.92 2.42726 -2.83088 0
M  V30 2420 N 229.106 1.52395 0.401703 0
M  V30 2421 C 230.053 1.76268 1.48991 0
M  V30 2422 C 231.023 0.605386 1.54675 0
M  V30 2423 O 232.208 0.843742 1.7113 0
M  V30 2424 C 229.348 1.92592 2.86361 0
M  V30 2425 C 228.461 3.20259 2.89928 0
M  V30 2426 C 227.596 3.26972 4.18644 0
M  V30 2427 C 226.635 4.48812 4.16214 0
M  V30 2428 N 225.772 4.52877 5.36514 0
M  V30 2429 H 230.612 2.6914 1.27935 0
M  V30 2430 H 228.149 1.33355 0.620871 0
M  V30 2431 H 230.107 2.0004 3.66115 0
M  V30 2432 H 228.737 1.03093 3.05895 0
M  V30 2433 H 227.789 3.21945 2.02621 0
M  V30 2434 H 229.101 4.10056 2.83999 0
M  V30 2435 H 228.255 3.33533 5.06794 0
M  V30 2436 H 226.994 2.35126 4.27278 0
M  V30 2437 H 225.999 4.4239 3.26453 0
M  V30 2438 H 227.224 5.41961 4.09213 0
M  V30 2439 H 225.17 3.63917 5.45802 0
M  V30 2440 H 225.087 5.36529 5.32609 0
M  V30 2441 H 226.355 4.63676 6.26597 0
M  V30 2442 N 230.584 -0.659388 1.43143 0
M  V30 2443 C 231.516 -1.7849 1.43784 0
M  V30 2444 C 232.529 -1.5932 0.334787 0
M  V30 2445 O 233.718 -1.68155 0.598842 0
M  V30 2446 C 230.818 -3.15828 1.22906 0
M  V30 2447 C 229.991 -3.61711 2.45934 0
M  V30 2448 C 229.05 -4.77831 2.20371 0
M  V30 2449 O 228.076 -4.87586 2.93681 0
M  V30 2450 N 229.278 -5.67611 1.21647 0
M  V30 2451 H 232.043 -1.7842 2.40803 0
M  V30 2452 H 229.604 -0.84302 1.3822 0
M  V30 2453 H 231.596 -3.91189 1.03697 0
M  V30 2454 H 230.166 -3.10707 0.343542 0
M  V30 2455 H 229.386 -2.76861 2.80609 0
M  V30 2456 H 230.674 -3.89112 3.27825 0
M  V30 2457 H 230.072 -5.62397 0.610449 0
M  V30 2458 H 228.629 -6.42719 1.08423 0
M  V30 2459 N 232.062 -1.29571 -0.897171 0
M  V30 2460 C 233.309 -1.17689 -1.6479 0
M  V30 2461 C 233.637 0.27107 -1.92602 0
M  V30 2462 O 232.892 1.21193 -1.53658 0
M  V30 2463 C 233.191 -1.9382 -3.00281 0
M  V30 2464 C 232.857 -3.43522 -2.92068 0
M  V30 2465 C 231.519 -3.84348 -2.89535 0
M  V30 2466 C 233.871 -4.38906 -2.81089 0
M  V30 2467 C 231.199 -5.18869 -2.73846 0
M  V30 2468 C 233.551 -5.73521 -2.66939 0
M  V30 2469 C 232.215 -6.13601 -2.62774 0
M  V30 2470 H 231.485 -0.430654 -0.603008 0
M  V30 2471 H 234.132 -1.60536 -1.04404 0
M  V30 2472 H 232.437 -1.4357 -3.64547 0
M  V30 2473 H 234.134 -1.82028 -3.57305 0
M  V30 2474 H 230.724 -3.11072 -2.94842 0
M  V30 2475 H 234.908 -4.08315 -2.82121 0
M  V30 2476 H 230.164 -5.4903 -2.69027 0
M  V30 2477 H 234.338 -6.47078 -2.57416 0
M  V30 2478 H 231.965 -7.17786 -2.50375 0
M  V30 2479 N 233.54 1.10788 -1.12088 0
M  V30 2480 C 234.788 1.8231 -0.872205 0
M  V30 2481 C 235.109 1.85419 0.603709 0
M  V30 2482 O 234.379 1.32963 1.43867 0
M  V30 2483 H 232.959 0.675137 -0.319686 0
M  V30 2484 H 235.621 1.34068 -1.41463 0
M  V30 2485 H 234.717 2.85955 -1.25045 0
M  V30 2486 N 235.018 0.912232 1.28515 0
M  V30 2487 C 235.966 0.389597 2.29314 0
M  V30 2488 C 236.96 -0.517915 1.61289 0
M  V30 2489 O 238.166 -0.399328 1.75515 0
M  V30 2490 H 234.541 0.107386 0.744293 0
M  V30 2491 H 236.512 1.25286 2.70825 0
M  V30 2492 C 235.261 -0.356496 3.45868 0
M  V30 2493 H 234.584 0.332608 3.98414 0
M  V30 2494 H 236.024 -0.686851 4.184 0
M  V30 2495 C 234.483 -1.56383 2.98406 0
M  V30 2496 O 235.013 -2.66294 3.00749 0
M  V30 2497 N 233.219 -1.41029 2.54085 0
M  V30 2498 H 232.766 -0.516089 2.52377 0
M  V30 2499 H 232.724 -2.21939 2.22689 0
M  V30 2500 N 236.496 -1.42363 0.676048 0
M  V30 2501 C 237.745 -2.00745 0.196037 0
M  V30 2502 C 238.058 -1.54083 -1.20489 0
M  V30 2503 O 239.264 -2.04891 -1.78134 0
M  V30 2504 C 237.72 -3.58651 0.299616 0
M  V30 2505 C 237.328 -4.143 1.70468 0
M  V30 2506 C 239.072 -4.24326 -0.121619 0
M  V30 2507 C 236.979 -5.64574 1.76096 0
M  V30 2508 H 235.909 -0.750787 0.0695301 0
M  V30 2509 H 238.56 -1.63072 0.841412 0
M  V30 2510 H 236.942 -3.93833 -0.413673 0
M  V30 2511 H 238.116 -3.90575 2.44515 0
M  V30 2512 H 236.431 -3.61081 2.07387 0
M  V30 2513 H 239.028 -5.34607 -0.0997362 0
M  V30 2514 H 239.371 -3.99897 -1.15708 0
M  V30 2515 H 239.904 -3.94108 0.540706 0
M  V30 2516 H 236.643 -5.93804 2.77628 0
M  V30 2517 H 236.163 -5.90286 1.06406 0
M  V30 2518 H 237.842 -6.29013 1.51496 0
M  V30 2519 N 237.974 -0.419461 -1.51915 0
M  V30 2520 C 238.904 0.391813 -2.30189 0
M  V30 2521 C 239.885 1.03699 -1.34836 0
M  V30 2522 O 241.07 1.04403 -1.63748 0
M  V30 2523 C 238.2 1.50312 -3.13087 0
M  V30 2524 C 237.154 0.9824 -4.16573 0
M  V30 2525 C 236.48 2.18809 -4.8788 0
M  V30 2526 C 237.78 0.0292356 -5.22292 0
M  V30 2527 H 239.474 -0.26135 -2.98257 0
M  V30 2528 H 237.02 -0.127134 -1.43438 0
M  V30 2529 H 238.973 2.07773 -3.66617 0
M  V30 2530 H 237.697 2.18431 -2.42807 0
M  V30 2531 H 236.356 0.430119 -3.64068 0
M  V30 2532 H 236.004 2.85507 -4.14119 0
M  V30 2533 H 235.704 1.84615 -5.57845 0
M  V30 2534 H 237.228 2.76858 -5.44226 0
M  V30 2535 H 238.642 0.512976 -5.71 0
M  V30 2536 H 237.039 -0.2244 -5.9968 0
M  V30 2537 H 238.109 -0.912931 -4.76228 0
M  V30 2538 N 239.452 1.56882 -0.150215 0
M  V30 2539 C 240.701 1.95403 0.500071 0
M  V30 2540 C 241.014 1.03777 1.658 0
M  V30 2541 O 242.22 1.31889 2.37313 0
M  V30 2542 C 240.676 3.4738 0.941018 0
M  V30 2543 C 240.284 4.47596 -0.190158 0
M  V30 2544 C 242.028 3.9476 1.56091 0
M  V30 2545 C 239.935 5.90787 0.269237 0
M  V30 2546 H 238.865 0.729515 0.190588 0
M  V30 2547 H 241.516 1.81988 -0.235074 0
M  V30 2548 H 239.898 3.56138 1.73152 0
M  V30 2549 H 241.072 4.50536 -0.967157 0
M  V30 2550 H 239.387 4.10151 -0.718666 0
M  V30 2551 H 241.984 4.99181 1.9163 0
M  V30 2552 H 242.327 3.36494 2.45107 0
M  V30 2553 H 242.86 3.88932 0.835249 0
M  V30 2554 H 239.599 6.52879 -0.585621 0
M  V30 2555 H 239.119 5.912 1.01204 0
M  V30 2556 H 240.798 6.42979 0.720176 0
M  V30 2557 N 240.93 -0.123565 1.57115 0
M  V30 2558 C 241.86 -1.15309 2.03042 0
M  V30 2559 C 242.841 -1.43454 0.914061 0
M  V30 2560 O 244.026 -1.53973 1.18347 0
M  V30 2561 C 241.156 -2.48043 2.43089 0
M  V30 2562 C 240.11 -2.3437 3.58127 0
M  V30 2563 C 239.436 -3.72026 3.84059 0
M  V30 2564 C 240.736 -1.80804 4.90007 0
M  V30 2565 H 242.43 -0.771102 2.893 0
M  V30 2566 H 239.976 -0.369479 1.39179 0
M  V30 2567 H 241.929 -3.20311 2.73823 0
M  V30 2568 H 240.653 -2.88122 1.53796 0
M  V30 2569 H 239.312 -1.64551 3.27595 0
M  V30 2570 H 238.96 -4.09582 2.91979 0
M  V30 2571 H 238.66 -3.63732 4.6149 0
M  V30 2572 H 240.184 -4.45806 4.1724 0
M  V30 2573 H 241.598 -2.42886 5.19307 0
M  V30 2574 H 239.995 -1.83343 5.71407 0
M  V30 2575 H 241.065 -0.76528 4.78823 0
M  V30 2576 N 242.408 -1.52605 -0.393616 0
M  V30 2577 C 243.633 -1.71592 -1.16495 0
M  V30 2578 C 244.058 -0.43133 -1.83088 0
M  V30 2579 O 243.416 0.612523 -1.7064 0
M  V30 2580 C 243.464 -2.86318 -2.19213 0
M  V30 2581 O 242.568 -2.52969 -3.257 0
M  V30 2582 H 241.909 -0.570734 -0.33935 0
M  V30 2583 H 244.439 -1.99377 -0.459324 0
M  V30 2584 H 244.449 -3.1168 -2.63286 0
M  V30 2585 H 243.124 -3.79511 -1.7013 0
M  V30 2586 H 241.701 -2.38332 -2.86797 0
M  V30 2587 N 243.887 0.651787 -1.4349 0
M  V30 2588 C 245.135 1.40888 -1.44897 0
M  V30 2589 C 245.456 1.94856 -0.0749086 0
M  V30 2590 O 244.726 1.74518 0.889956 0
M  V30 2591 H 243.306 0.522887 -0.533478 0
M  V30 2592 H 245.968 0.768609 -1.79104 0
M  V30 2593 H 245.064 2.25052 -2.16236 0
M  V30 2594 N 245.365 1.30045 0.890287 0
M  V30 2595 C 246.642 1.09227 1.62262 0
M  V30 2596 C 247.022 -0.360305 2.08002 0
M  V30 2597 O 246.37 -1.35084 1.84295 0
M  V30 2598 C 246.58 2.08835 2.79623 0
M  V30 2599 C 247.928 2.40266 3.50082 0
M  V30 2600 O 248.952 2.07104 2.89804 0
M  V30 2601 O 247.811 2.96967 4.58773 0
M  V30 2602 H 244.905 0.419132 0.712922 0
M  V30 2603 H 247.451 1.41451 0.937529 0
M  V30 2604 H 246.223 3.06633 2.43089 0
M  V30 2605 H 245.846 1.77397 3.55832 0
M  V30 2606 N 246.843 -1.10192 1.12674 0
M  V30 2607 C 248.089 -1.82475 0.884915 0
M  V30 2608 C 248.422 -1.85093 -0.58773 0
M  V30 2609 O 247.697 -1.3134 -1.43457 0
M  V30 2610 C 247.98 -3.29018 1.46353 0
M  V30 2611 C 247.833 -3.34718 3.00473 0
M  V30 2612 C 249.152 -4.25473 1.12519 0
M  V30 2613 H 246.271 -0.662492 0.322915 0
M  V30 2614 H 248.913 -1.2913 1.39375 0
M  V30 2615 H 247.063 -3.74576 1.03077 0
M  V30 2616 H 248.735 -2.97622 3.52447 0
M  V30 2617 H 246.978 -2.74541 3.35872 0
M  V30 2618 H 247.649 -4.37918 3.36053 0
M  V30 2619 H 250.125 -3.88161 1.499 0
M  V30 2620 H 249.001 -5.26365 1.55663 0
M  V30 2621 H 249.262 -4.42084 0.0377407 0
M  V30 2622 N 248.321 -0.919034 -1.28029 0
M  V30 2623 C 249.269 -0.401753 -2.29104 0
M  V30 2624 C 250.263 0.509354 -1.61561 0
M  V30 2625 O 251.469 0.390014 -1.75724 0
M  V30 2626 H 247.844 -0.111331 -0.743713 0
M  V30 2627 H 249.815 -1.2672 -2.70156 0
M  V30 2628 C 248.564 0.338148 -3.46052 0
M  V30 2629 H 247.887 -0.353732 -3.98232 0
M  V30 2630 H 249.327 0.664653 -4.18758 0
M  V30 2631 C 247.786 1.54798 -2.99231 0
M  V30 2632 O 248.316 2.64696 -3.02157 0
M  V30 2633 N 246.522 1.3968 -2.54829 0
M  V30 2634 H 246.069 0.502698 -2.52647 0
M  V30 2635 H 246.027 2.20755 -2.23863 0
M  V30 2636 N 249.799 1.42003 -0.683588 0
M  V30 2637 C 250.729 2.33487 -0.024866 0
M  V30 2638 C 251.71 1.51163 0.779975 0
M  V30 2639 O 252.895 1.79739 0.735362 0
M  V30 2640 C 250.025 3.3487 0.920836 0
M  V30 2641 C 248.979 4.27414 0.223958 0
M  V30 2642 C 248.305 5.19074 1.2832 0
M  V30 2643 C 249.605 5.14445 -0.90242 0
M  V30 2644 H 251.299 2.88819 -0.788921 0
M  V30 2645 H 248.845 1.38873 -0.38083 0
M  V30 2646 H 250.798 3.97787 1.39081 0
M  V30 2647 H 249.522 2.77861 1.71642 0
M  V30 2648 H 248.181 3.65904 -0.225864 0
M  V30 2649 H 247.829 4.58387 2.071 0
M  V30 2650 H 247.529 5.81822 0.821995 0
M  V30 2651 H 249.053 5.84867 1.75392 0
M  V30 2652 H 250.467 5.70998 -0.513272 0
M  V30 2653 H 248.864 5.86072 -1.28997 0
M  V30 2654 H 249.934 4.52322 -1.74737 0
M  V30 2655 N 251.277 0.427512 1.51691 0
M  V30 2656 C 252.24 -0.377132 2.26076 0
M  V30 2657 C 253.24 -0.958089 1.29141 0
M  V30 2658 O 254.43 -0.83408 1.52934 0
M  V30 2659 C 251.562 -1.53262 3.04506 0
M  V30 2660 H 252.755 0.27464 2.9864 0
M  V30 2661 H 250.308 0.180445 1.55255 0
M  V30 2662 H 251.043 -2.22072 2.36335 0
M  V30 2663 H 250.828 -1.12232 3.75694 0
M  V30 2664 H 252.318 -2.10135 3.60878 0
M  V30 2665 N 252.755 -1.56801 0.158532 0
M  V30 2666 C 253.665 -2.20916 -0.789518 0
M  V30 2667 C 254.681 -1.1969 -1.26294 0
M  V30 2668 O 255.857 -1.52308 -1.31773 0
M  V30 2669 C 252.922 -2.82727 -2.00665 0
M  V30 2670 C 251.983 -3.99114 -1.58134 0
M  V30 2671 C 251.216 -4.57968 -2.74045 0
M  V30 2672 O 251.439 -4.15704 -3.90572 0
M  V30 2673 O 250.373 -5.48047 -2.48855 0
M  V30 2674 H 254.199 -3.02464 -0.273681 0
M  V30 2675 H 251.784 -1.4924 -0.0690548 0
M  V30 2676 H 253.666 -3.21968 -2.71872 0
M  V30 2677 H 252.341 -2.04184 -2.51179 0
M  V30 2678 H 251.248 -3.64567 -0.839155 0
M  V30 2679 H 252.581 -4.79212 -1.12325 0
M  V30 2680 N 254.233 0.115231 -1.57178 0
M  V30 2681 C 255.458 0.840354 -1.89612 0
M  V30 2682 C 255.883 1.72464 -0.750845 0
M  V30 2683 O 255.241 1.78826 0.298478 0
M  V30 2684 C 255.289 1.64654 -3.20814 0
M  V30 2685 O 254.393 2.7538 -3.06985 0
M  V30 2686 H 253.734 0.232158 -0.622092 0
M  V30 2687 H 256.264 0.0964977 -2.04372 0
M  V30 2688 H 256.274 2.03499 -3.53627 0
M  V30 2689 H 254.949 0.997416 -4.03763 0
M  V30 2690 H 253.526 2.3971 -2.85646 0
M  V30 2691 N 255.711 1.52812 0.385517 0
M  V30 2692 C 256.988 1.5861 1.14465 0
M  V30 2693 C 257.368 0.381402 2.07626 0
M  V30 2694 O 256.716 -0.629999 2.19643 0
M  V30 2695 C 256.926 2.92664 1.90128 0
M  V30 2696 C 258.274 3.46526 2.45367 0
M  V30 2697 O 259.298 2.94562 2.0028 0
M  V30 2698 O 258.157 4.37323 3.27736 0
M  V30 2699 H 255.251 0.639855 0.523941 0
M  V30 2700 H 257.797 1.65149 0.390389 0
M  V30 2701 H 256.569 3.71788 1.22022 0
M  V30 2702 H 256.192 2.89527 2.72507 0
M  V30 2703 N 257.189 -0.644168 1.43834 0
M  V30 2704 C 258.119 -1.76814 1.52509 0
M  V30 2705 C 259.1 -1.65823 0.379052 0
M  V30 2706 O 260.285 -1.84781 0.597466 0
M  V30 2707 C 257.415 -3.15288 1.4564 0
M  V30 2708 C 256.369 -3.41053 2.58586 0
M  V30 2709 C 255.695 -4.79421 2.36769 0
M  V30 2710 C 256.995 -3.34902 4.00797 0
M  V30 2711 H 258.689 -1.69812 2.46586 0
M  V30 2712 H 256.235 -0.815542 1.1868 0
M  V30 2713 H 258.188 -3.93681 1.50311 0
M  V30 2714 H 256.912 -3.23043 0.480725 0
M  V30 2715 H 255.571 -2.65035 2.53282 0
M  V30 2716 H 255.219 -4.83863 1.37424 0
M  V30 2717 H 254.919 -4.9762 3.12487 0
M  V30 2718 H 256.443 -5.6006 2.43238 0
M  V30 2719 H 257.857 -4.03218 4.07539 0
M  V30 2720 H 256.254 -3.64637 4.76613 0
M  V30 2721 H 257.324 -2.32928 4.25291 0
M  V30 2722 N 258.668 -1.30515 -0.883378 0
M  V30 2723 C 259.631 -1.1701 -1.97082 0
M  V30 2724 C 260.631 -0.10089 -1.60483 0
M  V30 2725 O 261.821 -0.349127 -1.70666 0
M  V30 2726 C 258.953 -0.793045 -3.31547 0
M  V30 2727 H 260.146 -2.13622 -2.10489 0
M  V30 2728 H 257.699 -1.13935 -1.06998 0
M  V30 2729 H 258.434 0.172499 -3.23841 0
M  V30 2730 H 258.219 -1.56576 -3.5948 0
M  V30 2731 H 259.709 -0.722073 -4.1131 0
M  V30 2732 N 260.146 1.09593 -1.13257 0
M  V30 2733 C 261.376 1.85231 -0.915049 0
M  V30 2734 C 261.784 1.81345 0.539498 0
M  V30 2735 O 261.127 1.20664 1.38513 0
M  V30 2736 C 261.189 3.34275 -1.3229 0
M  V30 2737 C 260.853 3.6191 -2.79052 0
M  V30 2738 C 261.85 3.57777 -3.77216 0
M  V30 2739 C 259.535 3.90309 -3.16171 0
M  V30 2740 C 261.529 3.81652 -5.1051 0
M  V30 2741 C 259.216 4.13839 -4.49644 0
M  V30 2742 C 260.214 4.09502 -5.46623 0
M  V30 2743 O 259.902 4.32426 -6.77689 0
M  V30 2744 H 259.634 0.591997 -0.326367 0
M  V30 2745 H 262.188 1.394 -1.50854 0
M  V30 2746 H 260.418 3.80805 -0.672667 0
M  V30 2747 H 262.107 3.9132 -1.07812 0
M  V30 2748 H 262.873 3.35865 -3.49885 0
M  V30 2749 H 258.752 3.92811 -2.41289 0
M  V30 2750 H 262.296 3.78182 -5.86195 0
M  V30 2751 H 258.193 4.35232 -4.767 0
M  V30 2752 H 258.961 4.49896 -6.83766 0
M  V30 2753 N 261.624 0.925811 1.2754 0
M  V30 2754 C 262.852 0.581509 1.9856 0
M  V30 2755 C 263.267 -0.840041 1.69082 0
M  V30 2756 O 262.624 -1.55805 0.950312 0
M  V30 2757 C 262.675 0.795589 3.52637 0
M  V30 2758 O 262.396 2.16121 3.81082 0
M  V30 2759 C 263.897 0.459744 4.4091 0
M  V30 2760 H 261.117 0.220538 0.633722 0
M  V30 2761 H 263.661 1.24232 1.6244 0
M  V30 2762 H 261.816 0.18161 3.86974 0
M  V30 2763 H 262.23 2.2098 4.75676 0
M  V30 2764 H 263.704 0.660244 5.48037 0
M  V30 2765 H 264.181 -0.604625 4.35018 0
M  V30 2766 H 264.787 1.05178 4.12089 0
M  V30 2767 N 263.102 -1.41638 0.69111 0
M  V30 2768 C 264.518 -1.55435 0.362224 0
M  V30 2769 C 264.718 -1.66754 -1.13117 0
M  V30 2770 O 263.774 -1.64348 -1.91692 0
M  V30 2771 C 265.087 -2.79588 1.10684 0
M  V30 2772 C 266.635 -2.9338 1.09075 0
M  V30 2773 C 267.11 -4.20414 1.81703 0
M  V30 2774 N 268.601 -4.27362 1.7865 0
M  V30 2775 C 269.336 -5.24507 2.31689 0
M  V30 2776 N 268.832 -6.27708 2.93179 0
M  V30 2777 N 270.625 -5.16416 2.2197 0
M  V30 2778 H 262.776 -1.32536 1.65976 0
M  V30 2779 H 265.039 -0.639115 0.700168 0
M  V30 2780 H 264.745 -2.77419 2.16175 0
M  V30 2781 H 264.619 -3.70973 0.682545 0
M  V30 2782 H 267.006 -2.95067 0.0441238 0
M  V30 2783 H 267.087 -2.0318 1.55407 0
M  V30 2784 H 266.731 -4.19488 2.86343 0
M  V30 2785 H 266.661 -5.09578 1.32808 0
M  V30 2786 H 269.152 -3.53415 1.33815 0
M  V30 2787 H 269.465 -6.98217 3.31229 0
M  V30 2788 H 267.81 -6.28223 2.97255 0
M  V30 2789 H 271.001 -4.34716 1.73607 0
M  V30 2790 H 271.174 -5.91958 2.63609 0
M  V30 2791 N 264.58 -0.43555 -1.51462 0
M  V30 2792 C 265.543 0.365137 -2.26273 0
M  V30 2793 C 266.543 0.951227 -1.29647 0
M  V30 2794 O 267.733 0.825958 -1.53374 0
M  V30 2795 C 264.865 1.51645 -3.05314 0
M  V30 2796 H 266.058 -0.290474 -2.9849 0
M  V30 2797 H 263.611 -0.188676 -1.55157 0
M  V30 2798 H 264.346 2.20816 -2.3751 0
M  V30 2799 H 264.131 1.10238 -3.76284 0
M  V30 2800 H 265.621 2.08218 -3.61987 0
M  V30 2801 N 266.058 1.56714 -0.166846 0
M  V30 2802 C 267.307 1.95922 0.479318 0
M  V30 2803 C 267.62 1.05529 1.6469 0
M  V30 2804 O 268.826 1.34399 2.35901 0
M  V30 2805 C 267.282 3.48359 0.90412 0
M  V30 2806 C 266.89 4.47369 -0.237621 0
M  V30 2807 C 268.634 3.96394 1.51896 0
M  V30 2808 C 266.541 5.91039 0.206561 0
M  V30 2809 H 265.471 0.731495 0.18284 0
M  V30 2810 H 268.122 1.81728 -0.254363 0
M  V30 2811 H 266.504 3.57955 1.69365 0
M  V30 2812 H 267.678 4.49485 -1.01489 0
M  V30 2813 H 265.993 4.09366 -0.762128 0
M  V30 2814 H 268.59 5.01186 1.86325 0
M  V30 2815 H 268.933 3.39075 2.41524 0
M  V30 2816 H 269.466 3.89796 0.79395 0
M  V30 2817 H 266.205 6.52221 -0.654834 0
M  V30 2818 H 265.725 5.9224 0.949282 0
M  V30 2819 H 267.404 6.43707 0.651939 0
M  V30 2820 N 267.536 -0.106894 1.57237 0
M  V30 2821 C 268.469 -1.16125 1.96444 0
M  V30 2822 C 269.447 -1.3947 0.835871 0
M  V30 2823 O 270.631 -1.53425 1.09513 0
M  V30 2824 C 267.758 -2.51277 2.27107 0
M  V30 2825 C 266.804 -2.44285 3.4961 0
M  V30 2826 S 267.637 -1.87077 5.01759 0
M  V30 2827 C 268.793 -3.23877 5.35588 0
M  V30 2828 H 269.026 -0.826971 2.85567 0
M  V30 2829 H 266.559 -0.314124 1.51171 0
M  V30 2830 H 268.517 -3.29035 2.45451 0
M  V30 2831 H 267.178 -2.81879 1.38576 0
M  V30 2832 H 266.371 -3.4387 3.68469 0
M  V30 2833 H 265.973 -1.74652 3.30715 0
M  V30 2834 H 268.265 -4.20122 5.31511 0
M  V30 2835 H 269.208 -3.09833 6.36717 0
M  V30 2836 H 269.616 -3.22864 4.63054 0
M  V30 2837 N 269.014 -1.53014 -0.377408 0
M  V30 2838 C 270.262 -1.6829 -1.11906 0
M  V30 2839 C 270.583 -0.431206 -1.90173 0
M  V30 2840 O 269.853 0.554595 -1.87886 0
M  V30 2841 H 268.433 -0.620371 -0.416112 0
M  V30 2842 H 271.095 -1.90167 -0.426893 0
M  V30 2843 H 270.191 -2.53862 -1.8155 0
M  V30 2844 N 270.492 0.636531 -1.44174 0
M  V30 2845 C 271.717 1.42847 -1.50364 0
M  V30 2846 C 272.142 1.87665 -0.127867 0
M  V30 2847 O 271.5 1.58408 0.88185 0
M  V30 2848 C 271.548 2.62854 -2.4686 0
M  V30 2849 O 270.652 3.62501 -1.9664 0
M  V30 2850 H 269.993 0.427642 -0.507955 0
M  V30 2851 H 272.523 0.777422 -1.89255 0
M  V30 2852 H 272.533 3.10465 -2.64718 0
M  V30 2853 H 271.208 2.29578 -3.46795 0
M  V30 2854 H 269.785 3.21735 -1.88523 0
M  V30 2855 N 271.97 1.30982 0.876444 0
M  V30 2856 C 273.218 1.20058 1.62575 0
M  V30 2857 C 273.539 -0.242947 1.93481 0
M  V30 2858 O 272.809 -1.1619 1.57724 0
M  V30 2859 H 271.389 0.44135 0.602677 0
M  V30 2860 H 274.051 1.64222 1.04962 0
M  V30 2861 H 273.147 1.76762 2.57219 0
M  V30 2862 N 273.449 -1.08991 1.13837 0
M  V30 2863 C 274.396 -2.15748 0.819835 0
M  V30 2864 C 275.366 -1.64636 -0.220026 0
M  V30 2865 O 276.551 -1.90582 -0.0912757 0
M  V30 2866 C 273.691 -3.4382 0.296913 0
M  V30 2867 C 272.804 -4.0881 1.39636 0
M  V30 2868 C 271.939 -5.24655 0.831314 0
M  V30 2869 C 270.978 -5.81575 1.90886 0
M  V30 2870 N 270.115 -6.88774 1.36142 0
M  V30 2871 H 274.955 -2.42338 1.73426 0
M  V30 2872 H 272.492 -1.18935 0.865613 0
M  V30 2873 H 274.45 -4.17193 -0.0244339 0
M  V30 2874 H 273.08 -3.17535 -0.580628 0
M  V30 2875 H 272.132 -3.33258 1.83422 0
M  V30 2876 H 273.444 -4.47141 2.21058 0
M  V30 2877 H 272.598 -6.04942 0.461515 0
M  V30 2878 H 271.337 -4.87698 -0.013932 0
M  V30 2879 H 270.342 -4.99946 2.28767 0
M  V30 2880 H 271.567 -6.20592 2.75758 0
M  V30 2881 H 269.513 -6.53788 0.538254 0
M  V30 2882 H 269.43 -7.25898 2.11208 0
M  V30 2883 H 270.698 -7.72806 1.01933 0
M  V30 2884 N 274.927 -0.932562 -1.27047 0
M  V30 2885 C 275.837 -0.441219 -2.30414 0
M  V30 2886 C 276.853 0.480525 -1.67233 0
M  V30 2887 O 278.029 0.362151 -1.98117 0
M  V30 2888 C 275.094 0.293651 -3.45454 0
M  V30 2889 C 274.155 -0.663601 -4.2414 0
M  V30 2890 C 273.388 0.0362932 -5.33688 0
M  V30 2891 O 273.611 1.2548 -5.56427 0
M  V30 2892 O 272.545 -0.638015 -5.98509 0
M  V30 2893 H 276.371 -1.29962 -2.74488 0
M  V30 2894 H 273.956 -0.6981 -1.32087 0
M  V30 2895 H 275.838 0.707951 -4.15411 0
M  V30 2896 H 274.513 1.12758 -3.03426 0
M  V30 2897 H 273.42 -1.12768 -3.56699 0
M  V30 2898 H 274.753 -1.46489 -4.69896 0
M  V30 2899 N 276.405 1.4127 -0.698611 0
M  V30 2900 C 277.682 1.94955 -0.158762 0
M  V30 2901 C 278.062 1.63781 1.33188 0
M  V30 2902 O 277.41 0.946423 2.07979 0
M  V30 2903 C 277.62 3.46044 -0.453309 0
M  V30 2904 C 278.968 4.22872 -0.382707 0
M  V30 2905 O 279.992 3.54076 -0.388396 0
M  V30 2906 O 278.851 5.45407 -0.345463 0
M  V30 2907 H 275.945 0.82683 -0.0167505 0
M  V30 2908 H 278.491 1.50971 -0.77498 0
M  V30 2909 H 277.263 3.62028 -1.48498 0
M  V30 2910 H 276.886 3.97128 0.19373 0
M  V30 2911 N 277.883 0.443576 1.51229 0
M  V30 2912 C 279.113 -0.119117 2.06256 0
M  V30 2913 C 279.521 -1.36471 1.31043 0
M  V30 2914 O 278.864 -1.80034 0.365151 0
M  V30 2915 C 278.926 -0.500546 3.55998 0
M  V30 2916 C 278.59 0.639125 4.52509 0
M  V30 2917 C 279.587 1.51311 4.97394 0
M  V30 2918 C 277.272 0.821632 4.95535 0
M  V30 2919 C 279.266 2.55425 5.83984 0
M  V30 2920 C 276.953 1.86603 5.81913 0
M  V30 2921 C 277.951 2.73072 6.26036 0
M  V30 2922 O 277.639 3.75718 7.10698 0
M  V30 2923 H 277.371 -0.00857665 0.675946 0
M  V30 2924 H 279.925 0.623288 1.95715 0
M  V30 2925 H 278.155 -1.29575 3.64345 0
M  V30 2926 H 279.844 -0.995116 3.93513 0
M  V30 2927 H 280.61 1.38367 4.64844 0
M  V30 2928 H 276.489 0.158149 4.60729 0
M  V30 2929 H 280.033 3.22949 6.18344 0
M  V30 2930 H 275.93 1.99564 6.13876 0
M  V30 2931 H 276.698 3.72374 7.2889 0
M  V30 2932 N 279.361 -1.56624 0.175154 0
M  V30 2933 C 280.589 -2.01374 -0.474971 0
M  V30 2934 C 281.004 -1.05537 -1.56548 0
M  V30 2935 O 280.361 -0.0568668 -1.82411 0
M  V30 2936 C 280.412 -3.45923 -1.04975 0
M  V30 2937 O 280.133 -4.381 -0.00276605 0
M  V30 2938 C 281.634 -4.06093 -1.77773 0
M  V30 2939 H 278.854 -0.659962 -0.121206 0
M  V30 2940 H 281.398 -2.02601 0.27801 0
M  V30 2941 H 279.553 -3.45458 -1.75321 0
M  V30 2942 H 279.967 -5.22753 -0.427681 0
M  V30 2943 H 281.441 -5.09147 -2.13245 0
M  V30 2944 H 281.918 -3.48405 -2.67414 0
M  V30 2945 H 282.524 -4.10272 -1.12059 0
M  V30 2946 N 280.839 0.0985539 -1.57292 0
M  V30 2947 C 282.087 0.801092 -1.85545 0
M  V30 2948 C 282.408 1.79438 -0.763353 0
M  V30 2949 O 281.678 1.94763 0.21073 0
M  V30 2950 H 280.258 0.29884 -0.684619 0
M  V30 2951 H 282.92 0.0810064 -1.94732 0
M  V30 2952 H 282.016 1.3338 -2.82163 0
M  V30 2953 N 282.317 1.53212 0.369288 0
M  V30 2954 C 283.264 1.79388 1.45219 0
M  V30 2955 C 284.234 0.638059 1.53356 0
M  V30 2956 O 285.419 0.879852 1.69302 0
M  V30 2957 C 282.559 1.98623 2.82211 0
M  V30 2958 C 281.672 3.26337 2.8307 0
M  V30 2959 C 280.807 3.35779 4.11614 0
M  V30 2960 C 279.846 4.5754 4.06601 0
M  V30 2961 N 278.983 4.64155 5.26787 0
M  V30 2962 H 283.823 2.71794 1.22198 0
M  V30 2963 H 281.36 1.34642 0.592444 0
M  V30 2964 H 283.318 2.07761 3.61789 0
M  V30 2965 H 281.948 1.09558 3.03639 0
M  V30 2966 H 281 3.26171 1.95747 0
M  V30 2967 H 282.312 4.15988 2.75237 0
M  V30 2968 H 281.466 3.44208 4.99606 0
M  V30 2969 H 280.205 2.44137 4.22195 0
M  V30 2970 H 279.21 4.49215 3.16996 0
M  V30 2971 H 280.435 5.50519 3.97625 0
M  V30 2972 H 278.381 3.75413 5.3796 0
M  V30 2973 H 278.298 5.47706 5.21109 0
M  V30 2974 H 279.566 4.76863 6.16621 0
M  V30 2975 N 283.795 -0.628877 1.44509 0
M  V30 2976 C 285.072 -1.38733 1.37886 0
M  V30 2977 C 285.452 -2.11065 0.0387008 0
M  V30 2978 O 284.8 -2.06476 -0.97878 0
M  V30 2979 C 285.01 -2.35188 2.57852 0
M  V30 2980 C 286.358 -2.9845 3.02014 0
M  V30 2981 O 287.382 -2.45513 2.58073 0
M  V30 2982 O 286.241 -3.94487 3.78209 0
M  V30 2983 H 283.335 -0.621015 0.54614 0
M  V30 2984 H 285.881 -0.653744 1.56602 0
M  V30 2985 H 284.653 -1.80855 3.46998 0
M  V30 2986 H 284.276 -3.1596 2.4136 0
M  V30 2987 N 285.273 -1.31445 -0.869486 0
M  V30 2988 C 286.519 -1.21337 -1.62496 0
M  V30 2989 C 286.852 0.227872 -1.92858 0
M  V30 2990 O 286.127 1.16094 -1.56053 0
M  V30 2991 C 286.41 -2.05814 -2.95487 0
M  V30 2992 C 286.263 -3.5824 -2.72 0
M  V30 2993 C 287.582 -1.9079 -3.96594 0
M  V30 2994 H 284.701 -0.442135 -0.589649 0
M  V30 2995 H 287.343 -1.6124 -1.00507 0
M  V30 2996 H 285.493 -1.71913 -3.48394 0
M  V30 2997 H 287.165 -4.0228 -2.25762 0
M  V30 2998 H 285.408 -3.81647 -2.06224 0
M  V30 2999 H 286.079 -4.12657 -3.66631 0
M  V30 3000 H 288.555 -2.20459 -3.52898 0
M  V30 3001 H 287.431 -2.52199 -4.87531 0
M  V30 3002 H 287.692 -0.871341 -4.33428 0
M  V30 3003 N 286.751 1.08385 -1.14413 0
M  V30 3004 C 287.681 2.17321 -0.854044 0
M  V30 3005 C 288.662 1.69024 0.191049 0
M  V30 3006 O 289.847 1.94141 0.0476779 0
M  V30 3007 C 286.977 3.45719 -0.330983 0
M  V30 3008 C 285.931 4.07409 -1.31155 0
M  V30 3009 C 285.257 5.30762 -0.64778 0
M  V30 3010 C 286.557 4.48665 -2.67388 0
M  V30 3011 H 288.251 2.41845 -1.76498 0
M  V30 3012 H 285.797 1.16233 -0.850051 0
M  V30 3013 H 287.75 4.21241 -0.115645 0
M  V30 3014 H 286.474 3.2075 0.615381 0
M  V30 3015 H 285.133 3.33919 -1.51306 0
M  V30 3016 H 284.781 5.02078 0.304398 0
M  V30 3017 H 284.481 5.72992 -1.30207 0
M  V30 3018 H 286.005 6.08998 -0.441972 0
M  V30 3019 H 287.419 5.15364 -2.51143 0
M  V30 3020 H 285.816 5.01814 -3.29093 0
M  V30 3021 H 286.886 3.60543 -3.24248 0
M  V30 3022 N 288.23 0.939286 1.26551 0
M  V30 3023 C 289.479 0.581601 1.93133 0
M  V30 3024 C 289.792 -0.883224 1.74524 0
M  V30 3025 O 290.998 -1.3502 2.35546 0
M  V30 3026 C 289.454 0.989425 3.46032 0
M  V30 3027 C 289.062 2.47573 3.73379 0
M  V30 3028 C 290.806 0.703544 4.18629 0
M  V30 3029 C 288.713 2.82235 5.19709 0
M  V30 3030 H 287.643 0.213803 0.723052 0
M  V30 3031 H 290.294 1.14167 1.4366 0
M  V30 3032 H 288.676 0.357902 3.94379 0
M  V30 3033 H 289.85 3.15614 3.35744 0
M  V30 3034 H 288.165 2.73471 3.1401 0
M  V30 3035 H 290.762 0.938869 5.26393 0
M  V30 3036 H 291.105 -0.359639 4.14744 0
M  V30 3037 H 291.638 1.2947 3.76141 0
M  V30 3038 H 288.377 3.87509 5.28694 0
M  V30 3039 H 287.897 2.18854 5.58447 0
M  V30 3040 H 289.576 2.70599 5.87695 0
M  V30 3041 N 289.708 -1.40897 0.706093 0
M  V30 3042 C 290.638 -2.33418 0.0620085 0
M  V30 3043 C 291.619 -1.52385 -0.755827 0
M  V30 3044 O 292.804 -1.80886 -0.706674 0
M  V30 3045 C 289.934 -3.36293 -0.867445 0
M  V30 3046 C 288.888 -4.27716 -0.155932 0
M  V30 3047 C 288.214 -5.2105 -1.20046 0
M  V30 3048 C 289.514 -5.12944 0.984149 0
M  V30 3049 H 291.208 -2.87527 0.83477 0
M  V30 3050 H 288.754 -1.38249 0.402875 0
M  V30 3051 H 290.707 -3.99949 -1.32735 0
M  V30 3052 H 289.431 -2.80556 -1.67199 0
M  V30 3053 H 288.09 -3.65498 0.284047 0
M  V30 3054 H 287.738 -4.61624 -1.99781 0
M  V30 3055 H 287.438 -5.83056 -0.729328 0
M  V30 3056 H 288.962 -5.87584 -1.66066 0
M  V30 3057 H 290.376 -5.70109 0.604048 0
M  V30 3058 H 288.773 -5.83945 1.38304 0
M  V30 3059 H 289.843 -4.49485 1.81911 0
M  V30 3060 N 291.186 -0.45159 -1.50991 0
M  V30 3061 C 292.434 0.109857 -2.01801 0
M  V30 3062 C 292.755 1.41958 -1.3369 0
M  V30 3063 O 292.025 1.9003 -0.475951 0
M  V30 3064 H 290.605 0.0435884 -0.745727 0
M  V30 3065 H 293.267 -0.597557 -1.85514 0
M  V30 3066 H 292.363 0.275489 -3.10882 0
M  V30 3067 N 292.664 1.56529 -0.183458 0
M  V30 3068 C 293.912 1.96855 0.457452 0
M  V30 3069 C 294.233 1.07104 1.62953 0
M  V30 3070 O 293.503 0.139887 1.954 0
M  V30 3071 H 292.083 0.72693 0.171992 0
M  V30 3072 H 294.745 1.93056 -0.267476 0
M  V30 3073 H 293.841 3.01423 0.809368 0
M  V30 3074 N 294.142 -0.090211 1.57342 0
M  V30 3075 C 295.39 -0.791241 1.85967 0
M  V30 3076 C 295.711 -1.7903 0.772859 0
M  V30 3077 O 294.981 -1.94872 -0.200398 0
M  V30 3078 H 293.561 -0.295205 0.686195 0
M  V30 3079 H 296.223 -0.0706782 1.94772 0
M  V30 3080 H 295.319 -1.31882 2.82867 0
M  V30 3081 N 295.62 -1.53406 -0.361157 0
M  V30 3082 C 296.897 -1.60411 -1.11927 0
M  V30 3083 C 297.277 -0.414385 -2.06993 0
M  V30 3084 O 296.625 0.594976 -2.20618 0
M  V30 3085 C 296.835 -2.95652 -1.85448 0
M  V30 3086 C 298.183 -3.50386 -2.39823 0
M  V30 3087 O 299.207 -2.97711 -1.95568 0
M  V30 3088 O 298.066 -4.42482 -3.20737 0
M  V30 3089 H 295.16 -0.64811 -0.513695 0
M  V30 3090 H 297.706 -1.65749 -0.364065 0
M  V30 3091 H 296.478 -3.73682 -1.16091 0
M  V30 3092 H 296.101 -2.93825 -2.67866 0
M  V30 3093 N 297.098 0.621204 -1.44841 0
M  V30 3094 C 298.346 1.37783 -1.47852 0
M  V30 3095 C 298.667 1.94653 -0.116224 0
M  V30 3096 O 297.937 1.76367 0.852737 0
M  V30 3097 H 296.517 0.511453 -0.544449 0
M  V30 3098 H 299.179 0.730446 -1.80694 0
M  V30 3099 H 298.275 2.20414 -2.20961 0
M  V30 3100 N 298.576 1.31904 0.862503 0
M  V30 3101 C 299.824 1.21776 1.61292 0
M  V30 3102 C 300.145 -0.222413 1.93727 0
M  V30 3103 O 299.415 -1.1451 1.58947 0
M  V30 3104 H 297.995 0.447717 0.597962 0
M  V30 3105 H 300.657 1.65326 1.03215 0
M  V30 3106 H 299.753 1.7948 2.5533 0
M  V30 3107 N 300.054 -1.07777 1.14986 0
M  V30 3108 C 301.303 -1.79669 0.916617 0
M  V30 3109 C 301.616 -1.87474 -0.557917 0
M  V30 3110 O 302.822 -2.55845 -0.908617 0
M  V30 3111 C 301.278 -3.22848 1.59051 0
M  V30 3112 C 300.886 -3.23257 3.10176 0
M  V30 3113 C 302.63 -3.99379 1.43864 0
M  V30 3114 C 300.537 -4.61063 3.70372 0
M  V30 3115 H 299.467 -0.673349 0.33929 0
M  V30 3116 H 302.118 -1.21003 1.37951 0
M  V30 3117 H 300.5 -3.8168 1.0553 0
M  V30 3118 H 301.674 -2.74095 3.70417 0
M  V30 3119 H 299.989 -2.60222 3.25074 0
M  V30 3120 H 302.586 -5.0122 1.86232 0
M  V30 3121 H 302.929 -4.14511 0.385564 0
M  V30 3122 H 303.462 -3.47032 1.94457 0
M  V30 3123 H 300.201 -4.51135 4.7556 0
M  V30 3124 H 299.721 -5.1048 3.14913 0
M  V30 3125 H 301.4 -5.30034 3.71043 0
M  V30 3126 N 301.532 -0.945985 -1.26051 0
M  V30 3127 C 302.462 -0.477172 -2.28572 0
M  V30 3128 C 303.443 0.472032 -1.63419 0
M  V30 3129 O 304.628 0.372853 -1.90587 0
M  V30 3130 C 301.758 0.253975 -3.4637 0
M  V30 3131 C 300.712 -0.609135 -4.23643 0
M  V30 3132 C 300.038 0.252252 -5.34105 0
M  V30 3133 C 301.338 -1.8829 -4.8718 0
M  V30 3134 H 303.032 -1.33402 -2.68038 0
M  V30 3135 H 300.578 -0.642904 -1.28852 0
M  V30 3136 H 302.531 0.593016 -4.17207 0
M  V30 3137 H 301.255 1.145 -3.05871 0
M  V30 3138 H 299.914 -0.931138 -3.54578 0
M  V30 3139 H 299.562 1.14278 -4.89846 0
M  V30 3140 H 299.262 -0.32188 -5.86718 0
M  V30 3141 H 300.786 0.586454 -6.07777 0
M  V30 3142 H 302.2 -1.61081 -5.50205 0
M  V30 3143 H 300.597 -2.40199 -5.49931 0
M  V30 3144 H 301.667 -2.59134 -4.09851 0
M  V30 3145 N 303.011 1.40521 -0.713556 0
M  V30 3146 C 304.251 2.02783 -0.256584 0
M  V30 3147 C 304.615 1.55352 1.12827 0
M  V30 3148 O 305.816 2.09663 1.68211 0
M  V30 3149 C 304.087 3.5586 -0.331414 0
M  V30 3150 S 305.646 4.38773 0.0488703 0
M  V30 3151 H 302.464 0.703655 -0.101934 0
M  V30 3152 H 305.066 1.71674 -0.935325 0
M  V30 3153 H 303.77 3.87874 -1.34098 0
M  V30 3154 H 303.301 3.91695 0.365873 0
M  V30 3155 H 305.316 4.79633 1.2715 0
M  V30 3156 N 304.489 0.459591 1.5075 0
M  V30 3157 C 305.399 -0.34613 2.32033 0
M  V30 3158 C 306.415 -1.00686 1.41909 0
M  V30 3159 O 307.591 -0.997361 1.7497 0
M  V30 3160 C 304.656 -1.42029 3.16273 0
M  V30 3161 C 303.717 -0.777362 4.22203 0
M  V30 3162 C 302.95 -1.80034 5.02418 0
M  V30 3163 O 303.173 -3.02544 4.83553 0
M  V30 3164 O 302.107 -1.37853 5.85901 0
M  V30 3165 H 305.933 0.318054 3.0203 0
M  V30 3166 H 303.518 0.221663 1.47746 0
M  V30 3167 H 305.4 -2.04275 3.68578 0
M  V30 3168 H 304.075 -2.06815 2.49016 0
M  V30 3169 H 302.982 -0.116256 3.73919 0
M  V30 3170 H 304.315 -0.172634 4.91897 0
M  V30 3171 N 305.967 -1.56429 0.191757 0
M  V30 3172 C 307.216 -1.9666 -0.448088 0
M  V30 3173 C 307.529 -1.08136 -1.62991 0
M  V30 3174 O 308.735 -1.38135 -2.33733 0
M  V30 3175 C 307.191 -3.49753 -0.848585 0
M  V30 3176 C 306.799 -4.46935 0.308764 0
M  V30 3177 C 308.543 -3.9876 -1.4557 0
M  V30 3178 C 306.45 -5.91293 -0.112506 0
M  V30 3179 H 305.38 -0.734312 -0.171179 0
M  V30 3180 H 308.031 -1.81301 0.283242 0
M  V30 3181 H 306.413 -3.60604 -1.63649 0
M  V30 3182 H 307.587 -4.47813 1.08627 0
M  V30 3183 H 305.902 -4.08102 0.827158 0
M  V30 3184 H 308.499 -5.04086 -1.78328 0
M  V30 3185 H 308.842 -3.42875 -2.36099 0
M  V30 3186 H 309.375 -3.9101 -0.731836 0
M  V30 3187 H 306.114 -6.51097 0.758514 0
M  V30 3188 H 305.634 -5.93676 -0.854941 0
M  V30 3189 H 307.313 -6.44663 -0.549448 0
M  V30 3190 N 307.445 0.0818655 -1.57387 0
M  V30 3191 C 308.691 0.784074 -1.8703 0
M  V30 3192 C 309.024 1.77729 -0.782689 0
M  V30 3193 O 308.299 1.93384 0.208051 0
M  V30 3194 C 308.582 1.50105 -3.27323 0
M  V30 3195 C 308.435 0.524925 -4.46727 0
M  V30 3196 C 309.754 2.44843 -3.65705 0
M  V30 3197 H 306.873 0.283582 -0.680257 0
M  V30 3198 H 309.515 0.0474352 -1.89941 0
M  V30 3199 H 307.665 2.12897 -3.24972 0
M  V30 3200 H 309.337 -0.0970111 -4.61198 0
M  V30 3201 H 307.58 -0.160606 -4.33503 0
M  V30 3202 H 308.251 1.064 -5.41648 0
M  V30 3203 H 310.727 1.92135 -3.69085 0
M  V30 3204 H 309.603 2.92018 -4.64776 0
M  V30 3205 H 309.864 3.29197 -2.95096 0
M  V30 3206 N 308.923 1.53595 0.353017 0
M  V30 3207 C 309.87 1.80919 1.43308 0
M  V30 3208 C 310.84 0.654288 1.5267 0
M  V30 3209 O 312.025 0.897759 1.6836 0
M  V30 3210 C 309.165 2.01605 2.80089 0
M  V30 3211 C 308.278 3.29321 2.79593 0
M  V30 3212 C 307.413 3.40125 4.0803 0
M  V30 3213 C 306.452 4.61826 4.01725 0
M  V30 3214 N 305.589 4.69716 5.21834 0
M  V30 3215 H 310.429 2.73074 1.19308 0
M  V30 3216 H 307.966 1.35263 0.578131 0
M  V30 3217 H 309.924 2.11586 3.59565 0
M  V30 3218 H 308.554 1.12772 3.0246 0
M  V30 3219 H 307.606 3.28229 1.92276 0
M  V30 3220 H 308.918 4.18884 2.70809 0
M  V30 3221 H 308.072 3.49488 4.95927 0
M  V30 3222 H 306.811 2.48601 4.19582 0
M  V30 3223 H 305.816 4.52552 3.12213 0
M  V30 3224 H 307.041 5.54705 3.91764 0
M  V30 3225 H 304.987 3.81097 5.33948 0
M  V30 3226 H 304.904 5.53202 5.1527 0
M  V30 3227 H 306.172 4.83376 6.11529 0
M  V30 3228 N 310.401 -0.613514 1.45168 0
M  V30 3229 C 311.331 -1.7354 1.56225 0
M  V30 3230 C 312.312 -1.64981 0.41414 0
M  V30 3231 O 313.497 -1.83472 0.636526 0
M  V30 3232 C 310.627 -3.12128 1.52295 0
M  V30 3233 C 309.581 -3.35491 2.65762 0
M  V30 3234 C 308.907 -4.74291 2.46885 0
M  V30 3235 C 310.207 -3.26325 4.0781 0
M  V30 3236 H 311.901 -1.64543 2.50132 0
M  V30 3237 H 309.447 -0.790185 1.20383 0
M  V30 3238 H 311.4 -3.90404 1.58628 0
M  V30 3239 H 310.124 -3.2195 0.549139 0
M  V30 3240 H 308.783 -2.59603 2.58847 0
M  V30 3241 H 308.431 -4.80839 1.47657 0
M  V30 3242 H 308.131 -4.9088 3.22972 0
M  V30 3243 H 309.655 -5.54775 2.55063 0
M  V30 3244 H 311.069 -3.94483 4.16 0
M  V30 3245 H 309.466 -3.54445 4.8424 0
M  V30 3246 H 310.536 -2.23855 4.30136 0
M  V30 3247 N 311.879 -1.3236 -0.855495 0
M  V30 3248 C 312.826 -1.21225 -1.964 0
M  V30 3249 C 313.796 -0.0946204 -1.6583 0
M  V30 3250 O 314.981 -0.27002 -1.8888 0
M  V30 3251 C 312.121 -0.940419 -3.32039 0
M  V30 3252 C 311.234 -2.14276 -3.75113 0
M  V30 3253 C 310.369 -1.80648 -4.9954 0
M  V30 3254 C 309.408 -2.97208 -5.35102 0
M  V30 3255 N 308.545 -2.63678 -6.50706 0
M  V30 3256 H 313.385 -2.16042 -2.05255 0
M  V30 3257 H 310.922 -1.07451 -1.00463 0
M  V30 3258 H 312.88 -0.763311 -4.10158 0
M  V30 3259 H 311.51 -0.0290413 -3.22787 0
M  V30 3260 H 310.562 -2.43017 -2.92655 0
M  V30 3261 H 311.874 -3.01468 -3.97389 0
M  V30 3262 H 311.028 -1.59484 -5.85363 0
M  V30 3263 H 309.767 -0.906678 -4.79198 0
M  V30 3264 H 308.772 -3.19004 -4.47791 0
M  V30 3265 H 309.997 -3.87918 -5.57401 0
M  V30 3266 H 307.943 -1.76238 -6.31883 0
M  V30 3267 H 307.86 -3.444 -6.72997 0
M  V30 3268 H 309.128 -2.45942 -7.39684 0
M  V30 3269 N 313.357 1.07166 -1.15556 0
M  V30 3270 C 314.768 1.6127 -0.940693 0
M  V30 3271 C 315.119 1.89251 0.517551 0
M  V30 3272 O 314.244 1.65937 1.38903 0
M  V30 3273 C 314.839 2.92993 -1.7012 0
M  V30 3274 C 313.398 3.43832 -1.53156 0
M  V30 3275 C 312.545 2.1786 -1.71558 0
M  V30 3276 H 315.496 0.90229 -1.30554 0
M  V30 3277 H 315.517 3.62007 -1.17181 0
M  V30 3278 H 315.029 2.72596 -2.76248 0
M  V30 3279 H 313.13 3.69307 -0.494294 0
M  V30 3280 H 313.243 4.19747 -2.30975 0
M  V30 3281 H 311.607 2.2765 -1.14225 0
M  V30 3282 H 312.39 1.99956 -2.79056 0
M  V30 3283 N 314.835 0.952656 1.25548 0
M  V30 3284 C 315.782 0.47008 2.25962 0
M  V30 3285 C 316.752 -0.476384 1.59122 0
M  V30 3286 O 317.937 -0.39007 1.8677 0
M  V30 3287 C 315.077 -0.247881 3.44209 0
M  V30 3288 C 314.19 0.735591 4.25691 0
M  V30 3289 C 313.325 -0.0047306 5.312 0
M  V30 3290 C 312.364 0.969805 6.04368 0
M  V30 3291 N 311.501 0.260486 7.01617 0
M  V30 3292 H 316.341 1.33126 2.66611 0
M  V30 3293 H 313.878 0.66765 1.31076 0
M  V30 3294 H 315.836 -0.680695 4.1161 0
M  V30 3295 H 314.466 -1.07312 3.0444 0
M  V30 3296 H 313.518 1.28689 3.57971 0
M  V30 3297 H 314.83 1.47934 4.76358 0
M  V30 3298 H 313.984 -0.496275 6.04667 0
M  V30 3299 H 312.723 -0.781282 4.81401 0
M  V30 3300 H 311.728 1.47237 5.29718 0
M  V30 3301 H 312.953 1.74655 6.56256 0
M  V30 3302 H 310.899 -0.497364 6.54112 0
M  V30 3303 H 310.816 0.943362 7.50091 0
M  V30 3304 H 312.084 -0.209587 7.79218 0
M  V30 3305 N 316.313 -1.40141 0.720998 0
M  V30 3306 C 317.246 -2.2819 0.020916 0
M  V30 3307 C 318.224 -1.43633 -0.762129 0
M  V30 3308 O 319.408 -1.7304 -0.747633 0
M  V30 3309 C 316.535 -3.24281 -0.977715 0
M  V30 3310 C 315.581 -4.25548 -0.284836 0
M  V30 3311 S 316.414 -5.26247 0.991169 0
M  V30 3312 C 317.57 -6.259 -0.0052214 0
M  V30 3313 H 317.803 -2.87218 0.767649 0
M  V30 3314 H 315.336 -1.45656 0.512233 0
M  V30 3315 H 317.294 -3.80167 -1.54865 0
M  V30 3316 H 315.955 -2.643 -1.69719 0
M  V30 3317 H 315.148 -4.93154 -1.03996 0
M  V30 3318 H 314.75 -3.73389 0.213684 0
M  V30 3319 H 317.042 -6.72143 -0.850279 0
M  V30 3320 H 317.985 -7.05224 0.637599 0
M  V30 3321 H 318.393 -5.63277 -0.371366 0
M  V30 3322 N 317.792 -0.46758 -1.50504 0
M  V30 3323 C 319.038 0.0887532 -2.02606 0
M  V30 3324 C 319.371 1.39686 -1.34913 0
M  V30 3325 O 318.646 1.88644 -0.473694 0
M  V30 3326 C 318.929 0.276206 -3.59039 0
M  V30 3327 C 318.782 -1.05267 -4.37309 0
M  V30 3328 C 320.101 1.03235 -4.27821 0
M  V30 3329 H 317.22 0.0307814 -0.736357 0
M  V30 3330 H 319.862 -0.612485 -1.79857 0
M  V30 3331 H 318.012 0.8735 -3.78553 0
M  V30 3332 H 319.684 -1.68628 -4.29374 0
M  V30 3333 H 317.927 -1.65015 -4.01189 0
M  V30 3334 H 318.598 -0.875197 -5.45018 0
M  V30 3335 H 321.074 0.526111 -4.12761 0
M  V30 3336 H 319.95 1.1323 -5.37094 0
M  V30 3337 H 320.211 2.06806 -3.90748 0
M  V30 3338 N 319.27 1.56325 -0.20005 0
M  V30 3339 C 320.498 2.02105 0.442874 0
M  V30 3340 C 320.913 1.08014 1.5485 0
M  V30 3341 O 320.27 0.0858797 1.82298 0
M  V30 3342 C 320.321 3.47549 0.994583 0
M  V30 3343 O 320.042 4.38049 -0.0669322 0
M  V30 3344 C 321.543 4.0887 1.7129 0
M  V30 3345 H 318.763 0.661807 0.110691 0
M  V30 3346 H 321.307 2.02134 -0.310207 0
M  V30 3347 H 319.462 3.48204 1.69803 0
M  V30 3348 H 319.876 5.23368 0.344462 0
M  V30 3349 H 321.35 5.12475 2.05118 0
M  V30 3350 H 321.827 3.52615 2.61838 0
M  V30 3351 H 322.433 4.12002 1.05518 0
M  V30 3352 N 320.748 -0.0735177 1.57428 0
M  V30 3353 C 321.681 -1.11932 1.98863 0
M  V30 3354 C 322.659 -1.37666 0.865266 0
M  V30 3355 O 323.843 -1.51068 1.12742 0
M  V30 3356 C 320.97 -2.46403 2.32386 0
M  V30 3357 C 320.016 -2.36815 3.54713 0
M  V30 3358 S 320.849 -1.76392 5.05614 0
M  V30 3359 C 322.005 -3.12444 5.42337 0
M  V30 3360 H 322.238 -0.766212 2.87257 0
M  V30 3361 H 319.771 -0.281987 1.51803 0
M  V30 3362 H 321.729 -3.23755 2.52375 0
M  V30 3363 H 320.39 -2.78876 1.44524 0
M  V30 3364 H 319.583 -3.35977 3.7568 0
M  V30 3365 H 319.185 -1.67598 3.34345 0
M  V30 3366 H 321.477 -4.08753 5.40303 0
M  V30 3367 H 322.42 -2.96258 6.43146 0
M  V30 3368 H 322.828 -3.1297 4.69798 0
M  V30 3369 N 322.226 -1.5378 -0.344866 0
M  V30 3370 C 323.472 -1.71216 -1.08687 0
M  V30 3371 C 323.805 -0.473281 -1.88345 0
M  V30 3372 O 323.08 0.52968 -1.87149 0
M  V30 3373 C 323.363 -2.97486 -2.02914 0
M  V30 3374 C 323.216 -4.31579 -1.26727 0
M  V30 3375 C 324.535 -3.19422 -3.0275 0
M  V30 3376 H 321.654 -0.62301 -0.393735 0
M  V30 3377 H 324.296 -1.8645 -0.365563 0
M  V30 3378 H 322.446 -2.84629 -2.64421 0
M  V30 3379 H 324.118 -4.56284 -0.67845 0
M  V30 3380 H 322.361 -4.30049 -0.569273 0
M  V30 3381 H 323.032 -5.16106 -1.95803 0
M  V30 3382 H 325.508 -3.316 -2.51357 0
M  V30 3383 H 324.384 -4.09169 -3.65885 0
M  V30 3384 H 324.645 -2.35656 -3.74057 0
M  V30 3385 N 323.704 0.605807 -1.45491 0
M  V30 3386 C 324.614 1.74466 -1.56839 0
M  V30 3387 C 325.63 1.68006 -0.452772 0
M  V30 3388 O 326.806 1.8833 -0.713708 0
M  V30 3389 C 323.871 3.10931 -1.53371 0
M  V30 3390 C 322.932 3.28832 -2.75986 0
M  V30 3391 C 322.165 4.58787 -2.72673 0
M  V30 3392 O 322.388 5.4122 -1.80102 0
M  V30 3393 O 321.322 4.79438 -3.63899 0
M  V30 3394 H 325.148 1.67843 -2.53106 0
M  V30 3395 H 322.733 0.770108 -1.28022 0
M  V30 3396 H 324.615 3.92233 -1.54051 0
M  V30 3397 H 323.29 3.18042 -0.602572 0
M  V30 3398 H 322.197 2.47112 -2.80867 0
M  V30 3399 H 323.53 3.26599 -3.68231 0
M  V30 3400 N 325.182 1.32811 0.848464 0
M  V30 3401 C 326.431 1.23075 1.59798 0
M  V30 3402 C 326.744 -0.204419 1.94529 0
M  V30 3403 O 327.95 -0.423701 2.68173 0
M  V30 3404 C 326.406 2.15594 2.88179 0
M  V30 3405 C 326.014 3.64228 2.60849 0
M  V30 3406 C 327.758 2.14709 3.66197 0
M  V30 3407 C 325.665 4.48689 3.85269 0
M  V30 3408 H 324.595 0.457091 0.599653 0
M  V30 3409 H 327.246 1.57813 0.936342 0
M  V30 3410 H 325.628 1.73778 3.55833 0
M  V30 3411 H 326.802 4.14424 2.01467 0
M  V30 3412 H 325.117 3.67306 1.96151 0
M  V30 3413 H 327.714 2.75046 4.58534 0
M  V30 3414 H 328.057 1.13966 4.00397 0
M  V30 3415 H 328.59 2.54837 3.05455 0
M  V30 3416 H 325.329 5.5027 3.56207 0
M  V30 3417 H 324.849 4.03241 4.44024 0
M  V30 3418 H 326.528 4.62006 4.52946 0
M  V30 3419 N 326.66 -1.06551 1.16123 0
M  V30 3420 C 327.937 -1.76097 0.85142 0
M  V30 3421 C 328.317 -2.00802 -0.6513 0
M  V30 3422 O 327.665 -1.63302 -1.59827 0
M  V30 3423 C 327.875 -3.06384 1.67122 0
M  V30 3424 C 329.223 -3.80585 1.88255 0
M  V30 3425 O 330.247 -3.16218 1.63966 0
M  V30 3426 O 329.106 -4.96212 2.2899 0
M  V30 3427 H 326.2 -0.765102 0.313923 0
M  V30 3428 H 328.746 -1.12844 1.26745 0
M  V30 3429 H 327.518 -2.84071 2.69108 0
M  V30 3430 H 327.141 -3.77371 1.25206 0
M  V30 3431 N 328.138 -0.959301 -1.25041 0
M  V30 3432 C 329.07 -0.440543 -2.24926 0
M  V30 3433 C 330.083 0.446131 -1.56568 0
M  V30 3434 O 331.272 0.253657 -1.76689 0
M  V30 3435 C 328.372 0.38412 -3.36716 0
M  V30 3436 C 327.545 -0.490658 -4.34639 0
M  V30 3437 C 326.604 0.276587 -5.25473 0
M  V30 3438 O 325.63 -0.326614 -5.68262 0
M  V30 3439 N 326.832 1.56844 -5.5891 0
M  V30 3440 H 329.597 -1.29931 -2.70071 0
M  V30 3441 H 327.158 -0.830181 -1.38995 0
M  V30 3442 H 329.15 0.905228 -3.94446 0
M  V30 3443 H 327.72 1.14377 -2.90924 0
M  V30 3444 H 326.94 -1.19282 -3.7572 0
M  V30 3445 H 328.228 -1.08756 -4.97041 0
M  V30 3446 H 327.626 2.08036 -5.26059 0
M  V30 3447 H 326.183 2.03541 -6.19205 0
M  V30 3448 N 329.616 1.39756 -0.72842 0
M  V30 3449 C 330.549 2.28176 -0.0330172 0
M  V30 3450 C 331.527 1.44035 0.754501 0
M  V30 3451 O 332.711 1.73434 0.738445 0
M  V30 3452 C 329.838 3.24795 0.960504 0
M  V30 3453 C 328.884 4.25693 0.262264 0
M  V30 3454 S 329.717 5.25714 -1.01906 0
M  V30 3455 C 330.873 6.25894 -0.0279717 0
M  V30 3456 H 331.106 2.86807 -0.78287 0
M  V30 3457 H 328.639 1.45382 -0.519951 0
M  V30 3458 H 330.597 3.80983 1.52846 0
M  V30 3459 H 329.258 2.65196 1.68315 0
M  V30 3460 H 328.451 4.93699 1.01379 0
M  V30 3461 H 328.053 3.7327 -0.233482 0
M  V30 3462 H 330.345 6.72585 0.814621 0
M  V30 3463 H 331.288 7.04876 -0.67499 0
M  V30 3464 H 331.696 5.63466 0.341489 0
M  V30 3465 N 331.094 0.475555 1.50254 0
M  V30 3466 C 332.34 -0.0780073 2.0265 0
M  V30 3467 C 332.673 -1.38968 1.35652 0
M  V30 3468 O 331.948 -1.8839 0.483691 0
M  V30 3469 C 332.231 -0.257161 3.59181 0
M  V30 3470 C 332.084 1.07585 4.36744 0
M  V30 3471 C 333.403 -1.00965 4.28362 0
M  V30 3472 H 330.522 -0.0268758 0.73651 0
M  V30 3473 H 333.164 0.622015 1.7953 0
M  V30 3474 H 331.314 -0.853412 3.79011 0
M  V30 3475 H 332.986 1.70902 4.28474 0
M  V30 3476 H 331.229 1.6714 4.00308 0
M  V30 3477 H 331.9 0.904088 5.44546 0
M  V30 3478 H 334.376 -0.504214 4.13034 0
M  V30 3479 H 333.252 -1.10381 5.37687 0
M  V30 3480 H 333.513 -2.04731 3.91839 0
M  V30 3481 N 332.573 -1.56217 0.208337 0
M  V30 3482 C 333.822 -1.97124 -0.427204 0
M  V30 3483 C 334.135 -1.09859 -1.61835 0
M  V30 3484 O 335.341 -1.40606 -2.32255 0
M  V30 3485 C 333.797 -3.50633 -0.811442 0
M  V30 3486 C 333.405 -4.46582 0.35615 0
M  V30 3487 C 335.149 -4.00282 -1.41332 0
M  V30 3488 C 333.056 -5.91379 -0.0497852 0
M  V30 3489 H 331.986 -0.736086 -0.163381 0
M  V30 3490 H 334.637 -1.8099 0.302456 0
M  V30 3491 H 333.019 -3.62319 -1.59815 0
M  V30 3492 H 334.193 -4.46636 1.1337 0
M  V30 3493 H 332.508 -4.07202 0.870396 0
M  V30 3494 H 335.105 -5.0595 -1.72972 0
M  V30 3495 H 335.448 -3.45359 -2.32449 0
M  V30 3496 H 335.981 -3.91764 -0.690323 0
M  V30 3497 H 332.72 -6.50255 0.827529 0
M  V30 3498 H 332.24 -5.94549 -0.791926 0
M  V30 3499 H 333.919 -6.45209 -0.481042 0
M  V30 3500 N 334.051 0.0651679 -1.57465 0
M  V30 3501 C 335.328 0.79644 -1.78651 0
M  V30 3502 C 335.708 1.95454 -0.797566 0
M  V30 3503 O 335.056 2.27882 0.167946 0
M  V30 3504 C 335.266 1.26322 -3.25337 0
M  V30 3505 C 336.614 1.6939 -3.89348 0
M  V30 3506 O 337.638 1.35872 -3.29268 0
M  V30 3507 O 336.497 2.31471 -4.95059 0
M  V30 3508 H 333.591 0.382157 -0.733407 0
M  V30 3509 H 336.137 0.0447311 -1.69641 0
M  V30 3510 H 334.909 0.434859 -3.88876 0
M  V30 3511 H 334.532 2.07604 -3.39096 0
M  V30 3512 N 335.529 1.53961 0.336706 0
M  V30 3513 C 336.777 1.71197 1.07405 0
M  V30 3514 C 337.098 0.481475 1.88962 0
M  V30 3515 O 336.368 -0.504585 1.8929 0
M  V30 3516 H 334.948 0.631185 0.399517 0
M  V30 3517 H 337.61 1.91232 0.376323 0
M  V30 3518 H 336.706 2.58587 1.74755 0
M  V30 3519 N 337.007 -0.598083 1.45811 0
M  V30 3520 C 338.247 -1.36802 1.5187 0
M  V30 3521 C 338.611 -1.9133 0.160224 0
M  V30 3522 O 339.812 -2.6863 0.0955302 0
M  V30 3523 C 338.083 -2.47835 2.57513 0
M  V30 3524 S 339.642 -3.35458 2.82866 0
M  V30 3525 H 336.46 -0.466278 0.536755 0
M  V30 3526 H 339.062 -0.689152 1.82951 0
M  V30 3527 H 337.766 -2.06141 3.54872 0
M  V30 3528 H 337.297 -3.20512 2.28114 0
M  V30 3529 H 339.312 -4.46251 2.16967 0
M  V30 3530 N 338.485 -1.33259 -0.841409 0
M  V30 3531 C 339.432 -1.23302 -1.95103 0
M  V30 3532 C 340.402 -0.112204 -1.65721 0
M  V30 3533 O 341.587 -0.290038 -1.88583 0
M  V30 3534 C 338.727 -0.975583 -3.31023 0
M  V30 3535 C 337.84 -2.18243 -3.72819 0
M  V30 3536 C 336.975 -1.85936 -4.97595 0
M  V30 3537 C 336.014 -3.02866 -5.3192 0
M  V30 3538 N 335.151 -2.70565 -6.47873 0
M  V30 3539 H 339.991 -2.18207 -2.02952 0
M  V30 3540 H 337.528 -1.0851 -0.993173 0
M  V30 3541 H 339.486 -0.80677 -4.09325 0
M  V30 3542 H 338.116 -0.0632755 -3.22738 0
M  V30 3543 H 337.168 -2.46107 -2.90061 0
M  V30 3544 H 338.48 -3.05666 -3.94169 0
M  V30 3545 H 337.634 -1.65684 -5.83638 0
M  V30 3546 H 336.373 -0.957452 -4.78209 0
M  V30 3547 H 335.378 -3.23736 -4.44382 0
M  V30 3548 H 336.603 -3.93809 -5.53255 0
M  V30 3549 H 334.549 -1.8293 -6.29978 0
M  V30 3550 H 334.466 -3.51519 -6.69306 0
M  V30 3551 H 335.734 -2.53774 -7.37034 0
M  V30 3552 N 339.963 1.05934 -1.16686 0
M  V30 3553 C 340.91 2.13499 -0.876748 0
M  V30 3554 C 341.88 1.65162 0.176299 0
M  V30 3555 O 343.065 1.90757 0.0407143 0
M  V30 3556 C 340.205 3.42912 -0.387967 0
M  V30 3557 C 339.318 4.04964 -1.50426 0
M  V30 3558 C 338.453 5.22266 -0.970125 0
M  V30 3559 C 337.492 5.76309 -2.06238 0
M  V30 3560 N 336.629 6.84922 -1.54356 0
M  V30 3561 H 341.469 2.37654 -1.7979 0
M  V30 3562 H 339.006 1.16598 -0.896843 0
M  V30 3563 H 340.964 4.17111 -0.086186 0
M  V30 3564 H 339.594 3.18963 0.496235 0
M  V30 3565 H 338.646 3.28277 -1.92193 0
M  V30 3566 H 339.958 4.41122 -2.32836 0
M  V30 3567 H 339.112 6.03506 -0.621743 0
M  V30 3568 H 337.851 4.87564 -0.115377 0
M  V30 3569 H 336.856 4.93704 -2.41942 0
M  V30 3570 H 338.081 6.13062 -2.92115 0
M  V30 3571 H 336.027 6.52131 -0.711406 0
M  V30 3572 H 335.944 7.20043 -2.30379 0
M  V30 3573 H 337.212 7.69832 -1.22387 0
M  V30 3574 N 341.441 0.965919 1.2453 0
M  V30 3575 C 342.671 0.643451 1.96324 0
M  V30 3576 C 343.079 -0.790927 1.71875 0
M  V30 3577 O 342.422 -1.54208 0.998273 0
M  V30 3578 C 342.484 0.836078 3.49643 0
M  V30 3579 C 342.148 2.24975 3.97788 0
M  V30 3580 C 343.145 3.22735 4.07601 0
M  V30 3581 C 340.83 2.57697 4.31158 0
M  V30 3582 C 342.824 4.51303 4.50116 0
M  V30 3583 C 340.511 3.86492 4.73357 0
M  V30 3584 C 341.509 4.83107 4.828 0
M  V30 3585 O 341.197 6.09605 5.24058 0
M  V30 3586 H 340.929 0.239223 0.632257 0
M  V30 3587 H 343.483 1.29587 1.59362 0
M  V30 3588 H 341.713 0.12649 3.86493 0
M  V30 3589 H 343.402 0.512965 4.02646 0
M  V30 3590 H 344.168 2.98783 3.82039 0
M  V30 3591 H 340.047 1.83216 4.23028 0
M  V30 3592 H 343.591 5.26716 4.57401 0
M  V30 3593 H 339.488 4.10245 4.98366 0
M  V30 3594 H 340.256 6.13146 5.42213 0
M  V30 3595 N 342.919 -1.39368 0.735821 0
M  V30 3596 C 343.852 -2.28155 0.0451175 0
M  V30 3597 C 344.83 -1.44433 -0.746852 0
M  V30 3598 O 346.014 -1.73823 -0.729237 0
M  V30 3599 C 343.141 -3.253 -0.943266 0
M  V30 3600 C 342.187 -4.25826 -0.239685 0
M  V30 3601 S 343.02 -5.25166 1.04693 0
M  V30 3602 C 344.176 -6.2587 0.0611639 0
M  V30 3603 H 344.409 -2.86388 0.79807 0
M  V30 3604 H 341.942 -1.45104 0.527653 0
M  V30 3605 H 343.9 -3.81789 -1.50824 0
M  V30 3606 H 342.561 -2.66085 -1.66906 0
M  V30 3607 H 341.754 -4.94229 -0.987596 0
M  V30 3608 H 341.356 -3.73141 0.253274 0
M  V30 3609 H 343.648 -6.73007 -0.778941 0
M  V30 3610 H 344.591 -7.04508 0.712362 0
M  V30 3611 H 344.999 -5.63639 -0.311602 0
M  V30 3612 N 344.397 -0.483516 -1.5 0
M  V30 3613 C 345.813 -0.138404 -1.58999 0
M  V30 3614 C 346.013 1.35597 -1.4905 0
M  V30 3615 O 345.069 2.13039 -1.35539 0
M  V30 3616 C 346.382 -0.699658 -2.92447 0
M  V30 3617 C 347.93 -0.664195 -3.05872 0
M  V30 3618 C 348.405 -1.20321 -4.41913 0
M  V30 3619 N 349.896 -1.16315 -4.48358 0
M  V30 3620 C 350.631 -1.55058 -5.52037 0
M  V30 3621 N 350.127 -2.01311 -6.62907 0
M  V30 3622 N 351.92 -1.46584 -5.42651 0
M  V30 3623 H 344.071 -1.45529 -1.5471 0
M  V30 3624 H 346.334 -0.60258 -0.731848 0
M  V30 3625 H 346.04 -1.747 -3.05242 0
M  V30 3626 H 345.914 -0.150194 -3.76901 0
M  V30 3627 H 348.301 0.374272 -2.92717 0
M  V30 3628 H 348.382 -1.25061 -2.23144 0
M  V30 3629 H 348.026 -2.24037 -4.55818 0
M  V30 3630 H 347.956 -0.592896 -5.23252 0
M  V30 3631 H 350.447 -0.824058 -3.68806 0
M  V30 3632 H 350.76 -2.2899 -7.38095 0
M  V30 3633 H 349.105 -2.05273 -6.63994 0
M  V30 3634 H 352.296 -1.10281 -4.54924 0
M  V30 3635 H 352.469 -1.77103 -6.23329 0
M  V30 3636 N 345.875 1.56104 -0.216619 0
M  V30 3637 C 346.822 2.2007 0.695531 0
M  V30 3638 C 347.792 1.15471 1.19397 0
M  V30 3639 O 348.977 1.43807 1.25396 0
M  V30 3640 C 346.117 2.88073 1.90021 0
M  V30 3641 C 345.23 4.07253 1.44113 0
M  V30 3642 C 344.365 4.63052 2.603 0
M  V30 3643 C 343.404 5.74545 2.11103 0
M  V30 3644 N 342.541 6.24656 3.20545 0
M  V30 3645 H 347.381 2.97655 0.143327 0
M  V30 3646 H 344.918 1.46982 0.0589934 0
M  V30 3647 H 346.876 3.25681 2.60745 0
M  V30 3648 H 345.506 2.13015 2.42538 0
M  V30 3649 H 344.558 3.75164 0.628999 0
M  V30 3650 H 345.87 4.8783 1.04036 0
M  V30 3651 H 345.024 5.03078 3.39113 0
M  V30 3652 H 343.763 3.81628 3.03663 0
M  V30 3653 H 342.768 5.34027 1.3075 0
M  V30 3654 H 343.993 6.57801 1.68746 0
M  V30 3655 H 341.939 5.46148 3.63399 0
M  V30 3656 H 341.856 7.00343 2.84704 0
M  V30 3657 H 343.124 6.69338 3.99508 0
M  V30 3658 N 347.353 -0.0568162 1.57498 0
M  V30 3659 C 348.581 -0.765626 1.92213 0
M  V30 3660 C 348.996 -1.70353 0.813961 0
M  V30 3661 O 348.353 -1.81268 -0.211701 0
M  V30 3662 C 348.404 -1.5465 3.2675 0
M  V30 3663 O 348.125 -0.646278 4.33307 0
M  V30 3664 C 349.626 -2.35497 3.75574 0
M  V30 3665 H 346.846 -0.216835 0.634999 0
M  V30 3666 H 349.39 -0.0226146 2.04487 0
M  V30 3667 H 347.545 -2.24165 3.15957 0
M  V30 3668 H 347.959 -1.19093 5.108 0
M  V30 3669 H 349.433 -2.85722 4.72299 0
M  V30 3670 H 349.91 -3.15692 3.05344 0
M  V30 3671 H 350.516 -1.7111 3.8936 0
M  V30 3672 N 348.832 -1.54138 -0.328536 0
M  V30 3673 C 350.072 -1.73827 -1.07534 0
M  V30 3674 C 350.436 -0.498777 -1.85408 0
M  V30 3675 O 351.637 -0.572937 -2.62623 0
M  V30 3676 C 349.908 -2.97573 -1.97952 0
M  V30 3677 S 351.467 -3.38143 -2.79652 0
M  V30 3678 H 348.285 -0.611287 -0.36311 0
M  V30 3679 H 350.887 -1.92306 -0.351931 0
M  V30 3680 H 349.591 -3.85939 -1.39569 0
M  V30 3681 H 349.122 -2.81603 -2.74706 0
M  V30 3682 H 351.137 -2.93052 -4.00418 0
M  V30 3683 N 350.31 0.590341 -1.46126 0
M  V30 3684 C 351.558 1.34616 -1.50742 0
M  V30 3685 C 351.879 1.94363 -0.157486 0
M  V30 3686 O 351.149 1.78136 0.815136 0
M  V30 3687 H 349.729 0.499789 -0.555175 0
M  V30 3688 H 352.391 0.691953 -1.82203 0
M  V30 3689 H 351.487 2.15678 -2.25587 0
M  V30 3690 N 351.788 1.33704 0.83433 0
M  V30 3691 C 353.065 1.16011 1.57483 0
M  V30 3692 C 353.445 -0.27176 2.09343 0
M  V30 3693 O 352.793 -1.27146 1.89858 0
M  V30 3694 C 353.003 2.20507 2.70514 0
M  V30 3695 C 354.351 2.54898 3.39577 0
M  V30 3696 O 355.375 2.19209 2.80759 0
M  V30 3697 O 354.234 3.16158 4.45765 0
M  V30 3698 H 351.328 0.448992 0.694503 0
M  V30 3699 H 353.874 1.453 0.876691 0
M  V30 3700 H 352.646 3.16667 2.29865 0
M  V30 3701 H 352.269 1.92329 3.47987 0
M  V30 3702 N 353.266 -1.05314 1.17247 0
M  V30 3703 C 354.512 -1.78557 0.961513 0
M  V30 3704 C 354.845 -1.87419 -0.508697 0
M  V30 3705 O 354.12 -1.37307 -1.37757 0
M  V30 3706 C 354.403 -3.22514 1.60176 0
M  V30 3707 C 354.256 -3.21673 3.14399 0
M  V30 3708 C 355.575 -4.20318 1.30463 0
M  V30 3709 H 352.694 -0.6482 0.350723 0
M  V30 3710 H 355.336 -1.23102 1.44727 0
M  V30 3711 H 353.486 -3.69867 1.18871 0
M  V30 3712 H 355.158 -2.82405 3.64753 0
M  V30 3713 H 353.401 -2.60048 3.47214 0
M  V30 3714 H 354.072 -4.23271 3.54324 0
M  V30 3715 H 356.548 -3.81454 1.66229 0
M  V30 3716 H 355.424 -5.19289 1.77848 0
M  V30 3717 H 355.685 -4.41526 0.22521 0
M  V30 3718 N 354.744 -0.972509 -1.24016 0
M  V30 3719 C 355.674 -0.525548 -2.27509 0
M  V30 3720 C 356.655 0.437262 -1.64384 0
M  V30 3721 O 357.84 0.332343 -1.91335 0
M  V30 3722 C 354.97 0.180448 -3.46831 0
M  V30 3723 C 353.924 -0.698859 -4.22256 0
M  V30 3724 C 353.25 0.138903 -5.3452 0
M  V30 3725 C 354.55 -1.98582 -4.83076 0
M  V30 3726 H 356.244 -1.39058 -2.65148 0
M  V30 3727 H 353.79 -0.67009 -1.27459 0
M  V30 3728 H 355.743 0.504387 -4.18371 0
M  V30 3729 H 354.467 1.07987 -3.08231 0
M  V30 3730 H 353.126 -1.00614 -3.52523 0
M  V30 3731 H 352.774 1.03862 -4.9216 0
M  V30 3732 H 352.474 -0.446259 -5.85903 0
M  V30 3733 H 353.998 0.457404 -6.08884 0
M  V30 3734 H 355.412 -1.72715 -5.46665 0
M  V30 3735 H 353.809 -2.5181 -5.44713 0
M  V30 3736 H 354.879 -2.67769 -4.04262 0
M  V30 3737 N 356.222 1.38976 -0.743202 0
M  V30 3738 C 357.499 1.94351 -0.220705 0
M  V30 3739 C 357.879 1.67935 1.2791 0
M  V30 3740 O 357.227 1.01211 2.04862 0
M  V30 3741 C 357.437 3.44426 -0.563171 0
M  V30 3742 C 358.785 4.2144 -0.517046 0
M  V30 3743 O 359.809 3.52661 -0.500846 0
M  V30 3744 O 358.668 5.44032 -0.518806 0
M  V30 3745 H 355.762 0.825879 -0.043047 0
M  V30 3746 H 358.308 1.48429 -0.822618 0
M  V30 3747 H 357.08 3.5712 -1.59941 0
M  V30 3748 H 356.703 3.97543 0.0672883 0
M  V30 3749 N 357.7 0.491464 1.49741 0
M  V30 3750 C 358.648 -0.305837 2.30581 0
M  V30 3751 C 359.642 -0.971642 1.38764 0
M  V30 3752 O 360.848 -0.90042 1.5586 0
M  V30 3753 H 357.223 -0.117482 0.742767 0
M  V30 3754 H 359.194 0.396093 2.95759 0
M  V30 3755 C 357.943 -1.36319 3.19863 0
M  V30 3756 H 357.266 -0.860258 3.90435 0
M  V30 3757 H 358.706 -1.89323 3.79385 0
M  V30 3758 C 357.165 -2.37621 2.38826 0
M  V30 3759 O 357.695 -3.43311 2.08567 0
M  V30 3760 N 355.901 -2.09849 2.01026 0
M  V30 3761 H 355.448 -1.23922 2.25834 0
M  V30 3762 H 355.406 -2.77859 1.47112 0
M  V30 3763 N 359.178 -1.55987 0.224894 0
M  V30 3764 C 360.108 -2.23426 -0.678457 0
M  V30 3765 C 361.089 -1.20709 -1.19847 0
M  V30 3766 O 362.274 -1.49304 -1.24186 0
M  V30 3767 C 359.404 -2.91676 -1.88527 0
M  V30 3768 C 358.358 -4.00893 -1.49896 0
M  V30 3769 C 357.684 -4.56455 -2.78483 0
M  V30 3770 C 358.984 -5.17769 -0.686461 0
M  V30 3771 H 360.678 -2.99175 -0.116173 0
M  V30 3772 H 358.224 -1.43897 -0.054436 0
M  V30 3773 H 360.177 -3.37547 -2.5227 0
M  V30 3774 H 358.901 -2.1338 -2.47258 0
M  V30 3775 H 357.56 -3.55758 -0.884985 0
M  V30 3776 H 357.208 -3.74886 -3.35365 0
M  V30 3777 H 356.908 -5.30169 -2.53368 0
M  V30 3778 H 358.432 -5.05047 -3.43162 0
M  V30 3779 H 359.846 -5.60001 -1.22767 0
M  V30 3780 H 358.243 -5.97735 -0.532259 0
M  V30 3781 H 359.313 -4.83932 0.306196 0
M  V30 3782 N 360.656 0.0484629 -1.57525 0
M  V30 3783 C 361.603 1.05504 -2.05275 0
M  V30 3784 C 362.573 1.37084 -0.937927 0
M  V30 3785 O 363.758 1.47754 -1.2072 0
M  V30 3786 C 360.898 2.35676 -2.52093 0
M  V30 3787 C 360.011 2.10423 -3.77288 0
M  V30 3788 C 359.146 3.34327 -4.12794 0
M  V30 3789 C 358.185 3.04542 -5.30962 0
M  V30 3790 N 357.322 4.20841 -5.61994 0
M  V30 3791 H 362.162 0.640885 -2.91027 0
M  V30 3792 H 359.699 0.304854 -1.43906 0
M  V30 3793 H 361.657 3.11709 -2.77297 0
M  V30 3794 H 360.287 2.7485 -1.69285 0
M  V30 3795 H 359.339 1.24976 -3.59284 0
M  V30 3796 H 360.651 1.84438 -4.63448 0
M  V30 3797 H 359.805 4.1874 -4.39024 0
M  V30 3798 H 358.544 3.63408 -3.25247 0
M  V30 3799 H 357.549 2.18528 -5.04505 0
M  V30 3800 H 358.774 2.76758 -6.20146 0
M  V30 3801 H 356.72 4.4991 -4.77406 0
M  V30 3802 H 356.637 3.98212 -6.42622 0
M  V30 3803 H 357.905 5.06184 -5.92789 0
M  V30 3804 N 362.134 1.5431 0.320358 0
M  V30 3805 C 363.382 1.72327 1.05583 0
M  V30 3806 C 363.703 0.50149 1.88441 0
M  V30 3807 O 362.973 -0.48448 1.89815 0
M  V30 3808 H 361.553 0.635387 0.3928 0
M  V30 3809 H 364.215 1.91621 0.356019 0
M  V30 3810 H 363.311 2.60426 1.72003 0
M  V30 3811 N 363.613 -0.582584 1.46437 0
M  V30 3812 C 364.89 -1.34276 1.4223 0
M  V30 3813 C 365.27 -2.10835 0.10583 0
M  V30 3814 O 364.618 -2.09485 -0.912596 0
M  V30 3815 C 364.828 -2.26865 2.65204 0
M  V30 3816 C 366.176 -2.88691 3.11356 0
M  V30 3817 O 367.2 -2.37178 2.65753 0
M  V30 3818 O 366.059 -3.82255 3.90568 0
M  V30 3819 H 363.153 -0.603326 0.565621 0
M  V30 3820 H 365.699 -0.603591 1.58603 0
M  V30 3821 H 364.471 -1.69724 3.52576 0
M  V30 3822 H 364.094 -3.08122 2.5129 0
M  V30 3823 N 365.091 -1.34144 -0.827227 0
M  V30 3824 C 366.331 -1.27603 -1.59677 0
M  V30 3825 C 366.695 0.153035 -1.91389 0
M  V30 3826 O 367.896 0.342566 -2.66608 0
M  V30 3827 C 366.167 -2.13784 -2.86411 0
M  V30 3828 S 367.726 -2.24552 -3.76991 0
M  V30 3829 H 364.544 -0.453789 -0.547354 0
M  V30 3830 H 367.146 -1.69309 -0.977479 0
M  V30 3831 H 365.85 -3.16627 -2.61104 0
M  V30 3832 H 365.381 -1.72959 -3.5334 0
M  V30 3833 H 367.396 -1.41514 -4.75593 0
M  V30 3834 N 366.569 1.04691 -1.17803 0
M  V30 3835 C 367.799 1.81183 -0.992788 0
M  V30 3836 C 368.207 1.8347 0.462098 0
M  V30 3837 O 367.55 1.2643 1.33271 0
M  V30 3838 C 367.612 3.28363 -1.46349 0
M  V30 3839 C 367.276 3.49749 -2.94151 0
M  V30 3840 C 368.273 3.41456 -3.92051 0
M  V30 3841 C 365.958 3.76548 -3.32441 0
M  V30 3842 C 367.952 3.59656 -5.26238 0
M  V30 3843 C 365.639 3.94396 -4.66792 0
M  V30 3844 C 366.637 3.8595 -5.635 0
M  V30 3845 O 366.325 4.03294 -6.9542 0
M  V30 3846 H 366.057 0.577622 -0.351182 0
M  V30 3847 H 368.611 1.32876 -1.5663 0
M  V30 3848 H 366.841 3.77609 -0.833574 0
M  V30 3849 H 368.53 3.86395 -1.24313 0
M  V30 3850 H 369.296 3.20723 -3.63815 0
M  V30 3851 H 365.175 3.82224 -2.57732 0
M  V30 3852 H 368.719 3.52979 -6.01707 0
M  V30 3853 H 364.616 4.14622 -4.94731 0
M  V30 3854 H 365.384 4.2049 -7.02232 0
M  V30 3855 N 368.047 0.979072 1.23499 0
M  V30 3856 C 368.979 0.476271 2.24197 0
M  V30 3857 C 369.992 -0.421166 1.57258 0
M  V30 3858 O 371.181 -0.225515 1.7707 0
M  V30 3859 C 368.281 -0.330503 3.37285 0
M  V30 3860 C 367.454 0.559744 4.33804 0
M  V30 3861 C 366.513 -0.192954 5.25846 0
M  V30 3862 O 365.539 0.416978 5.67671 0
M  V30 3863 N 366.741 -1.47932 5.61334 0
M  V30 3864 H 369.506 1.34211 2.67969 0
M  V30 3865 H 367.067 0.852189 1.37657 0
M  V30 3866 H 369.059 -0.842361 3.95836 0
M  V30 3867 H 367.629 -1.09734 2.92707 0
M  V30 3868 H 366.849 1.25245 3.73775 0
M  V30 3869 H 368.137 1.1665 4.95248 0
M  V30 3870 H 367.535 -1.9964 5.29302 0
M  V30 3871 H 366.092 -1.93664 6.22364 0
M  V30 3872 N 369.525 -1.3858 0.750561 0
M  V30 3873 C 370.771 -2.00481 0.305825 0
M  V30 3874 C 371.104 -1.5944 -1.10872 0
M  V30 3875 O 370.379 -0.83052 -1.75877 0
M  V30 3876 C 370.662 -3.5758 0.425287 0
M  V30 3877 C 370.515 -4.08594 1.88072 0
M  V30 3878 C 371.834 -4.39719 -0.183122 0
M  V30 3879 H 368.953 -0.728348 0.112598 0
M  V30 3880 H 371.595 -1.64566 0.949638 0
M  V30 3881 H 369.745 -3.88306 -0.122828 0
M  V30 3882 H 371.417 -3.88523 2.48691 0
M  V30 3883 H 369.66 -3.61574 2.39681 0
M  V30 3884 H 370.331 -5.177 1.91548 0
M  V30 3885 H 372.807 -4.15128 0.284303 0
M  V30 3886 H 371.683 -5.48856 -0.0692757 0
M  V30 3887 H 371.944 -4.23434 -1.27106 0
M  V30 3888 N 371.003 -0.499398 -1.49478 0
M  V30 3889 C 371.933 0.269244 -2.31943 0
M  V30 3890 C 372.914 0.964054 -1.40143 0
M  V30 3891 O 374.099 0.955767 -1.69052 0
M  V30 3892 C 371.229 1.33504 -3.20615 0
M  V30 3893 C 370.183 0.760202 -4.21195 0
M  V30 3894 C 369.509 1.9264 -4.98792 0
M  V30 3895 C 370.809 -0.247661 -5.21712 0
M  V30 3896 H 372.503 -0.419082 -2.96452 0
M  V30 3897 H 370.049 -0.202988 -1.42562 0
M  V30 3898 H 372.002 1.88048 -3.77115 0
M  V30 3899 H 370.726 2.05253 -2.54045 0
M  V30 3900 H 369.385 0.23653 -3.65836 0
M  V30 3901 H 369.033 2.63154 -4.28671 0
M  V30 3902 H 368.733 1.54785 -5.66847 0
M  V30 3903 H 370.257 2.4762 -5.58137 0
M  V30 3904 H 371.671 0.209579 -5.72917 0
M  V30 3905 H 370.068 -0.541962 -5.97648 0
M  V30 3906 H 371.138 -1.16409 -4.7072 0
M  V30 3907 N 372.481 1.55866 -0.233164 0
M  V30 3908 C 373.73 1.97779 0.39579 0
M  V30 3909 C 374.043 1.12419 1.60066 0
M  V30 3910 O 375.249 1.44283 2.29988 0
M  V30 3911 C 373.705 3.5188 0.755556 0
M  V30 3912 C 373.313 4.45959 -0.427152 0
M  V30 3913 C 375.057 4.02479 1.34946 0
M  V30 3914 C 372.964 5.91383 -0.0443043 0
M  V30 3915 H 371.894 0.738592 0.15165 0
M  V30 3916 H 374.545 1.80486 -0.331212 0
M  V30 3917 H 372.927 3.64816 1.5403 0
M  V30 3918 H 374.101 4.44776 -1.20462 0
M  V30 3919 H 372.416 4.05765 -0.935068 0
M  V30 3920 H 375.013 5.08637 1.649 0
M  V30 3921 H 375.356 3.49014 2.26925 0
M  V30 3922 H 375.889 3.92813 0.62791 0
M  V30 3923 H 372.628 6.48857 -0.930874 0
M  V30 3924 H 372.148 5.95734 0.697238 0
M  V30 3925 H 373.827 6.45893 0.378334 0
M  V30 3926 N 373.959 -0.0401083 1.57549 0
M  V30 3927 C 374.869 -1.06133 2.0922 0
M  V30 3928 C 375.885 -1.40356 1.0284 0
M  V30 3929 O 377.061 -1.49897 1.34509 0
M  V30 3930 C 374.126 -2.34658 2.55218 0
M  V30 3931 C 373.187 -2.07117 3.76033 0
M  V30 3932 C 372.42 -3.29514 4.19829 0
M  V30 3933 O 372.643 -4.39794 3.63232 0
M  V30 3934 O 371.577 -3.15863 5.12362 0
M  V30 3935 H 375.403 -0.652244 2.96613 0
M  V30 3936 H 372.988 -0.256368 1.47184 0
M  V30 3937 H 374.87 -3.10239 2.85184 0
M  V30 3938 H 373.545 -2.74883 1.70941 0
M  V30 3939 H 372.452 -1.29139 3.51104 0
M  V30 3940 H 373.785 -1.71754 4.61261 0
M  V30 3941 N 375.437 -1.54477 -0.31217 0
M  V30 3942 C 376.714 -1.63891 -1.06767 0
M  V30 3943 C 377.094 -0.480028 -2.0557 0
M  V30 3944 O 376.442 0.524487 -2.22399 0
M  V30 3945 C 376.652 -3.01402 -1.75948 0
M  V30 3946 C 378 -3.57838 -2.28554 0
M  V30 3947 O 379.024 -3.03782 -1.85998 0
M  V30 3948 O 377.883 -4.52462 -3.06497 0
M  V30 3949 H 374.977 -0.664125 -0.492816 0
M  V30 3950 H 377.523 -1.66823 -0.311149 0
M  V30 3951 H 376.295 -3.77187 -1.04144 0
M  V30 3952 H 375.918 -3.02199 -2.58383 0
M  V30 3953 N 376.915 0.57481 -1.46744 0
M  V30 3954 C 378.155 1.34369 -1.54027 0
M  V30 3955 C 378.519 1.91051 -0.190642 0
M  V30 3956 O 379.72 2.68444 -0.138255 0
M  V30 3957 C 377.991 2.43706 -2.61423 0
M  V30 3958 S 379.55 3.30915 -2.88167 0
M  V30 3959 H 376.368 0.45768 -0.544105 0
M  V30 3960 H 378.97 0.659959 -1.84024 0
M  V30 3961 H 377.674 2.0047 -3.58106 0
M  V30 3962 H 377.205 3.16842 -2.33184 0
M  V30 3963 H 379.22 4.42742 -2.24039 0
M  V30 3964 N 378.394 1.34581 0.820102 0
M  V30 3965 C 379.643 1.26437 1.57151 0
M  V30 3966 C 379.956 -0.163111 1.94919 0
M  V30 3967 O 381.162 -0.366722 2.69012 0
M  V30 3968 C 379.618 2.21658 2.83541 0
M  V30 3969 C 379.226 3.69679 2.53065 0
M  V30 3970 C 380.97 2.22428 3.61561 0
M  V30 3971 C 378.877 4.56761 3.75664 0
M  V30 3972 H 377.807 0.469707 0.589823 0
M  V30 3973 H 380.458 1.59763 0.902656 0
M  V30 3974 H 378.84 1.81287 3.52067 0
M  V30 3975 H 380.014 4.18605 1.92631 0
M  V30 3976 H 378.329 3.71384 1.88316 0
M  V30 3977 H 380.926 2.8471 4.52597 0
M  V30 3978 H 381.269 1.22434 3.97889 0
M  V30 3979 H 381.802 2.61259 2.99981 0
M  V30 3980 H 378.541 5.57702 3.44454 0
M  V30 3981 H 378.061 4.12568 4.35371 0
M  V30 3982 H 379.74 4.71509 4.43044 0
M  V30 3983 N 379.872 -1.04064 1.18357 0
M  V30 3984 C 381.283 -1.58719 0.98312 0
M  V30 3985 C 381.634 -1.90556 -0.467193 0
M  V30 3986 O 380.759 -1.69561 -1.34454 0
M  V30 3987 C 381.354 -2.88379 1.77828 0
M  V30 3988 C 379.913 -3.3965 1.62218 0
M  V30 3989 C 379.06 -2.13235 1.77274 0
M  V30 3990 H 382.011 -0.867359 1.32901 0
M  V30 3991 H 382.032 -3.58773 1.26737 0
M  V30 3992 H 381.544 -2.65176 2.83379 0
M  V30 3993 H 379.645 -3.67866 0.592036 0
M  V30 3994 H 379.758 -4.13475 2.42023 0
M  V30 3995 H 378.122 -2.24542 1.20221 0
M  V30 3996 H 378.905 -1.92487 2.8426 0
M  V30 3997 N 381.35 -0.985608 -1.22978 0
M  V30 3998 C 382.596 -0.65836 -1.91816 0
M  V30 3999 C 382.929 0.806692 -1.76653 0
M  V30 4000 O 382.204 1.58252 -1.13078 0
M  V30 4001 C 382.487 -1.056 -3.44268 0
M  V30 4002 C 382.34 -2.57906 -3.68516 0
M  V30 4003 C 383.659 -0.603781 -4.35939 0
M  V30 4004 H 380.778 -0.24065 -0.696604 0
M  V30 4005 H 383.42 -1.22783 -1.44998 0
M  V30 4006 H 381.57 -0.571445 -3.84274 0
M  V30 4007 H 383.242 -3.13976 -3.3796 0
M  V30 4008 H 381.485 -3.00305 -3.13048 0
M  V30 4009 H 382.156 -2.80779 -4.75255 0
M  V30 4010 H 384.632 -1.01987 -4.03408 0
M  V30 4011 H 383.508 -0.910383 -5.41298 0
M  V30 4012 H 383.769 0.495761 -4.39312 0
M  V30 4013 N 382.828 1.3818 -0.7579 0
M  V30 4014 C 383.758 2.33027 -0.148597 0
M  V30 4015 C 384.739 1.55085 0.69875 0
M  V30 4016 O 385.924 1.83384 0.639053 0
M  V30 4017 C 383.054 3.3928 0.742034 0
M  V30 4018 C 382.008 4.28 -0.00291946 0
M  V30 4019 C 381.334 5.25146 1.00625 0
M  V30 4020 C 382.634 5.08938 -1.17385 0
M  V30 4021 H 384.328 2.84231 -0.940909 0
M  V30 4022 H 381.874 1.36659 -0.453908 0
M  V30 4023 H 383.827 4.046 1.17799 0
M  V30 4024 H 382.551 2.86569 1.56671 0
M  V30 4025 H 381.21 3.64192 -0.419504 0
M  V30 4026 H 380.858 4.68721 1.8251 0
M  V30 4027 H 380.558 5.85361 0.512428 0
M  V30 4028 H 382.082 5.93342 1.44143 0
M  V30 4029 H 383.496 5.67474 -0.815224 0
M  V30 4030 H 381.893 5.7841 -1.59882 0
M  V30 4031 H 382.963 4.42424 -1.98468 0
M  V30 4032 N 384.306 0.507319 1.49211 0
M  V30 4033 C 385.253 -0.267728 2.29242 0
M  V30 4034 C 386.223 -0.954609 1.35928 0
M  V30 4035 O 387.408 -0.960046 1.64887 0
M  V30 4036 C 384.548 -1.32243 3.18756 0
M  V30 4037 C 383.661 -0.64669 4.27132 0
M  V30 4038 C 382.796 -1.68238 5.03855 0
M  V30 4039 C 381.835 -0.98885 6.0406 0
M  V30 4040 N 380.972 -1.96903 6.73924 0
M  V30 4041 H 385.812 0.420968 2.95012 0
M  V30 4042 H 383.349 0.219443 1.45454 0
M  V30 4043 H 385.307 -1.94599 3.69036 0
M  V30 4044 H 383.937 -1.97981 2.54958 0
M  V30 4045 H 382.989 0.0902926 3.80293 0
M  V30 4046 H 384.301 -0.101058 4.98698 0
M  V30 4047 H 383.455 -2.38081 5.58034 0
M  V30 4048 H 382.194 -2.26187 4.32077 0
M  V30 4049 H 381.199 -0.276222 5.49106 0
M  V30 4050 H 382.424 -0.415767 6.77826 0
M  V30 4051 H 380.37 -2.53803 6.04913 0
M  V30 4052 H 380.287 -1.47423 7.41487 0
M  V30 4053 H 381.555 -2.66015 7.32705 0
M  V30 4054 N 385.784 -1.5574 0.241426 0
M  V30 4055 C 387.2 -1.59196 -0.113548 0
M  V30 4056 C 387.4 -1.25852 -1.57364 0
M  V30 4057 O 386.456 -1.00322 -2.31715 0
M  V30 4058 C 387.769 -2.99814 0.230695 0
M  V30 4059 C 389.317 -3.12513 0.174547 0
M  V30 4060 C 389.792 -4.55342 0.492744 0
M  V30 4061 N 391.283 -4.61076 0.443043 0
M  V30 4062 C 392.018 -5.6956 0.662484 0
M  V30 4063 N 391.514 -6.86328 0.944761 0
M  V30 4064 N 393.307 -5.58957 0.593564 0
M  V30 4065 H 385.458 -1.75685 1.19368 0
M  V30 4066 H 387.721 -0.81756 0.479896 0
M  V30 4067 H 387.427 -3.28932 1.24485 0
M  V30 4068 H 387.301 -3.74568 -0.444833 0
M  V30 4069 H 389.688 -2.83179 -0.830277 0
M  V30 4070 H 389.769 -2.40045 0.883845 0
M  V30 4071 H 389.413 -4.85396 1.4951 0
M  V30 4072 H 389.343 -5.26062 -0.23797 0
M  V30 4073 H 391.834 -3.77179 0.233374 0
M  V30 4074 H 392.147 -7.64935 1.09977 0
M  V30 4075 H 390.492 -6.88025 0.982175 0
M  V30 4076 H 393.683 -4.66611 0.373123 0
M  V30 4077 H 393.856 -6.43433 0.767981 0
M  V30 4078 N 387.262 0.0317525 -1.57568 0
M  V30 4079 C 388.492 0.733884 -1.93126 0
M  V30 4080 C 388.9 1.69563 -0.839352 0
M  V30 4081 O 388.243 1.82681 0.193175 0
M  V30 4082 C 388.305 1.54798 -3.24465 0
M  V30 4083 C 387.969 0.751304 -4.50782 0
M  V30 4084 C 388.966 0.0527632 -5.19873 0
M  V30 4085 C 386.651 0.706639 -4.97305 0
M  V30 4086 C 388.645 -0.679774 -6.33765 0
M  V30 4087 C 386.332 -0.0296449 -6.11093 0
M  V30 4088 C 387.33 -0.721614 -6.79177 0
M  V30 4089 O 387.018 -1.44595 -7.90789 0
M  V30 4090 H 386.75 0.211459 -0.642076 0
M  V30 4091 H 389.304 -0.00585615 -2.05399 0
M  V30 4092 H 387.534 2.33147 -3.08512 0
M  V30 4093 H 389.223 2.13247 -3.4537 0
M  V30 4094 H 389.989 0.0783188 -4.84937 0
M  V30 4095 H 385.868 1.23474 -4.44157 0
M  V30 4096 H 389.412 -1.22042 -6.86842 0
M  V30 4097 H 385.309 -0.0571331 -6.45475 0
M  V30 4098 H 386.077 -1.35935 -8.07133 0
M  V30 4099 N 388.74 1.54641 0.303973 0
M  V30 4100 C 389.703 1.84646 1.35789 0
M  V30 4101 C 390.703 0.7192 1.4382 0
M  V30 4102 O 391.893 0.987491 1.43507 0
M  V30 4103 C 389.025 2.02407 2.74307 0
M  V30 4104 H 390.218 2.78829 1.10429 0
M  V30 4105 H 387.771 1.46658 0.540487 0
M  V30 4106 H 388.506 1.10502 3.04893 0
M  V30 4107 H 388.291 2.84453 2.69868 0
M  V30 4108 H 389.781 2.27002 3.50514 0
M  V30 4109 N 390.218 -0.567019 1.47046 0
M  V30 4110 C 391.165 -1.67489 1.58796 0
M  V30 4111 C 392.135 -1.60399 0.43144 0
M  V30 4112 O 393.32 -1.79378 0.650233 0
M  V30 4113 C 390.46 -3.05821 1.59899 0
M  V30 4114 C 389.573 -3.2342 2.86397 0
M  V30 4115 C 388.708 -4.52093 2.789 0
M  V30 4116 C 387.747 -4.6309 4.00267 0
M  V30 4117 N 386.884 -5.83106 3.91064 0
M  V30 4118 H 391.724 -1.56785 2.53422 0
M  V30 4119 H 389.261 -0.763896 1.2571 0
M  V30 4120 H 391.219 -3.8591 1.58522 0
M  V30 4121 H 389.849 -3.15384 0.687929 0
M  V30 4122 H 388.901 -2.3683 2.97684 0
M  V30 4123 H 390.213 -3.27412 3.76301 0
M  V30 4124 H 389.367 -5.4043 2.75718 0
M  V30 4125 H 388.106 -4.50565 1.86662 0
M  V30 4126 H 387.111 -3.73168 4.03765 0
M  V30 4127 H 388.336 -4.66386 4.93621 0
M  V30 4128 H 386.282 -5.82546 3.01623 0
M  V30 4129 H 386.199 -5.88434 4.74638 0
M  V30 4130 H 387.467 -6.73831 3.91882 0
M  V30 4131 N 391.696 -1.35014 -0.812953 0
M  V30 4132 C 392.606 -1.2951 -1.95613 0
M  V30 4133 C 393.622 -0.20107 -1.72834 0
M  V30 4134 O 394.798 -0.42932 -1.96771 0
M  V30 4135 C 391.863 -1.06033 -3.30088 0
M  V30 4136 C 390.924 -2.24688 -3.65805 0
M  V30 4137 C 390.157 -2.02322 -4.93864 0
M  V30 4138 O 390.38 -0.986464 -5.61805 0
M  V30 4139 O 389.314 -2.89525 -5.27692 0
M  V30 4140 H 393.14 -2.25705 -2.03202 0
M  V30 4141 H 390.725 -1.15321 -0.949811 0
M  V30 4142 H 392.607 -0.94763 -4.10607 0
M  V30 4143 H 391.282 -0.128852 -3.23443 0
M  V30 4144 H 390.189 -2.41521 -2.85689 0
M  V30 4145 H 391.522 -3.16261 -3.77147 0
M  V30 4146 N 393.175 1.03435 -1.18907 0
M  V30 4147 C 394.423 1.76394 -0.986382 0
M  V30 4148 C 394.744 1.88883 0.484567 0
M  V30 4149 O 394.014 1.41843 1.3512 0
M  V30 4150 H 392.594 0.65344 -0.361975 0
M  V30 4151 H 395.256 1.248 -1.49703 0
M  V30 4152 H 394.352 2.77424 -1.42978 0
M  V30 4153 N 394.653 0.992116 1.22453 0
M  V30 4154 C 396.069 0.702713 1.43297 0
M  V30 4155 C 396.269 -0.726909 1.87932 0
M  V30 4156 O 395.325 -1.49792 2.0327 0
M  V30 4157 C 396.638 1.70762 2.47509 0
M  V30 4158 C 398.186 1.72298 2.61309 0
M  V30 4159 C 398.661 2.71649 3.68742 0
M  V30 4160 N 400.152 2.70239 3.76199 0
M  V30 4161 C 400.887 3.43778 4.58917 0
M  V30 4162 N 400.383 4.26914 5.45633 0
M  V30 4163 N 402.176 3.32487 4.5322 0
M  V30 4164 H 394.327 1.91543 0.917871 0
M  V30 4165 H 396.59 0.826031 0.465162 0
M  V30 4166 H 396.296 2.73059 2.21657 0
M  V30 4167 H 396.17 1.49985 3.46099 0
M  V30 4168 H 398.557 0.706989 2.86506 0
M  V30 4169 H 398.638 1.97143 1.62997 0
M  V30 4170 H 398.282 3.73397 3.44292 0
M  V30 4171 H 398.212 2.44074 4.66622 0
M  V30 4172 H 400.703 2.09912 3.14237 0
M  V30 4173 H 401.016 4.79855 6.05771 0
M  V30 4174 H 399.361 4.31002 5.45218 0
M  V30 4175 H 402.552 2.6698 3.84499 0
M  V30 4176 H 402.725 3.90058 5.17454 0
M  V30 4177 N 396.131 -1.37776 0.765217 0
M  V30 4178 C 397.041 -2.34135 0.147666 0
M  V30 4179 C 398.057 -1.59854 -0.687215 0
M  V30 4180 O 399.233 -1.91983 -0.608659 0
M  V30 4181 C 396.298 -3.3901 -0.72617 0
M  V30 4182 C 395.359 -4.2912 0.124417 0
M  V30 4183 C 394.592 -5.28986 -0.707807 0
M  V30 4184 O 394.815 -5.36205 -1.94525 0
M  V30 4185 O 393.749 -6.01779 -0.12046 0
M  V30 4186 H 397.575 -2.88664 0.943758 0
M  V30 4187 H 395.16 -1.39824 0.526277 0
M  V30 4188 H 397.042 -4.03195 -1.22524 0
M  V30 4189 H 395.717 -2.86819 -1.50056 0
M  V30 4190 H 394.624 -3.68057 0.669696 0
M  V30 4191 H 395.957 -4.84598 0.861736 0
M  V30 4192 N 397.609 -0.515225 -1.4894 0
M  V30 4193 C 398.856 0.024215 -2.02486 0
M  V30 4194 C 399.184 1.35671 -1.39368 0
M  V30 4195 O 398.439 1.88566 -0.523574 0
M  V30 4196 C 398.738 0.210595 -3.56779 0
M  V30 4197 C 398.404 -1.04569 -4.38607 0
M  V30 4198 C 397.066 -1.39002 -4.60686 0
M  V30 4199 C 399.418 -1.88008 -4.86109 0
M  V30 4200 C 396.746 -2.568 -5.27514 0
M  V30 4201 C 399.098 -3.04972 -5.54234 0
M  V30 4202 C 397.762 -3.39768 -5.74555 0
M  V30 4203 H 397.032 0.00886088 -0.740947 0
M  V30 4204 H 399.679 -0.678263 -1.79086 0
M  V30 4205 H 397.984 0.99572 -3.78936 0
M  V30 4206 H 399.681 0.642659 -3.95817 0
M  V30 4207 H 396.271 -0.767497 -4.21672 0
M  V30 4208 H 400.455 -1.62719 -4.68867 0
M  V30 4209 H 395.711 -2.8398 -5.41447 0
M  V30 4210 H 399.885 -3.69943 -5.90013 0
M  V30 4211 H 397.512 -4.31148 -6.26112 0
M  V30 4212 N 399.087 1.5561 -0.249682 0
M  V30 4213 C 400.364 1.90932 0.424761 0
M  V30 4214 C 400.744 1.17078 1.75658 0
M  V30 4215 O 400.092 0.289176 2.26663 0
M  V30 4216 C 400.302 3.43975 0.590109 0
M  V30 4217 C 401.65 4.15281 0.884714 0
M  V30 4218 O 402.674 3.49729 0.67587 0
M  V30 4219 O 401.533 5.31236 1.28259 0
M  V30 4220 H 398.627 0.794815 0.228468 0
M  V30 4221 H 401.173 1.67135 -0.293954 0
M  V30 4222 H 399.945 3.89748 -0.34818 0
M  V30 4223 H 399.568 3.73644 1.35926 0
M  V30 4224 N 400.565 -0.0233959 1.57583 0
M  V30 4225 C 401.795 -0.723631 1.93513 0
M  V30 4226 C 402.203 -1.69115 0.848333 0
M  V30 4227 O 401.546 -1.82781 -0.183484 0
M  V30 4228 C 401.608 -1.53075 3.25282 0
M  V30 4229 C 401.272 -0.727388 4.51174 0
M  V30 4230 C 402.269 -0.0251924 5.19894 0
M  V30 4231 C 399.954 -0.680256 4.97672 0
M  V30 4232 C 401.948 0.713374 6.33395 0
M  V30 4233 C 399.635 0.0620523 6.11068 0
M  V30 4234 C 400.633 0.757622 6.78785 0
M  V30 4235 O 400.321 1.48787 7.90011 0
M  V30 4236 H 400.053 -0.208051 0.643188 0
M  V30 4237 H 402.607 0.0167489 2.05393 0
M  V30 4238 H 400.837 -2.31508 3.09744 0
M  V30 4239 H 402.526 -2.11413 3.46496 0
M  V30 4240 H 403.292 -0.0526003 4.84971 0
M  V30 4241 H 399.171 -1.21116 4.44805 0
M  V30 4242 H 402.715 1.25683 6.86185 0
M  V30 4243 H 398.612 0.0913634 6.45435 0
M  V30 4244 H 399.38 1.40213 8.06401 0
M  V30 4245 N 402.043 -1.548 -0.295768 0
M  V30 4246 C 403.289 -1.74588 -1.03184 0
M  V30 4247 C 403.622 -0.532962 -1.86744 0
M  V30 4248 O 402.897 0.469872 -1.88739 0
M  V30 4249 C 403.18 -3.03791 -1.93347 0
M  V30 4250 C 403.033 -4.35392 -1.12933 0
M  V30 4251 C 404.352 -3.28892 -2.92435 0
M  V30 4252 H 401.471 -0.635221 -0.373715 0
M  V30 4253 H 404.113 -1.87519 -0.30606 0
M  V30 4254 H 402.263 -2.92898 -2.55232 0
M  V30 4255 H 403.935 -4.58211 -0.532943 0
M  V30 4256 H 402.178 -4.31642 -0.432168 0
M  V30 4257 H 402.849 -5.22074 -1.79284 0
M  V30 4258 H 405.325 -3.39429 -2.4068 0
M  V30 4259 H 404.201 -4.20603 -3.52682 0
M  V30 4260 H 404.462 -2.47437 -3.6637 0
M  V30 4261 N 403.521 0.559213 -1.47345 0
M  V30 4262 C 404.77 1.31281 -1.53128 0
M  V30 4263 C 405.083 1.94602 -0.197344 0
M  V30 4264 O 406.289 2.71173 -0.133154 0
M  V30 4265 C 404.745 2.38051 -2.69925 0
M  V30 4266 C 404.353 1.8093 -4.0984 0
M  V30 4267 C 406.097 3.14604 -2.84999 0
M  V30 4268 C 404.004 2.85468 -5.1794 0
M  V30 4269 H 402.934 0.493614 -0.569966 0
M  V30 4270 H 405.585 0.594155 -1.73615 0
M  V30 4271 H 403.967 3.12822 -2.42814 0
M  V30 4272 H 405.141 1.12544 -4.46845 0
M  V30 4273 H 403.456 1.16967 -3.99634 0
M  V30 4274 H 406.053 3.92666 -3.62929 0
M  V30 4275 H 406.396 3.68665 -1.93369 0
M  V30 4276 H 406.929 2.46945 -3.1187 0
M  V30 4277 H 403.668 2.36264 -6.1144 0
M  V30 4278 H 403.188 3.52269 -4.85455 0
M  V30 4279 H 404.867 3.48996 -5.44803 0
M  V30 4280 N 404.999 1.35443 0.805782 0
M  V30 4281 C 405.947 1.28465 1.93906 0
M  V30 4282 C 406.941 0.17943 1.68447 0
M  V30 4283 O 408.147 0.345459 1.76654 0
M  V30 4284 H 404.522 0.399528 0.637088 0
M  V30 4285 H 406.493 2.24206 1.96912 0
M  V30 4286 C 405.242 1.07432 3.30687 0
M  V30 4287 H 404.565 1.91716 3.50835 0
M  V30 4288 H 406.005 1.06591 4.10383 0
M  V30 4289 C 404.464 -0.22179 3.36169 0
M  V30 4290 O 404.994 -1.21731 3.82811 0
M  V30 4291 N 403.2 -0.260841 2.89427 0
M  V30 4292 H 402.747 0.549884 2.51663 0
M  V30 4293 H 402.705 -1.12777 2.93477 0
M  V30 4294 N 406.477 -1.02803 1.19454 0
M  V30 4295 C 407.754 -1.73299 0.907013 0
M  V30 4296 C 408.134 -2.02772 -0.587086 0
M  V30 4297 O 407.482 -1.68304 -1.54551 0
M  V30 4298 C 407.692 -3.00912 1.76785 0
M  V30 4299 C 409.04 -3.74403 2.00268 0
M  V30 4300 O 410.064 -3.10841 1.73943 0
M  V30 4301 O 408.923 -4.88675 2.4466 0
M  V30 4302 H 406.017 -0.754727 0.338106 0
M  V30 4303 H 408.563 -1.08754 1.30271 0
M  V30 4304 H 407.335 -2.75366 2.7801 0
M  V30 4305 H 406.958 -3.73197 1.37149 0
M  V30 4306 N 407.956 -0.998596 -1.21925 0
M  V30 4307 C 408.886 -0.573688 -2.26343 0
M  V30 4308 C 409.867 0.402296 -1.65274 0
M  V30 4309 O 411.052 0.291683 -1.91997 0
M  V30 4310 C 408.182 0.106839 -3.47136 0
M  V30 4311 C 407.136 -0.788269 -4.20678 0
M  V30 4312 C 406.462 0.0254927 -5.34694 0
M  V30 4313 C 407.762 -2.08784 -4.78755 0
M  V30 4314 H 409.456 -1.44651 -2.62138 0
M  V30 4315 H 407.002 -0.696975 -1.26009 0
M  V30 4316 H 408.955 0.415531 -4.19346 0
M  V30 4317 H 407.679 1.01424 -3.10452 0
M  V30 4318 H 406.338 -1.08069 -3.50309 0
M  V30 4319 H 405.986 0.933989 -4.94253 0
M  V30 4320 H 405.686 -0.570437 -5.84825 0
M  V30 4321 H 407.21 0.328147 -6.09718 0
M  V30 4322 H 408.624 -1.84272 -5.42878 0
M  V30 4323 H 407.021 -2.63307 -5.39249 0
M  V30 4324 H 408.091 -2.76284 -3.98491 0
M  V30 4325 N 409.434 1.37368 -0.772513 0
M  V30 4326 C 410.662 2.03942 -0.348588 0
M  V30 4327 C 411.077 1.58264 1.02947 0
M  V30 4328 O 410.434 0.764246 1.65727 0
M  V30 4329 C 410.485 3.5946 -0.38351 0
M  V30 4330 O 410.206 4.03468 -1.70721 0
M  V30 4331 C 411.707 4.4327 0.0519152 0
M  V30 4332 H 408.927 0.654931 -0.145966 0
M  V30 4333 H 411.471 1.75686 -1.04665 0
M  V30 4334 H 409.626 3.86486 0.265978 0
M  V30 4335 H 410.04 4.97991 -1.64636 0
M  V30 4336 H 411.514 5.51995 -0.0236733 0
M  V30 4337 H 411.991 4.2514 1.10238 0
M  V30 4338 H 412.597 4.21471 -0.569415 0
M  V30 4339 N 410.912 0.523116 1.48665 0
M  V30 4340 C 411.875 -0.232592 2.28017 0
M  V30 4341 C 412.875 -0.874021 1.34972 0
M  V30 4342 O 414.065 -0.735132 1.57929 0
M  V30 4343 C 411.197 -1.33586 3.13636 0
M  V30 4344 H 412.39 0.464008 2.96289 0
M  V30 4345 H 409.943 0.278816 1.53793 0
M  V30 4346 H 410.678 -2.06593 2.4998 0
M  V30 4347 H 410.463 -0.881125 3.82071 0
M  V30 4348 H 411.953 -1.86759 3.73511 0
M  V30 4349 N 412.39 -1.55475 0.257931 0
M  V30 4350 C 413.636 -1.99502 -0.364266 0
M  V30 4351 C 413.969 -1.146 -1.56782 0
M  V30 4352 O 413.244 -0.211968 -1.93342 0
M  V30 4353 C 413.527 -3.51917 -0.763333 0
M  V30 4354 C 413.38 -4.4758 0.446371 0
M  V30 4355 C 414.699 -4.09742 -1.60623 0
M  V30 4356 H 411.818 -0.725277 -0.130929 0
M  V30 4357 H 414.46 -1.8653 0.361446 0
M  V30 4358 H 412.61 -3.63101 -1.38166 0
M  V30 4359 H 414.282 -4.48362 1.08487 0
M  V30 4360 H 412.525 -4.19947 1.08753 0
M  V30 4361 H 413.196 -5.51862 0.123645 0
M  V30 4362 H 415.672 -4.01727 -1.08418 0
M  V30 4363 H 414.548 -5.16631 -1.85429 0
M  V30 4364 H 414.809 -3.58889 -2.58169 0
M  V30 4365 N 413.868 0.0150385 -1.57593 0
M  V30 4366 C 415.279 0.559832 -1.78109 0
M  V30 4367 C 415.63 1.74814 -0.890756 0
M  V30 4368 O 414.755 2.16216 -0.0892482 0
M  V30 4369 C 415.35 1.02238 -3.23006 0
M  V30 4370 C 413.909 1.51258 -3.44671 0
M  V30 4371 C 413.056 0.456955 -2.73509 0
M  V30 4372 H 416.007 -0.211169 -1.57289 0
M  V30 4373 H 416.028 1.88912 -3.30292 0
M  V30 4374 H 415.54 0.157302 -3.87781 0
M  V30 4375 H 413.641 2.39905 -2.8509 0
M  V30 4376 H 413.754 1.55042 -4.5332 0
M  V30 4377 H 412.118 0.915196 -2.37689 0
M  V30 4378 H 412.901 -0.398896 -3.40975 0
M  V30 4379 N 415.346 1.54954 0.287554 0
M  V30 4380 C 416.595 1.74081 1.01877 0
M  V30 4381 C 416.908 0.541135 1.87966 0
M  V30 4382 O 418.114 0.614491 2.64455 0
M  V30 4383 C 416.57 3.08042 1.86113 0
M  V30 4384 C 416.178 4.35531 1.04961 0
M  V30 4385 C 417.922 3.36523 2.58752 0
M  V30 4386 C 415.829 5.60538 1.88551 0
M  V30 4387 H 414.759 0.64884 0.384087 0
M  V30 4388 H 417.41 1.81426 0.275101 0
M  V30 4389 H 415.792 2.94696 2.64519 0
M  V30 4390 H 416.966 4.59751 0.31074 0
M  V30 4391 H 415.281 4.14085 0.43843 0
M  V30 4392 H 417.878 4.27122 3.21668 0
M  V30 4393 H 418.221 2.56 3.28283 0
M  V30 4394 H 418.754 3.50901 1.87386 0
M  V30 4395 H 415.493 6.43767 1.23466 0
M  V30 4396 H 415.013 5.40483 2.60074 0
M  V30 4397 H 416.692 5.98297 2.46273 0
M  V30 4398 N 416.824 -0.551391 1.4764 0
M  V30 4399 C 418.049 -1.33837 1.58437 0
M  V30 4400 C 418.474 -1.866 0.237063 0
M  V30 4401 O 417.832 -1.6328 -0.787994 0
M  V30 4402 C 417.88 -2.48014 2.61766 0
M  V30 4403 O 416.984 -3.50419 2.1744 0
M  V30 4404 H 416.325 -0.397299 0.532024 0
M  V30 4405 H 418.855 -0.665759 1.93465 0
M  V30 4406 H 418.865 -2.94503 2.82369 0
M  V30 4407 H 417.54 -2.08969 3.5959 0
M  V30 4408 H 416.117 -3.10196 2.06961 0
M  V30 4409 N 418.302 -1.35869 -0.798587 0
M  V30 4410 C 419.53 -1.32722 -1.58722 0
M  V30 4411 C 419.945 0.0935631 -1.88568 0
M  V30 4412 O 419.302 1.04784 -1.49421 0
M  V30 4413 C 419.353 -2.13974 -2.91371 0
M  V30 4414 O 419.074 -3.50514 -2.62815 0
M  V30 4415 C 420.575 -2.18504 -3.85708 0
M  V30 4416 H 417.795 -0.45562 -0.492596 0
M  V30 4417 H 420.339 -1.78837 -0.991843 0
M  V30 4418 H 418.494 -1.71438 -3.47402 0
M  V30 4419 H 418.908 -3.92806 -3.47568 0
M  V30 4420 H 420.382 -2.79732 -4.75872 0
M  V30 4421 H 420.859 -1.18597 -4.22885 0
M  V30 4422 H 421.465 -2.61236 -3.35612 0
M  V30 4423 N 419.78 1.02168 -1.19998 0
M  V30 4424 C 421.005 1.79833 -1.03319 0
M  V30 4425 C 421.43 1.83504 0.413281 0
M  V30 4426 O 420.788 1.26635 1.29743 0
M  V30 4427 C 420.836 3.22396 -1.61533 0
M  V30 4428 O 419.94 4.03555 -0.849519 0
M  V30 4429 H 419.281 0.554872 -0.364709 0
M  V30 4430 H 421.811 1.28542 -1.59179 0
M  V30 4431 H 421.821 3.73124 -1.65054 0
M  V30 4432 H 420.496 3.19039 -2.66809 0
M  V30 4433 H 419.073 3.62169 -0.888129 0
M  V30 4434 N 421.258 1.00505 1.21394 0
M  V30 4435 C 422.669 0.721082 1.72213 0
M  V30 4436 C 423.02 -0.761263 1.80829 0
M  V30 4437 O 422.145 -1.59464 1.46288 0
M  V30 4438 C 422.74 1.30228 3.12772 0
M  V30 4439 C 421.299 1.06743 3.60947 0
M  V30 4440 C 420.446 1.41507 2.38477 0
M  V30 4441 H 423.397 1.17594 1.06571 0
M  V30 4442 H 423.418 0.686955 3.74247 0
M  V30 4443 H 422.93 2.38115 3.06468 0
M  V30 4444 H 421.031 0.00572162 3.726 0
M  V30 4445 H 421.144 1.73936 4.46411 0
M  V30 4446 H 419.508 0.833852 2.40664 0
M  V30 4447 H 420.291 2.50424 2.34824 0
M  V30 4448 N 422.737 -1.36956 0.779787 0
M  V30 4449 C 423.647 -2.33965 0.172491 0
M  V30 4450 C 424.663 -1.60574 -0.670222 0
M  V30 4451 O 425.839 -1.92617 -0.588263 0
M  V30 4452 C 422.904 -3.39761 -0.690173 0
M  V30 4453 C 421.965 -4.28964 0.169924 0
M  V30 4454 C 421.198 -5.29707 -0.651662 0
M  V30 4455 O 421.421 -5.38238 -1.88827 0
M  V30 4456 O 420.355 -6.01873 -0.0566264 0
M  V30 4457 H 424.181 -2.87647 0.974321 0
M  V30 4458 H 421.766 -1.39258 0.541078 0
M  V30 4459 H 423.648 -4.04471 -1.1824 0
M  V30 4460 H 422.323 -2.88394 -1.47006 0
M  V30 4461 H 421.23 -3.67326 0.708696 0
M  V30 4462 H 422.563 -4.83656 0.913085 0
M  V30 4463 N 424.215 -0.530993 -1.48385 0
M  V30 4464 C 425.125 0.23503 -2.3342 0
M  V30 4465 C 426.141 0.93801 -1.46552 0
M  V30 4466 O 427.317 0.912745 -1.7953 0
M  V30 4467 C 424.382 1.26778 -3.22689 0
M  V30 4468 C 423.443 0.575038 -4.25431 0
M  V30 4469 C 422.676 1.55858 -5.10435 0
M  V30 4470 O 422.899 2.79129 -4.97437 0
M  V30 4471 O 421.833 1.09742 -5.91811 0
M  V30 4472 H 425.659 -0.461794 -3.00169 0
M  V30 4473 H 423.244 -0.291903 -1.46521 0
M  V30 4474 H 425.126 1.86457 -3.77904 0
M  V30 4475 H 423.801 1.94699 -2.586 0
M  V30 4476 H 422.708 -0.0622782 -3.74048 0
M  V30 4477 H 424.041 -0.062253 -4.92161 0
M  V30 4478 N 425.693 1.55336 -0.266172 0
M  V30 4479 C 426.97 1.91372 0.404486 0
M  V30 4480 C 427.35 1.18935 1.74407 0
M  V30 4481 O 426.698 0.3132 2.26343 0
M  V30 4482 C 426.908 3.44581 0.553593 0
M  V30 4483 C 428.256 4.16196 0.840618 0
M  V30 4484 O 429.28 3.50426 0.638739 0
M  V30 4485 O 428.139 5.32567 1.22618 0
M  V30 4486 H 425.233 0.797194 0.220025 0
M  V30 4487 H 427.779 1.66813 -0.311664 0
M  V30 4488 H 426.551 3.89357 -0.389498 0
M  V30 4489 H 426.174 3.75065 1.31955 0
M  V30 4490 N 427.171 -0.0066808 1.57599 0
M  V30 4491 C 428.396 -0.707738 1.94951 0
M  V30 4492 C 428.821 -1.66882 0.867868 0
M  V30 4493 O 428.179 -1.80457 -0.17458 0
M  V30 4494 C 428.227 -1.42162 3.31394 0
M  V30 4495 O 427.331 -2.53578 3.25226 0
M  V30 4496 H 426.672 -0.188752 0.636607 0
M  V30 4497 H 429.202 0.0445193 2.04552 0
M  V30 4498 H 429.212 -1.78655 3.66806 0
M  V30 4499 H 427.887 -0.716903 4.09675 0
M  V30 4500 H 426.464 -2.19463 3.01481 0
M  V30 4501 N 428.649 -1.55105 -0.279332 0
M  V30 4502 C 429.877 -1.7943 -1.03017 0
M  V30 4503 C 430.292 -0.564456 -1.80165 0
M  V30 4504 O 429.649 0.466326 -1.76442 0
M  V30 4505 C 429.7 -3.0155 -1.99374 0
M  V30 4506 O 429.421 -4.19784 -1.25352 0
M  V30 4507 C 430.922 -3.3843 -2.86321 0
M  V30 4508 H 428.142 -0.597882 -0.304594 0
M  V30 4509 H 430.686 -2.02105 -0.312035 0
M  V30 4510 H 428.841 -2.81019 -2.66659 0
M  V30 4511 H 429.255 -4.88781 -1.90246 0
M  V30 4512 H 430.729 -4.27066 -3.49741 0
M  V30 4513 H 431.206 -2.57549 -3.5576 0
M  V30 4514 H 431.812 -3.61197 -2.24536 0
M  V30 4515 N 430.127 0.543554 -1.4793 0
M  V30 4516 C 431.373 1.29961 -1.56466 0
M  V30 4517 C 431.728 1.91024 -0.229696 0
M  V30 4518 O 431.021 1.75619 0.766072 0
M  V30 4519 C 431.215 2.42078 -2.62932 0
M  V30 4520 C 431.044 1.92003 -4.06651 0
M  V30 4521 C 429.814 1.75223 -4.73946 0
M  V30 4522 C 432.012 1.45648 -4.93245 0
M  V30 4523 N 429.994 1.19632 -6.02131 0
M  V30 4524 C 431.365 1.01914 -6.11566 0
M  V30 4525 C 433.42 1.33826 -4.79578 0
M  V30 4526 C 432.123 0.475301 -7.17728 0
M  V30 4527 C 434.149 0.808427 -5.85848 0
M  V30 4528 C 433.511 0.381081 -7.03368 0
M  V30 4529 H 429.61 0.467086 -0.62718 0
M  V30 4530 H 432.194 0.614543 -1.84747 0
M  V30 4531 H 430.365 3.08098 -2.36496 0
M  V30 4532 H 432.097 3.09096 -2.61231 0
M  V30 4533 H 428.852 1.98345 -4.30065 0
M  V30 4534 H 429.276 0.93885 -6.70458 0
M  V30 4535 H 433.918 1.65474 -3.89074 0
M  V30 4536 H 431.636 0.146472 -8.07967 0
M  V30 4537 H 435.222 0.720315 -5.77324 0
M  V30 4538 H 434.102 -0.0225344 -7.84197 0
M  V30 4539 N 431.605 1.3629 0.791371 0
M  V30 4540 C 432.515 1.32606 1.93527 0
M  V30 4541 C 433.531 0.228541 1.72493 0
M  V30 4542 O 434.707 0.460571 1.96063 0
M  V30 4543 C 431.772 1.11271 3.28359 0
M  V30 4544 C 430.833 2.3048 3.62185 0
M  V30 4545 C 430.066 2.10154 4.90583 0
M  V30 4546 O 430.289 1.07572 5.60165 0
M  V30 4547 O 429.223 2.97884 5.23019 0
M  V30 4548 H 433.049 2.28909 1.99585 0
M  V30 4549 H 430.634 1.16818 0.931344 0
M  V30 4550 H 432.516 1.01283 4.09047 0
M  V30 4551 H 431.191 0.180292 3.23198 0
M  V30 4552 H 430.098 2.46036 2.81811 0
M  V30 4553 H 431.431 3.22221 3.72068 0
M  V30 4554 N 433.083 -1.0153 1.20538 0
M  V30 4555 C 434.33 -1.75149 1.01633 0
M  V30 4556 C 434.658 -1.89189 -0.451399 0
M  V30 4557 O 433.913 -1.41551 -1.35136 0
M  V30 4558 C 434.212 -3.17213 1.64654 0
M  V30 4559 C 433.878 -3.23146 3.14464 0
M  V30 4560 C 432.54 -3.24472 3.55347 0
M  V30 4561 C 434.892 -3.21207 4.10458 0
M  V30 4562 C 432.22 -3.21532 4.90748 0
M  V30 4563 C 434.572 -3.19808 5.45807 0
M  V30 4564 C 433.236 -3.19439 5.86102 0
M  V30 4565 H 432.506 -0.640914 0.3719 0
M  V30 4566 H 435.153 -1.19071 1.49981 0
M  V30 4567 H 433.458 -3.76457 1.08571 0
M  V30 4568 H 435.155 -3.72871 1.4754 0
M  V30 4569 H 431.745 -3.2285 2.81897 0
M  V30 4570 H 435.929 -3.19351 3.79906 0
M  V30 4571 H 431.185 -3.19578 5.21229 0
M  V30 4572 H 435.359 -3.1726 6.19935 0
M  V30 4573 H 432.986 -3.16915 6.90991 0
M  V30 4574 N 434.561 -1.01147 -1.20859 0
M  V30 4575 C 435.491 -0.597663 -2.25722 0
M  V30 4576 C 436.472 0.384744 -1.65692 0
M  V30 4577 O 437.657 0.271303 -1.92296 0
M  V30 4578 C 434.787 0.0700149 -3.47229 0
M  V30 4579 C 433.741 -0.832843 -4.19819 0
M  V30 4580 C 433.067 -0.0312202 -5.34691 0
M  V30 4581 C 434.367 -2.1385 -4.76514 0
M  V30 4582 H 436.061 -1.47423 -2.60589 0
M  V30 4583 H 433.607 -0.710301 -1.25263 0
M  V30 4584 H 435.56 0.37103 -4.19763 0
M  V30 4585 H 434.284 0.981259 -3.11511 0
M  V30 4586 H 432.943 -1.11778 -3.49144 0
M  V30 4587 H 432.591 0.881515 -4.95215 0
M  V30 4588 H 432.291 -0.632434 -5.84187 0
M  V30 4589 H 433.815 0.26346 -6.10031 0
M  V30 4590 H 435.229 -1.9002 -5.40893 0
M  V30 4591 H 433.626 -2.69012 -5.36426 0
M  V30 4592 H 434.696 -2.80495 -3.95538 0
M  V30 4593 N 436.039 1.36541 -0.78704 0
M  V30 4594 C 437.455 1.52571 -0.46844 0
M  V30 4595 C 437.655 1.7415 1.01361 0
M  V30 4596 O 436.711 1.77163 1.79915 0
M  V30 4597 C 438.024 2.71299 -1.29682 0
M  V30 4598 C 439.572 2.85169 -1.29027 0
M  V30 4599 C 440.047 4.06898 -2.10233 0
M  V30 4600 N 441.538 4.1404 -2.07666 0
M  V30 4601 C 442.273 5.07301 -2.67271 0
M  V30 4602 N 441.769 6.06021 -3.35724 0
M  V30 4603 N 443.562 4.99898 -2.57018 0
M  V30 4604 H 435.713 1.20788 -1.74711 0
M  V30 4605 H 437.976 0.589364 -0.742532 0
M  V30 4606 H 437.682 2.61868 -2.34773 0
M  V30 4607 H 437.556 3.6539 -0.936479 0
M  V30 4608 H 439.943 2.94062 -0.247284 0
M  V30 4609 H 440.024 1.91992 -1.69035 0
M  V30 4610 H 439.668 3.98766 -3.1456 0
M  V30 4611 H 439.598 4.99218 -1.67597 0
M  V30 4612 H 442.089 3.43357 -1.57843 0
M  V30 4613 H 442.402 6.73741 -3.78541 0
M  V30 4614 H 440.747 6.06253 -3.39826 0
M  V30 4615 H 443.938 4.21724 -2.03142 0
M  V30 4616 H 444.111 5.72392 -3.03761 0
M  V30 4617 N 437.518 0.538854 1.48102 0
M  V30 4618 C 438.448 -0.207654 2.32575 0
M  V30 4619 C 439.429 -0.926559 1.4265 0
M  V30 4620 O 440.614 -0.91061 1.71527 0
M  V30 4621 C 437.744 -1.24957 3.24042 0
M  V30 4622 C 436.698 -0.648263 4.23062 0
M  V30 4623 C 436.024 -1.79348 5.03725 0
M  V30 4624 C 437.324 0.385897 5.20872 0
M  V30 4625 H 439.018 0.497534 2.95237 0
M  V30 4626 H 436.564 0.240715 1.41974 0
M  V30 4627 H 438.517 -1.77983 3.81969 0
M  V30 4628 H 437.241 -1.98446 2.59397 0
M  V30 4629 H 435.9 -0.139452 3.66335 0
M  V30 4630 H 435.548 -2.51696 4.35498 0
M  V30 4631 H 435.248 -1.39702 5.70751 0
M  V30 4632 H 436.772 -2.32735 5.64506 0
M  V30 4633 H 438.186 -0.057607 5.73271 0
M  V30 4634 H 436.583 0.700227 5.96001 0
M  V30 4635 H 437.653 1.28848 4.67468 0
M  V30 4636 N 438.996 -1.55193 0.274407 0
M  V30 4637 C 440.245 -1.98758 -0.343213 0
M  V30 4638 C 440.558 -1.16624 -1.5703 0
M  V30 4639 O 441.764 -1.5033 -2.26082 0
M  V30 4640 C 440.22 -3.53759 -0.661996 0
M  V30 4641 C 439.828 -4.4467 0.54524 0
M  V30 4642 C 441.572 -4.05916 -1.24228 0
M  V30 4643 C 439.479 -5.91058 0.201084 0
M  V30 4644 H 438.409 -0.742353 -0.132014 0
M  V30 4645 H 441.06 -1.79545 0.378948 0
M  V30 4646 H 439.442 -3.68772 -1.44304 0
M  V30 4647 H 440.616 -4.41426 1.32212 0
M  V30 4648 H 438.931 -4.03143 1.04232 0
M  V30 4649 H 441.528 -5.12831 -1.51357 0
M  V30 4650 H 441.871 -3.54908 -2.17592 0
M  V30 4651 H 442.404 -3.9434 -0.523542 0
M  V30 4652 H 439.143 -6.46161 1.10258 0
M  V30 4653 H 438.663 -5.97373 -0.539045 0
M  V30 4654 H 440.342 -6.46669 -0.206954 0
M  V30 4655 N 440.474 -0.00167713 -1.576 0
M  V30 4656 C 441.404 0.988091 -2.11563 0
M  V30 4657 C 442.385 1.35736 -1.02517 0
M  V30 4658 O 443.57 1.44082 -1.30208 0
M  V30 4659 C 440.7 2.27941 -2.62031 0
M  V30 4660 C 439.654 2.0517 -3.75619 0
M  V30 4661 C 438.98 3.4033 -4.12407 0
M  V30 4662 C 440.28 1.41294 -5.02825 0
M  V30 4663 H 441.974 0.538771 -2.94513 0
M  V30 4664 H 439.52 0.257712 -1.41675 0
M  V30 4665 H 441.473 2.97539 -2.9841 0
M  V30 4666 H 440.197 2.74989 -1.76205 0
M  V30 4667 H 438.856 1.37998 -3.39635 0
M  V30 4668 H 438.504 3.85085 -3.23603 0
M  V30 4669 H 438.204 3.25909 -4.88935 0
M  V30 4670 H 439.728 4.1124 -4.51347 0
M  V30 4671 H 441.142 2.00851 -5.36965 0
M  V30 4672 H 439.539 1.37356 -5.84169 0
M  V30 4673 H 440.609 0.382362 -4.8339 0
M  V30 4674 N 441.952 1.55251 0.271103 0
M  V30 4675 C 443.229 1.66664 1.02384 0
M  V30 4676 C 443.609 0.534363 2.04225 0
M  V30 4677 O 442.957 -0.465337 2.23712 0
M  V30 4678 C 443.167 3.05961 1.67895 0
M  V30 4679 C 444.515 3.63772 2.18986 0
M  V30 4680 O 445.539 3.08606 1.77878 0
M  V30 4681 O 444.398 4.60429 2.94393 0
M  V30 4682 H 441.492 0.676957 0.475035 0
M  V30 4683 H 444.038 1.67589 0.26681 0
M  V30 4684 H 442.81 3.79815 0.941071 0
M  V30 4685 H 442.433 3.08943 2.5028 0
M  V30 4686 N 443.43 -0.535701 1.48216 0
M  V30 4687 C 444.36 -1.65014 1.65204 0
M  V30 4688 C 445.341 -1.62554 0.501011 0
M  V30 4689 O 446.526 -1.7984 0.732886 0
M  V30 4690 C 443.656 -3.03616 1.68626 0
M  V30 4691 C 442.61 -3.20932 2.83172 0
M  V30 4692 C 441.936 -4.60537 2.71679 0
M  V30 4693 C 443.236 -3.04249 4.24535 0
M  V30 4694 H 444.93 -1.51053 2.58502 0
M  V30 4695 H 442.476 -0.725262 1.24402 0
M  V30 4696 H 444.429 -3.81446 1.79099 0
M  V30 4697 H 443.153 -3.18587 0.719026 0
M  V30 4698 H 441.812 -2.45517 2.72244 0
M  V30 4699 H 441.46 -4.72336 1.72937 0
M  V30 4700 H 441.16 -4.73069 3.48538 0
M  V30 4701 H 442.684 -5.40475 2.84112 0
M  V30 4702 H 444.098 -3.71877 4.36326 0
M  V30 4703 H 442.495 -3.28278 5.02348 0
M  V30 4704 H 443.565 -2.00739 4.41397 0
M  V30 4705 N 444.908 -1.36708 -0.784132 0
M  V30 4706 C 446.133 -1.34565 -1.5782 0
M  V30 4707 C 446.558 0.0695257 -1.87971 0
M  V30 4708 O 445.916 1.04302 -1.48293 0
M  V30 4709 C 445.964 -2.17952 -2.87279 0
M  V30 4710 O 445.068 -1.57563 -3.81114 0
M  V30 4711 H 444.409 -0.460337 -0.478524 0
M  V30 4712 H 446.939 -1.80064 -0.971495 0
M  V30 4713 H 446.949 -2.30721 -3.365 0
M  V30 4714 H 445.624 -3.20823 -2.64661 0
M  V30 4715 H 444.201 -1.53764 -3.39722 0
M  V30 4716 N 446.386 1.0089 -1.21074 0
M  V30 4717 C 447.319 2.09279 -0.909806 0
M  V30 4718 C 448.297 1.61986 0.141145 0
M  V30 4719 O 449.481 1.88495 0.0130332 0
M  V30 4720 C 446.608 3.36723 -0.365374 0
M  V30 4721 C 445.654 4.02919 -1.39852 0
M  V30 4722 S 446.487 4.45835 -2.96633 0
M  V30 4723 C 447.643 5.76471 -2.43786 0
M  V30 4724 H 447.876 2.34484 -1.82769 0
M  V30 4725 H 445.409 1.14115 -1.04006 0
M  V30 4726 H 447.367 4.10459 -0.0578203 0
M  V30 4727 H 446.028 3.09577 0.531136 0
M  V30 4728 H 445.221 4.94634 -0.967117 0
M  V30 4729 H 444.823 3.35441 -1.65395 0
M  V30 4730 H 447.115 6.52027 -1.84029 0
M  V30 4731 H 448.058 6.24418 -3.33928 0
M  V30 4732 H 448.466 5.33104 -1.85636 0
M  V30 4733 N 447.864 1.01787 1.20321 0
M  V30 4734 C 448.811 0.589197 2.23153 0
M  V30 4735 C 449.781 -0.391367 1.61423 0
M  V30 4736 O 450.966 -0.290518 1.88575 0
M  V30 4737 C 448.106 -0.0650747 3.45039 0
M  V30 4738 C 447.219 0.960207 4.21194 0
M  V30 4739 C 446.354 0.276854 5.30478 0
M  V30 4740 C 445.393 1.2888 5.98378 0
M  V30 4741 N 444.53 0.632031 6.99249 0
M  V30 4742 H 449.37 1.47071 2.59179 0
M  V30 4743 H 446.907 0.736192 1.27352 0
M  V30 4744 H 448.865 -0.461552 4.14639 0
M  V30 4745 H 447.495 -0.910233 3.09701 0
M  V30 4746 H 446.547 1.47484 3.50646 0
M  V30 4747 H 447.859 1.72977 4.67847 0
M  V30 4748 H 447.013 -0.175056 6.06447 0
M  V30 4749 H 445.752 -0.525004 4.84866 0
M  V30 4750 H 444.757 1.75109 5.21169 0
M  V30 4751 H 445.982 2.09196 6.46076 0
M  V30 4752 H 443.928 -0.149935 6.55829 0
M  V30 4753 H 443.845 1.33964 7.44036 0
M  V30 4754 H 445.113 0.203755 7.79234 0
M  V30 4755 N 449.342 -1.36122 0.79427 0
M  V30 4756 C 450.588 -1.99406 0.369452 0
M  V30 4757 C 450.921 -1.62886 -1.05743 0
M  V30 4758 O 450.196 -0.886053 -1.73145 0
M  V30 4759 C 450.479 -3.56046 0.538833 0
M  V30 4760 C 450.332 -4.02404 2.00976 0
M  V30 4761 C 451.651 -4.40079 -0.0431359 0
M  V30 4762 H 448.77 -0.724397 0.135712 0
M  V30 4763 H 451.412 -1.61461 1.00151 0
M  V30 4764 H 449.562 -3.885 0.000771004 0
M  V30 4765 H 451.234 -3.80415 2.60926 0
M  V30 4766 H 449.477 -3.53765 2.51063 0
M  V30 4767 H 450.148 -5.11344 2.07922 0
M  V30 4768 H 452.624 -4.14013 0.416228 0
M  V30 4769 H 451.5 -5.48799 0.105374 0
M  V30 4770 H 451.761 -4.27264 -1.13571 0
M  V30 4771 N 450.82 -0.546701 -1.47814 0
M  V30 4772 C 451.75 0.195317 -2.32682 0
M  V30 4773 C 452.731 0.918981 -1.43139 0
M  V30 4774 O 453.916 0.901501 -1.72008 0
M  V30 4775 C 451.046 1.23237 -3.247 0
M  V30 4776 C 450 0.625818 -4.234 0
M  V30 4777 C 449.326 1.76674 -5.04669 0
M  V30 4778 C 450.626 -0.413515 -5.2066 0
M  V30 4779 H 452.32 -0.513184 -2.94969 0
M  V30 4780 H 449.866 -0.248241 -1.41844 0
M  V30 4781 H 451.819 1.75955 -3.82907 0
M  V30 4782 H 450.543 1.97067 -2.60446 0
M  V30 4783 H 449.202 0.120023 -3.66403 0
M  V30 4784 H 448.85 2.49383 -4.36826 0
M  V30 4785 H 448.55 1.36673 -5.71484 0
M  V30 4786 H 450.074 2.29738 -5.65732 0
M  V30 4787 H 451.488 0.0272042 -5.73294 0
M  V30 4788 H 449.885 -0.731825 -5.95621 0
M  V30 4789 H 450.955 -1.31325 -4.66778 0
M  V30 4790 N 452.299 1.55045 -0.282633 0
M  V30 4791 C 453.246 2.22822 0.601566 0
M  V30 4792 C 454.216 1.20431 1.14392 0
M  V30 4793 O 455.401 1.48996 1.19184 0
M  V30 4794 C 452.541 2.95873 1.77632 0
M  V30 4795 C 451.654 4.12999 1.26711 0
M  V30 4796 C 450.789 4.73676 2.40426 0
M  V30 4797 C 449.828 5.82981 1.86545 0
M  V30 4798 N 448.965 6.3769 2.93762 0
M  V30 4799 H 453.805 2.97995 0.0169528 0
M  V30 4800 H 451.342 1.471 -0.00339964 0
M  V30 4801 H 453.3 3.36447 2.46697 0
M  V30 4802 H 451.93 2.2311 2.33285 0
M  V30 4803 H 450.982 3.77494 0.469314 0
M  V30 4804 H 452.294 4.91803 0.832518 0
M  V30 4805 H 451.448 5.17008 3.17471 0
M  V30 4806 H 450.187 3.94164 2.87203 0
M  V30 4807 H 449.192 5.39092 1.07983 0
M  V30 4808 H 450.417 6.64366 1.40694 0
M  V30 4809 H 448.363 5.61069 3.39908 0
M  V30 4810 H 448.28 7.11788 2.54744 0
M  V30 4811 H 449.548 6.8568 3.7076 0
M  V30 4812 N 453.777 0.010035 1.57597 0
M  V30 4813 C 454.709 -1.00649 2.05918 0
M  V30 4814 C 455.722 -1.30077 0.978964 0
M  V30 4815 O 456.911 -1.26878 1.25556 0
M  V30 4816 C 454.011 -2.33876 2.45265 0
M  V30 4817 C 453.184 -2.23242 3.7614 0
M  V30 4818 C 452.243 -3.39242 4.02245 0
M  V30 4819 O 451.269 -3.1698 4.72771 0
M  V30 4820 N 452.471 -4.6242 3.50924 0
M  V30 4821 H 455.236 -0.594333 2.93748 0
M  V30 4822 H 452.797 -0.17714 1.60928 0
M  V30 4823 H 454.789 -3.1027 2.59836 0
M  V30 4824 H 453.359 -2.66799 1.62902 0
M  V30 4825 H 452.579 -1.31696 3.71551 0
M  V30 4826 H 453.867 -2.13321 4.61922 0
M  V30 4827 H 453.265 -4.83404 2.93832 0
M  V30 4828 H 451.822 -5.36046 3.70807 0
M  V30 4829 N 455.255 -1.55392 -0.262866 0
M  V30 4830 C 456.532 -1.67204 -1.01499 0
M  V30 4831 C 456.912 -0.545186 -2.03939 0
M  V30 4832 O 456.26 0.453467 -2.23955 0
M  V30 4833 C 456.47 -3.06847 -1.6627 0
M  V30 4834 C 457.818 -3.64928 -2.17054 0
M  V30 4835 O 458.842 -3.09545 -1.76239 0
M  V30 4836 O 457.701 -4.61984 -2.91947 0
M  V30 4837 H 454.795 -0.679467 -0.471438 0
M  V30 4838 H 457.341 -1.67729 -0.257918 0
M  V30 4839 H 456.113 -3.80309 -0.920915 0
M  V30 4840 H 455.736 -3.10266 -2.48638 0
M  V30 4841 N 456.733 0.527833 -1.48498 0
M  V30 4842 C 457.981 1.28101 -1.56316 0
M  V30 4843 C 458.302 1.9352 -0.239781 0
M  V30 4844 O 457.572 1.81433 0.738849 0
M  V30 4845 H 456.152 0.475793 -0.575873 0
M  V30 4846 H 458.814 0.614052 -1.84974 0
M  V30 4847 H 457.91 2.05916 -2.34532 0
M  V30 4848 N 458.211 1.37122 0.776871 0
M  V30 4849 C 459.158 1.3247 1.88998 0
M  V30 4850 C 460.128 0.191143 1.64997 0
M  V30 4851 O 461.313 0.379683 1.86984 0
M  V30 4852 C 458.453 1.13241 3.25992 0
M  V30 4853 C 457.566 2.35782 3.61982 0
M  V30 4854 C 456.701 2.09465 4.88158 0
M  V30 4855 C 455.74 3.279 5.16864 0
M  V30 4856 N 454.877 3.01167 6.34226 0
M  V30 4857 H 459.717 2.27642 1.9231 0
M  V30 4858 H 457.254 1.13125 0.94027 0
M  V30 4859 H 459.212 1.00115 4.0501 0
M  V30 4860 H 457.842 0.217186 3.22069 0
M  V30 4861 H 456.894 2.59666 2.77989 0
M  V30 4862 H 458.206 3.24125 3.79137 0
M  V30 4863 H 457.36 1.93341 5.75069 0
M  V30 4864 H 456.099 1.18452 4.73097 0
M  V30 4865 H 455.104 3.44569 4.2843 0
M  V30 4866 H 456.329 4.19757 5.33836 0
M  V30 4867 H 454.275 2.12779 6.20533 0
M  V30 4868 H 454.192 3.83052 6.51772 0
M  V30 4869 H 455.46 2.88649 7.24087 0
M  V30 4870 N 459.689 -1.00246 1.21608 0
M  V30 4871 C 460.919 -1.77373 1.05935 0
M  V30 4872 C 461.327 -1.85059 -0.393686 0
M  V30 4873 O 460.67 -1.31289 -1.28487 0
M  V30 4874 C 460.732 -3.22705 1.58435 0
M  V30 4875 C 460.396 -3.38591 3.06929 0
M  V30 4876 C 461.393 -3.2667 4.04454 0
M  V30 4877 C 459.078 -3.6395 3.46187 0
M  V30 4878 C 461.072 -3.39877 5.39224 0
M  V30 4879 C 458.759 -3.768 4.81108 0
M  V30 4880 C 459.757 -3.6477 5.77436 0
M  V30 4881 O 459.445 -3.77206 7.09909 0
M  V30 4882 H 459.177 -0.56419 0.372378 0
M  V30 4883 H 461.731 -1.26971 1.61454 0
M  V30 4884 H 459.961 -3.74255 0.973147 0
M  V30 4885 H 461.65 -3.81515 1.38568 0
M  V30 4886 H 462.416 -3.06999 3.75468 0
M  V30 4887 H 458.295 -3.72395 2.71741 0
M  V30 4888 H 461.839 -3.30404 6.14393 0
M  V30 4889 H 457.736 -3.95975 5.09779 0
M  V30 4890 H 458.504 -3.94138 7.17355 0
M  V30 4891 N 461.167 -1.02423 -1.1978 0
M  V30 4892 C 462.414 -0.717988 -1.89344 0
M  V30 4893 C 462.742 0.753036 -1.79331 0
M  V30 4894 O 461.997 1.56355 -1.17692 0
M  V30 4895 C 462.296 -1.1088 -3.39765 0
M  V30 4896 C 461.962 -2.57731 -3.6998 0
M  V30 4897 C 460.624 -2.97854 -3.77937 0
M  V30 4898 C 462.976 -3.52763 -3.83677 0
M  V30 4899 C 460.304 -4.31931 -3.97054 0
M  V30 4900 C 462.656 -4.86538 -4.04306 0
M  V30 4901 C 461.32 -5.26356 -4.10494 0
M  V30 4902 H 460.59 -0.26273 -0.692859 0
M  V30 4903 H 463.237 -1.28623 -1.41875 0
M  V30 4904 H 461.542 -0.459094 -3.89101 0
M  V30 4905 H 463.239 -0.849432 -3.919 0
M  V30 4906 H 459.829 -2.25646 -3.64393 0
M  V30 4907 H 464.013 -3.2292 -3.76877 0
M  V30 4908 H 459.269 -4.62324 -4.00083 0
M  V30 4909 H 463.443 -5.60093 -4.13846 0
M  V30 4910 H 461.07 -6.3026 -4.2506 0
M  V30 4911 N 462.645 1.35699 -0.801477 0
M  V30 4912 C 463.873 2.03157 -0.391768 0
M  V30 4913 C 464.288 1.60412 0.995668 0
M  V30 4914 O 463.645 0.799228 1.64069 0
M  V30 4915 C 463.696 3.58566 -0.459671 0
M  V30 4916 O 463.417 3.99756 -1.7924 0
M  V30 4917 C 464.918 4.4328 -0.0421205 0
M  V30 4918 H 462.138 0.651688 -0.159825 0
M  V30 4919 H 464.682 1.73426 -1.08368 0
M  V30 4920 H 462.837 3.86963 0.183939 0
M  V30 4921 H 463.251 4.94387 -1.75162 0
M  V30 4922 H 464.725 5.51821 -0.140754 0
M  V30 4923 H 465.202 4.27383 1.01196 0
M  V30 4924 H 465.808 4.20168 -0.658687 0
M  V30 4925 N 464.123 0.554532 1.47522 0
M  V30 4926 C 465.055 -0.232106 2.28022 0
M  V30 4927 C 466.068 -0.881865 1.36847 0
M  V30 4928 O 467.257 -0.756168 1.61692 0
M  V30 4929 C 464.357 -1.34604 3.11022 0
M  V30 4930 C 463.53 -0.793582 4.30141 0
M  V30 4931 C 462.589 -1.79168 4.94758 0
M  V30 4932 O 461.615 -1.33886 5.5323 0
M  V30 4933 N 462.817 -3.12495 4.89211 0
M  V30 4934 H 465.582 0.458407 2.96173 0
M  V30 4935 H 463.143 0.390433 1.57122 0
M  V30 4936 H 465.135 -2.01243 3.51118 0
M  V30 4937 H 463.705 -1.93983 2.45131 0
M  V30 4938 H 462.925 0.0495025 3.94169 0
M  V30 4939 H 464.213 -0.403776 5.07195 0
M  V30 4940 H 463.611 -3.51931 4.42901 0
M  V30 4941 H 462.168 -3.74698 5.33333 0
M  V30 4942 N 465.601 -1.54893 0.290851 0
M  V30 4943 C 466.849 -1.99538 -0.320756 0
M  V30 4944 C 467.17 -1.18075 -1.55188 0
M  V30 4945 O 466.44 -0.274162 -1.93972 0
M  V30 4946 H 465.02 -0.737052 -0.121507 0
M  V30 4947 H 467.682 -1.90755 0.399832 0
M  V30 4948 H 466.778 -3.06282 -0.599802 0
M  V30 4949 N 467.08 -0.0183926 -1.57589 0
M  V30 4950 C 468.028 0.985111 -2.10709 0
M  V30 4951 C 469.022 1.34397 -1.0312 0
M  V30 4952 O 470.228 1.32746 -1.21567 0
M  V30 4953 H 466.603 0.335418 -0.673052 0
M  V30 4954 H 468.574 0.511689 -2.9398 0
M  V30 4955 C 467.323 2.26202 -2.64061 0
M  V30 4956 H 466.646 1.9946 -3.4649 0
M  V30 4957 H 468.086 2.94652 -3.04887 0
M  V30 4958 C 466.545 2.98444 -1.5631 0
M  V30 4959 O 467.075 3.90142 -0.956674 0
M  V30 4960 N 465.281 2.6059 -1.28612 0
M  V30 4961 H 464.828 1.86101 -1.78112 0
M  V30 4962 H 464.786 3.09238 -0.567406 0
M  V30 4963 N 468.558 1.5553 0.254621 0
M  V30 4964 C 469.798 1.7876 0.991179 0
M  V30 4965 C 470.162 0.586669 1.82817 0
M  V30 4966 O 471.363 0.697585 2.5959 0
M  V30 4967 C 469.634 3.06679 1.83529 0
M  V30 4968 S 471.193 3.511 2.632 0
M  V30 4969 H 468.011 0.627916 0.333531 0
M  V30 4970 H 470.613 1.93766 0.259778 0
M  V30 4971 H 469.317 3.92158 1.20996 0
M  V30 4972 H 468.848 2.94388 2.60958 0
M  V30 4973 H 470.863 3.11823 3.8598 0
M  V30 4974 N 470.036 -0.519951 1.48776 0
M  V30 4975 C 471.282 -1.27711 1.57536 0
M  V30 4976 C 471.615 -1.92547 0.252866 0
M  V30 4977 O 470.89 -1.7979 -0.742021 0
M  V30 4978 C 471.173 -2.35875 2.72094 0
M  V30 4979 C 471.026 -1.75664 4.1408 0
M  V30 4980 C 472.345 -3.37575 2.82367 0
M  V30 4981 H 469.464 -0.462971 0.573434 0
M  V30 4982 H 472.106 -0.578194 1.80989 0
M  V30 4983 H 470.256 -2.95488 2.52228 0
M  V30 4984 H 471.928 -1.20025 4.45412 0
M  V30 4985 H 470.171 -1.06154 4.20611 0
M  V30 4986 H 470.842 -2.54029 4.90075 0
M  V30 4987 H 473.318 -2.87929 3.00393 0
M  V30 4988 H 472.194 -4.1064 3.64233 0
M  V30 4989 H 472.455 -3.98743 1.90936 0
M  V30 4990 N 471.514 -1.37532 -0.769588 0
M  V30 4991 C 472.462 -1.33561 -1.90432 0
M  V30 4992 C 473.456 -0.224027 -1.67912 0
M  V30 4993 O 474.662 -0.392174 -1.75676 0
M  V30 4994 H 471.037 -0.416279 -0.626271 0
M  V30 4995 H 473.008 -2.29348 -1.90899 0
M  V30 4996 C 471.757 -1.16162 -3.27722 0
M  V30 4997 H 471.08 -2.00951 -3.45628 0
M  V30 4998 H 472.52 -1.17434 -4.07413 0
M  V30 4999 C 470.979 0.132583 -3.36639 0
M  V30 5000 O 471.509 1.11539 -3.85904 0
M  V30 5001 N 469.715 0.184013 -2.90017 0
M  V30 5002 H 469.262 -0.616415 -2.50116 0
M  V30 5003 H 469.22 1.04956 -2.96364 0
M  V30 5004 N 472.992 0.995999 -1.22138 0
M  V30 5005 C 473.922 2.10387 -1.01289 0
M  V30 5006 C 474.903 1.69975 0.0651454 0
M  V30 5007 O 476.088 1.9396 -0.0964628 0
M  V30 5008 C 473.218 3.42312 -0.586517 0
M  V30 5009 C 472.172 3.96558 -1.61014 0
M  V30 5010 C 471.498 5.24494 -1.0397 0
M  V30 5011 C 472.798 4.27595 -2.99933 0
M  V30 5012 H 474.492 2.28086 -1.93951 0
M  V30 5013 H 472.038 1.09607 -0.933928 0
M  V30 5014 H 473.991 4.19223 -0.427793 0
M  V30 5015 H 472.715 3.24431 0.375761 0
M  V30 5016 H 471.374 3.21776 -1.75658 0
M  V30 5017 H 471.022 5.02953 -0.0688703 0
M  V30 5018 H 470.722 5.61755 -1.72352 0
M  V30 5019 H 472.246 6.04042 -0.892494 0
M  V30 5020 H 473.66 4.95315 -2.8868 0
M  V30 5021 H 472.057 4.76021 -3.6541 0
M  V30 5022 H 473.127 3.35498 -3.50099 0
M  V30 5023 N 474.47 1.03057 1.19235 0
M  V30 5024 C 475.698 0.747697 1.92917 0
M  V30 5025 C 476.113 -0.69372 1.75593 0
M  V30 5026 O 475.47 -1.47191 1.07894 0
M  V30 5027 C 475.521 1.09159 3.44625 0
M  V30 5028 O 475.242 2.47641 3.61394 0
M  V30 5029 C 476.743 0.831763 4.35427 0
M  V30 5030 H 473.963 0.273453 0.612751 0
M  V30 5031 H 476.507 1.37552 1.51327 0
M  V30 5032 H 474.662 0.508919 3.84043 0
M  V30 5033 H 475.076 2.60499 4.55237 0
M  V30 5034 H 476.55 1.12233 5.4047 0
M  V30 5035 H 477.027 -0.233769 4.38577 0
M  V30 5036 H 477.633 1.39725 4.01693 0
M  V30 5037 N 475.948 -1.35272 0.808662 0
M  V30 5038 C 476.858 -2.33546 0.222079 0
M  V30 5039 C 477.874 -1.6196 -0.636011 0
M  V30 5040 O 479.05 -1.93822 -0.547274 0
M  V30 5041 C 476.115 -3.41148 -0.61795 0
M  V30 5042 C 475.176 -4.28507 0.260875 0
M  V30 5043 C 474.409 -5.3097 -0.539156 0
M  V30 5044 O 474.632 -5.42123 -1.77367 0
M  V30 5045 O 473.566 -6.01858 0.0710526 0
M  V30 5046 H 477.392 -2.85515 1.03512 0
M  V30 5047 H 474.977 -1.38079 0.570495 0
M  V30 5048 H 476.859 -4.06889 -1.09634 0
M  V30 5049 H 475.534 -2.91447 -1.40855 0
M  V30 5050 H 474.441 -3.6574 0.786451 0
M  V30 5051 H 475.774 -4.81611 1.01547 0
M  V30 5052 N 477.426 -0.562348 -1.47226 0
M  V30 5053 C 478.389 0.172056 -2.28553 0
M  V30 5054 C 479.389 0.837928 -1.37242 0
M  V30 5055 O 480.579 0.693001 -1.59822 0
M  V30 5056 C 477.711 1.25223 -3.17068 0
M  V30 5057 H 478.904 -0.542401 -2.94954 0
M  V30 5058 H 476.457 -0.319493 -1.53 0
M  V30 5059 H 477.192 1.99892 -2.55369 0
M  V30 5060 H 476.977 0.779515 -3.84273 0
M  V30 5061 H 478.467 1.76791 -3.78332 0
M  V30 5062 N 478.904 1.54736 -0.299062 0
M  V30 5063 C 479.834 2.26409 0.571085 0
M  V30 5064 C 480.815 1.2629 1.13951 0
M  V30 5065 O 482 1.55059 1.16921 0
M  V30 5066 C 479.13 3.00338 1.74396 0
M  V30 5067 C 478.084 4.07588 1.30599 0
M  V30 5068 C 477.41 4.69222 2.56387 0
M  V30 5069 C 478.71 5.20455 0.438645 0
M  V30 5070 H 480.404 2.99388 -0.0266991 0
M  V30 5071 H 477.95 1.43993 -0.0142812 0
M  V30 5072 H 479.903 3.49198 2.35878 0
M  V30 5073 H 478.627 2.24934 2.36796 0
M  V30 5074 H 477.286 3.59575 0.71424 0
M  V30 5075 H 476.934 3.9046 3.17097 0
M  V30 5076 H 476.634 5.41653 2.27784 0
M  V30 5077 H 478.158 5.20844 3.18675 0
M  V30 5078 H 479.572 5.65221 0.959085 0
M  V30 5079 H 477.969 5.99594 0.246466 0
M  V30 5080 H 479.039 4.8192 -0.536738 0
M  V30 5081 N 480.382 0.0267497 1.57577 0
M  V30 5082 C 481.607 -0.666227 1.96408 0
M  V30 5083 C 482.032 -1.65004 0.903071 0
M  V30 5084 O 481.39 -1.80787 -0.136263 0
M  V30 5085 C 481.438 -1.35101 3.34335 0
M  V30 5086 O 480.542 -2.46623 3.30531 0
M  V30 5087 H 479.883 -0.175206 0.640468 0
M  V30 5088 H 482.413 0.0878977 2.04411 0
M  V30 5089 H 482.423 -1.70834 3.70513 0
M  V30 5090 H 481.098 -0.629844 4.11103 0
M  V30 5091 H 479.675 -2.13019 3.06068 0
M  V30 5092 N 481.861 -1.55662 -0.24637 0
M  V30 5093 C 482.791 -1.93377 -1.30873 0
M  V30 5094 C 483.772 -0.798773 -1.50179 0
M  V30 5095 O 484.957 -1.0591 -1.62778 0
M  V30 5096 C 482.087 -2.22893 -2.66338 0
M  V30 5097 C 481.041 -3.38649 -2.61727 0
M  V30 5098 C 480.367 -3.53708 -4.00992 0
M  V30 5099 C 481.667 -4.74323 -2.18666 0
M  V30 5100 H 483.361 -2.82363 -0.995552 0
M  V30 5101 H 480.907 -1.35854 -0.477464 0
M  V30 5102 H 482.86 -2.47866 -3.40794 0
M  V30 5103 H 481.584 -1.30733 -2.99293 0
M  V30 5104 H 480.243 -3.13685 -1.89729 0
M  V30 5105 H 479.891 -2.58967 -4.31214 0
M  V30 5106 H 479.591 -4.31551 -3.98795 0
M  V30 5107 H 481.115 -3.81003 -4.77147 0
M  V30 5108 H 482.529 -4.98665 -2.82854 0
M  V30 5109 H 480.926 -5.55273 -2.27579 0
M  V30 5110 H 481.996 -4.71349 -1.13834 0
M  V30 5111 N 483.339 0.512053 -1.4905 0
M  V30 5112 C 484.569 1.28928 -1.61434 0
M  V30 5113 C 484.977 1.87107 -0.280647 0
M  V30 5114 O 484.32 1.68024 0.742537 0
M  V30 5115 C 484.382 2.466 -2.61588 0
M  V30 5116 C 484.046 2.09375 -4.06216 0
M  V30 5117 C 485.043 1.63994 -4.93358 0
M  V30 5118 C 482.728 2.19348 -4.51876 0
M  V30 5119 C 484.722 1.29076 -6.24194 0
M  V30 5120 C 482.409 1.84041 -5.82728 0
M  V30 5121 C 483.407 1.38978 -6.68711 0
M  V30 5122 O 483.095 1.04144 -7.97126 0
M  V30 5123 H 482.827 0.397668 -0.546659 0
M  V30 5124 H 485.381 0.622507 -1.9574 0
M  V30 5125 H 483.611 3.16318 -2.22441 0
M  V30 5126 H 485.3 3.08642 -2.63619 0
M  V30 5127 H 486.066 1.55744 -4.59313 0
M  V30 5128 H 481.945 2.53376 -3.85125 0
M  V30 5129 H 485.489 0.938303 -6.91261 0
M  V30 5130 H 481.386 1.91938 -6.16304 0
M  V30 5131 H 482.154 1.17387 -8.10039 0
M  V30 5132 N 484.817 1.37938 0.762283 0
M  V30 5133 C 485.727 1.36681 1.90671 0
M  V30 5134 C 486.743 0.265078 1.71969 0
M  V30 5135 O 487.919 0.502055 1.95042 0
M  V30 5136 C 484.984 1.18211 3.25925 0
M  V30 5137 C 484.045 2.3811 3.57214 0
M  V30 5138 C 483.278 2.20512 4.86014 0
M  V30 5139 O 483.501 1.19429 5.57757 0
M  V30 5140 O 482.435 3.08911 5.16583 0
M  V30 5141 H 486.261 2.33091 1.94685 0
M  V30 5142 H 483.846 1.18767 0.906356 0
M  V30 5143 H 485.728 1.09937 4.06807 0
M  V30 5144 H 484.403 0.248807 3.22742 0
M  V30 5145 H 483.31 2.51958 2.76529 0
M  V30 5146 H 484.643 3.30041 3.65149 0
M  V30 5147 N 486.295 -0.989507 1.22664 0
M  V30 5148 C 487.205 -2.11449 1.01619 0
M  V30 5149 C 488.221 -1.73962 -0.036545 0
M  V30 5150 O 489.397 -2.00788 0.156924 0
M  V30 5151 C 486.462 -3.41465 0.600204 0
M  V30 5152 C 485.523 -3.93033 1.72695 0
M  V30 5153 C 484.756 -5.16844 1.33071 0
M  V30 5154 O 484.979 -5.7001 0.210975 0
M  V30 5155 O 483.913 -5.6225 2.14845 0
M  V30 5156 H 487.739 -2.32088 1.9588 0
M  V30 5157 H 485.324 -1.09823 1.01289 0
M  V30 5158 H 487.206 -4.19695 0.37873 0
M  V30 5159 H 485.881 -3.22178 -0.313511 0
M  V30 5160 H 484.788 -3.15961 2.00298 0
M  V30 5161 H 486.121 -4.16758 2.61865 0
M  V30 5162 N 487.773 -1.03688 -1.18687 0
M  V30 5163 C 488.705 -0.582696 -2.21669 0
M  V30 5164 C 489.718 0.345656 -1.59088 0
M  V30 5165 O 490.907 0.140776 -1.77944 0
M  V30 5166 C 488.007 0.169204 -3.38477 0
M  V30 5167 C 487.18 -0.766079 -4.30639 0
M  V30 5168 C 486.239 -0.0581541 -5.26168 0
M  V30 5169 O 485.265 -0.687346 -5.65035 0
M  V30 5170 N 486.467 1.20981 -5.67753 0
M  V30 5171 H 489.232 -1.46843 -2.61261 0
M  V30 5172 H 486.793 -0.916896 -1.33434 0
M  V30 5173 H 488.785 0.652543 -3.99405 0
M  V30 5174 H 487.355 0.956435 -2.97609 0
M  V30 5175 H 486.575 -1.42935 -3.67373 0
M  V30 5176 H 487.863 -1.40146 -4.89118 0
M  V30 5177 H 487.261 1.74159 -5.38224 0
M  V30 5178 H 485.818 1.6375 -6.30896 0
M  V30 5179 N 489.251 1.34841 -0.815825 0
M  V30 5180 C 490.181 2.32187 -0.247298 0
M  V30 5181 C 491.162 1.5791 0.632344 0
M  V30 5182 O 492.347 1.8593 0.560698 0
M  V30 5183 C 489.477 3.42122 0.597466 0
M  V30 5184 C 488.431 4.27602 -0.184446 0
M  V30 5185 C 487.757 5.28942 0.782609 0
M  V30 5186 C 489.057 5.03502 -1.38865 0
M  V30 5187 H 490.751 2.79985 -1.06061 0
M  V30 5188 H 488.297 1.34611 -0.511461 0
M  V30 5189 H 490.25 4.09232 1.00533 0
M  V30 5190 H 488.974 2.92956 1.44376 0
M  V30 5191 H 487.633 3.62085 -0.573592 0
M  V30 5192 H 487.281 4.7604 1.62466 0
M  V30 5193 H 486.981 5.87008 0.263695 0
M  V30 5194 H 488.505 5.98922 1.18848 0
M  V30 5195 H 489.919 5.63506 -1.05518 0
M  V30 5196 H 488.316 5.71108 -1.8427 0
M  V30 5197 H 489.386 4.33608 -2.17054 0
M  V30 5198 N 490.729 0.570148 1.46925 0
M  V30 5199 C 491.977 0.0508523 2.02036 0
M  V30 5200 C 492.298 -1.30885 1.44548 0
M  V30 5201 O 491.568 -1.85647 0.625453 0
M  V30 5202 H 490.148 0.0158088 0.746833 0
M  V30 5203 H 492.81 0.743086 1.80178 0
M  V30 5204 H 491.906 -0.027575 3.12088 0
M  V30 5205 N 492.207 -1.54576 0.307264 0
M  V30 5206 C 493.623 -1.59534 -0.0459251 0
M  V30 5207 C 493.823 -1.32414 -1.51884 0
M  V30 5208 O 492.879 -1.1006 -2.27251 0
M  V30 5209 C 494.192 -2.98566 0.357649 0
M  V30 5210 C 495.74 -3.11491 0.306937 0
M  V30 5211 C 496.215 -4.52842 0.685427 0
M  V30 5212 N 497.706 -4.58782 0.638203 0
M  V30 5213 C 498.441 -5.66238 0.903458 0
M  V30 5214 N 497.937 -6.81703 1.23501 0
M  V30 5215 N 499.73 -5.55937 0.830102 0
M  V30 5216 H 491.881 -1.70464 1.26712 0
M  V30 5217 H 494.144 -0.79647 0.514139 0
M  V30 5218 H 493.85 -3.23356 1.38325 0
M  V30 5219 H 493.724 -3.76117 -0.285565 0
M  V30 5220 H 496.111 -2.86446 -0.709424 0
M  V30 5221 H 496.192 -2.36081 0.984861 0
M  V30 5222 H 495.836 -4.78618 1.69963 0
M  V30 5223 H 495.766 -5.26598 -0.0146346 0
M  V30 5224 H 498.257 -3.75849 0.393138 0
M  V30 5225 H 498.57 -7.59582 1.42322 0
M  V30 5226 H 496.915 -6.8324 1.27311 0
M  V30 5227 H 500.106 -4.64608 0.570693 0
M  V30 5228 H 500.279 -6.39597 1.04019 0
M  V30 5229 N 493.685 -0.035106 -1.57561 0
M  V30 5230 C 494.615 0.942993 -2.13612 0
M  V30 5231 C 495.596 1.33531 -1.05373 0
M  V30 5232 O 496.781 1.41287 -1.33235 0
M  V30 5233 C 493.911 2.22332 -2.66807 0
M  V30 5234 C 492.865 1.97156 -3.79886 0
M  V30 5235 C 492.191 3.31506 -4.19533 0
M  V30 5236 C 493.491 1.30596 -5.05709 0
M  V30 5237 H 495.185 0.476179 -2.95589 0
M  V30 5238 H 492.731 0.227602 -1.4219 0
M  V30 5239 H 494.684 2.91142 -3.04654 0
M  V30 5240 H 493.408 2.7119 -1.81999 0
M  V30 5241 H 492.067 1.30763 -3.42486 0
M  V30 5242 H 491.715 3.78134 -3.31698 0
M  V30 5243 H 491.415 3.15465 -4.95738 0
M  V30 5244 H 492.939 4.01574 -4.59968 0
M  V30 5245 H 494.353 1.89416 -5.41105 0
M  V30 5246 H 492.75 1.24934 -5.86951 0
M  V30 5247 H 493.82 0.279742 -4.84092 0
M  V30 5248 N 495.163 1.55791 0.238111 0
M  V30 5249 C 496.393 1.81834 0.980809 0
M  V30 5250 C 496.801 0.609741 1.79106 0
M  V30 5251 O 496.144 -0.431073 1.78571 0
M  V30 5252 C 496.206 3.01363 1.96011 0
M  V30 5253 C 495.87 4.37037 1.33597 0
M  V30 5254 C 496.867 5.14692 0.734063 0
M  V30 5255 C 494.552 4.83743 1.3527 0
M  V30 5256 C 496.546 6.37206 0.157208 0
M  V30 5257 C 494.233 6.06204 0.77199 0
M  V30 5258 C 495.231 6.82775 0.175282 0
M  V30 5259 O 494.919 8.02922 -0.396432 0
M  V30 5260 H 494.651 0.6088 0.293834 0
M  V30 5261 H 497.205 2.03702 0.263552 0
M  V30 5262 H 495.435 2.75273 2.71591 0
M  V30 5263 H 497.124 3.14422 2.56697 0
M  V30 5264 H 497.89 4.79722 0.713582 0
M  V30 5265 H 493.769 4.24129 1.80653 0
M  V30 5266 H 497.313 6.96915 -0.30917 0
M  V30 5267 H 493.21 6.4065 0.789828 0
M  V30 5268 H 493.978 8.17989 -0.289145 0
M  V30 5269 N 496.642 -0.504142 1.49319 0
M  V30 5270 C 497.882 -1.26867 1.60263 0
M  V30 5271 C 498.246 -1.89924 0.281578 0
M  V30 5272 O 499.447 -2.67479 0.266176 0
M  V30 5273 C 497.718 -2.30956 2.72753 0
M  V30 5274 S 499.277 -3.1679 3.03628 0
M  V30 5275 H 496.095 -0.431198 0.565322 0
M  V30 5276 H 498.697 -0.571407 1.86963 0
M  V30 5277 H 497.401 -1.83156 3.67263 0
M  V30 5278 H 496.932 -3.05356 2.48035 0
M  V30 5279 H 498.947 -4.31549 2.44908 0
M  V30 5280 N 498.12 -1.38341 -0.754957 0
M  V30 5281 C 499.531 -1.30803 -1.3322 0
M  V30 5282 C 499.882 0.0368 -1.96165 0
M  V30 5283 O 499.007 0.938844 -1.94974 0
M  V30 5284 C 499.602 -2.3688 -2.42225 0
M  V30 5285 C 498.161 -2.32925 -2.95674 0
M  V30 5286 C 497.308 -2.19819 -1.69042 0
M  V30 5287 H 500.259 -1.48719 -0.553937 0
M  V30 5288 H 500.28 -2.02517 -3.22129 0
M  V30 5289 H 499.792 -3.34747 -1.96383 0
M  V30 5290 H 497.893 -1.38635 -3.45848 0
M  V30 5291 H 498.006 -3.27008 -3.50146 0
M  V30 5292 H 496.37 -1.66648 -1.92615 0
M  V30 5293 H 497.153 -3.19625 -1.25279 0
M  V30 5294 N 499.598 0.982988 -1.23187 0
M  V30 5295 C 500.844 1.72648 -1.06398 0
M  V30 5296 C 501.177 1.90066 0.398561 0
M  V30 5297 O 500.452 1.45105 1.29518 0
M  V30 5298 C 500.735 3.12627 -1.78707 0
M  V30 5299 C 500.588 3.02795 -3.32618 0
M  V30 5300 C 501.907 4.11997 -1.54747 0
M  V30 5301 H 499.026 0.626649 -0.387918 0
M  V30 5302 H 501.668 1.14455 -1.51658 0
M  V30 5303 H 499.818 3.62308 -1.40234 0
M  V30 5304 H 501.49 2.60659 -3.80598 0
M  V30 5305 H 499.733 2.39362 -3.61785 0
M  V30 5306 H 500.404 4.01893 -3.78399 0
M  V30 5307 H 502.88 3.71114 -1.88186 0
M  V30 5308 H 501.756 5.08037 -2.07821 0
M  V30 5309 H 502.017 4.39462 -0.482249 0
M  V30 5310 N 501.076 1.04316 1.18135 0
M  V30 5311 C 501.986 0.646876 2.25505 0
M  V30 5312 C 503.002 -0.328008 1.7088 0
M  V30 5313 O 504.178 -0.182309 2.00573 0
M  V30 5314 C 501.243 0.0185664 3.46695 0
M  V30 5315 C 500.304 1.04277 4.16443 0
M  V30 5316 C 499.537 0.444352 5.31847 0
M  V30 5317 O 499.76 -0.748735 5.65465 0
M  V30 5318 O 498.694 1.17428 5.90334 0
M  V30 5319 H 502.52 1.54147 2.61672 0
M  V30 5320 H 500.105 0.814188 1.25265 0
M  V30 5321 H 501.987 -0.331068 4.20097 0
M  V30 5322 H 500.662 -0.849814 3.12346 0
M  V30 5323 H 499.569 1.44425 3.45098 0
M  V30 5324 H 500.902 1.882 4.54798 0
M  V30 5325 N 502.554 -1.34406 0.822964 0
M  V30 5326 C 503.801 -1.98284 0.411057 0
M  V30 5327 C 504.129 -1.65245 -1.02588 0
M  V30 5328 O 503.384 -0.91619 -1.72929 0
M  V30 5329 C 503.683 -3.52981 0.560268 0
M  V30 5330 C 503.349 -4.05931 1.96293 0
M  V30 5331 C 502.011 -4.20103 2.34664 0
M  V30 5332 C 504.363 -4.34412 2.87985 0
M  V30 5333 C 501.691 -4.60082 3.64062 0
M  V30 5334 C 504.043 -4.75838 4.16847 0
M  V30 5335 C 502.707 -4.88215 4.55195 0
M  V30 5336 H 501.977 -0.725573 0.150416 0
M  V30 5337 H 504.624 -1.60349 1.04692 0
M  V30 5338 H 502.929 -3.91477 -0.158982 0
M  V30 5339 H 504.626 -4.00385 0.222087 0
M  V30 5340 H 501.216 -3.95363 1.65487 0
M  V30 5341 H 505.4 -4.23001 2.59584 0
M  V30 5342 H 500.656 -4.67856 3.93599 0
M  V30 5343 H 504.83 -4.96834 4.87984 0
M  V30 5344 H 502.457 -5.18952 5.55512 0
M  V30 5345 N 504.032 -0.577932 -1.46621 0
M  V30 5346 C 505.257 -0.0652536 -2.07297 0
M  V30 5347 C 505.682 1.22828 -1.4246 0
M  V30 5348 O 505.04 1.74075 -0.506718 0
M  V30 5349 C 505.088 0.0920589 -3.60482 0
M  V30 5350 O 504.192 1.14972 -3.96049 0
M  V30 5351 H 503.533 -0.06065 -0.661224 0
M  V30 5352 H 506.063 -0.799515 -1.88332 0
M  V30 5353 H 506.073 0.299741 -4.06897 0
M  V30 5354 H 504.748 -0.852612 -4.07067 0
M  V30 5355 H 503.325 0.920879 -3.61351 0
M  V30 5356 N 505.51 1.54411 -0.315457 0
M  V30 5357 C 506.457 2.24048 0.554166 0
M  V30 5358 C 507.427 1.2283 1.11812 0
M  V30 5359 O 508.612 1.51491 1.15997 0
M  V30 5360 C 505.752 2.99574 1.71316 0
M  V30 5361 C 504.865 4.15594 1.17922 0
M  V30 5362 C 504 4.78669 2.30324 0
M  V30 5363 C 503.039 5.86807 1.74137 0
M  V30 5364 N 502.176 6.43777 2.8017 0
M  V30 5365 H 507.016 2.97964 -0.0462602 0
M  V30 5366 H 504.553 1.47059 -0.0346009 0
M  V30 5367 H 506.511 3.41604 2.39505 0
M  V30 5368 H 505.141 2.28008 2.285 0
M  V30 5369 H 504.193 3.78404 0.389136 0
M  V30 5370 H 505.505 4.93459 0.728012 0
M  V30 5371 H 504.659 5.23626 3.06433 0
M  V30 5372 H 503.398 4.00168 2.78778 0
M  V30 5373 H 502.403 5.41261 0.965236 0
M  V30 5374 H 503.628 6.67201 1.2657 0
M  V30 5375 H 501.574 5.68153 3.2793 0
M  V30 5376 H 501.491 7.17031 2.39588 0
M  V30 5377 H 502.759 6.9339 3.56132 0
M  V30 5378 N 506.988 0.0434614 1.5754 0
M  V30 5379 C 507.898 -0.94893 2.14552 0
M  V30 5380 C 508.914 -1.34707 1.10136 0
M  V30 5381 O 510.09 -1.42557 1.42266 0
M  V30 5382 C 507.155 -2.208 2.67298 0
M  V30 5383 C 506.216 -1.86893 3.86484 0
M  V30 5384 C 505.449 -3.06797 4.36705 0
M  V30 5385 O 505.672 -4.19921 3.86034 0
M  V30 5386 O 504.606 -2.8826 5.28384 0
M  V30 5387 H 508.432 -0.494099 2.99654 0
M  V30 5388 H 506.017 -0.177989 1.48336 0
M  V30 5389 H 507.899 -2.94686 3.01228 0
M  V30 5390 H 506.574 -2.65436 1.85272 0
M  V30 5391 H 505.481 -1.10347 3.57455 0
M  V30 5392 H 506.814 -1.47062 4.69716 0
M  V30 5393 N 508.466 -1.55915 -0.229846 0
M  V30 5394 C 509.715 -1.77742 -0.953455 0
M  V30 5395 C 510.028 -0.610524 -1.85828 0
M  V30 5396 O 511.234 -0.712219 -2.61992 0
M  V30 5397 C 509.69 -3.14738 -1.74551 0
M  V30 5398 C 509.298 -4.39126 -0.887242 0
M  V30 5399 C 511.042 -3.45895 -2.46084 0
M  V30 5400 C 508.949 -5.67149 -1.67617 0
M  V30 5401 H 507.879 -0.662648 -0.359741 0
M  V30 5402 H 510.53 -1.82322 -0.207576 0
M  V30 5403 H 508.912 -3.04311 -2.53399 0
M  V30 5404 H 510.086 -4.60588 -0.139892 0
M  V30 5405 H 508.401 -4.15427 -0.284443 0
M  V30 5406 H 510.998 -4.38767 -3.05594 0
M  V30 5407 H 511.341 -2.68007 -3.18556 0
M  V30 5408 H 511.874 -3.57614 -1.74233 0
M  V30 5409 H 508.613 -6.47906 -0.994881 0
M  V30 5410 H 508.133 -5.49763 -2.39836 0
M  V30 5411 H 509.812 -6.07025 -2.23898 0
M  V30 5412 N 509.944 0.496216 -1.49584 0
M  V30 5413 C 511.19 1.25189 -1.59548 0
M  V30 5414 C 511.523 1.9212 -0.283466 0
M  V30 5415 O 510.798 1.80947 0.713324 0
M  V30 5416 C 511.081 2.31516 -2.75812 0
M  V30 5417 C 510.934 1.69054 -4.16822 0
M  V30 5418 C 512.253 3.3304 -2.87702 0
M  V30 5419 H 509.372 0.45379 -0.580727 0
M  V30 5420 H 512.014 0.549327 -1.81886 0
M  V30 5421 H 510.164 2.91438 -2.56897 0
M  V30 5422 H 511.836 1.12923 -4.47265 0
M  V30 5423 H 510.079 0.994485 -4.22247 0
M  V30 5424 H 510.75 2.462 -4.94054 0
M  V30 5425 H 513.226 2.83114 -3.04936 0
M  V30 5426 H 512.102 4.04794 -3.7072 0
M  V30 5427 H 512.363 3.95655 -1.97255 0
M  V30 5428 N 511.423 1.38739 0.74761 0
M  V30 5429 C 512.663 1.36695 1.51966 0
M  V30 5430 C 513.027 -0.0411889 1.91956 0
M  V30 5431 O 514.228 -0.186543 2.68152 0
M  V30 5432 C 512.499 2.30119 2.73459 0
M  V30 5433 S 514.058 2.4615 3.63257 0
M  V30 5434 H 510.876 0.484929 0.519966 0
M  V30 5435 H 513.478 1.7472 0.877104 0
M  V30 5436 H 512.182 3.31312 2.422 0
M  V30 5437 H 511.713 1.93265 3.42655 0
M  V30 5438 H 513.728 1.69001 4.66533 0
M  V30 5439 N 512.901 -0.976442 1.23707 0
M  V30 5440 C 514.147 -1.72081 1.07312 0
M  V30 5441 C 514.48 -1.90275 -0.388476 0
M  V30 5442 O 513.755 -1.4579 -1.28746 0
M  V30 5443 C 514.038 -3.11675 1.80363 0
M  V30 5444 C 513.891 -3.01027 3.3422 0
M  V30 5445 C 515.21 -4.1117 1.5693 0
M  V30 5446 H 512.329 -0.624583 0.391236 0
M  V30 5447 H 514.971 -1.13649 1.52263 0
M  V30 5448 H 513.121 -3.61559 1.42153 0
M  V30 5449 H 514.793 -2.58637 3.81975 0
M  V30 5450 H 513.036 -2.3744 3.63049 0
M  V30 5451 H 513.707 -3.9988 3.80525 0
M  V30 5452 H 516.183 -3.7011 1.90151 0
M  V30 5453 H 515.059 -5.06928 2.10513 0
M  V30 5454 H 515.32 -4.392 0.505548 0
M  V30 5455 N 514.379 -1.04941 -1.1758 0
M  V30 5456 C 515.79 -0.784501 -1.69418 0
M  V30 5457 C 516.141 0.693625 -1.8353 0
M  V30 5458 O 515.266 1.53925 -1.52106 0
M  V30 5459 C 515.861 -1.41746 -3.07723 0
M  V30 5460 C 514.42 -1.20066 -3.56737 0
M  V30 5461 C 513.567 -1.5026 -2.33061 0
M  V30 5462 H 516.518 -1.21469 -1.02133 0
M  V30 5463 H 516.539 -0.825381 -3.7144 0
M  V30 5464 H 516.051 -2.49325 -2.9742 0
M  V30 5465 H 514.152 -0.144006 -3.72322 0
M  V30 5466 H 514.265 -1.90384 -4.39648 0
M  V30 5467 H 512.629 -0.922598 -2.37403 0
M  V30 5468 H 513.412 -2.58967 -2.25368 0
M  V30 5469 N 515.857 1.33968 -0.830081 0
M  V30 5470 C 517.082 2.02813 -0.433796 0
M  V30 5471 C 517.507 1.62076 0.954614 0
M  V30 5472 O 516.865 0.808955 1.62252 0
M  V30 5473 C 516.913 3.56348 -0.552115 0
M  V30 5474 O 516.017 4.10202 0.425191 0
M  V30 5475 H 515.358 0.639817 -0.177567 0
M  V30 5476 H 517.888 1.7106 -1.12248 0
M  V30 5477 H 517.898 4.05722 -0.430513 0
M  V30 5478 H 516.573 3.85344 -1.56471 0
M  V30 5479 H 515.15 3.71979 0.261878 0
M  V30 5480 N 517.335 0.585699 1.46312 0
M  V30 5481 C 518.565 0.0780166 2.06453 0
M  V30 5482 C 518.973 -1.2336 1.43454 0
M  V30 5483 O 518.316 -1.75734 0.535086 0
M  V30 5484 C 518.378 -0.158951 3.59148 0
M  V30 5485 C 518.042 1.06752 4.44357 0
M  V30 5486 C 519.039 1.98031 4.80708 0
M  V30 5487 C 516.724 1.2902 4.85447 0
M  V30 5488 C 518.718 3.09924 5.5698 0
M  V30 5489 C 516.405 2.41218 5.61478 0
M  V30 5490 C 517.403 3.31499 5.97158 0
M  V30 5491 O 517.091 4.41747 6.71651 0
M  V30 5492 H 516.823 0.0558894 0.673686 0
M  V30 5493 H 519.377 0.806994 1.88883 0
M  V30 5494 H 517.607 -0.942575 3.75037 0
M  V30 5495 H 519.296 -0.615513 4.01206 0
M  V30 5496 H 520.062 1.82043 4.49539 0
M  V30 5497 H 515.941 0.596567 4.57124 0
M  V30 5498 H 519.485 3.80415 5.84748 0
M  V30 5499 H 515.382 2.57167 5.9206 0
M  V30 5500 H 516.15 4.40152 6.90079 0
M  V30 5501 N 518.813 -1.54241 0.323641 0
M  V30 5502 C 519.743 -2.27289 -0.534993 0
M  V30 5503 C 520.724 -1.28087 -1.11927 0
M  V30 5504 O 521.909 -1.56899 -1.14439 0
M  V30 5505 C 519.039 -3.03075 -1.69596 0
M  V30 5506 C 517.993 -4.09614 -1.24098 0
M  V30 5507 C 517.319 -4.73242 -2.4889 0
M  V30 5508 C 518.619 -5.21087 -0.355789 0
M  V30 5509 H 520.313 -2.99308 0.0743257 0
M  V30 5510 H 517.859 -1.43952 0.0371874 0
M  V30 5511 H 519.812 -3.52907 -2.30293 0
M  V30 5512 H 518.536 -2.28673 -2.33187 0
M  V30 5513 H 517.195 -3.60666 -0.656945 0
M  V30 5514 H 516.843 -3.95455 -3.10845 0
M  V30 5515 H 516.543 -5.45209 -2.19138 0
M  V30 5516 H 518.067 -5.25848 -3.10348 0
M  V30 5517 H 519.481 -5.66675 -0.869042 0
M  V30 5518 H 517.878 -5.9991 -0.151045 0
M  V30 5519 H 518.948 -4.81005 0.613339 0
M  V30 5520 N 520.291 -0.0518155 -1.57515 0
M  V30 5521 C 521.201 0.937539 -2.15052 0
M  V30 5522 C 522.217 1.34121 -1.10849 0
M  V30 5523 O 523.393 1.418 -1.4302 0
M  V30 5524 C 520.458 2.19379 -2.68466 0
M  V30 5525 C 519.519 1.84841 -3.87469 0
M  V30 5526 C 518.752 3.04477 -4.38326 0
M  V30 5527 O 518.975 4.17868 -3.88256 0
M  V30 5528 O 517.909 2.85453 -5.29906 0
M  V30 5529 H 521.735 0.478201 -2.99912 0
M  V30 5530 H 519.32 0.17012 -1.48428 0
M  V30 5531 H 521.202 2.93084 -3.02787 0
M  V30 5532 H 519.877 2.64449 -1.86677 0
M  V30 5533 H 518.784 1.08449 -3.58036 0
M  V30 5534 H 520.117 1.44569 -4.7049 0
M  V30 5535 N 521.769 1.56035 0.221574 0
M  V30 5536 C 522.699 1.95434 1.2778 0
M  V30 5537 C 523.68 0.822564 1.48889 0
M  V30 5538 O 524.865 1.08486 1.61072 0
M  V30 5539 C 521.995 2.27102 2.62759 0
M  V30 5540 C 520.949 3.4277 2.56306 0
M  V30 5541 C 520.275 3.60043 3.95314 0
M  V30 5542 C 521.575 4.77742 2.11093 0
M  V30 5543 H 523.269 2.83912 0.950504 0
M  V30 5544 H 520.815 1.36596 0.455791 0
M  V30 5545 H 522.768 2.53256 3.36807 0
M  V30 5546 H 521.492 1.35478 2.97176 0
M  V30 5547 H 520.151 3.16664 1.84715 0
M  V30 5548 H 519.799 2.65794 4.27039 0
M  V30 5549 H 519.499 4.37841 3.91879 0
M  V30 5550 H 521.023 3.88545 4.71025 0
M  V30 5551 H 522.437 5.03102 2.74885 0
M  V30 5552 H 520.834 5.58823 2.18716 0
M  V30 5553 H 521.904 4.731 1.06321 0
M  V30 5554 N 523.247 -0.488276 1.49845 0
M  V30 5555 C 524.493 -1.24065 1.61182 0
M  V30 5556 C 524.848 -1.9004 0.300435 0
M  V30 5557 O 524.141 -1.78341 -0.700365 0
M  V30 5558 C 524.335 -2.32152 2.71735 0
M  V30 5559 C 524.164 -1.76778 4.13497 0
M  V30 5560 C 522.934 -1.57513 4.80123 0
M  V30 5561 C 525.132 -1.27242 4.98311 0
M  V30 5562 N 523.114 -0.972015 6.06156 0
M  V30 5563 C 524.485 -0.791457 6.14928 0
M  V30 5564 C 526.54 -1.15934 4.84214 0
M  V30 5565 C 525.243 -0.208593 7.18997 0
M  V30 5566 C 527.269 -0.590436 5.88445 0
M  V30 5567 C 526.631 -0.119767 7.04298 0
M  V30 5568 H 522.73 -0.443487 0.644083 0
M  V30 5569 H 525.314 -0.545551 1.86901 0
M  V30 5570 H 523.485 -2.99108 2.47768 0
M  V30 5571 H 525.217 -2.99187 2.72523 0
M  V30 5572 H 521.972 -1.82247 4.37131 0
M  V30 5573 H 522.396 -0.689367 6.73481 0
M  V30 5574 H 527.038 -1.5092 3.94947 0
M  V30 5575 H 524.756 0.153501 8.07954 0
M  V30 5576 H 528.342 -0.505548 5.79599 0
M  V30 5577 H 527.222 0.313568 7.83573 0
M  V30 5578 N 524.725 -1.39134 -0.740242 0
M  V30 5579 C 525.971 -1.36273 -1.50192 0
M  V30 5580 C 526.304 0.0430136 -1.94152 0
M  V30 5581 O 525.579 1.00691 -1.66408 0
M  V30 5582 C 525.862 -2.33041 -2.74525 0
M  V30 5583 C 525.715 -3.82535 -2.36617 0
M  V30 5584 C 527.034 -2.27723 -3.76604 0
M  V30 5585 H 524.153 -0.496323 -0.544823 0
M  V30 5586 H 526.795 -1.70085 -0.846815 0
M  V30 5587 H 524.945 -2.04337 -3.30422 0
M  V30 5588 H 526.617 -4.21967 -1.86391 0
M  V30 5589 H 524.86 -3.99565 -1.68909 0
M  V30 5590 H 525.531 -4.45723 -3.2563 0
M  V30 5591 H 528.007 -2.53091 -3.30279 0
M  V30 5592 H 526.883 -2.97519 -4.61274 0
M  V30 5593 H 527.144 -1.28049 -4.2315 0
M  V30 5594 N 526.204 0.969867 -1.24223 0
M  V30 5595 C 527.451 1.71256 -1.08063 0
M  V30 5596 C 527.779 1.90734 0.380872 0
M  V30 5597 O 527.034 1.46469 1.29789 0
M  V30 5598 C 527.333 3.10883 -1.76314 0
M  V30 5599 C 526.999 3.11252 -3.26241 0
M  V30 5600 C 525.661 3.1106 -3.67144 0
M  V30 5601 C 528.013 3.05751 -4.22097 0
M  V30 5602 C 525.341 3.03097 -5.02344 0
M  V30 5603 C 527.693 2.9933 -5.57301 0
M  V30 5604 C 526.357 2.97466 -5.97554 0
M  V30 5605 H 525.627 0.62667 -0.395431 0
M  V30 5606 H 528.274 1.13422 -1.54297 0
M  V30 5607 H 526.579 3.72168 -1.22468 0
M  V30 5608 H 528.276 3.67138 -1.61277 0
M  V30 5609 H 524.866 3.12165 -2.93685 0
M  V30 5610 H 529.05 3.05031 -3.91497 0
M  V30 5611 H 524.306 3.00013 -5.32731 0
M  V30 5612 H 528.48 2.94033 -6.31283 0
M  V30 5613 H 526.107 2.91051 -7.02277 0
M  V30 5614 N 527.682 1.05563 1.17022 0
M  V30 5615 C 528.912 0.787307 1.91011 0
M  V30 5616 C 529.32 -0.661256 1.77268 0
M  V30 5617 O 528.663 -1.46379 1.10991 0
M  V30 5618 C 528.725 1.09313 3.42478 0
M  V30 5619 C 528.389 2.53863 3.80004 0
M  V30 5620 C 529.386 3.52081 3.82538 0
M  V30 5621 C 527.071 2.88969 4.10855 0
M  V30 5622 C 529.065 4.83449 4.15399 0
M  V30 5623 C 526.752 4.2054 4.43384 0
M  V30 5624 C 527.75 5.17589 4.45635 0
M  V30 5625 O 527.438 6.46799 4.77395 0
M  V30 5626 H 527.17 0.285463 0.61277 0
M  V30 5627 H 529.724 1.41051 1.49311 0
M  V30 5628 H 527.954 0.412833 3.8449 0
M  V30 5629 H 529.643 0.810224 3.97731 0
M  V30 5630 H 530.409 3.26299 3.58823 0
M  V30 5631 H 526.288 2.1409 4.08272 0
M  V30 5632 H 529.832 5.59194 4.1707 0
M  V30 5633 H 525.729 4.46083 4.66563 0
M  V30 5634 H 526.497 6.51677 4.95237 0
M  V30 5635 N 529.16 -1.33526 0.837174 0
M  V30 5636 C 530.388 -2.02047 0.445494 0
M  V30 5637 C 530.803 -1.62995 -0.952788 0
M  V30 5638 O 530.16 -0.842447 -1.61892 0
M  V30 5639 C 530.211 -3.57221 0.554577 0
M  V30 5640 O 529.932 -3.94863 1.89776 0
M  V30 5641 C 531.433 -4.43012 0.159634 0
M  V30 5642 H 528.653 -0.647221 0.177048 0
M  V30 5643 H 531.197 -1.70492 1.12928 0
M  V30 5644 H 529.352 -3.87315 -0.0812781 0
M  V30 5645 H 529.766 -4.89569 1.88208 0
M  V30 5646 H 531.24 -5.51253 0.28701 0
M  V30 5647 H 531.717 -4.29916 -0.898289 0
M  V30 5648 H 532.323 -4.18274 0.769855 0
M  V30 5649 N 530.638 -0.59345 -1.46 0
M  V30 5650 C 531.884 -0.0832754 -2.02629 0
M  V30 5651 C 532.217 1.27749 -1.46266 0
M  V30 5652 O 531.492 1.8395 -0.631866 0
M  V30 5653 C 531.775 -0.0290756 -3.60088 0
M  V30 5654 C 531.628 -1.41951 -4.26814 0
M  V30 5655 C 532.947 0.666055 -4.35031 0
M  V30 5656 H 530.066 -0.031736 -0.736316 0
M  V30 5657 H 532.708 -0.762711 -1.74019 0
M  V30 5658 H 530.858 0.549532 -3.84594 0
M  V30 5659 H 532.53 -2.04411 -4.13538 0
M  V30 5660 H 530.773 -1.98422 -3.8576 0
M  V30 5661 H 531.444 -1.33395 -5.3564 0
M  V30 5662 H 533.92 0.174401 -4.15734 0
M  V30 5663 H 532.796 0.673041 -5.44758 0
M  V30 5664 H 533.057 1.72946 -4.06869 0
M  V30 5665 N 532.116 1.54067 -0.331816 0
M  V30 5666 C 533.362 2.01713 0.261395 0
M  V30 5667 C 533.717 1.21566 1.49129 0
M  V30 5668 O 533.01 0.291867 1.89364 0
M  V30 5669 C 533.204 3.51634 0.639392 0
M  V30 5670 C 533.033 4.46295 -0.552321 0
M  V30 5671 C 531.803 4.94185 -1.05399 0
M  V30 5672 C 534.001 4.94677 -1.40711 0
M  V30 5673 N 531.983 5.7277 -2.20925 0
M  V30 5674 C 533.354 5.71267 -2.40943 0
M  V30 5675 C 535.409 4.76805 -1.43392 0
M  V30 5676 C 534.112 6.31889 -3.4367 0
M  V30 5677 C 536.138 5.38268 -2.44994 0
M  V30 5678 C 535.5 6.14716 -3.43952 0
M  V30 5679 H 531.599 0.77975 0.0592729 0
M  V30 5680 H 534.183 1.88974 -0.468726 0
M  V30 5681 H 532.354 3.64603 1.33863 0
M  V30 5682 H 534.086 3.86038 1.21478 0
M  V30 5683 H 530.841 4.69472 -0.623952 0
M  V30 5684 H 531.265 6.16737 -2.79222 0
M  V30 5685 H 535.907 4.17255 -0.682489 0
M  V30 5686 H 533.625 6.90554 -4.19715 0
M  V30 5687 H 537.211 5.26352 -2.4788 0
M  V30 5688 H 536.091 6.6143 -4.21283 0
M  V30 5689 N 533.594 0.0601682 1.57485 0
M  V30 5690 C 534.541 -0.91112 2.12055 0
M  V30 5691 C 535.511 -1.30298 1.03013 0
M  V30 5692 O 536.696 -1.39087 1.30612 0
M  V30 5693 C 533.836 -2.1775 2.67729 0
M  V30 5694 C 532.949 -1.83933 3.90887 0
M  V30 5695 C 532.084 -3.05096 4.34845 0
M  V30 5696 C 531.123 -2.67241 5.5068 0
M  V30 5697 N 530.26 -3.81127 5.8965 0
M  V30 5698 H 535.1 -0.43888 2.9475 0
M  V30 5699 H 532.637 -0.204995 1.45665 0
M  V30 5700 H 534.595 -2.91866 2.98111 0
M  V30 5701 H 533.225 -2.62535 1.87816 0
M  V30 5702 H 532.277 -0.999287 3.6704 0
M  V30 5703 H 533.589 -1.52074 4.75052 0
M  V30 5704 H 532.743 -3.87502 4.66827 0
M  V30 5705 H 531.482 -3.40139 3.49509 0
M  V30 5706 H 530.487 -1.83254 5.18361 0
M  V30 5707 H 531.712 -2.3338 6.37738 0
M  V30 5708 H 529.658 -4.15954 5.07266 0
M  V30 5709 H 529.575 -3.52997 6.68528 0
M  V30 5710 H 530.843 -4.64145 6.2625 0
M  V30 5711 N 535.072 -1.5615 -0.213296 0
M  V30 5712 C 536.019 -1.93086 -1.26437 0
M  V30 5713 C 536.989 -0.789086 -1.4616 0
M  V30 5714 O 538.174 -1.04569 -1.59593 0
M  V30 5715 C 535.314 -2.26003 -2.608 0
M  V30 5716 C 534.427 -3.53156 -2.48807 0
M  V30 5717 C 533.562 -3.7548 -3.7575 0
M  V30 5718 C 532.601 -4.96119 -3.58514 0
M  V30 5719 N 531.738 -5.14791 -4.77425 0
M  V30 5720 H 536.578 -2.82707 -0.942376 0
M  V30 5721 H 534.115 -1.39919 -0.454001 0
M  V30 5722 H 536.073 -2.431 -3.39055 0
M  V30 5723 H 534.703 -1.39546 -2.91079 0
M  V30 5724 H 533.755 -3.44207 -1.61944 0
M  V30 5725 H 535.067 -4.41565 -2.31996 0
M  V30 5726 H 534.221 -3.92718 -4.62447 0
M  V30 5727 H 532.96 -2.85368 -3.95495 0
M  V30 5728 H 531.965 -4.78823 -2.70201 0
M  V30 5729 H 533.19 -5.87724 -3.40231 0
M  V30 5730 H 531.136 -4.27623 -4.97468 0
M  V30 5731 H 531.053 -5.97347 -4.63371 0
M  V30 5732 H 532.321 -5.36471 -5.65525 0
M  V30 5733 N 536.55 0.480323 -1.50102 0
M  V30 5734 C 537.513 1.56181 -1.6775 0
M  V30 5735 C 538.513 1.51156 -0.548503 0
M  V30 5736 O 539.703 1.5394 -0.815363 0
M  V30 5737 C 536.835 2.95823 -1.69415 0
M  V30 5738 H 538.028 1.41855 -2.6423 0
M  V30 5739 H 535.581 0.70605 -1.39444 0
M  V30 5740 H 536.316 3.15604 -0.745948 0
M  V30 5741 H 536.101 3.00878 -2.51425 0
M  V30 5742 H 537.591 3.74359 -1.85054 0
M  V30 5743 N 538.028 1.39524 0.732853 0
M  V30 5744 C 538.975 1.38416 1.84688 0
M  V30 5745 C 539.945 0.243539 1.64305 0
M  V30 5746 O 541.13 0.438979 1.85681 0
M  V30 5747 C 538.27 1.23555 3.22224 0
M  V30 5748 C 537.383 2.47179 3.54298 0
M  V30 5749 C 536.518 2.2489 4.81246 0
M  V30 5750 C 535.557 3.44178 5.0617 0
M  V30 5751 N 534.694 3.21192 6.24323 0
M  V30 5752 H 539.534 2.33645 1.84971 0
M  V30 5753 H 537.071 1.16059 0.903804 0
M  V30 5754 H 539.029 1.12949 4.0162 0
M  V30 5755 H 537.659 0.31954 3.21215 0
M  V30 5756 H 536.711 2.68379 2.69587 0
M  V30 5757 H 538.023 3.36022 3.68633 0
M  V30 5758 H 537.177 2.11538 5.68627 0
M  V30 5759 H 535.916 1.33443 4.69089 0
M  V30 5760 H 534.921 3.58025 4.17251 0
M  V30 5761 H 536.146 4.36528 5.20212 0
M  V30 5762 H 534.092 2.32413 6.1345 0
M  V30 5763 H 534.009 4.03594 6.39256 0
M  V30 5764 H 535.277 3.1154 7.14537 0
M  V30 5765 N 539.506 -0.963266 1.24736 0
M  V30 5766 C 540.917 -1.52145 1.08207 0
M  V30 5767 C 541.268 -1.93142 -0.345061 0
M  V30 5768 O 540.393 -1.77769 -1.23399 0
M  V30 5769 C 540.988 -2.76486 1.95808 0
M  V30 5770 C 539.547 -3.28646 1.8349 0
M  V30 5771 C 538.694 -2.01529 1.90476 0
M  V30 5772 H 541.645 -0.781083 1.38148 0
M  V30 5773 H 541.666 -3.49986 1.49297 0
M  V30 5774 H 541.178 -2.46617 2.99669 0
M  V30 5775 H 539.279 -3.63357 0.824787 0
M  V30 5776 H 539.392 -3.97246 2.67829 0
M  V30 5777 H 537.756 -2.16442 1.34258 0
M  V30 5778 H 538.539 -1.7402 2.95926 0
M  V30 5779 O 541.023 -1.1863 -1.09586 0
M  V30 5780 H 541.714 -0.930355 -1.69894 0
M  V30 END ATOM
M  V30 BEGIN BOND
M  V30 END BOND
M  V30 END CTAB
M  END
$$$$
