drugbank_target|P52824 Diacylglycerol kinase theta (DB14001)
 OpenBabel12092121233D

  0  0  0     0  0            999 V3000
M  V30 BEGIN CTAB
M  V30 COUNTS 14169 14340 0 0 0
M  V30 BEGIN ATOM
M  V30 1 H -0.908 1.98254 -0.117106 0
M  V30 2 N 0 1.576 0 0
M  V30 3 C 0.933 2.03868 1.02534 0
M  V30 4 C 1.911 0.928543 1.3348 0
M  V30 5 O 3.095 1.19667 1.45644 0
M  V30 6 C 0.222 2.43627 2.35294 0
M  V30 7 C -0.732 3.65373 2.2001 0
M  V30 8 S 0.101 5.13292 1.52614 0
M  V30 9 C 1.257 5.56322 2.86805 0
M  V30 10 H 1.49 2.90518 0.631377 0
M  V30 11 H -0.977 1.52953 0.210867 0
M  V30 12 H 0.981 2.67203 3.11629 0
M  V30 13 H -0.358 1.57376 2.7183 0
M  V30 14 H -1.165 3.90944 3.18086 0
M  V30 15 H -1.563 3.418 1.51819 0
M  V30 16 H 0.729 5.58782 3.83104 0
M  V30 17 H 1.672 6.56266 2.65933 0
M  V30 18 H 2.08 4.83886 2.90714 0
M  V30 19 N 1.4781 -0.272755 1.55222 0
M  V30 20 C 2.4411 -1.32041 1.87344 0
M  V30 21 C 3.4411 -1.42342 0.74803 0
M  V30 22 O 4.6311 -1.41488 1.0162 0
M  V30 23 C 1.7631 -2.70173 2.07893 0
M  V30 24 H 2.9561 -1.04789 2.80997 0
M  V30 25 H 0.5091 -0.51083 1.47717 0
M  V30 26 H 1.2441 -3.02605 1.16622 0
M  V30 27 H 1.0291 -2.64082 2.89833 0
M  V30 28 H 2.5191 -3.45869 2.34017 0
M  V30 29 N 2.9562 -1.48159 -0.537278 0
M  V30 30 C 3.9192 -1.61665 -1.62472 0
M  V30 31 C 4.9192 -0.490395 -1.5314 0
M  V30 32 O 6.1092 -0.755998 -1.5694 0
M  V30 33 C 3.2412 -1.57997 -3.02076 0
M  V30 34 H 4.4342 -2.58621 -1.51839 0
M  V30 35 H 1.9872 -1.36647 -0.758771 0
M  V30 36 H 2.7222 -0.624913 -3.18222 0
M  V30 37 H 2.5072 -2.39755 -3.10258 0
M  V30 38 H 3.9972 -1.70627 -3.81151 0
M  V30 39 N 4.4343 0.785586 -1.36625 0
M  V30 40 C 5.3973 1.87999 -1.31107 0
M  V30 41 C 6.3973 1.59316 -0.217959 0
M  V30 42 O 7.5873 1.67656 -0.472977 0
M  V30 43 C 4.7193 3.24861 -1.03334 0
M  V30 44 H 5.9123 1.94307 -2.2844 0
M  V30 45 H 3.4653 0.983813 -1.21453 0
M  V30 46 H 4.2003 3.24235 -0.0647432 0
M  V30 47 H 3.9853 3.4707 -1.82441 0
M  V30 48 H 5.4753 4.04929 -1.02088 0
M  V30 49 N 5.9124 1.20967 1.01018 0
M  V30 50 C 6.8754 0.965918 2.07853 0
M  V30 51 C 7.8754 -0.0610545 1.60684 0
M  V30 52 O 9.0654 0.175681 1.73312 0
M  V30 53 C 6.1974 0.455513 3.37843 0
M  V30 54 H 7.3904 1.91365 2.3091 0
M  V30 55 H 4.9434 1.02594 1.17916 0
M  V30 56 H 5.6784 -0.497381 3.20463 0
M  V30 57 H 5.4634 1.19622 3.73407 0
M  V30 58 H 6.9534 0.304667 4.16487 0
M  V30 59 N 7.3905 -1.2043 1.01659 0
M  V30 60 C 8.3005 -2.2689 0.596484 0
M  V30 61 C 9.3165 -1.70107 -0.36599 0
M  V30 62 O 10.4925 -2.00117 -0.226942 0
M  V30 63 C 7.5575 -3.4665 -0.0586659 0
M  V30 64 C 6.6185 -4.18662 0.949751 0
M  V30 65 C 5.8515 -5.32705 0.32577 0
M  V30 66 O 6.0745 -5.63656 -0.874509 0
M  V30 67 O 5.0085 -5.92803 1.04249 0
M  V30 68 H 8.8345 -2.65041 1.4828 0
M  V30 69 H 6.4195 -1.27048 0.786082 0
M  V30 70 H 8.3015 -4.19256 -0.424564 0
M  V30 71 H 6.9765 -3.10375 -0.91918 0
M  V30 72 H 5.8835 -3.48229 1.36702 0
M  V30 73 H 7.2165 -4.58878 1.78023 0
M  V30 74 N 8.8686 -0.792821 -1.36206 0
M  V30 75 C 10.2796 -0.429513 -1.81692 0
M  V30 76 C 10.6306 1.04695 -1.65932 0
M  V30 77 O 9.7556 1.81256 -1.18218 0
M  V30 78 C 10.3506 -0.772831 -3.29868 0
M  V30 79 C 8.9096 -0.462307 -3.7355 0
M  V30 80 C 8.0566 -1.00569 -2.5842 0
M  V30 81 H 11.0076 -0.985672 -1.24379 0
M  V30 82 H 11.0286 -0.0651928 -3.80444 0
M  V30 83 H 10.5406 -1.84747 -3.41307 0
M  V30 84 H 8.6416 0.604158 -3.67669 0
M  V30 85 H 8.7546 -0.985299 -4.68859 0
M  V30 86 H 7.1186 -0.428734 -2.51066 0
M  V30 87 H 7.9016 -2.08616 -2.72643 0
M  V30 88 N 10.3467 1.47872 -0.545128 0
M  V30 89 C 11.5947 2.02093 -0.016553 0
M  V30 90 C 11.9157 1.42305 1.3332 0
M  V30 91 O 11.1857 0.593853 1.86682 0
M  V30 92 H 9.7657 0.746993 -0.00313038 0
M  V30 93 H 12.4277 1.81414 -0.712397 0
M  V30 94 H 11.5237 3.11996 0.0805422 0
M  V30 95 N 11.8248 0.280983 1.55075 0
M  V30 96 C 12.7878 -0.590896 2.21452 0
M  V30 97 C 13.7878 -1.07682 1.19421 0
M  V30 98 O 14.9778 -0.97605 1.44288 0
M  V30 99 C 12.1098 -1.81587 2.88511 0
M  V30 100 H 13.3028 -0.0112554 2.99898 0
M  V30 101 H 10.8558 0.0316438 1.56268 0
M  V30 102 H 11.5908 -2.43587 2.14093 0
M  V30 103 H 11.3758 -1.4753 3.63287 0
M  V30 104 H 12.8658 -2.43575 3.39206 0
M  V30 105 N 13.3029 -1.57598 0.00835791 0
M  V30 106 C 14.7189 -1.55764 -0.347822 0
M  V30 107 C 14.9189 -1.01186 -1.74252 0
M  V30 108 O 13.9749 -0.649371 -2.44007 0
M  V30 109 C 15.2879 -2.99927 -0.215407 0
M  V30 110 C 16.8359 -3.11656 -0.289725 0
M  V30 111 C 17.3109 -4.57621 -0.18634 0
M  V30 112 N 18.8019 -4.62557 -0.243978 0
M  V30 113 C 19.5369 -5.73094 -0.18745 0
M  V30 114 N 19.0329 -6.92753 -0.0810331 0
M  V30 115 N 20.8259 -5.61588 -0.239925 0
M  V30 116 H 12.9769 -1.91411 0.92062 0
M  V30 117 H 15.2399 -0.879562 0.353659 0
M  V30 118 H 14.9459 -3.43729 0.744512 0
M  V30 119 H 14.8199 -3.63865 -0.994097 0
M  V30 120 H 17.2069 -2.67779 -1.24009 0
M  V30 121 H 17.2879 -2.5048 0.51898 0
M  V30 122 H 16.9319 -5.02174 0.760519 0
M  V30 123 H 16.8619 -5.16752 -1.01364 0
M  V30 124 H 19.3529 -3.76481 -0.327217 0
M  V30 125 H 19.6659 -7.72787 -0.0440241 0
M  V30 126 H 18.0109 -6.94984 -0.0465419 0
M  V30 127 H 21.2019 -4.66996 -0.321317 0
M  V30 128 H 21.3749 -6.47714 -0.192407 0
M  V30 129 N 14.781 0.264519 -1.55364 0
M  V30 130 C 15.744 1.31046 -1.88042 0
M  V30 131 C 16.744 1.41943 -0.755569 0
M  V30 132 O 17.934 1.40947 -1.02369 0
M  V30 133 C 15.066 2.69067 -2.09323 0
M  V30 134 H 16.259 1.03297 -2.81549 0
M  V30 135 H 13.812 0.502989 -1.47986 0
M  V30 136 H 14.547 3.01982 -1.18226 0
M  V30 137 H 14.332 2.62542 -2.91229 0
M  V30 138 H 15.822 3.44623 -2.35848 0
M  V30 139 N 16.2591 1.48442 0.529413 0
M  V30 140 C 17.5051 1.57699 1.28463 0
M  V30 141 C 17.8601 0.247913 1.90796 0
M  V30 142 O 17.1531 -0.749279 1.76342 0
M  V30 143 C 17.3471 2.6523 2.39558 0
M  V30 144 C 17.1761 4.08464 1.88114 0
M  V30 145 C 15.9461 4.75596 1.70693 0
M  V30 146 C 18.1441 4.94613 1.40935 0
M  V30 147 N 16.1261 6.03245 1.13881 0
M  V30 148 C 17.4971 6.12511 0.960734 0
M  V30 149 C 19.5521 4.80833 1.29243 0
M  V30 150 C 18.2551 7.18149 0.406792 0
M  V30 151 C 20.2811 5.86593 0.752487 0
M  V30 152 C 19.6431 7.037 0.313946 0
M  V30 153 H 15.7421 0.631608 0.46108 0
M  V30 154 H 18.3261 1.85325 0.596886 0
M  V30 155 H 16.4971 2.39425 3.05827 0
M  V30 156 H 18.2291 2.64169 3.06589 0
M  V30 157 H 14.9841 4.31938 1.94232 0
M  V30 158 H 15.4081 6.71324 0.874831 0
M  V30 159 H 20.0501 3.90635 1.61754 0
M  V30 160 H 17.7681 8.0807 0.0693671 0
M  V30 161 H 21.3541 5.77985 0.665192 0
M  V30 162 H 20.2341 7.8414 -0.0973632 0
M  V30 163 N 17.7372 -0.778329 1.37039 0
M  V30 164 C 18.6672 -1.90546 1.34962 0
M  V30 165 C 19.6482 -1.68681 0.219274 0
M  V30 166 O 20.8332 -1.89634 0.418624 0
M  V30 167 C 17.9632 -3.27734 1.14925 0
M  V30 168 C 16.9172 -3.64147 2.24902 0
M  V30 169 C 16.2432 -4.99806 1.89996 0
M  V30 170 C 17.5432 -3.71579 3.67051 0
M  V30 171 H 19.2372 -1.92541 2.29277 0
M  V30 172 H 16.7832 -0.924948 1.10366 0
M  V30 173 H 18.7362 -4.06215 1.12104 0
M  V30 174 H 17.4602 -3.26154 0.170631 0
M  V30 175 H 16.1192 -2.8797 2.26868 0
M  V30 176 H 15.7672 -4.94759 0.906796 0
M  V30 177 H 15.4672 -5.25139 2.63634 0
M  V30 178 H 16.9912 -5.80694 1.88749 0
M  V30 179 H 18.4052 -4.40227 3.67251 0
M  V30 180 H 16.8022 -4.08405 4.39688 0
M  V30 181 H 17.8722 -2.72404 4.01154 0
M  V30 182 N 19.2153 -1.21501 -1.00376 0
M  V30 183 C 20.4633 -1.03095 -1.73827 0
M  V30 184 C 20.7843 0.436341 -1.90055 0
M  V30 185 O 20.0543 1.31466 -1.45236 0
M  V30 186 H 18.6343 -0.378487 -0.644016 0
M  V30 187 H 21.2963 -1.52831 -1.20949 0
M  V30 188 H 20.3923 -1.49991 -2.73695 0
M  V30 189 N 20.6934 1.19889 -1.02296 0
M  V30 190 C 21.9414 1.89046 -0.714558 0
M  V30 191 C 22.2624 1.79636 0.758681 0
M  V30 192 O 21.5324 1.20292 1.54618 0
M  V30 193 H 20.1124 0.699802 -0.261317 0
M  V30 194 H 22.7744 1.45574 -1.29592 0
M  V30 195 H 21.8704 2.95524 -1.0036 0
M  V30 196 N 22.1715 0.800033 1.35784 0
M  V30 197 C 23.4195 0.376597 1.9856 0
M  V30 198 C 23.7405 -1.05812 1.63795 0
M  V30 199 O 23.0105 -1.73103 0.917171 0
M  V30 200 H 21.5905 0.136261 0.734467 0
M  V30 201 H 24.2525 1.02442 1.65806 0
M  V30 202 H 23.3485 0.477002 3.08433 0
M  V30 203 N 23.6496 -1.47581 0.552962 0
M  V30 204 C 24.8746 -2.07378 0.0300593 0
M  V30 205 C 25.2996 -1.40355 -1.25229 0
M  V30 206 O 24.6576 -0.477099 -1.7491 0
M  V30 207 C 24.7056 -3.60274 -0.153231 0
M  V30 208 O 23.8096 -3.94041 -1.21678 0
M  V30 209 H 23.1506 -0.662158 0.0494182 0
M  V30 210 H 25.6806 -1.89662 0.767434 0
M  V30 211 H 25.6906 -4.0633 -0.368761 0
M  V30 212 H 24.3656 -4.08455 0.783397 0
M  V30 213 H 22.9426 -3.59735 -0.982079 0
M  V30 214 N 25.1277 -0.289203 -1.54924 0
M  V30 215 C 26.5387 0.205791 -1.85562 0
M  V30 216 C 26.8897 1.54351 -1.2112 0
M  V30 217 O 26.0147 2.10435 -0.504601 0
M  V30 218 C 26.6097 0.380177 -3.3666 0
M  V30 219 C 25.1687 0.819395 -3.67373 0
M  V30 220 C 24.3157 -0.079159 -2.77187 0
M  V30 221 H 27.2667 -0.510577 -1.50262 0
M  V30 222 H 27.2877 1.21659 -3.60526 0
M  V30 223 H 26.7997 -0.593589 -3.83534 0
M  V30 224 H 24.9007 1.80413 -3.26009 0
M  V30 225 H 25.0137 0.646957 -4.74712 0
M  V30 226 H 23.3777 0.439565 -2.50878 0
M  V30 227 H 24.1607 -1.04906 -3.26878 0
M  V30 228 N 26.6058 1.57591 -0.0167156 0
M  V30 229 C 28.0218 1.55946 0.339557 0
M  V30 230 C 28.2218 1.02109 1.73713 0
M  V30 231 O 27.2778 0.662303 2.43659 0
M  V30 232 C 28.5908 3.00037 0.199499 0
M  V30 233 C 30.1388 3.11805 0.273193 0
M  V30 234 C 30.6138 4.57713 0.162068 0
M  V30 235 N 32.1048 4.6268 0.219444 0
M  V30 236 C 32.8398 5.73185 0.157054 0
M  V30 237 N 32.3358 6.92786 0.0442936 0
M  V30 238 N 34.1288 5.61707 0.21014 0
M  V30 239 H 26.2798 1.90921 -0.930758 0
M  V30 240 H 28.5428 0.877674 -0.358319 0
M  V30 241 H 28.2488 3.4333 -0.76273 0
M  V30 242 H 28.1228 3.64387 0.974786 0
M  V30 243 H 30.5098 2.68433 1.22587 0
M  V30 244 H 30.5908 2.50201 -0.532256 0
M  V30 245 H 30.2348 5.01763 -0.78714 0
M  V30 246 H 30.1648 5.17283 0.986222 0
M  V30 247 H 32.6558 3.76649 0.307246 0
M  V30 248 H 32.9688 7.728 0.00304069 0
M  V30 249 H 31.3138 6.94999 0.00968457 0
M  V30 250 H 34.5048 4.6716 0.296546 0
M  V30 251 H 34.6778 6.47807 0.158054 0
M  V30 252 N 28.0839 -0.256276 1.55502 0
M  V30 253 C 29.4949 -0.826068 1.67431 0
M  V30 254 C 29.8459 -1.86396 0.612446 0
M  V30 255 O 28.9709 -2.15031 -0.243025 0
M  V30 256 C 29.5659 -1.50512 3.03532 0
M  V30 257 C 28.1249 -2.02273 3.17431 0
M  V30 258 C 27.2719 -0.870548 2.63281 0
M  V30 259 H 30.2229 -0.0322728 1.58667 0
M  V30 260 H 30.2439 -2.37279 2.97454 0
M  V30 261 H 29.7559 -0.749484 3.80794 0
M  V30 262 H 27.8569 -2.80746 2.44974 0
M  V30 263 H 27.9699 -2.22655 4.24219 0
M  V30 264 H 26.3339 -1.26851 2.20864 0
M  V30 265 H 27.1169 -0.128149 3.43061 0
M  V30 266 N 29.562 -1.4872 -0.521534 0
M  V30 267 C 30.81 -1.56857 -1.27437 0
M  V30 268 C 31.131 -0.247982 -1.93417 0
M  V30 269 O 30.401 0.731151 -1.81744 0
M  V30 270 H 28.981 -0.577885 -0.473347 0
M  V30 271 H 31.643 -1.85233 -0.606205 0
M  V30 272 H 30.739 -2.35402 -2.0492 0
M  V30 273 N 31.0401 0.771051 -1.3745 0
M  V30 274 C 32.2651 1.56529 -1.36065 0
M  V30 275 C 32.6901 1.88029 0.0515859 0
M  V30 276 O 32.0481 1.49282 1.02882 0
M  V30 277 C 32.0961 2.85187 -2.20683 0
M  V30 278 O 31.2001 3.79593 -1.61193 0
M  V30 279 H 30.5411 0.47411 -0.464883 0
M  V30 280 H 33.0711 0.954269 -1.80983 0
M  V30 281 H 33.0811 3.34283 -2.33921 0
M  V30 282 H 31.7561 2.61588 -3.23334 0
M  V30 283 H 30.3331 3.38239 -1.56999 0
M  V30 284 N 32.5182 1.22032 0.997298 0
M  V30 285 C 33.9292 1.0397 1.55071 0
M  V30 286 C 34.2802 -0.398192 1.92117 0
M  V30 287 O 33.4052 -1.28254 1.74298 0
M  V30 288 C 34.0002 1.88109 2.81781 0
M  V30 289 C 32.5592 1.74357 3.33581 0
M  V30 290 C 31.7062 1.84846 2.06706 0
M  V30 291 H 34.6572 1.35941 0.818883 0
M  V30 292 H 34.6782 1.39589 3.53971 0
M  V30 293 H 34.1902 2.92754 2.54787 0
M  V30 294 H 32.2912 0.72427 3.65493 0
M  V30 295 H 32.4042 2.56772 4.04481 0
M  V30 296 H 30.7682 1.28238 2.20062 0
M  V30 297 H 31.5512 2.91014 1.82114 0
M  V30 298 N 33.9963 -1.19345 1.0293 0
M  V30 299 C 34.9593 -2.20793 0.615069 0
M  V30 300 C 35.9593 -1.57553 -0.321533 0
M  V30 301 O 37.1493 -1.73862 -0.108483 0
M  V30 302 C 34.2813 -3.40754 -0.0999222 0
M  V30 303 H 35.4743 -2.58955 1.51269 0
M  V30 304 H 33.0273 -1.3303 0.820534 0
M  V30 305 H 33.7623 -3.0811 -1.01187 0
M  V30 306 H 33.5473 -3.87889 0.57309 0
M  V30 307 H 35.0373 -4.15898 -0.376645 0
M  V30 308 N 35.4744 -0.807222 -1.35358 0
M  V30 309 C 36.7144 -0.393534 -2.00576 0
M  V30 310 C 37.0784 1.0203 -1.62647 0
M  V30 311 O 38.2794 1.53603 -2.20589 0
M  V30 312 C 36.5504 -0.572017 -3.52793 0
M  V30 313 S 38.1094 -0.248845 -4.38094 0
M  V30 314 H 34.9274 -0.149425 -0.695121 0
M  V30 315 H 37.5294 -1.04961 -1.64935 0
M  V30 316 H 36.2334 -1.60097 -3.77885 0
M  V30 317 H 35.7644 0.099359 -3.93275 0
M  V30 318 H 37.7794 0.943253 -4.87152 0
M  V30 319 N 36.9525 1.47285 -0.560781 0
M  V30 320 C 38.1775 2.07359 -0.0410566 0
M  V30 321 C 38.6025 1.41017 1.24483 0
M  V30 322 O 37.9605 0.486368 1.74654 0
M  V30 323 C 38.0085 3.6035 0.134123 0
M  V30 324 O 37.1125 3.94681 1.19587 0
M  V30 325 H 36.4535 0.661887 -0.0529291 0
M  V30 326 H 38.9835 1.89252 -0.777482 0
M  V30 327 H 38.9935 4.0652 0.347207 0
M  V30 328 H 37.6685 4.08034 -0.805047 0
M  V30 329 H 36.2455 3.60251 0.962987 0
M  V30 330 N 38.4306 0.297415 1.54768 0
M  V30 331 C 39.8416 -0.195947 1.85669 0
M  V30 332 C 40.1926 -1.53707 1.21937 0
M  V30 333 O 39.3176 -2.10164 0.515754 0
M  V30 334 C 39.9126 -0.362318 3.36857 0
M  V30 335 C 38.4716 -0.799901 3.67802 0
M  V30 336 C 37.6186 0.0938578 2.77141 0
M  V30 337 H 40.5696 0.518538 1.4999 0
M  V30 338 H 40.5906 -1.19745 3.61167 0
M  V30 339 H 40.1026 0.613921 3.83214 0
M  V30 340 H 38.2036 -1.78682 3.26961 0
M  V30 341 H 38.3166 -0.621773 4.75048 0
M  V30 342 H 36.6806 -0.426254 2.51108 0
M  V30 343 H 37.4636 1.06639 3.26318 0
M  V30 344 N 39.9087 -1.5758 0.0250728 0
M  V30 345 C 41.1547 -1.91917 -0.655413 0
M  V30 346 C 41.4877 -0.901433 -1.72011 0
M  V30 347 O 40.7627 0.0764069 -1.9435 0
M  V30 348 C 41.0457 -3.36751 -1.27558 0
M  V30 349 C 40.8987 -4.49258 -0.220719 0
M  V30 350 C 42.2177 -3.81469 -2.19475 0
M  V30 351 H 39.3367 -0.697925 -0.23679 0
M  V30 352 H 41.9787 -1.89825 0.0815036 0
M  V30 353 H 40.1287 -3.38664 -1.90365 0
M  V30 354 H 41.8007 -4.59478 0.409601 0
M  V30 355 H 40.0437 -4.31415 0.454264 0
M  V30 356 H 40.7147 -5.47618 -0.694175 0
M  V30 357 H 43.1907 -3.81266 -1.66659 0
M  V30 358 H 42.0667 -4.83512 -2.59822 0
M  V30 359 H 42.3277 -3.16744 -3.08424 0
M  V30 360 N 41.3868 0.248026 -1.55636 0
M  V30 361 C 42.3168 1.31079 -1.93237 0
M  V30 362 C 43.2978 1.50264 -0.797174 0
M  V30 363 O 44.4828 1.62891 -1.05737 0
M  V30 364 C 41.6128 2.66575 -2.22609 0
M  V30 365 C 40.5668 2.62087 -3.3837 0
M  V30 366 C 39.8928 4.01369 -3.53281 0
M  V30 367 C 41.1928 2.19171 -4.7409 0
M  V30 368 H 42.8868 0.998556 -2.82257 0
M  V30 369 H 40.4328 0.47891 -1.35803 0
M  V30 370 H 42.3858 3.41057 -2.47503 0
M  V30 371 H 41.1098 2.99432 -1.30414 0
M  V30 372 H 39.7688 1.90063 -3.13483 0
M  V30 373 H 39.4168 4.31489 -2.58508 0
M  V30 374 H 39.1168 3.99254 -4.31127 0
M  V30 375 H 40.6408 4.77552 -3.80495 0
M  V30 376 H 42.0548 2.83384 -4.98363 0
M  V30 377 H 40.4518 2.2817 -5.5503 0
M  V30 378 H 41.5218 1.14336 -4.71227 0
M  V30 379 N 42.8649 1.48995 0.513639 0
M  V30 380 C 44.1129 1.57531 1.26604 0
M  V30 381 C 44.4339 0.258236 1.93283 0
M  V30 382 O 43.7039 -0.721502 1.8213 0
M  V30 383 H 42.2839 0.580387 0.470276 0
M  V30 384 H 44.9459 1.85552 0.596373 0
M  V30 385 H 44.0419 2.36486 2.03669 0
M  V30 386 N 44.343 -0.763751 1.37857 0
M  V30 387 C 45.568 -1.55805 1.36893 0
M  V30 388 C 45.993 -1.88054 -0.0416135 0
M  V30 389 O 45.351 -1.49825 -1.02089 0
M  V30 390 C 45.399 -2.84012 2.22192 0
M  V30 391 O 44.503 -3.78732 1.63204 0
M  V30 392 H 43.844 -0.471638 0.46739 0
M  V30 393 H 46.374 -0.944657 1.81487 0
M  V30 394 H 46.384 -3.33037 2.35691 0
M  V30 395 H 45.059 -2.59869 3.24716 0
M  V30 396 H 43.636 -3.37402 1.58791 0
M  V30 397 N 45.8211 -1.22559 -0.990812 0
M  V30 398 C 47.0691 -1.04933 -1.72724 0
M  V30 399 C 47.3901 0.416158 -1.90508 0
M  V30 400 O 46.6601 1.29918 -1.46622 0
M  V30 401 H 45.2401 -0.385296 -0.639965 0
M  V30 402 H 47.9021 -1.54105 -1.19322 0
M  V30 403 H 46.9981 -1.52886 -2.72089 0
M  V30 404 N 47.2992 1.18797 -1.03562 0
M  V30 405 C 48.5472 1.88278 -0.734569 0
M  V30 406 C 48.8682 1.8043 0.739586 0
M  V30 407 O 48.1382 1.21925 1.53333 0
M  V30 408 H 46.7182 0.696991 -0.268725 0
M  V30 409 H 49.3802 1.44192 -1.31129 0
M  V30 410 H 48.4762 2.94443 -1.03489 0
M  V30 411 N 48.7773 0.814389 1.34928 0
M  V30 412 C 50.1933 0.499084 1.51596 0
M  V30 413 C 50.3933 -0.978319 1.76157 0
M  V30 414 O 49.4493 -1.76309 1.80752 0
M  V30 415 C 50.7623 1.35121 2.68631 0
M  V30 416 C 52.3103 1.34746 2.82511 0
M  V30 417 C 52.7853 2.18388 4.0258 0
M  V30 418 N 54.2763 2.15966 4.09772 0
M  V30 419 C 55.0113 2.77437 5.01813 0
M  V30 420 N 54.5073 3.47866 5.99134 0
M  V30 421 N 56.3003 2.67037 4.94619 0
M  V30 422 H 48.4513 1.7711 1.17243 0
M  V30 423 H 50.7143 0.754256 0.574284 0
M  V30 424 H 50.4203 2.40001 2.57085 0
M  V30 425 H 50.2943 1.00991 3.63429 0
M  V30 426 H 52.6813 0.30648 2.93504 0
M  V30 427 H 52.7623 1.72869 1.88547 0
M  V30 428 H 52.4063 3.2253 3.92347 0
M  V30 429 H 52.3363 1.77621 4.9574 0
M  V30 430 H 54.8273 1.64729 3.40107 0
M  V30 431 H 55.1403 3.92038 6.65977 0
M  V30 432 H 53.4853 3.51972 5.99284 0
M  V30 433 H 56.6763 2.11597 4.17546 0
M  V30 434 H 56.8493 3.15232 5.66156 0
M  V30 435 N 50.2554 -1.46986 0.568584 0
M  V30 436 C 51.2184 -2.28624 -0.162366 0
M  V30 437 C 52.2184 -1.37596 -0.832103 0
M  V30 438 O 53.4084 -1.60115 -0.68622 0
M  V30 439 C 50.5404 -3.17596 -1.23878 0
M  V30 440 H 51.7334 -2.94722 0.554899 0
M  V30 441 H 49.2864 -1.52863 0.325976 0
M  V30 442 H 50.0214 -2.56214 -1.98808 0
M  V30 443 H 49.8064 -3.846 -0.763219 0
M  V30 444 H 51.2964 -3.79078 -1.75185 0
M  V30 445 N 51.7335 -0.305618 -1.54608 0
M  V30 446 C 53.1495 0.0476228 -1.59529 0
M  V30 447 C 53.3495 1.52025 -1.32252 0
M  V30 448 O 52.4055 2.27368 -1.09818 0
M  V30 449 C 53.7185 -0.354471 -2.98603 0
M  V30 450 C 55.2665 -0.303622 -3.11524 0
M  V30 451 C 55.7415 -0.680608 -4.52915 0
M  V30 452 N 57.2325 -0.63332 -4.5885 0
M  V30 453 C 57.9675 -0.897432 -5.66334 0
M  V30 454 N 57.4635 -1.22775 -6.81834 0
M  V30 455 N 59.2565 -0.824186 -5.56025 0
M  V30 456 H 51.4075 -1.2653 -1.70599 0
M  V30 457 H 53.6705 -0.513291 -0.797017 0
M  V30 458 H 53.3765 -1.3798 -3.23503 0
M  V30 459 H 53.2505 0.289568 -3.76087 0
M  V30 460 H 55.6375 0.712472 -2.8637 0
M  V30 461 H 55.7185 -0.982348 -2.36185 0
M  V30 462 H 55.3625 -1.69453 -4.78799 0
M  V30 463 H 55.2925 0.0202385 -5.26596 0
M  V30 464 H 57.7835 -0.389138 -3.75891 0
M  V30 465 H 58.0965 -1.41513 -7.59733 0
M  V30 466 H 56.4415 -1.26583 -6.83375 0
M  V30 467 H 59.6325 -0.565748 -4.64669 0
M  V30 468 H 59.8055 -1.03338 -6.39707 0
M  V30 469 N 53.2116 1.57565 -0.0334293 0
M  V30 470 C 54.6226 1.79746 0.504798 0
M  V30 471 C 54.9736 0.944091 1.71992 0
M  V30 472 O 54.0986 0.155694 2.15839 0
M  V30 473 C 54.6936 3.25997 0.922567 0
M  V30 474 C 53.2526 3.49159 1.40588 0
M  V30 475 C 52.3996 2.74785 0.372633 0
M  V30 476 H 55.3506 1.56565 -0.259436 0
M  V30 477 H 55.3716 3.35945 1.78666 0
M  V30 478 H 54.8836 3.88081 0.0379825 0
M  V30 479 H 52.9846 2.92332 2.31025 0
M  V30 480 H 53.0976 4.57873 1.41028 0
M  V30 481 H 51.4616 2.40391 0.841672 0
M  V30 482 H 52.2446 3.39587 -0.503559 0
M  V30 483 N 54.6897 -0.239769 1.55765 0
M  V30 484 C 55.9377 -0.964892 1.77579 0
M  V30 485 C 56.2587 -1.85582 0.598699 0
M  V30 486 O 55.5287 -1.92075 -0.385226 0
M  V30 487 H 54.1087 -0.359265 0.654933 0
M  V30 488 H 56.7707 -0.256001 1.93211 0
M  V30 489 H 55.8667 -1.58243 2.69009 0
M  V30 490 N 56.1678 -1.49265 -0.50573 0
M  V30 491 C 57.5788 -1.51769 -1.08734 0
M  V30 492 C 57.9298 -0.301192 -1.93874 0
M  V30 493 O 57.0548 0.589456 -2.08217 0
M  V30 494 C 57.6498 -2.75017 -1.97867 0
M  V30 495 C 56.2088 -2.80314 -2.51199 0
M  V30 496 C 55.3558 -2.4562 -1.28709 0
M  V30 497 H 58.3068 -1.56031 -0.289855 0
M  V30 498 H 58.3278 -2.5491 -2.82491 0
M  V30 499 H 57.8398 -3.63539 -1.35873 0
M  V30 500 H 55.9408 -1.96061 -3.16845 0
M  V30 501 H 56.0538 -3.82366 -2.88675 0
M  V30 502 H 54.4178 -1.97297 -1.61078 0
M  V30 503 H 55.2008 -3.36411 -0.6843 0
M  V30 504 N 57.6459 0.756429 -1.3826 0
M  V30 505 C 58.8939 1.51248 -1.34047 0
M  V30 506 C 59.2149 1.94875 0.0698372 0
M  V30 507 O 58.4849 1.67436 1.01696 0
M  V30 508 H 57.0649 0.561018 -0.493222 0
M  V30 509 H 59.7269 0.899347 -1.7291 0
M  V30 510 H 58.8229 2.40472 -1.98947 0
M  V30 511 N 59.124 1.23083 0.984299 0
M  V30 512 C 60.535 1.05609 1.5396 0
M  V30 513 C 60.886 -0.377793 1.92528 0
M  V30 514 O 60.011 -1.26398 1.75649 0
M  V30 515 C 60.606 1.91087 2.7977 0
M  V30 516 C 59.165 1.77885 3.31713 0
M  V30 517 C 58.312 1.87028 2.04733 0
M  V30 518 H 61.263 1.36802 0.804419 0
M  V30 519 H 61.284 1.43336 3.5247 0
M  V30 520 H 60.796 2.9544 2.51668 0
M  V30 521 H 58.897 0.762995 3.64704 0
M  V30 522 H 59.01 2.61047 4.01735 0
M  V30 523 H 57.374 1.30565 2.18689 0
M  V30 524 H 58.157 2.92929 1.79017 0
M  V30 525 N 60.6021 -1.18246 1.0419 0
M  V30 526 C 61.8501 -1.87886 0.744543 0
M  V30 527 C 62.1711 -1.8082 -0.730006 0
M  V30 528 O 61.4411 -1.22736 -1.52685 0
M  V30 529 H 60.0211 -0.695556 0.272417 0
M  V30 530 H 62.6831 -1.43494 1.31892 0
M  V30 531 H 61.7791 -2.9389 1.05049 0
M  V30 532 N 62.0802 -0.821533 -1.34494 0
M  V30 533 C 63.4912 -0.467956 -1.8074 0
M  V30 534 C 63.8422 1.01151 -1.68116 0
M  V30 535 O 62.9672 1.78707 -1.22036 0
M  V30 536 C 63.5622 -0.842627 -3.28154 0
M  V30 537 C 62.1212 -0.541439 -3.72485 0
M  V30 538 C 61.2682 -1.06028 -2.56229 0
M  V30 539 H 64.2192 -1.01183 -1.22261 0
M  V30 540 H 64.2402 -0.145876 -3.8022 0
M  V30 541 H 63.7522 -1.91945 -3.37311 0
M  V30 542 H 61.8532 0.526034 -3.68868 0
M  V30 543 H 61.9662 -1.08453 -4.66663 0
M  V30 544 H 60.3302 -0.481892 -2.501 0
M  V30 545 H 61.1132 -2.14352 -2.68157 0
M  V30 546 N 63.5583 1.46682 -0.576371 0
M  V30 547 C 64.8063 2.02013 -0.0594163 0
M  V30 548 C 65.1273 1.45101 1.30271 0
M  V30 549 O 64.3973 0.633317 1.8538 0
M  V30 550 H 62.9773 0.746759 -0.0189745 0
M  V30 551 H 65.6393 1.79862 -0.750717 0
M  V30 552 H 64.7353 3.12097 0.014345 0
M  V30 553 N 65.0364 0.313813 1.54444 0
M  V30 554 C 66.4474 -0.176243 1.85866 0
M  V30 555 C 66.7984 -1.52405 1.23561 0
M  V30 556 O 65.9234 -2.09605 0.538016 0
M  V30 557 C 66.5184 -0.32657 3.37222 0
M  V30 558 C 65.0774 -0.760846 3.6863 0
M  V30 559 C 64.2244 0.123247 2.77026 0
M  V30 560 H 67.1754 0.534418 1.49431 0
M  V30 561 H 67.1964 -1.15908 3.62416 0
M  V30 562 H 66.7084 0.654531 3.82541 0
M  V30 563 H 64.8094 -1.75204 3.28838 0
M  V30 564 H 64.9224 -0.571353 4.75681 0
M  V30 565 H 63.2864 -0.399597 2.51546 0
M  V30 566 H 64.0694 1.10094 3.25168 0
M  V30 567 N 66.5145 -1.57545 0.0417849 0
M  V30 568 C 67.4245 -2.14451 -0.951213 0
M  V30 569 C 68.4405 -1.09992 -1.34825 0
M  V30 570 O 69.6165 -1.42114 -1.42708 0
M  V30 571 C 66.6815 -2.67063 -2.21084 0
M  V30 572 C 65.7425 -3.86284 -1.87304 0
M  V30 573 C 64.9755 -4.36378 -3.07261 0
M  V30 574 O 65.1985 -3.85587 -4.20332 0
M  V30 575 O 64.1325 -5.28077 -2.88822 0
M  V30 576 H 67.9585 -2.99601 -0.497287 0
M  V30 577 H 65.5435 -1.48317 -0.179567 0
M  V30 578 H 67.4255 -3.00914 -2.95006 0
M  V30 579 H 66.1005 -1.84989 -2.65633 0
M  V30 580 H 65.0075 -3.57338 -1.10727 0
M  V30 581 H 66.3405 -4.6956 -1.47562 0
M  V30 582 N 67.9926 0.231505 -1.5589 0
M  V30 583 C 69.4086 0.580748 -1.48659 0
M  V30 584 C 69.6086 1.87617 -0.73498 0
M  V30 585 O 68.6646 2.51046 -0.270586 0
M  V30 586 C 69.9776 0.669202 -2.93159 0
M  V30 587 C 71.5256 0.760499 -3.03621 0
M  V30 588 C 72.0006 0.880383 -4.49459 0
M  V30 589 N 73.4916 0.944861 -4.53461 0
M  V30 590 C 74.2266 1.05716 -5.63571 0
M  V30 591 N 73.7226 1.13403 -6.83456 0
M  V30 592 N 75.5156 1.09152 -5.514 0
M  V30 593 H 67.6666 -0.618695 -2.03189 0
M  V30 594 H 69.9296 -0.215728 -0.923128 0
M  V30 595 H 69.6356 -0.212904 -3.51055 0
M  V30 596 H 69.5096 1.5361 -3.44505 0
M  V30 597 H 71.8966 1.63305 -2.45796 0
M  V30 598 H 71.9776 -0.131864 -2.5546 0
M  V30 599 H 71.6216 0.0123284 -5.07899 0
M  V30 600 H 71.5516 1.78802 -4.95316 0
M  V30 601 H 74.0426 0.896176 -3.6712 0
M  V30 602 H 74.3556 1.21921 -7.63122 0
M  V30 603 H 72.7006 1.10333 -6.86186 0
M  V30 604 H 75.8916 1.02805 -4.56671 0
M  V30 605 H 76.0646 1.17558 -6.37247 0
M  V30 606 N 69.4707 1.49531 0.497807 0
M  V30 607 C 70.4337 1.65916 1.58128 0
M  V30 608 C 71.4337 0.530825 1.51786 0
M  V30 609 O 72.6237 0.797342 1.54881 0
M  V30 610 C 69.7557 1.65951 2.9778 0
M  V30 611 H 70.9487 2.62556 1.44929 0
M  V30 612 H 68.5017 1.38611 0.722275 0
M  V30 613 H 69.2367 0.709065 3.16453 0
M  V30 614 H 69.0217 2.47897 3.03792 0
M  V30 615 H 70.5117 1.80673 3.76493 0
M  V30 616 N 70.9488 -0.749086 1.3866 0
M  V30 617 C 72.1968 -1.50535 1.34847 0
M  V30 618 C 72.5178 -1.94909 -0.0595016 0
M  V30 619 O 71.7878 -1.67973 -1.00806 0
M  V30 620 H 70.3678 -0.558395 0.49619 0
M  V30 621 H 73.0298 -0.890165 1.73384 0
M  V30 622 H 72.1258 -2.39413 2.00219 0
M  V30 623 N 72.4269 -1.23603 -0.977757 0
M  V30 624 C 73.6729 -1.07129 -1.72195 0
M  V30 625 C 74.0059 0.390501 -1.90233 0
M  V30 626 O 73.2809 1.28902 -1.45653 0
M  V30 627 C 73.5639 -1.80031 -3.11867 0
M  V30 628 C 73.4169 -3.33899 -3.01383 0
M  V30 629 C 74.7359 -1.56492 -4.11337 0
M  V30 630 H 71.8549 -0.390571 -0.624999 0
M  V30 631 H 74.4969 -1.52142 -1.13811 0
M  V30 632 H 72.6469 -1.41768 -3.6171 0
M  V30 633 H 74.3189 -3.81699 -2.59043 0
M  V30 634 H 72.5619 -3.62796 -2.37827 0
M  V30 635 H 73.2329 -3.801 -4.00285 0
M  V30 636 H 75.7089 -1.89757 -3.70313 0
M  V30 637 H 74.5849 -2.09973 -5.07151 0
M  V30 638 H 74.8459 -0.500874 -4.39254 0
M  V30 639 N 73.905 1.17692 -1.04816 0
M  V30 640 C 75.321 1.39863 -0.768794 0
M  V30 641 C 75.521 1.91118 0.638451 0
M  V30 642 O 74.577 2.10036 1.40146 0
M  V30 643 C 75.89 2.39274 -1.82122 0
M  V30 644 C 77.438 2.52987 -1.843 0
M  V30 645 C 77.913 3.55669 -2.88555 0
M  V30 646 N 79.404 3.63183 -2.87493 0
M  V30 647 C 80.139 4.42381 -3.64811 0
M  V30 648 N 79.635 5.25125 -4.51903 0
M  V30 649 N 81.428 4.37217 -3.53267 0
M  V30 650 H 73.579 0.82752 -1.95617 0
M  V30 651 H 75.842 0.426123 -0.846831 0
M  V30 652 H 75.548 2.08678 -2.83102 0
M  V30 653 H 75.422 3.38725 -1.65967 0
M  V30 654 H 77.809 2.82896 -0.839869 0
M  V30 655 H 77.89 1.53623 -2.04532 0
M  V30 656 H 77.534 3.26499 -3.89051 0
M  V30 657 H 77.464 4.54728 -2.65575 0
M  V30 658 H 79.955 3.04103 -2.24343 0
M  V30 659 H 80.268 5.82728 -5.07591 0
M  V30 660 H 78.613 5.24519 -4.55966 0
M  V30 661 H 81.804 3.71626 -2.84625 0
M  V30 662 H 81.977 4.98696 -4.13771 0
M  V30 663 N 75.3831 0.828654 1.34056 0
M  V30 664 C 76.3461 0.259927 2.27721 0
M  V30 665 C 77.3461 -0.565478 1.50529 0
M  V30 666 O 78.5361 -0.38075 1.69988 0
M  V30 667 C 75.6681 -0.634944 3.34935 0
M  V30 668 H 76.8611 1.0863 2.79534 0
M  V30 669 H 74.4141 0.600951 1.44285 0
M  V30 670 H 75.1491 -1.48416 2.88346 0
M  V30 671 H 74.9341 -0.0444999 3.92075 0
M  V30 672 H 76.4241 -1.02648 4.04788 0
M  V30 673 N 76.8612 -1.46375 0.584142 0
M  V30 674 C 78.2722 -1.86031 0.157959 0
M  V30 675 C 78.6232 -1.48753 -1.27933 0
M  V30 676 O 77.7482 -0.903098 -1.96655 0
M  V30 677 C 78.3432 -3.37642 0.279892 0
M  V30 678 C 76.9022 -3.76289 -0.09143 0
M  V30 679 C 76.0492 -2.7039 0.615178 0
M  V30 680 H 79.0002 -1.37509 0.792274 0
M  V30 681 H 79.0212 -3.77275 -0.494364 0
M  V30 682 H 78.5332 -3.64742 1.32607 0
M  V30 683 H 76.6342 -3.54806 -1.13769 0
M  V30 684 H 76.7472 -4.78246 0.285886 0
M  V30 685 H 75.1112 -2.5464 0.0552833 0
M  V30 686 H 75.8942 -3.0033 1.66303 0
M  V30 687 N 78.3393 -0.321999 -1.54275 0
M  V30 688 C 79.5873 0.280489 -2.00144 0
M  V30 689 C 79.9083 1.52777 -1.21178 0
M  V30 690 O 79.1783 1.9338 -0.313187 0
M  V30 691 H 77.7583 0.106632 -0.73935 0
M  V30 692 H 80.4203 -0.438184 -1.8991 0
M  V30 693 H 79.5163 0.537972 -3.07428 0
M  V30 694 N 79.8174 1.5752 -0.0501392 0
M  V30 695 C 81.2284 1.80271 0.485705 0
M  V30 696 C 81.5794 0.96228 1.70981 0
M  V30 697 O 80.7044 0.178578 2.15662 0
M  V30 698 C 81.2994 3.26957 0.887938 0
M  V30 699 C 79.8584 3.5063 1.36877 0
M  V30 700 C 79.0054 2.75165 0.343468 0
M  V30 701 H 81.9564 1.56281 -0.276028 0
M  V30 702 H 81.9774 3.37821 1.75093 0
M  V30 703 H 81.4894 3.881 -0.0031809 0
M  V30 704 H 79.5904 2.94766 2.27911 0
M  V30 705 H 79.7034 4.59343 1.36164 0
M  V30 706 H 78.0674 2.4127 0.816128 0
M  V30 707 H 78.8504 3.39034 -0.539548 0
M  V30 708 N 81.2955 -0.223234 1.56011 0
M  V30 709 C 82.2585 -1.26014 1.9145 0
M  V30 710 C 83.2585 -1.3989 0.792937 0
M  V30 711 O 84.4485 -1.38184 1.0607 0
M  V30 712 C 81.5805 -2.63422 2.16383 0
M  V30 713 H 82.7735 -0.95796 2.84189 0
M  V30 714 H 80.3265 -0.463576 1.49267 0
M  V30 715 H 81.0615 -2.98741 1.2619 0
M  V30 716 H 80.8465 -2.54728 2.98088 0
M  V30 717 H 82.3365 -3.38249 2.44903 0
M  V30 718 N 82.7736 -1.49793 -0.48987 0
M  V30 719 C 83.7366 -1.66752 -1.57246 0
M  V30 720 C 84.7366 -0.538867 -1.51502 0
M  V30 721 O 85.9266 -0.805545 -1.54456 0
M  V30 722 C 83.0586 -1.67528 -2.96896 0
M  V30 723 H 84.2516 -2.63321 -1.43534 0
M  V30 724 H 81.8046 -1.38992 -0.714914 0
M  V30 725 H 82.5396 -0.725837 -3.16073 0
M  V30 726 H 82.3246 -2.49504 -3.02473 0
M  V30 727 H 83.8146 -1.82667 -3.7553 0
M  V30 728 N 84.2517 0.741722 -1.39055 0
M  V30 729 C 85.2147 1.83733 -1.37021 0
M  V30 730 C 86.2147 1.58542 -0.268534 0
M  V30 731 O 87.4047 1.66067 -0.526076 0
M  V30 732 C 84.5367 3.2141 -1.13617 0
M  V30 733 H 85.7297 1.86941 -2.34506 0
M  V30 734 H 83.2827 0.944676 -1.24521 0
M  V30 735 H 84.0177 3.23865 -0.167863 0
M  V30 736 H 83.8027 3.4109 -1.93391 0
M  V30 737 H 85.2927 4.01477 -1.14918 0
M  V30 738 N 85.7298 1.2412 0.971189 0
M  V30 739 C 87.1408 1.07236 1.52831 0
M  V30 740 C 87.4918 -0.357352 1.92918 0
M  V30 741 O 86.6168 -1.24528 1.76979 0
M  V30 742 C 87.2118 1.94043 2.77728 0
M  V30 743 C 85.7708 1.81394 3.29808 0
M  V30 744 C 84.9178 1.89189 2.02738 0
M  V30 745 H 87.8688 1.37648 0.789864 0
M  V30 746 H 87.8898 1.47066 3.5093 0
M  V30 747 H 87.4018 2.98093 2.4852 0
M  V30 748 H 85.5028 0.801634 3.63874 0
M  V30 749 H 85.6158 2.65294 3.98944 0
M  V30 750 H 83.9798 1.32877 2.17292 0
M  V30 751 H 84.7628 2.94812 1.759 0
M  V30 752 N 87.2079 -1.17134 1.05439 0
M  V30 753 C 88.4559 -1.87085 0.764429 0
M  V30 754 C 88.7769 -1.81584 -0.710787 0
M  V30 755 O 88.0469 -1.24349 -1.51374 0
M  V30 756 H 86.6269 -0.692627 0.279779 0
M  V30 757 H 89.2889 -1.42087 1.33406 0
M  V30 758 H 88.3849 -2.92759 1.0816 0
M  V30 759 N 88.686 -0.835752 -1.33615 0
M  V30 760 C 89.636 -0.238856 -2.26745 0
M  V30 761 C 90.62 0.604343 -1.49119 0
M  V30 762 O 91.812 0.456822 -1.71003 0
M  V30 763 C 88.941 0.587725 -3.38232 0
M  V30 764 C 88.027 -0.266811 -4.2326 0
M  V30 765 N 88.418 -1.34403 -4.87616 0
M  V30 766 C 86.716 -0.0533131 -4.45968 0
M  V30 767 C 87.417 -1.86819 -5.50884 0
M  V30 768 N 86.393 -1.17013 -5.30857 0
M  V30 769 H 90.195 -1.06266 -2.74016 0
M  V30 770 H 87.709 -0.679881 -1.47483 0
M  V30 771 H 89.706 1.03161 -4.03935 0
M  V30 772 H 88.366 1.40954 -2.9251 0
M  V30 773 H 89.377 -1.7269 -4.88261 0
M  V30 774 H 86.054 0.735312 -4.10974 0
M  V30 775 H 87.444 -2.7701 -6.1214 0
M  V30 776 N 90.1641 1.46063 -0.591896 0
M  V30 777 C 91.3891 2.07226 -0.0850314 0
M  V30 778 C 91.8141 1.43625 1.21463 0
M  V30 779 O 91.1721 0.523305 1.73583 0
M  V30 780 C 91.2201 3.60554 0.0576567 0
M  V30 781 O 90.3241 3.97128 1.11188 0
M  V30 782 H 89.6651 0.660615 -0.0669568 0
M  V30 783 H 92.1951 1.8756 -0.81745 0
M  V30 784 H 92.2051 4.07165 0.2609 0
M  V30 785 H 90.8801 4.06235 -0.891416 0
M  V30 786 H 89.4571 3.62213 0.886356 0
M  V30 787 N 91.6422 0.330177 1.54103 0
M  V30 788 C 92.8892 -0.270405 2.00686 0
M  V30 789 C 93.2172 -1.51621 1.21825 0
M  V30 790 O 92.4722 -1.93536 0.29025 0
M  V30 791 C 92.7712 -0.643134 3.51566 0
M  V30 792 C 92.4372 0.504251 4.48072 0
M  V30 793 C 91.0992 0.819163 4.74176 0
M  V30 794 C 93.4512 1.27465 5.05373 0
M  V30 795 C 90.7792 1.90708 5.5484 0
M  V30 796 C 93.1312 2.35271 5.87223 0
M  V30 797 C 91.7952 2.67336 6.11627 0
M  V30 798 H 91.0652 -0.0989482 0.734364 0
M  V30 799 H 93.7122 0.455324 1.86008 0
M  V30 800 H 92.0172 -1.44938 3.64006 0
M  V30 801 H 93.7142 -1.11949 3.85056 0
M  V30 802 H 90.3042 0.248733 4.27878 0
M  V30 803 H 94.4882 1.04462 4.85182 0
M  V30 804 H 89.7442 2.15991 5.71977 0
M  V30 805 H 93.9182 2.95405 6.30641 0
M  V30 806 H 91.5452 3.51763 6.73919 0
M  V30 807 N 93.1203 -1.57491 0.0584922 0
M  V30 808 C 94.5363 -1.56792 -0.298091 0
M  V30 809 C 94.7363 -1.06679 -1.70944 0
M  V30 810 O 93.7923 -0.726672 -2.41818 0
M  V30 811 C 95.1053 -3.00461 -0.119879 0
M  V30 812 C 96.6533 -3.1242 -0.190428 0
M  V30 813 C 97.1283 -4.57982 -0.0406567 0
M  V30 814 N 98.6193 -4.63099 -0.0966958 0
M  V30 815 C 99.3543 -5.734 -0.00502943 0
M  V30 816 N 98.8503 -6.9266 0.139402 0
M  V30 817 N 100.643 -5.62067 -0.0611391 0
M  V30 818 H 92.7943 -1.88386 0.98105 0
M  V30 819 H 95.0573 -0.867865 0.381463 0
M  V30 820 H 94.7633 -3.41187 0.85349 0
M  V30 821 H 94.6373 -3.66843 -0.877833 0
M  V30 822 H 97.0243 -2.71589 -1.15427 0
M  V30 823 H 97.1053 -2.48702 0.598405 0
M  V30 824 H 96.7493 -4.995 0.919897 0
M  V30 825 H 96.6793 -5.19715 -0.848727 0
M  V30 826 H 99.1703 -3.77331 -0.207277 0
M  V30 827 H 99.4833 -7.72536 0.201855 0
M  V30 828 H 97.8283 -6.94781 0.174586 0
M  V30 829 H 101.019 -4.67782 -0.172583 0
M  V30 830 H 101.192 -6.47999 0.0137562 0
M  V30 831 N 94.5984 0.214957 -1.56127 0
M  V30 832 C 95.5454 1.26642 -1.92952 0
M  V30 833 C 96.5154 1.46244 -0.78753 0
M  V30 834 O 97.7004 1.59704 -1.04399 0
M  V30 835 C 94.8404 2.6104 -2.25726 0
M  V30 836 C 93.9534 2.49183 -3.52891 0
M  V30 837 C 93.0884 3.76149 -3.7508 0
M  V30 838 C 92.1274 3.59041 -4.95738 0
M  V30 839 N 91.2644 4.77972 -5.14283 0
M  V30 840 H 96.1044 0.945384 -2.82607 0
M  V30 841 H 93.6414 0.455489 -1.3987 0
M  V30 842 H 95.5994 3.39313 -2.42739 0
M  V30 843 H 94.2294 2.91227 -1.39236 0
M  V30 844 H 93.2814 1.6231 -3.44034 0
M  V30 845 H 94.5934 2.32466 -4.41318 0
M  V30 846 H 93.7474 4.62865 -3.92226 0
M  V30 847 H 92.4864 3.95799 -2.84947 0
M  V30 848 H 91.4914 2.7071 -4.78535 0
M  V30 849 H 92.7164 3.40856 -5.87362 0
M  V30 850 H 90.6624 4.97923 -4.27093 0
M  V30 851 H 90.5794 4.64006 -5.96853 0
M  V30 852 H 91.8474 5.66096 -5.35869 0
M  V30 853 N 96.0765 1.50051 0.48192 0
M  V30 854 C 97.3225 1.60736 1.2366 0
M  V30 855 C 97.6555 0.301786 1.91841 0
M  V30 856 O 96.9305 -0.696025 1.8162 0
M  V30 857 C 97.2135 2.78009 2.28874 0
M  V30 858 C 97.0665 4.18416 1.65069 0
M  V30 859 C 98.3855 2.90867 3.30279 0
M  V30 860 H 95.5045 0.585031 0.448228 0
M  V30 861 H 98.1465 1.82402 0.531946 0
M  V30 862 H 96.2965 2.59667 2.88973 0
M  V30 863 H 97.9685 4.48322 1.0865 0
M  V30 864 H 96.2115 4.23177 0.954148 0
M  V30 865 H 96.8825 4.96381 2.41474 0
M  V30 866 H 99.3585 3.07623 2.80191 0
M  V30 867 H 98.2345 3.74566 4.01238 0
M  V30 868 H 98.4955 2.01021 3.93755 0
M  V30 869 N 97.5546 -0.734337 1.39446 0
M  V30 870 C 98.7826 -1.52358 1.39981 0
M  V30 871 C 99.1976 -1.88799 -0.0054975 0
M  V30 872 O 98.5546 -1.54146 -0.976998 0
M  V30 873 C 98.6056 -2.81072 2.27333 0
M  V30 874 O 98.3266 -2.46178 3.62392 0
M  V30 875 C 99.8276 -3.75096 2.36259 0
M  V30 876 H 97.0476 -0.470806 0.478103 0
M  V30 877 H 99.5916 -0.907339 1.83269 0
M  V30 878 H 97.7466 -3.39026 1.87457 0
M  V30 879 H 98.1606 -3.28866 4.08592 0
M  V30 880 H 99.6346 -4.62305 3.01626 0
M  V30 881 H 100.112 -4.16892 1.38194 0
M  V30 882 H 100.718 -3.23061 2.76608 0
M  V30 883 N 99.0327 -1.24633 -0.964593 0
M  V30 884 C 99.9627 -1.06611 -2.07741 0
M  V30 885 C 100.944 0.0218666 -1.70086 0
M  V30 886 O 102.129 -0.145793 -1.93652 0
M  V30 887 C 99.2587 -0.673444 -3.40708 0
M  V30 888 C 98.2127 -1.71054 -3.92332 0
M  V30 889 C 97.5387 -1.17285 -5.21678 0
M  V30 890 C 98.8387 -3.10718 -4.19824 0
M  V30 891 H 100.533 -1.99693 -2.23076 0
M  V30 892 H 98.0787 -0.96152 -1.07195 0
M  V30 893 H 100.032 -0.534345 -4.17998 0
M  V30 894 H 98.7557 0.293073 -3.25282 0
M  V30 895 H 97.4147 -1.83791 -3.17201 0
M  V30 896 H 97.0627 -0.196847 -5.02615 0
M  V30 897 H 96.7627 -1.86592 -5.57187 0
M  V30 898 H 98.2867 -1.04593 -6.01575 0
M  V30 899 H 99.7007 -3.01192 -4.87808 0
M  V30 900 H 98.0977 -3.77406 -4.66567 0
M  V30 901 H 99.1677 -3.58524 -3.26479 0
M  V30 902 N 100.511 1.16574 -1.06058 0
M  V30 903 C 101.739 1.90952 -0.796552 0
M  V30 904 C 102.154 1.77302 0.648808 0
M  V30 905 O 101.511 1.11605 1.44397 0
M  V30 906 C 101.562 3.41736 -1.17894 0
M  V30 907 O 101.283 3.54975 -2.56758 0
M  V30 908 C 102.784 4.33169 -0.942308 0
M  V30 909 H 100.004 0.605594 -0.288959 0
M  V30 910 H 102.548 1.47777 -1.41358 0
M  V30 911 H 100.703 3.82623 -0.606491 0
M  V30 912 H 101.117 4.4846 -2.72 0
M  V30 913 H 102.591 5.37439 -1.25952 0
M  V30 914 H 103.068 4.3903 0.122078 0
M  V30 915 H 103.674 3.98007 -1.49902 0
M  V30 916 N 101.989 0.842826 1.3317 0
M  V30 917 C 102.936 0.276885 2.29133 0
M  V30 918 C 103.906 -0.609527 1.54512 0
M  V30 919 O 105.091 -0.546955 1.82792 0
M  V30 920 C 102.231 -0.538707 3.40869 0
M  V30 921 C 101.344 0.372169 4.30394 0
M  V30 922 C 100.479 -0.454908 5.29249 0
M  V30 923 C 99.5179 0.45411 6.10413 0
M  V30 924 N 98.6549 -0.335075 7.013 0
M  V30 925 H 103.495 1.10052 2.76934 0
M  V30 926 H 101.032 0.554161 1.36262 0
M  V30 927 H 102.99 -1.02709 4.0436 0
M  V30 928 H 101.62 -1.32727 2.9425 0
M  V30 929 H 100.672 0.97888 3.6759 0
M  V30 930 H 101.984 1.0703 4.87182 0
M  V30 931 H 101.138 -1.00695 5.98285 0
M  V30 932 H 99.8769 -1.18646 4.73048 0
M  V30 933 H 98.8819 1.01813 5.40291 0
M  V30 934 H 100.107 1.18409 6.68697 0
M  V30 935 H 98.0529 -1.04994 6.47543 0
M  V30 936 H 97.9699 0.304262 7.55387 0
M  V30 937 H 99.2379 -0.869224 7.74638 0
M  V30 938 N 103.467 -1.45747 0.599634 0
M  V30 939 C 104.878 -1.85853 0.177681 0
M  V30 940 C 105.229 -1.50102 -1.26348 0
M  V30 941 O 104.354 -0.923905 -1.95686 0
M  V30 942 C 104.949 -3.37326 0.315688 0
M  V30 943 C 103.508 -3.76365 -0.0515144 0
M  V30 944 C 102.655 -2.69722 0.643822 0
M  V30 945 H 105.606 -1.36661 0.806814 0
M  V30 946 H 105.627 -3.77778 -0.454321 0
M  V30 947 H 105.139 -3.63315 1.36468 0
M  V30 948 H 103.24 -3.55993 -1.09999 0
M  V30 949 H 103.353 -4.77916 0.336594 0
M  V30 950 H 101.717 -2.54567 0.0822881 0
M  V30 951 H 102.5 -2.98549 1.6948 0
M  V30 952 N 104.945 -0.338344 -1.53925 0
M  V30 953 C 106.173 0.261298 -2.05243 0
M  V30 954 C 106.588 1.44625 -1.21363 0
M  V30 955 O 105.945 1.80811 -0.247736 0
M  V30 956 C 105.996 0.681412 -3.5502 0
M  V30 957 O 105.717 -0.456414 -4.35716 0
M  V30 958 C 107.218 1.34232 -4.22489 0
M  V30 959 H 104.438 0.0513685 -0.669031 0
M  V30 960 H 106.982 -0.488822 -1.98572 0
M  V30 961 H 105.137 1.38148 -3.61931 0
M  V30 962 H 105.551 -0.122564 -5.24357 0
M  V30 963 H 107.025 1.58708 -5.28693 0
M  V30 964 H 107.502 2.29426 -3.74514 0
M  V30 965 H 108.108 0.684424 -4.19757 0
M  V30 966 N 106.423 1.57458 -0.0668435 0
M  V30 967 C 107.67 1.93301 0.603406 0
M  V30 968 C 107.998 0.946486 1.69917 0
M  V30 969 O 107.253 -0.0387021 1.95662 0
M  V30 970 C 107.552 3.35784 1.22409 0
M  V30 971 C 107.218 4.50179 0.254955 0
M  V30 972 C 105.88 4.81199 -0.0116746 0
M  V30 973 C 108.232 5.19598 -0.408338 0
M  V30 974 C 105.56 5.78978 -0.94877 0
M  V30 975 C 107.912 6.18381 -1.33372 0
M  V30 976 C 106.576 6.47821 -1.60887 0
M  V30 977 H 105.846 0.707338 0.220802 0
M  V30 978 H 108.493 1.91012 -0.136665 0
M  V30 979 H 106.798 3.34515 2.03978 0
M  V30 980 H 108.495 3.60804 1.74989 0
M  V30 981 H 105.085 4.25983 0.472954 0
M  V30 982 H 109.269 4.95832 -0.215456 0
M  V30 983 H 104.525 6.00115 -1.16925 0
M  V30 984 H 108.699 6.71277 -1.85367 0
M  V30 985 H 106.326 7.23399 -2.33661 0
M  V30 986 N 107.901 -0.206675 1.56239 0
M  V30 987 C 109.141 -0.93574 1.81723 0
M  V30 988 C 109.505 -1.80927 0.642609 0
M  V30 989 O 110.706 -2.57323 0.777081 0
M  V30 990 C 108.977 -1.74012 3.12177 0
M  V30 991 S 110.536 -2.52279 3.59028 0
M  V30 992 H 107.354 -0.314065 0.637875 0
M  V30 993 H 109.956 -0.200071 1.94474 0
M  V30 994 H 108.66 -1.0888 3.95693 0
M  V30 995 H 108.191 -2.51782 3.02274 0
M  V30 996 H 110.206 -3.76209 3.23545 0
M  V30 997 N 109.379 -1.50304 -0.473955 0
M  V30 998 C 110.329 -1.65347 -1.56985 0
M  V30 999 C 111.313 -0.508176 -1.52664 0
M  V30 1000 O 112.505 -0.762446 -1.59737 0
M  V30 1001 C 109.634 -1.74832 -2.95447 0
M  V30 1002 C 108.72 -2.95028 -3.04662 0
M  V30 1003 N 109.111 -4.18747 -2.83698 0
M  V30 1004 C 107.409 -2.93527 -3.35795 0
M  V30 1005 C 108.11 -4.99687 -2.97805 0
M  V30 1006 N 107.086 -4.33585 -3.2788 0
M  V30 1007 H 110.888 -2.58698 -1.39472 0
M  V30 1008 H 108.402 -1.47449 -0.680629 0
M  V30 1009 H 110.399 -1.83712 -3.7424 0
M  V30 1010 H 109.059 -0.826376 -3.14008 0
M  V30 1011 H 110.07 -4.48291 -2.59337 0
M  V30 1012 H 106.747 -2.10821 -3.60362 0
M  V30 1013 H 108.137 -6.08057 -2.85861 0
M  V30 1014 N 110.857 0.726932 -1.39834 0
M  V30 1015 C 111.787 1.85405 -1.41941 0
M  V30 1016 C 112.768 1.67751 -0.281728 0
M  V30 1017 O 113.953 1.8795 -0.488717 0
M  V30 1018 C 111.083 3.23243 -1.2701 0
M  V30 1019 C 110.037 3.55549 -2.38262 0
M  V30 1020 C 109.363 4.9241 -2.08415 0
M  V30 1021 C 110.663 3.577 -3.80589 0
M  V30 1022 H 112.357 1.83899 -2.36266 0
M  V30 1023 H 109.903 0.883349 -1.13723 0
M  V30 1024 H 111.856 4.01775 -1.27103 0
M  V30 1025 H 110.58 3.25296 -0.291564 0
M  V30 1026 H 109.239 2.79351 -2.37399 0
M  V30 1027 H 108.887 4.91052 -1.0898 0
M  V30 1028 H 108.587 5.14992 -2.82943 0
M  V30 1029 H 110.111 5.73289 -2.10171 0
M  V30 1030 H 111.525 4.26293 -3.83337 0
M  V30 1031 H 109.922 3.91804 -4.54543 0
M  V30 1032 H 110.992 2.57328 -4.10987 0
M  V30 1033 N 112.336 1.25143 0.95797 0
M  V30 1034 C 113.576 1.10893 1.71703 0
M  V30 1035 C 113.94 -0.34478 1.88879 0
M  V30 1036 O 115.141 -0.609014 2.6181 0
M  V30 1037 C 113.412 1.83889 3.06463 0
M  V30 1038 S 114.971 1.85491 3.97666 0
M  V30 1039 H 111.789 0.396428 0.590226 0
M  V30 1040 H 114.391 1.58618 1.14283 0
M  V30 1041 H 113.095 2.88756 2.9163 0
M  V30 1042 H 112.626 1.36538 3.68946 0
M  V30 1043 H 114.641 0.929553 4.87415 0
M  V30 1044 N 113.814 -1.1601 1.06675 0
M  V30 1045 C 115.039 -1.91068 0.806706 0
M  V30 1046 C 115.464 -1.77112 -0.633485 0
M  V30 1047 O 114.822 -1.09908 -1.44187 0
M  V30 1048 C 114.87 -3.39655 1.21106 0
M  V30 1049 O 113.974 -4.10893 0.352189 0
M  V30 1050 H 113.315 -0.595125 0.294486 0
M  V30 1051 H 115.845 -1.46955 1.42356 0
M  V30 1052 H 115.855 -3.90434 1.18428 0
M  V30 1053 H 114.53 -3.49132 2.26008 0
M  V30 1054 H 113.107 -3.70285 0.440868 0
M  V30 1055 N 115.292 -0.849877 -1.32721 0
M  V30 1056 C 116.569 -0.372405 -1.92022 0
M  V30 1057 C 116.949 1.1435 -1.77447 0
M  V30 1058 O 116.297 1.96296 -1.16962 0
M  V30 1059 C 116.507 -0.831482 -3.3895 0
M  V30 1060 C 117.855 -0.845882 -4.16089 0
M  V30 1061 O 118.879 -0.775806 -3.47649 0
M  V30 1062 O 117.738 -0.943753 -5.38289 0
M  V30 1063 H 114.832 -0.107667 -0.819961 0
M  V30 1064 H 117.378 -0.93646 -1.41522 0
M  V30 1065 H 116.15 -1.87448 -3.4348 0
M  V30 1066 H 115.773 -0.24461 -3.96847 0
M  V30 1067 N 116.77 1.45427 -0.607355 0
M  V30 1068 C 118.017 2.02241 -0.102455 0
M  V30 1069 C 118.345 1.4758 1.26691 0
M  V30 1070 O 117.6 0.640468 1.84923 0
M  V30 1071 C 117.899 3.57398 -0.0129263 0
M  V30 1072 C 117.565 4.3121 -1.31792 0
M  V30 1073 C 116.227 4.51092 -1.67539 0
M  V30 1074 C 118.579 4.73401 -2.18039 0
M  V30 1075 C 115.907 5.10422 -2.89285 0
M  V30 1076 C 118.259 5.34078 -3.39034 0
M  V30 1077 C 116.923 5.52184 -3.75033 0
M  V30 1078 H 116.193 0.740051 -0.037491 0
M  V30 1079 H 118.84 1.74494 -0.788926 0
M  V30 1080 H 117.145 3.84421 0.756806 0
M  V30 1081 H 118.842 3.99061 0.393881 0
M  V30 1082 H 115.432 4.16047 -1.02968 0
M  V30 1083 H 119.616 4.57774 -1.91721 0
M  V30 1084 H 114.872 5.22629 -3.17283 0
M  V30 1085 H 119.046 5.65724 -4.06115 0
M  V30 1086 H 116.673 5.97925 -4.69457 0
M  V30 1087 N 118.248 0.346503 1.53744 0
M  V30 1088 C 119.497 -0.250122 2.00143 0
M  V30 1089 C 119.81 -1.51418 1.23822 0
M  V30 1090 O 121.016 -2.18823 1.60713 0
M  V30 1091 C 119.472 -0.496252 3.56462 0
M  V30 1092 C 119.08 0.752077 4.41642 0
M  V30 1093 C 120.824 -1.05157 4.11269 0
M  V30 1094 C 118.731 0.476583 5.89477 0
M  V30 1095 H 117.661 -0.0972409 0.747703 0
M  V30 1096 H 120.312 0.46229 1.77581 0
M  V30 1097 H 118.694 -1.26944 3.75102 0
M  V30 1098 H 119.868 1.5266 4.34778 0
M  V30 1099 H 118.183 1.22925 3.97842 0
M  V30 1100 H 120.78 -1.27269 5.19333 0
M  V30 1101 H 121.123 -2.00799 3.64672 0
M  V30 1102 H 121.656 -0.339019 3.96353 0
M  V30 1103 H 118.395 1.4028 6.40314 0
M  V30 1104 H 117.915 -0.259794 5.99237 0
M  V30 1105 H 119.594 0.0949315 6.4693 0
M  V30 1106 N 119.726 -1.57421 0.075193 0
M  V30 1107 C 120.972 -1.94716 -0.587998 0
M  V30 1108 C 121.327 -0.955205 -1.67014 0
M  V30 1109 O 120.62 0.0219842 -1.91587 0
M  V30 1110 C 120.814 -3.36428 -1.20626 0
M  V30 1111 C 120.643 -4.49317 -0.185541 0
M  V30 1112 C 119.413 -5.04772 0.23099 0
M  V30 1113 C 121.611 -5.11036 0.57854 0
M  V30 1114 N 119.593 -6.01204 1.24206 0
M  V30 1115 C 120.964 -6.02998 1.44199 0
M  V30 1116 C 123.019 -4.93844 0.634237 0
M  V30 1117 C 121.722 -6.79614 2.3562 0
M  V30 1118 C 123.748 -5.71106 1.53597 0
M  V30 1119 C 123.11 -6.6272 2.38709 0
M  V30 1120 H 119.209 -0.759536 -0.186089 0
M  V30 1121 H 121.793 -1.94097 0.153128 0
M  V30 1122 H 119.964 -3.37778 -1.9173 0
M  V30 1123 H 121.696 -3.60951 -1.8302 0
M  V30 1124 H 118.451 -4.73353 -0.152807 0
M  V30 1125 H 118.875 -6.54119 1.74521 0
M  V30 1126 H 123.517 -4.22799 -0.00960004 0
M  V30 1127 H 121.235 -7.49934 3.01038 0
M  V30 1128 H 124.821 -5.59824 1.58394 0
M  V30 1129 H 123.701 -7.2146 3.07352 0
M  V30 1130 N 121.204 0.198386 -1.56346 0
M  V30 1131 C 122.452 0.91747 -1.80075 0
M  V30 1132 C 122.773 1.83929 -0.647692 0
M  V30 1133 O 122.043 1.93029 0.334166 0
M  V30 1134 H 120.623 0.341774 -0.664228 0
M  V30 1135 H 123.285 0.204684 -1.93822 0
M  V30 1136 H 122.381 1.51055 -2.7311 0
M  V30 1137 N 122.682 1.50554 0.465978 0
M  V30 1138 C 123.612 1.72722 1.57128 0
M  V30 1139 C 124.593 0.576294 1.6004 0
M  V30 1140 O 125.778 0.81598 1.76225 0
M  V30 1141 C 122.908 1.82605 2.95419 0
M  V30 1142 C 121.862 2.97835 3.07373 0
M  V30 1143 C 121.188 2.92867 4.47363 0
M  V30 1144 C 122.488 4.38265 2.84114 0
M  V30 1145 H 124.182 2.65267 1.38829 0
M  V30 1146 H 121.728 1.2765 0.666441 0
M  V30 1147 H 123.681 1.96698 3.72677 0
M  V30 1148 H 122.405 0.866858 3.14886 0
M  V30 1149 H 121.064 2.83401 2.3255 0
M  V30 1150 H 120.712 1.94783 4.63755 0
M  V30 1151 H 120.412 3.70227 4.56296 0
M  V30 1152 H 121.936 3.09015 5.26633 0
M  V30 1153 H 123.35 4.53198 3.51118 0
M  V30 1154 H 121.747 5.17115 3.04487 0
M  V30 1155 H 122.817 4.50281 1.7993 0
M  V30 1156 N 124.16 -0.719506 1.40217 0
M  V30 1157 C 125.123 -1.8153 1.39927 0
M  V30 1158 C 126.123 -1.58095 0.293723 0
M  V30 1159 O 127.313 -1.65209 0.552429 0
M  V30 1160 C 124.445 -3.19561 1.18716 0
M  V30 1161 H 125.638 -1.83186 2.37451 0
M  V30 1162 H 123.191 -0.924746 1.26008 0
M  V30 1163 H 123.926 -3.23557 0.219366 0
M  V30 1164 H 123.711 -3.3797 1.98793 0
M  V30 1165 H 125.201 -3.99598 1.21291 0
M  V30 1166 N 125.638 -1.25649 -0.95132 0
M  V30 1167 C 126.886 -1.10375 -1.69298 0
M  V30 1168 C 127.207 0.355339 -1.91735 0
M  V30 1169 O 126.477 1.25188 -1.50681 0
M  V30 1170 H 125.057 -0.405461 -0.627384 0
M  V30 1171 H 127.719 -1.57823 -1.14358 0
M  V30 1172 H 126.815 -1.61465 -2.67087 0
M  V30 1173 N 127.117 1.15442 -1.07289 0
M  V30 1174 C 128.364 1.86213 -0.795668 0
M  V30 1175 C 128.692 1.82291 0.678238 0
M  V30 1176 O 127.947 1.24057 1.51355 0
M  V30 1177 C 128.246 3.3489 -1.24834 0
M  V30 1178 C 127.912 3.59007 -2.72809 0
M  V30 1179 C 126.574 3.65298 -3.13227 0
M  V30 1180 C 128.926 3.68762 -3.68326 0
M  V30 1181 C 126.254 3.78854 -4.4798 0
M  V30 1182 C 128.606 3.83842 -5.0284 0
M  V30 1183 C 127.27 3.88378 -5.4288 0
M  V30 1184 H 126.54 0.681403 -0.291155 0
M  V30 1185 H 129.187 1.36435 -1.34379 0
M  V30 1186 H 127.492 3.8687 -0.619595 0
M  V30 1187 H 129.189 3.88052 -1.01076 0
M  V30 1188 H 125.779 3.5475 -2.40521 0
M  V30 1189 H 129.963 3.63202 -3.38227 0
M  V30 1190 H 125.219 3.80623 -4.78472 0
M  V30 1191 H 129.393 3.90332 -5.76727 0
M  V30 1192 H 127.02 3.98635 -6.47298 0
M  V30 1193 N 128.595 0.856903 1.32268 0
M  V30 1194 C 129.525 0.31858 2.31316 0
M  V30 1195 C 130.506 -0.583487 1.59779 0
M  V30 1196 O 131.691 -0.503259 1.87566 0
M  V30 1197 C 128.821 -0.491979 3.43798 0
M  V30 1198 C 127.775 0.315849 4.26833 0
M  V30 1199 C 127.101 -0.619586 5.31098 0
M  V30 1200 C 128.401 1.54282 4.98993 0
M  V30 1201 H 130.095 1.14621 2.76591 0
M  V30 1202 H 127.641 0.552613 1.32974 0
M  V30 1203 H 129.594 -0.879012 4.1213 0
M  V30 1204 H 128.318 -1.35299 2.97257 0
M  V30 1205 H 126.977 0.684664 3.6015 0
M  V30 1206 H 126.625 -1.47751 4.8081 0
M  V30 1207 H 126.325 -0.0830621 5.87541 0
M  V30 1208 H 127.849 -1.00375 6.02293 0
M  V30 1209 H 129.263 1.22796 5.59995 0
M  V30 1210 H 127.66 2.01745 5.65172 0
M  V30 1211 H 128.73 2.30285 4.26728 0
M  V30 1212 N 130.073 -1.45103 0.615059 0
M  V30 1213 C 131.313 -2.04069 0.116282 0
M  V30 1214 C 131.677 -1.4721 -1.2326 0
M  V30 1215 O 132.878 -1.97577 -1.82255 0
M  V30 1216 C 131.149 -3.57298 0.085482 0
M  V30 1217 S 132.708 -4.37394 -0.351015 0
M  V30 1218 H 129.526 -0.709006 0.0532183 0
M  V30 1219 H 132.128 -1.77709 0.81484 0
M  V30 1220 H 130.832 -3.9619 1.0706 0
M  V30 1221 H 130.363 -3.88244 -0.634835 0
M  V30 1222 H 132.378 -4.69734 -1.59889 0
M  V30 1223 N 131.551 -0.354651 -1.53558 0
M  V30 1224 C 132.828 0.294281 -1.93374 0
M  V30 1225 C 133.208 1.67313 -1.28723 0
M  V30 1226 O 132.556 2.24179 -0.442247 0
M  V30 1227 C 132.766 0.355445 -3.47185 0
M  V30 1228 C 134.114 0.601007 -4.20325 0
M  V30 1229 O 135.138 0.437106 -3.53508 0
M  V30 1230 O 133.997 0.919322 -5.38712 0
M  V30 1231 H 131.091 0.174033 -0.808481 0
M  V30 1232 H 133.637 -0.406638 -1.64756 0
M  V30 1233 H 132.409 -0.611729 -3.86489 0
M  V30 1234 H 132.032 1.1027 -3.82003 0
M  V30 1235 N 133.029 1.57378 -0.0835403 0
M  V30 1236 C 134.275 1.94217 0.583733 0
M  V30 1237 C 134.608 0.964653 1.68547 0
M  V30 1238 O 133.883 -0.00422258 1.945 0
M  V30 1239 C 134.166 3.41253 1.14972 0
M  V30 1240 C 134.019 4.49768 0.0538277 0
M  V30 1241 C 135.338 3.89352 2.05166 0
M  V30 1242 H 132.457 0.706233 0.210724 0
M  V30 1243 H 135.099 1.89392 -0.1519 0
M  V30 1244 H 133.249 3.45496 1.77665 0
M  V30 1245 H 134.921 4.57641 -0.579851 0
M  V30 1246 H 133.164 4.29432 -0.614068 0
M  V30 1247 H 133.835 5.49817 0.490452 0
M  V30 1248 H 136.311 3.87189 1.52393 0
M  V30 1249 H 135.187 4.92822 2.41698 0
M  V30 1250 H 135.448 3.27973 2.96456 0
M  V30 1251 N 134.507 -0.190092 1.56449 0
M  V30 1252 C 135.747 -0.916414 1.82705 0
M  V30 1253 C 136.111 -1.80235 0.661763 0
M  V30 1254 O 137.312 -2.56484 0.80433 0
M  V30 1255 C 135.583 -1.70691 3.14005 0
M  V30 1256 S 137.142 -2.48457 3.61683 0
M  V30 1257 H 133.96 -0.307281 0.64117 0
M  V30 1258 H 136.562 -0.179433 1.94675 0
M  V30 1259 H 135.266 -1.04677 3.96826 0
M  V30 1260 H 134.797 -2.48562 3.04927 0
M  V30 1261 H 136.812 -3.72756 3.27517 0
M  V30 1262 N 135.985 -1.50799 -0.457987 0
M  V30 1263 C 136.933 -1.71162 -1.575 0
M  V30 1264 C 137.927 -0.577592 -1.59249 0
M  V30 1265 O 139.133 -0.758443 -1.63241 0
M  V30 1266 H 135.508 -0.540468 -0.522875 0
M  V30 1267 H 137.479 -2.64837 -1.37492 0
M  V30 1268 C 136.228 -1.83496 -2.95338 0
M  V30 1269 H 135.551 -2.70153 -2.94716 0
M  V30 1270 H 136.991 -2.01765 -3.72917 0
M  V30 1271 C 135.45 -0.589694 -3.31699 0
M  V30 1272 O 135.98 0.265163 -4.00824 0
M  V30 1273 N 134.186 -0.439845 -2.87252 0
M  V30 1274 H 133.733 -1.13655 -2.31172 0
M  V30 1275 H 133.691 0.392159 -3.11945 0
M  V30 1276 N 137.463 0.71206 -1.40597 0
M  V30 1277 C 138.71 1.47197 -1.39065 0
M  V30 1278 C 139.038 1.94499 0.00583891 0
M  V30 1279 O 138.293 1.68752 0.99102 0
M  V30 1280 C 138.592 2.71039 -2.32965 0
M  V30 1281 C 138.258 2.42484 -3.80148 0
M  V30 1282 C 136.92 2.34406 -4.20247 0
M  V30 1283 C 139.272 2.18598 -4.73143 0
M  V30 1284 C 136.6 2.00516 -5.51371 0
M  V30 1285 C 138.952 1.8622 -6.0457 0
M  V30 1286 C 137.616 1.76626 -6.43708 0
M  V30 1287 H 136.886 0.538634 -0.508876 0
M  V30 1288 H 139.533 0.815325 -1.73276 0
M  V30 1289 H 137.838 3.41558 -1.91951 0
M  V30 1290 H 139.535 3.29138 -2.29061 0
M  V30 1291 H 136.125 2.49659 -3.4838 0
M  V30 1292 H 140.309 2.23793 -4.42979 0
M  V30 1293 H 135.565 1.91628 -5.80593 0
M  V30 1294 H 139.739 1.66752 -6.76141 0
M  V30 1295 H 137.366 1.50133 -7.45228 0
M  V30 1296 N 138.941 1.26152 0.944643 0
M  V30 1297 C 139.874 1.01729 2.04271 0
M  V30 1298 C 140.852 -0.0568101 1.62501 0
M  V30 1299 O 142.036 0.0848987 1.88309 0
M  V30 1300 C 139.163 0.539792 3.34371 0
M  V30 1301 C 138.209 1.60593 3.9511 0
M  V30 1302 S 139.042 3.19392 4.29825 0
M  V30 1303 C 140.198 2.73402 5.63029 0
M  V30 1304 H 140.431 1.94703 2.24673 0
M  V30 1305 H 137.964 1.09793 1.08558 0
M  V30 1306 H 139.922 0.270956 4.09605 0
M  V30 1307 H 138.583 -0.369609 3.11918 0
M  V30 1308 H 137.776 1.22275 4.88943 0
M  V30 1309 H 137.378 1.82596 3.26397 0
M  V30 1310 H 139.67 2.1765 6.41588 0
M  V30 1311 H 140.613 3.65913 6.06229 0
M  V30 1312 H 141.021 2.13077 5.22741 0
M  V30 1313 N 140.419 -1.14872 1.07899 0
M  V30 1314 C 141.644 -1.90202 0.826926 0
M  V30 1315 C 142.069 -1.77774 -0.614664 0
M  V30 1316 O 141.427 -1.11431 -1.43013 0
M  V30 1317 C 141.475 -3.38352 1.24702 0
M  V30 1318 O 140.579 -4.10497 0.39575 0
M  V30 1319 H 139.92 -0.591968 0.300782 0
M  V30 1320 H 142.45 -1.45437 1.43907 0
M  V30 1321 H 142.46 -3.89156 1.22563 0
M  V30 1322 H 141.135 -3.46715 2.29698 0
M  V30 1323 H 139.712 -3.69796 0.480117 0
M  V30 1324 N 141.898 -0.863906 -1.31812 0
M  V30 1325 C 142.848 -0.286898 -2.26188 0
M  V30 1326 C 143.832 0.572577 -1.50367 0
M  V30 1327 O 145.024 0.420447 -1.71934 0
M  V30 1328 C 142.153 0.515849 -3.39402 0
M  V30 1329 C 141.239 -0.356531 -4.22599 0
M  V30 1330 N 141.63 -1.44716 -4.84656 0
M  V30 1331 C 139.928 -0.147898 -4.45755 0
M  V30 1332 C 140.629 -1.98462 -5.46798 0
M  V30 1333 N 139.605 -1.28247 -5.28255 0
M  V30 1334 H 143.407 -1.12055 -2.717 0
M  V30 1335 H 140.921 -0.711012 -1.46008 0
M  V30 1336 H 142.918 0.945701 -4.06032 0
M  V30 1337 H 141.578 1.34718 -2.95434 0
M  V30 1338 H 142.589 -1.83008 -4.84488 0
M  V30 1339 H 139.266 0.647973 -4.12441 0
M  V30 1340 H 140.656 -2.89932 -6.06126 0
M  V30 1341 N 143.376 1.44774 -0.622745 0
M  V30 1342 C 144.286 2.34433 0.0886031 0
M  V30 1343 C 145.302 1.52131 0.844529 0
M  V30 1344 O 146.478 1.84886 0.798691 0
M  V30 1345 C 143.543 3.29986 1.0635 0
M  V30 1346 C 142.604 4.28195 0.307873 0
M  V30 1347 C 141.837 5.19183 1.23633 0
M  V30 1348 O 142.06 5.13918 2.47476 0
M  V30 1349 O 140.994 5.97515 0.725189 0
M  V30 1350 H 144.82 2.96693 -0.648599 0
M  V30 1351 H 142.405 1.44408 -0.382957 0
M  V30 1352 H 144.287 3.88825 1.6246 0
M  V30 1353 H 142.962 2.70269 1.78146 0
M  V30 1354 H 141.869 3.72927 -0.296064 0
M  V30 1355 H 143.202 4.90808 -0.3699 0
M  V30 1356 N 144.854 0.36279 1.53368 0
M  V30 1357 C 145.801 -0.485008 2.25646 0
M  V30 1358 C 146.771 -1.07982 1.2621 0
M  V30 1359 O 147.956 -1.11284 1.54986 0
M  V30 1360 C 145.096 -1.62023 3.04701 0
M  V30 1361 C 144.209 -1.05086 4.19024 0
M  V30 1362 C 143.344 -2.15496 4.85525 0
M  V30 1363 C 142.383 -1.5601 5.91884 0
M  V30 1364 N 141.52 -2.60241 6.52088 0
M  V30 1365 H 146.36 0.137864 2.97681 0
M  V30 1366 H 143.897 0.0798061 1.46883 0
M  V30 1367 H 145.855 -2.28887 3.48807 0
M  V30 1368 H 144.485 -2.2138 2.34927 0
M  V30 1369 H 143.537 -0.27259 3.79422 0
M  V30 1370 H 144.849 -0.575926 4.95464 0
M  V30 1371 H 144.003 -2.90186 5.32801 0
M  V30 1372 H 142.742 -2.66341 4.08551 0
M  V30 1373 H 141.747 -0.798338 5.43973 0
M  V30 1374 H 142.972 -1.05994 6.70777 0
M  V30 1375 H 140.918 -3.10304 5.77968 0
M  V30 1376 H 140.835 -2.17426 7.24059 0
M  V30 1377 H 142.103 -3.34641 7.04014 0
M  V30 1378 N 146.332 -1.57332 0.0918853 0
M  V30 1379 C 147.572 -1.96117 -0.575988 0
M  V30 1380 C 147.936 -0.972499 -1.65549 0
M  V30 1381 O 149.137 -1.24872 -2.38034 0
M  V30 1382 C 147.408 -3.39407 -1.11973 0
M  V30 1383 S 148.967 -4.00185 -1.79992 0
M  V30 1384 H 145.785 -0.685682 -0.188045 0
M  V30 1385 H 148.387 -1.94755 0.170525 0
M  V30 1386 H 147.091 -4.09131 -0.322504 0
M  V30 1387 H 146.622 -3.44358 -1.90214 0
M  V30 1388 H 148.637 -3.88728 -3.08391 0
M  V30 1389 N 147.81 0.181792 -1.56548 0
M  V30 1390 C 148.74 1.22765 -1.98623 0
M  V30 1391 C 149.721 1.46747 -0.860189 0
M  V30 1392 O 150.906 1.58259 -1.12551 0
M  V30 1393 C 148.036 2.56894 -2.33715 0
M  V30 1394 C 146.99 2.475 -3.49182 0
M  V30 1395 C 146.316 3.86023 -3.69986 0
M  V30 1396 C 147.616 1.98866 -4.82959 0
M  V30 1397 H 149.31 0.877942 -2.86239 0
M  V30 1398 H 146.856 0.42088 -1.37712 0
M  V30 1399 H 148.809 3.30253 -2.61746 0
M  V30 1400 H 147.533 2.93632 -1.42997 0
M  V30 1401 H 146.192 1.76596 -3.21262 0
M  V30 1402 H 145.84 4.20136 -2.76576 0
M  V30 1403 H 145.54 3.80609 -4.47672 0
M  V30 1404 H 147.064 4.60984 -4.00407 0
M  V30 1405 H 148.478 2.61992 -5.09934 0
M  V30 1406 H 146.875 2.04424 -5.64208 0
M  V30 1407 H 147.945 0.942465 -4.75653 0
M  V30 1408 N 149.288 1.51039 0.449983 0
M  V30 1409 C 150.235 1.71439 1.54523 0
M  V30 1410 C 151.205 0.555871 1.56522 0
M  V30 1411 O 152.39 0.788871 1.73728 0
M  V30 1412 C 149.53 1.83384 2.92343 0
M  V30 1413 C 148.643 3.10873 2.9997 0
M  V30 1414 C 147.778 3.13488 4.28834 0
M  V30 1415 C 146.817 4.35343 4.30282 0
M  V30 1416 N 145.954 4.35579 5.5065 0
M  V30 1417 H 150.794 2.64934 1.36433 0
M  V30 1418 H 148.331 1.31312 0.662982 0
M  V30 1419 H 150.289 1.88291 3.72293 0
M  V30 1420 H 148.919 0.933086 3.0902 0
M  V30 1421 H 147.971 3.15336 2.12761 0
M  V30 1422 H 149.283 4.00814 2.96901 0
M  V30 1423 H 148.437 3.17241 5.17149 0
M  V30 1424 H 147.176 2.21414 4.34543 0
M  V30 1425 H 146.181 4.3178 3.40362 0
M  V30 1426 H 147.406 5.28668 4.26248 0
M  V30 1427 H 145.352 3.46369 5.57104 0
M  V30 1428 H 145.269 5.19313 5.49409 0
M  V30 1429 H 146.537 4.43507 6.41032 0
M  V30 1430 N 150.766 -0.704594 1.40972 0
M  V30 1431 C 151.716 -1.81051 1.38581 0
M  V30 1432 C 152.7 -1.58759 0.261585 0
M  V30 1433 O 153.892 -1.69745 0.501556 0
M  V30 1434 C 151.021 -3.19279 1.26157 0
M  V30 1435 C 150.107 -3.47296 2.43405 0
M  V30 1436 N 150.498 -3.46064 3.68881 0
M  V30 1437 C 148.796 -3.77804 2.37023 0
M  V30 1438 C 149.497 -3.72733 4.46592 0
M  V30 1439 N 148.473 -3.9203 3.76581 0
M  V30 1440 H 152.275 -1.78448 2.33525 0
M  V30 1441 H 149.789 -0.904198 1.349 0
M  V30 1442 H 151.786 -3.98488 1.22526 0
M  V30 1443 H 150.446 -3.231 0.321902 0
M  V30 1444 H 151.457 -3.26656 4.01891 0
M  V30 1445 H 148.134 -3.8905 1.51481 0
M  V30 1446 H 149.524 -3.77993 5.55492 0
M  V30 1447 N 152.244 -1.26651 -0.937939 0
M  V30 1448 C 153.49 -1.12553 -1.687 0
M  V30 1449 C 153.823 0.329782 -1.91379 0
M  V30 1450 O 153.098 1.24202 -1.4968 0
M  V30 1451 C 153.381 -1.89862 -3.05981 0
M  V30 1452 C 153.234 -3.43318 -2.90607 0
M  V30 1453 C 154.553 -1.69499 -4.0615 0
M  V30 1454 H 151.672 -0.410257 -0.612257 0
M  V30 1455 H 154.314 -1.55685 -1.08913 0
M  V30 1456 H 152.464 -1.53204 -3.57017 0
M  V30 1457 H 154.136 -3.89747 -2.46769 0
M  V30 1458 H 152.379 -3.70179 -2.26164 0
M  V30 1459 H 153.05 -3.92642 -3.8799 0
M  V30 1460 H 155.526 -2.01442 -3.64088 0
M  V30 1461 H 154.402 -2.26002 -5.00214 0
M  V30 1462 H 154.663 -0.640365 -4.37438 0
M  V30 1463 N 153.722 1.14298 -1.08507 0
M  V30 1464 C 155.138 1.37347 -0.812901 0
M  V30 1465 C 155.338 1.93052 0.577325 0
M  V30 1466 O 154.394 2.14389 1.33393 0
M  V30 1467 C 155.707 2.33359 -1.89642 0
M  V30 1468 C 157.255 2.46996 -1.92255 0
M  V30 1469 C 157.73 3.46309 -2.99724 0
M  V30 1470 N 159.221 3.53853 -2.98902 0
M  V30 1471 C 159.956 4.3055 -3.787 0
M  V30 1472 N 159.452 5.10482 -4.6838 0
M  V30 1473 N 161.245 4.25757 -3.66998 0
M  V30 1474 H 153.396 0.764867 -1.9815 0
M  V30 1475 H 155.659 0.398966 -0.859959 0
M  V30 1476 H 155.365 1.99565 -2.89597 0
M  V30 1477 H 155.239 3.33274 -1.76659 0
M  V30 1478 H 157.626 2.80081 -0.929445 0
M  V30 1479 H 157.707 1.47039 -2.09316 0
M  V30 1480 H 157.351 3.13957 -3.99241 0
M  V30 1481 H 157.281 4.46049 -2.79907 0
M  V30 1482 H 159.772 2.96812 -2.33904 0
M  V30 1483 H 160.085 5.66284 -5.25873 0
M  V30 1484 H 158.43 5.09747 -4.72422 0
M  V30 1485 H 161.621 3.62383 -2.96304 0
M  V30 1486 H 161.794 4.85279 -4.29427 0
M  V30 1487 N 155.201 0.870884 1.31352 0
M  V30 1488 C 156.45 0.478408 1.95944 0
M  V30 1489 C 156.763 -0.974493 1.69597 0
M  V30 1490 O 157.969 -1.47316 2.28058 0
M  V30 1491 C 156.425 0.804609 3.50791 0
M  V30 1492 C 156.033 2.27433 3.85977 0
M  V30 1493 C 157.777 0.480648 4.2177 0
M  V30 1494 C 155.684 2.5429 5.33939 0
M  V30 1495 H 154.614 0.175175 0.733369 0
M  V30 1496 H 157.265 1.06391 1.4951 0
M  V30 1497 H 155.647 0.148347 3.95722 0
M  V30 1498 H 156.821 2.97373 3.52002 0
M  V30 1499 H 155.136 2.56442 3.28065 0
M  V30 1500 H 157.733 0.658519 5.30629 0
M  V30 1501 H 158.076 -0.578979 4.12254 0
M  V30 1502 H 158.609 1.09349 3.82476 0
M  V30 1503 H 155.348 3.58939 5.48491 0
M  V30 1504 H 154.868 1.88945 5.69263 0
M  V30 1505 H 156.547 2.39066 6.01212 0
M  V30 1506 N 156.679 -1.44442 0.630414 0
M  V30 1507 C 158.09 -1.85434 0.217063 0
M  V30 1508 C 158.441 -1.52748 -1.23136 0
M  V30 1509 O 157.566 -0.965205 -1.93682 0
M  V30 1510 C 158.161 -3.36581 0.387168 0
M  V30 1511 C 156.72 -3.76389 0.0283297 0
M  V30 1512 C 155.867 -2.68296 0.700889 0
M  V30 1513 H 158.818 -1.34919 0.83562 0
M  V30 1514 H 158.839 -3.78657 -0.374086 0
M  V30 1515 H 158.351 -3.60339 1.44144 0
M  V30 1516 H 156.452 -3.58246 -1.02423 0
M  V30 1517 H 156.565 -4.77095 0.437892 0
M  V30 1518 H 154.929 -2.54335 0.136267 0
M  V30 1519 H 155.712 -2.94887 1.75774 0
M  V30 1520 N 158.157 -0.370918 -1.53173 0
M  V30 1521 C 159.397 0.217106 -2.03244 0
M  V30 1522 C 159.761 1.45558 -1.25207 0
M  V30 1523 O 160.962 2.11957 -1.65311 0
M  V30 1524 C 159.233 0.496664 -3.53932 0
M  V30 1525 S 160.792 1.0576 -4.25864 0
M  V30 1526 H 157.61 0.0627827 -0.708223 0
M  V30 1527 H 160.212 -0.515019 -1.88594 0
M  V30 1528 H 158.916 -0.412096 -4.08326 0
M  V30 1529 H 158.447 1.25772 -3.72753 0
M  V30 1530 H 160.462 2.34145 -4.37482 0
M  V30 1531 N 159.635 1.57281 -0.100228 0
M  V30 1532 C 160.863 1.98879 0.570509 0
M  V30 1533 C 161.278 0.979476 1.61405 0
M  V30 1534 O 160.635 -0.0302288 1.82475 0
M  V30 1535 C 160.686 3.4052 1.2136 0
M  V30 1536 O 160.407 4.37588 0.211786 0
M  V30 1537 C 161.908 3.97149 1.96945 0
M  V30 1538 H 159.128 0.653428 0.152555 0
M  V30 1539 H 161.672 2.03697 -0.18103 0
M  V30 1540 H 159.827 3.367 1.91603 0
M  V30 1541 H 160.241 5.20118 0.676607 0
M  V30 1542 H 161.715 4.98393 2.37294 0
M  V30 1543 H 162.192 3.3525 2.83733 0
M  V30 1544 H 162.798 4.04458 1.31506 0
M  V30 1545 N 161.113 -0.173488 1.56642 0
M  V30 1546 C 162.338 -0.910149 1.86363 0
M  V30 1547 C 162.763 -1.75132 0.686318 0
M  V30 1548 O 162.121 -1.77595 -0.364643 0
M  V30 1549 C 162.169 -1.76447 3.14482 0
M  V30 1550 O 161.273 -2.86584 2.96553 0
M  V30 1551 H 160.614 -0.255086 0.613047 0
M  V30 1552 H 163.144 -0.172283 2.03873 0
M  V30 1553 H 163.154 -2.16483 3.45831 0
M  V30 1554 H 161.829 -1.14658 3.99783 0
M  V30 1555 H 160.406 -2.50146 2.76553 0
M  V30 1556 N 162.591 -1.51276 -0.441967 0
M  V30 1557 C 163.837 -1.63958 -1.19355 0
M  V30 1558 C 164.17 -0.352543 -1.90973 0
M  V30 1559 O 163.445 0.647627 -1.83401 0
M  V30 1560 C 163.728 -2.83979 -2.21422 0
M  V30 1561 C 163.581 -4.22646 -1.53918 0
M  V30 1562 C 164.9 -2.99521 -3.22451 0
M  V30 1563 H 162.019 -0.596709 -0.432559 0
M  V30 1564 H 164.661 -1.83748 -0.483398 0
M  V30 1565 H 162.811 -2.67237 -2.81987 0
M  V30 1566 H 164.483 -4.51045 -0.967256 0
M  V30 1567 H 162.726 -4.25558 -0.841615 0
M  V30 1568 H 163.397 -5.02609 -2.28229 0
M  V30 1569 H 165.873 -3.14944 -2.71937 0
M  V30 1570 H 164.749 -3.85072 -3.91166 0
M  V30 1571 H 165.01 -2.11391 -3.88287 0
M  V30 1572 N 164.069 0.697108 -1.41344 0
M  V30 1573 C 165.032 1.79281 -1.42797 0
M  V30 1574 C 166.032 1.57607 -0.318837 0
M  V30 1575 O 167.222 1.64309 -0.578642 0
M  V30 1576 C 164.354 3.17632 -1.23785 0
M  V30 1577 H 165.547 1.79385 -2.40335 0
M  V30 1578 H 163.1 0.904582 -1.27464 0
M  V30 1579 H 163.835 3.23167 -0.270814 0
M  V30 1580 H 163.62 3.34765 -2.04144 0
M  V30 1581 H 165.11 3.97617 -1.27633 0
M  V30 1582 N 165.547 1.27147 0.931209 0
M  V30 1583 C 166.958 1.12044 1.49342 0
M  V30 1584 C 167.309 -0.295795 1.93957 0
M  V30 1585 O 166.434 -1.18835 1.80852 0
M  V30 1586 C 167.029 2.02781 2.71414 0
M  V30 1587 C 165.588 1.91794 3.2387 0
M  V30 1588 C 164.735 1.95543 1.96617 0
M  V30 1589 H 167.686 1.40091 0.745672 0
M  V30 1590 H 167.707 1.58156 3.46074 0
M  V30 1591 H 167.219 3.05848 2.38911 0
M  V30 1592 H 165.32 0.916992 3.6114 0
M  V30 1593 H 165.433 2.77852 3.90302 0
M  V30 1594 H 163.797 1.39722 2.12955 0
M  V30 1595 H 164.58 3.00259 1.66432 0
M  V30 1596 N 167.025 -1.13721 1.09112 0
M  V30 1597 C 168.25 -1.89314 0.847053 0
M  V30 1598 C 168.675 -1.78416 -0.595774 0
M  V30 1599 O 168.033 -1.12942 -1.41823 0
M  V30 1600 C 168.081 -3.3701 1.28284 0
M  V30 1601 O 167.185 -4.10054 0.439267 0
M  V30 1602 H 166.526 -0.588745 0.307044 0
M  V30 1603 H 169.056 -1.43902 1.45442 0
M  V30 1604 H 169.066 -3.87834 1.26683 0
M  V30 1605 H 167.741 -3.4426 2.33363 0
M  V30 1606 H 166.318 -3.69266 0.519312 0
M  V30 1607 N 168.503 -0.877838 -1.30888 0
M  V30 1608 C 169.433 -0.35534 -2.3078 0
M  V30 1609 C 170.414 0.557994 -1.60687 0
M  V30 1610 O 171.599 0.473355 -1.88343 0
M  V30 1611 C 168.729 0.437221 -3.44537 0
M  V30 1612 C 167.683 -0.383715 -4.26276 0
M  V30 1613 C 167.009 0.535014 -5.32017 0
M  V30 1614 C 168.309 -1.62201 -4.96476 0
M  V30 1615 H 170.003 -1.19007 -2.74732 0
M  V30 1616 H 167.549 -0.573698 -1.32078 0
M  V30 1617 H 169.502 0.813334 -4.13477 0
M  V30 1618 H 168.226 1.30553 -2.99372 0
M  V30 1619 H 166.885 -0.741874 -3.59015 0
M  V30 1620 H 166.533 1.40083 -4.831 0
M  V30 1621 H 166.233 -0.0104211 -5.87599 0
M  V30 1622 H 167.757 0.907799 -6.03814 0
M  V30 1623 H 169.171 -1.31689 -5.5797 0
M  V30 1624 H 167.568 -2.10711 -5.61891 0
M  V30 1625 H 168.638 -2.37044 -4.23011 0
M  V30 1626 N 169.982 1.44106 -0.638065 0
M  V30 1627 C 171.228 2.02277 -0.145546 0
M  V30 1628 C 171.561 1.50125 1.23191 0
M  V30 1629 O 170.836 0.688133 1.8192 0
M  V30 1630 C 171.119 3.59829 -0.139791 0
M  V30 1631 C 170.972 4.22247 -1.55008 0
M  V30 1632 C 172.291 4.36873 0.531966 0
M  V30 1633 H 169.41 0.734992 -0.0543632 0
M  V30 1634 H 172.052 1.71592 -0.815863 0
M  V30 1635 H 170.202 3.86102 0.431007 0
M  V30 1636 H 171.874 4.07057 -2.1703 0
M  V30 1637 H 170.117 3.79476 -2.10191 0
M  V30 1638 H 170.788 5.31284 -1.49804 0
M  V30 1639 H 173.264 4.16074 0.0464781 0
M  V30 1640 H 172.14 5.4657 0.505206 0
M  V30 1641 H 172.401 4.11995 1.60352 0
M  V30 1642 N 171.46 0.379036 1.52974 0
M  V30 1643 C 172.876 0.0285448 1.59574 0
M  V30 1644 C 173.076 -1.45542 1.39355 0
M  V30 1645 O 172.132 -2.2187 1.20541 0
M  V30 1646 C 173.445 0.496535 2.96572 0
M  V30 1647 C 174.993 0.451909 3.0972 0
M  V30 1648 C 175.468 0.895924 4.49152 0
M  V30 1649 N 176.959 0.851522 4.55306 0
M  V30 1650 C 177.694 1.16661 5.61407 0
M  V30 1651 N 177.19 1.55166 6.752 0
M  V30 1652 N 178.983 1.08853 5.51459 0
M  V30 1653 H 171.134 1.34525 1.64367 0
M  V30 1654 H 173.397 0.550733 0.771619 0
M  V30 1655 H 173.103 1.53258 3.16552 0
M  V30 1656 H 172.977 -0.109802 3.7704 0
M  V30 1657 H 175.364 -0.575029 2.89443 0
M  V30 1658 H 175.445 1.09392 2.3123 0
M  V30 1659 H 175.089 1.92104 4.70168 0
M  V30 1660 H 175.019 0.23103 5.26093 0
M  V30 1661 H 177.51 0.568038 3.73606 0
M  V30 1662 H 177.823 1.776 7.52116 0
M  V30 1663 H 176.168 1.59044 6.76557 0
M  V30 1664 H 179.359 0.786803 4.6144 0
M  V30 1665 H 179.532 1.33742 6.34048 0
M  V30 1666 N 172.938 -1.57226 0.108567 0
M  V30 1667 C 174.184 -1.95121 -0.552761 0
M  V30 1668 C 174.517 -0.991345 -1.66991 0
M  V30 1669 O 173.792 -0.0267211 -1.94482 0
M  V30 1670 C 174.075 -3.43039 -1.09528 0
M  V30 1671 C 173.928 -4.49797 0.0177332 0
M  V30 1672 C 175.247 -3.92567 -1.98945 0
M  V30 1673 H 172.366 -0.709496 -0.199461 0
M  V30 1674 H 175.008 -1.89126 0.182011 0
M  V30 1675 H 173.158 -3.48279 -1.72146 0
M  V30 1676 H 174.83 -4.56661 0.652584 0
M  V30 1677 H 173.073 -4.284 0.682309 0
M  V30 1678 H 173.744 -5.50528 -0.402919 0
M  V30 1679 H 176.22 -3.89565 -1.46214 0
M  V30 1680 H 175.096 -4.96605 -2.33827 0
M  V30 1681 H 175.357 -3.32648 -2.91201 0
M  V30 1682 N 174.416 0.165178 -1.56732 0
M  V30 1683 C 175.827 0.727046 -1.71962 0
M  V30 1684 C 176.178 1.82508 -0.720078 0
M  V30 1685 O 175.303 2.16082 0.117242 0
M  V30 1686 C 175.898 1.32559 -3.11791 0
M  V30 1687 C 174.457 1.83422 -3.28684 0
M  V30 1688 C 173.604 0.715567 -2.67908 0
M  V30 1689 H 176.555 -0.0602896 -1.58585 0
M  V30 1690 H 176.576 2.19533 -3.10782 0
M  V30 1691 H 176.088 0.526195 -3.84516 0
M  V30 1692 H 174.189 2.65986 -2.60926 0
M  V30 1693 H 174.302 1.97543 -4.36478 0
M  V30 1694 H 172.666 1.13758 -2.27884 0
M  V30 1695 H 173.449 -0.0720836 -3.43224 0
M  V30 1696 N 175.894 1.51508 0.433938 0
M  V30 1697 C 177.14 1.64588 1.18484 0
M  V30 1698 C 177.473 0.362666 1.90784 0
M  V30 1699 O 176.748 -0.637892 1.83742 0
M  V30 1700 C 177.031 2.85149 2.19913 0
M  V30 1701 C 176.884 4.23456 1.51674 0
M  V30 1702 C 178.203 3.01227 3.20858 0
M  V30 1703 H 175.322 0.598994 0.429389 0
M  V30 1704 H 177.964 1.84002 0.473647 0
M  V30 1705 H 176.114 2.68729 2.80566 0
M  V30 1706 H 177.786 4.51552 0.943322 0
M  V30 1707 H 176.029 4.25998 0.819035 0
M  V30 1708 H 176.7 5.03812 2.2556 0
M  V30 1709 H 179.176 3.16382 2.70263 0
M  V30 1710 H 178.052 3.87141 3.89118 0
M  V30 1711 H 178.313 2.13447 3.8716 0
M  V30 1712 N 177.372 -0.689602 1.41712 0
M  V30 1713 C 178.335 -1.78521 1.43746 0
M  V30 1714 C 179.335 -1.57436 0.327191 0
M  V30 1715 O 180.525 -1.64 0.587348 0
M  V30 1716 C 177.657 -3.16971 1.25467 0
M  V30 1717 H 178.85 -1.78108 2.41283 0
M  V30 1718 H 176.403 -0.89781 1.27942 0
M  V30 1719 H 177.138 -3.23019 0.287948 0
M  V30 1720 H 176.923 -3.33678 2.05917 0
M  V30 1721 H 178.413 -3.96935 1.2974 0
M  V30 1722 N 178.85 -1.27639 -0.924453 0
M  V30 1723 C 179.8 -1.07295 -2.01176 0
M  V30 1724 C 180.784 5.77352e-05 -1.609 0
M  V30 1725 O 181.976 -0.218855 -1.75642 0
M  V30 1726 C 179.105 -0.725592 -3.35544 0
M  V30 1727 C 178.191 -1.83691 -3.82254 0
M  V30 1728 N 178.582 -3.07697 -4.01443 0
M  V30 1729 C 176.88 -1.72433 -4.11319 0
M  V30 1730 C 177.581 -3.80037 -4.40394 0
M  V30 1731 N 176.557 -3.0782 -4.48049 0
M  V30 1732 H 180.359 -2.01399 -2.14046 0
M  V30 1733 H 177.873 -1.18401 -1.11153 0
M  V30 1734 H 179.87 -0.560959 -4.13109 0
M  V30 1735 H 178.53 0.207782 -3.24034 0
M  V30 1736 H 179.541 -3.43424 -3.8766 0
M  V30 1737 H 176.218 -0.862005 -4.08504 0
M  V30 1738 H 177.608 -4.86632 -4.63291 0
M  V30 1739 N 180.328 1.1314 -1.09713 0
M  V30 1740 C 181.568 1.8613 -0.844683 0
M  V30 1741 C 181.932 1.81765 0.618491 0
M  V30 1742 O 183.133 2.50024 0.98699 0
M  V30 1743 C 181.404 3.30151 -1.36877 0
M  V30 1744 S 182.963 4.206 -1.25064 0
M  V30 1745 H 179.781 0.642056 -0.305427 0
M  V30 1746 H 182.383 1.36343 -1.4011 0
M  V30 1747 H 181.087 3.30883 -2.42786 0
M  V30 1748 H 180.618 3.85 -0.808614 0
M  V30 1749 H 182.633 4.95783 -0.203486 0
M  V30 1750 N 181.806 0.884767 1.30421 0
M  V30 1751 C 183.053 0.503105 1.96151 0
M  V30 1752 C 183.381 -0.947676 1.69851 0
M  V30 1753 O 182.636 -1.68467 0.995861 0
M  V30 1754 C 182.935 0.724318 3.49983 0
M  V30 1755 C 182.601 2.15015 3.96332 0
M  V30 1756 C 181.263 2.54005 4.08699 0
M  V30 1757 C 183.615 3.07936 4.20505 0
M  V30 1758 C 180.943 3.85128 4.42599 0
M  V30 1759 C 183.295 4.3859 4.55874 0
M  V30 1760 C 181.959 4.77474 4.66449 0
M  V30 1761 H 181.229 0.184099 0.717766 0
M  V30 1762 H 183.876 1.12058 1.55291 0
M  V30 1763 H 182.181 0.0238086 3.91793 0
M  V30 1764 H 183.878 0.408617 3.98913 0
M  V30 1765 H 180.468 1.8375 3.87213 0
M  V30 1766 H 184.652 2.79033 4.10431 0
M  V30 1767 H 179.908 4.14996 4.48986 0
M  V30 1768 H 184.082 5.10629 4.7353 0
M  V30 1769 H 181.709 5.79115 4.92473 0
M  V30 1770 N 183.284 -1.43765 0.645699 0
M  V30 1771 C 184.532 -2.01499 0.155731 0
M  V30 1772 C 184.853 -1.51151 -1.232 0
M  V30 1773 O 184.123 -0.721044 -1.82148 0
M  V30 1774 H 182.703 -0.745003 0.0545817 0
M  V30 1775 H 185.365 -1.76075 0.835677 0
M  V30 1776 H 184.461 -3.1181 0.134577 0
M  V30 1777 N 184.763 -0.387143 -1.52771 0
M  V30 1778 C 186.174 0.0873634 -1.86495 0
M  V30 1779 C 186.525 1.46336 -1.30691 0
M  V30 1780 O 185.65 2.068 -0.637409 0
M  V30 1781 C 186.245 0.165305 -3.38396 0
M  V30 1782 C 184.804 0.584101 -3.7184 0
M  V30 1783 C 183.951 -0.255279 -2.76122 0
M  V30 1784 H 186.902 -0.605104 -1.46711 0
M  V30 1785 H 186.923 0.984848 -3.67534 0
M  V30 1786 H 186.435 -0.836301 -3.78982 0
M  V30 1787 H 184.536 1.59315 -3.36823 0
M  V30 1788 H 184.649 0.343749 -4.77865 0
M  V30 1789 H 183.013 0.279126 -2.53166 0
M  V30 1790 H 183.796 -1.25482 -3.19545 0
M  V30 1791 N 186.241 1.57166 -0.116904 0
M  V30 1792 C 187.657 1.5779 0.239693 0
M  V30 1793 C 187.857 1.1295 1.66867 0
M  V30 1794 O 186.913 0.81592 2.38954 0
M  V30 1795 C 188.226 3.00699 0.00828202 0
M  V30 1796 C 189.774 3.12912 0.0743438 0
M  V30 1797 C 190.249 4.57817 -0.129348 0
M  V30 1798 N 191.74 4.63139 -0.075247 0
M  V30 1799 C 192.475 5.73023 -0.207788 0
M  V30 1800 N 191.971 6.91665 -0.396382 0
M  V30 1801 N 193.764 5.61906 -0.14751 0
M  V30 1802 H 185.915 1.84615 -1.05029 0
M  V30 1803 H 188.178 0.85311 -0.41341 0
M  V30 1804 H 187.884 3.37784 -0.979531 0
M  V30 1805 H 187.758 3.69848 0.741077 0
M  V30 1806 H 190.145 2.75686 1.05268 0
M  V30 1807 H 190.226 2.4631 -0.690297 0
M  V30 1808 H 189.87 4.95742 -1.10465 0
M  V30 1809 H 189.8 5.22507 0.655253 0
M  V30 1810 H 192.291 3.7784 0.0670898 0
M  V30 1811 H 192.604 7.71255 -0.488437 0
M  V30 1812 H 190.949 6.93654 -0.432329 0
M  V30 1813 H 194.14 4.681 -0.00115036 0
M  V30 1814 H 194.313 6.47501 -0.254247 0
M  V30 1815 N 187.719 -0.156864 1.56817 0
M  V30 1816 C 188.967 -0.869404 1.82444 0
M  V30 1817 C 189.288 -1.82147 0.69623 0
M  V30 1818 O 188.558 -1.93847 -0.28287 0
M  V30 1819 H 187.138 -0.324043 0.673056 0
M  V30 1820 H 189.8 -0.153224 1.94297 0
M  V30 1821 H 188.896 -1.43761 2.77019 0
M  V30 1822 N 189.197 -1.51736 -0.425897 0
M  V30 1823 C 190.127 -1.76827 -1.52494 0
M  V30 1824 C 191.108 -0.618524 -1.58456 0
M  V30 1825 O 192.293 -0.862416 -1.74 0
M  V30 1826 C 189.423 -1.90374 -2.90474 0
M  V30 1827 C 188.377 -3.0588 -2.99369 0
M  V30 1828 C 187.703 -3.04625 -4.3944 0
M  V30 1829 C 189.003 -4.45644 -2.72394 0
M  V30 1830 H 190.697 -2.68855 -1.31748 0
M  V30 1831 H 188.243 -1.29372 -0.632362 0
M  V30 1832 H 190.196 -2.0651 -3.6733 0
M  V30 1833 H 188.92 -0.95004 -3.12477 0
M  V30 1834 H 187.579 -2.89467 -2.24954 0
M  V30 1835 H 187.227 -2.0701 -4.58428 0
M  V30 1836 H 186.927 -3.82195 -4.46319 0
M  V30 1837 H 188.451 -3.22869 -5.18255 0
M  V30 1838 H 189.865 -4.62348 -3.38979 0
M  V30 1839 H 188.262 -5.25006 -2.9067 0
M  V30 1840 H 189.332 -4.54893 -1.67929 0
M  V30 1841 N 190.675 0.682077 -1.42076 0
M  V30 1842 C 191.625 1.78823 -1.41444 0
M  V30 1843 C 192.609 1.58323 -0.28681 0
M  V30 1844 O 193.801 1.68926 -0.528498 0
M  V30 1845 C 190.93 3.17232 -1.3122 0
M  V30 1846 C 190.016 3.4338 -2.489 0
M  V30 1847 N 190.407 3.40152 -3.7434 0
M  V30 1848 C 188.705 3.73986 -2.43003 0
M  V30 1849 C 189.406 3.65581 -4.52466 0
M  V30 1850 N 188.382 3.85989 -3.8277 0
M  V30 1851 H 192.184 1.7471 -2.36334 0
M  V30 1852 H 189.698 0.882622 -1.36321 0
M  V30 1853 H 191.695 3.96489 -1.2885 0
M  V30 1854 H 190.355 3.22547 -0.373263 0
M  V30 1855 H 191.366 3.20221 -4.07037 0
M  V30 1856 H 188.043 3.86591 -1.57651 0
M  V30 1857 H 189.433 3.69108 -5.61435 0
M  V30 1858 N 192.153 1.28127 0.917671 0
M  V30 1859 C 193.1 1.11717 2.0196 0
M  V30 1860 C 194.07 0.0153929 1.66093 0
M  V30 1861 O 195.255 0.179596 1.89953 0
M  V30 1862 C 192.395 0.780927 3.36148 0
M  V30 1863 C 191.508 1.96135 3.84909 0
M  V30 1864 C 190.643 1.56609 5.0759 0
M  V30 1865 C 189.682 2.71339 5.48673 0
M  V30 1866 N 188.819 2.32332 6.62545 0
M  V30 1867 H 193.659 2.06003 2.15329 0
M  V30 1868 H 191.196 1.02535 1.05475 0
M  V30 1869 H 193.154 0.56675 4.13333 0
M  V30 1870 H 191.784 -0.124998 3.22558 0
M  V30 1871 H 190.836 2.28777 3.03916 0
M  V30 1872 H 192.148 2.82165 4.1132 0
M  V30 1873 H 191.302 1.31374 5.92305 0
M  V30 1874 H 190.041 0.677014 4.82978 0
M  V30 1875 H 189.046 2.97276 4.62501 0
M  V30 1876 H 190.271 3.60882 5.75274 0
M  V30 1877 H 188.217 1.45889 6.39572 0
M  V30 1878 H 188.134 3.11899 6.88662 0
M  V30 1879 H 189.402 2.10371 7.50576 0
M  V30 1880 N 193.631 -1.12557 1.10312 0
M  V30 1881 C 195.047 -1.36036 0.834649 0
M  V30 1882 C 195.247 -1.93946 -0.546539 0
M  V30 1883 O 194.303 -2.16484 -1.29966 0
M  V30 1884 C 195.616 -2.30312 1.9333 0
M  V30 1885 C 197.164 -2.43906 1.9616 0
M  V30 1886 C 197.639 -3.41496 3.05195 0
M  V30 1887 N 199.13 -3.49053 3.04494 0
M  V30 1888 C 199.865 -4.24471 3.85502 0
M  V30 1889 N 199.361 -5.02966 4.76442 0
M  V30 1890 N 201.154 -4.19864 3.73725 0
M  V30 1891 H 193.305 -0.733246 1.99342 0
M  V30 1892 H 195.568 -0.385234 0.866198 0
M  V30 1893 H 195.274 -1.94933 2.92735 0
M  V30 1894 H 195.148 -3.30421 1.81939 0
M  V30 1895 H 197.535 -2.78567 0.973886 0
M  V30 1896 H 197.616 -1.4369 2.11629 0
M  V30 1897 H 197.26 -3.07565 4.04186 0
M  V30 1898 H 197.19 -4.41539 2.86968 0
M  V30 1899 H 199.681 -2.93053 2.38596 0
M  V30 1900 H 199.994 -5.57846 5.34815 0
M  V30 1901 H 198.339 -5.02167 4.80472 0
M  V30 1902 H 201.53 -3.57623 3.02032 0
M  V30 1903 H 201.703 -4.78386 4.37093 0
M  V30 1904 N 195.109 -0.891671 -1.2995 0
M  V30 1905 C 196.056 -0.361736 -2.27948 0
M  V30 1906 C 197.026 0.551761 -1.56668 0
M  V30 1907 O 198.211 0.478736 -1.84696 0
M  V30 1908 C 195.351 0.411825 -3.42634 0
M  V30 1909 C 194.464 -0.531651 -4.28716 0
M  V30 1910 C 193.599 0.258167 -5.30572 0
M  V30 1911 C 192.638 -0.680349 -6.08307 0
M  V30 1912 N 191.775 0.0745613 -7.0206 0
M  V30 1913 H 196.615 -1.20254 -2.72659 0
M  V30 1914 H 194.152 -0.604352 -1.34112 0
M  V30 1915 H 196.11 0.876304 -4.07893 0
M  V30 1916 H 194.74 1.21715 -2.98974 0
M  V30 1917 H 193.792 -1.11463 -3.63703 0
M  V30 1918 H 195.104 -1.25038 -4.82874 0
M  V30 1919 H 194.258 0.784204 -6.0161 0
M  V30 1920 H 192.997 1.01008 -4.77126 0
M  V30 1921 H 192.002 -1.21796 -5.3614 0
M  V30 1922 H 193.227 -1.43145 -6.63842 0
M  V30 1923 H 191.173 0.808883 -6.50994 0
M  V30 1924 H 191.09 -0.584409 -7.53738 0
M  V30 1925 H 192.358 0.581123 -7.77331 0
M  V30 1926 N 196.587 1.43421 -0.653314 0
M  V30 1927 C 197.834 2.01812 -0.166745 0
M  V30 1928 C 198.162 1.51535 1.21931 0
M  V30 1929 O 197.417 0.698975 1.82792 0
M  V30 1930 C 197.716 3.57176 -0.126623 0
M  V30 1931 C 197.382 4.26798 -1.45444 0
M  V30 1932 C 196.044 4.45534 -1.81805 0
M  V30 1933 C 198.396 4.66225 -2.32989 0
M  V30 1934 C 195.724 5.00961 -3.05377 0
M  V30 1935 C 198.076 5.23021 -3.55853 0
M  V30 1936 C 196.74 5.39973 -3.9241 0
M  V30 1937 H 196.01 0.738484 -0.0610162 0
M  V30 1938 H 198.657 1.71896 -0.84404 0
M  V30 1939 H 196.962 3.86634 0.634123 0
M  V30 1940 H 198.659 4.00112 0.266723 0
M  V30 1941 H 195.249 4.12561 -1.16153 0
M  V30 1942 H 199.433 4.51443 -2.06187 0
M  V30 1943 H 194.689 5.12271 -3.3375 0
M  V30 1944 H 198.863 5.52518 -4.23907 0
M  V30 1945 H 196.49 5.82687 -4.88242 0
M  V30 1946 N 198.065 0.39524 1.52563 0
M  V30 1947 C 199.305 -0.184744 2.03563 0
M  V30 1948 C 199.669 -1.43548 1.27507 0
M  V30 1949 O 200.87 -2.093 1.68662 0
M  V30 1950 C 199.141 -0.440294 3.54678 0
M  V30 1951 S 200.7 -0.989712 4.27493 0
M  V30 1952 H 197.518 -0.0515075 0.709132 0
M  V30 1953 H 200.12 0.544957 1.87751 0
M  V30 1954 H 198.824 0.477005 4.07618 0
M  V30 1955 H 198.355 -1.19825 3.74707 0
M  V30 1956 H 200.37 -2.27155 4.41152 0
M  V30 1957 N 199.544 -1.57102 0.125237 0
M  V30 1958 C 200.507 -2.14471 -0.80838 0
M  V30 1959 C 201.507 -1.0811 -1.19033 0
M  V30 1960 O 202.697 -1.33856 -1.11482 0
M  V30 1961 C 199.829 -2.69005 -2.09402 0
M  V30 1962 H 201.022 -2.98297 -0.309696 0
M  V30 1963 H 198.575 -1.55807 -0.124051 0
M  V30 1964 H 199.31 -1.88785 -2.63687 0
M  V30 1965 H 199.095 -3.46799 -1.82957 0
M  V30 1966 H 200.585 -3.13278 -2.76128 0
M  V30 1967 N 201.022 0.148545 -1.56898 0
M  V30 1968 C 202.268 0.862694 -1.83536 0
M  V30 1969 C 202.601 1.80889 -0.706604 0
M  V30 1970 O 201.876 1.92328 0.289885 0
M  V30 1971 C 202.159 1.63853 -3.20662 0
M  V30 1972 C 202.012 0.713925 -4.44098 0
M  V30 1973 C 203.331 2.60133 -3.54991 0
M  V30 1974 H 200.45 0.312179 -0.667618 0
M  V30 1975 H 203.092 0.127953 -1.89569 0
M  V30 1976 H 201.242 2.26489 -3.1565 0
M  V30 1977 H 202.914 0.098686 -4.61194 0
M  V30 1978 H 201.157 0.0234019 -4.33794 0
M  V30 1979 H 201.828 1.29278 -5.36648 0
M  V30 1980 H 204.304 2.07616 -3.60603 0
M  V30 1981 H 203.18 3.11468 -4.51972 0
M  V30 1982 H 203.441 3.41417 -2.80868 0
M  V30 1983 N 202.5 1.5196 0.417844 0
M  V30 1984 C 203.74 1.67262 1.17486 0
M  V30 1985 C 204.104 0.38983 1.88001 0
M  V30 1986 O 205.305 0.418845 2.65517 0
M  V30 1987 C 203.576 2.85526 2.14965 0
M  V30 1988 S 205.135 3.21263 2.98891 0
M  V30 1989 H 201.953 0.589077 0.398132 0
M  V30 1990 H 204.555 1.89927 0.463452 0
M  V30 1991 H 203.259 3.77145 1.61833 0
M  V30 1992 H 202.79 2.65107 2.90657 0
M  V30 1993 H 204.805 2.69208 4.16823 0
M  V30 1994 N 203.978 -0.674533 1.42435 0
M  V30 1995 C 205.394 -0.98769 1.25367 0
M  V30 1996 C 205.594 -2.00879 0.158044 0
M  V30 1997 O 204.65 -2.48075 -0.470633 0
M  V30 1998 C 205.963 -1.49224 2.6106 0
M  V30 1999 C 207.511 -1.61 2.68417 0
M  V30 2000 C 207.986 -2.14852 4.04478 0
M  V30 2001 N 209.477 -2.22185 4.06434 0
M  V30 2002 C 210.212 -2.64928 5.08528 0
M  V30 2003 N 209.708 -3.07121 6.21006 0
M  V30 2004 N 211.501 -2.64679 4.95885 0
M  V30 2005 H 203.652 0.00152503 2.124 0
M  V30 2006 H 205.915 -0.0618434 0.945981 0
M  V30 2007 H 205.621 -0.816453 3.42092 0
M  V30 2008 H 205.495 -2.47094 2.84999 0
M  V30 2009 H 207.882 -2.27686 1.87732 0
M  V30 2010 H 207.963 -0.616195 2.48267 0
M  V30 2011 H 207.607 -1.48775 4.85622 0
M  V30 2012 H 207.537 -3.15024 4.2198 0
M  V30 2013 H 210.028 -1.92435 3.25234 0
M  V30 2014 H 210.341 -3.38423 6.94759 0
M  V30 2015 H 208.686 -3.04978 6.24511 0
M  V30 2016 H 211.877 -2.31078 4.07088 0
M  V30 2017 H 212.05 -2.9767 5.75584 0
M  V30 2018 N 205.456 -1.28612 -0.910864 0
M  V30 2019 C 206.403 -1.12786 -2.01365 0
M  V30 2020 C 207.373 -0.024201 -1.66082 0
M  V30 2021 O 208.558 -0.189667 -1.89855 0
M  V30 2022 C 205.698 -0.798743 -3.35729 0
M  V30 2023 C 204.811 -1.98173 -3.83864 0
M  V30 2024 C 203.946 -1.59298 -5.06752 0
M  V30 2025 C 202.985 -2.74245 -5.47226 0
M  V30 2026 N 202.122 -2.35842 -6.61304 0
M  V30 2027 H 206.962 -2.07142 -2.14234 0
M  V30 2028 H 204.499 -1.03093 -1.0493 0
M  V30 2029 H 206.457 -0.588662 -4.13026 0
M  V30 2030 H 205.087 0.10789 -3.2262 0
M  V30 2031 H 204.139 -2.30386 -3.02699 0
M  V30 2032 H 205.451 -2.84343 -4.09818 0
M  V30 2033 H 204.605 -1.34513 -5.916 0
M  V30 2034 H 203.344 -0.702618 -4.82612 0
M  V30 2035 H 202.349 -2.99725 -4.60918 0
M  V30 2036 H 203.574 -3.63928 -5.73353 0
M  V30 2037 H 201.52 -1.49279 -6.38789 0
M  V30 2038 H 201.437 -3.15546 -6.86998 0
M  V30 2039 H 202.705 -2.14348 -7.4945 0
M  V30 2040 N 206.934 1.1197 -1.10907 0
M  V30 2041 C 208.18 1.8386 -0.855773 0
M  V30 2042 C 208.513 1.84134 0.617103 0
M  V30 2043 O 207.788 1.29041 1.45529 0
M  V30 2044 C 208.071 3.31305 -1.411 0
M  V30 2045 C 207.924 3.39456 -2.9511 0
M  V30 2046 C 209.243 4.2721 -1.05736 0
M  V30 2047 H 206.362 0.667545 -0.312334 0
M  V30 2048 H 209.004 1.31331 -1.37303 0
M  V30 2049 H 207.154 3.76169 -0.97105 0
M  V30 2050 H 208.826 3.03191 -3.47668 0
M  V30 2051 H 207.069 2.79849 -3.31462 0
M  V30 2052 H 207.74 4.43209 -3.29044 0
M  V30 2053 H 210.216 3.90497 -1.43706 0
M  V30 2054 H 209.092 5.28775 -1.47269 0
M  V30 2055 H 209.353 4.42088 0.0325958 0
M  V30 2056 N 208.412 0.89855 1.29475 0
M  V30 2057 C 209.342 0.39201 2.30186 0
M  V30 2058 C 210.323 -0.532359 1.61555 0
M  V30 2059 O 211.508 -0.443331 1.89072 0
M  V30 2060 C 208.638 -0.382353 3.45189 0
M  V30 2061 C 207.592 0.451483 4.25612 0
M  V30 2062 C 206.918 -0.450307 5.328 0
M  V30 2063 C 208.218 1.70079 4.93832 0
M  V30 2064 H 209.912 1.23362 2.72804 0
M  V30 2065 H 207.458 0.594638 1.31149 0
M  V30 2066 H 209.411 -0.747451 4.14718 0
M  V30 2067 H 208.135 -1.25774 3.01411 0
M  V30 2068 H 206.794 0.798897 3.57789 0
M  V30 2069 H 206.442 -1.32379 4.85268 0
M  V30 2070 H 206.142 0.103902 5.87508 0
M  V30 2071 H 207.666 -0.811623 6.05182 0
M  V30 2072 H 209.08 1.40549 5.55805 0
M  V30 2073 H 207.477 2.19623 5.58467 0
M  V30 2074 H 208.547 2.43744 4.19186 0
M  V30 2075 N 209.89 -1.43072 0.660911 0
M  V30 2076 C 210.8 -2.34585 -0.0264163 0
M  V30 2077 C 211.816 -1.54316 -0.803898 0
M  V30 2078 O 212.992 -1.86939 -0.749391 0
M  V30 2079 C 210.057 -3.32689 -0.975639 0
M  V30 2080 C 209.118 -4.2886 -0.194236 0
M  V30 2081 C 208.351 -5.22278 -1.09825 0
M  V30 2082 O 208.574 -5.20299 -2.33763 0
M  V30 2083 O 207.508 -5.99228 -0.566513 0
M  V30 2084 H 211.334 -2.94869 0.727034 0
M  V30 2085 H 208.919 -1.43342 0.42111 0
M  V30 2086 H 210.801 -3.92995 -1.52094 0
M  V30 2087 H 209.476 -2.74898 -1.70918 0
M  V30 2088 H 208.383 -3.72011 0.394835 0
M  V30 2089 H 209.716 -4.89655 0.499899 0
M  V30 2090 N 211.368 -0.403325 -1.52352 0
M  V30 2091 C 212.331 0.413051 -2.25447 0
M  V30 2092 C 213.331 0.978513 -1.276 0
M  V30 2093 O 214.521 0.858305 -1.51587 0
M  V30 2094 C 211.653 1.58087 -3.02029 0
M  V30 2095 H 212.846 -0.227094 -2.99039 0
M  V30 2096 H 210.399 -0.155722 -1.55522 0
M  V30 2097 H 211.134 2.25804 -2.32772 0
M  V30 2098 H 210.919 1.18195 -3.73861 0
M  V30 2099 H 212.409 2.1585 -3.57489 0
M  V30 2100 N 212.846 1.57033 -0.133567 0
M  V30 2101 C 214.257 1.82593 0.389464 0
M  V30 2102 C 214.608 1.05156 1.6564 0
M  V30 2103 O 213.733 0.292644 2.14412 0
M  V30 2104 C 214.328 3.31204 0.713377 0
M  V30 2105 C 212.887 3.57393 1.18098 0
M  V30 2106 C 212.034 2.76598 0.197126 0
M  V30 2107 H 214.985 1.54598 -0.358481 0
M  V30 2108 H 215.006 3.46627 1.56939 0
M  V30 2109 H 214.518 3.87537 -0.2089 0
M  V30 2110 H 212.619 3.06433 2.11966 0
M  V30 2111 H 212.732 4.65915 1.11624 0
M  V30 2112 H 211.096 2.45257 0.687088 0
M  V30 2113 H 211.879 3.35697 -0.718504 0
M  V30 2114 N 214.325 -0.140222 1.56975 0
M  V30 2115 C 215.288 -1.15689 1.97861 0
M  V30 2116 C 216.288 -1.3549 0.865974 0
M  V30 2117 O 217.478 -1.32367 1.13246 0
M  V30 2118 C 214.61 -2.51582 2.30042 0
M  V30 2119 H 215.803 -0.805971 2.88867 0
M  V30 2120 H 213.356 -0.383801 1.51515 0
M  V30 2121 H 214.091 -2.91632 1.41849 0
M  V30 2122 H 213.876 -2.38569 3.11171 0
M  V30 2123 H 215.366 -3.24792 2.62488 0
M  V30 2124 N 215.803 -1.52179 -0.40978 0
M  V30 2125 C 216.733 -1.78435 -1.5061 0
M  V30 2126 C 217.714 -0.635295 -1.57791 0
M  V30 2127 O 218.899 -0.880823 -1.73076 0
M  V30 2128 C 216.029 -1.93444 -2.88439 0
M  V30 2129 C 214.983 -3.09038 -2.96108 0
M  V30 2130 C 214.309 -3.09268 -4.36185 0
M  V30 2131 C 215.609 -4.48508 -2.67652 0
M  V30 2132 H 217.303 -2.70237 -1.28889 0
M  V30 2133 H 214.849 -1.30036 -0.618605 0
M  V30 2134 H 216.802 -2.10394 -3.65119 0
M  V30 2135 H 215.526 -0.983129 -3.11452 0
M  V30 2136 H 214.185 -2.91837 -2.21872 0
M  V30 2137 H 213.833 -2.11861 -4.56206 0
M  V30 2138 H 213.533 -3.86907 -4.42241 0
M  V30 2139 H 215.057 -3.28348 -5.14801 0
M  V30 2140 H 216.471 -4.65918 -3.34056 0
M  V30 2141 H 214.868 -5.28059 -2.85085 0
M  V30 2142 H 215.938 -4.56649 -1.63095 0
M  V30 2143 N 217.281 0.66697 -1.42791 0
M  V30 2144 C 218.231 1.77313 -1.43332 0
M  V30 2145 C 219.215 1.5801 -0.303586 0
M  V30 2146 O 220.407 1.68356 -0.546385 0
M  V30 2147 C 217.536 3.15822 -1.34578 0
M  V30 2148 C 216.622 3.40721 -2.52528 0
M  V30 2149 N 217.013 3.36162 -3.77927 0
M  V30 2150 C 215.311 3.71387 -2.46956 0
M  V30 2151 C 216.012 3.60762 -4.56318 0
M  V30 2152 N 214.988 3.81908 -3.86843 0
M  V30 2153 H 218.79 1.72193 -2.38174 0
M  V30 2154 H 216.304 0.868114 -1.3725 0
M  V30 2155 H 218.301 3.951 -1.33048 0
M  V30 2156 H 216.961 3.22133 -0.407453 0
M  V30 2157 H 217.972 3.15885 -4.10411 0
M  V30 2158 H 214.649 3.84897 -1.61743 0
M  V30 2159 H 216.039 3.63132 -5.65318 0
M  V30 2160 N 218.759 1.29093 0.90403 0
M  V30 2161 C 219.999 1.18076 1.66845 0
M  V30 2162 C 220.363 -0.26436 1.90171 0
M  V30 2163 O 221.564 -0.497423 2.64157 0
M  V30 2164 C 219.835 1.96722 2.98388 0
M  V30 2165 S 221.394 2.0219 3.89441 0
M  V30 2166 H 218.212 0.421104 0.572881 0
M  V30 2167 H 220.814 1.63322 1.07453 0
M  V30 2168 H 219.518 3.00866 2.7912 0
M  V30 2169 H 219.049 1.52064 3.62823 0
M  V30 2170 H 221.064 1.13545 4.83034 0
M  V30 2171 N 220.237 -1.11381 1.11499 0
M  V30 2172 C 221.147 -2.21019 0.786628 0
M  V30 2173 C 222.163 -1.72597 -0.220507 0
M  V30 2174 O 223.339 -2.01321 -0.0565251 0
M  V30 2175 C 220.404 -3.459 0.235333 0
M  V30 2176 C 219.465 -4.09107 1.30115 0
M  V30 2177 C 218.698 -5.28027 0.776068 0
M  V30 2178 O 218.921 -5.6904 -0.393661 0
M  V30 2179 O 217.855 -5.81835 1.54114 0
M  V30 2180 H 221.681 -2.51521 1.70209 0
M  V30 2181 H 219.266 -1.19928 0.890928 0
M  V30 2182 H 221.148 -4.21346 -0.067715 0
M  V30 2183 H 219.823 -3.17049 -0.652828 0
M  V30 2184 H 218.73 -3.35391 1.65722 0
M  V30 2185 H 220.063 -4.42139 2.16273 0
M  V30 2186 N 221.715 -0.905404 -1.28997 0
M  V30 2187 C 222.961 -0.535039 -1.95615 0
M  V30 2188 C 223.294 0.917404 -1.71165 0
M  V30 2189 O 222.569 1.65123 -1.02785 0
M  V30 2190 C 222.852 -0.834918 -3.50287 0
M  V30 2191 C 222.705 -2.33948 -3.84172 0
M  V30 2192 C 224.024 -0.325318 -4.38896 0
M  V30 2193 H 221.143 -0.195861 -0.710498 0
M  V30 2194 H 223.785 -1.13313 -1.52513 0
M  V30 2195 H 221.935 -0.325904 -3.87131 0
M  V30 2196 H 223.607 -2.91847 -3.57243 0
M  V30 2197 H 221.85 -2.79789 -3.31513 0
M  V30 2198 H 222.521 -2.49987 -4.92149 0
M  V30 2199 H 224.997 -0.761256 -4.09077 0
M  V30 2200 H 223.873 -0.564295 -5.45992 0
M  V30 2201 H 224.134 0.774144 -4.35269 0
M  V30 2202 N 223.193 1.4272 -0.668489 0
M  V30 2203 C 224.433 2.03497 -0.19194 0
M  V30 2204 C 224.797 1.51684 1.17712 0
M  V30 2205 O 225.998 2.04205 1.74796 0
M  V30 2206 C 224.269 3.56734 -0.218032 0
M  V30 2207 S 225.828 4.38395 0.188438 0
M  V30 2208 H 222.646 0.706542 -0.0794959 0
M  V30 2209 H 225.248 1.74563 -0.880235 0
M  V30 2210 H 223.952 3.91943 -1.2169 0
M  V30 2211 H 223.483 3.90333 0.490303 0
M  V30 2212 H 225.498 4.75345 1.42345 0
M  V30 2213 N 224.671 0.411399 1.52136 0
M  V30 2214 C 225.581 -0.419774 2.30814 0
M  V30 2215 C 226.597 -1.0515 1.38634 0
M  V30 2216 O 227.773 -1.05252 1.71709 0
M  V30 2217 C 224.838 -1.52019 3.11594 0
M  V30 2218 C 223.899 -0.91129 4.19516 0
M  V30 2219 C 223.132 -1.95927 4.96436 0
M  V30 2220 O 223.355 -3.17775 4.73683 0
M  V30 2221 O 222.289 -1.56423 5.81219 0
M  V30 2222 H 226.115 0.221805 3.02889 0
M  V30 2223 H 223.7 0.174547 1.48377 0
M  V30 2224 H 225.582 -2.15898 3.61892 0
M  V30 2225 H 224.257 -2.14633 2.42311 0
M  V30 2226 H 223.164 -0.235157 3.7336 0
M  V30 2227 H 224.497 -0.32904 4.91099 0
M  V30 2228 N 226.149 -1.5696 0.141893 0
M  V30 2229 C 227.079 -2.19516 -0.795936 0
M  V30 2230 C 228.06 -1.14187 -1.26077 0
M  V30 2231 O 229.245 -1.42511 -1.31925 0
M  V30 2232 C 226.375 -2.81272 -2.03723 0
M  V30 2233 C 225.329 -3.92384 -1.70936 0
M  V30 2234 C 224.655 -4.41052 -3.02287 0
M  V30 2235 C 225.955 -5.13403 -0.959954 0
M  V30 2236 H 227.649 -2.98138 -0.274596 0
M  V30 2237 H 225.195 -1.43406 -0.130636 0
M  V30 2238 H 227.148 -3.237 -2.69808 0
M  V30 2239 H 225.872 -1.99973 -2.58221 0
M  V30 2240 H 224.531 -3.50566 -1.07232 0
M  V30 2241 H 224.179 -3.56582 -3.54765 0
M  V30 2242 H 223.879 -5.15993 -2.81114 0
M  V30 2243 H 225.403 -4.86146 -3.69451 0
M  V30 2244 H 226.817 -5.52706 -1.52279 0
M  V30 2245 H 225.214 -5.94073 -0.848357 0
M  V30 2246 H 226.284 -4.84875 0.0492434 0
M  V30 2247 N 227.627 0.131896 -1.57047 0
M  V30 2248 C 228.577 1.1679 -1.95816 0
M  V30 2249 C 229.561 1.37756 -0.831393 0
M  V30 2250 O 230.753 1.39065 -1.09499 0
M  V30 2251 C 227.882 2.49778 -2.35512 0
M  V30 2252 C 226.968 2.32342 -3.54793 0
M  V30 2253 N 227.359 1.8469 -4.70875 0
M  V30 2254 C 225.657 2.63043 -3.60173 0
M  V30 2255 C 226.358 1.80656 -5.52936 0
M  V30 2256 N 225.334 2.24528 -4.95064 0
M  V30 2257 H 229.136 0.791818 -2.83033 0
M  V30 2258 H 226.65 0.339791 -1.58805 0
M  V30 2259 H 228.647 3.24692 -2.61498 0
M  V30 2260 H 227.307 2.88156 -1.49654 0
M  V30 2261 H 228.318 1.54429 -4.9434 0
M  V30 2262 H 224.995 3.05193 -2.84892 0
M  V30 2263 H 226.385 1.45178 -6.56028 0
M  V30 2264 N 229.106 1.52395 0.401703 0
M  V30 2265 C 230.036 1.79231 1.49661 0
M  V30 2266 C 231.017 0.643654 1.57452 0
M  V30 2267 O 232.202 0.889989 1.72606 0
M  V30 2268 C 229.332 1.94971 2.87409 0
M  V30 2269 C 228.286 3.10604 2.94465 0
M  V30 2270 C 227.612 3.11577 4.34538 0
M  V30 2271 C 228.912 4.49921 2.6527 0
M  V30 2272 H 230.606 2.70917 1.27454 0
M  V30 2273 H 228.152 1.30362 0.6117 0
M  V30 2274 H 230.105 2.12328 3.63999 0
M  V30 2275 H 228.829 0.999632 3.10926 0
M  V30 2276 H 227.488 2.93009 2.20321 0
M  V30 2277 H 227.136 2.14277 4.55076 0
M  V30 2278 H 226.836 3.89247 4.40183 0
M  V30 2279 H 228.36 3.31073 5.13053 0
M  V30 2280 H 229.774 4.67683 3.31581 0
M  V30 2281 H 228.171 5.29564 2.82281 0
M  V30 2282 H 229.241 4.57507 1.60671 0
M  V30 2283 N 230.584 -0.659388 1.43143 0
M  V30 2284 C 231.534 -1.7655 1.44271 0
M  V30 2285 C 232.518 -1.57847 0.311961 0
M  V30 2286 O 233.71 -1.68064 0.555306 0
M  V30 2287 C 230.839 -3.15104 1.36251 0
M  V30 2288 C 229.925 -3.39377 2.54331 0
M  V30 2289 N 230.316 -3.34153 3.79704 0
M  V30 2290 C 228.614 -3.70072 2.48922 0
M  V30 2291 C 229.315 -3.58337 4.58225 0
M  V30 2292 N 228.291 -3.79851 3.88863 0
M  V30 2293 H 232.093 -1.70928 2.39083 0
M  V30 2294 H 229.607 -0.860823 1.37708 0
M  V30 2295 H 231.604 -3.94389 1.35141 0
M  V30 2296 H 230.264 -3.21913 0.424531 0
M  V30 2297 H 231.275 -3.13704 4.1208 0
M  V30 2298 H 227.952 -3.84034 1.63781 0
M  V30 2299 H 229.342 -3.60129 5.67236 0
M  V30 2300 N 232.062 -1.29571 -0.897171 0
M  V30 2301 C 233.473 -1.15964 -1.46319 0
M  V30 2302 C 233.824 0.244267 -1.94674 0
M  V30 2303 O 232.949 1.13998 -1.83939 0
M  V30 2304 C 233.544 -2.09906 -2.65942 0
M  V30 2305 C 232.103 -2.00314 -3.18671 0
M  V30 2306 C 231.25 -2.00687 -1.91363 0
M  V30 2307 H 234.201 -1.42019 -0.708268 0
M  V30 2308 H 234.222 -1.67276 -3.41759 0
M  V30 2309 H 233.734 -3.12075 -2.30718 0
M  V30 2310 H 231.835 -1.01242 -3.58582 0
M  V30 2311 H 231.948 -2.88102 -3.82798 0
M  V30 2312 H 230.312 -1.45319 -2.09175 0
M  V30 2313 H 231.095 -3.04566 -1.58413 0
M  V30 2314 N 233.54 1.10788 -1.12088 0
M  V30 2315 C 234.817 1.79136 -0.785476 0
M  V30 2316 C 235.197 1.98246 0.725377 0
M  V30 2317 O 234.545 1.57258 1.65778 0
M  V30 2318 C 234.755 3.12375 -1.55636 0
M  V30 2319 C 236.103 3.8731 -1.74001 0
M  V30 2320 O 237.127 3.22085 -1.52117 0
M  V30 2321 O 235.986 5.04369 -2.10415 0
M  V30 2322 H 233.08 0.776226 -0.285311 0
M  V30 2323 H 235.626 1.1747 -1.2247 0
M  V30 2324 H 234.398 2.93863 -2.5838 0
M  V30 2325 H 234.021 3.81758 -1.11114 0
M  V30 2326 N 235.018 0.912232 1.28515 0
M  V30 2327 C 236.258 0.551677 1.96814 0
M  V30 2328 C 236.622 -0.887825 1.7024 0
M  V30 2329 O 237.823 -1.35588 2.32098 0
M  V30 2330 C 236.094 0.850555 3.47132 0
M  V30 2331 S 237.653 0.59619 4.34731 0
M  V30 2332 H 234.471 0.204191 0.681049 0
M  V30 2333 H 237.073 1.17736 1.56072 0
M  V30 2334 H 235.777 1.8962 3.63968 0
M  V30 2335 H 235.308 0.213471 3.9282 0
M  V30 2336 H 237.323 -0.553154 4.93107 0
M  V30 2337 N 236.496 -1.42363 0.676048 0
M  V30 2338 C 237.742 -2.0182 0.199125 0
M  V30 2339 C 238.075 -1.53339 -1.19168 0
M  V30 2340 O 237.35 -0.736124 -1.80032 0
M  V30 2341 C 237.633 -3.59331 0.235144 0
M  V30 2342 C 237.486 -4.17989 1.66149 0
M  V30 2343 C 238.805 -4.3813 -0.41595 0
M  V30 2344 H 235.924 -0.733293 0.0738311 0
M  V30 2345 H 238.566 -1.69368 0.86107 0
M  V30 2346 H 236.716 -3.87109 -0.328487 0
M  V30 2347 H 238.388 -4.0116 2.27747 0
M  V30 2348 H 236.631 -3.7377 2.20178 0
M  V30 2349 H 237.302 -5.27126 1.63837 0
M  V30 2350 H 239.778 -4.16051 0.0638529 0
M  V30 2351 H 238.654 -5.47717 -0.360115 0
M  V30 2352 H 238.915 -4.16101 -1.49373 0
M  V30 2353 N 237.974 -0.419461 -1.51915 0
M  V30 2354 C 239.385 0.0477853 -1.86639 0
M  V30 2355 C 239.736 1.43531 -1.33766 0
M  V30 2356 O 238.861 2.05401 -0.68113 0
M  V30 2357 C 239.456 0.0934885 -3.38671 0
M  V30 2358 C 238.015 0.505097 -3.72996 0
M  V30 2359 C 237.162 -0.313792 -2.75519 0
M  V30 2360 H 240.113 -0.636088 -1.45395 0
M  V30 2361 H 240.134 0.906667 -3.6954 0
M  V30 2362 H 239.646 -0.916501 -3.77123 0
M  V30 2363 H 237.747 1.52135 -3.40126 0
M  V30 2364 H 237.86 0.242309 -4.78487 0
M  V30 2365 H 236.224 0.225363 -2.53701 0
M  V30 2366 H 237.007 -1.32232 -3.16812 0
M  V30 2367 N 239.452 1.56882 -0.150215 0
M  V30 2368 C 240.699 1.96228 0.500093 0
M  V30 2369 C 241.027 1.03522 1.64661 0
M  V30 2370 O 240.282 0.0650683 1.95592 0
M  V30 2371 C 240.581 3.41801 1.04437 0
M  V30 2372 C 240.247 4.50897 0.0159671 0
M  V30 2373 C 238.909 4.8046 -0.266731 0
M  V30 2374 C 241.261 5.16703 -0.683192 0
M  V30 2375 C 238.589 5.73135 -1.25434 0
M  V30 2376 C 240.941 6.10441 -1.65964 0
M  V30 2377 C 239.605 6.38382 -1.95 0
M  V30 2378 H 238.875 0.718048 0.182997 0
M  V30 2379 H 241.522 1.90019 -0.237724 0
M  V30 2380 H 239.827 3.44857 1.85959 0
M  V30 2381 H 241.524 3.69573 1.55618 0
M  V30 2382 H 238.114 4.27891 0.246485 0
M  V30 2383 H 242.298 4.93993 -0.477983 0
M  V30 2384 H 237.554 5.93074 -1.48571 0
M  V30 2385 H 241.728 6.60507 -2.20689 0
M  V30 2386 H 239.355 7.09996 -2.71679 0
M  V30 2387 N 240.93 -0.123565 1.57115 0
M  V30 2388 C 241.893 -1.13583 1.99076 0
M  V30 2389 C 242.893 -1.34564 0.880296 0
M  V30 2390 O 244.083 -1.31158 1.14644 0
M  V30 2391 C 241.215 -2.49128 2.32698 0
M  V30 2392 H 242.408 -0.775287 2.89706 0
M  V30 2393 H 239.961 -0.36771 1.51913 0
M  V30 2394 H 240.696 -2.90111 1.44934 0
M  V30 2395 H 240.481 -2.35255 3.13684 0
M  V30 2396 H 241.971 -3.2199 2.65918 0
M  V30 2397 N 242.408 -1.52605 -0.393616 0
M  V30 2398 C 243.648 -1.6911 -1.1481 0
M  V30 2399 C 244.012 -0.41969 -1.87357 0
M  V30 2400 O 245.213 -0.461034 -2.64817 0
M  V30 2401 C 243.484 -2.88909 -2.10395 0
M  V30 2402 S 245.043 -3.25977 -2.93742 0
M  V30 2403 H 241.861 -0.595337 -0.38871 0
M  V30 2404 H 244.463 -1.90641 -0.433178 0
M  V30 2405 H 243.167 -3.79672 -1.55812 0
M  V30 2406 H 242.698 -2.69698 -2.86403 0
M  V30 2407 H 244.713 -2.75806 -4.12487 0
M  V30 2408 N 243.887 0.651787 -1.4349 0
M  V30 2409 C 245.112 1.44434 -1.48841 0
M  V30 2410 C 245.537 1.8779 -0.107955 0
M  V30 2411 O 244.895 1.57464 0.898602 0
M  V30 2412 C 244.943 2.65458 -2.44059 0
M  V30 2413 O 244.047 3.64566 -1.92784 0
M  V30 2414 H 243.388 0.433005 -0.503391 0
M  V30 2415 H 245.918 0.797451 -1.88419 0
M  V30 2416 H 245.928 3.13255 -2.6141 0
M  V30 2417 H 244.603 2.33244 -3.4434 0
M  V30 2418 H 243.18 3.23716 -1.851 0
M  V30 2419 N 245.365 1.30045 0.890287 0
M  V30 2420 C 246.642 1.09227 1.62262 0
M  V30 2421 C 247.022 -0.360305 2.08002 0
M  V30 2422 O 246.37 -1.35084 1.84295 0
M  V30 2423 C 246.58 2.08835 2.79623 0
M  V30 2424 C 247.928 2.40266 3.50082 0
M  V30 2425 O 248.952 2.07104 2.89804 0
M  V30 2426 O 247.811 2.96967 4.58773 0
M  V30 2427 H 244.905 0.419132 0.712922 0
M  V30 2428 H 247.451 1.41451 0.937529 0
M  V30 2429 H 246.223 3.06633 2.43089 0
M  V30 2430 H 245.846 1.77397 3.55832 0
M  V30 2431 N 246.843 -1.10192 1.12674 0
M  V30 2432 C 248.083 -1.83825 0.893736 0
M  V30 2433 C 248.447 -1.83341 -0.570082 0
M  V30 2434 O 249.648 -2.52553 -0.920354 0
M  V30 2435 C 247.919 -3.26405 1.45582 0
M  V30 2436 S 249.478 -4.17136 1.36171 0
M  V30 2437 H 246.296 -0.633732 0.322342 0
M  V30 2438 H 248.898 -1.32581 1.43675 0
M  V30 2439 H 247.602 -3.24329 2.51473 0
M  V30 2440 H 247.133 -3.82721 0.910405 0
M  V30 2441 H 249.148 -4.95069 0.334863 0
M  V30 2442 N 248.321 -0.919034 -1.28029 0
M  V30 2443 C 249.737 -0.617972 -1.4715 0
M  V30 2444 C 249.937 0.835242 -1.83374 0
M  V30 2445 O 248.993 1.61388 -1.94191 0
M  V30 2446 C 250.306 -1.56041 -2.57044 0
M  V30 2447 C 251.854 -1.56769 -2.7091 0
M  V30 2448 C 252.329 -2.49688 -3.83953 0
M  V30 2449 N 253.82 -2.47845 -3.91314 0
M  V30 2450 C 254.555 -3.16437 -4.78179 0
M  V30 2451 N 254.051 -3.94376 -5.69596 0
M  V30 2452 N 255.844 -3.05498 -4.71834 0
M  V30 2453 H 247.995 -1.85866 -1.02798 0
M  V30 2454 H 250.258 -0.797506 -0.512531 0
M  V30 2455 H 249.964 -2.59671 -2.372 0
M  V30 2456 H 249.838 -1.29551 -3.54255 0
M  V30 2457 H 252.225 -0.538745 -2.90141 0
M  V30 2458 H 252.306 -1.87305 -1.74214 0
M  V30 2459 H 251.95 -3.52688 -3.65477 0
M  V30 2460 H 251.88 -2.16453 -4.80058 0
M  V30 2461 H 254.371 -1.91234 -3.25941 0
M  V30 2462 H 254.684 -4.43721 -6.32718 0
M  V30 2463 H 253.029 -3.98481 -5.69419 0
M  V30 2464 H 256.22 -2.44108 -3.99411 0
M  V30 2465 H 256.393 -3.59225 -5.39316 0
M  V30 2466 N 249.799 1.42003 -0.683588 0
M  V30 2467 C 250.731 2.29183 0.0283068 0
M  V30 2468 C 251.744 1.4415 0.756611 0
M  V30 2469 O 252.933 1.67779 0.609306 0
M  V30 2470 C 250.033 3.21765 1.06398 0
M  V30 2471 C 249.206 4.35496 0.407723 0
M  V30 2472 C 248.265 5.08737 1.34437 0
M  V30 2473 O 247.291 5.62948 0.841318 0
M  V30 2474 N 248.493 5.15075 2.67728 0
M  V30 2475 H 251.258 2.9092 -0.720105 0
M  V30 2476 H 248.819 1.53025 -0.528682 0
M  V30 2477 H 250.811 3.6763 1.69204 0
M  V30 2478 H 249.381 2.61418 1.71404 0
M  V30 2479 H 248.601 3.92165 -0.400012 0
M  V30 2480 H 249.889 5.08776 -0.0490956 0
M  V30 2481 H 249.287 4.72457 3.11129 0
M  V30 2482 H 247.844 5.64556 3.2576 0
M  V30 2483 N 251.277 0.427512 1.51691 0
M  V30 2484 C 252.517 -0.141524 2.03909 0
M  V30 2485 C 252.881 -1.40811 1.30523 0
M  V30 2486 O 254.082 -2.05676 1.73063 0
M  V30 2487 C 252.353 -0.364962 3.55532 0
M  V30 2488 S 253.912 -0.898812 4.29496 0
M  V30 2489 H 250.73 -0.0364542 0.710065 0
M  V30 2490 H 253.332 0.584659 1.86553 0
M  V30 2491 H 252.036 0.56336 4.06515 0
M  V30 2492 H 251.567 -1.1185 3.77164 0
M  V30 2493 H 253.582 -2.17747 4.45871 0
M  V30 2494 N 252.755 -1.56801 0.158532 0
M  V30 2495 C 253.705 -2.13923 -0.788738 0
M  V30 2496 C 254.689 -1.07006 -1.2016 0
M  V30 2497 O 255.881 -1.33159 -1.1661 0
M  V30 2498 C 253.01 -2.77348 -2.02319 0
M  V30 2499 C 252.096 -3.91404 -1.6329 0
M  V30 2500 N 252.487 -4.9677 -0.951463 0
M  V30 2501 C 250.785 -4.02326 -1.92482 0
M  V30 2502 C 251.486 -5.76698 -0.761221 0
M  V30 2503 N 250.462 -5.27859 -1.29869 0
M  V30 2504 H 254.264 -2.92757 -0.258995 0
M  V30 2505 H 251.778 -1.62344 -0.0426055 0
M  V30 2506 H 253.775 -3.16639 -2.71192 0
M  V30 2507 H 252.435 -1.99991 -2.558 0
M  V30 2508 H 253.446 -5.14284 -0.610928 0
M  V30 2509 H 250.123 -3.36059 -2.47732 0
M  V30 2510 H 251.513 -6.71529 -0.223284 0
M  V30 2511 N 254.233 0.115231 -1.57178 0
M  V30 2512 C 255.165 1.16694 -1.97269 0
M  V30 2513 C 256.178 1.37445 -0.872502 0
M  V30 2514 O 257.367 1.36454 -1.15077 0
M  V30 2515 C 254.467 2.52627 -2.25905 0
M  V30 2516 C 253.64 2.52427 -3.57211 0
M  V30 2517 C 252.699 3.70134 -3.74016 0
M  V30 2518 O 251.725 3.53546 -4.46087 0
M  V30 2519 N 252.927 4.88844 -3.13068 0
M  V30 2520 H 255.692 0.82588 -2.88096 0
M  V30 2521 H 253.253 0.304461 -1.59011 0
M  V30 2522 H 255.245 3.29937 -2.34359 0
M  V30 2523 H 253.815 2.789 -1.41186 0
M  V30 2524 H 253.035 1.60805 -3.5991 0
M  V30 2525 H 254.323 2.49353 -4.43509 0
M  V30 2526 H 253.721 5.05225 -2.54489 0
M  V30 2527 H 252.278 5.63817 -3.27037 0
M  V30 2528 N 255.711 1.52812 0.385517 0
M  V30 2529 C 256.988 1.5861 1.14465 0
M  V30 2530 C 257.368 0.381402 2.07626 0
M  V30 2531 O 256.716 -0.629999 2.19643 0
M  V30 2532 C 256.926 2.92664 1.90128 0
M  V30 2533 C 258.274 3.46526 2.45367 0
M  V30 2534 O 259.298 2.94562 2.0028 0
M  V30 2535 O 258.157 4.37323 3.27736 0
M  V30 2536 H 255.251 0.639855 0.523941 0
M  V30 2537 H 257.797 1.65149 0.390389 0
M  V30 2538 H 256.569 3.71788 1.22022 0
M  V30 2539 H 256.192 2.89527 2.72507 0
M  V30 2540 N 257.189 -0.644168 1.43834 0
M  V30 2541 C 258.437 -1.40117 1.45642 0
M  V30 2542 C 258.758 -1.94814 0.0852413 0
M  V30 2543 O 258.028 -1.74988 -0.880688 0
M  V30 2544 H 256.608 -0.52005 0.536243 0
M  V30 2545 H 259.27 -0.7591 1.7951 0
M  V30 2546 H 258.366 -2.23902 2.17427 0
M  V30 2547 N 258.668 -1.30515 -0.883378 0
M  V30 2548 C 259.618 -1.13641 -1.9766 0
M  V30 2549 C 260.602 -0.0511314 -1.60819 0
M  V30 2550 O 261.794 -0.274623 -1.74857 0
M  V30 2551 C 258.923 -0.831976 -3.33066 0
M  V30 2552 C 258.009 -1.95759 -3.76217 0
M  V30 2553 N 258.4 -3.20313 -3.9145 0
M  V30 2554 C 256.698 -1.85431 -4.05625 0
M  V30 2555 C 257.399 -3.93856 -4.2808 0
M  V30 2556 N 256.375 -3.21919 -4.38029 0
M  V30 2557 H 260.177 -2.08106 -2.07531 0
M  V30 2558 H 257.691 -1.21877 -1.0733 0
M  V30 2559 H 259.688 -0.692102 -4.11115 0
M  V30 2560 H 258.348 0.104588 -3.24532 0
M  V30 2561 H 259.359 -3.55583 -3.76538 0
M  V30 2562 H 256.036 -0.991531 -4.05555 0
M  V30 2563 H 257.426 -5.01125 -4.47575 0
M  V30 2564 N 260.146 1.09593 -1.13257 0
M  V30 2565 C 261.078 2.16015 -0.766167 0
M  V30 2566 C 262.091 1.61423 0.211303 0
M  V30 2567 O 263.28 1.78498 -0.00863946 0
M  V30 2568 C 260.38 3.38706 -0.114662 0
M  V30 2569 C 259.553 4.22717 -1.12379 0
M  V30 2570 C 258.612 5.23835 -0.498301 0
M  V30 2571 O 257.638 5.573 -1.15781 0
M  V30 2572 N 258.84 5.75886 0.730417 0
M  V30 2573 H 261.605 2.48055 -1.68193 0
M  V30 2574 H 259.166 1.25292 -1.02535 0
M  V30 2575 H 261.158 4.03464 0.315991 0
M  V30 2576 H 259.728 3.04569 0.704011 0
M  V30 2577 H 258.948 3.54122 -1.73179 0
M  V30 2578 H 260.236 4.75673 -1.80589 0
M  V30 2579 H 259.634 5.50911 1.28504 0
M  V30 2580 H 258.191 6.42387 1.10376 0
M  V30 2581 N 261.624 0.925811 1.2754 0
M  V30 2582 C 262.901 0.483726 1.89524 0
M  V30 2583 C 263.281 -1.03809 1.83812 0
M  V30 2584 O 262.629 -1.89143 1.28207 0
M  V30 2585 C 262.839 1.02769 3.33526 0
M  V30 2586 C 264.187 1.08703 4.10449 0
M  V30 2587 O 265.211 0.977175 3.42534 0
M  V30 2588 O 264.07 1.25599 5.31871 0
M  V30 2589 H 261.164 0.15529 0.812289 0
M  V30 2590 H 263.71 1.01738 1.35822 0
M  V30 2591 H 262.482 2.07155 3.31967 0
M  V30 2592 H 262.105 0.475567 3.94746 0
M  V30 2593 N 263.102 -1.41638 0.69111 0
M  V30 2594 C 264.052 -2.28 -0.000107832 0
M  V30 2595 C 265.036 -1.41964 -0.757304 0
M  V30 2596 O 266.228 -1.65274 -0.633532 0
M  V30 2597 C 263.357 -3.30209 -0.938983 0
M  V30 2598 C 262.443 -4.23725 -0.17827 0
M  V30 2599 N 262.834 -4.99017 0.825563 0
M  V30 2600 C 261.132 -4.44071 -0.414392 0
M  V30 2601 C 261.833 -5.67431 1.28052 0
M  V30 2602 N 260.809 -5.40197 0.607304 0
M  V30 2603 H 264.611 -2.83644 0.769617 0
M  V30 2604 H 262.125 -1.53797 0.521562 0
M  V30 2605 H 264.122 -3.90898 -1.44929 0
M  V30 2606 H 262.782 -2.76126 -1.70836 0
M  V30 2607 H 263.793 -5.03671 1.20566 0
M  V30 2608 H 260.47 -4.01004 -1.162 0
M  V30 2609 H 261.86 -6.37801 2.11327 0
M  V30 2610 N 264.58 -0.43555 -1.51462 0
M  V30 2611 C 265.857 0.191364 -1.94662 0
M  V30 2612 C 266.237 1.60254 -1.37411 0
M  V30 2613 O 265.585 2.2152 -0.560458 0
M  V30 2614 C 265.795 0.17091 -3.48581 0
M  V30 2615 C 267.143 0.377357 -4.2292 0
M  V30 2616 O 268.167 0.249104 -3.55328 0
M  V30 2617 O 267.026 0.63247 -5.42828 0
M  V30 2618 H 264.12 0.130932 -0.816569 0
M  V30 2619 H 266.666 -0.4934 -1.62369 0
M  V30 2620 H 265.438 -0.815738 -3.82703 0
M  V30 2621 H 265.061 0.898659 -3.87311 0
M  V30 2622 N 266.058 1.56714 -0.166846 0
M  V30 2623 C 267.286 2.0112 0.485644 0
M  V30 2624 C 267.701 1.04705 1.57106 0
M  V30 2625 O 267.058 0.0471923 1.82439 0
M  V30 2626 C 267.109 3.45361 1.06808 0
M  V30 2627 O 266.83 4.38092 0.0259995 0
M  V30 2628 C 268.331 4.05145 1.79924 0
M  V30 2629 H 265.551 0.65931 0.124704 0
M  V30 2630 H 268.095 2.02746 -0.267262 0
M  V30 2631 H 266.25 3.44524 1.7715 0
M  V30 2632 H 266.664 5.22519 0.455398 0
M  V30 2633 H 268.138 5.08009 2.15942 0
M  V30 2634 H 268.615 3.46982 2.69258 0
M  V30 2635 H 269.221 4.09672 1.14234 0
M  V30 2636 N 267.536 -0.106894 1.57237 0
M  V30 2637 C 268.486 -1.1366 1.9765 0
M  V30 2638 C 269.47 -1.36416 0.853203 0
M  V30 2639 O 270.662 -1.37305 1.11697 0
M  V30 2640 C 267.791 -2.46 2.39455 0
M  V30 2641 C 266.877 -2.26668 3.58445 0
M  V30 2642 N 267.268 -1.77176 4.73754 0
M  V30 2643 C 265.566 -2.57279 3.64312 0
M  V30 2644 C 266.267 -1.71836 5.5574 0
M  V30 2645 N 265.243 -2.16623 4.98573 0
M  V30 2646 H 269.045 -0.74669 2.84256 0
M  V30 2647 H 266.559 -0.314483 1.59326 0
M  V30 2648 H 268.556 -3.2049 2.6663 0
M  V30 2649 H 267.216 -2.85738 1.54219 0
M  V30 2650 H 268.227 -1.46545 4.96734 0
M  V30 2651 H 264.904 -3.00622 2.89711 0
M  V30 2652 H 266.294 -1.34723 6.58255 0
M  V30 2653 N 269.014 -1.53014 -0.377408 0
M  V30 2654 C 269.964 -1.74996 -1.46152 0
M  V30 2655 C 270.948 -0.604236 -1.49123 0
M  V30 2656 O 272.14 -0.862489 -1.54564 0
M  V30 2657 C 269.269 -1.93267 -2.8373 0
M  V30 2658 C 268.355 -3.13807 -2.85283 0
M  V30 2659 N 268.746 -4.35941 -2.56493 0
M  V30 2660 C 267.044 -3.14288 -3.16448 0
M  V30 2661 C 267.745 -5.17615 -2.65424 0
M  V30 2662 N 266.721 -4.53559 -2.99641 0
M  V30 2663 H 270.523 -2.67044 -1.22738 0
M  V30 2664 H 268.037 -1.51479 -0.585479 0
M  V30 2665 H 270.034 -2.0714 -3.61799 0
M  V30 2666 H 268.694 -1.0244 -3.08117 0
M  V30 2667 H 269.705 -4.63876 -2.30302 0
M  V30 2668 H 266.382 -2.33312 -3.46225 0
M  V30 2669 H 267.772 -6.25006 -2.46612 0
M  V30 2670 N 270.492 0.636531 -1.44174 0
M  V30 2671 C 271.442 1.74233 -1.47061 0
M  V30 2672 C 272.426 1.57331 -0.337034 0
M  V30 2673 O 273.618 1.67159 -0.581973 0
M  V30 2674 C 270.747 3.12897 -1.41246 0
M  V30 2675 C 269.833 3.35288 -2.59698 0
M  V30 2676 N 270.224 3.2807 -3.84972 0
M  V30 2677 C 268.522 3.66065 -2.54778 0
M  V30 2678 C 269.223 3.51001 -4.63867 0
M  V30 2679 N 268.199 3.73616 -3.94857 0
M  V30 2680 H 272.001 1.67103 -2.41773 0
M  V30 2681 H 269.515 0.838806 -1.3906 0
M  V30 2682 H 271.512 3.92189 -1.41398 0
M  V30 2683 H 270.172 3.21197 -0.47569 0
M  V30 2684 H 271.183 3.07109 -4.17019 0
M  V30 2685 H 267.86 3.81379 -1.6987 0
M  V30 2686 H 269.25 3.51059 -5.72894 0
M  V30 2687 N 271.97 1.30982 0.876444 0
M  V30 2688 C 272.92 1.14688 1.97055 0
M  V30 2689 C 273.904 0.0596593 1.60789 0
M  V30 2690 O 275.096 0.283892 1.74708 0
M  V30 2691 C 272.225 0.849627 3.3262 0
M  V30 2692 C 271.311 1.97752 3.75173 0
M  V30 2693 N 271.702 3.22384 3.89746 0
M  V30 2694 C 270 1.8758 4.04635 0
M  V30 2695 C 270.701 3.96121 4.25985 0
M  V30 2696 N 269.677 3.24237 4.36315 0
M  V30 2697 H 273.479 2.09204 2.06424 0
M  V30 2698 H 270.993 1.22445 1.06682 0
M  V30 2699 H 272.99 0.713895 4.10742 0
M  V30 2700 H 271.65 -0.087376 3.24582 0
M  V30 2701 H 272.661 3.57575 3.74647 0
M  V30 2702 H 269.338 1.01303 4.05024 0
M  V30 2703 H 270.728 5.03491 4.44911 0
M  V30 2704 N 273.449 -1.08991 1.13837 0
M  V30 2705 C 274.695 -1.81699 0.91417 0
M  V30 2706 C 275.05 -1.84264 -0.553594 0
M  V30 2707 O 274.343 -1.30313 -1.4046 0
M  V30 2708 C 274.537 -3.27042 1.44147 0
M  V30 2709 C 274.366 -3.38637 2.95897 0
M  V30 2710 C 273.136 -3.50177 3.64286 0
M  V30 2711 C 275.334 -3.30791 3.93804 0
M  V30 2712 N 273.316 -3.50501 5.04006 0
M  V30 2713 C 274.687 -3.38037 5.19741 0
M  V30 2714 C 276.742 -3.14488 3.86007 0
M  V30 2715 C 275.445 -3.30659 6.38793 0
M  V30 2716 C 277.471 -3.08438 5.04599 0
M  V30 2717 C 276.833 -3.1628 6.29402 0
M  V30 2718 H 272.932 -0.678967 0.387979 0
M  V30 2719 H 275.516 -1.30224 1.4474 0
M  V30 2720 H 273.687 -3.76976 0.935091 0
M  V30 2721 H 275.419 -3.87785 1.1578 0
M  V30 2722 H 272.174 -3.53815 3.1482 0
M  V30 2723 H 272.598 -3.54236 5.76928 0
M  V30 2724 H 277.24 -3.07291 2.90399 0
M  V30 2725 H 274.958 -3.36618 7.34652 0
M  V30 2726 H 278.544 -2.96952 5.0031 0
M  V30 2727 H 277.424 -3.1162 7.19627 0
M  V30 2728 N 274.927 -0.932562 -1.27047 0
M  V30 2729 C 276.343 -0.633544 -1.46487 0
M  V30 2730 C 276.543 0.815746 -1.84249 0
M  V30 2731 O 275.599 1.59319 -1.95892 0
M  V30 2732 C 276.912 -1.58758 -2.55375 0
M  V30 2733 C 278.46 -1.59634 -2.69232 0
M  V30 2734 C 278.935 -2.53747 -3.81283 0
M  V30 2735 N 280.426 -2.51982 -3.88664 0
M  V30 2736 C 281.161 -3.21491 -4.74796 0
M  V30 2737 N 280.657 -4.00395 -5.65381 0
M  V30 2738 N 282.45 -3.10485 -4.68568 0
M  V30 2739 H 274.601 -1.86946 -1.00821 0
M  V30 2740 H 276.864 -0.802897 -0.504044 0
M  V30 2741 H 276.57 -2.62172 -2.34432 0
M  V30 2742 H 276.444 -1.33301 -3.52861 0
M  V30 2743 H 278.831 -0.569488 -2.89553 0
M  V30 2744 H 278.912 -1.89142 -1.72218 0
M  V30 2745 H 278.556 -3.56545 -3.61715 0
M  V30 2746 H 278.486 -2.21532 -4.77735 0
M  V30 2747 H 280.977 -1.94681 -3.23895 0
M  V30 2748 H 281.29 -4.50406 -6.27976 0
M  V30 2749 H 279.635 -4.04498 -5.65161 0
M  V30 2750 H 282.826 -2.48331 -3.96799 0
M  V30 2751 H 282.999 -3.64925 -5.35475 0
M  V30 2752 N 276.405 1.4127 -0.698611 0
M  V30 2753 C 277.315 2.34573 -0.0357891 0
M  V30 2754 C 278.331 1.56393 0.762701 0
M  V30 2755 O 279.507 1.8886 0.699564 0
M  V30 2756 C 276.572 3.35159 0.887089 0
M  V30 2757 C 275.633 4.29225 0.0804634 0
M  V30 2758 C 274.866 5.25006 0.959387 0
M  V30 2759 O 275.089 5.26314 2.19886 0
M  V30 2760 O 274.023 6.00519 0.407439 0
M  V30 2761 H 277.849 2.92838 -0.804957 0
M  V30 2762 H 275.434 1.42175 -0.458966 0
M  V30 2763 H 277.316 3.9689 1.41621 0
M  V30 2764 H 275.991 2.79333 1.6357 0
M  V30 2765 H 274.898 3.70833 -0.493328 0
M  V30 2766 H 276.231 4.88157 -0.629547 0
M  V30 2767 N 277.883 0.443576 1.51229 0
M  V30 2768 C 279.131 -0.120557 2.0174 0
M  V30 2769 C 279.452 -1.42665 1.32935 0
M  V30 2770 O 278.722 -1.9028 0.465866 0
M  V30 2771 H 277.302 -0.0475426 0.745486 0
M  V30 2772 H 279.964 0.587711 1.85828 0
M  V30 2773 H 279.06 -0.291972 3.10731 0
M  V30 2774 N 279.361 -1.56624 0.175154 0
M  V30 2775 C 280.309 -2.19468 -0.770495 0
M  V30 2776 C 281.303 -1.15985 -1.23466 0
M  V30 2777 O 282.509 -1.34176 -1.19987 0
M  V30 2778 H 278.884 -0.703095 -0.266761 0
M  V30 2779 H 280.855 -2.97613 -0.216542 0
M  V30 2780 C 279.604 -2.85264 -1.98796 0
M  V30 2781 H 278.927 -3.64623 -1.63983 0
M  V30 2782 H 280.367 -3.327 -2.62843 0
M  V30 2783 C 278.826 -1.85239 -2.81404 0
M  V30 2784 O 279.356 -1.34024 -3.78682 0
M  V30 2785 N 277.562 -1.53911 -2.46495 0
M  V30 2786 H 277.109 -1.95751 -1.67449 0
M  V30 2787 H 277.067 -0.872382 -3.02054 0
M  V30 2788 N 280.839 0.0985539 -1.57292 0
M  V30 2789 C 281.769 1.12064 -2.04851 0
M  V30 2790 C 282.75 1.41981 -0.936767 0
M  V30 2791 O 283.935 1.52071 -1.20781 0
M  V30 2792 C 281.065 2.44144 -2.47004 0
M  V30 2793 C 280.019 2.28643 -3.6181 0
M  V30 2794 C 279.345 3.65869 -3.89929 0
M  V30 2795 C 280.645 1.72986 -4.92822 0
M  V30 2796 H 282.339 0.724979 -2.9049 0
M  V30 2797 H 279.885 0.34729 -1.39749 0
M  V30 2798 H 281.838 3.15914 -2.78884 0
M  V30 2799 H 280.562 2.85639 -1.5836 0
M  V30 2800 H 279.221 1.59318 -3.30172 0
M  V30 2801 H 278.869 4.04885 -2.98458 0
M  V30 2802 H 278.569 3.56344 -4.67218 0
M  V30 2803 H 280.093 4.39112 -4.2428 0
M  V30 2804 H 281.507 2.34593 -5.23105 0
M  V30 2805 H 279.904 1.74229 -5.74251 0
M  V30 2806 H 280.974 0.689007 -4.7998 0
M  V30 2807 N 282.317 1.53212 0.369288 0
M  V30 2808 C 283.728 1.60943 0.946276 0
M  V30 2809 C 284.079 0.47452 1.90375 0
M  V30 2810 O 283.204 -0.399597 2.12679 0
M  V30 2811 C 283.799 2.91715 1.72302 0
M  V30 2812 C 282.358 3.01792 2.24941 0
M  V30 2813 C 281.505 2.56211 1.06072 0
M  V30 2814 H 284.456 1.58007 0.148198 0
M  V30 2815 H 284.477 2.79309 2.58393 0
M  V30 2816 H 283.989 3.74295 1.0259 0
M  V30 2817 H 282.09 2.23791 2.97906 0
M  V30 2818 H 282.203 4.06803 2.53077 0
M  V30 2819 H 280.567 2.10998 1.4266 0
M  V30 2820 H 281.35 3.41206 0.378639 0
M  V30 2821 N 283.795 -0.628877 1.44509 0
M  V30 2822 C 285.02 -1.42048 1.5112 0
M  V30 2823 C 285.445 -1.87594 0.137818 0
M  V30 2824 O 284.803 -1.58873 -0.873437 0
M  V30 2825 C 284.851 -2.61541 2.48251 0
M  V30 2826 O 283.955 -3.61453 1.98559 0
M  V30 2827 H 283.296 -0.424942 0.510216 0
M  V30 2828 H 285.826 -0.767374 1.89664 0
M  V30 2829 H 285.836 -3.09057 2.66361 0
M  V30 2830 H 284.511 -2.27736 3.48007 0
M  V30 2831 H 283.088 -3.20731 1.90227 0
M  V30 2832 N 285.273 -1.31445 -0.869486 0
M  V30 2833 C 286.521 -1.20918 -1.61936 0
M  V30 2834 C 286.842 0.232683 -1.93607 0
M  V30 2835 O 286.112 1.15352 -1.58338 0
M  V30 2836 H 284.692 -0.44454 -0.600328 0
M  V30 2837 H 287.354 -1.64776 -1.0409 0
M  V30 2838 H 286.45 -1.78124 -2.56278 0
M  V30 2839 N 286.751 1.08385 -1.14413 0
M  V30 2840 C 287.714 2.13486 -0.834048 0
M  V30 2841 C 288.714 1.59988 0.161418 0
M  V30 2842 O 289.904 1.74071 -0.0669575 0
M  V30 2843 C 287.036 3.4003 -0.243354 0
M  V30 2844 H 288.229 2.42425 -1.7655 0
M  V30 2845 H 285.782 1.24101 -0.950189 0
M  V30 2846 H 286.517 3.16726 0.696807 0
M  V30 2847 H 286.302 3.80157 -0.960367 0
M  V30 2848 H 287.792 4.17577 -0.0436242 0
M  V30 2849 N 288.23 0.939286 1.26551 0
M  V30 2850 C 289.646 0.641304 1.46149 0
M  V30 2851 C 289.846 -0.805964 1.84679 0
M  V30 2852 O 288.902 -1.58278 1.96734 0
M  V30 2853 C 290.215 1.6011 2.54529 0
M  V30 2854 C 291.763 1.6106 2.68382 0
M  V30 2855 C 292.238 2.55765 3.79932 0
M  V30 2856 N 293.729 2.5404 3.87322 0
M  V30 2857 C 294.464 3.24004 4.73085 0
M  V30 2858 N 293.96 4.03388 5.63249 0
M  V30 2859 N 295.753 3.12965 4.66914 0
M  V30 2860 H 287.904 1.87478 0.998285 0
M  V30 2861 H 290.167 0.805559 0.499779 0
M  V30 2862 H 289.873 2.63412 2.33039 0
M  V30 2863 H 289.747 1.35171 3.52149 0
M  V30 2864 H 292.134 0.584835 2.89247 0
M  V30 2865 H 292.215 1.90053 1.71212 0
M  V30 2866 H 291.859 3.58458 3.5982 0
M  V30 2867 H 291.789 2.24063 4.76554 0
M  V30 2868 H 294.28 1.96396 3.22858 0
M  V30 2869 H 294.593 4.5373 6.25579 0
M  V30 2870 H 292.938 4.07489 5.63008 0
M  V30 2871 H 296.129 2.50432 3.95476 0
M  V30 2872 H 296.302 3.67759 5.33533 0
M  V30 2873 N 289.708 -1.40897 0.706093 0
M  V30 2874 C 290.948 -2.02916 0.245827 0
M  V30 2875 C 291.312 -1.54751 -1.13649 0
M  V30 2876 O 292.513 -2.08768 -1.69321 0
M  V30 2877 C 290.784 -3.56031 0.312537 0
M  V30 2878 S 292.343 -4.38741 -0.0721388 0
M  V30 2879 H 289.161 -0.704186 0.0982007 0
M  V30 2880 H 291.763 -1.72168 0.926207 0
M  V30 2881 H 290.467 -3.88579 1.32039 0
M  V30 2882 H 289.998 -3.91495 -0.386641 0
M  V30 2883 H 292.013 -4.78952 -1.29692 0
M  V30 2884 N 291.186 -0.45159 -1.50991 0
M  V30 2885 C 292.096 0.358431 -2.31846 0
M  V30 2886 C 293.112 1.01438 -1.41373 0
M  V30 2887 O 294.288 1.00663 -1.74439 0
M  V30 2888 C 291.353 1.43704 -3.15515 0
M  V30 2889 C 290.414 0.799742 -4.21785 0
M  V30 2890 C 289.647 1.82696 -5.01456 0
M  V30 2891 O 289.87 3.05105 -4.81941 0
M  V30 2892 O 288.804 1.40958 -5.85162 0
M  V30 2893 H 292.63 -0.302032 -3.02194 0
M  V30 2894 H 290.215 -0.213825 -1.47862 0
M  V30 2895 H 292.097 2.06227 -3.67489 0
M  V30 2896 H 290.772 2.08133 -2.47916 0
M  V30 2897 H 289.679 0.136084 -3.73852 0
M  V30 2898 H 291.012 0.198718 -4.91799 0
M  V30 2899 N 292.664 1.56529 -0.183458 0
M  V30 2900 C 293.91 1.97537 0.459036 0
M  V30 2901 C 294.243 1.06989 1.62071 0
M  V30 2902 O 293.518 0.11948 1.94133 0
M  V30 2903 C 293.801 3.47874 0.930368 0
M  V30 2904 C 293.654 4.492 -0.232317 0
M  V30 2905 C 294.973 4.01612 1.79989 0
M  V30 2906 H 292.092 0.718204 0.165383 0
M  V30 2907 H 294.734 1.88042 -0.272038 0
M  V30 2908 H 292.884 3.56095 1.55333 0
M  V30 2909 H 294.556 4.53027 -0.86972 0
M  V30 2910 H 292.799 4.24657 -0.885928 0
M  V30 2911 H 293.47 5.51823 0.139796 0
M  V30 2912 H 295.946 3.96097 1.27461 0
M  V30 2913 H 294.822 5.07195 2.09867 0
M  V30 2914 H 295.083 3.46163 2.74998 0
M  V30 2915 N 294.142 -0.090211 1.57342 0
M  V30 2916 C 295.382 -0.798365 1.88163 0
M  V30 2917 C 295.746 -1.75662 0.775046 0
M  V30 2918 O 296.947 -2.50849 0.965816 0
M  V30 2919 C 295.218 -1.50376 3.24225 0
M  V30 2920 S 296.777 -2.24952 3.76752 0
M  V30 2921 H 293.595 -0.265883 0.659414 0
M  V30 2922 H 296.197 -0.055264 1.95422 0
M  V30 2923 H 294.901 -0.792286 4.0268 0
M  V30 2924 H 294.432 -2.28666 3.20118 0
M  V30 2925 H 296.447 -3.51173 3.5056 0
M  V30 2926 N 295.62 -1.53406 -0.361157 0
M  V30 2927 C 297.036 -1.43277 -0.703124 0
M  V30 2928 C 297.236 -0.575384 -1.9311 0
M  V30 2929 O 296.292 -0.0595362 -2.5243 0
M  V30 2930 C 297.605 -2.8653 -0.9122 0
M  V30 2931 C 299.153 -2.96191 -1.01193 0
M  V30 2932 C 299.628 -4.40514 -1.25345 0
M  V30 2933 N 301.119 -4.43962 -1.32105 0
M  V30 2934 C 301.854 -5.52746 -1.5251 0
M  V30 2935 N 301.35 -6.71567 -1.70203 0
M  V30 2936 N 303.143 -5.40331 -1.54916 0
M  V30 2937 H 295.294 -2.07654 0.446475 0
M  V30 2938 H 297.557 -0.937944 0.137715 0
M  V30 2939 H 297.263 -3.51605 -0.0816414 0
M  V30 2940 H 297.137 -3.30441 -1.81903 0
M  V30 2941 H 299.524 -2.31266 -1.83303 0
M  V30 2942 H 299.605 -2.55667 -0.0823929 0
M  V30 2943 H 299.249 -5.06014 -0.437346 0
M  V30 2944 H 299.179 -4.78614 -2.19627 0
M  V30 2945 H 301.67 -3.58332 -1.20028 0
M  V30 2946 H 301.983 -7.50241 -1.85359 0
M  V30 2947 H 300.328 -6.74545 -1.67373 0
M  V30 2948 H 303.519 -4.46465 -1.40663 0
M  V30 2949 H 303.692 -6.25173 -1.70477 0
M  V30 2950 N 297.098 0.621204 -1.44841 0
M  V30 2951 C 298.045 1.73267 -1.5247 0
M  V30 2952 C 299.015 1.6189 -0.371611 0
M  V30 2953 O 300.2 1.81668 -0.58321 0
M  V30 2954 C 297.34 3.11545 -1.48438 0
M  V30 2955 C 296.453 3.33827 -2.74196 0
M  V30 2956 C 295.588 4.62133 -2.61929 0
M  V30 2957 C 294.627 4.77627 -3.82804 0
M  V30 2958 N 293.764 5.97219 -3.69153 0
M  V30 2959 H 298.604 1.66082 -2.47428 0
M  V30 2960 H 296.141 0.810026 -1.22788 0
M  V30 2961 H 298.099 3.91528 -1.4409 0
M  V30 2962 H 296.729 3.1772 -0.570402 0
M  V30 2963 H 295.781 2.47715 -2.88689 0
M  V30 2964 H 297.093 3.41153 -3.6389 0
M  V30 2965 H 296.247 5.50291 -2.5547 0
M  V30 2966 H 294.986 4.57182 -1.69811 0
M  V30 2967 H 293.991 3.87896 -3.89637 0
M  V30 2968 H 295.216 4.84385 -4.75971 0
M  V30 2969 H 293.162 5.93339 -2.79794 0
M  V30 2970 H 293.079 6.05644 -4.52472 0
M  V30 2971 H 294.347 6.87912 -3.66603 0
M  V30 2972 N 298.576 1.31904 0.862503 0
M  V30 2973 C 299.804 1.24998 1.64873 0
M  V30 2974 C 300.219 -0.183425 1.87907 0
M  V30 2975 O 299.576 -1.11794 1.44251 0
M  V30 2976 C 299.627 1.99829 3.01248 0
M  V30 2977 O 299.348 3.37575 2.79239 0
M  V30 2978 C 300.849 1.99852 3.95694 0
M  V30 2979 H 298.069 0.431599 0.513773 0
M  V30 2980 H 300.613 1.73901 1.07604 0
M  V30 2981 H 298.768 1.54668 3.55185 0
M  V30 2982 H 299.182 3.75776 3.65914 0
M  V30 2983 H 300.656 2.56709 4.88676 0
M  V30 2984 H 301.133 0.982852 4.28062 0
M  V30 2985 H 301.739 2.44926 3.47694 0
M  V30 2986 N 300.054 -1.07777 1.14986 0
M  V30 2987 C 301.294 -1.81888 0.932527 0
M  V30 2988 C 301.658 -1.84509 -0.531064 0
M  V30 2989 O 302.859 -2.54448 -0.866577 0
M  V30 2990 C 301.13 -3.23244 1.52473 0
M  V30 2991 S 302.689 -4.14154 1.44989 0
M  V30 2992 H 299.507 -0.626752 0.335712 0
M  V30 2993 H 302.109 -1.29503 1.46455 0
M  V30 2994 H 300.813 -3.18922 2.58296 0
M  V30 2995 H 300.344 -3.80704 0.991381 0
M  V30 2996 H 302.359 -4.94247 0.439799 0
M  V30 2997 N 301.532 -0.945985 -1.26051 0
M  V30 2998 C 302.78 -0.594941 -1.93145 0
M  V30 2999 C 303.101 0.86953 -1.7454 0
M  V30 3000 O 302.371 1.61838 -1.10387 0
M  V30 3001 H 300.951 -0.217044 -0.714773 0
M  V30 3002 H 303.613 -1.20235 -1.53393 0
M  V30 3003 H 302.709 -0.816835 -3.01221 0
M  V30 3004 N 303.011 1.40521 -0.713556 0
M  V30 3005 C 304.236 2.05759 -0.26035 0
M  V30 3006 C 304.661 1.53403 1.08854 0
M  V30 3007 O 304.019 0.668535 1.68524 0
M  V30 3008 C 304.067 3.59745 -0.248122 0
M  V30 3009 O 303.171 4.05123 0.77131 0
M  V30 3010 H 302.512 0.652564 -0.122703 0
M  V30 3011 H 305.042 1.79958 -0.973467 0
M  V30 3012 H 305.052 4.07911 -0.0851129 0
M  V30 3013 H 303.727 3.97218 -1.2325 0
M  V30 3014 H 302.304 3.68422 0.57619 0
M  V30 3015 N 304.489 0.459591 1.5075 0
M  V30 3016 C 305.714 -0.0996819 2.0716 0
M  V30 3017 C 306.139 -1.33761 1.32249 0
M  V30 3018 O 305.497 -1.77551 0.366786 0
M  V30 3019 C 305.545 -0.378226 3.58611 0
M  V30 3020 O 304.649 -1.46081 3.85661 0
M  V30 3021 H 303.99 0.00791392 0.663953 0
M  V30 3022 H 306.52 0.647329 1.9409 0
M  V30 3023 H 306.53 -0.622135 4.03229 0
M  V30 3024 H 305.205 0.526439 4.12555 0
M  V30 3025 H 303.782 -1.20511 3.5289 0
M  V30 3026 N 305.967 -1.56429 0.191757 0
M  V30 3027 C 307.244 -1.89224 -0.495332 0
M  V30 3028 C 307.624 -1.10478 -1.79883 0
M  V30 3029 O 306.972 -0.204852 -2.2758 0
M  V30 3030 C 307.182 -3.41548 -0.717367 0
M  V30 3031 C 308.53 -4.11711 -1.03823 0
M  V30 3032 O 309.554 -3.4698 -0.805204 0
M  V30 3033 O 308.413 -5.2611 -1.47887 0
M  V30 3034 H 305.507 -0.785788 -0.25781 0
M  V30 3035 H 308.053 -1.68111 0.231721 0
M  V30 3036 H 306.825 -3.90772 0.203287 0
M  V30 3037 H 306.448 -3.68342 -1.497 0
M  V30 3038 N 307.445 0.0818655 -1.57387 0
M  V30 3039 C 308.691 0.784074 -1.8703 0
M  V30 3040 C 309.024 1.77729 -0.782689 0
M  V30 3041 O 308.299 1.93384 0.208051 0
M  V30 3042 C 308.582 1.50105 -3.27323 0
M  V30 3043 C 308.435 0.524925 -4.46727 0
M  V30 3044 C 309.754 2.44843 -3.65705 0
M  V30 3045 H 306.873 0.283582 -0.680257 0
M  V30 3046 H 309.515 0.0474352 -1.89941 0
M  V30 3047 H 307.665 2.12897 -3.24972 0
M  V30 3048 H 309.337 -0.0970111 -4.61198 0
M  V30 3049 H 307.58 -0.160606 -4.33503 0
M  V30 3050 H 308.251 1.064 -5.41648 0
M  V30 3051 H 310.727 1.92135 -3.69085 0
M  V30 3052 H 309.603 2.92018 -4.64776 0
M  V30 3053 H 309.864 3.29197 -2.95096 0
M  V30 3054 N 308.923 1.53595 0.353017 0
M  V30 3055 C 309.853 1.83902 1.43883 0
M  V30 3056 C 310.834 0.693421 1.55324 0
M  V30 3057 O 312.019 0.944452 1.69687 0
M  V30 3058 C 309.149 2.04016 2.8106 0
M  V30 3059 C 308.103 3.19814 2.84434 0
M  V30 3060 C 307.429 3.25244 4.24406 0
M  V30 3061 C 308.729 4.58133 2.50822 0
M  V30 3062 H 310.423 2.74835 1.1877 0
M  V30 3063 H 307.969 1.32242 0.569917 0
M  V30 3064 H 309.922 2.238 3.57059 0
M  V30 3065 H 308.646 1.09804 3.07588 0
M  V30 3066 H 307.305 2.9987 2.10887 0
M  V30 3067 H 306.953 2.28646 4.48029 0
M  V30 3068 H 306.653 4.03054 4.27576 0
M  V30 3069 H 308.177 3.47228 5.0226 0
M  V30 3070 H 309.591 4.77995 3.16534 0
M  V30 3071 H 307.988 5.38276 2.6529 0
M  V30 3072 H 309.058 4.62387 1.46034 0
M  V30 3073 N 310.401 -0.613514 1.45168 0
M  V30 3074 C 311.364 -1.7065 1.53007 0
M  V30 3075 C 312.364 -1.5548 0.410184 0
M  V30 3076 O 313.554 -1.60656 0.673455 0
M  V30 3077 C 310.686 -3.09875 1.42093 0
M  V30 3078 H 311.879 -1.65068 2.50385 0
M  V30 3079 H 309.432 -0.828728 1.32521 0
M  V30 3080 H 310.167 -3.21039 0.458769 0
M  V30 3081 H 309.952 -3.22293 2.23315 0
M  V30 3082 H 311.442 -3.895 1.50598 0
M  V30 3083 N 311.879 -1.3236 -0.855495 0
M  V30 3084 C 313.127 -1.22629 -1.60644 0
M  V30 3085 C 313.448 0.212136 -1.93843 0
M  V30 3086 O 312.718 1.13666 -1.59552 0
M  V30 3087 H 311.298 -0.450882 -0.595579 0
M  V30 3088 H 313.96 -1.65871 -1.02337 0
M  V30 3089 H 313.056 -1.80832 -2.54374 0
M  V30 3090 N 313.357 1.07166 -1.15556 0
M  V30 3091 C 314.603 1.80065 -0.932984 0
M  V30 3092 C 314.936 1.86586 0.53845 0
M  V30 3093 O 314.211 1.35098 1.39924 0
M  V30 3094 C 314.494 3.25022 -1.55025 0
M  V30 3095 C 314.347 3.26634 -3.09242 0
M  V30 3096 C 315.666 4.22341 -1.2376 0
M  V30 3097 H 312.785 0.653697 -0.340366 0
M  V30 3098 H 315.427 1.25389 -1.4275 0
M  V30 3099 H 313.577 3.71712 -1.12972 0
M  V30 3100 H 315.249 2.88173 -3.60214 0
M  V30 3101 H 313.492 2.65539 -3.43033 0
M  V30 3102 H 314.163 4.28854 -3.47546 0
M  V30 3103 H 316.639 3.8405 -1.60139 0
M  V30 3104 H 315.515 5.22053 -1.69564 0
M  V30 3105 H 315.776 4.41828 -0.154938 0
M  V30 3106 N 314.835 0.952656 1.25548 0
M  V30 3107 C 316.251 0.656769 1.4546 0
M  V30 3108 C 316.451 -0.78633 1.85524 0
M  V30 3109 O 315.507 -1.56183 1.98402 0
M  V30 3110 C 316.82 1.62801 2.52817 0
M  V30 3111 C 318.368 1.63897 2.66659 0
M  V30 3112 C 318.843 2.5978 3.77198 0
M  V30 3113 N 320.334 2.58133 3.84606 0
M  V30 3114 C 321.069 3.29003 4.69621 0
M  V30 3115 N 320.565 4.09339 5.58939 0
M  V30 3116 N 322.358 3.179 4.63569 0
M  V30 3117 H 314.509 1.88526 0.978344 0
M  V30 3118 H 316.772 0.810815 0.491206 0
M  V30 3119 H 316.478 2.65869 2.30232 0
M  V30 3120 H 316.352 1.38898 3.50695 0
M  V30 3121 H 318.739 0.615481 2.8861 0
M  V30 3122 H 318.82 1.91858 1.69187 0
M  V30 3123 H 318.464 3.62254 3.55997 0
M  V30 3124 H 318.394 2.29105 4.7415 0
M  V30 3125 H 320.885 1.99809 3.20757 0
M  V30 3126 H 321.198 4.6034 6.20731 0
M  V30 3127 H 319.543 4.13438 5.58654 0
M  V30 3128 H 322.734 2.54612 3.92798 0
M  V30 3129 H 322.907 3.73398 5.29602 0
M  V30 3130 N 316.313 -1.40141 0.720998 0
M  V30 3131 C 317.553 -2.02644 0.267335 0
M  V30 3132 C 317.917 -1.55948 -1.12001 0
M  V30 3133 O 319.118 -2.10552 -1.67097 0
M  V30 3134 C 317.389 -3.55679 0.350281 0
M  V30 3135 S 318.948 -4.38793 -0.0256004 0
M  V30 3136 H 315.766 -0.703105 0.105664 0
M  V30 3137 H 318.368 -1.71175 0.944416 0
M  V30 3138 H 317.072 -3.87157 1.36153 0
M  V30 3139 H 316.603 -3.91883 -0.345096 0
M  V30 3140 H 318.618 -4.803 -1.24604 0
M  V30 3141 N 317.792 -0.46758 -1.50504 0
M  V30 3142 C 318.702 0.33382 -2.32213 0
M  V30 3143 C 319.718 0.999323 -1.42441 0
M  V30 3144 O 320.894 0.988068 -1.75497 0
M  V30 3145 C 317.959 1.4035 -3.17022 0
M  V30 3146 C 317.02 0.754961 -4.2261 0
M  V30 3147 C 316.253 1.77367 -5.03365 0
M  V30 3148 O 316.476 2.99976 -4.8515 0
M  V30 3149 O 315.41 1.34744 -5.86624 0
M  V30 3150 H 319.236 -0.334067 -3.01857 0
M  V30 3151 H 316.821 -0.229496 -1.47627 0
M  V30 3152 H 318.703 2.02318 -3.69656 0
M  V30 3153 H 317.378 2.05492 -2.5011 0
M  V30 3154 H 316.285 0.0964244 -3.73976 0
M  V30 3155 H 317.618 0.146545 -4.91982 0
M  V30 3156 N 319.27 1.56325 -0.20005 0
M  V30 3157 C 320.516 1.98772 0.431408 0
M  V30 3158 C 320.871 1.0849 1.58895 0
M  V30 3159 O 320.164 0.130331 1.91156 0
M  V30 3160 C 320.358 3.4495 0.935103 0
M  V30 3161 C 320.187 4.49371 -0.172096 0
M  V30 3162 C 318.957 5.0134 -0.631377 0
M  V30 3163 C 321.155 5.04822 -0.982806 0
M  V30 3164 N 319.137 5.89433 -1.71588 0
M  V30 3165 C 320.508 5.89632 -1.91661 0
M  V30 3166 C 322.563 4.87242 -1.02467 0
M  V30 3167 C 321.266 6.58741 -2.88881 0
M  V30 3168 C 323.292 5.57094 -1.98494 0
M  V30 3169 C 322.654 6.41655 -2.90617 0
M  V30 3170 H 318.753 0.771922 0.125144 0
M  V30 3171 H 321.337 1.92266 -0.306883 0
M  V30 3172 H 319.508 3.51946 1.64282 0
M  V30 3173 H 321.24 3.74354 1.53758 0
M  V30 3174 H 317.995 4.73071 -0.223827 0
M  V30 3175 H 318.419 6.38182 -2.25948 0
M  V30 3176 H 323.061 4.21538 -0.326408 0
M  V30 3177 H 320.779 7.23641 -3.5968 0
M  V30 3178 H 324.365 5.45466 -2.0238 0
M  V30 3179 H 323.245 6.94755 -3.63711 0
M  V30 3180 N 320.748 -0.0735177 1.57428 0
M  V30 3181 C 321.988 -0.778363 1.89 0
M  V30 3182 C 322.352 -1.7483 0.793634 0
M  V30 3183 O 323.553 -2.49811 0.992367 0
M  V30 3184 C 321.824 -1.46929 3.25802 0
M  V30 3185 S 323.383 -2.20943 3.79117 0
M  V30 3186 H 320.201 -0.258874 0.662197 0
M  V30 3187 H 322.803 -0.0345338 1.95469 0
M  V30 3188 H 321.507 -0.749532 4.03497 0
M  V30 3189 H 321.038 -2.25258 3.22525 0
M  V30 3190 H 323.053 -3.47435 3.54265 0
M  V30 3191 N 322.226 -1.5378 -0.344866 0
M  V30 3192 C 323.474 -1.70625 -1.08311 0
M  V30 3193 C 323.795 -0.471447 -1.89215 0
M  V30 3194 O 323.065 0.514616 -1.8902 0
M  V30 3195 H 321.645 -0.629058 -0.402859 0
M  V30 3196 H 324.307 -1.9103 -0.386459 0
M  V30 3197 H 323.403 -2.57656 -1.76124 0
M  V30 3198 N 323.704 0.605807 -1.45491 0
M  V30 3199 C 324.95 1.36679 -1.49823 0
M  V30 3200 C 325.283 1.93693 -0.140175 0
M  V30 3201 O 324.558 1.75158 0.845581 0
M  V30 3202 C 324.841 2.51337 -2.57879 0
M  V30 3203 C 324.694 1.99508 -4.03134 0
M  V30 3204 C 326.013 3.53463 -2.62205 0
M  V30 3205 H 323.132 0.495617 -0.545466 0
M  V30 3206 H 325.774 0.682732 -1.7731 0
M  V30 3207 H 323.924 3.09691 -2.34571 0
M  V30 3208 H 325.596 1.45789 -4.37656 0
M  V30 3209 H 323.839 1.30496 -4.13707 0
M  V30 3210 H 324.51 2.82169 -4.74431 0
M  V30 3211 H 326.986 3.04953 -2.83095 0
M  V30 3212 H 325.862 4.31178 -3.39672 0
M  V30 3213 H 326.123 4.09197 -1.67363 0
M  V30 3214 N 325.182 1.32811 0.848464 0
M  V30 3215 C 326.114 1.18095 1.96433 0
M  V30 3216 C 327.127 0.114354 1.62398 0
M  V30 3217 O 328.316 0.363892 1.74751 0
M  V30 3218 C 325.416 0.786798 3.2964 0
M  V30 3219 C 324.589 1.943 3.91875 0
M  V30 3220 C 323.648 1.53138 5.03423 0
M  V30 3221 O 322.674 2.24432 5.23086 0
M  V30 3222 N 323.876 0.430915 5.78898 0
M  V30 3223 H 326.641 2.14218 2.09597 0
M  V30 3224 H 324.202 1.2543 1.02367 0
M  V30 3225 H 326.194 0.493715 4.01677 0
M  V30 3226 H 324.764 -0.0834541 3.12489 0
M  V30 3227 H 323.984 2.40224 3.12547 0
M  V30 3228 H 325.272 2.71689 4.30189 0
M  V30 3229 H 324.67 -0.162333 5.65467 0
M  V30 3230 H 323.227 0.197466 6.51501 0
M  V30 3231 N 326.66 -1.06551 1.16123 0
M  V30 3232 C 327.623 -2.12132 0.867906 0
M  V30 3233 C 328.623 -1.60224 -0.135944 0
M  V30 3234 O 329.813 -1.73943 0.0946422 0
M  V30 3235 C 326.945 -3.396 0.297419 0
M  V30 3236 H 328.138 -2.39586 1.80385 0
M  V30 3237 H 325.691 -1.22574 0.969812 0
M  V30 3238 H 326.426 -3.17794 -0.64633 0
M  V30 3239 H 326.211 -3.78581 1.02073 0
M  V30 3240 H 327.701 -4.17455 0.110052 0
M  V30 3241 N 328.138 -0.959301 -1.25041 0
M  V30 3242 C 329.088 -0.453888 -2.23436 0
M  V30 3243 C 330.072 0.459461 -1.542 0
M  V30 3244 O 331.264 0.291752 -1.74579 0
M  V30 3245 C 328.393 0.262667 -3.42294 0
M  V30 3246 C 327.479 -0.669022 -4.1879 0
M  V30 3247 N 327.87 -1.80267 -4.72586 0
M  V30 3248 C 326.168 -0.47814 -4.4343 0
M  V30 3249 C 326.869 -2.38475 -5.3057 0
M  V30 3250 N 325.845 -1.67078 -5.17287 0
M  V30 3251 H 329.647 -1.319 -2.6264 0
M  V30 3252 H 327.161 -0.817358 -1.40332 0
M  V30 3253 H 329.158 0.641911 -4.11929 0
M  V30 3254 H 327.818 1.12432 -3.04613 0
M  V30 3255 H 328.829 -2.18442 -4.69578 0
M  V30 3256 H 325.506 0.340249 -4.16111 0
M  V30 3257 H 326.896 -3.34094 -5.8295 0
M  V30 3258 N 329.616 1.39756 -0.72842 0
M  V30 3259 C 330.841 2.05472 -0.282159 0
M  V30 3260 C 331.266 1.54549 1.07221 0
M  V30 3261 O 330.624 0.686372 1.67805 0
M  V30 3262 C 330.672 3.59462 -0.286264 0
M  V30 3263 O 329.776 4.05918 0.728298 0
M  V30 3264 H 329.117 0.651226 -0.129618 0
M  V30 3265 H 331.647 1.78915 -0.992499 0
M  V30 3266 H 331.657 4.07798 -0.128373 0
M  V30 3267 H 330.332 3.95889 -1.27456 0
M  V30 3268 H 328.909 3.69012 0.537081 0
M  V30 3269 N 331.094 0.475555 1.50254 0
M  V30 3270 C 332.024 -0.30611 2.31485 0
M  V30 3271 C 333.005 -0.986228 1.38591 0
M  V30 3272 O 334.19 -0.982541 1.67511 0
M  V30 3273 C 331.32 -1.38588 3.1845 0
M  V30 3274 C 330.274 -0.827115 4.19932 0
M  V30 3275 C 329.6 -2.00551 4.95665 0
M  V30 3276 C 330.9 0.16463 5.2204 0
M  V30 3277 H 332.594 0.371866 2.97082 0
M  V30 3278 H 330.14 0.180282 1.42867 0
M  V30 3279 H 332.093 -1.94023 3.74076 0
M  V30 3280 H 330.817 -2.09269 2.50747 0
M  V30 3281 H 329.476 -0.294702 3.65414 0
M  V30 3282 H 329.124 -2.6994 4.2443 0
M  V30 3283 H 328.824 -1.63784 5.64313 0
M  V30 3284 H 330.348 -2.56468 5.54127 0
M  V30 3285 H 331.762 -0.300699 5.72511 0
M  V30 3286 H 330.159 0.446813 5.98434 0
M  V30 3287 H 331.229 1.08905 4.72512 0
M  V30 3288 N 332.573 -1.56217 0.208337 0
M  V30 3289 C 333.813 -1.99849 -0.428927 0
M  V30 3290 C 334.177 -1.09262 -1.57879 0
M  V30 3291 O 335.378 -1.42185 -2.28116 0
M  V30 3292 C 333.649 -3.46777 -0.864879 0
M  V30 3293 S 335.208 -4.12434 -1.49811 0
M  V30 3294 H 332.026 -0.697742 -0.136665 0
M  V30 3295 H 334.628 -1.92953 0.314519 0
M  V30 3296 H 333.332 -4.10396 -0.0181326 0
M  V30 3297 H 332.863 -3.57518 -1.64147 0
M  V30 3298 H 334.878 -4.10532 -2.78707 0
M  V30 3299 N 334.051 0.0651679 -1.57465 0
M  V30 3300 C 335.276 0.779605 -1.9219 0
M  V30 3301 C 335.701 1.69988 -0.805333 0
M  V30 3302 O 335.059 1.79685 0.241435 0
M  V30 3303 C 335.107 1.54364 -3.2589 0
M  V30 3304 O 334.211 2.65474 -3.1559 0
M  V30 3305 H 333.552 0.212249 -0.629163 0
M  V30 3306 H 336.082 0.0314294 -2.04576 0
M  V30 3307 H 336.092 1.92146 -3.59922 0
M  V30 3308 H 334.767 0.868457 -4.06732 0
M  V30 3309 H 333.344 2.30501 -2.93128 0
M  V30 3310 N 335.529 1.53961 0.336706 0
M  V30 3311 C 336.492 1.81724 1.39675 0
M  V30 3312 C 337.492 0.688532 1.45313 0
M  V30 3313 O 338.682 0.956829 1.45569 0
M  V30 3314 C 335.814 1.96543 2.78538 0
M  V30 3315 H 337.007 2.76424 1.16318 0
M  V30 3316 H 334.56 1.45478 0.571474 0
M  V30 3317 H 335.295 1.0401 3.07168 0
M  V30 3318 H 335.08 2.78665 2.75841 0
M  V30 3319 H 336.57 2.19516 3.5525 0
M  V30 3320 N 337.007 -0.598083 1.45811 0
M  V30 3321 C 337.97 -1.69018 1.54808 0
M  V30 3322 C 338.97 -1.55037 0.426652 0
M  V30 3323 O 340.16 -1.59932 0.690456 0
M  V30 3324 C 337.292 -3.0835 1.45371 0
M  V30 3325 H 338.485 -1.62403 2.52121 0
M  V30 3326 H 336.038 -0.814626 1.33392 0
M  V30 3327 H 336.773 -3.20534 0.492793 0
M  V30 3328 H 336.558 -3.19907 2.26721 0
M  V30 3329 H 338.048 -3.8788 1.54721 0
M  V30 3330 N 338.485 -1.33259 -0.841409 0
M  V30 3331 C 339.415 -1.25926 -1.96634 0
M  V30 3332 C 340.396 -0.140349 -1.6952 0
M  V30 3333 O 341.581 -0.329707 -1.91381 0
M  V30 3334 C 338.711 -0.99512 -3.32738 0
M  V30 3335 C 337.665 -2.0767 -3.74242 0
M  V30 3336 C 336.991 -1.66474 -5.08125 0
M  V30 3337 C 338.291 -3.49318 -3.88297 0
M  V30 3338 H 339.985 -2.20046 -2.03027 0
M  V30 3339 H 337.531 -1.05931 -0.975425 0
M  V30 3340 H 339.484 -0.930323 -4.11002 0
M  V30 3341 H 338.208 -0.0183004 -3.26595 0
M  V30 3342 H 336.867 -2.13187 -2.98239 0
M  V30 3343 H 336.515 -0.675012 -4.9845 0
M  V30 3344 H 336.215 -2.3885 -5.36865 0
M  V30 3345 H 337.739 -1.61455 -5.88867 0
M  V30 3346 H 339.153 -3.46316 -4.56879 0
M  V30 3347 H 337.55 -4.20158 -4.28471 0
M  V30 3348 H 338.62 -3.8801 -2.9082 0
M  V30 3349 N 339.963 1.05934 -1.16686 0
M  V30 3350 C 340.926 2.11669 -0.879144 0
M  V30 3351 C 341.926 1.60294 0.127445 0
M  V30 3352 O 343.116 1.7389 -0.103865 0
M  V30 3353 C 340.248 3.39438 -0.315425 0
M  V30 3354 H 341.441 2.38626 -1.81653 0
M  V30 3355 H 338.994 1.22058 -0.976299 0
M  V30 3356 H 339.729 3.18132 0.629468 0
M  V30 3357 H 339.514 3.78034 -1.04079 0
M  V30 3358 H 341.004 4.17391 -0.132189 0
M  V30 3359 N 341.441 0.965919 1.2453 0
M  V30 3360 C 342.852 0.665929 1.7442 0
M  V30 3361 C 343.203 -0.818407 1.78316 0
M  V30 3362 O 342.328 -1.64037 1.41141 0
M  V30 3363 C 342.923 1.20211 3.16757 0
M  V30 3364 C 341.482 0.952059 3.6416 0
M  V30 3365 C 340.629 1.33848 2.42858 0
M  V30 3366 H 343.58 1.14144 1.10258 0
M  V30 3367 H 343.601 0.567544 3.76244 0
M  V30 3368 H 343.113 2.28244 3.13889 0
M  V30 3369 H 341.214 -0.112821 3.72429 0
M  V30 3370 H 341.327 1.59645 4.51719 0
M  V30 3371 H 339.691 0.756864 2.43195 0
M  V30 3372 H 340.474 2.42827 2.42673 0
M  V30 3373 N 342.919 -1.39368 0.735821 0
M  V30 3374 C 343.829 -2.34395 0.0979693 0
M  V30 3375 C 344.845 -1.58361 -0.720968 0
M  V30 3376 O 346.021 -1.90648 -0.649245 0
M  V30 3377 C 343.086 -3.37393 -0.797916 0
M  V30 3378 C 342.147 -4.29287 0.0333662 0
M  V30 3379 C 341.38 -5.27365 -0.819854 0
M  V30 3380 O 341.603 -5.31959 -2.05855 0
M  V30 3381 O 340.537 -6.01389 -0.248079 0
M  V30 3382 H 344.363 -2.90601 0.882315 0
M  V30 3383 H 341.948 -1.40909 0.4965 0
M  V30 3384 H 343.83 -4.00505 -1.31048 0
M  V30 3385 H 342.505 -2.83571 -1.56106 0
M  V30 3386 H 341.412 -3.69395 0.591475 0
M  V30 3387 H 342.745 -4.86317 0.758752 0
M  V30 3388 N 344.397 -0.483516 -1.5 0
M  V30 3389 C 345.637 0.0657469 -2.04294 0
M  V30 3390 C 346.001 1.35869 -1.35659 0
M  V30 3391 O 347.202 1.99111 -1.80578 0
M  V30 3392 C 345.473 0.232758 -3.56641 0
M  V30 3393 S 347.032 0.738788 -4.32536 0
M  V30 3394 H 343.85 0.0100755 -0.710929 0
M  V30 3395 H 346.452 -0.653494 -1.84254 0
M  V30 3396 H 345.156 -0.713847 -4.04144 0
M  V30 3397 H 344.687 0.977751 -3.81056 0
M  V30 3398 H 346.702 2.01048 -4.53645 0
M  V30 3399 N 345.875 1.56104 -0.216619 0
M  V30 3400 C 347.123 1.97781 0.415593 0
M  V30 3401 C 347.444 1.10536 1.60645 0
M  V30 3402 O 346.714 0.181303 1.95059 0
M  V30 3403 H 345.294 0.730415 0.156534 0
M  V30 3404 H 347.956 1.92445 -0.308366 0
M  V30 3405 H 347.052 3.03072 0.74525 0
M  V30 3406 N 347.353 -0.0568162 1.57498 0
M  V30 3407 C 348.6 -0.753104 1.87975 0
M  V30 3408 C 348.928 -1.76815 0.81035 0
M  V30 3409 O 348.183 -1.94756 -0.19199 0
M  V30 3410 C 348.482 -1.48359 3.25153 0
M  V30 3411 C 348.148 -0.60713 4.46794 0
M  V30 3412 C 346.81 -0.365642 4.79809 0
M  V30 3413 C 349.162 -0.000305978 5.212 0
M  V30 3414 C 346.49 0.491905 5.84634 0
M  V30 3415 C 348.842 0.844781 6.26934 0
M  V30 3416 C 347.506 1.096 6.58441 0
M  V30 3417 H 346.776 -0.27558 0.687849 0
M  V30 3418 H 349.423 -0.0135173 1.91495 0
M  V30 3419 H 347.728 -2.29577 3.17492 0
M  V30 3420 H 349.425 -2.02739 3.45974 0
M  V30 3421 H 346.015 -0.805487 4.20963 0
M  V30 3422 H 350.199 -0.173961 4.95995 0
M  V30 3423 H 345.455 0.695131 6.07436 0
M  V30 3424 H 349.629 1.32165 6.83744 0
M  V30 3425 H 347.256 1.76224 7.39492 0
M  V30 3426 N 348.832 -1.54138 -0.328536 0
M  V30 3427 C 350.08 -1.71765 -1.06496 0
M  V30 3428 C 350.401 -0.49149 -1.88704 0
M  V30 3429 O 349.671 0.494539 -1.89555 0
M  V30 3430 H 348.251 -0.633295 -0.396164 0
M  V30 3431 H 350.913 -1.91429 -0.366176 0
M  V30 3432 H 350.009 -2.5951 -1.73381 0
M  V30 3433 N 350.31 0.590341 -1.46126 0
M  V30 3434 C 351.726 0.912917 -1.30912 0
M  V30 3435 C 351.926 1.99616 -0.274893 0
M  V30 3436 O 350.982 2.50397 0.325197 0
M  V30 3437 C 352.295 1.3375 -2.69317 0
M  V30 3438 C 353.843 1.45077 -2.77348 0
M  V30 3439 C 354.318 1.90904 -4.16317 0
M  V30 3440 N 355.809 1.9811 -4.18696 0
M  V30 3441 C 356.544 2.34828 -5.23109 0
M  V30 3442 N 356.04 2.70393 -6.37856 0
M  V30 3443 N 357.833 2.35317 -5.10473 0
M  V30 3444 H 349.984 -0.125358 -2.1203 0
M  V30 3445 H 352.247 0.00658481 -0.947977 0
M  V30 3446 H 351.953 0.615614 -3.4627 0
M  V30 3447 H 351.827 2.30058 -2.9892 0
M  V30 3448 H 354.214 2.16353 -2.00687 0
M  V30 3449 H 354.295 0.4704 -2.51438 0
M  V30 3450 H 353.939 1.20209 -4.9347 0
M  V30 3451 H 353.869 2.89886 -4.39629 0
M  V30 3452 H 356.36 1.73146 -3.359 0
M  V30 3453 H 356.673 2.97341 -7.13308 0
M  V30 3454 H 355.018 2.68048 -6.41229 0
M  V30 3455 H 358.209 2.0695 -4.19868 0
M  V30 3456 H 358.382 2.63605 -5.9196 0
M  V30 3457 N 351.788 1.33704 0.83433 0
M  V30 3458 C 352.718 1.26967 1.95963 0
M  V30 3459 C 353.699 0.149337 1.69443 0
M  V30 3460 O 354.884 0.339852 1.91203 0
M  V30 3461 C 352.014 1.01275 3.32206 0
M  V30 3462 C 350.968 2.09652 3.73136 0
M  V30 3463 C 350.294 1.69166 5.07235 0
M  V30 3464 C 351.594 3.51372 3.86439 0
M  V30 3465 H 353.288 2.2112 2.01857 0
M  V30 3466 H 350.834 1.06447 0.969793 0
M  V30 3467 H 352.787 0.952106 4.10503 0
M  V30 3468 H 351.511 0.0356203 3.26581 0
M  V30 3469 H 350.17 2.14766 2.97104 0
M  V30 3470 H 349.818 0.701437 4.98085 0
M  V30 3471 H 349.518 2.41694 5.35591 0
M  V30 3472 H 351.042 1.64576 5.88003 0
M  V30 3473 H 352.456 3.48734 4.55036 0
M  V30 3474 H 350.853 4.22425 4.26236 0
M  V30 3475 H 351.923 3.89546 2.88759 0
M  V30 3476 N 353.266 -1.05314 1.17247 0
M  V30 3477 C 354.682 -1.30452 0.919473 0
M  V30 3478 C 354.882 -1.9703 -0.42209 0
M  V30 3479 O 353.938 -2.24311 -1.15935 0
M  V30 3480 C 355.251 -2.17551 2.07586 0
M  V30 3481 C 356.799 -2.30937 2.11275 0
M  V30 3482 C 357.274 -3.21396 3.26296 0
M  V30 3483 N 358.765 -3.28981 3.26076 0
M  V30 3484 C 359.5 -3.99095 4.11716 0
M  V30 3485 N 358.996 -4.71648 5.07465 0
M  V30 3486 N 360.789 -3.95247 3.9967 0
M  V30 3487 H 352.94 -0.604988 2.03602 0
M  V30 3488 H 355.203 -0.329368 0.888944 0
M  V30 3489 H 354.909 -1.75921 3.0454 0
M  V30 3490 H 354.783 -3.18182 2.02584 0
M  V30 3491 H 357.17 -2.71809 1.14907 0
M  V30 3492 H 357.251 -1.2994 2.20339 0
M  V30 3493 H 356.895 -2.81238 4.22927 0
M  V30 3494 H 356.825 -4.22395 3.14467 0
M  V30 3495 H 359.316 -2.77286 2.5675 0
M  V30 3496 H 359.629 -5.22705 5.6921 0
M  V30 3497 H 357.974 -4.70594 5.11435 0
M  V30 3498 H 361.165 -3.37691 3.24164 0
M  V30 3499 H 361.338 -4.4962 4.66632 0
M  V30 3500 N 354.744 -0.972509 -1.24016 0
M  V30 3501 C 355.969 -0.654417 -1.96805 0
M  V30 3502 C 356.394 0.770398 -1.716 0
M  V30 3503 O 355.752 1.52361 -0.982647 0
M  V30 3504 C 355.8 -0.941031 -3.48105 0
M  V30 3505 O 354.904 -0.0289472 -4.1239 0
M  V30 3506 H 354.245 -0.24692 -0.616382 0
M  V30 3507 H 356.775 -1.30396 -1.57664 0
M  V30 3508 H 356.785 -0.87452 -3.98517 0
M  V30 3509 H 355.46 -1.97939 -3.65777 0
M  V30 3510 H 354.037 -0.149192 -3.72601 0
M  V30 3511 N 356.222 1.38976 -0.743202 0
M  V30 3512 C 357.152 2.33171 -0.123873 0
M  V30 3513 C 358.133 1.54336 0.71516 0
M  V30 3514 O 359.318 1.82696 0.658467 0
M  V30 3515 C 356.448 3.38474 0.777978 0
M  V30 3516 C 355.402 4.27979 0.0424758 0
M  V30 3517 C 354.728 5.2405 1.06189 0
M  V30 3518 C 356.028 5.10155 -1.1198 0
M  V30 3519 H 357.722 2.85213 -0.910709 0
M  V30 3520 H 355.268 1.37133 -0.439388 0
M  V30 3521 H 357.221 4.03328 1.22084 0
M  V30 3522 H 355.945 2.84891 1.59702 0
M  V30 3523 H 354.604 3.64616 -0.380853 0
M  V30 3524 H 354.252 4.66758 1.87472 0
M  V30 3525 H 353.952 5.84785 0.574485 0
M  V30 3526 H 355.476 5.9178 1.50428 0
M  V30 3527 H 356.89 5.68307 -0.75499 0
M  V30 3528 H 355.287 5.80073 -1.53738 0
M  V30 3529 H 356.357 4.44504 -1.93764 0
M  V30 3530 N 357.7 0.491464 1.49741 0
M  V30 3531 C 358.946 -0.0565092 2.02721 0
M  V30 3532 C 359.279 -1.37522 1.37118 0
M  V30 3533 O 358.554 -1.87866 0.503645 0
M  V30 3534 C 358.837 -0.219051 3.59433 0
M  V30 3535 C 358.69 1.12211 4.35579 0
M  V30 3536 C 360.009 -0.964157 4.29409 0
M  V30 3537 H 357.128 -0.0190627 0.736753 0
M  V30 3538 H 359.77 0.641021 1.7886 0
M  V30 3539 H 357.92 -0.813165 3.79895 0
M  V30 3540 H 359.592 1.75437 4.26637 0
M  V30 3541 H 357.835 1.71377 3.98513 0
M  V30 3542 H 358.506 0.961794 5.43556 0
M  V30 3543 H 360.982 -0.460378 4.13545 0
M  V30 3544 H 359.858 -1.04671 5.38828 0
M  V30 3545 H 360.119 -2.00563 3.93988 0
M  V30 3546 N 359.178 -1.55987 0.224894 0
M  V30 3547 C 360.108 -2.23426 -0.678457 0
M  V30 3548 C 361.089 -1.20709 -1.19847 0
M  V30 3549 O 362.274 -1.49304 -1.24186 0
M  V30 3550 C 359.404 -2.91676 -1.88527 0
M  V30 3551 C 358.358 -4.00893 -1.49896 0
M  V30 3552 C 357.684 -4.56455 -2.78483 0
M  V30 3553 C 358.984 -5.17769 -0.686461 0
M  V30 3554 H 360.678 -2.99175 -0.116173 0
M  V30 3555 H 358.224 -1.43897 -0.054436 0
M  V30 3556 H 360.177 -3.37547 -2.5227 0
M  V30 3557 H 358.901 -2.1338 -2.47258 0
M  V30 3558 H 357.56 -3.55758 -0.884985 0
M  V30 3559 H 357.208 -3.74886 -3.35365 0
M  V30 3560 H 356.908 -5.30169 -2.53368 0
M  V30 3561 H 358.432 -5.05047 -3.43162 0
M  V30 3562 H 359.846 -5.60001 -1.22767 0
M  V30 3563 H 358.243 -5.97735 -0.532259 0
M  V30 3564 H 359.313 -4.83932 0.306196 0
M  V30 3565 N 360.656 0.0484629 -1.57525 0
M  V30 3566 C 362.067 0.597486 -1.76881 0
M  V30 3567 C 362.418 1.76664 -0.853475 0
M  V30 3568 O 361.543 2.16357 -0.0433656 0
M  V30 3569 C 362.138 1.09066 -3.20765 0
M  V30 3570 C 360.697 1.58535 -3.41385 0
M  V30 3571 C 359.844 0.514868 -2.72478 0
M  V30 3572 H 362.795 -0.177758 -1.57701 0
M  V30 3573 H 362.816 1.95875 -3.2621 0
M  V30 3574 H 362.328 0.239521 -3.8736 0
M  V30 3575 H 360.429 2.45898 -2.79937 0
M  V30 3576 H 360.542 1.64622 -4.49929 0
M  V30 3577 H 358.906 0.965407 -2.35695 0
M  V30 3578 H 359.689 -0.32648 -3.41744 0
M  V30 3579 N 362.134 1.5431 0.320358 0
M  V30 3580 C 363.545 1.63872 0.894594 0
M  V30 3581 C 363.896 0.534847 1.88769 0
M  V30 3582 O 363.021 -0.331732 2.13842 0
M  V30 3583 C 363.616 2.97049 1.62934 0
M  V30 3584 C 362.175 3.08796 2.15226 0
M  V30 3585 C 361.322 2.59456 0.978671 0
M  V30 3586 H 364.273 1.58398 0.0978544 0
M  V30 3587 H 364.294 2.87388 2.49376 0
M  V30 3588 H 363.806 3.7737 0.906302 0
M  V30 3589 H 361.907 2.33156 2.90636 0
M  V30 3590 H 362.02 4.14649 2.40006 0
M  V30 3591 H 360.384 2.1543 1.35875 0
M  V30 3592 H 361.167 3.42237 0.269895 0
M  V30 3593 N 363.613 -0.582584 1.46437 0
M  V30 3594 C 364.576 -1.67366 1.56592 0
M  V30 3595 C 365.576 -1.54575 0.443072 0
M  V30 3596 O 366.766 -1.59191 0.707381 0
M  V30 3597 C 363.898 -3.06791 1.48634 0
M  V30 3598 H 365.091 -1.5972 2.5383 0
M  V30 3599 H 362.644 -0.800432 1.34249 0
M  V30 3600 H 363.379 -3.19993 0.526763 0
M  V30 3601 H 363.164 -3.17484 2.30101 0
M  V30 3602 H 364.654 -3.86218 1.58826 0
M  V30 3603 N 365.091 -1.34144 -0.827227 0
M  V30 3604 C 366.331 -1.27603 -1.59677 0
M  V30 3605 C 366.695 0.153035 -1.91389 0
M  V30 3606 O 367.896 0.342566 -2.66608 0
M  V30 3607 C 366.167 -2.13784 -2.86411 0
M  V30 3608 S 367.726 -2.24552 -3.76991 0
M  V30 3609 H 364.544 -0.453789 -0.547354 0
M  V30 3610 H 367.146 -1.69309 -0.977479 0
M  V30 3611 H 365.85 -3.16627 -2.61104 0
M  V30 3612 H 365.381 -1.72959 -3.5334 0
M  V30 3613 H 367.396 -1.41514 -4.75593 0
M  V30 3614 N 366.569 1.04691 -1.17803 0
M  V30 3615 C 367.815 1.78045 -0.970969 0
M  V30 3616 C 368.148 1.87686 0.498751 0
M  V30 3617 O 367.423 1.38035 1.37027 0
M  V30 3618 C 367.706 3.2166 -1.61884 0
M  V30 3619 C 367.559 3.20001 -3.161 0
M  V30 3620 C 368.878 4.1962 -1.3269 0
M  V30 3621 H 365.997 0.64633 -0.354155 0
M  V30 3622 H 368.639 1.22333 -1.45378 0
M  V30 3623 H 366.789 3.69232 -1.20831 0
M  V30 3624 H 368.461 2.80467 -3.66246 0
M  V30 3625 H 366.704 2.58203 -3.48588 0
M  V30 3626 H 367.375 4.21386 -3.56564 0
M  V30 3627 H 369.851 3.80567 -1.68249 0
M  V30 3628 H 368.727 5.18339 -1.80599 0
M  V30 3629 H 368.988 4.414 -0.248622 0
M  V30 3630 N 368.047 0.979072 1.23499 0
M  V30 3631 C 369.463 0.687475 1.44034 0
M  V30 3632 C 369.663 -0.746801 1.8715 0
M  V30 3633 O 368.719 -1.51939 2.0167 0
M  V30 3634 C 370.032 1.68127 2.49307 0
M  V30 3635 C 371.58 1.69516 2.63122 0
M  V30 3636 C 372.055 2.67723 3.71603 0
M  V30 3637 N 373.546 2.66233 3.79044 0
M  V30 3638 C 374.281 3.38891 4.62537 0
M  V30 3639 N 373.777 4.21103 5.50131 0
M  V30 3640 N 375.57 3.27661 4.56721 0
M  V30 3641 H 367.721 1.90559 0.938135 0
M  V30 3642 H 369.984 0.821051 0.473897 0
M  V30 3643 H 369.69 2.70693 2.2454 0
M  V30 3644 H 369.564 1.46306 3.4767 0
M  V30 3645 H 371.951 0.676561 2.8724 0
M  V30 3646 H 372.032 1.95404 1.65079 0
M  V30 3647 H 371.676 3.69724 3.48233 0
M  V30 3648 H 371.606 2.39111 4.69184 0
M  V30 3649 H 374.097 2.06568 3.16446 0
M  V30 3650 H 374.41 4.73403 6.10827 0
M  V30 3651 H 372.755 4.25195 5.49759 0
M  V30 3652 H 375.946 2.62887 3.87309 0
M  V30 3653 H 376.119 3.84547 5.21562 0
M  V30 3654 N 369.525 -1.3858 0.750561 0
M  V30 3655 C 370.455 -2.33102 0.136237 0
M  V30 3656 C 371.436 -1.54713 -0.706965 0
M  V30 3657 O 372.621 -1.83043 -0.648769 0
M  V30 3658 C 369.751 -3.38882 -0.760017 0
M  V30 3659 C 368.705 -4.27995 -0.0197785 0
M  V30 3660 C 368.031 -5.24605 -1.03408 0
M  V30 3661 C 369.331 -5.09554 1.14684 0
M  V30 3662 H 371.025 -2.84726 0.925822 0
M  V30 3663 H 368.571 -1.36898 0.446654 0
M  V30 3664 H 370.524 -4.0397 -1.19943 0
M  V30 3665 H 369.248 -2.85734 -1.58189 0
M  V30 3666 H 367.907 -3.64409 0.400184 0
M  V30 3667 H 367.555 -4.67746 -1.84994 0
M  V30 3668 H 367.255 -5.85081 -0.543464 0
M  V30 3669 H 368.779 -5.9257 -1.47288 0
M  V30 3670 H 370.193 -5.67899 0.785118 0
M  V30 3671 H 368.59 -5.7925 1.56812 0
M  V30 3672 H 369.66 -4.4347 1.96118 0
M  V30 3673 N 371.003 -0.499398 -1.49478 0
M  V30 3674 C 371.933 0.269244 -2.31943 0
M  V30 3675 C 372.914 0.964054 -1.40143 0
M  V30 3676 O 374.099 0.955767 -1.69052 0
M  V30 3677 C 371.229 1.33504 -3.20615 0
M  V30 3678 C 370.183 0.760202 -4.21195 0
M  V30 3679 C 369.509 1.9264 -4.98792 0
M  V30 3680 C 370.809 -0.247661 -5.21712 0
M  V30 3681 H 372.503 -0.419082 -2.96452 0
M  V30 3682 H 370.049 -0.202988 -1.42562 0
M  V30 3683 H 372.002 1.88048 -3.77115 0
M  V30 3684 H 370.726 2.05253 -2.54045 0
M  V30 3685 H 369.385 0.23653 -3.65836 0
M  V30 3686 H 369.033 2.63154 -4.28671 0
M  V30 3687 H 368.733 1.54785 -5.66847 0
M  V30 3688 H 370.257 2.4762 -5.58137 0
M  V30 3689 H 371.671 0.209579 -5.72917 0
M  V30 3690 H 370.068 -0.541962 -5.97648 0
M  V30 3691 H 371.138 -1.16409 -4.7072 0
M  V30 3692 N 372.481 1.55866 -0.233164 0
M  V30 3693 C 373.892 1.847 0.272554 0
M  V30 3694 C 374.243 1.15477 1.58617 0
M  V30 3695 O 373.368 0.42841 2.12117 0
M  V30 3696 C 373.963 3.35071 0.501299 0
M  V30 3697 C 372.522 3.6418 0.951304 0
M  V30 3698 C 371.669 2.77292 0.0208209 0
M  V30 3699 H 374.62 1.52005 -0.456074 0
M  V30 3700 H 374.641 3.55906 1.34577 0
M  V30 3701 H 374.153 3.85424 -0.454936 0
M  V30 3702 H 372.254 3.19293 1.92049 0
M  V30 3703 H 372.367 4.72071 0.817675 0
M  V30 3704 H 370.731 2.49131 0.529723 0
M  V30 3705 H 371.514 3.30448 -0.93054 0
M  V30 3706 N 373.959 -0.0401083 1.57549 0
M  V30 3707 C 375.207 -0.731677 1.8839 0
M  V30 3708 C 375.528 -1.76481 0.829425 0
M  V30 3709 O 374.798 -1.95411 -0.1383 0
M  V30 3710 H 373.378 -0.273225 0.695239 0
M  V30 3711 H 376.04 -0.00867725 1.94898 0
M  V30 3712 H 375.136 -1.22816 2.86919 0
M  V30 3713 N 375.437 -1.54477 -0.31217 0
M  V30 3714 C 376.685 -1.72884 -1.04668 0
M  V30 3715 C 377.006 -0.511477 -1.88173 0
M  V30 3716 O 376.276 0.474407 -1.90069 0
M  V30 3717 H 374.856 -0.637461 -0.389425 0
M  V30 3718 H 377.518 -1.91807 -0.345852 0
M  V30 3719 H 376.614 -2.61334 -1.70619 0
M  V30 3720 N 376.915 0.57481 -1.46744 0
M  V30 3721 C 378.162 1.33272 -1.52462 0
M  V30 3722 C 378.49 1.93669 -0.179572 0
M  V30 3723 O 377.745 1.7743 0.825664 0
M  V30 3724 C 378.044 2.476 -2.57738 0
M  V30 3725 C 377.71 2.05146 -4.01529 0
M  V30 3726 C 376.372 1.93284 -4.40676 0
M  V30 3727 C 378.724 1.72506 -4.91824 0
M  V30 3728 C 376.052 1.47049 -5.67973 0
M  V30 3729 C 378.404 1.27748 -6.19567 0
M  V30 3730 C 377.068 1.14468 -6.57612 0
M  V30 3731 H 376.338 0.487678 -0.557899 0
M  V30 3732 H 378.985 0.646456 -1.80259 0
M  V30 3733 H 377.29 3.21708 -2.23632 0
M  V30 3734 H 378.987 3.05807 -2.5939 0
M  V30 3735 H 375.577 2.15316 -3.7059 0
M  V30 3736 H 379.761 1.80552 -4.62293 0
M  V30 3737 H 375.017 1.35417 -5.96215 0
M  V30 3738 H 379.191 1.01547 -6.88957 0
M  V30 3739 H 376.818 0.78419 -7.56145 0
M  V30 3740 N 378.394 1.34581 0.820102 0
M  V30 3741 C 379.619 1.30333 1.61332 0
M  V30 3742 C 380.044 -0.119339 1.87721 0
M  V30 3743 O 379.402 -1.08197 1.45475 0
M  V30 3744 C 379.45 2.10258 2.92957 0
M  V30 3745 O 378.554 1.47404 3.85157 0
M  V30 3746 H 377.895 0.447488 0.490561 0
M  V30 3747 H 380.425 1.77425 1.01889 0
M  V30 3748 H 380.435 2.21718 3.42498 0
M  V30 3749 H 379.11 3.13693 2.73074 0
M  V30 3750 H 377.687 1.44703 3.43679 0
M  V30 3751 N 379.872 -1.04064 1.18357 0
M  V30 3752 C 380.819 -2.12077 0.910603 0
M  V30 3753 C 381.789 -1.65421 -0.15 0
M  V30 3754 O 382.974 -1.90797 -0.0103614 0
M  V30 3755 C 380.114 -3.42252 0.442472 0
M  V30 3756 C 379.227 -4.0252 1.5685 0
M  V30 3757 C 378.362 -5.20657 1.05309 0
M  V30 3758 C 377.401 -5.72955 2.1538 0
M  V30 3759 N 376.538 -6.8238 1.65233 0
M  V30 3760 H 381.378 -2.34764 1.83548 0
M  V30 3761 H 378.915 -1.15157 0.915279 0
M  V30 3762 H 380.873 -4.16921 0.152534 0
M  V30 3763 H 379.503 -3.19712 -0.445428 0
M  V30 3764 H 378.555 -3.25178 1.97391 0
M  V30 3765 H 379.867 -4.37362 2.39824 0
M  V30 3766 H 379.021 -6.0244 0.717677 0
M  V30 3767 H 377.76 -4.87318 0.19293 0
M  V30 3768 H 376.765 -4.89793 2.49766 0
M  V30 3769 H 377.99 -6.08337 3.01832 0
M  V30 3770 H 375.936 -6.50917 0.815064 0
M  V30 3771 H 375.853 -7.16286 2.41805 0
M  V30 3772 H 377.121 -7.67788 1.34619 0
M  V30 3773 N 381.35 -0.985608 -1.22978 0
M  V30 3774 C 382.578 -0.675582 -1.95559 0
M  V30 3775 C 382.993 0.758413 -1.72897 0
M  V30 3776 O 382.35 1.51094 -1.02357 0
M  V30 3777 C 382.401 -0.96293 -3.48439 0
M  V30 3778 O 382.122 -2.34057 -3.70336 0
M  V30 3779 C 383.623 -0.669585 -4.38214 0
M  V30 3780 H 380.843 -0.250523 -0.622478 0
M  V30 3781 H 383.387 -1.3184 -1.56328 0
M  V30 3782 H 381.542 -0.366033 -3.85667 0
M  V30 3783 H 381.956 -2.43424 -4.64591 0
M  V30 3784 H 383.43 -0.920967 -5.44263 0
M  V30 3785 H 383.907 0.396383 -4.37408 0
M  V30 3786 H 384.513 -1.2472 -4.06602 0
M  V30 3787 N 382.828 1.3818 -0.7579 0
M  V30 3788 C 383.76 2.2901 -0.0932177 0
M  V30 3789 C 384.773 1.47958 0.679136 0
M  V30 3790 O 385.962 1.70773 0.519514 0
M  V30 3791 C 383.062 3.26953 0.89192 0
M  V30 3792 C 382.235 4.37045 0.176303 0
M  V30 3793 C 381.294 5.15148 1.07281 0
M  V30 3794 O 380.32 5.66616 0.541728 0
M  V30 3795 N 381.522 5.28542 2.40049 0
M  V30 3796 H 384.287 2.86694 -0.873303 0
M  V30 3797 H 381.848 1.50007 -0.609054 0
M  V30 3798 H 383.84 3.76083 1.49479 0
M  V30 3799 H 382.41 2.70136 1.57306 0
M  V30 3800 H 381.63 3.89493 -0.607328 0
M  V30 3801 H 382.918 5.07801 -0.318718 0
M  V30 3802 H 382.316 4.88285 2.85647 0
M  V30 3803 H 380.873 5.8103 2.95376 0
M  V30 3804 N 384.306 0.507319 1.49211 0
M  V30 3805 C 385.531 -0.033725 2.07373 0
M  V30 3806 C 385.956 -1.29485 1.36437 0
M  V30 3807 O 385.314 -1.76294 0.423087 0
M  V30 3808 C 385.362 -0.263945 3.59633 0
M  V30 3809 O 384.466 -1.33737 3.90113 0
M  V30 3810 H 383.807 0.0290331 0.663365 0
M  V30 3811 H 386.337 0.708749 1.91932 0
M  V30 3812 H 386.347 -0.493536 4.05004 0
M  V30 3813 H 385.022 0.657424 4.10671 0
M  V30 3814 H 383.599 -1.09224 3.56545 0
M  V30 3815 N 385.784 -1.5574 0.241426 0
M  V30 3816 C 387.031 -1.9881 -0.384836 0
M  V30 3817 C 387.359 -1.12947 -1.58346 0
M  V30 3818 O 386.614 -0.178993 -1.9488 0
M  V30 3819 C 386.913 -3.47308 -0.843317 0
M  V30 3820 C 386.579 -4.50223 0.246946 0
M  V30 3821 C 385.241 -4.78088 0.546399 0
M  V30 3822 C 387.593 -5.11841 0.983282 0
M  V30 3823 C 384.921 -5.64846 1.58636 0
M  V30 3824 C 387.273 -5.99727 2.01272 0
M  V30 3825 C 385.937 -6.25927 2.31888 0
M  V30 3826 H 385.207 -0.727496 -0.140821 0
M  V30 3827 H 387.854 -1.8831 0.348106 0
M  V30 3828 H 386.159 -3.55112 -1.65537 0
M  V30 3829 H 387.856 -3.78017 -1.33806 0
M  V30 3830 H 384.446 -4.286 0.00340639 0
M  V30 3831 H 388.63 -4.90366 0.765182 0
M  V30 3832 H 383.886 -5.83403 1.82896 0
M  V30 3833 H 388.06 -6.46517 2.58823 0
M  V30 3834 H 385.687 -6.92949 3.12611 0
M  V30 3835 N 387.262 0.0317525 -1.57568 0
M  V30 3836 C 388.678 0.38735 -1.54828 0
M  V30 3837 C 388.878 1.7677 -0.967187 0
M  V30 3838 O 387.934 2.45581 -0.587063 0
M  V30 3839 C 389.247 0.291667 -2.99282 0
M  V30 3840 C 390.795 0.368946 -3.10818 0
M  V30 3841 C 391.27 0.302741 -4.56998 0
M  V30 3842 N 392.761 0.361617 -4.61786 0
M  V30 3843 C 393.496 0.333238 -5.72431 0
M  V30 3844 N 392.992 0.257308 -6.92322 0
M  V30 3845 N 394.785 0.382769 -5.60795 0
M  V30 3846 H 386.936 -0.871609 -1.93692 0
M  V30 3847 H 389.199 -0.331161 -0.888277 0
M  V30 3848 H 388.905 -0.656794 -3.45513 0
M  V30 3849 H 388.779 1.08638 -3.61217 0
M  V30 3850 H 391.166 1.30784 -2.64536 0
M  V30 3851 H 391.247 -0.455066 -2.5172 0
M  V30 3852 H 390.891 -0.632473 -5.03947 0
M  V30 3853 H 390.821 1.14482 -5.14005 0
M  V30 3854 H 393.312 0.422923 -3.75526 0
M  V30 3855 H 393.625 0.24068 -7.72425 0
M  V30 3856 H 391.97 0.223396 -6.94641 0
M  V30 3857 H 395.161 0.44006 -4.66027 0
M  V30 3858 H 395.334 0.357184 -6.47015 0
M  V30 3859 N 388.74 1.54641 0.303973 0
M  V30 3860 C 389.989 1.7299 1.03717 0
M  V30 3861 C 390.302 0.521168 1.88529 0
M  V30 3862 O 391.508 0.586408 2.65092 0
M  V30 3863 C 389.964 3.06051 1.89369 0
M  V30 3864 C 389.572 4.34393 1.09574 0
M  V30 3865 C 391.316 3.3376 2.62306 0
M  V30 3866 C 389.223 5.58506 1.94486 0
M  V30 3867 H 388.153 0.64473 0.390947 0
M  V30 3868 H 390.804 1.81124 0.294328 0
M  V30 3869 H 389.186 2.91874 2.67629 0
M  V30 3870 H 390.36 4.59396 0.359485 0
M  V30 3871 H 388.675 4.13597 0.482324 0
M  V30 3872 H 391.272 4.23687 3.26181 0
M  V30 3873 H 391.615 2.52503 3.3098 0
M  V30 3874 H 392.148 3.48894 1.91097 0
M  V30 3875 H 388.887 6.42422 1.30287 0
M  V30 3876 H 388.407 5.37694 2.65792 0
M  V30 3877 H 390.086 5.95651 2.52605 0
M  V30 3878 N 390.218 -0.567019 1.47046 0
M  V30 3879 C 391.464 -1.32658 1.53394 0
M  V30 3880 C 391.797 -1.93254 0.19148 0
M  V30 3881 O 391.072 -1.77338 -0.798844 0
M  V30 3882 C 391.355 -2.44412 2.64452 0
M  V30 3883 C 391.208 -1.88749 4.08282 0
M  V30 3884 C 392.527 -3.46387 2.71485 0
M  V30 3885 H 389.646 -0.48098 0.558415 0
M  V30 3886 H 392.288 -0.635481 1.79058 0
M  V30 3887 H 390.438 -3.03363 2.427 0
M  V30 3888 H 392.11 -1.34134 4.41368 0
M  V30 3889 H 390.353 -1.19481 4.17021 0
M  V30 3890 H 391.024 -2.69491 4.81745 0
M  V30 3891 H 393.5 -2.9734 2.91081 0
M  V30 3892 H 392.376 -4.2202 3.50985 0
M  V30 3893 H 392.637 -4.04616 1.78153 0
M  V30 3894 N 391.696 -1.35014 -0.812953 0
M  V30 3895 C 392.606 -1.2951 -1.95613 0
M  V30 3896 C 393.622 -0.20107 -1.72834 0
M  V30 3897 O 394.798 -0.42932 -1.96771 0
M  V30 3898 C 391.863 -1.06033 -3.30088 0
M  V30 3899 C 390.924 -2.24688 -3.65805 0
M  V30 3900 C 390.157 -2.02322 -4.93864 0
M  V30 3901 O 390.38 -0.986464 -5.61805 0
M  V30 3902 O 389.314 -2.89525 -5.27692 0
M  V30 3903 H 393.14 -2.25705 -2.03202 0
M  V30 3904 H 390.725 -1.15321 -0.949811 0
M  V30 3905 H 392.607 -0.94763 -4.10607 0
M  V30 3906 H 391.282 -0.128852 -3.23443 0
M  V30 3907 H 390.189 -2.41521 -2.85689 0
M  V30 3908 H 391.522 -3.16261 -3.77147 0
M  V30 3909 N 393.175 1.03435 -1.18907 0
M  V30 3910 C 394.138 2.09756 -0.923844 0
M  V30 3911 C 395.138 1.60528 0.093416 0
M  V30 3912 O 396.328 1.73631 -0.140727 0
M  V30 3913 C 393.46 3.38692 -0.387354 0
M  V30 3914 H 394.653 2.34719 -1.86674 0
M  V30 3915 H 392.206 1.19959 -1.00197 0
M  V30 3916 H 392.941 3.19396 0.561845 0
M  V30 3917 H 392.726 3.75742 -1.12074 0
M  V30 3918 H 394.216 4.17016 -0.220694 0
M  V30 3919 N 394.653 0.992116 1.22453 0
M  V30 3920 C 395.616 0.546883 2.2258 0
M  V30 3921 C 396.616 -0.369829 1.56489 0
M  V30 3922 O 397.806 -0.161896 1.73446 0
M  V30 3923 C 394.938 -0.204659 3.40285 0
M  V30 3924 H 396.131 1.43234 2.63484 0
M  V30 3925 H 393.684 0.779239 1.3549 0
M  V30 3926 H 394.419 -1.10614 3.04853 0
M  V30 3927 H 394.204 0.45354 3.89468 0
M  V30 3928 H 395.694 -0.504358 4.14543 0
M  V30 3929 N 396.131 -1.37776 0.765217 0
M  V30 3930 C 397.041 -2.34135 0.147666 0
M  V30 3931 C 398.057 -1.59854 -0.687215 0
M  V30 3932 O 399.233 -1.91983 -0.608659 0
M  V30 3933 C 396.298 -3.3901 -0.72617 0
M  V30 3934 C 395.359 -4.2912 0.124417 0
M  V30 3935 C 394.592 -5.28986 -0.707807 0
M  V30 3936 O 394.815 -5.36205 -1.94525 0
M  V30 3937 O 393.749 -6.01779 -0.12046 0
M  V30 3938 H 397.575 -2.88664 0.943758 0
M  V30 3939 H 395.16 -1.39824 0.526277 0
M  V30 3940 H 397.042 -4.03195 -1.22524 0
M  V30 3941 H 395.717 -2.86819 -1.50056 0
M  V30 3942 H 394.624 -3.68057 0.669696 0
M  V30 3943 H 395.957 -4.84598 0.861736 0
M  V30 3944 N 397.609 -0.515225 -1.4894 0
M  V30 3945 C 399.02 -0.0710067 -1.86565 0
M  V30 3946 C 399.371 1.34733 -1.42623 0
M  V30 3947 O 398.496 2.00653 -0.810379 0
M  V30 3948 C 399.091 -0.122083 -3.3858 0
M  V30 3949 C 397.65 0.266863 -3.75453 0
M  V30 3950 C 396.797 -0.488376 -2.72966 0
M  V30 3951 H 399.748 -0.727266 -1.41055 0
M  V30 3952 H 399.769 0.669818 -3.74558 0
M  V30 3953 H 399.281 -1.15448 -3.70531 0
M  V30 3954 H 397.382 1.30196 -3.49113 0
M  V30 3955 H 397.495 -0.0624811 -4.79059 0
M  V30 3956 H 395.859 0.0635622 -2.54621 0
M  V30 3957 H 396.642 -1.52113 -3.07761 0
M  V30 3958 N 399.087 1.5561 -0.249682 0
M  V30 3959 C 400.335 1.98618 0.373548 0
M  V30 3960 C 400.656 1.13919 1.58264 0
M  V30 3961 O 399.926 0.222637 1.94631 0
M  V30 3962 H 398.506 0.733571 0.141006 0
M  V30 3963 H 401.168 1.91748 -0.349117 0
M  V30 3964 H 400.264 3.04584 0.680796 0
M  V30 3965 N 400.565 -0.0233959 1.57583 0
M  V30 3966 C 401.475 -1.03907 2.10334 0
M  V30 3967 C 402.491 -1.39257 1.04323 0
M  V30 3968 O 403.667 -1.48462 1.36091 0
M  V30 3969 C 400.732 -2.31938 2.57693 0
M  V30 3970 C 399.793 -2.03117 3.78209 0
M  V30 3971 C 399.026 -3.25043 4.233 0
M  V30 3972 O 399.249 -4.35916 3.67876 0
M  V30 3973 O 398.183 -3.10411 5.15683 0
M  V30 3974 H 402.009 -0.620748 2.97288 0
M  V30 3975 H 399.594 -0.240743 1.47448 0
M  V30 3976 H 401.476 -3.07196 2.88458 0
M  V30 3977 H 400.151 -2.73055 1.73847 0
M  V30 3978 H 399.058 -1.25408 3.52454 0
M  V30 3979 H 400.391 -1.66852 4.63056 0
M  V30 3980 N 402.043 -1.548 -0.295768 0
M  V30 3981 C 403.291 -1.73985 -1.02828 0
M  V30 3982 C 403.612 -0.531406 -1.87619 0
M  V30 3983 O 402.882 0.454221 -1.90561 0
M  V30 3984 H 401.462 -0.641556 -0.382642 0
M  V30 3985 H 404.124 -1.92163 -0.325489 0
M  V30 3986 H 403.22 -2.63129 -1.67838 0
M  V30 3987 N 403.521 0.559213 -1.47345 0
M  V30 3988 C 404.769 1.31388 -1.53563 0
M  V30 3989 C 405.09 1.93985 -0.198678 0
M  V30 3990 O 404.36 1.79825 0.777167 0
M  V30 3991 H 402.94 0.487901 -0.565652 0
M  V30 3992 H 405.602 0.65315 -1.8363 0
M  V30 3993 H 404.698 2.10844 -2.30111 0
M  V30 3994 N 404.999 1.35443 0.805782 0
M  V30 3995 C 406.276 1.19325 1.54987 0
M  V30 3996 C 406.656 -0.227294 2.09873 0
M  V30 3997 O 406.004 -1.2309 1.92512 0
M  V30 3998 C 406.214 2.26196 2.65775 0
M  V30 3999 C 407.562 2.62043 3.34094 0
M  V30 4000 O 408.586 2.25115 2.76046 0
M  V30 4001 O 407.445 3.25542 4.38958 0
M  V30 4002 H 404.539 0.463623 0.684823 0
M  V30 4003 H 407.085 1.47127 0.845674 0
M  V30 4004 H 405.857 3.21471 2.23096 0
M  V30 4005 H 405.48 1.99667 3.43829 0
M  V30 4006 N 406.477 -1.02803 1.19454 0
M  V30 4007 C 407.725 -1.75869 0.995722 0
M  V30 4008 C 408.046 -1.89138 -0.474543 0
M  V30 4009 O 407.316 -1.42558 -1.34366 0
M  V30 4010 H 405.896 -0.651511 0.365435 0
M  V30 4011 H 408.558 -1.24004 1.50363 0
M  V30 4012 H 407.654 -2.76661 1.44447 0
M  V30 4013 N 407.956 -0.998596 -1.21925 0
M  V30 4014 C 408.919 -0.558679 -2.22287 0
M  V30 4015 C 409.919 0.361525 -1.56683 0
M  V30 4016 O 411.109 0.152695 -1.73529 0
M  V30 4017 C 408.241 0.18661 -3.40389 0
M  V30 4018 H 409.434 -1.4463 -2.62721 0
M  V30 4019 H 406.987 -0.786413 -1.35075 0
M  V30 4020 H 407.722 1.08996 -3.05435 0
M  V30 4021 H 407.507 -0.474188 -3.89222 0
M  V30 4022 H 408.997 0.482367 -4.14805 0
M  V30 4023 N 409.434 1.37368 -0.772513 0
M  V30 4024 C 410.711 1.93839 -0.26188 0
M  V30 4025 C 411.091 1.7061 1.24319 0
M  V30 4026 O 410.439 1.05534 2.02669 0
M  V30 4027 C 410.649 3.43154 -0.636102 0
M  V30 4028 C 411.997 4.20249 -0.606324 0
M  V30 4029 O 413.021 3.5152 -0.575538 0
M  V30 4030 O 411.88 5.42809 -0.634086 0
M  V30 4031 H 408.974 0.82478 -0.0605555 0
M  V30 4032 H 411.52 1.4665 -0.853917 0
M  V30 4033 H 410.292 3.53647 -1.6748 0
M  V30 4034 H 409.915 3.97596 -0.0170516 0
M  V30 4035 N 410.912 0.523116 1.48665 0
M  V30 4036 C 412.16 -0.0134497 2.02096 0
M  V30 4037 C 412.481 -1.35418 1.40311 0
M  V30 4038 O 411.751 -1.87543 0.566074 0
M  V30 4039 H 410.331 -0.00795915 0.746958 0
M  V30 4040 H 412.993 0.685388 1.82451 0
M  V30 4041 H 412.089 -0.126849 3.11842 0
M  V30 4042 N 412.39 -1.55475 0.257931 0
M  V30 4043 C 413.615 -2.04064 -0.370488 0
M  V30 4044 C 414.04 -1.13565 -1.49948 0
M  V30 4045 O 413.398 -0.130781 -1.80828 0
M  V30 4046 C 413.446 -3.50554 -0.845237 0
M  V30 4047 O 412.55 -3.63173 -1.95394 0
M  V30 4048 H 411.891 -0.659257 -0.0792243 0
M  V30 4049 H 414.421 -2.00903 0.387212 0
M  V30 4050 H 414.431 -3.91588 -1.14555 0
M  V30 4051 H 413.106 -4.15896 -0.0191259 0
M  V30 4052 H 411.683 -3.34039 -1.65748 0
M  V30 4053 N 413.868 0.0150385 -1.57593 0
M  V30 4054 C 414.831 0.995996 -2.06428 0
M  V30 4055 C 415.831 1.2818 -0.970903 0
M  V30 4056 O 417.021 1.22949 -1.23406 0
M  V30 4057 C 414.153 2.32506 -2.49307 0
M  V30 4058 H 415.346 0.573873 -2.94358 0
M  V30 4059 H 412.899 0.262186 -1.54085 0
M  V30 4060 H 413.634 2.79438 -1.64575 0
M  V30 4061 H 413.419 2.13087 -3.29145 0
M  V30 4062 H 414.909 3.02906 -2.87468 0
M  V30 4063 N 415.346 1.54954 0.287554 0
M  V30 4064 C 416.309 1.86076 1.33823 0
M  V30 4065 C 417.309 0.734414 1.43049 0
M  V30 4066 O 418.499 1.00266 1.42452 0
M  V30 4067 C 415.631 2.05305 2.72144 0
M  V30 4068 H 416.824 2.79984 1.07465 0
M  V30 4069 H 414.377 1.47223 0.524902 0
M  V30 4070 H 415.112 1.1373 3.03704 0
M  V30 4071 H 414.897 2.873 2.66836 0
M  V30 4072 H 416.387 2.30706 3.48087 0
M  V30 4073 N 416.824 -0.551391 1.4764 0
M  V30 4074 C 418.07 -1.31024 1.54792 0
M  V30 4075 C 418.403 -1.9304 0.211967 0
M  V30 4076 O 417.678 -1.78175 -0.77999 0
M  V30 4077 C 417.961 -2.41593 2.67029 0
M  V30 4078 C 417.814 -1.84408 4.10261 0
M  V30 4079 C 419.133 -3.43488 2.75143 0
M  V30 4080 H 416.252 -0.475031 0.563485 0
M  V30 4081 H 418.894 -0.616454 1.79722 0
M  V30 4082 H 417.044 -3.00772 2.45904 0
M  V30 4083 H 418.716 -1.29445 4.42766 0
M  V30 4084 H 416.959 -1.15051 4.18265 0
M  V30 4085 H 417.63 -2.64367 4.84576 0
M  V30 4086 H 420.106 -2.94236 2.94218 0
M  V30 4087 H 418.982 -4.18274 3.55441 0
M  V30 4088 H 419.243 -4.02703 1.82435 0
M  V30 4089 N 418.302 -1.35869 -0.798587 0
M  V30 4090 C 419.55 -1.29332 -1.55298 0
M  V30 4091 C 419.871 0.129729 -1.94568 0
M  V30 4092 O 419.141 1.06796 -1.6423 0
M  V30 4093 H 417.721 -0.475737 -0.57592 0
M  V30 4094 H 420.383 -1.70062 -0.952093 0
M  V30 4095 H 419.479 -1.91458 -2.46476 0
M  V30 4096 N 419.78 1.02168 -1.19998 0
M  V30 4097 C 421.191 1.57135 -1.00825 0
M  V30 4098 C 421.542 1.91276 0.436818 0
M  V30 4099 O 420.667 1.71679 1.3174 0
M  V30 4100 C 421.262 2.85514 -1.82393 0
M  V30 4101 C 419.821 3.37027 -1.67601 0
M  V30 4102 C 418.968 2.10388 -1.80644 0
M  V30 4103 H 421.919 0.846106 -1.34264 0
M  V30 4104 H 421.94 3.56711 -1.32429 0
M  V30 4105 H 421.452 2.60634 -2.87561 0
M  V30 4106 H 419.553 3.66878 -0.650485 0
M  V30 4107 H 419.666 4.09572 -2.4857 0
M  V30 4108 H 418.03 2.22601 -1.23778 0
M  V30 4109 H 418.813 1.8794 -2.87286 0
M  V30 4110 N 421.258 1.00505 1.21394 0
M  V30 4111 C 422.506 0.686415 1.90086 0
M  V30 4112 C 422.827 -0.785264 1.7849 0
M  V30 4113 O 422.097 -1.56387 1.17983 0
M  V30 4114 H 420.677 0.2509 0.703604 0
M  V30 4115 H 423.339 1.27417 1.47482 0
M  V30 4116 H 422.435 0.959621 2.96981 0
M  V30 4117 N 422.737 -1.36956 0.779787 0
M  V30 4118 C 424.153 -1.52817 0.460342 0
M  V30 4119 C 424.353 -1.7361 -1.02283 0
M  V30 4120 O 423.409 -1.76207 -1.80852 0
M  V30 4121 C 424.722 -2.71983 1.28241 0
M  V30 4122 C 426.27 -2.85849 1.27512 0
M  V30 4123 C 426.745 -4.08008 2.08072 0
M  V30 4124 N 428.236 -4.15135 2.05467 0
M  V30 4125 C 428.971 -5.08711 2.64577 0
M  V30 4126 N 428.467 -6.07792 3.32506 0
M  V30 4127 N 430.26 -5.01254 2.54363 0
M  V30 4128 H 422.411 -1.21713 1.74068 0
M  V30 4129 H 424.674 -0.593294 0.739396 0
M  V30 4130 H 424.38 -2.63109 2.33381 0
M  V30 4131 H 424.254 -3.65882 0.917088 0
M  V30 4132 H 426.641 -2.94189 0.231686 0
M  V30 4133 H 426.722 -1.92886 1.68014 0
M  V30 4134 H 426.366 -4.00429 3.12441 0
M  V30 4135 H 426.296 -5.001 1.64947 0
M  V30 4136 H 428.787 -3.44189 1.5602 0
M  V30 4137 H 429.1 -6.75739 3.74963 0
M  V30 4138 H 427.445 -6.08047 3.36606 0
M  V30 4139 H 430.636 -4.22795 2.00902 0
M  V30 4140 H 430.809 -5.73995 3.00722 0
M  V30 4141 N 424.215 -0.530993 -1.48385 0
M  V30 4142 C 425.125 0.23503 -2.3342 0
M  V30 4143 C 426.141 0.93801 -1.46552 0
M  V30 4144 O 427.317 0.912745 -1.7953 0
M  V30 4145 C 424.382 1.26778 -3.22689 0
M  V30 4146 C 423.443 0.575038 -4.25431 0
M  V30 4147 C 422.676 1.55858 -5.10435 0
M  V30 4148 O 422.899 2.79129 -4.97437 0
M  V30 4149 O 421.833 1.09742 -5.91811 0
M  V30 4150 H 425.659 -0.461794 -3.00169 0
M  V30 4151 H 423.244 -0.291903 -1.46521 0
M  V30 4152 H 425.126 1.86457 -3.77904 0
M  V30 4153 H 423.801 1.94699 -2.586 0
M  V30 4154 H 422.708 -0.0622782 -3.74048 0
M  V30 4155 H 424.041 -0.062253 -4.92161 0
M  V30 4156 N 425.693 1.55336 -0.266172 0
M  V30 4157 C 426.921 2.03801 0.356756 0
M  V30 4158 C 427.336 1.14485 1.50129 0
M  V30 4159 O 426.693 0.163121 1.8177 0
M  V30 4160 C 426.744 3.51455 0.846281 0
M  V30 4161 O 426.465 4.37371 -0.252663 0
M  V30 4162 C 427.966 4.15767 1.53794 0
M  V30 4163 H 425.186 0.665906 0.0825218 0
M  V30 4164 H 427.73 2.00636 -0.39566 0
M  V30 4165 H 425.885 3.55092 1.54881 0
M  V30 4166 H 426.299 5.24358 0.122173 0
M  V30 4167 H 427.773 5.20714 1.83198 0
M  V30 4168 H 428.25 3.63404 2.46646 0
M  V30 4169 H 428.856 4.16107 0.879488 0
M  V30 4170 N 427.171 -0.0066808 1.57599 0
M  V30 4171 C 428.103 -1.02827 2.04839 0
M  V30 4172 C 429.116 -1.31108 0.965113 0
M  V30 4173 O 430.305 -1.28202 1.24203 0
M  V30 4174 C 427.405 -2.36464 2.42771 0
M  V30 4175 C 426.578 -2.27219 3.73751 0
M  V30 4176 C 425.637 -3.43489 3.98625 0
M  V30 4177 O 424.663 -3.21976 4.69382 0
M  V30 4178 N 425.865 -4.66116 3.46 0
M  V30 4179 H 428.63 -0.625455 2.93101 0
M  V30 4180 H 426.191 -0.194198 1.60731 0
M  V30 4181 H 428.183 -3.13008 2.56531 0
M  V30 4182 H 426.753 -2.68512 1.60063 0
M  V30 4183 H 425.973 -1.35629 3.70133 0
M  V30 4184 H 427.261 -2.18208 4.59633 0
M  V30 4185 H 426.659 -4.86493 2.88688 0
M  V30 4186 H 425.216 -5.39949 3.65101 0
M  V30 4187 N 428.649 -1.55105 -0.279332 0
M  V30 4188 C 429.612 -1.86783 -1.32834 0
M  V30 4189 C 430.612 -0.74199 -1.42657 0
M  V30 4190 O 431.802 -1.0102 -1.41918 0
M  V30 4191 C 428.934 -2.06746 -2.71052 0
M  V30 4192 H 430.127 -2.8055 -1.05979 0
M  V30 4193 H 427.68 -1.47499 -0.517087 0
M  V30 4194 H 428.415 -1.15339 -3.03097 0
M  V30 4195 H 428.2 -2.88711 -2.65309 0
M  V30 4196 H 429.69 -2.32549 -3.46858 0
M  V30 4197 N 430.127 0.543554 -1.4793 0
M  V30 4198 C 431.355 1.32516 -1.58894 0
M  V30 4199 C 431.77 1.87215 -0.244131 0
M  V30 4200 O 431.127 1.65709 0.764652 0
M  V30 4201 C 431.178 2.48554 -2.62494 0
M  V30 4202 O 430.899 1.96112 -3.91755 0
M  V30 4203 C 432.4 3.40572 -2.8377 0
M  V30 4204 H 429.62 0.403472 -0.536145 0
M  V30 4205 H 432.164 0.657106 -1.93655 0
M  V30 4206 H 430.319 3.1127 -2.30629 0
M  V30 4207 H 430.733 2.71967 -4.4848 0
M  V30 4208 H 432.207 4.18375 -3.60093 0
M  V30 4209 H 432.684 3.94965 -1.92092 0
M  V30 4210 H 433.29 2.8366 -3.16887 0
M  V30 4211 N 431.605 1.3629 0.791371 0
M  V30 4212 C 433.016 1.27225 1.36641 0
M  V30 4213 C 433.367 -0.0887968 1.95999 0
M  V30 4214 O 432.492 -0.990207 1.92416 0
M  V30 4215 C 433.087 2.30375 2.48421 0
M  V30 4216 C 431.646 2.25004 3.01746 0
M  V30 4217 C 430.793 2.15259 1.7481 0
M  V30 4218 H 433.744 1.47198 0.593173 0
M  V30 4219 H 433.765 1.93905 3.27385 0
M  V30 4220 H 433.277 3.29422 2.05189 0
M  V30 4221 H 431.378 1.29417 3.49403 0
M  V30 4222 H 431.491 3.1761 3.58693 0
M  V30 4223 H 429.855 1.61482 1.96966 0
M  V30 4224 H 430.638 3.16191 1.33709 0
M  V30 4225 N 433.083 -1.0153 1.20538 0
M  V30 4226 C 433.993 -2.13557 0.971113 0
M  V30 4227 C 435.009 -1.73845 -0.0734366 0
M  V30 4228 O 436.185 -2.01075 0.114299 0
M  V30 4229 C 433.25 -3.42661 0.527639 0
M  V30 4230 C 432.311 -3.96608 1.64319 0
M  V30 4231 C 431.544 -5.1955 1.22078 0
M  V30 4232 O 431.767 -5.70329 0.0900198 0
M  V30 4233 O 430.701 -5.66681 2.02871 0
M  V30 4234 H 434.527 -2.3619 1.90913 0
M  V30 4235 H 432.112 -1.11946 0.989362 0
M  V30 4236 H 433.994 -4.20404 0.289621 0
M  V30 4237 H 432.669 -3.21441 -0.381779 0
M  V30 4238 H 431.576 -3.20139 1.93551 0
M  V30 4239 H 432.909 -4.22219 2.52966 0
M  V30 4240 N 434.561 -1.01147 -1.20859 0
M  V30 4241 C 435.786 -0.716698 -1.94623 0
M  V30 4242 C 436.211 0.715415 -1.73964 0
M  V30 4243 O 435.569 1.49157 -1.03062 0
M  V30 4244 C 435.617 -1.0513 -3.44935 0
M  V30 4245 O 434.721 -0.160131 -4.12089 0
M  V30 4246 H 434.062 -0.266404 -0.608214 0
M  V30 4247 H 436.592 -1.35346 -1.53436 0
M  V30 4248 H 436.602 -1.00086 -3.95533 0
M  V30 4249 H 435.277 -2.09475 -3.59295 0
M  V30 4250 H 433.854 -0.267657 -3.71938 0
M  V30 4251 N 436.039 1.36541 -0.78704 0
M  V30 4252 C 437.287 1.98911 -0.357633 0
M  V30 4253 C 437.608 1.62778 1.07371 0
M  V30 4254 O 436.878 0.900612 1.73971 0
M  V30 4255 H 435.458 0.735734 -0.129246 0
M  V30 4256 H 438.12 1.66776 -1.00855 0
M  V30 4257 H 437.216 3.08874 -0.447549 0
M  V30 4258 N 437.518 0.538854 1.48102 0
M  V30 4259 C 438.465 -0.219042 2.29758 0
M  V30 4260 C 439.435 -0.925562 1.37922 0
M  V30 4261 O 440.62 -0.924855 1.66886 0
M  V30 4262 C 437.76 -1.25452 3.2149 0
M  V30 4263 C 436.873 -0.555943 4.28408 0
M  V30 4264 C 436.008 -1.57512 5.0731 0
M  V30 4265 C 435.047 -0.860498 6.06021 0
M  V30 4266 N 434.184 -1.82564 6.77949 0
M  V30 4267 H 439.024 0.483449 2.94052 0
M  V30 4268 H 436.561 0.250247 1.44956 0
M  V30 4269 H 438.519 -1.86727 3.7308 0
M  V30 4270 H 437.149 -1.92528 2.591 0
M  V30 4271 H 436.201 0.170938 3.80016 0
M  V30 4272 H 437.513 0.00474616 4.988 0
M  V30 4273 H 436.667 -2.26191 5.62959 0
M  V30 4274 H 435.406 -2.16972 4.36778 0
M  V30 4275 H 434.411 -0.159686 5.49568 0
M  V30 4276 H 435.636 -0.271897 6.78555 0
M  V30 4277 H 433.582 -2.40915 6.10161 0
M  V30 4278 H 433.499 -1.31662 7.44447 0
M  V30 4279 H 434.767 -2.50414 7.38182 0
M  V30 4280 N 438.996 -1.55193 0.274407 0
M  V30 4281 C 439.928 -2.1989 -0.646595 0
M  V30 4282 C 440.941 -1.1834 -1.11801 0
M  V30 4283 O 442.13 -1.4507 -1.04004 0
M  V30 4284 C 439.23 -2.8104 -1.89393 0
M  V30 4285 C 438.403 -4.08274 -1.56943 0
M  V30 4286 C 437.462 -4.53478 -2.66916 0
M  V30 4287 O 436.488 -5.19267 -2.33132 0
M  V30 4288 N 437.69 -4.2356 -3.9696 0
M  V30 4289 H 440.455 -2.99556 -0.0928686 0
M  V30 4290 H 438.016 -1.61618 0.0954783 0
M  V30 4291 H 440.008 -3.08226 -2.62257 0
M  V30 4292 H 438.578 -2.05372 -2.35672 0
M  V30 4293 H 437.798 -3.88384 -0.674655 0
M  V30 4294 H 439.086 -4.91173 -1.32764 0
M  V30 4295 H 438.484 -3.70799 -4.27229 0
M  V30 4296 H 437.041 -4.55518 -4.66205 0
M  V30 4297 N 440.474 -0.00167713 -1.576 0
M  V30 4298 C 441.702 0.693759 -1.94922 0
M  V30 4299 C 442.117 1.67215 -0.876626 0
M  V30 4300 O 441.474 1.81929 0.144279 0
M  V30 4301 C 441.525 1.42416 -3.32265 0
M  V30 4302 O 441.246 0.485014 -4.35407 0
M  V30 4303 C 442.747 2.21395 -3.84056 0
M  V30 4304 H 439.967 0.193118 -0.642609 0
M  V30 4305 H 442.511 -0.0532952 -2.04431 0
M  V30 4306 H 440.666 2.12284 -3.24059 0
M  V30 4307 H 441.08 1.00053 -5.14868 0
M  V30 4308 H 442.554 2.67996 -4.82578 0
M  V30 4309 H 443.031 3.04142 -3.16851 0
M  V30 4310 H 443.637 1.56542 -3.95443 0
M  V30 4311 N 441.952 1.55251 0.271103 0
M  V30 4312 C 442.882 1.9127 1.33933 0
M  V30 4313 C 443.863 0.77478 1.5143 0
M  V30 4314 O 445.048 1.03307 1.64442 0
M  V30 4315 C 442.178 2.18627 2.69851 0
M  V30 4316 C 441.132 3.34442 2.67081 0
M  V30 4317 C 440.458 3.47284 4.06569 0
M  V30 4318 C 441.758 4.70784 2.26185 0
M  V30 4319 H 443.452 2.80744 1.04035 0
M  V30 4320 H 440.998 1.35077 0.499017 0
M  V30 4321 H 442.951 2.42413 3.44694 0
M  V30 4322 H 441.675 1.25955 3.01335 0
M  V30 4323 H 440.334 3.10627 1.94695 0
M  V30 4324 H 439.982 2.52074 4.35279 0
M  V30 4325 H 439.682 4.25152 4.0561 0
M  V30 4326 H 441.206 3.73363 4.83148 0
M  V30 4327 H 442.62 4.94102 2.90751 0
M  V30 4328 H 441.017 5.51582 2.36384 0
M  V30 4329 H 442.087 4.69478 1.21319 0
M  V30 4330 N 443.43 -0.535701 1.48216 0
M  V30 4331 C 444.377 -1.64083 1.62312 0
M  V30 4332 C 445.347 -1.59448 0.465365 0
M  V30 4333 O 446.532 -1.77959 0.688135 0
M  V30 4334 C 443.672 -3.0236 1.66349 0
M  V30 4335 C 442.785 -3.17273 2.93193 0
M  V30 4336 C 441.92 -4.46075 2.88427 0
M  V30 4337 C 440.959 -4.54496 4.1 0
M  V30 4338 N 440.096 -5.7468 4.03345 0
M  V30 4339 H 444.936 -1.51374 2.5669 0
M  V30 4340 H 442.473 -0.737059 1.27302 0
M  V30 4341 H 444.431 -3.82461 1.66672 0
M  V30 4342 H 443.061 -3.13854 0.754672 0
M  V30 4343 H 442.113 -2.30462 3.02641 0
M  V30 4344 H 443.425 -3.19357 3.83162 0
M  V30 4345 H 442.579 -5.3446 2.87119 0
M  V30 4346 H 441.318 -4.46504 1.96177 0
M  V30 4347 H 440.323 -3.64519 4.11589 0
M  V30 4348 H 441.548 -4.5581 5.03402 0
M  V30 4349 H 439.494 -5.76017 3.13912 0
M  V30 4350 H 439.411 -5.78234 4.87013 0
M  V30 4351 H 440.679 -6.65367 4.06087 0
M  V30 4352 N 444.908 -1.36708 -0.784132 0
M  V30 4353 C 446.157 -1.30559 -1.53744 0
M  V30 4354 C 446.47 0.111374 -1.95283 0
M  V30 4355 O 447.676 0.29527 -2.6989 0
M  V30 4356 C 446.132 -2.29098 -2.77565 0
M  V30 4357 C 445.74 -3.76258 -2.43174 0
M  V30 4358 C 447.484 -2.31936 -3.55536 0
M  V30 4359 C 445.391 -4.6656 -3.63422 0
M  V30 4360 H 444.321 -0.48518 -0.577162 0
M  V30 4361 H 446.972 -1.62101 -0.859981 0
M  V30 4362 H 445.354 -1.90557 -3.47137 0
M  V30 4363 H 446.528 -4.23565 -1.81465 0
M  V30 4364 H 444.843 -3.76246 -1.78403 0
M  V30 4365 H 447.44 -2.9661 -4.44889 0
M  V30 4366 H 447.783 -1.3294 -3.94503 0
M  V30 4367 H 448.316 -2.6912 -2.92949 0
M  V30 4368 H 445.055 -5.66638 -3.29547 0
M  V30 4369 H 444.575 -4.23966 -4.24279 0
M  V30 4370 H 446.254 -4.8309 -4.30387 0
M  V30 4371 N 446.386 1.0089 -1.21074 0
M  V30 4372 C 447.633 1.74607 -1.0256 0
M  V30 4373 C 447.961 1.89426 0.44136 0
M  V30 4374 O 447.216 1.42266 1.34384 0
M  V30 4375 C 447.515 3.16335 -1.66334 0
M  V30 4376 C 447.181 3.21474 -3.16173 0
M  V30 4377 C 445.843 3.22583 -3.57062 0
M  V30 4378 C 448.195 3.19025 -4.12156 0
M  V30 4379 C 445.523 3.18925 -4.92446 0
M  V30 4380 C 447.875 3.16909 -5.47496 0
M  V30 4381 C 446.539 3.16326 -5.87787 0
M  V30 4382 H 445.809 0.638933 -0.375294 0
M  V30 4383 H 448.456 1.18274 -1.50611 0
M  V30 4384 H 446.761 3.75876 -1.10566 0
M  V30 4385 H 448.458 3.72083 -1.49516 0
M  V30 4386 H 445.048 3.2135 -2.83605 0
M  V30 4387 H 449.232 3.17332 -3.81595 0
M  V30 4388 H 444.488 3.16809 -5.22917 0
M  V30 4389 H 448.662 3.13968 -6.21609 0
M  V30 4390 H 446.289 3.13246 -6.92662 0
M  V30 4391 N 447.864 1.01787 1.20321 0
M  V30 4392 C 449.141 0.622978 1.85414 0
M  V30 4393 C 449.521 -0.898887 1.91006 0
M  V30 4394 O 448.869 -1.79112 1.41884 0
M  V30 4395 C 449.079 1.27226 3.24984 0
M  V30 4396 C 450.427 1.3885 4.01255 0
M  V30 4397 O 451.451 1.22857 3.34342 0
M  V30 4398 O 450.31 1.64705 5.2109 0
M  V30 4399 H 447.404 0.215116 0.798533 0
M  V30 4400 H 449.95 1.11533 1.27901 0
M  V30 4401 H 448.722 2.31209 3.15687 0
M  V30 4402 H 448.345 0.767069 3.90131 0
M  V30 4403 N 449.342 -1.36122 0.79427 0
M  V30 4404 C 450.59 -1.98718 0.368177 0
M  V30 4405 C 450.911 -1.63345 -1.06506 0
M  V30 4406 O 450.181 -0.909825 -1.73491 0
M  V30 4407 H 448.761 -0.735038 0.133146 0
M  V30 4408 H 451.423 -1.66239 1.01739 0
M  V30 4409 H 450.519 -3.08633 0.463923 0
M  V30 4410 N 450.82 -0.546701 -1.47814 0
M  V30 4411 C 452.097 0.0464413 -1.95545 0
M  V30 4412 C 452.477 1.4962 -1.48919 0
M  V30 4413 O 451.825 2.16752 -0.723232 0
M  V30 4414 C 452.035 -0.0881298 -3.48889 0
M  V30 4415 C 453.383 0.0626059 -4.24554 0
M  V30 4416 O 454.407 -0.0151555 -3.56197 0
M  V30 4417 O 453.266 0.228071 -5.46024 0
M  V30 4418 H 450.36 0.0700004 -0.824032 0
M  V30 4419 H 452.906 -0.612482 -1.58262 0
M  V30 4420 H 451.678 -1.09737 -3.75597 0
M  V30 4421 H 451.301 0.608886 -3.9291 0
M  V30 4422 N 452.299 1.55045 -0.282633 0
M  V30 4423 C 453.576 1.9179 0.384166 0
M  V30 4424 C 453.956 1.20778 1.73136 0
M  V30 4425 O 453.304 0.33719 2.25998 0
M  V30 4426 C 453.514 3.45149 0.517014 0
M  V30 4427 C 454.862 4.17064 0.796427 0
M  V30 4428 O 455.886 3.51084 0.601535 0
M  V30 4429 O 454.745 5.33837 1.16962 0
M  V30 4430 H 451.839 0.799483 0.211558 0
M  V30 4431 H 454.385 1.66474 -0.32934 0
M  V30 4432 H 453.157 3.88922 -0.430772 0
M  V30 4433 H 452.78 3.76443 1.2797 0
M  V30 4434 N 453.777 0.010035 1.57597 0
M  V30 4435 C 454.74 -0.963029 2.07986 0
M  V30 4436 C 455.74 -1.26619 0.991173 0
M  V30 4437 O 456.93 -1.2097 1.25347 0
M  V30 4438 C 454.062 -2.2851 2.52974 0
M  V30 4439 H 455.255 -0.526971 2.95234 0
M  V30 4440 H 452.808 -0.237639 1.54483 0
M  V30 4441 H 453.543 -2.76784 1.69 0
M  V30 4442 H 453.328 -2.07824 3.32493 0
M  V30 4443 H 454.818 -2.98294 2.9225 0
M  V30 4444 N 455.255 -1.55392 -0.262866 0
M  V30 4445 C 456.501 -1.76737 -0.99458 0
M  V30 4446 C 456.834 -0.572453 -1.85571 0
M  V30 4447 O 456.109 0.429732 -1.89693 0
M  V30 4448 C 456.392 -3.07824 -1.8686 0
M  V30 4449 C 456.245 -4.3769 -1.03672 0
M  V30 4450 C 457.564 -3.35021 -2.85393 0
M  V30 4451 H 454.683 -0.643005 -0.360157 0
M  V30 4452 H 457.325 -1.88126 -0.266216 0
M  V30 4453 H 455.475 -2.98245 -2.48962 0
M  V30 4454 H 457.147 -4.59238 -0.43563 0
M  V30 4455 H 455.39 -4.32461 -0.340513 0
M  V30 4456 H 456.061 -5.25759 -1.6817 0
M  V30 4457 H 458.537 -3.44458 -2.33426 0
M  V30 4458 H 457.413 -4.27989 -3.43681 0
M  V30 4459 H 457.674 -2.55153 -3.61039 0
M  V30 4460 N 456.733 0.527833 -1.48498 0
M  V30 4461 C 458.149 0.856571 -1.34666 0
M  V30 4462 C 458.349 1.98271 -0.35931 0
M  V30 4463 O 457.405 2.51551 0.218703 0
M  V30 4464 C 458.718 1.22207 -2.74747 0
M  V30 4465 C 460.266 1.33183 -2.83251 0
M  V30 4466 C 460.741 1.73075 -4.24039 0
M  V30 4467 N 462.232 1.80174 -4.26722 0
M  V30 4468 C 462.967 2.1243 -5.32598 0
M  V30 4469 N 462.463 2.43096 -6.4875 0
M  V30 4470 N 464.256 2.13454 -5.19994 0
M  V30 4471 H 456.407 -0.215174 -2.11307 0
M  V30 4472 H 458.67 -0.0336281 -0.947403 0
M  V30 4473 H 458.376 0.468195 -3.4857 0
M  V30 4474 H 458.25 2.17173 -3.08409 0
M  V30 4475 H 460.637 2.07647 -2.09683 0
M  V30 4476 H 460.718 0.363333 -2.53206 0
M  V30 4477 H 460.362 0.991712 -4.98124 0
M  V30 4478 H 460.292 2.70979 -4.51529 0
M  V30 4479 H 462.783 1.58744 -3.42942 0
M  V30 4480 H 463.096 2.6682 -7.25277 0
M  V30 4481 H 461.441 2.40611 -6.52021 0
M  V30 4482 H 464.632 1.88956 -4.28268 0
M  V30 4483 H 464.805 2.38261 -6.02608 0
M  V30 4484 N 458.211 1.37122 0.776871 0
M  V30 4485 C 459.627 1.1781 1.07671 0
M  V30 4486 C 459.827 0.0107454 2.01497 0
M  V30 4487 O 458.883 -0.650756 2.4397 0
M  V30 4488 C 460.196 2.49451 1.67913 0
M  V30 4489 C 461.744 2.55927 1.80195 0
M  V30 4490 C 462.219 3.87686 2.43851 0
M  V30 4491 N 463.71 3.891 2.51307 0
M  V30 4492 C 464.445 4.87797 3.014 0
M  V30 4493 N 463.941 5.96888 3.51705 0
M  V30 4494 N 465.734 4.75205 3.00227 0
M  V30 4495 H 457.885 2.11843 0.153778 0
M  V30 4496 H 460.148 0.938927 0.130844 0
M  V30 4497 H 459.854 3.35207 1.06439 0
M  V30 4498 H 459.728 2.66169 2.67271 0
M  V30 4499 H 462.115 1.70582 2.40803 0
M  V30 4500 H 462.196 2.43097 0.796069 0
M  V30 4501 H 461.84 4.73444 1.83884 0
M  V30 4502 H 461.77 3.97817 3.45035 0
M  V30 4503 H 464.261 3.10293 2.157 0
M  V30 4504 H 464.574 6.68155 3.88316 0
M  V30 4505 H 462.919 6.0054 3.49824 0
M  V30 4506 H 466.11 3.89103 2.60224 0
M  V30 4507 H 466.283 5.52279 3.38957 0
M  V30 4508 N 459.689 -1.00246 1.21608 0
M  V30 4509 C 460.914 -1.78167 1.06167 0
M  V30 4510 C 461.339 -1.84138 -0.384035 0
M  V30 4511 O 460.697 -1.28683 -1.27712 0
M  V30 4512 C 460.745 -3.19786 1.66642 0
M  V30 4513 O 459.849 -4.02153 0.913613 0
M  V30 4514 H 459.19 -0.549 0.37349 0
M  V30 4515 H 461.72 -1.25994 1.61204 0
M  V30 4516 H 461.73 -3.70451 1.70969 0
M  V30 4517 H 460.405 -3.14754 2.7185 0
M  V30 4518 H 458.982 -3.60711 0.945635 0
M  V30 4519 N 461.167 -1.02423 -1.1978 0
M  V30 4520 C 462.099 -0.559152 -2.22275 0
M  V30 4521 C 463.112 0.36251 -1.58713 0
M  V30 4522 O 464.301 0.159641 -1.77785 0
M  V30 4523 C 461.401 0.205094 -3.38279 0
M  V30 4524 C 460.574 -0.720361 -4.31427 0
M  V30 4525 C 459.633 -0.00234368 -5.262 0
M  V30 4526 O 458.659 -0.627378 -5.65732 0
M  V30 4527 N 459.861 1.26996 -5.66438 0
M  V30 4528 H 462.626 -1.44064 -2.62804 0
M  V30 4529 H 460.187 -0.902692 -1.34399 0
M  V30 4530 H 462.179 0.694868 -3.9869 0
M  V30 4531 H 460.749 0.987947 -2.96578 0
M  V30 4532 H 459.969 -1.39031 -3.68869 0
M  V30 4533 H 461.257 -1.3495 -4.90577 0
M  V30 4534 H 460.655 1.79858 -5.36347 0
M  V30 4535 H 459.212 1.70432 -6.29123 0
M  V30 4536 N 462.645 1.35699 -0.801477 0
M  V30 4537 C 463.892 1.98913 -0.379459 0
M  V30 4538 C 464.22 1.63592 1.05204 0
M  V30 4539 O 463.475 0.888563 1.74365 0
M  V30 4540 C 463.774 3.53828 -0.504041 0
M  V30 4541 C 463.44 4.09002 -1.8981 0
M  V30 4542 C 462.102 4.23783 -2.27951 0
M  V30 4543 C 464.454 4.38939 -2.81038 0
M  V30 4544 C 461.782 4.65816 -3.56696 0
M  V30 4545 C 464.134 4.82409 -4.09224 0
M  V30 4546 C 462.798 4.95395 -4.4737 0
M  V30 4547 H 462.068 0.727874 -0.138854 0
M  V30 4548 H 464.715 1.61994 -1.02128 0
M  V30 4549 H 463.02 3.91175 0.221242 0
M  V30 4550 H 464.717 4.00687 -0.158361 0
M  V30 4551 H 461.307 3.97946 -1.59176 0
M  V30 4552 H 465.491 4.27077 -2.52821 0
M  V30 4553 H 460.747 4.74059 -3.86106 0
M  V30 4554 H 464.921 5.04535 -4.80018 0
M  V30 4555 H 462.548 5.27724 -5.47185 0
M  V30 4556 N 464.123 0.554532 1.47522 0
M  V30 4557 C 465.539 0.214107 1.58157 0
M  V30 4558 C 465.739 -1.28331 1.55349 0
M  V30 4559 O 464.795 -2.06329 1.45549 0
M  V30 4560 C 466.108 0.838391 2.88776 0
M  V30 4561 C 467.656 0.809374 3.02354 0
M  V30 4562 C 468.131 1.41268 4.35669 0
M  V30 4563 N 469.622 1.37574 4.42298 0
M  V30 4564 C 470.357 1.8122 5.4401 0
M  V30 4565 N 469.853 2.3271 6.52547 0
M  V30 4566 N 471.646 1.72307 5.35039 0
M  V30 4567 H 463.797 1.52744 1.4759 0
M  V30 4568 H 466.06 0.636812 0.702264 0
M  V30 4569 H 465.766 1.89065 2.96559 0
M  V30 4570 H 465.64 0.329847 3.75755 0
M  V30 4571 H 468.027 -0.234187 2.94169 0
M  V30 4572 H 468.108 1.35565 2.16924 0
M  V30 4573 H 467.752 2.45529 4.4461 0
M  V30 4574 H 467.682 0.841871 5.19827 0
M  V30 4575 H 470.173 0.999081 3.64454 0
M  V30 4576 H 470.486 2.63944 7.26329 0
M  V30 4577 H 468.831 2.36719 6.53444 0
M  V30 4578 H 472.022 1.3186 4.49144 0
M  V30 4579 H 472.195 2.06641 6.14169 0
M  V30 4580 N 465.601 -1.54893 0.290851 0
M  V30 4581 C 466.531 -2.26103 -0.583084 0
M  V30 4582 C 467.512 -1.25684 -1.14619 0
M  V30 4583 O 468.697 -1.54436 -1.17741 0
M  V30 4584 C 465.827 -2.99409 -1.75987 0
M  V30 4585 C 464.781 -4.0689 -1.32758 0
M  V30 4586 C 464.107 -4.67856 -2.58872 0
M  V30 4587 C 465.407 -5.20215 -0.46624 0
M  V30 4588 H 467.101 -2.99398 0.0108214 0
M  V30 4589 H 464.647 -1.43998 0.00664468 0
M  V30 4590 H 466.6 -3.47943 -2.37727 0
M  V30 4591 H 465.324 -2.23675 -2.37985 0
M  V30 4592 H 463.983 -3.59191 -0.733299 0
M  V30 4593 H 463.631 -3.88772 -3.19163 0
M  V30 4594 H 463.331 -5.40438 -2.30653 0
M  V30 4595 H 464.855 -5.19147 -3.21433 0
M  V30 4596 H 466.269 -5.64704 -0.989047 0
M  V30 4597 H 464.666 -5.99455 -0.27826 0
M  V30 4598 H 465.736 -4.82198 0.511173 0
M  V30 4599 N 467.08 -0.0183926 -1.57589 0
M  V30 4600 C 468.326 0.663543 -1.91638 0
M  V30 4601 C 468.659 1.72392 -0.894134 0
M  V30 4602 O 467.934 1.94316 0.0846449 0
M  V30 4603 C 468.217 1.28984 -3.36207 0
M  V30 4604 C 468.07 0.239761 -4.49161 0
M  V30 4605 C 469.389 2.2109 -3.80536 0
M  V30 4606 H 466.508 0.239746 -0.696915 0
M  V30 4607 H 469.15 -0.073456 -1.89858 0
M  V30 4608 H 467.3 1.91799 -3.37854 0
M  V30 4609 H 468.972 -0.390119 -4.59647 0
M  V30 4610 H 467.215 -0.435972 -4.31604 0
M  V30 4611 H 467.886 0.717383 -5.47319 0
M  V30 4612 H 470.362 1.68273 -3.80557 0
M  V30 4613 H 469.238 2.61869 -4.82406 0
M  V30 4614 H 469.499 3.09764 -3.15434 0
M  V30 4615 N 468.558 1.5553 0.254621 0
M  V30 4616 C 469.786 1.81046 1.00149 0
M  V30 4617 C 470.201 0.593047 1.79244 0
M  V30 4618 O 469.558 -0.438196 1.77161 0
M  V30 4619 C 469.609 3.04684 1.94551 0
M  V30 4620 O 469.33 4.21725 1.18658 0
M  V30 4621 C 470.831 3.42943 2.80901 0
M  V30 4622 H 468.051 0.602653 0.295044 0
M  V30 4623 H 470.595 2.02576 0.279842 0
M  V30 4624 H 468.75 2.85226 2.62154 0
M  V30 4625 H 469.164 4.91746 1.82445 0
M  V30 4626 H 470.638 4.32576 3.42902 0
M  V30 4627 H 471.115 2.63176 3.51617 0
M  V30 4628 H 471.721 3.64724 2.18762 0
M  V30 4629 N 470.036 -0.519951 1.48776 0
M  V30 4630 C 471.282 -1.27711 1.57536 0
M  V30 4631 C 471.615 -1.92547 0.252866 0
M  V30 4632 O 470.89 -1.7979 -0.742021 0
M  V30 4633 C 471.173 -2.35875 2.72094 0
M  V30 4634 C 471.026 -1.75664 4.1408 0
M  V30 4635 C 472.345 -3.37575 2.82367 0
M  V30 4636 H 469.464 -0.462971 0.573434 0
M  V30 4637 H 472.106 -0.578194 1.80989 0
M  V30 4638 H 470.256 -2.95488 2.52228 0
M  V30 4639 H 471.928 -1.20025 4.45412 0
M  V30 4640 H 470.171 -1.06154 4.20611 0
M  V30 4641 H 470.842 -2.54029 4.90075 0
M  V30 4642 H 473.318 -2.87929 3.00393 0
M  V30 4643 H 472.194 -4.1064 3.64233 0
M  V30 4644 H 472.455 -3.98743 1.90936 0
M  V30 4645 N 471.514 -1.37532 -0.769588 0
M  V30 4646 C 472.739 -1.36231 -1.56384 0
M  V30 4647 C 473.164 0.0495849 -1.88035 0
M  V30 4648 O 472.522 1.02723 -1.49391 0
M  V30 4649 C 472.57 -2.20986 -2.84952 0
M  V30 4650 O 471.674 -1.61597 -3.79421 0
M  V30 4651 H 471.015 -0.465387 -0.473615 0
M  V30 4652 H 473.545 -1.81085 -0.952342 0
M  V30 4653 H 473.555 -2.34277 -3.34034 0
M  V30 4654 H 472.23 -3.23612 -2.61243 0
M  V30 4655 H 470.807 -1.57359 -3.38072 0
M  V30 4656 N 472.992 0.995999 -1.22138 0
M  V30 4657 C 474.408 1.25917 -0.980667 0
M  V30 4658 C 474.608 1.98819 0.327604 0
M  V30 4659 O 473.664 2.29587 1.05101 0
M  V30 4660 C 474.977 2.07399 -2.17729 0
M  V30 4661 C 476.525 2.20594 -2.22052 0
M  V30 4662 C 477 3.05462 -3.41258 0
M  V30 4663 N 478.491 3.13049 -3.41401 0
M  V30 4664 C 479.226 3.78997 -4.30289 0
M  V30 4665 N 478.722 4.46899 -5.2939 0
M  V30 4666 N 480.515 3.75728 -4.18073 0
M  V30 4667 H 472.666 0.507158 -2.06256 0
M  V30 4668 H 474.929 0.28658 -0.903646 0
M  V30 4669 H 474.635 1.61191 -3.12586 0
M  V30 4670 H 474.509 3.08154 -2.17534 0
M  V30 4671 H 476.896 2.66017 -1.27745 0
M  V30 4672 H 476.977 1.1928 -2.26287 0
M  V30 4673 H 476.621 2.60739 -4.35864 0
M  V30 4674 H 476.551 4.06911 -3.34262 0
M  V30 4675 H 479.042 2.64721 -2.69688 0
M  V30 4676 H 479.355 4.94952 -5.935 0
M  V30 4677 H 477.7 4.45657 -5.33306 0
M  V30 4678 H 480.891 3.2184 -3.39907 0
M  V30 4679 H 481.064 4.26845 -4.87553 0
M  V30 4680 N 474.47 1.03057 1.19235 0
M  V30 4681 C 475.4 0.633497 2.24742 0
M  V30 4682 C 476.381 -0.358335 1.66283 0
M  V30 4683 O 477.566 -0.240676 1.92703 0
M  V30 4684 C 474.696 -0.0147648 3.47297 0
M  V30 4685 C 473.65 0.899527 4.18441 0
M  V30 4686 C 472.976 0.116281 5.34574 0
M  V30 4687 C 474.276 2.21404 4.73051 0
M  V30 4688 H 475.97 1.5155 2.58211 0
M  V30 4689 H 473.516 0.73014 1.24117 0
M  V30 4690 H 475.469 -0.304202 4.20301 0
M  V30 4691 H 474.193 -0.931577 3.13032 0
M  V30 4692 H 472.852 1.17319 3.47321 0
M  V30 4693 H 472.5 -0.802619 4.96555 0
M  V30 4694 H 472.2 0.725293 5.83107 0
M  V30 4695 H 473.724 -0.166376 6.10373 0
M  V30 4696 H 475.138 1.98601 5.37802 0
M  V30 4697 H 473.535 2.77512 5.32078 0
M  V30 4698 H 474.605 2.86752 3.91026 0
M  V30 4699 N 475.948 -1.35272 0.808662 0
M  V30 4700 C 476.911 -2.28082 0.226093 0
M  V30 4701 C 477.911 -1.49673 -0.587762 0
M  V30 4702 O 479.101 -1.69404 -0.405943 0
M  V30 4703 C 476.233 -3.33955 -0.684596 0
M  V30 4704 H 477.426 -2.81116 1.04469 0
M  V30 4705 H 474.979 -1.45162 0.579466 0
M  V30 4706 H 475.714 -2.86111 -1.5268 0
M  V30 4707 H 475.499 -3.91965 -0.102699 0
M  V30 4708 H 476.989 -4.03219 -1.08646 0
M  V30 4709 N 477.426 -0.562348 -1.47226 0
M  V30 4710 C 478.674 -0.0401371 -2.0206 0
M  V30 4711 C 478.995 1.3165 -1.43852 0
M  V30 4712 O 478.265 1.85976 -0.615599 0
M  V30 4713 H 476.845 -0.0118479 -0.746906 0
M  V30 4714 H 479.507 -0.73352 -1.8057 0
M  V30 4715 H 478.603 0.0441254 -3.12069 0
M  V30 4716 N 478.904 1.54736 -0.299062 0
M  V30 4717 C 479.867 2.22127 0.565012 0
M  V30 4718 C 480.867 1.20669 1.06281 0
M  V30 4719 O 482.057 1.45417 0.959145 0
M  V30 4720 C 479.189 2.90611 1.78208 0
M  V30 4721 H 480.382 2.99891 -0.0237448 0
M  V30 4722 H 477.935 1.5622 -0.0498788 0
M  V30 4723 H 478.67 2.16921 2.41072 0
M  V30 4724 H 478.455 3.64984 1.43281 0
M  V30 4725 H 479.945 3.42026 2.396 0
M  V30 4726 N 480.382 0.0267497 1.57577 0
M  V30 4727 C 481.292 -0.971633 2.13533 0
M  V30 4728 C 482.308 -1.35868 1.08701 0
M  V30 4729 O 483.484 -1.44058 1.40746 0
M  V30 4730 C 480.549 -2.23622 2.64941 0
M  V30 4731 C 479.61 -1.90982 3.8448 0
M  V30 4732 C 478.843 -3.11411 4.33427 0
M  V30 4733 O 479.066 -4.23992 3.81558 0
M  V30 4734 O 478 -2.93848 5.25297 0
M  V30 4735 H 481.826 -0.525853 2.99113 0
M  V30 4736 H 479.411 -0.193712 1.48139 0
M  V30 4737 H 481.293 -2.97864 2.98086 0
M  V30 4738 H 479.968 -2.67386 1.82446 0
M  V30 4739 H 478.875 -1.14132 3.56265 0
M  V30 4740 H 480.208 -1.52036 4.6813 0
M  V30 4741 N 481.861 -1.55662 -0.24637 0
M  V30 4742 C 482.771 -1.93495 -1.32653 0
M  V30 4743 C 483.787 -0.835462 -1.5263 0
M  V30 4744 O 484.963 -1.1369 -1.66242 0
M  V30 4745 C 482.028 -2.22242 -2.66101 0
M  V30 4746 C 481.089 -3.45625 -2.54641 0
M  V30 4747 C 480.322 -3.72991 -3.81724 0
M  V30 4748 O 480.545 -3.02421 -4.8363 0
M  V30 4749 O 479.479 -4.66515 -3.80325 0
M  V30 4750 H 483.305 -2.85498 -1.03559 0
M  V30 4751 H 480.89 -1.42551 -0.44717 0
M  V30 4752 H 482.772 -2.42037 -3.44958 0
M  V30 4753 H 481.447 -1.33417 -2.94926 0
M  V30 4754 H 480.354 -3.31136 -1.74067 0
M  V30 4755 H 481.687 -4.34754 -2.3076 0
M  V30 4756 N 483.339 0.512053 -1.4905 0
M  V30 4757 C 484.585 1.26874 -1.58212 0
M  V30 4758 C 484.918 1.9241 -0.263073 0
M  V30 4759 O 484.193 1.80181 0.732476 0
M  V30 4760 C 484.476 2.34428 -2.73341 0
M  V30 4761 C 484.329 1.73466 -4.15006 0
M  V30 4762 C 485.648 3.36073 -2.84154 0
M  V30 4763 H 482.767 0.459924 -0.575881 0
M  V30 4764 H 485.409 0.568587 -1.81293 0
M  V30 4765 H 483.559 2.94146 -2.53792 0
M  V30 4766 H 485.231 1.17661 -4.46042 0
M  V30 4767 H 483.474 1.03921 -4.21168 0
M  V30 4768 H 484.145 2.51426 -4.91415 0
M  V30 4769 H 486.621 2.86332 -3.01916 0
M  V30 4770 H 485.497 4.08703 -3.66406 0
M  V30 4771 H 485.758 3.97725 -1.93048 0
M  V30 4772 N 484.817 1.37938 0.762283 0
M  V30 4773 C 485.747 1.37176 1.88958 0
M  V30 4774 C 486.728 0.238945 1.68413 0
M  V30 4775 O 487.913 0.440726 1.89133 0
M  V30 4776 C 485.043 1.18742 3.2637 0
M  V30 4777 C 483.997 2.29136 3.61498 0
M  V30 4778 C 483.323 1.95816 4.97554 0
M  V30 4779 C 484.623 3.71363 3.6727 0
M  V30 4780 H 486.317 2.31509 1.89853 0
M  V30 4781 H 483.863 1.11438 0.912005 0
M  V30 4782 H 485.816 1.16837 4.04879 0
M  V30 4783 H 484.54 0.208683 3.25933 0
M  V30 4784 H 483.199 2.30213 2.85303 0
M  V30 4785 H 482.847 0.964475 4.93667 0
M  V30 4786 H 482.547 2.69745 5.22026 0
M  V30 4787 H 484.071 1.95513 5.78452 0
M  V30 4788 H 485.485 3.72364 4.35911 0
M  V30 4789 H 483.882 4.44425 4.03245 0
M  V30 4790 H 484.952 4.04305 2.67704 0
M  V30 4791 N 486.295 -0.989507 1.22664 0
M  V30 4792 C 487.205 -2.11449 1.01619 0
M  V30 4793 C 488.221 -1.73962 -0.036545 0
M  V30 4794 O 489.397 -2.00788 0.156924 0
M  V30 4795 C 486.462 -3.41465 0.600204 0
M  V30 4796 C 485.523 -3.93033 1.72695 0
M  V30 4797 C 484.756 -5.16844 1.33071 0
M  V30 4798 O 484.979 -5.7001 0.210975 0
M  V30 4799 O 483.913 -5.6225 2.14845 0
M  V30 4800 H 487.739 -2.32088 1.9588 0
M  V30 4801 H 485.324 -1.09823 1.01289 0
M  V30 4802 H 487.206 -4.19695 0.37873 0
M  V30 4803 H 485.881 -3.22178 -0.313511 0
M  V30 4804 H 484.788 -3.15961 2.00298 0
M  V30 4805 H 486.121 -4.16758 2.61865 0
M  V30 4806 N 487.773 -1.03688 -1.18687 0
M  V30 4807 C 488.736 -0.629115 -2.20397 0
M  V30 4808 C 489.736 0.311495 -1.57754 0
M  V30 4809 O 490.926 0.0974107 -1.73927 0
M  V30 4810 C 488.058 0.0782231 -3.4081 0
M  V30 4811 H 489.251 -1.52915 -2.57987 0
M  V30 4812 H 486.804 -0.828988 -1.32505 0
M  V30 4813 H 487.539 0.992233 -3.08748 0
M  V30 4814 H 487.324 -0.597776 -3.87517 0
M  V30 4815 H 488.814 0.350156 -4.16129 0
M  V30 4816 N 489.251 1.34841 -0.815825 0
M  V30 4817 C 490.214 2.27959 -0.238185 0
M  V30 4818 C 491.214 1.49983 0.579816 0
M  V30 4819 O 492.404 1.69617 0.396953 0
M  V30 4820 C 489.536 3.34314 0.666876 0
M  V30 4821 H 490.729 2.80558 -1.05958 0
M  V30 4822 H 488.282 1.44852 -0.587156 0
M  V30 4823 H 489.017 2.86916 1.5116 0
M  V30 4824 H 488.802 3.92014 0.0819106 0
M  V30 4825 H 490.292 4.0379 1.06506 0
M  V30 4826 N 490.729 0.570148 1.46925 0
M  V30 4827 C 491.659 -0.158274 2.32963 0
M  V30 4828 C 492.64 -0.896093 1.44583 0
M  V30 4829 O 493.825 -0.874022 1.7342 0
M  V30 4830 C 490.955 -1.18055 3.26619 0
M  V30 4831 C 489.909 -0.558379 4.24342 0
M  V30 4832 C 489.235 -1.68623 5.07415 0
M  V30 4833 C 490.535 0.496295 5.19937 0
M  V30 4834 H 492.229 0.560046 2.94115 0
M  V30 4835 H 489.775 0.270775 1.41431 0
M  V30 4836 H 491.728 -1.69841 3.85658 0
M  V30 4837 H 490.452 -1.92899 2.63548 0
M  V30 4838 H 489.111 -0.0617157 3.66548 0
M  V30 4839 H 488.759 -2.42402 4.40738 0
M  V30 4840 H 488.459 -1.27564 5.73586 0
M  V30 4841 H 489.983 -2.20709 5.69315 0
M  V30 4842 H 491.397 0.0640052 5.73264 0
M  V30 4843 H 489.794 0.82649 5.94381 0
M  V30 4844 H 490.864 1.38735 4.6463 0
M  V30 4845 N 492.207 -1.54576 0.307264 0
M  V30 4846 C 493.623 -1.59534 -0.0459251 0
M  V30 4847 C 493.823 -1.32414 -1.51884 0
M  V30 4848 O 492.879 -1.1006 -2.27251 0
M  V30 4849 C 494.192 -2.98566 0.357649 0
M  V30 4850 C 495.74 -3.11491 0.306937 0
M  V30 4851 C 496.215 -4.52842 0.685427 0
M  V30 4852 N 497.706 -4.58782 0.638203 0
M  V30 4853 C 498.441 -5.66238 0.903458 0
M  V30 4854 N 497.937 -6.81703 1.23501 0
M  V30 4855 N 499.73 -5.55937 0.830102 0
M  V30 4856 H 491.881 -1.70464 1.26712 0
M  V30 4857 H 494.144 -0.79647 0.514139 0
M  V30 4858 H 493.85 -3.23356 1.38325 0
M  V30 4859 H 493.724 -3.76117 -0.285565 0
M  V30 4860 H 496.111 -2.86446 -0.709424 0
M  V30 4861 H 496.192 -2.36081 0.984861 0
M  V30 4862 H 495.836 -4.78618 1.69963 0
M  V30 4863 H 495.766 -5.26598 -0.0146346 0
M  V30 4864 H 498.257 -3.75849 0.393138 0
M  V30 4865 H 498.57 -7.59582 1.42322 0
M  V30 4866 H 496.915 -6.8324 1.27311 0
M  V30 4867 H 500.106 -4.64608 0.570693 0
M  V30 4868 H 500.279 -6.39597 1.04019 0
M  V30 4869 N 493.685 -0.035106 -1.57561 0
M  V30 4870 C 494.648 0.929819 -2.09492 0
M  V30 4871 C 495.648 1.25026 -1.01119 0
M  V30 4872 O 496.838 1.18961 -1.27255 0
M  V30 4873 C 493.97 2.24457 -2.56577 0
M  V30 4874 H 495.163 0.479935 -2.96035 0
M  V30 4875 H 492.716 0.213033 -1.54841 0
M  V30 4876 H 493.451 2.74061 -1.73382 0
M  V30 4877 H 493.236 2.02508 -3.35757 0
M  V30 4878 H 494.726 2.93607 -2.96959 0
M  V30 4879 N 495.163 1.55791 0.238111 0
M  V30 4880 C 496.113 1.87444 1.29803 0
M  V30 4881 C 497.097 0.736043 1.43078 0
M  V30 4882 O 498.289 0.998146 1.46171 0
M  V30 4883 C 495.418 2.18028 2.65177 0
M  V30 4884 C 494.504 3.38217 2.55871 0
M  V30 4885 N 494.895 4.57264 2.16202 0
M  V30 4886 C 493.193 3.41502 2.86866 0
M  V30 4887 C 493.894 5.3941 2.17744 0
M  V30 4888 N 492.87 4.78695 2.57589 0
M  V30 4889 H 496.672 2.7701 0.981965 0
M  V30 4890 H 494.186 1.56135 0.44672 0
M  V30 4891 H 496.183 2.38873 3.4168 0
M  V30 4892 H 494.843 1.29765 2.97643 0
M  V30 4893 H 495.854 4.82727 1.87602 0
M  V30 4894 H 492.531 2.63536 3.23813 0
M  V30 4895 H 493.921 6.44671 1.89339 0
M  V30 4896 N 496.642 -0.504142 1.49319 0
M  V30 4897 C 497.592 -1.60284 1.62151 0
M  V30 4898 C 498.576 -1.53657 0.477315 0
M  V30 4899 O 499.768 -1.6124 0.730108 0
M  V30 4900 C 496.897 -2.98909 1.68844 0
M  V30 4901 C 495.983 -3.10544 2.8883 0
M  V30 4902 N 496.374 -2.92078 4.12946 0
M  V30 4903 C 494.672 -3.4164 2.86702 0
M  V30 4904 C 495.373 -3.07812 4.93585 0
M  V30 4905 N 494.349 -3.36549 4.26891 0
M  V30 4906 H 498.151 -1.44656 2.55835 0
M  V30 4907 H 495.665 -0.710198 1.46048 0
M  V30 4908 H 497.662 -3.77865 1.76134 0
M  V30 4909 H 496.322 -3.15609 0.762943 0
M  V30 4910 H 497.333 -2.68316 4.42975 0
M  V30 4911 H 494.01 -3.64537 2.03517 0
M  V30 4912 H 495.4 -2.98054 6.02174 0
M  V30 4913 N 498.12 -1.38341 -0.754957 0
M  V30 4914 C 499.369 -1.33791 -1.5094 0
M  V30 4915 C 499.682 0.0699267 -1.95475 0
M  V30 4916 O 500.888 0.237956 -2.70455 0
M  V30 4917 C 499.344 -2.34934 -2.72643 0
M  V30 4918 C 498.952 -3.81332 -2.35138 0
M  V30 4919 C 500.696 -2.39425 -3.50536 0
M  V30 4920 C 498.603 -4.74164 -3.53444 0
M  V30 4921 H 497.533 -0.497314 -0.566741 0
M  V30 4922 H 500.184 -1.63888 -0.825403 0
M  V30 4923 H 498.566 -1.97878 -3.43017 0
M  V30 4924 H 499.74 -4.27319 -1.7244 0
M  V30 4925 H 498.055 -3.79946 -1.70382 0
M  V30 4926 H 500.652 -3.0598 -4.38498 0
M  V30 4927 H 500.995 -1.41278 -3.91594 0
M  V30 4928 H 501.528 -2.75274 -2.87174 0
M  V30 4929 H 498.267 -5.73501 -3.17453 0
M  V30 4930 H 497.787 -4.3287 -4.15191 0
M  V30 4931 H 499.466 -4.92111 -4.20043 0
M  V30 4932 N 499.598 0.982988 -1.23187 0
M  V30 4933 C 501.009 1.53847 -1.05773 0
M  V30 4934 C 501.36 1.92568 0.375744 0
M  V30 4935 O 500.485 1.75783 1.26211 0
M  V30 4936 C 501.08 2.79567 -1.91384 0
M  V30 4937 C 499.639 3.31524 -1.78238 0
M  V30 4938 C 498.786 2.04534 -1.87246 0
M  V30 4939 H 501.737 0.802962 -1.36888 0
M  V30 4940 H 501.758 3.52317 -1.43711 0
M  V30 4941 H 501.27 2.51353 -2.95708 0
M  V30 4942 H 499.371 3.64623 -0.766875 0
M  V30 4943 H 499.484 4.01457 -2.61475 0
M  V30 4944 H 497.848 2.1855 -1.30797 0
M  V30 4945 H 498.631 1.78706 -2.9312 0
M  V30 4946 N 501.076 1.04316 1.18135 0
M  V30 4947 C 501.986 0.646876 2.25505 0
M  V30 4948 C 503.002 -0.328008 1.7088 0
M  V30 4949 O 504.178 -0.182309 2.00573 0
M  V30 4950 C 501.243 0.0185664 3.46695 0
M  V30 4951 C 500.304 1.04277 4.16443 0
M  V30 4952 C 499.537 0.444352 5.31847 0
M  V30 4953 O 499.76 -0.748735 5.65465 0
M  V30 4954 O 498.694 1.17428 5.90334 0
M  V30 4955 H 502.52 1.54147 2.61672 0
M  V30 4956 H 500.105 0.814188 1.25265 0
M  V30 4957 H 501.987 -0.331068 4.20097 0
M  V30 4958 H 500.662 -0.849814 3.12346 0
M  V30 4959 H 499.569 1.44425 3.45098 0
M  V30 4960 H 500.902 1.882 4.54798 0
M  V30 4961 N 502.554 -1.34406 0.822964 0
M  V30 4962 C 503.831 -1.92733 0.333641 0
M  V30 4963 C 504.211 -1.75107 -1.17901 0
M  V30 4964 O 503.559 -1.12983 -1.98613 0
M  V30 4965 C 503.769 -3.40557 0.763023 0
M  V30 4966 C 505.117 -4.17709 0.761879 0
M  V30 4967 O 506.141 -3.49141 0.705606 0
M  V30 4968 O 505 -5.40082 0.835109 0
M  V30 4969 H 502.094 -0.821964 0.0911249 0
M  V30 4970 H 504.64 -1.4338 0.907757 0
M  V30 4971 H 503.412 -3.47187 1.8049 0
M  V30 4972 H 503.035 -3.97259 0.164605 0
M  V30 4973 N 504.032 -0.577932 -1.46621 0
M  V30 4974 C 505.443 -0.150071 -1.86096 0
M  V30 4975 C 505.794 1.28563 -1.48209 0
M  V30 4976 O 504.919 1.97036 -0.894754 0
M  V30 4977 C 505.514 -0.265576 -3.37758 0
M  V30 4978 C 504.073 0.10738 -3.76247 0
M  V30 4979 C 503.22 -0.603711 -2.70649 0
M  V30 4980 H 506.171 -0.786438 -1.37844 0
M  V30 4981 H 506.192 0.510352 -3.77062 0
M  V30 4982 H 505.704 -1.3106 -3.65301 0
M  V30 4983 H 503.805 1.15272 -3.54321 0
M  V30 4984 H 503.918 -0.26561 -4.78363 0
M  V30 4985 H 502.282 -0.0444884 -2.54661 0
M  V30 4986 H 503.065 -1.65029 -3.01032 0
M  V30 4987 N 505.51 1.54411 -0.315457 0
M  V30 4988 C 506.758 2.00023 0.288971 0
M  V30 4989 C 507.079 1.20529 1.5329 0
M  V30 4990 O 506.349 0.304986 1.93511 0
M  V30 4991 H 504.929 0.738891 0.109766 0
M  V30 4992 H 507.591 1.90094 -0.430129 0
M  V30 4993 H 506.687 3.07198 0.550999 0
M  V30 4994 N 506.988 0.0434614 1.5754 0
M  V30 4995 C 507.938 -0.943039 2.07583 0
M  V30 4996 C 508.922 -1.27662 0.979342 0
M  V30 4997 O 510.114 -1.26034 1.24276 0
M  V30 4998 C 507.243 -2.22056 2.61813 0
M  V30 4999 C 506.329 -1.91471 3.78417 0
M  V30 5000 N 506.72 -1.31214 4.88484 0
M  V30 5001 C 505.018 -2.21384 3.87176 0
M  V30 5002 C 505.719 -1.18084 5.69588 0
M  V30 5003 N 504.695 -1.68116 5.16951 0
M  V30 5004 H 508.497 -0.472354 2.90079 0
M  V30 5005 H 506.011 -0.161191 1.61598 0
M  V30 5006 H 508.008 -2.93618 2.95963 0
M  V30 5007 H 506.668 -2.69738 1.80752 0
M  V30 5008 H 507.679 -0.985318 5.08441 0
M  V30 5009 H 504.356 -2.7164 3.17046 0
M  V30 5010 H 505.746 -0.713684 6.68099 0
M  V30 5011 N 508.466 -1.55915 -0.229846 0
M  V30 5012 C 509.396 -1.94754 -1.28815 0
M  V30 5013 C 510.377 -0.814657 -1.49323 0
M  V30 5014 O 511.562 -1.07631 -1.61645 0
M  V30 5015 C 508.692 -2.25705 -2.63959 0
M  V30 5016 C 507.646 -3.41406 -2.5812 0
M  V30 5017 C 506.972 -3.57941 -3.97218 0
M  V30 5018 C 508.272 -4.76616 -2.13623 0
M  V30 5019 H 509.966 -2.83404 -0.965547 0
M  V30 5020 H 507.512 -1.36353 -0.463028 0
M  V30 5021 H 509.465 -2.51467 -3.38146 0
M  V30 5022 H 508.189 -1.339 -2.9789 0
M  V30 5023 H 506.848 -3.1568 -1.86391 0
M  V30 5024 H 506.496 -2.63526 -4.28443 0
M  V30 5025 H 506.196 -4.35757 -3.94195 0
M  V30 5026 H 507.72 -3.86042 -4.73079 0
M  V30 5027 H 509.134 -5.01637 -2.77549 0
M  V30 5028 H 507.531 -5.57655 -2.21677 0
M  V30 5029 H 508.601 -4.7253 -1.08829 0
M  V30 5030 N 509.944 0.496216 -1.49584 0
M  V30 5031 C 510.854 1.62352 -1.69349 0
M  V30 5032 C 511.87 1.64184 -0.576147 0
M  V30 5033 O 513.046 1.82517 -0.85144 0
M  V30 5034 C 510.111 2.98698 -1.76013 0
M  V30 5035 C 509.172 3.07454 -2.99617 0
M  V30 5036 C 508.405 4.37296 -3.05953 0
M  V30 5037 O 508.628 5.2637 -2.19752 0
M  V30 5038 O 507.562 4.51124 -3.9846 0
M  V30 5039 H 511.388 1.48606 -2.64859 0
M  V30 5040 H 508.973 0.673022 -1.33382 0
M  V30 5041 H 510.855 3.79725 -1.82721 0
M  V30 5042 H 509.53 3.12696 -0.836828 0
M  V30 5043 H 508.437 2.25597 -2.98424 0
M  V30 5044 H 509.77 2.98385 -3.91443 0
M  V30 5045 N 511.423 1.38739 0.74761 0
M  V30 5046 C 512.353 1.39173 1.87492 0
M  V30 5047 C 513.334 0.256794 1.6815 0
M  V30 5048 O 514.519 0.460762 1.88655 0
M  V30 5049 C 511.649 1.22197 3.25093 0
M  V30 5050 C 510.603 2.32957 3.59047 0
M  V30 5051 C 509.929 2.01082 4.95449 0
M  V30 5052 C 511.229 3.75237 3.6331 0
M  V30 5053 H 512.923 2.3351 1.87386 0
M  V30 5054 H 510.469 1.12399 0.900134 0
M  V30 5055 H 512.422 1.21124 4.03617 0
M  V30 5056 H 511.146 0.243241 3.25693 0
M  V30 5057 H 509.805 2.33226 2.82845 0
M  V30 5058 H 509.453 1.01678 4.92616 0
M  V30 5059 H 509.153 2.75267 5.19136 0
M  V30 5060 H 510.677 2.01638 5.76346 0
M  V30 5061 H 512.091 3.76966 4.31937 0
M  V30 5062 H 510.488 4.48677 3.98509 0
M  V30 5063 H 511.558 4.07122 2.634 0
M  V30 5064 N 512.901 -0.976442 1.23707 0
M  V30 5065 C 514.141 -1.73331 1.08332 0
M  V30 5066 C 514.505 -1.88346 -0.372781 0
M  V30 5067 O 515.706 -2.60877 -0.647813 0
M  V30 5068 C 513.977 -3.09159 1.7932 0
M  V30 5069 S 515.536 -4.00376 1.79567 0
M  V30 5070 H 512.354 -0.596045 0.387622 0
M  V30 5071 H 514.956 -1.16625 1.56904 0
M  V30 5072 H 513.66 -2.95884 2.84395 0
M  V30 5073 H 513.191 -3.70932 1.31046 0
M  V30 5074 H 515.206 -4.88742 0.857094 0
M  V30 5075 N 514.379 -1.04941 -1.1758 0
M  V30 5076 C 515.795 -0.770282 -1.39781 0
M  V30 5077 C 515.995 0.636417 -1.91186 0
M  V30 5078 O 515.051 1.39923 -2.10185 0
M  V30 5079 C 516.364 -1.82376 -2.3908 0
M  V30 5080 C 517.912 -1.84569 -2.52791 0
M  V30 5081 C 518.387 -2.88933 -3.55361 0
M  V30 5082 N 519.878 -2.8788 -3.62877 0
M  V30 5083 C 520.613 -3.65282 -4.41992 0
M  V30 5084 N 520.109 -4.52461 -5.24643 0
M  V30 5085 N 521.902 -3.53732 -4.36841 0
M  V30 5086 H 514.053 -1.95705 -0.825438 0
M  V30 5087 H 516.316 -0.847284 -0.425222 0
M  V30 5088 H 516.022 -2.83323 -2.08376 0
M  V30 5089 H 515.896 -1.66327 -3.38549 0
M  V30 5090 H 518.283 -0.842879 -2.82807 0
M  V30 5091 H 518.364 -2.04696 -1.53406 0
M  V30 5092 H 518.008 -3.89398 -3.26085 0
M  V30 5093 H 517.938 -2.66059 -4.54445 0
M  V30 5094 H 520.429 -2.24666 -3.03864 0
M  V30 5095 H 520.742 -5.08211 -5.82187 0
M  V30 5096 H 519.087 -4.56524 -5.24033 0
M  V30 5097 H 522.278 -2.85021 -3.71323 0
M  V30 5098 H 522.451 -4.14302 -4.98255 0
M  V30 5099 N 515.857 1.33968 -0.830081 0
M  V30 5100 C 516.787 2.31911 -0.271911 0
M  V30 5101 C 517.768 1.58571 0.61556 0
M  V30 5102 O 518.953 1.86514 0.540946 0
M  V30 5103 C 516.083 3.42737 0.561146 0
M  V30 5104 C 515.037 4.27383 -0.229789 0
M  V30 5105 C 514.363 5.29742 0.726463 0
M  V30 5106 C 515.663 5.02 -1.44197 0
M  V30 5107 H 517.357 2.78844 -1.09025 0
M  V30 5108 H 514.903 1.34061 -0.52571 0
M  V30 5109 H 516.856 4.10276 0.961867 0
M  V30 5110 H 515.58 2.94471 1.41261 0
M  V30 5111 H 514.239 3.61456 -0.611964 0
M  V30 5112 H 513.887 4.77736 1.57408 0
M  V30 5113 H 513.587 5.87255 0.20142 0
M  V30 5114 H 515.111 6.00149 1.12489 0
M  V30 5115 H 516.525 5.62355 -1.11488 0
M  V30 5116 H 514.922 5.69122 -1.90317 0
M  V30 5117 H 515.992 4.31281 -2.2164 0
M  V30 5118 N 517.335 0.585699 1.46312 0
M  V30 5119 C 518.746 0.159938 1.86014 0
M  V30 5120 C 519.097 -1.27775 1.48889 0
M  V30 5121 O 518.222 -1.96559 0.90519 0
M  V30 5122 C 518.817 0.283485 3.37612 0
M  V30 5123 C 517.376 -0.0874256 3.76298 0
M  V30 5124 C 516.523 0.618055 2.70325 0
M  V30 5125 H 519.474 0.793737 1.37425 0
M  V30 5126 H 519.495 -0.490348 3.77327 0
M  V30 5127 H 519.007 1.32995 3.64601 0
M  V30 5128 H 517.108 -1.13391 3.54927 0
M  V30 5129 H 517.221 0.290975 4.78216 0
M  V30 5130 H 515.585 0.057993 2.54634 0
M  V30 5131 H 516.368 1.66623 3.00153 0
M  V30 5132 N 518.813 -1.54241 0.323641 0
M  V30 5133 C 520.224 -1.85975 -0.164405 0
M  V30 5134 C 520.575 -1.24529 -1.51615 0
M  V30 5135 O 519.7 -0.551351 -2.09258 0
M  V30 5136 C 520.295 -3.37424 -0.305091 0
M  V30 5137 C 518.854 -3.69107 -0.737358 0
M  V30 5138 C 518.001 -2.76942 0.140884 0
M  V30 5139 H 520.952 -1.49088 0.543922 0
M  V30 5140 H 520.973 -3.63147 -1.13598 0
M  V30 5141 H 520.485 -3.82116 0.678876 0
M  V30 5142 H 518.586 -3.29947 -1.73107 0
M  V30 5143 H 518.699 -4.76035 -0.541053 0
M  V30 5144 H 517.063 -2.51795 -0.383572 0
M  V30 5145 H 517.846 -3.24461 1.12162 0
M  V30 5146 N 520.291 -0.0518155 -1.57515 0
M  V30 5147 C 521.516 0.634896 -1.97443 0
M  V30 5148 C 521.941 1.63546 -0.929207 0
M  V30 5149 O 521.299 1.80981 0.107484 0
M  V30 5150 C 521.347 1.29765 -3.36442 0
M  V30 5151 O 520.451 2.41333 -3.34413 0
M  V30 5152 H 519.792 0.164994 -0.643174 0
M  V30 5153 H 522.322 -0.120407 -2.04245 0
M  V30 5154 H 522.332 1.64918 -3.73184 0
M  V30 5155 H 521.007 0.564361 -4.12053 0
M  V30 5156 H 519.584 2.08122 -3.09418 0
M  V30 5157 N 521.769 1.56035 0.221574 0
M  V30 5158 C 522.994 1.83476 0.967026 0
M  V30 5159 C 523.419 0.632139 1.7716 0
M  V30 5160 O 522.777 -0.419082 1.7639 0
M  V30 5161 C 522.825 3.08907 1.86034 0
M  V30 5162 O 521.929 2.876 2.95567 0
M  V30 5163 H 521.27 0.604913 0.273817 0
M  V30 5164 H 523.8 2.03247 0.234893 0
M  V30 5165 H 523.81 3.3901 2.27016 0
M  V30 5166 H 522.485 3.96068 1.26898 0
M  V30 5167 H 521.062 2.6873 2.58532 0
M  V30 5168 N 523.247 -0.488276 1.49845 0
M  V30 5169 C 524.179 -1.60539 1.63584 0
M  V30 5170 C 525.192 -1.5434 0.517972 0
M  V30 5171 O 526.381 -1.60041 0.790516 0
M  V30 5172 C 523.481 -2.99374 1.58835 0
M  V30 5173 C 522.654 -3.30624 2.86368 0
M  V30 5174 C 521.713 -4.4893 2.74496 0
M  V30 5175 O 520.739 -4.50085 3.48443 0
M  V30 5176 N 521.941 -5.49591 1.86894 0
M  V30 5177 H 524.706 -1.49176 2.59936 0
M  V30 5178 H 522.267 -0.67639 1.47094 0
M  V30 5179 H 524.259 -3.76459 1.48529 0
M  V30 5180 H 522.829 -3.04595 0.702892 0
M  V30 5181 H 522.049 -2.42314 3.1093 0
M  V30 5182 H 523.337 -3.48305 3.70892 0
M  V30 5183 H 522.735 -5.51467 1.26097 0
M  V30 5184 H 521.292 -6.25728 1.82503 0
M  V30 5185 N 524.725 -1.39134 -0.740242 0
M  V30 5186 C 525.688 -1.37217 -1.83587 0
M  V30 5187 C 526.688 -0.270221 -1.58513 0
M  V30 5188 O 527.878 -0.527843 -1.6601 0
M  V30 5189 C 525.01 -1.13959 -3.21288 0
M  V30 5190 H 526.203 -2.34705 -1.86691 0
M  V30 5191 H 523.756 -1.24622 -0.94335 0
M  V30 5192 H 524.491 -0.17131 -3.23847 0
M  V30 5193 H 524.276 -1.93754 -3.40884 0
M  V30 5194 H 525.766 -1.15346 -4.01354 0
M  V30 5195 N 526.204 0.969867 -1.24223 0
M  V30 5196 C 527.444 1.72754 -1.0925 0
M  V30 5197 C 527.808 1.88541 0.362787 0
M  V30 5198 O 529.009 2.61217 0.633969 0
M  V30 5199 C 527.28 3.08204 -1.80957 0
M  V30 5200 S 528.839 3.99418 -1.81688 0
M  V30 5201 H 525.657 0.593981 -0.390778 0
M  V30 5202 H 528.259 1.15792 -1.5752 0
M  V30 5203 H 526.963 2.94372 -2.85961 0
M  V30 5204 H 526.494 3.70232 -1.33012 0
M  V30 5205 H 528.509 4.8828 -0.883001 0
M  V30 5206 N 527.682 1.05563 1.17022 0
M  V30 5207 C 528.959 0.68165 1.83338 0
M  V30 5208 C 529.339 -0.837665 1.93769 0
M  V30 5209 O 528.687 -1.74507 1.47511 0
M  V30 5210 C 528.897 1.375 3.20772 0
M  V30 5211 C 530.245 1.51545 3.96635 0
M  V30 5212 O 531.269 1.33431 3.30264 0
M  V30 5213 O 530.128 1.812 5.15586 0
M  V30 5214 H 527.222 0.240412 0.791285 0
M  V30 5215 H 529.768 1.15545 1.24288 0
M  V30 5216 H 528.54 2.41135 3.08171 0
M  V30 5217 H 528.163 0.890798 3.87493 0
M  V30 5218 N 529.16 -1.33526 0.837174 0
M  V30 5219 C 530.123 -2.27551 0.274421 0
M  V30 5220 C 531.123 -1.50886 -0.555881 0
M  V30 5221 O 532.313 -1.70227 -0.369918 0
M  V30 5222 C 529.445 -3.35332 -0.613605 0
M  V30 5223 H 530.638 -2.78837 1.10408 0
M  V30 5224 H 528.191 -1.439 0.610126 0
M  V30 5225 H 528.926 -2.89285 -1.46577 0
M  V30 5226 H 528.711 -3.92095 -0.0195341 0
M  V30 5227 H 530.201 -4.05433 -1.00068 0
M  V30 5228 N 530.638 -0.59345 -1.46 0
M  V30 5229 C 531.884 -0.0916503 -2.03193 0
M  V30 5230 C 532.239 1.25839 -1.45541 0
M  V30 5231 O 531.532 1.81455 -0.615191 0
M  V30 5232 C 531.726 0.021178 -3.57394 0
M  V30 5233 C 531.555 -1.31638 -4.30002 0
M  V30 5234 C 530.325 -1.89336 -4.68487 0
M  V30 5235 C 532.523 -2.242 -4.62859 0
M  V30 5236 N 530.505 -3.1672 -5.25891 0
M  V30 5237 C 531.876 -3.36175 -5.20948 0
M  V30 5238 C 533.931 -2.23748 -4.44794 0
M  V30 5239 C 532.634 -4.47844 -5.62875 0
M  V30 5240 C 534.66 -3.34454 -4.87744 0
M  V30 5241 C 534.022 -4.4515 -5.45913 0
M  V30 5242 H 530.121 -0.0765713 -0.778242 0
M  V30 5243 H 532.705 -0.788705 -1.7801 0
M  V30 5244 H 530.876 0.687423 -3.82268 0
M  V30 5245 H 532.608 0.528343 -4.01236 0
M  V30 5246 H 529.363 -1.42704 -4.51589 0
M  V30 5247 H 529.787 -3.81746 -5.59106 0
M  V30 5248 H 534.429 -1.39433 -3.99147 0
M  V30 5249 H 532.147 -5.32894 -6.07495 0
M  V30 5250 H 535.733 -3.35234 -4.75509 0
M  V30 5251 H 534.613 -5.29398 -5.78539 0
M  V30 5252 N 532.116 1.54067 -0.331816 0
M  V30 5253 C 533.079 2.23275 0.517768 0
M  V30 5254 C 534.079 1.22897 1.03697 0
M  V30 5255 O 535.269 1.47419 0.928084 0
M  V30 5256 C 532.401 2.94326 1.72004 0
M  V30 5257 H 533.594 2.99773 -0.0873507 0
M  V30 5258 H 531.147 1.56079 -0.0830042 0
M  V30 5259 H 531.882 2.21986 2.36417 0
M  V30 5260 H 531.667 3.67941 1.35507 0
M  V30 5261 H 533.157 3.47031 2.32291 0
M  V30 5262 N 533.594 0.0601682 1.57485 0
M  V30 5263 C 534.842 -0.610386 1.92662 0
M  V30 5264 C 535.163 -1.70849 0.939981 0
M  V30 5265 O 534.433 -1.95895 -0.0137455 0
M  V30 5266 H 533.013 -0.228457 0.711208 0
M  V30 5267 H 535.675 0.115288 1.94559 0
M  V30 5268 H 534.771 -1.0432 2.94149 0
M  V30 5269 N 535.072 -1.5615 -0.213296 0
M  V30 5270 C 536.32 -1.79191 -0.934612 0
M  V30 5271 C 536.641 -0.630112 -1.84539 0
M  V30 5272 O 535.911 0.35257 -1.92701 0
M  V30 5273 H 534.491 -0.660937 -0.348097 0
M  V30 5274 H 537.153 -1.93618 -0.22317 0
M  V30 5275 H 536.249 -2.71656 -1.53654 0
M  V30 5276 N 536.55 0.480323 -1.50102 0
M  V30 5277 C 537.497 1.57946 -1.6829 0
M  V30 5278 C 538.467 1.57611 -0.524223 0
M  V30 5279 O 539.652 1.75282 -0.753709 0
M  V30 5280 C 536.792 2.95978 -1.77457 0
M  V30 5281 C 535.905 3.06173 -3.04766 0
M  V30 5282 C 535.04 4.35063 -3.04784 0
M  V30 5283 C 534.079 4.38966 -4.26586 0
M  V30 5284 N 533.216 5.59314 -4.24396 0
M  V30 5285 H 538.056 1.41743 -2.62131 0
M  V30 5286 H 535.593 0.689304 -1.2995 0
M  V30 5287 H 537.551 3.76011 -1.80752 0
M  V30 5288 H 536.181 3.10837 -0.870637 0
M  V30 5289 H 535.233 2.19071 -3.10986 0
M  V30 5290 H 536.545 3.04916 -3.9475 0
M  V30 5291 H 535.699 5.23436 -3.06757 0
M  V30 5292 H 534.438 4.38915 -2.12614 0
M  V30 5293 H 533.443 3.48992 -4.24835 0
M  V30 5294 H 534.668 4.36813 -5.19972 0
M  V30 5295 H 532.614 5.63969 -3.35074 0
M  V30 5296 H 532.531 5.5976 -5.08138 0
M  V30 5297 H 533.799 6.49837 -4.30502 0
M  V30 5298 N 538.028 1.39524 0.732853 0
M  V30 5299 C 538.991 1.38189 1.82857 0
M  V30 5300 C 539.991 0.278624 1.58368 0
M  V30 5301 O 541.181 0.536639 1.65728 0
M  V30 5302 C 538.313 1.15661 3.2068 0
M  V30 5303 H 539.506 2.35692 1.85444 0
M  V30 5304 H 537.059 1.2512 0.936728 0
M  V30 5305 H 537.794 0.188482 3.23752 0
M  V30 5306 H 537.579 1.95559 3.39852 0
M  V30 5307 H 539.069 1.17472 4.00737 0
M  V30 5308 N 539.506 -0.963266 1.24736 0
M  V30 5309 C 540.754 -1.70343 1.08755 0
M  V30 5310 C 541.075 -1.91387 -0.373619 0
M  V30 5311 O 540.345 -1.4948 -1.2662 0
M  V30 5312 H 538.925 -0.631224 0.399456 0
M  V30 5313 H 541.587 -1.15859 1.56725 0
M  V30 5314 H 540.683 -2.68616 1.58909 0
M  V30 5315 N 540.985 -1.06182 -1.16461 0
M  V30 5316 C 542.21 -0.798599 -1.91408 0
M  V30 5317 C 542.635 0.640987 -1.76842 0
M  V30 5318 O 541.993 1.44652 -1.09296 0
M  V30 5319 C 542.041 -1.19665 -3.40165 0
M  V30 5320 O 541.145 -0.334768 -4.11039 0
M  V30 5321 H 540.486 -0.291961 -0.596368 0
M  V30 5322 H 543.016 -1.41732 -1.47557 0
M  V30 5323 H 543.026 -1.16772 -3.90933 0
M  V30 5324 H 541.701 -2.24526 -3.50087 0
M  V30 5325 H 540.278 -0.425168 -3.70468 0
M  V30 5326 N 542.463 1.3308 -0.844243 0
M  V30 5327 C 543.426 2.27403 -0.286485 0
M  V30 5328 C 544.426 1.51179 0.547872 0
M  V30 5329 O 545.616 1.70421 0.360886 0
M  V30 5330 C 542.748 3.35653 0.595813 0
M  V30 5331 H 543.941 2.78248 -1.11885 0
M  V30 5332 H 541.494 1.43574 -0.617749 0
M  V30 5333 H 542.229 2.90058 1.4504 0
M  V30 5334 H 542.014 3.921 -0.00125994 0
M  V30 5335 H 543.504 4.05958 0.979168 0
M  V30 5336 N 543.941 0.601185 1.45683 0
M  V30 5337 C 545.187 0.0940202 2.02582 0
M  V30 5338 C 545.52 -1.26972 1.46941 0
M  V30 5339 O 544.795 -1.83613 0.641612 0
M  V30 5340 C 545.078 0.0481715 3.60068 0
M  V30 5341 C 544.931 1.44212 4.26055 0
M  V30 5342 C 546.25 -0.642975 4.35378 0
M  V30 5343 H 543.369 0.0356404 0.736138 0
M  V30 5344 H 546.011 0.771929 1.73612 0
M  V30 5345 H 544.161 -0.529128 3.8488 0
M  V30 5346 H 545.833 2.06601 4.12449 0
M  V30 5347 H 544.076 2.00465 3.84703 0
M  V30 5348 H 544.747 1.36234 5.34925 0
M  V30 5349 H 547.223 -0.152351 4.15821 0
M  V30 5350 H 546.099 -0.644141 5.45107 0
M  V30 5351 H 546.36 -1.70785 4.0778 0
M  V30 5352 N 545.419 -1.53889 0.339982 0
M  V30 5353 C 546.668 -2.00035 -0.258604 0
M  V30 5354 C 546.981 -1.23179 -1.51942 0
M  V30 5355 O 548.187 -1.59784 -2.19503 0
M  V30 5356 C 546.643 -3.56249 -0.511359 0
M  V30 5357 C 546.251 -4.41957 0.733349 0
M  V30 5358 C 547.995 -4.1082 -1.069 0
M  V30 5359 C 545.902 -5.89673 0.451591 0
M  V30 5360 H 544.832 -0.747284 -0.10041 0
M  V30 5361 H 547.483 -1.77776 0.454758 0
M  V30 5362 H 545.865 -3.7456 -1.28533 0
M  V30 5363 H 547.039 -4.35421 1.50815 0
M  V30 5364 H 545.354 -3.9836 1.21237 0
M  V30 5365 H 547.951 -5.18789 -1.2947 0
M  V30 5366 H 548.294 -3.63817 -2.02343 0
M  V30 5367 H 548.827 -3.96205 -0.355817 0
M  V30 5368 H 545.566 -6.40903 1.37565 0
M  V30 5369 H 545.086 -5.99122 -0.285193 0
M  V30 5370 H 546.765 -6.46965 0.0675067 0
M  V30 5371 N 546.897 -0.0685191 -1.57451 0
M  V30 5372 C 548.122 0.613919 -1.98106 0
M  V30 5373 C 548.547 1.62551 -0.946501 0
M  V30 5374 O 547.905 1.81085 0.0882824 0
M  V30 5375 C 547.953 1.26189 -3.378 0
M  V30 5376 O 547.057 2.37773 -3.36954 0
M  V30 5377 H 546.398 0.158163 -0.644888 0
M  V30 5378 H 548.928 -0.142063 -2.04106 0
M  V30 5379 H 548.938 1.60951 -3.74912 0
M  V30 5380 H 547.613 0.520625 -4.12629 0
M  V30 5381 H 546.19 2.04829 -3.11608 0
M  V30 5382 N 548.375 1.56261 0.205012 0
M  V30 5383 C 549.285 1.96944 1.27476 0
M  V30 5384 C 550.301 0.875636 1.50362 0
M  V30 5385 O 551.477 1.18058 1.6317 0
M  V30 5386 C 548.542 2.29219 2.60115 0
M  V30 5387 C 547.603 3.52255 2.45387 0
M  V30 5388 C 546.836 3.8298 3.71701 0
M  V30 5389 O 547.059 3.15138 4.75441 0
M  V30 5390 O 545.993 4.76435 3.67823 0
M  V30 5391 H 549.819 2.88144 0.959527 0
M  V30 5392 H 547.404 1.43686 0.409217 0
M  V30 5393 H 549.286 2.51098 3.3842 0
M  V30 5394 H 547.961 1.4119 2.91285 0
M  V30 5395 H 546.868 3.35635 1.65227 0
M  V30 5396 H 548.201 4.40719 2.19152 0
M  V30 5397 N 549.853 -0.472356 1.50355 0
M  V30 5398 C 550.763 -1.59637 1.7191 0
M  V30 5399 C 551.779 -1.63247 0.602195 0
M  V30 5400 O 552.955 -1.81139 0.880369 0
M  V30 5401 C 550.02 -2.9586 1.80742 0
M  V30 5402 C 549.081 -3.02649 3.04471 0
M  V30 5403 C 548.314 -4.32374 3.12872 0
M  V30 5404 O 548.537 -5.22807 2.28099 0
M  V30 5405 O 547.471 -4.44728 4.05587 0
M  V30 5406 H 551.297 -1.44373 2.67189 0
M  V30 5407 H 548.882 -0.651717 1.34436 0
M  V30 5408 H 550.764 -3.7677 1.88739 0
M  V30 5409 H 549.439 -3.11325 0.88647 0
M  V30 5410 H 548.346 -2.20821 3.01975 0
M  V30 5411 H 549.679 -2.92119 3.9614 0
M  V30 5412 N 551.331 -1.39911 -0.725443 0
M  V30 5413 C 552.579 -1.37382 -1.48224 0
M  V30 5414 C 552.9 0.0264107 -1.94982 0
M  V30 5415 O 552.17 0.979408 -1.6966 0
M  V30 5416 H 550.75 -0.505596 -0.549892 0
M  V30 5417 H 553.412 -1.7487 -0.860608 0
M  V30 5418 H 552.508 -2.04254 -2.3598 0
M  V30 5419 N 552.809 0.956637 -1.25245 0
M  V30 5420 C 554.225 1.22733 -1.02023 0
M  V30 5421 C 554.425 1.99761 0.264186 0
M  V30 5422 O 553.481 2.32814 0.977436 0
M  V30 5423 C 554.794 2.00367 -2.24217 0
M  V30 5424 C 556.342 2.13418 -2.28958 0
M  V30 5425 C 556.817 2.9445 -3.50803 0
M  V30 5426 N 558.308 3.02029 -3.51187 0
M  V30 5427 C 559.043 3.65116 -4.42129 0
M  V30 5428 N 558.539 4.2983 -5.43339 0
M  V30 5429 N 560.332 3.62237 -4.29815 0
M  V30 5430 H 552.483 0.441282 -2.07765 0
M  V30 5431 H 554.746 0.257686 -0.912306 0
M  V30 5432 H 554.452 1.51165 -3.17556 0
M  V30 5433 H 554.326 3.01077 -2.27228 0
M  V30 5434 H 556.713 2.61819 -1.36143 0
M  V30 5435 H 556.794 1.1202 -2.29968 0
M  V30 5436 H 556.438 2.46741 -4.43939 0
M  V30 5437 H 556.368 3.9607 -3.47039 0
M  V30 5438 H 558.859 2.56007 -2.77973 0
M  V30 5439 H 559.172 4.75819 -6.08947 0
M  V30 5440 H 557.517 4.28465 -5.47214 0
M  V30 5441 H 560.708 3.10863 -3.49974 0
M  V30 5442 H 560.881 4.11117 -5.00886 0
M  V30 5443 N 554.287 1.06798 1.15896 0
M  V30 5444 C 555.512 0.808739 1.90982 0
M  V30 5445 C 555.937 -0.6316 1.77179 0
M  V30 5446 O 555.295 -1.4407 1.10061 0
M  V30 5447 C 555.343 1.21468 3.39526 0
M  V30 5448 O 554.447 0.356562 4.10856 0
M  V30 5449 H 553.788 0.29512 0.594811 0
M  V30 5450 H 556.318 1.42513 1.46804 0
M  V30 5451 H 556.328 1.18844 3.90308 0
M  V30 5452 H 555.003 2.26379 3.48891 0
M  V30 5453 H 553.58 0.444808 3.70238 0
M  V30 5454 N 555.766 -1.3263 0.851289 0
M  V30 5455 C 557.177 -1.79653 0.5081 0
M  V30 5456 C 557.528 -1.70327 -0.973815 0
M  V30 5457 O 556.653 -1.25986 -1.75944 0
M  V30 5458 C 557.248 -3.26196 0.915515 0
M  V30 5459 C 555.807 -3.71187 0.624277 0
M  V30 5460 C 554.954 -2.53804 1.11709 0
M  V30 5461 H 557.905 -1.19976 1.03882 0
M  V30 5462 H 557.926 -3.79801 0.230535 0
M  V30 5463 H 557.438 -3.32952 1.99411 0
M  V30 5464 H 555.539 -3.69948 -0.443737 0
M  V30 5465 H 555.652 -4.64132 1.18821 0
M  V30 5466 H 554.016 -2.48964 0.537484 0
M  V30 5467 H 554.799 -2.63315 2.20272 0
M  V30 5468 N 557.244 -0.608902 -1.45362 0
M  V30 5469 C 558.492 -0.104401 -2.0183 0
M  V30 5470 C 558.813 1.27007 -1.47967 0
M  V30 5471 O 558.083 1.83924 -0.674455 0
M  V30 5472 H 556.663 -0.0356042 -0.746151 0
M  V30 5473 H 559.325 -0.790596 -1.78145 0
M  V30 5474 H 558.421 -0.0551793 -3.12051 0
M  V30 5475 N 558.722 1.53707 -0.348139 0
M  V30 5476 C 559.947 2.05877 0.250883 0
M  V30 5477 C 560.372 1.22115 1.43072 0
M  V30 5478 O 559.73 0.235986 1.79758 0
M  V30 5479 C 559.778 3.54886 0.639416 0
M  V30 5480 O 558.882 3.73948 1.73888 0
M  V30 5481 H 558.223 0.662754 0.040653 0
M  V30 5482 H 560.753 1.98303 -0.503685 0
M  V30 5483 H 560.763 3.97601 0.915295 0
M  V30 5484 H 559.438 4.153 -0.223386 0
M  V30 5485 H 558.015 3.43134 1.45991 0
M  V30 5486 N 560.2 0.0768682 1.57412 0
M  V30 5487 C 561.448 -0.589918 1.93299 0
M  V30 5488 C 561.769 -1.69842 0.958049 0
M  V30 5489 O 561.039 -1.95899 0.00703261 0
M  V30 5490 H 559.619 -0.220901 0.713591 0
M  V30 5491 H 562.281 0.135917 1.94425 0
M  V30 5492 H 561.377 -1.01195 2.95239 0
M  V30 5493 N 561.678 -1.56367 -0.196722 0
M  V30 5494 C 562.588 -1.97617 -1.2643 0
M  V30 5495 C 563.604 -0.883598 -1.49895 0
M  V30 5496 O 564.78 -1.18921 -1.62541 0
M  V30 5497 C 561.845 -2.30595 -2.58895 0
M  V30 5498 C 560.906 -3.53551 -2.43516 0
M  V30 5499 C 560.139 -3.84946 -3.69665 0
M  V30 5500 O 560.362 -3.17655 -4.73763 0
M  V30 5501 O 559.296 -4.78379 -3.65291 0
M  V30 5502 H 563.122 -2.88648 -0.944233 0
M  V30 5503 H 560.707 -1.43901 -0.401592 0
M  V30 5504 H 562.589 -2.52889 -3.37083 0
M  V30 5505 H 561.264 -1.42732 -2.90533 0
M  V30 5506 H 560.171 -3.36507 -1.63445 0
M  V30 5507 H 561.504 -4.41875 -2.16812 0
M  V30 5508 N 563.156 0.464375 -1.50603 0
M  V30 5509 C 564.119 1.54393 -1.69397 0
M  V30 5510 C 565.119 1.50566 -0.564504 0
M  V30 5511 O 566.309 1.53066 -0.831645 0
M  V30 5512 C 563.441 2.9401 -1.72543 0
M  V30 5513 H 564.634 1.39044 -2.65719 0
M  V30 5514 H 562.187 0.69122 -1.40185 0
M  V30 5515 H 562.922 3.14795 -0.77938 0
M  V30 5516 H 562.707 2.98195 -2.54602 0
M  V30 5517 H 564.197 3.72375 -1.89015 0
M  V30 5518 N 564.634 1.40294 0.718013 0
M  V30 5519 C 565.862 1.4175 1.50714 0
M  V30 5520 C 566.277 0.0165366 1.88793 0
M  V30 5521 O 565.634 -0.958942 1.55276 0
M  V30 5522 C 565.685 2.30598 2.784 0
M  V30 5523 O 565.406 3.6524 2.41932 0
M  V30 5524 C 566.907 2.4062 3.72313 0
M  V30 5525 H 564.127 0.483565 0.465194 0
M  V30 5526 H 566.671 1.84316 0.885889 0
M  V30 5527 H 564.826 1.91401 3.36815 0
M  V30 5528 H 565.24 4.12402 3.24076 0
M  V30 5529 H 566.714 3.07001 4.58753 0
M  V30 5530 H 567.191 1.4305 4.15251 0
M  V30 5531 H 567.797 2.80359 3.19811 0
M  V30 5532 N 566.112 -0.949982 1.2575 0
M  V30 5533 C 567.523 -1.50989 1.09815 0
M  V30 5534 C 567.874 -1.93497 -0.324556 0
M  V30 5535 O 566.999 -1.79068 -1.21506 0
M  V30 5536 C 567.594 -2.74394 1.98729 0
M  V30 5537 C 566.153 -3.26682 1.86965 0
M  V30 5538 C 565.3 -1.99498 1.92603 0
M  V30 5539 H 568.251 -0.766387 1.38968 0
M  V30 5540 H 568.272 -3.48383 1.53001 0
M  V30 5541 H 567.784 -2.43425 3.02268 0
M  V30 5542 H 565.885 -3.62461 0.863279 0
M  V30 5543 H 565.998 -3.94383 2.72027 0
M  V30 5544 H 564.362 -2.15005 1.36546 0
M  V30 5545 H 565.145 -1.70871 2.97755 0
M  V30 5546 N 567.59 -1.07411 -1.15328 0
M  V30 5547 C 568.5 -0.706438 -2.23711 0
M  V30 5548 C 569.516 0.282586 -1.7169 0
M  V30 5549 O 570.692 0.129066 -2.00986 0
M  V30 5550 C 567.757 -0.11048 -3.46524 0
M  V30 5551 C 566.818 -1.15282 -4.13532 0
M  V30 5552 C 566.051 -0.585205 -5.30482 0
M  V30 5553 O 566.274 0.598549 -5.67251 0
M  V30 5554 O 565.208 -1.33039 -5.87013 0
M  V30 5555 H 569.034 -1.61031 -2.57493 0
M  V30 5556 H 566.619 -0.847113 -1.23062 0
M  V30 5557 H 568.501 0.21957 -4.20828 0
M  V30 5558 H 567.176 0.766703 -3.14489 0
M  V30 5559 H 566.083 -1.53523 -3.41147 0
M  V30 5560 H 567.416 -2.00192 -4.49649 0
M  V30 5561 N 569.068 1.32177 -0.85831 0
M  V30 5562 C 570.031 2.27086 -0.310588 0
M  V30 5563 C 571.031 1.51751 0.531806 0
M  V30 5564 O 572.221 1.70794 0.34279 0
M  V30 5565 C 569.353 3.36266 0.560179 0
M  V30 5566 H 570.546 2.77045 -1.1483 0
M  V30 5567 H 568.099 1.42911 -0.632942 0
M  V30 5568 H 568.834 2.9158 1.41956 0
M  V30 5569 H 568.619 3.92077 -0.0428473 0
M  V30 5570 H 570.109 4.06974 0.936056 0
M  V30 5571 N 570.547 0.616602 1.45037 0
M  V30 5572 C 571.793 0.123965 2.03022 0
M  V30 5573 C 572.148 -1.23508 1.47525 0
M  V30 5574 O 571.441 -1.80453 0.643981 0
M  V30 5575 C 571.635 0.0356829 3.57382 0
M  V30 5576 C 571.464 1.38462 4.27853 0
M  V30 5577 C 570.234 1.96766 4.65415 0
M  V30 5578 C 572.432 2.31536 4.59234 0
M  V30 5579 N 570.414 3.25046 5.20786 0
M  V30 5580 C 571.785 3.4442 5.15533 0
M  V30 5581 C 573.84 2.30796 4.41178 0
M  V30 5582 C 572.543 4.56742 5.55679 0
M  V30 5583 C 574.569 3.42171 4.82362 0
M  V30 5584 C 573.931 4.53778 5.38762 0
M  V30 5585 H 570.03 0.0889428 0.776925 0
M  V30 5586 H 572.614 0.816925 1.76733 0
M  V30 5587 H 570.785 -0.62652 3.83314 0
M  V30 5588 H 572.517 -0.464443 4.02026 0
M  V30 5589 H 569.272 1.4987 4.49261 0
M  V30 5590 H 569.696 3.90592 5.52962 0
M  V30 5591 H 574.338 1.45765 3.96878 0
M  V30 5592 H 572.056 5.42491 5.9894 0
M  V30 5593 H 575.642 3.42757 4.70116 0
M  V30 5594 H 574.522 5.38536 5.70043 0
M  V30 5595 N 572.025 -1.5352 0.356285 0
M  V30 5596 C 573.271 -2.01414 -0.236653 0
M  V30 5597 C 573.604 -1.24339 -1.49176 0
M  V30 5598 O 572.879 -0.334496 -1.91602 0
M  V30 5599 C 573.162 -3.56059 -0.537982 0
M  V30 5600 C 573.015 -4.43835 0.730112 0
M  V30 5601 C 574.334 -4.19127 -1.34239 0
M  V30 5602 H 571.453 -0.732135 -0.0845386 0
M  V30 5603 H 574.095 -1.83854 0.479341 0
M  V30 5604 H 572.245 -3.71153 -1.14795 0
M  V30 5605 H 573.917 -4.40555 1.36782 0
M  V30 5606 H 572.16 -4.1218 1.3524 0
M  V30 5607 H 572.831 -5.49958 0.474358 0
M  V30 5608 H 575.307 -4.07809 -0.826498 0
M  V30 5609 H 574.183 -5.27378 -1.52198 0
M  V30 5610 H 574.444 -3.74581 -2.34822 0
M  V30 5611 N 573.503 -0.0852151 -1.57369 0
M  V30 5612 C 574.752 0.580443 -1.93168 0
M  V30 5613 C 575.065 1.6995 -0.968319 0
M  V30 5614 O 576.271 2.42564 -1.21963 0
M  V30 5615 C 574.727 1.08386 -3.43192 0
M  V30 5616 C 574.335 -0.00491388 -4.48 0
M  V30 5617 C 576.079 1.72281 -3.87968 0
M  V30 5618 C 573.986 0.513299 -5.89168 0
M  V30 5619 H 572.916 0.22059 -0.72101 0
M  V30 5620 H 575.567 -0.159621 -1.82804 0
M  V30 5621 H 573.949 1.8773 -3.48674 0
M  V30 5622 H 575.123 -0.780032 -4.5415 0
M  V30 5623 H 573.438 -0.548453 -4.12772 0
M  V30 5624 H 576.035 2.12108 -4.9083 0
M  V30 5625 H 576.378 2.58811 -3.26071 0
M  V30 5626 H 576.911 0.995359 -3.85146 0
M  V30 5627 H 573.65 -0.315153 -6.54742 0
M  V30 5628 H 573.17 1.25564 -5.8651 0
M  V30 5629 H 574.849 0.985433 -6.39451 0
M  V30 5630 N 574.981 1.5647 0.188427 0
M  V30 5631 C 576.397 1.50204 0.539532 0
M  V30 5632 C 576.597 0.78644 1.85519 0
M  V30 5633 O 575.653 0.339714 2.50204 0
M  V30 5634 C 576.966 2.94893 0.588103 0
M  V30 5635 C 578.514 3.05602 0.67648 0
M  V30 5636 C 578.989 4.51716 0.756101 0
M  V30 5637 N 580.48 4.55894 0.819451 0
M  V30 5638 C 581.215 5.66272 0.90134 0
M  V30 5639 N 580.711 6.86323 0.945118 0
M  V30 5640 N 582.504 5.54201 0.939043 0
M  V30 5641 H 574.655 2.01406 -0.674493 0
M  V30 5642 H 576.918 0.916828 -0.241103 0
M  V30 5643 H 576.624 3.50334 -0.309633 0
M  V30 5644 H 576.498 3.4861 1.44051 0
M  V30 5645 H 578.885 2.50206 1.56465 0
M  V30 5646 H 578.966 2.54999 -0.202262 0
M  V30 5647 H 578.61 5.07739 -0.12774 0
M  V30 5648 H 578.54 5.00058 1.65074 0
M  V30 5649 H 581.031 3.69452 0.794594 0
M  V30 5650 H 581.344 7.66194 1.0083 0
M  V30 5651 H 579.689 6.88968 0.913683 0
M  V30 5652 H 582.88 4.59333 0.901725 0
M  V30 5653 H 583.053 6.40247 0.999402 0
M  V30 5654 N 576.459 -0.456382 1.50847 0
M  V30 5655 C 577.422 -1.53493 1.70213 0
M  V30 5656 C 578.422 -1.50264 0.572481 0
M  V30 5657 O 579.612 -1.52623 0.839751 0
M  V30 5658 C 576.744 -2.93091 1.741 0
M  V30 5659 H 577.937 -1.37633 2.66453 0
M  V30 5660 H 575.49 -0.683776 1.4055 0
M  V30 5661 H 576.225 -3.14378 0.796063 0
M  V30 5662 H 576.01 -2.9684 2.5618 0
M  V30 5663 H 577.5 -3.71368 1.90987 0
M  V30 5664 N 577.937 -1.40673 -0.710563 0
M  V30 5665 C 578.867 -1.44095 -1.83736 0
M  V30 5666 C 579.848 -0.301286 -1.67411 0
M  V30 5667 O 581.033 -0.510618 -1.87367 0
M  V30 5668 C 578.163 -1.30773 -3.21738 0
M  V30 5669 C 577.117 -2.42395 -3.52745 0
M  V30 5670 C 576.443 -2.14147 -4.89944 0
M  V30 5671 C 577.743 -3.84738 -3.53234 0
M  V30 5672 H 579.437 -2.38396 -1.81129 0
M  V30 5673 H 576.983 -1.14746 -0.870017 0
M  V30 5674 H 578.936 -1.31783 -4.00264 0
M  V30 5675 H 577.66 -0.329507 -3.24934 0
M  V30 5676 H 576.319 -2.40643 -2.76562 0
M  V30 5677 H 575.967 -1.14703 -4.89747 0
M  V30 5678 H 575.667 -2.88934 -5.11655 0
M  V30 5679 H 577.191 -2.16848 -5.70797 0
M  V30 5680 H 578.605 -3.88286 -4.2179 0
M  V30 5681 H 577.002 -4.59085 -3.86473 0
M  V30 5682 H 578.072 -4.13962 -2.52514 0
M  V30 5683 N 579.415 0.9433 -1.26252 0
M  V30 5684 C 580.826 1.50404 -1.10614 0
M  V30 5685 C 581.177 1.93666 0.31429 0
M  V30 5686 O 580.302 1.79709 1.20555 0
M  V30 5687 C 580.897 2.73336 -2.00182 0
M  V30 5688 C 579.456 3.25686 -1.88695 0
M  V30 5689 C 578.603 1.98474 -1.93658 0
M  V30 5690 H 581.554 0.759006 -1.39373 0
M  V30 5691 H 581.575 3.47567 -1.54847 0
M  V30 5692 H 581.087 2.41818 -3.03555 0
M  V30 5693 H 579.188 3.61998 -0.882489 0
M  V30 5694 H 579.301 3.92935 -2.74115 0
M  V30 5695 H 577.665 2.14278 -1.37684 0
M  V30 5696 H 578.448 1.6929 -2.98657 0
M  V30 5697 N 580.893 1.08022 1.14757 0
M  V30 5698 C 582.309 0.807072 1.3769 0
M  V30 5699 C 582.509 -0.585504 1.92806 0
M  V30 5700 O 581.565 -1.34301 2.13821 0
M  V30 5701 C 582.878 1.88651 2.34161 0
M  V30 5702 C 584.426 1.91206 2.47809 0
M  V30 5703 C 584.901 2.98253 3.47576 0
M  V30 5704 N 586.392 2.974 3.55117 0
M  V30 5705 C 587.127 3.76872 4.32152 0
M  V30 5706 N 586.623 4.66212 5.12463 0
M  V30 5707 N 588.416 3.6519 4.27309 0
M  V30 5708 H 580.567 1.97824 0.77326 0
M  V30 5709 H 582.83 0.85826 0.402608 0
M  V30 5710 H 582.536 2.88749 2.00791 0
M  V30 5711 H 582.41 1.75244 3.3402 0
M  V30 5712 H 584.797 0.917564 2.80472 0
M  V30 5713 H 584.878 2.08691 1.47925 0
M  V30 5714 H 584.522 3.97907 3.15646 0
M  V30 5715 H 584.452 2.78014 4.47231 0
M  V30 5716 H 586.943 2.32643 2.97801 0
M  V30 5717 H 587.256 5.23468 5.68508 0
M  V30 5718 H 585.601 4.70257 5.11745 0
M  V30 5719 H 588.792 2.94765 3.63636 0
M  V30 5720 H 588.965 4.27366 4.87095 0
M  V30 5721 N 582.371 -1.3172 0.865308 0
M  V30 5722 C 583.334 -2.26918 0.322627 0
M  V30 5723 C 584.334 -1.52031 -0.523751 0
M  V30 5724 O 585.524 -1.70973 -0.333727 0
M  V30 5725 C 582.656 -3.36558 -0.542338 0
M  V30 5726 H 583.849 -2.76432 1.16298 0
M  V30 5727 H 581.402 -1.42573 0.640512 0
M  V30 5728 H 582.137 -2.92329 -1.40407 0
M  V30 5729 H 581.922 -3.92048 0.0636395 0
M  V30 5730 H 583.412 -4.07465 -0.91446 0
M  V30 5731 N 583.85 -0.624285 -1.44708 0
M  V30 5732 C 584.782 0.12305 -2.28869 0
M  V30 5733 C 585.795 0.81557 -1.40898 0
M  V30 5734 O 586.984 0.678162 -1.65116 0
M  V30 5735 C 584.084 1.19612 -3.1709 0
M  V30 5736 C 583.257 0.587452 -4.33437 0
M  V30 5737 C 582.316 1.55358 -5.02743 0
M  V30 5738 O 581.341 1.07338 -5.58988 0
M  V30 5739 N 582.543 2.88798 -5.03563 0
M  V30 5740 H 585.308 -0.599193 -2.93649 0
M  V30 5741 H 582.87 -0.464954 -1.5508 0
M  V30 5742 H 584.861 1.84261 -3.60319 0
M  V30 5743 H 583.432 1.82067 -2.54107 0
M  V30 5744 H 582.652 -0.237509 -3.93484 0
M  V30 5745 H 583.94 0.161326 -5.08544 0
M  V30 5746 H 583.338 3.30399 -4.59188 0
M  V30 5747 H 581.894 3.48826 -5.50603 0
M  V30 5748 N 585.328 1.53329 -0.364422 0
M  V30 5749 C 586.238 2.29414 0.490552 0
M  V30 5750 C 587.254 1.35335 1.09363 0
M  V30 5751 O 588.43 1.68391 1.10483 0
M  V30 5752 C 585.495 3.06772 1.61529 0
M  V30 5753 C 584.556 4.16516 1.03986 0
M  V30 5754 C 583.789 4.90176 2.111 0
M  V30 5755 O 584.012 4.63687 3.32191 0
M  V30 5756 O 582.946 5.76134 1.74222 0
M  V30 5757 H 586.772 3.03428 -0.12856 0
M  V30 5758 H 584.357 1.48843 -0.128837 0
M  V30 5759 H 586.239 3.55082 2.26924 0
M  V30 5760 H 584.914 2.35596 2.21983 0
M  V30 5761 H 583.821 3.7246 0.349856 0
M  V30 5762 H 585.154 4.89855 0.4799 0
M  V30 5763 N 586.806 0.0935595 1.57322 0
M  V30 5764 C 588.052 -0.571355 1.94585 0
M  V30 5765 C 588.385 -1.67929 0.975366 0
M  V30 5766 O 587.66 -1.94498 0.00816206 0
M  V30 5767 C 587.943 -1.12797 3.41978 0
M  V30 5768 C 587.796 -0.0251881 4.49793 0
M  V30 5769 C 589.115 -2.02682 3.90651 0
M  V30 5770 H 586.234 -0.206223 0.70756 0
M  V30 5771 H 588.876 0.163956 1.89291 0
M  V30 5772 H 587.026 -1.75461 3.4662 0
M  V30 5773 H 588.698 0.608979 4.57263 0
M  V30 5774 H 586.941 0.641399 4.29032 0
M  V30 5775 H 587.612 -0.455433 5.50118 0
M  V30 5776 H 590.088 -1.49925 3.88152 0
M  V30 5777 H 588.964 -2.38555 4.94351 0
M  V30 5778 H 589.225 -2.94362 3.29854 0
M  V30 5779 N 588.284 -1.56567 -0.180126 0
M  V30 5780 C 589.214 -1.98753 -1.22553 0
M  V30 5781 C 590.195 -0.86175 -1.46656 0
M  V30 5782 O 591.38 -1.12719 -1.58139 0
M  V30 5783 C 588.51 -2.33988 -2.56645 0
M  V30 5784 C 587.464 -3.49445 -2.47128 0
M  V30 5785 C 586.79 -3.70397 -3.8563 0
M  V30 5786 C 588.09 -4.83171 -1.98352 0
M  V30 5787 H 589.784 -2.86332 -0.874896 0
M  V30 5788 H 587.33 -1.37757 -0.419414 0
M  V30 5789 H 589.283 -2.62097 -3.29974 0
M  V30 5790 H 588.007 -1.43309 -2.93479 0
M  V30 5791 H 586.666 -3.2145 -1.76254 0
M  V30 5792 H 586.314 -2.77023 -4.19842 0
M  V30 5793 H 586.014 -4.48077 -3.80132 0
M  V30 5794 H 587.538 -4.00897 -4.60558 0
M  V30 5795 H 588.952 -5.10213 -2.61449 0
M  V30 5796 H 587.349 -5.64425 -2.03823 0
M  V30 5797 H 588.419 -4.75753 -0.937402 0
M  V30 5798 N 589.762 0.448376 -1.51087 0
M  V30 5799 C 590.709 1.54341 -1.71603 0
M  V30 5800 C 591.679 1.56463 -0.557536 0
M  V30 5801 O 592.864 1.73644 -0.79072 0
M  V30 5802 C 590.004 2.92148 -1.83695 0
M  V30 5803 C 589.117 2.99639 -3.11192 0
M  V30 5804 C 588.252 4.285 -3.13944 0
M  V30 5805 C 587.291 4.29819 -4.35801 0
M  V30 5806 N 586.428 5.50186 -4.36164 0
M  V30 5807 H 591.268 1.36151 -2.65079 0
M  V30 5808 H 588.805 0.661585 -1.31383 0
M  V30 5809 H 590.763 3.72093 -1.88687 0
M  V30 5810 H 589.393 3.0892 -0.936374 0
M  V30 5811 H 588.445 2.12425 -3.15562 0
M  V30 5812 H 589.757 2.96474 -4.01129 0
M  V30 5813 H 588.911 5.16811 -3.17791 0
M  V30 5814 H 587.65 4.34307 -2.21876 0
M  V30 5815 H 586.655 3.39902 -4.32142 0
M  V30 5816 H 587.88 4.25685 -5.29121 0
M  V30 5817 H 585.826 5.56735 -3.46961 0
M  V30 5818 H 585.743 5.48856 -5.19897 0
M  V30 5819 H 587.011 6.40559 -4.44189 0
M  V30 5820 N 591.24 1.41047 0.703093 0
M  V30 5821 C 592.489 1.39301 1.4587 0
M  V30 5822 C 592.802 0.00267077 1.956 0
M  V30 5823 O 594.008 -0.137414 2.71152 0
M  V30 5824 C 592.464 2.44891 2.63735 0
M  V30 5825 C 592.072 3.89796 2.20824 0
M  V30 5826 C 593.816 2.5227 3.41409 0
M  V30 5827 C 591.723 4.86955 3.35602 0
M  V30 5828 H 590.653 0.518005 0.547893 0
M  V30 5829 H 593.304 1.66839 0.764009 0
M  V30 5830 H 591.686 2.10472 3.35436 0
M  V30 5831 H 592.86 4.33424 1.56461 0
M  V30 5832 H 591.175 3.86008 1.56163 0
M  V30 5833 H 593.772 3.22044 4.26839 0
M  V30 5834 H 594.115 1.55714 3.86081 0
M  V30 5835 H 594.648 2.85742 2.7676 0
M  V30 5836 H 591.387 5.84888 2.9595 0
M  V30 5837 H 590.907 4.47982 3.98839 0
M  V30 5838 H 592.586 5.07361 4.01489 0
M  V30 5839 N 592.718 -0.936591 1.26751 0
M  V30 5840 C 593.948 -1.71509 1.15188 0
M  V30 5841 C 594.356 -1.86885 -0.295037 0
M  V30 5842 O 593.699 -1.37915 -1.21347 0
M  V30 5843 C 593.761 -3.13853 1.75318 0
M  V30 5844 C 593.425 -3.21845 3.24445 0
M  V30 5845 C 594.422 -3.04771 4.21201 0
M  V30 5846 C 592.107 -3.45088 3.64992 0
M  V30 5847 C 594.101 -3.10816 5.56482 0
M  V30 5848 C 591.788 -3.50767 5.00405 0
M  V30 5849 C 592.786 -3.33648 5.9596 0
M  V30 5850 O 592.474 -3.39045 7.28906 0
M  V30 5851 H 592.206 -0.543658 0.401761 0
M  V30 5852 H 594.76 -1.18234 1.67958 0
M  V30 5853 H 592.99 -3.6857 1.17016 0
M  V30 5854 H 594.679 -3.73634 1.58596 0
M  V30 5855 H 595.445 -2.86665 3.91214 0
M  V30 5856 H 591.324 -3.57467 2.91098 0
M  V30 5857 H 594.868 -2.97372 6.31043 0
M  V30 5858 H 590.765 -3.68396 5.30052 0
M  V30 5859 H 591.533 -3.55558 7.37238 0
M  V30 5860 N 594.196 -1.08629 -1.14182 0
M  V30 5861 C 595.607 -0.838003 -1.66836 0
M  V30 5862 C 595.958 0.634885 -1.85644 0
M  V30 5863 O 595.083 1.49008 -1.56926 0
M  V30 5864 C 595.678 -1.51465 -3.03058 0
M  V30 5865 C 594.237 -1.31355 -3.52736 0
M  V30 5866 C 593.384 -1.57599 -2.28162 0
M  V30 5867 H 596.335 -1.24656 -0.982165 0
M  V30 5868 H 596.356 -0.943134 -3.68626 0
M  V30 5869 H 595.868 -2.58661 -2.89337 0
M  V30 5870 H 593.969 -0.262384 -3.71675 0
M  V30 5871 H 594.082 -2.04275 -4.33369 0
M  V30 5872 H 592.446 -0.997659 -2.34348 0
M  V30 5873 H 593.229 -2.66006 -2.17015 0
M  V30 5874 N 595.674 1.31259 -0.872281 0
M  V30 5875 C 596.922 1.96233 -0.483409 0
M  V30 5876 C 597.243 1.69276 0.968012 0
M  V30 5877 O 596.513 1.00943 1.67891 0
M  V30 5878 H 595.093 0.726025 -0.175774 0
M  V30 5879 H 597.755 1.60024 -1.11258 0
M  V30 5880 H 596.851 3.05403 -0.643075 0
M  V30 5881 N 597.152 0.631951 1.44375 0
M  V30 5882 C 598.398 0.145491 2.02879 0
M  V30 5883 C 598.753 -1.21936 1.48827 0
M  V30 5884 O 598.046 -1.7976 0.663085 0
M  V30 5885 C 598.24 0.0735861 3.57324 0
M  V30 5886 C 598.069 1.42992 4.2636 0
M  V30 5887 C 596.839 2.01691 4.63302 0
M  V30 5888 C 599.037 2.36393 4.56752 0
M  V30 5889 N 597.019 3.30551 5.17309 0
M  V30 5890 C 598.39 3.49869 5.11851 0
M  V30 5891 C 600.445 2.35462 4.38705 0
M  V30 5892 C 599.148 4.6261 5.50803 0
M  V30 5893 C 601.174 3.47268 4.78706 0
M  V30 5894 C 600.536 4.59467 5.33919 0
M  V30 5895 H 596.635 0.0971781 0.775938 0
M  V30 5896 H 599.219 0.835624 1.75856 0
M  V30 5897 H 597.39 -0.585829 3.83957 0
M  V30 5898 H 599.122 -0.421777 4.02496 0
M  V30 5899 H 595.877 1.54627 4.47647 0
M  V30 5900 H 596.301 3.96435 5.48788 0
M  V30 5901 H 600.943 1.49966 3.9531 0
M  V30 5902 H 598.661 5.48813 5.93152 0
M  V30 5903 H 602.247 3.47724 4.66454 0
M  V30 5904 H 601.127 5.44551 5.64299 0
M  V30 5905 N 598.631 -1.53133 0.372548 0
M  V30 5906 C 599.561 -2.28876 -0.462412 0
M  V30 5907 C 600.542 -1.31583 -1.07796 0
M  V30 5908 O 601.727 -1.60461 -1.09389 0
M  V30 5909 C 598.857 -3.08317 -1.59868 0
M  V30 5910 C 597.811 -4.13355 -1.11003 0
M  V30 5911 C 597.137 -4.8092 -2.33708 0
M  V30 5912 C 598.437 -5.21955 -0.18983 0
M  V30 5913 H 600.131 -2.9892 0.169511 0
M  V30 5914 H 597.677 -1.43761 0.0829658 0
M  V30 5915 H 599.63 -3.60055 -2.18949 0
M  V30 5916 H 598.354 -2.35976 -2.25794 0
M  V30 5917 H 597.013 -3.62573 -0.541869 0
M  V30 5918 H 596.661 -4.05144 -2.98106 0
M  V30 5919 H 596.361 -5.51904 -2.01682 0
M  V30 5920 H 597.885 -5.35455 -2.93462 0
M  V30 5921 H 599.299 -5.69153 -0.688319 0
M  V30 5922 H 597.696 -6.00087 0.0398887 0
M  V30 5923 H 598.766 -4.78811 0.766057 0
M  V30 5924 N 600.109 -0.101901 -1.5727 0
M  V30 5925 C 601.056 0.854577 -2.14396 0
M  V30 5926 C 602.026 1.27521 -1.06432 0
M  V30 5927 O 603.211 1.35575 -1.34253 0
M  V30 5928 C 600.351 2.10576 -2.73408 0
M  V30 5929 C 599.464 1.73504 -3.95626 0
M  V30 5930 C 598.599 2.9346 -4.42781 0
M  V30 5931 C 597.638 2.52547 -5.57572 0
M  V30 5932 N 596.775 3.65359 -5.99547 0
M  V30 5933 H 601.615 0.360578 -2.9581 0
M  V30 5934 H 599.152 0.166303 -1.46157 0
M  V30 5935 H 601.11 2.83859 -3.05745 0
M  V30 5936 H 599.74 2.57463 -1.94711 0
M  V30 5937 H 598.792 0.901622 -3.6956 0
M  V30 5938 H 600.104 1.39426 -4.78917 0
M  V30 5939 H 599.258 3.74988 -4.76937 0
M  V30 5940 H 597.997 3.30753 -3.58404 0
M  V30 5941 H 597.002 1.69446 -5.23037 0
M  V30 5942 H 598.227 2.1639 -6.43702 0
M  V30 5943 H 596.173 4.02358 -5.18116 0
M  V30 5944 H 596.09 3.35148 -6.77652 0
M  V30 5945 H 597.358 4.47378 -6.38336 0
M  V30 5946 N 601.587 1.56661 0.17182 0
M  V30 5947 C 602.833 1.82235 0.889845 0
M  V30 5948 C 603.166 0.679673 1.81918 0
M  V30 5949 O 602.441 -0.318404 1.91876 0
M  V30 5950 C 602.724 3.18195 1.68595 0
M  V30 5951 C 602.577 4.42989 0.779773 0
M  V30 5952 C 603.896 3.5109 2.65375 0
M  V30 5953 H 601.015 0.66291 0.322056 0
M  V30 5954 H 603.657 1.89358 0.15608 0
M  V30 5955 H 601.807 3.12253 2.3115 0
M  V30 5956 H 603.479 4.60997 0.16714 0
M  V30 5957 H 601.722 4.33711 0.0877964 0
M  V30 5958 H 602.393 5.3467 1.3723 0
M  V30 5959 H 604.869 3.57482 2.12946 0
M  V30 5960 H 603.745 4.47298 3.18144 0
M  V30 5961 H 604.006 2.75768 3.45549 0
M  V30 5962 N 603.065 -0.440357 1.51323 0
M  V30 5963 C 604.313 -1.18769 1.63518 0
M  V30 5964 C 604.634 -1.91793 0.352201 0
M  V30 5965 O 603.904 -1.85432 -0.631811 0
M  V30 5966 H 602.484 -0.441408 0.602634 0
M  V30 5967 H 605.146 -0.505162 1.8824 0
M  V30 5968 H 604.242 -1.91892 2.46138 0
M  V30 5969 N 604.543 -1.41418 -0.695603 0
M  V30 5970 C 605.789 -1.40982 -1.4578 0
M  V30 5971 C 606.122 -0.0187763 -1.94191 0
M  V30 5972 O 605.397 0.95346 -1.69527 0
M  V30 5973 C 605.68 -2.41657 -2.66972 0
M  V30 5974 C 605.533 -3.89869 -2.24327 0
M  V30 5975 C 606.852 -2.39589 -3.69168 0
M  V30 5976 H 603.971 -0.513405 -0.528757 0
M  V30 5977 H 606.613 -1.72693 -0.792275 0
M  V30 5978 H 604.763 -2.14746 -3.23754 0
M  V30 5979 H 606.435 -4.27683 -1.72872 0
M  V30 5980 H 604.678 -4.04737 -1.56111 0
M  V30 5981 H 605.349 -4.55857 -3.11285 0
M  V30 5982 H 607.825 -2.63471 -3.2206 0
M  V30 5983 H 606.701 -3.12044 -4.51575 0
M  V30 5984 H 606.962 -1.41447 -4.18862 0
M  V30 5985 N 606.021 0.929856 -1.27246 0
M  V30 5986 C 606.984 2.01172 -1.09829 0
M  V30 5987 C 607.984 1.60743 -0.0429687 0
M  V30 5988 O 609.174 1.71813 -0.287373 0
M  V30 5989 C 606.306 3.34191 -0.673003 0
M  V30 5990 H 607.499 2.18054 -2.05895 0
M  V30 5991 H 605.052 1.11036 -1.10003 0
M  V30 5992 H 605.787 3.23009 0.289134 0
M  V30 5993 H 605.572 3.64892 -1.43515 0
M  V30 5994 H 607.062 4.13646 -0.573323 0
M  V30 5995 N 607.499 1.09233 1.13605 0
M  V30 5996 C 608.729 0.847677 1.88409 0
M  V30 5997 C 609.137 -0.604524 1.79282 0
M  V30 5998 O 608.48 -1.42773 1.15592 0
M  V30 5999 C 608.542 1.20153 3.38827 0
M  V30 6000 C 608.206 2.65824 3.71735 0
M  V30 6001 C 609.203 3.64072 3.71143 0
M  V30 6002 C 606.888 3.01894 4.01454 0
M  V30 6003 C 608.882 4.96419 3.99808 0
M  V30 6004 C 606.569 4.34433 4.29781 0
M  V30 6005 C 607.567 5.31505 4.28942 0
M  V30 6006 O 607.255 6.61659 4.56576 0
M  V30 6007 H 606.987 0.304813 0.603378 0
M  V30 6008 H 609.541 1.4573 1.44748 0
M  V30 6009 H 607.771 0.534946 3.82982 0
M  V30 6010 H 609.46 0.936349 3.94952 0
M  V30 6011 H 610.226 3.37549 3.4826 0
M  V30 6012 H 606.105 2.26971 4.01255 0
M  V30 6013 H 609.649 5.7218 3.99069 0
M  V30 6014 H 605.546 4.607 4.52135 0
M  V30 6015 H 606.314 6.67102 4.74254 0
M  V30 6016 N 608.977 -1.30795 0.87923 0
M  V30 6017 C 610.223 -1.96653 0.495519 0
M  V30 6018 C 610.556 -1.69282 -0.951703 0
M  V30 6019 O 609.831 -0.994374 -1.6716 0
M  V30 6020 C 610.114 -3.51898 0.764174 0
M  V30 6021 C 609.967 -3.88808 2.2616 0
M  V30 6022 C 611.286 -4.39462 0.236825 0
M  V30 6023 H 608.405 -0.7143 0.181507 0
M  V30 6024 H 611.047 -1.54765 1.10217 0
M  V30 6025 H 609.197 -3.87709 0.247841 0
M  V30 6026 H 610.869 -3.63051 2.8459 0
M  V30 6027 H 609.112 -3.37082 2.73053 0
M  V30 6028 H 609.783 -4.97086 2.4002 0
M  V30 6029 H 612.259 -4.10528 0.678683 0
M  V30 6030 H 611.135 -5.47018 0.454176 0
M  V30 6031 H 611.396 -4.33621 -0.861683 0
M  V30 6032 N 610.455 -0.639598 -1.44038 0
M  V30 6033 C 611.68 -0.153117 -2.06834 0
M  V30 6034 C 612.105 1.16676 -1.47541 0
M  V30 6035 O 611.463 1.71769 -0.580093 0
M  V30 6036 C 611.511 -0.0609169 -3.60549 0
M  V30 6037 O 610.615 0.98071 -4.00569 0
M  V30 6038 H 609.956 -0.0886402 -0.658057 0
M  V30 6039 H 612.486 -0.878674 -1.84771 0
M  V30 6040 H 612.496 0.126892 -4.07803 0
M  V30 6041 H 611.171 -1.0245 -4.03084 0
M  V30 6042 H 609.748 0.766789 -3.64931 0
M  V30 6043 N 611.933 1.52934 -0.380664 0
M  V30 6044 C 613.179 2.01765 0.20458 0
M  V30 6045 C 613.512 1.26696 1.47179 0
M  V30 6046 O 612.787 0.364936 1.91046 0
M  V30 6047 C 613.07 3.56869 0.481269 0
M  V30 6048 C 612.923 4.42617 -0.800629 0
M  V30 6049 C 614.242 4.2121 1.27554 0
M  V30 6050 H 611.361 0.733388 0.0728803 0
M  V30 6051 H 614.003 1.83068 -0.50853 0
M  V30 6052 H 612.153 3.72932 1.08875 0
M  V30 6053 H 613.825 4.38323 -1.43773 0
M  V30 6054 H 612.068 4.09977 -1.4178 0
M  V30 6055 H 612.739 5.49134 -0.561791 0
M  V30 6056 H 615.215 4.09072 0.761514 0
M  V30 6057 H 614.091 5.29732 1.43788 0
M  V30 6058 H 614.352 3.78269 2.28833 0
M  V30 6059 N 613.412 0.11024 1.57214 0
M  V30 6060 C 614.828 -0.24638 1.57687 0
M  V30 6061 C 615.028 -1.67344 1.12241 0
M  V30 6062 O 614.084 -2.39298 0.805783 0
M  V30 6063 C 615.397 -0.0210288 3.00693 0
M  V30 6064 C 616.945 -0.0876077 3.12877 0
M  V30 6065 C 617.42 0.10994 4.57868 0
M  V30 6066 N 618.911 0.0556135 4.63167 0
M  V30 6067 C 619.646 0.183495 5.73106 0
M  V30 6068 N 619.142 0.367058 6.91827 0
M  V30 6069 N 620.935 0.123689 5.61964 0
M  V30 6070 H 613.086 1.04246 1.85058 0
M  V30 6071 H 615.349 0.40979 0.854854 0
M  V30 6072 H 615.055 0.965203 3.38196 0
M  V30 6073 H 614.929 -0.756748 3.69531 0
M  V30 6074 H 617.316 -1.06436 2.75237 0
M  V30 6075 H 617.397 0.67985 2.466 0
M  V30 6076 H 617.041 1.08362 4.96206 0
M  V30 6077 H 616.971 -0.677397 5.22225 0
M  V30 6078 H 619.462 -0.0831062 3.77809 0
M  V30 6079 H 619.775 0.455739 7.71455 0
M  V30 6080 H 618.12 0.40292 6.93831 0
M  V30 6081 H 621.311 -0.0186928 4.68096 0
M  V30 6082 H 621.484 0.226797 6.47603 0
M  V30 6083 N 614.89 -1.56749 -0.16351 0
M  V30 6084 C 616.136 -1.82704 -0.880168 0
M  V30 6085 C 616.469 -0.689311 -1.81555 0
M  V30 6086 O 615.744 0.308224 -1.92042 0
M  V30 6087 C 616.027 -3.19084 -1.66905 0
M  V30 6088 C 615.88 -4.43397 -0.756269 0
M  V30 6089 C 617.199 -3.52493 -2.63509 0
M  V30 6090 H 614.318 -0.664608 -0.318535 0
M  V30 6091 H 616.96 -1.89438 -0.146036 0
M  V30 6092 H 615.11 -3.13475 -2.2949 0
M  V30 6093 H 616.782 -4.61079 -0.14269 0
M  V30 6094 H 615.025 -4.33752 -0.0647944 0
M  V30 6095 H 615.696 -5.3539 -1.34393 0
M  V30 6096 H 618.172 -3.58606 -2.11047 0
M  V30 6097 H 617.048 -4.48979 -3.15767 0
M  V30 6098 H 617.309 -2.77597 -3.44082 0
M  V30 6099 N 616.368 0.432326 -1.51554 0
M  V30 6100 C 617.596 1.20364 -1.68286 0
M  V30 6101 C 618.011 1.84888 -0.38233 0
M  V30 6102 O 617.368 1.70924 0.639627 0
M  V30 6103 C 617.419 2.28398 -2.80208 0
M  V30 6104 O 617.14 1.66512 -4.05223 0
M  V30 6105 C 618.641 3.18584 -3.08251 0
M  V30 6106 H 615.861 0.36259 -0.564596 0
M  V30 6107 H 618.405 0.511647 -1.97996 0
M  V30 6108 H 616.56 2.93305 -2.53083 0
M  V30 6109 H 616.974 2.37951 -4.67418 0
M  V30 6110 H 618.448 3.90511 -3.90135 0
M  V30 6111 H 618.925 3.79628 -2.2086 0
M  V30 6112 H 619.531 2.59372 -3.37055 0
M  V30 6113 N 617.846 1.41785 0.688094 0
M  V30 6114 C 619.257 1.3701 1.26828 0
M  V30 6115 C 619.608 0.056835 1.96118 0
M  V30 6116 O 618.733 -0.84475 1.99231 0
M  V30 6117 C 619.328 2.48168 2.30648 0
M  V30 6118 C 617.887 2.46766 2.84224 0
M  V30 6119 C 617.034 2.27633 1.58361 0
M  V30 6120 H 619.985 1.51192 0.482351 0
M  V30 6121 H 620.006 2.17655 3.121 0
M  V30 6122 H 619.518 3.43735 1.80188 0
M  V30 6123 H 617.619 1.54978 3.3884 0
M  V30 6124 H 617.732 3.43342 3.34145 0
M  V30 6125 H 616.096 1.75648 1.84445 0
M  V30 6126 H 616.879 3.25238 1.09887 0
M  V30 6127 N 619.324 -0.923095 1.27737 0
M  V30 6128 C 620.271 -2.02432 1.1086 0
M  V30 6129 C 621.241 -1.66098 0.00835195 0
M  V30 6130 O 622.426 -1.90027 0.171542 0
M  V30 6131 C 619.566 -3.36476 0.766671 0
M  V30 6132 C 618.679 -3.85737 1.94501 0
M  V30 6133 C 617.814 -5.08249 1.54455 0
M  V30 6134 C 616.853 -5.49818 2.6901 0
M  V30 6135 N 615.99 -6.63524 2.29521 0
M  V30 6136 H 620.83 -2.16201 2.05089 0
M  V30 6137 H 618.367 -1.05909 1.02087 0
M  V30 6138 H 620.325 -4.13569 0.549223 0
M  V30 6139 H 618.955 -3.22502 -0.13867 0
M  V30 6140 H 618.007 -3.04883 2.27487 0
M  V30 6141 H 619.319 -4.12513 2.80419 0
M  V30 6142 H 618.473 -5.92857 1.28862 0
M  V30 6143 H 617.212 -4.83261 0.656534 0
M  V30 6144 H 616.217 -4.63757 2.95313 0
M  V30 6145 H 617.442 -5.76799 3.5844 0
M  V30 6146 H 615.388 -6.40185 1.43177 0
M  V30 6147 H 615.305 -6.89978 3.08977 0
M  V30 6148 H 616.573 -7.51461 2.07187 0
M  V30 6149 N 620.802 -1.09834 -1.13024 0
M  V30 6150 C 622.027 -0.85909 -1.88771 0
M  V30 6151 C 622.452 0.584402 -1.78791 0
M  V30 6152 O 621.81 1.41101 -1.13842 0
M  V30 6153 C 621.858 -1.30427 -3.36186 0
M  V30 6154 O 620.962 -0.465368 -4.09766 0
M  V30 6155 H 620.303 -0.310786 -0.586778 0
M  V30 6156 H 622.833 -1.46355 -1.42973 0
M  V30 6157 H 622.843 -1.2915 -3.8702 0
M  V30 6158 H 621.518 -2.3555 -3.42767 0
M  V30 6159 H 620.095 -0.542814 -3.68928 0
M  V30 6160 N 622.28 1.30327 -0.886154 0
M  V30 6161 C 623.508 2.00254 -0.520176 0
M  V30 6162 C 623.923 1.66419 0.891637 0
M  V30 6163 O 623.28 0.901951 1.58654 0
M  V30 6164 C 623.331 3.54916 -0.686775 0
M  V30 6165 O 623.052 3.87547 -2.04301 0
M  V30 6166 C 624.553 4.42115 -0.323945 0
M  V30 6167 H 621.773 0.640204 -0.200947 0
M  V30 6168 H 624.317 1.66183 -1.19178 0
M  V30 6169 H 622.472 3.8735 -0.0625273 0
M  V30 6170 H 622.886 4.82247 -2.06249 0
M  V30 6171 H 624.36 5.49808 -0.491407 0
M  V30 6172 H 624.837 4.32953 0.73811 0
M  V30 6173 H 625.443 4.15129 -0.924565 0
M  V30 6174 N 623.758 0.647228 1.43697 0
M  V30 6175 C 624.721 -0.0385101 2.29168 0
M  V30 6176 C 625.721 -0.756487 1.41894 0
M  V30 6177 O 626.911 -0.598641 1.63591 0
M  V30 6178 C 624.043 -1.06524 3.23829 0
M  V30 6179 H 625.236 0.713445 2.9129 0
M  V30 6180 H 622.789 0.408153 1.50877 0
M  V30 6181 H 623.524 -1.84664 2.66589 0
M  V30 6182 H 623.309 -0.554147 3.88164 0
M  V30 6183 H 624.799 -1.54432 3.87996 0
M  V30 6184 N 625.236 -1.5273 0.388769 0
M  V30 6185 C 626.652 -1.59553 0.0387049 0
M  V30 6186 C 626.852 -1.40278 -1.44652 0
M  V30 6187 O 625.908 -1.21951 -2.21098 0
M  V30 6188 C 627.221 -2.9625 0.515409 0
M  V30 6189 C 628.769 -3.09426 0.471621 0
M  V30 6190 C 629.244 -4.48572 0.924505 0
M  V30 6191 N 630.735 -4.54754 0.880496 0
M  V30 6192 C 631.47 -5.60653 1.20234 0
M  V30 6193 N 630.966 -6.74198 1.59463 0
M  V30 6194 N 632.759 -5.50755 1.12363 0
M  V30 6195 H 624.91 -1.63508 1.35569 0
M  V30 6196 H 627.173 -0.768097 0.555636 0
M  V30 6197 H 626.879 -3.15569 1.5527 0
M  V30 6198 H 626.753 -3.77102 -0.085792 0
M  V30 6199 H 629.14 -2.89804 -0.556588 0
M  V30 6200 H 629.221 -2.30528 1.10862 0
M  V30 6201 H 628.865 -4.68936 1.95094 0
M  V30 6202 H 628.795 -5.25935 0.264524 0
M  V30 6203 H 631.286 -3.73237 0.591815 0
M  V30 6204 H 631.599 -7.5097 1.82385 0
M  V30 6205 H 629.944 -6.75531 1.63349 0
M  V30 6206 H 633.135 -4.6093 0.816169 0
M  V30 6207 H 633.308 -6.33184 1.37777 0
M  V30 6208 N 626.714 -0.118576 -1.57153 0
M  V30 6209 C 627.939 0.550582 -1.99958 0
M  V30 6210 C 628.364 1.59458 -0.997736 0
M  V30 6211 O 627.722 1.81274 0.0306269 0
M  V30 6212 C 627.77 1.15379 -3.41643 0
M  V30 6213 O 626.874 2.26932 -3.44348 0
M  V30 6214 H 626.215 0.137567 -0.649593 0
M  V30 6215 H 628.745 -0.206926 -2.03551 0
M  V30 6216 H 628.755 1.48942 -3.79843 0
M  V30 6217 H 627.43 0.389087 -4.14076 0
M  V30 6218 H 626.007 1.94812 -3.17967 0
M  V30 6219 N 628.193 1.56834 0.155195 0
M  V30 6220 C 629.439 1.83169 0.870467 0
M  V30 6221 C 629.772 0.698929 1.81187 0
M  V30 6222 O 629.047 -0.298035 1.92203 0
M  V30 6223 C 629.33 3.19965 1.65211 0
M  V30 6224 C 629.183 4.43792 0.732744 0
M  V30 6225 C 630.502 3.53885 2.61636 0
M  V30 6226 H 627.621 0.666288 0.315006 0
M  V30 6227 H 630.263 1.89513 0.135988 0
M  V30 6228 H 628.413 3.14687 2.27825 0
M  V30 6229 H 630.085 4.61148 0.118236 0
M  V30 6230 H 628.328 4.3378 0.0417906 0
M  V30 6231 H 628.999 5.36095 1.31552 0
M  V30 6232 H 631.475 3.5972 2.09143 0
M  V30 6233 H 630.351 4.50648 3.13381 0
M  V30 6234 H 630.612 2.79418 3.42605 0
M  V30 6235 N 629.671 -0.424282 1.51781 0
M  V30 6236 C 630.917 -1.17434 1.6534 0
M  V30 6237 C 631.25 -1.90549 0.374806 0
M  V30 6238 O 630.525 -1.84145 -0.626179 0
M  V30 6239 C 630.808 -2.18093 2.86544 0
M  V30 6240 C 630.661 -1.48975 4.24413 0
M  V30 6241 C 631.98 -3.18934 3.03264 0
M  V30 6242 H 629.099 -0.425566 0.601716 0
M  V30 6243 H 631.741 -0.461921 1.84299 0
M  V30 6244 H 629.891 -2.78849 2.7051 0
M  V30 6245 H 631.563 -0.914551 4.52143 0
M  V30 6246 H 629.806 -0.791893 4.26511 0
M  V30 6247 H 630.477 -2.22347 5.05238 0
M  V30 6248 H 632.953 -2.68243 3.18096 0
M  V30 6249 H 631.829 -3.86645 3.89611 0
M  V30 6250 H 632.09 -3.85793 2.15908 0
M  V30 6251 N 631.149 -1.42148 -0.680565 0
M  V30 6252 C 632.079 -1.4796 -1.80638 0
M  V30 6253 C 633.06 -0.336728 -1.66734 0
M  V30 6254 O 634.245 -0.550247 -1.86242 0
M  V30 6255 C 631.375 -1.37569 -3.18892 0
M  V30 6256 C 630.329 -2.49823 -3.47524 0
M  V30 6257 C 629.655 -2.24491 -4.85291 0
M  V30 6258 C 630.955 -3.92144 -3.44994 0
M  V30 6259 H 632.649 -2.42184 -1.76032 0
M  V30 6260 H 630.195 -1.16566 -0.845481 0
M  V30 6261 H 632.148 -1.40243 -3.97379 0
M  V30 6262 H 630.872 -0.398357 -3.24162 0
M  V30 6263 H 629.531 -2.46455 -2.71395 0
M  V30 6264 H 629.179 -1.25066 -4.87204 0
M  V30 6265 H 628.879 -2.99722 -5.05411 0
M  V30 6266 H 630.403 -2.28906 -5.66069 0
M  V30 6267 H 631.817 -3.97145 -4.13459 0
M  V30 6268 H 630.214 -4.67179 -3.76648 0
M  V30 6269 H 631.284 -4.19225 -2.43676 0
M  V30 6270 N 632.627 0.916307 -1.28225 0
M  V30 6271 C 633.537 2.05165 -1.13775 0
M  V30 6272 C 634.553 1.73879 -0.0649418 0
M  V30 6273 O 635.729 1.99531 -0.273722 0
M  V30 6274 C 632.794 3.37385 -0.798267 0
M  V30 6275 C 631.855 3.82296 -1.95316 0
M  V30 6276 C 631.088 5.08206 -1.62978 0
M  V30 6277 O 631.311 5.6781 -0.542948 0
M  V30 6278 O 630.245 5.48768 -2.47261 0
M  V30 6279 H 634.071 2.20273 -2.09078 0
M  V30 6280 H 631.656 1.0373 -1.07519 0
M  V30 6281 H 633.538 4.16773 -0.62278 0
M  V30 6282 H 632.213 3.23458 0.125139 0
M  V30 6283 H 631.12 3.03746 -2.18378 0
M  V30 6284 H 632.453 4.00782 -2.85718 0
M  V30 6285 N 634.105 1.10431 1.1244 0
M  V30 6286 C 635.351 0.847972 1.84221 0
M  V30 6287 C 635.684 -0.624903 1.83871 0
M  V30 6288 O 634.959 -1.46074 1.28423 0
M  V30 6289 C 635.242 1.39695 3.319 0
M  V30 6290 C 635.095 2.93668 3.40704 0
M  V30 6291 C 636.414 1.03924 4.27654 0
M  V30 6292 H 633.533 0.309502 0.668863 0
M  V30 6293 H 636.175 1.36745 1.31912 0
M  V30 6294 H 634.325 0.955095 3.76577 0
M  V30 6295 H 635.997 3.46379 3.04662 0
M  V30 6296 H 634.24 3.30272 2.81252 0
M  V30 6297 H 634.911 3.27162 4.446 0
M  V30 6298 H 637.387 1.42049 3.91102 0
M  V30 6299 H 636.263 1.45027 5.29394 0
M  V30 6300 H 636.524 -0.051336 4.4207 0
M  V30 6301 N 635.583 -1.29855 0.893053 0
M  V30 6302 C 636.513 -2.3035 0.382249 0
M  V30 6303 C 637.494 -1.61328 -0.539203 0
M  V30 6304 O 638.679 -1.88882 -0.451342 0
M  V30 6305 C 635.809 -3.45024 -0.396983 0
M  V30 6306 C 634.763 -4.258 0.433437 0
M  V30 6307 C 634.089 -5.32605 -0.472889 0
M  V30 6308 C 635.389 -4.94549 1.67984 0
M  V30 6309 H 637.083 -2.73325 1.22205 0
M  V30 6310 H 634.629 -1.314 0.589073 0
M  V30 6311 H 636.582 -4.14398 -0.765024 0
M  V30 6312 H 635.306 -3.00875 -1.2705 0
M  V30 6313 H 633.965 -3.58125 0.783723 0
M  V30 6314 H 633.613 -4.84702 -1.34435 0
M  V30 6315 H 633.313 -5.87547 0.0789958 0
M  V30 6316 H 634.837 -6.04832 -0.837269 0
M  V30 6317 H 636.251 -5.56395 1.38192 0
M  V30 6318 H 634.648 -5.59393 2.17254 0
M  V30 6319 H 635.718 -4.20215 2.41965 0
M  V30 6320 N 637.061 -0.65484 -1.43351 0
M  V30 6321 C 638.472 -0.248506 -1.85039 0
M  V30 6322 C 638.823 1.20526 -1.54816 0
M  V30 6323 O 637.948 1.92016 -0.99794 0
M  V30 6324 C 638.543 -0.444241 -3.35875 0
M  V30 6325 C 637.102 -0.0922108 -3.76287 0
M  V30 6326 C 636.249 -0.746327 -2.67068 0
M  V30 6327 H 639.2 -0.8584 -1.33481 0
M  V30 6328 H 639.221 0.309762 -3.79237 0
M  V30 6329 H 638.733 -1.50239 -3.5784 0
M  V30 6330 H 636.834 0.96328 -3.59933 0
M  V30 6331 H 636.947 -0.518807 -4.76283 0
M  V30 6332 H 635.311 -0.179416 -2.54067 0
M  V30 6333 H 636.094 -1.80754 -2.91861 0
M  V30 6334 N 638.539 1.52521 -0.396863 0
M  V30 6335 C 639.469 2.29582 0.425941 0
M  V30 6336 C 640.45 1.33281 1.05689 0
M  V30 6337 O 641.635 1.62181 1.06823 0
M  V30 6338 C 638.765 3.10821 1.54943 0
M  V30 6339 C 637.719 4.15069 1.04413 0
M  V30 6340 C 637.045 4.84578 2.26028 0
M  V30 6341 C 638.345 5.22191 0.106767 0
M  V30 6342 H 640.039 2.98612 -0.217045 0
M  V30 6343 H 637.585 1.43611 -0.105826 0
M  V30 6344 H 639.538 3.63492 2.13193 0
M  V30 6345 H 638.262 2.39538 2.22011 0
M  V30 6346 H 636.921 3.63389 0.484118 0
M  V30 6347 H 636.569 4.09835 2.91623 0
M  V30 6348 H 636.269 5.55043 1.92876 0
M  V30 6349 H 637.793 5.40056 2.84906 0
M  V30 6350 H 639.207 5.70176 0.597685 0
M  V30 6351 H 637.604 5.99947 -0.135352 0
M  V30 6352 H 638.674 4.77531 -0.842134 0
M  V30 6353 N 640.017 0.126909 1.57088 0
M  V30 6354 C 640.947 -0.816847 2.18746 0
M  V30 6355 C 641.928 -1.27161 1.12979 0
M  V30 6356 O 643.113 -1.33279 1.41246 0
M  V30 6357 C 640.243 -2.06398 2.79315 0
M  V30 6358 C 639.197 -1.74673 3.90735 0
M  V30 6359 C 638.523 -3.06482 4.38147 0
M  V30 6360 C 639.823 -1.0089 5.12463 0
M  V30 6361 H 641.517 -0.303032 2.97863 0
M  V30 6362 H 639.063 -0.144314 1.43275 0
M  V30 6363 H 641.016 -2.72885 3.2111 0
M  V30 6364 H 639.74 -2.60118 1.975 0
M  V30 6365 H 638.399 -1.10572 3.49527 0
M  V30 6366 H 638.047 -3.58152 3.5318 0
M  V30 6367 H 637.747 -2.86025 5.13287 0
M  V30 6368 H 639.271 -3.74073 4.82599 0
M  V30 6369 H 640.685 -1.57546 5.51228 0
M  V30 6370 H 639.082 -0.905006 5.93237 0
M  V30 6371 H 640.152 0.00297335 4.849 0
M  V30 6372 N 641.495 -1.56914 -0.146875 0
M  V30 6373 C 642.743 -1.82994 -0.85777 0
M  V30 6374 C 643.064 -0.707814 -1.817 0
M  V30 6375 O 642.334 0.270521 -1.94023 0
M  V30 6376 H 640.914 -0.675106 -0.319751 0
M  V30 6377 H 643.576 -1.9439 -0.140849 0
M  V30 6378 H 642.672 -2.77928 -1.41994 0
M  V30 6379 N 642.974 0.416227 -1.52004 0
M  V30 6380 C 644.39 0.754319 -1.40649 0
M  V30 6381 C 644.59 1.95059 -0.505392 0
M  V30 6382 O 643.646 2.5248 0.0315057 0
M  V30 6383 C 644.959 1.0149 -2.83055 0
M  V30 6384 C 646.507 1.11805 -2.9235 0
M  V30 6385 C 646.982 1.41144 -4.35709 0
M  V30 6386 N 648.473 1.48024 -4.38911 0
M  V30 6387 C 649.208 1.72338 -5.46889 0
M  V30 6388 N 648.704 1.94303 -6.64995 0
M  V30 6389 N 650.497 1.74294 -5.34395 0
M  V30 6390 H 642.648 -0.371324 -2.09129 0
M  V30 6391 H 644.911 -0.103811 -0.942299 0
M  V30 6392 H 644.617 0.208345 -3.51082 0
M  V30 6393 H 644.491 1.93697 -3.23668 0
M  V30 6394 H 646.878 1.91521 -2.24508 0
M  V30 6395 H 646.959 0.17451 -2.55204 0
M  V30 6396 H 646.603 0.619484 -5.04108 0
M  V30 6397 H 646.533 2.36739 -4.70385 0
M  V30 6398 H 649.024 1.32868 -3.53772 0
M  V30 6399 H 649.337 2.12286 -7.43071 0
M  V30 6400 H 647.682 1.91582 -6.68073 0
M  V30 6401 H 650.873 1.56667 -4.41104 0
M  V30 6402 H 651.046 1.92904 -6.18621 0
M  V30 6403 N 644.452 1.42507 0.673017 0
M  V30 6404 C 645.384 1.42074 1.79854 0
M  V30 6405 C 646.397 0.319569 1.59633 0
M  V30 6406 O 647.586 0.582769 1.68719 0
M  V30 6407 C 644.686 1.19886 3.16987 0
M  V30 6408 C 643.859 2.42471 3.64042 0
M  V30 6409 C 642.918 2.15802 4.79913 0
M  V30 6410 O 641.944 2.89015 4.90366 0
M  V30 6411 N 643.146 1.16225 5.68746 0
M  V30 6412 H 645.911 2.3909 1.8071 0
M  V30 6413 H 643.472 1.37409 0.856171 0
M  V30 6414 H 645.464 0.999591 3.92161 0
M  V30 6415 H 644.034 0.313879 3.1102 0
M  V30 6416 H 643.254 2.77954 2.79526 0
M  V30 6417 H 644.542 3.24097 3.92223 0
M  V30 6418 H 643.94 0.556756 5.62954 0
M  V30 6419 H 642.497 1.02285 6.43724 0
M  V30 6420 N 645.93 -0.909495 1.28709 0
M  V30 6421 C 646.893 -1.99399 1.13016 0
M  V30 6422 C 647.893 -1.60654 0.068536 0
M  V30 6423 O 649.083 -1.71334 0.314671 0
M  V30 6424 C 646.215 -3.33078 0.726085 0
M  V30 6425 H 647.408 -2.14751 2.09338 0
M  V30 6426 H 644.961 -1.09272 1.11756 0
M  V30 6427 H 645.696 -3.23428 -0.23771 0
M  V30 6428 H 645.481 -3.62562 1.49302 0
M  V30 6429 H 646.971 -4.12681 0.639058 0
M  V30 6430 N 647.408 -1.11026 -1.11852 0
M  V30 6431 C 648.318 -0.777252 -2.2135 0
M  V30 6432 C 649.334 0.227821 -1.72502 0
M  V30 6433 O 650.51 0.0650587 -2.01295 0
M  V30 6434 C 647.575 -0.220668 -3.45997 0
M  V30 6435 C 646.636 -1.2838 -4.09655 0
M  V30 6436 C 645.869 -0.753678 -5.28352 0
M  V30 6437 O 646.092 0.417779 -5.68868 0
M  V30 6438 O 645.026 -1.51647 -5.82483 0
M  V30 6439 H 648.852 -1.69141 -2.5224 0
M  V30 6440 H 646.437 -0.885836 -1.20305 0
M  V30 6441 H 648.319 0.0855756 -4.21313 0
M  V30 6442 H 646.994 0.666262 -3.16769 0
M  V30 6443 H 645.901 -1.64299 -3.3609 0
M  V30 6444 H 647.234 -2.14396 -4.43052 0
M  V30 6445 N 648.886 1.2938 -0.899927 0
M  V30 6446 C 650.111 2.00228 -0.540692 0
M  V30 6447 C 650.536 1.66909 0.867359 0
M  V30 6448 O 649.894 0.893824 1.57735 0
M  V30 6449 C 649.942 3.52921 -0.740232 0
M  V30 6450 O 649.046 4.11879 0.207154 0
M  V30 6451 H 648.387 0.629505 -0.211233 0
M  V30 6452 H 650.917 1.6487 -1.21158 0
M  V30 6453 H 650.927 4.0287 -0.644973 0
M  V30 6454 H 649.602 3.76508 -1.76677 0
M  V30 6455 H 648.179 3.72845 0.0643315 0
M  V30 6456 N 650.364 0.662433 1.43002 0
M  V30 6457 C 651.775 0.258315 1.84904 0
M  V30 6458 C 652.126 -1.19703 1.55453 0
M  V30 6459 O 651.251 -1.91484 1.00811 0
M  V30 6460 C 651.846 0.462047 3.35635 0
M  V30 6461 C 650.405 0.112165 3.76233 0
M  V30 6462 C 649.552 0.760479 2.66668 0
M  V30 6463 H 652.503 0.865467 1.33024 0
M  V30 6464 H 652.524 -0.289646 3.79396 0
M  V30 6465 H 652.036 1.52135 3.57039 0
M  V30 6466 H 650.137 -0.944179 3.60439 0
M  V30 6467 H 650.25 0.544058 4.76001 0
M  V30 6468 H 648.614 0.192887 2.53969 0
M  V30 6469 H 649.397 1.82299 2.90898 0
M  V30 6470 N 651.842 -1.52309 0.404946 0
M  V30 6471 C 652.752 -2.30634 -0.429555 0
M  V30 6472 C 653.768 -1.38187 -1.05737 0
M  V30 6473 O 654.944 -1.71261 -1.05979 0
M  V30 6474 C 652.009 -3.10947 -1.53339 0
M  V30 6475 C 651.07 -4.19126 -0.929065 0
M  V30 6476 C 650.303 -4.95601 -1.9803 0
M  V30 6477 O 650.526 -4.72331 -3.1978 0
M  V30 6478 O 649.46 -5.80551 -1.58886 0
M  V30 6479 H 653.286 -3.0298 0.208963 0
M  V30 6480 H 650.871 -1.4845 0.168255 0
M  V30 6481 H 652.753 -3.60974 -2.1743 0
M  V30 6482 H 651.428 -2.41399 -2.15658 0
M  V30 6483 H 650.335 -3.73257 -0.250982 0
M  V30 6484 H 651.668 -4.90955 -0.349855 0
M  V30 6485 N 653.32 -0.135238 -1.57019 0
M  V30 6486 C 654.545 0.529343 -2.00531 0
M  V30 6487 C 654.97 1.58391 -1.01459 0
M  V30 6488 O 654.328 1.81296 0.0113986 0
M  V30 6489 C 654.376 1.11748 -3.42848 0
M  V30 6490 O 653.48 2.23267 -3.46736 0
M  V30 6491 H 652.821 0.130669 -0.651016 0
M  V30 6492 H 655.351 -0.228503 -2.0332 0
M  V30 6493 H 655.361 1.44905 -3.81401 0
M  V30 6494 H 654.036 0.345147 -4.14465 0
M  V30 6495 H 652.613 1.91428 -3.20015 0
M  V30 6496 N 654.798 1.5699 0.138552 0
M  V30 6497 C 656.045 1.83809 0.849732 0
M  V30 6498 C 656.373 0.717409 1.80786 0
M  V30 6499 O 655.628 -0.292897 1.93496 0
M  V30 6500 C 655.927 3.17007 1.65049 0
M  V30 6501 C 655.593 4.43037 0.838398 0
M  V30 6502 C 654.255 4.77262 0.614385 0
M  V30 6503 C 656.607 5.20495 0.271044 0
M  V30 6504 C 653.935 5.864 -0.187552 0
M  V30 6505 C 656.287 6.30476 -0.517979 0
M  V30 6506 C 654.951 6.63245 -0.75249 0
M  V30 6507 H 654.221 0.672605 0.310939 0
M  V30 6508 H 656.868 1.91166 0.112971 0
M  V30 6509 H 655.173 3.05138 2.4576 0
M  V30 6510 H 656.87 3.34975 2.20437 0
M  V30 6511 H 653.46 4.16211 1.02307 0
M  V30 6512 H 657.644 4.94422 0.431371 0
M  V30 6513 H 652.9 6.10226 -0.378659 0
M  V30 6514 H 657.074 6.89686 -0.964694 0
M  V30 6515 H 654.701 7.47648 -1.37573 0
M  V30 6516 N 656.276 -0.40816 1.52223 0
M  V30 6517 C 657.208 -1.51642 1.71864 0
M  V30 6518 C 658.221 -1.51378 0.599056 0
M  V30 6519 O 659.41 -1.55626 0.874239 0
M  V30 6520 C 656.51 -2.90534 1.74481 0
M  V30 6521 C 655.683 -3.14979 3.03491 0
M  V30 6522 C 654.742 -4.33749 2.97907 0
M  V30 6523 O 653.768 -4.30982 3.71811 0
M  V30 6524 N 654.97 -5.38912 2.15764 0
M  V30 6525 H 657.735 -1.35188 2.67478 0
M  V30 6526 H 655.296 -0.597468 1.50472 0
M  V30 6527 H 657.288 -3.68056 1.68275 0
M  V30 6528 H 655.858 -3.00441 0.863363 0
M  V30 6529 H 655.078 -2.25492 3.23337 0
M  V30 6530 H 656.366 -3.28156 3.88833 0
M  V30 6531 H 655.764 -5.44008 1.55152 0
M  V30 6532 H 654.321 -6.15174 2.15415 0
M  V30 6533 N 657.755 -1.42862 -0.66545 0
M  V30 6534 C 658.685 -1.49867 -1.79059 0
M  V30 6535 C 659.666 -0.354394 -1.66367 0
M  V30 6536 O 660.851 -0.569969 -1.85647 0
M  V30 6537 C 657.981 -1.40943 -3.17415 0
M  V30 6538 C 656.935 -2.53495 -3.44854 0
M  V30 6539 C 656.261 -2.29626 -4.82883 0
M  V30 6540 C 657.561 -3.95781 -3.40815 0
M  V30 6541 H 659.255 -2.44037 -1.73453 0
M  V30 6542 H 656.801 -1.17456 -0.833071 0
M  V30 6543 H 658.754 -1.4445 -3.95869 0
M  V30 6544 H 657.478 -0.432716 -3.23721 0
M  V30 6545 H 656.137 -2.4932 -2.68766 0
M  V30 6546 H 655.785 -1.30226 -4.8585 0
M  V30 6547 H 655.485 -3.05065 -5.02204 0
M  V30 6548 H 657.009 -2.34897 -5.63609 0
M  V30 6549 H 658.423 -4.01508 -4.09224 0
M  V30 6550 H 656.82 -4.71148 -3.71672 0
M  V30 6551 H 657.89 -4.21786 -2.39216 0
M  V30 6552 N 659.233 0.902656 -1.29189 0
M  V30 6553 C 660.479 1.65532 -1.17163 0
M  V30 6554 C 660.812 1.92216 0.276879 0
M  V30 6555 O 660.087 1.53048 1.20027 0
M  V30 6556 C 660.37 3.00629 -1.98228 0
M  V30 6557 C 660.223 2.81029 -3.51202 0
M  V30 6558 C 661.542 4.01321 -1.80635 0
M  V30 6559 H 658.661 0.60071 -0.426985 0
M  V30 6560 H 661.303 1.04578 -1.5863 0
M  V30 6561 H 659.453 3.52656 -1.62991 0
M  V30 6562 H 661.125 2.35927 -3.96404 0
M  V30 6563 H 659.368 2.1587 -3.76275 0
M  V30 6564 H 660.039 3.77014 -4.03192 0
M  V30 6565 H 662.515 3.58394 -2.11406 0
M  V30 6566 H 661.391 4.93792 -2.3971 0
M  V30 6567 H 661.652 4.35505 -0.760754 0
M  V30 6568 N 660.711 1.11618 1.11262 0
M  V30 6569 C 661.621 0.78898 2.20935 0
M  V30 6570 C 662.637 -0.21867 1.7262 0
M  V30 6571 O 663.813 -0.0543826 2.01327 0
M  V30 6572 C 660.878 0.239014 3.45875 0
M  V30 6573 C 659.939 1.3055 4.08968 0
M  V30 6574 C 659.172 0.781687 5.27944 0
M  V30 6575 O 659.395 -0.387605 5.69082 0
M  V30 6576 O 658.329 1.54734 5.81671 0
M  V30 6577 H 662.155 1.70477 2.51339 0
M  V30 6578 H 659.74 0.892203 1.19834 0
M  V30 6579 H 661.622 -0.0632312 4.21353 0
M  V30 6580 H 660.297 -0.649454 3.17118 0
M  V30 6581 H 659.204 1.66079 3.35214 0
M  V30 6582 H 660.537 2.16743 4.41909 0
M  V30 6583 N 662.189 -1.289 0.906776 0
M  V30 6584 C 663.435 -1.95558 0.53712 0
M  V30 6585 C 663.768 -1.71262 -0.915582 0
M  V30 6586 O 663.043 -1.02961 -1.65013 0
M  V30 6587 C 663.326 -3.50198 0.838645 0
M  V30 6588 C 663.179 -3.83923 2.34357 0
M  V30 6589 C 664.498 -4.38861 0.329988 0
M  V30 6590 H 661.617 -0.710289 0.196617 0
M  V30 6591 H 664.259 -1.52392 1.13475 0
M  V30 6592 H 662.409 -3.87096 0.330024 0
M  V30 6593 H 664.081 -3.56933 2.92227 0
M  V30 6594 H 662.324 -3.31215 2.80141 0
M  V30 6595 H 662.995 -4.91883 2.5051 0
M  V30 6596 H 665.471 -4.08996 0.765609 0
M  V30 6597 H 664.347 -5.45931 0.570105 0
M  V30 6598 H 664.608 -4.35352 -0.769511 0
M  V30 6599 N 663.667 -0.670007 -1.42649 0
M  V30 6600 C 664.63 0.00204659 -2.292 0
M  V30 6601 C 665.63 0.733817 -1.4308 0
M  V30 6602 O 666.82 0.57254 -1.64522 0
M  V30 6603 C 663.952 1.01359 -3.25483 0
M  V30 6604 H 665.145 -0.759696 -2.90118 0
M  V30 6605 H 662.698 -0.432105 -1.50208 0
M  V30 6606 H 663.433 1.80399 -2.69493 0
M  V30 6607 H 663.218 0.492323 -3.88997 0
M  V30 6608 H 664.708 1.4824 -3.90403 0
M  V30 6609 N 665.145 1.52092 -0.413018 0
M  V30 6610 C 666.078 2.23613 0.455234 0
M  V30 6611 C 667.056 1.2459 1.04481 0
M  V30 6612 O 668.24 1.53653 1.09193 0
M  V30 6613 C 665.367 2.96775 1.63224 0
M  V30 6614 C 664.413 4.10261 1.16568 0
M  V30 6615 S 665.246 5.35348 0.127633 0
M  V30 6616 C 666.402 6.1204 1.30987 0
M  V30 6617 H 666.635 2.96911 -0.152042 0
M  V30 6618 H 664.168 1.53134 -0.197343 0
M  V30 6619 H 666.126 3.39532 2.30713 0
M  V30 6620 H 664.787 2.23113 2.21087 0
M  V30 6621 H 663.98 4.6064 2.04515 0
M  V30 6622 H 663.582 3.6964 0.569386 0
M  V30 6623 H 665.874 6.39651 2.23276 0
M  V30 6624 H 666.817 7.03022 0.846533 0
M  V30 6625 H 667.225 5.43161 1.53743 0
M  V30 6626 N 666.623 0.143563 1.56945 0
M  V30 6627 C 667.871 -0.507402 1.95627 0
M  V30 6628 C 668.192 -1.65626 1.02922 0
M  V30 6629 O 667.462 -1.95693 0.0901136 0
M  V30 6630 H 666.042 -0.190436 0.722318 0
M  V30 6631 H 668.704 0.218257 1.93674 0
M  V30 6632 H 667.8 -0.885816 2.99265 0
M  V30 6633 N 668.101 -1.57061 -0.130224 0
M  V30 6634 C 669.341 -1.86071 -0.845993 0
M  V30 6635 C 669.705 -0.73009 -1.77577 0
M  V30 6636 O 670.906 -0.901663 -2.53226 0
M  V30 6637 C 669.177 -3.20293 -1.58579 0
M  V30 6638 S 670.736 -3.70905 -2.34467 0
M  V30 6639 H 667.554 -0.652434 -0.282579 0
M  V30 6640 H 670.156 -1.95218 -0.10498 0
M  V30 6641 H 668.86 -4.00533 -0.894509 0
M  V30 6642 H 668.391 -3.14195 -2.36739 0
M  V30 6643 H 670.406 -3.41509 -3.59981 0
M  V30 6644 N 669.579 0.400081 -1.52437 0
M  V30 6645 C 670.995 0.739359 -1.41441 0
M  V30 6646 C 671.195 1.94512 -0.526053 0
M  V30 6647 O 670.251 2.525 0.00472502 0
M  V30 6648 C 671.564 0.984824 -2.84116 0
M  V30 6649 C 673.112 1.08698 -2.93519 0
M  V30 6650 C 673.587 1.36515 -4.37181 0
M  V30 6651 N 675.078 1.43361 -4.40457 0
M  V30 6652 C 675.813 1.66528 -5.48686 0
M  V30 6653 N 675.309 1.87239 -6.67018 0
M  V30 6654 N 677.102 1.68617 -5.36213 0
M  V30 6655 H 669.253 -0.393484 -2.08723 0
M  V30 6656 H 671.516 -0.1138 -0.941145 0
M  V30 6657 H 671.222 0.171096 -3.51284 0
M  V30 6658 H 671.096 1.90253 -3.25705 0
M  V30 6659 H 673.483 1.89129 -2.26526 0
M  V30 6660 H 673.564 0.147432 -2.55375 0
M  V30 6661 H 673.208 0.565982 -5.04737 0
M  V30 6662 H 673.138 2.31737 -4.7287 0
M  V30 6663 H 675.629 1.29108 -3.55161 0
M  V30 6664 H 675.942 2.04392 -7.45281 0
M  V30 6665 H 674.287 1.84486 -6.70067 0
M  V30 6666 H 677.478 1.5198 -4.42741 0
M  V30 6667 H 677.651 1.86332 -6.20632 0
M  V30 6668 N 671.057 1.43213 0.657864 0
M  V30 6669 C 672.007 1.44459 1.76396 0
M  V30 6670 C 672.991 0.313641 1.57814 0
M  V30 6671 O 674.183 0.557094 1.68004 0
M  V30 6672 C 671.312 1.36586 3.14959 0
M  V30 6673 C 670.398 2.54692 3.39106 0
M  V30 6674 N 670.789 3.80059 3.33749 0
M  V30 6675 C 669.087 2.49316 3.69807 0
M  V30 6676 C 669.788 4.58606 3.57849 0
M  V30 6677 N 668.764 3.89267 3.79437 0
M  V30 6678 H 672.566 2.39265 1.70673 0
M  V30 6679 H 670.08 1.378 0.859357 0
M  V30 6680 H 672.077 1.35561 3.94245 0
M  V30 6681 H 670.737 0.427956 3.21867 0
M  V30 6682 H 671.748 4.12414 3.13266 0
M  V30 6683 H 668.425 1.6419 3.83859 0
M  V30 6684 H 669.815 5.67619 3.59525 0
M  V30 6685 N 672.536 -0.895792 1.29666 0
M  V30 6686 C 673.782 -1.64908 1.18039 0
M  V30 6687 C 674.115 -1.9236 -0.266682 0
M  V30 6688 O 673.39 -1.53682 -1.19214 0
M  V30 6689 C 673.673 -2.99574 1.99819 0
M  V30 6690 C 673.526 -2.79163 3.52687 0
M  V30 6691 C 674.845 -4.00358 1.82761 0
M  V30 6692 H 671.964 -0.598437 0.430165 0
M  V30 6693 H 674.606 -1.03736 1.59182 0
M  V30 6694 H 672.756 -3.51786 1.64859 0
M  V30 6695 H 674.428 -2.33821 3.9765 0
M  V30 6696 H 672.671 -2.13871 3.77414 0
M  V30 6697 H 673.342 -3.74871 4.05186 0
M  V30 6698 H 675.818 -3.57268 2.13304 0
M  V30 6699 H 674.694 -4.92514 2.42325 0
M  V30 6700 H 674.955 -4.35096 0.783839 0
M  V30 6701 N 674.014 -1.12206 -1.10668 0
M  V30 6702 C 674.946 -0.74552 -2.16736 0
M  V30 6703 C 675.959 0.226696 -1.61214 0
M  V30 6704 O 677.148 0.0083936 -1.78498 0
M  V30 6705 C 674.248 -0.0823368 -3.388 0
M  V30 6706 C 673.421 -1.08341 -4.2377 0
M  V30 6707 C 672.48 -0.448292 -5.24287 0
M  V30 6708 O 671.506 -1.10458 -5.58379 0
M  V30 6709 N 672.708 0.785336 -5.75163 0
M  V30 6710 H 675.473 -1.65818 -2.49649 0
M  V30 6711 H 673.034 -1.01335 -1.26265 0
M  V30 6712 H 675.026 0.354476 -4.03145 0
M  V30 6713 H 673.596 0.733041 -3.03884 0
M  V30 6714 H 672.816 -1.69792 -3.55759 0
M  V30 6715 H 674.104 -1.76042 -4.77375 0
M  V30 6716 H 673.502 1.33755 -5.4966 0
M  V30 6717 H 672.059 1.16501 -6.41304 0
M  V30 6718 N 675.492 1.28418 -0.913599 0
M  V30 6719 C 676.908 1.47411 -0.611728 0
M  V30 6720 C 677.108 1.83018 0.843008 0
M  V30 6721 O 676.164 1.93505 1.6221 0
M  V30 6722 C 677.477 2.57703 -1.5495 0
M  V30 6723 C 679.025 2.71572 -1.5562 0
M  V30 6724 C 679.5 3.85008 -2.48058 0
M  V30 6725 N 680.991 3.92361 -2.46184 0
M  V30 6726 C 681.726 4.79516 -3.14407 0
M  V30 6727 N 681.222 5.71262 -3.91958 0
M  V30 6728 N 683.015 4.73125 -3.03495 0
M  V30 6729 H 675.166 1.03585 -1.85429 0
M  V30 6730 H 677.429 0.515907 -0.795326 0
M  V30 6731 H 677.135 2.38298 -2.58663 0
M  V30 6732 H 677.009 3.54801 -1.28048 0
M  V30 6733 H 679.396 2.90366 -0.526441 0
M  V30 6734 H 679.477 1.75006 -1.86565 0
M  V30 6735 H 679.121 3.66969 -3.51136 0
M  V30 6736 H 679.051 4.80971 -2.14416 0
M  V30 6737 H 681.542 3.26749 -1.89851 0
M  V30 6738 H 681.855 6.34593 -4.41034 0
M  V30 6739 H 680.2 5.71103 -3.96063 0
M  V30 6740 H 683.391 4.00442 -2.42413 0
M  V30 6741 H 683.564 5.40834 -3.56935 0
M  V30 6742 N 676.97 0.677563 1.42291 0
M  V30 6743 C 678.198 0.209459 2.05837 0
M  V30 6744 C 678.613 -1.13444 1.50917 0
M  V30 6745 O 677.97 -1.70529 0.65008 0
M  V30 6746 C 678.021 0.138819 3.61233 0
M  V30 6747 O 677.742 1.42962 4.14118 0
M  V30 6748 C 679.243 -0.352449 4.41897 0
M  V30 6749 H 676.463 0.101209 0.663323 0
M  V30 6750 H 679.007 0.925077 1.8238 0
M  V30 6751 H 677.162 -0.527505 3.83792 0
M  V30 6752 H 677.576 1.3048 5.08011 0
M  V30 6753 H 679.05 -0.350778 5.50884 0
M  V30 6754 H 679.527 -1.3882 4.16684 0
M  V30 6755 H 680.133 0.282236 4.24362 0
M  V30 6756 N 678.448 -1.51871 0.421078 0
M  V30 6757 C 679.381 -2.23851 -0.443369 0
M  V30 6758 C 680.359 -1.25142 -1.03818 0
M  V30 6759 O 681.543 -1.5423 -1.08377 0
M  V30 6760 C 678.67 -2.97637 -1.61648 0
M  V30 6761 C 677.716 -4.10873 -1.14391 0
M  V30 6762 S 678.549 -5.35408 -0.0992403 0
M  V30 6763 C 679.705 -6.12726 -1.27739 0
M  V30 6764 H 679.938 -2.96826 0.167786 0
M  V30 6765 H 677.471 -1.53027 0.205461 0
M  V30 6766 H 679.429 -3.40751 -2.28909 0
M  V30 6767 H 678.09 -2.24282 -2.199 0
M  V30 6768 H 677.283 -4.61718 -2.02069 0
M  V30 6769 H 676.885 -3.69937 -0.549775 0
M  V30 6770 H 679.177 -6.40827 -2.19881 0
M  V30 6771 H 680.12 -7.03461 -0.809239 0
M  V30 6772 H 680.528 -5.43968 -1.5086 0
M  V30 6773 N 679.926 -0.151884 -1.56866 0
M  V30 6774 C 680.856 0.781943 -2.20018 0
M  V30 6775 C 681.837 1.25347 -1.14987 0
M  V30 6776 O 683.022 1.31015 -1.43348 0
M  V30 6777 C 680.152 2.01928 -2.82564 0
M  V30 6778 C 679.106 1.68434 -3.93464 0
M  V30 6779 C 678.432 2.99472 -4.42968 0
M  V30 6780 C 679.732 0.927244 -5.14003 0
M  V30 6781 H 681.426 0.255607 -2.98307 0
M  V30 6782 H 678.972 0.121502 -1.43486 0
M  V30 6783 H 680.925 2.67741 -3.25411 0
M  V30 6784 H 679.649 2.56943 -2.01614 0
M  V30 6785 H 678.308 1.04998 -3.51242 0
M  V30 6786 H 677.956 3.52488 -3.58834 0
M  V30 6787 H 677.656 2.77823 -5.17772 0
M  V30 6788 H 679.18 3.66348 -4.88489 0
M  V30 6789 H 680.594 1.48756 -5.53665 0
M  V30 6790 H 678.991 0.810513 -5.94601 0
M  V30 6791 H 680.061 -0.0801163 -4.84834 0
M  V30 6792 N 681.404 1.57128 0.121893 0
M  V30 6793 C 682.337 1.95327 1.17995 0
M  V30 6794 C 683.315 0.822524 1.40262 0
M  V30 6795 O 684.499 1.08044 1.54463 0
M  V30 6796 C 681.626 2.24699 2.53432 0
M  V30 6797 C 680.672 3.47263 2.4761 0
M  V30 6798 S 681.505 4.99951 1.91857 0
M  V30 6799 C 682.661 5.32473 3.28973 0
M  V30 6800 H 682.894 2.84765 0.854182 0
M  V30 6801 H 680.427 1.50864 0.328534 0
M  V30 6802 H 682.385 2.423 3.31362 0
M  V30 6803 H 681.046 1.3588 2.83188 0
M  V30 6804 H 680.239 3.65171 3.4737 0
M  V30 6805 H 679.841 3.29034 1.778 0
M  V30 6806 H 682.133 5.27478 4.25175 0
M  V30 6807 H 683.076 6.33732 3.15895 0
M  V30 6808 H 683.484 4.59952 3.27268 0
M  V30 6809 N 682.882 -0.391992 1.52647 0
M  V30 6810 C 684.159 -1.15136 1.58123 0
M  V30 6811 C 684.539 -2.07786 0.372597 0
M  V30 6812 O 683.887 -2.19374 -0.639304 0
M  V30 6813 C 684.097 -1.91367 2.91856 0
M  V30 6814 C 685.445 -2.46833 3.45483 0
M  V30 6815 O 686.469 -2.01527 2.9371 0
M  V30 6816 O 685.328 -3.29587 4.3593 0
M  V30 6817 H 682.422 -0.526649 0.637629 0
M  V30 6818 H 684.968 -0.397386 1.64982 0
M  V30 6819 H 683.74 -1.23597 3.71268 0
M  V30 6820 H 683.363 -2.73732 2.88369 0
M  V30 6821 N 684.36 -1.4356 -0.65026 0
M  V30 6822 C 685.27 -1.514 -1.79207 0
M  V30 6823 C 686.286 -0.400895 -1.69319 0
M  V30 6824 O 687.462 -0.655458 -1.90436 0
M  V30 6825 C 684.527 -1.43737 -3.155 0
M  V30 6826 C 683.588 -2.65743 -3.37163 0
M  V30 6827 C 682.821 -2.58436 -4.66954 0
M  V30 6828 O 683.044 -1.63374 -5.46503 0
M  V30 6829 O 681.978 -3.48984 -4.90402 0
M  V30 6830 H 685.804 -2.47825 -1.75547 0
M  V30 6831 H 683.389 -1.25594 -0.809111 0
M  V30 6832 H 685.271 -1.41916 -3.96784 0
M  V30 6833 H 683.946 -0.504488 -3.19745 0
M  V30 6834 H 682.853 -2.73136 -2.55632 0
M  V30 6835 H 684.186 -3.58014 -3.37768 0
M  V30 6836 N 685.838 0.888903 -1.30139 0
M  V30 6837 C 686.77 1.99972 -1.11999 0
M  V30 6838 C 687.783 1.62673 -0.0643619 0
M  V30 6839 O 688.972 1.75788 -0.309983 0
M  V30 6840 C 686.072 3.31904 -0.685059 0
M  V30 6841 C 685.245 3.97665 -1.82158 0
M  V30 6842 C 684.304 5.07894 -1.37585 0
M  V30 6843 O 683.33 5.2974 -2.08241 0
M  V30 6844 N 684.532 5.7995 -0.252697 0
M  V30 6845 H 687.297 2.16085 -2.07671 0
M  V30 6846 H 684.858 1.06175 -1.22223 0
M  V30 6847 H 686.85 4.03005 -0.369964 0
M  V30 6848 H 685.42 3.12084 0.179507 0
M  V30 6849 H 684.64 3.19787 -2.305 0
M  V30 6850 H 685.928 4.3834 -2.58332 0
M  V30 6851 H 685.326 5.647 0.336141 0
M  V30 6852 H 683.883 6.518 0.00296813 0
M  V30 6853 N 687.317 1.12792 1.10072 0
M  V30 6854 C 688.728 0.899346 1.63611 0
M  V30 6855 C 689.079 -0.565547 1.87872 0
M  V30 6856 O 688.204 -1.43081 1.62348 0
M  V30 6857 C 688.799 1.62608 2.97227 0
M  V30 6858 C 687.358 1.44356 3.47618 0
M  V30 6859 C 686.505 1.65958 2.22156 0
M  V30 6860 H 689.456 1.28216 0.935223 0
M  V30 6861 H 689.477 1.0793 3.64872 0
M  V30 6862 H 688.989 2.69221 2.79538 0
M  V30 6863 H 687.09 0.400148 3.70445 0
M  V30 6864 H 687.203 2.20218 4.25489 0
M  V30 6865 H 685.567 1.08395 2.30484 0
M  V30 6866 H 686.35 2.73877 2.06993 0
M  V30 6867 N 688.795 -1.27931 0.920396 0
M  V30 6868 C 689.725 -2.29487 0.431024 0
M  V30 6869 C 690.706 -1.62435 -0.504861 0
M  V30 6870 O 691.891 -1.89797 -0.411176 0
M  V30 6871 C 689.021 -3.45788 -0.323709 0
M  V30 6872 C 687.975 -4.24784 0.523658 0
M  V30 6873 C 687.301 -5.33488 -0.359809 0
M  V30 6874 C 688.601 -4.90874 1.78437 0
M  V30 6875 H 690.295 -2.70671 1.27975 0
M  V30 6876 H 687.841 -1.30121 0.616813 0
M  V30 6877 H 689.794 -4.15927 -0.676952 0
M  V30 6878 H 688.518 -3.03502 -1.2064 0
M  V30 6879 H 687.177 -3.56382 0.85951 0
M  V30 6880 H 686.825 -4.87445 -1.24124 0
M  V30 6881 H 686.525 -5.87247 0.203605 0
M  V30 6882 H 688.049 -6.06472 -0.708787 0
M  V30 6883 H 689.463 -5.53339 1.49963 0
M  V30 6884 H 687.86 -5.54659 2.29071 0
M  V30 6885 H 688.93 -4.14988 2.50824 0
M  V30 6886 N 690.273 -0.685099 -1.4193 0
M  V30 6887 C 691.203 -0.0273506 -2.33484 0
M  V30 6888 C 692.184 0.778366 -1.51246 0
M  V30 6889 O 693.369 0.733449 -1.79817 0
M  V30 6890 C 690.499 0.917272 -3.34968 0
M  V30 6891 C 689.453 0.21941 -4.27437 0
M  V30 6892 C 688.779 1.27768 -5.1921 0
M  V30 6893 C 690.079 -0.907894 -5.14349 0
M  V30 6894 H 691.773 -0.791994 -2.88735 0
M  V30 6895 H 689.319 -0.382308 -1.38832 0
M  V30 6896 H 691.272 1.38657 -3.97935 0
M  V30 6897 H 689.996 1.71346 -2.78043 0
M  V30 6898 H 688.655 -0.229757 -3.65879 0
M  V30 6899 H 688.303 2.06612 -4.58607 0
M  V30 6900 H 688.003 0.815803 -5.81909 0
M  V30 6901 H 689.527 1.7477 -5.85054 0
M  V30 6902 H 690.941 -0.519348 -5.70943 0
M  V30 6903 H 689.338 -1.2962 -5.85934 0
M  V30 6904 H 690.408 -1.75218 -4.52136 0
M  V30 6905 N 691.751 1.51645 -0.429126 0
M  V30 6906 C 693.028 1.94579 0.199614 0
M  V30 6907 C 693.408 1.3673 1.60836 0
M  V30 6908 O 692.756 0.551062 2.21756 0
M  V30 6909 C 692.966 3.48506 0.185685 0
M  V30 6910 C 694.314 4.22756 0.395282 0
M  V30 6911 O 695.338 3.55219 0.264165 0
M  V30 6912 O 694.197 5.42555 0.655475 0
M  V30 6913 H 691.291 0.816007 0.134393 0
M  V30 6914 H 693.837 1.62577 -0.486513 0
M  V30 6915 H 692.609 3.83045 -0.799508 0
M  V30 6916 H 692.232 3.86927 0.91507 0
M  V30 6917 N 693.229 0.160201 1.56784 0
M  V30 6918 C 694.645 -0.196089 1.58391 0
M  V30 6919 C 694.845 -1.63689 1.17508 0
M  V30 6920 O 693.901 -2.36613 0.881506 0
M  V30 6921 C 695.214 0.0746449 3.00607 0
M  V30 6922 C 696.762 0.0119762 3.12998 0
M  V30 6923 C 697.237 0.255551 4.57286 0
M  V30 6924 N 698.728 0.202938 4.62755 0
M  V30 6925 C 699.463 0.365731 5.72232 0
M  V30 6926 N 698.959 0.586972 6.90309 0
M  V30 6927 N 700.752 0.302411 5.61286 0
M  V30 6928 H 692.903 1.1008 1.81648 0
M  V30 6929 H 695.166 0.436779 0.841384 0
M  V30 6930 H 694.872 1.07231 3.34954 0
M  V30 6931 H 694.746 -0.638802 3.71751 0
M  V30 6932 H 697.133 -0.976254 2.78484 0
M  V30 6933 H 697.214 0.75796 2.44313 0
M  V30 6934 H 696.858 1.24094 4.92507 0
M  V30 6935 H 696.788 -0.510912 5.24116 0
M  V30 6936 H 699.279 0.0371328 3.77882 0
M  V30 6937 H 699.592 0.700941 7.69615 0
M  V30 6938 H 697.937 0.623453 6.92198 0
M  V30 6939 H 701.128 0.130238 4.67919 0
M  V30 6940 H 701.301 0.432712 6.46554 0
M  V30 6941 N 694.707 -1.5719 -0.113559 0
M  V30 6942 C 695.637 -2.03772 -1.14013 0
M  V30 6943 C 696.618 -0.923176 -1.42869 0
M  V30 6944 O 697.803 -1.19325 -1.53216 0
M  V30 6945 C 694.933 -2.44663 -2.4649 0
M  V30 6946 C 693.887 -3.59612 -2.32085 0
M  V30 6947 C 693.213 -3.8642 -3.69573 0
M  V30 6948 C 694.513 -4.91149 -1.7768 0
M  V30 6949 H 696.207 -2.89785 -0.752665 0
M  V30 6950 H 693.753 -1.39412 -0.360609 0
M  V30 6951 H 695.706 -2.75857 -3.18561 0
M  V30 6952 H 694.43 -1.55628 -2.87137 0
M  V30 6953 H 693.089 -3.28636 -1.62461 0
M  V30 6954 H 692.737 -2.94581 -4.07715 0
M  V30 6955 H 692.437 -4.63797 -3.60786 0
M  V30 6956 H 693.961 -4.2007 -4.4314 0
M  V30 6957 H 695.375 -5.20843 -2.39574 0
M  V30 6958 H 693.772 -5.72562 -1.79701 0
M  V30 6959 H 694.842 -4.79301 -0.734776 0
M  V30 6960 N 696.185 0.383891 -1.52853 0
M  V30 6961 C 697.117 1.48889 -1.74255 0
M  V30 6962 C 698.13 1.50405 -0.623063 0
M  V30 6963 O 699.319 1.54215 -0.898887 0
M  V30 6964 C 696.419 2.87721 -1.79081 0
M  V30 6965 C 695.592 3.10111 -3.08464 0
M  V30 6966 C 694.651 4.28954 -3.0477 0
M  V30 6967 O 693.677 4.25012 -3.78621 0
M  V30 6968 N 694.879 5.35411 -2.24311 0
M  V30 6969 H 697.644 1.30915 -2.69595 0
M  V30 6970 H 695.205 0.573454 -1.51404 0
M  V30 6971 H 697.197 3.65333 -1.7411 0
M  V30 6972 H 695.767 2.99029 -0.911052 0
M  V30 6973 H 694.987 2.20319 -3.26884 0
M  V30 6974 H 696.275 3.21928 -3.94005 0
M  V30 6975 H 695.673 5.41471 -1.63787 0
M  V30 6976 H 694.23 6.1167 -2.25175 0
M  V30 6977 N 697.663 1.43903 0.642637 0
M  V30 6978 C 698.94 1.36556 1.40043 0
M  V30 6979 C 699.32 0.0185588 2.11092 0
M  V30 6980 O 698.668 -0.998438 2.05532 0
M  V30 6981 C 698.878 2.55596 2.37638 0
M  V30 6982 C 700.226 2.99153 3.01318 0
M  V30 6983 O 701.25 2.55719 2.47965 0
M  V30 6984 O 700.109 3.74427 3.98078 0
M  V30 6985 H 697.203 0.540189 0.626198 0
M  V30 6986 H 699.749 1.55971 0.668657 0
M  V30 6987 H 698.521 3.45256 1.84158 0
M  V30 6988 H 698.144 2.38334 3.18249 0
M  V30 6989 N 699.141 -0.881989 1.30609 0
M  V30 6990 C 700.39 -1.62878 1.18969 0
M  V30 6991 C 700.703 -1.93946 -0.253859 0
M  V30 6992 O 701.909 -2.67008 -0.491813 0
M  V30 6993 C 700.365 -2.93573 2.0819 0
M  V30 6994 C 699.973 -2.70034 3.57471 0
M  V30 6995 C 701.717 -3.71543 2.0532 0
M  V30 6996 C 699.624 -3.96563 4.38739 0
M  V30 6997 H 698.554 -0.611092 0.441682 0
M  V30 6998 H 701.205 -0.976201 1.55379 0
M  V30 6999 H 699.587 -3.6014 1.64666 0
M  V30 7000 H 700.761 -2.11949 4.09163 0
M  V30 7001 H 699.076 -2.05435 3.62195 0
M  V30 7002 H 701.673 -4.65386 2.63288 0
M  V30 7003 H 702.016 -4.03167 1.03739 0
M  V30 7004 H 702.549 -3.11842 2.46981 0
M  V30 7005 H 699.288 -3.70095 5.41027 0
M  V30 7006 H 698.808 -4.54142 3.9181 0
M  V30 7007 H 700.487 -4.64557 4.50329 0
M  V30 7008 N 700.619 -1.13374 -1.09472 0
M  V30 7009 C 702.035 -0.871846 -1.33682 0
M  V30 7010 C 702.235 0.492847 -1.9538 0
M  V30 7011 O 701.291 1.23946 -2.19985 0
M  V30 7012 C 702.604 -1.99608 -2.24893 0
M  V30 7013 C 704.152 -2.02812 -2.38404 0
M  V30 7014 C 704.627 -3.14497 -3.3295 0
M  V30 7015 N 706.118 -3.14004 -3.40523 0
M  V30 7016 C 706.853 -3.97061 -4.13679 0
M  V30 7017 N 706.349 -4.90131 -4.89636 0
M  V30 7018 N 708.142 -3.85162 -4.09398 0
M  V30 7019 H 700.293 -2.01288 -0.677995 0
M  V30 7020 H 702.556 -0.876492 -0.361201 0
M  V30 7021 H 702.262 -2.98 -1.86786 0
M  V30 7022 H 702.136 -1.90981 -3.25278 0
M  V30 7023 H 704.523 -1.05034 -2.75775 0
M  V30 7024 H 704.604 -2.15511 -1.37799 0
M  V30 7025 H 704.248 -4.12514 -2.96302 0
M  V30 7026 H 704.178 -2.99035 -4.33458 0
M  V30 7027 H 706.669 -2.46587 -2.86362 0
M  V30 7028 H 706.982 -5.49996 -5.42885 0
M  V30 7029 H 705.327 -4.94138 -4.88726 0
M  V30 7030 H 708.518 -3.11779 -3.49158 0
M  V30 7031 H 708.691 -4.5012 -4.6615 0
M  V30 7032 N 702.098 1.27442 -0.927168 0
M  V30 7033 C 703.03 2.25975 -0.383158 0
M  V30 7034 C 704.043 1.55382 0.485832 0
M  V30 7035 O 705.232 1.75986 0.298541 0
M  V30 7036 C 702.332 3.35629 0.469688 0
M  V30 7037 C 701.505 4.35747 -0.379886 0
M  V30 7038 C 700.564 5.24598 0.410227 0
M  V30 7039 O 699.59 5.68909 -0.181888 0
M  V30 7040 N 700.792 5.54737 1.71017 0
M  V30 7041 H 703.557 2.7329 -1.23015 0
M  V30 7042 H 701.118 1.41063 -0.794539 0
M  V30 7043 H 703.11 3.92015 1.00532 0
M  V30 7044 H 701.68 2.87919 1.21744 0
M  V30 7045 H 700.9 3.78634 -1.09682 0
M  V30 7046 H 702.188 4.99648 -0.960717 0
M  V30 7047 H 701.586 5.20594 2.21356 0
M  V30 7048 H 700.143 6.13824 2.19234 0
M  V30 7049 N 703.576 0.692616 1.41565 0
M  V30 7050 C 704.509 -0.025063 2.28186 0
M  V30 7051 C 705.487 -0.790912 1.42068 0
M  V30 7052 O 706.671 -0.782344 1.71498 0
M  V30 7053 C 703.798 -1.04285 3.22246 0
M  V30 7054 C 702.844 -0.370515 4.24888 0
M  V30 7055 S 703.677 0.884942 5.28137 0
M  V30 7056 C 704.833 -0.131324 6.25762 0
M  V30 7057 H 705.066 0.709626 2.88707 0
M  V30 7058 H 702.599 0.482783 1.46658 0
M  V30 7059 H 704.557 -1.62493 3.7697 0
M  V30 7060 H 703.218 -1.7501 2.60827 0
M  V30 7061 H 702.411 -1.13911 4.90959 0
M  V30 7062 H 702.013 0.138411 3.73744 0
M  V30 7063 H 704.305 -0.985527 6.70294 0
M  V30 7064 H 705.248 0.495384 7.06365 0
M  V30 7065 H 705.656 -0.484777 5.62415 0
M  V30 7066 N 705.054 -1.51416 0.437162 0
M  V30 7067 C 706.279 -2.0699 -0.130424 0
M  V30 7068 C 706.704 -1.30249 -1.35709 0
M  V30 7069 O 706.062 -0.340388 -1.78076 0
M  V30 7070 C 706.11 -3.5801 -0.43142 0
M  V30 7071 O 705.214 -3.8345 -1.5179 0
M  V30 7072 H 704.555 -0.663997 -0.00194339 0
M  V30 7073 H 707.085 -1.95029 0.618445 0
M  V30 7074 H 707.095 -4.02261 -0.681926 0
M  V30 7075 H 705.77 -4.13291 0.465137 0
M  V30 7076 H 704.347 -3.51062 -1.25737 0
M  V30 7077 N 706.532 -0.168513 -1.56696 0
M  V30 7078 C 707.778 0.477865 -1.9709 0
M  V30 7079 C 708.111 1.63084 -1.05438 0
M  V30 7080 O 707.386 1.94238 -0.10095 0
M  V30 7081 C 707.669 0.963521 -3.4697 0
M  V30 7082 C 707.522 -0.189443 -4.49401 0
M  V30 7083 C 708.841 1.83813 -3.99876 0
M  V30 7084 H 705.96 0.172229 -0.716593 0
M  V30 7085 H 708.602 -0.254083 -1.88293 0
M  V30 7086 H 706.752 1.58724 -3.54597 0
M  V30 7087 H 708.424 -0.826451 -4.53836 0
M  V30 7088 H 706.667 -0.845366 -4.25483 0
M  V30 7089 H 707.338 0.192446 -5.51664 0
M  V30 7090 H 709.814 1.31235 -3.94863 0
M  V30 7091 H 708.69 2.14697 -5.0517 0
M  V30 7092 H 708.951 2.78289 -3.43523 0
M  V30 7093 N 708.01 1.57248 0.105221 0
M  V30 7094 C 709.426 1.52853 0.459153 0
M  V30 7095 C 709.626 0.883674 1.8109 0
M  V30 7096 O 708.682 0.471864 2.48052 0
M  V30 7097 C 709.995 2.97596 0.43096 0
M  V30 7098 C 711.543 3.08758 0.513536 0
M  V30 7099 C 712.018 4.55089 0.515593 0
M  V30 7100 N 713.509 4.59597 0.576639 0
M  V30 7101 C 714.244 5.70253 0.599904 0
M  V30 7102 N 713.74 6.90368 0.579985 0
M  V30 7103 N 715.533 5.58399 0.643953 0
M  V30 7104 H 707.684 1.97547 -0.780306 0
M  V30 7105 H 709.947 0.902758 -0.289363 0
M  V30 7106 H 709.653 3.48201 -0.494903 0
M  V30 7107 H 709.527 3.55756 1.2537 0
M  V30 7108 H 711.914 2.58148 1.42982 0
M  V30 7109 H 711.995 2.53568 -0.337148 0
M  V30 7110 H 711.639 5.06348 -0.396701 0
M  V30 7111 H 711.569 5.08105 1.38335 0
M  V30 7112 H 714.06 3.73144 0.597639 0
M  V30 7113 H 714.373 7.70462 0.600741 0
M  V30 7114 H 712.718 6.92843 0.547191 0
M  V30 7115 H 715.909 4.63467 0.656975 0
M  V30 7116 H 716.082 6.44644 0.658616 0
M  V30 7117 N 709.488 -0.375779 1.53054 0
M  V30 7118 C 710.42 -1.47963 1.75042 0
M  V30 7119 C 711.433 -1.50073 0.631031 0
M  V30 7120 O 712.622 -1.53736 0.907052 0
M  V30 7121 C 709.722 -2.86767 1.80604 0
M  V30 7122 C 708.895 -3.08471 3.10104 0
M  V30 7123 C 707.954 -4.27332 3.07041 0
M  V30 7124 O 706.98 -4.22998 3.80869 0
M  V30 7125 N 708.182 -5.34214 2.27147 0
M  V30 7126 H 710.947 -1.29484 2.70285 0
M  V30 7127 H 708.508 -0.565416 1.51706 0
M  V30 7128 H 710.5 -3.64404 1.76045 0
M  V30 7129 H 709.07 -2.98542 0.926897 0
M  V30 7130 H 708.29 -2.18583 3.28048 0
M  V30 7131 H 709.578 -3.19834 3.95706 0
M  V30 7132 H 708.976 -5.40594 1.66656 0
M  V30 7133 H 707.533 -6.10467 2.28415 0
M  V30 7134 N 710.966 -1.44241 -0.634997 0
M  V30 7135 C 712.212 -1.47038 -1.39669 0
M  V30 7136 C 712.545 -0.101122 -1.93937 0
M  V30 7137 O 711.82 0.880699 -1.73418 0
M  V30 7138 C 712.103 -2.52763 -2.56482 0
M  V30 7139 C 711.956 -3.99032 -2.07589 0
M  V30 7140 C 713.275 -2.55031 -3.58674 0
M  V30 7141 H 710.394 -0.53537 -0.506506 0
M  V30 7142 H 713.036 -1.75898 -0.718317 0
M  V30 7143 H 711.186 -2.28284 -3.14354 0
M  V30 7144 H 712.858 -4.3463 -1.54577 0
M  V30 7145 H 711.101 -4.10994 -1.38804 0
M  V30 7146 H 711.772 -4.68649 -2.91671 0
M  V30 7147 H 714.248 -2.76893 -3.10595 0
M  V30 7148 H 713.124 -3.30916 -4.37934 0
M  V30 7149 H 713.385 -1.59085 -4.12486 0
M  V30 7150 N 712.444 0.87505 -1.31075 0
M  V30 7151 C 713.669 1.66583 -1.23551 0
M  V30 7152 C 714.094 1.87067 0.19686 0
M  V30 7153 O 713.452 1.40877 1.1412 0
M  V30 7154 C 713.5 3.01401 -1.97965 0
M  V30 7155 O 712.604 3.90923 -1.31351 0
M  V30 7156 H 711.945 0.508645 -0.426821 0
M  V30 7157 H 714.475 1.09139 -1.7306 0
M  V30 7158 H 714.485 3.51374 -2.07366 0
M  V30 7159 H 713.16 2.85812 -3.02133 0
M  V30 7160 H 711.737 3.49369 -1.30368 0
M  V30 7161 N 713.922 1.13953 1.08869 0
M  V30 7162 C 714.854 0.779906 2.15523 0
M  V30 7163 C 715.867 -0.20102 1.61554 0
M  V30 7164 O 717.056 0.0200049 1.78489 0
M  V30 7165 C 714.156 0.136226 3.38626 0
M  V30 7166 C 713.329 1.15069 4.21993 0
M  V30 7167 C 712.388 0.531645 5.23507 0
M  V30 7168 O 711.414 1.19327 5.56552 0
M  V30 7169 N 712.616 -0.693734 5.7634 0
M  V30 7170 H 715.381 1.69769 2.46979 0
M  V30 7171 H 712.942 1.03331 1.24637 0
M  V30 7172 H 714.934 -0.290295 4.03658 0
M  V30 7173 H 713.504 -0.684603 3.05011 0
M  V30 7174 H 712.724 1.75431 3.53012 0
M  V30 7175 H 714.012 1.83614 4.74514 0
M  V30 7176 H 713.41 -1.24994 5.51718 0
M  V30 7177 H 711.967 -1.06283 6.43076 0
M  V30 7178 N 715.4 -1.26948 0.933913 0
M  V30 7179 C 716.628 -1.98186 0.59414 0
M  V30 7180 C 717.043 -1.69614 -0.829257 0
M  V30 7181 O 716.4 -0.960213 -1.55197 0
M  V30 7182 C 716.451 -3.52123 0.818026 0
M  V30 7183 O 716.172 -3.79698 2.18543 0
M  V30 7184 C 717.673 -4.40608 0.48781 0
M  V30 7185 H 714.893 -0.632305 0.224569 0
M  V30 7186 H 717.437 -1.61646 1.25263 0
M  V30 7187 H 715.592 -3.86851 0.206246 0
M  V30 7188 H 716.006 -4.7426 2.24005 0
M  V30 7189 H 717.48 -5.47606 0.695126 0
M  V30 7190 H 717.957 -4.35394 -0.576913 0
M  V30 7191 H 718.563 -4.11411 1.078 0
M  V30 7192 N 716.879 -0.700114 -1.41195 0
M  V30 7193 C 718.295 -0.372114 -1.55201 0
M  V30 7194 C 718.495 1.12053 -1.6747 0
M  V30 7195 O 717.551 1.90642 -1.65566 0
M  V30 7196 C 718.864 -1.12462 -2.78878 0
M  V30 7197 C 720.412 -1.10941 -2.92679 0
M  V30 7198 C 720.887 -1.84376 -4.19249 0
M  V30 7199 N 722.378 -1.81368 -4.26216 0
M  V30 7200 C 723.113 -2.35024 -5.23021 0
M  V30 7201 N 722.609 -2.9717 -6.25829 0
M  V30 7202 N 724.402 -2.25254 -5.14992 0
M  V30 7203 H 716.553 -1.66816 -1.31477 0
M  V30 7204 H 718.816 -0.704223 -0.634644 0
M  V30 7205 H 718.522 -2.17937 -2.76037 0
M  V30 7206 H 718.396 -0.706152 -3.70531 0
M  V30 7207 H 720.783 -0.062911 -2.95033 0
M  V30 7208 H 720.864 -1.56698 -2.02187 0
M  V30 7209 H 720.508 -2.89008 -4.17656 0
M  V30 7210 H 720.438 -1.3605 -5.08722 0
M  V30 7211 H 722.929 -1.36062 -3.52556 0
M  V30 7212 H 723.242 -3.35668 -6.96094 0
M  V30 7213 H 721.587 -3.01249 -6.26318 0
M  V30 7214 H 724.778 -1.76372 -4.33602 0
M  V30 7215 H 724.951 -2.67373 -5.90268 0
M  V30 7216 N 718.357 1.51182 -0.445186 0
M  V30 7217 C 719.604 2.02152 0.118645 0
M  V30 7218 C 719.932 1.32888 1.42025 0
M  V30 7219 O 719.187 0.435041 1.90803 0
M  V30 7220 C 719.486 3.55408 0.376797 0
M  V30 7221 C 719.152 4.43008 -0.839945 0
M  V30 7222 C 717.814 4.66669 -1.17361 0
M  V30 7223 C 720.166 4.9435 -1.65127 0
M  V30 7224 C 717.494 5.38919 -2.31913 0
M  V30 7225 C 719.846 5.67857 -2.78786 0
M  V30 7226 C 718.51 5.89779 -3.12597 0
M  V30 7227 H 717.78 0.739727 0.0434152 0
M  V30 7228 H 720.427 1.82055 -0.593984 0
M  V30 7229 H 718.732 3.73879 1.1714 0
M  V30 7230 H 720.429 3.92388 0.826602 0
M  V30 7231 H 717.019 4.24793 -0.569958 0
M  V30 7232 H 721.203 4.75947 -1.4067 0
M  V30 7233 H 716.459 5.54105 -2.58413 0
M  V30 7234 H 720.633 6.06628 -3.42017 0
M  V30 7235 H 718.26 6.45542 -4.01471 0
M  V30 7236 N 719.835 0.176821 1.56605 0
M  V30 7237 C 721.065 -0.472142 2.01133 0
M  V30 7238 C 721.473 -1.56979 1.05614 0
M  V30 7239 O 720.816 -1.83632 0.0500137 0
M  V30 7240 C 720.878 -1.10547 3.42081 0
M  V30 7241 C 720.542 -0.148806 4.56758 0
M  V30 7242 C 721.539 0.634939 5.16008 0
M  V30 7243 C 719.224 -0.0430325 5.02282 0
M  V30 7244 C 721.218 1.5116 6.19217 0
M  V30 7245 C 718.905 0.83721 6.05338 0
M  V30 7246 C 719.903 1.61311 6.63677 0
M  V30 7247 O 719.591 2.47863 7.64735 0
M  V30 7248 H 719.323 -0.124725 0.664394 0
M  V30 7249 H 721.877 0.277329 2.03519 0
M  V30 7250 H 720.107 -1.90318 3.36625 0
M  V30 7251 H 721.796 -1.6572 3.70529 0
M  V30 7252 H 722.562 0.563424 4.81716 0
M  V30 7253 H 718.441 -0.636753 4.56581 0
M  V30 7254 H 721.985 2.11767 6.64681 0
M  V30 7255 H 717.882 0.909908 6.39055 0
M  V30 7256 H 718.65 2.4144 7.8208 0
M  V30 7257 N 721.313 -1.57302 -0.09688 0
M  V30 7258 C 722.559 -1.86273 -0.801885 0
M  V30 7259 C 722.892 -0.765694 -1.78468 0
M  V30 7260 O 722.167 0.226495 -1.93177 0
M  V30 7261 C 722.45 -3.25876 -1.53221 0
M  V30 7262 C 722.303 -4.46205 -0.567529 0
M  V30 7263 C 723.622 -3.63352 -2.48321 0
M  V30 7264 H 720.741 -0.67752 -0.29006 0
M  V30 7265 H 723.383 -1.89887 -0.0655577 0
M  V30 7266 H 721.533 -3.22926 -2.15988 0
M  V30 7267 H 723.205 -4.6127 0.0529982 0
M  V30 7268 H 721.448 -4.33636 0.119233 0
M  V30 7269 H 722.119 -5.40608 -1.11564 0
M  V30 7270 H 724.595 -3.67234 -1.95648 0
M  V30 7271 H 723.471 -4.61968 -2.9644 0
M  V30 7272 H 723.732 -2.91941 -3.31998 0
M  V30 7273 N 722.791 0.367657 -1.53252 0
M  V30 7274 C 723.754 1.43308 -1.78873 0
M  V30 7275 C 724.754 1.46671 -0.659115 0
M  V30 7276 O 725.944 1.47468 -0.927306 0
M  V30 7277 C 723.076 2.82442 -1.90892 0
M  V30 7278 H 724.269 1.21864 -2.74024 0
M  V30 7279 H 721.822 0.600668 -1.44297 0
M  V30 7280 H 722.557 3.09202 -0.978 0
M  V30 7281 H 722.342 2.81399 -2.73051 0
M  V30 7282 H 723.832 3.59601 -2.12314 0
M  V30 7283 N 724.269 1.44576 0.627338 0
M  V30 7284 C 725.179 1.54232 1.76776 0
M  V30 7285 C 726.195 0.427782 1.6866 0
M  V30 7286 O 727.371 0.685671 1.89369 0
M  V30 7287 C 724.436 1.48738 3.13174 0
M  V30 7288 C 723.497 2.71074 3.32893 0
M  V30 7289 C 722.73 2.65832 4.62784 0
M  V30 7290 O 722.953 1.72048 5.43834 0
M  V30 7291 O 721.887 3.56742 4.84787 0
M  V30 7292 H 725.713 2.50586 1.71582 0
M  V30 7293 H 723.298 1.26865 0.789028 0
M  V30 7294 H 725.18 1.48211 3.94476 0
M  V30 7295 H 723.855 0.555292 3.18902 0
M  V30 7296 H 722.762 2.77168 2.51254 0
M  V30 7297 H 724.095 3.63342 3.32029 0
M  V30 7298 N 725.747 -0.868086 1.31537 0
M  V30 7299 C 726.972 -1.65926 1.24432 0
M  V30 7300 C 727.397 -1.87169 -0.186936 0
M  V30 7301 O 726.755 -1.4148 -1.13371 0
M  V30 7302 C 726.803 -3.00347 1.9956 0
M  V30 7303 O 725.907 -3.90221 1.33422 0
M  V30 7304 H 725.248 -0.506375 0.429512 0
M  V30 7305 H 727.778 -1.0822 1.73637 0
M  V30 7306 H 727.788 -3.50269 2.09226 0
M  V30 7307 H 726.463 -2.84205 3.03645 0
M  V30 7308 H 725.04 -3.48672 1.32219 0
M  V30 7309 N 727.225 -1.14528 -1.08264 0
M  V30 7310 C 728.641 -0.885976 -1.3275 0
M  V30 7311 C 728.841 0.472096 -1.95892 0
M  V30 7312 O 727.897 1.21606 -2.21288 0
M  V30 7313 C 729.21 -2.01982 -2.22764 0
M  V30 7314 C 730.758 -2.05329 -2.36239 0
M  V30 7315 C 731.233 -3.1801 -3.29596 0
M  V30 7316 N 732.724 -3.17598 -3.37173 0
M  V30 7317 C 733.459 -4.01426 -4.09444 0
M  V30 7318 N 732.955 -4.95297 -4.8441 0
M  V30 7319 N 734.748 -3.89482 -4.0529 0
M  V30 7320 H 726.899 -2.01996 -0.656607 0
M  V30 7321 H 729.162 -0.880274 -0.351884 0
M  V30 7322 H 728.868 -2.99964 -1.83615 0
M  V30 7323 H 728.742 -1.94421 -3.23234 0
M  V30 7324 H 731.129 -1.07953 -2.74646 0
M  V30 7325 H 731.21 -2.1696 -1.35506 0
M  V30 7326 H 730.854 -4.15633 -2.9191 0
M  V30 7327 H 730.784 -3.03616 -4.30261 0
M  V30 7328 H 733.275 -2.4961 -2.83731 0
M  V30 7329 H 733.588 -5.55723 -5.37021 0
M  V30 7330 H 731.933 -4.99293 -4.83457 0
M  V30 7331 H 735.124 -3.15465 -3.45832 0
M  V30 7332 H 735.297 -4.55039 -4.6135 0
M  V30 7333 N 728.703 1.26451 -0.940633 0
M  V30 7334 C 729.98 1.88947 -0.505811 0
M  V30 7335 C 730.36 1.85011 1.01657 0
M  V30 7336 O 729.708 1.30406 1.87634 0
M  V30 7337 C 729.918 3.32304 -1.06654 0
M  V30 7338 C 731.266 4.09153 -1.13486 0
M  V30 7339 O 732.29 3.41371 -1.01708 0
M  V30 7340 O 731.149 5.30369 -1.31797 0
M  V30 7341 H 728.243 0.810422 -0.164759 0
M  V30 7342 H 730.789 1.34625 -1.03316 0
M  V30 7343 H 729.561 3.29527 -2.11015 0
M  V30 7344 H 729.184 3.94164 -0.521603 0
M  V30 7345 N 730.181 0.707592 1.40822 0
M  V30 7346 C 731.427 0.244031 2.01326 0
M  V30 7347 C 731.76 -1.15722 1.55955 0
M  V30 7348 O 731.035 -1.78347 0.776044 0
M  V30 7349 C 731.318 0.315128 3.58718 0
M  V30 7350 C 731.171 1.75419 4.14184 0
M  V30 7351 C 732.49 -0.318251 4.38948 0
M  V30 7352 H 729.609 0.0901471 0.731466 0
M  V30 7353 H 732.251 0.898584 1.67408 0
M  V30 7354 H 730.401 -0.242176 3.87744 0
M  V30 7355 H 732.073 2.36626 3.95987 0
M  V30 7356 H 730.316 2.28449 3.68773 0
M  V30 7357 H 730.987 1.75538 5.23345 0
M  V30 7358 H 733.463 0.156514 4.15806 0
M  V30 7359 H 732.339 -0.238019 5.48384 0
M  V30 7360 H 732.6 -1.40067 4.19325 0
M  V30 7361 N 731.66 -1.50943 0.453197 0
M  V30 7362 C 732.623 -2.26684 -0.338705 0
M  V30 7363 C 733.623 -1.30748 -0.936032 0
M  V30 7364 O 734.813 -1.54327 -0.808002 0
M  V30 7365 C 731.945 -3.07063 -1.48071 0
M  V30 7366 H 733.138 -2.98131 0.325289 0
M  V30 7367 H 730.691 -1.54926 0.206771 0
M  V30 7368 H 731.426 -2.4007 -2.18029 0
M  V30 7369 H 731.211 -3.77545 -1.0584 0
M  V30 7370 H 732.701 -3.64393 -2.0398 0
M  V30 7371 N 733.138 -0.185124 -1.56509 0
M  V30 7372 C 734.549 0.329221 -1.83774 0
M  V30 7373 C 734.9 1.62093 -1.10545 0
M  V30 7374 O 734.025 2.13334 -0.36298 0
M  V30 7375 C 734.62 0.604099 -3.33371 0
M  V30 7376 C 733.179 1.06284 -3.61083 0
M  V30 7377 C 732.326 0.10608 -2.77097 0
M  V30 7378 H 735.277 -0.409116 -1.53336 0
M  V30 7379 H 735.298 1.45458 -3.51599 0
M  V30 7380 H 734.81 -0.336201 -3.86641 0
M  V30 7381 H 732.911 2.01777 -3.13236 0
M  V30 7382 H 733.024 0.962453 -4.69333 0
M  V30 7383 H 731.388 0.606082 -2.47384 0
M  V30 7384 H 732.171 -0.828486 -3.33153 0
M  V30 7385 N 734.616 1.57351 0.0885366 0
M  V30 7386 C 735.566 1.98963 1.11346 0
M  V30 7387 C 736.55 0.869065 1.35411 0
M  V30 7388 O 737.742 1.13292 1.35992 0
M  V30 7389 C 734.871 2.4231 2.43189 0
M  V30 7390 C 733.957 3.61065 2.22469 0
M  V30 7391 N 734.348 4.75789 1.71635 0
M  V30 7392 C 732.646 3.6729 2.5301 0
M  V30 7393 C 733.347 5.57708 1.65339 0
M  V30 7394 N 732.323 5.01067 2.1079 0
M  V30 7395 H 736.125 2.85109 0.713465 0
M  V30 7396 H 733.639 1.59682 0.295868 0
M  V30 7397 H 735.636 2.70352 3.17357 0
M  V30 7398 H 734.296 1.57544 2.83919 0
M  V30 7399 H 735.307 4.98411 1.40738 0
M  V30 7400 H 731.984 2.932 2.9722 0
M  V30 7401 H 733.374 6.59782 1.27031 0
M  V30 7402 N 736.094 -0.359525 1.53444 0
M  V30 7403 C 737.34 -1.10315 1.70172 0
M  V30 7404 C 737.673 -1.88788 0.455287 0
M  V30 7405 O 736.948 -1.86635 -0.547514 0
M  V30 7406 C 737.231 -2.05744 2.95536 0
M  V30 7407 C 737.084 -1.3084 4.3035 0
M  V30 7408 C 738.403 -3.05784 3.16518 0
M  V30 7409 H 735.522 -0.399662 0.619225 0
M  V30 7410 H 738.164 -0.383338 1.86093 0
M  V30 7411 H 736.314 -2.67125 2.82093 0
M  V30 7412 H 737.986 -0.721959 4.55615 0
M  V30 7413 H 736.229 -0.610283 4.29486 0
M  V30 7414 H 736.9 -2.00718 5.14214 0
M  V30 7415 H 739.376 -2.5451 3.29187 0
M  V30 7416 H 738.252 -3.69772 4.05659 0
M  V30 7417 H 738.513 -3.76289 2.32076 0
M  V30 7418 N 737.572 -1.44907 -0.619662 0
M  V30 7419 C 738.797 -1.52021 -1.41083 0
M  V30 7420 C 739.222 -0.14976 -1.87503 0
M  V30 7421 O 738.58 0.863303 -1.59426 0
M  V30 7422 C 738.628 -2.49911 -2.59955 0
M  V30 7423 O 737.732 -2.00857 -3.60181 0
M  V30 7424 H 737.073 -0.512912 -0.421684 0
M  V30 7425 H 739.603 -1.90149 -0.755282 0
M  V30 7426 H 739.613 -2.68323 -3.07354 0
M  V30 7427 H 738.288 -3.4945 -2.25516 0
M  V30 7428 H 736.865 -1.92265 -3.19513 0
M  V30 7429 N 739.05 0.861098 -1.31996 0
M  V30 7430 C 739.98 1.98482 -1.22993 0
M  V30 7431 C 740.961 1.6971 -0.115168 0
M  V30 7432 O 742.146 1.91849 -0.30126 0
M  V30 7433 C 739.276 3.34179 -0.945615 0
M  V30 7434 C 738.23 3.77284 -2.02091 0
M  V30 7435 C 737.556 5.1054 -1.58912 0
M  V30 7436 C 738.856 3.93439 -3.43515 0
M  V30 7437 H 740.55 2.06271 -2.17008 0
M  V30 7438 H 738.096 0.991043 -1.04472 0
M  V30 7439 H 740.049 4.12338 -0.869206 0
M  V30 7440 H 738.773 3.26586 0.0301849 0
M  V30 7441 H 737.432 3.01371 -2.08737 0
M  V30 7442 H 737.08 4.99397 -0.600942 0
M  V30 7443 H 736.78 5.40352 -2.30854 0
M  V30 7444 H 738.304 5.91199 -1.52696 0
M  V30 7445 H 739.718 4.6197 -3.39495 0
M  V30 7446 H 738.115 4.34661 -4.13751 0
M  V30 7447 H 739.185 2.96548 -3.8365 0
M  V30 7448 N 740.528 1.15101 1.07655 0
M  V30 7449 C 741.775 0.923974 1.80191 0
M  V30 7450 C 742.103 -0.549065 1.86589 0
M  V30 7451 O 741.358 -1.42307 1.3434 0
M  V30 7452 C 741.657 1.47954 3.25337 0
M  V30 7453 C 741.323 2.97253 3.39044 0
M  V30 7454 C 739.985 3.38012 3.42493 0
M  V30 7455 C 742.337 3.93219 3.42094 0
M  V30 7456 C 739.665 4.73384 3.4659 0
M  V30 7457 C 742.017 5.28458 3.47728 0
M  V30 7458 C 740.681 5.68717 3.49453 0
M  V30 7459 H 739.951 0.338106 0.659367 0
M  V30 7460 H 742.598 1.43594 1.26701 0
M  V30 7461 H 740.903 0.888691 3.81588 0
M  V30 7462 H 742.6 1.27972 3.80032 0
M  V30 7463 H 739.19 2.64746 3.37057 0
M  V30 7464 H 743.374 3.62805 3.38654 0
M  V30 7465 H 738.63 5.03925 3.46222 0
M  V30 7466 H 742.804 6.02618 3.49034 0
M  V30 7467 H 740.431 6.73596 3.5238 0
M  V30 7468 N 742.006 -1.2595 0.947325 0
M  V30 7469 C 743.252 -1.9375 0.599064 0
M  V30 7470 C 743.585 -1.74088 -0.860632 0
M  V30 7471 O 742.86 -1.08158 -1.61654 0
M  V30 7472 C 743.143 -3.47353 0.949634 0
M  V30 7473 C 742.996 -3.76273 2.46452 0
M  V30 7474 C 744.315 -4.37589 0.469442 0
M  V30 7475 H 741.434 -0.703674 0.219115 0
M  V30 7476 H 744.076 -1.48705 1.18266 0
M  V30 7477 H 742.226 -3.8585 0.453008 0
M  V30 7478 H 743.898 -3.47455 3.03435 0
M  V30 7479 H 742.141 -3.22135 2.90537 0
M  V30 7480 H 742.812 -4.83664 2.66032 0
M  V30 7481 H 745.288 -4.06353 0.89534 0
M  V30 7482 H 744.164 -5.43841 0.7435 0
M  V30 7483 H 744.425 -4.37579 -0.630618 0
M  V30 7484 N 743.484 -0.715051 -1.40445 0
M  V30 7485 C 744.732 -0.253826 -2.005 0
M  V30 7486 C 745.053 1.15681 -1.5698 0
M  V30 7487 O 744.323 1.78414 -0.809027 0
M  V30 7488 H 742.903 -0.0908537 -0.741454 0
M  V30 7489 H 745.565 -0.920561 -1.7179 0
M  V30 7490 H 744.661 -0.286499 -3.10782 0
M  V30 7491 N 744.962 1.50701 -0.461195 0
M  V30 7492 C 746.21 2.01867 0.0970051 0
M  V30 7493 C 746.531 1.34591 1.41104 0
M  V30 7494 O 745.801 0.488041 1.89723 0
M  V30 7495 H 744.381 0.74599 0.0388392 0
M  V30 7496 H 747.043 1.85129 -0.609357 0
M  V30 7497 H 746.139 3.11051 0.255688 0
M  V30 7498 N 746.441 0.193421 1.56409 0
M  V30 7499 C 747.371 -0.723334 2.22014 0
M  V30 7500 C 748.352 -1.22254 1.1827 0
M  V30 7501 O 749.537 -1.27168 1.46771 0
M  V30 7502 C 746.667 -1.94366 2.87818 0
M  V30 7503 C 745.621 -1.57943 3.97791 0
M  V30 7504 C 744.947 -2.87623 4.50752 0
M  V30 7505 C 746.247 -0.790639 5.16281 0
M  V30 7506 H 747.941 -0.176426 2.9888 0
M  V30 7507 H 745.487 -0.0834166 1.43758 0
M  V30 7508 H 747.44 -2.5902 3.32396 0
M  V30 7509 H 746.164 -2.51507 2.08355 0
M  V30 7510 H 744.823 -0.956482 3.53903 0
M  V30 7511 H 744.471 -3.4285 3.68053 0
M  V30 7512 H 744.171 -2.63998 5.24956 0
M  V30 7513 H 745.695 -3.53268 4.9803 0
M  V30 7514 H 747.109 -1.34024 5.57414 0
M  V30 7515 H 745.506 -0.65258 5.96541 0
M  V30 7516 H 746.576 0.208633 4.84451 0
M  V30 7517 N 747.919 -1.57396 -0.0801906 0
M  V30 7518 C 749.33 -1.75642 -0.633002 0
M  V30 7519 C 749.681 -0.817708 -1.78348 0
M  V30 7520 O 748.806 0.000233743 -2.164 0
M  V30 7521 C 749.401 -3.18502 -1.15507 0
M  V30 7522 C 747.96 -3.38121 -1.65381 0
M  V30 7523 C 747.107 -2.71386 -0.569661 0
M  V30 7524 H 750.058 -1.58027 0.145949 0
M  V30 7525 H 750.079 -3.22198 -2.02408 0
M  V30 7526 H 749.591 -3.86799 -0.317515 0
M  V30 7527 H 747.692 -2.74926 -2.51488 0
M  V30 7528 H 747.805 -4.46521 -1.73654 0
M  V30 7529 H 746.169 -2.33702 -1.0127 0
M  V30 7530 H 746.952 -3.42332 0.257561 0
M  V30 7531 N 749.397 0.351382 -1.53633 0
M  V30 7532 C 750.808 0.927429 -1.62036 0
M  V30 7533 C 751.159 1.89809 -0.496706 0
M  V30 7534 O 750.284 2.1313 0.374749 0
M  V30 7535 C 750.879 1.68886 -2.93706 0
M  V30 7536 C 749.438 2.21404 -3.04397 0
M  V30 7537 C 748.585 1.03075 -2.57431 0
M  V30 7538 H 751.536 0.129748 -1.58169 0
M  V30 7539 H 751.557 2.55116 -2.82305 0
M  V30 7540 H 751.069 0.982149 -3.75467 0
M  V30 7541 H 749.17 2.95274 -2.27253 0
M  V30 7542 H 749.283 2.48312 -4.09729 0
M  V30 7543 H 747.647 1.40188 -2.12649 0
M  V30 7544 H 748.43 0.338793 -3.41624 0
M  V30 7545 N 750.875 1.45233 0.611969 0
M  V30 7546 C 752.123 1.48727 1.36838 0
M  V30 7547 C 752.444 0.128616 1.94575 0
M  V30 7548 O 751.714 -0.84149 1.76906 0
M  V30 7549 H 750.294 0.547695 0.507976 0
M  V30 7550 H 752.956 1.81156 0.718925 0
M  V30 7551 H 752.052 2.2236 2.19003 0
M  V30 7552 N 752.353 -0.854086 1.3245 0
M  V30 7553 C 753.283 -1.97827 1.24044 0
M  V30 7554 C 754.264 -1.69646 0.124166 0
M  V30 7555 O 755.449 -1.91687 0.31143 0
M  V30 7556 C 752.579 -3.33673 0.963324 0
M  V30 7557 C 751.533 -3.76207 2.04089 0
M  V30 7558 C 750.859 -5.0969 1.61618 0
M  V30 7559 C 752.159 -3.91612 3.45597 0
M  V30 7560 H 753.853 -2.05118 2.18099 0
M  V30 7561 H 751.399 -0.985489 1.04996 0
M  V30 7562 H 753.352 -4.11871 0.891061 0
M  V30 7563 H 752.076 -3.26597 -0.0128649 0
M  V30 7564 H 750.735 -3.0026 2.10332 0
M  V30 7565 H 750.383 -4.99072 0.627418 0
M  V30 7566 H 750.083 -5.3912 2.33717 0
M  V30 7567 H 751.607 -5.90381 1.55829 0
M  V30 7568 H 753.021 -4.60163 3.4194 0
M  V30 7569 H 751.418 -4.3246 4.16051 0
M  V30 7570 H 752.488 -2.9451 3.85217 0
M  V30 7571 N 753.831 -1.1567 -1.07043 0
M  V30 7572 C 755.056 -0.957946 -1.83952 0
M  V30 7573 C 755.481 0.488807 -1.81638 0
M  V30 7574 O 754.839 1.34869 -1.21162 0
M  V30 7575 C 754.887 -1.48064 -3.288 0
M  V30 7576 O 753.991 -0.681921 -4.06723 0
M  V30 7577 H 753.332 -0.341453 -0.569479 0
M  V30 7578 H 755.862 -1.53728 -1.35015 0
M  V30 7579 H 755.872 -1.49484 -3.7963 0
M  V30 7580 H 754.547 -2.53388 -3.29799 0
M  V30 7581 H 753.124 -0.737612 -3.65532 0
M  V30 7582 N 755.309 1.25446 -0.953992 0
M  V30 7583 C 756.72 1.75047 -0.649255 0
M  V30 7584 C 757.071 1.77527 0.835385 0
M  V30 7585 O 756.196 1.39569 1.65377 0
M  V30 7586 C 756.791 3.17889 -1.17183 0
M  V30 7587 C 755.35 3.65052 -0.917267 0
M  V30 7588 C 754.497 2.44124 -1.31525 0
M  V30 7589 H 757.448 1.11342 -1.13087 0
M  V30 7590 H 757.469 3.76768 -0.531616 0
M  V30 7591 H 756.981 3.16052 -2.25239 0
M  V30 7592 H 755.082 3.72305 0.148354 0
M  V30 7593 H 755.195 4.53222 -1.55328 0
M  V30 7594 H 753.559 2.43906 -0.733624 0
M  V30 7595 H 754.342 2.44979 -2.405 0
M  V30 7596 N 756.787 0.722489 1.40064 0
M  V30 7597 C 757.697 0.0755984 2.34478 0
M  V30 7598 C 758.713 -0.736046 1.57665 0
M  V30 7599 O 759.889 -0.667407 1.9002 0
M  V30 7600 C 756.954 -0.830075 3.36616 0
M  V30 7601 C 756.015 -0.00759884 4.29299 0
M  V30 7602 C 755.248 -0.870139 5.26559 0
M  V30 7603 O 755.471 -2.10921 5.2997 0
M  V30 7604 O 754.405 -0.305454 6.01124 0
M  V30 7605 H 758.231 0.854545 2.9143 0
M  V30 7606 H 755.816 0.483032 1.41376 0
M  V30 7607 H 757.698 -1.34864 3.99236 0
M  V30 7608 H 756.373 -1.58805 2.82069 0
M  V30 7609 H 755.28 0.556199 3.69942 0
M  V30 7610 H 756.613 0.712312 4.87018 0
M  V30 7611 N 758.265 -1.50454 0.469181 0
M  V30 7612 C 759.175 -2.32248 -0.331349 0
M  V30 7613 C 760.191 -1.42548 -0.997807 0
M  V30 7614 O 761.367 -1.75602 -0.9862 0
M  V30 7615 C 758.432 -3.17171 -1.40012 0
M  V30 7616 C 757.493 -4.2269 -0.750463 0
M  V30 7617 C 756.726 -5.03554 -1.76831 0
M  V30 7618 O 756.949 -4.85469 -2.99459 0
M  V30 7619 O 755.883 -5.86767 -1.3412 0
M  V30 7620 H 759.709 -3.01821 0.337279 0
M  V30 7621 H 757.294 -1.47602 0.231066 0
M  V30 7622 H 759.176 -3.69871 -2.01924 0
M  V30 7623 H 757.851 -2.50328 -2.05226 0
M  V30 7624 H 756.758 -3.73986 -0.0924446 0
M  V30 7625 H 758.091 -4.91997 -0.14131 0
M  V30 7626 N 759.743 -0.201713 -1.56304 0
M  V30 7627 C 760.973 0.440084 -2.01858 0
M  V30 7628 C 761.381 1.55279 -1.08098 0
M  V30 7629 O 760.724 1.83529 -0.0792216 0
M  V30 7630 C 760.786 1.05091 -3.43797 0
M  V30 7631 C 760.45 0.0761208 -4.56937 0
M  V30 7632 C 761.447 -0.716951 -5.14933 0
M  V30 7633 C 759.132 -0.0368815 -5.02286 0
M  V30 7634 C 761.126 -1.60993 -6.16733 0
M  V30 7635 C 758.813 -0.933409 -6.03929 0
M  V30 7636 C 759.811 -1.71849 -6.61027 0
M  V30 7637 O 759.499 -2.59998 -7.60695 0
M  V30 7638 H 759.231 0.114139 -0.666294 0
M  V30 7639 H 761.785 -0.309672 -2.03052 0
M  V30 7640 H 760.015 1.84938 -3.3961 0
M  V30 7641 H 761.704 1.59804 -3.73118 0
M  V30 7642 H 762.47 -0.63999 -4.80759 0
M  V30 7643 H 758.349 0.564034 -4.57537 0
M  V30 7644 H 761.893 -2.22315 -6.61227 0
M  V30 7645 H 757.79 -1.01146 -6.37526 0
M  V30 7646 H 758.558 -2.53851 -7.7814 0
M  V30 7647 N 761.222 1.57436 0.0718424 0
M  V30 7648 C 762.447 1.91858 0.787745 0
M  V30 7649 C 762.872 0.798119 1.70328 0
M  V30 7650 O 762.23 -0.24905 1.79581 0
M  V30 7651 C 762.278 3.25232 1.55744 0
M  V30 7652 O 761.382 3.14462 2.6681 0
M  V30 7653 H 760.723 0.628258 0.214914 0
M  V30 7654 H 763.253 2.04561 0.0401012 0
M  V30 7655 H 763.263 3.59105 1.9367 0
M  V30 7656 H 761.938 4.0636 0.885691 0
M  V30 7657 H 760.515 2.92148 2.31741 0
M  V30 7658 N 762.7 -0.34323 1.53817 0
M  V30 7659 C 763.925 -1.1079 1.75329 0
M  V30 7660 C 764.35 -1.81571 0.491293 0
M  V30 7661 O 763.708 -1.72561 -0.556089 0
M  V30 7662 C 763.756 -2.09681 2.9337 0
M  V30 7663 O 762.86 -3.17207 2.63541 0
M  V30 7664 H 762.201 -0.320402 0.581583 0
M  V30 7665 H 764.731 -0.393525 2.0078 0
M  V30 7666 H 764.741 -2.52897 3.20168 0
M  V30 7667 H 763.416 -1.5756 3.84899 0
M  V30 7668 H 761.993 -2.78806 2.47632 0
M  V30 7669 N 764.178 -1.45556 -0.604258 0
M  V30 7670 C 765.108 -1.57327 -1.72541 0
M  V30 7671 C 766.089 -0.424637 -1.64714 0
M  V30 7672 O 767.274 -0.648196 -1.83063 0
M  V30 7673 C 764.404 -1.54279 -3.11152 0
M  V30 7674 C 763.358 -2.67893 -3.33792 0
M  V30 7675 C 762.684 -2.499 -4.72709 0
M  V30 7676 C 763.984 -4.0988 -3.23722 0
M  V30 7677 H 765.678 -2.51175 -1.62947 0
M  V30 7678 H 763.224 -1.20884 -0.782504 0
M  V30 7679 H 765.177 -1.6111 -3.89386 0
M  V30 7680 H 763.901 -0.569627 -3.21594 0
M  V30 7681 H 762.56 -2.60495 -2.57949 0
M  V30 7682 H 762.208 -1.50715 -4.79889 0
M  V30 7683 H 761.908 -3.26091 -4.88813 0
M  V30 7684 H 763.432 -2.5859 -5.5314 0
M  V30 7685 H 764.846 -4.18503 -3.91826 0
M  V30 7686 H 763.243 -4.86487 -3.51355 0
M  V30 7687 H 764.313 -4.31553 -2.21111 0
M  V30 7688 N 765.656 0.84705 -1.32902 0
M  V30 7689 C 766.586 1.97166 -1.25091 0
M  V30 7690 C 767.567 1.69578 -0.133161 0
M  V30 7691 O 768.752 1.91519 -0.321591 0
M  V30 7692 C 765.882 3.33157 -0.981006 0
M  V30 7693 C 764.836 3.75119 -2.06082 0
M  V30 7694 C 764.162 5.08826 -1.64318 0
M  V30 7695 C 765.462 3.89774 -3.47669 0
M  V30 7696 H 767.156 2.03958 -2.19184 0
M  V30 7697 H 764.702 0.979907 -1.05517 0
M  V30 7698 H 766.655 4.11393 -0.912891 0
M  V30 7699 H 765.379 3.266 -0.00445559 0
M  V30 7700 H 764.038 2.9914 -2.11921 0
M  V30 7701 H 763.686 4.98732 -0.653876 0
M  V30 7702 H 763.386 5.37873 -2.36572 0
M  V30 7703 H 764.91 5.89546 -1.58958 0
M  V30 7704 H 766.324 4.58343 -3.44376 0
M  V30 7705 H 764.721 4.30248 -4.18338 0
M  V30 7706 H 765.791 2.92463 -3.86773 0
M  V30 7707 N 767.134 1.16236 1.06428 0
M  V30 7708 C 768.084 0.835994 2.12121 0
M  V30 7709 C 769.068 -0.183955 1.59845 0
M  V30 7710 O 770.26 0.0166741 1.76992 0
M  V30 7711 C 767.389 0.337333 3.41639 0
M  V30 7712 C 766.475 1.38798 4.00744 0
M  V30 7713 N 766.866 2.59799 4.3398 0
M  V30 7714 C 765.164 1.24292 4.28331 0
M  V30 7715 C 765.865 3.27213 4.80943 0
M  V30 7716 N 764.841 2.54594 4.80294 0
M  V30 7717 H 768.643 1.75615 2.35662 0
M  V30 7718 H 766.157 1.04921 1.23957 0
M  V30 7719 H 768.154 0.0851274 4.16813 0
M  V30 7720 H 766.814 -0.57677 3.19536 0
M  V30 7721 H 767.825 2.96867 4.24371 0
M  V30 7722 H 764.502 0.389464 4.15679 0
M  V30 7723 H 765.892 4.30492 5.15874 0
M  V30 7724 N 768.612 -1.24939 0.960631 0
M  V30 7725 C 769.522 -2.29374 0.492435 0
M  V30 7726 C 770.538 -1.68262 -0.443154 0
M  V30 7727 O 771.714 -1.98875 -0.31793 0
M  V30 7728 C 768.779 -3.46023 -0.216626 0
M  V30 7729 C 767.84 -4.22557 0.757915 0
M  V30 7730 C 767.073 -5.33636 0.0825969 0
M  V30 7731 O 767.296 -5.59084 -1.13054 0
M  V30 7732 O 766.23 -5.96939 0.771177 0
M  V30 7733 H 770.056 -2.71525 1.36044 0
M  V30 7734 H 767.641 -1.30499 0.72735 0
M  V30 7735 H 769.523 -4.16885 -0.615241 0
M  V30 7736 H 768.198 -3.05862 -1.05971 0
M  V30 7737 H 767.105 -3.54099 1.20685 0
M  V30 7738 H 768.438 -4.66516 1.5692 0
M  V30 7739 N 770.09 -0.729906 -1.39679 0
M  V30 7740 C 771.053 -0.0951668 -2.29002 0
M  V30 7741 C 772.053 0.672471 -1.46063 0
M  V30 7742 O 773.243 0.502245 -1.66803 0
M  V30 7743 C 770.375 0.874631 -3.29489 0
M  V30 7744 H 771.568 -0.882062 -2.86635 0
M  V30 7745 H 769.121 -0.495424 -1.4824 0
M  V30 7746 H 769.856 1.68807 -2.76902 0
M  V30 7747 H 769.641 0.326893 -3.90735 0
M  V30 7748 H 771.131 1.31548 -3.96339 0
M  V30 7749 N 771.568 1.50203 -0.477153 0
M  V30 7750 C 772.816 2.01959 0.0755889 0
M  V30 7751 C 773.137 1.3608 1.39668 0
M  V30 7752 O 772.407 0.508136 1.89195 0
M  V30 7753 H 770.987 0.74636 0.0309248 0
M  V30 7754 H 773.649 1.84473 -0.628959 0
M  V30 7755 H 772.745 3.11305 0.222683 0
M  V30 7756 N 773.046 0.209999 1.56195 0
M  V30 7757 C 774.009 -0.691232 2.18528 0
M  V30 7758 C 775.009 -1.13013 1.14388 0
M  V30 7759 O 776.199 -1.04081 1.39688 0
M  V30 7760 C 773.331 -1.94551 2.79934 0
M  V30 7761 H 774.524 -0.147953 2.99535 0
M  V30 7762 H 772.077 -0.0396243 1.5625 0
M  V30 7763 H 772.812 -2.53094 2.02766 0
M  V30 7764 H 772.597 -1.63938 3.56184 0
M  V30 7765 H 774.087 -2.58785 3.2775 0
M  V30 7766 N 774.524 -1.57472 -0.0634922 0
M  V30 7767 C 775.752 -1.91887 -0.773767 0
M  V30 7768 C 776.167 -0.806733 -1.70696 0
M  V30 7769 O 775.524 0.219383 -1.81177 0
M  V30 7770 C 775.575 -3.26092 -1.56034 0
M  V30 7771 O 775.296 -4.33029 -0.66464 0
M  V30 7772 C 776.797 -3.74573 -2.37087 0
M  V30 7773 H 774.017 -0.634074 -0.219525 0
M  V30 7774 H 776.561 -2.04476 -0.0312828 0
M  V30 7775 H 774.716 -3.15004 -2.25502 0
M  V30 7776 H 775.13 -5.10291 -1.21258 0
M  V30 7777 H 776.604 -4.71084 -2.87722 0
M  V30 7778 H 777.081 -3.04003 -3.16984 0
M  V30 7779 H 777.687 -3.88631 -1.72759 0
M  V30 7780 N 776.003 0.335068 -1.53997 0
M  V30 7781 C 776.95 1.41187 -1.82579 0
M  V30 7782 C 777.92 1.51897 -0.672061 0
M  V30 7783 O 779.105 1.673 -0.917346 0
M  V30 7784 C 776.245 2.77717 -2.0486 0
M  V30 7785 C 775.358 2.7573 -3.32561 0
M  V30 7786 C 774.493 4.04032 -3.44864 0
M  V30 7787 C 773.532 3.96308 -4.66483 0
M  V30 7788 N 772.669 5.16317 -4.75774 0
M  V30 7789 H 777.509 1.16113 -2.74448 0
M  V30 7790 H 775.046 0.562305 -1.35928 0
M  V30 7791 H 777.004 3.57071 -2.15768 0
M  V30 7792 H 775.634 3.01124 -1.16294 0
M  V30 7793 H 774.686 1.88432 -3.3045 0
M  V30 7794 H 775.998 2.65902 -4.22016 0
M  V30 7795 H 775.152 4.91814 -3.55251 0
M  V30 7796 H 773.891 4.16652 -2.53481 0
M  V30 7797 H 772.896 3.06911 -4.56164 0
M  V30 7798 H 774.121 3.85263 -5.5924 0
M  V30 7799 H 772.067 5.29464 -3.87303 0
M  V30 7800 H 771.984 5.08779 -5.59178 0
M  V30 7801 H 773.252 6.05846 -4.9048 0
M  V30 7802 N 777.481 1.45874 0.596531 0
M  V30 7803 C 778.444 1.54988 1.68853 0
M  V30 7804 C 779.444 0.428302 1.54991 0
M  V30 7805 O 780.634 0.692158 1.59859 0
M  V30 7806 C 777.766 1.457 3.08195 0
M  V30 7807 H 778.959 2.52294 1.62135 0
M  V30 7808 H 776.512 1.33479 0.813206 0
M  V30 7809 H 777.247 0.496204 3.20481 0
M  V30 7810 H 777.032 2.27061 3.19665 0
M  V30 7811 H 778.522 1.55133 3.87716 0
M  V30 7812 N 778.959 -0.83999 1.33349 0
M  V30 7813 C 780.187 -1.62728 1.27778 0
M  V30 7814 C 780.602 -1.88191 -0.151505 0
M  V30 7815 O 779.959 -1.46128 -1.09329 0
M  V30 7816 C 780.01 -2.97813 2.04913 0
M  V30 7817 O 779.731 -2.73469 3.42266 0
M  V30 7818 C 781.232 -3.92245 2.0654 0
M  V30 7819 H 778.452 -0.506374 0.440257 0
M  V30 7820 H 780.996 -1.04637 1.75703 0
M  V30 7821 H 779.151 -3.52509 1.60674 0
M  V30 7822 H 779.565 -3.59483 3.81932 0
M  V30 7823 H 781.039 -4.84249 2.64966 0
M  V30 7824 H 781.516 -4.26332 1.05537 0
M  V30 7825 H 782.122 -3.43487 2.50793 0
M  V30 7826 N 780.437 -1.16799 -1.0581 0
M  V30 7827 C 781.683 -0.953935 -1.78963 0
M  V30 7828 C 782.016 0.516638 -1.87202 0
M  V30 7829 O 781.291 1.38338 -1.36721 0
M  V30 7830 C 781.574 -1.58808 -3.23191 0
M  V30 7831 C 781.427 -3.13032 -3.23003 0
M  V30 7832 C 782.746 -1.2868 -4.20867 0
M  V30 7833 H 779.865 -0.347972 -0.64968 0
M  V30 7834 H 782.507 -1.44204 -1.23715 0
M  V30 7835 H 780.657 -1.17303 -3.70368 0
M  V30 7836 H 782.329 -3.63553 -2.83949 0
M  V30 7837 H 780.572 -3.46108 -2.61518 0
M  V30 7838 H 781.243 -3.52527 -4.24769 0
M  V30 7839 H 783.719 -1.6461 -3.82155 0
M  V30 7840 H 782.595 -1.75645 -5.20038 0
M  V30 7841 H 782.856 -0.206491 -4.41618 0
M  V30 7842 N 781.915 1.24427 -0.967243 0
M  V30 7843 C 783.161 1.92772 -0.629812 0
M  V30 7844 C 783.494 1.75436 0.832827 0
M  V30 7845 O 782.769 1.10716 1.59913 0
M  V30 7846 C 783.052 3.45798 -1.00477 0
M  V30 7847 C 782.905 3.72304 -2.52407 0
M  V30 7848 C 784.224 4.36787 -0.538999 0
M  V30 7849 H 781.343 0.700099 -0.230282 0
M  V30 7850 H 783.985 1.46805 -1.20616 0
M  V30 7851 H 782.135 3.8508 -0.514336 0
M  V30 7852 H 783.807 3.42584 -3.08924 0
M  V30 7853 H 782.05 3.17472 -2.95625 0
M  V30 7854 H 782.721 4.7937 -2.73693 0
M  V30 7855 H 785.197 4.04877 -0.959874 0
M  V30 7856 H 784.073 5.4259 -0.829926 0
M  V30 7857 H 784.334 4.38527 0.560923 0
M  V30 7858 N 783.393 0.737304 1.3929 0
M  V30 7859 C 784.618 0.295237 2.05288 0
M  V30 7860 C 785.043 -1.06235 1.55228 0
M  V30 7861 O 784.401 -1.67365 0.697043 0
M  V30 7862 C 784.449 0.309146 3.59272 0
M  V30 7863 O 783.553 -0.702437 4.06374 0
M  V30 7864 H 782.894 0.133762 0.650387 0
M  V30 7865 H 785.424 1.00387 1.78279 0
M  V30 7866 H 785.434 0.154336 4.07708 0
M  V30 7867 H 784.109 1.29974 3.95069 0
M  V30 7868 H 782.686 -0.513574 3.69346 0
M  V30 7869 N 784.871 -1.49948 0.485112 0
M  V30 7870 C 786.117 -2.02695 -0.0651022 0
M  V30 7871 C 786.45 -1.36534 -1.38102 0
M  V30 7872 O 785.725 -0.495677 -1.88078 0
M  V30 7873 C 786.008 -3.59337 -0.234285 0
M  V30 7874 C 785.861 -4.3605 1.10364 0
M  V30 7875 C 787.18 -4.28996 -0.982351 0
M  V30 7876 H 784.299 -0.736666 -0.0221856 0
M  V30 7877 H 786.941 -1.7913 0.633433 0
M  V30 7878 H 785.091 -3.79546 -0.829262 0
M  V30 7879 H 786.763 -4.27377 1.73627 0
M  V30 7880 H 785.006 -3.99236 1.69686 0
M  V30 7881 H 785.677 -5.43959 0.938743 0
M  V30 7882 H 788.153 -4.13346 -0.477904 0
M  V30 7883 H 787.029 -5.38379 -1.06955 0
M  V30 7884 H 787.29 -3.93135 -2.02231 0
M  V30 7885 N 786.349 -0.21828 -1.56081 0
M  V30 7886 C 787.574 0.422302 -2.03055 0
M  V30 7887 C 787.999 1.5279 -1.09713 0
M  V30 7888 O 787.357 1.81102 -0.0847187 0
M  V30 7889 C 787.405 0.934177 -3.48289 0
M  V30 7890 O 786.509 2.04574 -3.58083 0
M  V30 7891 H 785.85 0.0959764 -0.657027 0
M  V30 7892 H 788.38 -0.335958 -2.01823 0
M  V30 7893 H 788.39 1.24484 -3.88546 0
M  V30 7894 H 787.065 0.124963 -4.15712 0
M  V30 7895 H 785.642 1.74196 -3.29712 0
M  V30 7896 N 787.827 1.57504 0.0551401 0
M  V30 7897 C 788.777 2.0128 1.071 0
M  V30 7898 C 789.761 0.897592 1.33537 0
M  V30 7899 O 790.953 1.16151 1.33558 0
M  V30 7900 C 788.082 2.47414 2.37994 0
M  V30 7901 C 787.168 3.65703 2.14761 0
M  V30 7902 N 787.559 4.79323 1.61504 0
M  V30 7903 C 785.857 3.72574 2.45162 0
M  V30 7904 C 786.558 5.61089 1.53472 0
M  V30 7905 N 785.534 5.05426 2.00114 0
M  V30 7906 H 789.336 2.86558 0.652829 0
M  V30 7907 H 786.85 1.60274 0.26193 0
M  V30 7908 H 788.847 2.77023 3.11551 0
M  V30 7909 H 787.507 1.6353 2.80514 0
M  V30 7910 H 788.518 5.01284 1.30134 0
M  V30 7911 H 785.195 2.99439 2.90934 0
M  V30 7912 H 786.585 6.62328 1.13008 0
M  V30 7913 N 789.305 -0.326896 1.54172 0
M  V30 7914 C 790.554 -1.06274 1.71431 0
M  V30 7915 C 790.867 -1.89282 0.493123 0
M  V30 7916 O 792.073 -2.65933 0.54699 0
M  V30 7917 C 790.529 -1.93892 3.03206 0
M  V30 7918 C 790.137 -1.16011 4.32719 0
M  V30 7919 C 791.881 -2.67232 3.29829 0
M  V30 7920 C 789.788 -2.02755 5.55558 0
M  V30 7921 H 788.718 -0.400475 0.638855 0
M  V30 7922 H 791.369 -0.321184 1.80667 0
M  V30 7923 H 789.751 -2.71933 2.87869 0
M  V30 7924 H 790.925 -0.427643 4.58811 0
M  V30 7925 H 789.24 -0.54367 4.12836 0
M  V30 7926 H 791.837 -3.32434 4.18798 0
M  V30 7927 H 792.18 -3.34692 2.47562 0
M  V30 7928 H 792.713 -1.96255 3.46018 0
M  V30 7929 H 789.452 -1.3981 6.40417 0
M  V30 7930 H 788.972 -2.73745 5.33689 0
M  V30 7931 H 790.651 -2.61419 5.91835 0
M  V30 7932 N 790.784 -1.46188 -0.588786 0
M  V30 7933 C 792.014 -1.54519 -1.3714 0
M  V30 7934 C 792.422 -0.183075 -1.88312 0
M  V30 7935 O 791.765 0.828815 -1.6394 0
M  V30 7936 C 791.827 -2.48426 -2.59856 0
M  V30 7937 C 791.491 -3.94791 -2.30193 0
M  V30 7938 C 792.488 -4.84173 -1.894 0
M  V30 7939 C 790.173 -4.39872 -2.42525 0
M  V30 7940 C 792.167 -6.16647 -1.61325 0
M  V30 7941 C 789.854 -5.72381 -2.14063 0
M  V30 7942 C 790.852 -6.60589 -1.73527 0
M  V30 7943 O 790.54 -7.9064 -1.4541 0
M  V30 7944 H 790.272 -0.525264 -0.425527 0
M  V30 7945 H 792.826 -1.92242 -0.723344 0
M  V30 7946 H 791.056 -2.05709 -3.27446 0
M  V30 7947 H 792.745 -2.4723 -3.21919 0
M  V30 7948 H 793.511 -4.50603 -1.79393 0
M  V30 7949 H 789.39 -3.71444 -2.7304 0
M  V30 7950 H 792.934 -6.85454 -1.29611 0
M  V30 7951 H 788.831 -6.05501 -2.23693 0
M  V30 7952 H 789.599 -8.02847 -1.59306 0
M  V30 7953 N 792.262 0.832906 -1.33792 0
M  V30 7954 C 793.487 1.62568 -1.28788 0
M  V30 7955 C 793.912 1.87599 0.137246 0
M  V30 7956 O 793.27 1.44436 1.0958 0
M  V30 7957 C 793.318 2.9495 -2.07453 0
M  V30 7958 O 792.422 3.86546 -1.43722 0
M  V30 7959 H 791.763 0.494809 -0.442787 0
M  V30 7960 H 794.293 1.03578 -1.76445 0
M  V30 7961 H 794.303 3.44599 -2.1844 0
M  V30 7962 H 792.978 2.76055 -3.11073 0
M  V30 7963 H 791.555 3.45044 -1.41417 0
M  V30 7964 N 793.74 1.17359 1.05189 0
M  V30 7965 C 794.965 0.98709 1.82404 0
M  V30 7966 C 795.39 -0.459848 1.82392 0
M  V30 7967 O 794.748 -1.32924 1.23292 0
M  V30 7968 C 794.796 1.53276 3.26403 0
M  V30 7969 O 793.9 0.746541 4.05587 0
M  V30 7970 H 793.241 0.35047 0.563974 0
M  V30 7971 H 795.771 1.55856 1.32552 0
M  V30 7972 H 795.781 1.55504 3.77203 0
M  V30 7973 H 794.456 2.58603 3.25726 0
M  V30 7974 H 793.033 0.795671 3.64312 0
M  V30 7975 N 795.218 -1.23913 0.973828 0
M  V30 7976 C 796.15 -2.24397 0.466763 0
M  V30 7977 C 797.163 -1.57078 -0.427828 0
M  V30 7978 O 798.352 -1.76973 -0.233019 0
M  V30 7979 C 795.452 -3.37141 -0.344798 0
M  V30 7980 C 794.625 -4.34037 0.541349 0
M  V30 7981 C 793.684 -5.2576 -0.215243 0
M  V30 7982 O 792.71 -5.67842 0.39291 0
M  V30 7983 N 793.912 -5.60702 -1.5031 0
M  V30 7984 H 796.677 -2.68536 1.33074 0
M  V30 7985 H 794.238 -1.38017 0.846346 0
M  V30 7986 H 796.23 -3.95476 -0.859133 0
M  V30 7987 H 794.8 -2.92239 -1.10974 0
M  V30 7988 H 794.02 -3.74302 1.23659 0
M  V30 7989 H 795.308 -4.95738 1.1455 0
M  V30 7990 H 794.706 -5.28451 -2.01882 0
M  V30 7991 H 793.263 -6.21538 -1.96301 0
M  V30 7992 N 796.696 -0.74468 -1.38897 0
M  V30 7993 C 797.944 -0.296298 -1.99916 0
M  V30 7994 C 798.265 1.12325 -1.59399 0
M  V30 7995 O 797.535 1.76658 -0.846689 0
M  V30 7996 H 796.115 -0.106561 -0.73936 0
M  V30 7997 H 798.777 -0.956793 -1.69798 0
M  V30 7998 H 797.873 -0.352356 -3.10105 0
M  V30 7999 N 798.174 1.49689 -0.493057 0
M  V30 8000 C 799.137 2.27502 0.278485 0
M  V30 8001 C 800.137 1.33184 0.901037 0
M  V30 8002 O 801.327 1.56415 0.766801 0
M  V30 8003 C 798.459 3.10881 1.39878 0
M  V30 8004 H 799.652 2.97163 -0.404219 0
M  V30 8005 H 797.205 1.54324 -0.247774 0
M  V30 8006 H 797.94 2.45767 2.11587 0
M  V30 8007 H 797.725 3.80219 0.957924 0
M  V30 8008 H 799.215 3.69673 1.94247 0
M  V30 8009 N 799.652 0.226554 1.55963 0
M  V30 8010 C 800.898 -0.404387 1.98727 0
M  V30 8011 C 801.231 -1.59059 1.11418 0
M  V30 8012 O 800.506 -1.93729 0.172971 0
M  V30 8013 C 800.789 -0.834081 3.50307 0
M  V30 8014 C 800.642 0.356104 4.48388 0
M  V30 8015 C 801.961 -1.68845 4.06423 0
M  V30 8016 H 799.08 -0.145515 0.722492 0
M  V30 8017 H 801.722 0.323791 1.87221 0
M  V30 8018 H 799.872 -1.45454 3.60244 0
M  V30 8019 H 801.544 0.99432 4.50456 0
M  V30 8020 H 799.787 1.0027 4.22053 0
M  V30 8021 H 800.458 0.0124333 5.51999 0
M  V30 8022 H 802.934 -1.16489 3.99461 0
M  V30 8023 H 801.81 -1.958 5.1279 0
M  V30 8024 H 802.071 -2.65347 3.53615 0
M  V30 8025 N 801.13 -1.57531 -0.0467866 0
M  V30 8026 C 802.376 -1.8873 -0.742218 0
M  V30 8027 C 802.709 -0.822084 -1.75941 0
M  V30 8028 O 801.984 0.164922 -1.938 0
M  V30 8029 C 802.267 -3.30586 -1.42776 0
M  V30 8030 C 802.12 -4.47785 -0.425285 0
M  V30 8031 C 803.439 -3.71068 -2.36636 0
M  V30 8032 H 800.558 -0.686406 -0.268359 0
M  V30 8033 H 803.2 -1.89999 -0.00511341 0
M  V30 8034 H 801.35 -3.29634 -2.05605 0
M  V30 8035 H 803.022 -4.60867 0.199721 0
M  V30 8036 H 801.265 -4.33037 0.25713 0
M  V30 8037 H 801.936 -5.43884 -0.943086 0
M  V30 8038 H 804.412 -3.73273 -1.83866 0
M  V30 8039 H 803.288 -4.71165 -2.81593 0
M  V30 8040 H 803.549 -3.02355 -3.22542 0
M  V30 8041 N 802.608 0.318715 -1.54344 0
M  V30 8042 C 803.538 1.39751 -1.87061 0
M  V30 8043 C 804.519 1.53741 -0.727848 0
M  V30 8044 O 805.704 1.67541 -0.982016 0
M  V30 8045 C 802.834 2.76446 -2.10226 0
M  V30 8046 C 801.788 2.77239 -3.26071 0
M  V30 8047 C 801.114 4.17056 -3.34617 0
M  V30 8048 C 802.414 2.40555 -4.63606 0
M  V30 8049 H 804.108 1.12619 -2.77412 0
M  V30 8050 H 801.654 0.540318 -1.33479 0
M  V30 8051 H 803.607 3.51985 -2.31699 0
M  V30 8052 H 802.331 3.05066 -1.16629 0
M  V30 8053 H 800.99 2.04155 -3.04493 0
M  V30 8054 H 800.638 4.42824 -2.3857 0
M  V30 8055 H 800.338 4.18492 -4.12478 0
M  V30 8056 H 801.862 4.94401 -3.5833 0
M  V30 8057 H 803.276 3.05808 -4.84927 0
M  V30 8058 H 801.673 2.53234 -5.44052 0
M  V30 8059 H 802.743 1.35698 -4.65526 0
M  V30 8060 N 804.086 1.46499 0.581025 0
M  V30 8061 C 805.363 1.42372 1.34125 0
M  V30 8062 C 805.743 0.108073 2.10823 0
M  V30 8063 O 805.091 -0.910366 2.09582 0
M  V30 8064 C 805.301 2.65445 2.26583 0
M  V30 8065 C 806.649 3.11664 2.88359 0
M  V30 8066 O 807.673 2.66006 2.36896 0
M  V30 8067 O 806.532 3.90974 3.81839 0
M  V30 8068 H 803.626 0.566262 0.602724 0
M  V30 8069 H 806.172 1.58667 0.601903 0
M  V30 8070 H 804.944 3.52756 1.69348 0
M  V30 8071 H 804.567 2.51618 3.07854 0
M  V30 8072 N 805.565 -0.825799 1.34232 0
M  V30 8073 C 806.811 -1.58419 1.26614 0
M  V30 8074 C 807.144 -1.93503 -0.164341 0
M  V30 8075 O 806.419 -1.59785 -1.109 0
M  V30 8076 C 806.702 -2.8856 2.15418 0
M  V30 8077 C 806.555 -2.60075 3.66989 0
M  V30 8078 C 807.874 -3.90107 2.03726 0
M  V30 8079 H 804.993 -0.574794 0.461282 0
M  V30 8080 H 807.635 -0.951519 1.64457 0
M  V30 8081 H 805.785 -3.42553 1.83275 0
M  V30 8082 H 807.457 -2.12414 4.09485 0
M  V30 8083 H 805.7 -1.93565 3.88221 0
M  V30 8084 H 806.371 -3.52866 4.24488 0
M  V30 8085 H 808.847 -3.45459 2.31942 0
M  V30 8086 H 807.723 -4.78976 2.68092 0
M  V30 8087 H 807.984 -4.30329 1.01337 0
M  V30 8088 N 807.043 -1.17915 -1.04565 0
M  V30 8089 C 808.006 -0.903787 -2.10628 0
M  V30 8090 C 809.006 0.10873 -1.60432 0
M  V30 8091 O 810.196 -0.124152 -1.73757 0
M  V30 8092 C 807.328 -0.355017 -3.39046 0
M  V30 8093 H 808.521 -1.84425 -2.3649 0
M  V30 8094 H 806.074 -0.990477 -1.2091 0
M  V30 8095 H 806.809 0.592297 -3.18845 0
M  V30 8096 H 806.594 -1.08484 -3.76794 0
M  V30 8097 H 808.084 -0.180891 -4.17208 0
M  V30 8098 N 808.521 1.23394 -0.980386 0
M  V30 8099 C 809.761 1.93543 -0.657288 0
M  V30 8100 C 810.125 1.74791 0.794477 0
M  V30 8101 O 811.326 2.39089 1.2284 0
M  V30 8102 C 809.597 3.42025 -1.03701 0
M  V30 8103 S 811.156 4.30871 -0.830379 0
M  V30 8104 H 807.974 0.669012 -0.240717 0
M  V30 8105 H 810.576 1.49478 -1.26002 0
M  V30 8106 H 809.28 3.53183 -2.09022 0
M  V30 8107 H 808.811 3.91091 -0.425559 0
M  V30 8108 H 810.826 4.95377 0.285719 0
M  V30 8109 N 809.999 0.752036 1.385 0
M  V30 8110 C 811.246 0.307503 2.00152 0
M  V30 8111 C 811.574 -1.11033 1.59693 0
M  V30 8112 O 810.829 -1.77455 0.825125 0
M  V30 8113 C 811.128 0.376155 3.55415 0
M  V30 8114 C 810.794 1.74942 4.15579 0
M  V30 8115 C 809.456 2.12525 4.31725 0
M  V30 8116 C 811.808 2.65031 4.48785 0
M  V30 8117 C 809.136 3.39671 4.78373 0
M  V30 8118 C 811.488 3.91567 4.96848 0
M  V30 8119 C 810.152 4.2922 5.11201 0
M  V30 8120 H 809.422 0.112523 0.732407 0
M  V30 8121 H 812.069 0.962213 1.65571 0
M  V30 8122 H 810.374 -0.362121 3.90123 0
M  V30 8123 H 812.071 0.0138065 4.00998 0
M  V30 8124 H 808.661 1.44726 4.03426 0
M  V30 8125 H 812.845 2.3726 4.35914 0
M  V30 8126 H 808.101 3.68765 4.8767 0
M  V30 8127 H 812.275 4.61517 5.21512 0
M  V30 8128 H 809.902 5.27805 5.47107 0
M  V30 8129 N 811.477 -1.49425 0.500989 0
M  V30 8130 C 812.44 -2.27646 -0.266416 0
M  V30 8131 C 813.44 -1.3366 -0.893961 0
M  V30 8132 O 814.63 -1.5682 -0.758495 0
M  V30 8133 C 811.762 -3.11618 -1.38227 0
M  V30 8134 H 812.955 -2.96945 0.419973 0
M  V30 8135 H 810.508 -1.5419 0.255954 0
M  V30 8136 H 811.243 -2.46885 -2.10281 0
M  V30 8137 H 811.028 -3.80721 -0.937746 0
M  V30 8138 H 812.518 -3.70698 -1.92283 0
M  V30 8139 N 812.955 -0.234822 -1.55841 0
M  V30 8140 C 813.865 0.680828 -2.24504 0
M  V30 8141 C 814.881 1.20306 -1.25708 0
M  V30 8142 O 816.057 1.24188 -1.58554 0
M  V30 8143 C 813.122 1.86636 -2.92178 0
M  V30 8144 C 812.183 1.3848 -4.06352 0
M  V30 8145 C 811.416 2.51382 -4.70789 0
M  V30 8146 O 811.639 3.69831 -4.34259 0
M  V30 8147 O 810.573 2.21828 -5.59532 0
M  V30 8148 H 814.399 0.12583 -3.03439 0
M  V30 8149 H 811.984 -0.00381817 -1.494 0
M  V30 8150 H 813.866 2.55845 -3.34845 0
M  V30 8151 H 812.541 2.40921 -2.16192 0
M  V30 8152 H 811.448 0.660341 -3.68226 0
M  V30 8153 H 812.781 0.888177 -4.8412 0
M  V30 8154 N 814.433 1.57553 0.0384317 0
M  V30 8155 C 815.396 2.04927 1.02653 0
M  V30 8156 C 816.396 0.951768 1.29607 0
M  V30 8157 O 817.586 1.21568 1.24768 0
M  V30 8158 C 814.718 2.45828 2.36181 0
M  V30 8159 H 815.911 2.93474 0.617508 0
M  V30 8160 H 813.464 1.53679 0.285031 0
M  V30 8161 H 814.199 1.60408 2.8185 0
M  V30 8162 H 813.984 3.25945 2.1795 0
M  V30 8163 H 815.474 2.82939 3.0714 0
M  V30 8164 N 815.911 -0.310526 1.54511 0
M  V30 8165 C 816.821 -1.4054 1.87844 0
M  V30 8166 C 817.837 -1.55954 0.771635 0
M  V30 8167 O 819.013 -1.70801 1.06719 0
M  V30 8168 C 816.078 -2.75063 2.11048 0
M  V30 8169 C 815.139 -2.68715 3.348 0
M  V30 8170 C 814.372 -3.96821 3.56887 0
M  V30 8171 O 814.595 -4.95721 2.82165 0
M  V30 8172 O 813.529 -3.99291 4.50389 0
M  V30 8173 H 817.355 -1.15275 2.80972 0
M  V30 8174 H 814.94 -0.505732 1.4058 0
M  V30 8175 H 816.822 -3.54671 2.27566 0
M  V30 8176 H 815.497 -3.00191 1.21108 0
M  V30 8177 H 814.404 -1.87611 3.23655 0
M  V30 8178 H 815.737 -2.4854 4.2484 0
M  V30 8179 N 817.389 -1.46805 -0.573248 0
M  V30 8180 C 818.805 -1.31969 -0.897577 0
M  V30 8181 C 819.005 -0.298171 -1.99282 0
M  V30 8182 O 818.061 0.295953 -2.5076 0
M  V30 8183 C 819.374 -2.70859 -1.30598 0
M  V30 8184 C 820.922 -2.79022 -1.4183 0
M  V30 8185 C 821.397 -4.18516 -1.86033 0
M  V30 8186 N 822.888 -4.2098 -1.9321 0
M  V30 8187 C 823.623 -5.25814 -2.28707 0
M  V30 8188 N 823.119 -6.40968 -2.6293 0
M  V30 8189 N 824.912 -5.13184 -2.29343 0
M  V30 8190 H 817.063 -2.11869 0.150094 0
M  V30 8191 H 819.326 -0.947989 0.00447895 0
M  V30 8192 H 819.032 -3.46965 -0.575161 0
M  V30 8193 H 818.906 -3.01585 -2.26554 0
M  V30 8194 H 821.293 -2.03198 -2.13996 0
M  V30 8195 H 821.374 -2.51969 -0.441024 0
M  V30 8196 H 821.018 -4.94839 -1.14442 0
M  V30 8197 H 820.948 -4.42982 -2.84735 0
M  V30 8198 H 823.439 -3.37898 -1.69214 0
M  V30 8199 H 823.752 -7.16729 -2.88996 0
M  V30 8200 H 822.097 -6.44314 -2.60547 0
M  V30 8201 H 825.288 -4.22255 -2.02036 0
M  V30 8202 H 825.461 -5.94996 -2.56679 0
M  V30 8203 N 818.867 0.818669 -1.34668 0
M  V30 8204 C 819.797 1.94468 -1.29245 0
M  V30 8205 C 820.778 1.69257 -0.169101 0
M  V30 8206 O 821.963 1.90794 -0.362143 0
M  V30 8207 C 819.093 3.31001 -1.05145 0
M  V30 8208 C 818.047 3.70663 -2.13992 0
M  V30 8209 C 817.373 5.05226 -1.75074 0
M  V30 8210 C 818.673 3.82312 -3.55858 0
M  V30 8211 H 820.367 1.99263 -2.2346 0
M  V30 8212 H 817.913 0.957304 -1.07572 0
M  V30 8213 H 819.866 4.09364 -0.999949 0
M  V30 8214 H 818.59 3.26517 -0.0737312 0
M  V30 8215 H 817.249 2.94578 -2.18219 0
M  V30 8216 H 816.897 4.97233 -0.759518 0
M  V30 8217 H 816.597 5.32734 -2.47928 0
M  V30 8218 H 818.121 5.86042 -1.71427 0
M  V30 8219 H 819.535 4.50935 -3.5402 0
M  V30 8220 H 817.932 4.21278 -4.2737 0
M  V30 8221 H 819.002 2.84193 -3.9289 0
M  V30 8222 N 820.346 1.18468 1.03938 0
M  V30 8223 C 821.576 1.0043 1.80547 0
M  V30 8224 C 821.984 -0.450407 1.83761 0
M  V30 8225 O 821.327 -1.32463 1.27276 0
M  V30 8226 C 821.389 1.48437 3.27424 0
M  V30 8227 C 821.053 2.96372 3.47869 0
M  V30 8228 C 822.05 3.94217 3.38953 0
M  V30 8229 C 819.735 3.34831 3.74424 0
M  V30 8230 C 821.729 5.28517 3.56298 0
M  V30 8231 C 819.416 4.69294 3.91416 0
M  V30 8232 C 820.414 5.65946 3.82354 0
M  V30 8233 O 820.102 6.97974 3.98858 0
M  V30 8234 H 819.834 0.354853 0.575374 0
M  V30 8235 H 822.388 1.57473 1.31876 0
M  V30 8236 H 820.618 0.857601 3.7707 0
M  V30 8237 H 822.307 1.2677 3.85596 0
M  V30 8238 H 823.073 3.6585 3.184 0
M  V30 8239 H 818.952 2.60161 3.80575 0
M  V30 8240 H 822.496 6.03943 3.49141 0
M  V30 8241 H 818.393 4.97361 4.11463 0
M  V30 8242 H 819.161 7.04895 4.1601 0
M  V30 8243 N 821.824 -1.22873 0.986916 0
M  V30 8244 C 822.757 -2.23154 0.477245 0
M  V30 8245 C 823.735 -1.55981 -0.459206 0
M  V30 8246 O 824.919 -1.84503 -0.386141 0
M  V30 8247 C 822.046 -3.37289 -0.308838 0
M  V30 8248 C 821.092 -4.22637 0.572717 0
M  V30 8249 S 821.925 -4.95758 2.02446 0
M  V30 8250 C 823.081 -6.13338 1.2477 0
M  V30 8251 H 823.314 -2.6604 1.32702 0
M  V30 8252 H 820.847 -1.32455 0.793415 0
M  V30 8253 H 822.805 -4.03472 -0.756351 0
M  V30 8254 H 821.466 -2.92922 -1.13381 0
M  V30 8255 H 820.659 -5.0399 -0.0318024 0
M  V30 8256 H 820.261 -3.61555 0.956746 0
M  V30 8257 H 822.553 -6.7556 0.51231 0
M  V30 8258 H 823.496 -6.78189 2.03629 0
M  V30 8259 H 823.904 -5.59311 0.763622 0
M  V30 8260 N 823.302 -0.75937 -1.38099 0
M  V30 8261 C 824.232 -0.151077 -2.33011 0
M  V30 8262 C 825.213 0.697099 -1.5516 0
M  V30 8263 O 826.398 0.637101 -1.83452 0
M  V30 8264 C 823.528 0.738423 -3.39359 0
M  V30 8265 C 822.482 -0.0074741 -4.27999 0
M  V30 8266 C 821.808 1.00066 -5.25253 0
M  V30 8267 C 823.108 -1.17926 -5.08813 0
M  V30 8268 H 824.802 -0.943933 -2.84131 0
M  V30 8269 H 822.348 -0.455362 -1.36611 0
M  V30 8270 H 824.301 1.17369 -4.04725 0
M  V30 8271 H 823.025 1.56366 -2.86735 0
M  V30 8272 H 821.684 -0.423379 -3.64147 0
M  V30 8273 H 821.332 1.82012 -4.68914 0
M  V30 8274 H 821.032 0.506199 -5.85416 0
M  V30 8275 H 822.556 1.43512 -5.93495 0
M  V30 8276 H 823.97 -0.821262 -5.67387 0
M  V30 8277 H 822.367 -1.60497 -5.78239 0
M  V30 8278 H 823.437 -1.98938 -4.42212 0
M  V30 8279 N 824.78 1.49157 -0.508906 0
M  V30 8280 C 825.71 2.32109 0.254469 0
M  V30 8281 C 826.691 1.40754 0.955111 0
M  V30 8282 O 827.876 1.69658 0.944983 0
M  V30 8283 C 825.006 3.21458 1.3146 0
M  V30 8284 C 823.96 4.2167 0.733368 0
M  V30 8285 C 823.286 5.00009 1.8946 0
M  V30 8286 C 824.586 5.21544 -0.280875 0
M  V30 8287 H 826.28 2.9618 -0.43795 0
M  V30 8288 H 823.826 1.4243 -0.212062 0
M  V30 8289 H 825.779 3.78305 1.85643 0
M  V30 8290 H 824.503 2.55346 2.03632 0
M  V30 8291 H 823.162 3.65979 0.213231 0
M  V30 8292 H 822.81 4.30338 2.60419 0
M  V30 8293 H 822.51 5.67821 1.51173 0
M  V30 8294 H 824.034 5.59702 2.44061 0
M  V30 8295 H 825.448 5.73039 0.173095 0
M  V30 8296 H 823.845 5.97291 -0.580006 0
M  V30 8297 H 824.915 4.69969 -1.19404 0
M  V30 8298 N 826.258 0.243083 1.55714 0
M  V30 8299 C 827.205 -0.658078 2.21219 0
M  V30 8300 C 828.175 -1.1742 1.17481 0
M  V30 8301 O 829.36 -1.22937 1.45915 0
M  V30 8302 C 826.5 -1.85104 2.91257 0
M  V30 8303 C 825.613 -1.3718 4.09641 0
M  V30 8304 C 824.748 -2.52403 4.67404 0
M  V30 8305 C 823.787 -2.01321 5.78045 0
M  V30 8306 N 822.924 -3.09896 6.30007 0
M  V30 8307 H 827.764 -0.0927854 2.97856 0
M  V30 8308 H 825.301 -0.0340375 1.47061 0
M  V30 8309 H 827.259 -2.55179 3.3006 0
M  V30 8310 H 825.889 -2.38887 2.17101 0
M  V30 8311 H 824.941 -0.565232 3.76177 0
M  V30 8312 H 826.253 -0.957409 4.89525 0
M  V30 8313 H 825.407 -3.30525 5.08761 0
M  V30 8314 H 824.146 -2.97142 3.86728 0
M  V30 8315 H 823.151 -1.21667 5.36169 0
M  V30 8316 H 824.376 -1.57556 6.6057 0
M  V30 8317 H 822.322 -3.54077 5.52237 0
M  V30 8318 H 822.239 -2.72776 7.05074 0
M  V30 8319 H 823.507 -3.8809 6.76023 0
M  V30 8320 N 827.736 -1.57571 -0.0300757 0
M  V30 8321 C 829.013 -1.80381 -0.756447 0
M  V30 8322 C 829.393 -0.840906 -1.93628 0
M  V30 8323 O 828.741 0.117143 -2.282 0
M  V30 8324 C 828.951 -3.2807 -1.19043 0
M  V30 8325 C 830.299 -3.93025 -1.60676 0
M  V30 8326 O 831.323 -3.32213 -1.28503 0
M  V30 8327 O 830.182 -5.00092 -2.20386 0
M  V30 8328 H 827.276 -0.741737 -0.365725 0
M  V30 8329 H 829.822 -1.69699 -0.00693177 0
M  V30 8330 H 828.594 -3.89748 -0.348128 0
M  V30 8331 H 828.217 -3.43637 -1.99999 0
M  V30 8332 N 829.214 0.302327 -1.54673 0
M  V30 8333 C 830.147 1.39738 -1.80412 0
M  V30 8334 C 831.125 1.48813 -0.655241 0
M  V30 8335 O 832.309 1.65895 -0.89505 0
M  V30 8336 C 829.436 2.7766 -1.93966 0
M  V30 8337 C 828.482 2.86014 -3.16383 0
M  V30 8338 S 829.315 2.48246 -4.74483 0
M  V30 8339 C 830.471 3.88198 -4.90971 0
M  V30 8340 H 830.704 1.17696 -2.73011 0
M  V30 8341 H 828.237 0.500364 -1.46068 0
M  V30 8342 H 830.195 3.571 -2.0246 0
M  V30 8343 H 828.856 2.96971 -1.02307 0
M  V30 8344 H 828.049 3.87174 -3.22664 0
M  V30 8345 H 827.651 2.14568 -3.06328 0
M  V30 8346 H 829.943 4.83181 -4.74913 0
M  V30 8347 H 830.886 3.86887 -5.93063 0
M  V30 8348 H 831.294 3.78139 -4.19131 0
M  V30 8349 N 830.692 1.47107 0.565454 0
M  V30 8350 C 831.655 1.58535 1.65527 0
M  V30 8351 C 832.655 0.461081 1.54048 0
M  V30 8352 O 833.845 0.725911 1.58355 0
M  V30 8353 C 830.977 1.52204 3.05036 0
M  V30 8354 H 832.17 2.55676 1.56747 0
M  V30 8355 H 829.723 1.35174 0.78471 0
M  V30 8356 H 830.458 0.564071 3.19357 0
M  V30 8357 H 830.243 2.3379 3.14777 0
M  V30 8358 H 831.733 1.63322 3.84338 0
M  V30 8359 N 832.17 -0.811516 1.35101 0
M  V30 8360 C 833.416 -1.57068 1.28287 0
M  V30 8361 C 833.749 -1.93667 -0.143808 0
M  V30 8362 O 833.024 -1.60953 -1.09199 0
M  V30 8363 C 833.307 -2.86259 2.18466 0
M  V30 8364 C 833.16 -2.56168 3.69727 0
M  V30 8365 C 834.479 -3.87924 2.07852 0
M  V30 8366 H 831.598 -0.569869 0.467353 0
M  V30 8367 H 834.24 -0.934023 1.65457 0
M  V30 8368 H 832.39 -3.4059 1.86898 0
M  V30 8369 H 834.062 -2.08059 4.11715 0
M  V30 8370 H 832.305 -1.89436 3.90252 0
M  V30 8371 H 832.976 -3.48344 4.28206 0
M  V30 8372 H 835.452 -3.4298 2.35593 0
M  V30 8373 H 834.328 -4.76106 2.73157 0
M  V30 8374 H 834.589 -4.2923 1.05896 0
M  V30 8375 N 833.648 -1.19017 -1.03309 0
M  V30 8376 C 835.064 -0.941483 -1.28873 0
M  V30 8377 C 835.264 0.388587 -1.97718 0
M  V30 8378 O 834.32 1.12111 -2.26246 0
M  V30 8379 C 835.633 -2.11249 -2.13996 0
M  V30 8380 C 837.181 -2.15164 -2.27318 0
M  V30 8381 C 837.656 -3.31704 -3.15811 0
M  V30 8382 N 839.147 -3.31613 -3.23399 0
M  V30 8383 C 839.882 -4.18431 -3.9205 0
M  V30 8384 N 839.378 -5.15397 -4.62966 0
M  V30 8385 N 841.171 -4.06321 -3.88406 0
M  V30 8386 H 833.322 -2.04599 -0.570343 0
M  V30 8387 H 835.585 -0.894406 -0.314232 0
M  V30 8388 H 835.291 -3.07482 -1.70727 0
M  V30 8389 H 835.165 -2.07955 -3.14697 0
M  V30 8390 H 837.552 -1.19504 -2.6982 0
M  V30 8391 H 837.633 -2.22513 -1.26182 0
M  V30 8392 H 837.277 -4.2764 -2.74019 0
M  V30 8393 H 837.207 -3.21592 -4.16997 0
M  V30 8394 H 839.698 -2.6142 -2.72888 0
M  V30 8395 H 840.011 -5.78 -5.12968 0
M  V30 8396 H 838.356 -5.19349 -4.61846 0
M  V30 8397 H 841.547 -3.29849 -3.3214 0
M  V30 8398 H 841.72 -4.74196 -4.41635 0
M  V30 8399 N 835.127 1.22348 -0.993418 0
M  V30 8400 C 836.375 1.90733 -0.668246 0
M  V30 8401 C 836.696 1.77732 0.802261 0
M  V30 8402 O 835.966 1.16486 1.57505 0
M  V30 8403 H 834.546 0.705966 -0.244174 0
M  V30 8404 H 837.208 1.48691 -1.26004 0
M  V30 8405 H 836.304 2.97883 -0.931239 0
M  V30 8406 N 836.605 0.766683 1.37694 0
M  V30 8407 C 838.021 0.445739 1.53249 0
M  V30 8408 C 838.221 -1.03935 1.72626 0
M  V30 8409 O 837.277 -1.82525 1.74473 0
M  V30 8410 C 838.59 1.2564 2.73194 0
M  V30 8411 C 840.138 1.24779 2.87053 0
M  V30 8412 C 840.613 2.04169 4.09974 0
M  V30 8413 N 842.104 2.01497 4.17077 0
M  V30 8414 C 842.839 2.5971 5.11212 0
M  V30 8415 N 842.335 3.26691 6.10938 0
M  V30 8416 N 844.128 2.49568 5.03659 0
M  V30 8417 H 836.279 1.72899 1.23368 0
M  V30 8418 H 838.542 0.733701 0.600322 0
M  V30 8419 H 838.248 2.30859 2.65324 0
M  V30 8420 H 838.122 0.882133 3.6674 0
M  V30 8421 H 840.509 0.203603 2.94397 0
M  V30 8422 H 840.59 1.66166 1.9448 0
M  V30 8423 H 840.234 3.08606 4.03392 0
M  V30 8424 H 840.164 1.60167 5.01651 0
M  V30 8425 H 842.655 1.52728 3.45662 0
M  V30 8426 H 842.968 3.68497 6.79286 0
M  V30 8427 H 841.313 3.30789 6.11231 0
M  V30 8428 H 844.504 1.96859 4.24693 0
M  V30 8429 H 844.677 2.95231 5.76839 0
M  V30 8430 N 838.083 -1.48885 0.516809 0
M  V30 8431 C 839.013 -2.32241 -0.242157 0
M  V30 8432 C 839.994 -1.41258 -0.947633 0
M  V30 8433 O 841.179 -1.70156 -0.935973 0
M  V30 8434 C 838.309 -3.22151 -1.29754 0
M  V30 8435 C 837.263 -4.22053 -0.710995 0
M  V30 8436 C 836.589 -5.01007 -1.86806 0
M  V30 8437 C 837.889 -5.21388 0.30853 0
M  V30 8438 H 839.583 -2.95943 0.453651 0
M  V30 8439 H 837.129 -1.42316 0.219612 0
M  V30 8440 H 839.082 -3.79284 -1.83634 0
M  V30 8441 H 837.806 -2.56423 -2.02274 0
M  V30 8442 H 836.465 -3.66087 -0.193819 0
M  V30 8443 H 836.113 -4.31713 -2.58133 0
M  V30 8444 H 835.813 -5.68615 -1.48159 0
M  V30 8445 H 837.337 -5.60989 -2.4109 0
M  V30 8446 H 838.751 -5.73122 -0.142703 0
M  V30 8447 H 837.148 -5.96975 0.611673 0
M  V30 8448 H 838.218 -4.69329 1.21894 0
M  V30 8449 N 839.561 -0.251338 -1.55583 0
M  V30 8450 C 840.491 0.640437 -2.24545 0
M  V30 8451 C 841.472 1.17781 -1.22726 0
M  V30 8452 O 842.657 1.21633 -1.5139 0
M  V30 8453 C 839.787 1.8355 -2.94834 0
M  V30 8454 C 838.741 1.4307 -4.03379 0
M  V30 8455 C 838.067 2.70695 -4.61116 0
M  V30 8456 C 839.367 0.59848 -5.1886 0
M  V30 8457 H 841.061 0.0653772 -2.99329 0
M  V30 8458 H 838.607 0.0300042 -1.43969 0
M  V30 8459 H 840.56 2.46505 -3.4178 0
M  V30 8460 H 839.284 2.43601 -2.17546 0
M  V30 8461 H 837.943 0.824474 -3.57209 0
M  V30 8462 H 837.591 3.28954 -3.80524 0
M  V30 8463 H 837.291 2.44332 -5.34393 0
M  V30 8464 H 838.815 3.34541 -5.10798 0
M  V30 8465 H 840.229 1.13244 -5.62004 0
M  V30 8466 H 838.626 0.430728 -5.98552 0
M  V30 8467 H 839.696 -0.38829 -4.83343 0
M  V30 8468 N 841.039 1.57585 0.0217189 0
M  V30 8469 C 842.267 1.93871 0.722619 0
M  V30 8470 C 842.682 0.851706 1.68498 0
M  V30 8471 O 842.039 -0.17127 1.81695 0
M  V30 8472 C 842.09 3.30114 1.47333 0
M  V30 8473 O 841.811 4.34639 0.549597 0
M  V30 8474 C 843.312 3.80727 2.27072 0
M  V30 8475 H 840.532 0.639671 0.202637 0
M  V30 8476 H 843.076 2.04487 -0.0229414 0
M  V30 8477 H 841.231 3.20872 2.17071 0
M  V30 8478 H 841.645 5.13326 1.07686 0
M  V30 8479 H 843.119 4.78547 2.75131 0
M  V30 8480 H 843.596 3.12301 3.08812 0
M  V30 8481 H 844.202 3.93075 1.62395 0
M  V30 8482 N 842.517 -0.29412 1.54831 0
M  V30 8483 C 843.48 -1.3461 1.85507 0
M  V30 8484 C 844.48 -1.43359 0.728343 0
M  V30 8485 O 845.67 -1.42875 0.996609 0
M  V30 8486 C 842.802 -2.73012 2.0415 0
M  V30 8487 H 843.995 -1.08651 2.79526 0
M  V30 8488 H 841.548 -0.531138 1.46999 0
M  V30 8489 H 842.283 -3.04183 1.12441 0
M  V30 8490 H 842.068 -2.68051 2.86166 0
M  V30 8491 H 843.558 -3.49061 2.29229 0
M  V30 8492 N 843.995 -1.47404 -0.557645 0
M  V30 8493 C 844.925 -1.62736 -1.67449 0
M  V30 8494 C 845.906 -0.476824 -1.6328 0
M  V30 8495 O 847.091 -0.706108 -1.80908 0
M  V30 8496 C 844.221 -1.641 -3.06086 0
M  V30 8497 C 843.175 -2.78377 -3.25101 0
M  V30 8498 C 842.501 -2.64812 -4.6452 0
M  V30 8499 C 843.801 -4.19971 -3.10518 0
M  V30 8500 H 845.495 -2.56232 -1.54873 0
M  V30 8501 H 843.041 -1.23312 -0.743649 0
M  V30 8502 H 844.994 -1.73417 -3.84063 0
M  V30 8503 H 843.718 -0.671652 -3.19619 0
M  V30 8504 H 842.377 -2.6857 -2.49531 0
M  V30 8505 H 842.025 -1.65906 -4.74852 0
M  V30 8506 H 841.725 -3.41477 -4.78191 0
M  V30 8507 H 843.249 -2.76057 -5.44633 0
M  V30 8508 H 844.663 -4.30757 -3.78313 0
M  V30 8509 H 843.06 -4.97419 -3.35699 0
M  V30 8510 H 844.13 -4.38369 -2.0727 0
M  V30 8511 N 845.473 0.80434 -1.35529 0
M  V30 8512 C 846.719 1.56385 -1.29118 0
M  V30 8513 C 847.052 1.9374 0.133536 0
M  V30 8514 O 846.327 1.6153 1.08344 0
M  V30 8515 C 846.61 2.85097 -2.19981 0
M  V30 8516 C 846.463 2.54204 -3.7108 0
M  V30 8517 C 847.782 3.86817 -2.09907 0
M  V30 8518 H 844.901 0.567382 -0.470368 0
M  V30 8519 H 847.543 0.925235 -1.6595 0
M  V30 8520 H 845.693 3.39594 -1.88701 0
M  V30 8521 H 847.365 2.05872 -4.12813 0
M  V30 8522 H 845.608 1.87364 -3.91251 0
M  V30 8523 H 846.279 3.46068 -4.30048 0
M  V30 8524 H 848.755 3.41725 -2.37409 0
M  V30 8525 H 847.631 4.7465 -2.75678 0
M  V30 8526 H 847.892 4.28663 -1.08171 0
M  V30 8527 N 846.951 1.19563 1.02676 0
M  V30 8528 C 847.881 0.959024 2.12897 0
M  V30 8529 C 848.862 -0.108382 1.69754 0
M  V30 8530 O 850.047 0.0470698 1.94143 0
M  V30 8531 C 847.177 0.499211 3.43693 0
M  V30 8532 C 846.131 1.5087 4.00528 0
M  V30 8533 C 845.457 0.905884 5.2697 0
M  V30 8534 C 846.757 2.88954 4.3509 0
M  V30 8535 H 848.451 1.88084 2.32948 0
M  V30 8536 H 845.997 0.905731 1.11949 0
M  V30 8537 H 847.95 0.320965 4.20176 0
M  V30 8538 H 846.674 -0.458205 3.2337 0
M  V30 8539 H 845.333 1.67413 3.26142 0
M  V30 8540 H 844.981 -0.0591506 5.02965 0
M  V30 8541 H 844.681 1.58 5.65959 0
M  V30 8542 H 846.205 0.73848 6.06118 0
M  V30 8543 H 847.619 2.75981 5.02501 0
M  V30 8544 H 846.016 3.53177 4.85166 0
M  V30 8545 H 847.086 3.41447 3.44299 0
M  V30 8546 N 848.429 -1.21819 0.999893 0
M  V30 8547 C 849.84 -1.72517 0.713775 0
M  V30 8548 C 850.191 -1.80505 -0.768922 0
M  V30 8549 O 849.316 -1.45611 -1.60083 0
M  V30 8550 C 849.911 -3.13321 1.28901 0
M  V30 8551 C 848.47 -3.61396 1.05212 0
M  V30 8552 C 847.617 -2.39074 1.40494 0
M  V30 8553 H 850.568 -1.07068 1.17141 0
M  V30 8554 H 850.589 -3.74535 0.671084 0
M  V30 8555 H 850.101 -3.07475 2.36814 0
M  V30 8556 H 848.202 -3.72599 -0.0100732 0
M  V30 8557 H 848.315 -4.47145 1.72042 0
M  V30 8558 H 846.679 -2.41015 0.823642 0
M  V30 8559 H 847.462 -2.35884 2.49427 0
M  V30 8560 N 849.908 -0.773975 -1.37286 0
M  V30 8561 C 851.185 -0.263942 -1.93811 0
M  V30 8562 C 851.565 1.24138 -1.70743 0
M  V30 8563 O 850.913 2.02557 -1.05749 0
M  V30 8564 C 851.123 -0.639753 -3.43086 0
M  V30 8565 C 852.471 -0.610796 -4.20184 0
M  V30 8566 O 853.495 -0.579278 -3.51458 0
M  V30 8567 O 852.354 -0.639862 -5.42741 0
M  V30 8568 H 849.448 -0.0614331 -0.824715 0
M  V30 8569 H 851.994 -0.855477 -1.46559 0
M  V30 8570 H 850.766 -1.67856 -3.53469 0
M  V30 8571 H 850.389 -0.0212827 -3.97594 0
M  V30 8572 N 851.386 1.48609 -0.524698 0
M  V30 8573 C 852.316 2.32366 0.229837 0
M  V30 8574 C 853.297 1.41759 0.940129 0
M  V30 8575 O 854.482 1.7065 0.926936 0
M  V30 8576 C 851.612 3.22835 1.28043 0
M  V30 8577 C 850.566 4.22424 0.688603 0
M  V30 8578 C 849.892 5.0199 1.84146 0
M  V30 8579 C 851.192 5.21217 -0.336176 0
M  V30 8580 H 852.886 2.95698 -0.469339 0
M  V30 8581 H 850.432 1.42197 -0.227156 0
M  V30 8582 H 852.385 3.80253 1.8162 0
M  V30 8583 H 851.109 2.57492 2.00912 0
M  V30 8584 H 849.768 3.66185 0.174402 0
M  V30 8585 H 849.416 4.33076 2.5584 0
M  V30 8586 H 849.116 5.69392 1.45142 0
M  V30 8587 H 850.64 5.62259 2.38111 0
M  V30 8588 H 852.054 5.7319 0.112307 0
M  V30 8589 H 850.451 5.96642 -0.643324 0
M  V30 8590 H 851.521 4.68676 -1.24381 0
M  V30 8591 N 852.864 0.259585 1.55447 0
M  V30 8592 C 853.794 -0.62852 2.24882 0
M  V30 8593 C 854.775 -1.17128 1.23349 0
M  V30 8594 O 855.96 -1.20829 1.52033 0
M  V30 8595 C 853.09 -1.81983 2.95803 0
M  V30 8596 C 852.044 -1.40929 4.04132 0
M  V30 8597 C 851.37 -2.68246 4.62545 0
M  V30 8598 C 852.67 -0.570956 5.1917 0
M  V30 8599 H 854.364 -0.0495021 2.99359 0
M  V30 8600 H 851.91 -0.0223688 1.43983 0
M  V30 8601 H 853.863 -2.44689 3.43082 0
M  V30 8602 H 852.587 -2.42444 2.18835 0
M  V30 8603 H 851.246 -0.805519 3.57641 0
M  V30 8604 H 850.894 -3.26931 3.82263 0
M  V30 8605 H 850.594 -2.41495 5.35681 0
M  V30 8606 H 852.118 -3.31827 5.12565 0
M  V30 8607 H 853.532 -1.10262 5.62597 0
M  V30 8608 H 851.929 -0.398979 5.98772 0
M  V30 8609 H 852.999 0.413918 4.8313 0
M  V30 8610 N 854.342 -1.57594 -0.0133615 0
M  V30 8611 C 855.292 -2.04048 -1.01726 0
M  V30 8612 C 856.276 -0.932682 -1.3111 0
M  V30 8613 O 857.468 -1.19652 -1.30432 0
M  V30 8614 C 854.597 -2.53637 -2.31351 0
M  V30 8615 C 853.683 -3.71269 -2.04989 0
M  V30 8616 N 854.074 -4.83436 -1.48739 0
M  V30 8617 C 852.372 -3.78943 -2.35198 0
M  V30 8618 C 853.073 -5.64961 -1.38542 0
M  V30 8619 N 852.049 -5.10554 -1.86643 0
M  V30 8620 H 855.851 -2.88188 -0.576623 0
M  V30 8621 H 853.365 -1.60912 -0.219344 0
M  V30 8622 H 855.362 -2.85186 -3.04096 0
M  V30 8623 H 854.022 -1.7091 -2.76079 0
M  V30 8624 H 855.033 -5.04558 -1.16798 0
M  V30 8625 H 851.71 -3.07047 -2.82893 0
M  V30 8626 H 853.1 -6.65092 -0.954075 0
M  V30 8627 N 855.82 0.285905 -1.54985 0
M  V30 8628 C 856.783 1.33625 -1.86218 0
M  V30 8629 C 857.783 1.42971 -0.735936 0
M  V30 8630 O 858.973 1.42345 -1.00417 0
M  V30 8631 C 856.105 2.71926 -2.05595 0
M  V30 8632 H 857.298 1.07167 -2.80099 0
M  V30 8633 H 854.851 0.523335 -1.47278 0
M  V30 8634 H 855.586 3.03583 -1.14053 0
M  V30 8635 H 855.371 2.6653 -2.87583 0
M  V30 8636 H 856.861 3.47841 -2.31077 0
M  V30 8637 N 857.298 1.47698 0.54982 0
M  V30 8638 C 858.245 1.60739 1.65625 0
M  V30 8639 C 859.215 0.450129 1.59884 0
M  V30 8640 O 860.4 0.671123 1.78607 0
M  V30 8641 C 857.54 1.63457 3.03934 0
M  V30 8642 C 856.653 2.90152 3.20056 0
M  V30 8643 C 855.788 2.84157 4.48807 0
M  V30 8644 C 854.827 4.05644 4.58387 0
M  V30 8645 N 853.964 3.97843 5.78503 0
M  V30 8646 H 858.804 2.55234 1.53817 0
M  V30 8647 H 856.341 1.26593 0.749173 0
M  V30 8648 H 858.299 1.63015 3.84034 0
M  V30 8649 H 856.929 0.724689 3.1456 0
M  V30 8650 H 855.981 3.00428 2.33339 0
M  V30 8651 H 857.293 3.80097 3.22998 0
M  V30 8652 H 856.447 2.82006 5.37175 0
M  V30 8653 H 855.186 1.91908 4.48356 0
M  V30 8654 H 854.191 4.08092 3.6843 0
M  V30 8655 H 855.416 4.9903 4.60593 0
M  V30 8656 H 853.362 3.08401 5.78986 0
M  V30 8657 H 853.279 4.81473 5.82855 0
M  V30 8658 H 854.547 3.99719 6.69212 0
M  V30 8659 N 858.776 -0.797141 1.35954 0
M  V30 8660 C 859.706 -1.92387 1.32323 0
M  V30 8661 C 860.687 -1.68967 0.196007 0
M  V30 8662 O 861.872 -1.90193 0.39245 0
M  V30 8663 C 859.002 -3.29286 1.10398 0
M  V30 8664 C 857.956 -3.67212 2.19862 0
M  V30 8665 C 857.282 -5.02377 1.8309 0
M  V30 8666 C 858.582 -3.76602 3.61896 0
M  V30 8667 H 860.276 -1.95683 2.26602 0
M  V30 8668 H 857.822 -0.94007 1.09081 0
M  V30 8669 H 859.775 -4.07721 1.06495 0
M  V30 8670 H 858.499 -3.26358 0.125668 0
M  V30 8671 H 857.158 -2.91069 2.22878 0
M  V30 8672 H 856.806 -4.95961 0.838527 0
M  V30 8673 H 856.506 -5.28722 2.56372 0
M  V30 8674 H 858.03 -5.8324 1.80729 0
M  V30 8675 H 859.444 -4.45246 3.6115 0
M  V30 8676 H 857.841 -4.14425 4.34018 0
M  V30 8677 H 858.911 -2.77906 3.97361 0
M  V30 8678 N 860.254 -1.20106 -1.0204 0
M  V30 8679 C 861.665 -1.00992 -1.57027 0
M  V30 8680 C 862.016 0.434782 -1.91322 0
M  V30 8681 O 861.141 1.31557 -1.71819 0
M  V30 8682 C 861.736 -1.82697 -2.85319 0
M  V30 8683 C 860.295 -1.67959 -3.36848 0
M  V30 8684 C 859.442 -1.80868 -2.10195 0
M  V30 8685 H 862.393 -1.34354 -0.844676 0
M  V30 8686 H 862.414 -1.32809 -3.5657 0
M  V30 8687 H 861.926 -2.87839 -2.60328 0
M  V30 8688 H 860.027 -0.654389 -3.66809 0
M  V30 8689 H 860.14 -2.49006 -4.09308 0
M  V30 8690 H 858.504 -1.24015 -2.22469 0
M  V30 8691 H 859.287 -2.87486 -1.87635 0
M  V30 8692 N 861.732 1.21287 -1.00634 0
M  V30 8693 C 863.143 1.72136 -0.722914 0
M  V30 8694 C 863.494 1.8091 0.759338 0
M  V30 8695 O 862.619 1.46458 1.59308 0
M  V30 8696 C 863.214 3.12633 -1.30561 0
M  V30 8697 C 861.773 3.60833 -1.07127 0
M  V30 8698 C 860.92 2.38326 -1.4176 0
M  V30 8699 H 863.871 1.06445 -1.17708 0
M  V30 8700 H 863.892 3.74174 -0.690937 0
M  V30 8701 H 863.404 3.06215 -2.38441 0
M  V30 8702 H 861.505 3.72599 -0.00968671 0
M  V30 8703 H 861.618 4.46226 -1.74411 0
M  V30 8704 H 859.982 2.40575 -0.836412 0
M  V30 8705 H 860.765 2.34558 -2.50674 0
M  V30 8706 N 863.21 0.781244 1.36873 0
M  V30 8707 C 864.487 0.274217 1.93668 0
M  V30 8708 C 864.867 -1.2323 1.71399 0
M  V30 8709 O 864.215 -2.01993 1.06822 0
M  V30 8710 C 864.425 0.657939 3.42742 0
M  V30 8711 C 865.773 0.63307 4.19854 0
M  V30 8712 O 866.797 0.597909 3.51146 0
M  V30 8713 O 865.656 0.668636 5.42394 0
M  V30 8714 H 862.75 0.0658059 0.824378 0
M  V30 8715 H 865.296 0.863238 1.46104 0
M  V30 8716 H 864.068 1.69728 3.52573 0
M  V30 8717 H 863.691 0.0423678 3.97577 0
M  V30 8718 N 864.689 -1.48329 0.532571 0
M  V30 8719 C 865.914 -2.074 0.00147755 0
M  V30 8720 C 866.339 -1.38615 -1.27151 0
M  V30 8721 O 865.697 -0.452949 -1.75551 0
M  V30 8722 C 865.745 -3.60029 -0.202866 0
M  V30 8723 O 864.849 -3.92327 -1.27097 0
M  V30 8724 H 864.19 -0.662777 0.0402883 0
M  V30 8725 H 866.72 -1.90701 0.741224 0
M  V30 8726 H 866.73 -4.05783 -0.424722 0
M  V30 8727 H 865.405 -4.09496 0.727033 0
M  V30 8728 H 863.982 -3.58348 -1.03156 0
M  V30 8729 N 866.167 -0.267825 -1.55308 0
M  V30 8730 C 867.407 0.352316 -2.01341 0
M  V30 8731 C 867.771 1.53593 -1.1521 0
M  V30 8732 O 868.972 2.22521 -1.50791 0
M  V30 8733 C 867.243 0.731857 -3.49827 0
M  V30 8734 S 868.802 1.33956 -4.17853 0
M  V30 8735 H 865.62 0.109927 -0.702451 0
M  V30 8736 H 868.222 -0.387955 -1.91612 0
M  V30 8737 H 866.926 -0.138561 -4.10166 0
M  V30 8738 H 866.457 1.50378 -3.63525 0
M  V30 8739 H 868.472 2.62831 -4.20874 0
M  V30 8740 N 867.645 1.57599 0.00500368 0
M  V30 8741 C 869.056 1.78462 0.54848 0
M  V30 8742 C 869.407 0.901869 1.74243 0
M  V30 8743 O 868.532 0.103014 2.16155 0
M  V30 8744 C 869.127 3.2365 1.00179 0
M  V30 8745 C 867.686 3.45627 1.49061 0
M  V30 8746 C 866.833 2.73794 0.439531 0
M  V30 8747 H 869.784 1.57151 -0.22118 0
M  V30 8748 H 869.805 3.31488 1.86805 0
M  V30 8749 H 869.317 3.87873 0.132607 0
M  V30 8750 H 867.418 2.86612 2.38085 0
M  V30 8751 H 867.531 4.54298 1.52152 0
M  V30 8752 H 865.895 2.38267 0.900043 0
M  V30 8753 H 866.678 3.40714 -0.420599 0
M  V30 8754 N 869.123 -0.277682 1.55134 0
M  V30 8755 C 870.053 -1.34742 1.90701 0
M  V30 8756 C 871.034 -1.51757 0.768354 0
M  V30 8757 O 872.219 -1.64879 1.02609 0
M  V30 8758 C 869.349 -2.70775 2.17481 0
M  V30 8759 C 868.303 -2.68497 3.33307 0
M  V30 8760 C 867.629 -4.08037 3.45557 0
M  V30 8761 C 868.929 -2.28178 4.69821 0
M  V30 8762 H 870.623 -1.05224 2.803 0
M  V30 8763 H 868.169 -0.504738 1.34864 0
M  V30 8764 H 870.122 -3.45719 2.40949 0
M  V30 8765 H 868.846 -3.01867 1.24676 0
M  V30 8766 H 867.505 -1.9601 3.09799 0
M  V30 8767 H 867.153 -4.36344 2.50226 0
M  V30 8768 H 866.853 -4.07409 4.23429 0
M  V30 8769 H 868.377 -4.84726 3.71312 0
M  V30 8770 H 869.791 -2.92843 4.92865 0
M  V30 8771 H 868.188 -2.3872 5.50575 0
M  V30 8772 H 869.258 -1.23308 4.6896 0
M  V30 8773 N 870.601 -1.47988 -0.541979 0
M  V30 8774 C 871.531 -1.64503 -1.65713 0
M  V30 8775 C 872.512 -0.494116 -1.62765 0
M  V30 8776 O 873.697 -0.725256 -1.80149 0
M  V30 8777 C 870.827 -1.67337 -3.04328 0
M  V30 8778 C 869.781 -2.81809 -3.2213 0
M  V30 8779 C 869.107 -2.69724 -4.61685 0
M  V30 8780 C 870.407 -4.23241 -3.06046 0
M  V30 8781 H 872.101 -2.5786 -1.52147 0
M  V30 8782 H 869.647 -1.24094 -0.730529 0
M  V30 8783 H 871.6 -1.77481 -3.82202 0
M  V30 8784 H 870.324 -0.705514 -3.18889 0
M  V30 8785 H 868.983 -2.71201 -2.46669 0
M  V30 8786 H 868.631 -1.70934 -4.73065 0
M  V30 8787 H 868.331 -3.4653 -4.74543 0
M  V30 8788 H 869.855 -2.81818 -5.41674 0
M  V30 8789 H 871.269 -4.34746 -3.73723 0
M  V30 8790 H 869.666 -5.00952 -3.30405 0
M  V30 8791 H 870.736 -4.40543 -2.02609 0
M  V30 8792 N 872.079 0.78992 -1.36375 0
M  V30 8793 C 873.325 1.55007 -1.3077 0
M  V30 8794 C 873.658 1.93871 0.112979 0
M  V30 8795 O 872.933 1.6267 1.06625 0
M  V30 8796 C 873.216 2.82748 -2.22993 0
M  V30 8797 C 873.069 2.50253 -3.73756 0
M  V30 8798 C 874.388 3.84569 -2.13998 0
M  V30 8799 H 871.507 0.562362 -0.476359 0
M  V30 8800 H 874.149 0.907582 -1.66922 0
M  V30 8801 H 872.299 3.37573 -1.92292 0
M  V30 8802 H 873.971 2.01482 -4.14973 0
M  V30 8803 H 872.214 1.83203 -3.93216 0
M  V30 8804 H 872.885 3.41487 -4.33694 0
M  V30 8805 H 875.361 3.39188 -2.4102 0
M  V30 8806 H 874.237 4.717 -2.80697 0
M  V30 8807 H 874.498 4.27491 -1.12711 0
M  V30 8808 N 873.557 1.20646 1.01402 0
M  V30 8809 C 874.804 1.01819 1.7504 0
M  V30 8810 C 875.132 -0.449386 1.89237 0
M  V30 8811 O 874.387 -1.34985 1.41695 0
M  V30 8812 C 874.686 1.64991 3.17037 0
M  V30 8813 C 874.352 3.14808 3.22811 0
M  V30 8814 C 873.014 3.55692 3.24094 0
M  V30 8815 C 875.366 4.108 3.2077 0
M  V30 8816 C 872.694 4.9109 3.2101 0
M  V30 8817 C 875.046 5.46147 3.19227 0
M  V30 8818 C 873.71 5.86441 3.18815 0
M  V30 8819 H 872.98 0.372582 0.640518 0
M  V30 8820 H 875.627 1.50108 1.18911 0
M  V30 8821 H 873.932 1.08971 3.76341 0
M  V30 8822 H 875.629 1.47937 3.72714 0
M  V30 8823 H 872.219 2.8224 3.2255 0
M  V30 8824 H 876.403 3.80246 3.18946 0
M  V30 8825 H 871.659 5.21569 3.19023 0
M  V30 8826 H 875.833 6.20272 3.166 0
M  V30 8827 H 873.46 6.91328 3.16179 0
M  V30 8828 N 875.035 -1.20752 1.01276 0
M  V30 8829 C 876.281 -1.90302 0.700924 0
M  V30 8830 C 876.614 -1.78406 -0.767142 0
M  V30 8831 O 875.889 -1.16575 -1.55694 0
M  V30 8832 C 876.172 -3.41831 1.13242 0
M  V30 8833 C 876.025 -3.6268 2.66051 0
M  V30 8834 C 877.344 -4.34486 0.700738 0
M  V30 8835 H 874.463 -0.69107 0.256107 0
M  V30 8836 H 877.105 -1.42227 1.25982 0
M  V30 8837 H 875.255 -3.82906 0.656902 0
M  V30 8838 H 876.927 -3.30882 3.21426 0
M  V30 8839 H 875.17 -3.06281 3.07204 0
M  V30 8840 H 875.841 -4.68882 2.91296 0
M  V30 8841 H 878.317 -4.01036 1.10948 0
M  V30 8842 H 877.193 -5.39136 1.03073 0
M  V30 8843 H 877.454 -4.40307 -0.39778 0
M  V30 8844 N 876.513 -0.788492 -1.36457 0
M  V30 8845 C 877.461 -0.174192 -2.31947 0
M  V30 8846 C 878.455 0.665974 -1.5576 0
M  V30 8847 O 879.661 0.561161 -1.71029 0
M  V30 8848 H 876.036 -0.0375538 -0.751062 0
M  V30 8849 H 878.007 -0.995011 -2.81322 0
M  V30 8850 C 876.756 0.677276 -3.4104 0
M  V30 8851 H 876.079 0.0401418 -3.9978 0
M  V30 8852 H 877.519 1.07379 -4.10178 0
M  V30 8853 C 875.978 1.83512 -2.82533 0
M  V30 8854 O 876.508 2.93164 -2.74623 0
M  V30 8855 N 874.714 1.64095 -2.39836 0
M  V30 8856 H 874.261 0.749046 -2.46469 0
M  V30 8857 H 874.219 2.41726 -2.01037 0
M  V30 8858 N 877.991 1.48044 -0.54043 0
M  V30 8859 C 879.402 1.86418 -0.102662 0
M  V30 8860 C 879.753 1.4489 1.32293 0
M  V30 8861 O 878.878 0.844319 1.99249 0
M  V30 8862 C 879.473 3.38324 -0.179533 0
M  V30 8863 C 878.032 3.75852 0.203098 0
M  V30 8864 C 877.179 2.72097 -0.534637 0
M  V30 8865 H 880.13 1.398 -0.751103 0
M  V30 8866 H 880.151 3.75641 0.606147 0
M  V30 8867 H 879.663 3.68518 -1.21721 0
M  V30 8868 H 877.764 3.51272 1.24252 0
M  V30 8869 H 877.877 4.78884 -0.143784 0
M  V30 8870 H 876.241 2.54692 0.0203358 0
M  V30 8871 H 877.024 3.05135 -1.57314 0
M  V30 8872 N 879.47 0.276058 1.55163 0
M  V30 8873 C 880.417 -0.611006 2.22565 0
M  V30 8874 C 881.387 -1.14902 1.19945 0
M  V30 8875 O 882.572 -1.19815 1.48489 0
M  V30 8876 C 879.712 -1.78885 2.95117 0
M  V30 8877 C 878.825 -1.2846 4.12458 0
M  V30 8878 C 877.96 -2.42432 4.72652 0
M  V30 8879 C 876.999 -1.89015 5.82185 0
M  V30 8880 N 876.136 -2.96463 6.36439 0
M  V30 8881 H 880.976 -0.0295849 2.97985 0
M  V30 8882 H 878.513 -0.00283607 1.471 0
M  V30 8883 H 880.471 -2.48121 3.35398 0
M  V30 8884 H 879.101 -2.34229 2.22119 0
M  V30 8885 H 878.153 -0.485312 3.77292 0
M  V30 8886 H 879.465 -0.853358 4.91446 0
M  V30 8887 H 878.619 -3.19659 5.15658 0
M  V30 8888 H 877.358 -2.88872 3.92943 0
M  V30 8889 H 876.363 -1.10267 5.38629 0
M  V30 8890 H 877.588 -1.43509 6.63763 0
M  V30 8891 H 875.534 -3.42283 5.59623 0
M  V30 8892 H 875.451 -2.57759 7.10701 0
M  V30 8893 H 876.719 -3.73663 6.84103 0
M  V30 8894 N 880.948 -1.576 0.00335426 0
M  V30 8895 C 882.173 -1.95398 -0.695311 0
M  V30 8896 C 882.598 -0.878476 -1.66326 0
M  V30 8897 O 881.956 0.163086 -1.80565 0
M  V30 8898 C 882.004 -3.32293 -1.40049 0
M  V30 8899 O 881.108 -3.26834 -2.51502 0
M  V30 8900 H 880.449 -0.637796 -0.184694 0
M  V30 8901 H 882.979 -2.04519 0.057543 0
M  V30 8902 H 882.989 -3.67936 -1.76316 0
M  V30 8903 H 881.664 -4.10123 -0.690803 0
M  V30 8904 H 880.241 -3.02872 -2.17539 0
M  V30 8905 N 882.426 0.269451 -1.5528 0
M  V30 8906 C 883.674 0.998604 -1.75705 0
M  V30 8907 C 883.995 1.86691 -0.563175 0
M  V30 8908 O 883.265 1.91305 0.421811 0
M  V30 8909 H 881.845 0.371698 -0.647958 0
M  V30 8910 H 884.507 0.292826 -1.92688 0
M  V30 8911 H 883.603 1.63348 -2.6594 0
M  V30 8912 N 883.904 1.48273 0.534124 0
M  V30 8913 C 885.152 1.55771 1.28762 0
M  V30 8914 C 885.473 0.231575 1.9362 0
M  V30 8915 O 884.743 -0.746533 1.81118 0
M  V30 8916 H 883.323 0.573851 0.47823 0
M  V30 8917 H 885.985 1.84712 0.621888 0
M  V30 8918 H 885.081 2.33657 2.06908 0
M  V30 8919 N 885.382 -0.782676 1.36792 0
M  V30 8920 C 886.312 -1.90973 1.34356 0
M  V30 8921 C 887.293 -1.6875 0.213917 0
M  V30 8922 O 888.478 -1.89766 0.412601 0
M  V30 8923 C 885.608 -3.28097 1.13884 0
M  V30 8924 C 884.562 -3.6486 2.23744 0
M  V30 8925 C 883.888 -5.00406 1.88408 0
M  V30 8926 C 885.188 -3.72742 3.6587 0
M  V30 8927 H 886.882 -1.93268 2.28665 0
M  V30 8928 H 884.428 -0.928447 1.10072 0
M  V30 8929 H 886.381 -4.06569 1.10813 0
M  V30 8930 H 885.105 -3.26206 0.160275 0
M  V30 8931 H 883.764 -2.88689 2.25952 0
M  V30 8932 H 883.412 -4.95044 0.891083 0
M  V30 8933 H 883.112 -5.25973 2.61966 0
M  V30 8934 H 884.636 -5.81291 1.86905 0
M  V30 8935 H 886.05 -4.4139 3.65852 0
M  V30 8936 H 884.447 -4.09798 4.38389 0
M  V30 8937 H 885.517 -2.73676 4.00287 0
M  V30 8938 N 886.86 -1.21182 -1.00761 0
M  V30 8939 C 887.807 -0.968741 -2.09485 0
M  V30 8940 C 888.777 0.104325 -1.65772 0
M  V30 8941 O 889.962 -0.0422587 -1.90753 0
M  V30 8942 C 887.102 -0.536686 -3.40901 0
M  V30 8943 C 886.215 -1.6789 -3.98041 0
M  V30 8944 C 885.35 -1.19627 -5.17555 0
M  V30 8945 C 884.389 -2.31099 -5.66798 0
M  V30 8946 N 883.526 -1.83988 -6.77564 0
M  V30 8947 H 888.366 -1.89952 -2.29613 0
M  V30 8948 H 885.903 -0.946688 -1.12589 0
M  V30 8949 H 887.861 -0.26745 -4.16342 0
M  V30 8950 H 886.491 0.357092 -3.20819 0
M  V30 8951 H 885.543 -2.06284 -3.19611 0
M  V30 8952 H 886.855 -2.51794 -4.30582 0
M  V30 8953 H 886.009 -0.883539 -6.00232 0
M  V30 8954 H 884.748 -0.327244 -4.86601 0
M  V30 8955 H 883.753 -2.63178 -4.82719 0
M  V30 8956 H 884.978 -3.18493 -5.99782 0
M  V30 8957 H 882.924 -0.994257 -6.48422 0
M  V30 8958 H 882.841 -2.61466 -7.09346 0
M  V30 8959 H 884.109 -1.55741 -7.63783 0
M  V30 8960 N 888.338 1.20213 -1.01915 0
M  V30 8961 C 889.586 1.89272 -0.708552 0
M  V30 8962 C 889.907 1.79394 0.76438 0
M  V30 8963 O 889.177 1.198 1.54999 0
M  V30 8964 H 887.757 0.700628 -0.259094 0
M  V30 8965 H 890.419 1.45985 -1.29129 0
M  V30 8966 H 889.515 2.95841 -0.994215 0
M  V30 8967 N 889.816 0.795718 1.36037 0
M  V30 8968 C 891.232 0.478145 1.52269 0
M  V30 8969 C 891.432 -1.0025 1.74792 0
M  V30 8970 O 890.488 -1.78783 1.78305 0
M  V30 8971 C 891.801 1.31406 2.70468 0
M  V30 8972 C 893.349 1.3084 2.84341 0
M  V30 8973 C 893.824 2.12819 4.05551 0
M  V30 8974 N 895.315 2.10298 4.12709 0
M  V30 8975 C 896.05 2.70495 5.05589 0
M  V30 8976 N 895.546 3.39576 6.03871 0
M  V30 8977 N 897.339 2.60195 4.98252 0
M  V30 8978 H 889.49 1.75477 1.19673 0
M  V30 8979 H 891.753 0.74627 0.584624 0
M  V30 8980 H 891.459 2.36435 2.60368 0
M  V30 8981 H 891.333 0.959726 3.64786 0
M  V30 8982 H 893.72 0.266003 2.93899 0
M  V30 8983 H 893.801 1.70254 1.90912 0
M  V30 8984 H 893.445 3.17093 3.96755 0
M  V30 8985 H 893.375 1.70772 4.98141 0
M  V30 8986 H 895.866 1.60026 3.42345 0
M  V30 8987 H 896.179 3.82823 6.71317 0
M  V30 8988 H 894.524 3.43679 6.04077 0
M  V30 8989 H 897.715 2.05823 4.20422 0
M  V30 8990 H 897.888 3.074 5.70447 0
M  V30 8991 N 891.294 -1.47756 0.548274 0
M  V30 8992 C 892.571 -1.9555 -0.0443603 0
M  V30 8993 C 892.951 -1.49079 -1.49462 0
M  V30 8994 O 892.299 -0.725538 -2.16675 0
M  V30 8995 C 892.509 -3.48879 0.0918425 0
M  V30 8996 C 893.857 -4.2456 -0.0580879 0
M  V30 8997 O 894.881 -3.56195 0.018946 0
M  V30 8998 O 893.74 -5.46048 -0.222261 0
M  V30 8999 H 890.834 -0.824106 -0.0691235 0
M  V30 9000 H 893.38 -1.58196 0.614166 0
M  V30 9001 H 892.152 -3.7548 1.10137 0
M  V30 9002 H 891.775 -3.92975 -0.604704 0
M  V30 9003 N 892.772 -0.284283 -1.55015 0
M  V30 9004 C 893.702 0.592663 -2.25853 0
M  V30 9005 C 894.683 1.15151 -1.25197 0
M  V30 9006 O 895.868 1.18395 -1.53936 0
M  V30 9007 C 892.998 1.77254 -2.98661 0
M  V30 9008 C 891.952 1.34482 -4.06323 0
M  V30 9009 C 891.278 2.60853 -4.66754 0
M  V30 9010 C 892.578 0.488288 -5.20013 0
M  V30 9011 H 894.272 0.00187041 -2.994 0
M  V30 9012 H 891.818 -0.000540402 -1.44 0
M  V30 9013 H 893.771 2.39199 -3.46932 0
M  V30 9014 H 892.495 2.38931 -2.22664 0
M  V30 9015 H 891.154 0.748519 -3.58877 0
M  V30 9016 H 890.802 3.20808 -3.87416 0
M  V30 9017 H 890.502 2.32942 -5.39455 0
M  V30 9018 H 892.026 3.23631 -5.1778 0
M  V30 9019 H 893.44 1.01298 -5.6428 0
M  V30 9020 H 891.837 0.303669 -5.99331 0
M  V30 9021 H 892.907 -0.490727 -4.8241 0
M  V30 9022 N 894.251 1.57596 -0.0117121 0
M  V30 9023 C 895.181 2.12188 0.9746 0
M  V30 9024 C 896.162 1.03379 1.35081 0
M  V30 9025 O 897.347 1.31123 1.4325 0
M  V30 9026 C 894.477 2.63477 2.26268 0
M  V30 9027 C 893.431 3.76917 2.02774 0
M  V30 9028 C 892.757 4.14566 3.37697 0
M  V30 9029 C 894.057 5.03715 1.38089 0
M  V30 9030 H 895.751 2.9485 0.520007 0
M  V30 9031 H 893.297 1.41836 0.248685 0
M  V30 9032 H 895.25 3.00299 2.95633 0
M  V30 9033 H 893.974 1.77953 2.73862 0
M  V30 9034 H 892.633 3.40507 1.35832 0
M  V30 9035 H 892.281 3.26048 3.83016 0
M  V30 9036 H 891.981 4.91 3.22789 0
M  V30 9037 H 893.505 4.53956 4.08358 0
M  V30 9038 H 894.919 5.38233 1.97428 0
M  V30 9039 H 893.316 5.85032 1.33634 0
M  V30 9040 H 894.386 4.83624 0.351575 0
M  V30 9041 N 895.729 -0.261212 1.5542 0
M  V30 9042 C 896.969 -0.998748 1.78338 0
M  V30 9043 C 897.333 -1.83064 0.578914 0
M  V30 9044 O 898.534 -2.59884 0.686575 0
M  V30 9045 C 896.805 -1.84828 3.05898 0
M  V30 9046 S 898.364 -2.64686 3.49981 0
M  V30 9047 H 895.182 -0.33619 0.626496 0
M  V30 9048 H 897.784 -0.26799 1.93655 0
M  V30 9049 H 896.488 -1.22658 3.91642 0
M  V30 9050 H 896.019 -2.62203 2.9328 0
M  V30 9051 H 898.034 -3.87299 3.10184 0
M  V30 9052 N 897.207 -1.48554 -0.526253 0
M  V30 9053 C 898.432 -1.60686 -1.31129 0
M  V30 9054 C 898.857 -0.268701 -1.86171 0
M  V30 9055 O 898.215 0.760167 -1.64594 0
M  V30 9056 C 898.263 -2.65938 -2.43536 0
M  V30 9057 O 897.367 -2.23356 -3.46678 0
M  V30 9058 H 896.708 -0.538691 -0.388211 0
M  V30 9059 H 899.238 -1.94567 -0.632826 0
M  V30 9060 H 899.248 -2.87327 -2.89668 0
M  V30 9061 H 897.923 -3.63085 -2.02835 0
M  V30 9062 H 896.5 -2.12196 -3.06639 0
M  V30 9063 N 898.685 0.775411 -1.37205 0
M  V30 9064 C 899.932 1.53384 -1.32211 0
M  V30 9065 C 900.26 1.9427 0.0944958 0
M  V30 9066 O 899.515 1.64059 1.06692 0
M  V30 9067 C 899.814 2.81377 -2.20367 0
M  V30 9068 C 899.48 2.59561 -3.68699 0
M  V30 9069 C 898.142 2.53319 -4.09124 0
M  V30 9070 C 900.494 2.39939 -4.62686 0
M  V30 9071 C 897.822 2.25442 -5.41658 0
M  V30 9072 C 900.174 2.13586 -5.95453 0
M  V30 9073 C 898.838 2.05786 -6.34987 0
M  V30 9074 H 898.108 0.561271 -0.483793 0
M  V30 9075 H 900.755 0.893466 -1.6938 0
M  V30 9076 H 899.06 3.49954 -1.76181 0
M  V30 9077 H 900.757 3.39238 -2.13819 0
M  V30 9078 H 897.347 2.6528 -3.36637 0
M  V30 9079 H 901.531 2.43753 -4.32317 0
M  V30 9080 H 896.787 2.17896 -5.71254 0
M  V30 9081 H 900.961 1.97401 -6.67837 0
M  V30 9082 H 898.588 1.83948 -7.37609 0
M  V30 9083 N 900.163 1.21714 1.00117 0
M  V30 9084 C 901.579 0.97532 1.26332 0
M  V30 9085 C 901.779 -0.336029 1.98678 0
M  V30 9086 O 900.835 -1.06073 2.29139 0
M  V30 9087 C 902.148 2.16848 2.0832 0
M  V30 9088 C 903.696 2.21115 2.21533 0
M  V30 9089 C 904.171 3.3996 3.06906 0
M  V30 9090 N 905.662 3.40071 3.14494 0
M  V30 9091 C 906.397 4.28678 3.80818 0
M  V30 9092 N 905.893 5.2749 4.49139 0
M  V30 9093 N 907.686 4.16476 3.77497 0
M  V30 9094 H 899.837 2.06039 0.515897 0
M  V30 9095 H 902.1 0.902423 0.290408 0
M  V30 9096 H 901.806 3.119 1.62515 0
M  V30 9097 H 901.68 2.16226 3.09073 0
M  V30 9098 H 904.067 1.26616 2.66557 0
M  V30 9099 H 904.148 2.2578 1.20238 0
M  V30 9100 H 903.792 4.34755 2.62585 0
M  V30 9101 H 903.722 3.32534 4.08324 0
M  V30 9102 H 906.213 2.68563 2.65861 0
M  V30 9103 H 906.526 5.91397 4.97463 0
M  V30 9104 H 904.871 5.31412 4.47914 0
M  V30 9105 H 908.062 3.38539 3.23278 0
M  V30 9106 H 908.235 4.85739 4.28908 0
M  V30 9107 N 901.641 -1.19671 1.02551 0
M  V30 9108 C 902.588 -2.22773 0.603394 0
M  V30 9109 C 903.558 -1.61669 -0.381081 0
M  V30 9110 O 904.743 -1.88756 -0.278505 0
M  V30 9111 C 901.883 -3.45073 -0.0431034 0
M  V30 9112 C 900.996 -4.20574 0.987006 0
M  V30 9113 C 900.131 -5.30291 0.310626 0
M  V30 9114 C 899.17 -5.97545 1.32688 0
M  V30 9115 N 898.307 -6.98833 0.676542 0
M  V30 9116 H 903.147 -2.58238 1.48719 0
M  V30 9117 H 900.684 -1.26881 0.744286 0
M  V30 9118 H 902.642 -4.14925 -0.435141 0
M  V30 9119 H 901.272 -3.10274 -0.890495 0
M  V30 9120 H 900.324 -3.497 1.49713 0
M  V30 9121 H 901.636 -4.66736 1.75952 0
M  V30 9122 H 900.79 -6.06547 -0.136438 0
M  V30 9123 H 899.529 -4.8519 -0.49412 0
M  V30 9124 H 898.534 -5.20043 1.78424 0
M  V30 9125 H 899.759 -6.4473 2.13306 0
M  V30 9126 H 897.705 -6.55911 -0.108172 0
M  V30 9127 H 897.622 -7.43168 1.38699 0
M  V30 9128 H 898.89 -7.79088 0.253367 0
M  V30 9129 N 903.119 -0.802921 -1.35613 0
M  V30 9130 C 904.049 -0.225131 -2.32412 0
M  V30 9131 C 905.03 0.647383 -1.57299 0
M  V30 9132 O 906.215 0.578414 -1.85386 0
M  V30 9133 C 903.345 0.630085 -3.41537 0
M  V30 9134 C 902.299 -0.143635 -4.27759 0
M  V30 9135 C 901.625 0.833046 -5.28171 0
M  V30 9136 C 902.925 -1.34054 -5.04804 0
M  V30 9137 H 904.619 -1.03385 -2.80984 0
M  V30 9138 H 902.165 -0.498593 -1.35093 0
M  V30 9139 H 904.118 1.04433 -4.08254 0
M  V30 9140 H 902.842 1.47165 -2.91565 0
M  V30 9141 H 901.501 -0.539015 -3.62616 0
M  V30 9142 H 901.149 1.67001 -4.74468 0
M  V30 9143 H 900.849 0.319697 -5.8673 0
M  V30 9144 H 902.373 1.24558 -5.97761 0
M  V30 9145 H 903.787 -1.00136 -5.64487 0
M  V30 9146 H 902.184 -1.78812 -5.72841 0
M  V30 9147 H 903.254 -2.12906 -4.35659 0
M  V30 9148 N 904.597 1.47463 -0.556102 0
M  V30 9149 C 905.527 2.32801 0.180497 0
M  V30 9150 C 906.508 1.43721 0.909848 0
M  V30 9151 O 907.693 1.72578 0.89053 0
M  V30 9152 C 904.823 3.25478 1.21167 0
M  V30 9153 C 903.777 4.2379 0.598846 0
M  V30 9154 C 903.103 5.05783 1.73457 0
M  V30 9155 C 904.403 5.20387 -0.446659 0
M  V30 9156 H 906.097 2.94636 -0.531956 0
M  V30 9157 H 903.643 1.41683 -0.257267 0
M  V30 9158 H 905.596 3.8402 1.73513 0
M  V30 9159 H 904.32 2.61695 1.95405 0
M  V30 9160 H 902.979 3.66472 0.0966897 0
M  V30 9161 H 902.627 4.38405 2.46596 0
M  V30 9162 H 902.327 5.72343 1.33031 0
M  V30 9163 H 903.851 5.67183 2.26131 0
M  V30 9164 H 905.265 5.73299 -0.00930019 0
M  V30 9165 H 903.662 5.95143 -0.769735 0
M  V30 9166 H 904.732 4.65932 -1.34295 0
M  V30 9167 N 906.075 0.2925 1.54862 0
M  V30 9168 C 907.023 -0.603186 2.24643 0
M  V30 9169 C 908.017 -1.1439 1.24946 0
M  V30 9170 O 909.223 -1.09552 1.42823 0
M  V30 9171 H 905.598 -0.213105 0.721173 0
M  V30 9172 H 907.569 0.00799278 2.98399 0
M  V30 9173 C 906.318 -1.76769 2.99413 0
M  V30 9174 H 905.641 -1.36084 3.75927 0
M  V30 9175 H 907.081 -2.37066 3.51533 0
M  V30 9176 C 905.54 -2.66669 2.05886 0
M  V30 9177 O 906.07 -3.67525 1.62136 0
M  V30 9178 N 904.276 -2.34216 1.7202 0
M  V30 9179 H 903.823 -1.52246 2.07795 0
M  V30 9180 H 903.781 -2.94635 1.09717 0
M  V30 9181 N 907.553 -1.57587 0.0200696 0
M  V30 9182 C 908.964 -1.79312 -0.520019 0
M  V30 9183 C 909.315 -0.929475 -1.72787 0
M  V30 9184 O 908.44 -0.137389 -2.15963 0
M  V30 9185 C 909.035 -3.25203 -0.950172 0
M  V30 9186 C 907.594 -3.47954 -1.43543 0
M  V30 9187 C 906.741 -2.74459 -0.395917 0
M  V30 9188 H 909.692 -1.56779 0.246153 0
M  V30 9189 H 909.713 -3.34418 -1.81508 0
M  V30 9190 H 909.225 -3.88035 -0.070883 0
M  V30 9191 H 907.326 -2.90363 -2.33495 0
M  V30 9192 H 907.439 -4.56661 -1.44905 0
M  V30 9193 H 905.803 -2.39669 -0.862022 0
M  V30 9194 H 906.586 -3.40001 0.47475 0
M  V30 9195 N 909.032 0.252966 -1.55557 0
M  V30 9196 C 909.982 1.31585 -1.86197 0
M  V30 9197 C 910.966 1.43773 -0.722357 0
M  V30 9198 O 912.158 1.47117 -0.984152 0
M  V30 9199 C 909.287 2.67245 -2.15487 0
M  V30 9200 C 908.373 2.59087 -3.3576 0
M  V30 9201 N 908.764 2.20556 -4.5518 0
M  V30 9202 C 907.062 2.90112 -3.3875 0
M  V30 9203 C 907.763 2.22881 -5.37307 0
M  V30 9204 N 906.739 2.62145 -4.76215 0
M  V30 9205 H 910.541 1.00835 -2.76061 0
M  V30 9206 H 908.055 0.461598 -1.55702 0
M  V30 9207 H 910.052 3.43944 -2.35602 0
M  V30 9208 H 908.712 2.98867 -1.26919 0
M  V30 9209 H 909.723 1.922 -4.80915 0
M  V30 9210 H 906.4 3.26313 -2.60434 0
M  V30 9211 H 907.79 1.95482 -6.42835 0
M  V30 9212 N 910.51 1.48831 0.518367 0
M  V30 9213 C 911.442 1.60317 1.63802 0
M  V30 9214 C 912.455 0.486771 1.55352 0
M  V30 9215 O 913.644 0.758111 1.61601 0
M  V30 9216 C 910.744 1.52771 3.02513 0
M  V30 9217 C 909.917 2.79649 3.36326 0
M  V30 9218 C 908.976 2.65396 4.54369 0
M  V30 9219 O 908.002 3.39304 4.57013 0
M  V30 9220 N 909.204 1.75784 5.53245 0
M  V30 9221 H 911.969 2.56878 1.54383 0
M  V30 9222 H 909.53 1.45701 0.705889 0
M  V30 9223 H 911.522 1.40914 3.79375 0
M  V30 9224 H 910.092 0.641381 3.05949 0
M  V30 9225 H 909.312 3.05985 2.48529 0
M  V30 9226 H 910.6 3.63799 3.55707 0
M  V30 9227 H 909.998 1.14961 5.53896 0
M  V30 9228 H 908.555 1.69859 6.29278 0
M  V30 9229 N 911.988 -0.768124 1.37614 0
M  V30 9230 C 913.234 -1.52907 1.33219 0
M  V30 9231 C 913.567 -1.94026 -0.0821218 0
M  V30 9232 O 912.842 -1.64345 -1.04023 0
M  V30 9233 C 913.125 -2.79164 2.27463 0
M  V30 9234 C 912.978 -2.44276 3.7769 0
M  V30 9235 C 914.297 -3.81115 2.20089 0
M  V30 9236 H 911.416 -0.554712 0.485246 0
M  V30 9237 H 914.058 -0.880911 1.68345 0
M  V30 9238 H 912.208 -3.34472 1.97639 0
M  V30 9239 H 913.88 -1.94855 4.18126 0
M  V30 9240 H 912.123 -1.76925 3.96081 0
M  V30 9241 H 912.794 -3.34544 4.39072 0
M  V30 9242 H 915.27 -3.35311 2.46386 0
M  V30 9243 H 914.146 -4.67174 2.88166 0
M  V30 9244 H 914.407 -4.25644 1.19498 0
M  V30 9245 N 913.466 -1.22244 -0.994698 0
M  V30 9246 C 914.713 -1.04591 -1.73398 0
M  V30 9247 C 915.041 0.419223 -1.89928 0
M  V30 9248 O 914.296 1.32714 -1.43824 0
M  V30 9249 C 914.595 -1.70014 -3.14372 0
M  V30 9250 C 914.261 -3.19903 -3.17762 0
M  V30 9251 C 912.923 -3.60803 -3.18394 0
M  V30 9252 C 915.275 -4.15851 -3.14194 0
M  V30 9253 C 912.603 -4.96135 -3.13157 0
M  V30 9254 C 914.955 -5.51157 -3.10498 0
M  V30 9255 C 913.619 -5.91439 -3.09445 0
M  V30 9256 H 912.889 -0.382725 -0.63451 0
M  V30 9257 H 915.536 -1.51981 -1.16508 0
M  V30 9258 H 913.841 -1.14945 -3.7456 0
M  V30 9259 H 915.538 -1.53848 -3.70313 0
M  V30 9260 H 912.128 -2.87336 -3.18019 0
M  V30 9261 H 916.312 -3.85272 -3.12857 0
M  V30 9262 H 911.568 -5.26578 -3.10685 0
M  V30 9263 H 915.742 -6.2523 -3.06692 0
M  V30 9264 H 913.369 -6.96271 -3.05141 0
M  V30 9265 N 914.944 1.19125 -1.03184 0
M  V30 9266 C 916.221 1.84674 -0.644574 0
M  V30 9267 C 916.601 1.92042 0.876534 0
M  V30 9268 O 915.949 1.43965 1.77444 0
M  V30 9269 C 916.159 3.23477 -1.3101 0
M  V30 9270 C 917.507 3.99608 -1.43524 0
M  V30 9271 O 918.531 3.32886 -1.2675 0
M  V30 9272 O 917.39 5.19132 -1.70776 0
M  V30 9273 H 914.484 0.795968 -0.22442 0
M  V30 9274 H 917.03 1.2659 -1.13018 0
M  V30 9275 H 915.802 3.12967 -2.34878 0
M  V30 9276 H 915.425 3.89209 -0.812547 0
M  V30 9277 N 916.422 0.810101 1.35185 0
M  V30 9278 C 917.352 0.237453 2.32289 0
M  V30 9279 C 918.333 -0.639032 1.5764 0
M  V30 9280 O 919.518 -0.568575 1.8569 0
M  V30 9281 C 916.648 -0.611964 3.41866 0
M  V30 9282 C 915.602 0.166318 4.27677 0
M  V30 9283 C 914.928 -0.805024 5.28605 0
M  V30 9284 C 916.228 1.36729 5.04086 0
M  V30 9285 H 917.922 1.04874 2.80432 0
M  V30 9286 H 915.468 0.505751 1.34826 0
M  V30 9287 H 917.421 -1.02267 4.08802 0
M  V30 9288 H 916.145 -1.45617 2.92341 0
M  V30 9289 H 914.804 0.558238 3.62325 0
M  V30 9290 H 914.452 -1.64483 4.75347 0
M  V30 9291 H 914.152 -0.288577 5.86891 0
M  V30 9292 H 915.676 -1.21386 5.98413 0
M  V30 9293 H 917.09 1.03128 5.63948 0
M  V30 9294 H 915.487 1.81848 5.71884 0
M  V30 9295 H 916.557 2.15214 4.34524 0
M  V30 9296 N 917.9 -1.47166 0.563914 0
M  V30 9297 C 919.128 -2.06846 0.0474287 0
M  V30 9298 C 919.543 -1.41557 -1.24928 0
M  V30 9299 O 918.9 -0.514376 -1.75101 0
M  V30 9300 C 918.951 -3.6121 -0.144831 0
M  V30 9301 O 918.672 -4.24052 1.10053 0
M  V30 9302 C 920.173 -4.37773 -0.69783 0
M  V30 9303 H 917.393 -0.669217 0.0488896 0
M  V30 9304 H 919.937 -1.89072 0.779235 0
M  V30 9305 H 918.092 -3.78474 -0.82679 0
M  V30 9306 H 918.506 -5.16677 0.902481 0
M  V30 9307 H 919.98 -5.46438 -0.781616 0
M  V30 9308 H 920.457 -4.04517 -1.71063 0
M  V30 9309 H 921.063 -4.25269 -0.0513516 0
M  V30 9310 N 919.378 -0.300708 -1.54705 0
M  V30 9311 C 920.326 0.591264 -2.2496 0
M  V30 9312 C 921.32 1.13725 -1.2555 0
M  V30 9313 O 922.526 1.08793 -1.43402 0
M  V30 9314 H 918.901 0.209278 -0.722293 0
M  V30 9315 H 920.872 -0.0238175 -2.9839 0
M  V30 9316 C 919.621 1.75179 -3.00346 0
M  V30 9317 H 918.944 1.34089 -3.76643 0
M  V30 9318 H 920.384 2.35198 -3.52786 0
M  V30 9319 C 918.843 2.65574 -2.07298 0
M  V30 9320 O 919.373 3.6666 -1.64083 0
M  V30 9321 N 917.579 2.33301 -1.7326 0
M  V30 9322 H 917.126 1.51142 -2.08599 0
M  V30 9323 H 917.084 2.94049 -1.11278 0
M  V30 9324 N 920.856 1.57574 -0.0284266 0
M  V30 9325 C 922.104 1.91393 0.649079 0
M  V30 9326 C 922.425 0.905368 1.72708 0
M  V30 9327 O 921.695 -0.0532107 1.95828 0
M  V30 9328 H 920.275 0.70646 0.24274 0
M  V30 9329 H 922.937 1.94752 -0.076066 0
M  V30 9330 H 922.033 2.91988 1.10226 0
M  V30 9331 N 922.334 -0.244713 1.55689 0
M  V30 9332 C 923.582 -0.970525 1.77272 0
M  V30 9333 C 923.903 -1.85771 0.592804 0
M  V30 9334 O 923.173 -1.91952 -0.391323 0
M  V30 9335 H 921.753 -0.361342 0.653789 0
M  V30 9336 H 924.415 -0.262134 1.93129 0
M  V30 9337 H 923.511 -1.59096 2.68505 0
M  V30 9338 N 923.813 -1.49104 -0.510467 0
M  V30 9339 C 925.224 -1.51423 -1.09215 0
M  V30 9340 C 925.575 -0.295035 -1.93969 0
M  V30 9341 O 924.7 0.596064 -2.08029 0
M  V30 9342 C 925.295 -2.74387 -1.98739 0
M  V30 9343 C 923.854 -2.79515 -2.52088 0
M  V30 9344 C 923.001 -2.4521 -1.29488 0
M  V30 9345 H 925.952 -1.55938 -0.294807 0
M  V30 9346 H 925.973 -2.54012 -2.83298 0
M  V30 9347 H 925.485 -3.63105 -1.37026 0
M  V30 9348 H 923.586 -1.95054 -3.17466 0
M  V30 9349 H 923.699 -3.81447 -2.89887 0
M  V30 9350 H 922.063 -1.96785 -1.61703 0
M  V30 9351 H 922.846 -3.36192 -0.694978 0
M  V30 9352 N 925.291 0.760815 -1.38019 0
M  V30 9353 C 926.221 1.88811 -1.37377 0
M  V30 9354 C 927.202 1.68388 -0.240737 0
M  V30 9355 O 928.387 1.89086 -0.442739 0
M  V30 9356 C 925.517 3.26244 -1.1909 0
M  V30 9357 C 924.471 3.61254 -2.29521 0
M  V30 9358 C 923.797 4.97346 -1.96345 0
M  V30 9359 C 925.097 3.66874 -3.71753 0
M  V30 9360 H 926.791 1.89606 -2.31711 0
M  V30 9361 H 924.337 0.910818 -1.11535 0
M  V30 9362 H 926.29 4.04755 -1.17267 0
M  V30 9363 H 925.014 3.2591 -0.212152 0
M  V30 9364 H 923.673 2.85057 -2.30517 0
M  V30 9365 H 923.321 4.93564 -0.969728 0
M  V30 9366 H 923.021 5.21739 -2.703 0
M  V30 9367 H 924.545 5.78244 -1.96129 0
M  V30 9368 H 925.959 4.35514 -3.72828 0
M  V30 9369 H 924.356 4.02772 -4.44853 0
M  V30 9370 H 925.426 2.67273 -4.0459 0
M  V30 9371 N 926.769 1.22769 0.988202 0
M  V30 9372 C 928.18 1.0512 1.54294 0
M  V30 9373 C 928.531 -0.383904 1.92407 0
M  V30 9374 O 927.656 -1.26955 1.75246 0
M  V30 9375 C 928.251 1.90198 2.80375 0
M  V30 9376 C 926.81 1.76831 3.32276 0
M  V30 9377 C 925.957 1.86377 2.05326 0
M  V30 9378 H 928.908 1.36546 0.808758 0
M  V30 9379 H 928.929 1.42216 3.52923 0
M  V30 9380 H 928.441 2.9464 2.52605 0
M  V30 9381 H 926.542 0.751412 3.64945 0
M  V30 9382 H 926.655 2.59771 4.02562 0
M  V30 9383 H 925.019 1.2987 2.19103 0
M  V30 9384 H 925.802 2.9236 1.79946 0
M  V30 9385 N 928.247 -1.18576 1.03814 0
M  V30 9386 C 929.495 -1.88121 0.738574 0
M  V30 9387 C 929.816 -1.80587 -0.735744 0
M  V30 9388 O 929.086 -1.22251 -1.53074 0
M  V30 9389 H 927.666 -0.696417 0.270208 0
M  V30 9390 H 930.328 -1.43912 1.31435 0
M  V30 9391 H 929.424 -2.94222 1.04115 0
M  V30 9392 N 929.725 -0.817259 -1.34754 0
M  V30 9393 C 930.655 -0.249769 -2.3216 0
M  V30 9394 C 931.636 0.630663 -1.57977 0
M  V30 9395 O 932.821 0.558719 -1.85989 0
M  V30 9396 C 929.951 0.593825 -3.42186 0
M  V30 9397 C 928.905 -0.188997 -4.27583 0
M  V30 9398 C 928.231 0.776979 -5.29025 0
M  V30 9399 C 929.531 -1.39401 -5.03354 0
M  V30 9400 H 931.225 -1.06359 -2.79872 0
M  V30 9401 H 928.771 -0.512894 -1.34556 0
M  V30 9402 H 930.724 1.00097 -4.09339 0
M  V30 9403 H 929.448 1.44064 -2.93109 0
M  V30 9404 H 928.107 -0.577445 -3.62024 0
M  V30 9405 H 927.755 1.61959 -4.76212 0
M  V30 9406 H 927.455 0.257448 -5.87036 0
M  V30 9407 H 928.979 1.18211 -5.99048 0
M  V30 9408 H 930.393 -1.06117 -5.63393 0
M  V30 9409 H 928.79 -1.84878 -5.70912 0
M  V30 9410 H 929.86 -2.17515 -4.33377 0
M  V30 9411 N 931.203 1.46865 -0.571711 0
M  V30 9412 C 932.153 2.27219 0.188503 0
M  V30 9413 C 933.137 1.35221 0.872019 0
M  V30 9414 O 934.329 1.59474 0.76793 0
M  V30 9415 C 931.458 3.21321 1.20862 0
M  V30 9416 C 930.544 4.20803 0.527783 0
M  V30 9417 N 930.935 5.04132 -0.410403 0
M  V30 9418 C 929.233 4.39128 0.779909 0
M  V30 9419 C 929.934 5.76071 -0.80728 0
M  V30 9420 N 928.91 5.43368 -0.158865 0
M  V30 9421 H 932.712 2.89034 -0.532611 0
M  V30 9422 H 930.226 1.57581 -0.392696 0
M  V30 9423 H 932.223 3.77586 1.76733 0
M  V30 9424 H 930.883 2.61065 1.93067 0
M  V30 9425 H 931.894 5.11911 -0.785351 0
M  V30 9426 H 928.571 3.90031 1.48937 0
M  V30 9427 H 929.961 6.53082 -1.57903 0
M  V30 9428 N 932.681 0.308908 1.54543 0
M  V30 9429 C 933.611 -0.556657 2.26768 0
M  V30 9430 C 934.592 -1.13145 1.27013 0
M  V30 9431 O 935.777 -1.15931 1.558 0
M  V30 9432 C 932.907 -1.72481 3.01443 0
M  V30 9433 C 931.861 -1.28001 4.08411 0
M  V30 9434 C 931.187 -2.53395 4.70845 0
M  V30 9435 C 932.487 -0.405497 5.20724 0
M  V30 9436 H 934.181 0.0457618 2.99365 0
M  V30 9437 H 931.727 0.0234495 1.43981 0
M  V30 9438 H 933.68 -2.3365 3.50693 0
M  V30 9439 H 932.404 -2.35359 2.26437 0
M  V30 9440 H 931.063 -0.69133 3.60022 0
M  V30 9441 H 930.711 -3.14604 3.92471 0
M  V30 9442 H 930.411 -2.2433 5.43093 0
M  V30 9443 H 931.935 -3.15352 5.22863 0
M  V30 9444 H 933.349 -0.923076 5.6582 0
M  V30 9445 H 931.746 -0.208282 5.99738 0
M  V30 9446 H 932.816 0.567412 4.81569 0
M  V30 9447 N 934.159 -1.57557 0.0367827 0
M  V30 9448 C 935.406 -1.92114 -0.640185 0
M  V30 9449 C 935.734 -0.913887 -1.71693 0
M  V30 9450 O 934.989 0.0760343 -1.95552 0
M  V30 9451 C 935.288 -3.33387 -1.28794 0
M  V30 9452 C 934.954 -4.4961 -0.340819 0
M  V30 9453 C 933.616 -4.81133 -0.0801574 0
M  V30 9454 C 935.968 -5.20283 0.309106 0
M  V30 9455 C 933.296 -5.80683 0.838107 0
M  V30 9456 C 935.648 -6.20813 1.21547 0
M  V30 9457 C 934.312 -6.50773 1.48495 0
M  V30 9458 H 933.582 -0.702996 -0.23426 0
M  V30 9459 H 936.229 -1.91238 0.100188 0
M  V30 9460 H 934.534 -3.30561 -2.10324 0
M  V30 9461 H 936.231 -3.57399 -1.81843 0
M  V30 9462 H 932.821 -4.25002 -0.554161 0
M  V30 9463 H 937.005 -4.96153 0.120794 0
M  V30 9464 H 932.261 -6.02238 1.05451 0
M  V30 9465 H 936.435 -6.74692 1.72522 0
M  V30 9466 H 934.062 -7.27727 2.19814 0
M  V30 9467 N 935.637 0.236453 -1.55816 0
M  V30 9468 C 936.862 0.98449 -1.82545 0
M  V30 9469 C 937.287 1.77755 -0.615206 0
M  V30 9470 O 936.645 1.75982 0.435895 0
M  V30 9471 C 936.693 1.88973 -3.07118 0
M  V30 9472 O 935.797 2.98298 -2.84766 0
M  V30 9473 H 935.138 0.279577 -0.602273 0
M  V30 9474 H 937.668 0.254277 -2.03014 0
M  V30 9475 H 937.678 2.3024 -3.36829 0
M  V30 9476 H 936.353 1.30671 -3.94839 0
M  V30 9477 H 934.93 2.61085 -2.6625 0
M  V30 9478 N 937.115 1.49373 0.502552 0
M  V30 9479 C 938.047 1.62045 1.62093 0
M  V30 9480 C 939.06 0.503221 1.54827 0
M  V30 9481 O 940.249 0.775208 1.60788 0
M  V30 9482 C 937.349 1.55971 3.00876 0
M  V30 9483 C 936.522 2.832 3.33341 0
M  V30 9484 C 935.581 2.702 4.51529 0
M  V30 9485 O 934.607 3.44132 4.53389 0
M  V30 9486 N 935.809 1.81642 5.5135 0
M  V30 9487 H 938.574 2.58501 1.51649 0
M  V30 9488 H 936.135 1.46442 0.690396 0
M  V30 9489 H 938.127 1.4493 3.77859 0
M  V30 9490 H 936.697 0.673795 3.05252 0
M  V30 9491 H 935.917 3.08604 2.4527 0
M  V30 9492 H 937.205 3.67551 3.51829 0
M  V30 9493 H 936.603 1.20829 5.52645 0
M  V30 9494 H 935.16 1.76524 6.27441 0
M  V30 9495 N 938.594 -0.753485 1.38421 0
M  V30 9496 C 939.84 -1.51485 1.34834 0
M  V30 9497 C 940.173 -1.94102 -0.0615381 0
M  V30 9498 O 939.448 -1.65439 -1.02274 0
M  V30 9499 C 939.731 -2.76736 2.30411 0
M  V30 9500 C 939.584 -2.40256 3.80259 0
M  V30 9501 C 940.903 -3.7876 2.24119 0
M  V30 9502 H 938.022 -0.549534 0.491102 0
M  V30 9503 H 940.664 -0.863006 1.6927 0
M  V30 9504 H 938.814 -3.32357 2.01175 0
M  V30 9505 H 940.486 -1.90409 4.20169 0
M  V30 9506 H 938.729 -1.72714 3.97935 0
M  V30 9507 H 939.4 -3.29869 4.42595 0
M  V30 9508 H 941.876 -3.32679 2.49928 0
M  V30 9509 H 940.752 -4.64092 2.93104 0
M  V30 9510 H 941.013 -4.24352 1.24006 0
M  V30 9511 N 940.072 -1.23292 -0.981677 0
M  V30 9512 C 941.483 -1.05936 -1.53735 0
M  V30 9513 C 941.834 0.373695 -1.92608 0
M  V30 9514 O 940.959 1.26024 -1.75917 0
M  V30 9515 C 941.554 -1.91682 -2.79363 0
M  V30 9516 C 940.113 -1.78591 -3.31334 0
M  V30 9517 C 939.26 -1.87463 -2.04335 0
M  V30 9518 H 942.211 -1.36973 -0.801505 0
M  V30 9519 H 942.232 -1.44085 -3.52164 0
M  V30 9520 H 941.744 -2.95975 -2.51039 0
M  V30 9521 H 939.845 -0.770755 -3.64541 0
M  V30 9522 H 939.958 -2.61902 -4.01179 0
M  V30 9523 H 938.322 -1.3103 -2.18411 0
M  V30 9524 H 939.105 -2.9331 -1.78394 0
M  V30 9525 N 941.55 1.18024 -1.04442 0
M  V30 9526 C 942.79 1.89787 -0.758957 0
M  V30 9527 C 943.154 1.78757 0.700707 0
M  V30 9528 O 944.355 2.45265 1.09994 0
M  V30 9529 C 942.626 3.36047 -1.21685 0
M  V30 9530 S 944.185 4.25864 -1.05761 0
M  V30 9531 H 941.003 0.655311 -0.275841 0
M  V30 9532 H 943.605 1.42589 -1.33749 0
M  V30 9533 H 942.309 3.41606 -2.2745 0
M  V30 9534 H 941.84 3.88286 -0.63227 0
M  V30 9535 H 943.855 4.96195 0.022729 0
M  V30 9536 N 943.028 0.824394 1.34319 0
M  V30 9537 C 944.275 0.413167 1.9824 0
M  V30 9538 C 944.603 -1.02412 1.65354 0
M  V30 9539 O 943.858 -1.72831 0.91803 0
M  V30 9540 C 944.157 0.564024 3.52921 0
M  V30 9541 C 943.823 1.96725 4.05722 0
M  V30 9542 C 942.485 2.35111 4.19853 0
M  V30 9543 C 944.837 2.88447 4.34106 0
M  V30 9544 C 942.165 3.64551 4.59695 0
M  V30 9545 C 944.517 4.17353 4.75394 0
M  V30 9546 C 943.181 4.55714 4.8773 0
M  V30 9547 H 942.451 0.151188 0.725412 0
M  V30 9548 H 945.098 1.04863 1.60238 0
M  V30 9549 H 943.403 -0.154816 3.91494 0
M  V30 9550 H 945.1 0.226347 4.00361 0
M  V30 9551 H 941.69 1.65908 3.95187 0
M  V30 9552 H 945.874 2.60034 4.22725 0
M  V30 9553 H 941.13 3.94097 4.67437 0
M  V30 9554 H 945.304 4.88512 4.96315 0
M  V30 9555 H 942.931 5.56064 5.1836 0
M  V30 9556 N 944.506 -1.46559 0.579492 0
M  V30 9557 C 945.922 -1.57771 0.240921 0
M  V30 9558 C 946.122 -1.57505 -1.25676 0
M  V30 9559 O 945.178 -1.4903 -2.03829 0
M  V30 9560 C 946.491 -2.87311 0.887285 0
M  V30 9561 C 948.039 -3.00937 0.860576 0
M  V30 9562 C 948.514 -4.33208 1.48642 0
M  V30 9563 N 950.005 -4.39899 1.45062 0
M  V30 9564 C 950.74 -5.40856 1.90428 0
M  V30 9565 N 950.236 -6.48503 2.43752 0
M  V30 9566 N 952.029 -5.32037 1.81364 0
M  V30 9567 H 944.18 -1.44976 1.55228 0
M  V30 9568 H 946.443 -0.691354 0.648639 0
M  V30 9569 H 946.149 -2.93307 1.94071 0
M  V30 9570 H 946.023 -3.75141 0.393577 0
M  V30 9571 H 948.41 -2.94524 -0.184223 0
M  V30 9572 H 948.491 -2.14591 1.39227 0
M  V30 9573 H 948.135 -4.40378 2.5304 0
M  V30 9574 H 948.065 -5.18323 0.92998 0
M  V30 9575 H 950.556 -3.62706 1.0608 0
M  V30 9576 H 950.869 -7.21744 2.76234 0
M  V30 9577 H 949.214 -6.49332 2.47776 0
M  V30 9578 H 952.405 -4.46841 1.39465 0
M  V30 9579 H 952.578 -6.10573 2.17035 0
M  V30 9580 N 945.984 -0.3171 -1.54377 0
M  V30 9581 C 947.23 0.287836 -2.00747 0
M  V30 9582 C 947.563 1.52292 -1.20502 0
M  V30 9583 O 946.838 1.92391 -0.285626 0
M  V30 9584 C 947.121 0.628423 -3.54574 0
M  V30 9585 C 946.974 -0.616922 -4.45549 0
M  V30 9586 C 948.293 1.44862 -4.15575 0
M  V30 9587 H 945.412 0.103144 -0.729747 0
M  V30 9588 H 948.054 -0.432396 -1.85014 0
M  V30 9589 H 946.204 1.24203 -3.68111 0
M  V30 9590 H 947.876 -1.25526 -4.43893 0
M  V30 9591 H 946.119 -1.24706 -4.15489 0
M  V30 9592 H 946.79 -0.334243 -5.50987 0
M  V30 9593 H 949.266 0.930015 -4.05574 0
M  V30 9594 H 948.142 1.6557 -5.23333 0
M  V30 9595 H 948.403 2.44279 -3.68484 0
M  V30 9596 N 947.462 1.57535 -0.0451378 0
M  V30 9597 C 948.392 2.14208 0.929372 0
M  V30 9598 C 949.373 1.06221 1.32858 0
M  V30 9599 O 950.558 1.34132 1.40436 0
M  V30 9600 C 947.688 2.68217 2.20629 0
M  V30 9601 C 946.642 3.81134 1.94734 0
M  V30 9602 C 945.968 4.21636 3.28828 0
M  V30 9603 C 947.268 5.06531 1.27374 0
M  V30 9604 H 948.962 2.95886 0.457348 0
M  V30 9605 H 946.508 1.42332 0.218544 0
M  V30 9606 H 948.461 3.06502 2.89196 0
M  V30 9607 H 947.185 1.83722 2.70026 0
M  V30 9608 H 945.844 3.43312 1.28579 0
M  V30 9609 H 945.492 3.34099 3.76014 0
M  V30 9610 H 945.192 4.97736 3.12302 0
M  V30 9611 H 946.716 4.62516 3.98637 0
M  V30 9612 H 948.13 5.423 1.85967 0
M  V30 9613 H 946.527 5.87735 1.21194 0
M  V30 9614 H 947.597 4.84261 0.248913 0
M  V30 9615 N 948.94 -0.228186 1.55939 0
M  V30 9616 C 950.186 -0.954964 1.78909 0
M  V30 9617 C 950.519 -1.8425 0.613648 0
M  V30 9618 O 949.794 -1.90604 -0.38737 0
M  V30 9619 C 950.077 -1.79957 3.1191 0
M  V30 9620 C 949.93 -0.938968 4.3989 0
M  V30 9621 C 951.249 -2.77859 3.41295 0
M  V30 9622 H 948.368 -0.345745 0.650868 0
M  V30 9623 H 951.01 -0.224244 1.88672 0
M  V30 9624 H 949.16 -2.42256 3.03717 0
M  V30 9625 H 950.832 -0.333225 4.60095 0
M  V30 9626 H 949.075 -0.244096 4.33113 0
M  V30 9627 H 949.746 -1.56416 5.29375 0
M  V30 9628 H 952.222 -2.25695 3.49572 0
M  V30 9629 H 951.098 -3.34062 4.35538 0
M  V30 9630 H 951.359 -3.55266 2.63132 0
M  V30 9631 N 950.418 -1.49637 -0.494624 0
M  V30 9632 C 951.658 -1.61067 -1.25844 0
M  V30 9633 C 952.022 -0.293666 -1.89741 0
M  V30 9634 O 953.223 -0.283202 -2.67304 0
M  V30 9635 C 951.494 -2.74218 -2.29215 0
M  V30 9636 S 953.053 -3.05639 -3.1485 0
M  V30 9637 H 949.871 -0.568056 -0.42759 0
M  V30 9638 H 952.473 -1.87323 -0.559491 0
M  V30 9639 H 951.177 -3.68422 -1.80813 0
M  V30 9640 H 950.708 -2.49975 -3.0377 0
M  V30 9641 H 952.723 -2.47651 -4.29981 0
M  V30 9642 N 951.896 0.746133 -1.38819 0
M  V30 9643 C 953.144 1.50247 -1.35167 0
M  V30 9644 C 953.465 1.94921 0.0553531 0
M  V30 9645 O 952.735 1.68187 1.00449 0
M  V30 9646 H 951.315 0.557337 -0.497377 0
M  V30 9647 H 953.977 0.886472 -1.73573 0
M  V30 9648 H 953.073 2.38986 -2.00728 0
M  V30 9649 N 953.375 1.23811 0.975125 0
M  V30 9650 C 954.623 1.07124 1.71373 0
M  V30 9651 C 954.944 -0.391864 1.91022 0
M  V30 9652 O 954.214 -1.28041 1.48265 0
M  V30 9653 H 952.794 0.393415 0.635007 0
M  V30 9654 H 955.456 1.55612 1.17349 0
M  V30 9655 H 954.552 1.56338 2.7012 0
M  V30 9656 N 954.853 -1.17469 1.05066 0
M  V30 9657 C 956.13 -1.83625 0.673872 0
M  V30 9658 C 956.51 -1.93412 -0.845871 0
M  V30 9659 O 955.858 -1.4677 -1.75131 0
M  V30 9660 C 956.068 -3.21352 1.36139 0
M  V30 9661 C 957.416 -3.97274 1.49863 0
M  V30 9662 O 958.44 -3.30827 1.3203 0
M  V30 9663 O 957.299 -5.16349 1.79013 0
M  V30 9664 H 954.393 -0.792297 0.237055 0
M  V30 9665 H 956.939 -1.24776 1.15017 0
M  V30 9666 H 955.711 -3.0919 2.39827 0
M  V30 9667 H 955.334 -3.87867 0.874364 0
M  V30 9668 N 956.331 -0.831506 -1.3388 0
M  V30 9669 C 957.579 -0.422837 -1.97627 0
M  V30 9670 C 957.9 1.01961 -1.6622 0
M  V30 9671 O 957.17 1.70916 -0.957323 0
M  V30 9672 H 955.75 -0.153365 -0.731087 0
M  V30 9673 H 958.412 -1.06284 -1.6337 0
M  V30 9674 H 957.508 -0.548858 -3.07236 0
M  V30 9675 N 957.809 1.4625 -0.587256 0
M  V30 9676 C 959.037 2.06744 -0.08033 0
M  V30 9677 C 959.452 1.43527 1.2266 0
M  V30 9678 O 958.809 0.542168 1.74261 0
M  V30 9679 C 958.86 3.61394 0.0873469 0
M  V30 9680 O 958.581 4.22247 -1.16785 0
M  V30 9681 C 960.082 4.38828 0.628095 0
M  V30 9682 H 957.302 0.668354 -0.0595301 0
M  V30 9683 H 959.846 1.87808 -0.809217 0
M  V30 9684 H 958.001 3.79742 0.766473 0
M  V30 9685 H 958.415 5.15176 -0.984565 0
M  V30 9686 H 959.889 5.47613 0.694583 0
M  V30 9687 H 960.366 4.07188 1.64606 0
M  V30 9688 H 960.972 4.25297 -0.0163115 0
M  V30 9689 N 959.287 0.325282 1.54207 0
M  V30 9690 C 960.533 -0.277185 2.00897 0
M  V30 9691 C 960.866 -1.51651 1.21308 0
M  V30 9692 O 960.141 -1.92237 0.295825 0
M  V30 9693 C 960.424 -0.60961 3.54902 0
M  V30 9694 C 960.277 0.640542 4.45216 0
M  V30 9695 C 961.596 -1.42656 4.16338 0
M  V30 9696 H 958.715 -0.0992722 0.730284 0
M  V30 9697 H 961.357 0.442201 1.84783 0
M  V30 9698 H 959.507 -1.22249 3.68765 0
M  V30 9699 H 961.179 1.27878 4.43221 0
M  V30 9700 H 959.422 1.26908 4.14821 0
M  V30 9701 H 960.093 0.363459 5.50802 0
M  V30 9702 H 962.569 -0.908494 4.06061 0
M  V30 9703 H 961.445 -1.62792 5.24204 0
M  V30 9704 H 961.706 -2.42321 3.69774 0
M  V30 9705 N 960.765 -1.57509 0.0534917 0
M  V30 9706 C 962.013 -1.92402 -0.618548 0
M  V30 9707 C 962.334 -0.93273 -1.71246 0
M  V30 9708 O 961.604 0.0220495 -1.95888 0
M  V30 9709 H 960.184 -0.710233 -0.23147 0
M  V30 9710 H 962.846 -1.94606 0.10704 0
M  V30 9711 H 961.942 -2.93704 -1.05566 0
M  V30 9712 N 962.243 0.219913 -1.56058 0
M  V30 9713 C 963.489 0.941055 -1.80321 0
M  V30 9714 C 963.844 1.81906 -0.626735 0
M  V30 9715 O 963.137 1.87811 0.379147 0
M  V30 9716 C 963.331 1.81293 -3.08006 0
M  V30 9717 C 963.16 1.02082 -4.37961 0
M  V30 9718 C 961.93 0.715096 -5.00214 0
M  V30 9719 C 964.128 0.385342 -5.12854 0
M  V30 9720 N 962.11 -0.098246 -6.13821 0
M  V30 9721 C 963.481 -0.291319 -6.19315 0
M  V30 9722 C 965.536 0.29854 -4.97004 0
M  V30 9723 C 964.239 -1.04648 -7.11647 0
M  V30 9724 C 966.265 -0.443159 -5.89737 0
M  V30 9725 C 965.627 -1.10836 -6.95625 0
M  V30 9726 H 961.726 0.324568 -0.711463 0
M  V30 9727 H 964.31 0.211795 -1.93545 0
M  V30 9728 H 962.481 2.51399 -2.96063 0
M  V30 9729 H 964.213 2.47167 -3.20454 0
M  V30 9730 H 960.968 1.03352 -4.62185 0
M  V30 9731 H 961.392 -0.4938 -6.75197 0
M  V30 9732 H 966.034 0.798478 -4.15192 0
M  V30 9733 H 963.752 -1.55793 -7.9294 0
M  V30 9734 H 967.338 -0.511348 -5.79549 0
M  V30 9735 H 966.218 -1.6731 -7.66144 0
M  V30 9736 N 963.721 1.49897 0.486681 0
M  V30 9737 C 964.967 1.60342 1.2417 0
M  V30 9738 C 965.3 0.295694 1.91936 0
M  V30 9739 O 964.575 -0.701788 1.81398 0
M  V30 9740 C 964.858 2.77281 2.29755 0
M  V30 9741 C 964.711 4.1789 1.66397 0
M  V30 9742 C 966.03 2.89817 3.31201 0
M  V30 9743 H 963.149 0.583605 0.450083 0
M  V30 9744 H 965.791 1.82232 0.537734 0
M  V30 9745 H 963.941 2.58748 2.89796 0
M  V30 9746 H 965.613 4.47975 1.10073 0
M  V30 9747 H 963.856 4.22872 0.967579 0
M  V30 9748 H 964.527 4.95612 2.43049 0
M  V30 9749 H 967.003 3.06732 2.81167 0
M  V30 9750 H 965.879 3.7329 4.02425 0
M  V30 9751 H 966.14 1.9977 3.94391 0
M  V30 9752 N 965.199 -0.738761 1.39212 0
M  V30 9753 C 966.129 -1.86602 1.40364 0
M  V30 9754 C 967.11 -1.67984 0.267495 0
M  V30 9755 O 968.295 -1.88358 0.472765 0
M  V30 9756 C 965.425 -3.24308 1.24265 0
M  V30 9757 C 964.379 -3.57557 2.35239 0
M  V30 9758 C 963.705 -4.94159 2.04233 0
M  V30 9759 C 965.005 -3.60914 3.77543 0
M  V30 9760 H 966.699 -1.85896 2.34698 0
M  V30 9761 H 964.245 -0.892959 1.1297 0
M  V30 9762 H 966.198 -4.02838 1.23692 0
M  V30 9763 H 964.922 -3.25531 0.263974 0
M  V30 9764 H 963.581 -2.81354 2.35022 0
M  V30 9765 H 963.229 -4.91959 1.04813 0
M  V30 9766 H 962.929 -5.17373 2.78567 0
M  V30 9767 H 964.453 -5.7505 2.05303 0
M  V30 9768 H 965.867 -4.29528 3.79709 0
M  V30 9769 H 964.264 -3.95644 4.51205 0
M  V30 9770 H 965.334 -2.60803 4.08791 0
M  V30 9771 N 966.677 -1.24326 -0.968545 0
M  V30 9772 C 967.925 -1.08032 -1.70803 0
M  V30 9773 C 968.246 0.381728 -1.91227 0
M  V30 9774 O 967.516 1.27253 -1.48942 0
M  V30 9775 H 966.096 -0.396777 -0.632912 0
M  V30 9776 H 968.758 -1.56232 -1.16523 0
M  V30 9777 H 967.854 -1.57769 -2.69287 0
M  V30 9778 N 968.156 1.1691 -1.05688 0
M  V30 9779 C 969.119 2.19297 -0.666433 0
M  V30 9780 C 970.119 1.5826 0.284674 0
M  V30 9781 O 971.309 1.74068 0.0678757 0
M  V30 9782 C 968.441 3.40894 0.0203656 0
M  V30 9783 H 969.634 2.55354 -1.57272 0
M  V30 9784 H 967.187 1.31078 -0.851359 0
M  V30 9785 H 967.922 3.10388 0.939686 0
M  V30 9786 H 967.707 3.86446 -0.663464 0
M  V30 9787 H 969.197 4.16664 0.279475 0
M  V30 9788 N 969.634 0.838594 1.33437 0
M  V30 9789 C 970.564 0.286672 2.31734 0
M  V30 9790 C 971.545 -0.605451 1.5896 0
M  V30 9791 O 972.73 -0.529059 1.86854 0
M  V30 9792 C 969.86 -0.539311 3.43087 0
M  V30 9793 C 968.814 0.256997 4.27228 0
M  V30 9794 C 968.14 -0.692718 5.30194 0
M  V30 9795 C 969.44 1.47391 5.01072 0
M  V30 9796 H 971.134 1.10798 2.78144 0
M  V30 9797 H 968.68 0.534235 1.33723 0
M  V30 9798 H 970.633 -0.935724 4.1088 0
M  V30 9799 H 969.357 -1.39383 2.95364 0
M  V30 9800 H 968.016 0.634967 3.61059 0
M  V30 9801 H 967.664 -1.54363 4.78729 0
M  V30 9802 H 967.364 -0.164023 5.87371 0
M  V30 9803 H 968.888 -1.08665 6.00853 0
M  V30 9804 H 970.302 1.15067 5.61634 0
M  V30 9805 H 968.699 1.93937 5.67898 0
M  V30 9806 H 969.769 2.24382 4.29861 0
M  V30 9807 N 971.112 -1.45937 0.595003 0
M  V30 9808 C 972.022 -2.34221 -0.133325 0
M  V30 9809 C 973.038 -1.50491 -0.873407 0
M  V30 9810 O 974.214 -1.83328 -0.833828 0
M  V30 9811 C 971.279 -3.27896 -1.12628 0
M  V30 9812 C 970.34 -4.27529 -0.389532 0
M  V30 9813 C 969.573 -5.16729 -1.33519 0
M  V30 9814 O 969.796 -5.09102 -2.57238 0
M  V30 9815 O 968.73 -5.96023 -0.839084 0
M  V30 9816 H 972.556 -2.97877 0.591861 0
M  V30 9817 H 970.141 -1.45113 0.355329 0
M  V30 9818 H 972.023 -3.85654 -1.69851 0
M  V30 9819 H 970.698 -2.6682 -1.83272 0
M  V30 9820 H 969.605 -3.73424 0.224843 0
M  V30 9821 H 970.938 -4.91425 0.276169 0
M  V30 9822 N 972.59 -0.333456 -1.54032 0
M  V30 9823 C 973.5 0.536674 -2.28379 0
M  V30 9824 C 974.516 1.12068 -1.33104 0
M  V30 9825 O 975.692 1.13853 -1.66131 0
M  V30 9826 C 972.757 1.67677 -3.03456 0
M  V30 9827 C 971.818 1.12357 -4.14336 0
M  V30 9828 C 971.051 2.20933 -4.85823 0
M  V30 9829 O 971.274 3.41466 -4.569 0
M  V30 9830 O 970.208 1.85795 -5.72507 0
M  V30 9831 H 974.034 -0.0674003 -3.03625 0
M  V30 9832 H 971.619 -0.098823 -1.49073 0
M  V30 9833 H 973.501 2.34032 -3.50438 0
M  V30 9834 H 972.176 2.26684 -2.31076 0
M  V30 9835 H 971.083 0.424827 -3.7168 0
M  V30 9836 H 972.416 0.578497 -4.88789 0
M  V30 9837 N 974.068 1.57479 -0.061844 0
M  V30 9838 C 975.296 1.97429 0.618837 0
M  V30 9839 C 975.711 0.939826 1.63746 0
M  V30 9840 O 975.068 -0.0747173 1.82347 0
M  V30 9841 C 975.119 3.3746 1.29628 0
M  V30 9842 O 974.84 4.36941 0.318431 0
M  V30 9843 C 976.341 3.92228 2.06572 0
M  V30 9844 H 973.561 0.649513 0.168444 0
M  V30 9845 H 976.105 2.04078 -0.131303 0
M  V30 9846 H 974.26 3.31928 1.99757 0
M  V30 9847 H 974.674 5.18313 0.803239 0
M  V30 9848 H 976.148 4.92458 2.49377 0
M  V30 9849 H 976.625 3.28231 2.91824 0
M  V30 9850 H 977.231 4.01131 1.4133 0
M  V30 9851 N 975.546 -0.211634 1.56173 0
M  V30 9852 C 976.962 -0.56177 1.49386 0
M  V30 9853 C 977.162 -1.86666 0.758813 0
M  V30 9854 O 976.218 -2.50681 0.302534 0
M  V30 9855 C 977.531 -0.631815 2.93987 0
M  V30 9856 C 979.079 -0.721773 3.04564 0
M  V30 9857 C 979.554 -0.823075 4.50544 0
M  V30 9858 N 981.045 -0.887038 4.54627 0
M  V30 9859 C 981.78 -0.985304 5.64871 0
M  V30 9860 N 981.276 -1.0469 6.84844 0
M  V30 9861 N 983.069 -1.02121 5.52746 0
M  V30 9862 H 975.22 0.64452 2.02385 0
M  V30 9863 H 977.483 0.227466 0.920306 0
M  V30 9864 H 977.189 0.257592 3.50755 0
M  V30 9865 H 977.063 -1.4921 3.46433 0
M  V30 9866 H 979.45 -1.60162 2.47855 0
M  V30 9867 H 979.531 0.164385 2.55271 0
M  V30 9868 H 979.175 0.0523511 5.07873 0
M  V30 9869 H 979.105 -1.72479 4.97552 0
M  V30 9870 H 981.596 -0.849352 3.68231 0
M  V30 9871 H 981.909 -1.12193 7.64613 0
M  V30 9872 H 980.254 -1.01586 6.87536 0
M  V30 9873 H 983.445 -0.969814 4.57943 0
M  V30 9874 H 983.618 -1.09434 6.38693 0
M  V30 9875 N 977.024 -1.50153 -0.478725 0
M  V30 9876 C 978.254 -1.64266 -1.253 0
M  V30 9877 C 978.662 -0.322256 -1.86435 0
M  V30 9878 O 978.005 0.704925 -1.69636 0
M  V30 9879 C 978.067 -2.67017 -2.40712 0
M  V30 9880 C 977.731 -4.10779 -2.00274 0
M  V30 9881 C 978.728 -4.96889 -1.52963 0
M  V30 9882 C 976.413 -4.5665 -2.09228 0
M  V30 9883 C 978.407 -6.26914 -1.15139 0
M  V30 9884 C 976.094 -5.86683 -1.71015 0
M  V30 9885 C 977.092 -6.71641 -1.24048 0
M  V30 9886 O 976.78 -7.99248 -0.863617 0
M  V30 9887 H 976.512 -0.555382 -0.385392 0
M  V30 9888 H 979.066 -1.97078 -0.578751 0
M  V30 9889 H 977.296 -2.29432 -3.11284 0
M  V30 9890 H 978.985 -2.70428 -3.02694 0
M  V30 9891 H 979.751 -4.62669 -1.45474 0
M  V30 9892 H 975.63 -3.90674 -2.44735 0
M  V30 9893 H 979.174 -6.93179 -0.784089 0
M  V30 9894 H 975.071 -6.20426 -1.78162 0
M  V30 9895 H 975.839 -8.12452 -0.993139 0
M  V30 9896 N 978.502 0.731368 -1.39602 0
M  V30 9897 C 979.918 1.03739 -1.21286 0
M  V30 9898 C 980.118 2.01353 -0.0769875 0
M  V30 9899 O 979.174 2.45978 0.570193 0
M  V30 9900 C 980.487 1.59621 -2.54837 0
M  V30 9901 C 982.035 1.71683 -2.61713 0
M  V30 9902 C 982.51 2.30973 -3.95494 0
M  V30 9903 N 984.001 2.38378 -3.97153 0
M  V30 9904 C 984.736 2.852 -4.97442 0
M  V30 9905 N 984.232 3.31891 -6.08129 0
M  V30 9906 N 986.025 2.84441 -4.84819 0
M  V30 9907 H 978.176 0.0840456 -2.12234 0
M  V30 9908 H 980.439 0.0999038 -0.942721 0
M  V30 9909 H 980.145 0.953608 -3.38525 0
M  V30 9910 H 980.019 2.58375 -2.74813 0
M  V30 9911 H 982.406 2.35064 -1.78406 0
M  V30 9912 H 982.487 0.715714 -2.45583 0
M  V30 9913 H 982.131 1.68219 -4.79234 0
M  V30 9914 H 982.061 3.31769 -4.08946 0
M  V30 9915 H 984.552 2.05382 -3.17217 0
M  V30 9916 H 984.865 3.66138 -6.8056 0
M  V30 9917 H 983.21 3.2989 -6.11717 0
M  V30 9918 H 986.401 2.4729 -3.97448 0
M  V30 9919 H 986.574 3.20616 -5.63124 0
M  V30 9920 N 979.98 1.24838 0.961938 0
M  V30 9921 C 980.91 1.07053 2.07514 0
M  V30 9922 C 981.891 -0.0182465 1.7009 0
M  V30 9923 O 983.076 0.149915 1.9362 0
M  V30 9924 C 980.206 0.680693 3.40564 0
M  V30 9925 C 979.16 1.71889 3.91967 0
M  V30 9926 C 978.486 1.18395 5.21428 0
M  V30 9927 C 979.786 3.1161 4.19161 0
M  V30 9928 H 981.48 2.00167 2.22651 0
M  V30 9929 H 979.026 0.963799 1.0699 0
M  V30 9930 H 980.979 0.54324 4.17884 0
M  V30 9931 H 979.703 -0.28615 3.25344 0
M  V30 9932 H 978.362 1.84465 3.16809 0
M  V30 9933 H 978.01 0.207543 5.02572 0
M  V30 9934 H 977.71 1.87778 5.56788 0
M  V30 9935 H 979.234 1.05873 6.01351 0
M  V30 9936 H 980.648 3.0223 4.87165 0
M  V30 9937 H 979.045 3.78398 4.65763 0
M  V30 9938 H 980.115 3.59218 3.25715 0
M  V30 9939 N 981.458 -1.16348 1.06306 0
M  V30 9940 C 982.421 -2.18941 0.678053 0
M  V30 9941 C 983.421 -1.58409 -0.276277 0
M  V30 9942 O 984.611 -1.74101 -0.0586435 0
M  V30 9943 C 981.743 -3.409 -0.00228684 0
M  V30 9944 H 982.936 -2.54516 1.58624 0
M  V30 9945 H 980.489 -1.30625 0.858298 0
M  V30 9946 H 981.224 -3.10881 -0.923212 0
M  V30 9947 H 981.009 -3.86089 0.683949 0
M  V30 9948 H 982.499 -4.16806 -0.257374 0
M  V30 9949 N 982.937 -0.845659 -1.3299 0
M  V30 9950 C 984.177 -0.450819 -1.99366 0
M  V30 9951 C 984.541 0.973297 -1.65502 0
M  V30 9952 O 985.742 1.47222 -2.24898 0
M  V30 9953 C 984.013 -0.672825 -3.5101 0
M  V30 9954 S 985.572 -0.374216 -4.37201 0
M  V30 9955 H 982.39 -0.169273 -0.690556 0
M  V30 9956 H 984.992 -1.09642 -1.61861 0
M  V30 9957 H 983.696 -1.70855 -3.73145 0
M  V30 9958 H 983.227 -0.0133185 -3.93398 0
M  V30 9959 H 985.242 0.803342 -4.89654 0
M  V30 9960 N 984.415 1.45619 -0.602734 0
M  V30 9961 C 985.826 1.85814 -0.181636 0
M  V30 9962 C 986.177 1.5037 1.26029 0
M  V30 9963 O 985.302 0.928068 1.95489 0
M  V30 9964 C 985.897 3.37258 -0.322866 0
M  V30 9965 C 984.456 3.76375 0.043504 0
M  V30 9966 C 983.603 2.69585 -0.649561 0
M  V30 9967 H 986.554 1.36489 -0.809721 0
M  V30 9968 H 986.575 3.77874 0.446279 0
M  V30 9969 H 986.087 3.63024 -1.37241 0
M  V30 9970 H 984.188 3.56226 1.09241 0
M  V30 9971 H 984.301 4.77843 -0.346765 0
M  V30 9972 H 982.665 2.54549 -0.087706 0
M  V30 9973 H 983.448 2.98188 -1.70115 0
M  V30 9974 N 985.893 0.34162 1.53853 0
M  V30 9975 C 986.803 -0.524555 2.2866 0
M  V30 9976 C 987.819 -1.1136 1.33697 0
M  V30 9977 O 988.995 -1.1297 1.66732 0
M  V30 9978 C 986.06 -1.66065 3.04341 0
M  V30 9979 C 985.121 -1.10158 4.14926 0
M  V30 9980 C 984.354 -2.18353 4.86988 0
M  V30 9981 O 984.577 -3.39038 4.58704 0
M  V30 9982 O 983.511 -1.82756 5.73484 0
M  V30 9983 H 987.337 0.0835014 3.03585 0
M  V30 9984 H 984.922 0.106727 1.49018 0
M  V30 9985 H 986.804 -2.3217 3.51674 0
M  V30 9986 H 985.479 -2.25456 2.32275 0
M  V30 9987 H 984.386 -0.405109 3.719 0
M  V30 9988 H 985.719 -0.552567 4.89088 0
M  V30 9989 N 987.371 -1.57444 0.0701946 0
M  V30 9990 C 988.782 -1.80875 -0.462709 0
M  V30 9991 C 989.133 -0.983975 -1.69742 0
M  V30 9992 O 988.258 -0.206027 -2.15417 0
M  V30 9993 C 988.853 -3.28062 -0.84623 0
M  V30 9994 C 987.412 -3.52345 -1.32401 0
M  V30 9995 C 986.559 -2.7558 -0.308399 0
M  V30 9996 H 989.51 -1.55917 0.295907 0
M  V30 9997 H 989.531 -3.40023 -1.70776 0
M  V30 9998 H 989.043 -3.88064 0.0526033 0
M  V30 9999 H 987.144 -2.97645 -2.24139 0
M  V30 10000 H 987.257 -4.6104 -1.30304 0
M  V30 10001 H 985.621 -2.4229 -0.785337 0
M  V30 10002 H 986.404 -3.38319 0.582679 0
M  V30 10003 N 988.849 0.203349 -1.56283 0
M  V30 10004 C 990.074 0.945548 -1.84592 0
M  V30 10005 C 990.499 1.7641 -0.652772 0
M  V30 10006 O 989.857 1.76867 0.398468 0
M  V30 10007 C 989.905 1.82416 -3.11057 0
M  V30 10008 O 989.009 2.92191 -2.9103 0
M  V30 10009 H 988.35 0.266739 -0.608068 0
M  V30 10010 H 990.88 0.211158 -2.03507 0
M  V30 10011 H 990.89 2.23044 -3.41636 0
M  V30 10012 H 989.565 1.22267 -3.97522 0
M  V30 10013 H 988.142 2.55378 -2.71728 0
M  V30 10014 N 990.327 1.50405 0.470755 0
M  V30 10015 C 991.573 1.6165 1.22462 0
M  V30 10016 C 991.906 0.316034 1.91611 0
M  V30 10017 O 991.181 -0.682509 1.82132 0
M  V30 10018 C 991.464 2.79702 2.26801 0
M  V30 10019 C 991.317 4.19631 1.61955 0
M  V30 10020 C 992.636 2.93313 3.28109 0
M  V30 10021 H 989.755 0.588345 0.443868 0
M  V30 10022 H 992.397 1.82792 0.518376 0
M  V30 10023 H 990.547 2.61807 2.87036 0
M  V30 10024 H 992.219 4.49117 1.05316 0
M  V30 10025 H 990.462 4.23874 0.922674 0
M  V30 10026 H 991.133 4.98162 2.37779 0
M  V30 10027 H 993.609 3.09697 2.77897 0
M  V30 10028 H 992.485 3.77537 3.98443 0
M  V30 10029 H 992.746 2.03942 3.9225 0
M  V30 10030 N 991.805 -0.723954 1.39988 0
M  V30 10031 C 992.768 -1.81973 1.3935 0
M  V30 10032 C 993.768 -1.58187 0.288702 0
M  V30 10033 O 994.958 -1.65383 0.547181 0
M  V30 10034 C 992.09 -3.19937 1.177 0
M  V30 10035 H 993.283 -1.83939 2.36868 0
M  V30 10036 H 990.836 -0.928742 1.25714 0
M  V30 10037 H 991.571 -3.23625 0.209093 0
M  V30 10038 H 991.356 -3.386 1.97719 0
M  V30 10039 H 992.846 -3.99981 1.20022 0
M  V30 10040 N 993.283 -1.25346 -0.955304 0
M  V30 10041 C 994.532 -1.0945 -1.69421 0
M  V30 10042 C 994.845 0.364459 -1.92175 0
M  V30 10043 O 996.051 0.643843 -2.63755 0
M  V30 10044 C 994.507 -1.91045 -3.05008 0
M  V30 10045 C 994.115 -3.41428 -2.90053 0
M  V30 10046 C 995.859 -1.83716 -3.82686 0
M  V30 10047 C 993.766 -4.1532 -4.21026 0
M  V30 10048 H 992.696 -0.405978 -0.635372 0
M  V30 10049 H 995.347 -1.49536 -1.06354 0
M  V30 10050 H 993.729 -1.43781 -3.68975 0
M  V30 10051 H 994.903 -3.9636 -2.35022 0
M  V30 10052 H 993.218 -3.49842 -2.25831 0
M  V30 10053 H 995.815 -2.36217 -4.79693 0
M  V30 10054 H 996.158 -0.804919 -4.08444 0
M  V30 10055 H 996.691 -2.28726 -3.25468 0
M  V30 10056 H 993.43 -5.18955 -4.00457 0
M  V30 10057 H 992.95 -3.65172 -4.75825 0
M  V30 10058 H 994.629 -4.22999 -4.89572 0
M  V30 10059 N 994.761 1.15782 -1.06922 0
M  V30 10060 C 995.691 2.22538 -0.707045 0
M  V30 10061 C 996.672 1.67371 0.303471 0
M  V30 10062 O 997.857 1.9339 0.177189 0
M  V30 10063 C 994.987 3.47158 -0.0994269 0
M  V30 10064 C 993.941 4.15257 -1.03661 0
M  V30 10065 C 993.267 5.33902 -0.291974 0
M  V30 10066 C 994.567 4.65516 -2.36837 0
M  V30 10067 H 996.261 2.53089 -1.59958 0
M  V30 10068 H 993.807 1.21649 -0.770552 0
M  V30 10069 H 995.76 4.21073 0.165852 0
M  V30 10070 H 994.484 3.15926 0.828155 0
M  V30 10071 H 993.143 3.43276 -1.28674 0
M  V30 10072 H 992.791 4.98926 0.638928 0
M  V30 10073 H 992.491 5.80407 -0.916613 0
M  V30 10074 H 994.015 6.1059 -0.0343915 0
M  V30 10075 H 995.429 5.30981 -2.16175 0
M  V30 10076 H 993.826 5.22666 -2.94856 0
M  V30 10077 H 994.896 3.81387 -2.99453 0
M  V30 10078 N 996.239 0.8527 1.3254 0
M  V30 10079 C 997.65 0.510012 1.79599 0
M  V30 10080 C 998.001 -0.972002 1.70431 0
M  V30 10081 O 997.126 -1.7581 1.26173 0
M  V30 10082 C 997.721 0.918986 3.26098 0
M  V30 10083 C 996.28 0.628227 3.7112 0
M  V30 10084 C 995.427 1.11979 2.53685 0
M  V30 10085 H 998.378 1.04009 1.19866 0
M  V30 10086 H 998.399 0.234577 3.79776 0
M  V30 10087 H 997.911 1.99765 3.32739 0
M  V30 10088 H 996.012 -0.4398 3.69995 0
M  V30 10089 H 996.125 1.19315 4.64005 0
M  V30 10090 H 994.489 0.540133 2.48907 0
M  V30 10091 H 995.272 2.20552 2.63081 0
M  V30 10092 N 997.718 -1.45297 0.610449 0
M  V30 10093 C 998.648 -2.33311 -0.0939698 0
M  V30 10094 C 999.629 -1.46999 -0.85588 0
M  V30 10095 O 1000.81 -1.75764 -0.825865 0
M  V30 10096 C 997.944 -3.29751 -1.09003 0
M  V30 10097 C 996.898 -4.2572 -0.441146 0
M  V30 10098 C 996.224 -5.11873 -1.54566 0
M  V30 10099 C 997.524 -5.1837 0.639489 0
M  V30 10100 H 999.218 -2.92459 0.640941 0
M  V30 10101 H 996.764 -1.40631 0.309675 0
M  V30 10102 H 998.717 -3.90195 -1.59141 0
M  V30 10103 H 997.441 -2.68768 -1.85557 0
M  V30 10104 H 996.1 -3.66579 0.0393908 0
M  V30 10105 H 995.748 -4.47256 -2.30155 0
M  V30 10106 H 995.448 -5.76886 -1.11698 0
M  V30 10107 H 996.972 -5.75185 -2.04925 0
M  V30 10108 H 998.386 -5.7287 0.22207 0
M  V30 10109 H 996.783 -5.91876 0.990089 0
M  V30 10110 H 997.853 -4.60627 1.51495 0
M  V30 10111 N 999.196 -0.349774 -1.5367 0
M  V30 10112 C 1000.44 0.244343 -2.00617 0
M  V30 10113 C 1000.76 1.50567 -1.23914 0
M  V30 10114 O 1000.03 1.92784 -0.348016 0
M  V30 10115 H 998.615 0.0932792 -0.741153 0
M  V30 10116 H 1001.28 -0.472367 -1.89089 0
M  V30 10117 H 1000.37 0.482433 -3.08349 0
M  V30 10118 N 1000.67 1.57404 -0.0785433 0
M  V30 10119 C 1001.9 1.98074 0.597862 0
M  V30 10120 C 1002.32 0.95714 1.6274 0
M  V30 10121 O 1001.67 -0.0553728 1.82416 0
M  V30 10122 C 1001.72 3.38815 1.26041 0
M  V30 10123 O 1001.45 4.37254 0.27207 0
M  V30 10124 C 1002.95 3.94397 2.024 0
M  V30 10125 H 1000.17 0.651263 0.161546 0
M  V30 10126 H 1002.71 2.03927 -0.152941 0
M  V30 10127 H 1000.87 3.34028 1.96225 0
M  V30 10128 H 1001.28 5.19136 0.74822 0
M  V30 10129 H 1002.75 4.95075 2.4414 0
M  V30 10130 H 1003.23 3.31308 2.88326 0
M  V30 10131 H 1003.84 4.02607 1.37068 0
M  V30 10132 N 1002.15 -0.195058 1.56388 0
M  V30 10133 C 1003.4 -0.913636 1.8027 0
M  V30 10134 C 1003.72 -1.83791 0.651606 0
M  V30 10135 O 1002.99 -1.931 -0.330057 0
M  V30 10136 H 1001.57 -0.34036 0.664954 0
M  V30 10137 H 1004.23 -0.200559 1.93865 0
M  V30 10138 H 1003.33 -1.50473 2.7343 0
M  V30 10139 N 1003.63 -1.50653 -0.462772 0
M  V30 10140 C 1004.58 -1.70661 -1.58043 0
M  V30 10141 C 1005.57 -0.572533 -1.59432 0
M  V30 10142 O 1006.78 -0.753257 -1.63481 0
M  V30 10143 H 1003.15 -0.538805 -0.524588 0
M  V30 10144 H 1005.12 -2.64399 -1.38332 0
M  V30 10145 C 1003.87 -1.82558 -2.95919 0
M  V30 10146 H 1003.2 -2.69216 -2.95572 0
M  V30 10147 H 1004.64 -2.0058 -3.73556 0
M  V30 10148 C 1003.09 -0.57916 -3.31885 0
M  V30 10149 O 1003.62 0.277888 -4.00738 0
M  V30 10150 N 1001.83 -0.430723 -2.8739 0
M  V30 10151 H 1001.38 -1.1292 -2.31531 0
M  V30 10152 H 1001.34 0.402061 -3.11819 0
M  V30 10153 N 1005.11 0.71652 -1.4037 0
M  V30 10154 C 1006.39 1.46947 -1.29097 0
M  V30 10155 C 1006.77 2.10903 0.0911182 0
M  V30 10156 O 1006.11 2.00068 1.10385 0
M  V30 10157 C 1006.32 2.50594 -2.42907 0
M  V30 10158 C 1007.67 3.16451 -2.83097 0
M  V30 10159 O 1008.7 2.60913 -2.42493 0
M  V30 10160 O 1007.55 4.16991 -3.53244 0
M  V30 10161 H 1004.65 0.653413 -0.506932 0
M  V30 10162 H 1007.19 0.748774 -1.52287 0
M  V30 10163 H 1005.97 2.01843 -3.35224 0
M  V30 10164 H 1005.59 3.302 -2.21481 0
M  V30 10165 N 1006.59 1.25851 0.948643 0
M  V30 10166 C 1007.52 1.09248 2.06367 0
M  V30 10167 C 1008.5 -0.000205168 1.701 0
M  V30 10168 O 1009.68 0.170442 1.93451 0
M  V30 10169 C 1006.81 0.716777 3.39823 0
M  V30 10170 C 1005.77 1.76036 3.90122 0
M  V30 10171 C 1005.09 1.23918 5.20143 0
M  V30 10172 C 1006.39 3.16039 4.15833 0
M  V30 10173 H 1008.09 2.02518 2.20515 0
M  V30 10174 H 1005.63 0.975093 1.05962 0
M  V30 10175 H 1007.59 0.587531 4.17284 0
M  V30 10176 H 1006.31 -0.251626 3.25629 0
M  V30 10177 H 1004.97 1.87815 3.14835 0
M  V30 10178 H 1004.62 0.260836 5.02323 0
M  V30 10179 H 1004.32 1.93673 5.54765 0
M  V30 10180 H 1005.84 1.12245 6.00194 0
M  V30 10181 H 1007.25 3.0738 4.83933 0
M  V30 10182 H 1005.65 3.83317 4.61723 0
M  V30 10183 H 1006.72 3.62652 3.21887 0
M  V30 10184 N 1008.06 -1.15214 1.07534 0
M  V30 10185 C 1009.31 -1.85676 0.79805 0
M  V30 10186 C 1009.63 -1.82837 -0.677919 0
M  V30 10187 O 1008.9 -1.27059 -1.49107 0
M  V30 10188 H 1007.48 -0.687468 0.292227 0
M  V30 10189 H 1010.15 -1.39658 1.35947 0
M  V30 10190 H 1009.24 -2.9076 1.13423 0
M  V30 10191 N 1009.54 -0.859717 -1.32086 0
M  V30 10192 C 1010.96 -0.55025 -1.49815 0
M  V30 10193 C 1011.16 0.917966 -1.79376 0
M  V30 10194 O 1010.21 1.70073 -1.86632 0
M  V30 10195 C 1011.53 -1.44161 -2.6389 0
M  V30 10196 C 1013.08 -1.44257 -2.77775 0
M  V30 10197 C 1013.55 -2.31926 -3.94936 0
M  V30 10198 N 1015.04 -2.2975 -4.02206 0
M  V30 10199 C 1015.78 -2.9431 -4.92107 0
M  V30 10200 N 1015.27 -3.68001 -5.86981 0
M  V30 10201 N 1017.07 -2.83671 -4.8527 0
M  V30 10202 H 1009.22 -1.80987 -1.11164 0
M  V30 10203 H 1011.48 -0.773313 -0.548353 0
M  V30 10204 H 1011.19 -2.48588 -2.4879 0
M  V30 10205 H 1011.06 -1.13268 -3.59792 0
M  V30 10206 H 1013.45 -0.405923 -2.92295 0
M  V30 10207 H 1013.53 -1.79169 -1.82571 0
M  V30 10208 H 1013.17 -3.35661 -3.81174 0
M  V30 10209 H 1013.1 -1.94344 -4.89426 0
M  V30 10210 H 1015.59 -1.76177 -3.3432 0
M  V30 10211 H 1015.91 -4.14417 -6.52287 0
M  V30 10212 H 1014.25 -3.72109 -5.86992 0
M  V30 10213 H 1017.44 -2.25647 -4.10123 0
M  V30 10214 H 1017.61 -3.34267 -5.5513 0
M  V30 10215 N 1011.02 1.44971 -0.618145 0
M  V30 10216 C 1012.27 2.02458 -0.117656 0
M  V30 10217 C 1012.6 1.48413 1.25248 0
M  V30 10218 O 1011.87 0.662997 1.82851 0
M  V30 10219 C 1012.16 3.59987 -0.0901897 0
M  V30 10220 C 1012.01 4.24343 -1.49175 0
M  V30 10221 C 1013.33 4.36099 0.592121 0
M  V30 10222 H 1010.45 0.735672 -0.0442291 0
M  V30 10223 H 1013.09 1.727 -0.792138 0
M  V30 10224 H 1011.24 3.85471 0.484175 0
M  V30 10225 H 1012.91 4.10009 -2.114 0
M  V30 10226 H 1011.16 3.82337 -2.04941 0
M  V30 10227 H 1011.83 5.33298 -1.42468 0
M  V30 10228 H 1014.3 4.1597 0.103813 0
M  V30 10229 H 1013.18 5.45822 0.580481 0
M  V30 10230 H 1013.44 4.09746 1.66015 0
M  V30 10231 N 1012.5 0.357919 1.53482 0
M  V30 10232 C 1013.43 -0.484231 2.28424 0
M  V30 10233 C 1014.41 -1.09046 1.30548 0
M  V30 10234 O 1015.59 -1.10916 1.59409 0
M  V30 10235 C 1012.72 -1.62803 3.06778 0
M  V30 10236 C 1011.68 -1.14943 4.12277 0
M  V30 10237 C 1011 -2.38287 4.78669 0
M  V30 10238 C 1012.3 -0.239627 5.2175 0
M  V30 10239 H 1014 0.140979 2.99068 0
M  V30 10240 H 1011.54 0.069244 1.43833 0
M  V30 10241 H 1013.5 -2.22374 3.57949 0
M  V30 10242 H 1012.22 -2.28036 2.3381 0
M  V30 10243 H 1010.88 -0.576442 3.6204 0
M  V30 10244 H 1010.53 -3.01959 4.02281 0
M  V30 10245 H 1010.23 -2.06939 5.49955 0
M  V30 10246 H 1011.75 -2.98558 5.32631 0
M  V30 10247 H 1013.17 -0.742597 5.6847 0
M  V30 10248 H 1011.56 -0.0173747 6.00097 0
M  V30 10249 H 1012.63 0.720333 4.7952 0
M  V30 10250 N 1013.98 -1.5736 0.0868897 0
M  V30 10251 C 1015.39 -1.57304 -0.269762 0
M  V30 10252 C 1015.59 -1.09745 -1.68992 0
M  V30 10253 O 1014.65 -0.77017 -2.40468 0
M  V30 10254 C 1015.96 -3.00628 -0.0656646 0
M  V30 10255 C 1017.51 -3.12713 -0.134045 0
M  V30 10256 C 1017.98 -4.57981 0.0419569 0
M  V30 10257 N 1019.48 -4.63198 -0.0131501 0
M  V30 10258 C 1020.21 -5.73316 0.0983964 0
M  V30 10259 N 1019.71 -6.92296 0.264315 0
M  V30 10260 N 1021.5 -5.62086 0.0402517 0
M  V30 10261 H 1013.65 -1.86585 1.01487 0
M  V30 10262 H 1015.91 -0.860843 0.397055 0
M  V30 10263 H 1015.62 -3.39592 0.914891 0
M  V30 10264 H 1015.49 -3.68367 -0.811522 0
M  V30 10265 H 1017.88 -2.73627 -1.1051 0
M  V30 10266 H 1017.96 -2.47582 0.643167 0
M  V30 10267 H 1017.61 -4.9776 1.00984 0
M  V30 10268 H 1017.54 -5.21162 -0.754847 0
M  V30 10269 H 1020.03 -3.77644 -0.139183 0
M  V30 10270 H 1020.34 -7.72047 0.341165 0
M  V30 10271 H 1018.68 -6.94353 0.299876 0
M  V30 10272 H 1021.88 -4.68017 -0.0881801 0
M  V30 10273 H 1022.05 -6.47868 0.130635 0
M  V30 10274 N 1015.45 0.186762 -1.56489 0
M  V30 10275 C 1016.7 0.902594 -1.82277 0
M  V30 10276 C 1017.06 1.80536 -0.665179 0
M  V30 10277 O 1016.35 1.88573 0.339224 0
M  V30 10278 C 1016.54 1.74719 -3.11782 0
M  V30 10279 C 1016.37 0.92769 -4.40027 0
M  V30 10280 C 1015.14 0.608832 -5.01619 0
M  V30 10281 C 1017.34 0.276471 -5.13556 0
M  V30 10282 N 1015.32 -0.228425 -6.13475 0
M  V30 10283 C 1016.69 -0.42262 -6.18558 0
M  V30 10284 C 1018.75 0.19305 -4.97526 0
M  V30 10285 C 1017.45 -1.1972 -7.09267 0
M  V30 10286 C 1019.48 -0.568152 -5.88665 0
M  V30 10287 C 1018.84 -1.25566 -6.93118 0
M  V30 10288 H 1014.94 0.309403 -0.718188 0
M  V30 10289 H 1017.52 0.170693 -1.9395 0
M  V30 10290 H 1015.69 2.45063 -3.01328 0
M  V30 10291 H 1017.42 2.40314 -3.25625 0
M  V30 10292 H 1014.18 0.935247 -4.64274 0
M  V30 10293 H 1014.6 -0.636908 -6.73997 0
M  V30 10294 H 1019.25 0.71023 -4.16792 0
M  V30 10295 H 1016.96 -1.72578 -7.89457 0
M  V30 10296 H 1020.55 -0.634164 -5.78333 0
M  V30 10297 H 1019.43 -1.83524 -7.62423 0
M  V30 10298 N 1016.93 1.50896 0.454776 0
M  V30 10299 C 1018.18 1.62378 1.20324 0
M  V30 10300 C 1018.5 0.333883 1.9212 0
M  V30 10301 O 1017.77 -0.649477 1.8482 0
M  V30 10302 H 1016.35 0.598395 0.447139 0
M  V30 10303 H 1019.01 1.87749 0.523102 0
M  V30 10304 H 1018.11 2.44296 1.94232 0
M  V30 10305 N 1018.41 -0.709066 1.40748 0
M  V30 10306 C 1019.37 -1.80485 1.41272 0
M  V30 10307 C 1020.37 -1.57872 0.305463 0
M  V30 10308 O 1021.56 -1.64793 0.564691 0
M  V30 10309 C 1018.7 -3.1867 1.21087 0
M  V30 10310 H 1019.89 -1.81417 2.38805 0
M  V30 10311 H 1017.44 -0.915356 1.26692 0
M  V30 10312 H 1018.18 -3.23385 0.243406 0
M  V30 10313 H 1017.96 -3.36484 2.01299 0
M  V30 10314 H 1019.45 -3.98685 1.24257 0
M  V30 10315 N 1019.89 -1.26353 -0.941956 0
M  V30 10316 C 1021.14 -1.1163 -1.68473 0
M  V30 10317 C 1021.46 0.34108 -1.91994 0
M  V30 10318 O 1020.73 1.24065 -1.51607 0
M  V30 10319 H 1019.31 -0.410113 -0.624353 0
M  V30 10320 H 1021.97 -1.58669 -1.13182 0
M  V30 10321 H 1021.07 -1.63445 -2.6588 0
M  V30 10322 N 1021.37 1.14642 -1.08144 0
M  V30 10323 C 1022.6 1.89209 -0.82966 0
M  V30 10324 C 1023.01 1.78697 0.621604 0
M  V30 10325 O 1022.35 1.14224 1.4387 0
M  V30 10326 C 1022.41 3.39958 -1.16915 0
M  V30 10327 C 1022.07 3.74254 -2.62264 0
M  V30 10328 C 1023.07 3.746 -3.60514 0
M  V30 10329 C 1020.76 4.04316 -2.9805 0
M  V30 10330 C 1022.75 4.04527 -4.92582 0
M  V30 10331 C 1020.44 4.33906 -4.30312 0
M  V30 10332 C 1021.44 4.33995 -5.27388 0
M  V30 10333 O 1021.12 4.62869 -6.57273 0
M  V30 10334 H 1020.86 0.606259 -0.299042 0
M  V30 10335 H 1023.41 1.46132 -1.44342 0
M  V30 10336 H 1021.64 3.83475 -0.498377 0
M  V30 10337 H 1023.33 3.95828 -0.89862 0
M  V30 10338 H 1024.09 3.51466 -3.34211 0
M  V30 10339 H 1019.97 4.03402 -2.23132 0
M  V30 10340 H 1023.52 4.04511 -5.68346 0
M  V30 10341 H 1019.41 4.5651 -4.56365 0
M  V30 10342 H 1020.18 4.80598 -6.62546 0
M  V30 10343 N 1022.85 0.866709 1.31628 0
M  V30 10344 C 1024.07 0.48956 2.01539 0
M  V30 10345 C 1024.5 -0.909556 1.64647 0
M  V30 10346 O 1023.85 -1.59959 0.853391 0
M  V30 10347 C 1023.9 0.650176 3.5469 0
M  V30 10348 O 1023.01 -0.311908 4.11219 0
M  V30 10349 H 1022.35 0.195144 0.634677 0
M  V30 10350 H 1024.88 1.16923 1.679 0
M  V30 10351 H 1024.89 0.542236 4.04381 0
M  V30 10352 H 1023.56 1.67038 3.80882 0
M  V30 10353 H 1022.14 -0.159197 3.7256 0
M  V30 10354 N 1024.32 -1.44642 0.625825 0
M  V30 10355 C 1025.57 -2.01695 0.127948 0
M  V30 10356 C 1025.89 -1.49439 -1.25271 0
M  V30 10357 O 1025.16 -0.695873 -1.83124 0
M  V30 10358 H 1023.74 -0.745685 0.0443096 0
M  V30 10359 H 1026.4 -1.7721 0.811332 0
M  V30 10360 H 1025.5 -3.11966 0.0915933 0
M  V30 10361 N 1025.8 -0.366053 -1.5329 0
M  V30 10362 C 1026.71 0.488111 -2.29466 0
M  V30 10363 C 1027.73 1.09219 -1.35452 0
M  V30 10364 O 1028.9 1.10303 -1.68509 0
M  V30 10365 C 1025.97 1.61202 -3.06944 0
M  V30 10366 C 1025.03 1.03543 -4.16626 0
M  V30 10367 C 1024.26 2.10578 -4.904 0
M  V30 10368 O 1024.49 3.31697 -4.6404 0
M  V30 10369 O 1023.42 1.73609 -5.76319 0
M  V30 10370 H 1027.25 -0.131789 -3.03414 0
M  V30 10371 H 1024.83 -0.130421 -1.4883 0
M  V30 10372 H 1026.71 2.26546 -3.55324 0
M  V30 10373 H 1025.39 2.21732 -2.35832 0
M  V30 10374 H 1024.29 0.345892 -3.72498 0
M  V30 10375 H 1025.63 0.474687 -4.89906 0
M  V30 10376 N 1027.28 1.57312 -0.0952337 0
M  V30 10377 C 1028.56 1.85822 0.610715 0
M  V30 10378 C 1028.94 0.992114 1.86334 0
M  V30 10379 O 1028.28 0.0645669 2.28409 0
M  V30 10380 C 1028.49 3.36492 0.925967 0
M  V30 10381 C 1029.84 4.0455 1.28936 0
M  V30 10382 O 1030.87 3.41374 1.01698 0
M  V30 10383 O 1029.73 5.16024 1.79949 0
M  V30 10384 H 1026.82 0.768454 0.305626 0
M  V30 10385 H 1029.37 1.69217 -0.127941 0
M  V30 10386 H 1028.14 3.91282 0.0373127 0
M  V30 10387 H 1027.76 3.58443 1.7206 0
M  V30 10388 N 1028.76 -0.17846 1.56586 0
M  V30 10389 C 1030.17 -0.741599 1.71339 0
M  V30 10390 C 1030.52 -1.83112 0.704579 0
M  V30 10391 O 1029.64 -2.15975 -0.135557 0
M  V30 10392 C 1030.24 -1.35198 3.10656 0
M  V30 10393 C 1028.8 -1.86202 3.27118 0
M  V30 10394 C 1027.95 -0.738255 2.67292 0
M  V30 10395 H 1030.9 0.0468424 1.58631 0
M  V30 10396 H 1030.92 -2.2216 3.0891 0
M  V30 10397 H 1030.43 -0.558776 3.84056 0
M  V30 10398 H 1028.53 -2.68188 2.58661 0
M  V30 10399 H 1028.64 -2.01237 4.34788 0
M  V30 10400 H 1027.01 -1.15686 2.26912 0
M  V30 10401 H 1027.79 0.0429821 3.43273 0
M  V30 10402 N 1030.24 -1.51135 -0.446768 0
M  V30 10403 C 1031.48 -1.63336 -1.19698 0
M  V30 10404 C 1031.81 -0.345099 -1.91414 0
M  V30 10405 O 1031.07 0.670365 -1.8386 0
M  V30 10406 C 1031.36 -2.78034 -2.2457 0
M  V30 10407 C 1031.03 -4.17652 -1.69934 0
M  V30 10408 C 1029.69 -4.55636 -1.54756 0
M  V30 10409 C 1032.04 -5.04813 -1.29665 0
M  V30 10410 C 1029.37 -5.78496 -0.977689 0
M  V30 10411 C 1031.72 -6.28244 -0.741112 0
M  V30 10412 C 1030.39 -6.65009 -0.576156 0
M  V30 10413 H 1029.66 -0.597689 -0.438006 0
M  V30 10414 H 1032.31 -1.85141 -0.48939 0
M  V30 10415 H 1030.61 -2.50413 -3.01331 0
M  V30 10416 H 1032.31 -2.84675 -2.8242 0
M  V30 10417 H 1028.9 -3.87699 -1.82722 0
M  V30 10418 H 1033.08 -4.76081 -1.40216 0
M  V30 10419 H 1028.34 -6.05636 -0.837563 0
M  V30 10420 H 1032.51 -6.95129 -0.42053 0
M  V30 10421 H 1030.14 -7.60085 -0.132443 0
M  V30 10422 N 1031.71 0.701592 -1.41122 0
M  V30 10423 C 1032.94 1.49553 -1.43696 0
M  V30 10424 C 1033.36 1.88053 -0.0421865 0
M  V30 10425 O 1032.72 1.54223 0.953144 0
M  V30 10426 C 1032.77 2.73834 -2.34622 0
M  V30 10427 O 1031.87 3.71088 -1.7991 0
M  V30 10428 H 1031.21 0.450352 -0.487933 0
M  V30 10429 H 1033.74 0.862886 -1.85514 0
M  V30 10430 H 1033.75 3.22209 -2.5029 0
M  V30 10431 H 1032.43 2.45149 -3.35969 0
M  V30 10432 H 1031.01 3.29994 -1.73661 0
M  V30 10433 N 1033.19 1.2685 0.935242 0
M  V30 10434 C 1034.44 1.12912 1.6846 0
M  V30 10435 C 1034.77 -0.325708 1.91449 0
M  V30 10436 O 1034.05 -1.23884 1.49944 0
M  V30 10437 C 1034.33 1.90513 3.05576 0
M  V30 10438 C 1034.18 3.43936 2.89876 0
M  V30 10439 C 1035.5 1.70363 4.05789 0
M  V30 10440 H 1032.62 0.411559 0.611382 0
M  V30 10441 H 1035.26 1.55917 1.08582 0
M  V30 10442 H 1033.41 1.53963 3.5669 0
M  V30 10443 H 1035.08 3.90272 2.45939 0
M  V30 10444 H 1033.33 3.70659 2.25376 0
M  V30 10445 H 1034 3.93467 3.87153 0
M  V30 10446 H 1036.47 2.02217 3.63659 0
M  V30 10447 H 1035.35 2.27066 4.99732 0
M  V30 10448 H 1035.61 0.649674 4.373 0
M  V30 10449 N 1034.67 -1.14067 1.0875 0
M  V30 10450 C 1035.6 -2.21385 0.74236 0
M  V30 10451 C 1036.58 -1.67833 -0.276805 0
M  V30 10452 O 1037.77 -1.93647 -0.1464 0
M  V30 10453 C 1034.9 -3.46956 0.154644 0
M  V30 10454 C 1033.85 -4.13555 1.10255 0
M  V30 10455 C 1033.18 -5.3337 0.376877 0
M  V30 10456 C 1034.48 -4.6169 2.44213 0
M  V30 10457 H 1036.17 -2.50512 1.63964 0
M  V30 10458 H 1033.72 -1.20408 0.789807 0
M  V30 10459 H 1035.67 -4.21284 -0.0988419 0
M  V30 10460 H 1034.39 -3.17203 -0.777789 0
M  V30 10461 H 1033.05 -3.41186 1.34119 0
M  V30 10462 H 1032.7 -4.99879 -0.559472 0
M  V30 10463 H 1032.4 -5.78875 1.00884 0
M  V30 10464 H 1033.92 -6.10458 0.131527 0
M  V30 10465 H 1035.34 -5.27475 2.24595 0
M  V30 10466 H 1033.74 -5.17909 3.03134 0
M  V30 10467 H 1034.81 -3.76574 3.05483 0
M  V30 10468 N 1036.15 -0.873678 -1.31166 0
M  V30 10469 C 1037.08 -0.348011 -2.30892 0
M  V30 10470 C 1038.06 0.563092 -1.60509 0
M  V30 10471 O 1039.24 0.479332 -1.88192 0
M  V30 10472 C 1036.37 0.448158 -3.44396 0
M  V30 10473 C 1035.33 -0.370179 -4.26396 0
M  V30 10474 C 1034.65 0.551903 -5.31844 0
M  V30 10475 C 1035.95 -1.60624 -4.96988 0
M  V30 10476 H 1037.65 -1.18134 -2.75109 0
M  V30 10477 H 1035.19 -0.569502 -1.3226 0
M  V30 10478 H 1037.15 0.826458 -4.13216 0
M  V30 10479 H 1035.87 1.31503 -2.98956 0
M  V30 10480 H 1034.53 -0.730472 -3.59249 0
M  V30 10481 H 1034.18 1.41616 -4.82653 0
M  V30 10482 H 1033.88 0.00823478 -5.87599 0
M  V30 10483 H 1035.4 0.926965 -6.03523 0
M  V30 10484 H 1036.82 -1.29917 -5.58386 0
M  V30 10485 H 1035.21 -2.08926 -5.62557 0
M  V30 10486 H 1036.28 -2.357 -4.23761 0
M  V30 10487 N 1037.63 1.44308 -0.633487 0
M  V30 10488 C 1038.85 2.06897 -0.144347 0
M  V30 10489 C 1039.28 1.47045 1.173 0
M  V30 10490 O 1038.63 0.572806 1.72013 0
M  V30 10491 C 1038.68 3.60571 -0.0456324 0
M  V30 10492 O 1037.79 4.0015 0.997682 0
M  V30 10493 H 1037.13 0.658427 -0.0858499 0
M  V30 10494 H 1039.66 1.85142 -0.870833 0
M  V30 10495 H 1039.67 4.07745 0.144178 0
M  V30 10496 H 1038.34 4.03515 -1.0074 0
M  V30 10497 H 1036.92 3.64603 0.782252 0
M  V30 10498 N 1039.1 0.374177 1.53094 0
M  V30 10499 C 1040.35 -0.213131 2.01677 0
M  V30 10500 C 1040.68 -1.47715 1.26071 0
M  V30 10501 O 1039.96 -1.91199 0.356834 0
M  V30 10502 C 1040.24 -0.496392 3.56662 0
M  V30 10503 C 1040.09 0.781859 4.42953 0
M  V30 10504 C 1041.41 -1.29339 4.20666 0
M  V30 10505 H 1038.53 -0.0759885 0.733072 0
M  V30 10506 H 1041.17 0.500765 1.83282 0
M  V30 10507 H 1039.32 -1.10455 3.72467 0
M  V30 10508 H 1041 1.41914 4.38928 0
M  V30 10509 H 1039.24 1.40041 4.10574 0
M  V30 10510 H 1039.91 0.538508 5.49367 0
M  V30 10511 H 1042.39 -0.778848 4.08746 0
M  V30 10512 H 1041.26 -1.46033 5.29118 0
M  V30 10513 H 1041.52 -2.30435 3.77296 0
M  V30 10514 N 1040.58 -1.57259 0.103575 0
M  V30 10515 C 1041.86 -1.86143 -0.600852 0
M  V30 10516 C 1042.24 -1.00198 -1.85805 0
M  V30 10517 O 1041.59 -0.0766791 -2.28371 0
M  V30 10518 C 1041.8 -3.36978 -0.908108 0
M  V30 10519 C 1043.15 -4.05228 -1.26788 0
M  V30 10520 O 1044.17 -3.41908 -0.998859 0
M  V30 10521 O 1043.03 -5.16971 -1.7721 0
M  V30 10522 H 1040.12 -0.770064 -0.301547 0
M  V30 10523 H 1042.67 -1.69147 0.136914 0
M  V30 10524 H 1041.44 -3.91296 -0.0165615 0
M  V30 10525 H 1041.06 -3.5935 -1.70156 0
M  V30 10526 N 1042.06 0.170153 -1.56679 0
M  V30 10527 C 1042.97 1.23057 -1.99735 0
M  V30 10528 C 1043.99 1.48374 -0.908912 0
M  V30 10529 O 1045.16 1.60499 -1.21663 0
M  V30 10530 C 1042.23 2.54944 -2.34956 0
M  V30 10531 C 1041.29 2.3748 -3.57634 0
M  V30 10532 C 1040.52 3.63078 -3.91165 0
M  V30 10533 O 1040.74 4.68304 -3.2565 0
M  V30 10534 O 1039.68 3.57119 -4.8451 0
M  V30 10535 H 1043.5 0.895104 -2.9021 0
M  V30 10536 H 1041.09 0.377109 -1.44562 0
M  V30 10537 H 1042.97 3.32742 -2.58574 0
M  V30 10538 H 1041.65 2.88068 -1.47643 0
M  V30 10539 H 1040.55 1.57709 -3.39232 0
M  V30 10540 H 1041.89 2.0928 -4.45491 0
M  V30 10541 N 1043.54 1.5137 0.438746 0
M  V30 10542 C 1044.5 1.71993 1.51496 0
M  V30 10543 C 1045.5 0.589978 1.49586 0
M  V30 10544 O 1046.69 0.857505 1.51633 0
M  V30 10545 C 1043.82 1.77508 2.91039 0
M  V30 10546 H 1045.02 2.68041 1.34514 0
M  V30 10547 H 1042.57 1.41338 0.667326 0
M  V30 10548 H 1043.3 0.832698 3.13427 0
M  V30 10549 H 1043.09 2.59627 2.9383 0
M  V30 10550 H 1044.58 1.95308 3.69113 0
M  V30 10551 N 1045.02 -0.694098 1.41492 0
M  V30 10552 C 1046.29 -1.44875 1.31418 0
M  V30 10553 C 1046.67 -2.11022 -0.0575538 0
M  V30 10554 O 1046.02 -2.01799 -1.07188 0
M  V30 10555 C 1046.23 -2.46698 2.46863 0
M  V30 10556 C 1047.58 -3.11907 2.88095 0
M  V30 10557 O 1048.6 -2.57022 2.46613 0
M  V30 10558 O 1047.46 -4.11318 3.59833 0
M  V30 10559 H 1044.56 -0.645266 0.517263 0
M  V30 10560 H 1047.1 -0.724452 1.53459 0
M  V30 10561 H 1045.87 -1.96485 3.38392 0
M  V30 10562 H 1045.5 -3.26634 2.26706 0
M  V30 10563 N 1046.49 -1.27344 -0.928501 0
M  V30 10564 C 1047.46 -1.10043 -2.01055 0
M  V30 10565 C 1048.46 -0.0446793 -1.60738 0
M  V30 10566 O 1049.65 -0.289202 -1.71783 0
M  V30 10567 C 1046.78 -0.676559 -3.34119 0
M  V30 10568 H 1047.97 -2.06126 -2.17835 0
M  V30 10569 H 1045.53 -1.10121 -1.10919 0
M  V30 10570 H 1046.26 0.285697 -3.23039 0
M  V30 10571 H 1046.05 -1.43903 -3.64739 0
M  V30 10572 H 1047.54 -0.577725 -4.13584 0
M  V30 10573 N 1047.97 1.13488 -1.09353 0
M  V30 10574 C 1049.22 1.85022 -0.830354 0
M  V30 10575 C 1049.55 1.83266 0.64242 0
M  V30 10576 O 1048.83 1.27024 1.47293 0
M  V30 10577 C 1049.11 3.33218 -1.36521 0
M  V30 10578 C 1048.96 3.43491 -2.90404 0
M  V30 10579 C 1050.28 4.28626 -0.998381 0
M  V30 10580 H 1047.4 0.671786 -0.303105 0
M  V30 10581 H 1050.04 1.33211 -1.3548 0
M  V30 10582 H 1048.19 3.77471 -0.919117 0
M  V30 10583 H 1049.86 3.07954 -3.43456 0
M  V30 10584 H 1048.11 2.84391 -3.27573 0
M  V30 10585 H 1048.78 4.47702 -3.22905 0
M  V30 10586 H 1051.25 3.9244 -1.38311 0
M  V30 10587 H 1050.13 5.30754 -1.39968 0
M  V30 10588 H 1050.39 4.42001 0.093517 0
M  V30 10589 N 1049.45 0.880621 1.30701 0
M  V30 10590 C 1050.38 0.360251 2.30704 0
M  V30 10591 C 1051.36 -0.554572 1.60806 0
M  V30 10592 O 1052.55 -0.469345 1.88443 0
M  V30 10593 C 1049.68 -0.429888 3.44629 0
M  V30 10594 C 1048.63 0.392786 4.26194 0
M  V30 10595 C 1047.96 -0.52369 5.32129 0
M  V30 10596 C 1049.26 1.63258 4.96129 0
M  V30 10597 H 1050.95 1.19591 2.74478 0
M  V30 10598 H 1048.5 0.576508 1.31956 0
M  V30 10599 H 1050.45 -0.804532 4.13649 0
M  V30 10600 H 1049.17 -1.29916 2.99649 0
M  V30 10601 H 1047.83 0.749514 3.58856 0
M  V30 10602 H 1047.48 -1.39054 4.83397 0
M  V30 10603 H 1047.18 0.0229272 5.87596 0
M  V30 10604 H 1048.71 -0.894946 6.04006 0
M  V30 10605 H 1050.12 1.32877 5.57689 0
M  V30 10606 H 1048.52 2.11906 5.61441 0
M  V30 10607 H 1049.59 2.37944 4.22505 0
M  V30 10608 N 1050.93 -1.4397 0.641131 0
M  V30 10609 C 1051.86 -2.27948 -0.10731 0
M  V30 10610 C 1052.84 -1.39124 -0.841615 0
M  V30 10611 O 1054.02 -1.68566 -0.843662 0
M  V30 10612 C 1051.15 -3.18277 -1.15835 0
M  V30 10613 C 1050.2 -4.23276 -0.52345 0
M  V30 10614 S 1051.03 -5.30984 0.693969 0
M  V30 10615 C 1052.19 -6.24882 -0.356831 0
M  V30 10616 H 1052.42 -2.91077 0.605083 0
M  V30 10617 H 1049.95 -1.48303 0.429598 0
M  V30 10618 H 1051.91 -3.70867 -1.75977 0
M  V30 10619 H 1050.57 -2.54348 -1.84299 0
M  V30 10620 H 1049.76 -4.86533 -1.31536 0
M  V30 10621 H 1049.37 -3.74 0.00358355 0
M  V30 10622 H 1051.66 -6.66305 -1.22653 0
M  V30 10623 H 1052.6 -7.07692 0.240412 0
M  V30 10624 H 1053.01 -5.60301 -0.687217 0
M  V30 10625 N 1052.41 -0.382291 -1.52893 0
M  V30 10626 C 1053.68 0.259354 -1.93873 0
M  V30 10627 C 1054.06 1.64964 -1.3172 0
M  V30 10628 O 1053.41 2.23345 -0.482611 0
M  V30 10629 C 1053.62 0.292765 -3.4777 0
M  V30 10630 C 1054.97 0.525095 -4.21341 0
M  V30 10631 O 1055.99 0.373272 -3.54239 0
M  V30 10632 O 1054.85 0.822004 -5.40283 0
M  V30 10633 H 1051.95 0.159422 -0.811489 0
M  V30 10634 H 1054.49 -0.436289 -1.63996 0
M  V30 10635 H 1053.27 -0.681341 -3.85323 0
M  V30 10636 H 1052.89 1.03362 -3.8393 0
M  V30 10637 N 1053.89 1.57202 -0.111913 0
M  V30 10638 C 1055.3 1.57713 0.244702 0
M  V30 10639 C 1055.5 1.12419 1.67225 0
M  V30 10640 O 1054.56 0.808329 2.39212 0
M  V30 10641 C 1055.87 3.00695 0.0178289 0
M  V30 10642 C 1057.42 3.12887 0.0842781 0
M  V30 10643 C 1057.89 4.57856 -0.114812 0
M  V30 10644 N 1059.38 4.6316 -0.0605423 0
M  V30 10645 C 1060.12 5.73086 -0.189594 0
M  V30 10646 N 1059.62 6.91787 -0.37442 0
M  V30 10647 N 1061.41 5.6195 -0.12967 0
M  V30 10648 H 1053.56 1.84947 -1.04443 0
M  V30 10649 H 1055.82 0.854418 -0.4107 0
M  V30 10650 H 1055.53 3.38093 -0.968802 0
M  V30 10651 H 1055.4 3.69611 0.752815 0
M  V30 10652 H 1057.79 2.7535 1.06143 0
M  V30 10653 H 1057.87 2.46528 -0.682474 0
M  V30 10654 H 1057.51 4.9609 -1.0889 0
M  V30 10655 H 1057.44 5.22297 0.671839 0
M  V30 10656 H 1059.94 3.77817 0.0790856 0
M  V30 10657 H 1060.25 7.71406 -0.463948 0
M  V30 10658 H 1058.59 6.93788 -0.410303 0
M  V30 10659 H 1061.78 4.68098 0.0137115 0
M  V30 10660 H 1061.96 6.47578 -0.233688 0
M  V30 10661 N 1055.36 -0.161842 1.56767 0
M  V30 10662 C 1056.61 -0.873481 1.8369 0
M  V30 10663 C 1056.96 -1.79455 0.693817 0
M  V30 10664 O 1056.26 -1.89089 -0.309181 0
M  V30 10665 C 1056.45 -1.69736 3.14522 0
M  V30 10666 C 1056.28 -0.857568 4.41447 0
M  V30 10667 C 1055.05 -0.528952 5.02524 0
M  V30 10668 C 1057.25 -0.194734 5.13931 0
M  V30 10669 N 1055.23 0.325994 6.13034 0
M  V30 10670 C 1056.6 0.520973 6.17807 0
M  V30 10671 C 1058.66 -0.113874 4.9777 0
M  V30 10672 C 1057.36 1.30988 7.07273 0
M  V30 10673 C 1059.39 0.661731 5.87686 0
M  V30 10674 C 1058.75 1.36577 6.91033 0
M  V30 10675 H 1054.85 -0.297939 0.723019 0
M  V30 10676 H 1057.43 -0.139816 1.94197 0
M  V30 10677 H 1055.6 -2.40238 3.05189 0
M  V30 10678 H 1057.33 -2.35103 3.29407 0
M  V30 10679 H 1054.09 -0.861267 4.65703 0
M  V30 10680 H 1054.51 0.744055 6.72899 0
M  V30 10681 H 1059.15 -0.643832 4.17869 0
M  V30 10682 H 1056.87 1.85115 7.86612 0
M  V30 10683 H 1060.46 0.726092 5.77251 0
M  V30 10684 H 1059.34 1.9563 7.59407 0
M  V30 10685 N 1056.84 -1.516 -0.430713 0
M  V30 10686 C 1058.07 -1.68414 -1.20185 0
M  V30 10687 C 1058.48 -0.384297 -1.84847 0
M  V30 10688 O 1057.84 0.637808 -1.70992 0
M  V30 10689 C 1057.89 -2.80451 -2.28099 0
M  V30 10690 O 1057.61 -4.05399 -1.66081 0
M  V30 10691 C 1059.11 -3.0859 -3.18256 0
M  V30 10692 H 1056.33 -0.564982 -0.361989 0
M  V30 10693 H 1058.88 -1.9805 -0.50954 0
M  V30 10694 H 1057.03 -2.53395 -2.93036 0
M  V30 10695 H 1057.45 -4.67671 -2.37453 0
M  V30 10696 H 1058.92 -3.9055 -3.90096 0
M  V30 10697 H 1059.4 -2.21264 -3.79393 0
M  V30 10698 H 1060 -3.37331 -2.59014 0
M  V30 10699 N 1058.32 0.686584 -1.41858 0
M  V30 10700 C 1059.57 1.44235 -1.40994 0
M  V30 10701 C 1059.88 1.95583 -0.0254979 0
M  V30 10702 O 1061.09 2.71294 0.10576 0
M  V30 10703 C 1059.54 2.6086 -2.47952 0
M  V30 10704 C 1059.15 2.16259 -3.92347 0
M  V30 10705 C 1060.9 3.38441 -2.56237 0
M  V30 10706 C 1058.8 3.29896 -4.90838 0
M  V30 10707 H 1057.73 0.54181 -0.524364 0
M  V30 10708 H 1060.38 0.744486 -1.67719 0
M  V30 10709 H 1058.77 3.32957 -2.14373 0
M  V30 10710 H 1059.94 1.51392 -4.35221 0
M  V30 10711 H 1058.25 1.51648 -3.87804 0
M  V30 10712 H 1060.85 4.23052 -3.27003 0
M  V30 10713 H 1061.19 3.84238 -1.6021 0
M  V30 10714 H 1061.73 2.73406 -2.88953 0
M  V30 10715 H 1058.47 2.89104 -5.88302 0
M  V30 10716 H 1057.99 3.93584 -4.52606 0
M  V30 10717 H 1059.67 3.95541 -5.12012 0
M  V30 10718 N 1059.8 1.27835 0.921735 0
M  V30 10719 C 1060.73 1.136 2.04003 0
M  V30 10720 C 1061.71 0.0358756 1.70062 0
M  V30 10721 O 1062.89 0.211438 1.93046 0
M  V30 10722 C 1060.02 0.788697 3.38226 0
M  V30 10723 C 1058.98 1.84272 3.863 0
M  V30 10724 C 1058.3 1.34923 5.17397 0
M  V30 10725 C 1059.6 3.24788 4.09035 0
M  V30 10726 H 1061.3 2.07149 2.1617 0
M  V30 10727 H 1058.84 0.997349 1.0387 0
M  V30 10728 H 1060.8 0.675911 4.15944 0
M  V30 10729 H 1059.52 -0.182499 3.2609 0
M  V30 10730 H 1058.18 1.94451 3.1078 0
M  V30 10731 H 1057.83 0.367328 5.01657 0
M  V30 10732 H 1057.53 2.05397 5.50532 0
M  V30 10733 H 1059.05 1.24951 5.97678 0
M  V30 10734 H 1060.47 3.17575 4.77304 0
M  V30 10735 H 1058.86 3.93025 4.53488 0
M  V30 10736 H 1059.93 3.69398 3.14122 0
M  V30 10737 N 1061.28 -1.12907 1.09954 0
M  V30 10738 C 1062.21 -2.20585 0.765799 0
M  V30 10739 C 1063.19 -1.68117 -0.258989 0
M  V30 10740 O 1064.37 -1.93792 -0.125853 0
M  V30 10741 C 1061.5 -3.46772 0.191435 0
M  V30 10742 C 1060.46 -4.12363 1.14635 0
M  V30 10743 C 1059.78 -5.3294 0.433426 0
M  V30 10744 C 1061.08 -4.59073 2.49096 0
M  V30 10745 H 1062.78 -2.48759 1.66612 0
M  V30 10746 H 1060.32 -1.19563 0.802534 0
M  V30 10747 H 1062.27 -4.21365 -0.0541535 0
M  V30 10748 H 1061 -3.18011 -0.744101 0
M  V30 10749 H 1059.66 -3.39744 1.37731 0
M  V30 10750 H 1059.31 -5.00444 -0.506422 0
M  V30 10751 H 1059.01 -5.77772 1.07018 0
M  V30 10752 H 1060.53 -6.10284 0.196267 0
M  V30 10753 H 1061.94 -5.25063 2.30177 0
M  V30 10754 H 1060.34 -5.14665 3.0861 0
M  V30 10755 H 1061.41 -3.73313 3.0946 0
M  V30 10756 N 1062.75 -0.88754 -1.30232 0
M  V30 10757 C 1064.03 -0.427249 -1.90877 0
M  V30 10758 C 1064.41 1.0922 -1.80649 0
M  V30 10759 O 1063.76 1.92866 -1.22536 0
M  V30 10760 C 1063.97 -0.928219 -3.3643 0
M  V30 10761 C 1065.32 -0.964706 -4.13496 0
M  V30 10762 O 1066.34 -0.875057 -3.45284 0
M  V30 10763 O 1065.2 -1.09754 -5.35366 0
M  V30 10764 H 1062.29 -0.131107 -0.816541 0
M  V30 10765 H 1064.84 -0.976609 -1.38782 0
M  V30 10766 H 1063.61 -1.97209 -3.37971 0
M  V30 10767 H 1063.23 -0.358169 -3.95983 0
M  V30 10768 N 1064.23 1.43628 -0.648757 0
M  V30 10769 C 1065.2 2.29172 0.0360713 0
M  V30 10770 C 1066.2 1.41974 0.754976 0
M  V30 10771 O 1067.39 1.63654 0.5969 0
M  V30 10772 C 1064.52 3.23942 1.0618 0
M  V30 10773 H 1065.71 2.91214 -0.716544 0
M  V30 10774 H 1063.26 1.50833 -0.409759 0
M  V30 10775 H 1064 2.66786 1.8438 0
M  V30 10776 H 1063.78 3.88223 0.550016 0
M  V30 10777 H 1065.27 3.8816 1.54019 0
M  V30 10778 N 1065.71 0.390394 1.52688 0
M  V30 10779 C 1066.66 -0.461191 2.23287 0
M  V30 10780 C 1067.64 -1.02875 1.23716 0
M  V30 10781 O 1068.84 -0.954675 1.49047 0
M  V30 10782 C 1065.97 -1.58736 3.04397 0
M  V30 10783 C 1065.05 -1.03149 4.11365 0
M  V30 10784 N 1065.44 -0.20066 5.05402 0
M  V30 10785 C 1063.74 -1.30388 4.26515 0
M  V30 10786 C 1064.44 0.106548 5.81602 0
M  V30 10787 N 1063.42 -0.497687 5.41317 0
M  V30 10788 H 1067.22 0.1801 2.93348 0
M  V30 10789 H 1064.73 0.199761 1.61167 0
M  V30 10790 H 1066.73 -2.20986 3.53512 0
M  V30 10791 H 1065.39 -2.23147 2.35872 0
M  V30 10792 H 1066.4 0.162168 5.17646 0
M  V30 10793 H 1063.08 -1.94894 3.69219 0
M  V30 10794 H 1064.47 0.779778 6.6736 0
M  V30 10795 N 1067.19 -1.57141 0.120249 0
M  V30 10796 C 1068.1 -2.18925 -0.843155 0
M  V30 10797 C 1069.11 -1.16575 -1.29175 0
M  V30 10798 O 1070.29 -1.4905 -1.35448 0
M  V30 10799 C 1067.36 -2.7775 -2.075 0
M  V30 10800 C 1066.42 -3.95139 -1.6782 0
M  V30 10801 C 1065.65 -4.51149 -2.85132 0
M  V30 10802 O 1065.87 -4.06056 -4.00593 0
M  V30 10803 O 1064.81 -5.41815 -2.62145 0
M  V30 10804 H 1068.63 -3.01707 -0.347357 0
M  V30 10805 H 1066.22 -1.49028 -0.105427 0
M  V30 10806 H 1068.1 -3.15243 -2.79643 0
M  V30 10807 H 1066.77 -1.97998 -2.56083 0
M  V30 10808 H 1065.68 -3.62412 -0.927807 0
M  V30 10809 H 1067.01 -4.7633 -1.23977 0
M  V30 10810 N 1068.67 0.153526 -1.5685 0
M  V30 10811 C 1069.63 1.17362 -1.96873 0
M  V30 10812 C 1070.63 1.36219 -0.854456 0
M  V30 10813 O 1071.82 1.33322 -1.1212 0
M  V30 10814 C 1068.95 2.53523 -2.27901 0
M  V30 10815 H 1070.14 0.830432 -2.88173 0
M  V30 10816 H 1067.7 0.396633 -1.51184 0
M  V30 10817 H 1068.43 2.92824 -1.39371 0
M  V30 10818 H 1068.22 2.41198 -3.09137 0
M  V30 10819 H 1069.71 3.27006 -2.59725 0
M  V30 10820 N 1070.14 1.51827 0.422667 0
M  V30 10821 C 1071.39 1.64893 1.16853 0
M  V30 10822 C 1071.71 0.37456 1.91369 0
M  V30 10823 O 1070.98 -0.610128 1.86157 0
M  V30 10824 H 1069.56 0.607744 0.434345 0
M  V30 10825 H 1072.23 1.88816 0.483159 0
M  V30 10826 H 1071.32 2.48361 1.89006 0
M  V30 10827 N 1071.62 -0.679052 1.4222 0
M  V30 10828 C 1072.85 -1.47248 1.46058 0
M  V30 10829 C 1073.27 -1.87962 0.0720987 0
M  V30 10830 O 1072.63 -1.5572 -0.928488 0
M  V30 10831 C 1072.68 -2.70067 2.38948 0
M  V30 10832 O 1071.78 -3.68178 1.85791 0
M  V30 10833 H 1071.12 -0.442533 0.495036 0
M  V30 10834 H 1073.65 -0.833263 1.86863 0
M  V30 10835 H 1073.66 -3.18187 2.55385 0
M  V30 10836 H 1072.34 -2.39773 3.39826 0
M  V30 10837 H 1070.92 -3.2719 1.78889 0
M  V30 10838 N 1073.1 -1.28322 -0.914942 0
M  V30 10839 C 1074.06 -1.12169 -1.99877 0
M  V30 10840 C 1075.06 -0.0617252 -1.60681 0
M  V30 10841 O 1076.25 -0.307405 -1.71466 0
M  V30 10842 C 1073.39 -0.711959 -3.33383 0
M  V30 10843 H 1074.58 -2.08425 -2.15636 0
M  V30 10844 H 1072.13 -1.11291 -1.09745 0
M  V30 10845 H 1072.87 0.251418 -3.23324 0
M  V30 10846 H 1072.65 -1.47764 -3.63192 0
M  V30 10847 H 1074.14 -0.621558 -4.12948 0
M  V30 10848 N 1074.58 1.12322 -1.10551 0
M  V30 10849 C 1075.49 2.21678 -0.767862 0
M  V30 10850 C 1076.5 1.72404 0.235132 0
M  V30 10851 O 1077.68 2.01266 0.0735912 0
M  V30 10852 C 1074.75 3.46087 -0.205999 0
M  V30 10853 C 1073.81 4.10195 -1.26642 0
M  V30 10854 C 1073.04 5.28666 -0.731274 0
M  V30 10855 O 1073.26 5.68686 0.44189 0
M  V30 10856 O 1072.2 5.83121 -1.49176 0
M  V30 10857 H 1076.02 2.52955 -1.6807 0
M  V30 10858 H 1073.61 1.2068 -0.880728 0
M  V30 10859 H 1075.49 4.21273 0.103435 0
M  V30 10860 H 1074.16 3.16484 0.679685 0
M  V30 10861 H 1073.07 3.36784 -1.62873 0
M  V30 10862 H 1074.4 4.43957 -2.12516 0
M  V30 10863 N 1076.06 0.894434 1.2976 0
M  V30 10864 C 1077 0.357958 2.29829 0
M  V30 10865 C 1078 -0.540093 1.6056 0
M  V30 10866 O 1079.2 -0.423478 1.74948 0
M  V30 10867 H 1075.58 0.0971183 0.745702 0
M  V30 10868 H 1077.55 1.21542 2.72526 0
M  V30 10869 C 1076.3 -0.404126 3.45343 0
M  V30 10870 H 1075.62 0.277671 3.98835 0
M  V30 10871 H 1077.06 -0.744446 4.17413 0
M  V30 10872 C 1075.52 -1.6048 2.96222 0
M  V30 10873 O 1076.05 -2.70414 2.97051 0
M  V30 10874 N 1074.26 -1.44517 2.52117 0
M  V30 10875 H 1073.8 -0.55082 2.51642 0
M  V30 10876 H 1073.76 -2.24987 2.1961 0
M  V30 10877 N 1077.53 -1.43282 0.656365 0
M  V30 10878 C 1078.81 -1.9534 0.100816 0
M  V30 10879 C 1079.19 -1.59755 -1.37992 0
M  V30 10880 O 1078.54 -0.884264 -2.10697 0
M  V30 10881 C 1078.75 -3.47237 0.35038 0
M  V30 10882 C 1080.1 -4.23822 0.257001 0
M  V30 10883 O 1081.12 -3.55073 0.283111 0
M  V30 10884 O 1079.98 -5.46192 0.183397 0
M  V30 10885 H 1077.07 -0.826963 -0.00780287 0
M  V30 10886 H 1079.62 -1.53205 0.72982 0
M  V30 10887 H 1078.39 -3.66276 1.37685 0
M  V30 10888 H 1078.02 -3.96378 -0.311539 0
M  V30 10889 N 1079.01 -0.398486 -1.52479 0
M  V30 10890 C 1080.24 0.180557 -2.06111 0
M  V30 10891 C 1080.66 1.39751 -1.26945 0
M  V30 10892 O 1080.01 1.79699 -0.318497 0
M  V30 10893 C 1080.06 0.541573 -3.5742 0
M  V30 10894 O 1079.79 -0.627043 -4.33589 0
M  V30 10895 C 1081.29 1.17549 -4.27431 0
M  V30 10896 H 1078.51 0.0250754 -0.670531 0
M  V30 10897 H 1081.05 -0.566368 -1.96501 0
M  V30 10898 H 1079.21 1.23839 -3.67073 0
M  V30 10899 H 1079.62 -0.328233 -5.23472 0
M  V30 10900 H 1081.09 1.37839 -5.34513 0
M  V30 10901 H 1081.57 2.14553 -3.83228 0
M  V30 10902 H 1082.18 0.51918 -4.22119 0
M  V30 10903 N 1080.49 1.57075 -0.12858 0
M  V30 10904 C 1081.45 2.14643 0.803813 0
M  V30 10905 C 1082.45 1.08363 1.18803 0
M  V30 10906 O 1083.64 1.34093 1.11197 0
M  V30 10907 C 1080.78 2.6945 2.08829 0
M  V30 10908 H 1081.97 2.98362 0.303347 0
M  V30 10909 H 1079.52 1.55833 0.120735 0
M  V30 10910 H 1080.26 1.89345 2.63285 0
M  V30 10911 H 1080.04 3.47187 1.82218 0
M  V30 10912 H 1081.53 3.13865 2.7546 0
M  V30 10913 N 1081.97 -0.145205 1.5693 0
M  V30 10914 C 1083.25 -0.88631 1.74367 0
M  V30 10915 C 1083.63 -1.99259 0.697081 0
M  V30 10916 O 1082.97 -2.26732 -0.28368 0
M  V30 10917 C 1083.18 -1.42712 3.18488 0
M  V30 10918 C 1084.53 -1.88982 3.80225 0
M  V30 10919 O 1085.56 -1.5245 3.21928 0
M  V30 10920 O 1084.42 -2.56361 4.8264 0
M  V30 10921 H 1081.51 -0.418979 0.713011 0
M  V30 10922 H 1084.06 -0.130991 1.69194 0
M  V30 10923 H 1082.83 -0.632165 3.8616 0
M  V30 10924 H 1082.45 -2.24589 3.28094 0
M  V30 10925 N 1083.45 -1.52049 -0.414609 0
M  V30 10926 C 1084.41 -1.74382 -1.4874 0
M  V30 10927 C 1085.41 -0.613701 -1.48628 0
M  V30 10928 O 1086.6 -0.88152 -1.50249 0
M  V30 10929 C 1083.73 -1.82116 -2.88178 0
M  V30 10930 H 1084.93 -2.70147 -1.30233 0
M  V30 10931 H 1082.48 -1.42382 -0.644756 0
M  V30 10932 H 1083.21 -0.882457 -3.12063 0
M  V30 10933 H 1083 -2.64268 -2.89663 0
M  V30 10934 H 1084.49 -2.01155 -3.65959 0
M  V30 10935 N 1084.93 0.6715 -1.42579 0
M  V30 10936 C 1085.84 1.81435 -1.48723 0
M  V30 10937 C 1086.85 1.69895 -0.375716 0
M  V30 10938 O 1088.03 1.91388 -0.627115 0
M  V30 10939 C 1085.09 3.17599 -1.39038 0
M  V30 10940 C 1084.15 3.41071 -2.60709 0
M  V30 10941 C 1083.39 4.7074 -2.51476 0
M  V30 10942 O 1083.61 5.48868 -1.55243 0
M  V30 10943 O 1082.54 4.95528 -3.41666 0
M  V30 10944 H 1086.37 1.79206 -2.45191 0
M  V30 10945 H 1083.95 0.827666 -1.24379 0
M  V30 10946 H 1085.84 3.98847 -1.3601 0
M  V30 10947 H 1084.51 3.20458 -0.456966 0
M  V30 10948 H 1083.42 2.59659 -2.69311 0
M  V30 10949 H 1084.75 3.43045 -3.5296 0
M  V30 10950 N 1086.4 1.28806 0.908124 0
M  V30 10951 C 1087.81 1.14719 1.47297 0
M  V30 10952 C 1088.17 -0.260763 1.94459 0
M  V30 10953 O 1087.29 -1.15553 1.82966 0
M  V30 10954 C 1087.89 2.07643 2.67712 0
M  V30 10955 C 1086.44 1.97605 3.20358 0
M  V30 10956 C 1085.59 1.99058 1.93058 0
M  V30 10957 H 1088.54 1.41413 0.720283 0
M  V30 10958 H 1088.56 1.64372 3.43165 0
M  V30 10959 H 1088.08 3.10108 2.33355 0
M  V30 10960 H 1086.18 0.981982 3.59427 0
M  V30 10961 H 1086.29 2.84846 3.85226 0
M  V30 10962 H 1084.65 1.43541 2.104 0
M  V30 10963 H 1085.44 3.03212 1.60989 0
M  V30 10964 N 1087.88 -1.11734 1.11145 0
M  V30 10965 C 1089.29 -1.64928 0.874959 0
M  V30 10966 C 1089.64 -1.87012 -0.593375 0
M  V30 10967 O 1088.77 -1.60206 -1.45475 0
M  V30 10968 C 1089.36 -2.99608 1.58178 0
M  V30 10969 C 1087.92 -3.49723 1.39179 0
M  V30 10970 C 1087.07 -2.24595 1.62642 0
M  V30 10971 H 1090.02 -0.954154 1.26813 0
M  V30 10972 H 1090.04 -3.66434 1.02501 0
M  V30 10973 H 1089.55 -2.83504 2.65042 0
M  V30 10974 H 1087.65 -3.70998 0.345111 0
M  V30 10975 H 1087.77 -4.28711 2.13878 0
M  V30 10976 H 1086.13 -2.32067 1.04961 0
M  V30 10977 H 1086.91 -2.11036 2.70774 0
M  V30 10978 N 1089.36 -0.901303 -1.29284 0
M  V30 10979 C 1090.31 -0.378666 -2.27672 0
M  V30 10980 C 1091.28 0.540102 -1.57074 0
M  V30 10981 O 1092.46 0.464997 -1.85047 0
M  V30 10982 C 1089.6 0.38635 -3.42931 0
M  V30 10983 C 1088.71 -0.563496 -4.28309 0
M  V30 10984 C 1087.85 0.218731 -5.30749 0
M  V30 10985 C 1086.89 -0.725536 -6.07785 0
M  V30 10986 N 1086.03 0.0223854 -7.02096 0
M  V30 10987 H 1090.87 -1.22277 -2.71758 0
M  V30 10988 H 1088.4 -0.614302 -1.33659 0
M  V30 10989 H 1090.36 0.845967 -4.08533 0
M  V30 10990 H 1088.99 1.1949 -2.9987 0
M  V30 10991 H 1088.04 -1.14163 -3.62865 0
M  V30 10992 H 1089.35 -1.28623 -4.81931 0
M  V30 10993 H 1088.51 0.739473 -6.02177 0
M  V30 10994 H 1087.25 0.97459 -4.77863 0
M  V30 10995 H 1086.25 -1.25776 -5.3522 0
M  V30 10996 H 1087.48 -1.48075 -6.6276 0
M  V30 10997 H 1085.42 0.760482 -6.51577 0
M  V30 10998 H 1085.34 -0.640408 -7.53283 0
M  V30 10999 H 1086.61 0.523339 -7.77741 0
M  V30 11000 N 1090.84 1.42931 -0.663954 0
M  V30 11001 C 1092.09 2.00904 -0.179011 0
M  V30 11002 C 1092.4 1.53056 1.21791 0
M  V30 11003 O 1093.61 2.03374 1.79865 0
M  V30 11004 C 1092.06 3.58892 -0.269198 0
M  V30 11005 C 1091.67 4.15731 -1.66949 0
M  V30 11006 C 1093.41 4.24207 0.157589 0
M  V30 11007 C 1091.32 5.66047 -1.71303 0
M  V30 11008 H 1090.25 0.75135 -0.0631623 0
M  V30 11009 H 1092.9 1.6378 -0.827556 0
M  V30 11010 H 1091.28 3.93469 0.447048 0
M  V30 11011 H 1092.46 3.92634 -2.41195 0
M  V30 11012 H 1090.77 3.62826 -2.04318 0
M  V30 11013 H 1093.37 5.34503 0.145057 0
M  V30 11014 H 1093.71 3.98901 1.19095 0
M  V30 11015 H 1094.25 3.94552 -0.507274 0
M  V30 11016 H 1090.98 5.96136 -2.72584 0
M  V30 11017 H 1090.5 5.91167 -1.01398 0
M  V30 11018 H 1092.18 6.30275 -1.46158 0
M  V30 11019 N 1092.32 0.406567 1.52266 0
M  V30 11020 C 1093.56 -0.170305 2.02084 0
M  V30 11021 C 1093.89 -1.45008 1.29176 0
M  V30 11022 O 1093.17 -1.90399 0.39731 0
M  V30 11023 C 1093.45 -0.420627 3.57635 0
M  V30 11024 C 1093.31 0.87564 4.41194 0
M  V30 11025 C 1094.62 -1.20387 4.23314 0
M  V30 11026 H 1091.74 -0.0604219 0.734519 0
M  V30 11027 H 1094.39 0.539529 1.82179 0
M  V30 11028 H 1092.54 -1.0253 3.74726 0
M  V30 11029 H 1094.21 1.51192 4.35819 0
M  V30 11030 H 1092.45 1.48718 4.07511 0
M  V30 11031 H 1093.12 0.654916 5.48101 0
M  V30 11032 H 1095.6 -0.691972 4.10306 0
M  V30 11033 H 1094.47 -1.34776 5.32096 0
M  V30 11034 H 1094.73 -2.2238 3.82099 0
M  V30 11035 N 1093.79 -1.57004 0.136909 0
M  V30 11036 C 1094.73 -2.13355 -0.837405 0
M  V30 11037 C 1095.74 -1.08053 -1.21772 0
M  V30 11038 O 1096.93 -1.35365 -1.16355 0
M  V30 11039 C 1094.03 -2.63302 -2.13366 0
M  V30 11040 C 1093.2 -3.92896 -1.92228 0
M  V30 11041 C 1092.26 -4.28257 -3.05749 0
M  V30 11042 O 1091.29 -4.96761 -2.7788 0
M  V30 11043 N 1092.49 -3.87021 -4.3266 0
M  V30 11044 H 1095.25 -2.9758 -0.35586 0
M  V30 11045 H 1092.81 -1.61832 -0.0469758 0
M  V30 11046 H 1094.81 -2.83977 -2.88339 0
M  V30 11047 H 1093.38 -1.83858 -2.52814 0
M  V30 11048 H 1092.6 -3.80949 -1.01349 0
M  V30 11049 H 1093.88 -4.776 -1.75431 0
M  V30 11050 H 1093.28 -3.31804 -4.58173 0
M  V30 11051 H 1091.84 -4.12768 -5.04446 0
M  V30 11052 N 1095.27 0.136881 -1.57004 0
M  V30 11053 C 1096.21 1.19853 -1.94192 0
M  V30 11054 C 1097.18 1.4104 -0.809103 0
M  V30 11055 O 1098.37 1.55487 -1.06565 0
M  V30 11056 C 1095.49 2.55565 -2.22271 0
M  V30 11057 C 1094.54 2.50913 -3.44884 0
M  V30 11058 S 1095.37 1.96619 -4.98098 0
M  V30 11059 C 1096.53 3.34039 -5.2931 0
M  V30 11060 H 1096.76 0.881316 -2.83937 0
M  V30 11061 H 1094.3 0.342915 -1.50544 0
M  V30 11062 H 1096.25 3.33659 -2.39127 0
M  V30 11063 H 1094.91 2.84472 -1.33172 0
M  V30 11064 H 1094.11 3.50839 -3.6184 0
M  V30 11065 H 1093.71 1.80932 -3.27322 0
M  V30 11066 H 1096 4.30189 -5.23397 0
M  V30 11067 H 1096.94 3.21927 -6.30689 0
M  V30 11068 H 1097.35 3.31642 -4.56808 0
M  V30 11069 N 1096.75 1.52266 0.40654 0
M  V30 11070 C 1097.98 1.70598 1.17945 0
M  V30 11071 C 1098.4 0.415793 1.83447 0
M  V30 11072 O 1097.76 -0.626968 1.70114 0
M  V30 11073 C 1097.81 2.84449 2.21633 0
M  V30 11074 O 1096.91 2.50199 3.27833 0
M  V30 11075 H 1096.25 0.567837 0.344177 0
M  V30 11076 H 1098.78 1.98981 0.476211 0
M  V30 11077 H 1098.79 3.09436 2.65919 0
M  V30 11078 H 1097.47 3.78055 1.73341 0
M  V30 11079 H 1096.04 2.35892 2.88807 0
M  V30 11080 N 1098.23 -0.663929 1.42933 0
M  V30 11081 C 1099.18 -1.79843 1.4751 0
M  V30 11082 C 1100.17 -1.65751 0.349727 0
M  V30 11083 O 1101.38 -1.72227 0.523239 0
M  V30 11084 H 1097.75 -0.593176 0.462219 0
M  V30 11085 H 1099.72 -1.73102 2.4306 0
M  V30 11086 C 1098.47 -3.18053 1.4049 0
M  V30 11087 H 1097.79 -3.29529 2.26386 0
M  V30 11088 H 1099.23 -3.97423 1.47754 0
M  V30 11089 C 1097.69 -3.36682 0.121076 0
M  V30 11090 O 1098.22 -3.93202 -0.821874 0
M  V30 11091 N 1096.43 -2.90579 0.0347141 0
M  V30 11092 H 1095.98 -2.44769 0.802852 0
M  V30 11093 H 1095.93 -3.03421 -0.823607 0
M  V30 11094 N 1099.71 -1.29285 -0.901281 0
M  V30 11095 C 1100.94 -1.19874 -1.68267 0
M  V30 11096 C 1101.34 0.243387 -1.87628 0
M  V30 11097 O 1100.69 1.17497 -1.41209 0
M  V30 11098 C 1100.75 -1.83907 -3.08899 0
M  V30 11099 C 1100.41 -3.33198 -3.12775 0
M  V30 11100 C 1101.41 -4.29446 -2.9304 0
M  V30 11101 C 1099.1 -3.7437 -3.34892 0
M  V30 11102 C 1101.09 -5.64842 -2.95352 0
M  V30 11103 C 1098.78 -5.09888 -3.36834 0
M  V30 11104 C 1099.77 -6.04934 -3.17087 0
M  V30 11105 O 1099.46 -7.37979 -3.18815 0
M  V30 11106 H 1099.19 -0.416601 -0.532372 0
M  V30 11107 H 1101.75 -1.71154 -1.13558 0
M  V30 11108 H 1099.98 -1.27136 -3.65203 0
M  V30 11109 H 1101.67 -1.6884 -3.69118 0
M  V30 11110 H 1102.43 -3.9897 -2.75767 0
M  V30 11111 H 1098.31 -3.00846 -3.49303 0
M  V30 11112 H 1101.86 -6.39004 -2.79856 0
M  V30 11113 H 1097.75 -5.40009 -3.53638 0
M  V30 11114 H 1098.52 -7.46763 -3.35092 0
M  V30 11115 N 1101.18 1.11143 -1.11736 0
M  V30 11116 C 1102.42 1.84576 -0.878119 0
M  V30 11117 C 1102.79 1.82851 0.585605 0
M  V30 11118 O 1103.99 2.51763 0.941732 0
M  V30 11119 C 1102.26 3.27628 -1.4281 0
M  V30 11120 S 1103.82 4.18276 -1.3263 0
M  V30 11121 H 1100.64 0.636442 -0.316958 0
M  V30 11122 H 1103.24 1.33794 -1.42546 0
M  V30 11123 H 1101.94 3.2645 -2.48714 0
M  V30 11124 H 1101.47 3.83479 -0.877925 0
M  V30 11125 H 1103.49 4.95335 -0.292878 0
M  V30 11126 N 1102.66 0.908147 1.28804 0
M  V30 11127 C 1103.91 0.53734 1.94826 0
M  V30 11128 C 1104.23 -0.920962 1.71882 0
M  V30 11129 O 1103.5 -1.65043 1.05534 0
M  V30 11130 H 1102.08 0.195729 0.720902 0
M  V30 11131 H 1104.74 1.15628 1.56895 0
M  V30 11132 H 1103.84 0.727052 3.03513 0
M  V30 11133 N 1104.14 -1.42577 0.671525 0
M  V30 11134 C 1105.39 -2.00806 0.189663 0
M  V30 11135 C 1105.7 -1.537 -1.20978 0
M  V30 11136 O 1106.91 -2.04325 -1.78784 0
M  V30 11137 C 1105.36 -3.58744 0.288227 0
M  V30 11138 C 1104.97 -4.14839 1.69152 0
M  V30 11139 C 1106.72 -4.24285 -0.13509 0
M  V30 11140 C 1104.62 -5.65131 1.74302 0
M  V30 11141 H 1103.55 -0.751004 0.067146 0
M  V30 11142 H 1106.2 -1.63338 0.83623 0
M  V30 11143 H 1104.59 -3.937 -0.426175 0
M  V30 11144 H 1105.76 -3.91349 2.43274 0
M  V30 11145 H 1104.08 -3.61738 2.0624 0
M  V30 11146 H 1106.67 -5.34573 -0.116709 0
M  V30 11147 H 1107.02 -3.99527 -1.16977 0
M  V30 11148 H 1107.55 -3.94278 0.528191 0
M  V30 11149 H 1104.29 -5.94682 2.75742 0
M  V30 11150 H 1103.81 -5.90621 1.04531 0
M  V30 11151 H 1105.49 -6.29491 1.49498 0
M  V30 11152 N 1105.62 -0.414636 -1.52048 0
M  V30 11153 C 1106.87 0.159034 -2.01473 0
M  V30 11154 C 1107.19 1.45176 -1.30188 0
M  V30 11155 O 1106.46 1.91134 -0.429469 0
M  V30 11156 H 1105.04 0.0617604 -0.744443 0
M  V30 11157 H 1107.7 -0.552141 -1.86916 0
M  V30 11158 H 1106.8 0.351217 -3.10118 0
M  V30 11159 N 1107.1 1.56929 -0.145233 0
M  V30 11160 C 1108.35 1.95243 0.506273 0
M  V30 11161 C 1108.66 1.0325 1.66129 0
M  V30 11162 O 1109.86 1.31135 2.37731 0
M  V30 11163 C 1108.32 3.47079 0.952042 0
M  V30 11164 C 1107.93 4.47654 -0.175947 0
M  V30 11165 C 1109.67 3.94263 1.57344 0
M  V30 11166 C 1107.58 5.90698 0.287993 0
M  V30 11167 H 1106.51 0.728906 0.192903 0
M  V30 11168 H 1109.16 1.82062 -0.229295 0
M  V30 11169 H 1107.54 3.55587 1.74282 0
M  V30 11170 H 1108.72 4.50841 -0.952848 0
M  V30 11171 H 1107.03 4.10377 -0.70564 0
M  V30 11172 H 1109.63 4.9857 1.93214 0
M  V30 11173 H 1109.97 3.35714 2.46174 0
M  V30 11174 H 1110.5 3.88665 0.847593 0
M  V30 11175 H 1107.24 6.53061 -0.564889 0
M  V30 11176 H 1106.76 5.90876 1.03081 0
M  V30 11177 H 1108.44 6.42747 0.740586 0
M  V30 11178 N 1108.58 -0.128553 1.57075 0
M  V30 11179 C 1109.85 -0.867766 1.75297 0
M  V30 11180 C 1110.23 -1.98508 0.718176 0
M  V30 11181 O 1109.58 -2.2702 -0.259616 0
M  V30 11182 C 1109.79 -1.39326 3.19983 0
M  V30 11183 C 1111.14 -1.84939 3.82208 0
M  V30 11184 O 1112.16 -1.49027 3.23527 0
M  V30 11185 O 1111.02 -2.51227 4.85332 0
M  V30 11186 H 1108.12 -0.411393 0.717415 0
M  V30 11187 H 1110.66 -0.113038 1.69323 0
M  V30 11188 H 1109.43 -0.591172 3.86809 0
M  V30 11189 H 1109.06 -2.21097 3.30457 0
M  V30 11190 N 1110.05 -1.5248 -0.398459 0
M  V30 11191 C 1111.02 -1.75949 -1.46883 0
M  V30 11192 C 1112.02 -0.629431 -1.47969 0
M  V30 11193 O 1113.21 -0.897407 -1.49306 0
M  V30 11194 C 1110.34 -1.85162 -2.8623 0
M  V30 11195 H 1111.53 -2.71513 -1.2736 0
M  V30 11196 H 1109.08 -1.43058 -0.629619 0
M  V30 11197 H 1109.82 -0.915505 -3.11109 0
M  V30 11198 H 1109.6 -2.67326 -2.86844 0
M  V30 11199 H 1111.09 -2.05025 -3.63805 0
M  V30 11200 N 1111.53 0.65634 -1.43283 0
M  V30 11201 C 1112.44 1.79847 -1.50639 0
M  V30 11202 C 1113.46 1.69487 -0.393714 0
M  V30 11203 O 1114.63 1.90712 -0.647379 0
M  V30 11204 C 1111.7 3.16107 -1.42398 0
M  V30 11205 C 1110.76 3.38287 -2.64312 0
M  V30 11206 C 1109.99 4.68046 -2.56454 0
M  V30 11207 O 1110.22 5.4719 -1.61056 0
M  V30 11208 O 1109.15 4.91877 -3.46902 0
M  V30 11209 H 1112.98 1.76596 -2.47078 0
M  V30 11210 H 1110.56 0.814428 -1.25249 0
M  V30 11211 H 1112.44 3.97382 -1.40233 0
M  V30 11212 H 1111.12 3.19956 -0.490929 0
M  V30 11213 H 1110.02 2.56788 -2.72049 0
M  V30 11214 H 1111.36 3.39282 -3.56579 0
M  V30 11215 N 1113.01 1.29761 0.894412 0
M  V30 11216 C 1113.94 1.17902 2.01547 0
M  V30 11217 C 1114.92 0.0719402 1.69948 0
M  V30 11218 O 1116.11 0.252338 1.92554 0
M  V30 11219 C 1113.24 0.860262 3.36477 0
M  V30 11220 C 1112.19 1.92424 3.82305 0
M  V30 11221 C 1111.52 1.45868 5.14419 0
M  V30 11222 C 1112.82 3.33391 4.02054 0
M  V30 11223 H 1114.51 2.11688 2.11727 0
M  V30 11224 H 1112.06 1.01916 1.01731 0
M  V30 11225 H 1114.01 0.763987 4.14417 0
M  V30 11226 H 1112.73 -0.113289 3.26403 0
M  V30 11227 H 1111.39 2.00999 3.06586 0
M  V30 11228 H 1111.04 0.473654 5.00765 0
M  V30 11229 H 1110.74 2.17028 5.46052 0
M  V30 11230 H 1112.26 1.37601 5.94894 0
M  V30 11231 H 1113.68 3.27628 4.7046 0
M  V30 11232 H 1112.07 4.02555 4.4505 0
M  V30 11233 H 1113.14 3.75978 3.06216 0
M  V30 11234 N 1114.49 -1.10549 1.12324 0
M  V30 11235 C 1115.71 -1.8681 0.900927 0
M  V30 11236 C 1116.14 -1.80049 -0.54443 0
M  V30 11237 O 1115.5 -1.16957 -1.38531 0
M  V30 11238 C 1115.54 -3.33197 1.37883 0
M  V30 11239 O 1114.65 -4.08628 0.556529 0
M  V30 11240 H 1113.99 -0.579709 0.32378 0
M  V30 11241 H 1116.52 -1.39678 1.49503 0
M  V30 11242 H 1116.53 -3.84047 1.37739 0
M  V30 11243 H 1115.2 -3.37435 2.43127 0
M  V30 11244 H 1113.78 -3.67627 0.62486 0
M  V30 11245 N 1115.97 -0.914965 -1.28321 0
M  V30 11246 C 1116.9 -0.421292 -2.29668 0
M  V30 11247 C 1117.88 0.511743 -1.6222 0
M  V30 11248 O 1119.06 0.419218 -1.89621 0
M  V30 11249 C 1116.19 0.338364 -3.45648 0
M  V30 11250 C 1115.15 -0.505646 -4.25003 0
M  V30 11251 C 1114.47 0.382421 -5.33331 0
M  V30 11252 C 1115.77 -1.76354 -4.91626 0
M  V30 11253 H 1117.47 -1.26826 -2.71211 0
M  V30 11254 H 1115.01 -0.611291 -1.30381 0
M  V30 11255 H 1116.96 0.694578 -4.15636 0
M  V30 11256 H 1115.69 1.21925 -3.02988 0
M  V30 11257 H 1114.35 -0.844395 -3.56743 0
M  V30 11258 H 1114 1.26189 -4.86914 0
M  V30 11259 H 1113.7 -0.17871 -5.87328 0
M  V30 11260 H 1115.22 0.73449 -6.06166 0
M  V30 11261 H 1116.63 -1.47616 -5.5397 0
M  V30 11262 H 1115.03 -2.26717 -5.55625 0
M  V30 11263 H 1116.1 -2.49063 -4.16048 0
M  V30 11264 N 1117.44 1.42219 -0.679077 0
M  V30 11265 C 1118.72 1.95155 -0.13188 0
M  V30 11266 C 1119.1 1.6193 1.35433 0
M  V30 11267 O 1118.45 0.917672 2.09263 0
M  V30 11268 C 1118.66 3.46635 -0.405578 0
M  V30 11269 C 1120.01 4.23359 -0.324394 0
M  V30 11270 O 1121.03 3.54578 -0.339564 0
M  V30 11271 O 1119.89 5.45831 -0.270268 0
M  V30 11272 H 1116.98 0.826983 -0.00535438 0
M  V30 11273 H 1119.53 1.52024 -0.754101 0
M  V30 11274 H 1118.3 3.6404 -1.43495 0
M  V30 11275 H 1117.92 3.96823 0.248439 0
M  V30 11276 N 1118.92 0.422693 1.51826 0
M  V30 11277 C 1120.17 -0.148641 2.01954 0
M  V30 11278 C 1120.5 -1.43982 1.30765 0
M  V30 11279 O 1119.75 -1.91428 0.406668 0
M  V30 11280 C 1120.05 -0.429516 3.5481 0
M  V30 11281 C 1119.72 0.774088 4.44206 0
M  V30 11282 C 1118.38 1.1042 4.6836 0
M  V30 11283 C 1120.73 1.5777 4.96747 0
M  V30 11284 C 1118.06 2.23887 5.42302 0
M  V30 11285 C 1120.41 2.70325 5.71933 0
M  V30 11286 C 1119.07 3.03807 5.94355 0
M  V30 11287 H 1118.34 -0.0543917 0.739001 0
M  V30 11288 H 1120.99 0.566892 1.82917 0
M  V30 11289 H 1119.3 -1.22678 3.72099 0
M  V30 11290 H 1120.99 -0.884761 3.91118 0
M  V30 11291 H 1117.58 0.506834 4.25593 0
M  V30 11292 H 1121.77 1.33589 4.77983 0
M  V30 11293 H 1117.02 2.50159 5.5788 0
M  V30 11294 H 1121.2 3.32974 6.11638 0
M  V30 11295 H 1118.82 3.91844 6.51431 0
M  V30 11296 N 1120.4 -1.5685 0.153553 0
M  V30 11297 C 1121.35 -2.13671 -0.795526 0
M  V30 11298 C 1122.33 -1.06624 -1.20499 0
M  V30 11299 O 1123.53 -1.32788 -1.17032 0
M  V30 11300 C 1120.65 -2.76704 -2.03199 0
M  V30 11301 C 1119.74 -3.90884 -1.64532 0
M  V30 11302 N 1120.13 -4.96466 -0.96723 0
M  V30 11303 C 1118.43 -4.01713 -1.93759 0
M  V30 11304 C 1119.13 -5.76453 -0.779527 0
M  V30 11305 N 1118.11 -5.27444 -1.31544 0
M  V30 11306 H 1121.91 -2.92673 -0.268288 0
M  V30 11307 H 1119.42 -1.6233 -0.0477596 0
M  V30 11308 H 1121.42 -3.15777 -2.72196 0
M  V30 11309 H 1120.08 -1.99177 -2.56434 0
M  V30 11310 H 1121.09 -5.14087 -0.627253 0
M  V30 11311 H 1117.77 -3.3527 -2.48797 0
M  V30 11312 H 1119.16 -6.71455 -0.244604 0
M  V30 11313 N 1121.88 0.120221 -1.57141 0
M  V30 11314 C 1122.81 1.1732 -1.96898 0
M  V30 11315 C 1123.82 1.37722 -0.868134 0
M  V30 11316 O 1125.01 1.36818 -1.14643 0
M  V30 11317 C 1122.11 2.53343 -2.25102 0
M  V30 11318 C 1121.28 2.53559 -3.56408 0
M  V30 11319 C 1120.34 3.71319 -3.72838 0
M  V30 11320 O 1119.37 3.54961 -4.44962 0
M  V30 11321 N 1120.57 4.89836 -3.11514 0
M  V30 11322 H 1123.34 0.835023 -2.87832 0
M  V30 11323 H 1120.9 0.309508 -1.58914 0
M  V30 11324 H 1122.89 3.30679 -2.3331 0
M  V30 11325 H 1121.46 2.79347 -1.403 0
M  V30 11326 H 1120.68 1.61946 -3.59398 0
M  V30 11327 H 1121.97 2.5076 -4.42716 0
M  V30 11328 H 1121.37 5.0603 -2.52884 0
M  V30 11329 H 1119.92 5.64853 -3.25246 0
M  V30 11330 N 1123.36 1.52689 0.390367 0
M  V30 11331 C 1124.32 1.76726 1.45947 0
M  V30 11332 C 1125.32 0.637269 1.47633 0
M  V30 11333 O 1126.51 0.905312 1.48828 0
M  V30 11334 C 1123.64 1.86678 2.85244 0
M  V30 11335 H 1124.83 2.72185 1.25918 0
M  V30 11336 H 1122.39 1.4339 0.622023 0
M  V30 11337 H 1123.12 0.931991 3.10619 0
M  V30 11338 H 1122.91 2.68843 2.85422 0
M  V30 11339 H 1124.4 2.06952 3.62713 0
M  V30 11340 N 1124.83 -0.648732 1.43629 0
M  V30 11341 C 1126.25 -0.964917 1.27128 0
M  V30 11342 C 1126.45 -2.00561 0.194251 0
M  V30 11343 O 1125.51 -2.48884 -0.42581 0
M  V30 11344 C 1126.82 -1.44491 2.6371 0
M  V30 11345 C 1128.37 -1.56133 2.71278 0
M  V30 11346 C 1128.84 -2.07521 4.08288 0
M  V30 11347 N 1130.33 -2.14817 4.10375 0
M  V30 11348 C 1131.07 -2.55712 5.13224 0
M  V30 11349 N 1130.56 -2.9587 6.26444 0
M  V30 11350 N 1132.36 -2.55691 5.00578 0
M  V30 11351 H 1124.51 0.0398357 2.12363 0
M  V30 11352 H 1126.77 -0.0447705 0.946942 0
M  V30 11353 H 1126.48 -0.754616 3.43509 0
M  V30 11354 H 1126.35 -2.41914 2.89409 0
M  V30 11355 H 1128.74 -2.24263 1.91808 0
M  V30 11356 H 1128.82 -0.571314 2.49338 0
M  V30 11357 H 1128.46 -1.39992 4.88226 0
M  V30 11358 H 1128.39 -3.07362 4.27594 0
M  V30 11359 H 1130.88 -1.86538 3.28652 0
M  V30 11360 H 1131.2 -3.25837 7.0075 0
M  V30 11361 H 1129.54 -2.93664 6.2991 0
M  V30 11362 H 1132.73 -2.23697 4.1119 0
M  V30 11363 H 1132.91 -2.87239 5.80859 0
M  V30 11364 N 1126.31 -1.30234 -0.887518 0
M  V30 11365 C 1127.22 -1.18316 -2.02579 0
M  V30 11366 C 1128.24 -0.103658 -1.73691 0
M  V30 11367 O 1129.41 -0.3181 -1.98872 0
M  V30 11368 C 1126.48 -0.873222 -3.35523 0
M  V30 11369 C 1125.54 -2.03783 -3.7785 0
M  V30 11370 C 1124.77 -1.74258 -5.0445 0
M  V30 11371 O 1125 -0.669295 -5.6646 0
M  V30 11372 O 1123.93 -2.59423 -5.43124 0
M  V30 11373 H 1127.76 -2.13933 -2.15561 0
M  V30 11374 H 1125.34 -1.09803 -1.0131 0
M  V30 11375 H 1127.22 -0.715463 -4.15282 0
M  V30 11376 H 1125.9 0.053056 -3.23657 0
M  V30 11377 H 1124.81 -2.2509 -2.98806 0
M  V30 11378 H 1126.14 -2.94574 -3.94318 0
M  V30 11379 N 1127.79 1.09952 -1.12909 0
M  V30 11380 C 1128.7 2.19999 -0.81471 0
M  V30 11381 C 1129.72 1.72864 0.19851 0
M  V30 11382 O 1130.89 2.01376 0.0308832 0
M  V30 11383 C 1127.96 3.45573 -0.279363 0
M  V30 11384 C 1127.02 4.07417 -1.35314 0
M  V30 11385 C 1126.25 5.26996 -0.843247 0
M  V30 11386 O 1126.47 5.69495 0.321164 0
M  V30 11387 O 1125.41 5.79826 -1.61511 0
M  V30 11388 H 1129.23 2.49333 -1.73398 0
M  V30 11389 H 1126.82 1.18784 -0.906128 0
M  V30 11390 H 1128.7 4.21398 0.0140531 0
M  V30 11391 H 1127.38 3.17854 0.612401 0
M  V30 11392 H 1126.28 3.33253 -1.6998 0
M  V30 11393 H 1127.62 4.39349 -2.21885 0
M  V30 11394 N 1129.27 0.921757 1.27833 0
M  V30 11395 C 1130.18 0.421668 2.30779 0
M  V30 11396 C 1131.19 -0.494686 1.6682 0
M  V30 11397 O 1132.37 -0.378935 1.97803 0
M  V30 11398 C 1129.44 -0.322928 3.45193 0
M  V30 11399 C 1128.5 0.627618 4.24687 0
M  V30 11400 C 1127.73 -0.0815385 5.33638 0
M  V30 11401 O 1127.95 -1.30193 5.55343 0
M  V30 11402 O 1126.89 0.58725 5.99028 0
M  V30 11403 H 1130.71 1.2763 2.7558 0
M  V30 11404 H 1128.3 0.686877 1.32674 0
M  V30 11405 H 1130.18 -0.743145 4.14796 0
M  V30 11406 H 1128.85 -1.15326 3.02459 0
M  V30 11407 H 1127.76 1.09739 3.57642 0
M  V30 11408 H 1129.09 1.425 4.71121 0
M  V30 11409 N 1130.75 -1.41857 0.686609 0
M  V30 11410 C 1132.16 -1.84439 0.289662 0
M  V30 11411 C 1132.51 -1.57462 -1.17047 0
M  V30 11412 O 1131.63 -1.04046 -1.89745 0
M  V30 11413 C 1132.23 -3.34802 0.518948 0
M  V30 11414 C 1130.79 -3.75988 0.176007 0
M  V30 11415 C 1129.93 -2.65339 0.805632 0
M  V30 11416 H 1132.89 -1.31536 0.88792 0
M  V30 11417 H 1132.91 -3.79833 -0.225209 0
M  V30 11418 H 1132.42 -3.54405 1.58173 0
M  V30 11419 H 1130.52 -3.61989 -0.882865 0
M  V30 11420 H 1130.63 -4.75009 0.624772 0
M  V30 11421 H 1129 -2.53605 0.235966 0
M  V30 11422 H 1129.78 -2.87762 1.8721 0
M  V30 11423 N 1132.22 -0.430739 -1.51599 0
M  V30 11424 C 1133.47 0.137657 -2.01631 0
M  V30 11425 C 1133.79 1.43787 -1.31721 0
M  V30 11426 O 1133.06 1.90668 -0.449717 0
M  V30 11427 H 1131.64 0.0538611 -0.745056 0
M  V30 11428 H 1134.31 -0.571935 -1.86319 0
M  V30 11429 H 1133.4 0.318305 -3.10473 0
M  V30 11430 N 1133.7 1.56767 -0.161869 0
M  V30 11431 C 1134.65 2.17502 0.772102 0
M  V30 11432 C 1135.62 1.11223 1.23364 0
M  V30 11433 O 1136.8 1.39332 1.30351 0
M  V30 11434 C 1133.94 2.81248 1.99984 0
M  V30 11435 C 1133.06 4.01962 1.58274 0
M  V30 11436 C 1132.19 4.53662 2.76341 0
M  V30 11437 C 1131.23 5.66807 2.31076 0
M  V30 11438 N 1130.37 6.13059 3.42203 0
M  V30 11439 H 1135.21 2.96971 0.247382 0
M  V30 11440 H 1132.75 1.46685 0.110382 0
M  V30 11441 H 1134.7 3.16359 2.7198 0
M  V30 11442 H 1133.33 2.04398 2.49842 0
M  V30 11443 H 1132.39 3.72733 0.759874 0
M  V30 11444 H 1133.7 4.83891 1.2104 0
M  V30 11445 H 1132.85 4.90905 3.56507 0
M  V30 11446 H 1131.59 3.7077 3.16829 0
M  V30 11447 H 1130.6 5.29125 1.49354 0
M  V30 11448 H 1131.82 6.51494 1.91657 0
M  V30 11449 H 1129.77 5.33099 3.82285 0
M  V30 11450 H 1129.68 6.89953 3.09033 0
M  V30 11451 H 1130.95 6.54951 4.22682 0
M  V30 11452 N 1135.18 -0.111886 1.57202 0
M  V30 11453 C 1136.43 -0.818411 1.85225 0
M  V30 11454 C 1136.76 -1.79542 0.747991 0
M  V30 11455 O 1136.01 -1.93965 -0.260013 0
M  V30 11456 C 1136.31 -1.59644 3.19763 0
M  V30 11457 C 1135.98 -0.76308 4.44396 0
M  V30 11458 C 1134.64 -0.53329 4.78236 0
M  V30 11459 C 1136.99 -0.18266 5.2088 0
M  V30 11460 C 1134.32 0.287056 5.85997 0
M  V30 11461 C 1136.67 0.624916 6.29506 0
M  V30 11462 C 1135.33 0.864955 6.61872 0
M  V30 11463 H 1134.6 -0.299478 0.677786 0
M  V30 11464 H 1137.25 -0.0805082 1.91331 0
M  V30 11465 H 1135.56 -2.40545 3.09266 0
M  V30 11466 H 1137.25 -2.1472 3.38669 0
M  V30 11467 H 1133.84 -0.952278 4.17887 0
M  V30 11468 H 1138.03 -0.34739 4.95083 0
M  V30 11469 H 1133.28 0.482179 6.09496 0
M  V30 11470 H 1137.46 1.08162 6.87949 0
M  V30 11471 H 1135.08 1.50244 7.45205 0
M  V30 11472 N 1136.66 -1.52894 -0.382264 0
M  V30 11473 C 1137.89 -1.72152 -1.14766 0
M  V30 11474 C 1138.3 -0.442911 -1.83531 0
M  V30 11475 O 1137.66 0.583085 -1.72935 0
M  V30 11476 C 1137.71 -2.87566 -2.19062 0
M  V30 11477 O 1137.43 -4.10478 -1.53099 0
M  V30 11478 C 1138.93 -3.18559 -3.08277 0
M  V30 11479 H 1136.15 -0.576212 -0.343832 0
M  V30 11480 H 1138.7 -1.99571 -0.446273 0
M  V30 11481 H 1136.85 -2.62589 -2.84826 0
M  V30 11482 H 1137.26 -4.74989 -2.22454 0
M  V30 11483 H 1138.74 -4.02763 -3.77473 0
M  V30 11484 H 1139.22 -2.33222 -3.72161 0
M  V30 11485 H 1139.82 -3.454 -2.48151 0
M  V30 11486 N 1138.14 0.641106 -1.43971 0
M  V30 11487 C 1139.36 1.43324 -1.4991 0
M  V30 11488 C 1139.79 1.87705 -0.121908 0
M  V30 11489 O 1139.15 1.58127 0.886875 0
M  V30 11490 C 1139.19 2.63637 -2.46025 0
M  V30 11491 O 1138.3 3.63123 -1.95488 0
M  V30 11492 H 1137.64 0.429252 -0.506595 0
M  V30 11493 H 1140.17 0.783427 -1.89007 0
M  V30 11494 H 1140.18 3.11304 -2.63731 0
M  V30 11495 H 1138.85 2.30678 -3.46064 0
M  V30 11496 H 1137.43 3.22332 -1.87501 0
M  V30 11497 N 1139.62 1.30703 0.880598 0
M  V30 11498 C 1141.03 1.09129 1.1646 0
M  V30 11499 C 1141.23 -0.145131 2.00977 0
M  V30 11500 O 1140.29 -0.837502 2.38206 0
M  V30 11501 C 1141.6 2.35717 1.86703 0
M  V30 11502 C 1143.15 2.41224 1.9945 0
M  V30 11503 C 1143.62 3.67665 2.73105 0
M  V30 11504 N 1145.11 3.68498 2.80648 0
M  V30 11505 C 1145.85 4.63024 3.38225 0
M  V30 11506 N 1145.35 5.67898 3.96817 0
M  V30 11507 N 1147.14 4.50561 3.36082 0
M  V30 11508 H 1139.29 2.10019 0.317164 0
M  V30 11509 H 1141.55 0.925994 0.203072 0
M  V30 11510 H 1141.26 3.2597 1.32046 0
M  V30 11511 H 1141.13 2.447 2.87057 0
M  V30 11512 H 1143.52 1.51446 2.53275 0
M  V30 11513 H 1143.6 2.36212 0.981704 0
M  V30 11514 H 1143.24 4.57803 2.19951 0
M  V30 11515 H 1143.17 3.69939 3.7477 0
M  V30 11516 H 1145.67 2.92681 2.39053 0
M  V30 11517 H 1145.98 6.3612 4.3883 0
M  V30 11518 H 1144.32 5.71685 3.95223 0
M  V30 11519 H 1147.51 3.67811 2.89539 0
M  V30 11520 H 1147.69 5.24408 3.80657 0
M  V30 11521 N 1141.09 -1.09351 1.1349 0
M  V30 11522 C 1142.02 -2.18037 0.835588 0
M  V30 11523 C 1143 -1.68856 -0.205373 0
M  V30 11524 O 1144.19 -1.94094 -0.0641357 0
M  V30 11525 C 1141.32 -3.45987 0.301661 0
M  V30 11526 C 1140.27 -4.08507 1.27696 0
M  V30 11527 C 1139.6 -5.31292 0.602758 0
M  V30 11528 C 1140.9 -4.50916 2.63575 0
M  V30 11529 H 1142.59 -2.43332 1.74441 0
M  V30 11530 H 1140.14 -1.1695 0.840166 0
M  V30 11531 H 1142.09 -4.21324 0.079928 0
M  V30 11532 H 1140.82 -3.20217 -0.642552 0
M  V30 11533 H 1139.48 -3.3519 1.4847 0
M  V30 11534 H 1139.12 -5.01802 -0.346953 0
M  V30 11535 H 1138.82 -5.74075 1.25345 0
M  V30 11536 H 1140.35 -6.09351 0.390325 0
M  V30 11537 H 1141.76 -5.17474 2.46765 0
M  V30 11538 H 1140.16 -5.04586 3.24827 0
M  V30 11539 H 1141.23 -3.63279 3.2118 0
M  V30 11540 N 1142.57 -0.928524 -1.27343 0
M  V30 11541 C 1143.52 -0.399267 -2.24477 0
M  V30 11542 C 1144.51 0.496927 -1.53034 0
M  V30 11543 O 1145.7 0.334237 -1.73816 0
M  V30 11544 C 1142.83 0.346059 -3.41551 0
M  V30 11545 C 1141.91 -0.566699 -4.20297 0
M  V30 11546 N 1142.3 -1.6869 -4.76841 0
M  V30 11547 C 1140.6 -0.369865 -4.44464 0
M  V30 11548 C 1141.3 -2.25466 -5.36228 0
M  V30 11549 N 1140.28 -1.54414 -5.21207 0
M  V30 11550 H 1144.08 -1.25456 -2.65778 0
M  V30 11551 H 1141.59 -0.782894 -1.42283 0
M  V30 11552 H 1143.59 0.742171 -4.10241 0
M  V30 11553 H 1142.25 1.19827 -3.01781 0
M  V30 11554 H 1143.26 -2.06926 -4.74765 0
M  V30 11555 H 1139.94 0.441619 -4.15158 0
M  V30 11556 H 1141.33 -3.19779 -5.90924 0
M  V30 11557 N 1144.05 1.41491 -0.694123 0
M  V30 11558 C 1145 2.32594 -0.0164704 0
M  V30 11559 C 1145.99 1.50884 0.770086 0
M  V30 11560 O 1147.2 1.66829 0.675871 0
M  V30 11561 H 1143.57 0.751879 0.0134743 0
M  V30 11562 H 1145.54 2.87423 -0.80191 0
M  V30 11563 C 1144.29 3.35661 0.90703 0
M  V30 11564 H 1143.62 3.98587 0.311205 0
M  V30 11565 H 1145.06 4.0195 1.34952 0
M  V30 11566 C 1143.51 2.69436 2.02253 0
M  V30 11567 O 1144.04 2.54107 3.11115 0
M  V30 11568 N 1142.25 2.28154 1.79984 0
M  V30 11569 H 1141.8 2.40821 0.914492 0
M  V30 11570 H 1141.76 1.84178 2.54805 0
M  V30 11571 N 1145.53 0.438773 1.51369 0
M  V30 11572 C 1146.47 -0.37195 2.27783 0
M  V30 11573 C 1147.44 -1.01558 1.31435 0
M  V30 11574 O 1148.63 -1.03421 1.60339 0
M  V30 11575 C 1145.77 -1.46636 3.12397 0
M  V30 11576 C 1144.88 -0.840727 4.2374 0
M  V30 11577 C 1144.02 -1.91031 4.95662 0
M  V30 11578 C 1143.06 -1.26318 5.98924 0
M  V30 11579 N 1142.19 -2.27419 6.64248 0
M  V30 11580 H 1147.03 0.286048 2.96624 0
M  V30 11581 H 1144.57 0.152909 1.46303 0
M  V30 11582 H 1146.53 -2.11219 3.59781 0
M  V30 11583 H 1145.16 -2.09397 2.45668 0
M  V30 11584 H 1144.21 -0.0831588 3.80309 0
M  V30 11585 H 1145.52 -0.328285 4.97719 0
M  V30 11586 H 1144.68 -2.63272 5.46601 0
M  V30 11587 H 1143.42 -2.45649 4.21317 0
M  V30 11588 H 1142.42 -0.526246 5.47276 0
M  V30 11589 H 1143.65 -0.724324 6.75226 0
M  V30 11590 H 1141.59 -2.81114 5.92715 0
M  V30 11591 H 1141.51 -1.81071 7.33996 0
M  V30 11592 H 1142.78 -2.99139 7.19817 0
M  V30 11593 N 1147.01 -1.56678 0.170181 0
M  V30 11594 C 1148.25 -1.9646 -0.474125 0
M  V30 11595 C 1148.57 -1.05719 -1.63855 0
M  V30 11596 O 1147.84 -0.123316 -1.95511 0
M  V30 11597 H 1146.42 -0.725446 -0.178149 0
M  V30 11598 H 1149.09 -1.93276 0.251099 0
M  V30 11599 H 1148.18 -3.00726 -0.834894 0
M  V30 11600 N 1148.48 0.103547 -1.57259 0
M  V30 11601 C 1149.73 0.809774 -1.85931 0
M  V30 11602 C 1150.06 1.78791 -0.758122 0
M  V30 11603 O 1149.34 1.93079 0.234682 0
M  V30 11604 C 1149.62 1.54601 -3.25224 0
M  V30 11605 C 1149.47 0.586439 -4.45961 0
M  V30 11606 C 1150.79 2.4986 -3.62296 0
M  V30 11607 H 1147.91 0.29293 -0.676285 0
M  V30 11608 H 1150.55 0.0736065 -1.89857 0
M  V30 11609 H 1148.7 2.17355 -3.22008 0
M  V30 11610 H 1150.38 -0.0334441 -4.61288 0
M  V30 11611 H 1148.62 -0.10085 -4.33683 0
M  V30 11612 H 1149.29 1.13855 -5.40131 0
M  V30 11613 H 1151.77 1.97203 -3.66402 0
M  V30 11614 H 1150.64 2.98396 -4.60707 0
M  V30 11615 H 1150.9 3.33233 -2.90531 0
M  V30 11616 N 1149.96 1.53094 0.37415 0
M  V30 11617 C 1151.19 1.72508 1.13687 0
M  V30 11618 C 1151.6 0.449922 1.83773 0
M  V30 11619 O 1150.94 -0.586391 1.74089 0
M  V30 11620 C 1151 2.82965 2.21746 0
M  V30 11621 C 1150.67 4.23599 1.71501 0
M  V30 11622 C 1151.67 5.06245 1.1837 0
M  V30 11623 C 1149.35 4.69978 1.77273 0
M  V30 11624 C 1151.34 6.33357 0.71679 0
M  V30 11625 C 1149.03 5.9707 1.30194 0
M  V30 11626 C 1150.03 6.7859 0.774856 0
M  V30 11627 O 1149.72 8.03298 0.310981 0
M  V30 11628 H 1149.45 0.580611 0.346218 0
M  V30 11629 H 1152 2.00596 0.441614 0
M  V30 11630 H 1150.23 2.5033 2.9474 0
M  V30 11631 H 1151.92 2.90638 2.83345 0
M  V30 11632 H 1152.69 4.71591 1.13256 0
M  V30 11633 H 1148.57 4.06605 2.17241 0
M  V30 11634 H 1152.11 6.96934 0.30471 0
M  V30 11635 H 1148.01 6.31225 1.34999 0
M  V30 11636 H 1148.78 8.17364 0.431098 0
M  V30 11637 N 1151.44 -0.633461 1.44309 0
M  V30 11638 C 1152.69 -1.39513 1.47187 0
M  V30 11639 C 1153.02 -1.93926 0.103186 0
M  V30 11640 O 1152.29 -1.73512 -0.878853 0
M  V30 11641 C 1152.58 -2.56213 2.53036 0
M  V30 11642 C 1152.43 -2.07164 3.99253 0
M  V30 11643 C 1153.75 -3.58403 2.55412 0
M  V30 11644 H 1150.87 -0.505936 0.535908 0
M  V30 11645 H 1153.51 -0.716445 1.75975 0
M  V30 11646 H 1151.66 -3.14111 2.28619 0
M  V30 11647 H 1153.33 -1.54115 4.34795 0
M  V30 11648 H 1151.57 -1.38367 4.11141 0
M  V30 11649 H 1152.25 -2.91172 4.6896 0
M  V30 11650 H 1154.72 -3.103 2.77224 0
M  V30 11651 H 1153.6 -4.37581 3.31382 0
M  V30 11652 H 1153.86 -4.12316 1.59523 0
M  V30 11653 N 1152.92 -1.31168 -0.873655 0
M  V30 11654 C 1154.33 -1.09745 -1.1588 0
M  V30 11655 C 1154.53 0.134471 -2.01051 0
M  V30 11656 O 1153.59 0.824857 -2.38647 0
M  V30 11657 C 1154.9 -2.36704 -1.85451 0
M  V30 11658 C 1156.45 -2.42278 -1.98167 0
M  V30 11659 C 1156.93 -3.69108 -2.71152 0
M  V30 11660 N 1158.42 -3.69981 -2.7869 0
M  V30 11661 C 1159.15 -4.64811 -3.35765 0
M  V30 11662 N 1158.65 -5.69995 -3.938 0
M  V30 11663 N 1160.44 -4.52337 -3.33688 0
M  V30 11664 H 1152.59 -2.10184 -0.306021 0
M  V30 11665 H 1154.86 -0.927058 -0.198159 0
M  V30 11666 H 1154.56 -3.26666 -1.30316 0
M  V30 11667 H 1154.44 -2.46219 -2.85755 0
M  V30 11668 H 1156.82 -1.52787 -2.52468 0
M  V30 11669 H 1156.9 -2.3673 -0.969164 0
M  V30 11670 H 1156.55 -4.58963 -2.1752 0
M  V30 11671 H 1156.48 -3.71922 -3.72803 0
M  V30 11672 H 1158.97 -2.93944 -2.37498 0
M  V30 11673 H 1159.28 -6.38438 -4.3545 0
M  V30 11674 H 1157.63 -5.73773 -3.92186 0
M  V30 11675 H 1160.82 -3.69341 -2.87584 0
M  V30 11676 H 1160.99 -5.2642 -3.77871 0
M  V30 11677 N 1154.4 1.08748 -1.14068 0
M  V30 11678 C 1155.64 1.81333 -0.908081 0
M  V30 11679 C 1155.98 1.85826 0.564112 0
M  V30 11680 O 1155.25 1.33157 1.41773 0
M  V30 11681 C 1155.53 3.27127 -1.50531 0
M  V30 11682 C 1155.39 3.30865 -3.04711 0
M  V30 11683 C 1156.71 4.24006 -1.17928 0
M  V30 11684 H 1153.82 0.658326 -0.331325 0
M  V30 11685 H 1156.47 1.27345 -1.41008 0
M  V30 11686 H 1154.62 3.73233 -1.07839 0
M  V30 11687 H 1156.29 2.93109 -3.56209 0
M  V30 11688 H 1154.53 2.70241 -3.39341 0
M  V30 11689 H 1155.2 4.33603 -3.41603 0
M  V30 11690 H 1157.68 3.86221 -1.54831 0
M  V30 11691 H 1156.55 5.2434 -1.62353 0
M  V30 11692 H 1156.82 4.42 -0.0940349 0
M  V30 11693 N 1155.87 0.935264 1.26849 0
M  V30 11694 C 1157.12 0.578545 1.93642 0
M  V30 11695 C 1157.44 -0.884296 1.73796 0
M  V30 11696 O 1156.71 -1.62768 1.09011 0
M  V30 11697 H 1155.29 0.210976 0.716588 0
M  V30 11698 H 1157.96 1.1893 1.54407 0
M  V30 11699 H 1157.05 0.791268 3.01903 0
M  V30 11700 N 1157.35 -1.41121 0.701616 0
M  V30 11701 C 1158.28 -2.33436 0.0545974 0
M  V30 11702 C 1159.26 -1.52144 -0.760662 0
M  V30 11703 O 1160.45 -1.80661 -0.712414 0
M  V30 11704 C 1157.58 -3.36015 -0.878117 0
M  V30 11705 C 1156.53 -4.27664 -0.169511 0
M  V30 11706 C 1155.86 -5.20666 -1.21699 0
M  V30 11707 C 1157.16 -5.13254 0.967859 0
M  V30 11708 H 1158.85 -2.87791 0.825637 0
M  V30 11709 H 1156.4 -1.38377 0.398484 0
M  V30 11710 H 1158.35 -3.99526 -1.34004 0
M  V30 11711 H 1157.08 -2.80024 -1.68089 0
M  V30 11712 H 1155.73 -3.65586 0.272441 0
M  V30 11713 H 1155.38 -4.60987 -2.01246 0
M  V30 11714 H 1155.08 -5.82822 -0.747836 0
M  V30 11715 H 1156.61 -5.87053 -1.6793 0
M  V30 11716 H 1158.02 -5.70298 0.585944 0
M  V30 11717 H 1156.42 -5.84381 1.3645 0
M  V30 11718 H 1157.49 -4.5006 1.80483 0
M  V30 11719 N 1158.83 -0.446794 -1.51134 0
M  V30 11720 C 1159.76 0.395804 -2.25757 0
M  V30 11721 C 1160.78 0.978178 -1.30137 0
M  V30 11722 O 1161.96 0.87071 -1.55823 0
M  V30 11723 C 1159.06 1.56665 -3.00515 0
M  V30 11724 C 1158.24 1.10146 -4.23305 0
M  V30 11725 C 1157.3 2.14352 -4.80562 0
M  V30 11726 O 1156.32 1.73401 -5.42145 0
M  V30 11727 N 1157.52 3.46932 -4.65423 0
M  V30 11728 H 1160.29 -0.243808 -2.98707 0
M  V30 11729 H 1157.85 -0.276205 -1.59527 0
M  V30 11730 H 1159.84 2.26019 -3.35704 0
M  V30 11731 H 1158.41 2.11142 -2.30516 0
M  V30 11732 H 1157.63 0.234644 -3.93501 0
M  V30 11733 H 1158.92 0.768185 -5.02968 0
M  V30 11734 H 1158.32 3.82929 -4.16391 0
M  V30 11735 H 1156.88 4.12154 -5.04948 0
M  V30 11736 N 1160.31 1.56586 -0.178487 0
M  V30 11737 C 1161.26 2.18309 0.74899 0
M  V30 11738 C 1162.23 1.12525 1.22178 0
M  V30 11739 O 1163.41 1.40706 1.28866 0
M  V30 11740 C 1160.55 2.83353 1.9699 0
M  V30 11741 C 1159.66 4.03618 1.54002 0
M  V30 11742 C 1158.8 4.56567 2.71514 0
M  V30 11743 C 1157.84 5.69226 2.25051 0
M  V30 11744 N 1156.97 6.16654 3.35682 0
M  V30 11745 H 1161.81 2.97217 0.21587 0
M  V30 11746 H 1159.35 1.46794 0.0948182 0
M  V30 11747 H 1161.31 3.19226 2.68609 0
M  V30 11748 H 1159.94 2.07037 2.4766 0
M  V30 11749 H 1158.99 3.73518 0.720298 0
M  V30 11750 H 1160.3 4.85148 1.15901 0
M  V30 11751 H 1159.46 4.94659 3.5128 0
M  V30 11752 H 1158.2 3.7411 3.12879 0
M  V30 11753 H 1157.2 5.30679 1.43734 0
M  V30 11754 H 1158.43 6.5349 1.84736 0
M  V30 11755 H 1156.37 5.37124 3.76609 0
M  V30 11756 H 1156.29 6.93192 3.01697 0
M  V30 11757 H 1157.56 6.59397 4.15711 0
M  V30 11758 N 1161.79 -0.095206 1.57312 0
M  V30 11759 C 1163.04 -0.797417 1.85268 0
M  V30 11760 C 1163.35 -1.79903 0.767733 0
M  V30 11761 O 1164.55 -2.54914 0.934409 0
M  V30 11762 C 1163.01 -1.469 3.28555 0
M  V30 11763 C 1162.62 -0.507152 4.4512 0
M  V30 11764 C 1164.36 -2.15494 3.65735 0
M  V30 11765 C 1162.27 -1.18331 5.79441 0
M  V30 11766 H 1161.2 -0.301552 0.691074 0
M  V30 11767 H 1163.85 -0.0503584 1.83431 0
M  V30 11768 H 1162.23 -2.26351 3.24933 0
M  V30 11769 H 1163.41 0.255858 4.60089 0
M  V30 11770 H 1161.72 0.0730882 4.16336 0
M  V30 11771 H 1164.32 -2.66816 4.63371 0
M  V30 11772 H 1164.66 -2.94383 2.94354 0
M  V30 11773 H 1165.19 -1.42903 3.71246 0
M  V30 11774 H 1161.93 -0.435238 6.54053 0
M  V30 11775 H 1161.45 -1.91775 5.68315 0
M  V30 11776 H 1163.13 -1.70983 6.23998 0
M  V30 11777 N 1163.26 -1.53291 -0.366026 0
M  V30 11778 C 1164.49 -1.73665 -1.13381 0
M  V30 11779 C 1164.91 -0.464284 -1.8228 0
M  V30 11780 O 1164.27 0.581645 -1.71717 0
M  V30 11781 C 1164.32 -2.90225 -2.14013 0
M  V30 11782 O 1163.42 -2.58803 -3.21084 0
M  V30 11783 H 1162.77 -0.576762 -0.329 0
M  V30 11784 H 1165.3 -2.00174 -0.423287 0
M  V30 11785 H 1165.31 -3.16378 -2.57622 0
M  V30 11786 H 1163.98 -3.82518 -1.63257 0
M  V30 11787 H 1162.56 -2.43466 -2.82451 0
M  V30 11788 N 1164.74 0.6258 -1.44643 0
M  V30 11789 C 1165.69 1.73135 -1.48352 0
M  V30 11790 C 1166.68 1.57076 -0.348716 0
M  V30 11791 O 1167.87 1.66722 -0.594379 0
M  V30 11792 C 1165 3.11838 -1.43568 0
M  V30 11793 C 1164.08 3.33348 -2.62183 0
M  V30 11794 N 1164.47 3.252 -3.87399 0
M  V30 11795 C 1162.77 3.64162 -2.57492 0
M  V30 11796 C 1163.47 3.47544 -4.66463 0
M  V30 11797 N 1162.45 3.70672 -3.97622 0
M  V30 11798 H 1166.25 1.65301 -2.43008 0
M  V30 11799 H 1163.77 0.828449 -1.3968 0
M  V30 11800 H 1165.76 3.91127 -1.44309 0
M  V30 11801 H 1164.42 3.20834 -0.499547 0
M  V30 11802 H 1165.43 3.04001 -4.19289 0
M  V30 11803 H 1162.11 3.80107 -1.727 0
M  V30 11804 H 1163.5 3.46792 -5.75487 0
M  V30 11805 N 1166.22 1.31629 0.866686 0
M  V30 11806 C 1167.45 1.24609 1.65793 0
M  V30 11807 C 1167.87 -0.184944 1.87189 0
M  V30 11808 O 1167.23 -1.1322 1.41601 0
M  V30 11809 C 1167.28 1.9988 3.00134 0
M  V30 11810 O 1166.38 1.33838 3.90079 0
M  V30 11811 H 1165.72 0.430051 0.505917 0
M  V30 11812 H 1168.25 1.73752 1.08035 0
M  V30 11813 H 1168.26 2.09599 3.50046 0
M  V30 11814 H 1166.94 3.03947 2.83882 0
M  V30 11815 H 1165.51 1.3259 3.48532 0
M  V30 11816 N 1167.7 -1.08142 1.14644 0
M  V30 11817 C 1169.12 -1.32656 0.887388 0
M  V30 11818 C 1169.32 -1.95942 -0.470012 0
M  V30 11819 O 1168.37 -2.21417 -1.21371 0
M  V30 11820 C 1169.68 -2.22549 2.02219 0
M  V30 11821 C 1171.23 -2.36021 2.0558 0
M  V30 11822 C 1171.71 -3.29257 3.18361 0
M  V30 11823 N 1173.2 -3.36835 3.17957 0
M  V30 11824 C 1173.93 -4.09017 4.01862 0
M  V30 11825 N 1173.43 -4.83882 4.95812 0
M  V30 11826 N 1175.22 -4.04875 3.89913 0
M  V30 11827 H 1167.37 -0.654457 2.02066 0
M  V30 11828 H 1169.64 -0.350947 0.880648 0
M  V30 11829 H 1169.34 -1.83296 3.00159 0
M  V30 11830 H 1169.22 -3.23027 1.94765 0
M  V30 11831 H 1171.6 -2.74531 1.08245 0
M  V30 11832 H 1171.68 -1.35275 2.17105 0
M  V30 11833 H 1171.33 -2.91468 4.15944 0
M  V30 11834 H 1171.26 -4.29938 3.04074 0
M  V30 11835 H 1173.75 -2.83465 2.49912 0
M  V30 11836 H 1174.06 -5.3643 5.56294 0
M  V30 11837 H 1172.41 -4.82926 4.99808 0
M  V30 11838 H 1175.6 -3.45496 3.15833 0
M  V30 11839 H 1175.77 -4.60866 4.55529 0
M  V30 11840 N 1169.18 -0.941978 -1.26351 0
M  V30 11841 C 1170.4 -0.606231 -1.98342 0
M  V30 11842 C 1170.83 0.812014 -1.6967 0
M  V30 11843 O 1170.19 1.54712 -0.9452 0
M  V30 11844 C 1170.23 -0.855864 -3.50296 0
M  V30 11845 O 1169.34 0.0716251 -4.12338 0
M  V30 11846 H 1168.68 -0.231815 -0.62222 0
M  V30 11847 H 1171.21 -1.26513 -1.60797 0
M  V30 11848 H 1171.22 -0.777079 -4.00531 0
M  V30 11849 H 1169.89 -1.8896 -3.70496 0
M  V30 11850 H 1168.47 -0.0582866 -3.72854 0
M  V30 11851 N 1170.66 1.40747 -0.709091 0
M  V30 11852 C 1171.59 2.33404 -0.0669763 0
M  V30 11853 C 1172.57 1.52546 0.752582 0
M  V30 11854 O 1173.75 1.81036 0.702823 0
M  V30 11855 C 1170.88 3.36476 0.860285 0
M  V30 11856 C 1169.84 4.27748 0.146828 0
M  V30 11857 C 1169.16 5.21304 1.18937 0
M  V30 11858 C 1170.46 5.12734 -0.995064 0
M  V30 11859 H 1172.16 2.87349 -0.840888 0
M  V30 11860 H 1169.7 1.38163 -0.405817 0
M  V30 11861 H 1171.65 4.00231 1.31883 0
M  V30 11862 H 1170.38 2.80912 1.66602 0
M  V30 11863 H 1169.04 3.65437 -0.291826 0
M  V30 11864 H 1168.69 4.62048 1.98798 0
M  V30 11865 H 1168.39 5.8321 0.716917 0
M  V30 11866 H 1169.91 5.87936 1.64815 0
M  V30 11867 H 1171.32 5.69979 -0.61618 0
M  V30 11868 H 1169.72 5.83649 -1.39547 0
M  V30 11869 H 1170.79 4.49097 -1.82867 0
M  V30 11870 N 1172.13 0.454803 1.50895 0
M  V30 11871 C 1173.08 -0.366073 2.25042 0
M  V30 11872 C 1174.07 -0.975353 1.27967 0
M  V30 11873 O 1175.26 -0.8906 1.52962 0
M  V30 11874 C 1172.39 -1.45683 3.10856 0
M  V30 11875 C 1171.47 -0.856086 4.1537 0
M  V30 11876 N 1171.87 0.0138787 5.05798 0
M  V30 11877 C 1170.16 -1.1218 4.31661 0
M  V30 11878 C 1170.86 0.35313 5.80627 0
M  V30 11879 N 1169.84 -0.267648 5.42941 0
M  V30 11880 H 1173.64 0.304357 2.9232 0
M  V30 11881 H 1171.16 0.267937 1.60174 0
M  V30 11882 H 1173.15 -2.05793 3.62567 0
M  V30 11883 H 1171.81 -2.12942 2.45124 0
M  V30 11884 H 1172.82 0.381574 5.16492 0
M  V30 11885 H 1169.5 -1.79059 3.77153 0
M  V30 11886 H 1170.89 1.06213 6.63452 0
M  V30 11887 N 1173.61 -1.56489 0.186789 0
M  V30 11888 C 1174.56 -2.18703 -0.737402 0
M  V30 11889 C 1175.53 -1.13171 -1.21579 0
M  V30 11890 O 1176.71 -1.41388 -1.28118 0
M  V30 11891 C 1173.85 -2.84394 -1.95484 0
M  V30 11892 C 1172.97 -4.04429 -1.51859 0
M  V30 11893 C 1172.1 -4.58001 -2.69089 0
M  V30 11894 C 1171.14 -5.70412 -2.22029 0
M  V30 11895 N 1170.28 -6.18425 -3.32407 0
M  V30 11896 H 1175.12 -2.97327 -0.200105 0
M  V30 11897 H 1172.65 -1.46842 -0.087032 0
M  V30 11898 H 1174.61 -3.20646 -2.66912 0
M  V30 11899 H 1173.24 -2.08347 -2.46559 0
M  V30 11900 H 1172.29 -3.73895 -0.70048 0
M  V30 11901 H 1173.61 -4.85756 -1.13327 0
M  V30 11902 H 1172.76 -4.96515 -3.48652 0
M  V30 11903 H 1171.5 -3.75764 -3.1089 0
M  V30 11904 H 1170.5 -5.31434 -1.40918 0
M  V30 11905 H 1171.73 -6.54461 -1.81268 0
M  V30 11906 H 1169.68 -5.39113 -3.73755 0
M  V30 11907 H 1169.59 -6.94782 -2.98017 0
M  V30 11908 H 1170.86 -6.61592 -4.12209 0
M  V30 11909 N 1175.09 0.086862 -1.5736 0
M  V30 11910 C 1176.02 1.13117 -1.99342 0
M  V30 11911 C 1177.03 1.35849 -0.897151 0
M  V30 11912 O 1178.22 1.34356 -1.17519 0
M  V30 11913 C 1175.32 2.48511 -2.30425 0
M  V30 11914 C 1174.5 2.45942 -3.61706 0
M  V30 11915 C 1173.56 3.63327 -3.80631 0
M  V30 11916 O 1172.58 3.45443 -4.52392 0
M  V30 11917 N 1173.78 4.83118 -3.21835 0
M  V30 11918 H 1176.55 0.773782 -2.89539 0
M  V30 11919 H 1174.11 0.275731 -1.59535 0
M  V30 11920 H 1176.1 3.25656 -2.40272 0
M  V30 11921 H 1174.67 2.76308 -1.46194 0
M  V30 11922 H 1173.89 1.54287 -3.62752 0
M  V30 11923 H 1175.18 2.41313 -4.47935 0
M  V30 11924 H 1174.58 5.00552 -2.6356 0
M  V30 11925 H 1173.13 5.57827 -3.37154 0
M  V30 11926 N 1176.57 1.53483 0.357892 0
M  V30 11927 C 1177.82 1.69256 1.09706 0
M  V30 11928 C 1178.13 0.454888 1.90237 0
M  V30 11929 O 1179.34 0.4933 2.66981 0
M  V30 11930 C 1177.79 2.99238 1.99961 0
M  V30 11931 C 1177.4 4.30293 1.24706 0
M  V30 11932 C 1179.14 3.24378 2.73823 0
M  V30 11933 C 1177.05 5.5136 2.13907 0
M  V30 11934 H 1175.98 0.630657 0.413265 0
M  V30 11935 H 1178.63 1.79983 0.357518 0
M  V30 11936 H 1177.01 2.82332 2.77677 0
M  V30 11937 H 1178.19 4.57857 0.519995 0
M  V30 11938 H 1176.5 4.11656 0.626736 0
M  V30 11939 H 1179.1 4.12015 3.40805 0
M  V30 11940 H 1179.44 2.40769 3.39612 0
M  V30 11941 H 1179.98 3.41994 2.03187 0
M  V30 11942 H 1176.71 6.3747 1.52684 0
M  V30 11943 H 1176.23 5.28065 2.84442 0
M  V30 11944 H 1177.91 5.86448 2.7329 0
M  V30 11945 N 1178.05 -0.61812 1.44973 0
M  V30 11946 C 1179.46 -0.937734 1.29146 0
M  V30 11947 C 1179.66 -2.00104 0.236749 0
M  V30 11948 O 1178.72 -2.49731 -0.372923 0
M  V30 11949 C 1180.03 -1.38865 2.66715 0
M  V30 11950 C 1181.58 -1.50343 2.74529 0
M  V30 11951 C 1182.05 -1.98814 4.12598 0
M  V30 11952 N 1183.54 -2.06064 4.14839 0
M  V30 11953 C 1184.28 -2.44768 5.18533 0
M  V30 11954 N 1183.78 -2.82516 6.32579 0
M  V30 11955 N 1185.57 -2.45016 5.05889 0
M  V30 11956 H 1177.72 0.084872 2.1223 0
M  V30 11957 H 1179.98 -0.0246744 0.947679 0
M  V30 11958 H 1179.69 -0.681583 3.45032 0
M  V30 11959 H 1179.56 -2.3572 2.94475 0
M  V30 11960 H 1181.95 -2.20144 1.96522 0
M  V30 11961 H 1182.03 -0.518297 2.50494 0
M  V30 11962 H 1181.67 -1.29604 4.91086 0
M  V30 11963 H 1181.6 -2.98223 4.34017 0
M  V30 11964 H 1184.1 -1.79525 3.32535 0
M  V30 11965 H 1184.41 -3.109 7.07504 0
M  V30 11966 H 1182.75 -2.80237 6.35997 0
M  V30 11967 H 1185.94 -2.14925 4.15842 0
M  V30 11968 H 1186.12 -2.74854 5.86821 0
M  V30 11969 N 1179.52 -1.32087 -0.859693 0
M  V30 11970 C 1180.45 -1.23204 -1.98351 0
M  V30 11971 C 1181.43 -0.116974 -1.69697 0
M  V30 11972 O 1182.62 -0.303301 -1.91817 0
M  V30 11973 C 1179.75 -0.949171 -3.34078 0
M  V30 11974 C 1178.7 -2.02493 -3.77069 0
M  V30 11975 C 1178.03 -1.59455 -5.1037 0
M  V30 11976 C 1179.33 -3.43934 -3.93074 0
M  V30 11977 H 1181.02 -2.17227 -2.0604 0
M  V30 11978 H 1178.57 -1.04577 -0.989931 0
M  V30 11979 H 1180.52 -0.873594 -4.12245 0
M  V30 11980 H 1179.25 0.0267095 -3.26589 0
M  V30 11981 H 1177.91 -2.09057 -3.01149 0
M  V30 11982 H 1177.55 -0.606256 -4.99333 0
M  V30 11983 H 1177.25 -2.31429 -5.40106 0
M  V30 11984 H 1178.78 -1.53325 -5.91036 0
M  V30 11985 H 1180.19 -3.39986 -4.61608 0
M  V30 11986 H 1178.59 -4.14214 -4.3422 0
M  V30 11987 H 1179.66 -3.83965 -2.9614 0
M  V30 11988 N 1181 1.07532 -1.15215 0
M  V30 11989 C 1181.93 2.14598 -0.805006 0
M  V30 11990 C 1182.95 1.61778 0.182152 0
M  V30 11991 O 1184.14 1.78453 -0.040834 0
M  V30 11992 C 1181.24 3.38444 -0.175736 0
M  V30 11993 C 1180.41 4.20621 -1.19986 0
M  V30 11994 C 1179.47 5.22851 -0.592705 0
M  V30 11995 O 1178.49 5.55121 -1.25815 0
M  V30 11996 N 1179.7 5.7711 0.626425 0
M  V30 11997 H 1182.46 2.44981 -1.7264 0
M  V30 11998 H 1180.02 1.23423 -1.04778 0
M  V30 11999 H 1182.01 4.03969 0.243166 0
M  V30 12000 H 1180.58 3.0579 0.64896 0
M  V30 12001 H 1179.8 3.50941 -1.79539 0
M  V30 12002 H 1181.09 4.72339 -1.89139 0
M  V30 12003 H 1180.49 5.53139 1.18546 0
M  V30 12004 H 1179.05 6.44273 0.98771 0
M  V30 12005 N 1182.48 0.948665 1.2585 0
M  V30 12006 C 1183.73 0.601125 1.93686 0
M  V30 12007 C 1184.06 -0.858779 1.7418 0
M  V30 12008 O 1183.33 -1.61539 1.0833 0
M  V30 12009 C 1183.62 0.95333 3.47252 0
M  V30 12010 C 1183.47 2.46853 3.7601 0
M  V30 12011 C 1184.79 0.474098 4.37539 0
M  V30 12012 H 1181.91 0.219864 0.703441 0
M  V30 12013 H 1184.55 1.18424 1.48579 0
M  V30 12014 H 1182.7 0.457114 3.85801 0
M  V30 12015 H 1184.37 3.03804 3.47132 0
M  V30 12016 H 1182.62 2.9088 3.21825 0
M  V30 12017 H 1183.29 2.66547 4.83381 0
M  V30 12018 H 1185.76 0.899664 4.06258 0
M  V30 12019 H 1184.64 0.749287 5.43762 0
M  V30 12020 H 1184.9 -0.625961 4.37646 0
M  V30 12021 N 1183.96 -1.40369 0.716545 0
M  V30 12022 C 1184.87 -2.34508 0.065658 0
M  V30 12023 C 1185.88 -1.57352 -0.742723 0
M  V30 12024 O 1187.06 -1.89735 -0.675456 0
M  V30 12025 C 1184.13 -3.36262 -0.844337 0
M  V30 12026 C 1183.19 -4.29292 -0.0257971 0
M  V30 12027 C 1182.42 -5.26185 -0.892452 0
M  V30 12028 O 1182.64 -5.29071 -2.13166 0
M  V30 12029 O 1181.58 -6.0099 -0.330933 0
M  V30 12030 H 1185.4 -2.91789 0.842184 0
M  V30 12031 H 1182.99 -1.41579 0.477034 0
M  V30 12032 H 1184.87 -3.98661 -1.36555 0
M  V30 12033 H 1183.54 -2.81393 -1.59999 0
M  V30 12034 H 1182.45 -3.70175 0.540512 0
M  V30 12035 H 1183.78 -4.87316 0.69166 0
M  V30 12036 N 1185.44 -0.462799 -1.50652 0
M  V30 12037 C 1186.85 -0.11648 -1.59174 0
M  V30 12038 C 1187.05 1.37638 -1.47167 0
M  V30 12039 O 1186.11 2.14886 -1.3259 0
M  V30 12040 C 1187.42 -0.659289 -2.93383 0
M  V30 12041 C 1188.97 -0.62198 -3.06758 0
M  V30 12042 C 1189.44 -1.14219 -4.43529 0
M  V30 12043 N 1190.94 -1.10125 -4.49919 0
M  V30 12044 C 1191.67 -1.47436 -5.54121 0
M  V30 12045 N 1191.17 -1.92156 -6.65618 0
M  V30 12046 N 1192.96 -1.39091 -5.44619 0
M  V30 12047 H 1185.11 -1.43383 -1.56701 0
M  V30 12048 H 1187.37 -0.592438 -0.740082 0
M  V30 12049 H 1187.08 -1.70477 -3.07621 0
M  V30 12050 H 1186.95 -0.0982388 -3.77072 0
M  V30 12051 H 1189.34 0.414576 -2.92173 0
M  V30 12052 H 1189.42 -1.21974 -2.24847 0
M  V30 12053 H 1189.07 -2.17734 -4.58862 0
M  V30 12054 H 1189 -0.52073 -5.24019 0
M  V30 12055 H 1191.49 -0.773154 -3.69906 0
M  V30 12056 H 1191.8 -2.18796 -7.4118 0
M  V30 12057 H 1190.14 -1.96103 -6.6676 0
M  V30 12058 H 1193.34 -1.04001 -4.564 0
M  V30 12059 H 1193.51 -1.68496 -6.2571 0
M  V30 12060 N 1186.91 1.56388 -0.195085 0
M  V30 12061 C 1187.85 2.16316 0.757643 0
M  V30 12062 C 1188.86 1.12498 1.17678 0
M  V30 12063 O 1190.05 1.39591 1.11251 0
M  V30 12064 C 1187.15 2.7104 2.03447 0
M  V30 12065 C 1186.32 3.99759 1.77514 0
M  V30 12066 C 1185.38 4.3931 2.89644 0
M  V30 12067 O 1184.41 5.06732 2.59252 0
M  V30 12068 N 1185.61 4.02813 4.17998 0
M  V30 12069 H 1188.37 2.98696 0.24517 0
M  V30 12070 H 1185.93 1.61895 -0.0131194 0
M  V30 12071 H 1187.93 2.94483 2.776 0
M  V30 12072 H 1186.5 1.93114 2.45817 0
M  V30 12073 H 1185.72 3.84448 0.8714 0
M  V30 12074 H 1187 4.83782 1.57585 0
M  V30 12075 H 1186.4 3.4858 4.45543 0
M  V30 12076 H 1184.96 4.31206 4.88779 0
M  V30 12077 N 1188.39 -0.0785156 1.57404 0
M  V30 12078 C 1189.3 -1.11203 2.0657 0
M  V30 12079 C 1190.32 -1.42822 0.993872 0
M  V30 12080 O 1191.49 -1.53133 1.30814 0
M  V30 12081 C 1188.56 -2.40812 2.4942 0
M  V30 12082 C 1187.62 -2.16225 3.70871 0
M  V30 12083 C 1186.85 -3.39654 4.11668 0
M  V30 12084 O 1187.08 -4.48521 3.524 0
M  V30 12085 O 1186.01 -3.28263 5.04507 0
M  V30 12086 H 1189.84 -0.724381 2.94935 0
M  V30 12087 H 1187.42 -0.292184 1.46515 0
M  V30 12088 H 1189.3 -3.17101 2.77534 0
M  V30 12089 H 1187.98 -2.7897 1.64187 0
M  V30 12090 H 1186.89 -1.37663 3.4785 0
M  V30 12091 H 1188.22 -1.82951 4.56935 0
M  V30 12092 N 1189.87 -1.5367 -0.349747 0
M  V30 12093 C 1191.12 -1.7087 -1.0923 0
M  V30 12094 C 1191.45 -0.467299 -1.88494 0
M  V30 12095 O 1190.72 0.535619 -1.8698 0
M  V30 12096 C 1191.01 -2.9684 -2.03858 0
M  V30 12097 C 1190.86 -4.31174 -1.28097 0
M  V30 12098 C 1192.18 -3.18459 -3.03763 0
M  V30 12099 H 1189.3 -0.621757 -0.395711 0
M  V30 12100 H 1191.94 -1.86333 -0.371481 0
M  V30 12101 H 1190.09 -2.83788 -2.65323 0
M  V30 12102 H 1191.76 -4.56066 -0.692933 0
M  V30 12103 H 1190.01 -4.29866 -0.582924 0
M  V30 12104 H 1190.68 -5.15482 -1.9744 0
M  V30 12105 H 1193.15 -3.30801 -2.52409 0
M  V30 12106 H 1192.03 -4.08006 -3.67182 0
M  V30 12107 H 1192.29 -2.34467 -3.74803 0
M  V30 12108 N 1191.35 0.610423 -1.45298 0
M  V30 12109 C 1192.26 1.74964 -1.56285 0
M  V30 12110 C 1193.27 1.68149 -0.447436 0
M  V30 12111 O 1194.45 1.88556 -0.707725 0
M  V30 12112 C 1191.52 3.11417 -1.52383 0
M  V30 12113 C 1190.58 3.29707 -2.7494 0
M  V30 12114 C 1189.81 4.5965 -2.71215 0
M  V30 12115 O 1190.03 5.41789 -1.78383 0
M  V30 12116 O 1188.97 4.80591 -3.62375 0
M  V30 12117 H 1192.79 1.68646 -2.52571 0
M  V30 12118 H 1190.38 0.774168 -1.27777 0
M  V30 12119 H 1192.26 3.9272 -1.52805 0
M  V30 12120 H 1190.93 3.18232 -0.592472 0
M  V30 12121 H 1189.84 2.48003 -2.80081 0
M  V30 12122 H 1191.17 3.27766 -3.67192 0
M  V30 12123 N 1192.83 1.32541 0.852676 0
M  V30 12124 C 1193.76 1.24254 1.97694 0
M  V30 12125 C 1194.74 0.125971 1.69633 0
M  V30 12126 O 1195.92 0.31347 1.91653 0
M  V30 12127 C 1193.05 0.966874 3.3357 0
M  V30 12128 C 1192.01 2.0449 3.75989 0
M  V30 12129 C 1191.33 1.6216 5.09518 0
M  V30 12130 C 1192.63 3.46013 3.91244 0
M  V30 12131 H 1194.33 2.18317 2.04886 0
M  V30 12132 H 1191.87 1.05101 0.984371 0
M  V30 12133 H 1193.83 0.895444 4.11776 0
M  V30 12134 H 1192.55 -0.0093893 3.26599 0
M  V30 12135 H 1191.21 2.10651 3.00036 0
M  V30 12136 H 1190.86 0.632729 4.99005 0
M  V30 12137 H 1190.56 2.3429 5.38871 0
M  V30 12138 H 1192.08 1.56457 5.90215 0
M  V30 12139 H 1193.49 3.4243 4.59799 0
M  V30 12140 H 1191.89 4.1651 4.32017 0
M  V30 12141 H 1192.96 3.8553 2.941 0
M  V30 12142 N 1194.3 -1.0692 1.15784 0
M  V30 12143 C 1195.72 -1.61069 0.944123 0
M  V30 12144 C 1196.07 -1.8936 -0.513522 0
M  V30 12145 O 1195.19 -1.66232 -1.38549 0
M  V30 12146 C 1195.79 -2.9263 1.70743 0
M  V30 12147 C 1194.35 -3.43505 1.53887 0
M  V30 12148 C 1193.49 -2.17495 1.72021 0
M  V30 12149 H 1196.44 -0.89951 1.30746 0
M  V30 12150 H 1196.46 -3.61757 1.17951 0
M  V30 12151 H 1195.98 -2.72007 2.76828 0
M  V30 12152 H 1194.08 -3.69201 0.502153 0
M  V30 12153 H 1194.19 -4.19254 2.31868 0
M  V30 12154 H 1192.55 -2.27407 1.1471 0
M  V30 12155 H 1193.34 -1.99362 2.79481 0
M  V30 12156 N 1195.78 -0.955326 -1.25345 0
M  V30 12157 C 1197.01 -0.627233 -1.97688 0
M  V30 12158 C 1197.43 0.793973 -1.70522 0
M  V30 12159 O 1196.79 1.537 -0.961556 0
M  V30 12160 C 1196.84 -0.892969 -3.49369 0
M  V30 12161 O 1195.94 0.0278871 -4.12391 0
M  V30 12162 H 1195.28 -0.238402 -0.619726 0
M  V30 12163 H 1197.81 -1.28211 -1.59446 0
M  V30 12164 H 1197.82 -0.819517 -3.99685 0
M  V30 12165 H 1196.5 -1.92879 -3.6847 0
M  V30 12166 H 1195.08 -0.0978295 -3.72772 0
M  V30 12167 N 1197.26 1.39987 -0.723979 0
M  V30 12168 C 1198.51 1.99964 -0.26406 0
M  V30 12169 C 1198.82 1.58084 1.1519 0
M  V30 12170 O 1200.03 2.10819 1.71077 0
M  V30 12171 C 1198.49 3.57427 -0.421174 0
M  V30 12172 C 1198.09 4.08276 -1.84432 0
M  V30 12173 C 1199.84 4.24494 -0.0224734 0
M  V30 12174 C 1197.74 5.58272 -1.95157 0
M  V30 12175 H 1196.67 0.747995 -0.0949728 0
M  V30 12176 H 1199.33 1.60122 -0.896276 0
M  V30 12177 H 1197.71 3.95011 0.279762 0
M  V30 12178 H 1198.88 3.82051 -2.57631 0
M  V30 12179 H 1197.2 3.53834 -2.19523 0
M  V30 12180 H 1199.79 5.34637 -0.0817744 0
M  V30 12181 H 1200.14 4.03593 1.02069 0
M  V30 12182 H 1200.67 3.92046 -0.67416 0
M  V30 12183 H 1197.41 5.84038 -2.97623 0
M  V30 12184 H 1196.93 5.86335 -1.2638 0
M  V30 12185 H 1198.61 6.23509 -1.72759 0
M  V30 12186 N 1198.74 0.470782 1.50404 0
M  V30 12187 C 1199.65 -0.328877 2.32283 0
M  V30 12188 C 1200.67 -0.99629 1.42654 0
M  V30 12189 O 1201.84 -0.984331 1.75707 0
M  V30 12190 C 1198.91 -1.39675 3.1732 0
M  V30 12191 C 1197.97 -0.745965 4.22769 0
M  V30 12192 C 1197.2 -1.76295 5.03742 0
M  V30 12193 O 1197.42 -2.98943 4.85788 0
M  V30 12194 O 1196.36 -1.33495 5.86909 0
M  V30 12195 H 1200.18 0.340491 3.01785 0
M  V30 12196 H 1197.77 0.232637 1.47578 0
M  V30 12197 H 1199.65 -2.0153 3.70086 0
M  V30 12198 H 1198.33 -2.04959 2.50546 0
M  V30 12199 H 1197.23 -0.0884647 3.73995 0
M  V30 12200 H 1198.57 -0.136074 4.92012 0
M  V30 12201 N 1200.22 -1.56282 0.203376 0
M  V30 12202 C 1201.47 -1.97421 -0.432346 0
M  V30 12203 C 1201.79 -1.0917 -1.61576 0
M  V30 12204 O 1201.06 -0.164759 -1.95206 0
M  V30 12205 H 1199.64 -0.729062 -0.162721 0
M  V30 12206 H 1202.3 -1.927 0.292039 0
M  V30 12207 H 1201.39 -3.02429 -0.770918 0
M  V30 12208 N 1201.7 0.070167 -1.57444 0
M  V30 12209 C 1202.63 1.08351 -2.06839 0
M  V30 12210 C 1203.61 1.40269 -0.962224 0
M  V30 12211 O 1204.79 1.49867 -1.23505 0
M  V30 12212 C 1201.92 2.39649 -2.51368 0
M  V30 12213 C 1200.88 2.22079 -3.65875 0
M  V30 12214 C 1200.2 3.58776 -3.96464 0
M  V30 12215 C 1201.5 1.64069 -4.95862 0
M  V30 12216 H 1203.2 0.672465 -2.9175 0
M  V30 12217 H 1200.74 0.322027 -1.40353 0
M  V30 12218 H 1202.69 3.10833 -2.84537 0
M  V30 12219 H 1201.42 2.82736 -1.63487 0
M  V30 12220 H 1200.08 1.53337 -3.32992 0
M  V30 12221 H 1199.73 3.99436 -3.05712 0
M  V30 12222 H 1199.43 3.47859 -4.7357 0
M  V30 12223 H 1200.95 4.31387 -4.32131 0
M  V30 12224 H 1202.36 2.2512 -5.27251 0
M  V30 12225 H 1200.76 1.63843 -5.773 0
M  V30 12226 H 1201.83 0.60232 -4.81145 0
M  V30 12227 N 1203.17 1.53854 0.341593 0
M  V30 12228 C 1204.42 1.7041 1.07905 0
M  V30 12229 C 1204.74 0.475039 1.89744 0
M  V30 12230 O 1205.94 0.521589 2.66443 0
M  V30 12231 C 1204.4 3.01342 1.96776 0
M  V30 12232 C 1204.01 4.31592 1.20135 0
M  V30 12233 C 1205.75 3.27264 2.70367 0
M  V30 12234 C 1203.66 5.53598 2.08047 0
M  V30 12235 H 1202.59 0.635005 0.406553 0
M  V30 12236 H 1205.24 1.80353 0.338409 0
M  V30 12237 H 1203.62 2.85261 2.74667 0
M  V30 12238 H 1204.79 4.58382 0.471404 0
M  V30 12239 H 1203.11 4.12298 0.583039 0
M  V30 12240 H 1205.71 4.15607 3.36415 0
M  V30 12241 H 1206.05 2.44357 3.37039 0
M  V30 12242 H 1206.58 3.4413 1.99548 0
M  V30 12243 H 1203.32 6.39053 1.45914 0
M  V30 12244 H 1202.84 5.31052 2.78825 0
M  V30 12245 H 1204.52 5.89314 2.67055 0
M  V30 12246 N 1204.65 -0.602709 1.4562 0
M  V30 12247 C 1205.9 -1.36158 1.49891 0
M  V30 12248 C 1206.23 -1.93977 0.142581 0
M  V30 12249 O 1205.48 -1.75822 -0.859374 0
M  V30 12250 C 1205.78 -2.52474 2.52966 0
M  V30 12251 C 1205.45 -2.12772 3.97541 0
M  V30 12252 C 1204.11 -2.01658 4.36907 0
M  V30 12253 C 1206.46 -1.8186 4.88443 0
M  V30 12254 C 1203.79 -1.57862 5.65063 0
M  V30 12255 C 1206.14 -1.39548 6.17016 0
M  V30 12256 C 1204.8 -1.26997 6.55308 0
M  V30 12257 H 1204.07 -0.498236 0.54849 0
M  V30 12258 H 1206.72 -0.680738 1.78992 0
M  V30 12259 H 1205.03 -3.25917 2.17452 0
M  V30 12260 H 1206.72 -3.10701 2.53507 0
M  V30 12261 H 1203.31 -2.22349 3.66413 0
M  V30 12262 H 1207.5 -1.89341 4.58763 0
M  V30 12263 H 1202.75 -1.46771 5.93522 0
M  V30 12264 H 1206.93 -1.14677 6.86893 0
M  V30 12265 H 1204.55 -0.928346 7.5451 0
M  V30 12266 N 1206.13 -1.32992 -0.845635 0
M  V30 12267 C 1207.38 -1.23415 -1.59536 0
M  V30 12268 C 1207.69 0.200278 -1.94572 0
M  V30 12269 O 1208.9 0.417993 -2.68263 0
M  V30 12270 C 1207.35 -2.16207 -2.8772 0
M  V30 12271 C 1206.96 -3.64782 -2.60073 0
M  V30 12272 C 1208.71 -2.15488 -3.65739 0
M  V30 12273 C 1206.61 -4.49508 -3.84313 0
M  V30 12274 H 1205.54 -0.458366 -0.598679 0
M  V30 12275 H 1208.19 -1.58012 -0.932981 0
M  V30 12276 H 1206.58 -1.74535 -3.55462 0
M  V30 12277 H 1207.75 -4.14852 -2.00585 0
M  V30 12278 H 1206.06 -3.67723 -1.95369 0
M  V30 12279 H 1208.66 -2.76021 -4.57948 0
M  V30 12280 H 1209 -1.14818 -4.00153 0
M  V30 12281 H 1209.54 -2.55487 -3.04912 0
M  V30 12282 H 1206.28 -5.51027 -3.55035 0
M  V30 12283 H 1205.8 -4.04185 -4.43165 0
M  V30 12284 H 1207.48 -4.62969 -4.51961 0
M  V30 12285 N 1207.61 1.06304 -1.1635 0
M  V30 12286 C 1208.56 2.15879 -0.865967 0
M  V30 12287 C 1209.55 1.68595 0.164929 0
M  V30 12288 O 1210.76 1.7999 0.0189271 0
M  V30 12289 H 1207.13 0.704721 -0.262435 0
M  V30 12290 H 1209.1 2.38185 -1.79751 0
M  V30 12291 C 1207.85 3.4558 -0.383374 0
M  V30 12292 H 1207.17 3.82356 -1.16806 0
M  V30 12293 H 1208.61 4.2346 -0.213964 0
M  V30 12294 C 1207.07 3.24738 0.897044 0
M  V30 12295 O 1207.6 3.50284 1.96632 0
M  V30 12296 N 1205.81 2.78172 0.840761 0
M  V30 12297 H 1205.36 2.57583 -0.029584 0
M  V30 12298 H 1205.31 2.64606 1.69797 0
M  V30 12299 N 1209.09 0.96196 1.24836 0
M  V30 12300 C 1210.33 0.616342 1.92052 0
M  V30 12301 C 1210.65 -0.851601 1.76088 0
M  V30 12302 O 1211.85 -1.3075 2.37943 0
M  V30 12303 C 1210.31 1.05168 3.44191 0
M  V30 12304 C 1209.92 2.54268 3.68852 0
M  V30 12305 C 1211.66 0.778938 4.17292 0
M  V30 12306 C 1209.57 2.91564 5.14533 0
M  V30 12307 H 1208.5 0.22681 0.719078 0
M  V30 12308 H 1211.15 1.1674 1.41577 0
M  V30 12309 H 1209.53 0.428979 3.9367 0
M  V30 12310 H 1210.71 3.21619 3.29997 0
M  V30 12311 H 1209.02 2.79091 3.09026 0
M  V30 12312 H 1211.62 1.03366 5.24614 0
M  V30 12313 H 1211.96 -0.284772 4.15325 0
M  V30 12314 H 1212.49 1.36233 3.73745 0
M  V30 12315 H 1209.23 3.96982 5.21618 0
M  V30 12316 H 1208.75 2.28892 5.54408 0
M  V30 12317 H 1210.43 2.81155 5.82718 0
M  V30 12318 N 1210.56 -1.39601 0.731392 0
M  V30 12319 C 1211.97 -1.83424 0.348194 0
M  V30 12320 C 1212.33 -1.61106 -1.11979 0
M  V30 12321 O 1211.45 -1.1003 -1.86339 0
M  V30 12322 C 1212.05 -3.32982 0.6252 0
M  V30 12323 C 1210.6 -3.75238 0.295536 0
M  V30 12324 C 1209.75 -2.62642 0.88964 0
M  V30 12325 H 1212.7 -1.28644 0.929318 0
M  V30 12326 H 1212.72 -3.80357 -0.104254 0
M  V30 12327 H 1212.24 -3.49193 1.69368 0
M  V30 12328 H 1210.34 -3.64615 -0.767254 0
M  V30 12329 H 1210.45 -4.72781 0.775576 0
M  V30 12330 H 1208.81 -2.52726 0.316529 0
M  V30 12331 H 1209.6 -2.81661 1.96271 0
M  V30 12332 N 1212.04 -0.478751 -1.50152 0
M  V30 12333 C 1213.27 0.0732929 -2.0727 0
M  V30 12334 C 1213.69 1.32066 -1.33941 0
M  V30 12335 O 1213.05 1.7707 -0.389367 0
M  V30 12336 C 1213.1 0.332528 -3.59064 0
M  V30 12337 O 1212.2 1.41158 -3.8749 0
M  V30 12338 H 1211.54 -0.0163684 -0.663798 0
M  V30 12339 H 1214.07 -0.671993 -1.9325 0
M  V30 12340 H 1214.08 0.570735 -4.03988 0
M  V30 12341 H 1212.76 -0.578934 -4.11851 0
M  V30 12342 H 1211.34 1.16008 -3.54396 0
M  V30 12343 N 1213.52 1.56172 -0.211661 0
M  V30 12344 C 1214.77 1.99087 0.416624 0
M  V30 12345 C 1215.12 1.09668 1.58084 0
M  V30 12346 O 1214.41 0.144533 1.91054 0
M  V30 12347 C 1214.61 3.45636 0.909442 0
M  V30 12348 C 1214.44 4.4923 -0.205486 0
M  V30 12349 C 1213.21 5.00857 -0.668617 0
M  V30 12350 C 1215.41 5.04078 -1.02029 0
M  V30 12351 N 1213.39 5.88141 -1.75964 0
M  V30 12352 C 1214.76 5.88192 -1.96037 0
M  V30 12353 C 1216.81 4.86467 -1.06085 0
M  V30 12354 C 1215.52 6.56576 -2.93768 0
M  V30 12355 C 1217.54 5.55604 -2.02629 0
M  V30 12356 C 1216.9 6.39477 -2.95378 0
M  V30 12357 H 1213 0.77283 0.119404 0
M  V30 12358 H 1215.59 1.92033 -0.321163 0
M  V30 12359 H 1213.76 3.53157 1.61662 0
M  V30 12360 H 1215.49 3.75486 1.50972 0
M  V30 12361 H 1212.25 4.72891 -0.258977 0
M  V30 12362 H 1212.67 6.36485 -2.30685 0
M  V30 12363 H 1217.31 4.21284 -0.357726 0
M  V30 12364 H 1215.03 7.20948 -3.65048 0
M  V30 12365 H 1218.62 5.43947 -2.06428 0
M  V30 12366 H 1217.5 6.92032 -3.68864 0
M  V30 12367 N 1215 -0.0618163 1.57479 0
M  V30 12368 C 1216.25 -0.757569 1.87364 0
M  V30 12369 C 1216.57 -1.77607 0.805025 0
M  V30 12370 O 1215.84 -1.95202 -0.165216 0
M  V30 12371 H 1214.42 -0.28278 0.691408 0
M  V30 12372 H 1217.08 -0.0355354 1.94868 0
M  V30 12373 H 1216.18 -1.26758 2.85199 0
M  V30 12374 N 1216.48 -1.54033 -0.333429 0
M  V30 12375 C 1217.7 -1.76031 -1.09672 0
M  V30 12376 C 1218.13 -0.502844 -1.81254 0
M  V30 12377 O 1217.48 0.54509 -1.72912 0
M  V30 12378 C 1217.53 -2.947 -2.07809 0
M  V30 12379 O 1216.64 -2.65555 -3.15522 0
M  V30 12380 H 1215.98 -0.583611 -0.316692 0
M  V30 12381 H 1218.51 -2.01026 -0.380732 0
M  V30 12382 H 1218.52 -3.21771 -2.50853 0
M  V30 12383 H 1217.19 -3.85895 -1.55106 0
M  V30 12384 H 1215.77 -2.49403 -2.77223 0
M  V30 12385 N 1217.95 0.594978 -1.45938 0
M  V30 12386 C 1219.2 1.35093 -1.50314 0
M  V30 12387 C 1219.52 1.94412 -0.151315 0
M  V30 12388 O 1218.79 1.77876 0.820787 0
M  V30 12389 H 1217.37 0.501549 -0.553586 0
M  V30 12390 H 1220.04 0.697735 -1.81983 0
M  V30 12391 H 1219.13 2.16393 -2.24901 0
M  V30 12392 N 1219.43 1.33438 0.838571 0
M  V30 12393 C 1220.4 1.23632 1.92997 0
M  V30 12394 C 1221.4 0.155302 1.60048 0
M  V30 12395 O 1222.59 0.406852 1.69382 0
M  V30 12396 C 1219.72 0.90512 3.28665 0
M  V30 12397 H 1220.91 2.20643 2.03117 0
M  V30 12398 H 1218.46 1.17501 1.03069 0
M  V30 12399 H 1219.2 -0.0624833 3.2424 0
M  V30 12400 H 1218.98 1.68688 3.53959 0
M  V30 12401 H 1220.47 0.861262 4.08622 0
M  V30 12402 N 1220.91 -1.05686 1.16912 0
M  V30 12403 C 1222.19 -1.7546 0.864483 0
M  V30 12404 C 1222.57 -2.0128 -0.636359 0
M  V30 12405 O 1221.92 -1.64485 -1.58609 0
M  V30 12406 C 1222.13 -3.05134 1.69395 0
M  V30 12407 C 1223.47 -3.79176 1.91079 0
M  V30 12408 O 1224.5 -3.1499 1.66312 0
M  V30 12409 O 1223.36 -4.94496 2.32671 0
M  V30 12410 H 1220.45 -0.762748 0.319601 0
M  V30 12411 H 1223 -1.11899 1.27581 0
M  V30 12412 H 1221.77 -2.82063 2.71212 0
M  V30 12413 H 1221.39 -3.76431 1.28007 0
M  V30 12414 N 1222.39 -0.968567 -1.24324 0
M  V30 12415 C 1223.32 -0.518323 -2.27674 0
M  V30 12416 C 1224.3 0.442479 -1.64244 0
M  V30 12417 O 1225.48 0.338416 -1.91229 0
M  V30 12418 C 1222.61 0.191459 -3.46772 0
M  V30 12419 C 1221.57 -0.685449 -4.22476 0
M  V30 12420 C 1220.89 0.155873 -5.34473 0
M  V30 12421 C 1222.19 -1.97047 -4.83704 0
M  V30 12422 H 1223.89 -1.38215 -2.65588 0
M  V30 12423 H 1221.43 -0.66604 -1.27671 0
M  V30 12424 H 1223.39 0.517667 -4.18208 0
M  V30 12425 H 1222.11 1.08965 -3.07887 0
M  V30 12426 H 1220.77 -0.994942 -3.52841 0
M  V30 12427 H 1220.42 1.05424 -4.91828 0
M  V30 12428 H 1220.12 -0.427655 -5.86042 0
M  V30 12429 H 1221.64 0.476733 -6.08736 0
M  V30 12430 H 1223.06 -1.70979 -5.4721 0
M  V30 12431 H 1221.45 -2.50079 -5.45509 0
M  V30 12432 H 1222.52 -2.66484 -4.0511 0
M  V30 12433 N 1223.87 1.39211 -0.738786 0
M  V30 12434 C 1225.11 2.01209 -0.297722 0
M  V30 12435 C 1225.47 1.57579 1.10393 0
M  V30 12436 O 1224.76 0.796454 1.74262 0
M  V30 12437 C 1224.95 3.55758 -0.342224 0
M  V30 12438 C 1224.78 4.14393 -1.74666 0
M  V30 12439 C 1223.55 4.46814 -2.35978 0
M  V30 12440 C 1225.75 4.37672 -2.70089 0
M  V30 12441 N 1223.73 4.90973 -3.68536 0
M  V30 12442 C 1225.1 4.84077 -3.87388 0
M  V30 12443 C 1227.16 4.19746 -2.67802 0
M  V30 12444 C 1225.86 5.14436 -5.02741 0
M  V30 12445 C 1227.89 4.51221 -3.82301 0
M  V30 12446 C 1227.25 4.97836 -4.98336 0
M  V30 12447 H 1223.35 0.766427 -0.155283 0
M  V30 12448 H 1225.93 1.69071 -0.965568 0
M  V30 12449 H 1224.1 3.87276 0.295285 0
M  V30 12450 H 1225.84 4.04529 0.117748 0
M  V30 12451 H 1222.59 4.34744 -1.87869 0
M  V30 12452 H 1223.02 5.17405 -4.36602 0
M  V30 12453 H 1227.66 3.82906 -1.79284 0
M  V30 12454 H 1225.38 5.50179 -5.91886 0
M  V30 12455 H 1228.96 4.3897 -3.81834 0
M  V30 12456 H 1227.84 5.21728 -5.85465 0
M  V30 12457 N 1225.34 0.486708 1.49896 0
M  V30 12458 C 1226.59 -0.0627279 2.02003 0
M  V30 12459 C 1226.91 -1.38799 1.36967 0
M  V30 12460 O 1226.18 -1.88868 0.520173 0
M  V30 12461 H 1224.76 -0.0261718 0.746541 0
M  V30 12462 H 1227.43 0.640692 1.84068 0
M  V30 12463 H 1226.52 -0.202856 3.1144 0
M  V30 12464 N 1226.82 -1.56058 0.219941 0
M  V30 12465 C 1228.05 -2.031 -0.42014 0
M  V30 12466 C 1228.47 -1.09875 -1.52673 0
M  V30 12467 O 1227.83 -0.0866458 -1.81093 0
M  V30 12468 C 1227.88 -3.48389 -0.93047 0
M  V30 12469 O 1226.98 -3.583 -2.04192 0
M  V30 12470 H 1226.32 -0.657129 -0.0952772 0
M  V30 12471 H 1228.85 -2.01787 0.338105 0
M  V30 12472 H 1228.86 -3.88678 -1.2407 0
M  V30 12473 H 1227.54 -4.15725 -0.120539 0
M  V30 12474 H 1226.12 -3.29898 -1.73845 0
M  V30 12475 N 1228.3 0.053464 -1.57509 0
M  V30 12476 C 1229.58 0.783141 -1.79238 0
M  V30 12477 C 1229.96 1.94855 -0.812069 0
M  V30 12478 O 1229.31 2.28 0.151006 0
M  V30 12479 C 1229.52 1.239 -3.26266 0
M  V30 12480 C 1230.86 1.66492 -3.90596 0
M  V30 12481 O 1231.89 1.33421 -3.30269 0
M  V30 12482 O 1230.75 2.27785 -4.96766 0
M  V30 12483 H 1227.84 0.376696 -0.736226 0
M  V30 12484 H 1230.39 0.0321229 -1.6967 0
M  V30 12485 H 1229.16 0.405948 -3.89189 0
M  V30 12486 H 1228.78 2.05078 -3.4063 0
M  V30 12487 N 1229.78 1.54207 0.325255 0
M  V30 12488 C 1231 1.7661 1.08736 0
M  V30 12489 C 1231.43 0.512449 1.80985 0
M  V30 12490 O 1230.79 -0.535913 1.73198 0
M  V30 12491 C 1230.84 2.95797 2.06243 0
M  V30 12492 O 1229.94 2.67225 3.14109 0
M  V30 12493 H 1229.28 0.585282 0.313593 0
M  V30 12494 H 1231.81 2.01225 0.370066 0
M  V30 12495 H 1231.82 3.23097 2.49143 0
M  V30 12496 H 1230.5 3.86712 1.53058 0
M  V30 12497 H 1229.07 2.50869 2.75897 0
M  V30 12498 N 1231.26 -0.58723 1.46251 0
M  V30 12499 C 1232.53 -1.34727 1.41802 0
M  V30 12500 C 1232.91 -2.10867 0.0991354 0
M  V30 12501 O 1232.26 -2.09194 -0.919242 0
M  V30 12502 C 1232.47 -2.27706 2.64482 0
M  V30 12503 C 1233.82 -2.89678 3.10438 0
M  V30 12504 O 1234.84 -2.38021 2.64999 0
M  V30 12505 O 1233.7 -3.83493 3.89352 0
M  V30 12506 H 1230.8 -0.605119 0.563702 0
M  V30 12507 H 1233.34 -0.608623 1.5841 0
M  V30 12508 H 1232.12 -1.70842 3.52035 0
M  V30 12509 H 1231.74 -3.08918 2.50311 0
M  V30 12510 N 1232.74 -1.33881 -0.831482 0
M  V30 12511 C 1233.96 -1.28812 -1.61911 0
M  V30 12512 C 1234.38 0.139519 -1.88284 0
M  V30 12513 O 1233.74 1.08397 -1.46821 0
M  V30 12514 C 1233.79 -2.06806 -2.96502 0
M  V30 12515 O 1233.51 -3.44 -2.71285 0
M  V30 12516 C 1235.01 -2.09033 -3.90922 0
M  V30 12517 H 1232.23 -0.443473 -0.50356 0
M  V30 12518 H 1234.77 -1.76365 -1.03516 0
M  V30 12519 H 1232.93 -1.62915 -3.51479 0
M  V30 12520 H 1233.34 -3.84213 -3.57044 0
M  V30 12521 H 1234.82 -2.68044 -4.82552 0
M  V30 12522 H 1235.29 -1.08249 -4.25651 0
M  V30 12523 H 1235.9 -2.52975 -3.41883 0
M  V30 12524 N 1234.21 1.05064 -1.1747 0
M  V30 12525 C 1235.63 1.30256 -0.922248 0
M  V30 12526 C 1235.83 1.97119 0.417896 0
M  V30 12527 O 1234.89 2.24557 1.15457 0
M  V30 12528 C 1236.2 2.17109 -2.08049 0
M  V30 12529 C 1237.75 2.30487 -2.11766 0
M  V30 12530 C 1238.22 3.20701 -3.26979 0
M  V30 12531 N 1239.71 3.28287 -3.26775 0
M  V30 12532 C 1240.45 3.98218 -4.12565 0
M  V30 12533 N 1239.94 4.70567 -5.08467 0
M  V30 12534 N 1241.74 3.94395 -4.00511 0
M  V30 12535 H 1233.89 0.600653 -2.0373 0
M  V30 12536 H 1236.15 0.327475 -0.889643 0
M  V30 12537 H 1235.86 1.75273 -3.04914 0
M  V30 12538 H 1235.73 3.1775 -2.03261 0
M  V30 12539 H 1238.12 2.71564 -1.15486 0
M  V30 12540 H 1238.2 1.29471 -2.20615 0
M  V30 12541 H 1237.84 2.80337 -4.23525 0
M  V30 12542 H 1237.77 4.21725 -3.15366 0
M  V30 12543 H 1240.26 2.76739 -2.5734 0
M  V30 12544 H 1240.58 5.21492 -5.70321 0
M  V30 12545 H 1238.92 4.69505 -5.12436 0
M  V30 12546 H 1242.11 3.37 -3.24882 0
M  V30 12547 H 1242.29 4.48626 -4.67588 0
M  V30 12548 N 1235.69 0.975146 1.23809 0
M  V30 12549 C 1236.94 0.641124 1.92083 0
M  V30 12550 C 1237.27 -0.824671 1.76152 0
M  V30 12551 O 1236.52 -1.6097 1.11298 0
M  V30 12552 C 1236.82 0.971016 3.43956 0
M  V30 12553 C 1236.49 2.42616 3.80063 0
M  V30 12554 C 1235.15 2.82386 3.8963 0
M  V30 12555 C 1237.5 3.37019 3.97577 0
M  V30 12556 C 1234.83 4.15585 4.14133 0
M  V30 12557 C 1237.18 4.69855 4.23579 0
M  V30 12558 C 1235.84 5.09391 4.31366 0
M  V30 12559 H 1235.11 0.234604 0.702881 0
M  V30 12560 H 1237.76 1.22803 1.46941 0
M  V30 12561 H 1236.07 0.301965 3.90635 0
M  V30 12562 H 1237.76 0.690858 3.95004 0
M  V30 12563 H 1234.35 2.10782 3.73187 0
M  V30 12564 H 1238.54 3.07474 3.89581 0
M  V30 12565 H 1233.79 4.45831 4.18383 0
M  V30 12566 H 1237.97 5.42966 4.36074 0
M  V30 12567 H 1235.59 6.12624 4.50106 0
M  V30 12568 N 1237.17 -1.38817 0.746158 0
M  V30 12569 C 1238.08 -2.34316 0.115386 0
M  V30 12570 C 1239.1 -1.58892 -0.709179 0
M  V30 12571 O 1240.27 -1.91126 -0.635059 0
M  V30 12572 C 1237.34 -3.37977 -0.772821 0
M  V30 12573 C 1236.4 -4.2925 0.0652679 0
M  V30 12574 C 1235.63 -5.2796 -0.78064 0
M  V30 12575 O 1235.85 -5.33474 -2.01896 0
M  V30 12576 O 1234.79 -6.01556 -0.20338 0
M  V30 12577 H 1238.61 -2.89937 0.903887 0
M  V30 12578 H 1236.2 -1.40536 0.506958 0
M  V30 12579 H 1238.08 -4.01468 -1.28068 0
M  V30 12580 H 1236.76 -2.84723 -1.53994 0
M  V30 12581 H 1235.66 -3.68945 0.61891 0
M  V30 12582 H 1237 -4.85739 0.794871 0
M  V30 12583 N 1238.65 -0.49465 -1.49636 0
M  V30 12584 C 1239.59 0.287153 -2.29007 0
M  V30 12585 C 1240.56 0.966099 -1.35114 0
M  V30 12586 O 1241.75 0.973991 -1.64067 0
M  V30 12587 C 1238.89 1.34941 -3.17624 0
M  V30 12588 C 1238 0.682879 -4.26569 0
M  V30 12589 C 1237.14 1.72503 -5.0241 0
M  V30 12590 C 1236.18 1.04003 -6.032 0
M  V30 12591 N 1235.31 2.0261 -6.7223 0
M  V30 12592 H 1240.15 -0.395941 -2.95358 0
M  V30 12593 H 1237.69 -0.207103 -1.45635 0
M  V30 12594 H 1239.65 1.9772 -3.67372 0
M  V30 12595 H 1238.28 2.00135 -2.5327 0
M  V30 12596 H 1237.33 -0.0580477 -3.80356 0
M  V30 12597 H 1238.64 0.143334 -4.98594 0
M  V30 12598 H 1237.8 2.42804 -5.55996 0
M  V30 12599 H 1236.54 2.29843 -4.30144 0
M  V30 12600 H 1235.54 0.322765 -5.48852 0
M  V30 12601 H 1236.77 0.473219 -6.77449 0
M  V30 12602 H 1234.71 2.58922 -6.0274 0
M  V30 12603 H 1234.63 1.53704 -7.4021 0
M  V30 12604 H 1235.9 2.72218 -7.30423 0
M  V30 12605 N 1240.13 1.55939 -0.228214 0
M  V30 12606 C 1241.54 1.84612 0.278417 0
M  V30 12607 C 1241.89 1.14973 1.58983 0
M  V30 12608 O 1241.01 0.421673 2.12252 0
M  V30 12609 C 1241.61 3.3491 0.511935 0
M  V30 12610 C 1240.17 3.63876 0.962861 0
M  V30 12611 C 1239.31 2.77284 0.0296246 0
M  V30 12612 H 1242.26 1.52149 -0.451245 0
M  V30 12613 H 1242.29 3.55477 1.35707 0
M  V30 12614 H 1241.8 3.85567 -0.442697 0
M  V30 12615 H 1239.9 3.18682 1.93062 0
M  V30 12616 H 1240.01 4.71809 0.832659 0
M  V30 12617 H 1238.38 2.48961 0.53763 0
M  V30 12618 H 1239.16 3.30742 -0.920044 0
M  V30 12619 N 1241.6 -0.0451101 1.57535 0
M  V30 12620 C 1243.02 -0.400463 1.54494 0
M  V30 12621 C 1243.22 -1.77584 0.952166 0
M  V30 12622 O 1242.28 -2.46069 0.566221 0
M  V30 12623 C 1243.59 -0.31703 2.99024 0
M  V30 12624 C 1245.14 -0.395284 3.10494 0
M  V30 12625 C 1245.61 -0.341475 4.56725 0
M  V30 12626 N 1247.1 -0.400755 4.61463 0
M  V30 12627 C 1247.84 -0.381757 5.72128 0
M  V30 12628 N 1247.33 -0.315995 6.92079 0
M  V30 12629 N 1249.13 -0.4303 5.60451 0
M  V30 12630 H 1241.28 0.855156 1.94424 0
M  V30 12631 H 1243.54 0.323618 0.891053 0
M  V30 12632 H 1243.25 0.627477 3.46057 0
M  V30 12633 H 1243.12 -1.11696 3.60283 0
M  V30 12634 H 1245.51 -1.33022 2.63418 0
M  V30 12635 H 1245.59 0.433709 2.52096 0
M  V30 12636 H 1245.23 0.589725 5.04465 0
M  V30 12637 H 1245.16 -1.18836 5.13016 0
M  V30 12638 H 1247.65 -0.454745 3.75154 0
M  V30 12639 H 1247.97 -0.306158 7.72193 0
M  V30 12640 H 1246.31 -0.282281 6.94427 0
M  V30 12641 H 1249.5 -0.479555 4.65637 0
M  V30 12642 H 1249.68 -0.412025 6.46689 0
M  V30 12643 N 1243.08 -1.54377 -0.317073 0
M  V30 12644 C 1244.02 -1.7907 -1.41453 0
M  V30 12645 C 1244.99 -0.641012 -1.49432 0
M  V30 12646 O 1246.18 -0.879179 -1.66741 0
M  V30 12647 C 1243.3 -1.91307 -2.79498 0
M  V30 12648 C 1242.35 -3.13639 -2.8902 0
M  V30 12649 S 1243.18 -4.72093 -2.52762 0
M  V30 12650 C 1244.34 -4.87245 -3.92866 0
M  V30 12651 H 1244.57 -2.71875 -1.20296 0
M  V30 12652 H 1242.11 -1.45583 -0.514279 0
M  V30 12653 H 1244.06 -1.99043 -3.59015 0
M  V30 12654 H 1242.72 -0.994687 -2.97934 0
M  V30 12655 H 1241.92 -3.18955 -3.90235 0
M  V30 12656 H 1241.52 -3.04266 -2.17481 0
M  V30 12657 H 1243.81 -4.7028 -4.87691 0
M  V30 12658 H 1244.75 -5.89344 -3.92529 0
M  V30 12659 H 1245.16 -4.15504 -3.82122 0
M  V30 12660 N 1244.56 0.579466 -1.4656 0
M  V30 12661 C 1245.84 1.33973 -1.42515 0
M  V30 12662 C 1246.22 2.10812 -0.110317 0
M  V30 12663 O 1245.57 2.09679 0.908135 0
M  V30 12664 C 1245.78 2.26301 -2.65686 0
M  V30 12665 C 1247.12 2.88027 -3.1197 0
M  V30 12666 O 1248.15 2.36612 -2.66257 0
M  V30 12667 O 1247.01 3.81423 -3.9138 0
M  V30 12668 H 1244.1 0.602121 -0.566903 0
M  V30 12669 H 1246.65 0.600214 -1.58731 0
M  V30 12670 H 1245.42 1.68973 -3.52936 0
M  V30 12671 H 1245.04 3.07586 -2.51945 0
M  V30 12672 N 1246.04 1.3432 0.824371 0
M  V30 12673 C 1247.32 1.17178 1.56616 0
M  V30 12674 C 1247.7 -0.256195 2.0954 0
M  V30 12675 O 1247.04 -1.25732 1.90798 0
M  V30 12676 C 1247.25 2.22511 2.68867 0
M  V30 12677 C 1248.6 2.57414 3.37673 0
M  V30 12678 O 1249.63 2.2129 2.79122 0
M  V30 12679 O 1248.48 3.19462 4.43403 0
M  V30 12680 H 1245.58 0.454141 0.691147 0
M  V30 12681 H 1248.12 1.45948 0.865869 0
M  V30 12682 H 1246.9 3.18366 2.27505 0
M  V30 12683 H 1246.52 1.9491 3.46548 0
M  V30 12684 N 1247.52 -1.0444 1.18026 0
M  V30 12685 C 1248.76 -1.77224 0.971391 0
M  V30 12686 C 1249.09 -1.88466 -0.500564 0
M  V30 12687 O 1248.36 -1.40692 -1.36317 0
M  V30 12688 H 1246.94 -0.656485 0.356422 0
M  V30 12689 H 1249.6 -1.26064 1.4864 0
M  V30 12690 H 1248.69 -2.78626 1.4062 0
M  V30 12691 N 1248.99 -0.981699 -1.2329 0
M  V30 12692 C 1249.92 -0.542441 -2.27112 0
M  V30 12693 C 1250.91 0.425034 -1.64704 0
M  V30 12694 O 1252.09 0.318114 -1.91577 0
M  V30 12695 C 1249.22 0.154668 -3.46955 0
M  V30 12696 C 1248.17 -0.73022 -4.21725 0
M  V30 12697 C 1247.5 0.0991766 -5.34608 0
M  V30 12698 C 1248.8 -2.02166 -4.81587 0
M  V30 12699 H 1250.49 -1.41024 -2.64107 0
M  V30 12700 H 1248.04 -0.679544 -1.26957 0
M  V30 12701 H 1249.99 0.473281 -4.18734 0
M  V30 12702 H 1248.72 1.05693 -3.09025 0
M  V30 12703 H 1247.38 -1.03231 -3.51765 0
M  V30 12704 H 1247.02 1.00201 -4.92919 0
M  V30 12705 H 1246.72 -0.489788 -5.85555 0
M  V30 12706 H 1248.25 0.412141 -6.09207 0
M  V30 12707 H 1249.66 -1.76773 -5.45366 0
M  V30 12708 H 1248.06 -2.55851 -5.42826 0
M  V30 12709 H 1249.13 -2.70766 -4.02261 0
M  V30 12710 N 1250.47 1.3842 -0.753509 0
M  V30 12711 C 1251.4 2.33073 -0.141198 0
M  V30 12712 C 1252.38 1.54863 0.70367 0
M  V30 12713 O 1253.57 1.8318 0.644872 0
M  V30 12714 C 1250.7 3.39043 0.752802 0
M  V30 12715 C 1249.65 4.27999 0.0106692 0
M  V30 12716 C 1248.98 5.24824 1.02291 0
M  V30 12717 C 1250.28 5.09308 -1.15768 0
M  V30 12718 H 1251.97 2.84528 -0.93188 0
M  V30 12719 H 1249.52 1.36802 -0.449567 0
M  V30 12720 H 1251.47 4.04224 1.19083 0
M  V30 12721 H 1250.2 2.8607 1.57581 0
M  V30 12722 H 1248.85 3.64323 -0.407939 0
M  V30 12723 H 1248.5 4.68139 1.83998 0
M  V30 12724 H 1248.2 5.85196 0.53101 0
M  V30 12725 H 1249.73 5.92882 1.46026 0
M  V30 12726 H 1251.14 5.6773 -0.797203 0
M  V30 12727 H 1249.54 5.78914 -1.58044 0
M  V30 12728 H 1250.61 4.43051 -1.97062 0
M  V30 12729 N 1251.95 0.502579 1.49372 0
M  V30 12730 C 1252.86 -0.279532 2.32929 0
M  V30 12731 C 1253.88 -0.965806 1.44735 0
M  V30 12732 O 1255.05 -0.946839 1.77755 0
M  V30 12733 C 1252.12 -1.32913 3.20211 0
M  V30 12734 C 1251.18 -0.656121 4.24256 0
M  V30 12735 C 1250.41 -1.65571 5.07368 0
M  V30 12736 O 1250.63 -2.88571 4.92019 0
M  V30 12737 O 1249.57 -1.21016 5.89609 0
M  V30 12738 H 1253.39 0.404427 3.00995 0
M  V30 12739 H 1250.98 0.263888 1.47051 0
M  V30 12740 H 1252.86 -1.93635 3.74277 0
M  V30 12741 H 1251.54 -1.99598 2.54837 0
M  V30 12742 H 1250.44 -0.00911489 3.74099 0
M  V30 12743 H 1251.78 -0.0316802 4.9219 0
M  V30 12744 N 1253.43 -1.55816 0.23648 0
M  V30 12745 C 1254.67 -1.98981 -0.391725 0
M  V30 12746 C 1255.01 -1.12428 -1.58346 0
M  V30 12747 O 1254.28 -0.185303 -1.93615 0
M  V30 12748 C 1254.57 -3.50831 -0.811759 0
M  V30 12749 C 1254.42 -4.48152 0.384648 0
M  V30 12750 C 1255.74 -4.07489 -1.66254 0
M  V30 12751 H 1252.86 -0.723404 -0.140911 0
M  V30 12752 H 1255.5 -1.87011 0.335706 0
M  V30 12753 H 1253.65 -3.61162 -1.43157 0
M  V30 12754 H 1255.32 -4.49814 1.02298 0
M  V30 12755 H 1253.56 -4.21406 1.02955 0
M  V30 12756 H 1254.23 -5.51979 0.0475809 0
M  V30 12757 H 1256.71 -4.00195 -1.13944 0
M  V30 12758 H 1255.59 -5.14026 -1.92531 0
M  V30 12759 H 1255.85 -3.55297 -2.6309 0
M  V30 12760 N 1254.91 0.036755 -1.57557 0
M  V30 12761 C 1256.15 0.730186 -1.89199 0
M  V30 12762 C 1256.49 1.75414 -0.833271 0
M  V30 12763 O 1255.76 1.93901 0.152579 0
M  V30 12764 C 1256.04 1.40669 -3.31488 0
M  V30 12765 C 1255.9 0.396764 -4.48047 0
M  V30 12766 C 1257.22 2.34268 -3.72567 0
M  V30 12767 H 1254.33 0.263983 -0.6881 0
M  V30 12768 H 1256.98 -0.0069847 -1.89999 0
M  V30 12769 H 1255.13 2.03502 -3.30937 0
M  V30 12770 H 1256.8 -0.229062 -4.60731 0
M  V30 12771 H 1255.04 -0.284698 -4.32865 0
M  V30 12772 H 1255.71 0.908436 -5.44474 0
M  V30 12773 H 1258.19 1.81485 -3.74436 0
M  V30 12774 H 1257.06 2.78587 -4.72949 0
M  V30 12775 H 1257.33 3.20611 -3.04403 0
M  V30 12776 N 1256.39 1.54543 0.308881 0
M  V30 12777 C 1257.63 1.73107 1.043 0
M  V30 12778 C 1257.95 0.515481 1.88063 0
M  V30 12779 O 1257.22 -0.47036 1.90169 0
M  V30 12780 H 1255.8 0.638289 0.388068 0
M  V30 12781 H 1258.47 1.9188 0.341769 0
M  V30 12782 H 1257.56 2.61697 1.70063 0
M  V30 12783 N 1257.86 -0.571685 1.46866 0
M  V30 12784 C 1259.11 -1.33145 1.52972 0
M  V30 12785 C 1259.44 -1.93314 0.185344 0
M  V30 12786 O 1258.72 -1.77083 -0.80447 0
M  V30 12787 C 1259 -2.4525 2.63675 0
M  V30 12788 C 1258.85 -1.90044 4.0768 0
M  V30 12789 C 1260.17 -3.47247 2.70384 0
M  V30 12790 H 1257.29 -0.482751 0.556885 0
M  V30 12791 H 1259.93 -0.641163 1.78855 0
M  V30 12792 H 1258.08 -3.04132 2.41735 0
M  V30 12793 H 1259.76 -1.35535 4.4094 0
M  V30 12794 H 1258 -1.20805 4.1664 0
M  V30 12795 H 1258.67 -2.71019 4.80887 0
M  V30 12796 H 1261.15 -2.98263 2.90135 0
M  V30 12797 H 1260.02 -4.23132 3.49643 0
M  V30 12798 H 1260.28 -4.05179 1.76868 0
M  V30 12799 N 1259.34 -1.34755 -0.817236 0
M  V30 12800 C 1260.57 -1.30522 -1.60536 0
M  V30 12801 C 1260.98 0.119541 -1.88421 0
M  V30 12802 O 1260.34 1.06833 -1.47962 0
M  V30 12803 C 1260.39 -2.09939 -2.94292 0
M  V30 12804 O 1260.11 -3.46858 -2.67621 0
M  V30 12805 C 1261.61 -2.13168 -3.88683 0
M  V30 12806 H 1258.83 -0.448789 -0.498828 0
M  V30 12807 H 1261.38 -1.77453 -1.01639 0
M  V30 12808 H 1259.53 -1.66634 -3.49731 0
M  V30 12809 H 1259.95 -3.87979 -3.52949 0
M  V30 12810 H 1261.42 -2.73147 -4.79682 0
M  V30 12811 H 1261.9 -1.12758 -4.24479 0
M  V30 12812 H 1262.5 -2.56587 -3.39181 0
M  V30 12813 N 1260.82 1.03812 -1.18578 0
M  V30 12814 C 1262.07 1.76706 -0.980776 0
M  V30 12815 C 1262.39 1.88729 0.490562 0
M  V30 12816 O 1261.66 1.41413 1.35569 0
M  V30 12817 H 1260.24 0.654586 -0.359898 0
M  V30 12818 H 1262.9 1.25274 -1.49306 0
M  V30 12819 H 1262 2.77876 -1.42096 0
M  V30 12820 N 1262.3 0.988223 1.22768 0
M  V30 12821 C 1263.54 0.662441 1.91676 0
M  V30 12822 C 1263.88 -0.802931 1.76824 0
M  V30 12823 O 1263.15 -1.58011 1.13415 0
M  V30 12824 C 1263.43 1.06332 3.44043 0
M  V30 12825 C 1263.29 2.5869 3.67967 0
M  V30 12826 C 1264.61 0.613058 4.35809 0
M  V30 12827 H 1261.73 0.242132 0.69609 0
M  V30 12828 H 1264.37 1.23091 1.44736 0
M  V30 12829 H 1262.52 0.579623 3.84152 0
M  V30 12830 H 1264.19 3.14694 3.37291 0
M  V30 12831 H 1262.43 3.00971 3.12408 0
M  V30 12832 H 1263.1 2.8179 4.74656 0
M  V30 12833 H 1265.58 1.02846 4.0319 0
M  V30 12834 H 1264.46 0.921901 5.41103 0
M  V30 12835 H 1264.72 -0.48641 4.39416 0
M  V30 12836 N 1263.78 -1.38018 0.760839 0
M  V30 12837 C 1265.02 -2.00248 0.320716 0
M  V30 12838 C 1265.35 -1.60259 -1.09684 0
M  V30 12839 O 1264.63 -0.843567 -1.75255 0
M  V30 12840 C 1264.91 -3.57254 0.451849 0
M  V30 12841 C 1264.77 -4.07185 1.91103 0
M  V30 12842 C 1266.08 -4.39843 -0.150439 0
M  V30 12843 H 1263.2 -0.727491 0.118007 0
M  V30 12844 H 1265.85 -1.63855 0.961842 0
M  V30 12845 H 1264 -3.88386 -0.0939672 0
M  V30 12846 H 1265.67 -3.86665 2.51571 0
M  V30 12847 H 1263.91 -3.59782 2.42362 0
M  V30 12848 H 1264.58 -5.16262 1.9539 0
M  V30 12849 H 1267.06 -4.14905 0.315145 0
M  V30 12850 H 1265.93 -5.48893 -0.0284853 0
M  V30 12851 H 1266.19 -4.24367 -1.23956 0
M  V30 12852 N 1265.25 -0.510493 -1.49103 0
M  V30 12853 C 1266.2 0.282297 -2.26246 0
M  V30 12854 C 1267.19 0.927187 -1.31499 0
M  V30 12855 O 1268.38 0.833216 -1.56162 0
M  V30 12856 C 1265.51 1.34046 -3.16049 0
M  V30 12857 C 1264.59 0.701334 -4.18261 0
M  V30 12858 N 1264.99 -0.201593 -5.05398 0
M  V30 12859 C 1263.28 0.960822 -4.35527 0
M  V30 12860 C 1263.98 -0.568383 -5.78916 0
M  V30 12861 N 1262.96 0.0659546 -5.4356 0
M  V30 12862 H 1266.76 -0.41264 -2.90989 0
M  V30 12863 H 1264.28 -0.327201 -1.5907 0
M  V30 12864 H 1266.27 1.92195 -3.69955 0
M  V30 12865 H 1264.93 2.03697 -2.52859 0
M  V30 12866 H 1265.94 -0.573004 -5.1472 0
M  V30 12867 H 1262.62 1.64938 -3.83539 0
M  V30 12868 H 1264.01 -1.30763 -6.59053 0
M  V30 12869 N 1266.73 1.55688 -0.24474 0
M  V30 12870 C 1267.66 2.17317 0.696311 0
M  V30 12871 C 1268.64 1.12456 1.17441 0
M  V30 12872 O 1269.83 1.40832 1.25294 0
M  V30 12873 C 1266.95 2.77211 1.94606 0
M  V30 12874 C 1266 3.95107 1.60602 0
M  V30 12875 S 1266.83 5.30765 0.710525 0
M  V30 12876 C 1267.99 5.94111 1.96933 0
M  V30 12877 H 1268.22 2.96799 0.172566 0
M  V30 12878 H 1265.75 1.54372 -0.0292155 0
M  V30 12879 H 1267.71 3.12355 2.66354 0
M  V30 12880 H 1266.37 1.9768 2.44093 0
M  V30 12881 H 1265.57 4.35598 2.53517 0
M  V30 12882 H 1265.17 3.61229 0.968986 0
M  V30 12883 H 1267.46 6.11496 2.91682 0
M  V30 12884 H 1268.4 6.89602 1.60794 0
M  V30 12885 H 1268.81 5.23161 2.12043 0
M  V30 12886 N 1268.21 -0.0283989 1.57574 0
M  V30 12887 C 1269.46 -0.717656 1.88929 0
M  V30 12888 C 1269.78 -1.7586 0.842517 0
M  V30 12889 O 1269.05 -1.95509 -0.123774 0
M  V30 12890 H 1267.63 -0.268051 0.69725 0
M  V30 12891 H 1270.29 0.00580691 1.94899 0
M  V30 12892 H 1269.39 -1.2068 2.87824 0
M  V30 12893 N 1269.69 -1.54705 -0.300681 0
M  V30 12894 C 1270.62 -1.8205 -1.39249 0
M  V30 12895 C 1271.63 -0.703476 -1.46816 0
M  V30 12896 O 1272.82 -0.980957 -1.49129 0
M  V30 12897 C 1269.92 -1.94376 -2.77617 0
M  V30 12898 C 1269.09 -3.2478 -2.92979 0
M  V30 12899 C 1268.15 -3.27518 -4.11848 0
M  V30 12900 O 1267.18 -4.01047 -4.03918 0
M  V30 12901 N 1268.38 -2.52932 -5.22499 0
M  V30 12902 H 1271.15 -2.76279 -1.16146 0
M  V30 12903 H 1268.71 -1.54283 -0.49075 0
M  V30 12904 H 1270.7 -1.93609 -3.55384 0
M  V30 12905 H 1269.27 -1.07141 -2.93666 0
M  V30 12906 H 1268.49 -3.38319 -2.02322 0
M  V30 12907 H 1269.78 -4.10835 -3.00153 0
M  V30 12908 H 1269.18 -1.92825 -5.31822 0
M  V30 12909 H 1267.73 -2.57919 -5.98599 0
M  V30 12910 N 1271.17 0.563888 -1.47167 0
M  V30 12911 C 1272.41 1.32331 -1.53676 0
M  V30 12912 C 1272.75 1.93213 -0.195593 0
M  V30 12913 O 1272.02 1.77508 0.795068 0
M  V30 12914 C 1272.3 2.43848 -2.64972 0
M  V30 12915 C 1272.16 1.8788 -4.08682 0
M  V30 12916 C 1273.48 3.45809 -2.72221 0
M  V30 12917 H 1270.59 0.479791 -0.559437 0
M  V30 12918 H 1273.24 0.631669 -1.79192 0
M  V30 12919 H 1271.39 3.02846 -2.43345 0
M  V30 12920 H 1273.06 1.33195 -4.41652 0
M  V30 12921 H 1271.3 1.18593 -4.17275 0
M  V30 12922 H 1271.97 2.68465 -4.82318 0
M  V30 12923 H 1274.45 2.9672 -2.91713 0
M  V30 12924 H 1273.32 4.21272 -3.51882 0
M  V30 12925 H 1273.59 4.04236 -1.79014 0
M  V30 12926 N 1272.64 1.35187 0.810078 0
M  V30 12927 C 1273.58 1.23673 1.92971 0
M  V30 12928 C 1274.59 0.160819 1.62004 0
M  V30 12929 O 1275.78 0.413793 1.73638 0
M  V30 12930 C 1272.88 0.880887 3.27252 0
M  V30 12931 C 1272.05 2.05444 3.86149 0
M  V30 12932 C 1271.11 1.67494 4.98831 0
M  V30 12933 O 1270.14 2.39322 5.16443 0
M  V30 12934 N 1271.34 0.596539 5.77427 0
M  V30 12935 H 1274.1 2.20133 2.03376 0
M  V30 12936 H 1271.66 1.2831 0.987322 0
M  V30 12937 H 1273.66 0.608556 4.00098 0
M  V30 12938 H 1272.23 0.00607926 3.12599 0
M  V30 12939 H 1271.45 2.49077 3.05539 0
M  V30 12940 H 1272.73 2.83898 4.22231 0
M  V30 12941 H 1272.13 -0.000312591 5.657 0
M  V30 12942 H 1270.69 0.383979 6.50668 0
M  V30 12943 N 1274.12 -1.03182 1.19127 0
M  V30 12944 C 1275.37 -1.76184 0.990134 0
M  V30 12945 C 1275.69 -1.88986 -0.480546 0
M  V30 12946 O 1274.96 -1.4213 -1.34817 0
M  V30 12947 H 1273.54 -0.652668 0.363364 0
M  V30 12948 H 1276.2 -1.24481 1.49968 0
M  V30 12949 H 1275.3 -2.77119 1.43568 0
M  V30 12950 N 1275.6 -0.99472 -1.22242 0
M  V30 12951 C 1276.85 -0.670275 -1.90661 0
M  V30 12952 C 1277.17 0.800369 -1.77818 0
M  V30 12953 O 1276.44 1.57381 -1.16653 0
M  V30 12954 H 1275.02 -0.244925 -0.705706 0
M  V30 12955 H 1277.68 -1.26162 -1.48557 0
M  V30 12956 H 1276.78 -0.934408 -2.97784 0
M  V30 12957 N 1277.08 1.37613 -0.768148 0
M  V30 12958 C 1278.01 2.3291 -0.165911 0
M  V30 12959 C 1278.99 1.556 0.687205 0
M  V30 12960 O 1280.17 1.83854 0.625407 0
M  V30 12961 C 1277.3 3.39822 0.7168 0
M  V30 12962 C 1276.26 4.27986 -0.0347264 0
M  V30 12963 C 1275.58 5.2588 0.967192 0
M  V30 12964 C 1276.88 5.08052 -1.21164 0
M  V30 12965 H 1278.58 2.83524 -0.962006 0
M  V30 12966 H 1276.12 1.36318 -0.464051 0
M  V30 12967 H 1278.08 4.05464 1.14789 0
M  V30 12968 H 1276.8 2.87725 1.54538 0
M  V30 12969 H 1275.46 3.6387 -0.446557 0
M  V30 12970 H 1275.11 4.70064 1.79022 0
M  V30 12971 H 1274.81 5.85726 0.468913 0
M  V30 12972 H 1276.33 5.94397 1.3973 0
M  V30 12973 H 1277.75 5.66853 -0.857373 0
M  V30 12974 H 1276.14 5.77206 -1.64176 0
M  V30 12975 H 1277.21 4.40936 -2.0175 0
M  V30 12976 N 1278.56 0.518393 1.4883 0
M  V30 12977 C 1279.97 0.175476 1.58632 0
M  V30 12978 C 1280.17 -1.32081 1.52174 0
M  V30 12979 O 1279.23 -2.09817 1.40474 0
M  V30 12980 C 1280.54 0.767722 2.90734 0
M  V30 12981 C 1282.09 0.735402 3.04238 0
M  V30 12982 C 1282.56 1.30602 4.38984 0
M  V30 12983 N 1284.06 1.26748 4.45521 0
M  V30 12984 C 1284.79 1.679 5.48267 0
M  V30 12985 N 1284.29 2.16728 6.58028 0
M  V30 12986 N 1286.08 1.59209 5.39082 0
M  V30 12987 H 1278.23 1.491 1.51271 0
M  V30 12988 H 1280.49 0.619497 0.717584 0
M  V30 12989 H 1280.2 1.81777 3.01081 0
M  V30 12990 H 1280.07 0.238119 3.76448 0
M  V30 12991 H 1282.46 -0.305852 2.93511 0
M  V30 12992 H 1282.54 1.30235 2.20165 0
M  V30 12993 H 1282.19 2.34614 4.50465 0
M  V30 12994 H 1282.12 0.714858 5.21725 0
M  V30 12995 H 1284.61 0.90991 3.66782 0
M  V30 12996 H 1284.92 2.46154 7.32549 0
M  V30 12997 H 1283.26 2.20714 6.59022 0
M  V30 12998 H 1286.46 1.20869 4.52226 0
M  V30 12999 H 1286.63 1.91602 6.19025 0
M  V30 13000 N 1280.03 -1.55556 0.252993 0
M  V30 13001 C 1281.26 -2.03945 -0.376965 0
M  V30 13002 C 1281.68 -1.13089 -1.50308 0
M  V30 13003 O 1281.04 -0.125039 -1.80868 0
M  V30 13004 C 1281.09 -3.50284 -0.856363 0
M  V30 13005 O 1280.19 -3.62551 -1.96546 0
M  V30 13006 H 1279.54 -0.659002 -0.081317 0
M  V30 13007 H 1282.07 -2.01024 0.380831 0
M  V30 13008 H 1282.08 -3.91222 -1.15798 0
M  V30 13009 H 1280.75 -4.15887 -0.0323302 0
M  V30 13010 H 1279.33 -3.33511 -1.66808 0
M  V30 13011 N 1281.51 0.0200419 -1.57587 0
M  V30 13012 C 1282.76 0.707627 -1.89307 0
M  V30 13013 C 1283.08 1.7541 -0.851831 0
M  V30 13014 O 1282.35 1.95571 0.113404 0
M  V30 13015 H 1280.93 0.264349 -0.698662 0
M  V30 13016 H 1283.59 -0.0161428 -1.94893 0
M  V30 13017 H 1282.69 1.19152 -2.8846 0
M  V30 13018 N 1282.99 1.54862 0.292472 0
M  V30 13019 C 1284.24 1.73756 1.02429 0
M  V30 13020 C 1284.55 0.535164 1.88137 0
M  V30 13021 O 1285.76 0.606092 2.64648 0
M  V30 13022 C 1284.21 3.0745 1.8709 0
M  V30 13023 C 1283.82 4.35195 1.06343 0
M  V30 13024 C 1285.57 3.357 2.59819 0
M  V30 13025 C 1283.47 5.59936 1.9033 0
M  V30 13026 H 1282.4 0.647617 0.386145 0
M  V30 13027 H 1285.05 1.81338 0.28086 0
M  V30 13028 H 1283.44 2.93855 2.65453 0
M  V30 13029 H 1284.61 4.5965 0.325335 0
M  V30 13030 H 1282.93 4.13944 0.451574 0
M  V30 13031 H 1285.52 4.26099 3.23023 0
M  V30 13032 H 1285.87 2.54956 3.29094 0
M  V30 13033 H 1286.4 3.50304 1.88499 0
M  V30 13034 H 1283.14 6.43372 1.25509 0
M  V30 13035 H 1282.66 5.39654 2.61789 0
M  V30 13036 H 1284.34 5.97512 2.48171 0
M  V30 13037 N 1284.47 -0.556076 1.47464 0
M  V30 13038 C 1285.88 -0.882115 1.33007 0
M  V30 13039 C 1286.08 -1.9892 0.321407 0
M  V30 13040 O 1285.14 -2.51088 -0.266668 0
M  V30 13041 C 1286.45 -1.27428 2.72365 0
M  V30 13042 C 1288 -1.38564 2.80658 0
M  V30 13043 C 1288.48 -1.81136 4.20659 0
M  V30 13044 N 1289.97 -1.88284 4.23206 0
M  V30 13045 C 1290.7 -2.22555 5.28447 0
M  V30 13046 N 1290.2 -2.55432 6.43993 0
M  V30 13047 N 1291.99 -2.23339 5.15826 0
M  V30 13048 H 1284.14 0.17481 2.11679 0
M  V30 13049 H 1286.41 0.0155421 0.947873 0
M  V30 13050 H 1286.11 -0.53463 3.47613 0
M  V30 13051 H 1285.99 -2.23019 3.04208 0
M  V30 13052 H 1288.37 -2.1161 2.05682 0
M  V30 13053 H 1288.45 -0.411588 2.52467 0
M  V30 13054 H 1288.1 -1.08659 4.96141 0
M  V30 13055 H 1288.03 -2.79546 4.46275 0
M  V30 13056 H 1290.52 -1.65259 3.3985 0
M  V30 13057 H 1290.83 -2.80612 7.20053 0
M  V30 13058 H 1289.18 -2.5301 6.47311 0
M  V30 13059 H 1292.37 -1.97094 4.24584 0
M  V30 13060 H 1292.54 -2.49717 5.97951 0
M  V30 13061 N 1285.95 -1.35615 -0.802897 0
M  V30 13062 C 1287.2 -1.28428 -1.55528 0
M  V30 13063 C 1287.51 0.138275 -1.95111 0
M  V30 13064 O 1288.72 0.332435 -2.69457 0
M  V30 13065 C 1287.17 -2.25251 -2.80696 0
M  V30 13066 C 1286.78 -3.72871 -2.48336 0
M  V30 13067 C 1288.52 -2.27014 -3.58699 0
M  V30 13068 C 1286.43 -4.61507 -3.69817 0
M  V30 13069 H 1285.36 -0.47718 -0.583794 0
M  V30 13070 H 1288.01 -1.609 -0.882238 0
M  V30 13071 H 1286.39 -1.85755 -3.4973 0
M  V30 13072 H 1287.57 -4.21024 -1.87285 0
M  V30 13073 H 1285.88 -3.73752 -1.83571 0
M  V30 13074 H 1288.48 -2.90451 -4.48935 0
M  V30 13075 H 1288.82 -1.27491 -3.96298 0
M  V30 13076 H 1289.36 -2.65058 -2.9663 0
M  V30 13077 H 1286.09 -5.62043 -3.37324 0
M  V30 13078 H 1285.61 -4.18079 -4.30081 0
M  V30 13079 H 1287.29 -4.77113 -4.37004 0
M  V30 13080 N 1287.43 1.02549 -1.19673 0
M  V30 13081 C 1288.39 2.09064 -0.939407 0
M  V30 13082 C 1289.39 1.60593 0.0814837 0
M  V30 13083 O 1290.58 1.73521 -0.153626 0
M  V30 13084 C 1287.71 3.38395 -0.412513 0
M  V30 13085 H 1288.9 2.33325 -1.88413 0
M  V30 13086 H 1286.46 1.19211 -1.01086 0
M  V30 13087 H 1287.19 3.19805 0.538094 0
M  V30 13088 H 1286.98 3.74898 -1.14863 0
M  V30 13089 H 1288.47 4.16841 -0.251678 0
M  V30 13090 N 1288.9 1.00119 1.21713 0
M  V30 13091 C 1289.84 0.516633 2.23301 0
M  V30 13092 C 1290.85 -0.392732 1.57992 0
M  V30 13093 O 1292.04 -0.19354 1.77448 0
M  V30 13094 C 1289.14 -0.269612 3.37826 0
M  V30 13095 C 1288.31 0.637898 4.32723 0
M  V30 13096 C 1287.37 -0.0980745 5.26109 0
M  V30 13097 O 1286.4 0.519302 5.66826 0
M  V30 13098 N 1287.6 -1.37783 5.63911 0
M  V30 13099 H 1290.36 1.39022 2.65505 0
M  V30 13100 H 1287.92 0.87688 1.36097 0
M  V30 13101 H 1289.92 -0.770826 3.97291 0
M  V30 13102 H 1288.49 -1.04436 2.94638 0
M  V30 13103 H 1287.71 1.31966 3.71455 0
M  V30 13104 H 1288.99 1.25564 4.93063 0
M  V30 13105 H 1288.39 -1.90061 5.32817 0
M  V30 13106 H 1286.95 -1.82407 6.25756 0
M  V30 13107 N 1290.38 -1.37203 0.775435 0
M  V30 13108 C 1291.63 -1.99207 0.340756 0
M  V30 13109 C 1291.95 -1.61861 -1.08747 0
M  V30 13110 O 1291.22 -0.88583 -1.74728 0
M  V30 13111 H 1289.8 -0.736803 0.123004 0
M  V30 13112 H 1292.46 -1.67625 0.994379 0
M  V30 13113 H 1291.56 -3.09243 0.421346 0
M  V30 13114 N 1291.86 -0.526279 -1.48553 0
M  V30 13115 C 1293.08 0.00731432 -2.07399 0
M  V30 13116 C 1293.51 1.27737 -1.38075 0
M  V30 13117 O 1292.87 1.75741 -0.445503 0
M  V30 13118 C 1292.92 0.218126 -3.5994 0
M  V30 13119 O 1292.02 1.28759 -3.91784 0
M  V30 13120 H 1291.36 -0.0374784 -0.662941 0
M  V30 13121 H 1293.89 -0.733133 -1.91014 0
M  V30 13122 H 1293.9 0.44192 -4.056 0
M  V30 13123 H 1292.58 -0.709668 -4.09801 0
M  V30 13124 H 1291.15 1.04674 -3.57907 0
M  V30 13125 N 1293.34 1.5542 -0.261239 0
M  V30 13126 C 1294.57 2.03391 0.362698 0
M  V30 13127 C 1294.98 1.13947 1.51039 0
M  V30 13128 O 1294.32 0.149231 1.83093 0
M  V30 13129 C 1294.38 3.47558 0.918889 0
M  V30 13130 C 1294.04 4.56894 -0.0983829 0
M  V30 13131 C 1295.04 5.1182 -0.913018 0
M  V30 13132 C 1292.73 5.01779 -0.228616 0
M  V30 13133 C 1294.72 6.10138 -1.84421 0
M  V30 13134 C 1292.41 5.99926 -1.16329 0
M  V30 13135 C 1293.41 6.53984 -1.9696 0
M  V30 13136 O 1293.09 7.50214 -2.8885 0
M  V30 13137 H 1292.83 0.670166 0.0886182 0
M  V30 13138 H 1295.38 2.01722 -0.386967 0
M  V30 13139 H 1293.61 3.46423 1.71838 0
M  V30 13140 H 1295.3 3.78947 1.45443 0
M  V30 13141 H 1296.06 4.77965 -0.823066 0
M  V30 13142 H 1291.94 4.59356 0.388945 0
M  V30 13143 H 1295.49 6.52258 -2.47397 0
M  V30 13144 H 1291.38 6.332 -1.25412 0
M  V30 13145 H 1292.15 7.67881 -2.83374 0
M  V30 13146 N 1294.82 -0.0116844 1.57596 0
M  V30 13147 C 1296.06 -0.698958 1.90055 0
M  V30 13148 C 1296.39 -1.74422 0.860659 0
M  V30 13149 O 1295.65 -1.95226 -0.136132 0
M  V30 13150 C 1295.94 -1.38985 3.29269 0
M  V30 13151 C 1295.61 -0.478916 4.48349 0
M  V30 13152 C 1294.27 -0.228071 4.80659 0
M  V30 13153 C 1296.62 0.14897 5.20987 0
M  V30 13154 C 1293.95 0.659147 5.82986 0
M  V30 13155 C 1296.3 1.02399 6.24257 0
M  V30 13156 C 1294.97 1.28413 6.55032 0
M  V30 13157 H 1294.24 -0.255767 0.69546 0
M  V30 13158 H 1296.89 0.0413339 1.91455 0
M  V30 13159 H 1295.19 -2.2039 3.23937 0
M  V30 13160 H 1296.89 -1.92747 3.51638 0
M  V30 13161 H 1293.48 -0.68459 4.23097 0
M  V30 13162 H 1297.66 -0.0318326 4.9629 0
M  V30 13163 H 1292.92 0.86882 6.05195 0
M  V30 13164 H 1297.09 1.51694 6.79678 0
M  V30 13165 H 1294.72 1.97332 7.34142 0
M  V30 13166 N 1296.29 -1.55015 -0.284256 0
M  V30 13167 C 1297.71 -1.46603 -0.630845 0
M  V30 13168 C 1297.91 -0.67091 -1.90003 0
M  V30 13169 O 1296.97 -0.185266 -2.51819 0
M  V30 13170 C 1298.28 -2.9072 -0.768268 0
M  V30 13171 C 1299.83 -3.00866 -0.863061 0
M  V30 13172 C 1300.3 -4.46214 -1.03235 0
M  V30 13173 N 1301.79 -4.49994 -1.09815 0
M  V30 13174 C 1302.53 -5.5966 -1.24773 0
M  V30 13175 N 1302.02 -6.79215 -1.36523 0
M  V30 13176 N 1303.82 -5.4738 -1.27795 0
M  V30 13177 H 1295.97 -2.05171 0.549409 0
M  V30 13178 H 1298.23 -0.929915 0.184288 0
M  V30 13179 H 1297.94 -3.51575 0.0936899 0
M  V30 13180 H 1297.81 -3.39096 -1.65209 0
M  V30 13181 H 1300.2 -2.40114 -1.71549 0
M  V30 13182 H 1300.28 -2.5576 0.0451267 0
M  V30 13183 H 1299.92 -5.07564 -0.18462 0
M  V30 13184 H 1299.85 -4.88965 -1.95502 0
M  V30 13185 H 1302.34 -3.63869 -1.0202 0
M  V30 13186 H 1302.66 -7.58547 -1.47739 0
M  V30 13187 H 1301 -6.82048 -1.33548 0
M  V30 13188 H 1304.19 -4.52921 -1.18238 0
M  V30 13189 H 1304.37 -6.32892 -1.39109 0
M  V30 13190 N 1297.77 0.548248 -1.47757 0
M  V30 13191 C 1299.02 1.30694 -1.55071 0
M  V30 13192 C 1299.35 1.92994 -0.216075 0
M  V30 13193 O 1298.63 1.78341 0.776196 0
M  V30 13194 C 1298.91 2.41024 -2.67543 0
M  V30 13195 C 1298.76 1.83534 -4.10652 0
M  V30 13196 C 1300.08 3.42902 -2.75874 0
M  V30 13197 H 1297.2 0.47383 -0.564494 0
M  V30 13198 H 1299.84 0.612628 -1.79852 0
M  V30 13199 H 1297.99 3.00248 -2.46543 0
M  V30 13200 H 1299.66 1.28503 -4.4304 0
M  V30 13201 H 1297.91 1.14161 -4.18509 0
M  V30 13202 H 1298.58 2.63335 -4.85138 0
M  V30 13203 H 1301.05 2.9361 -2.94843 0
M  V30 13204 H 1299.93 4.17516 -3.5633 0
M  V30 13205 H 1300.19 4.02314 -1.83291 0
M  V30 13206 N 1299.25 1.36039 0.795694 0
M  V30 13207 C 1300.48 1.33059 1.58439 0
M  V30 13208 C 1300.89 -0.0895496 1.88588 0
M  V30 13209 O 1300.25 -1.04466 1.49643 0
M  V30 13210 C 1300.3 2.14594 2.90915 0
M  V30 13211 O 1300.02 3.51072 2.62069 0
M  V30 13212 C 1301.52 2.19324 3.85242 0
M  V30 13213 H 1298.74 0.456668 0.491625 0
M  V30 13214 H 1301.29 1.79048 0.988035 0
M  V30 13215 H 1299.44 1.72177 3.47036 0
M  V30 13216 H 1299.86 3.93545 3.46732 0
M  V30 13217 H 1301.33 2.80744 4.75276 0
M  V30 13218 H 1301.81 1.19496 4.22631 0
M  V30 13219 H 1302.41 2.6195 3.35056 0
M  V30 13220 N 1300.73 -1.01913 1.20215 0
M  V30 13221 C 1301.66 -2.12282 0.97256 0
M  V30 13222 C 1302.64 -1.6982 -0.0975709 0
M  V30 13223 O 1303.82 -1.94109 0.0594307 0
M  V30 13224 C 1300.95 -3.43369 0.521085 0
M  V30 13225 C 1299.91 -3.99559 1.53417 0
M  V30 13226 C 1299.23 -5.26383 0.93942 0
M  V30 13227 C 1300.53 -4.33241 2.91718 0
M  V30 13228 H 1302.23 -2.31746 1.89563 0
M  V30 13229 H 1299.77 -1.1137 0.912841 0
M  V30 13230 H 1301.73 -4.19963 0.347713 0
M  V30 13231 H 1300.45 -3.23655 -0.437605 0
M  V30 13232 H 1299.11 -3.25069 1.69486 0
M  V30 13233 H 1298.76 -5.02993 -0.0271236 0
M  V30 13234 H 1298.46 -5.64942 1.616 0
M  V30 13235 H 1299.98 -6.05635 0.777059 0
M  V30 13236 H 1301.4 -5.00734 2.79175 0
M  V30 13237 H 1299.79 -4.82907 3.56259 0
M  V30 13238 H 1300.86 -3.42118 3.43633 0
M  V30 13239 N 1302.21 -1.00763 -1.2118 0
M  V30 13240 C 1303.14 -0.590493 -2.2591 0
M  V30 13241 C 1304.12 0.390002 -1.65569 0
M  V30 13242 O 1305.3 0.277406 -1.92208 0
M  V30 13243 C 1302.43 0.0810388 -3.47205 0
M  V30 13244 C 1301.39 -0.81951 -4.20081 0
M  V30 13245 C 1300.71 -0.014244 -5.34698 0
M  V30 13246 C 1302.01 -2.12336 -4.7719 0
M  V30 13247 H 1303.71 -1.46595 -2.61056 0
M  V30 13248 H 1301.25 -0.706321 -1.25487 0
M  V30 13249 H 1303.21 0.384355 -4.19644 0
M  V30 13250 H 1301.93 0.991145 -3.11197 0
M  V30 13251 H 1300.59 -1.10669 -3.49497 0
M  V30 13252 H 1300.24 0.897233 -4.94933 0
M  V30 13253 H 1299.94 -0.613883 -5.84384 0
M  V30 13254 H 1301.46 0.282827 -6.09945 0
M  V30 13255 H 1302.87 -1.88301 -5.41494 0
M  V30 13256 H 1301.27 -2.67308 -5.37277 0
M  V30 13257 H 1302.34 -2.79238 -3.96427 0
M  V30 13258 N 1303.68 1.3679 -0.7827 0
M  V30 13259 C 1304.63 2.30139 -0.174595 0
M  V30 13260 C 1305.6 1.51645 0.677714 0
M  V30 13261 O 1306.79 1.80176 0.627796 0
M  V30 13262 C 1303.93 3.38133 0.689936 0
M  V30 13263 C 1303.04 4.31624 -0.180179 0
M  V30 13264 C 1302.17 5.26698 0.69009 0
M  V30 13265 C 1301.21 6.1183 -0.181891 0
M  V30 13266 N 1300.35 6.99113 0.646977 0
M  V30 13267 H 1305.19 2.81559 -0.97613 0
M  V30 13268 H 1302.73 1.38595 -0.492944 0
M  V30 13269 H 1304.69 3.99386 1.2061 0
M  V30 13270 H 1303.32 2.88049 1.45696 0
M  V30 13271 H 1302.37 3.71583 -0.81425 0
M  V30 13272 H 1303.68 4.91464 -0.852337 0
M  V30 13273 H 1302.83 5.93209 1.27232 0
M  V30 13274 H 1301.57 4.67297 1.3959 0
M  V30 13275 H 1300.58 5.44288 -0.776572 0
M  V30 13276 H 1301.8 6.73306 -0.885195 0
M  V30 13277 H 1299.75 6.42227 1.3372 0
M  V30 13278 H 1299.67 7.55993 0.0323547 0
M  V30 13279 H 1300.93 7.7 1.21325 0
M  V30 13280 N 1305.16 0.53415 1.48272 0
M  V30 13281 C 1306.13 -0.215641 2.28183 0
M  V30 13282 C 1307.13 -0.863966 1.35618 0
M  V30 13283 O 1308.32 -0.723375 1.58471 0
M  V30 13284 C 1305.45 -1.31251 3.1462 0
M  V30 13285 H 1306.64 0.486014 2.95936 0
M  V30 13286 H 1304.19 0.290237 1.53582 0
M  V30 13287 H 1304.93 -2.04729 2.51508 0
M  V30 13288 H 1304.71 -0.852706 3.82716 0
M  V30 13289 H 1306.2 -1.83978 3.74889 0
M  V30 13290 N 1306.64 -1.55279 0.269478 0
M  V30 13291 C 1307.87 -2.03876 -0.352418 0
M  V30 13292 C 1308.28 -1.14804 -1.49885 0
M  V30 13293 O 1307.64 -0.166989 -1.81734 0
M  V30 13294 C 1307.69 -3.51634 -0.838799 0
M  V30 13295 O 1307.41 -4.37316 0.261972 0
M  V30 13296 C 1308.91 -4.16094 -1.52909 0
M  V30 13297 H 1306.13 -0.66608 -0.0811043 0
M  V30 13298 H 1308.68 -2.00551 0.399929 0
M  V30 13299 H 1306.83 -3.55421 -1.54125 0
M  V30 13300 H 1307.25 -5.24383 -0.111013 0
M  V30 13301 H 1308.72 -5.21102 -1.82089 0
M  V30 13302 H 1309.2 -3.63928 -2.45872 0
M  V30 13303 H 1309.8 -4.16293 -0.87063 0
M  V30 13304 N 1308.12 0.00332656 -1.576 0
M  V30 13305 C 1309.53 0.546581 -1.7852 0
M  V30 13306 C 1309.88 1.74147 -0.903722 0
M  V30 13307 O 1309.01 2.16144 -0.105314 0
M  V30 13308 C 1309.6 0.998344 -3.23757 0
M  V30 13309 C 1308.16 1.48693 -3.45785 0
M  V30 13310 C 1307.31 0.436617 -2.73841 0
M  V30 13311 H 1310.26 -0.222852 -1.57128 0
M  V30 13312 H 1310.28 1.86452 -3.31686 0
M  V30 13313 H 1309.79 0.128479 -3.87887 0
M  V30 13314 H 1307.89 2.3778 -2.86865 0
M  V30 13315 H 1308 1.51668 -4.5446 0
M  V30 13316 H 1306.37 0.897506 -2.38363 0
M  V30 13317 H 1307.15 -0.424225 -3.40669 0
M  V30 13318 N 1309.6 1.55164 0.276031 0
M  V30 13319 C 1310.84 1.75887 1.00953 0
M  V30 13320 C 1311.18 0.5567 1.8605 0
M  V30 13321 O 1310.45 -0.445799 1.89322 0
M  V30 13322 C 1310.73 3.06228 1.89463 0
M  V30 13323 C 1310.59 4.36795 1.07379 0
M  V30 13324 C 1311.91 3.32589 2.88223 0
M  V30 13325 H 1309.02 0.639929 0.365596 0
M  V30 13326 H 1311.67 1.87893 0.282156 0
M  V30 13327 H 1309.82 2.96124 2.51481 0
M  V30 13328 H 1311.49 4.58853 0.474549 0
M  V30 13329 H 1309.73 4.32157 0.377165 0
M  V30 13330 H 1310.4 5.24315 1.72621 0
M  V30 13331 H 1312.88 3.42467 2.36338 0
M  V30 13332 H 1311.75 4.2506 3.47297 0
M  V30 13333 H 1312.02 2.52083 3.6319 0
M  V30 13334 N 1311.07 -0.540404 1.48045 0
M  V30 13335 C 1312.01 -1.66164 1.57867 0
M  V30 13336 C 1313.02 -1.56058 0.463655 0
M  V30 13337 O 1314.21 -1.62709 0.734038 0
M  V30 13338 C 1311.31 -3.04748 1.48263 0
M  V30 13339 C 1310.48 -3.40441 2.74625 0
M  V30 13340 C 1309.54 -4.58259 2.58621 0
M  V30 13341 O 1308.57 -4.62 3.32482 0
M  V30 13342 N 1309.77 -5.55794 1.67551 0
M  V30 13343 H 1312.53 -1.58179 2.54557 0
M  V30 13344 H 1310.09 -0.727441 1.44637 0
M  V30 13345 H 1312.09 -3.81425 1.35267 0
M  V30 13346 H 1310.66 -3.06868 0.595892 0
M  V30 13347 H 1309.88 -2.53044 3.02262 0
M  V30 13348 H 1311.16 -3.61069 3.58478 0
M  V30 13349 H 1310.56 -5.55541 1.06725 0
M  V30 13350 H 1309.12 -6.3173 1.60499 0
M  V30 13351 N 1312.55 -1.36459 -0.788468 0
M  V30 13352 C 1313.8 -1.30935 -1.54867 0
M  V30 13353 C 1314.13 0.110916 -1.93883 0
M  V30 13354 O 1313.41 1.06452 -1.62783 0
M  V30 13355 C 1313.69 -2.23294 -2.8251 0
M  V30 13356 C 1313.54 -3.74022 -2.49856 0
M  V30 13357 C 1314.86 -2.14407 -3.84341 0
M  V30 13358 H 1311.98 -0.476958 -0.561854 0
M  V30 13359 H 1314.62 -1.67018 -0.905805 0
M  V30 13360 H 1312.77 -1.92652 -3.37369 0
M  V30 13361 H 1314.44 -4.15187 -2.01041 0
M  V30 13362 H 1312.69 -3.93411 -1.82785 0
M  V30 13363 H 1313.36 -4.34057 -3.41026 0
M  V30 13364 H 1315.83 -2.41381 -3.38932 0
M  V30 13365 H 1314.71 -2.81199 -4.71401 0
M  V30 13366 H 1314.97 -1.13166 -4.27371 0
M  V30 13367 N 1314.03 1.01274 -1.20754 0
M  V30 13368 C 1315.31 1.7213 -0.929008 0
M  V30 13369 C 1315.69 2.03503 0.561217 0
M  V30 13370 O 1315.04 1.70259 1.52395 0
M  V30 13371 C 1315.25 2.98636 -1.80603 0
M  V30 13372 C 1316.59 3.71823 -2.0502 0
M  V30 13373 O 1317.62 3.08601 -1.77888 0
M  V30 13374 O 1316.48 4.8552 -2.50864 0
M  V30 13375 H 1313.57 0.750361 -0.347689 0
M  V30 13376 H 1316.12 1.07086 -1.31646 0
M  V30 13377 H 1314.89 2.71803 -2.81494 0
M  V30 13378 H 1314.51 3.7142 -1.4189 0
M  V30 13379 N 1315.51 1.01404 1.20644 0
M  V30 13380 C 1316.76 0.700523 1.89571 0
M  V30 13381 C 1317.08 -0.771978 1.79068 0
M  V30 13382 O 1316.35 -1.55506 1.19142 0
M  V30 13383 H 1314.93 0.256122 0.70172 0
M  V30 13384 H 1317.59 1.28509 1.46531 0
M  V30 13385 H 1316.69 0.981665 2.9626 0
M  V30 13386 N 1316.99 -1.36373 0.789944 0
M  V30 13387 C 1317.9 -2.3383 0.189873 0
M  V30 13388 C 1318.91 -1.61068 -0.65827 0
M  V30 13389 O 1320.09 -1.93049 -0.573932 0
M  V30 13390 C 1317.15 -3.40264 -0.664905 0
M  V30 13391 C 1316.22 -4.28825 0.201798 0
M  V30 13392 C 1315.45 -5.30176 -0.612278 0
M  V30 13393 O 1315.67 -5.39627 -1.84821 0
M  V30 13394 O 1314.61 -6.01899 -0.0118964 0
M  V30 13395 H 1318.43 -2.86915 0.995671 0
M  V30 13396 H 1316.02 -1.38852 0.551412 0
M  V30 13397 H 1317.9 -4.05339 -1.15231 0
M  V30 13398 H 1316.57 -2.89478 -1.44858 0
M  V30 13399 H 1315.48 -3.66789 0.735974 0
M  V30 13400 H 1316.81 -4.82965 0.949003 0
M  V30 13401 N 1318.47 -0.542005 -1.47987 0
M  V30 13402 C 1319.88 -0.104646 -1.86406 0
M  V30 13403 C 1320.23 1.32139 -1.4503 0
M  V30 13404 O 1319.35 1.99159 -0.846439 0
M  V30 13405 C 1319.95 -0.183133 -3.38305 0
M  V30 13406 C 1318.51 0.199098 -3.75873 0
M  V30 13407 C 1317.65 -0.537532 -2.7204 0
M  V30 13408 H 1320.6 -0.75259 -1.3972 0
M  V30 13409 H 1320.63 0.602149 -3.75705 0
M  V30 13410 H 1320.14 -1.22113 -3.68389 0
M  V30 13411 H 1318.24 1.23878 -3.51404 0
M  V30 13412 H 1318.35 -0.14888 -4.78869 0
M  V30 13413 H 1316.72 0.0176255 -2.54694 0
M  V30 13414 H 1317.5 -1.57639 -3.04967 0
M  V30 13415 N 1319.94 1.55134 -0.277709 0
M  V30 13416 C 1321.19 2.00675 0.331809 0
M  V30 13417 C 1321.54 1.16274 1.53291 0
M  V30 13418 O 1320.84 0.225435 1.90269 0
M  V30 13419 C 1321.03 3.49182 0.762028 0
M  V30 13420 C 1320.86 4.47954 -0.395835 0
M  V30 13421 C 1319.63 4.9757 -0.880446 0
M  V30 13422 C 1321.83 4.99297 -1.23317 0
M  V30 13423 N 1319.81 5.80149 -2.0075 0
M  V30 13424 C 1321.18 5.79348 -2.20808 0
M  V30 13425 C 1323.24 4.8153 -1.26622 0
M  V30 13426 C 1321.94 6.43526 -3.21352 0
M  V30 13427 C 1323.97 5.4651 -2.26011 0
M  V30 13428 C 1323.33 6.26374 -3.22235 0
M  V30 13429 H 1319.43 0.777199 0.086518 0
M  V30 13430 H 1322.01 1.90498 -0.402322 0
M  V30 13431 H 1320.18 3.59696 1.46538 0
M  V30 13432 H 1321.91 3.81551 1.3491 0
M  V30 13433 H 1318.67 4.71367 -0.459314 0
M  V30 13434 H 1319.09 6.26128 -2.57473 0
M  V30 13435 H 1323.73 4.19388 -0.536085 0
M  V30 13436 H 1321.45 7.04816 -3.95297 0
M  V30 13437 H 1325.04 5.34703 -2.29313 0
M  V30 13438 H 1323.92 6.75765 -3.97884 0
M  V30 13439 N 1321.42 0.00503138 1.57599 0
M  V30 13440 C 1322.67 -0.679766 1.91068 0
M  V30 13441 C 1323 -1.73144 0.879486 0
M  V30 13442 O 1322.28 -1.94237 -0.101116 0
M  V30 13443 C 1322.56 -1.3183 3.35101 0
M  V30 13444 C 1322.41 -0.277833 4.48941 0
M  V30 13445 C 1323.73 -2.24308 3.78647 0
M  V30 13446 H 1320.85 -0.245646 0.694857 0
M  V30 13447 H 1323.49 0.057357 1.89913 0
M  V30 13448 H 1321.64 -1.94657 3.36216 0
M  V30 13449 H 1323.31 0.351136 4.59962 0
M  V30 13450 H 1321.56 0.399365 4.31958 0
M  V30 13451 H 1322.23 -0.763759 5.46691 0
M  V30 13452 H 1324.7 -1.71494 3.79116 0
M  V30 13453 H 1323.58 -2.6595 4.80169 0
M  V30 13454 H 1323.84 -3.12427 3.12797 0
M  V30 13455 N 1322.9 -1.55308 -0.267798 0
M  V30 13456 C 1323.83 -1.84963 -1.35356 0
M  V30 13457 C 1324.84 -0.73446 -1.45291 0
M  V30 13458 O 1326.03 -1.01237 -1.47015 0
M  V30 13459 C 1323.13 -2.00221 -2.73432 0
M  V30 13460 C 1322.31 -3.30922 -2.86024 0
M  V30 13461 C 1321.37 -3.3618 -4.04808 0
M  V30 13462 O 1320.39 -4.09525 -3.9532 0
M  V30 13463 N 1321.59 -2.63958 -5.17017 0
M  V30 13464 H 1324.36 -2.7868 -1.1026 0
M  V30 13465 H 1321.92 -1.55289 -0.457914 0
M  V30 13466 H 1323.91 -2.01103 -3.51197 0
M  V30 13467 H 1322.48 -1.13346 -2.91327 0
M  V30 13468 H 1321.7 -3.42534 -1.951 0
M  V30 13469 H 1322.99 -4.17109 -2.91371 0
M  V30 13470 H 1322.39 -2.04062 -5.27613 0
M  V30 13471 H 1320.94 -2.70558 -5.92994 0
M  V30 13472 N 1324.38 0.532545 -1.4833 0
M  V30 13473 C 1325.34 1.61955 -1.62183 0
M  V30 13474 C 1326.34 1.52982 -0.495281 0
M  V30 13475 O 1327.53 1.56698 -0.761005 0
M  V30 13476 C 1324.66 3.0157 -1.58961 0
M  V30 13477 H 1325.86 1.51013 -2.59105 0
M  V30 13478 H 1323.41 0.754405 -1.36888 0
M  V30 13479 H 1324.14 3.18021 -0.635069 0
M  V30 13480 H 1323.93 3.09491 -2.40744 0
M  V30 13481 H 1325.42 3.80604 -1.71843 0
M  V30 13482 N 1325.86 1.36875 0.78122 0
M  V30 13483 C 1327.27 1.28236 1.35692 0
M  V30 13484 C 1327.62 -0.0742286 1.9606 0
M  V30 13485 O 1326.74 -0.97588 1.93146 0
M  V30 13486 C 1327.34 2.32215 2.46702 0
M  V30 13487 C 1325.9 2.2724 3.00065 0
M  V30 13488 C 1325.04 2.16553 1.73206 0
M  V30 13489 H 1327.99 1.47634 0.582217 0
M  V30 13490 H 1328.02 1.96333 3.25935 0
M  V30 13491 H 1327.53 3.30938 2.02735 0
M  V30 13492 H 1325.63 1.3201 3.48431 0
M  V30 13493 H 1325.74 3.20267 3.56323 0
M  V30 13494 H 1324.11 1.62941 1.95761 0
M  V30 13495 H 1324.89 3.17176 1.31356 0
M  V30 13496 N 1327.33 -1.00632 1.21289 0
M  V30 13497 C 1328.58 -1.74044 1.02728 0
M  V30 13498 C 1328.9 -1.89963 -0.440351 0
M  V30 13499 O 1328.17 -1.44958 -1.31772 0
M  V30 13500 H 1326.75 -0.644813 0.377127 0
M  V30 13501 H 1329.41 -1.21272 1.52575 0
M  V30 13502 H 1328.51 -2.74011 1.49413 0
M  V30 13503 N 1328.81 -1.02043 -1.20104 0
M  V30 13504 C 1329.76 -0.564679 -2.20897 0
M  V30 13505 C 1330.75 0.382041 -1.56299 0
M  V30 13506 O 1331.94 0.204384 -1.75816 0
M  V30 13507 C 1329.07 0.0917516 -3.43177 0
M  V30 13508 C 1328.15 -0.876903 -4.14935 0
M  V30 13509 N 1328.54 -2.03596 -4.63014 0
M  V30 13510 C 1326.84 -0.698538 -4.40496 0
M  V30 13511 C 1327.54 -2.64621 -5.18026 0
M  V30 13512 N 1326.52 -1.92651 -5.08317 0
M  V30 13513 H 1330.32 -1.44825 -2.5574 0
M  V30 13514 H 1327.83 -0.88628 -1.36084 0
M  V30 13515 H 1329.83 0.43582 -4.14616 0
M  V30 13516 H 1328.49 0.971116 -3.09838 0
M  V30 13517 H 1329.5 -2.41573 -4.58108 0
M  V30 13518 H 1326.18 0.132449 -4.1729 0
M  V30 13519 H 1327.57 -3.62732 -5.65575 0
M  V30 13520 N 1330.29 1.35952 -0.797165 0
M  V30 13521 C 1331.22 2.27728 -0.146693 0
M  V30 13522 C 1332.2 1.47616 0.68178 0
M  V30 13523 O 1333.39 1.76898 0.651094 0
M  V30 13524 C 1330.51 3.29179 0.797442 0
M  V30 13525 C 1329.56 4.26471 0.0497851 0
M  V30 13526 S 1330.39 5.19982 -1.2798 0
M  V30 13527 C 1331.55 6.24977 -0.339864 0
M  V30 13528 H 1331.78 2.82549 -0.924834 0
M  V30 13529 H 1329.31 1.4261 -0.591759 0
M  V30 13530 H 1331.27 3.88127 1.33669 0
M  V30 13531 H 1329.93 2.73255 1.54889 0
M  V30 13532 H 1329.13 4.98138 0.766487 0
M  V30 13533 H 1328.73 3.71643 -0.419219 0
M  V30 13534 H 1331.02 6.75809 0.478412 0
M  V30 13535 H 1331.96 7.00636 -1.02544 0
M  V30 13536 H 1332.37 5.64468 0.0602491 0
M  V30 13537 N 1331.77 0.549846 1.47697 0
M  V30 13538 C 1333.02 0.0209424 2.01689 0
M  V30 13539 C 1333.33 -1.33417 1.43036 0
M  V30 13540 O 1334.54 -1.95257 1.88646 0
M  V30 13541 C 1332.99 -0.0130171 3.59898 0
M  V30 13542 C 1332.6 1.3384 4.2754 0
M  V30 13543 C 1334.34 -0.489701 4.21666 0
M  V30 13544 C 1332.25 1.26395 5.77735 0
M  V30 13545 H 1331.18 0.00405885 0.753989 0
M  V30 13546 H 1333.83 0.696599 1.69764 0
M  V30 13547 H 1332.21 -0.754168 3.88752 0
M  V30 13548 H 1333.39 2.09668 4.10336 0
M  V30 13549 H 1331.7 1.75242 3.77729 0
M  V30 13550 H 1334.3 -0.563684 5.31721 0
M  V30 13551 H 1334.64 -1.50004 3.88336 0
M  V30 13552 H 1335.18 0.196366 3.97315 0
M  V30 13553 H 1331.92 2.25005 6.15673 0
M  V30 13554 H 1331.44 0.547353 5.97297 0
M  V30 13555 H 1333.11 0.962918 6.39794 0
M  V30 13556 N 1333.25 -1.54984 0.285932 0
M  V30 13557 C 1334.5 -1.99008 -0.328433 0
M  V30 13558 C 1334.81 -1.17787 -1.56158 0
M  V30 13559 O 1336.01 -1.52006 -2.24959 0
M  V30 13560 C 1334.47 -3.54241 -0.635688 0
M  V30 13561 C 1334.08 -4.44252 0.578271 0
M  V30 13562 C 1335.82 -4.06828 -1.21208 0
M  V30 13563 C 1333.73 -5.90892 0.245003 0
M  V30 13564 H 1332.66 -0.743314 -0.126494 0
M  V30 13565 H 1335.31 -1.79258 0.39228 0
M  V30 13566 H 1333.69 -3.69834 -1.41559 0
M  V30 13567 H 1334.87 -4.40431 1.35489 0
M  V30 13568 H 1333.18 -4.02358 1.07225 0
M  V30 13569 H 1335.78 -5.13941 -1.47542 0
M  V30 13570 H 1336.12 -3.56515 -2.14948 0
M  V30 13571 H 1336.65 -3.94718 -0.494222 0
M  V30 13572 H 1333.39 -6.45323 1.15057 0
M  V30 13573 H 1332.91 -5.97757 -0.494636 0
M  V30 13574 H 1334.59 -6.46805 -0.158891 0
M  V30 13575 N 1334.72 -0.0133892 -1.57594 0
M  V30 13576 C 1335.95 0.682855 -1.95836 0
M  V30 13577 C 1336.37 1.65763 -0.889049 0
M  V30 13578 O 1335.73 1.80665 0.151585 0
M  V30 13579 C 1335.78 1.37931 -3.33178 0
M  V30 13580 O 1334.88 2.49416 -3.28429 0
M  V30 13581 H 1334.23 0.180629 -0.638959 0
M  V30 13582 H 1336.76 -0.0705644 -2.04478 0
M  V30 13583 H 1336.77 1.73969 -3.69051 0
M  V30 13584 H 1335.44 0.664675 -4.10554 0
M  V30 13585 H 1334.02 2.15606 -3.04251 0
M  V30 13586 N 1336.2 1.55448 0.259558 0
M  V30 13587 C 1337.17 1.88459 1.30445 0
M  V30 13588 C 1338.17 0.760096 1.41701 0
M  V30 13589 O 1339.36 1.02819 1.4062 0
M  V30 13590 C 1336.49 2.10181 2.68397 0
M  V30 13591 H 1337.68 2.81877 1.02398 0
M  V30 13592 H 1335.23 1.48145 0.498262 0
M  V30 13593 H 1335.97 1.19189 3.01603 0
M  V30 13594 H 1335.75 2.92066 2.6161 0
M  V30 13595 H 1337.24 2.36947 3.43869 0
M  V30 13596 N 1337.68 -0.524672 1.4861 0
M  V30 13597 C 1338.64 -1.61092 1.63039 0
M  V30 13598 C 1339.64 -1.52718 0.503387 0
M  V30 13599 O 1340.83 -1.56293 0.769304 0
M  V30 13600 C 1337.97 -3.00722 1.60558 0
M  V30 13601 H 1339.16 -1.49636 2.59902 0
M  V30 13602 H 1336.71 -0.747135 1.37287 0
M  V30 13603 H 1337.45 -3.1768 0.651926 0
M  V30 13604 H 1337.23 -3.0821 2.42382 0
M  V30 13605 H 1338.72 -3.79688 1.73859 0
M  V30 13606 N 1339.16 -1.37287 -0.77395 0
M  V30 13607 C 1340.41 -1.32112 -1.5294 0
M  V30 13608 C 1340.73 0.0946137 -1.9477 0
M  V30 13609 O 1340 1.03817 -1.66129 0
M  V30 13610 H 1338.58 -0.486047 -0.567245 0
M  V30 13611 H 1341.24 -1.71752 -0.921263 0
M  V30 13612 H 1340.34 -1.95873 -2.42982 0
M  V30 13613 N 1340.64 0.999871 -1.21821 0
M  V30 13614 C 1342.05 1.5529 -1.03642 0
M  V30 13615 C 1342.4 1.92032 0.402246 0
M  V30 13616 O 1341.52 1.74027 1.28622 0
M  V30 13617 C 1342.12 2.82177 -1.87514 0
M  V30 13618 C 1340.68 3.33949 -1.73653 0
M  V30 13619 C 1339.82 2.07095 -1.84409 0
M  V30 13620 H 1342.78 0.821751 -1.35768 0
M  V30 13621 H 1342.8 3.54264 -1.38842 0
M  V30 13622 H 1342.31 2.55405 -2.92216 0
M  V30 13623 H 1340.41 3.65645 -0.716554 0
M  V30 13624 H 1340.52 4.05022 -2.55918 0
M  V30 13625 H 1338.89 2.20332 -1.27773 0
M  V30 13626 H 1339.67 1.82728 -2.90629 0
M  V30 13627 N 1342.11 1.02678 1.19562 0
M  V30 13628 C 1343.06 0.605764 2.22709 0
M  V30 13629 C 1344.03 -0.37936 1.6171 0
M  V30 13630 O 1345.22 -0.276496 1.88786 0
M  V30 13631 C 1342.36 -0.0394312 3.45077 0
M  V30 13632 C 1341.47 0.991481 4.20468 0
M  V30 13633 C 1340.6 0.316269 5.30258 0
M  V30 13634 C 1339.64 1.33324 5.97404 0
M  V30 13635 N 1338.78 0.683979 6.9876 0
M  V30 13636 H 1343.62 1.48994 2.58079 0
M  V30 13637 H 1341.16 0.745636 1.26802 0
M  V30 13638 H 1343.12 -0.430726 4.14971 0
M  V30 13639 H 1341.75 -0.887193 3.10369 0
M  V30 13640 H 1340.8 1.50085 3.49541 0
M  V30 13641 H 1342.11 1.76449 4.66548 0
M  V30 13642 H 1341.26 -0.129983 6.06561 0
M  V30 13643 H 1340 -0.488956 4.85243 0
M  V30 13644 H 1339.01 1.78977 5.19853 0
M  V30 13645 H 1340.23 2.13992 6.44503 0
M  V30 13646 H 1338.18 -0.101192 6.55922 0
M  V30 13647 H 1338.1 1.3949 7.4302 0
M  V30 13648 H 1339.36 0.261658 7.79061 0
M  V30 13649 N 1343.59 -1.35528 0.804364 0
M  V30 13650 C 1344.84 -1.99126 0.384261 0
M  V30 13651 C 1345.17 -1.63668 -1.0453 0
M  V30 13652 O 1344.45 -0.898896 -1.72482 0
M  V30 13653 C 1344.73 -3.55636 0.565278 0
M  V30 13654 C 1344.58 -4.00899 2.03961 0
M  V30 13655 C 1345.9 -4.40099 -0.0104301 0
M  V30 13656 H 1343.02 -0.723369 0.141092 0
M  V30 13657 H 1345.66 -1.60712 1.01348 0
M  V30 13658 H 1343.81 -3.88489 0.0296425 0
M  V30 13659 H 1345.48 -3.78465 2.63746 0
M  V30 13660 H 1343.73 -3.5189 2.53685 0
M  V30 13661 H 1344.4 -5.09785 2.11716 0
M  V30 13662 H 1346.87 -4.13692 0.446985 0
M  V30 13663 H 1345.75 -5.48705 0.146155 0
M  V30 13664 H 1346.01 -4.28096 -1.10392 0
M  V30 13665 N 1345.07 -0.557671 -1.47404 0
M  V30 13666 C 1346.02 0.210176 -2.27029 0
M  V30 13667 C 1347.01 0.884882 -1.34382 0
M  V30 13668 O 1348.2 0.783112 -1.58734 0
M  V30 13669 C 1345.33 1.23923 -3.20153 0
M  V30 13670 C 1344.41 0.567913 -4.2028 0
M  V30 13671 N 1344.8 -0.362279 -5.04501 0
M  V30 13672 C 1343.1 0.821776 -4.38364 0
M  V30 13673 C 1343.8 -0.752273 -5.76815 0
M  V30 13674 N 1342.78 -0.107008 -5.43495 0
M  V30 13675 H 1346.58 -0.505007 -2.89529 0
M  V30 13676 H 1344.09 -0.377642 -1.57948 0
M  V30 13677 H 1346.09 1.80328 -3.75882 0
M  V30 13678 H 1344.75 1.9555 -2.59211 0
M  V30 13679 H 1345.76 -0.736468 -5.12637 0
M  V30 13680 H 1342.44 1.52652 -3.88592 0
M  V30 13681 H 1343.83 -1.51664 -6.54559 0
M  V30 13682 N 1346.55 1.54831 -0.294147 0
M  V30 13683 C 1347.48 2.19422 0.626821 0
M  V30 13684 C 1348.46 1.16136 1.13804 0
M  V30 13685 O 1349.64 1.44747 1.2075 0
M  V30 13686 C 1346.77 2.83262 1.85689 0
M  V30 13687 C 1345.82 4.00016 1.4795 0
M  V30 13688 S 1346.65 5.32757 0.541307 0
M  V30 13689 C 1347.81 6.00076 1.77932 0
M  V30 13690 H 1348.04 2.97198 0.0780539 0
M  V30 13691 H 1345.57 1.54201 -0.0783131 0
M  V30 13692 H 1347.53 3.20671 2.56282 0
M  V30 13693 H 1346.19 2.05345 2.37681 0
M  V30 13694 H 1345.38 4.43443 2.3953 0
M  V30 13695 H 1344.99 3.64129 0.853573 0
M  V30 13696 H 1347.28 6.20466 2.7208 0
M  V30 13697 H 1348.22 6.94368 1.38774 0
M  V30 13698 H 1348.63 5.29643 1.95292 0
M  V30 13699 N 1348.03 0.0217466 1.57585 0
M  V30 13700 C 1348.96 -0.961069 2.12804 0
M  V30 13701 C 1349.94 -1.3442 1.04237 0
M  V30 13702 O 1351.12 -1.42412 1.32032 0
M  V30 13703 C 1348.25 -2.24586 2.64912 0
M  V30 13704 C 1347.21 -2.0037 3.78201 0
M  V30 13705 C 1346.53 -3.35051 4.16708 0
M  V30 13706 C 1347.83 -1.34879 5.04584 0
M  V30 13707 H 1349.53 -0.501222 2.95175 0
M  V30 13708 H 1347.07 -0.239649 1.41992 0
M  V30 13709 H 1349.03 -2.93715 3.02175 0
M  V30 13710 H 1347.75 -2.72723 1.79693 0
M  V30 13711 H 1346.41 -1.33662 3.41365 0
M  V30 13712 H 1346.06 -3.80932 3.28481 0
M  V30 13713 H 1345.76 -3.19656 4.93045 0
M  V30 13714 H 1347.28 -4.05459 4.56547 0
M  V30 13715 H 1348.7 -1.93997 5.3948 0
M  V30 13716 H 1347.09 -1.29906 5.85871 0
M  V30 13717 H 1348.16 -0.320774 4.83838 0
M  V30 13718 N 1349.51 -1.55583 -0.251311 0
M  V30 13719 C 1350.92 -1.47908 -0.599606 0
M  V30 13720 C 1351.12 -0.711061 -1.88537 0
M  V30 13721 O 1350.18 -0.238639 -2.5137 0
M  V30 13722 C 1351.49 -2.92284 -0.706429 0
M  V30 13723 C 1353.04 -3.02629 -0.799049 0
M  V30 13724 C 1353.51 -4.48303 -0.93747 0
M  V30 13725 N 1355 -4.52222 -1.00245 0
M  V30 13726 C 1355.74 -5.62181 -1.12874 0
M  V30 13727 N 1355.24 -6.81958 -1.22085 0
M  V30 13728 N 1357.03 -5.49968 -1.16155 0
M  V30 13729 H 1349.18 -2.0396 0.592806 0
M  V30 13730 H 1351.44 -0.925797 0.203971 0
M  V30 13731 H 1351.15 -3.51297 0.168243 0
M  V30 13732 H 1351.02 -3.42524 -1.57979 0
M  V30 13733 H 1353.41 -2.43699 -1.66418 0
M  V30 13734 H 1353.49 -2.55607 0.099367 0
M  V30 13735 H 1353.13 -5.07842 -0.0769166 0
M  V30 13736 H 1353.06 -4.93002 -1.85086 0
M  V30 13737 H 1355.56 -3.65951 -0.94279 0
M  V30 13738 H 1355.87 -7.6151 -1.31616 0
M  V30 13739 H 1354.21 -6.84728 -1.1905 0
M  V30 13740 H 1357.4 -4.55327 -1.08604 0
M  V30 13741 H 1357.58 -6.35701 -1.25653 0
M  V30 13742 N 1350.98 0.516783 -1.48886 0
M  V30 13743 C 1351.93 1.62003 -1.64389 0
M  V30 13744 C 1352.9 1.58842 -0.485633 0
M  V30 13745 O 1354.09 1.77068 -0.710742 0
M  V30 13746 C 1351.23 3.00218 -1.70186 0
M  V30 13747 C 1350.34 3.13513 -2.97209 0
M  V30 13748 C 1349.47 4.42366 -2.94084 0
M  V30 13749 C 1348.51 4.49238 -4.15754 0
M  V30 13750 N 1347.65 5.69497 -4.10631 0
M  V30 13751 H 1352.49 1.48093 -2.58597 0
M  V30 13752 H 1350.03 0.720788 -1.2823 0
M  V30 13753 H 1351.98 3.80307 -1.71529 0
M  V30 13754 H 1350.61 3.12868 -0.794578 0
M  V30 13755 H 1349.67 2.26589 -3.05551 0
M  V30 13756 H 1350.98 3.14451 -3.87197 0
M  V30 13757 H 1350.13 5.3076 -2.93902 0
M  V30 13758 H 1348.87 4.43969 -2.01847 0
M  V30 13759 H 1347.88 3.59248 -4.16198 0
M  V30 13760 H 1349.1 4.49363 -5.09166 0
M  V30 13761 H 1347.05 5.71973 -3.21222 0
M  V30 13762 H 1346.96 5.71985 -4.94337 0
M  V30 13763 H 1348.23 6.60142 -4.14527 0
M  V30 13764 N 1352.46 1.37696 0.766659 0
M  V30 13765 C 1353.42 1.33688 1.86172 0
M  V30 13766 C 1354.42 0.239922 1.59 0
M  V30 13767 O 1355.61 0.496066 1.66988 0
M  V30 13768 C 1352.75 1.07807 3.23405 0
M  V30 13769 H 1353.94 2.311 1.91136 0
M  V30 13770 H 1351.49 1.22799 0.966961 0
M  V30 13771 H 1352.23 0.109477 3.24115 0
M  V30 13772 H 1352.01 1.87213 3.4452 0
M  V30 13773 H 1353.5 1.07665 4.03482 0
M  V30 13774 N 1353.94 -0.993397 1.22349 0
M  V30 13775 C 1354.89 -2.0834 0.993123 0
M  V30 13776 C 1355.86 -1.65883 -0.0849717 0
M  V30 13777 O 1357.04 -1.90691 0.0645176 0
M  V30 13778 C 1354.18 -3.40252 0.576434 0
M  V30 13779 C 1353.29 -3.96055 1.72524 0
M  V30 13780 C 1352.43 -5.16123 1.25659 0
M  V30 13781 C 1351.47 -5.64062 2.37698 0
M  V30 13782 N 1350.61 -6.7537 1.91883 0
M  V30 13783 H 1355.45 -2.27381 1.92619 0
M  V30 13784 H 1352.98 -1.11476 0.959763 0
M  V30 13785 H 1354.94 -4.16001 0.316021 0
M  V30 13786 H 1353.57 -3.21214 -0.319626 0
M  V30 13787 H 1352.62 -3.17182 2.1 0
M  V30 13788 H 1353.93 -4.27614 2.56802 0
M  V30 13789 H 1353.09 -5.9916 0.953528 0
M  V30 13790 H 1351.83 -4.86186 0.384011 0
M  V30 13791 H 1350.83 -4.79614 2.68794 0
M  V30 13792 H 1352.06 -5.96025 3.25471 0
M  V30 13793 H 1350 -6.47217 1.06986 0
M  V30 13794 H 1349.92 -7.06246 2.69727 0
M  V30 13795 H 1351.19 -7.61914 1.64644 0
M  V30 13796 N 1355.42 -1.03311 -1.19015 0
M  V30 13797 C 1356.35 -0.575655 -2.21853 0
M  V30 13798 C 1357.36 0.350705 -1.58978 0
M  V30 13799 O 1358.55 0.146425 -1.77898 0
M  V30 13800 C 1355.65 0.179949 -3.38422 0
M  V30 13801 C 1354.82 -0.752403 -4.3088 0
M  V30 13802 C 1353.88 -0.0414484 -5.26184 0
M  V30 13803 O 1352.91 -0.669403 -5.6525 0
M  V30 13804 N 1354.11 1.22783 -5.67366 0
M  V30 13805 H 1356.88 -1.46013 -2.61726 0
M  V30 13806 H 1354.44 -0.912655 -1.33724 0
M  V30 13807 H 1356.43 0.66522 -3.99195 0
M  V30 13808 H 1355 0.965879 -2.97304 0
M  V30 13809 H 1354.22 -1.41768 -3.67825 0
M  V30 13810 H 1355.51 -1.38592 -4.89561 0
M  V30 13811 H 1354.91 1.75867 -5.37668 0
M  V30 13812 H 1353.46 1.65752 -6.30372 0
M  V30 13813 N 1356.9 1.35099 -0.81154 0
M  V30 13814 C 1357.84 2.29717 -0.223372 0
M  V30 13815 C 1358.81 1.53049 0.645396 0
M  V30 13816 O 1360 1.81467 0.589436 0
M  V30 13817 C 1357.14 3.3952 0.618057 0
M  V30 13818 C 1356.25 4.31145 -0.271693 0
M  V30 13819 C 1355.39 5.28044 0.578214 0
M  V30 13820 C 1354.42 6.11306 -0.311628 0
M  V30 13821 N 1353.56 7.00328 0.498539 0
M  V30 13822 H 1358.4 2.79426 -1.03563 0
M  V30 13823 H 1355.94 1.37518 -0.522231 0
M  V30 13824 H 1357.9 4.01854 1.12111 0
M  V30 13825 H 1356.53 2.91075 1.39554 0
M  V30 13826 H 1355.58 3.69773 -0.892885 0
M  V30 13827 H 1356.89 4.89545 -0.956392 0
M  V30 13828 H 1356.04 5.95774 1.1462 0
M  V30 13829 H 1354.78 4.70152 1.29646 0
M  V30 13830 H 1353.79 5.42518 -0.891849 0
M  V30 13831 H 1355.01 6.71277 -1.02781 0
M  V30 13832 H 1352.96 6.44919 1.20067 0
M  V30 13833 H 1352.88 7.55892 -0.12801 0
M  V30 13834 H 1354.14 7.72401 1.04965 0
M  V30 13835 N 1358.37 0.56548 1.47106 0
M  V30 13836 C 1359.78 0.134289 1.86216 0
M  V30 13837 C 1360.14 -1.29815 1.47114 0
M  V30 13838 O 1359.26 -1.97787 0.878017 0
M  V30 13839 C 1359.86 0.236931 3.37971 0
M  V30 13840 C 1358.41 -0.139275 3.76142 0
M  V30 13841 C 1357.56 0.580743 2.71151 0
M  V30 13842 H 1360.51 0.774723 1.38505 0
M  V30 13843 H 1360.53 -0.542301 3.76616 0
M  V30 13844 H 1360.05 1.27958 3.66399 0
M  V30 13845 H 1358.15 -1.18272 3.53331 0
M  V30 13846 H 1358.26 0.225045 4.78571 0
M  V30 13847 H 1356.62 0.0228963 2.5469 0
M  V30 13848 H 1357.41 1.62471 3.0242 0
M  V30 13849 N 1359.85 -1.54672 0.302354 0
M  V30 13850 C 1361.27 -1.59519 -0.0509899 0
M  V30 13851 C 1361.47 -1.31931 -1.52304 0
M  V30 13852 O 1360.52 -1.09338 -2.27599 0
M  V30 13853 C 1361.84 -2.98678 0.348168 0
M  V30 13854 C 1363.39 -3.11587 0.297046 0
M  V30 13855 C 1363.86 -4.53057 0.671046 0
M  V30 13856 N 1365.35 -4.58983 0.623633 0
M  V30 13857 C 1366.09 -5.66522 0.885476 0
M  V30 13858 N 1365.58 -6.82092 1.21336 0
M  V30 13859 N 1367.38 -5.56198 0.812448 0
M  V30 13860 H 1359.53 -1.70865 1.2617 0
M  V30 13861 H 1361.79 -0.798099 0.511608 0
M  V30 13862 H 1361.5 -3.23794 1.37297 0
M  V30 13863 H 1361.37 -3.76025 -0.297505 0
M  V30 13864 H 1363.76 -2.86219 -0.718515 0
M  V30 13865 H 1363.84 -2.36392 0.977361 0
M  V30 13866 H 1363.48 -4.79155 1.68442 0
M  V30 13867 H 1363.41 -5.26591 -0.0313537 0
M  V30 13868 H 1365.9 -3.75972 0.381203 0
M  V30 13869 H 1366.22 -7.6003 1.39909 0
M  V30 13870 H 1364.56 -6.83641 1.25141 0
M  V30 13871 H 1367.75 -4.64787 0.555939 0
M  V30 13872 H 1367.92 -6.39924 1.01988 0
M  V30 13873 N 1361.33 -0.0301034 -1.57571 0
M  V30 13874 C 1362.75 0.326296 -1.56229 0
M  V30 13875 C 1362.95 1.72839 -1.03581 0
M  V30 13876 O 1362 2.43088 -0.682979 0
M  V30 13877 C 1363.32 0.174001 -3.00196 0
M  V30 13878 C 1364.86 0.246694 -3.12026 0
M  V30 13879 C 1365.34 0.123177 -4.57834 0
M  V30 13880 N 1366.83 0.180129 -4.6285 0
M  V30 13881 C 1367.56 0.108353 -5.73298 0
M  V30 13882 N 1367.06 -0.0145648 -6.92798 0
M  V30 13883 N 1368.85 0.162411 -5.61865 0
M  V30 13884 H 1361 -0.946945 -1.90123 0
M  V30 13885 H 1363.27 -0.365762 -0.874598 0
M  V30 13886 H 1362.97 -0.791871 -3.42669 0
M  V30 13887 H 1362.85 0.943794 -3.65202 0
M  V30 13888 H 1365.23 1.20303 -2.69465 0
M  V30 13889 H 1365.32 -0.553493 -2.4974 0
M  V30 13890 H 1364.96 -0.82974 -5.01077 0
M  V30 13891 H 1364.89 0.94224 -5.18102 0
M  V30 13892 H 1367.38 0.275236 -3.76896 0
M  V30 13893 H 1367.69 -0.062614 -7.72775 0
M  V30 13894 H 1366.04 -0.0493606 -6.94982 0
M  V30 13895 H 1369.23 0.256847 -4.67395 0
M  V30 13896 H 1369.4 0.103013 -6.47918 0
M  V30 13897 N 1362.81 1.55714 0.243056 0
M  V30 13898 C 1363.77 1.89832 1.28438 0
M  V30 13899 C 1364.77 0.775083 1.40887 0
M  V30 13900 O 1365.96 1.04304 1.39521 0
M  V30 13901 C 1363.09 2.13016 2.66153 0
M  V30 13902 H 1364.29 2.82947 0.994022 0
M  V30 13903 H 1361.84 1.48665 0.482521 0
M  V30 13904 H 1362.57 1.22381 3.00322 0
M  V30 13905 H 1362.36 2.94824 2.58498 0
M  V30 13906 H 1363.85 2.40581 3.41336 0
M  V30 13907 N 1364.29 -0.50888 1.49158 0
M  V30 13908 C 1365.53 -1.261 1.57934 0
M  V30 13909 C 1365.86 -1.93199 0.264405 0
M  V30 13910 O 1365.13 -1.82359 -0.715684 0
M  V30 13911 H 1363.71 -0.468421 0.581886 0
M  V30 13912 H 1366.37 -0.590447 1.85741 0
M  V30 13913 H 1365.46 -2.02913 2.37135 0
M  V30 13914 N 1365.76 -1.381 -0.759346 0
M  V30 13915 C 1366.99 -1.37213 -1.54855 0
M  V30 13916 C 1367.41 0.0395175 -1.88759 0
M  V30 13917 O 1366.76 1.00462 -1.5236 0
M  V30 13918 C 1366.82 -2.22232 -2.85123 0
M  V30 13919 O 1366.54 -3.57897 -2.52668 0
M  V30 13920 C 1368.04 -2.29461 -3.79292 0
M  V30 13921 H 1365.26 -0.469542 -0.479345 0
M  V30 13922 H 1367.8 -1.81604 -0.940216 0
M  V30 13923 H 1365.96 -1.81317 -3.42349 0
M  V30 13924 H 1366.37 -4.02599 -3.36176 0
M  V30 13925 H 1367.84 -2.93246 -4.67665 0
M  V30 13926 H 1368.32 -1.3066 -4.19315 0
M  V30 13927 H 1368.93 -2.70741 -3.27993 0
M  V30 13928 N 1367.24 0.986894 -1.22875 0
M  V30 13929 C 1368.47 1.76266 -1.08342 0
M  V30 13930 C 1368.89 1.85226 0.365602 0
M  V30 13931 O 1368.24 1.32675 1.25314 0
M  V30 13932 C 1368.29 3.19282 -1.69533 0
M  V30 13933 O 1368.01 3.10796 -3.08768 0
M  V30 13934 C 1369.52 4.13281 -1.60355 0
M  V30 13935 H 1366.74 0.553374 -0.379497 0
M  V30 13936 H 1369.28 1.24033 -1.62592 0
M  V30 13937 H 1367.43 3.68563 -1.19332 0
M  V30 13938 H 1367.85 4.0078 -3.38343 0
M  V30 13939 H 1369.32 5.11359 -2.07884 0
M  V30 13940 H 1369.8 4.356 -0.561182 0
M  V30 13941 H 1370.41 3.699 -2.09891 0
M  V30 13942 N 1368.72 1.0394 1.18466 0
M  V30 13943 C 1370.14 0.758404 1.40429 0
M  V30 13944 C 1370.34 -0.652603 1.90639 0
M  V30 13945 O 1369.39 -1.417 2.08991 0
M  V30 13946 C 1370.71 1.80343 2.40618 0
M  V30 13947 C 1372.25 1.82419 2.54347 0
M  V30 13948 C 1372.73 2.8591 3.57798 0
M  V30 13949 N 1374.22 2.84793 3.65304 0
M  V30 13950 C 1374.95 3.61521 4.45073 0
M  V30 13951 N 1374.45 4.47997 5.28461 0
M  V30 13952 N 1376.24 3.50016 4.39824 0
M  V30 13953 H 1368.39 1.94998 0.842 0
M  V30 13954 H 1370.66 0.843649 0.43239 0
M  V30 13955 H 1370.36 2.81547 2.10771 0
M  V30 13956 H 1370.24 1.63451 3.39947 0
M  V30 13957 H 1372.62 0.818872 2.83511 0
M  V30 13958 H 1372.71 2.03388 1.55136 0
M  V30 13959 H 1372.35 3.8662 3.29375 0
M  V30 13960 H 1372.28 2.62196 4.56684 0
M  V30 13961 H 1374.77 2.22082 3.05758 0
M  V30 13962 H 1375.08 5.03257 5.86475 0
M  V30 13963 H 1373.43 4.52065 5.27885 0
M  V30 13964 H 1376.62 2.81862 3.73726 0
M  V30 13965 H 1376.79 4.10063 5.0175 0
M  V30 13966 N 1370.2 -1.34667 0.818693 0
M  V30 13967 C 1371.48 -1.92838 0.327521 0
M  V30 13968 C 1371.86 -1.74732 -1.18457 0
M  V30 13969 O 1371.2 -1.12352 -1.98971 0
M  V30 13970 C 1371.41 -3.40797 0.752207 0
M  V30 13971 C 1372.76 -4.17948 0.748613 0
M  V30 13972 O 1373.79 -3.49364 0.694517 0
M  V30 13973 O 1372.64 -5.40344 0.817958 0
M  V30 13974 H 1369.74 -0.822249 0.0885148 0
M  V30 13975 H 1372.28 -1.43668 0.9032 0
M  V30 13976 H 1371.06 -3.47759 1.79387 0
M  V30 13977 H 1370.68 -3.97309 0.151992 0
M  V30 13978 N 1371.68 -0.573274 -1.46804 0
M  V30 13979 C 1372.64 0.155066 -2.28675 0
M  V30 13980 C 1373.64 0.827706 -1.37861 0
M  V30 13981 O 1374.83 0.681105 -1.60333 0
M  V30 13982 C 1371.96 1.22864 -3.1799 0
M  V30 13983 H 1373.15 -0.564305 -2.94543 0
M  V30 13984 H 1370.71 -0.330855 -1.52758 0
M  V30 13985 H 1371.44 1.97989 -2.56848 0
M  V30 13986 H 1371.23 0.750936 -3.84842 0
M  V30 13987 H 1372.72 1.73974 -3.79635 0
M  V30 13988 N 1373.15 1.5451 -0.310553 0
M  V30 13989 C 1374.57 1.59543 0.0425296 0
M  V30 13990 C 1374.77 1.32737 1.51602 0
M  V30 13991 O 1373.83 1.10543 2.27016 0
M  V30 13992 C 1375.14 2.98489 -0.364002 0
M  V30 13993 C 1376.69 3.11425 -0.313566 0
M  V30 13994 C 1377.16 4.52695 -0.695064 0
M  V30 13995 N 1378.65 4.58645 -0.647966 0
M  V30 13996 C 1379.39 5.66044 -0.915508 0
M  V30 13997 N 1378.88 6.81439 -1.24951 0
M  V30 13998 N 1380.68 5.55759 -0.841933 0
M  V30 13999 H 1372.83 1.70194 -1.27074 0
M  V30 14000 H 1375.09 0.795374 -0.515833 0
M  V30 14001 H 1374.8 3.23061 -1.39012 0
M  V30 14002 H 1374.67 3.76177 0.27756 0
M  V30 14003 H 1377.06 2.86596 0.703326 0
M  V30 14004 H 1377.14 2.35871 -0.989883 0
M  V30 14005 H 1376.78 4.78255 -1.70981 0
M  V30 14006 H 1376.71 5.266 0.00342684 0
M  V30 14007 H 1379.2 3.75765 -0.401137 0
M  V30 14008 H 1379.52 7.59277 -1.43938 0
M  V30 14009 H 1377.86 6.82968 -1.28764 0
M  V30 14010 H 1381.05 4.64486 -0.58058 0
M  V30 14011 H 1381.23 6.39374 -1.0538 0
M  V30 14012 N 1374.63 0.0384594 1.57553 0
M  V30 14013 C 1375.6 -0.925358 2.0969 0
M  V30 14014 C 1376.6 -1.24811 1.01385 0
M  V30 14015 O 1377.79 -1.1869 1.27508 0
M  V30 14016 C 1374.92 -2.2391 2.57055 0
M  V30 14017 H 1376.11 -0.473633 2.96136 0
M  V30 14018 H 1373.66 -0.209736 1.54886 0
M  V30 14019 H 1374.4 -2.73691 1.73964 0
M  V30 14020 H 1374.18 -2.01793 3.36188 0
M  V30 14021 H 1375.67 -2.92974 2.97583 0
M  V30 14022 N 1376.11 -1.55841 -0.234795 0
M  V30 14023 C 1377.39 -1.69008 -0.984665 0
M  V30 14024 C 1377.77 -0.581882 -2.02922 0
M  V30 14025 O 1377.12 0.412998 -2.24737 0
M  V30 14026 C 1377.33 -3.09796 -1.60708 0
M  V30 14027 C 1378.67 -3.68784 -2.10436 0
M  V30 14028 O 1379.7 -3.12674 -1.70627 0
M  V30 14029 O 1378.56 -4.67175 -2.83567 0
M  V30 14030 H 1375.65 -0.68786 -0.459105 0
M  V30 14031 H 1378.2 -1.68166 -0.227623 0
M  V30 14032 H 1376.97 -3.81908 -0.852169 0
M  V30 14033 H 1376.59 -3.147 -2.43001 0
M  V30 14034 N 1377.59 0.500963 -1.49426 0
M  V30 14035 C 1378.55 1.58478 -1.65582 0
M  V30 14036 C 1379.55 1.51897 -0.52762 0
M  V30 14037 O 1380.74 1.55049 -0.794071 0
M  V30 14038 C 1377.87 2.9813 -1.65322 0
M  V30 14039 H 1379.07 1.45483 -2.6225 0
M  V30 14040 H 1376.62 0.725199 -1.38458 0
M  V30 14041 H 1377.36 3.16602 -0.702384 0
M  V30 14042 H 1377.14 3.04315 -2.47255 0
M  V30 14043 H 1378.63 3.76874 -1.79878 0
M  V30 14044 N 1379.07 1.38501 0.752011 0
M  V30 14045 C 1380.03 1.35655 1.84744 0
M  V30 14046 C 1381.03 0.256772 1.58737 0
M  V30 14047 O 1382.22 0.513749 1.66452 0
M  V30 14048 C 1379.35 1.11231 3.22243 0
M  V30 14049 H 1380.55 2.33114 1.88674 0
M  V30 14050 H 1378.1 1.23818 0.953882 0
M  V30 14051 H 1378.83 0.143848 3.23981 0
M  V30 14052 H 1378.62 1.90857 3.42515 0
M  V30 14053 H 1380.11 1.11939 4.02318 0
M  V30 14054 N 1380.55 -0.980364 1.23396 0
M  V30 14055 C 1381.96 -1.53622 1.061 0
M  V30 14056 C 1382.31 -1.92648 -0.371645 0
M  V30 14057 O 1381.43 -1.76051 -1.25837 0
M  V30 14058 C 1382.03 -2.79159 1.91979 0
M  V30 14059 C 1380.59 -3.31144 1.78943 0
M  V30 14060 C 1379.73 -2.04135 1.87681 0
M  V30 14061 H 1382.68 -0.800047 1.37058 0
M  V30 14062 H 1382.71 -3.52011 1.4446 0
M  V30 14063 H 1382.22 -2.50723 2.96242 0
M  V30 14064 H 1380.32 -3.64459 0.774634 0
M  V30 14065 H 1380.43 -4.009 2.62329 0
M  V30 14066 H 1378.8 -2.18271 1.31262 0
M  V30 14067 H 1379.58 -1.78081 2.93499 0
M  V30 14068 N 1382.02 -1.04567 -1.17913 0
M  V30 14069 C 1382.99 -0.645476 -2.19923 0
M  V30 14070 C 1383.99 0.299763 -1.57981 0
M  V30 14071 O 1385.18 0.0844825 -1.73995 0
M  V30 14072 C 1382.31 0.0528935 -3.40859 0
M  V30 14073 H 1383.5 -1.54828 -2.56843 0
M  V30 14074 H 1381.05 -0.838812 -1.31885 0
M  V30 14075 H 1381.79 0.969261 -3.09477 0
M  V30 14076 H 1381.57 -0.626558 -3.87062 0
M  V30 14077 H 1383.06 0.319221 -4.16378 0
M  V30 14078 N 1383.5 1.34231 -0.825823 0
M  V30 14079 C 1384.91 1.8059 -0.473724 0
M  V30 14080 C 1385.26 1.68438 1.00614 0
M  V30 14081 O 1384.39 1.22606 1.78317 0
M  V30 14082 C 1384.98 3.27884 -0.853099 0
M  V30 14083 C 1383.54 3.72311 -0.553327 0
M  V30 14084 C 1382.69 2.55889 -1.06845 0
M  V30 14085 H 1385.64 1.21937 -1.01573 0
M  V30 14086 H 1385.66 3.80172 -0.158014 0
M  V30 14087 H 1385.17 3.36696 -1.93021 0
M  V30 14088 H 1383.27 3.69034 0.514256 0
M  V30 14089 H 1383.39 4.66315 -1.09942 0
M  V30 14090 H 1381.75 2.49945 -0.489874 0
M  V30 14091 H 1382.53 2.67471 -2.15207 0
M  V30 14092 N 1384.98 0.581051 1.46498 0
M  V30 14093 C 1385.89 -0.155669 2.34083 0
M  V30 14094 C 1386.91 -0.887728 1.49651 0
M  V30 14095 O 1388.08 -0.851284 1.82524 0
M  V30 14096 C 1385.15 -1.15752 3.26806 0
M  V30 14097 C 1384.21 -0.43031 4.27138 0
M  V30 14098 C 1383.44 -1.38443 5.15431 0
M  V30 14099 O 1383.66 -2.62084 5.06624 0
M  V30 14100 O 1382.6 -0.89592 5.95195 0
M  V30 14101 H 1386.42 0.56341 2.98428 0
M  V30 14102 H 1384.01 0.341466 1.45445 0
M  V30 14103 H 1385.89 -1.73523 3.84015 0
M  V30 14104 H 1384.57 -1.85809 2.65059 0
M  V30 14105 H 1383.47 0.1892 3.73621 0
M  V30 14106 H 1384.81 0.229263 4.91666 0
M  V30 14107 N 1386.46 -1.54343 0.318742 0
M  V30 14108 C 1387.68 -2.05361 -0.290126 0
M  V30 14109 C 1388.11 -1.19362 -1.45376 0
M  V30 14110 O 1387.47 -0.201639 -1.80175 0
M  V30 14111 C 1387.51 -3.53601 -0.707025 0
M  V30 14112 O 1386.62 -3.70561 -1.80992 0
M  V30 14113 H 1385.96 -0.661858 -0.0532933 0
M  V30 14114 H 1388.49 -1.99228 0.46575 0
M  V30 14115 H 1388.5 -3.95782 -0.991005 0
M  V30 14116 H 1387.17 -4.1565 0.144091 0
M  V30 14117 H 1385.75 -3.40286 -1.52513 0
M  V30 14118 N 1387.94 -0.0468143 -1.5753 0
M  V30 14119 C 1389.21 0.667567 -1.83856 0
M  V30 14120 C 1389.59 1.89297 -0.934346 0
M  V30 14121 O 1388.94 2.28499 0.00570067 0
M  V30 14122 C 1389.15 1.029 -3.33485 0
M  V30 14123 C 1390.5 1.41315 -4.00394 0
M  V30 14124 O 1391.52 1.12147 -3.38085 0
M  V30 14125 O 1390.38 1.95732 -5.10246 0
M  V30 14126 H 1387.48 0.329112 -0.758692 0
M  V30 14127 H 1390.02 -0.0758456 -1.6953 0
M  V30 14128 H 1388.79 0.157617 -3.90982 0
M  V30 14129 H 1388.42 1.83 -3.52982 0
M  V30 14130 N 1389.41 1.55964 0.226527 0
M  V30 14131 C 1390.83 1.68978 0.793936 0
M  V30 14132 C 1391.18 0.647938 1.85192 0
M  V30 14133 O 1390.3 -0.201907 2.15456 0
M  V30 14134 C 1390.9 3.06351 1.44687 0
M  V30 14135 C 1389.46 3.21237 1.96173 0
M  V30 14136 C 1388.6 2.64896 0.8201 0
M  V30 14137 H 1391.55 1.587 0.00195967 0
M  V30 14138 H 1391.57 3.01932 2.31554 0
M  V30 14139 H 1391.09 3.82156 0.676611 0
M  V30 14140 H 1389.19 2.50292 2.76016 0
M  V30 14141 H 1389.3 4.28394 2.14512 0
M  V30 14142 H 1387.66 2.23247 1.22609 0
M  V30 14143 H 1388.45 3.43243 0.0625967 0
M  V30 14144 N 1390.89 -0.493031 1.4969 0
M  V30 14145 C 1392.31 -0.824908 1.36629 0
M  V30 14146 C 1392.51 -1.97378 0.405487 0
M  V30 14147 O 1391.56 -2.51993 -0.159933 0
M  V30 14148 C 1392.88 -1.15761 2.77524 0
M  V30 14149 C 1394.43 -1.26536 2.86282 0
M  V30 14150 C 1394.9 -1.63131 4.27963 0
M  V30 14151 N 1396.39 -1.70165 4.30811 0
M  V30 14152 C 1397.13 -1.99942 5.37411 0
M  V30 14153 N 1396.62 -2.27888 6.54247 0
M  V30 14154 N 1398.42 -2.0126 5.24834 0
M  V30 14155 H 1390.57 0.264433 2.10748 0
M  V30 14156 H 1392.83 0.0557306 0.94636 0
M  V30 14157 H 1392.54 -0.386714 3.49567 0
M  V30 14158 H 1392.41 -2.09915 3.13393 0
M  V30 14159 H 1394.8 -2.02696 2.14472 0
M  V30 14160 H 1394.88 -0.304137 2.53986 0
M  V30 14161 H 1394.52 -0.875184 5.00303 0
M  V30 14162 H 1394.45 -2.60367 4.5773 0
M  V30 14163 H 1396.94 -1.50696 3.46553 0
M  V30 14164 H 1397.26 -2.4982 7.31307 0
M  V30 14165 H 1395.6 -2.25327 6.57459 0
M  V30 14166 H 1398.79 -1.78909 4.32561 0
M  V30 14167 H 1398.96 -2.24131 6.08004 0
M  V30 14168 O 1392.41 -1.48347 -0.638391 0
M  V30 14169 H 1393.1 -1.44291 -1.29228 0
M  V30 END ATOM
M  V30 BEGIN BOND
M  V30 END BOND
M  V30 END CTAB
M  END
$$$$
