drugbank_target|P52961 GPI-linked NAD(P)(+)--arginine ADP-ribosyltransferase 1 (DB01854)
 OpenBabel12092119433D

  0  0  0     0  0            999 V3000
M  V30 BEGIN CTAB
M  V30 COUNTS 5083 5160 0 0 0
M  V30 BEGIN ATOM
M  V30 1 H -0.908 1.98254 -0.117106 0
M  V30 2 N 0 1.576 0 0
M  V30 3 C 0.933 2.03868 1.02534 0
M  V30 4 C 1.911 0.928543 1.3348 0
M  V30 5 O 3.095 1.19667 1.45644 0
M  V30 6 C 0.222 2.43627 2.35294 0
M  V30 7 C -0.732 3.65373 2.2001 0
M  V30 8 S 0.101 5.13292 1.52614 0
M  V30 9 C 1.257 5.56322 2.86805 0
M  V30 10 H 1.49 2.90518 0.631377 0
M  V30 11 H -0.977 1.52953 0.210867 0
M  V30 12 H 0.981 2.67203 3.11629 0
M  V30 13 H -0.358 1.57376 2.7183 0
M  V30 14 H -1.165 3.90944 3.18086 0
M  V30 15 H -1.563 3.418 1.51819 0
M  V30 16 H 0.729 5.58782 3.83104 0
M  V30 17 H 1.672 6.56266 2.65933 0
M  V30 18 H 2.08 4.83886 2.90714 0
M  V30 19 N 1.4781 -0.272755 1.55222 0
M  V30 20 C 2.4101 -1.35946 1.8453 0
M  V30 21 C 3.4231 -1.45525 0.729818 0
M  V30 22 O 4.6121 -1.47337 1.00767 0
M  V30 23 C 1.7121 -2.74069 1.99347 0
M  V30 24 C 0.8851 -2.87079 3.30007 0
M  V30 25 C -0.0559 -4.05879 3.34886 0
M  V30 26 O -1.0299 -3.96626 4.08261 0
M  V30 27 N 0.1721 -5.17857 2.62307 0
M  V30 28 H 2.9371 -1.11149 2.78327 0
M  V30 29 H 0.4981 -0.462869 1.55142 0
M  V30 30 H 2.4901 -3.51838 1.99981 0
M  V30 31 H 1.0601 -2.91688 1.12415 0
M  V30 32 H 0.2801 -1.96193 3.41909 0
M  V30 33 H 1.5681 -2.92701 4.16177 0
M  V30 34 H 0.9661 -5.28261 2.02377 0
M  V30 35 H -0.4769 -5.93855 2.68663 0
M  V30 36 N 2.9562 -1.48159 -0.537278 0
M  V30 37 C 3.8892 -1.567 -1.65893 0
M  V30 38 C 4.8672 -0.41787 -1.57139 0
M  V30 39 O 6.0512 -0.628461 -1.77715 0
M  V30 40 C 3.1782 -1.48818 -3.04255 0
M  V30 41 C 2.2242 -2.68482 -3.31391 0
M  V30 42 S 3.0572 -4.30516 -3.1846 0
M  V30 43 C 4.2132 -4.2522 -4.59281 0
M  V30 44 H 4.4462 -2.5159 -1.58397 0
M  V30 45 H 1.9792 -1.36602 -0.719672 0
M  V30 46 H 3.9372 -1.44958 -3.84054 0
M  V30 47 H 2.5982 -0.552777 -3.09198 0
M  V30 48 H 1.7912 -2.59085 -4.32309 0
M  V30 49 H 1.3932 -2.69567 -2.59248 0
M  V30 50 H 3.6852 -3.94703 -5.5065 0
M  V30 51 H 4.6282 -5.26292 -4.73732 0
M  V30 52 H 5.0362 -3.55791 -4.38261 0
M  V30 53 N 4.4343 0.785586 -1.36625 0
M  V30 54 C 5.8453 1.36101 -1.27803 0
M  V30 55 C 6.1963 1.96035 0.0804875 0
M  V30 56 O 5.3213 1.92834 0.982042 0
M  V30 57 C 5.9163 2.47442 -2.31426 0
M  V30 58 C 4.4753 3.00789 -2.26281 0
M  V30 59 C 3.6223 1.73896 -2.15999 0
M  V30 60 H 6.5733 0.586928 -1.47448 0
M  V30 61 H 6.5943 3.2656 -1.95291 0
M  V30 62 H 6.1063 2.03791 -3.30289 0
M  V30 63 H 4.2073 3.48851 -1.30896 0
M  V30 64 H 4.3203 3.57343 -3.19128 0
M  V30 65 H 2.6843 1.9628 -1.62316 0
M  V30 66 H 3.4673 1.32368 -3.16755 0
M  V30 67 N 5.9124 1.20967 1.01018 0
M  V30 68 C 6.8754 0.965918 2.07853 0
M  V30 69 C 7.8754 -0.0610545 1.60684 0
M  V30 70 O 9.0654 0.175681 1.73312 0
M  V30 71 C 6.1974 0.455513 3.37843 0
M  V30 72 H 7.3904 1.91365 2.3091 0
M  V30 73 H 4.9434 1.02594 1.17916 0
M  V30 74 H 5.6784 -0.497381 3.20463 0
M  V30 75 H 5.4634 1.19622 3.73407 0
M  V30 76 H 6.9534 0.304667 4.16487 0
M  V30 77 N 7.3905 -1.2043 1.01659 0
M  V30 78 C 8.3235 -2.21924 0.531521 0
M  V30 79 C 9.3015 -1.57054 -0.421032 0
M  V30 80 O 10.4855 -1.85389 -0.341035 0
M  V30 81 C 7.6125 -3.37942 -0.226496 0
M  V30 82 C 6.6585 -4.21115 0.67561 0
M  V30 83 S 7.4915 -4.90674 2.14475 0
M  V30 84 C 8.6475 -6.10113 1.3969 0
M  V30 85 H 8.8805 -2.62725 1.3915 0
M  V30 86 H 6.4135 -1.30481 0.825479 0
M  V30 87 H 8.3715 -4.05196 -0.657738 0
M  V30 88 H 7.0325 -2.956 -1.06205 0
M  V30 89 H 6.2255 -5.03918 0.091108 0
M  V30 90 H 5.8275 -3.59115 1.04463 0
M  V30 91 H 8.1195 -6.7411 0.676897 0
M  V30 92 H 9.0625 -6.73022 2.20107 0
M  V30 93 H 9.4705 -5.57283 0.899786 0
M  V30 94 N 8.8686 -0.792821 -1.36206 0
M  V30 95 C 9.8016 -0.139422 -2.27774 0
M  V30 96 C 10.7796 0.68649 -1.47398 0
M  V30 97 O 11.9636 0.656738 -1.7669 0
M  V30 98 C 9.0906 0.807947 -3.28922 0
M  V30 99 C 8.1366 0.0633999 -4.26453 0
M  V30 100 S 8.9696 -1.26319 -5.20388 0
M  V30 101 C 10.1256 -0.31991 -6.25082 0
M  V30 102 H 10.3586 -0.915809 -2.82843 0
M  V30 103 H 7.8916 -0.587203 -1.42798 0
M  V30 104 H 9.8496 1.34908 -3.87699 0
M  V30 105 H 8.5106 1.55761 -2.72759 0
M  V30 106 H 7.7036 0.782386 -4.9789 0
M  V30 107 H 7.3056 -0.407352 -3.71775 0
M  V30 108 H 9.5976 0.499985 -6.75653 0
M  V30 109 H 10.5406 -1.00307 -7.00959 0
M  V30 110 H 10.9486 0.0782694 -5.64446 0
M  V30 111 N 10.3467 1.47872 -0.545128 0
M  V30 112 C 11.5717 2.07391 -0.0190611 0
M  V30 113 C 11.9967 1.39688 1.25971 0
M  V30 114 O 11.3547 0.467816 1.7516 0
M  V30 115 C 11.4027 3.60188 0.172335 0
M  V30 116 O 10.5067 3.9339 1.23766 0
M  V30 117 H 9.8477 0.662411 -0.0459059 0
M  V30 118 H 12.3777 1.90066 -0.757365 0
M  V30 119 H 12.3877 4.06129 0.390305 0
M  V30 120 H 11.0627 4.08865 -0.761725 0
M  V30 121 H 9.6397 3.5921 1.00114 0
M  V30 122 N 11.8248 0.280983 1.55075 0
M  V30 123 C 12.7548 -0.597469 2.25727 0
M  V30 124 C 13.7358 -1.15417 1.24952 0
M  V30 125 O 14.9208 -1.18722 1.53684 0
M  V30 126 C 12.0508 -1.7789 2.98283 0
M  V30 127 C 11.0048 -1.35347 4.06036 0
M  V30 128 C 10.3308 -2.61846 4.66198 0
M  V30 129 C 11.6308 -0.499354 5.19907 0
M  V30 130 H 13.3248 -0.00824265 2.99399 0
M  V30 131 H 10.8708 -0.0025244 1.44 0
M  V30 132 H 12.8238 -2.39937 3.46422 0
M  V30 133 H 11.5478 -2.39405 2.22155 0
M  V30 134 H 10.2068 -0.756156 3.58717 0
M  V30 135 H 9.8548 -3.21632 3.86732 0
M  V30 136 H 9.5548 -2.3409 5.38958 0
M  V30 137 H 11.0788 -3.24732 5.1709 0
M  V30 138 H 12.4928 -1.02498 5.64063 0
M  V30 139 H 10.8898 -0.316424 5.99265 0
M  V30 140 H 11.9598 0.480459 4.82514 0
M  V30 141 N 13.3029 -1.57598 0.00835791 0
M  V30 142 C 14.2329 -2.1198 -0.979113 0
M  V30 143 C 15.2139 -1.03091 -1.35301 0
M  V30 144 O 16.3989 -1.30818 -1.43528 0
M  V30 145 C 13.5289 -2.62995 -2.26828 0
M  V30 146 C 12.4829 -3.76485 -2.03576 0
M  V30 147 C 11.8089 -4.13846 -3.38579 0
M  V30 148 C 13.1089 -5.0342 -1.39161 0
M  V30 149 H 14.8029 -2.94738 -0.526281 0
M  V30 150 H 12.3489 -1.41783 -0.251704 0
M  V30 151 H 14.3019 -2.99669 -2.96271 0
M  V30 152 H 13.0259 -1.7737 -2.7424 0
M  V30 153 H 11.6849 -3.40217 -1.36557 0
M  V30 154 H 11.3329 -3.25232 -3.83709 0
M  V30 155 H 11.0329 -4.90312 -3.23834 0
M  V30 156 H 12.5569 -4.53086 -4.09323 0
M  V30 157 H 13.9709 -5.37812 -1.98573 0
M  V30 158 H 12.3679 -5.84746 -1.34878 0
M  V30 159 H 13.4379 -4.83548 -0.361868 0
M  V30 160 N 14.781 0.264519 -1.55364 0
M  V30 161 C 15.711 1.33121 -1.91836 0
M  V30 162 C 16.692 1.51101 -0.781192 0
M  V30 163 O 17.877 1.64003 -1.04003 0
M  V30 164 C 15.007 2.68921 -2.19769 0
M  V30 165 C 13.961 2.65661 -3.35571 0
M  V30 166 C 13.287 4.05093 -3.49004 0
M  V30 167 C 14.587 2.24187 -4.71739 0
M  V30 168 H 16.281 1.02844 -2.81182 0
M  V30 169 H 13.827 0.493286 -1.35287 0
M  V30 170 H 15.78 3.43663 -2.43872 0
M  V30 171 H 14.504 3.00799 -1.27231 0
M  V30 172 H 13.163 1.93377 -3.1145 0
M  V30 173 H 12.811 4.34206 -2.53917 0
M  V30 174 H 12.511 4.03804 -4.26868 0
M  V30 175 H 14.035 4.81561 -3.75408 0
M  V30 176 H 15.449 2.88654 -4.9533 0
M  V30 177 H 13.846 2.34044 -5.52579 0
M  V30 178 H 14.916 1.19327 -4.69988 0
M  V30 179 N 16.2591 1.48442 0.529413 0
M  V30 180 C 17.5051 1.5672 1.28711 0
M  V30 181 C 17.8381 0.2406 1.92704 0
M  V30 182 O 17.1131 -0.753454 1.79313 0
M  V30 183 C 17.3961 2.70587 2.37603 0
M  V30 184 C 17.2491 4.12953 1.78297 0
M  V30 185 C 18.5681 2.80212 3.39366 0
M  V30 186 H 15.6871 0.570474 0.466613 0
M  V30 187 H 18.3291 1.80617 0.589706 0
M  V30 188 H 16.4791 2.50342 2.97088 0
M  V30 189 H 18.1511 4.44639 1.22858 0
M  V30 190 H 16.3941 4.19927 1.0883 0
M  V30 191 H 17.0651 4.88448 2.57144 0
M  V30 192 H 19.5411 2.98553 2.89836 0
M  V30 193 H 18.4171 3.61611 4.12951 0
M  V30 194 H 18.6781 1.88393 3.99951 0
M  V30 195 N 17.7372 -0.778329 1.37039 0
M  V30 196 C 18.9622 -1.57248 1.35233 0
M  V30 197 C 19.3872 -1.87999 -0.0615568 0
M  V30 198 O 18.7452 -1.48734 -1.03672 0
M  V30 199 C 18.7932 -2.86353 2.19167 0
M  V30 200 O 17.8972 -3.80442 1.59178 0
M  V30 201 H 17.2382 -0.476569 0.462362 0
M  V30 202 H 19.7682 -0.963853 1.80474 0
M  V30 203 H 19.7782 -3.35519 2.32145 0
M  V30 204 H 18.4532 -2.63299 3.21942 0
M  V30 205 H 17.0302 -3.39067 1.55203 0
M  V30 206 N 19.2153 -1.21501 -1.00376 0
M  V30 207 C 20.4613 -1.03452 -1.74429 0
M  V30 208 C 20.7943 0.430764 -1.89362 0
M  V30 209 O 20.0693 1.31962 -1.42886 0
M  V30 210 C 20.3523 -1.73375 -3.15615 0
M  V30 211 C 20.2053 -3.27431 -3.08397 0
M  V30 212 C 21.5243 -1.47732 -4.14564 0
M  V30 213 H 18.6433 -0.377226 -0.633143 0
M  V30 214 H 21.2853 -1.49693 -1.17013 0
M  V30 215 H 19.4353 -1.34064 -3.64636 0
M  V30 216 H 21.1073 -3.76119 -2.67081 0
M  V30 217 H 19.3503 -3.5767 -2.45468 0
M  V30 218 H 20.0213 -3.71524 -4.08258 0
M  V30 219 H 22.4973 -1.8186 -3.74254 0
M  V30 220 H 21.3733 -1.99169 -5.11491 0
M  V30 221 H 21.6343 -0.407589 -4.40217 0
M  V30 222 N 20.6934 1.19889 -1.02296 0
M  V30 223 C 21.9414 1.89046 -0.714558 0
M  V30 224 C 22.2624 1.79636 0.758681 0
M  V30 225 O 21.5324 1.20292 1.54618 0
M  V30 226 H 20.1124 0.699802 -0.261317 0
M  V30 227 H 22.7744 1.45574 -1.29592 0
M  V30 228 H 21.8704 2.95524 -1.0036 0
M  V30 229 N 22.1715 0.800033 1.35784 0
M  V30 230 C 23.1015 0.220184 2.3246 0
M  V30 231 C 24.0825 -0.65073 1.57161 0
M  V30 232 O 25.2675 -0.582359 1.85263 0
M  V30 233 C 22.3975 -0.637353 3.41402 0
M  V30 234 C 21.3515 0.134531 4.27789 0
M  V30 235 C 20.6775 -0.844285 5.27992 0
M  V30 236 C 21.9775 1.32979 5.05088 0
M  V30 237 H 23.6715 1.02787 2.81203 0
M  V30 238 H 21.2175 0.495717 1.35199 0
M  V30 239 H 23.1705 -1.05302 4.08031 0
M  V30 240 H 21.8945 -1.47785 2.91251 0
M  V30 241 H 20.5535 0.531296 3.6273 0
M  V30 242 H 20.2015 -1.68011 4.74111 0
M  V30 243 H 19.9015 -0.332184 5.8666 0
M  V30 244 H 21.4255 -1.2583 5.97494 0
M  V30 245 H 22.8395 0.98934 5.64699 0
M  V30 246 H 21.2365 1.77593 5.7322 0
M  V30 247 H 22.3065 2.11978 4.36111 0
M  V30 248 N 23.6496 -1.47581 0.552962 0
M  V30 249 C 24.5826 -2.26883 -0.244857 0
M  V30 250 C 25.5606 -1.33784 -0.924147 0
M  V30 251 O 26.7446 -1.6316 -0.943981 0
M  V30 252 C 23.8716 -3.10695 -1.34856 0
M  V30 253 C 22.9176 -4.19339 -0.778268 0
M  V30 254 S 23.7506 -5.34207 0.37184 0
M  V30 255 C 24.9066 -6.21584 -0.733779 0
M  V30 256 H 25.1396 -2.94202 0.428087 0
M  V30 257 H 22.6726 -1.50628 0.339197 0
M  V30 258 H 24.6306 -3.59555 -1.98066 0
M  V30 259 H 23.2916 -2.42746 -1.99332 0
M  V30 260 H 22.4846 -4.77695 -1.60696 0
M  V30 261 H 22.0866 -3.73338 -0.222422 0
M  V30 262 H 24.3786 -6.57676 -1.62692 0
M  V30 263 H 25.3216 -7.07851 -0.187668 0
M  V30 264 H 25.7296 -5.55125 -1.02454 0
M  V30 265 N 25.1277 -0.289203 -1.54924 0
M  V30 266 C 26.0377 0.601863 -2.26748 0
M  V30 267 C 27.0537 1.15834 -1.2984 0
M  V30 268 O 28.2297 1.18564 -1.62802 0
M  V30 269 C 25.2947 1.76299 -2.98529 0
M  V30 270 C 24.3557 1.24178 -4.10948 0
M  V30 271 C 23.5887 2.34757 -4.79296 0
M  V30 272 O 23.8117 3.54411 -4.46933 0
M  V30 273 O 22.7457 2.02115 -5.66951 0
M  V30 274 H 26.5717 0.0195879 -3.03694 0
M  V30 275 H 24.1567 -0.0560868 -1.49295 0
M  V30 276 H 26.0387 2.43973 -3.43592 0
M  V30 277 H 24.7137 2.33209 -2.24488 0
M  V30 278 H 23.6207 0.531104 -3.70311 0
M  V30 279 H 24.9537 0.718252 -4.86931 0
M  V30 280 N 26.6058 1.57591 -0.0167156 0
M  V30 281 C 27.5688 2.08393 0.954204 0
M  V30 282 C 28.5688 0.996531 1.26198 0
M  V30 283 O 29.7588 1.25858 1.20438 0
M  V30 284 C 26.8908 2.5394 2.27436 0
M  V30 285 H 28.0838 2.95455 0.514451 0
M  V30 286 H 25.6368 1.54582 0.231089 0
M  V30 287 H 26.3718 1.70171 2.76066 0
M  V30 288 H 26.1568 3.33371 2.06412 0
M  V30 289 H 27.6468 2.93512 2.97053 0
M  V30 290 N 28.0839 -0.256276 1.55502 0
M  V30 291 C 29.0139 -1.32102 1.92539 0
M  V30 292 C 29.9949 -1.50684 0.789194 0
M  V30 293 O 31.1799 -1.63449 1.04872 0
M  V30 294 C 28.3099 -2.67752 2.21192 0
M  V30 295 C 27.2639 -2.63878 3.36975 0
M  V30 296 C 26.5899 -4.03236 3.51147 0
M  V30 297 C 27.8899 -2.21682 4.72921 0
M  V30 298 H 29.5839 -1.01351 2.81724 0
M  V30 299 H 27.1299 -0.486105 1.35547 0
M  V30 300 H 29.0829 -3.42365 2.45691 0
M  V30 301 H 27.8069 -3.0012 1.28824 0
M  V30 302 H 26.4659 -1.91722 3.12471 0
M  V30 303 H 26.1139 -4.32854 2.56216 0
M  V30 304 H 25.8139 -4.01535 4.29003 0
M  V30 305 H 27.3379 -4.79563 3.77957 0
M  V30 306 H 28.7519 -2.86023 4.96854 0
M  V30 307 H 27.1489 -2.3111 5.53812 0
M  V30 308 H 28.2189 -1.16833 4.70615 0
M  V30 309 N 29.562 -1.4872 -0.521534 0
M  V30 310 C 30.494 -1.59968 -1.64143 0
M  V30 311 C 31.507 -0.483463 -1.55456 0
M  V30 312 O 32.696 -0.75467 -1.61762 0
M  V30 313 C 29.796 -1.52127 -3.02838 0
M  V30 314 C 28.969 -2.78932 -3.36921 0
M  V30 315 C 28.028 -2.64428 -4.54933 0
M  V30 316 O 27.054 -3.38331 -4.57735 0
M  V30 317 N 28.256 -1.74606 -5.53618 0
M  V30 318 H 31.021 -2.56548 -1.54929 0
M  V30 319 H 28.582 -1.45551 -0.708988 0
M  V30 320 H 30.574 -1.40106 -3.79674 0
M  V30 321 H 29.144 -0.634868 -3.06085 0
M  V30 322 H 28.364 -3.05455 -2.4918 0
M  V30 323 H 29.652 -3.63041 -3.56481 0
M  V30 324 H 29.05 -1.13782 -5.54139 0
M  V30 325 H 27.607 -1.6852 -6.29638 0
M  V30 326 N 31.0401 0.771051 -1.3745 0
M  V30 327 C 32.0031 1.86598 -1.33093 0
M  V30 328 C 33.0031 1.59076 -0.234845 0
M  V30 329 O 34.1931 1.67145 -0.490732 0
M  V30 330 C 31.3251 3.23747 -1.06773 0
M  V30 331 H 32.5181 1.91873 -2.30488 0
M  V30 332 H 30.0711 0.970876 -1.2249 0
M  V30 333 H 30.8061 3.24148 -0.099129 0
M  V30 334 H 30.5911 3.45115 -1.86112 0
M  V30 335 H 32.0811 4.03824 -1.06377 0
M  V30 336 N 32.5182 1.22032 0.997298 0
M  V30 337 C 33.4502 0.944263 2.08845 0
M  V30 338 C 34.4632 -0.0754663 1.62625 0
M  V30 339 O 35.6522 0.157994 1.77799 0
M  V30 340 C 32.7522 0.397723 3.36558 0
M  V30 341 C 31.9252 1.47362 4.11829 0
M  V30 342 C 30.9842 0.934951 5.17827 0
M  V30 343 O 30.0102 1.62016 5.45655 0
M  V30 344 N 31.2122 -0.245895 5.79979 0
M  V30 345 H 33.9772 1.88363 2.33109 0
M  V30 346 H 31.5382 1.12661 1.16272 0
M  V30 347 H 33.5302 0.0227771 4.04694 0
M  V30 348 H 32.1002 -0.446646 3.09393 0
M  V30 349 H 31.3202 2.02208 3.38386 0
M  V30 350 H 32.6082 2.19764 4.58891 0
M  V30 351 H 32.0062 -0.819475 5.59733 0
M  V30 352 H 30.5632 -0.562272 6.4937 0
M  V30 353 N 33.9963 -1.19345 1.0293 0
M  V30 354 C 35.2213 -1.93538 0.745511 0
M  V30 355 C 35.6463 -1.75007 -0.689511 0
M  V30 356 O 35.0043 -1.05265 -1.47611 0
M  V30 357 C 35.0523 -3.43336 1.10239 0
M  V30 358 O 34.1563 -4.11806 0.221289 0
M  V30 359 H 33.4973 -0.604193 0.275404 0
M  V30 360 H 36.0273 -1.5141 1.37609 0
M  V30 361 H 36.0373 -3.94004 1.05947 0
M  V30 362 H 34.7123 -3.56146 2.14786 0
M  V30 363 H 33.2893 -3.715 0.322842 0
M  V30 364 N 35.4744 -0.807222 -1.35358 0
M  V30 365 C 36.4244 -0.190706 -2.27201 0
M  V30 366 C 37.4084 0.635838 -1.47804 0
M  V30 367 O 38.6004 0.492991 -1.69996 0
M  V30 368 C 35.7294 0.659337 -3.36909 0
M  V30 369 C 34.8154 -0.176971 -4.23731 0
M  V30 370 N 35.2064 -1.24029 -4.90357 0
M  V30 371 C 33.5044 0.0412953 -4.45981 0
M  V30 372 C 34.2054 -1.75092 -5.54723 0
M  V30 373 N 33.1814 -1.05727 -5.33219 0
M  V30 374 H 36.9834 -1.0043 -2.76208 0
M  V30 375 H 34.4974 -0.648445 -1.48892 0
M  V30 376 H 36.4944 1.11706 -4.01656 0
M  V30 377 H 35.1544 1.47127 -2.89454 0
M  V30 378 H 36.1654 -1.62295 -4.91814 0
M  V30 379 H 32.8424 0.82232 -4.09322 0
M  V30 380 H 34.2324 -2.63963 -6.17878 0
M  V30 381 N 36.9525 1.47285 -0.560781 0
M  V30 382 C 38.3635 1.86258 -0.128343 0
M  V30 383 C 38.7145 1.46699 1.30284 0
M  V30 384 O 37.8395 0.871698 1.98067 0
M  V30 385 C 38.4345 3.38044 -0.22614 0
M  V30 386 C 36.9935 3.76096 0.151283 0
M  V30 387 C 36.1405 2.71335 -0.572084 0
M  V30 388 H 39.0915 1.38752 -0.770297 0
M  V30 389 H 39.1125 3.76441 0.554322 0
M  V30 390 H 38.6245 3.66806 -1.26788 0
M  V30 391 H 36.7255 3.52951 1.19399 0
M  V30 392 H 36.8385 4.78641 -0.209765 0
M  V30 393 H 35.2025 2.54696 -0.0147653 0
M  V30 394 H 35.9855 3.02938 -1.61504 0
M  V30 395 N 38.4306 0.297415 1.54768 0
M  V30 396 C 39.6796 -0.313669 1.99246 0
M  V30 397 C 39.9926 -1.55281 1.18942 0
M  V30 398 O 41.1986 -2.23825 1.5367 0
M  V30 399 C 39.6546 -0.609407 3.54703 0
M  V30 400 C 39.2626 0.611192 4.43811 0
M  V30 401 C 41.0066 -1.18188 4.07715 0
M  V30 402 C 38.9136 0.288805 5.90694 0
M  V30 403 H 37.8436 -0.120979 0.744231 0
M  V30 404 H 40.4946 0.40556 1.78962 0
M  V30 405 H 38.8766 -1.38813 3.70873 0
M  V30 406 H 40.0506 1.3875 4.39414 0
M  V30 407 H 38.3656 1.10205 4.01552 0
M  V30 408 H 40.9626 -1.43727 5.15021 0
M  V30 409 H 41.3056 -2.12299 3.58099 0
M  V30 410 H 41.8386 -0.464944 3.95074 0
M  V30 411 H 38.5776 1.19838 6.44453 0
M  V30 412 H 38.0976 -0.450305 5.98107 0
M  V30 413 H 39.7766 -0.110933 6.46905 0
M  V30 414 N 39.9087 -1.5758 0.0250728 0
M  V30 415 C 41.1367 -1.9593 -0.664747 0
M  V30 416 C 41.5517 -0.901352 -1.65895 0
M  V30 417 O 40.9087 0.117255 -1.82123 0
M  V30 418 C 40.9597 -3.34342 -1.37468 0
M  V30 419 O 40.6807 -4.36079 -0.420324 0
M  V30 420 C 42.1817 -3.873 -2.1567 0
M  V30 421 H 39.4017 -0.645405 -0.183557 0
M  V30 422 H 41.9457 -2.04329 0.0836372 0
M  V30 423 H 40.1007 -3.27175 -2.0745 0
M  V30 424 H 40.5147 -5.16297 -0.923991 0
M  V30 425 H 41.9887 -4.86504 -2.60803 0
M  V30 426 H 42.4657 -3.21331 -2.99405 0
M  V30 427 H 43.0717 -3.97723 -1.50654 0
M  V30 428 N 41.3868 0.248026 -1.55636 0
M  V30 429 C 42.8028 0.596483 -1.48035 0
M  V30 430 C 43.0028 1.88386 -0.715039 0
M  V30 431 O 42.0588 2.51319 -0.243944 0
M  V30 432 C 43.3718 0.700258 -2.92433 0
M  V30 433 C 44.9198 0.792659 -3.02797 0
M  V30 434 C 45.3948 0.928005 -4.485 0
M  V30 435 N 46.8858 0.992903 -4.52433 0
M  V30 436 C 47.6208 1.11687 -5.62418 0
M  V30 437 N 47.1168 1.20645 -6.82214 0
M  V30 438 N 48.9098 1.14994 -5.50212 0
M  V30 439 H 41.0608 -0.597109 -2.03834 0
M  V30 440 H 43.3238 -0.205925 -0.925364 0
M  V30 441 H 43.0298 -0.175658 -3.51261 0
M  V30 442 H 42.9038 1.57255 -3.42857 0
M  V30 443 H 45.2908 1.65903 -2.4405 0
M  V30 444 H 45.3718 -0.104762 -2.55585 0
M  V30 445 H 45.0158 0.0661971 -5.07857 0
M  V30 446 H 44.9458 1.84045 -4.93391 0
M  V30 447 H 47.4368 0.935064 -3.66149 0
M  V30 448 H 47.7498 1.30008 -7.61786 0
M  V30 449 H 46.0948 1.17605 -6.84977 0
M  V30 450 H 49.2858 1.07643 -4.55555 0
M  V30 451 H 49.4588 1.24311 -6.35965 0
M  V30 452 N 42.8649 1.48995 0.513639 0
M  V30 453 C 44.2809 1.35478 0.843682 0
M  V30 454 C 44.4809 0.378213 1.97919 0
M  V30 455 O 43.5369 -0.194689 2.51748 0
M  V30 456 C 44.8499 2.75901 1.1958 0
M  V30 457 C 46.3979 2.84509 1.30474 0
M  V30 458 C 46.8729 4.25671 1.69021 0
M  V30 459 N 48.3639 4.28422 1.76094 0
M  V30 460 C 49.0989 5.34601 2.07338 0
M  V30 461 N 48.5949 6.5104 2.36894 0
M  V30 462 N 50.3879 5.22007 2.08483 0
M  V30 463 H 42.5389 2.11092 -0.235328 0
M  V30 464 H 44.8019 0.947039 -0.0426669 0
M  V30 465 H 44.5079 3.49001 0.434913 0
M  V30 466 H 44.3819 3.10467 2.1422 0
M  V30 467 H 46.7689 2.11655 2.05637 0
M  V30 468 H 46.8499 2.53542 0.339155 0
M  V30 469 H 46.4939 4.99048 0.944135 0
M  V30 470 H 46.4239 4.54094 2.66658 0
M  V30 471 H 48.9149 3.44441 1.55464 0
M  V30 472 H 49.2279 7.2779 2.59887 0
M  V30 473 H 47.5729 6.54287 2.34378 0
M  V30 474 H 50.7639 4.30051 1.84861 0
M  V30 475 H 50.9369 6.04854 2.325 0
M  V30 476 N 44.343 -0.763751 1.37857 0
M  V30 477 C 45.62 -1.51244 1.24035 0
M  V30 478 C 46 -2.10472 -0.162649 0
M  V30 479 O 45.348 -1.96206 -1.17112 0
M  V30 480 C 45.558 -2.58694 2.34261 0
M  V30 481 C 46.906 -3.25878 2.72193 0
M  V30 482 O 47.93 -2.68993 2.33497 0
M  V30 483 O 46.789 -4.2874 3.38887 0
M  V30 484 H 43.883 -0.670243 0.484462 0
M  V30 485 H 46.429 -0.800031 1.49658 0
M  V30 486 H 45.201 -2.13105 3.2818 0
M  V30 487 H 44.824 -3.37527 2.10146 0
M  V30 488 N 45.8211 -1.22559 -0.990812 0
M  V30 489 C 46.7511 -1.0218 -2.09956 0
M  V30 490 C 47.7321 0.0579394 -1.70001 0
M  V30 491 O 48.9171 -0.104684 -1.93918 0
M  V30 492 C 46.0471 -0.601023 -3.4206 0
M  V30 493 C 45.0011 -1.62694 -3.95872 0
M  V30 494 C 44.3271 -1.06193 -5.24049 0
M  V30 495 C 45.6271 -3.01743 -4.2632 0
M  V30 496 H 47.3211 -1.94916 -2.27262 0
M  V30 497 H 44.8671 -0.938566 -1.09211 0
M  V30 498 H 46.8201 -0.445561 -4.19038 0
M  V30 499 H 45.5441 0.362005 -3.24588 0
M  V30 500 H 44.2031 -1.77021 -3.21028 0
M  V30 501 H 43.8511 -0.0901903 -5.02919 0
M  V30 502 H 43.5511 -1.74732 -5.61019 0
M  V30 503 H 45.0751 -0.918092 -6.03658 0
M  V30 504 H 46.4891 -2.90777 -4.94087 0
M  V30 505 H 44.8861 -3.67425 -4.74467 0
M  V30 506 H 45.9561 -3.51518 -3.34011 0
M  V30 507 N 47.2992 1.18797 -1.03562 0
M  V30 508 C 48.5462 1.8865 -0.736023 0
M  V30 509 C 48.8742 1.80041 0.735889 0
M  V30 510 O 48.1292 1.19179 1.55225 0
M  V30 511 C 48.4282 3.38692 -1.14117 0
M  V30 512 C 48.0942 3.67504 -2.6125 0
M  V30 513 C 46.7562 3.75078 -3.01447 0
M  V30 514 C 49.1082 3.80293 -3.56408 0
M  V30 515 C 46.4362 3.92915 -4.35701 0
M  V30 516 C 48.7882 3.99645 -4.90374 0
M  V30 517 C 47.4522 4.05453 -5.30249 0
M  V30 518 H 46.7222 0.690321 -0.26933 0
M  V30 519 H 49.3692 1.40641 -1.29971 0
M  V30 520 H 47.6742 3.88645 -0.496202 0
M  V30 521 H 49.3712 3.91072 -0.886789 0
M  V30 522 H 45.9612 3.62223 -2.29113 0
M  V30 523 H 50.1452 3.73779 -3.26501 0
M  V30 524 H 45.4012 3.95653 -4.66121 0
M  V30 525 H 49.5752 4.08482 -5.64017 0
M  V30 526 H 47.2022 4.19027 -6.34288 0
M  V30 527 N 48.7773 0.814389 1.34928 0
M  V30 528 C 50.0023 0.410097 2.03305 0
M  V30 529 C 50.4273 -0.973464 1.60951 0
M  V30 530 O 49.7853 -1.63185 0.789964 0
M  V30 531 C 49.8333 0.51049 3.56968 0
M  V30 532 O 48.9373 -0.473035 4.09678 0
M  V30 533 H 48.2783 0.170088 0.641846 0
M  V30 534 H 50.8083 1.10244 1.72358 0
M  V30 535 H 50.8183 0.383135 4.06197 0
M  V30 536 H 49.4933 1.51963 3.87144 0
M  V30 537 H 48.0703 -0.305272 3.71648 0
M  V30 538 N 50.2554 -1.46986 0.568584 0
M  V30 539 C 51.1874 -2.28233 -0.210337 0
M  V30 540 C 52.2004 -1.37682 -0.868767 0
M  V30 541 O 53.3894 -1.62406 -0.740705 0
M  V30 542 C 50.4894 -3.12293 -1.3163 0
M  V30 543 C 49.6624 -4.30878 -0.7525 0
M  V30 544 C 48.7214 -4.96445 -1.74439 0
M  V30 545 O 47.7474 -5.54482 -1.286 0
M  V30 546 N 48.9494 -4.92171 -3.07812 0
M  V30 547 H 51.7144 -2.95723 0.486648 0
M  V30 548 H 49.2754 -1.56742 0.405409 0
M  V30 549 H 51.2674 -3.53022 -1.97883 0
M  V30 550 H 49.8374 -2.46971 -1.91636 0
M  V30 551 H 49.0574 -3.94104 0.0871128 0
M  V30 552 H 50.3454 -5.07558 -0.35536 0
M  V30 553 H 49.7434 -4.46239 -3.47688 0
M  V30 554 H 48.3004 -5.36884 -3.69592 0
M  V30 555 N 51.7335 -0.305618 -1.54608 0
M  V30 556 C 52.6435 0.57778 -2.27374 0
M  V30 557 C 53.6595 1.14451 -1.31061 0
M  V30 558 O 54.8355 1.16831 -1.6405 0
M  V30 559 C 51.9005 1.73123 -3.00382 0
M  V30 560 C 50.9615 1.19812 -4.12242 0
M  V30 561 C 50.1945 2.2966 -4.81759 0
M  V30 562 O 50.4175 3.49651 -4.50666 0
M  V30 563 O 49.3515 1.96091 -5.69062 0
M  V30 564 H 53.1775 -0.012624 -3.03697 0
M  V30 565 H 50.7625 -0.0719184 -1.49227 0
M  V30 566 H 52.6445 2.40315 -3.4616 0
M  V30 567 H 51.3195 2.30815 -2.26949 0
M  V30 568 H 50.2265 0.491798 -3.70853 0
M  V30 569 H 51.5595 0.666566 -4.87666 0
M  V30 570 N 53.2116 1.57565 -0.0334293 0
M  V30 571 C 54.4606 1.91155 0.643639 0
M  V30 572 C 54.7736 0.91192 1.73042 0
M  V30 573 O 55.9796 1.13923 2.46442 0
M  V30 574 C 54.4356 3.39443 1.1961 0
M  V30 575 C 54.0436 4.47774 0.142381 0
M  V30 576 C 55.7876 3.82094 1.84944 0
M  V30 577 C 53.6946 5.87162 0.706727 0
M  V30 578 H 52.6246 0.713368 0.244176 0
M  V30 579 H 55.2756 1.8323 -0.0994323 0
M  V30 580 H 53.6576 3.42313 1.99092 0
M  V30 581 H 54.8316 4.56469 -0.630296 0
M  V30 582 H 53.1466 4.14352 -0.412446 0
M  V30 583 H 55.7436 4.83591 2.2813 0
M  V30 584 H 56.0866 3.17386 2.69392 0
M  V30 585 H 56.6196 3.81665 1.12145 0
M  V30 586 H 53.3586 6.55424 -0.0997178 0
M  V30 587 H 52.8786 5.82064 1.44779 0
M  V30 588 H 54.5576 6.35866 1.19514 0
M  V30 589 N 54.6897 -0.239769 1.55765 0
M  V30 590 C 55.6217 -1.32001 1.87372 0
M  V30 591 C 56.6347 -1.43944 0.760522 0
M  V30 592 O 57.8237 -1.45167 1.0387 0
M  V30 593 C 54.9237 -2.69779 2.05115 0
M  V30 594 C 54.0967 -2.80014 3.36022 0
M  V30 595 C 53.1557 -3.98684 3.4342 0
M  V30 596 O 52.1817 -3.87877 4.16582 0
M  V30 597 N 53.3837 -5.12176 2.73232 0
M  V30 598 H 56.1487 -1.0522 2.80622 0
M  V30 599 H 53.7097 -0.429857 1.56089 0
M  V30 600 H 55.7017 -3.47517 2.07399 0
M  V30 601 H 54.2717 -2.89237 1.18577 0
M  V30 602 H 53.4917 -1.88896 3.45994 0
M  V30 603 H 54.7797 -2.83808 4.22292 0
M  V30 604 H 54.1777 -5.2385 2.13536 0
M  V30 605 H 52.7347 -5.88022 2.81199 0
M  V30 606 N 56.1678 -1.49265 -0.50573 0
M  V30 607 C 57.0978 -1.68495 -1.61653 0
M  V30 608 C 58.0788 -0.53366 -1.61512 0
M  V30 609 O 59.2638 -0.76897 -1.78327 0
M  V30 610 C 56.3938 -1.74709 -3.00157 0
M  V30 611 C 55.3478 -2.89581 -3.15162 0
M  V30 612 C 54.6738 -2.80903 -4.5497 0
M  V30 613 C 55.9738 -4.30578 -2.95634 0
M  V30 614 H 57.6678 -2.61493 -1.45814 0
M  V30 615 H 55.2138 -1.25838 -0.70005 0
M  V30 616 H 57.1668 -1.86748 -3.77761 0
M  V30 617 H 55.8908 -0.783067 -3.17074 0
M  V30 618 H 54.5498 -2.77136 -2.39982 0
M  V30 619 H 54.1978 -1.82419 -4.68756 0
M  V30 620 H 53.8978 -3.57999 -4.65951 0
M  V30 621 H 55.4218 -2.94944 -5.34641 0
M  V30 622 H 56.8358 -4.4373 -3.63011 0
M  V30 623 H 55.2328 -5.0886 -3.18091 0
M  V30 624 H 56.3028 -4.45352 -1.91806 0
M  V30 625 N 57.6459 0.756429 -1.3826 0
M  V30 626 C 58.9229 1.50584 -1.24835 0
M  V30 627 C 59.3029 2.10556 0.151485 0
M  V30 628 O 58.6509 1.96825 1.1607 0
M  V30 629 C 58.8609 2.57448 -2.3563 0
M  V30 630 C 60.2089 3.24429 -2.73917 0
M  V30 631 O 61.2329 2.67751 -2.34921 0
M  V30 632 O 60.0919 4.26937 -3.41156 0
M  V30 633 H 57.1859 0.667664 -0.48801 0
M  V30 634 H 59.7319 0.792083 -1.5008 0
M  V30 635 H 58.5039 2.11362 -3.29305 0
M  V30 636 H 58.1269 3.36408 -2.11933 0
M  V30 637 N 59.124 1.23083 0.984299 0
M  V30 638 C 60.057 0.951786 2.07404 0
M  V30 639 C 61.035 -0.10848 1.62238 0
M  V30 640 O 62.219 0.0249467 1.88483 0
M  V30 641 C 59.346 0.433142 3.35919 0
M  V30 642 C 58.392 1.47941 4.0002 0
M  V30 643 S 59.225 3.05556 4.39768 0
M  V30 644 C 60.381 2.55351 5.71442 0
M  V30 645 H 60.614 1.87456 2.30754 0
M  V30 646 H 58.147 1.06284 1.11996 0
M  V30 647 H 60.105 0.140506 4.10259 0
M  V30 648 H 58.766 -0.468656 3.10584 0
M  V30 649 H 57.959 1.06658 4.92585 0
M  V30 650 H 57.561 1.7212 3.3204 0
M  V30 651 H 59.853 1.97128 6.48187 0
M  V30 652 H 60.796 3.46441 6.17563 0
M  V30 653 H 61.204 1.96339 5.29255 0
M  V30 654 N 60.6021 -1.18246 1.0419 0
M  V30 655 C 61.5651 -2.20128 0.638452 0
M  V30 656 C 62.5651 -1.57885 -0.304805 0
M  V30 657 O 63.7551 -1.73967 -0.0900369 0
M  V30 658 C 60.8871 -3.4084 -0.0637751 0
M  V30 659 H 62.0801 -2.57336 1.54007 0
M  V30 660 H 59.6331 -1.32152 0.834598 0
M  V30 661 H 60.3681 -3.09166 -0.979136 0
M  V30 662 H 60.1531 -3.8726 0.614198 0
M  V30 663 H 61.6431 -4.16274 -0.332512 0
M  V30 664 N 62.0802 -0.821533 -1.34494 0
M  V30 665 C 63.0102 -0.257138 -2.3208 0
M  V30 666 C 63.9912 0.625645 -1.58176 0
M  V30 667 O 65.1762 0.552811 -1.86166 0
M  V30 668 C 62.3062 0.582958 -3.42372 0
M  V30 669 C 61.2602 -0.202571 -4.2752 0
M  V30 670 C 60.5862 0.760179 -5.29269 0
M  V30 671 C 61.8862 -1.40998 -5.02908 0
M  V30 672 H 63.5802 -1.07247 -2.79532 0
M  V30 673 H 61.1262 -0.517163 -1.34393 0
M  V30 674 H 63.0792 0.987972 -4.09655 0
M  V30 675 H 61.8032 1.43133 -2.93565 0
M  V30 676 H 60.4622 -0.588936 -3.61838 0
M  V30 677 H 60.1102 1.60447 -4.76724 0
M  V30 678 H 59.8102 0.238809 -5.87115 0
M  V30 679 H 61.3342 1.16308 -5.9942 0
M  V30 680 H 62.7482 -1.07905 -5.63054 0
M  V30 681 H 61.1452 -1.86689 -5.70322 0
M  V30 682 H 62.2152 -2.1889 -4.32684 0
M  V30 683 N 63.5583 1.46682 -0.576371 0
M  V30 684 C 64.5213 2.28707 0.150239 0
M  V30 685 C 65.5213 1.38035 0.824794 0
M  V30 686 O 66.7113 1.60476 0.677719 0
M  V30 687 C 63.8433 3.18248 1.22192 0
M  V30 688 H 65.0363 2.94423 -0.570521 0
M  V30 689 H 62.5893 1.52688 -0.334078 0
M  V30 690 H 63.3243 2.57265 1.97447 0
M  V30 691 H 63.1093 3.85 0.742812 0
M  V30 692 H 64.5993 3.80001 1.73172 0
M  V30 693 N 65.0364 0.313813 1.54444 0
M  V30 694 C 66.2614 -0.296681 2.05267 0
M  V30 695 C 66.6864 -1.45757 1.18897 0
M  V30 696 O 66.0444 -1.80239 0.195886 0
M  V30 697 C 66.0924 -0.71831 3.53373 0
M  V30 698 O 65.1964 -1.82175 3.69981 0
M  V30 699 H 64.5374 -0.0554061 0.661684 0
M  V30 700 H 67.0674 0.459387 1.99376 0
M  V30 701 H 67.0774 -1.00364 3.95463 0
M  V30 702 H 65.7524 0.130821 4.15694 0
M  V30 703 H 64.3294 -1.53598 3.39797 0
M  V30 704 N 66.5145 -1.57545 0.0417849 0
M  V30 705 C 67.7615 -1.92317 -0.634082 0
M  V30 706 C 68.0895 -0.919334 -1.71402 0
M  V30 707 O 67.3445 0.0698253 -1.95575 0
M  V30 708 C 67.6435 -3.33794 -1.27735 0
M  V30 709 C 67.3095 -4.49716 -0.326543 0
M  V30 710 C 65.9715 -4.81156 -0.0648814 0
M  V30 711 C 68.3235 -5.20182 0.325623 0
M  V30 712 C 65.6515 -5.80414 0.856539 0
M  V30 713 C 68.0035 -6.20424 1.23518 0
M  V30 714 C 66.6675 -6.50298 1.5056 0
M  V30 715 H 65.9375 -0.703736 -0.232027 0
M  V30 716 H 68.5845 -1.91205 0.106259 0
M  V30 717 H 66.8895 -3.31228 -2.09274 0
M  V30 718 H 68.5865 -3.57975 -1.80707 0
M  V30 719 H 65.1765 -4.25176 -0.540665 0
M  V30 720 H 69.3605 -4.96112 0.136546 0
M  V30 721 H 64.6165 -6.019 1.07363 0
M  V30 722 H 68.7905 -6.74141 1.74664 0
M  V30 723 H 66.4175 -7.27025 2.22123 0
M  V30 724 N 67.9926 0.231505 -1.5589 0
M  V30 725 C 69.2696 0.981096 -1.69215 0
M  V30 726 C 69.6496 2.02799 -0.586164 0
M  V30 727 O 68.9976 2.24823 0.408253 0
M  V30 728 C 69.2076 1.60054 -3.10135 0
M  V30 729 C 70.5556 2.09658 -3.69227 0
M  V30 730 O 71.5796 1.69967 -3.13033 0
M  V30 731 O 70.4386 2.8258 -4.67772 0
M  V30 732 H 67.5326 0.457653 -0.688827 0
M  V30 733 H 70.0786 0.224073 -1.68214 0
M  V30 734 H 68.8506 0.844105 -3.82087 0
M  V30 735 H 68.4736 2.42336 -3.15212 0
M  V30 736 N 69.4707 1.49531 0.497807 0
M  V30 737 C 70.7477 1.49682 1.25915 0
M  V30 738 C 71.1277 0.226339 2.09883 0
M  V30 739 O 70.4757 -0.791189 2.14365 0
M  V30 740 C 70.6857 2.77755 2.11313 0
M  V30 741 C 72.0337 3.27371 2.70395 0
M  V30 742 O 73.0577 2.78894 2.21578 0
M  V30 743 O 71.9167 4.11808 3.59272 0
M  V30 744 H 69.0107 0.599228 0.56996 0
M  V30 745 H 71.5567 1.61798 0.511816 0
M  V30 746 H 70.3287 3.61713 1.49264 0
M  V30 747 H 69.9517 2.68515 2.93233 0
M  V30 748 N 70.9488 -0.749086 1.3866 0
M  V30 749 C 71.8808 -1.87273 1.32142 0
M  V30 750 C 72.8938 -1.61127 0.232787 0
M  V30 751 O 74.0828 -1.71623 0.49069 0
M  V30 752 C 71.1828 -3.23005 1.02571 0
M  V30 753 C 70.3558 -3.7662 2.22433 0
M  V30 754 C 69.4148 -4.90879 1.89537 0
M  V30 755 O 68.4408 -5.05276 2.62078 0
M  V30 756 N 69.6428 -5.74198 0.853031 0
M  V30 757 H 72.4078 -1.93373 2.28969 0
M  V30 758 H 69.9688 -0.929216 1.32579 0
M  V30 759 H 71.9608 -3.96992 0.786085 0
M  V30 760 H 70.5308 -3.12262 0.145249 0
M  V30 761 H 69.7508 -2.94147 2.62434 0
M  V30 762 H 71.0388 -4.09173 3.02415 0
M  V30 763 H 70.4368 -5.6514 0.25155 0
M  V30 764 H 68.9938 -6.48313 0.67329 0
M  V30 765 N 72.4269 -1.23603 -0.977757 0
M  V30 766 C 73.6569 -1.09487 -1.75203 0
M  V30 767 C 74.0649 0.356321 -1.85814 0
M  V30 768 O 73.4079 1.25816 -1.33851 0
M  V30 769 C 73.4699 -1.64905 -3.19447 0
M  V30 770 C 73.1339 -3.13688 -3.32338 0
M  V30 771 C 74.1309 -4.10953 -3.18455 0
M  V30 772 C 71.8159 -3.53449 -3.56902 0
M  V30 773 C 73.8099 -5.45962 -3.28944 0
M  V30 774 C 71.4969 -4.88602 -3.6703 0
M  V30 775 C 72.4949 -5.84668 -3.53062 0
M  V30 776 O 72.1829 -7.17365 -3.62826 0
M  V30 777 H 71.9149 -0.38367 -0.556573 0
M  V30 778 H 74.4689 -1.6398 -1.23693 0
M  V30 779 H 72.6989 -1.04835 -3.72218 0
M  V30 780 H 74.3879 -1.46226 -3.78646 0
M  V30 781 H 75.1539 -3.81577 -2.99372 0
M  V30 782 H 71.0329 -2.79188 -3.66844 0
M  V30 783 H 74.5769 -6.20925 -3.17958 0
M  V30 784 H 70.4739 -5.17653 -3.85623 0
M  V30 785 H 71.2419 -7.2515 -3.79605 0
M  V30 786 N 73.905 1.17692 -1.04816 0
M  V30 787 C 74.868 2.19787 -0.650117 0
M  V30 788 C 75.868 1.58044 0.296427 0
M  V30 789 O 77.058 1.74012 0.0808097 0
M  V30 790 C 74.19 3.40869 0.0456987 0
M  V30 791 H 75.383 2.56516 -1.5537 0
M  V30 792 H 72.936 1.31708 -0.841594 0
M  V30 793 H 73.671 3.09681 0.962726 0
M  V30 794 H 73.456 3.86928 -0.634727 0
M  V30 795 H 74.946 4.16445 0.310432 0
M  V30 796 N 75.3831 0.828654 1.34056 0
M  V30 797 C 76.6311 0.41863 1.97717 0
M  V30 798 C 76.9521 -1.02314 1.66002 0
M  V30 799 O 76.2221 -1.71119 0.953683 0
M  V30 800 H 74.8021 0.151809 0.731412 0
M  V30 801 H 77.4641 1.05936 1.63596 0
M  V30 802 H 76.5601 0.542318 3.07352 0
M  V30 803 N 76.8612 -1.46375 0.584142 0
M  V30 804 C 78.1012 -2.0427 0.0729695 0
M  V30 805 C 78.4652 -1.44563 -1.26355 0
M  V30 806 O 79.6662 -1.93667 -1.86405 0
M  V30 807 C 77.9372 -3.57399 0.00967464 0
M  V30 808 S 79.4962 -4.36551 -0.443714 0
M  V30 809 H 76.3142 -0.709975 0.0381673 0
M  V30 810 H 78.9162 -1.79398 0.776962 0
M  V30 811 H 77.6202 -3.98372 0.986319 0
M  V30 812 H 77.1512 -3.8681 -0.717044 0
M  V30 813 H 79.1662 -4.66237 -1.69816 0
M  V30 814 N 78.3393 -0.321999 -1.54275 0
M  V30 815 C 79.3023 0.531975 -2.22941 0
M  V30 816 C 80.3023 1.04478 -1.22234 0
M  V30 817 O 81.4923 0.937452 -1.46825 0
M  V30 818 C 78.6243 1.73874 -2.93224 0
M  V30 819 H 79.8173 -0.0682612 -2.99822 0
M  V30 820 H 77.3703 -0.0730644 -1.56129 0
M  V30 821 H 78.1053 2.37825 -2.20476 0
M  V30 822 H 77.8903 1.37847 -3.6707 0
M  V30 823 H 79.3803 2.34496 -3.45545 0
M  V30 824 N 79.8174 1.5752 -0.0501392 0
M  V30 825 C 80.7804 2.1037 0.909786 0
M  V30 826 C 81.7804 1.02308 1.24056 0
M  V30 827 O 82.9704 1.28385 1.17741 0
M  V30 828 C 80.1024 2.58708 2.21998 0
M  V30 829 H 81.2954 2.96479 0.451665 0
M  V30 830 H 78.8484 1.55038 0.198248 0
M  V30 831 H 79.5834 1.75989 2.72394 0
M  V30 832 H 79.3684 3.37675 1.99295 0
M  V30 833 H 80.8584 2.99747 2.9076 0
M  V30 834 N 81.2955 -0.223234 1.56011 0
M  V30 835 C 82.2585 -1.26014 1.9145 0
M  V30 836 C 83.2585 -1.3989 0.792937 0
M  V30 837 O 84.4485 -1.38184 1.0607 0
M  V30 838 C 81.5805 -2.63422 2.16383 0
M  V30 839 H 82.7735 -0.95796 2.84189 0
M  V30 840 H 80.3265 -0.463576 1.49267 0
M  V30 841 H 81.0615 -2.98741 1.2619 0
M  V30 842 H 80.8465 -2.54728 2.98088 0
M  V30 843 H 82.3365 -3.38249 2.44903 0
M  V30 844 N 82.7736 -1.49793 -0.48987 0
M  V30 845 C 83.7066 -1.61898 -1.60823 0
M  V30 846 C 84.6846 -0.467651 -1.5573 0
M  V30 847 O 85.8686 -0.684682 -1.75626 0
M  V30 848 C 82.9956 -1.58422 -2.99366 0
M  V30 849 C 82.0416 -2.78889 -3.22682 0
M  V30 850 S 82.8746 -4.40429 -3.04602 0
M  V30 851 C 84.0306 -4.39617 -4.4552 0
M  V30 852 H 84.2636 -2.56502 -1.50312 0
M  V30 853 H 81.7966 -1.38822 -0.675849 0
M  V30 854 H 83.7546 -1.57103 -3.79248 0
M  V30 855 H 82.4156 -0.650866 -3.07283 0
M  V30 856 H 81.6086 -2.72708 -4.23847 0
M  V30 857 H 81.2106 -2.77678 -2.50541 0
M  V30 858 H 83.5026 -4.12022 -5.37814 0
M  V30 859 H 84.4456 -5.41097 -4.56749 0
M  V30 860 H 84.8536 -3.69554 -4.2672 0
M  V30 861 N 84.2517 0.741722 -1.39055 0
M  V30 862 C 85.4797 1.53098 -1.39171 0
M  V30 863 C 85.8947 1.88794 0.0155099 0
M  V30 864 O 85.2517 1.53626 0.985159 0
M  V30 865 C 85.3027 2.82274 -2.2584 0
M  V30 866 O 85.0237 2.48097 -3.61081 0
M  V30 867 C 86.5247 3.76343 -2.34266 0
M  V30 868 H 83.7447 0.473335 -0.4756 0
M  V30 869 H 86.2887 0.917045 -1.82785 0
M  V30 870 H 84.4437 3.40015 -1.85656 0
M  V30 871 H 84.8577 3.31029 -4.06842 0
M  V30 872 H 86.3317 4.63898 -2.9917 0
M  V30 873 H 86.8087 4.17619 -1.35982 0
M  V30 874 H 87.4147 3.24523 -2.74891 0
M  V30 875 N 85.7298 1.2412 0.971189 0
M  V30 876 C 86.6928 1.03156 2.04674 0
M  V30 877 C 87.6928 -0.00990322 1.60797 0
M  V30 878 O 88.8828 0.230729 1.72665 0
M  V30 879 C 86.0148 0.562765 3.36223 0
M  V30 880 H 87.2078 1.98614 2.24705 0
M  V30 881 H 84.7608 1.06293 1.14593 0
M  V30 882 H 85.4958 -0.395176 3.21883 0
M  V30 883 H 85.2808 1.31441 3.69413 0
M  V30 884 H 86.7708 0.437015 4.15307 0
M  V30 885 N 87.2079 -1.17134 1.05439 0
M  V30 886 C 88.1709 -2.19439 0.661764 0
M  V30 887 C 89.1709 -1.58199 -0.288042 0
M  V30 888 O 90.3609 -1.74053 -0.0715803 0
M  V30 889 C 87.4929 -3.40889 -0.0276209 0
M  V30 890 H 88.6859 -2.55688 1.56728 0
M  V30 891 H 86.2389 -1.31259 0.848567 0
M  V30 892 H 86.9739 -3.10187 -0.94629 0
M  V30 893 H 86.7589 -3.86586 0.655238 0
M  V30 894 H 88.2489 -4.16603 -0.288342 0
M  V30 895 N 88.686 -0.835752 -1.33615 0
M  V30 896 C 89.616 -0.281739 -2.31794 0
M  V30 897 C 90.597 0.608833 -1.58831 0
M  V30 898 O 91.782 0.533035 -1.86741 0
M  V30 899 C 88.912 0.546612 -3.42971 0
M  V30 900 C 87.866 -0.247904 -4.27281 0
M  V30 901 C 87.192 0.704001 -5.30045 0
M  V30 902 C 88.492 -1.46324 -5.01385 0
M  V30 903 H 90.186 -1.10206 -2.78379 0
M  V30 904 H 87.732 -0.531388 -1.33837 0
M  V30 905 H 89.685 0.944467 -4.1068 0
M  V30 906 H 88.409 1.40011 -2.95067 0
M  V30 907 H 87.068 -0.627281 -3.61194 0
M  V30 908 H 86.716 1.55381 -4.78399 0
M  V30 909 H 86.416 0.176524 -5.87335 0
M  V30 910 H 87.94 1.09944 -6.0062 0
M  V30 911 H 89.354 -1.13871 -5.61877 0
M  V30 912 H 87.751 -1.92728 -5.6831 0
M  V30 913 H 88.821 -2.23467 -4.30338 0
M  V30 914 N 90.1641 1.46063 -0.591896 0
M  V30 915 C 91.5751 1.85944 -0.167822 0
M  V30 916 C 91.9261 1.49429 1.27143 0
M  V30 917 O 91.0511 0.913515 1.96173 0
M  V30 918 C 91.6461 3.37489 -0.297794 0
M  V30 919 C 90.2051 3.76332 0.0714732 0
M  V30 920 C 89.3521 2.7006 -0.629509 0
M  V30 921 H 92.3031 1.37087 -0.799555 0
M  V30 922 H 92.3241 3.77532 0.474349 0
M  V30 923 H 91.8361 3.64034 -1.3454 0
M  V30 924 H 89.9371 3.55405 1.11886 0
M  V30 925 H 90.0501 4.78088 -0.311245 0
M  V30 926 H 88.4141 2.54607 -0.0687867 0
M  V30 927 H 89.1971 2.99444 -1.67894 0
M  V30 928 N 91.6422 0.330177 1.54103 0
M  V30 929 C 92.9192 -0.325007 1.92881 0
M  V30 930 C 93.2992 -1.6934 1.26045 0
M  V30 931 O 92.6472 -2.24855 0.406526 0
M  V30 932 C 92.8572 -0.410634 3.46576 0
M  V30 933 C 94.2052 -0.667801 4.19316 0
M  V30 934 O 95.2292 -0.49329 3.52768 0
M  V30 935 O 94.0882 -1.00491 5.37181 0
M  V30 936 H 91.1822 -0.186873 0.80561 0
M  V30 937 H 93.7282 0.380376 1.65382 0
M  V30 938 H 92.5002 0.550164 3.87413 0
M  V30 939 H 92.1232 -1.16333 3.802 0
M  V30 940 N 93.1203 -1.57491 0.0584922 0
M  V30 941 C 94.0503 -2.14988 -0.911178 0
M  V30 942 C 95.0313 -1.07343 -1.31952 0
M  V30 943 O 96.2163 -1.35318 -1.39294 0
M  V30 944 C 93.3463 -2.70078 -2.18347 0
M  V30 945 C 92.3003 -3.82771 -1.91495 0
M  V30 946 C 91.6263 -4.24408 -3.25241 0
M  V30 947 C 92.9263 -5.07592 -1.23075 0
M  V30 948 H 94.6203 -2.96263 -0.432246 0
M  V30 949 H 92.1663 -1.42512 -0.206469 0
M  V30 950 H 94.1193 -3.08943 -2.86587 0
M  V30 951 H 92.8433 -1.86005 -2.68458 0
M  V30 952 H 91.5023 -3.44389 -1.25664 0
M  V30 953 H 91.1503 -3.37275 -3.73168 0
M  V30 954 H 90.8503 -5.00366 -3.08071 0
M  V30 955 H 92.3743 -4.65879 -3.94701 0
M  V30 956 H 93.7883 -5.43857 -1.81362 0
M  V30 957 H 92.1853 -5.88741 -1.16207 0
M  V30 958 H 93.2553 -4.84454 -0.207847 0
M  V30 959 N 94.5984 0.214957 -1.56127 0
M  V30 960 C 95.5464 1.28601 -1.93816 0
M  V30 961 C 96.5404 1.48175 -0.821016 0
M  V30 962 O 97.7464 1.49271 -1.0059 0
M  V30 963 H 94.1214 0.431302 -0.616022 0
M  V30 964 H 96.0924 0.940991 -2.83175 0
M  V30 965 C 94.8414 2.62779 -2.27689 0
M  V30 966 H 94.1644 2.48527 -3.13168 0
M  V30 967 H 95.6044 3.36517 -2.57939 0
M  V30 968 C 94.0634 3.18285 -1.10436 0
M  V30 969 O 94.5934 4.00002 -0.368945 0
M  V30 970 N 92.7994 2.7675 -0.886433 0
M  V30 971 H 92.3464 2.10404 -1.48619 0
M  V30 972 H 92.3044 3.14229 -0.103656 0
M  V30 973 N 96.0765 1.50051 0.48192 0
M  V30 974 C 97.0265 1.64512 1.5786 0
M  V30 975 C 98.0105 0.500073 1.52932 0
M  V30 976 O 99.2025 0.753964 1.60139 0
M  V30 977 C 96.3315 1.73263 2.9637 0
M  V30 978 C 95.4175 2.93409 3.06222 0
M  V30 979 N 95.8085 4.17236 2.85915 0
M  V30 980 C 94.1065 2.91742 3.37346 0
M  V30 981 C 94.8075 4.981 3.00451 0
M  V30 982 N 93.7835 4.3184 3.30174 0
M  V30 983 H 97.5855 2.57955 1.40842 0
M  V30 984 H 95.0995 1.47086 0.688439 0
M  V30 985 H 97.0965 1.81724 3.75209 0
M  V30 986 H 95.7565 0.809711 3.14442 0
M  V30 987 H 96.7675 4.46909 2.6171 0
M  V30 988 H 93.4445 2.08907 3.61475 0
M  V30 989 H 94.8345 6.06532 2.89082 0
M  V30 990 N 97.5546 -0.734337 1.39446 0
M  V30 991 C 98.7826 -1.52358 1.39981 0
M  V30 992 C 99.1976 -1.88799 -0.0054975 0
M  V30 993 O 98.5546 -1.54146 -0.976998 0
M  V30 994 C 98.6056 -2.81072 2.27333 0
M  V30 995 O 98.3266 -2.46178 3.62392 0
M  V30 996 C 99.8276 -3.75096 2.36259 0
M  V30 997 H 97.0476 -0.470806 0.478103 0
M  V30 998 H 99.5916 -0.907339 1.83269 0
M  V30 999 H 97.7466 -3.39026 1.87457 0
M  V30 1000 H 98.1606 -3.28866 4.08592 0
M  V30 1001 H 99.6346 -4.62305 3.01626 0
M  V30 1002 H 100.112 -4.16892 1.38194 0
M  V30 1003 H 100.718 -3.23061 2.76608 0
M  V30 1004 N 99.0327 -1.24633 -0.964593 0
M  V30 1005 C 99.9427 -1.05859 -2.09359 0
M  V30 1006 C 100.959 0.00148855 -1.74 0
M  V30 1007 O 102.135 -0.197346 -2.00431 0
M  V30 1008 C 99.1997 -0.668879 -3.40187 0
M  V30 1009 C 98.2607 -1.80578 -3.89474 0
M  V30 1010 C 97.4937 -1.43457 -5.14058 0
M  V30 1011 O 97.7167 -0.325775 -5.69469 0
M  V30 1012 O 96.6507 -2.2613 -5.57807 0
M  V30 1013 H 100.477 -2.00516 -2.28094 0
M  V30 1014 H 98.0617 -1.03481 -1.0776 0
M  V30 1015 H 99.9437 -0.463211 -4.18846 0
M  V30 1016 H 98.6187 0.248536 -3.22744 0
M  V30 1017 H 97.5257 -2.06623 -3.11862 0
M  V30 1018 H 98.8587 -2.70208 -4.11398 0
M  V30 1019 N 100.511 1.16574 -1.06058 0
M  V30 1020 C 101.758 1.87047 -0.775873 0
M  V30 1021 C 102.086 1.81562 0.697534 0
M  V30 1022 O 101.341 1.22445 1.52662 0
M  V30 1023 C 101.64 3.36195 -1.21275 0
M  V30 1024 C 101.306 3.6188 -2.68986 0
M  V30 1025 C 99.9678 3.68599 -3.09335 0
M  V30 1026 C 102.32 3.72648 -3.64394 0
M  V30 1027 C 99.6478 3.83584 -4.43937 0
M  V30 1028 C 102 3.89154 -4.98741 0
M  V30 1029 C 100.664 3.94114 -5.3873 0
M  V30 1030 H 99.9338 0.684452 -0.283912 0
M  V30 1031 H 102.581 1.37853 -1.32925 0
M  V30 1032 H 100.886 3.87505 -0.578528 0
M  V30 1033 H 102.583 3.89103 -0.969542 0
M  V30 1034 H 99.1728 3.57281 -2.36744 0
M  V30 1035 H 103.357 3.66769 -3.34356 0
M  V30 1036 H 98.6128 3.85677 -4.74409 0
M  V30 1037 H 102.787 3.96427 -5.72554 0
M  V30 1038 H 100.414 4.05478 -6.43033 0
M  V30 1039 N 101.989 0.842826 1.3317 0
M  V30 1040 C 102.921 0.236245 2.27979 0
M  V30 1041 C 103.934 -0.585282 1.51915 0
M  V30 1042 O 105.123 -0.411705 1.73687 0
M  V30 1043 C 102.223 -0.685717 3.3189 0
M  V30 1044 C 101.396 0.0973448 4.37292 0
M  V30 1045 C 100.455 -0.748565 5.20848 0
M  V30 1046 O 99.4809 -0.186339 5.68895 0
M  V30 1047 N 100.683 -2.06527 5.42519 0
M  V30 1048 H 103.448 1.05088 2.80672 0
M  V30 1049 H 101.009 0.701667 1.45905 0
M  V30 1050 H 103.001 -1.25669 3.84694 0
M  V30 1051 H 101.571 -1.40105 2.79445 0
M  V30 1052 H 100.791 0.849706 3.84933 0
M  V30 1053 H 102.079 0.635643 5.04814 0
M  V30 1054 H 101.477 -2.54554 5.05192 0
M  V30 1055 H 100.034 -2.58464 5.98364 0
M  V30 1056 N 103.467 -1.45747 0.599634 0
M  V30 1057 C 104.43 -2.28917 -0.113835 0
M  V30 1058 C 105.43 -1.3933 -0.802729 0
M  V30 1059 O 106.62 -1.61534 -0.652103 0
M  V30 1060 C 103.752 -3.20152 -1.17114 0
M  V30 1061 H 104.945 -2.93478 0.617289 0
M  V30 1062 H 102.498 -1.52137 0.358327 0
M  V30 1063 H 103.233 -2.60374 -1.93329 0
M  V30 1064 H 103.018 -3.86133 -0.681468 0
M  V30 1065 H 104.508 -3.82708 -1.67105 0
M  V30 1066 N 104.945 -0.338344 -1.53925 0
M  V30 1067 C 105.893 0.536231 -2.26335 0
M  V30 1068 C 106.887 1.1063 -1.28286 0
M  V30 1069 O 108.093 1.05264 -1.46012 0
M  V30 1070 H 104.468 0.191602 -0.727181 0
M  V30 1071 H 106.439 -0.0965747 -2.98244 0
M  V30 1072 C 105.188 1.67803 -3.04528 0
M  V30 1073 H 104.511 1.24864 -3.79801 0
M  V30 1074 H 105.951 2.26526 -3.58416 0
M  V30 1075 C 104.41 2.60439 -2.13712 0
M  V30 1076 O 104.94 3.6255 -1.72975 0
M  V30 1077 N 103.146 2.29006 -1.78898 0
M  V30 1078 H 102.693 1.46011 -2.12223 0
M  V30 1079 H 102.651 2.91248 -1.18416 0
M  V30 1080 N 106.423 1.57458 -0.0668435 0
M  V30 1081 C 107.355 2.09413 0.931601 0
M  V30 1082 C 108.368 1.02522 1.26464 0
M  V30 1083 O 109.557 1.30049 1.22269 0
M  V30 1084 C 106.657 2.53537 2.24882 0
M  V30 1085 C 105.83 3.83944 2.09537 0
M  V30 1086 C 104.889 4.14214 3.2452 0
M  V30 1087 O 103.915 4.83891 2.9973 0
M  V30 1088 N 105.117 3.67367 4.49469 0
M  V30 1089 H 107.882 2.95699 0.488048 0
M  V30 1090 H 105.443 1.61462 0.119009 0
M  V30 1091 H 107.435 2.70853 3.00701 0
M  V30 1092 H 106.005 1.72415 2.60753 0
M  V30 1093 H 105.225 3.76057 1.18215 0
M  V30 1094 H 106.513 4.69312 1.96529 0
M  V30 1095 H 105.911 3.11068 4.72497 0
M  V30 1096 H 104.468 3.89891 5.2233 0
M  V30 1097 N 107.901 -0.206675 1.56239 0
M  V30 1098 C 109.147 -0.930218 1.80208 0
M  V30 1099 C 109.48 -1.83387 0.638981 0
M  V30 1100 O 108.755 -1.91119 -0.361066 0
M  V30 1101 C 109.038 -1.75641 3.1436 0
M  V30 1102 C 108.891 -0.878257 4.41142 0
M  V30 1103 C 110.21 -2.73129 3.45092 0
M  V30 1104 H 107.329 -0.336742 0.655571 0
M  V30 1105 H 109.971 -0.198222 1.88963 0
M  V30 1106 H 108.121 -2.38048 3.07027 0
M  V30 1107 H 109.793 -0.269787 4.6051 0
M  V30 1108 H 108.036 -0.184385 4.33408 0
M  V30 1109 H 108.707 -1.49106 5.3148 0
M  V30 1110 H 111.183 -2.20856 3.52649 0
M  V30 1111 H 110.059 -3.28028 4.40101 0
M  V30 1112 H 110.32 -3.51606 2.68003 0
M  V30 1113 N 109.379 -1.50304 -0.473955 0
M  V30 1114 C 110.609 -1.64663 -1.24778 0
M  V30 1115 C 111.017 -0.328174 -1.86332 0
M  V30 1116 O 110.36 0.699536 -1.69859 0
M  V30 1117 C 110.422 -2.6778 -2.39863 0
M  V30 1118 C 110.086 -4.11413 -1.98969 0
M  V30 1119 C 111.083 -4.97372 -1.51385 0
M  V30 1120 C 108.768 -4.57312 -2.07777 0
M  V30 1121 C 110.762 -6.27277 -1.13148 0
M  V30 1122 C 108.449 -5.87223 -1.69152 0
M  V30 1123 C 109.447 -6.72031 -1.21915 0
M  V30 1124 O 109.135 -7.99518 -0.838237 0
M  V30 1125 H 108.867 -0.556602 -0.383627 0
M  V30 1126 H 111.421 -1.9726 -0.572491 0
M  V30 1127 H 109.651 -2.30419 -3.10554 0
M  V30 1128 H 111.34 -2.71388 -3.01833 0
M  V30 1129 H 112.106 -4.63128 -1.44004 0
M  V30 1130 H 107.985 -3.91449 -2.43493 0
M  V30 1131 H 111.529 -6.93425 -0.762077 0
M  V30 1132 H 107.426 -6.20989 -1.76191 0
M  V30 1133 H 108.194 -8.12764 -0.967339 0
M  V30 1134 N 110.857 0.726932 -1.39834 0
M  V30 1135 C 111.82 1.82269 -1.38962 0
M  V30 1136 C 112.82 1.58248 -0.285334 0
M  V30 1137 O 114.01 1.65499 -0.54366 0
M  V30 1138 C 111.142 3.20186 -1.17019 0
M  V30 1139 H 112.335 1.84443 -2.36476 0
M  V30 1140 H 109.888 0.931416 -1.25516 0
M  V30 1141 H 110.623 3.23669 -0.202204 0
M  V30 1142 H 110.408 3.3902 -1.96998 0
M  V30 1143 H 111.898 4.00235 -1.1917 0
M  V30 1144 N 112.336 1.25143 0.95797 0
M  V30 1145 C 113.613 1.00472 1.67823 0
M  V30 1146 C 113.993 -0.470056 2.058 0
M  V30 1147 O 113.341 -1.44663 1.76875 0
M  V30 1148 C 113.551 1.9372 2.90299 0
M  V30 1149 C 114.899 2.21371 3.62326 0
M  V30 1150 O 115.923 1.91451 3.00375 0
M  V30 1151 O 114.782 2.72231 4.7387 0
M  V30 1152 H 111.876 0.380752 0.734137 0
M  V30 1153 H 114.422 1.36283 1.01119 0
M  V30 1154 H 113.194 2.93316 2.59001 0
M  V30 1155 H 112.817 1.58286 3.64735 0
M  V30 1156 N 113.814 -1.1601 1.06675 0
M  V30 1157 C 115.039 -1.91068 0.806706 0
M  V30 1158 C 115.464 -1.77112 -0.633485 0
M  V30 1159 O 114.822 -1.09908 -1.44187 0
M  V30 1160 C 114.87 -3.39655 1.21106 0
M  V30 1161 O 113.974 -4.10893 0.352189 0
M  V30 1162 H 113.315 -0.595125 0.294486 0
M  V30 1163 H 115.845 -1.46955 1.42356 0
M  V30 1164 H 115.855 -3.90434 1.18428 0
M  V30 1165 H 114.53 -3.49132 2.26008 0
M  V30 1166 H 113.107 -3.70285 0.440868 0
M  V30 1167 N 115.292 -0.849877 -1.32721 0
M  V30 1168 C 116.538 -0.460855 -1.9811 0
M  V30 1169 C 116.893 0.971716 -1.66059 0
M  V30 1170 O 116.186 1.67184 -0.935944 0
M  V30 1171 C 116.38 -0.631272 -3.51781 0
M  V30 1172 C 116.209 -2.07886 -3.98765 0
M  V30 1173 C 114.979 -2.71637 -4.26077 0
M  V30 1174 C 117.177 -3.04889 -4.14182 0
M  V30 1175 N 115.159 -4.07356 -4.59276 0
M  V30 1176 C 116.53 -4.25583 -4.50865 0
M  V30 1177 C 118.585 -3.01148 -3.96503 0
M  V30 1178 C 117.288 -5.43027 -4.71714 0
M  V30 1179 C 119.314 -4.17832 -4.18533 0
M  V30 1180 C 118.676 -5.37284 -4.55528 0
M  V30 1181 H 114.775 -0.217283 -0.751207 0
M  V30 1182 H 117.359 -1.10026 -1.60631 0
M  V30 1183 H 115.53 -0.0215966 -3.88394 0
M  V30 1184 H 117.262 -0.212614 -4.04141 0
M  V30 1185 H 114.017 -2.22705 -4.17971 0
M  V30 1186 H 114.441 -4.77351 -4.80068 0
M  V30 1187 H 119.083 -2.0992 -3.67006 0
M  V30 1188 H 116.801 -6.34791 -5.00066 0
M  V30 1189 H 120.387 -4.16368 -4.06361 0
M  V30 1190 H 119.267 -6.26071 -4.72234 0
M  V30 1191 N 116.77 1.45427 -0.607355 0
M  V30 1192 C 117.998 2.06614 -0.108814 0
M  V30 1193 C 118.413 1.45204 1.2067 0
M  V30 1194 O 117.77 0.566132 1.73497 0
M  V30 1195 C 117.821 3.61481 0.0375347 0
M  V30 1196 O 117.542 4.20598 -1.22593 0
M  V30 1197 C 119.043 4.39652 0.567561 0
M  V30 1198 H 116.263 0.66747 -0.0687351 0
M  V30 1199 H 118.807 1.86675 -0.835022 0
M  V30 1200 H 116.962 3.80762 0.714068 0
M  V30 1201 H 117.376 5.1377 -1.05547 0
M  V30 1202 H 118.85 5.48518 0.61905 0
M  V30 1203 H 119.327 4.09417 1.58978 0
M  V30 1204 H 119.933 4.25234 -0.0749202 0
M  V30 1205 N 118.248 0.346503 1.53744 0
M  V30 1206 C 119.178 -0.501193 2.28058 0
M  V30 1207 C 120.159 -1.10014 1.29734 0
M  V30 1208 O 121.344 -1.12097 1.58581 0
M  V30 1209 C 118.474 -1.65078 3.05559 0
M  V30 1210 C 117.428 -1.18003 4.11411 0
M  V30 1211 C 116.754 -2.41837 4.76884 0
M  V30 1212 C 118.054 -0.278394 5.21558 0
M  V30 1213 H 119.748 0.11875 2.99164 0
M  V30 1214 H 117.294 0.0585531 1.43881 0
M  V30 1215 H 119.247 -2.25028 3.56287 0
M  V30 1216 H 117.971 -2.29767 2.32109 0
M  V30 1217 H 116.63 -0.603331 3.61601 0
M  V30 1218 H 116.278 -3.0494 4.00026 0
M  V30 1219 H 115.978 -2.1102 5.48402 0
M  V30 1220 H 117.502 -3.02508 5.30397 0
M  V30 1221 H 118.916 -0.784823 5.67903 0
M  V30 1222 H 117.313 -0.0619707 6.00068 0
M  V30 1223 H 118.383 0.684677 4.80042 0
M  V30 1224 N 119.726 -1.57421 0.075193 0
M  V30 1225 C 120.689 -2.11791 -0.876203 0
M  V30 1226 C 121.689 -1.04268 -1.22412 0
M  V30 1227 O 122.879 -1.30242 -1.15684 0
M  V30 1228 C 120.011 -2.62207 -2.17854 0
M  V30 1229 H 121.204 -2.9716 -0.40444 0
M  V30 1230 H 118.757 -1.55333 -0.173557 0
M  V30 1231 H 119.492 -1.803 -2.6956 0
M  V30 1232 H 119.277 -3.40802 -1.93897 0
M  V30 1233 H 120.767 -3.04335 -2.85955 0
M  V30 1234 N 121.204 0.198386 -1.56346 0
M  V30 1235 C 122.429 0.939682 -1.84891 0
M  V30 1236 C 122.854 1.76202 -0.658369 0
M  V30 1237 O 122.212 1.76993 0.392851 0
M  V30 1238 C 122.26 1.81428 -3.11635 0
M  V30 1239 O 121.364 2.91265 -2.91956 0
M  V30 1240 H 120.705 0.264807 -0.608912 0
M  V30 1241 H 123.235 0.204695 -2.03573 0
M  V30 1242 H 123.245 2.21958 -3.42343 0
M  V30 1243 H 121.92 1.21004 -3.97908 0
M  V30 1244 H 120.497 2.54514 -2.72538 0
M  V30 1245 N 122.682 1.50554 0.465978 0
M  V30 1246 C 123.907 1.65838 1.24549 0
M  V30 1247 C 124.332 0.343486 1.84937 0
M  V30 1248 O 123.69 -0.69324 1.67523 0
M  V30 1249 C 123.738 2.75533 2.32624 0
M  V30 1250 O 122.842 2.37142 3.37398 0
M  V30 1251 H 122.183 0.553893 0.366194 0
M  V30 1252 H 124.713 1.96959 0.553927 0
M  V30 1253 H 124.723 2.98763 2.77857 0
M  V30 1254 H 123.398 3.70962 1.88043 0
M  V30 1255 H 121.975 2.24377 2.97841 0
M  V30 1256 N 124.16 -0.719506 1.40217 0
M  V30 1257 C 125.092 -1.84428 1.36084 0
M  V30 1258 C 126.105 -1.60597 0.266913 0
M  V30 1259 O 127.294 -1.70544 0.526983 0
M  V30 1260 C 124.394 -3.20757 1.094 0
M  V30 1261 C 123.567 -3.71817 2.30372 0
M  V30 1262 C 122.626 -4.86748 1.99907 0
M  V30 1263 O 121.652 -4.99603 2.72737 0
M  V30 1264 N 122.854 -5.7226 0.974635 0
M  V30 1265 H 125.619 -1.88473 2.33019 0
M  V30 1266 H 123.18 -0.900885 1.3452 0
M  V30 1267 H 125.172 -3.95235 0.870116 0
M  V30 1268 H 123.742 -3.11884 0.211452 0
M  V30 1269 H 122.962 -2.88514 2.68614 0
M  V30 1270 H 124.25 -4.02666 3.11026 0
M  V30 1271 H 123.648 -5.6448 0.371368 0
M  V30 1272 H 122.205 -6.46739 0.810656 0
M  V30 1273 N 125.638 -1.25649 -0.95132 0
M  V30 1274 C 126.884 -1.11766 -1.69941 0
M  V30 1275 C 127.239 0.33735 -1.89419 0
M  V30 1276 O 126.532 1.24491 -1.45645 0
M  V30 1277 C 126.726 -1.80909 -3.08231 0
M  V30 1278 C 126.555 -3.32984 -3.02245 0
M  V30 1279 C 125.325 -4.02247 -3.05819 0
M  V30 1280 C 127.523 -4.29332 -2.83157 0
M  V30 1281 N 125.505 -5.41072 -2.90024 0
M  V30 1282 C 126.876 -5.55265 -2.75828 0
M  V30 1283 C 128.931 -4.19707 -2.67863 0
M  V30 1284 C 127.634 -6.72671 -2.54767 0
M  V30 1285 C 129.66 -5.36809 -2.48173 0
M  V30 1286 C 129.022 -6.61683 -2.41567 0
M  V30 1287 H 125.121 -0.463708 -0.629682 0
M  V30 1288 H 127.705 -1.58796 -1.12659 0
M  V30 1289 H 125.876 -1.36369 -3.63673 0
M  V30 1290 H 127.608 -1.59739 -3.71841 0
M  V30 1291 H 124.363 -3.53531 -3.15139 0
M  V30 1292 H 124.787 -6.13938 -2.85323 0
M  V30 1293 H 129.429 -3.23907 -2.71743 0
M  V30 1294 H 127.147 -7.68577 -2.49629 0
M  V30 1295 H 130.733 -5.31224 -2.37259 0
M  V30 1296 H 129.613 -7.50768 -2.26531 0
M  V30 1297 N 127.117 1.15442 -1.07289 0
M  V30 1298 C 128.049 2.19773 -0.650585 0
M  V30 1299 C 129.062 1.60076 0.296572 0
M  V30 1300 O 130.251 1.78293 0.0859905 0
M  V30 1301 C 127.351 3.38838 0.0650398 0
M  V30 1302 C 126.524 4.2808 -0.898141 0
M  V30 1303 C 125.583 5.2574 -0.219926 0
M  V30 1304 O 124.609 5.62654 -0.860773 0
M  V30 1305 N 125.811 5.71205 1.03466 0
M  V30 1306 H 128.576 2.56622 -1.54808 0
M  V30 1307 H 126.137 1.30551 -0.957494 0
M  V30 1308 H 128.129 4.01222 0.529415 0
M  V30 1309 H 126.699 3.00409 0.864466 0
M  V30 1310 H 125.919 3.62804 -1.54165 0
M  V30 1311 H 127.207 4.84577 -1.5512 0
M  V30 1312 H 126.605 5.43325 1.57526 0
M  V30 1313 H 125.162 6.35633 1.44272 0
M  V30 1314 N 128.595 0.856903 1.32268 0
M  V30 1315 C 129.505 0.306131 2.32594 0
M  V30 1316 C 130.521 -0.577209 1.64147 0
M  V30 1317 O 131.697 -0.477043 1.95669 0
M  V30 1318 C 128.762 -0.494561 3.43154 0
M  V30 1319 C 127.823 0.415186 4.27288 0
M  V30 1320 C 127.056 -0.347387 5.32568 0
M  V30 1321 O 127.279 -1.57708 5.48165 0
M  V30 1322 O 126.213 0.287982 6.01211 0
M  V30 1323 H 130.039 1.13737 2.81598 0
M  V30 1324 H 127.624 0.619902 1.35932 0
M  V30 1325 H 129.506 -0.948944 4.10576 0
M  V30 1326 H 128.181 -1.30257 2.96336 0
M  V30 1327 H 127.088 0.917793 3.62667 0
M  V30 1328 H 128.421 1.18844 4.77637 0
M  V30 1329 N 130.073 -1.45103 0.615059 0
M  V30 1330 C 131.489 -1.57137 0.279322 0
M  V30 1331 C 131.689 -1.60523 -1.21797 0
M  V30 1332 O 130.745 -1.53956 -2.00134 0
M  V30 1333 C 132.058 -2.85062 0.957083 0
M  V30 1334 C 133.606 -2.98749 0.933706 0
M  V30 1335 C 134.081 -4.29455 1.59162 0
M  V30 1336 N 135.572 -4.36231 1.55746 0
M  V30 1337 C 136.307 -5.36051 2.0356 0
M  V30 1338 N 135.803 -6.42367 2.59494 0
M  V30 1339 N 137.596 -5.27456 1.94284 0
M  V30 1340 H 129.747 -1.41148 1.58717 0
M  V30 1341 H 132.01 -0.675331 0.665306 0
M  V30 1342 H 131.716 -2.88488 2.01166 0
M  V30 1343 H 131.59 -3.7407 0.48494 0
M  V30 1344 H 133.977 -2.94886 -0.112347 0
M  V30 1345 H 134.058 -2.11132 1.44419 0
M  V30 1346 H 133.702 -4.34077 2.63704 0
M  V30 1347 H 133.632 -5.15901 1.0561 0
M  V30 1348 H 136.123 -3.60011 1.14893 0
M  V30 1349 H 136.436 -7.14793 2.93752 0
M  V30 1350 H 134.781 -6.43097 2.63537 0
M  V30 1351 H 137.972 -4.43308 1.5032 0
M  V30 1352 H 138.145 -6.05099 2.3186 0
M  V30 1353 N 131.551 -0.354651 -1.53558 0
M  V30 1354 C 132.483 0.5315 -2.22952 0
M  V30 1355 C 133.496 1.05503 -1.23988 0
M  V30 1356 O 134.685 0.963279 -1.50277 0
M  V30 1357 C 131.785 1.74538 -2.90499 0
M  V30 1358 C 130.958 1.35524 -4.15875 0
M  V30 1359 C 130.017 2.42999 -4.66731 0
M  V30 1360 O 129.043 2.05844 -5.30676 0
M  V30 1361 N 130.245 3.74423 -4.43608 0
M  V30 1362 H 133.01 -0.0628615 -2.99634 0
M  V30 1363 H 130.571 -0.179302 -1.60904 0
M  V30 1364 H 132.563 2.45892 -3.21433 0
M  V30 1365 H 131.133 2.24686 -2.17336 0
M  V30 1366 H 130.353 0.471998 -3.91364 0
M  V30 1367 H 131.641 1.07071 -4.97406 0
M  V30 1368 H 131.039 4.07391 -3.92491 0
M  V30 1369 H 129.596 4.41913 -4.7912 0
M  V30 1370 N 133.029 1.57378 -0.0835403 0
M  V30 1371 C 133.992 2.12252 0.864959 0
M  V30 1372 C 134.992 1.04916 1.21858 0
M  V30 1373 O 136.182 1.30853 1.14991 0
M  V30 1374 C 133.314 2.63358 2.16461 0
M  V30 1375 H 134.507 2.97371 0.388676 0
M  V30 1376 H 132.06 1.55423 0.165317 0
M  V30 1377 H 132.795 1.81727 2.686 0
M  V30 1378 H 132.58 3.41826 1.92087 0
M  V30 1379 H 134.07 3.05847 2.84337 0
M  V30 1380 N 134.507 -0.190092 1.56449 0
M  V30 1381 C 135.923 -0.54113 1.50146 0
M  V30 1382 C 136.123 -1.85603 0.784465 0
M  V30 1383 O 135.179 -2.5024 0.337051 0
M  V30 1384 C 136.492 -0.591241 2.9483 0
M  V30 1385 C 138.04 -0.679732 3.0553 0
M  V30 1386 C 138.515 -0.760908 4.51635 0
M  V30 1387 N 140.006 -0.824302 4.55806 0
M  V30 1388 C 140.741 -0.907365 5.66175 0
M  V30 1389 N 140.237 -0.952422 6.86222 0
M  V30 1390 N 142.03 -0.94494 5.541 0
M  V30 1391 H 134.181 0.67235 2.01478 0
M  V30 1392 H 136.444 0.240127 0.917084 0
M  V30 1393 H 136.15 0.305905 3.50367 0
M  V30 1394 H 136.024 -1.44422 3.48457 0
M  V30 1395 H 138.411 -1.56731 2.50039 0
M  V30 1396 H 138.492 0.199549 2.5502 0
M  V30 1397 H 138.136 0.122336 5.07753 0
M  V30 1398 H 138.066 -1.65606 4.99882 0
M  V30 1399 H 140.557 -0.798526 3.69367 0
M  V30 1400 H 140.87 -1.01645 7.66086 0
M  V30 1401 H 139.215 -0.921014 6.8887 0
M  V30 1402 H 142.406 -0.906612 4.59236 0
M  V30 1403 H 142.579 -1.00622 6.4014 0
M  V30 1404 N 135.985 -1.50799 -0.457987 0
M  V30 1405 C 137.231 -1.63648 -1.20792 0
M  V30 1406 C 137.586 -0.338662 -1.89396 0
M  V30 1407 O 136.879 0.664291 -1.79716 0
M  V30 1408 C 137.073 -2.76358 -2.2663 0
M  V30 1409 C 136.902 -4.16974 -1.68411 0
M  V30 1410 C 135.672 -4.83199 -1.47807 0
M  V30 1411 C 137.87 -5.00774 -1.17176 0
M  V30 1412 N 135.852 -6.07991 -0.849692 0
M  V30 1413 C 137.223 -6.16397 -0.667403 0
M  V30 1414 C 139.278 -4.86452 -1.06155 0
M  V30 1415 C 137.981 -7.19272 -0.0636908 0
M  V30 1416 C 140.007 -5.89515 -0.471759 0
M  V30 1417 C 139.369 -7.04397 0.0221557 0
M  V30 1418 H 135.468 -0.652888 -0.43042 0
M  V30 1419 H 138.052 -1.87962 -0.507785 0
M  V30 1420 H 136.223 -2.53744 -2.94056 0
M  V30 1421 H 137.955 -2.78496 -2.93636 0
M  V30 1422 H 134.71 -4.40714 -1.73403 0
M  V30 1423 H 135.134 -6.74733 -0.553537 0
M  V30 1424 H 139.776 -3.97907 -1.42932 0
M  V30 1425 H 137.494 -8.07481 0.316253 0
M  V30 1426 H 141.08 -5.805 -0.388671 0
M  V30 1427 H 139.96 -7.82782 0.471375 0
M  V30 1428 N 137.463 0.71206 -1.40597 0
M  V30 1429 C 138.874 1.29135 -1.34837 0
M  V30 1430 C 139.225 1.96186 -0.0235395 0
M  V30 1431 O 138.35 1.97768 0.878444 0
M  V30 1432 C 138.945 2.34827 -2.44217 0
M  V30 1433 C 137.504 2.88371 -2.41907 0
M  V30 1434 C 136.651 1.62202 -2.24913 0
M  V30 1435 H 139.602 0.507944 -1.50352 0
M  V30 1436 H 139.623 3.15749 -2.12327 0
M  V30 1437 H 139.135 1.85996 -3.40627 0
M  V30 1438 H 137.236 3.41422 -1.49204 0
M  V30 1439 H 137.349 3.39925 -3.37621 0
M  V30 1440 H 135.713 1.874 -1.72492 0
M  V30 1441 H 136.496 1.15391 -3.23326 0
M  V30 1442 N 138.941 1.26152 0.944643 0
M  V30 1443 C 139.851 1.09176 2.07648 0
M  V30 1444 C 140.867 0.0261935 1.7398 0
M  V30 1445 O 142.043 0.229208 2.00091 0
M  V30 1446 C 139.108 0.722915 3.39079 0
M  V30 1447 C 138.169 1.86752 3.86552 0
M  V30 1448 C 137.402 1.51617 5.11711 0
M  V30 1449 O 137.625 0.416331 5.68879 0
M  V30 1450 O 136.559 2.34975 5.54139 0
M  V30 1451 H 140.385 2.0412 2.24875 0
M  V30 1452 H 137.97 1.05182 1.061 0
M  V30 1453 H 139.852 0.529787 4.18056 0
M  V30 1454 H 138.527 -0.197159 3.23099 0
M  V30 1455 H 137.434 2.11558 3.08535 0
M  V30 1456 H 138.767 2.76719 4.07047 0
M  V30 1457 N 140.419 -1.14872 1.07899 0
M  V30 1458 C 141.665 -1.86289 0.81657 0
M  V30 1459 C 142.02 -1.8107 -0.65049 0
M  V30 1460 O 141.313 -1.22684 -1.47171 0
M  V30 1461 C 141.507 -3.34223 1.26609 0
M  V30 1462 C 141.336 -3.53846 2.77531 0
M  V30 1463 C 140.106 -3.68995 3.45212 0
M  V30 1464 C 142.304 -3.51201 3.75716 0
M  V30 1465 N 140.286 -3.76725 4.84718 0
M  V30 1466 C 141.657 -3.65112 5.01092 0
M  V30 1467 C 143.712 -3.34507 3.68794 0
M  V30 1468 C 142.415 -3.64056 6.20368 0
M  V30 1469 C 144.441 -3.34752 4.8754 0
M  V30 1470 C 143.803 -3.49199 6.11751 0
M  V30 1471 H 139.902 -0.698579 0.351443 0
M  V30 1472 H 142.486 -1.37713 1.37634 0
M  V30 1473 H 140.657 -3.81402 0.73395 0
M  V30 1474 H 142.389 -3.93377 0.95062 0
M  V30 1475 H 139.144 -3.70006 2.95622 0
M  V30 1476 H 139.568 -3.8432 5.5734 0
M  V30 1477 H 144.21 -3.22253 2.73702 0
M  V30 1478 H 141.928 -3.75087 7.15776 0
M  V30 1479 H 145.514 -3.23055 4.83866 0
M  V30 1480 H 144.394 -3.49328 7.02097 0
M  V30 1481 N 141.898 -0.863906 -1.31812 0
M  V30 1482 C 143.123 -0.48527 -2.01643 0
M  V30 1483 C 143.548 0.913058 -1.64453 0
M  V30 1484 O 142.906 1.6014 -0.849985 0
M  V30 1485 C 142.954 -0.642625 -3.54828 0
M  V30 1486 O 142.058 0.320659 -4.11151 0
M  V30 1487 H 141.399 -0.193793 -0.635091 0
M  V30 1488 H 143.929 -1.16565 -1.68148 0
M  V30 1489 H 143.939 -0.533628 -4.04495 0
M  V30 1490 H 142.614 -1.66227 -3.81237 0
M  V30 1491 H 141.191 0.167126 -3.72525 0
M  V30 1492 N 143.376 1.44774 -0.622745 0
M  V30 1493 C 144.306 2.33382 0.0741861 0
M  V30 1494 C 145.287 1.47719 0.843387 0
M  V30 1495 O 146.472 1.76458 0.810934 0
M  V30 1496 C 143.602 3.30663 1.06204 0
M  V30 1497 C 142.556 4.26079 0.405037 0
M  V30 1498 C 141.882 5.13165 1.5022 0
M  V30 1499 C 143.182 5.1781 -0.683414 0
M  V30 1500 H 144.876 2.91905 -0.665713 0
M  V30 1501 H 142.422 1.40363 -0.321587 0
M  V30 1502 H 144.375 3.9153 1.55827 0
M  V30 1503 H 143.099 2.70331 1.83272 0
M  V30 1504 H 141.758 3.66532 -0.0704683 0
M  V30 1505 H 141.406 4.49191 2.26355 0
M  V30 1506 H 141.106 5.77812 1.06803 0
M  V30 1507 H 142.63 5.76902 2.00041 0
M  V30 1508 H 144.044 5.72661 -0.270631 0
M  V30 1509 H 142.441 5.91015 -1.04023 0
M  V30 1510 H 143.511 4.59326 -1.55395 0
M  V30 1511 N 144.854 0.36279 1.53368 0
M  V30 1512 C 146.079 -0.231226 2.06107 0
M  V30 1513 C 146.504 -1.419 1.23474 0
M  V30 1514 O 145.862 -1.79524 0.253128 0
M  V30 1515 C 145.91 -0.605523 3.5548 0
M  V30 1516 O 145.014 -1.70312 3.7559 0
M  V30 1517 H 144.355 -0.034327 0.663112 0
M  V30 1518 H 146.885 0.522584 1.97814 0
M  V30 1519 H 146.895 -0.877314 3.98456 0
M  V30 1520 H 145.57 0.263004 4.15068 0
M  V30 1521 H 144.147 -1.4271 3.44512 0
M  V30 1522 N 146.332 -1.57332 0.0918853 0
M  V30 1523 C 147.743 -1.81496 -0.437739 0
M  V30 1524 C 148.094 -1.00727 -1.6837 0
M  V30 1525 O 147.219 -0.235694 -2.15113 0
M  V30 1526 C 147.814 -3.29197 -0.800939 0
M  V30 1527 C 146.373 -3.54136 -1.27532 0
M  V30 1528 C 145.52 -2.75979 -0.270392 0
M  V30 1529 H 148.471 -1.55494 0.317366 0
M  V30 1530 H 148.492 -3.42344 -1.66074 0
M  V30 1531 H 148.004 -3.87955 0.106078 0
M  V30 1532 H 146.105 -3.00705 -2.20016 0
M  V30 1533 H 146.218 -4.62792 -1.23938 0
M  V30 1534 H 144.582 -2.43349 -0.751872 0
M  V30 1535 H 145.365 -3.37484 0.629248 0
M  V30 1536 N 147.81 0.181792 -1.56548 0
M  V30 1537 C 149.038 0.915947 -1.85521 0
M  V30 1538 C 149.453 1.76282 -0.676016 0
M  V30 1539 O 148.81 1.79012 0.355077 0
M  V30 1540 C 148.861 1.80126 -3.13427 0
M  V30 1541 O 148.582 0.988562 -4.26801 0
M  V30 1542 C 150.083 2.64597 -3.55673 0
M  V30 1543 H 147.303 0.26661 -0.61576 0
M  V30 1544 H 149.847 0.185039 -2.03661 0
M  V30 1545 H 148.002 2.48563 -2.97145 0
M  V30 1546 H 148.416 1.59308 -4.99721 0
M  V30 1547 H 149.89 3.2235 -4.48101 0
M  V30 1548 H 150.367 3.38958 -2.79292 0
M  V30 1549 H 150.973 2.0151 -3.74532 0
M  V30 1550 N 149.288 1.51039 0.449983 0
M  V30 1551 C 150.704 1.38934 0.785462 0
M  V30 1552 C 150.904 0.461817 1.96136 0
M  V30 1553 O 149.96 -0.0877389 2.52348 0
M  V30 1554 C 151.273 2.80724 1.0777 0
M  V30 1555 C 152.821 2.89787 1.1829 0
M  V30 1556 C 153.296 4.32457 1.50815 0
M  V30 1557 N 154.787 4.35505 1.57764 0
M  V30 1558 C 155.522 5.42914 1.84477 0
M  V30 1559 N 155.018 6.60502 2.09068 0
M  V30 1560 N 156.811 5.3038 1.86155 0
M  V30 1561 H 148.962 2.09904 -0.324647 0
M  V30 1562 H 151.225 0.944378 -0.0827957 0
M  V30 1563 H 150.931 3.50531 0.286498 0
M  V30 1564 H 150.805 3.19273 2.00859 0
M  V30 1565 H 153.192 2.20186 1.96474 0
M  V30 1566 H 153.273 2.54752 0.231314 0
M  V30 1567 H 152.917 5.02603 0.731622 0
M  V30 1568 H 152.847 4.64995 2.47158 0
M  V30 1569 H 155.338 3.50724 1.40715 0
M  V30 1570 H 155.651 7.38158 2.28785 0
M  V30 1571 H 153.996 6.63639 2.06416 0
M  V30 1572 H 157.187 4.37505 1.66454 0
M  V30 1573 H 157.36 6.1417 2.06637 0
M  V30 1574 N 150.766 -0.704594 1.40972 0
M  V30 1575 C 152.177 -1.28418 1.3552 0
M  V30 1576 C 152.528 -1.96171 0.0339434 0
M  V30 1577 O 151.653 -1.98231 -0.867944 0
M  V30 1578 C 152.248 -2.33528 2.45459 0
M  V30 1579 C 150.807 -2.87085 2.43433 0
M  V30 1580 C 149.954 -1.61007 2.2577 0
M  V30 1581 H 152.905 -0.499963 1.50619 0
M  V30 1582 H 152.926 -3.14619 2.13998 0
M  V30 1583 H 152.438 -1.84187 3.41609 0
M  V30 1584 H 150.539 -3.40626 1.51013 0
M  V30 1585 H 150.652 -3.3813 3.39419 0
M  V30 1586 H 149.016 -1.86482 1.73483 0
M  V30 1587 H 149.799 -1.13675 3.23933 0
M  V30 1588 N 152.244 -1.26651 -0.937939 0
M  V30 1589 C 153.469 -1.15279 -1.72411 0
M  V30 1590 C 153.894 0.287866 -1.85884 0
M  V30 1591 O 153.252 1.20855 -1.35143 0
M  V30 1592 C 153.3 -1.83028 -3.10698 0
M  V30 1593 O 152.404 -1.12128 -3.96864 0
M  V30 1594 H 151.745 -0.401504 -0.528858 0
M  V30 1595 H 154.275 -1.67531 -1.1745 0
M  V30 1596 H 154.285 -1.89981 -3.6107 0
M  V30 1597 H 152.96 -2.87833 -3.00208 0
M  V30 1598 H 151.537 -1.13173 -3.55312 0
M  V30 1599 N 153.722 1.14298 -1.08507 0
M  V30 1600 C 155.133 1.66926 -0.836227 0
M  V30 1601 C 155.484 1.85576 0.63686 0
M  V30 1602 O 154.609 1.56767 1.49175 0
M  V30 1603 C 155.204 3.03219 -1.51142 0
M  V30 1604 C 153.763 3.52876 -1.30979 0
M  V30 1605 C 152.91 2.2833 -1.57356 0
M  V30 1606 H 155.861 0.983491 -1.24552 0
M  V30 1607 H 155.882 3.68726 -0.939211 0
M  V30 1608 H 155.394 2.89612 -2.58353 0
M  V30 1609 H 153.495 3.71703 -0.258429 0
M  V30 1610 H 153.608 4.33586 -2.03814 0
M  V30 1611 H 151.972 2.34454 -0.995164 0
M  V30 1612 H 152.755 2.17298 -2.65775 0
M  V30 1613 N 155.201 0.870884 1.31352 0
M  V30 1614 C 156.612 0.534714 1.78879 0
M  V30 1615 C 156.963 -0.948423 1.71754 0
M  V30 1616 O 156.088 -1.74055 1.28584 0
M  V30 1617 C 156.683 0.963839 3.24801 0
M  V30 1618 C 155.242 0.679311 3.70219 0
M  V30 1619 C 154.389 1.15465 2.52117 0
M  V30 1620 H 157.34 1.05651 1.18421 0
M  V30 1621 H 157.361 0.286892 3.79417 0
M  V30 1622 H 156.873 2.04332 3.29955 0
M  V30 1623 H 154.974 -0.388769 3.70566 0
M  V30 1624 H 155.087 1.25698 4.62317 0
M  V30 1625 H 153.451 0.574383 2.48139 0
M  V30 1626 H 154.234 2.24157 2.60016 0
M  V30 1627 N 156.679 -1.44442 0.630414 0
M  V30 1628 C 158.09 -1.85434 0.217063 0
M  V30 1629 C 158.441 -1.52748 -1.23136 0
M  V30 1630 O 157.566 -0.965205 -1.93682 0
M  V30 1631 C 158.161 -3.36581 0.387168 0
M  V30 1632 C 156.72 -3.76389 0.0283297 0
M  V30 1633 C 155.867 -2.68296 0.700889 0
M  V30 1634 H 158.818 -1.34919 0.83562 0
M  V30 1635 H 158.839 -3.78657 -0.374086 0
M  V30 1636 H 158.351 -3.60339 1.44144 0
M  V30 1637 H 156.452 -3.58246 -1.02423 0
M  V30 1638 H 156.565 -4.77095 0.437892 0
M  V30 1639 H 154.929 -2.54335 0.136267 0
M  V30 1640 H 155.712 -2.94887 1.75774 0
M  V30 1641 N 158.157 -0.370918 -1.53173 0
M  V30 1642 C 159.087 0.464847 -2.28826 0
M  V30 1643 C 160.068 1.07936 -1.31468 0
M  V30 1644 O 161.253 1.0956 -1.60344 0
M  V30 1645 C 158.383 1.60196 -3.08147 0
M  V30 1646 C 157.337 1.11443 -4.13237 0
M  V30 1647 C 156.663 2.3422 -4.80672 0
M  V30 1648 C 157.963 0.195384 -5.21934 0
M  V30 1649 H 159.657 -0.166329 -2.98938 0
M  V30 1650 H 157.203 -0.0814359 -1.4377 0
M  V30 1651 H 159.156 2.19332 -3.59822 0
M  V30 1652 H 157.88 2.26045 -2.35735 0
M  V30 1653 H 156.539 0.545727 -3.62515 0
M  V30 1654 H 156.187 2.98537 -4.04827 0
M  V30 1655 H 155.887 2.02269 -5.51689 0
M  V30 1656 H 157.411 2.94032 -5.35143 0
M  V30 1657 H 158.825 0.694375 -5.69079 0
M  V30 1658 H 157.222 -0.0335027 -6.00091 0
M  V30 1659 H 158.292 -0.760961 -4.78892 0
M  V30 1660 N 159.635 1.57281 -0.100228 0
M  V30 1661 C 160.883 1.94153 0.561157 0
M  V30 1662 C 161.204 0.983157 1.68401 0
M  V30 1663 O 160.474 0.0361132 1.95867 0
M  V30 1664 H 159.054 0.716791 0.210283 0
M  V30 1665 H 161.716 1.94202 -0.164765 0
M  V30 1666 H 160.812 2.96709 0.968008 0
M  V30 1667 N 161.113 -0.173488 1.56642 0
M  V30 1668 C 162.36 -0.890465 1.81871 0
M  V30 1669 C 162.688 -1.82339 0.67696 0
M  V30 1670 O 161.943 -1.92795 -0.335926 0
M  V30 1671 C 162.242 -1.72069 3.13252 0
M  V30 1672 C 161.908 -0.936878 4.41059 0
M  V30 1673 C 160.57 -0.720545 4.75775 0
M  V30 1674 C 162.922 -0.386919 5.19762 0
M  V30 1675 C 160.25 0.0568829 5.86672 0
M  V30 1676 C 162.602 0.37741 6.31473 0
M  V30 1677 C 161.266 0.604563 6.64757 0
M  V30 1678 H 160.536 -0.325844 0.665512 0
M  V30 1679 H 163.183 -0.155527 1.90867 0
M  V30 1680 H 161.488 -2.52496 2.99588 0
M  V30 1681 H 163.185 -2.27844 3.29982 0
M  V30 1682 H 159.775 -1.11553 4.13828 0
M  V30 1683 H 163.959 -0.541398 4.93338 0
M  V30 1684 H 159.215 0.242635 6.10918 0
M  V30 1685 H 163.389 0.810825 6.91664 0
M  V30 1686 H 161.016 1.20885 7.50527 0
M  V30 1687 N 162.591 -1.51276 -0.441967 0
M  V30 1688 C 164.007 -1.39349 -0.778083 0
M  V30 1689 C 164.207 -0.472212 -1.95889 0
M  V30 1690 O 163.263 0.0743551 -2.5239 0
M  V30 1691 C 164.576 -2.81292 -1.0628 0
M  V30 1692 C 166.124 -2.9041 -1.16751 0
M  V30 1693 C 166.599 -4.33251 -1.48519 0
M  V30 1694 N 168.09 -4.36336 -1.55453 0
M  V30 1695 C 168.825 -5.43885 -1.81596 0
M  V30 1696 N 168.321 -6.61601 -2.05562 0
M  V30 1697 N 170.114 -5.3136 -1.8334 0
M  V30 1698 H 162.265 -2.09729 0.335774 0
M  V30 1699 H 164.528 -0.943925 0.0878028 0
M  V30 1700 H 164.234 -3.50678 -0.267905 0
M  V30 1701 H 164.108 -3.20334 -1.99163 0
M  V30 1702 H 166.495 -2.21225 -1.95304 0
M  V30 1703 H 166.576 -2.54871 -0.217801 0
M  V30 1704 H 166.22 -5.02984 -0.704958 0
M  V30 1705 H 166.15 -4.66299 -2.44689 0
M  V30 1706 H 168.641 -3.51466 -1.38853 0
M  V30 1707 H 168.954 -7.39361 -2.24867 0
M  V30 1708 H 167.299 -6.64725 -2.02894 0
M  V30 1709 H 170.49 -4.38382 -1.64132 0
M  V30 1710 H 170.663 -6.15258 -2.03377 0
M  V30 1711 N 164.069 0.697108 -1.41344 0
M  V30 1712 C 165.346 1.45154 -1.31109 0
M  V30 1713 C 165.726 2.11009 0.0620449 0
M  V30 1714 O 165.074 2.01571 1.07618 0
M  V30 1715 C 165.284 2.47223 -2.46337 0
M  V30 1716 C 166.632 3.1252 -2.87431 0
M  V30 1717 O 167.656 2.57547 -2.46065 0
M  V30 1718 O 166.515 4.12083 -3.58957 0
M  V30 1719 H 163.609 0.646365 -0.515889 0
M  V30 1720 H 166.155 0.727716 -1.53305 0
M  V30 1721 H 164.927 1.97204 -3.37974 0
M  V30 1722 H 164.55 3.27116 -2.2601 0
M  V30 1723 N 165.547 1.27147 0.931209 0
M  V30 1724 C 166.457 1.11372 2.06478 0
M  V30 1725 C 167.473 0.044645 1.73943 0
M  V30 1726 O 168.649 0.250417 1.99837 0
M  V30 1727 C 165.714 0.758838 3.38294 0
M  V30 1728 C 164.775 1.90841 3.84549 0
M  V30 1729 C 164.008 1.57036 5.10074 0
M  V30 1730 O 164.231 0.476645 5.68405 0
M  V30 1731 O 163.165 2.40839 5.51616 0
M  V30 1732 H 166.991 2.06493 2.22698 0
M  V30 1733 H 164.576 1.06301 1.04978 0
M  V30 1734 H 166.458 0.574098 4.17471 0
M  V30 1735 H 165.133 -0.162879 3.2329 0
M  V30 1736 H 164.04 2.14819 3.06274 0
M  V30 1737 H 165.373 2.81021 4.04089 0
M  V30 1738 N 167.025 -1.13721 1.09112 0
M  V30 1739 C 167.975 -2.17082 0.697091 0
M  V30 1740 C 168.959 -1.58321 -0.286923 0
M  V30 1741 O 170.151 -1.7673 -0.0978008 0
M  V30 1742 C 167.28 -3.43105 0.115729 0
M  V30 1743 C 166.366 -4.0888 1.12596 0
M  V30 1744 N 166.757 -4.4987 2.31195 0
M  V30 1745 C 165.055 -4.35471 0.963366 0
M  V30 1746 C 165.756 -5.01094 2.95431 0
M  V30 1747 N 164.732 -4.95751 2.23006 0
M  V30 1748 H 168.534 -2.46524 1.6001 0
M  V30 1749 H 166.048 -1.30481 0.966869 0
M  V30 1750 H 168.045 -4.16491 -0.184555 0
M  V30 1751 H 166.705 -3.15138 -0.78217 0
M  V30 1752 H 167.716 -4.42678 2.68806 0
M  V30 1753 H 164.393 -4.17328 0.119878 0
M  V30 1754 H 165.783 -5.4263 3.96236 0
M  V30 1755 N 168.503 -0.877838 -1.30888 0
M  V30 1756 C 169.751 -0.491723 -1.96027 0
M  V30 1757 C 170.072 0.960827 -1.69685 0
M  V30 1758 O 169.342 1.67462 -1.01654 0
M  V30 1759 H 167.922 -0.17885 -0.725273 0
M  V30 1760 H 170.584 -1.11935 -1.59551 0
M  V30 1761 H 169.68 -0.656016 -3.05128 0
M  V30 1762 N 169.982 1.44106 -0.638065 0
M  V30 1763 C 171.228 2.02277 -0.145546 0
M  V30 1764 C 171.561 1.50125 1.23191 0
M  V30 1765 O 170.836 0.688133 1.8192 0
M  V30 1766 C 171.119 3.59829 -0.139791 0
M  V30 1767 C 170.972 4.22247 -1.55008 0
M  V30 1768 C 172.291 4.36873 0.531966 0
M  V30 1769 H 169.41 0.734992 -0.0543632 0
M  V30 1770 H 172.052 1.71592 -0.815863 0
M  V30 1771 H 170.202 3.86102 0.431007 0
M  V30 1772 H 171.874 4.07057 -2.1703 0
M  V30 1773 H 170.117 3.79476 -2.10191 0
M  V30 1774 H 170.788 5.31284 -1.49804 0
M  V30 1775 H 173.264 4.16074 0.0464781 0
M  V30 1776 H 172.14 5.4657 0.505206 0
M  V30 1777 H 172.401 4.11995 1.60352 0
M  V30 1778 N 171.46 0.379036 1.52974 0
M  V30 1779 C 172.423 -0.448865 2.24762 0
M  V30 1780 C 173.423 -0.998689 1.26027 0
M  V30 1781 O 174.613 -0.882313 1.50203 0
M  V30 1782 C 171.745 -1.62872 2.99476 0
M  V30 1783 H 172.938 0.179491 2.99362 0
M  V30 1784 H 170.491 0.13096 1.5575 0
M  V30 1785 H 171.226 -2.29479 2.29151 0
M  V30 1786 H 171.011 -1.24128 3.71934 0
M  V30 1787 H 172.501 -2.2151 3.5401 0
M  V30 1788 N 172.938 -1.57226 0.108567 0
M  V30 1789 C 173.868 -2.17778 -0.84232 0
M  V30 1790 C 174.849 -1.11487 -1.2847 0
M  V30 1791 O 176.034 -1.39681 -1.34918 0
M  V30 1792 C 173.164 -2.76888 -2.09644 0
M  V30 1793 C 172.118 -3.88669 -1.79221 0
M  V30 1794 C 171.444 -4.34541 -3.11574 0
M  V30 1795 C 172.744 -5.11251 -1.06864 0
M  V30 1796 H 174.438 -2.97489 -0.337774 0
M  V30 1797 H 171.984 -1.43097 -0.161025 0
M  V30 1798 H 173.937 -3.17904 -2.76614 0
M  V30 1799 H 172.661 -1.94451 -2.62405 0
M  V30 1800 H 171.32 -3.48213 -1.14644 0
M  V30 1801 H 170.968 -3.48977 -3.62249 0
M  V30 1802 H 170.668 -5.09914 -2.91996 0
M  V30 1803 H 172.192 -4.782 -3.7968 0
M  V30 1804 H 173.606 -5.49352 -1.63968 0
M  V30 1805 H 172.003 -5.9214 -0.974178 0
M  V30 1806 H 173.073 -4.8487 -0.0536168 0
M  V30 1807 N 174.416 0.165178 -1.56732 0
M  V30 1808 C 175.346 1.20651 -1.99914 0
M  V30 1809 C 176.327 1.45827 -0.875705 0
M  V30 1810 O 177.512 1.57057 -1.14223 0
M  V30 1811 C 174.642 2.54401 -2.36427 0
M  V30 1812 C 173.596 2.43782 -3.51787 0
M  V30 1813 C 172.922 3.82078 -3.7406 0
M  V30 1814 C 174.222 1.93732 -4.85041 0
M  V30 1815 H 175.916 0.847534 -2.87154 0
M  V30 1816 H 173.462 0.40625 -1.38151 0
M  V30 1817 H 175.415 3.27458 -2.65234 0
M  V30 1818 H 174.139 2.92098 -1.46103 0
M  V30 1819 H 172.798 1.73178 -3.23117 0
M  V30 1820 H 172.446 4.17179 -2.81017 0
M  V30 1821 H 172.146 3.7584 -4.51684 0
M  V30 1822 H 173.67 4.56712 -4.05274 0
M  V30 1823 H 175.084 2.56569 -5.12684 0
M  V30 1824 H 173.481 1.98428 -5.66345 0
M  V30 1825 H 174.551 0.891962 -4.76626 0
M  V30 1826 N 175.894 1.51508 0.433938 0
M  V30 1827 C 176.857 1.72473 1.50949 0
M  V30 1828 C 177.857 0.594725 1.49398 0
M  V30 1829 O 179.047 0.862315 1.5136 0
M  V30 1830 C 176.179 1.78431 2.90474 0
M  V30 1831 H 177.372 2.68467 1.33662 0
M  V30 1832 H 174.925 1.41549 0.662836 0
M  V30 1833 H 175.66 0.842645 3.13161 0
M  V30 1834 H 175.445 2.60558 2.93005 0
M  V30 1835 H 176.935 1.96479 3.68491 0
M  V30 1836 N 177.372 -0.689602 1.41712 0
M  V30 1837 C 178.602 -1.47613 1.44548 0
M  V30 1838 C 179.01 -1.89132 0.0509034 0
M  V30 1839 O 178.353 -1.57741 -0.94146 0
M  V30 1840 C 178.415 -2.76596 2.2964 0
M  V30 1841 C 178.079 -2.57245 3.77722 0
M  V30 1842 C 179.076 -2.22804 4.69739 0
M  V30 1843 C 176.761 -2.727 4.2183 0
M  V30 1844 C 178.755 -2.04064 6.03851 0
M  V30 1845 C 176.442 -2.53576 5.56006 0
M  V30 1846 C 177.44 -2.1931 6.46832 0
M  V30 1847 O 177.128 -2.00359 7.78532 0
M  V30 1848 H 176.86 -0.461227 0.494212 0
M  V30 1849 H 179.414 -0.856045 1.86711 0
M  V30 1850 H 177.644 -3.41033 1.82301 0
M  V30 1851 H 179.333 -3.38424 2.24107 0
M  V30 1852 H 180.099 -2.10473 4.36951 0
M  V30 1853 H 175.978 -2.98353 3.51435 0
M  V30 1854 H 179.522 -1.77241 6.74708 0
M  V30 1855 H 175.419 -2.65499 5.88371 0
M  V30 1856 H 176.187 -2.15075 7.89737 0
M  V30 1857 N 178.85 -1.27639 -0.924453 0
M  V30 1858 C 180.078 -1.16989 -1.70649 0
M  V30 1859 C 180.493 0.272869 -1.86818 0
M  V30 1860 O 179.85 1.18549 -1.38753 0
M  V30 1861 C 179.901 -1.85229 -3.10439 0
M  V30 1862 O 179.622 -3.23868 -2.95028 0
M  V30 1863 C 181.123 -1.80746 -4.04779 0
M  V30 1864 H 178.343 -0.406595 -0.53378 0
M  V30 1865 H 180.887 -1.68569 -1.15778 0
M  V30 1866 H 179.042 -1.37545 -3.6216 0
M  V30 1867 H 179.456 -3.57889 -3.83426 0
M  V30 1868 H 180.93 -2.33101 -5.00368 0
M  V30 1869 H 181.407 -0.777499 -4.32263 0
M  V30 1870 H 182.013 -2.28059 -3.58984 0
M  V30 1871 N 180.328 1.1314 -1.09713 0
M  V30 1872 C 181.291 2.16831 -0.742751 0
M  V30 1873 C 182.291 1.59159 0.229129 0
M  V30 1874 O 183.481 1.74199 0.00693237 0
M  V30 1875 C 180.613 3.40756 -0.0989168 0
M  V30 1876 H 181.806 2.49695 -1.66109 0
M  V30 1877 H 179.359 1.2802 -0.896699 0
M  V30 1878 H 180.094 3.13485 0.830514 0
M  V30 1879 H 179.879 3.83888 -0.798265 0
M  V30 1880 H 181.369 4.17386 0.133524 0
M  V30 1881 N 181.806 0.884767 1.30421 0
M  V30 1882 C 182.754 0.340869 2.30089 0
M  V30 1883 C 183.748 -0.55201 1.60154 0
M  V30 1884 O 184.954 -0.436467 1.74628 0
M  V30 1885 H 181.329 0.0915739 0.746404 0
M  V30 1886 H 183.3 1.19513 2.73421 0
M  V30 1887 C 182.049 -0.429779 3.45034 0
M  V30 1888 H 181.372 0.248024 3.9903 0
M  V30 1889 H 182.812 -0.775445 4.16849 0
M  V30 1890 C 181.271 -1.62677 2.95022 0
M  V30 1891 O 181.801 -2.72614 2.95033 0
M  V30 1892 N 180.007 -1.46387 2.51036 0
M  V30 1893 H 179.554 -0.569506 2.51226 0
M  V30 1894 H 179.512 -2.26612 2.17932 0
M  V30 1895 N 183.284 -1.43765 0.645699 0
M  V30 1896 C 184.509 -2.06767 0.161883 0
M  V30 1897 C 184.934 -1.48034 -1.16049 0
M  V30 1898 O 184.292 -0.587369 -1.71522 0
M  V30 1899 C 184.34 -3.60519 0.0762003 0
M  V30 1900 O 183.444 -4.00982 -0.963721 0
M  V30 1901 H 182.785 -0.657675 0.091429 0
M  V30 1902 H 185.315 -1.84397 0.886499 0
M  V30 1903 H 185.325 -4.07853 -0.109604 0
M  V30 1904 H 184 -4.02646 1.04157 0
M  V30 1905 H 182.577 -3.65253 -0.751312 0
M  V30 1906 N 184.763 -0.387143 -1.52771 0
M  V30 1907 C 186.174 0.0873634 -1.86495 0
M  V30 1908 C 186.525 1.46336 -1.30691 0
M  V30 1909 O 185.65 2.068 -0.637409 0
M  V30 1910 C 186.245 0.165305 -3.38396 0
M  V30 1911 C 184.804 0.584101 -3.7184 0
M  V30 1912 C 183.951 -0.255279 -2.76122 0
M  V30 1913 H 186.902 -0.605104 -1.46711 0
M  V30 1914 H 186.923 0.984848 -3.67534 0
M  V30 1915 H 186.435 -0.836301 -3.78982 0
M  V30 1916 H 184.536 1.59315 -3.36823 0
M  V30 1917 H 184.649 0.343749 -4.77865 0
M  V30 1918 H 183.013 0.279126 -2.53166 0
M  V30 1919 H 183.796 -1.25482 -3.19545 0
M  V30 1920 N 186.241 1.57166 -0.116904 0
M  V30 1921 C 187.171 2.18222 0.830759 0
M  V30 1922 C 188.152 1.12167 1.27877 0
M  V30 1923 O 189.337 1.40394 1.34176 0
M  V30 1924 C 186.467 2.77996 2.08172 0
M  V30 1925 C 185.421 3.89614 1.77157 0
M  V30 1926 C 184.747 4.36187 3.09265 0
M  V30 1927 C 186.047 5.1181 1.04151 0
M  V30 1928 H 187.741 2.97664 0.321992 0
M  V30 1929 H 185.287 1.4318 0.153434 0
M  V30 1930 H 187.24 3.19366 2.74924 0
M  V30 1931 H 185.964 1.9584 2.6137 0
M  V30 1932 H 184.623 3.48816 1.12796 0
M  V30 1933 H 184.271 3.50893 3.60393 0
M  V30 1934 H 183.971 5.11455 2.89288 0
M  V30 1935 H 185.495 4.80207 3.77139 0
M  V30 1936 H 186.909 5.50214 1.61052 0
M  V30 1937 H 185.306 5.92648 0.942762 0
M  V30 1938 H 186.376 4.84892 0.0279022 0
M  V30 1939 N 187.719 -0.156864 1.56817 0
M  V30 1940 C 188.669 -1.19891 1.93934 0
M  V30 1941 C 189.653 -1.39061 0.809372 0
M  V30 1942 O 190.845 -1.40789 1.07273 0
M  V30 1943 C 187.974 -2.53493 2.31508 0
M  V30 1944 C 187.06 -2.37957 3.51052 0
M  V30 1945 N 187.451 -1.92158 4.67877 0
M  V30 1946 C 185.749 -2.68739 3.55943 0
M  V30 1947 C 186.45 -1.8943 5.49992 0
M  V30 1948 N 185.426 -2.32375 4.91429 0
M  V30 1949 H 189.228 -0.836746 2.81737 0
M  V30 1950 H 186.742 -0.365012 1.58245 0
M  V30 1951 H 188.739 -3.28811 2.56299 0
M  V30 1952 H 187.399 -2.905 1.45051 0
M  V30 1953 H 188.41 -1.62274 4.91821 0
M  V30 1954 H 185.087 -3.09687 2.80001 0
M  V30 1955 H 186.477 -1.55596 6.53636 0
M  V30 1956 N 189.197 -1.51736 -0.425897 0
M  V30 1957 C 190.144 -1.73875 -1.51776 0
M  V30 1958 C 191.114 -0.580702 -1.55618 0
M  V30 1959 O 192.299 -0.81641 -1.72451 0
M  V30 1960 C 189.439 -1.88012 -2.89388 0
M  V30 1961 C 188.552 -3.15606 -2.94986 0
M  V30 1962 C 187.687 -3.20271 -4.23793 0
M  V30 1963 C 186.726 -4.42134 -4.23302 0
M  V30 1964 N 185.863 -4.44284 -5.43651 0
M  V30 1965 H 190.703 -2.67071 -1.32201 0
M  V30 1966 H 188.24 -1.32351 -0.642008 0
M  V30 1967 H 190.198 -1.9419 -3.69251 0
M  V30 1968 H 188.828 -0.98213 -3.07496 0
M  V30 1969 H 187.88 -3.18681 -2.07717 0
M  V30 1970 H 189.192 -4.05486 -2.90486 0
M  V30 1971 H 188.346 -3.25428 -5.12036 0
M  V30 1972 H 187.085 -2.28299 -4.30965 0
M  V30 1973 H 186.09 -4.3714 -3.3345 0
M  V30 1974 H 187.315 -5.35382 -4.17783 0
M  V30 1975 H 185.261 -3.55188 -5.51523 0
M  V30 1976 H 185.178 -5.27988 -5.41078 0
M  V30 1977 H 186.446 -4.53649 -6.33895 0
M  V30 1978 N 190.675 0.682077 -1.42076 0
M  V30 1979 C 191.585 1.82535 -1.47371 0
M  V30 1980 C 192.601 1.7017 -0.363079 0
M  V30 1981 O 193.777 1.91848 -0.612875 0
M  V30 1982 C 190.842 3.18624 -1.36674 0
M  V30 1983 C 189.903 3.42999 -2.58167 0
M  V30 1984 C 189.136 4.72595 -2.4797 0
M  V30 1985 O 189.359 5.50006 -1.5116 0
M  V30 1986 O 188.293 4.98054 -3.37974 0
M  V30 1987 H 192.119 1.81023 -2.43853 0
M  V30 1988 H 189.704 0.836887 -1.2376 0
M  V30 1989 H 191.586 3.99847 -1.33043 0
M  V30 1990 H 190.261 3.20789 -0.433138 0
M  V30 1991 H 189.168 2.61653 -2.67373 0
M  V30 1992 H 190.501 3.45659 -3.50401 0
M  V30 1993 N 192.153 1.28127 0.917671 0
M  V30 1994 C 193.4 1.15052 1.66641 0
M  V30 1995 C 193.728 -0.301677 1.92146 0
M  V30 1996 O 192.983 -1.23622 1.51711 0
M  V30 1997 C 193.282 1.89018 3.03327 0
M  V30 1998 C 192.948 3.38832 2.97496 0
M  V30 1999 C 191.61 3.79693 2.95613 0
M  V30 2000 C 193.962 4.34378 2.88036 0
M  V30 2001 C 191.29 5.14447 2.82066 0
M  V30 2002 C 193.642 5.69201 2.7603 0
M  V30 2003 C 192.306 6.09343 2.72502 0
M  V30 2004 H 191.576 0.421006 0.609783 0
M  V30 2005 H 194.223 1.58855 1.06945 0
M  V30 2006 H 192.528 1.37752 3.66785 0
M  V30 2007 H 194.225 1.76321 3.60156 0
M  V30 2008 H 190.815 3.06342 2.99754 0
M  V30 2009 H 194.999 4.03775 2.88581 0
M  V30 2010 H 190.255 5.44681 2.77728 0
M  V30 2011 H 194.429 6.42901 2.67678 0
M  V30 2012 H 192.056 7.13712 2.61762 0
M  V30 2013 N 193.631 -1.12557 1.10312 0
M  V30 2014 C 194.579 -2.20325 0.745629 0
M  V30 2015 C 195.573 -1.67429 -0.25763 0
M  V30 2016 O 196.779 -1.79612 -0.118132 0
M  V30 2017 H 193.154 -0.718118 0.223182 0
M  V30 2018 H 195.125 -2.47733 1.66346 0
M  V30 2019 C 193.874 -3.47168 0.192262 0
M  V30 2020 H 193.197 -3.88215 0.955475 0
M  V30 2021 H 194.637 -4.23995 -0.0198274 0
M  V30 2022 C 193.096 -3.19298 -1.07472 0
M  V30 2023 O 193.626 -3.3891 -2.15645 0
M  V30 2024 N 191.832 -2.73113 -0.992847 0
M  V30 2025 H 191.379 -2.57354 -0.112474 0
M  V30 2026 H 191.337 -2.54842 -1.84127 0
M  V30 2027 N 195.109 -0.891671 -1.2995 0
M  V30 2028 C 196.072 -0.36828 -2.26222 0
M  V30 2029 C 197.072 0.493014 -1.53056 0
M  V30 2030 O 198.262 0.299213 -1.71611 0
M  V30 2031 C 195.394 0.47442 -3.37583 0
M  V30 2032 H 196.587 -1.21844 -2.74033 0
M  V30 2033 H 194.14 -0.669107 -1.41254 0
M  V30 2034 H 194.875 1.34489 -2.95099 0
M  V30 2035 H 194.66 -0.142615 -3.91841 0
M  V30 2036 H 196.15 0.83218 -4.09224 0
M  V30 2037 N 196.587 1.43421 -0.653314 0
M  V30 2038 C 197.55 2.29182 0.0287951 0
M  V30 2039 C 198.55 1.42213 0.750465 0
M  V30 2040 O 199.74 1.63843 0.591701 0
M  V30 2041 C 196.872 3.24278 1.05151 0
M  V30 2042 H 198.065 2.90985 -0.725786 0
M  V30 2043 H 195.618 1.50702 -0.414545 0
M  V30 2044 H 196.353 2.6737 1.83532 0
M  V30 2045 H 196.138 3.88396 0.537687 0
M  V30 2046 H 197.628 3.88647 1.52786 0
M  V30 2047 N 198.065 0.39524 1.52563 0
M  V30 2048 C 199.311 -0.185318 2.01952 0
M  V30 2049 C 199.644 -1.45964 1.28095 0
M  V30 2050 O 198.919 -1.90689 0.38315 0
M  V30 2051 C 199.202 -0.447193 3.57312 0
M  V30 2052 C 199.055 0.842828 4.41833 0
M  V30 2053 C 200.374 -1.23529 4.22408 0
M  V30 2054 H 197.493 -0.0658788 0.73405 0
M  V30 2055 H 200.135 0.525975 1.82575 0
M  V30 2056 H 198.285 -1.05312 3.73954 0
M  V30 2057 H 199.957 1.4795 4.36931 0
M  V30 2058 H 198.2 1.45686 4.08605 0
M  V30 2059 H 198.871 0.614165 5.48573 0
M  V30 2060 H 201.347 -0.722445 4.0978 0
M  V30 2061 H 200.223 -1.38727 5.3108 0
M  V30 2062 H 200.484 -2.25213 3.80436 0
M  V30 2063 N 199.544 -1.57102 0.125237 0
M  V30 2064 C 200.96 -1.57915 -0.231322 0
M  V30 2065 C 201.16 -1.13833 -1.66266 0
M  V30 2066 O 200.216 -0.828581 -2.38518 0
M  V30 2067 C 201.529 -3.00699 0.00766489 0
M  V30 2068 C 203.077 -3.12947 -0.0577483 0
M  V30 2069 C 203.552 -4.57742 0.153626 0
M  V30 2070 N 205.043 -4.63092 0.0998073 0
M  V30 2071 C 205.778 -5.72905 0.238174 0
M  V30 2072 N 205.274 -6.91445 0.433057 0
M  V30 2073 N 207.067 -5.6182 0.177308 0
M  V30 2074 H 199.218 -1.84055 1.06007 0
M  V30 2075 H 201.481 -0.850905 0.417929 0
M  V30 2076 H 201.187 -3.3726 0.997431 0
M  V30 2077 H 201.061 -3.70236 -0.721452 0
M  V30 2078 H 203.448 -2.7624 -1.03804 0
M  V30 2079 H 203.529 -2.4594 0.70335 0
M  V30 2080 H 203.173 -4.95149 1.13092 0
M  V30 2081 H 203.103 -5.22848 -0.627534 0
M  V30 2082 H 205.594 -3.77871 -0.047051 0
M  V30 2083 H 205.907 -7.70985 0.529332 0
M  V30 2084 H 204.252 -6.93415 0.469109 0
M  V30 2085 H 207.443 -4.68093 0.0259748 0
M  V30 2086 H 207.616 -6.47357 0.288582 0
M  V30 2087 N 201.022 0.148545 -1.56898 0
M  V30 2088 C 201.932 1.20293 -2.01412 0
M  V30 2089 C 202.948 1.47107 -0.929273 0
M  V30 2090 O 204.124 1.58807 -1.23863 0
M  V30 2091 C 201.189 2.51682 -2.38447 0
M  V30 2092 C 200.25 2.32529 -3.60872 0
M  V30 2093 C 199.483 3.57653 -3.96132 0
M  V30 2094 O 199.706 4.63771 -3.32073 0
M  V30 2095 O 198.64 3.50408 -4.89385 0
M  V30 2096 H 202.466 0.855025 -2.91416 0
M  V30 2097 H 200.051 0.357151 -1.45068 0
M  V30 2098 H 201.933 3.29147 -2.63135 0
M  V30 2099 H 200.608 2.86006 -1.51599 0
M  V30 2100 H 199.515 1.53019 -3.41373 0
M  V30 2101 H 200.848 2.03121 -4.48333 0
M  V30 2102 N 202.5 1.5196 0.417844 0
M  V30 2103 C 203.463 1.74065 1.49111 0
M  V30 2104 C 204.463 0.610537 1.48758 0
M  V30 2105 O 205.653 0.87832 1.50437 0
M  V30 2106 C 202.785 1.81502 2.88565 0
M  V30 2107 H 203.978 2.69869 1.30807 0
M  V30 2108 H 201.531 1.42244 0.647785 0
M  V30 2109 H 202.266 0.875813 3.1225 0
M  V30 2110 H 202.051 2.63651 2.90225 0
M  V30 2111 H 203.541 2.00376 3.66387 0
M  V30 2112 N 203.978 -0.674533 1.42435 0
M  V30 2113 C 205.226 -1.43175 1.42637 0
M  V30 2114 C 205.547 -1.94951 0.0438992 0
M  V30 2115 O 204.817 -1.7308 -0.917607 0
M  V30 2116 H 203.397 -0.531307 0.525092 0
M  V30 2117 H 206.059 -0.797006 1.77859 0
M  V30 2118 H 205.155 -2.28463 2.12629 0
M  V30 2119 N 205.456 -1.28612 -0.910864 0
M  V30 2120 C 206.872 -1.06381 -1.18976 0
M  V30 2121 C 207.072 0.191998 -2.00583 0
M  V30 2122 O 206.128 0.892869 -2.36187 0
M  V30 2123 C 207.441 -2.31295 -1.92154 0
M  V30 2124 C 208.989 -2.36503 -2.05025 0
M  V30 2125 C 209.464 -3.61191 -2.81612 0
M  V30 2126 N 210.955 -3.61847 -2.89172 0
M  V30 2127 C 211.69 -4.55004 -3.4894 0
M  V30 2128 N 211.186 -5.58482 -4.09963 0
M  V30 2129 N 212.979 -4.42594 -3.46506 0
M  V30 2130 H 205.13 -2.09221 -0.366094 0
M  V30 2131 H 207.393 -0.921003 -0.224629 0
M  V30 2132 H 207.099 -3.228 -1.39618 0
M  V30 2133 H 206.973 -2.37934 -2.9269 0
M  V30 2134 H 209.36 -1.45494 -2.5674 0
M  V30 2135 H 209.441 -2.33857 -1.03657 0
M  V30 2136 H 209.085 -4.52545 -2.30576 0
M  V30 2137 H 209.015 -3.61092 -3.83302 0
M  V30 2138 H 211.506 -2.87022 -2.45819 0
M  V30 2139 H 211.819 -6.25704 -4.53557 0
M  V30 2140 H 210.164 -5.62305 -4.08459 0
M  V30 2141 H 213.355 -3.60953 -2.98045 0
M  V30 2142 H 213.528 -5.15381 -3.92793 0
M  V30 2143 N 206.934 1.1197 -1.10907 0
M  V30 2144 C 208.159 1.87942 -0.877064 0
M  V30 2145 C 208.584 1.79341 0.567314 0
M  V30 2146 O 207.942 1.15184 1.40009 0
M  V30 2147 C 207.99 3.34926 -1.33629 0
M  V30 2148 O 207.094 4.09303 -0.504447 0
M  V30 2149 H 206.435 0.583785 -0.316371 0
M  V30 2150 H 208.965 1.4157 -1.47712 0
M  V30 2151 H 208.975 3.8577 -1.32837 0
M  V30 2152 H 207.65 3.40504 -2.3881 0
M  V30 2153 H 206.227 3.68393 -0.577993 0
M  V30 2154 N 208.412 0.89855 1.29475 0
M  V30 2155 C 209.828 0.594483 1.48115 0
M  V30 2156 C 210.028 -0.86431 1.82022 0
M  V30 2157 O 209.084 -1.64457 1.91599 0
M  V30 2158 C 210.397 1.51932 2.59494 0
M  V30 2159 C 211.945 1.5244 2.7337 0
M  V30 2160 C 212.42 2.43548 3.87877 0
M  V30 2161 N 213.911 2.41589 3.95208 0
M  V30 2162 C 214.646 3.08789 4.83153 0
M  V30 2163 N 214.142 3.85265 5.75798 0
M  V30 2164 N 215.935 2.97952 4.76635 0
M  V30 2165 H 208.086 1.84207 1.05742 0
M  V30 2166 H 210.349 0.789251 0.525154 0
M  V30 2167 H 210.055 2.55865 2.41301 0
M  V30 2168 H 209.929 1.23899 3.56271 0
M  V30 2169 H 212.316 0.492518 2.90961 0
M  V30 2170 H 212.397 1.8451 1.77172 0
M  V30 2171 H 212.041 3.46829 3.71041 0
M  V30 2172 H 211.971 2.08788 4.83441 0
M  V30 2173 H 214.462 1.86025 3.28943 0
M  V30 2174 H 214.775 4.33598 6.39697 0
M  V30 2175 H 213.12 3.89371 5.75687 0
M  V30 2176 H 216.311 2.37723 4.03244 0
M  V30 2177 H 216.484 3.50599 5.44962 0
M  V30 2178 N 209.89 -1.43072 0.660911 0
M  V30 2179 C 210.853 -2.29194 -0.0166406 0
M  V30 2180 C 211.853 -1.42609 -0.742912 0
M  V30 2181 O 213.043 -1.64155 -0.583004 0
M  V30 2182 C 210.175 -3.24831 -1.0343 0
M  V30 2183 H 211.368 -2.90596 0.741208 0
M  V30 2184 H 208.921 -1.5048 0.422532 0
M  V30 2185 H 209.656 -2.68339 -1.82111 0
M  V30 2186 H 209.441 -3.88676 -0.517082 0
M  V30 2187 H 210.931 -3.89451 -1.50723 0
M  V30 2188 N 211.368 -0.403325 -1.52352 0
M  V30 2189 C 212.318 0.442244 -2.2367 0
M  V30 2190 C 213.302 1.01823 -1.24583 0
M  V30 2191 O 214.494 0.942005 -1.49851 0
M  V30 2192 C 211.623 1.5615 -3.05732 0
M  V30 2193 C 210.709 0.996575 -4.12225 0
M  V30 2194 N 211.1 0.157804 -5.05554 0
M  V30 2195 C 209.398 1.26767 -4.27605 0
M  V30 2196 C 210.099 -0.155853 -5.81491 0
M  V30 2197 N 209.075 0.451775 -5.41719 0
M  V30 2198 H 212.877 -0.204964 -2.93184 0
M  V30 2199 H 210.391 -0.213418 -1.60992 0
M  V30 2200 H 212.388 2.17981 -3.55373 0
M  V30 2201 H 211.048 2.21139 -2.37755 0
M  V30 2202 H 212.059 -0.206049 -5.1749 0
M  V30 2203 H 208.736 1.91757 -3.70858 0
M  V30 2204 H 210.126 -0.836329 -6.66675 0
M  V30 2205 N 212.846 1.57033 -0.133567 0
M  V30 2206 C 214.076 1.99754 0.527429 0
M  V30 2207 C 214.484 1.01245 1.59832 0
M  V30 2208 O 213.827 -0.000645496 1.837 0
M  V30 2209 C 213.889 3.38903 1.19939 0
M  V30 2210 C 213.553 4.56174 0.274709 0
M  V30 2211 C 214.55 5.17563 -0.492398 0
M  V30 2212 C 212.235 5.01972 0.18153 0
M  V30 2213 C 214.229 6.2315 -1.34027 0
M  V30 2214 C 211.916 6.07416 -0.669958 0
M  V30 2215 C 212.914 6.67874 -1.42947 0
M  V30 2216 O 212.602 7.71279 -2.2668 0
M  V30 2217 H 212.334 0.660702 0.142999 0
M  V30 2218 H 214.888 2.04207 -0.221099 0
M  V30 2219 H 213.118 3.31248 1.99528 0
M  V30 2220 H 214.807 3.65818 1.75875 0
M  V30 2221 H 215.573 4.83087 -0.430367 0
M  V30 2222 H 211.452 4.54652 0.762422 0
M  V30 2223 H 214.996 6.70268 -1.93357 0
M  V30 2224 H 210.893 6.41321 -0.73333 0
M  V30 2225 H 211.661 7.88441 -2.1978 0
M  V30 2226 N 214.325 -0.140222 1.56975 0
M  V30 2227 C 215.255 -1.17456 2.01808 0
M  V30 2228 C 216.236 -1.44415 0.898794 0
M  V30 2229 O 217.421 -1.5522 1.16707 0
M  V30 2230 C 214.551 -2.50607 2.40444 0
M  V30 2231 C 213.505 -2.38155 3.55621 0
M  V30 2232 C 212.831 -3.76078 3.80091 0
M  V30 2233 C 214.131 -1.85991 4.88062 0
M  V30 2234 H 215.825 -0.801743 2.88466 0
M  V30 2235 H 213.371 -0.38422 1.38779 0
M  V30 2236 H 215.324 -3.23197 2.7041 0
M  V30 2237 H 214.048 -2.89737 1.50732 0
M  V30 2238 H 212.707 -1.68016 3.25832 0
M  V30 2239 H 212.355 -4.12656 2.87618 0
M  V30 2240 H 212.055 -3.68606 4.57606 0
M  V30 2241 H 213.579 -4.50206 4.12488 0
M  V30 2242 H 214.993 -2.4838 5.16701 0
M  V30 2243 H 213.39 -1.89393 5.6943 0
M  V30 2244 H 214.46 -0.816023 4.77984 0
M  V30 2245 N 215.803 -1.52179 -0.40978 0
M  V30 2246 C 216.753 -1.71857 -1.49831 0
M  V30 2247 C 217.737 -0.572469 -1.50372 0
M  V30 2248 O 218.929 -0.829509 -1.56359 0
M  V30 2249 C 216.058 -1.87206 -2.87765 0
M  V30 2250 C 215.144 -3.07685 -2.91875 0
M  V30 2251 N 215.535 -4.30403 -2.65683 0
M  V30 2252 C 213.833 -3.07505 -3.23043 0
M  V30 2253 C 214.534 -5.11868 -2.76344 0
M  V30 2254 N 213.51 -4.47101 -3.09195 0
M  V30 2255 H 217.312 -2.64381 -1.28375 0
M  V30 2256 H 214.826 -1.50203 -0.617479 0
M  V30 2257 H 216.823 -1.99419 -3.66111 0
M  V30 2258 H 215.483 -0.958814 -3.10221 0
M  V30 2259 H 216.494 -4.58887 -2.4009 0
M  V30 2260 H 213.171 -2.25915 -3.51096 0
M  V30 2261 H 214.561 -6.19634 -2.59814 0
M  V30 2262 N 217.281 0.66697 -1.42791 0
M  V30 2263 C 218.231 1.77313 -1.43332 0
M  V30 2264 C 219.215 1.5801 -0.303586 0
M  V30 2265 O 220.407 1.68356 -0.546385 0
M  V30 2266 C 217.536 3.15822 -1.34578 0
M  V30 2267 C 216.622 3.40721 -2.52528 0
M  V30 2268 N 217.013 3.36162 -3.77927 0
M  V30 2269 C 215.311 3.71387 -2.46956 0
M  V30 2270 C 216.012 3.60762 -4.56318 0
M  V30 2271 N 214.988 3.81908 -3.86843 0
M  V30 2272 H 218.79 1.72193 -2.38174 0
M  V30 2273 H 216.304 0.868114 -1.3725 0
M  V30 2274 H 218.301 3.951 -1.33048 0
M  V30 2275 H 216.961 3.22133 -0.407453 0
M  V30 2276 H 217.972 3.15885 -4.10411 0
M  V30 2277 H 214.649 3.84897 -1.61743 0
M  V30 2278 H 216.039 3.63132 -5.65318 0
M  V30 2279 N 218.759 1.29093 0.90403 0
M  V30 2280 C 220.006 1.16813 1.65411 0
M  V30 2281 C 220.334 -0.28128 1.92455 0
M  V30 2282 O 219.589 -1.22006 1.53013 0
M  V30 2283 C 219.888 1.92224 3.01305 0
M  V30 2284 C 219.554 3.41968 2.93885 0
M  V30 2285 C 218.216 3.82807 2.91569 0
M  V30 2286 C 220.568 4.37409 2.83413 0
M  V30 2287 C 217.896 5.1741 2.76594 0
M  V30 2288 C 220.248 5.72097 2.69977 0
M  V30 2289 C 218.912 6.12199 2.66024 0
M  V30 2290 H 218.182 0.42745 0.605283 0
M  V30 2291 H 220.829 1.59981 1.05254 0
M  V30 2292 H 219.134 1.41635 3.65304 0
M  V30 2293 H 220.831 1.80131 3.58265 0
M  V30 2294 H 217.421 3.09504 2.96488 0
M  V30 2295 H 221.605 4.06813 2.84283 0
M  V30 2296 H 216.861 5.47596 2.71935 0
M  V30 2297 H 221.035 6.45704 2.60844 0
M  V30 2298 H 218.662 7.16448 2.54178 0
M  V30 2299 N 220.237 -1.11381 1.11499 0
M  V30 2300 C 221.462 -1.87475 0.887019 0
M  V30 2301 C 221.887 -1.79639 -0.557796 0
M  V30 2302 O 221.245 -1.15924 -1.39396 0
M  V30 2303 C 221.293 -3.34213 1.35403 0
M  V30 2304 O 220.397 -4.0903 0.526146 0
M  V30 2305 H 219.738 -0.582099 0.319463 0
M  V30 2306 H 222.268 -1.40785 1.48461 0
M  V30 2307 H 222.278 -3.8506 1.34881 0
M  V30 2308 H 220.953 -3.39232 2.40612 0
M  V30 2309 H 219.53 -3.68082 0.597522 0
M  V30 2310 N 221.715 -0.905404 -1.28997 0
M  V30 2311 C 222.962 -0.534248 -1.95325 0
M  V30 2312 C 223.29 0.920535 -1.71337 0
M  V30 2313 O 222.545 1.66861 -1.02254 0
M  V30 2314 C 222.844 -0.779906 -3.48787 0
M  V30 2315 C 222.51 -2.21293 -3.92861 0
M  V30 2316 C 221.172 -2.60475 -4.04606 0
M  V30 2317 C 223.524 -3.14587 -4.15553 0
M  V30 2318 C 220.852 -3.9212 -4.36416 0
M  V30 2319 C 223.204 -4.45787 -4.48839 0
M  V30 2320 C 221.868 -4.84834 -4.58794 0
M  V30 2321 H 221.138 -0.195495 -0.714747 0
M  V30 2322 H 223.785 -1.14514 -1.53488 0
M  V30 2323 H 222.09 -0.0861365 -3.91705 0
M  V30 2324 H 223.787 -0.472029 -3.98212 0
M  V30 2325 H 220.377 -1.89887 -3.84241 0
M  V30 2326 H 224.561 -2.85528 -4.0594 0
M  V30 2327 H 219.817 -4.22086 -4.42327 0
M  V30 2328 H 223.991 -5.18098 -4.65346 0
M  V30 2329 H 221.618 -5.86877 -4.83197 0
M  V30 2330 N 223.193 1.4272 -0.668489 0
M  V30 2331 C 224.14 2.30796 0.0137489 0
M  V30 2332 C 225.11 1.4561 0.799177 0
M  V30 2333 O 226.295 1.74453 0.772702 0
M  V30 2334 C 223.435 3.31377 0.963507 0
M  V30 2335 C 222.548 4.31655 0.172569 0
M  V30 2336 C 221.683 5.19312 1.1175 0
M  V30 2337 C 220.722 6.11274 0.317886 0
M  V30 2338 N 219.859 6.91504 1.2152 0
M  V30 2339 H 224.699 2.88585 -0.743161 0
M  V30 2340 H 222.236 1.42154 -0.378226 0
M  V30 2341 H 224.194 3.88214 1.52792 0
M  V30 2342 H 222.824 2.75202 1.68712 0
M  V30 2343 H 221.876 3.76988 -0.508374 0
M  V30 2344 H 223.188 4.96779 -0.448527 0
M  V30 2345 H 222.342 5.80851 1.75206 0
M  V30 2346 H 221.081 4.5435 1.77249 0
M  V30 2347 H 220.086 5.48809 -0.329918 0
M  V30 2348 H 221.311 6.78283 -0.332917 0
M  V30 2349 H 219.257 6.29176 1.85671 0
M  V30 2350 H 219.174 7.53209 0.649036 0
M  V30 2351 H 220.442 7.57535 1.83742 0
M  V30 2352 N 224.671 0.411399 1.52136 0
M  V30 2353 C 225.899 -0.163076 2.06256 0
M  V30 2354 C 226.314 -1.3867 1.28125 0
M  V30 2355 O 225.671 -1.79423 0.333721 0
M  V30 2356 C 225.722 -0.511252 3.57867 0
M  V30 2357 O 225.443 0.66378 4.33042 0
M  V30 2358 C 226.944 -1.13921 4.28412 0
M  V30 2359 H 224.164 -0.0193897 0.67072 0
M  V30 2360 H 226.708 0.583007 1.96013 0
M  V30 2361 H 224.863 -1.20723 3.6811 0
M  V30 2362 H 225.277 0.372601 5.23175 0
M  V30 2363 H 226.751 -1.33302 5.35663 0
M  V30 2364 H 227.228 -2.11296 3.85033 0
M  V30 2365 H 227.834 -0.483373 4.22544 0
M  V30 2366 N 226.149 -1.5696 0.141893 0
M  V30 2367 C 227.079 -2.19516 -0.795936 0
M  V30 2368 C 228.06 -1.14187 -1.26077 0
M  V30 2369 O 229.245 -1.42511 -1.31925 0
M  V30 2370 C 226.375 -2.81272 -2.03723 0
M  V30 2371 C 225.329 -3.92384 -1.70936 0
M  V30 2372 C 224.655 -4.41052 -3.02287 0
M  V30 2373 C 225.955 -5.13403 -0.959954 0
M  V30 2374 H 227.649 -2.98138 -0.274596 0
M  V30 2375 H 225.195 -1.43406 -0.130636 0
M  V30 2376 H 227.148 -3.237 -2.69808 0
M  V30 2377 H 225.872 -1.99973 -2.58221 0
M  V30 2378 H 224.531 -3.50566 -1.07232 0
M  V30 2379 H 224.179 -3.56582 -3.54765 0
M  V30 2380 H 223.879 -5.15993 -2.81114 0
M  V30 2381 H 225.403 -4.86146 -3.69451 0
M  V30 2382 H 226.817 -5.52706 -1.52279 0
M  V30 2383 H 225.214 -5.94073 -0.848357 0
M  V30 2384 H 226.284 -4.84875 0.0492434 0
M  V30 2385 N 227.627 0.131896 -1.57047 0
M  V30 2386 C 228.577 1.1679 -1.95816 0
M  V30 2387 C 229.561 1.37756 -0.831393 0
M  V30 2388 O 230.753 1.39065 -1.09499 0
M  V30 2389 C 227.882 2.49778 -2.35512 0
M  V30 2390 C 226.968 2.32342 -3.54793 0
M  V30 2391 N 227.359 1.8469 -4.70875 0
M  V30 2392 C 225.657 2.63043 -3.60173 0
M  V30 2393 C 226.358 1.80656 -5.52936 0
M  V30 2394 N 225.334 2.24528 -4.95064 0
M  V30 2395 H 229.136 0.791818 -2.83033 0
M  V30 2396 H 226.65 0.339791 -1.58805 0
M  V30 2397 H 228.647 3.24692 -2.61498 0
M  V30 2398 H 227.307 2.88156 -1.49654 0
M  V30 2399 H 228.318 1.54429 -4.9434 0
M  V30 2400 H 224.995 3.05193 -2.84892 0
M  V30 2401 H 226.385 1.45178 -6.56028 0
M  V30 2402 N 229.106 1.52395 0.401703 0
M  V30 2403 C 230.353 1.66817 1.14796 0
M  V30 2404 C 230.681 0.401772 1.90305 0
M  V30 2405 O 229.936 -0.615487 1.85769 0
M  V30 2406 C 230.235 2.84578 2.16217 0
M  V30 2407 C 229.901 4.22513 1.5746 0
M  V30 2408 C 228.563 4.60029 1.41161 0
M  V30 2409 C 230.915 5.0844 1.14622 0
M  V30 2410 C 228.243 5.81144 0.80552 0
M  V30 2411 C 230.595 6.30167 0.55428 0
M  V30 2412 C 229.259 6.66426 0.378482 0
M  V30 2413 H 228.529 0.610428 0.420069 0
M  V30 2414 H 231.176 1.86512 0.434212 0
M  V30 2415 H 229.481 2.59248 2.93764 0
M  V30 2416 H 231.178 2.92933 2.73845 0
M  V30 2417 H 227.768 3.92953 1.71132 0
M  V30 2418 H 231.952 4.80034 1.26021 0
M  V30 2419 H 227.208 6.07855 0.657399 0
M  V30 2420 H 231.382 6.96071 0.213983 0
M  V30 2421 H 229.009 7.60143 -0.0932606 0
M  V30 2422 N 230.584 -0.659388 1.43143 0
M  V30 2423 C 231.514 -1.78422 1.50625 0
M  V30 2424 C 232.495 -1.66216 0.361443 0
M  V30 2425 O 233.68 -1.85404 0.577834 0
M  V30 2426 C 230.81 -3.16815 1.42287 0
M  V30 2427 C 229.764 -3.43777 2.54954 0
M  V30 2428 C 229.09 -4.81905 2.31671 0
M  V30 2429 C 230.39 -3.39134 3.97222 0
M  V30 2430 H 232.084 -1.72417 2.44771 0
M  V30 2431 H 229.63 -0.828084 1.17808 0
M  V30 2432 H 231.583 -3.95253 1.46127 0
M  V30 2433 H 230.307 -3.23534 0.446435 0
M  V30 2434 H 228.966 -2.67707 2.50457 0
M  V30 2435 H 228.614 -4.85294 1.32284 0
M  V30 2436 H 228.314 -5.00906 3.07192 0
M  V30 2437 H 229.838 -5.62609 2.37284 0
M  V30 2438 H 231.252 -4.07518 4.03239 0
M  V30 2439 H 229.649 -3.69671 4.72719 0
M  V30 2440 H 230.719 -2.37426 4.22797 0
M  V30 2441 N 232.062 -1.29571 -0.897171 0
M  V30 2442 C 232.992 -1.17473 -2.01798 0
M  V30 2443 C 233.973 -0.068323 -1.69963 0
M  V30 2444 O 235.158 -0.248239 -1.92607 0
M  V30 2445 C 232.288 -0.853099 -3.36659 0
M  V30 2446 C 231.242 -1.9161 -3.82713 0
M  V30 2447 C 230.568 -1.44773 -5.14728 0
M  V30 2448 C 231.868 -3.32535 -4.02763 0
M  V30 2449 H 233.562 -2.11237 -2.12177 0
M  V30 2450 H 231.108 -1.01699 -1.01948 0
M  V30 2451 H 233.061 -0.755165 -4.14578 0
M  V30 2452 H 231.785 0.120236 -3.26379 0
M  V30 2453 H 230.444 -2.00346 -3.07013 0
M  V30 2454 H 230.092 -0.462995 -5.00865 0
M  V30 2455 H 229.792 -2.15865 -5.46513 0
M  V30 2456 H 231.316 -1.36334 -5.95185 0
M  V30 2457 H 232.73 -3.26626 -4.71156 0
M  V30 2458 H 231.127 -4.01607 -4.45905 0
M  V30 2459 H 232.197 -3.75326 -3.07016 0
M  V30 2460 N 233.54 1.10788 -1.12088 0
M  V30 2461 C 234.768 1.86461 -0.896651 0
M  V30 2462 C 235.183 1.80492 0.553912 0
M  V30 2463 O 234.54 1.19102 1.38278 0
M  V30 2464 C 234.591 3.35006 -1.35843 0
M  V30 2465 O 234.312 3.40866 -2.75213 0
M  V30 2466 C 235.813 4.27565 -1.1706 0
M  V30 2467 H 233.033 0.589425 -0.320654 0
M  V30 2468 H 235.577 1.40076 -1.48993 0
M  V30 2469 H 233.732 3.7887 -0.808458 0
M  V30 2470 H 234.146 4.33411 -2.9539 0
M  V30 2471 H 235.62 5.30007 -1.54263 0
M  V30 2472 H 236.097 4.3906 -0.110814 0
M  V30 2473 H 236.703 3.89501 -1.70789 0
M  V30 2474 N 235.018 0.912232 1.28515 0
M  V30 2475 C 235.928 0.404506 2.31086 0
M  V30 2476 C 236.944 -0.50707 1.66448 0
M  V30 2477 O 238.12 -0.393624 1.97516 0
M  V30 2478 C 235.185 -0.348572 3.44943 0
M  V30 2479 C 234.246 0.59604 4.25142 0
M  V30 2480 C 233.479 -0.121194 5.33562 0
M  V30 2481 O 233.702 -1.34317 5.5436 0
M  V30 2482 O 232.636 0.542716 5.99448 0
M  V30 2483 H 236.462 1.25579 2.76521 0
M  V30 2484 H 234.047 0.676998 1.33181 0
M  V30 2485 H 235.929 -0.77395 4.14232 0
M  V30 2486 H 234.604 -1.17571 3.01594 0
M  V30 2487 H 233.511 1.07079 3.58448 0
M  V30 2488 H 234.844 1.38995 4.72167 0
M  V30 2489 N 236.496 -1.42363 0.676048 0
M  V30 2490 C 237.459 -2.29199 0.00766941 0
M  V30 2491 C 238.459 -1.43389 -0.727745 0
M  V30 2492 O 239.649 -1.64764 -0.56556 0
M  V30 2493 C 236.781 -3.2591 -0.999785 0
M  V30 2494 H 237.974 -2.89794 0.771988 0
M  V30 2495 H 235.527 -1.50024 0.438468 0
M  V30 2496 H 236.262 -2.70256 -1.79255 0
M  V30 2497 H 236.047 -3.89202 -0.475829 0
M  V30 2498 H 237.537 -3.91028 -1.46583 0
M  V30 2499 N 237.974 -0.419461 -1.51915 0
M  V30 2500 C 238.904 0.391813 -2.30189 0
M  V30 2501 C 239.885 1.03699 -1.34836 0
M  V30 2502 O 241.07 1.04403 -1.63748 0
M  V30 2503 C 238.2 1.50312 -3.13087 0
M  V30 2504 C 237.154 0.9824 -4.16573 0
M  V30 2505 C 236.48 2.18809 -4.8788 0
M  V30 2506 C 237.78 0.0292356 -5.22292 0
M  V30 2507 H 239.474 -0.26135 -2.98257 0
M  V30 2508 H 237.02 -0.127134 -1.43438 0
M  V30 2509 H 238.973 2.07773 -3.66617 0
M  V30 2510 H 237.697 2.18431 -2.42807 0
M  V30 2511 H 236.356 0.430119 -3.64068 0
M  V30 2512 H 236.004 2.85507 -4.14119 0
M  V30 2513 H 235.704 1.84615 -5.57845 0
M  V30 2514 H 237.228 2.76858 -5.44226 0
M  V30 2515 H 238.642 0.512976 -5.71 0
M  V30 2516 H 237.039 -0.2244 -5.9968 0
M  V30 2517 H 238.109 -0.912931 -4.76228 0
M  V30 2518 N 239.452 1.56882 -0.150215 0
M  V30 2519 C 240.384 2.14057 0.819286 0
M  V30 2520 C 241.397 1.09082 1.20851 0
M  V30 2521 O 242.586 1.36347 1.15203 0
M  V30 2522 C 239.686 2.65102 2.11127 0
M  V30 2523 C 238.859 3.94511 1.88891 0
M  V30 2524 C 237.918 4.30834 3.02107 0
M  V30 2525 O 236.944 4.99099 2.73659 0
M  V30 2526 N 238.146 3.90676 4.29363 0
M  V30 2527 H 240.911 2.97871 0.330618 0
M  V30 2528 H 238.472 1.61866 0.0332538 0
M  V30 2529 H 240.464 2.86411 2.85921 0
M  V30 2530 H 239.034 1.85994 2.51247 0
M  V30 2531 H 238.254 3.81795 0.981152 0
M  V30 2532 H 239.542 4.7907 1.71376 0
M  V30 2533 H 238.94 3.35677 4.55343 0
M  V30 2534 H 237.497 4.1703 5.00928 0
M  V30 2535 N 240.93 -0.123565 1.57115 0
M  V30 2536 C 241.86 -1.15309 2.03042 0
M  V30 2537 C 242.841 -1.43454 0.914061 0
M  V30 2538 O 244.026 -1.53973 1.18347 0
M  V30 2539 C 241.156 -2.48043 2.43089 0
M  V30 2540 C 240.11 -2.3437 3.58127 0
M  V30 2541 C 239.436 -3.72026 3.84059 0
M  V30 2542 C 240.736 -1.80804 4.90007 0
M  V30 2543 H 242.43 -0.771102 2.893 0
M  V30 2544 H 239.976 -0.369479 1.39179 0
M  V30 2545 H 241.929 -3.20311 2.73823 0
M  V30 2546 H 240.653 -2.88122 1.53796 0
M  V30 2547 H 239.312 -1.64551 3.27595 0
M  V30 2548 H 238.96 -4.09582 2.91979 0
M  V30 2549 H 238.66 -3.63732 4.6149 0
M  V30 2550 H 240.184 -4.45806 4.1724 0
M  V30 2551 H 241.598 -2.42886 5.19307 0
M  V30 2552 H 239.995 -1.83343 5.71407 0
M  V30 2553 H 241.065 -0.76528 4.78823 0
M  V30 2554 N 242.408 -1.52605 -0.393616 0
M  V30 2555 C 243.338 -1.80022 -1.48709 0
M  V30 2556 C 244.319 -0.651995 -1.57108 0
M  V30 2557 O 245.504 -0.89913 -1.72132 0
M  V30 2558 C 242.634 -1.96492 -2.86371 0
M  V30 2559 C 241.588 -3.12161 -2.92813 0
M  V30 2560 C 240.914 -3.13877 -4.3288 0
M  V30 2561 C 242.214 -4.51322 -2.6288 0
M  V30 2562 H 243.908 -2.71589 -1.26015 0
M  V30 2563 H 241.454 -1.30684 -0.604778 0
M  V30 2564 H 243.407 -2.14255 -3.62867 0
M  V30 2565 H 242.131 -1.01611 -3.10391 0
M  V30 2566 H 240.79 -2.94173 -2.18764 0
M  V30 2567 H 240.438 -2.16687 -4.53933 0
M  V30 2568 H 240.138 -3.91576 -4.38112 0
M  V30 2569 H 241.662 -3.33789 -5.1129 0
M  V30 2570 H 243.076 -4.69435 -3.29096 0
M  V30 2571 H 241.473 -5.31053 -2.79468 0
M  V30 2572 H 242.543 -4.58353 -1.58242 0
M  V30 2573 N 243.887 0.651787 -1.4349 0
M  V30 2574 C 245.135 1.40888 -1.44897 0
M  V30 2575 C 245.456 1.94856 -0.0749086 0
M  V30 2576 O 244.726 1.74518 0.889956 0
M  V30 2577 H 243.306 0.522887 -0.533478 0
M  V30 2578 H 245.968 0.768609 -1.79104 0
M  V30 2579 H 245.064 2.25052 -2.16236 0
M  V30 2580 N 245.365 1.30045 0.890287 0
M  V30 2581 C 246.59 1.21598 1.68014 0
M  V30 2582 C 247.015 -0.218678 1.86825 0
M  V30 2583 O 246.373 -1.15756 1.39536 0
M  V30 2584 C 246.421 1.94434 3.03691 0
M  V30 2585 O 245.525 1.2678 3.92429 0
M  V30 2586 H 244.866 0.420856 0.513592 0
M  V30 2587 H 247.396 1.71775 1.11151 0
M  V30 2588 H 247.406 2.03251 3.5377 0
M  V30 2589 H 246.081 2.98777 2.89318 0
M  V30 2590 H 244.658 1.26282 3.50866 0
M  V30 2591 N 246.843 -1.10192 1.12674 0
M  V30 2592 C 248.091 -1.81845 0.881861 0
M  V30 2593 C 248.412 -1.85737 -0.593867 0
M  V30 2594 O 247.682 -1.33724 -1.4316 0
M  V30 2595 H 246.262 -0.673432 0.323261 0
M  V30 2596 H 248.924 -1.33316 1.42172 0
M  V30 2597 H 248.02 -2.85288 1.2656 0
M  V30 2598 N 248.321 -0.919034 -1.28029 0
M  V30 2599 C 249.253 -0.368762 -2.26214 0
M  V30 2600 C 250.266 0.495716 -1.55069 0
M  V30 2601 O 251.455 0.30974 -1.75792 0
M  V30 2602 C 248.555 0.491049 -3.35324 0
M  V30 2603 C 247.728 -0.352133 -4.3598 0
M  V30 2604 C 246.787 0.443622 -5.24327 0
M  V30 2605 O 245.813 -0.14566 -5.69014 0
M  V30 2606 N 247.015 1.74545 -5.53637 0
M  V30 2607 H 249.78 -1.21273 -2.74068 0
M  V30 2608 H 247.341 -0.785541 -1.41566 0
M  V30 2609 H 249.333 1.03026 -3.91366 0
M  V30 2610 H 247.903 1.23574 -2.87138 0
M  V30 2611 H 247.123 -1.07269 -3.79324 0
M  V30 2612 H 248.411 -0.928883 -5.00249 0
M  V30 2613 H 247.809 2.24666 -5.19174 0
M  V30 2614 H 246.366 2.23138 -6.12416 0
M  V30 2615 N 249.799 1.42003 -0.683588 0
M  V30 2616 C 251.215 1.55625 -0.353976 0
M  V30 2617 C 251.415 1.66151 1.14 0
M  V30 2618 O 250.471 1.63329 1.92561 0
M  V30 2619 C 251.784 2.80171 -1.092 0
M  V30 2620 C 253.332 2.93954 -1.07518 0
M  V30 2621 C 253.807 4.21372 -1.79471 0
M  V30 2622 N 255.298 4.28303 -1.76381 0
M  V30 2623 C 256.033 5.25729 -2.28904 0
M  V30 2624 N 255.529 6.29254 -2.89846 0
M  V30 2625 N 257.322 5.17586 -2.19228 0
M  V30 2626 H 249.473 1.33415 -1.6527 0
M  V30 2627 H 251.736 0.64282 -0.696769 0
M  V30 2628 H 251.442 2.78561 -2.14701 0
M  V30 2629 H 251.316 3.7133 -0.662862 0
M  V30 2630 H 253.703 2.95086 -0.028475 0
M  V30 2631 H 253.784 2.04002 -1.54328 0
M  V30 2632 H 253.428 4.21001 -2.84114 0
M  V30 2633 H 253.358 5.10275 -1.30104 0
M  V30 2634 H 255.849 3.54119 -1.31939 0
M  V30 2635 H 256.162 6.99964 -3.27522 0
M  V30 2636 H 254.507 6.29791 -2.93919 0
M  V30 2637 H 257.698 4.35631 -1.71299 0
M  V30 2638 H 257.871 5.93348 -2.60466 0
M  V30 2639 N 251.277 0.427512 1.51691 0
M  V30 2640 C 252.688 -0.0378867 1.86662 0
M  V30 2641 C 253.039 -1.42819 1.34525 0
M  V30 2642 O 252.164 -2.05037 0.692014 0
M  V30 2643 C 252.759 -0.0755266 3.38716 0
M  V30 2644 C 251.318 -0.485309 3.73258 0
M  V30 2645 C 250.465 0.328399 2.75349 0
M  V30 2646 H 253.416 0.64379 1.45055 0
M  V30 2647 H 253.437 -0.887056 3.70016 0
M  V30 2648 H 252.949 0.936487 3.76632 0
M  V30 2649 H 251.05 -1.50329 3.40928 0
M  V30 2650 H 251.163 -0.21693 4.78609 0
M  V30 2651 H 249.527 -0.211905 2.53817 0
M  V30 2652 H 250.31 1.3391 3.16106 0
M  V30 2653 N 252.755 -1.56801 0.158532 0
M  V30 2654 C 254.166 -1.83189 -0.360366 0
M  V30 2655 C 254.517 -1.07778 -1.63946 0
M  V30 2656 O 253.642 -0.326718 -2.13919 0
M  V30 2657 C 254.237 -3.32297 -0.660595 0
M  V30 2658 C 252.796 -3.59227 -1.12398 0
M  V30 2659 C 251.943 -2.76877 -0.153097 0
M  V30 2660 H 254.894 -1.54008 0.383031 0
M  V30 2661 H 254.915 -3.4908 -1.51405 0
M  V30 2662 H 254.427 -3.87156 0.270527 0
M  V30 2663 H 252.528 -3.09766 -2.07064 0
M  V30 2664 H 252.641 -4.67632 -1.04197 0
M  V30 2665 H 251.005 -2.46319 -0.647983 0
M  V30 2666 H 251.788 -3.34511 0.77182 0
M  V30 2667 N 254.233 0.115231 -1.57178 0
M  V30 2668 C 255.649 0.468877 -1.52557 0
M  V30 2669 C 255.849 1.81649 -0.872125 0
M  V30 2670 O 254.905 2.48347 -0.45606 0
M  V30 2671 C 256.218 0.4499 -2.97315 0
M  V30 2672 C 257.766 0.533185 -3.08425 0
M  V30 2673 C 258.241 0.54456 -4.54751 0
M  V30 2674 N 259.732 0.605892 -4.5922 0
M  V30 2675 C 260.467 0.636203 -5.6986 0
M  V30 2676 N 259.963 0.623931 -6.89985 0
M  V30 2677 N 261.756 0.679496 -5.57978 0
M  V30 2678 H 253.907 -0.767712 -1.9804 0
M  V30 2679 H 256.17 -0.283609 -0.904583 0
M  V30 2680 H 255.876 -0.472721 -3.48509 0
M  V30 2681 H 255.75 1.27632 -3.5495 0
M  V30 2682 H 258.137 1.44623 -2.57232 0
M  V30 2683 H 258.218 -0.320995 -2.53778 0
M  V30 2684 H 257.862 -0.364452 -5.06591 0
M  V30 2685 H 257.792 1.41568 -5.07214 0
M  V30 2686 H 260.283 0.621386 -3.72756 0
M  V30 2687 H 260.596 0.649787 -7.70063 0
M  V30 2688 H 258.941 0.591296 -6.9248 0
M  V30 2689 H 262.132 0.686472 -4.63039 0
M  V30 2690 H 262.305 0.69965 -6.44212 0
M  V30 2691 N 255.711 1.52812 0.385517 0
M  V30 2692 C 256.951 1.69716 1.13911 0
M  V30 2693 C 257.315 0.42962 1.87132 0
M  V30 2694 O 258.516 0.475071 2.64569 0
M  V30 2695 C 256.787 2.90021 2.0886 0
M  V30 2696 S 258.346 3.27531 2.92009 0
M  V30 2697 H 255.164 0.59739 0.385547 0
M  V30 2698 H 257.766 1.90868 0.423061 0
M  V30 2699 H 256.47 3.80493 1.53797 0
M  V30 2700 H 256.001 2.71213 2.84969 0
M  V30 2701 H 258.016 2.77989 4.11019 0
M  V30 2702 N 257.189 -0.644168 1.43834 0
M  V30 2703 C 258.139 -1.7501 1.46135 0
M  V30 2704 C 259.123 -1.57507 0.328685 0
M  V30 2705 O 260.315 -1.67465 0.5731 0
M  V30 2706 C 257.444 -3.13641 1.39585 0
M  V30 2707 C 256.53 -3.3666 2.57916 0
M  V30 2708 N 256.921 -3.30107 3.83227 0
M  V30 2709 C 255.219 -3.67411 2.52834 0
M  V30 2710 C 255.92 -3.53456 4.61999 0
M  V30 2711 N 254.896 -3.75705 3.9287 0
M  V30 2712 H 258.698 -1.68382 2.40883 0
M  V30 2713 H 256.212 -0.846169 1.38614 0
M  V30 2714 H 258.209 -3.92933 1.39317 0
M  V30 2715 H 256.869 -3.21444 0.45865 0
M  V30 2716 H 257.88 -3.09316 4.15384 0
M  V30 2717 H 254.557 -3.82275 1.67845 0
M  V30 2718 H 255.947 -3.54093 5.71024 0
M  V30 2719 N 258.668 -1.30515 -0.883378 0
M  V30 2720 C 259.6 -1.12846 -1.99496 0
M  V30 2721 C 260.613 -0.0712571 -1.62644 0
M  V30 2722 O 261.802 -0.317432 -1.75655 0
M  V30 2723 C 258.902 -0.699123 -3.3161 0
M  V30 2724 C 258.075 -1.83842 -3.96889 0
M  V30 2725 C 257.134 -1.39737 -5.07307 0
M  V30 2726 O 256.16 -2.10485 -5.28852 0
M  V30 2727 N 257.362 -0.277279 -5.79837 0
M  V30 2728 H 260.127 -2.08585 -2.15203 0
M  V30 2729 H 257.688 -1.22672 -1.05656 0
M  V30 2730 H 259.68 -0.387044 -4.02845 0
M  V30 2731 H 258.25 0.166276 -3.12157 0
M  V30 2732 H 257.47 -2.31853 -3.18807 0
M  V30 2733 H 258.758 -2.60187 -4.37241 0
M  V30 2734 H 258.156 0.3122 -5.64838 0
M  V30 2735 H 256.713 -0.0246623 -6.51795 0
M  V30 2736 N 260.146 1.09593 -1.13257 0
M  V30 2737 C 261.392 1.82003 -0.89458 0
M  V30 2738 C 261.725 1.85402 0.577906 0
M  V30 2739 O 261 1.32099 1.42759 0
M  V30 2740 C 261.283 3.28237 -1.48096 0
M  V30 2741 C 261.136 3.3312 -3.02244 0
M  V30 2742 C 262.455 4.24871 -1.14774 0
M  V30 2743 H 259.574 0.66077 -0.326424 0
M  V30 2744 H 262.216 1.28389 -1.40058 0
M  V30 2745 H 260.366 3.74024 -1.05062 0
M  V30 2746 H 262.038 2.95748 -3.54021 0
M  V30 2747 H 260.281 2.72756 -3.37323 0
M  V30 2748 H 260.952 4.3613 -3.38371 0
M  V30 2749 H 263.428 3.87361 -1.51957 0
M  V30 2750 H 262.304 5.25532 -1.58452 0
M  V30 2751 H 262.565 4.42058 -0.0611849 0
M  V30 2752 N 261.624 0.925811 1.2754 0
M  V30 2753 C 262.871 0.565255 1.94451 0
M  V30 2754 C 263.199 -0.89316 1.7278 0
M  V30 2755 O 262.454 -1.65213 1.04895 0
M  V30 2756 C 262.753 0.835296 3.47502 0
M  V30 2757 C 262.419 2.27515 3.89291 0
M  V30 2758 C 261.081 2.66879 4.00411 0
M  V30 2759 C 263.433 3.21158 4.10496 0
M  V30 2760 C 260.761 3.99014 4.30122 0
M  V30 2761 C 263.113 4.52871 4.4169 0
M  V30 2762 C 261.777 4.92072 4.51023 0
M  V30 2763 H 261.047 0.206841 0.711546 0
M  V30 2764 H 263.694 1.16942 1.51647 0
M  V30 2765 H 261.999 0.148442 3.91519 0
M  V30 2766 H 263.696 0.535322 3.97411 0
M  V30 2767 H 260.286 1.95976 3.81171 0
M  V30 2768 H 264.47 2.9195 4.01346 0
M  V30 2769 H 259.726 4.2907 4.35556 0
M  V30 2770 H 263.9 5.25436 4.57045 0
M  V30 2771 H 261.527 5.9449 4.738 0
M  V30 2772 N 263.102 -1.41638 0.69111 0
M  V30 2773 C 264.518 -1.55435 0.362224 0
M  V30 2774 C 264.718 -1.66754 -1.13117 0
M  V30 2775 O 263.774 -1.64348 -1.91692 0
M  V30 2776 C 265.087 -2.79588 1.10684 0
M  V30 2777 C 266.635 -2.9338 1.09075 0
M  V30 2778 C 267.11 -4.20414 1.81703 0
M  V30 2779 N 268.601 -4.27362 1.7865 0
M  V30 2780 C 269.336 -5.24507 2.31689 0
M  V30 2781 N 268.832 -6.27708 2.93179 0
M  V30 2782 N 270.625 -5.16416 2.2197 0
M  V30 2783 H 262.776 -1.32536 1.65976 0
M  V30 2784 H 265.039 -0.639115 0.700168 0
M  V30 2785 H 264.745 -2.77419 2.16175 0
M  V30 2786 H 264.619 -3.70973 0.682545 0
M  V30 2787 H 267.006 -2.95067 0.0441238 0
M  V30 2788 H 267.087 -2.0318 1.55407 0
M  V30 2789 H 266.731 -4.19488 2.86343 0
M  V30 2790 H 266.661 -5.09578 1.32808 0
M  V30 2791 H 269.152 -3.53415 1.33815 0
M  V30 2792 H 269.465 -6.98217 3.31229 0
M  V30 2793 H 267.81 -6.28223 2.97255 0
M  V30 2794 H 271.001 -4.34716 1.73607 0
M  V30 2795 H 271.174 -5.91958 2.63609 0
M  V30 2796 N 264.58 -0.43555 -1.51462 0
M  V30 2797 C 265.828 0.131254 -2.01673 0
M  V30 2798 C 266.149 1.43368 -1.32177 0
M  V30 2799 O 265.419 1.90524 -0.455769 0
M  V30 2800 H 263.999 0.0514954 -0.745223 0
M  V30 2801 H 266.661 -0.577847 -1.86137 0
M  V30 2802 H 265.757 0.308446 -3.10572 0
M  V30 2803 N 266.058 1.56714 -0.166846 0
M  V30 2804 C 267.304 1.97039 0.479962 0
M  V30 2805 C 267.637 1.05264 1.63197 0
M  V30 2806 O 266.912 0.0988833 1.94248 0
M  V30 2807 C 267.195 3.46867 0.967212 0
M  V30 2808 C 267.048 4.49421 -0.18466 0
M  V30 2809 C 268.367 3.9968 1.84238 0
M  V30 2810 H 265.486 0.71641 0.172992 0
M  V30 2811 H 268.128 1.8832 -0.252079 0
M  V30 2812 H 266.278 3.54428 1.59101 0
M  V30 2813 H 267.95 4.53924 -0.821621 0
M  V30 2814 H 266.193 4.25573 -0.840837 0
M  V30 2815 H 266.864 5.51644 0.198317 0
M  V30 2816 H 269.34 3.94723 1.31655 0
M  V30 2817 H 268.216 5.04941 2.15234 0
M  V30 2818 H 268.477 3.43226 2.78654 0
M  V30 2819 N 267.536 -0.106894 1.57237 0
M  V30 2820 C 268.486 -1.1366 1.9765 0
M  V30 2821 C 269.47 -1.36416 0.853203 0
M  V30 2822 O 270.662 -1.37305 1.11697 0
M  V30 2823 C 267.791 -2.46 2.39455 0
M  V30 2824 C 266.877 -2.26668 3.58445 0
M  V30 2825 N 267.268 -1.77176 4.73754 0
M  V30 2826 C 265.566 -2.57279 3.64312 0
M  V30 2827 C 266.267 -1.71836 5.5574 0
M  V30 2828 N 265.243 -2.16623 4.98573 0
M  V30 2829 H 269.045 -0.74669 2.84256 0
M  V30 2830 H 266.559 -0.314483 1.59326 0
M  V30 2831 H 268.556 -3.2049 2.6663 0
M  V30 2832 H 267.216 -2.85738 1.54219 0
M  V30 2833 H 268.227 -1.46545 4.96734 0
M  V30 2834 H 264.904 -3.00622 2.89711 0
M  V30 2835 H 266.294 -1.34723 6.58255 0
M  V30 2836 N 269.014 -1.53014 -0.377408 0
M  V30 2837 C 270.262 -1.6829 -1.11906 0
M  V30 2838 C 270.583 -0.431206 -1.90173 0
M  V30 2839 O 269.853 0.554595 -1.87886 0
M  V30 2840 H 268.433 -0.620371 -0.416112 0
M  V30 2841 H 271.095 -1.90167 -0.426893 0
M  V30 2842 H 270.191 -2.53862 -1.8155 0
M  V30 2843 N 270.492 0.636531 -1.44174 0
M  V30 2844 C 271.422 1.76003 -1.53444 0
M  V30 2845 C 272.403 1.65619 -0.387841 0
M  V30 2846 O 273.588 1.84461 -0.607257 0
M  V30 2847 C 270.718 3.14511 -1.4731 0
M  V30 2848 C 269.672 3.39677 -2.60391 0
M  V30 2849 C 268.998 4.78159 -2.39308 0
M  V30 2850 C 270.298 3.32772 -4.02567 0
M  V30 2851 H 271.992 1.68501 -2.47483 0
M  V30 2852 H 269.538 0.809237 -1.19111 0
M  V30 2853 H 271.491 3.92878 -1.52397 0
M  V30 2854 H 270.215 3.22783 -0.49785 0
M  V30 2855 H 268.874 2.63688 -2.54684 0
M  V30 2856 H 268.522 4.83128 -1.39988 0
M  V30 2857 H 268.222 4.95956 -3.15122 0
M  V30 2858 H 269.746 5.58762 -2.46205 0
M  V30 2859 H 271.16 4.01051 -4.09672 0
M  V30 2860 H 269.557 3.62104 -4.7854 0
M  V30 2861 H 270.627 2.30669 -4.2652 0
M  V30 2862 N 271.97 1.30982 0.876444 0
M  V30 2863 C 273.386 1.09498 1.16113 0
M  V30 2864 C 273.586 -0.13875 2.01022 0
M  V30 2865 O 272.642 -0.829935 2.38471 0
M  V30 2866 C 273.955 2.36308 1.85954 0
M  V30 2867 C 275.503 2.41856 1.98683 0
M  V30 2868 C 275.978 3.6853 2.71937 0
M  V30 2869 N 277.469 3.69387 2.79477 0
M  V30 2870 C 278.204 4.64096 3.36753 0
M  V30 2871 N 277.7 5.69155 3.95012 0
M  V30 2872 N 279.493 4.51626 3.3465 0
M  V30 2873 H 271.644 2.10118 0.310494 0
M  V30 2874 H 273.907 0.926634 0.200131 0
M  V30 2875 H 273.613 3.26388 1.31011 0
M  V30 2876 H 273.487 2.4561 2.86278 0
M  V30 2877 H 275.874 1.52249 2.52793 0
M  V30 2878 H 275.955 2.36523 0.9742 0
M  V30 2879 H 275.599 4.58499 2.18496 0
M  V30 2880 H 275.529 3.71127 3.73593 0
M  V30 2881 H 278.02 2.93438 2.38123 0
M  V30 2882 H 278.333 6.3751 4.36808 0
M  V30 2883 H 276.678 5.72937 3.93406 0
M  V30 2884 H 279.869 3.68728 2.8837 0
M  V30 2885 H 280.042 5.25614 3.7899 0
M  V30 2886 N 273.449 -1.08991 1.13837 0
M  V30 2887 C 274.696 -1.81258 0.902882 0
M  V30 2888 C 275.024 -1.85936 -0.570803 0
M  V30 2889 O 274.279 -1.3267 -1.43865 0
M  V30 2890 C 274.578 -3.27042 1.44147 0
M  V30 2891 C 274.244 -3.4249 2.93276 0
M  V30 2892 C 272.906 -3.46414 3.33992 0
M  V30 2893 C 275.258 -3.4666 3.892 0
M  V30 2894 C 272.586 -3.52091 4.69307 0
M  V30 2895 C 274.938 -3.53872 5.24364 0
M  V30 2896 C 273.602 -3.56066 5.646 0
M  V30 2897 H 272.872 -0.663268 0.330388 0
M  V30 2898 H 275.519 -1.28368 1.42105 0
M  V30 2899 H 273.824 -3.82599 0.844097 0
M  V30 2900 H 275.521 -3.81499 1.23528 0
M  V30 2901 H 272.111 -3.40124 2.60794 0
M  V30 2902 H 276.295 -3.42865 3.58828 0
M  V30 2903 H 271.551 -3.52079 4.9985 0
M  V30 2904 H 275.725 -3.56043 5.98503 0
M  V30 2905 H 273.352 -3.60218 6.69438 0
M  V30 2906 N 274.927 -0.932562 -1.27047 0
M  V30 2907 C 276.343 -0.633544 -1.46487 0
M  V30 2908 C 276.543 0.815746 -1.84249 0
M  V30 2909 O 275.599 1.59319 -1.95892 0
M  V30 2910 C 276.912 -1.58758 -2.55375 0
M  V30 2911 C 278.46 -1.59634 -2.69232 0
M  V30 2912 C 278.935 -2.53747 -3.81283 0
M  V30 2913 N 280.426 -2.51982 -3.88664 0
M  V30 2914 C 281.161 -3.21491 -4.74796 0
M  V30 2915 N 280.657 -4.00395 -5.65381 0
M  V30 2916 N 282.45 -3.10485 -4.68568 0
M  V30 2917 H 274.601 -1.86946 -1.00821 0
M  V30 2918 H 276.864 -0.802897 -0.504044 0
M  V30 2919 H 276.57 -2.62172 -2.34432 0
M  V30 2920 H 276.444 -1.33301 -3.52861 0
M  V30 2921 H 278.831 -0.569488 -2.89553 0
M  V30 2922 H 278.912 -1.89142 -1.72218 0
M  V30 2923 H 278.556 -3.56545 -3.61715 0
M  V30 2924 H 278.486 -2.21532 -4.77735 0
M  V30 2925 H 280.977 -1.94681 -3.23895 0
M  V30 2926 H 281.29 -4.50406 -6.27976 0
M  V30 2927 H 279.635 -4.04498 -5.65161 0
M  V30 2928 H 282.826 -2.48331 -3.96799 0
M  V30 2929 H 282.999 -3.64925 -5.35475 0
M  V30 2930 N 276.405 1.4127 -0.698611 0
M  V30 2931 C 277.816 1.84187 -0.305289 0
M  V30 2932 C 278.167 1.58449 1.15708 0
M  V30 2933 O 277.292 1.05651 1.88856 0
M  V30 2934 C 277.887 3.3435 -0.547314 0
M  V30 2935 C 276.446 3.75826 -0.207878 0
M  V30 2936 C 275.593 2.64647 -0.828099 0
M  V30 2937 H 278.544 1.30778 -0.89904 0
M  V30 2938 H 278.565 3.8001 0.192998 0
M  V30 2939 H 278.077 3.53051 -1.61172 0
M  V30 2940 H 276.178 3.62725 0.852143 0
M  V30 2941 H 276.291 4.74462 -0.665021 0
M  V30 2942 H 274.655 2.53395 -0.257458 0
M  V30 2943 H 275.438 2.86165 -1.89643 0
M  V30 2944 N 277.883 0.443576 1.51229 0
M  V30 2945 C 278.846 -0.353132 2.26463 0
M  V30 2946 C 279.846 -0.944338 1.3015 0
M  V30 2947 O 281.036 -0.817813 1.5381 0
M  V30 2948 C 278.168 -1.50023 3.06114 0
M  V30 2949 H 279.361 0.3063 2.98332 0
M  V30 2950 H 276.914 0.196902 1.55055 0
M  V30 2951 H 277.649 -2.19553 2.38677 0
M  V30 2952 H 277.434 -1.08241 3.76864 0
M  V30 2953 H 278.924 -2.06296 3.63087 0
M  V30 2954 N 279.361 -1.56624 0.175154 0
M  V30 2955 C 280.609 -1.96609 -0.467885 0
M  V30 2956 C 280.93 -1.06238 -1.63519 0
M  V30 2957 O 280.2 -0.129523 -1.95471 0
M  V30 2958 H 278.78 -0.726008 -0.175845 0
M  V30 2959 H 281.442 -1.93195 0.257234 0
M  V30 2960 H 280.538 -3.00989 -0.825342 0
M  V30 2961 N 280.839 0.0985539 -1.57292 0
M  V30 2962 C 282.25 0.653457 -1.74891 0
M  V30 2963 C 282.601 1.7929 -0.796838 0
M  V30 2964 O 281.726 2.16385 0.0254886 0
M  V30 2965 C 282.321 1.19216 -3.17133 0
M  V30 2966 C 280.88 1.69316 -3.36168 0
M  V30 2967 C 280.027 0.601294 -2.70702 0
M  V30 2968 H 282.978 -0.127497 -1.58187 0
M  V30 2969 H 282.999 2.06154 -3.19814 0
M  V30 2970 H 282.511 0.362635 -3.86402 0
M  V30 2971 H 280.612 2.5468 -2.71972 0
M  V30 2972 H 280.725 1.78853 -4.44464 0
M  V30 2973 H 279.089 1.0399 -2.32504 0
M  V30 2974 H 279.872 -0.217592 -3.4261 0
M  V30 2975 N 282.317 1.53212 0.369288 0
M  V30 2976 C 283.733 1.42902 0.710712 0
M  V30 2977 C 283.933 0.565135 1.93413 0
M  V30 2978 O 282.989 0.0461484 2.52458 0
M  V30 2979 C 284.302 2.86042 0.927382 0
M  V30 2980 C 285.85 2.9565 1.02762 0
M  V30 2981 C 286.325 4.39843 1.27679 0
M  V30 2982 N 287.816 4.43256 1.34457 0
M  V30 2983 C 288.551 5.51929 1.55439 0
M  V30 2984 N 288.047 6.70655 1.73762 0
M  V30 2985 N 289.84 5.39502 1.57779 0
M  V30 2986 H 281.991 2.07888 -0.435457 0
M  V30 2987 H 284.254 0.938661 -0.132739 0
M  V30 2988 H 283.96 3.51557 0.100287 0
M  V30 2989 H 283.834 3.29472 1.83653 0
M  V30 2990 H 286.221 2.30291 1.84527 0
M  V30 2991 H 286.302 2.5562 0.0959504 0
M  V30 2992 H 285.946 5.05774 0.464175 0
M  V30 2993 H 285.876 4.77443 2.22162 0
M  V30 2994 H 288.367 3.5769 1.21926 0
M  V30 2995 H 288.68 7.49248 1.89335 0
M  V30 2996 H 287.025 6.73648 1.70948 0
M  V30 2997 H 290.216 4.45713 1.43029 0
M  V30 2998 H 290.389 6.2426 1.7379 0
M  V30 2999 N 283.795 -0.628877 1.44509 0
M  V30 3000 C 284.758 -1.72263 1.51188 0
M  V30 3001 C 285.758 -1.55907 0.39367 0
M  V30 3002 O 286.948 -1.61361 0.656377 0
M  V30 3003 C 284.08 -3.11365 1.38798 0
M  V30 3004 H 285.273 -1.67714 2.4862 0
M  V30 3005 H 282.826 -0.842737 1.31634 0
M  V30 3006 H 283.561 -3.21507 0.424693 0
M  V30 3007 H 283.346 -3.24644 2.19884 0
M  V30 3008 H 284.836 -3.91075 1.46458 0
M  V30 3009 N 285.273 -1.31445 -0.869486 0
M  V30 3010 C 286.501 -1.24122 -1.65534 0
M  V30 3011 C 286.916 0.193387 -1.87807 0
M  V30 3012 O 286.273 1.12557 -1.43656 0
M  V30 3013 C 286.324 -1.98229 -3.02304 0
M  V30 3014 O 286.045 -3.3609 -2.81026 0
M  V30 3015 C 287.546 -1.97751 -3.96749 0
M  V30 3016 H 284.766 -0.428868 -0.516055 0
M  V30 3017 H 287.31 -1.73328 -1.08525 0
M  V30 3018 H 285.465 -1.52782 -3.56001 0
M  V30 3019 H 285.879 -3.7383 -3.67902 0
M  V30 3020 H 287.353 -2.54114 -4.90031 0
M  V30 3021 H 287.83 -0.960137 -4.28577 0
M  V30 3022 H 288.436 -2.43079 -3.48988 0
M  V30 3023 N 286.751 1.08385 -1.14413 0
M  V30 3024 C 287.997 1.81044 -0.913834 0
M  V30 3025 C 288.33 1.86004 0.558209 0
M  V30 3026 O 287.605 1.33606 1.4135 0
M  V30 3027 C 287.888 3.26648 -1.51569 0
M  V30 3028 C 287.741 3.29895 -3.0576 0
M  V30 3029 C 289.06 4.23629 -1.19273 0
M  V30 3030 H 286.179 0.65727 -0.333414 0
M  V30 3031 H 288.821 1.26896 -1.41412 0
M  V30 3032 H 286.971 3.72889 -1.09023 0
M  V30 3033 H 288.643 2.91977 -3.57137 0
M  V30 3034 H 286.886 2.69163 -3.40197 0
M  V30 3035 H 287.557 4.32516 -3.42977 0
M  V30 3036 H 290.033 3.85727 -1.56057 0
M  V30 3037 H 288.909 5.23822 -1.64017 0
M  V30 3038 H 289.17 4.41968 -0.108068 0
M  V30 3039 N 288.23 0.939286 1.26551 0
M  V30 3040 C 289.646 0.641304 1.46149 0
M  V30 3041 C 289.846 -0.805964 1.84679 0
M  V30 3042 O 288.902 -1.58278 1.96734 0
M  V30 3043 C 290.215 1.6011 2.54529 0
M  V30 3044 C 291.763 1.6106 2.68382 0
M  V30 3045 C 292.238 2.55765 3.79932 0
M  V30 3046 N 293.729 2.5404 3.87322 0
M  V30 3047 C 294.464 3.24004 4.73085 0
M  V30 3048 N 293.96 4.03388 5.63249 0
M  V30 3049 N 295.753 3.12965 4.66914 0
M  V30 3050 H 287.904 1.87478 0.998285 0
M  V30 3051 H 290.167 0.805559 0.499779 0
M  V30 3052 H 289.873 2.63412 2.33039 0
M  V30 3053 H 289.747 1.35171 3.52149 0
M  V30 3054 H 292.134 0.584835 2.89247 0
M  V30 3055 H 292.215 1.90053 1.71212 0
M  V30 3056 H 291.859 3.58458 3.5982 0
M  V30 3057 H 291.789 2.24063 4.76554 0
M  V30 3058 H 294.28 1.96396 3.22858 0
M  V30 3059 H 294.593 4.5373 6.25579 0
M  V30 3060 H 292.938 4.07489 5.63008 0
M  V30 3061 H 296.129 2.50432 3.95476 0
M  V30 3062 H 296.302 3.67759 5.33533 0
M  V30 3063 N 289.708 -1.40897 0.706093 0
M  V30 3064 C 290.638 -2.33418 0.0620085 0
M  V30 3065 C 291.619 -1.52385 -0.755827 0
M  V30 3066 O 292.804 -1.80886 -0.706674 0
M  V30 3067 C 289.934 -3.36293 -0.867445 0
M  V30 3068 C 288.888 -4.27716 -0.155932 0
M  V30 3069 C 288.214 -5.2105 -1.20046 0
M  V30 3070 C 289.514 -5.12944 0.984149 0
M  V30 3071 H 291.208 -2.87527 0.83477 0
M  V30 3072 H 288.754 -1.38249 0.402875 0
M  V30 3073 H 290.707 -3.99949 -1.32735 0
M  V30 3074 H 289.431 -2.80556 -1.67199 0
M  V30 3075 H 288.09 -3.65498 0.284047 0
M  V30 3076 H 287.738 -4.61624 -1.99781 0
M  V30 3077 H 287.438 -5.83056 -0.729328 0
M  V30 3078 H 288.962 -5.87584 -1.66066 0
M  V30 3079 H 290.376 -5.70109 0.604048 0
M  V30 3080 H 288.773 -5.83945 1.38304 0
M  V30 3081 H 289.843 -4.49485 1.81911 0
M  V30 3082 N 291.186 -0.45159 -1.50991 0
M  V30 3083 C 292.434 0.109857 -2.01801 0
M  V30 3084 C 292.755 1.41958 -1.3369 0
M  V30 3085 O 292.025 1.9003 -0.475951 0
M  V30 3086 H 290.605 0.0435884 -0.745727 0
M  V30 3087 H 293.267 -0.597557 -1.85514 0
M  V30 3088 H 292.363 0.275489 -3.10882 0
M  V30 3089 N 292.664 1.56529 -0.183458 0
M  V30 3090 C 293.912 1.96855 0.457452 0
M  V30 3091 C 294.233 1.07104 1.62953 0
M  V30 3092 O 293.503 0.139887 1.954 0
M  V30 3093 H 292.083 0.72693 0.171992 0
M  V30 3094 H 294.745 1.93056 -0.267476 0
M  V30 3095 H 293.841 3.01423 0.809368 0
M  V30 3096 N 294.142 -0.090211 1.57342 0
M  V30 3097 C 295.389 -0.792807 1.86335 0
M  V30 3098 C 295.717 -1.78494 0.772662 0
M  V30 3099 O 294.972 -1.94305 -0.233258 0
M  V30 3100 C 295.271 -1.55222 3.21933 0
M  V30 3101 C 294.937 -0.701765 4.45406 0
M  V30 3102 C 293.599 -0.467334 4.78925 0
M  V30 3103 C 295.951 -0.11086 5.21082 0
M  V30 3104 C 293.279 0.367785 5.85546 0
M  V30 3105 C 295.631 0.711609 6.28585 0
M  V30 3106 C 294.295 0.956086 6.60617 0
M  V30 3107 H 293.565 -0.290109 0.681849 0
M  V30 3108 H 296.212 -0.0541332 1.91423 0
M  V30 3109 H 294.517 -2.3626 3.12551 0
M  V30 3110 H 296.214 -2.10032 3.41595 0
M  V30 3111 H 292.804 -0.894598 4.1916 0
M  V30 3112 H 296.988 -0.279129 4.95514 0
M  V30 3113 H 292.244 0.566128 6.08773 0
M  V30 3114 H 296.418 1.17632 6.86393 0
M  V30 3115 H 294.045 1.60499 7.43064 0
M  V30 3116 N 295.62 -1.53406 -0.361157 0
M  V30 3117 C 296.583 -1.79479 -1.42548 0
M  V30 3118 C 297.583 -0.665327 -1.4639 0
M  V30 3119 O 298.773 -0.933549 -1.47073 0
M  V30 3120 C 295.905 -1.92087 -2.8163 0
M  V30 3121 H 297.098 -2.74538 -1.20701 0
M  V30 3122 H 294.651 -1.4455 -0.594546 0
M  V30 3123 H 295.386 -0.991099 -3.08784 0
M  V30 3124 H 295.171 -2.74241 -2.80239 0
M  V30 3125 H 296.661 -2.13836 -3.58697 0
M  V30 3126 N 297.098 0.621204 -1.44841 0
M  V30 3127 C 298.323 1.41244 -1.51871 0
M  V30 3128 C 298.748 1.87519 -0.147764 0
M  V30 3129 O 298.106 1.59334 0.865 0
M  V30 3130 C 298.154 2.60221 -2.49634 0
M  V30 3131 O 297.258 3.60395 -2.00473 0
M  V30 3132 H 296.599 0.42223 -0.512463 0
M  V30 3133 H 299.129 0.757305 -1.90069 0
M  V30 3134 H 299.139 3.0764 -2.67996 0
M  V30 3135 H 297.814 2.25887 -3.4921 0
M  V30 3136 H 296.391 3.19717 -1.91925 0
M  V30 3137 N 298.576 1.31904 0.862503 0
M  V30 3138 C 299.539 1.20131 1.95195 0
M  V30 3139 C 300.539 0.126409 1.60302 0
M  V30 3140 O 301.729 0.376234 1.70089 0
M  V30 3141 C 298.861 0.845691 3.30244 0
M  V30 3142 H 300.054 2.16943 2.07064 0
M  V30 3143 H 297.607 1.15622 1.05172 0
M  V30 3144 H 298.342 -0.120957 3.24074 0
M  V30 3145 H 298.127 1.62276 3.56944 0
M  V30 3146 H 299.617 0.787418 4.10109 0
M  V30 3147 N 300.054 -1.07777 1.14986 0
M  V30 3148 C 301.279 -1.84558 0.946213 0
M  V30 3149 C 301.704 -1.81323 -0.500362 0
M  V30 3150 O 301.062 -1.20301 -1.35637 0
M  V30 3151 C 301.11 -3.29736 1.45968 0
M  V30 3152 O 300.214 -4.07149 0.65601 0
M  V30 3153 H 299.555 -0.571641 0.33782 0
M  V30 3154 H 302.085 -1.35991 1.52865 0
M  V30 3155 H 302.095 -3.80574 1.47063 0
M  V30 3156 H 300.77 -3.31406 2.51283 0
M  V30 3157 H 299.347 -3.65994 0.714322 0
M  V30 3158 N 301.532 -0.945985 -1.26051 0
M  V30 3159 C 302.462 -0.477172 -2.28572 0
M  V30 3160 C 303.443 0.472032 -1.63419 0
M  V30 3161 O 304.628 0.372853 -1.90587 0
M  V30 3162 C 301.758 0.253975 -3.4637 0
M  V30 3163 C 300.712 -0.609135 -4.23643 0
M  V30 3164 C 300.038 0.252252 -5.34105 0
M  V30 3165 C 301.338 -1.8829 -4.8718 0
M  V30 3166 H 303.032 -1.33402 -2.68038 0
M  V30 3167 H 300.578 -0.642904 -1.28852 0
M  V30 3168 H 302.531 0.593016 -4.17207 0
M  V30 3169 H 301.255 1.145 -3.05871 0
M  V30 3170 H 299.914 -0.931138 -3.54578 0
M  V30 3171 H 299.562 1.14278 -4.89846 0
M  V30 3172 H 299.262 -0.32188 -5.86718 0
M  V30 3173 H 300.786 0.586454 -6.07777 0
M  V30 3174 H 302.2 -1.61081 -5.50205 0
M  V30 3175 H 300.597 -2.40199 -5.49931 0
M  V30 3176 H 301.667 -2.59134 -4.09851 0
M  V30 3177 N 303.011 1.40521 -0.713556 0
M  V30 3178 C 303.958 2.30723 -0.059684 0
M  V30 3179 C 304.928 1.48079 0.752448 0
M  V30 3180 O 306.113 1.76823 0.71681 0
M  V30 3181 C 303.253 3.34274 0.857594 0
M  V30 3182 C 302.366 4.31986 0.0351536 0
M  V30 3183 C 301.501 5.22605 0.951724 0
M  V30 3184 C 300.54 6.11976 0.123253 0
M  V30 3185 N 299.677 6.9502 0.99459 0
M  V30 3186 H 304.517 2.86074 -0.834596 0
M  V30 3187 H 302.054 1.40879 -0.42326 0
M  V30 3188 H 304.012 3.92879 1.40364 0
M  V30 3189 H 302.642 2.8043 1.59871 0
M  V30 3190 H 301.694 3.7518 -0.628052 0
M  V30 3191 H 303.006 4.95101 -0.606347 0
M  V30 3192 H 302.16 5.86131 1.56638 0
M  V30 3193 H 300.899 4.59759 1.62705 0
M  V30 3194 H 299.904 5.47482 -0.50435 0
M  V30 3195 H 301.129 6.76881 -0.548539 0
M  V30 3196 H 299.075 6.34764 1.6556 0
M  V30 3197 H 298.992 7.54892 0.40908 0
M  V30 3198 H 300.26 7.62997 1.59549 0
M  V30 3199 N 304.489 0.459591 1.5075 0
M  V30 3200 C 305.439 -0.358926 2.25157 0
M  V30 3201 C 306.423 -0.971285 1.28276 0
M  V30 3202 O 307.615 -0.885739 1.53244 0
M  V30 3203 C 304.744 -1.44695 3.11317 0
M  V30 3204 C 303.83 -0.842894 4.15639 0
M  V30 3205 N 304.221 0.0299373 5.05791 0
M  V30 3206 C 302.519 -1.10809 4.32015 0
M  V30 3207 C 303.22 0.371563 5.80512 0
M  V30 3208 N 302.196 -0.250409 5.43023 0
M  V30 3209 H 305.998 0.313636 2.92222 0
M  V30 3210 H 303.512 0.273021 1.60089 0
M  V30 3211 H 305.509 -2.04641 3.63218 0
M  V30 3212 H 304.169 -2.12162 2.45799 0
M  V30 3213 H 305.18 0.39797 5.16369 0
M  V30 3214 H 301.857 -1.7786 3.77719 0
M  V30 3215 H 303.247 1.08319 6.63111 0
M  V30 3216 N 305.967 -1.56429 0.191757 0
M  V30 3217 C 307.213 -1.97777 -0.448554 0
M  V30 3218 C 307.546 -1.07847 -1.61501 0
M  V30 3219 O 306.821 -0.129774 -1.94067 0
M  V30 3220 C 307.104 -3.48362 -0.911906 0
M  V30 3221 C 306.957 -4.4907 0.256136 0
M  V30 3222 C 308.276 -4.02561 -1.77857 0
M  V30 3223 H 305.395 -0.719071 -0.161572 0
M  V30 3224 H 308.037 -1.87896 0.282007 0
M  V30 3225 H 306.187 -3.56914 -1.53442 0
M  V30 3226 H 307.859 -4.5256 0.893733 0
M  V30 3227 H 306.102 -4.24181 0.908436 0
M  V30 3228 H 306.773 -5.51889 -0.11053 0
M  V30 3229 H 309.249 -3.96767 -1.25359 0
M  V30 3230 H 308.125 -5.08301 -2.07174 0
M  V30 3231 H 308.386 -3.47616 -2.73158 0
M  V30 3232 N 307.445 0.0818655 -1.57387 0
M  V30 3233 C 308.408 1.08265 -2.02018 0
M  V30 3234 C 309.408 1.32183 -0.915664 0
M  V30 3235 O 310.598 1.28073 -1.18081 0
M  V30 3236 C 307.73 2.42871 -2.39221 0
M  V30 3237 H 308.923 0.698204 -2.91659 0
M  V30 3238 H 306.476 0.327303 -1.52835 0
M  V30 3239 H 307.211 2.86167 -1.52575 0
M  V30 3240 H 306.996 2.26855 -3.19811 0
M  V30 3241 H 308.486 3.14826 -2.74362 0
M  V30 3242 N 308.923 1.53595 0.353017 0
M  V30 3243 C 309.886 1.80232 1.41594 0
M  V30 3244 C 310.886 0.673081 1.46035 0
M  V30 3245 O 312.076 0.941335 1.46576 0
M  V30 3246 C 309.208 1.93578 2.80607 0
M  V30 3247 H 310.401 2.75174 1.19244 0
M  V30 3248 H 307.954 1.44864 0.586872 0
M  V30 3249 H 308.689 1.00746 3.08254 0
M  V30 3250 H 308.474 2.75724 2.78781 0
M  V30 3251 H 309.964 2.15735 3.57558 0
M  V30 3252 N 310.401 -0.613514 1.45168 0
M  V30 3253 C 311.333 -1.73825 1.4939 0
M  V30 3254 C 312.346 -1.58175 0.385304 0
M  V30 3255 O 313.535 -1.66165 0.652036 0
M  V30 3256 C 310.635 -3.11758 1.32891 0
M  V30 3257 C 309.808 -3.53704 2.57317 0
M  V30 3258 C 308.867 -4.70579 2.35462 0
M  V30 3259 O 307.893 -4.77996 3.09044 0
M  V30 3260 N 309.095 -5.63454 1.39644 0
M  V30 3261 H 311.86 -1.70669 2.46358 0
M  V30 3262 H 309.421 -0.79862 1.40832 0
M  V30 3263 H 311.413 -3.87692 1.1609 0
M  V30 3264 H 309.983 -3.09456 0.442218 0
M  V30 3265 H 309.203 -2.67794 2.89275 0
M  V30 3266 H 310.491 -3.78486 3.40038 0
M  V30 3267 H 309.889 -5.6017 0.789062 0
M  V30 3268 H 308.446 -6.38944 1.28816 0
M  V30 3269 N 311.879 -1.3236 -0.855495 0
M  V30 3270 C 312.811 -1.17052 -1.97057 0
M  V30 3271 C 313.824 -0.10574 -1.62456 0
M  V30 3272 O 315.013 -0.354619 -1.74942 0
M  V30 3273 C 312.113 -0.769305 -3.30053 0
M  V30 3274 C 311.286 -1.9222 -3.929 0
M  V30 3275 C 310.345 -1.50466 -5.04228 0
M  V30 3276 O 309.371 -2.21655 -5.24269 0
M  V30 3277 N 310.573 -0.400209 -5.79119 0
M  V30 3278 H 313.338 -2.13103 -2.1073 0
M  V30 3279 H 310.899 -1.24885 -1.0303 0
M  V30 3280 H 312.891 -0.472407 -4.01933 0
M  V30 3281 H 311.461 0.100025 -3.1244 0
M  V30 3282 H 310.681 -2.38563 -3.13817 0
M  V30 3283 H 311.969 -2.69403 -4.31624 0
M  V30 3284 H 311.367 0.192319 -5.65373 0
M  V30 3285 H 309.924 -0.162912 -6.51596 0
M  V30 3286 N 313.357 1.07166 -1.15556 0
M  V30 3287 C 314.604 1.79798 -0.931604 0
M  V30 3288 C 314.932 1.8682 0.54115 0
M  V30 3289 O 314.187 1.34942 1.41736 0
M  V30 3290 C 314.486 3.24707 -1.49332 0
M  V30 3291 C 314.152 3.37781 -2.98688 0
M  V30 3292 C 312.814 3.41057 -3.39461 0
M  V30 3293 C 315.166 3.40424 -3.94665 0
M  V30 3294 C 312.494 3.4458 -4.74849 0
M  V30 3295 C 314.846 3.45485 -5.29927 0
M  V30 3296 C 313.51 3.47039 -5.70193 0
M  V30 3297 H 312.78 0.657928 -0.340898 0
M  V30 3298 H 315.427 1.26091 -1.44129 0
M  V30 3299 H 313.732 3.81208 -0.904859 0
M  V30 3300 H 315.429 3.79486 -1.29582 0
M  V30 3301 H 312.019 3.35932 -2.66172 0
M  V30 3302 H 316.203 3.37113 -3.64237 0
M  V30 3303 H 311.459 3.44083 -5.05388 0
M  V30 3304 H 315.633 3.46476 -6.04092 0
M  V30 3305 H 313.26 3.49522 -6.75084 0
M  V30 3306 N 314.835 0.952656 1.25548 0
M  V30 3307 C 316.083 0.605176 1.92826 0
M  V30 3308 C 316.404 -0.860261 1.74999 0
M  V30 3309 O 315.674 -1.6125 1.11244 0
M  V30 3310 H 314.254 0.220832 0.713612 0
M  V30 3311 H 316.916 1.21047 1.52754 0
M  V30 3312 H 316.012 0.832798 3.00784 0
M  V30 3313 N 316.313 -1.40141 0.720998 0
M  V30 3314 C 317.223 -2.34486 0.0731031 0
M  V30 3315 C 318.239 -1.57587 -0.737723 0
M  V30 3316 O 319.415 -1.89949 -0.669429 0
M  V30 3317 C 316.48 -3.36528 -0.833656 0
M  V30 3318 C 315.541 -4.29298 -0.0121673 0
M  V30 3319 C 314.774 -5.26466 -0.875742 0
M  V30 3320 O 314.997 -5.29745 -2.11485 0
M  V30 3321 O 313.931 -6.01092 -0.31185 0
M  V30 3322 H 317.757 -2.9152 0.851444 0
M  V30 3323 H 315.342 -1.41427 0.481527 0
M  V30 3324 H 317.224 -3.99093 -1.35289 0
M  V30 3325 H 315.899 -2.81899 -1.59105 0
M  V30 3326 H 314.806 -3.70001 0.552262 0
M  V30 3327 H 316.139 -4.87094 0.707129 0
M  V30 3328 N 317.792 -0.46758 -1.50504 0
M  V30 3329 C 319.069 0.15003 -1.95024 0
M  V30 3330 C 319.449 1.57304 -1.40779 0
M  V30 3331 O 318.797 2.20281 -0.607319 0
M  V30 3332 C 319.007 0.0969324 -3.48865 0
M  V30 3333 C 320.355 0.287565 -4.23625 0
M  V30 3334 O 321.379 0.173678 -3.55776 0
M  V30 3335 O 320.238 0.517186 -5.44047 0
M  V30 3336 H 317.332 0.113582 -0.819163 0
M  V30 3337 H 319.878 -0.52773 -1.61286 0
M  V30 3338 H 318.65 -0.896732 -3.80886 0
M  V30 3339 H 318.273 0.816303 -3.8913 0
M  V30 3340 N 319.27 1.56325 -0.20005 0
M  V30 3341 C 320.498 2.02105 0.442874 0
M  V30 3342 C 320.913 1.08014 1.5485 0
M  V30 3343 O 320.27 0.0858797 1.82298 0
M  V30 3344 C 320.321 3.47549 0.994583 0
M  V30 3345 O 320.042 4.38049 -0.0669322 0
M  V30 3346 C 321.543 4.0887 1.7129 0
M  V30 3347 H 318.763 0.661807 0.110691 0
M  V30 3348 H 321.307 2.02134 -0.310207 0
M  V30 3349 H 319.462 3.48204 1.69803 0
M  V30 3350 H 319.876 5.23368 0.344462 0
M  V30 3351 H 321.35 5.12475 2.05118 0
M  V30 3352 H 321.827 3.52615 2.61838 0
M  V30 3353 H 322.433 4.12002 1.05518 0
M  V30 3354 N 320.748 -0.0735177 1.57428 0
M  V30 3355 C 321.995 -0.772999 1.87166 0
M  V30 3356 C 322.323 -1.77665 0.791551 0
M  V30 3357 O 321.578 -1.94541 -0.212636 0
M  V30 3358 C 321.877 -1.51799 3.23561 0
M  V30 3359 C 321.543 -0.654484 4.46125 0
M  V30 3360 C 320.205 -0.416511 4.79394 0
M  V30 3361 C 322.557 -0.0555862 5.2117 0
M  V30 3362 C 319.885 0.429869 5.85123 0
M  V30 3363 C 322.237 0.778239 6.27795 0
M  V30 3364 C 320.901 1.0261 6.59566 0
M  V30 3365 H 320.171 -0.282861 0.684888 0
M  V30 3366 H 322.818 -0.0338272 1.9147 0
M  V30 3367 H 321.123 -2.32932 3.1504 0
M  V30 3368 H 322.82 -2.06397 3.43804 0
M  V30 3369 H 319.41 -0.850091 4.20085 0
M  V30 3370 H 323.594 -0.226558 4.95783 0
M  V30 3371 H 318.85 0.630665 6.08139 0
M  V30 3372 H 323.024 1.24906 6.85107 0
M  V30 3373 H 320.651 1.68371 7.4132 0
M  V30 3374 N 322.226 -1.5378 -0.344866 0
M  V30 3375 C 323.473 -1.70963 -1.08526 0
M  V30 3376 C 323.801 -0.472126 -1.88683 0
M  V30 3377 O 323.056 0.546116 -1.87926 0
M  V30 3378 C 323.355 -2.92407 -2.05506 0
M  V30 3379 C 323.021 -4.28066 -1.41671 0
M  V30 3380 C 321.683 -4.64951 -1.2399 0
M  V30 3381 C 324.035 -5.12344 -0.956726 0
M  V30 3382 C 321.363 -5.83733 -0.589277 0
M  V30 3383 C 323.715 -6.3179 -0.320015 0
M  V30 3384 C 322.379 -6.67372 -0.130881 0
M  V30 3385 H 321.649 -0.625598 -0.397124 0
M  V30 3386 H 324.296 -1.87995 -0.36469 0
M  V30 3387 H 322.601 -2.69973 -2.8394 0
M  V30 3388 H 324.298 -3.02895 -2.62784 0
M  V30 3389 H 320.888 -3.99034 -1.56429 0
M  V30 3390 H 325.072 -4.8438 -1.08118 0
M  V30 3391 H 320.328 -6.09877 -0.431344 0
M  V30 3392 H 324.502 -6.96386 0.0445072 0
M  V30 3393 H 322.129 -7.59273 0.375318 0
M  V30 3394 N 323.704 0.605807 -1.45491 0
M  V30 3395 C 324.952 1.36207 -1.49305 0
M  V30 3396 C 325.273 1.94519 -0.136863 0
M  V30 3397 O 324.543 1.77261 0.833983 0
M  V30 3398 H 323.123 0.50565 -0.549843 0
M  V30 3399 H 325.785 0.711239 -1.81459 0
M  V30 3400 H 324.881 2.18058 -2.23287 0
M  V30 3401 N 325.182 1.32811 0.848464 0
M  V30 3402 C 326.431 1.23075 1.59798 0
M  V30 3403 C 326.744 -0.204419 1.94529 0
M  V30 3404 O 327.95 -0.423701 2.68173 0
M  V30 3405 C 326.406 2.15594 2.88179 0
M  V30 3406 C 326.014 3.64228 2.60849 0
M  V30 3407 C 327.758 2.14709 3.66197 0
M  V30 3408 C 325.665 4.48689 3.85269 0
M  V30 3409 H 324.595 0.457091 0.599653 0
M  V30 3410 H 327.246 1.57813 0.936342 0
M  V30 3411 H 325.628 1.73778 3.55833 0
M  V30 3412 H 326.802 4.14424 2.01467 0
M  V30 3413 H 325.117 3.67306 1.96151 0
M  V30 3414 H 327.714 2.75046 4.58534 0
M  V30 3415 H 328.057 1.13966 4.00397 0
M  V30 3416 H 328.59 2.54837 3.05455 0
M  V30 3417 H 325.329 5.5027 3.56207 0
M  V30 3418 H 324.849 4.03241 4.44024 0
M  V30 3419 H 326.528 4.62006 4.52946 0
M  V30 3420 N 326.66 -1.06551 1.16123 0
M  V30 3421 C 327.906 -1.79719 0.952505 0
M  V30 3422 C 328.261 -1.85396 -0.514385 0
M  V30 3423 O 327.554 -1.33263 -1.37665 0
M  V30 3424 C 327.748 -3.23911 1.51052 0
M  V30 3425 C 327.577 -3.32284 3.03013 0
M  V30 3426 C 326.347 -3.42371 3.71632 0
M  V30 3427 C 328.545 -3.22363 4.00732 0
M  V30 3428 N 326.527 -3.39732 5.11327 0
M  V30 3429 C 327.898 -3.26937 5.26794 0
M  V30 3430 C 329.953 -3.0623 3.92591 0
M  V30 3431 C 328.656 -3.17035 6.45663 0
M  V30 3432 C 330.682 -2.97665 5.11028 0
M  V30 3433 C 330.044 -3.02858 6.35969 0
M  V30 3434 H 326.143 -0.670585 0.402293 0
M  V30 3435 H 328.727 -1.27125 1.4747 0
M  V30 3436 H 326.898 -3.74907 1.01484 0
M  V30 3437 H 328.63 -3.85242 1.2398 0
M  V30 3438 H 325.385 -3.47058 3.22254 0
M  V30 3439 H 325.809 -3.41919 5.84312 0
M  V30 3440 H 330.451 -3.01063 2.96852 0
M  V30 3441 H 328.169 -3.2096 7.41627 0
M  V30 3442 H 331.755 -2.86273 5.06497 0
M  V30 3443 H 330.635 -2.96286 7.26075 0
M  V30 3444 N 328.138 -0.959301 -1.25041 0
M  V30 3445 C 329.366 -0.633949 -1.96948 0
M  V30 3446 C 329.781 0.794916 -1.7125 0
M  V30 3447 O 329.138 1.53231 -0.991287 0
M  V30 3448 C 329.189 -0.888805 -3.50403 0
M  V30 3449 O 328.91 -2.26149 -3.75218 0
M  V30 3450 C 330.411 -0.576482 -4.39536 0
M  V30 3451 H 327.631 -0.237263 -0.627652 0
M  V30 3452 H 330.175 -1.28495 -1.59089 0
M  V30 3453 H 328.33 -0.284145 -3.86357 0
M  V30 3454 H 328.744 -2.33514 -4.6965 0
M  V30 3455 H 330.218 -0.805314 -5.46094 0
M  V30 3456 H 330.695 0.489075 -4.36468 0
M  V30 3457 H 331.301 -1.16067 -4.09156 0
M  V30 3458 N 329.616 1.39756 -0.72842 0
M  V30 3459 C 330.856 2.025 -0.278078 0
M  V30 3460 C 331.22 1.5654 1.11173 0
M  V30 3461 O 332.421 2.11435 1.65978 0
M  V30 3462 C 330.692 3.55489 -0.369139 0
M  V30 3463 S 332.251 4.388 0.00232983 0
M  V30 3464 H 329.069 0.702534 -0.109391 0
M  V30 3465 H 331.671 1.70672 -0.95348 0
M  V30 3466 H 330.375 3.86429 -1.38204 0
M  V30 3467 H 329.906 3.92061 0.324308 0
M  V30 3468 H 331.921 4.80954 1.22055 0
M  V30 3469 N 331.094 0.475555 1.50254 0
M  V30 3470 C 332.024 -0.30611 2.31485 0
M  V30 3471 C 333.005 -0.986228 1.38591 0
M  V30 3472 O 334.19 -0.982541 1.67511 0
M  V30 3473 C 331.32 -1.38588 3.1845 0
M  V30 3474 C 330.274 -0.827115 4.19932 0
M  V30 3475 C 329.6 -2.00551 4.95665 0
M  V30 3476 C 330.9 0.16463 5.2204 0
M  V30 3477 H 332.594 0.371866 2.97082 0
M  V30 3478 H 330.14 0.180282 1.42867 0
M  V30 3479 H 332.093 -1.94023 3.74076 0
M  V30 3480 H 330.817 -2.09269 2.50747 0
M  V30 3481 H 329.476 -0.294702 3.65414 0
M  V30 3482 H 329.124 -2.6994 4.2443 0
M  V30 3483 H 328.824 -1.63784 5.64313 0
M  V30 3484 H 330.348 -2.56468 5.54127 0
M  V30 3485 H 331.762 -0.300699 5.72511 0
M  V30 3486 H 330.159 0.446813 5.98434 0
M  V30 3487 H 331.229 1.08905 4.72512 0
M  V30 3488 N 332.573 -1.56217 0.208337 0
M  V30 3489 C 333.821 -1.97558 -0.426076 0
M  V30 3490 C 334.142 -1.09683 -1.61229 0
M  V30 3491 O 333.412 -0.170956 -1.95153 0
M  V30 3492 H 331.992 -0.729575 -0.160405 0
M  V30 3493 H 334.654 -1.92606 0.298155 0
M  V30 3494 H 333.75 -3.02672 -0.761312 0
M  V30 3495 N 334.051 0.0651679 -1.57465 0
M  V30 3496 C 335.014 1.06117 -2.03155 0
M  V30 3497 C 336.014 1.31204 -0.929632 0
M  V30 3498 O 337.204 1.26813 -1.19432 0
M  V30 3499 C 334.336 2.4032 -2.41783 0
M  V30 3500 H 335.529 0.667231 -2.92383 0
M  V30 3501 H 333.082 0.311075 -1.53173 0
M  V30 3502 H 333.817 2.84532 -1.55601 0
M  V30 3503 H 333.602 2.23451 -3.22199 0
M  V30 3504 H 335.092 3.11898 -2.77685 0
M  V30 3505 N 335.529 1.53961 0.336706 0
M  V30 3506 C 336.94 1.62914 0.911925 0
M  V30 3507 C 337.291 0.514795 1.89326 0
M  V30 3508 O 336.416 -0.354395 2.13478 0
M  V30 3509 C 337.011 2.95304 1.66076 0
M  V30 3510 C 335.57 3.06496 2.18489 0
M  V30 3511 C 334.717 2.58403 1.00613 0
M  V30 3512 H 337.668 1.58285 0.114649 0
M  V30 3513 H 337.689 2.84727 2.5241 0
M  V30 3514 H 337.201 3.76387 0.946276 0
M  V30 3515 H 335.302 2.3006 2.93092 0
M  V30 3516 H 335.415 4.1208 2.44391 0
M  V30 3517 H 333.779 2.13977 1.38152 0
M  V30 3518 H 334.562 3.41932 0.306179 0
M  V30 3519 N 337.007 -0.598083 1.45811 0
M  V30 3520 C 338.256 -1.35295 1.49594 0
M  V30 3521 C 338.569 -1.95057 0.145679 0
M  V30 3522 O 339.775 -2.71431 0.0612099 0
M  V30 3523 C 338.231 -2.45124 2.63519 0
M  V30 3524 C 337.839 -1.91732 4.04899 0
M  V30 3525 C 339.583 -3.2205 2.76558 0
M  V30 3526 C 337.49 -2.991 5.1019 0
M  V30 3527 H 336.42 -0.508552 0.556679 0
M  V30 3528 H 339.071 -0.639977 1.71978 0
M  V30 3529 H 337.453 -3.19149 2.34435 0
M  V30 3530 H 338.627 -1.24352 4.43704 0
M  V30 3531 H 336.942 -1.27522 3.96393 0
M  V30 3532 H 339.539 -4.0215 3.52391 0
M  V30 3533 H 339.882 -3.73663 1.83526 0
M  V30 3534 H 340.415 -2.55127 3.05213 0
M  V30 3535 H 337.154 -2.52393 6.04961 0
M  V30 3536 H 336.674 -3.65017 4.75944 0
M  V30 3537 H 338.353 -3.63318 5.35359 0
M  V30 3538 N 338.485 -1.33259 -0.841409 0
M  V30 3539 C 339.432 -1.23302 -1.95103 0
M  V30 3540 C 340.402 -0.112204 -1.65721 0
M  V30 3541 O 341.587 -0.290038 -1.88583 0
M  V30 3542 C 338.727 -0.975583 -3.31023 0
M  V30 3543 C 337.84 -2.18243 -3.72819 0
M  V30 3544 C 336.975 -1.85936 -4.97595 0
M  V30 3545 C 336.014 -3.02866 -5.3192 0
M  V30 3546 N 335.151 -2.70565 -6.47873 0
M  V30 3547 H 339.991 -2.18207 -2.02952 0
M  V30 3548 H 337.528 -1.0851 -0.993173 0
M  V30 3549 H 339.486 -0.80677 -4.09325 0
M  V30 3550 H 338.116 -0.0632755 -3.22738 0
M  V30 3551 H 337.168 -2.46107 -2.90061 0
M  V30 3552 H 338.48 -3.05666 -3.94169 0
M  V30 3553 H 337.634 -1.65684 -5.83638 0
M  V30 3554 H 336.373 -0.957452 -4.78209 0
M  V30 3555 H 335.378 -3.23736 -4.44382 0
M  V30 3556 H 336.603 -3.93809 -5.53255 0
M  V30 3557 H 334.549 -1.8293 -6.29978 0
M  V30 3558 H 334.466 -3.51519 -6.69306 0
M  V30 3559 H 335.734 -2.53774 -7.37034 0
M  V30 3560 N 339.963 1.05934 -1.16686 0
M  V30 3561 C 341.211 1.78447 -0.948744 0
M  V30 3562 C 341.532 1.87813 0.524523 0
M  V30 3563 O 340.802 1.38945 1.38098 0
M  V30 3564 H 339.382 0.660971 -0.348033 0
M  V30 3565 H 342.044 1.27947 -1.47022 0
M  V30 3566 H 341.14 2.80394 -1.37061 0
M  V30 3567 N 341.441 0.965919 1.2453 0
M  V30 3568 C 342.671 0.643451 1.96324 0
M  V30 3569 C 343.079 -0.790927 1.71875 0
M  V30 3570 O 342.422 -1.54208 0.998273 0
M  V30 3571 C 342.484 0.836078 3.49643 0
M  V30 3572 C 342.148 2.24975 3.97788 0
M  V30 3573 C 343.145 3.22735 4.07601 0
M  V30 3574 C 340.83 2.57697 4.31158 0
M  V30 3575 C 342.824 4.51303 4.50116 0
M  V30 3576 C 340.511 3.86492 4.73357 0
M  V30 3577 C 341.509 4.83107 4.828 0
M  V30 3578 O 341.197 6.09605 5.24058 0
M  V30 3579 H 340.929 0.239223 0.632257 0
M  V30 3580 H 343.483 1.29587 1.59362 0
M  V30 3581 H 341.713 0.12649 3.86493 0
M  V30 3582 H 343.402 0.512965 4.02646 0
M  V30 3583 H 344.168 2.98783 3.82039 0
M  V30 3584 H 340.047 1.83216 4.23028 0
M  V30 3585 H 343.591 5.26716 4.57401 0
M  V30 3586 H 339.488 4.10245 4.98366 0
M  V30 3587 H 340.256 6.13146 5.42213 0
M  V30 3588 N 342.919 -1.39368 0.735821 0
M  V30 3589 C 344.144 -2.05319 0.293052 0
M  V30 3590 C 344.569 -1.55115 -1.064 0
M  V30 3591 O 343.927 -0.695261 -1.67439 0
M  V30 3592 C 343.975 -3.59305 0.305323 0
M  V30 3593 O 343.079 -4.06299 -0.706761 0
M  V30 3594 H 342.42 -0.650529 0.13307 0
M  V30 3595 H 344.95 -1.78386 1.00197 0
M  V30 3596 H 344.96 -4.07724 0.149997 0
M  V30 3597 H 343.635 -3.95207 1.29553 0
M  V30 3598 H 342.212 -3.69292 -0.517504 0
M  V30 3599 N 344.397 -0.483516 -1.5 0
M  V30 3600 C 345.644 0.0671597 -2.02389 0
M  V30 3601 C 345.972 1.38597 -1.36459 0
M  V30 3602 O 345.227 1.89634 -0.483458 0
M  V30 3603 C 345.526 0.286226 -3.56252 0
M  V30 3604 C 345.192 -0.952416 -4.40726 0
M  V30 3605 C 343.854 -1.29199 -4.63531 0
M  V30 3606 C 346.206 -1.77655 -4.89988 0
M  V30 3607 C 343.534 -2.45553 -5.32842 0
M  V30 3608 C 345.886 -2.93147 -5.60578 0
M  V30 3609 C 344.55 -3.27505 -5.81633 0
M  V30 3610 H 343.82 0.0245755 -0.740592 0
M  V30 3611 H 346.467 -0.640124 -1.80485 0
M  V30 3612 H 344.772 1.07587 -3.76739 0
M  V30 3613 H 346.469 0.726473 -3.94365 0
M  V30 3614 H 343.059 -0.677881 -4.23205 0
M  V30 3615 H 347.243 -1.52737 -4.72213 0
M  V30 3616 H 342.499 -2.72431 -5.47349 0
M  V30 3617 H 346.673 -3.57344 -5.97727 0
M  V30 3618 H 344.3 -4.1777 -6.35116 0
M  V30 3619 N 345.875 1.56104 -0.216619 0
M  V30 3620 C 347.122 1.98172 0.416416 0
M  V30 3621 C 347.45 1.10413 1.60122 0
M  V30 3622 O 346.705 0.147967 1.9514 0
M  V30 3623 C 347.004 3.45923 0.898464 0
M  V30 3624 C 346.67 4.50559 -0.175288 0
M  V30 3625 C 345.332 4.78897 -0.470271 0
M  V30 3626 C 347.684 5.1334 -0.901728 0
M  V30 3627 C 345.012 5.67299 -1.4963 0
M  V30 3628 C 347.364 6.02853 -1.91705 0
M  V30 3629 C 346.028 6.29537 -2.21901 0
M  V30 3630 H 345.298 0.725164 0.152377 0
M  V30 3631 H 347.945 1.88839 -0.318103 0
M  V30 3632 H 346.25 3.52434 1.71165 0
M  V30 3633 H 347.947 3.75841 1.39803 0
M  V30 3634 H 344.537 4.28551 0.0647806 0
M  V30 3635 H 348.721 4.91521 -0.687072 0
M  V30 3636 H 343.977 5.86239 -1.73592 0
M  V30 3637 H 348.151 6.50552 -2.48505 0
M  V30 3638 H 345.778 6.97835 -3.01548 0
M  V30 3639 N 347.353 -0.0568162 1.57498 0
M  V30 3640 C 348.764 -0.606858 1.76562 0
M  V30 3641 C 349.115 -1.77114 0.844094 0
M  V30 3642 O 348.24 -2.16376 0.0318911 0
M  V30 3643 C 348.835 -1.10766 3.20182 0
M  V30 3644 C 347.394 -1.60344 3.40539 0
M  V30 3645 C 346.541 -0.529311 2.72201 0
M  V30 3646 H 349.492 0.169393 1.57793 0
M  V30 3647 H 349.513 -1.97602 3.25167 0
M  V30 3648 H 349.025 -0.26006 3.87228 0
M  V30 3649 H 347.126 -2.47379 2.78629 0
M  V30 3650 H 347.239 -1.67006 4.4905 0
M  V30 3651 H 345.603 -0.977893 2.35179 0
M  V30 3652 H 346.386 0.308352 3.41912 0
M  V30 3653 N 348.832 -1.54138 -0.328536 0
M  V30 3654 C 350.08 -1.71765 -1.06496 0
M  V30 3655 C 350.401 -0.49149 -1.88704 0
M  V30 3656 O 349.671 0.494539 -1.89555 0
M  V30 3657 H 348.251 -0.633295 -0.396164 0
M  V30 3658 H 350.913 -1.91429 -0.366176 0
M  V30 3659 H 350.009 -2.5951 -1.73381 0
M  V30 3660 N 350.31 0.590341 -1.46126 0
M  V30 3661 C 351.22 1.72793 -1.58681 0
M  V30 3662 C 352.236 1.67516 -0.470566 0
M  V30 3663 O 353.412 1.87562 -0.733642 0
M  V30 3664 C 350.477 3.09287 -1.5666 0
M  V30 3665 C 349.538 3.25886 -2.79458 0
M  V30 3666 C 348.771 4.55869 -2.77524 0
M  V30 3667 O 348.994 5.3928 -1.85832 0
M  V30 3668 O 347.928 4.75552 -3.68964 0
M  V30 3669 H 351.754 1.65149 -2.54872 0
M  V30 3670 H 349.339 0.756486 -1.28832 0
M  V30 3671 H 351.221 3.90577 -1.58202 0
M  V30 3672 H 349.896 3.17385 -0.636271 0
M  V30 3673 H 348.803 2.44119 -2.83472 0
M  V30 3674 H 350.136 3.22675 -3.71674 0
M  V30 3675 N 351.788 1.33704 0.83433 0
M  V30 3676 C 352.698 1.26382 1.97648 0
M  V30 3677 C 353.714 0.173548 1.73132 0
M  V30 3678 O 354.89 0.397962 1.97429 0
M  V30 3679 C 351.955 1.00769 3.31733 0
M  V30 3680 C 351.016 2.1884 3.69334 0
M  V30 3681 C 350.249 1.9444 4.9702 0
M  V30 3682 O 350.472 0.896961 5.63303 0
M  V30 3683 O 349.406 2.81093 5.32231 0
M  V30 3684 H 353.232 2.22444 2.06767 0
M  V30 3685 H 350.817 1.13795 0.968037 0
M  V30 3686 H 352.699 0.882186 4.12062 0
M  V30 3687 H 351.374 0.0773783 3.23608 0
M  V30 3688 H 350.281 2.36946 2.89495 0
M  V30 3689 H 351.614 3.10221 3.82131 0
M  V30 3690 N 353.266 -1.05314 1.17247 0
M  V30 3691 C 354.176 -2.16538 0.90268 0
M  V30 3692 C 355.192 -1.73523 -0.128707 0
M  V30 3693 O 356.368 -2.01337 0.0502701 0
M  V30 3694 C 353.433 -3.44167 0.418356 0
M  V30 3695 C 352.494 -4.01635 1.51618 0
M  V30 3696 C 351.727 -5.23171 1.05487 0
M  V30 3697 O 351.95 -5.70327 -0.0914715 0
M  V30 3698 O 350.884 -5.72848 1.8474 0
M  V30 3699 H 354.71 -2.42145 1.83302 0
M  V30 3700 H 352.295 -1.15037 0.953246 0
M  V30 3701 H 354.177 -4.21112 0.155726 0
M  V30 3702 H 352.852 -3.20063 -0.48385 0
M  V30 3703 H 351.759 -3.26135 1.83268 0
M  V30 3704 H 353.092 -4.30053 2.39405 0
M  V30 3705 N 354.744 -0.972509 -1.24016 0
M  V30 3706 C 355.99 -0.637978 -1.92504 0
M  V30 3707 C 356.323 0.825383 -1.75787 0
M  V30 3708 O 355.598 1.59442 -1.11393 0
M  V30 3709 C 355.881 -1.01942 -3.45369 0
M  V30 3710 C 355.734 -2.53983 -3.71231 0
M  V30 3711 C 357.053 -0.55751 -4.36555 0
M  V30 3712 H 354.172 -0.233248 -0.699117 0
M  V30 3713 H 356.814 -1.21238 -1.46292 0
M  V30 3714 H 354.964 -0.530656 -3.84859 0
M  V30 3715 H 356.636 -3.10374 -3.41271 0
M  V30 3716 H 354.879 -2.96968 -3.16216 0
M  V30 3717 H 355.55 -2.75723 -4.78206 0
M  V30 3718 H 358.026 -0.977029 -4.04467 0
M  V30 3719 H 356.902 -0.85292 -5.42233 0
M  V30 3720 H 357.163 0.542328 -4.38761 0
M  V30 3721 N 356.222 1.38976 -0.743202 0
M  V30 3722 C 357.152 2.33171 -0.123873 0
M  V30 3723 C 358.133 1.54336 0.71516 0
M  V30 3724 O 359.318 1.82696 0.658467 0
M  V30 3725 C 356.448 3.38474 0.777978 0
M  V30 3726 C 355.402 4.27979 0.0424758 0
M  V30 3727 C 354.728 5.2405 1.06189 0
M  V30 3728 C 356.028 5.10155 -1.1198 0
M  V30 3729 H 357.722 2.85213 -0.910709 0
M  V30 3730 H 355.268 1.37133 -0.439388 0
M  V30 3731 H 357.221 4.03328 1.22084 0
M  V30 3732 H 355.945 2.84891 1.59702 0
M  V30 3733 H 354.604 3.64616 -0.380853 0
M  V30 3734 H 354.252 4.66758 1.87472 0
M  V30 3735 H 353.952 5.84785 0.574485 0
M  V30 3736 H 355.476 5.9178 1.50428 0
M  V30 3737 H 356.89 5.68307 -0.75499 0
M  V30 3738 H 355.287 5.80073 -1.53738 0
M  V30 3739 H 356.357 4.44504 -1.93764 0
M  V30 3740 N 357.7 0.491464 1.49741 0
M  V30 3741 C 358.949 -0.0582189 2.01616 0
M  V30 3742 C 359.262 -1.38927 1.3769 0
M  V30 3743 O 360.468 -2.02509 1.80838 0
M  V30 3744 C 358.924 -0.154235 3.59569 0
M  V30 3745 C 358.532 1.1696 4.32463 0
M  V30 3746 C 360.276 -0.65479 4.1942 0
M  V30 3747 C 358.183 1.03627 5.8225 0
M  V30 3748 H 357.113 -0.0255317 0.753568 0
M  V30 3749 H 359.764 0.629445 1.72367 0
M  V30 3750 H 358.146 -0.906138 3.85493 0
M  V30 3751 H 359.32 1.93405 4.18248 0
M  V30 3752 H 357.635 1.60285 3.84315 0
M  V30 3753 H 360.232 -0.771903 5.29099 0
M  V30 3754 H 360.575 -1.65127 3.8215 0
M  V30 3755 H 361.108 0.040304 3.9778 0
M  V30 3756 H 357.847 2.00672 6.24028 0
M  V30 3757 H 357.367 0.312546 5.98985 0
M  V30 3758 H 359.046 0.711114 6.4308 0
M  V30 3759 N 359.178 -1.55987 0.224894 0
M  V30 3760 C 360.589 -1.84553 -0.282345 0
M  V30 3761 C 360.94 -1.14634 -1.59227 0
M  V30 3762 O 360.065 -0.417155 -2.12341 0
M  V30 3763 C 360.66 -3.348 -0.519062 0
M  V30 3764 C 359.219 -3.63671 -0.970604 0
M  V30 3765 C 358.366 -2.77277 -0.0355261 0
M  V30 3766 H 361.317 -1.52245 0.448006 0
M  V30 3767 H 361.338 -3.55187 -1.36463 0
M  V30 3768 H 360.85 -3.8566 0.43449 0
M  V30 3769 H 358.951 -3.1827 -1.9374 0
M  V30 3770 H 359.064 -4.71631 -0.842698 0
M  V30 3771 H 357.428 -2.48846 -0.542927 0
M  V30 3772 H 358.211 -3.30937 0.913003 0
M  V30 3773 N 360.656 0.0484629 -1.57525 0
M  V30 3774 C 362.067 0.597486 -1.76881 0
M  V30 3775 C 362.418 1.76664 -0.853475 0
M  V30 3776 O 361.543 2.16357 -0.0433656 0
M  V30 3777 C 362.138 1.09066 -3.20765 0
M  V30 3778 C 360.697 1.58535 -3.41385 0
M  V30 3779 C 359.844 0.514868 -2.72478 0
M  V30 3780 H 362.795 -0.177758 -1.57701 0
M  V30 3781 H 362.816 1.95875 -3.2621 0
M  V30 3782 H 362.328 0.239521 -3.8736 0
M  V30 3783 H 360.429 2.45898 -2.79937 0
M  V30 3784 H 360.542 1.64622 -4.49929 0
M  V30 3785 H 358.906 0.965407 -2.35695 0
M  V30 3786 H 359.689 -0.32648 -3.41744 0
M  V30 3787 N 362.134 1.5431 0.320358 0
M  V30 3788 C 363.381 1.72668 1.05792 0
M  V30 3789 C 363.709 0.502084 1.87908 0
M  V30 3790 O 362.964 -0.516149 1.88771 0
M  V30 3791 C 363.263 2.95639 2.00828 0
M  V30 3792 C 362.929 4.30265 1.34843 0
M  V30 3793 C 361.591 4.66865 1.16578 0
M  V30 3794 C 363.943 5.13801 0.875095 0
M  V30 3795 C 361.271 5.84597 0.496336 0
M  V30 3796 C 363.623 6.32219 0.219463 0
M  V30 3797 C 362.287 6.67495 0.0246915 0
M  V30 3798 H 361.557 0.631837 0.387121 0
M  V30 3799 H 364.204 1.88552 0.334735 0
M  V30 3800 H 362.509 2.74456 2.79609 0
M  V30 3801 H 364.206 3.07038 2.57932 0
M  V30 3802 H 360.796 4.01472 1.50061 0
M  V30 3803 H 364.98 4.86039 1.00398 0
M  V30 3804 H 360.236 6.10486 0.334264 0
M  V30 3805 H 364.41 6.96227 -0.155291 0
M  V30 3806 H 362.037 7.5858 -0.496065 0
M  V30 3807 N 363.613 -0.582584 1.46437 0
M  V30 3808 C 364.523 -1.71949 1.59595 0
M  V30 3809 C 365.539 -1.67264 0.479443 0
M  V30 3810 O 366.715 -1.87171 0.743579 0
M  V30 3811 C 363.78 -3.08452 1.58298 0
M  V30 3812 C 362.841 -3.244 2.81182 0
M  V30 3813 C 362.074 -4.54391 2.79937 0
M  V30 3814 O 362.297 -5.38287 1.8869 0
M  V30 3815 O 361.231 -4.73588 3.71481 0
M  V30 3816 H 365.057 -1.63795 2.55744 0
M  V30 3817 H 362.642 -0.749643 1.29231 0
M  V30 3818 H 364.524 -3.89732 1.60271 0
M  V30 3819 H 363.199 -3.17043 0.653094 0
M  V30 3820 H 362.106 -2.42613 2.84763 0
M  V30 3821 H 363.439 -3.20699 3.7338 0
M  V30 3822 N 365.091 -1.34144 -0.827227 0
M  V30 3823 C 366.319 -1.29325 -1.61501 0
M  V30 3824 C 366.734 0.13354 -1.88327 0
M  V30 3825 O 366.091 1.0793 -1.47164 0
M  V30 3826 C 366.142 -2.07746 -2.95844 0
M  V30 3827 O 365.863 -3.4486 -2.70191 0
M  V30 3828 C 367.364 -2.10273 -3.90256 0
M  V30 3829 H 364.584 -0.445069 -0.50215 0
M  V30 3830 H 367.128 -1.76693 -1.02955 0
M  V30 3831 H 365.283 -1.6403 -3.5096 0
M  V30 3832 H 365.697 -3.85345 -3.55822 0
M  V30 3833 H 367.171 -2.69575 -4.81698 0
M  V30 3834 H 367.648 -1.096 -4.25305 0
M  V30 3835 H 368.254 -2.54059 -3.41078 0
M  V30 3836 N 366.569 1.04691 -1.17803 0
M  V30 3837 C 367.816 1.77782 -0.969532 0
M  V30 3838 C 368.144 1.87926 0.501401 0
M  V30 3839 O 367.399 1.37918 1.38842 0
M  V30 3840 C 367.698 3.21467 -1.56186 0
M  V30 3841 C 367.364 3.3137 -3.05786 0
M  V30 3842 C 366.026 3.3378 -3.46619 0
M  V30 3843 C 368.378 3.31976 -4.01797 0
M  V30 3844 C 365.706 3.34431 -4.82051 0
M  V30 3845 C 368.058 3.34167 -5.37136 0
M  V30 3846 C 366.722 3.34866 -5.77426 0
M  V30 3847 H 365.992 0.650549 -0.354777 0
M  V30 3848 H 368.639 1.23006 -1.46772 0
M  V30 3849 H 366.944 3.79203 -0.985515 0
M  V30 3850 H 368.641 3.76652 -1.37602 0
M  V30 3851 H 365.231 3.3021 -2.73238 0
M  V30 3852 H 369.415 3.29311 -3.71306 0
M  V30 3853 H 364.671 3.33285 -5.12573 0
M  V30 3854 H 368.845 3.33585 -6.11305 0
M  V30 3855 H 366.472 3.35124 -6.82346 0
M  V30 3856 N 368.047 0.979072 1.23499 0
M  V30 3857 C 368.979 0.476271 2.24197 0
M  V30 3858 C 369.992 -0.421166 1.57258 0
M  V30 3859 O 371.181 -0.225515 1.7707 0
M  V30 3860 C 368.281 -0.330503 3.37285 0
M  V30 3861 C 367.454 0.559744 4.33804 0
M  V30 3862 C 366.513 -0.192954 5.25846 0
M  V30 3863 O 365.539 0.416978 5.67671 0
M  V30 3864 N 366.741 -1.47932 5.61334 0
M  V30 3865 H 369.506 1.34211 2.67969 0
M  V30 3866 H 367.067 0.852189 1.37657 0
M  V30 3867 H 369.059 -0.842361 3.95836 0
M  V30 3868 H 367.629 -1.09734 2.92707 0
M  V30 3869 H 366.849 1.25245 3.73775 0
M  V30 3870 H 368.137 1.1665 4.95248 0
M  V30 3871 H 367.535 -1.9964 5.29302 0
M  V30 3872 H 366.092 -1.93664 6.22364 0
M  V30 3873 N 369.525 -1.3858 0.750561 0
M  V30 3874 C 370.771 -2.00481 0.305825 0
M  V30 3875 C 371.104 -1.5944 -1.10872 0
M  V30 3876 O 370.379 -0.83052 -1.75877 0
M  V30 3877 C 370.662 -3.5758 0.425287 0
M  V30 3878 C 370.515 -4.08594 1.88072 0
M  V30 3879 C 371.834 -4.39719 -0.183122 0
M  V30 3880 H 368.953 -0.728348 0.112598 0
M  V30 3881 H 371.595 -1.64566 0.949638 0
M  V30 3882 H 369.745 -3.88306 -0.122828 0
M  V30 3883 H 371.417 -3.88523 2.48691 0
M  V30 3884 H 369.66 -3.61574 2.39681 0
M  V30 3885 H 370.331 -5.177 1.91548 0
M  V30 3886 H 372.807 -4.15128 0.284303 0
M  V30 3887 H 371.683 -5.48856 -0.0692757 0
M  V30 3888 H 371.944 -4.23434 -1.27106 0
M  V30 3889 N 371.003 -0.499398 -1.49478 0
M  V30 3890 C 372.252 0.0475259 -2.01644 0
M  V30 3891 C 372.565 1.38195 -1.38425 0
M  V30 3892 O 373.771 2.01547 -1.8191 0
M  V30 3893 C 372.227 0.135164 -3.59646 0
M  V30 3894 C 371.835 -1.19252 -4.31837 0
M  V30 3895 C 373.579 0.632538 -4.19761 0
M  V30 3896 C 371.486 -1.06713 -5.81693 0
M  V30 3897 H 370.416 0.0215349 -0.753692 0
M  V30 3898 H 373.067 -0.638577 -1.7203 0
M  V30 3899 H 371.449 0.885681 -3.85969 0
M  V30 3900 H 372.623 -1.9562 -4.17216 0
M  V30 3901 H 370.938 -1.62321 -3.83459 0
M  V30 3902 H 373.535 0.743833 -5.29501 0
M  V30 3903 H 373.878 1.63098 -3.83021 0
M  V30 3904 H 374.411 -0.0613987 -3.97753 0
M  V30 3905 H 371.15 -2.03979 -6.22955 0
M  V30 3906 H 370.67 -0.344307 -5.98811 0
M  V30 3907 H 372.349 -0.745208 -6.42694 0
M  V30 3908 N 372.481 1.55866 -0.233164 0
M  V30 3909 C 373.429 2.22176 0.68851 0
M  V30 3910 C 374.423 1.20487 1.19076 0
M  V30 3911 O 375.629 1.38536 1.14925 0
M  V30 3912 H 372.004 0.712511 0.240483 0
M  V30 3913 H 373.975 2.98212 0.105935 0
M  V30 3914 C 372.724 2.92446 1.88071 0
M  V30 3915 H 372.047 3.70458 1.50337 0
M  V30 3916 H 373.487 3.42226 2.50314 0
M  V30 3917 C 371.946 1.95555 2.74335 0
M  V30 3918 O 372.476 1.47986 3.73447 0
M  V30 3919 N 370.682 1.62953 2.40613 0
M  V30 3920 H 370.229 2.01831 1.60069 0
M  V30 3921 H 370.187 0.983886 2.98609 0
M  V30 3922 N 373.959 -0.0401083 1.57549 0
M  V30 3923 C 374.922 -1.02871 2.04817 0
M  V30 3924 C 375.922 -1.29708 0.950388 0
M  V30 3925 O 377.112 -1.24897 1.21435 0
M  V30 3926 C 374.244 -2.36443 2.45576 0
M  V30 3927 H 375.437 -0.620631 2.93408 0
M  V30 3928 H 372.99 -0.286667 1.53649 0
M  V30 3929 H 373.725 -2.82021 1.60108 0
M  V30 3930 H 373.51 -2.18296 3.25713 0
M  V30 3931 H 375 -3.07441 2.82612 0
M  V30 3932 N 375.437 -1.54477 -0.31217 0
M  V30 3933 C 376.662 -1.77526 -1.07235 0
M  V30 3934 C 377.087 -0.527775 -1.80544 0
M  V30 3935 O 376.445 0.52121 -1.73646 0
M  V30 3936 C 376.493 -2.97535 -2.03728 0
M  V30 3937 O 375.597 -2.69878 -3.11833 0
M  V30 3938 H 374.938 -0.58792 -0.30862 0
M  V30 3939 H 377.468 -2.01532 -0.352993 0
M  V30 3940 H 377.478 -3.25198 -2.46395 0
M  V30 3941 H 376.153 -3.87996 -1.49774 0
M  V30 3942 H 374.73 -2.53199 -2.7376 0
M  V30 3943 N 376.915 0.57481 -1.46744 0
M  V30 3944 C 378.331 0.898981 -1.31873 0
M  V30 3945 C 378.531 1.99313 -0.29605 0
M  V30 3946 O 377.587 2.50728 0.298621 0
M  V30 3947 C 378.9 1.30886 -2.7072 0
M  V30 3948 C 380.448 1.42127 -2.78871 0
M  V30 3949 C 380.923 1.86478 -4.18318 0
M  V30 3950 N 382.414 1.93658 -4.20774 0
M  V30 3951 C 383.149 2.29267 -5.2557 0
M  V30 3952 N 382.645 2.63612 -6.40688 0
M  V30 3953 N 384.438 2.29889 -5.1294 0
M  V30 3954 H 376.589 -0.147839 -2.11885 0
M  V30 3955 H 378.852 -0.00347013 -0.947994 0
M  V30 3956 H 378.558 0.578853 -3.46904 0
M  V30 3957 H 378.432 2.26874 -3.01343 0
M  V30 3958 H 380.819 2.14213 -2.0297 0
M  V30 3959 H 380.9 0.443705 -2.51922 0
M  V30 3960 H 380.544 1.14968 -4.94717 0
M  V30 3961 H 380.474 2.85207 -4.42679 0
M  V30 3962 H 382.965 1.69574 -3.37718 0
M  V30 3963 H 383.278 2.89759 -7.16421 0
M  V30 3964 H 381.623 2.61232 -6.44036 0
M  V30 3965 H 384.814 2.02485 -4.22039 0
M  V30 3966 H 384.987 2.57312 -5.94722 0
M  V30 3967 N 378.394 1.34581 0.820102 0
M  V30 3968 C 379.324 1.29038 1.94606 0
M  V30 3969 C 380.305 0.1673 1.69275 0
M  V30 3970 O 381.49 0.360112 1.90832 0
M  V30 3971 C 378.62 1.04793 3.31113 0
M  V30 3972 C 377.574 2.13597 3.70891 0
M  V30 3973 C 376.9 1.74537 5.05412 0
M  V30 3974 C 378.2 3.55451 3.8269 0
M  V30 3975 H 379.894 2.23248 1.99501 0
M  V30 3976 H 377.44 1.0747 0.958449 0
M  V30 3977 H 379.393 0.995592 4.0947 0
M  V30 3978 H 378.117 0.0702565 3.26524 0
M  V30 3979 H 376.776 2.17905 2.9481 0
M  V30 3980 H 376.424 0.754226 4.97313 0
M  V30 3981 H 376.124 2.47361 5.32997 0
M  V30 3982 H 377.648 1.70803 5.86224 0
M  V30 3983 H 379.062 3.5354 4.51312 0
M  V30 3984 H 377.459 4.26922 4.21732 0
M  V30 3985 H 378.529 3.92587 2.84611 0
M  V30 3986 N 379.872 -1.04064 1.18357 0
M  V30 3987 C 380.835 -2.10243 0.912707 0
M  V30 3988 C 381.835 -1.60477 -0.101928 0
M  V30 3989 O 383.025 -1.73703 0.131517 0
M  V30 3990 C 380.157 -3.38893 0.369387 0
M  V30 3991 H 381.35 -2.35706 1.85426 0
M  V30 3992 H 378.903 -1.20489 0.995594 0
M  V30 3993 H 379.638 -3.19094 -0.578776 0
M  V30 3994 H 379.423 -3.76331 1.1008 0
M  V30 3995 H 380.913 -4.17128 0.198575 0
M  V30 3996 N 381.35 -0.985608 -1.22978 0
M  V30 3997 C 382.282 -0.488154 -2.23941 0
M  V30 3998 C 383.295 0.41282 -1.57479 0
M  V30 3999 O 384.484 0.216121 -1.77187 0
M  V30 4000 C 381.584 0.312611 -3.37455 0
M  V30 4001 C 380.757 -0.582741 -4.33501 0
M  V30 4002 C 379.816 0.165064 -5.25941 0
M  V30 4003 O 378.842 -0.447077 -5.67442 0
M  V30 4004 N 380.044 1.44953 -5.62111 0
M  V30 4005 H 382.809 -1.3563 -2.67254 0
M  V30 4006 H 380.37 -0.859477 -1.37203 0
M  V30 4007 H 382.362 0.821357 -3.96277 0
M  V30 4008 H 380.932 1.0818 -2.93285 0
M  V30 4009 H 380.152 -1.27225 -3.73105 0
M  V30 4010 H 381.44 -1.19275 -4.94622 0
M  V30 4011 H 380.838 1.9683 -5.30353 0
M  V30 4012 H 379.395 1.90361 -6.23383 0
M  V30 4013 N 382.828 1.3818 -0.7579 0
M  V30 4014 C 384.076 1.99624 -0.315361 0
M  V30 4015 C 384.397 1.60464 1.10799 0
M  V30 4016 O 383.667 0.863507 1.75842 0
M  V30 4017 H 382.247 0.73831 -0.113611 0
M  V30 4018 H 384.909 1.68878 -0.972952 0
M  V30 4019 H 384.005 3.09754 -0.381931 0
M  V30 4020 N 384.306 0.507319 1.49211 0
M  V30 4021 C 385.717 0.0611118 1.866 0
M  V30 4022 C 386.068 -1.35488 1.41907 0
M  V30 4023 O 385.193 -2.0108 0.799726 0
M  V30 4024 C 385.788 0.104125 3.3864 0
M  V30 4025 C 384.347 -0.28677 3.75306 0
M  V30 4026 C 383.494 0.473893 2.73221 0
M  V30 4027 H 386.445 0.719775 1.41439 0
M  V30 4028 H 386.466 -0.689672 3.74198 0
M  V30 4029 H 385.978 1.13482 3.71138 0
M  V30 4030 H 384.079 -1.32046 3.48417 0
M  V30 4031 H 384.192 0.0370745 4.79086 0
M  V30 4032 H 382.556 -0.0770644 2.54583 0
M  V30 4033 H 383.339 1.50478 3.08563 0
M  V30 4034 N 385.784 -1.5574 0.241426 0
M  V30 4035 C 386.747 -2.19877 -0.647063 0
M  V30 4036 C 387.747 -1.16642 -1.10686 0
M  V30 4037 O 388.937 -1.41757 -1.01245 0
M  V30 4038 C 386.069 -2.83797 -1.88871 0
M  V30 4039 H 387.262 -2.99772 -0.087574 0
M  V30 4040 H 384.815 -1.56298 -0.00813574 0
M  V30 4041 H 385.55 -2.07824 -2.48957 0
M  V30 4042 H 385.335 -3.59414 -1.56728 0
M  V30 4043 H 386.825 -3.32898 -2.52129 0
M  V30 4044 N 387.262 0.0317525 -1.57568 0
M  V30 4045 C 388.678 0.38735 -1.54828 0
M  V30 4046 C 388.878 1.7677 -0.967187 0
M  V30 4047 O 387.934 2.45581 -0.587063 0
M  V30 4048 C 389.247 0.291667 -2.99282 0
M  V30 4049 C 390.795 0.368946 -3.10818 0
M  V30 4050 C 391.27 0.302741 -4.56998 0
M  V30 4051 N 392.761 0.361617 -4.61786 0
M  V30 4052 C 393.496 0.333238 -5.72431 0
M  V30 4053 N 392.992 0.257308 -6.92322 0
M  V30 4054 N 394.785 0.382769 -5.60795 0
M  V30 4055 H 386.936 -0.871609 -1.93692 0
M  V30 4056 H 389.199 -0.331161 -0.888277 0
M  V30 4057 H 388.905 -0.656794 -3.45513 0
M  V30 4058 H 388.779 1.08638 -3.61217 0
M  V30 4059 H 391.166 1.30784 -2.64536 0
M  V30 4060 H 391.247 -0.455066 -2.5172 0
M  V30 4061 H 390.891 -0.632473 -5.03947 0
M  V30 4062 H 390.821 1.14482 -5.14005 0
M  V30 4063 H 393.312 0.422923 -3.75526 0
M  V30 4064 H 393.625 0.24068 -7.72425 0
M  V30 4065 H 391.97 0.223396 -6.94641 0
M  V30 4066 H 395.161 0.44006 -4.66027 0
M  V30 4067 H 395.334 0.357184 -6.47015 0
M  V30 4068 N 388.74 1.54641 0.303973 0
M  V30 4069 C 389.989 1.7299 1.03717 0
M  V30 4070 C 390.302 0.521168 1.88529 0
M  V30 4071 O 391.508 0.586408 2.65092 0
M  V30 4072 C 389.964 3.06051 1.89369 0
M  V30 4073 C 389.572 4.34393 1.09574 0
M  V30 4074 C 391.316 3.3376 2.62306 0
M  V30 4075 C 389.223 5.58506 1.94486 0
M  V30 4076 H 388.153 0.64473 0.390947 0
M  V30 4077 H 390.804 1.81124 0.294328 0
M  V30 4078 H 389.186 2.91874 2.67629 0
M  V30 4079 H 390.36 4.59396 0.359485 0
M  V30 4080 H 388.675 4.13597 0.482324 0
M  V30 4081 H 391.272 4.23687 3.26181 0
M  V30 4082 H 391.615 2.52503 3.3098 0
M  V30 4083 H 392.148 3.48894 1.91097 0
M  V30 4084 H 388.887 6.42422 1.30287 0
M  V30 4085 H 388.407 5.37694 2.65792 0
M  V30 4086 H 390.086 5.95651 2.52605 0
M  V30 4087 N 390.218 -0.567019 1.47046 0
M  V30 4088 C 391.448 -1.34831 1.56538 0
M  V30 4089 C 391.856 -1.8802 0.21101 0
M  V30 4090 O 391.199 -1.65152 -0.804387 0
M  V30 4091 C 391.261 -2.56139 2.52256 0
M  V30 4092 C 390.925 -2.24307 3.98165 0
M  V30 4093 C 391.922 -1.82192 4.86931 0
M  V30 4094 C 389.607 -2.35968 4.43423 0
M  V30 4095 C 391.601 -1.52153 6.18973 0
M  V30 4096 C 389.288 -2.05542 5.75496 0
M  V30 4097 C 390.286 -1.63701 6.63092 0
M  V30 4098 O 389.974 -1.33657 7.92711 0
M  V30 4099 H 389.706 -0.417683 0.531523 0
M  V30 4100 H 392.26 -0.694726 1.93294 0
M  V30 4101 H 390.49 -3.24356 2.10548 0
M  V30 4102 H 392.179 -3.18214 2.51982 0
M  V30 4103 H 392.945 -1.72684 4.53217 0
M  V30 4104 H 388.824 -2.67495 3.75456 0
M  V30 4105 H 392.368 -1.19421 6.87302 0
M  V30 4106 H 388.265 -2.14679 6.08755 0
M  V30 4107 H 389.033 -1.4737 8.05124 0
M  V30 4108 N 391.696 -1.35014 -0.812953 0
M  V30 4109 C 392.626 -1.30069 -1.93919 0
M  V30 4110 C 393.607 -0.176275 -1.69184 0
M  V30 4111 O 394.792 -0.370227 -1.90638 0
M  V30 4112 C 391.922 -1.06547 -3.30552 0
M  V30 4113 C 390.876 -2.15561 -3.69753 0
M  V30 4114 C 390.202 -1.77214 -5.04479 0
M  V30 4115 C 391.502 -3.57476 -3.808 0
M  V30 4116 H 393.196 -2.24303 -1.98314 0
M  V30 4117 H 390.742 -1.07977 -0.952736 0
M  V30 4118 H 392.695 -1.01729 -4.08937 0
M  V30 4119 H 391.419 -0.0875719 -3.26483 0
M  V30 4120 H 390.078 -2.19466 -2.9365 0
M  V30 4121 H 389.726 -0.780589 -4.96906 0
M  V30 4122 H 389.426 -2.50184 -5.31678 0
M  V30 4123 H 390.95 -1.7391 -5.8531 0
M  V30 4124 H 392.364 -3.55929 -4.4943 0
M  V30 4125 H 390.761 -4.29152 -4.19462 0
M  V30 4126 H 391.831 -3.94091 -2.82525 0
M  V30 4127 N 393.175 1.03435 -1.18907 0
M  V30 4128 C 394.591 1.28973 -0.940111 0
M  V30 4129 C 394.791 1.97676 0.390691 0
M  V30 4130 O 393.847 2.26127 1.12352 0
M  V30 4131 C 395.16 2.14221 -2.11021 0
M  V30 4132 C 396.708 2.27547 -2.14922 0
M  V30 4133 C 397.183 3.16164 -3.31367 0
M  V30 4134 N 398.674 3.23752 -3.31269 0
M  V30 4135 C 399.409 3.92495 -4.18014 0
M  V30 4136 N 398.905 4.63515 -5.14904 0
M  V30 4137 N 400.698 3.88838 -4.05908 0
M  V30 4138 H 392.849 0.57252 -2.04538 0
M  V30 4139 H 395.112 0.315184 -0.894071 0
M  V30 4140 H 394.818 1.71054 -3.073 0
M  V30 4141 H 394.692 3.14919 -2.0762 0
M  V30 4142 H 397.079 2.69947 -1.19217 0
M  V30 4143 H 397.16 1.26418 -2.22378 0
M  V30 4144 H 396.804 2.74474 -4.27348 0
M  V30 4145 H 396.734 4.17339 -3.21148 0
M  V30 4146 H 399.225 2.73167 -2.61129 0
M  V30 4147 H 399.538 5.13583 -5.77453 0
M  V30 4148 H 397.883 4.62398 -5.18857 0
M  V30 4149 H 401.074 3.32491 -3.29495 0
M  V30 4150 H 401.247 4.4214 -4.73726 0
M  V30 4151 N 394.653 0.992116 1.22453 0
M  V30 4152 C 395.616 0.546883 2.2258 0
M  V30 4153 C 396.616 -0.369829 1.56489 0
M  V30 4154 O 397.806 -0.161896 1.73446 0
M  V30 4155 C 394.938 -0.204659 3.40285 0
M  V30 4156 H 396.131 1.43234 2.63484 0
M  V30 4157 H 393.684 0.779239 1.3549 0
M  V30 4158 H 394.419 -1.10614 3.04853 0
M  V30 4159 H 394.204 0.45354 3.89468 0
M  V30 4160 H 395.694 -0.504358 4.14543 0
M  V30 4161 N 396.131 -1.37776 0.765217 0
M  V30 4162 C 397.061 -2.32945 0.160953 0
M  V30 4163 C 398.042 -1.55454 -0.690516 0
M  V30 4164 O 399.227 -1.83721 -0.629318 0
M  V30 4165 C 396.357 -3.39669 -0.724031 0
M  V30 4166 C 395.311 -4.27992 0.0256173 0
M  V30 4167 C 394.637 -5.25673 -0.978383 0
M  V30 4168 C 395.937 -5.08309 1.20082 0
M  V30 4169 H 397.631 -2.83728 0.955969 0
M  V30 4170 H 395.177 -1.36416 0.461149 0
M  V30 4171 H 397.13 -4.05219 -1.15652 0
M  V30 4172 H 395.854 -2.87396 -1.5515 0
M  V30 4173 H 394.513 -3.63964 0.438812 0
M  V30 4174 H 394.161 -4.69682 -1.80022 0
M  V30 4175 H 393.861 -5.85625 -0.481378 0
M  V30 4176 H 395.385 -5.94098 -1.40995 0
M  V30 4177 H 396.799 -5.67034 0.845307 0
M  V30 4178 H 395.196 -5.77554 1.62947 0
M  V30 4179 H 396.266 -4.41365 2.00811 0
M  V30 4180 N 397.609 -0.515225 -1.4894 0
M  V30 4181 C 398.857 0.0241671 -2.02086 0
M  V30 4182 C 399.178 1.3616 -1.3959 0
M  V30 4183 O 398.448 1.87841 -0.556121 0
M  V30 4184 H 397.028 0.0119203 -0.746905 0
M  V30 4185 H 399.69 -0.675702 -1.82812 0
M  V30 4186 H 398.786 0.143385 -3.1177 0
M  V30 4187 N 399.087 1.5561 -0.249682 0
M  V30 4188 C 400.034 2.21496 0.648694 0
M  V30 4189 C 401.004 1.17977 1.16921 0
M  V30 4190 O 402.189 1.46434 1.22318 0
M  V30 4191 C 399.329 2.92039 1.83868 0
M  V30 4192 C 398.442 4.10219 1.35442 0
M  V30 4193 C 397.577 4.6847 2.50419 0
M  V30 4194 C 396.616 5.78893 1.98869 0
M  V30 4195 N 395.753 6.31315 3.07223 0
M  V30 4196 H 400.593 2.97892 0.0801582 0
M  V30 4197 H 398.13 1.47074 0.0278031 0
M  V30 4198 H 400.088 3.31138 2.53778 0
M  V30 4199 H 398.718 2.18111 2.37965 0
M  V30 4200 H 397.77 3.76413 0.54928 0
M  V30 4201 H 399.082 4.89927 0.936649 0
M  V30 4202 H 398.236 5.10158 3.28366 0
M  V30 4203 H 396.975 3.87984 2.95499 0
M  V30 4204 H 395.98 5.3668 1.19393 0
M  V30 4205 H 397.205 6.61232 1.54755 0
M  V30 4206 H 395.151 5.53733 3.51732 0
M  V30 4207 H 395.068 7.06224 2.69784 0
M  V30 4208 H 396.336 6.77662 3.8522 0
M  V30 4209 N 400.565 -0.0233959 1.57583 0
M  V30 4210 C 401.515 -1.03023 2.03397 0
M  V30 4211 C 402.499 -1.31701 0.924315 0
M  V30 4212 O 403.691 -1.31191 1.18819 0
M  V30 4213 C 400.82 -2.32961 2.52159 0
M  V30 4214 C 399.906 -2.07349 3.69956 0
M  V30 4215 N 400.297 -1.51814 4.82479 0
M  V30 4216 C 398.595 -2.37606 3.77438 0
M  V30 4217 C 399.296 -1.42136 5.64068 0
M  V30 4218 N 398.272 -1.89891 5.09355 0
M  V30 4219 H 402.074 -0.594962 2.87815 0
M  V30 4220 H 399.588 -0.229586 1.60769 0
M  V30 4221 H 401.585 -3.05906 2.83244 0
M  V30 4222 H 400.245 -2.77162 1.69149 0
M  V30 4223 H 401.256 -1.20008 5.03804 0
M  V30 4224 H 397.933 -2.84842 3.05239 0
M  V30 4225 H 399.323 -0.996405 6.64471 0
M  V30 4226 N 402.043 -1.548 -0.295768 0
M  V30 4227 C 403.268 -1.78653 -1.05346 0
M  V30 4228 C 403.693 -0.546894 -1.79974 0
M  V30 4229 O 403.051 0.502763 -1.7419 0
M  V30 4230 C 403.099 -2.99679 -2.00561 0
M  V30 4231 O 402.203 -2.7317 -3.08953 0
M  V30 4232 H 401.544 -0.59116 -0.302367 0
M  V30 4233 H 404.074 -2.01895 -0.331598 0
M  V30 4234 H 404.084 -3.27793 -2.42932 0
M  V30 4235 H 402.759 -3.89562 -1.4565 0
M  V30 4236 H 401.336 -2.56089 -2.71059 0
M  V30 4237 N 403.521 0.559213 -1.47345 0
M  V30 4238 C 404.749 1.34194 -1.57479 0
M  V30 4239 C 405.164 1.87463 -0.224261 0
M  V30 4240 O 404.521 1.64888 0.782185 0
M  V30 4241 C 404.572 2.51324 -2.59843 0
M  V30 4242 O 404.293 2.00256 -3.89653 0
M  V30 4243 C 405.794 3.43563 -2.80142 0
M  V30 4244 H 403.014 0.409136 -0.531835 0
M  V30 4245 H 405.558 0.677609 -1.92947 0
M  V30 4246 H 403.713 3.13699 -2.27314 0
M  V30 4247 H 404.127 2.76708 -4.4557 0
M  V30 4248 H 405.601 4.2217 -3.55635 0
M  V30 4249 H 406.078 3.9698 -1.87892 0
M  V30 4250 H 406.684 2.87005 -3.1386 0
M  V30 4251 N 404.999 1.35443 0.805782 0
M  V30 4252 C 406.229 1.31687 1.59192 0
M  V30 4253 C 406.637 -0.10756 1.88894 0
M  V30 4254 O 405.98 -1.07017 1.49309 0
M  V30 4255 C 406.042 2.05686 2.94845 0
M  V30 4256 C 405.706 3.54868 2.87954 0
M  V30 4257 C 406.703 4.49444 2.61335 0
M  V30 4258 C 404.388 3.97528 3.07046 0
M  V30 4259 C 406.382 5.84655 2.53885 0
M  V30 4260 C 404.069 5.32833 2.99219 0
M  V30 4261 C 405.067 6.26209 2.72674 0
M  V30 4262 O 404.755 7.59032 2.64811 0
M  V30 4263 H 404.487 0.453878 0.50097 0
M  V30 4264 H 407.041 1.78892 1.0093 0
M  V30 4265 H 405.271 1.5312 3.55093 0
M  V30 4266 H 406.96 1.94998 3.55993 0
M  V30 4267 H 407.726 4.17804 2.46303 0
M  V30 4268 H 403.605 3.25233 3.26718 0
M  V30 4269 H 407.149 6.57508 2.33086 0
M  V30 4270 H 403.046 5.64087 3.13809 0
M  V30 4271 H 403.814 7.68967 2.80413 0
M  V30 4272 N 406.477 -1.02803 1.19454 0
M  V30 4273 C 407.425 -2.13213 0.929673 0
M  V30 4274 C 408.419 -1.69011 -0.114806 0
M  V30 4275 O 409.625 -1.79967 0.0345147 0
M  V30 4276 H 406 -0.69662 0.28324 0
M  V30 4277 H 407.971 -2.32744 1.86743 0
M  V30 4278 C 406.72 -3.4429 0.485797 0
M  V30 4279 H 406.043 -3.7872 1.28105 0
M  V30 4280 H 407.483 -4.22638 0.339582 0
M  V30 4281 C 405.942 -3.27258 -0.800244 0
M  V30 4282 O 406.472 -3.55967 -1.86146 0
M  V30 4283 N 404.678 -2.80545 -0.75781 0
M  V30 4284 H 404.225 -2.57382 0.106039 0
M  V30 4285 H 404.183 -2.6953 -1.61867 0
M  V30 4286 N 407.956 -0.998596 -1.21925 0
M  V30 4287 C 409.196 -0.685948 -1.92546 0
M  V30 4288 C 409.56 0.768441 -1.75952 0
M  V30 4289 O 410.761 1.19277 -2.40887 0
M  V30 4290 C 409.032 -1.08767 -3.40448 0
M  V30 4291 S 410.591 -0.894251 -4.29591 0
M  V30 4292 H 407.409 -0.250622 -0.665364 0
M  V30 4293 H 410.011 -1.28207 -1.47591 0
M  V30 4294 H 408.715 -2.14242 -3.50041 0
M  V30 4295 H 408.246 -0.48357 -3.90417 0
M  V30 4296 H 410.261 0.212149 -4.95746 0
M  V30 4297 N 409.434 1.37368 -0.772513 0
M  V30 4298 C 410.344 2.34053 -0.160081 0
M  V30 4299 C 411.36 1.60216 0.678728 0
M  V30 4300 O 412.536 1.92303 0.59847 0
M  V30 4301 C 409.601 3.3939 0.708182 0
M  V30 4302 C 408.662 4.29048 -0.147172 0
M  V30 4303 C 407.895 5.29354 0.679744 0
M  V30 4304 O 408.118 5.3723 1.91678 0
M  V30 4305 O 407.052 6.01835 0.0885444 0
M  V30 4306 H 410.878 2.88159 -0.959053 0
M  V30 4307 H 408.463 1.39543 -0.533685 0
M  V30 4308 H 410.345 4.03839 1.20384 0
M  V30 4309 H 409.02 2.8761 1.48533 0
M  V30 4310 H 407.927 3.67697 -0.689205 0
M  V30 4311 H 409.26 4.84134 -0.887423 0
M  V30 4312 N 410.912 0.523116 1.48665 0
M  V30 4313 C 412.142 -0.00961724 2.06598 0
M  V30 4314 C 412.55 -1.29333 1.38093 0
M  V30 4315 O 411.893 -1.77846 0.46007 0
M  V30 4316 C 411.955 -0.311135 3.58151 0
M  V30 4317 C 411.619 0.878092 4.48485 0
M  V30 4318 C 412.616 1.77464 4.88674 0
M  V30 4319 C 410.301 1.08315 4.90483 0
M  V30 4320 C 412.295 2.86021 5.69623 0
M  V30 4321 C 409.982 2.17187 5.71203 0
M  V30 4322 C 410.98 3.05873 6.10681 0
M  V30 4323 O 410.668 4.12862 6.89783 0
M  V30 4324 H 410.4 0.0272658 0.67545 0
M  V30 4325 H 412.954 0.726156 1.92136 0
M  V30 4326 H 411.184 -1.10079 3.70701 0
M  V30 4327 H 412.873 -0.785125 3.98234 0
M  V30 4328 H 413.639 1.62813 4.56855 0
M  V30 4329 H 409.518 0.402149 4.59243 0
M  V30 4330 H 413.062 3.55272 6.00356 0
M  V30 4331 H 408.959 2.31824 6.02435 0
M  V30 4332 H 409.727 4.10487 7.08126 0
M  V30 4333 N 412.39 -1.55475 0.257931 0
M  V30 4334 C 413.639 -1.98383 -0.364275 0
M  V30 4335 C 413.952 -1.14952 -1.58258 0
M  V30 4336 O 415.158 -1.47924 -2.27664 0
M  V30 4337 C 413.614 -3.53037 -0.699479 0
M  V30 4338 C 413.222 -4.45223 0.498046 0
M  V30 4339 C 414.966 -4.04575 -1.28526 0
M  V30 4340 C 412.873 -5.91238 0.138383 0
M  V30 4341 H 411.803 -0.740911 -0.13988 0
M  V30 4342 H 414.454 -1.79936 0.359883 0
M  V30 4343 H 412.836 -3.6722 -1.48207 0
M  V30 4344 H 414.01 -4.42803 1.27522 0
M  V30 4345 H 412.325 -4.04226 0.999503 0
M  V30 4346 H 414.922 -5.11196 -1.56788 0
M  V30 4347 H 415.265 -3.5258 -2.21344 0
M  V30 4348 H 415.798 -3.93762 -0.565337 0
M  V30 4349 H 412.537 -6.47294 1.03398 0
M  V30 4350 H 412.057 -5.96768 -0.602374 0
M  V30 4351 H 413.736 -6.46413 -0.27553 0
M  V30 4352 N 413.868 0.0150385 -1.57593 0
M  V30 4353 C 414.815 1.01126 -2.07466 0
M  V30 4354 C 415.785 1.35064 -0.966794 0
M  V30 4355 O 416.97 1.4516 -1.23827 0
M  V30 4356 C 414.11 2.30276 -2.57035 0
M  V30 4357 C 413.223 2.02373 -3.81666 0
M  V30 4358 C 412.358 3.25496 -4.19793 0
M  V30 4359 C 411.397 2.93211 -5.37303 0
M  V30 4360 N 410.534 4.08826 -5.70794 0
M  V30 4361 H 415.374 0.57901 -2.92321 0
M  V30 4362 H 412.911 0.27426 -1.44521 0
M  V30 4363 H 414.869 3.05757 -2.83846 0
M  V30 4364 H 413.499 2.71197 -1.75077 0
M  V30 4365 H 412.551 1.17327 -3.61854 0
M  V30 4366 H 413.863 1.74567 -4.67256 0
M  V30 4367 H 413.017 4.09333 -4.47807 0
M  V30 4368 H 411.756 3.56428 -3.32882 0
M  V30 4369 H 410.761 2.07777 -5.09027 0
M  V30 4370 H 411.986 2.63542 -6.25877 0
M  V30 4371 H 409.932 4.39682 -4.86842 0
M  V30 4372 H 409.849 3.84491 -6.50924 0
M  V30 4373 H 411.117 4.93496 -6.03392 0
M  V30 4374 N 415.346 1.54954 0.287554 0
M  V30 4375 C 416.623 1.65569 1.04146 0
M  V30 4376 C 417.003 0.512672 2.0478 0
M  V30 4377 O 416.351 -0.489038 2.23205 0
M  V30 4378 C 416.561 3.04163 1.71131 0
M  V30 4379 C 417.909 3.61429 2.22832 0
M  V30 4380 O 418.933 3.06702 1.81141 0
M  V30 4381 O 417.792 4.57281 2.9926 0
M  V30 4382 H 414.886 0.671881 0.482188 0
M  V30 4383 H 417.432 1.67297 0.28457 0
M  V30 4384 H 416.204 3.78796 0.981303 0
M  V30 4385 H 415.827 3.06271 2.53543 0
M  V30 4386 N 416.824 -0.551391 1.4764 0
M  V30 4387 C 417.771 -1.65796 1.60563 0
M  V30 4388 C 418.741 -1.59932 0.448428 0
M  V30 4389 O 419.926 -1.78679 0.669222 0
M  V30 4390 C 417.066 -3.04108 1.63133 0
M  V30 4391 C 416.179 -3.20365 2.89811 0
M  V30 4392 C 415.314 -4.49109 2.8368 0
M  V30 4393 C 414.353 -4.58819 4.05156 0
M  V30 4394 N 413.49 -5.78926 3.97227 0
M  V30 4395 H 418.33 -1.54088 2.5507 0
M  V30 4396 H 415.867 -0.75052 1.26513 0
M  V30 4397 H 417.825 -3.84207 1.62606 0
M  V30 4398 H 416.455 -3.14637 0.721341 0
M  V30 4399 H 415.507 -2.33659 3.00179 0
M  V30 4400 H 416.819 -3.23402 3.79753 0
M  V30 4401 H 415.973 -5.37475 2.81434 0
M  V30 4402 H 414.712 -4.4856 1.91431 0
M  V30 4403 H 413.717 -3.68864 4.077 0
M  V30 4404 H 414.942 -4.61124 4.98539 0
M  V30 4405 H 412.888 -5.79314 3.07785 0
M  V30 4406 H 412.805 -5.83367 4.80853 0
M  V30 4407 H 414.073 -6.69637 3.99007 0
M  V30 4408 N 418.302 -1.35869 -0.798587 0
M  V30 4409 C 419.249 -1.29446 -1.91082 0
M  V30 4410 C 420.219 -0.16487 -1.6528 0
M  V30 4411 O 421.404 -0.349888 -1.87564 0
M  V30 4412 C 418.544 -1.0804 -3.27752 0
M  V30 4413 C 417.657 -2.29993 -3.65687 0
M  V30 4414 C 416.792 -2.01673 -4.91428 0
M  V30 4415 C 415.831 -3.19636 -5.22015 0
M  V30 4416 N 414.968 -2.91039 -6.38937 0
M  V30 4417 H 419.808 -2.24553 -1.95907 0
M  V30 4418 H 417.345 -1.11615 -0.958148 0
M  V30 4419 H 419.303 -0.936586 -4.06551 0
M  V30 4420 H 417.933 -0.16592 -3.22373 0
M  V30 4421 H 416.985 -2.55211 -2.82085 0
M  V30 4422 H 418.297 -3.18052 -3.84245 0
M  V30 4423 H 417.451 -1.84168 -5.78072 0
M  V30 4424 H 416.19 -1.10911 -4.74921 0
M  V30 4425 H 415.195 -3.37709 -4.33858 0
M  V30 4426 H 416.42 -4.11211 -5.40447 0
M  V30 4427 H 414.366 -2.0288 -6.2384 0
M  V30 4428 H 414.283 -3.72635 -6.57784 0
M  V30 4429 H 415.551 -2.77093 -7.28587 0
M  V30 4430 N 419.78 1.02168 -1.19998 0
M  V30 4431 C 421.02 1.77232 -1.01825 0
M  V30 4432 C 421.384 1.86833 0.442428 0
M  V30 4433 O 422.585 2.58293 0.744189 0
M  V30 4434 C 420.856 3.15601 -1.67722 0
M  V30 4435 S 422.415 4.06765 -1.64584 0
M  V30 4436 H 419.233 0.610021 -0.365233 0
M  V30 4437 H 421.835 1.22368 -1.52467 0
M  V30 4438 H 420.539 3.06235 -2.73218 0
M  V30 4439 H 420.07 3.7554 -1.17189 0
M  V30 4440 H 422.085 4.91586 -0.67511 0
M  V30 4441 N 421.258 1.00505 1.21394 0
M  V30 4442 C 422.205 0.565496 2.23765 0
M  V30 4443 C 423.175 -0.408466 1.60999 0
M  V30 4444 O 424.36 -0.310503 1.88257 0
M  V30 4445 C 421.5 -0.101667 3.4495 0
M  V30 4446 C 420.613 0.915479 4.22188 0
M  V30 4447 C 419.748 0.220574 5.30742 0
M  V30 4448 C 418.787 1.22527 5.99711 0
M  V30 4449 N 417.924 0.557831 6.9988 0
M  V30 4450 H 422.764 1.44314 2.60725 0
M  V30 4451 H 420.301 0.722643 1.28126 0
M  V30 4452 H 422.259 -0.505504 4.14126 0
M  V30 4453 H 420.889 -0.94303 3.08718 0
M  V30 4454 H 419.941 1.43756 3.52191 0
M  V30 4455 H 421.253 1.68005 4.69655 0
M  V30 4456 H 420.407 -0.239368 6.06228 0
M  V30 4457 H 419.146 -0.576401 4.84282 0
M  V30 4458 H 418.151 1.69571 5.22997 0
M  V30 4459 H 419.376 2.02332 6.48258 0
M  V30 4460 H 417.322 -0.219486 6.55633 0
M  V30 4461 H 417.239 1.26065 7.45415 0
M  V30 4462 H 418.507 0.121095 7.79406 0
M  V30 4463 N 422.737 -1.36956 0.779787 0
M  V30 4464 C 423.962 -2.04283 0.358224 0
M  V30 4465 C 424.387 -1.58422 -1.01411 0
M  V30 4466 O 423.745 -0.748179 -1.65142 0
M  V30 4467 C 423.793 -3.58152 0.419479 0
M  V30 4468 O 422.897 -4.08342 -0.577142 0
M  V30 4469 H 422.238 -0.645967 0.153698 0
M  V30 4470 H 424.768 -1.75108 1.05822 0
M  V30 4471 H 424.778 -4.07041 0.279636 0
M  V30 4472 H 423.453 -3.90886 1.42061 0
M  V30 4473 H 422.03 -3.70751 -0.399755 0
M  V30 4474 N 424.215 -0.530993 -1.48385 0
M  V30 4475 C 425.463 0.00273189 -2.021 0
M  V30 4476 C 425.784 1.34672 -1.41027 0
M  V30 4477 O 425.054 1.8724 -0.576012 0
M  V30 4478 H 423.634 0.00399774 -0.746989 0
M  V30 4479 H 426.296 -0.695054 -1.82085 0
M  V30 4480 H 425.392 0.11031 -3.11905 0
M  V30 4481 N 425.693 1.55336 -0.266172 0
M  V30 4482 C 427.104 1.85236 0.233315 0
M  V30 4483 C 427.455 1.18816 1.56132 0
M  V30 4484 O 426.58 0.473307 2.11161 0
M  V30 4485 C 427.175 3.36059 0.430113 0
M  V30 4486 C 425.734 3.66116 0.873842 0
M  V30 4487 C 424.881 2.77274 -0.0380016 0
M  V30 4488 H 427.832 1.51004 -0.488214 0
M  V30 4489 H 427.853 3.58681 1.26998 0
M  V30 4490 H 427.365 3.84373 -0.536588 0
M  V30 4491 H 425.466 3.23295 1.85233 0
M  V30 4492 H 425.579 4.73699 0.717358 0
M  V30 4493 H 423.943 2.50198 0.476759 0
M  V30 4494 H 424.726 3.284 -1.00042 0
M  V30 4495 N 427.171 -0.0066808 1.57599 0
M  V30 4496 C 428.411 -0.697501 1.92131 0
M  V30 4497 C 428.775 -1.71306 0.867071 0
M  V30 4498 O 429.976 -2.45377 1.09743 0
M  V30 4499 C 428.247 -1.32978 3.3174 0
M  V30 4500 S 429.806 -2.04665 3.88146 0
M  V30 4501 H 426.624 -0.230555 0.672581 0
M  V30 4502 H 429.226 0.0484026 1.9544 0
M  V30 4503 H 427.93 -0.57772 4.06313 0
M  V30 4504 H 427.461 -2.11376 3.31789 0
M  V30 4505 H 429.476 -3.32097 3.68682 0
M  V30 4506 N 428.649 -1.55105 -0.279332 0
M  V30 4507 C 429.599 -1.83937 -1.34727 0
M  V30 4508 C 430.583 -0.69785 -1.44979 0
M  V30 4509 O 431.775 -0.95904 -1.48766 0
M  V30 4510 C 428.904 -2.1092 -2.70864 0
M  V30 4511 C 427.99 -3.31314 -2.64748 0
M  V30 4512 N 428.381 -4.51371 -2.2825 0
M  V30 4513 C 426.679 -3.33777 -2.95819 0
M  V30 4514 C 427.38 -5.33447 -2.31969 0
M  V30 4515 N 426.356 -4.71697 -2.7019 0
M  V30 4516 H 430.158 -2.74309 -1.05506 0
M  V30 4517 H 427.672 -1.54896 -0.487959 0
M  V30 4518 H 429.669 -2.2973 -3.47893 0
M  V30 4519 H 428.329 -1.21828 -3.00979 0
M  V30 4520 H 429.34 -4.77584 -2.00335 0
M  V30 4521 H 426.017 -2.54858 -3.30687 0
M  V30 4522 H 427.407 -6.39424 -2.06365 0
M  V30 4523 N 430.127 0.543554 -1.4793 0
M  V30 4524 C 431.057 1.65888 -1.64327 0
M  V30 4525 C 432.038 1.62818 -0.492383 0
M  V30 4526 O 433.223 1.80226 -0.723338 0
M  V30 4527 C 430.353 3.04506 -1.67013 0
M  V30 4528 C 429.307 3.2243 -2.81466 0
M  V30 4529 C 428.633 4.61972 -2.69233 0
M  V30 4530 C 429.933 3.06496 -4.22915 0
M  V30 4531 H 431.627 1.52421 -2.57698 0
M  V30 4532 H 429.173 0.731849 -1.24016 0
M  V30 4533 H 431.126 3.82391 -1.77074 0
M  V30 4534 H 429.85 3.18964 -0.70212 0
M  V30 4535 H 428.509 2.46957 -2.70938 0
M  V30 4536 H 428.157 4.73247 -1.7043 0
M  V30 4537 H 427.857 4.74911 -3.46025 0
M  V30 4538 H 429.381 5.41974 -2.81242 0
M  V30 4539 H 430.795 3.74186 -4.34348 0
M  V30 4540 H 429.192 3.30938 -5.006 0
M  V30 4541 H 430.262 2.03077 -4.40327 0
M  V30 4542 N 431.605 1.3629 0.791371 0
M  V30 4543 C 432.882 1.20962 1.53712 0
M  V30 4544 C 433.262 -0.205021 2.10102 0
M  V30 4545 O 432.61 -1.21042 1.93807 0
M  V30 4546 C 432.82 2.29002 2.63361 0
M  V30 4547 C 434.168 2.65572 3.31295 0
M  V30 4548 O 435.192 2.2803 2.73643 0
M  V30 4549 O 434.051 3.3018 4.35481 0
M  V30 4550 H 431.145 0.47086 0.679867 0
M  V30 4551 H 433.691 1.48016 0.830021 0
M  V30 4552 H 432.463 3.2382 2.19674 0
M  V30 4553 H 432.086 2.03303 3.41692 0
M  V30 4554 N 433.083 -1.0153 1.20538 0
M  V30 4555 C 434.031 -2.12215 0.952235 0
M  V30 4556 C 435.025 -1.69123 -0.0968735 0
M  V30 4557 O 436.231 -1.7992 0.0536006 0
M  V30 4558 H 432.606 -0.693576 0.290613 0
M  V30 4559 H 434.577 -2.3075 1.89201 0
M  V30 4560 C 433.326 -3.43755 0.522287 0
M  V30 4561 H 432.649 -3.7734 1.32115 0
M  V30 4562 H 434.089 -4.22254 0.384389 0
M  V30 4563 C 432.548 -3.28088 -0.765489 0
M  V30 4564 O 433.078 -3.57921 -1.8236 0
M  V30 4565 N 431.284 -2.81333 -0.728011 0
M  V30 4566 H 430.831 -2.57255 0.133332 0
M  V30 4567 H 430.789 -2.71232 -1.58999 0
M  V30 4568 N 434.561 -1.01147 -1.20859 0
M  V30 4569 C 435.786 -0.716698 -1.94623 0
M  V30 4570 C 436.211 0.715415 -1.73964 0
M  V30 4571 O 435.569 1.49157 -1.03062 0
M  V30 4572 C 435.617 -1.0513 -3.44935 0
M  V30 4573 O 434.721 -0.160131 -4.12089 0
M  V30 4574 H 434.062 -0.266404 -0.608214 0
M  V30 4575 H 436.592 -1.35346 -1.53436 0
M  V30 4576 H 436.602 -1.00086 -3.95533 0
M  V30 4577 H 435.277 -2.09475 -3.59295 0
M  V30 4578 H 433.854 -0.267657 -3.71938 0
M  V30 4579 N 436.039 1.36541 -0.78704 0
M  V30 4580 C 437.002 2.28413 -0.189778 0
M  V30 4581 C 438.002 1.48719 0.611499 0
M  V30 4582 O 439.192 1.68737 0.432842 0
M  V30 4583 C 436.324 3.32824 0.737638 0
M  V30 4584 H 437.517 2.82743 -0.999831 0
M  V30 4585 H 435.07 1.46065 -0.556298 0
M  V30 4586 H 435.805 2.83646 1.57212 0
M  V30 4587 H 435.59 3.91752 0.165044 0
M  V30 4588 H 437.08 4.0144 1.15047 0
M  V30 4589 N 437.518 0.538854 1.48102 0
M  V30 4590 C 438.451 -0.266495 2.26639 0
M  V30 4591 C 439.429 -0.93687 1.32897 0
M  V30 4592 O 440.613 -0.959507 1.62252 0
M  V30 4593 C 437.74 -1.37814 3.09394 0
M  V30 4594 C 436.786 -0.818247 4.18577 0
M  V30 4595 S 437.619 0.320848 5.34538 0
M  V30 4596 C 438.775 -0.793059 6.20855 0
M  V30 4597 H 439.008 0.399994 2.94597 0
M  V30 4598 H 436.541 0.324808 1.50945 0
M  V30 4599 H 438.499 -2.01488 3.57649 0
M  V30 4600 H 437.16 -2.01639 2.40833 0
M  V30 4601 H 436.353 -1.65247 4.7614 0
M  V30 4602 H 435.955 -0.258036 3.73109 0
M  V30 4603 H 438.247 -1.68961 6.56093 0
M  V30 4604 H 439.19 -0.255204 7.0764 0
M  V30 4605 H 439.598 -1.07746 5.54122 0
M  V30 4606 N 438.996 -1.55193 0.274407 0
M  V30 4607 C 440.244 -1.99187 -0.341902 0
M  V30 4608 C 440.565 -1.16422 -1.56431 0
M  V30 4609 O 439.835 -0.253573 -1.94252 0
M  V30 4610 H 438.415 -0.735721 -0.129317 0
M  V30 4611 H 441.077 -1.91168 0.379578 0
M  V30 4612 H 440.173 -3.05629 -0.632253 0
M  V30 4613 N 440.474 -0.00167713 -1.576 0
M  V30 4614 C 441.406 1.0174 -2.05382 0
M  V30 4615 C 442.419 1.30595 -0.972052 0
M  V30 4616 O 443.608 1.27542 -1.24882 0
M  V30 4617 C 440.708 2.35174 -2.44022 0
M  V30 4618 C 439.881 2.25234 -3.74951 0
M  V30 4619 C 438.94 3.4137 -4.00441 0
M  V30 4620 O 437.966 3.19483 -4.71083 0
M  V30 4621 N 439.168 4.64275 -3.48467 0
M  V30 4622 H 441.933 0.609902 -2.93428 0
M  V30 4623 H 439.494 0.185672 -1.60832 0
M  V30 4624 H 441.486 3.11643 -2.58187 0
M  V30 4625 H 440.056 2.67659 -1.61485 0
M  V30 4626 H 439.276 1.33664 -3.70847 0
M  V30 4627 H 440.564 2.15767 -4.60784 0
M  V30 4628 H 439.962 4.84955 -2.91264 0
M  V30 4629 H 438.519 5.38005 -3.67959 0
M  V30 4630 N 441.952 1.55251 0.271103 0
M  V30 4631 C 443.177 1.80306 1.02491 0
M  V30 4632 C 443.602 0.575457 1.79081 0
M  V30 4633 O 442.96 -0.474987 1.74967 0
M  V30 4634 C 443.008 3.02832 1.95768 0
M  V30 4635 O 442.112 2.78051 3.04568 0
M  V30 4636 H 441.453 0.595896 0.292923 0
M  V30 4637 H 443.983 2.02397 0.299436 0
M  V30 4638 H 443.993 3.31616 2.37686 0
M  V30 4639 H 442.668 3.9183 1.39434 0
M  V30 4640 H 441.245 2.60369 2.66951 0
M  V30 4641 N 443.43 -0.535701 1.48216 0
M  V30 4642 C 444.841 -1.11769 1.49548 0
M  V30 4643 C 445.192 -1.94442 0.26207 0
M  V30 4644 O 444.317 -2.06987 -0.631287 0
M  V30 4645 C 444.912 -2.03367 2.70975 0
M  V30 4646 C 443.471 -2.56795 2.75196 0
M  V30 4647 C 442.618 -1.33631 2.42977 0
M  V30 4648 H 445.569 -0.321232 1.55415 0
M  V30 4649 H 445.59 -2.87569 2.49167 0
M  V30 4650 H 445.102 -1.43169 3.60727 0
M  V30 4651 H 443.203 -3.20731 1.89638 0
M  V30 4652 H 443.316 -2.9632 3.76472 0
M  V30 4653 H 441.68 -1.6502 1.94012 0
M  V30 4654 H 442.463 -0.75194 3.34964 0
M  V30 4655 N 444.908 -1.36708 -0.784132 0
M  V30 4656 C 445.838 -1.34153 -1.91116 0
M  V30 4657 C 446.819 -0.212121 -1.68772 0
M  V30 4658 O 448.004 -0.410581 -1.8981 0
M  V30 4659 C 445.134 -1.13535 -3.28218 0
M  V30 4660 C 444.088 -2.23356 -3.65097 0
M  V30 4661 C 443.414 -1.87875 -5.00607 0
M  V30 4662 C 444.714 -3.65473 -3.73131 0
M  V30 4663 H 446.408 -2.28459 -1.93512 0
M  V30 4664 H 443.954 -1.09973 -0.929618 0
M  V30 4665 H 445.907 -1.10381 -4.06687 0
M  V30 4666 H 444.631 -0.156804 -3.26223 0
M  V30 4667 H 443.29 -2.25645 -2.88929 0
M  V30 4668 H 442.938 -0.885814 -4.95139 0
M  V30 4669 H 442.638 -2.61406 -5.26252 0
M  V30 4670 H 444.162 -1.86286 -5.81489 0
M  V30 4671 H 445.576 -3.65382 -4.41779 0
M  V30 4672 H 443.973 -4.37953 -4.10265 0
M  V30 4673 H 445.043 -3.99995 -2.74102 0
M  V30 4674 N 446.386 1.0089 -1.21074 0
M  V30 4675 C 447.611 1.78727 -1.05221 0
M  V30 4676 C 448.036 1.83932 0.393795 0
M  V30 4677 O 447.394 1.28004 1.28393 0
M  V30 4678 C 447.442 3.20665 -1.64944 0
M  V30 4679 O 446.546 4.02632 -0.892273 0
M  V30 4680 H 445.887 0.550973 -0.370574 0
M  V30 4681 H 448.417 1.26847 -1.60534 0
M  V30 4682 H 448.427 3.71352 -1.69002 0
M  V30 4683 H 447.102 3.16191 -2.70177 0
M  V30 4684 H 445.679 3.61207 -0.926492 0
M  V30 4685 N 447.864 1.01787 1.20321 0
M  V30 4686 C 448.827 0.593972 2.2137 0
M  V30 4687 C 449.827 -0.336553 1.57239 0
M  V30 4688 O 451.017 -0.125069 1.7375 0
M  V30 4689 C 448.149 -0.132433 3.40643 0
M  V30 4690 H 449.342 1.48791 2.60387 0
M  V30 4691 H 446.895 0.807803 1.33807 0
M  V30 4692 H 447.63 -1.04123 3.0713 0
M  V30 4693 H 447.415 0.53605 3.88418 0
M  V30 4694 H 448.905 -0.416314 4.1552 0
M  V30 4695 N 449.342 -1.36122 0.79427 0
M  V30 4696 C 450.588 -1.99406 0.369452 0
M  V30 4697 C 450.921 -1.62886 -1.05743 0
M  V30 4698 O 450.196 -0.886053 -1.73145 0
M  V30 4699 C 450.479 -3.56046 0.538833 0
M  V30 4700 C 450.332 -4.02404 2.00976 0
M  V30 4701 C 451.651 -4.40079 -0.0431359 0
M  V30 4702 H 448.77 -0.724397 0.135712 0
M  V30 4703 H 451.412 -1.61461 1.00151 0
M  V30 4704 H 449.562 -3.885 0.000771004 0
M  V30 4705 H 451.234 -3.80415 2.60926 0
M  V30 4706 H 449.477 -3.53765 2.51063 0
M  V30 4707 H 450.148 -5.11344 2.07922 0
M  V30 4708 H 452.624 -4.14013 0.416228 0
M  V30 4709 H 451.5 -5.48799 0.105374 0
M  V30 4710 H 451.761 -4.27264 -1.13571 0
M  V30 4711 N 450.82 -0.546701 -1.47814 0
M  V30 4712 C 452.066 -0.0269594 -2.03382 0
M  V30 4713 C 452.421 1.30406 -1.41464 0
M  V30 4714 O 451.714 1.8332 -0.557151 0
M  V30 4715 C 451.908 0.134869 -3.57145 0
M  V30 4716 C 451.737 -1.17891 -4.33972 0
M  V30 4717 C 450.507 -1.74336 -4.74273 0
M  V30 4718 C 452.705 -2.09361 -4.69758 0
M  V30 4719 N 450.687 -2.99829 -5.35701 0
M  V30 4720 C 452.058 -3.19431 -5.31379 0
M  V30 4721 C 454.113 -2.09484 -4.51687 0
M  V30 4722 C 452.816 -4.2971 -5.76838 0
M  V30 4723 C 454.842 -3.18767 -4.98138 0
M  V30 4724 C 454.204 -4.27557 -5.59799 0
M  V30 4725 H 450.303 -0.0517733 -0.780284 0
M  V30 4726 H 452.887 -0.731673 -1.80429 0
M  V30 4727 H 451.058 0.80869 -3.79888 0
M  V30 4728 H 452.79 0.655726 -3.99352 0
M  V30 4729 H 449.545 -1.28265 -4.559 0
M  V30 4730 H 449.969 -3.63765 -5.70968 0
M  V30 4731 H 454.611 -1.26663 -4.03381 0
M  V30 4732 H 452.329 -5.13297 -6.24141 0
M  V30 4733 H 455.915 -3.19937 -4.85934 0
M  V30 4734 H 454.795 -5.10725 -5.95088 0
M  V30 4735 N 452.299 1.55045 -0.282633 0
M  V30 4736 C 453.524 2.04628 0.337977 0
M  V30 4737 C 453.949 1.15937 1.48123 0
M  V30 4738 O 453.307 0.159532 1.80597 0
M  V30 4739 C 453.355 3.51854 0.78936 0
M  V30 4740 O 452.459 3.66236 1.89592 0
M  V30 4741 H 451.8 0.660434 0.0687261 0
M  V30 4742 H 454.33 2.00261 -0.419124 0
M  V30 4743 H 454.34 3.93361 1.08311 0
M  V30 4744 H 453.015 4.15873 -0.0470419 0
M  V30 4745 H 451.592 3.36633 1.60413 0
M  V30 4746 N 453.777 0.010035 1.57597 0
M  V30 4747 C 454.707 -0.976857 2.12084 0
M  V30 4748 C 455.688 -1.35191 1.03235 0
M  V30 4749 O 456.873 -1.43389 1.3097 0
M  V30 4750 C 454.003 -2.26548 2.63236 0
M  V30 4751 C 452.957 -2.03175 3.76701 0
M  V30 4752 C 452.283 -3.38138 4.14206 0
M  V30 4753 C 453.583 -1.38625 5.03568 0
M  V30 4754 H 455.277 -0.523145 2.94794 0
M  V30 4755 H 452.823 -0.250195 1.4181 0
M  V30 4756 H 454.776 -2.95952 2.99984 0
M  V30 4757 H 453.5 -2.74051 1.77661 0
M  V30 4758 H 452.159 -1.36195 3.40362 0
M  V30 4759 H 451.807 -3.83363 3.25641 0
M  V30 4760 H 451.507 -3.23312 4.90656 0
M  V30 4761 H 453.031 -4.08841 4.53521 0
M  V30 4762 H 454.445 -1.98 5.38023 0
M  V30 4763 H 452.842 -1.34256 5.84889 0
M  V30 4764 H 453.912 -0.356722 4.83586 0
M  V30 4765 N 455.255 -1.55392 -0.262866 0
M  V30 4766 C 456.185 -1.91978 -1.32917 0
M  V30 4767 C 457.166 -0.7828 -1.51017 0
M  V30 4768 O 458.351 -1.04178 -1.63892 0
M  V30 4769 C 455.481 -2.20055 -2.68687 0
M  V30 4770 C 454.435 -3.35854 -2.65304 0
M  V30 4771 C 453.761 -3.49435 -4.04721 0
M  V30 4772 C 455.061 -4.71977 -2.23685 0
M  V30 4773 H 456.755 -2.81292 -1.02544 0
M  V30 4774 H 454.301 -1.3534 -0.491846 0
M  V30 4775 H 456.254 -2.44237 -3.43404 0
M  V30 4776 H 454.978 -1.27551 -3.00663 0
M  V30 4777 H 453.637 -3.11655 -1.93045 0
M  V30 4778 H 453.285 -2.54379 -4.33936 0
M  V30 4779 H 452.985 -4.27297 -4.0335 0
M  V30 4780 H 454.509 -3.7592 -4.81161 0
M  V30 4781 H 455.923 -4.95637 -2.88127 0
M  V30 4782 H 454.32 -5.52828 -2.33456 0
M  V30 4783 H 455.39 -4.70115 -1.18827 0
M  V30 4784 N 456.733 0.527833 -1.48498 0
M  V30 4785 C 457.663 1.64136 -1.66077 0
M  V30 4786 C 458.644 1.62286 -0.509625 0
M  V30 4787 O 459.829 1.79449 -0.742413 0
M  V30 4788 C 456.959 3.02717 -1.70234 0
M  V30 4789 C 455.913 3.19426 -2.8487 0
M  V30 4790 C 455.239 4.5909 -2.74118 0
M  V30 4791 C 456.539 3.01993 -4.26142 0
M  V30 4792 H 458.233 1.4968 -2.593 0
M  V30 4793 H 455.779 0.718654 -1.24785 0
M  V30 4794 H 457.732 3.80491 -1.8112 0
M  V30 4795 H 456.456 3.18201 -0.735911 0
M  V30 4796 H 455.115 2.4407 -2.73542 0
M  V30 4797 H 454.763 4.71413 -1.7544 0
M  V30 4798 H 454.463 4.71214 -3.51042 0
M  V30 4799 H 455.987 5.3896 -2.86974 0
M  V30 4800 H 457.401 3.69558 -4.38292 0
M  V30 4801 H 455.798 3.2561 -5.04082 0
M  V30 4802 H 456.868 1.98396 -4.42456 0
M  V30 4803 N 458.211 1.37122 0.776871 0
M  V30 4804 C 459.141 1.35164 1.90402 0
M  V30 4805 C 460.122 0.221069 1.68657 0
M  V30 4806 O 461.307 0.420642 1.8959 0
M  V30 4807 C 458.437 1.15274 3.27611 0
M  V30 4808 C 457.391 2.25289 3.63908 0
M  V30 4809 C 456.717 1.90527 4.99603 0
M  V30 4810 C 458.017 3.67446 3.71188 0
M  V30 4811 H 459.711 2.29482 1.92297 0
M  V30 4812 H 457.257 1.10465 0.923773 0
M  V30 4813 H 459.21 1.12536 4.06096 0
M  V30 4814 H 457.934 0.174102 3.26136 0
M  V30 4815 H 456.593 2.27174 2.87728 0
M  V30 4816 H 456.241 0.91206 4.94662 0
M  V30 4817 H 455.941 2.64193 5.24858 0
M  V30 4818 H 457.465 1.89367 5.80493 0
M  V30 4819 H 458.879 3.67719 4.39836 0
M  V30 4820 H 457.276 4.40123 4.07936 0
M  V30 4821 H 458.346 4.01443 2.71977 0
M  V30 4822 N 459.689 -1.00246 1.21608 0
M  V30 4823 C 460.619 -2.10921 1.00172 0
M  V30 4824 C 461.6 -1.69938 -0.0741587 0
M  V30 4825 O 462.785 -1.94009 0.0861753 0
M  V30 4826 C 459.915 -3.42618 0.568355 0
M  V30 4827 C 458.869 -3.97407 1.58909 0
M  V30 4828 C 458.195 -5.25038 1.01187 0
M  V30 4829 C 459.495 -4.2918 2.97661 0
M  V30 4830 H 461.189 -2.29112 1.92739 0
M  V30 4831 H 458.735 -1.10101 0.928102 0
M  V30 4832 H 460.688 -4.19444 0.405555 0
M  V30 4833 H 459.412 -3.24227 -0.392961 0
M  V30 4834 H 458.071 -3.22703 1.73949 0
M  V30 4835 H 457.719 -5.02982 0.0421965 0
M  V30 4836 H 457.419 -5.62661 1.6937 0
M  V30 4837 H 458.943 -6.04507 0.860448 0
M  V30 4838 H 460.357 -4.96839 2.86049 0
M  V30 4839 H 458.754 -4.77952 3.6288 0
M  V30 4840 H 459.824 -3.3735 3.48315 0
M  V30 4841 N 461.167 -1.02423 -1.1978 0
M  V30 4842 C 462.413 -0.72878 -1.89896 0
M  V30 4843 C 462.768 0.734248 -1.77839 0
M  V30 4844 O 462.061 1.52733 -1.15685 0
M  V30 4845 C 462.255 -1.1088 -3.39765 0
M  V30 4846 C 462.084 -2.60722 -3.66407 0
M  V30 4847 C 460.854 -3.27623 -3.84696 0
M  V30 4848 C 463.052 -3.58924 -3.68345 0
M  V30 4849 N 461.034 -4.66617 -3.98926 0
M  V30 4850 C 462.405 -4.83514 -3.8809 0
M  V30 4851 C 464.46 -3.52788 -3.51347 0
M  V30 4852 C 463.163 -6.0271 -3.92598 0
M  V30 4853 C 465.189 -4.71394 -3.5713 0
M  V30 4854 C 464.551 -5.94796 -3.77356 0
M  V30 4855 H 460.65 -0.318473 -0.714212 0
M  V30 4856 H 463.234 -1.3106 -1.43984 0
M  V30 4857 H 461.405 -0.555233 -3.84411 0
M  V30 4858 H 463.137 -0.766082 -3.97383 0
M  V30 4859 H 459.892 -2.7804 -3.83393 0
M  V30 4860 H 460.316 -5.38805 -4.099 0
M  V30 4861 H 464.958 -2.58372 -3.3467 0
M  V30 4862 H 462.676 -6.97499 -4.08069 0
M  V30 4863 H 466.262 -4.6827 -3.45275 0
M  V30 4864 H 465.142 -6.85037 -3.81699 0
M  V30 4865 N 462.645 1.35699 -0.801477 0
M  V30 4866 C 463.892 1.98913 -0.379459 0
M  V30 4867 C 464.22 1.63592 1.05204 0
M  V30 4868 O 463.475 0.888563 1.74365 0
M  V30 4869 C 463.774 3.53828 -0.504041 0
M  V30 4870 C 463.44 4.09002 -1.8981 0
M  V30 4871 C 462.102 4.23783 -2.27951 0
M  V30 4872 C 464.454 4.38939 -2.81038 0
M  V30 4873 C 461.782 4.65816 -3.56696 0
M  V30 4874 C 464.134 4.82409 -4.09224 0
M  V30 4875 C 462.798 4.95395 -4.4737 0
M  V30 4876 H 462.068 0.727874 -0.138854 0
M  V30 4877 H 464.715 1.61994 -1.02128 0
M  V30 4878 H 463.02 3.91175 0.221242 0
M  V30 4879 H 464.717 4.00687 -0.158361 0
M  V30 4880 H 461.307 3.97946 -1.59176 0
M  V30 4881 H 465.491 4.27077 -2.52821 0
M  V30 4882 H 460.747 4.74059 -3.86106 0
M  V30 4883 H 464.921 5.04535 -4.80018 0
M  V30 4884 H 462.548 5.27724 -5.47185 0
M  V30 4885 N 464.123 0.554532 1.47522 0
M  V30 4886 C 465.053 -0.182974 2.32782 0
M  V30 4887 C 466.034 -0.911377 1.43624 0
M  V30 4888 O 467.219 -0.892366 1.72483 0
M  V30 4889 C 464.349 -1.21513 3.25349 0
M  V30 4890 C 463.303 -0.603355 4.23726 0
M  V30 4891 C 462.629 -1.73995 5.05598 0
M  V30 4892 C 463.929 0.441121 5.20434 0
M  V30 4893 H 465.623 0.52882 2.94693 0
M  V30 4894 H 463.169 0.255759 1.41711 0
M  V30 4895 H 465.122 -1.73922 3.83835 0
M  V30 4896 H 463.846 -1.95683 2.61487 0
M  V30 4897 H 462.505 -0.10059 3.66462 0
M  V30 4898 H 462.153 -2.47063 4.38143 0
M  V30 4899 H 461.853 -1.3364 5.72201 0
M  V30 4900 H 463.377 -2.26735 5.66942 0
M  V30 4901 H 464.791 0.00319931 5.733 0
M  V30 4902 H 463.188 0.763402 5.95224 0
M  V30 4903 H 464.258 1.33799 4.66075 0
M  V30 4904 N 465.601 -1.54893 0.290851 0
M  V30 4905 C 466.847 -2.0023 -0.321867 0
M  V30 4906 C 467.18 -1.179 -1.54316 0
M  V30 4907 O 466.455 -0.25293 -1.92848 0
M  V30 4908 C 466.738 -3.53456 -0.688515 0
M  V30 4909 C 466.591 -4.46532 0.541209 0
M  V30 4910 C 467.91 -4.13057 -1.51895 0
M  V30 4911 H 465.029 -0.727891 -0.115515 0
M  V30 4912 H 467.671 -1.85722 0.400931 0
M  V30 4913 H 465.821 -3.6595 -1.30433 0
M  V30 4914 H 467.493 -4.4596 1.17973 0
M  V30 4915 H 465.736 -4.17545 1.17636 0
M  V30 4916 H 466.407 -5.51475 0.240675 0
M  V30 4917 H 468.883 -4.03937 -0.99872 0
M  V30 4918 H 467.759 -5.20448 -1.74429 0
M  V30 4919 H 468.02 -3.64284 -2.50498 0
M  V30 4920 N 467.08 -0.0183926 -1.57589 0
M  V30 4921 C 468.326 0.663543 -1.91638 0
M  V30 4922 C 468.659 1.72392 -0.894134 0
M  V30 4923 O 467.934 1.94316 0.0846449 0
M  V30 4924 C 468.217 1.28984 -3.36207 0
M  V30 4925 C 468.07 0.239761 -4.49161 0
M  V30 4926 C 469.389 2.2109 -3.80536 0
M  V30 4927 H 466.508 0.239746 -0.696915 0
M  V30 4928 H 469.15 -0.073456 -1.89858 0
M  V30 4929 H 467.3 1.91799 -3.37854 0
M  V30 4930 H 468.972 -0.390119 -4.59647 0
M  V30 4931 H 467.215 -0.435972 -4.31604 0
M  V30 4932 H 467.886 0.717383 -5.47319 0
M  V30 4933 H 470.362 1.68273 -3.80557 0
M  V30 4934 H 469.238 2.61869 -4.82406 0
M  V30 4935 H 469.499 3.09764 -3.15434 0
M  V30 4936 N 468.558 1.5553 0.254621 0
M  V30 4937 C 469.974 1.4778 0.602753 0
M  V30 4938 C 470.174 0.707047 1.88688 0
M  V30 4939 O 469.23 0.233288 2.5142 0
M  V30 4940 C 470.543 2.92133 0.712648 0
M  V30 4941 C 472.091 3.02458 0.805488 0
M  V30 4942 C 472.566 4.48102 0.947009 0
M  V30 4943 N 474.057 4.52008 1.01207 0
M  V30 4944 C 474.792 5.61939 1.1407 0
M  V30 4945 N 474.288 6.81697 1.23536 0
M  V30 4946 N 476.081 5.49719 1.17325 0
M  V30 4947 H 468.232 2.04085 -0.588463 0
M  V30 4948 H 470.495 0.926229 -0.202001 0
M  V30 4949 H 470.201 3.51332 -0.160766 0
M  V30 4950 H 470.075 3.42187 1.58707 0
M  V30 4951 H 472.462 2.43344 1.66936 0
M  V30 4952 H 472.543 2.55627 -0.0939266 0
M  V30 4953 H 472.187 5.07824 0.087725 0
M  V30 4954 H 472.117 4.92607 1.86135 0
M  V30 4955 H 474.608 3.65749 0.950577 0
M  V30 4956 H 474.921 7.61228 1.33236 0
M  V30 4957 H 473.266 6.84473 1.20508 0
M  V30 4958 H 476.457 4.55095 1.09573 0
M  V30 4959 H 476.63 6.35432 1.27005 0
M  V30 4960 N 470.036 -0.519951 1.48776 0
M  V30 4961 C 470.999 -1.60574 1.6355 0
M  V30 4962 C 471.999 -1.52557 0.508234 0
M  V30 4963 O 473.189 -1.56047 0.774262 0
M  V30 4964 C 470.321 -3.00211 1.61512 0
M  V30 4965 H 471.514 -1.4881 2.60376 0
M  V30 4966 H 469.067 -0.742772 1.37523 0
M  V30 4967 H 469.802 -3.17471 0.662009 0
M  V30 4968 H 469.587 -3.07439 2.43359 0
M  V30 4969 H 471.077 -3.79134 1.75064 0
M  V30 4970 N 471.514 -1.37532 -0.769588 0
M  V30 4971 C 472.761 -1.3286 -1.52822 0
M  V30 4972 C 473.089 0.0862597 -1.94309 0
M  V30 4973 O 472.344 1.05995 -1.6451 0
M  V30 4974 C 472.643 -2.21558 -2.8044 0
M  V30 4975 C 472.309 -3.69796 -2.57996 0
M  V30 4976 C 470.971 -4.10194 -2.51583 0
M  V30 4977 C 473.323 -4.63699 -2.37976 0
M  V30 4978 C 470.651 -5.42608 -2.23144 0
M  V30 4979 C 473.003 -5.96353 -2.1106 0
M  V30 4980 C 471.667 -6.35853 -2.03093 0
M  V30 4981 H 470.937 -0.486168 -0.559215 0
M  V30 4982 H 473.584 -1.69757 -0.886277 0
M  V30 4983 H 471.889 -1.77663 -3.49204 0
M  V30 4984 H 473.586 -2.15256 -3.38328 0
M  V30 4985 H 470.176 -3.37759 -2.63851 0
M  V30 4986 H 474.36 -4.33346 -2.41919 0
M  V30 4987 H 469.616 -5.72173 -2.15472 0
M  V30 4988 H 473.79 -6.68667 -1.94568 0
M  V30 4989 H 471.417 -7.38382 -1.8082 0
M  V30 4990 N 472.992 0.995999 -1.22138 0
M  V30 4991 C 474.403 1.54961 -1.04135 0
M  V30 4992 C 474.754 1.92159 0.396147 0
M  V30 4993 O 473.879 1.74435 1.28069 0
M  V30 4994 C 474.474 2.81581 -1.88408 0
M  V30 4995 C 473.033 3.33396 -1.74712 0
M  V30 4996 C 472.18 2.06509 -1.85066 0
M  V30 4997 H 475.131 0.817436 -1.36028 0
M  V30 4998 H 475.152 3.53822 -1.39966 0
M  V30 4999 H 474.664 2.54476 -2.93025 0
M  V30 5000 H 472.765 3.65416 -0.728159 0
M  V30 5001 H 472.878 4.04208 -2.57202 0
M  V30 5002 H 471.242 2.19925 -1.28472 0
M  V30 5003 H 472.025 1.81804 -2.91208 0
M  V30 5004 N 474.47 1.03057 1.19235 0
M  V30 5005 C 475.747 0.642608 1.84743 0
M  V30 5006 C 476.127 -0.878577 1.91948 0
M  V30 5007 O 475.475 -1.77597 1.43776 0
M  V30 5008 C 475.685 1.30665 3.23616 0
M  V30 5009 C 477.033 1.43098 3.9976 0
M  V30 5010 O 478.057 1.26396 3.3302 0
M  V30 5011 O 476.916 1.70223 5.19313 0
M  V30 5012 H 474.01 0.223573 0.796206 0
M  V30 5013 H 476.556 1.12883 1.26711 0
M  V30 5014 H 475.328 2.34544 3.13217 0
M  V30 5015 H 474.951 0.808405 3.89295 0
M  V30 5016 N 475.948 -1.35272 0.808662 0
M  V30 5017 C 477.196 -1.98316 0.389233 0
M  V30 5018 C 477.517 -1.64465 -1.04767 0
M  V30 5019 O 476.787 -0.928175 -1.72516 0
M  V30 5020 H 475.367 -0.733585 0.140935 0
M  V30 5021 H 478.029 -1.6515 1.03496 0
M  V30 5022 H 477.125 -3.08123 0.496631 0
M  V30 5023 N 477.426 -0.562348 -1.47226 0
M  V30 5024 C 478.837 -0.130325 -1.86245 0
M  V30 5025 C 479.188 1.30128 -1.46838 0
M  V30 5026 O 478.313 1.97974 -0.873805 0
M  V30 5027 C 478.908 -0.229738 -3.3802 0
M  V30 5028 C 477.467 0.14728 -3.76112 0
M  V30 5029 C 476.614 -0.574971 -2.71274 0
M  V30 5030 H 479.565 -0.771773 -1.3867 0
M  V30 5031 H 479.586 0.550316 -3.76499 0
M  V30 5032 H 479.098 -1.27178 -3.66671 0
M  V30 5033 H 477.199 1.19023 -3.53078 0
M  V30 5034 H 477.312 -0.214858 -4.78618 0
M  V30 5035 H 475.676 -0.0174756 -2.54694 0
M  V30 5036 H 476.459 -1.61827 -3.02766 0
M  V30 5037 N 478.904 1.54736 -0.299062 0
M  V30 5038 C 480.152 1.99706 0.31017 0
M  V30 5039 C 480.473 1.18896 1.54559 0
M  V30 5040 O 479.743 0.284445 1.93824 0
M  V30 5041 H 478.323 0.737686 0.117596 0
M  V30 5042 H 480.985 1.9054 -0.409943 0
M  V30 5043 H 480.081 3.06596 0.58355 0
M  V30 5044 N 480.382 0.0267497 1.57577 0
M  V30 5045 C 481.312 -0.954308 2.13108 0
M  V30 5046 C 482.293 -1.34088 1.04663 0
M  V30 5047 O 483.478 -1.41992 1.32484 0
M  V30 5048 C 480.608 -2.23744 2.65624 0
M  V30 5049 C 479.562 -1.99168 3.78835 0
M  V30 5050 C 478.888 -3.33726 4.17769 0
M  V30 5051 C 480.188 -1.33277 5.0501 0
M  V30 5052 H 481.882 -0.491848 2.95332 0
M  V30 5053 H 479.428 -0.23514 1.42067 0
M  V30 5054 H 481.381 -2.92754 3.03106 0
M  V30 5055 H 480.105 -2.72151 1.80558 0
M  V30 5056 H 478.764 -1.32577 3.41788 0
M  V30 5057 H 478.412 -3.79888 3.29688 0
M  V30 5058 H 478.112 -3.18089 4.94058 0
M  V30 5059 H 479.636 -4.04008 4.57832 0
M  V30 5060 H 481.05 -1.92283 5.40093 0
M  V30 5061 H 479.447 -1.28045 5.8628 0
M  V30 5062 H 480.517 -0.305411 4.83937 0
M  V30 5063 N 481.861 -1.55662 -0.24637 0
M  V30 5064 C 482.791 -1.93377 -1.30873 0
M  V30 5065 C 483.772 -0.798773 -1.50179 0
M  V30 5066 O 484.957 -1.0591 -1.62778 0
M  V30 5067 C 482.087 -2.22893 -2.66338 0
M  V30 5068 C 481.041 -3.38649 -2.61727 0
M  V30 5069 C 480.367 -3.53708 -4.00992 0
M  V30 5070 C 481.667 -4.74323 -2.18666 0
M  V30 5071 H 483.361 -2.82363 -0.995552 0
M  V30 5072 H 480.907 -1.35854 -0.477464 0
M  V30 5073 H 482.86 -2.47866 -3.40794 0
M  V30 5074 H 481.584 -1.30733 -2.99293 0
M  V30 5075 H 480.243 -3.13685 -1.89729 0
M  V30 5076 H 479.891 -2.58967 -4.31214 0
M  V30 5077 H 479.591 -4.31551 -3.98795 0
M  V30 5078 H 481.115 -3.81003 -4.77147 0
M  V30 5079 H 482.529 -4.98665 -2.82854 0
M  V30 5080 H 480.926 -5.55273 -2.27579 0
M  V30 5081 H 481.996 -4.71349 -1.13834 0
M  V30 5082 O 483.378 0.392 -1.5667 0
M  V30 5083 H 484.069 1.04392 -1.63163 0
M  V30 END ATOM
M  V30 BEGIN BOND
M  V30 END BOND
M  V30 END CTAB
M  END
$$$$
