drugbank_target|P53041 Serine/threonine-protein phosphatase 5 (DB00171)
 OpenBabel12092120283D

  0  0  0     0  0            999 V3000
M  V30 BEGIN CTAB
M  V30 COUNTS 7916 8005 0 0 0
M  V30 BEGIN ATOM
M  V30 1 H -0.908 1.98254 -0.117106 0
M  V30 2 N 0 1.576 0 0
M  V30 3 C 0.933 2.03868 1.02534 0
M  V30 4 C 1.911 0.928543 1.3348 0
M  V30 5 O 3.095 1.19667 1.45644 0
M  V30 6 C 0.222 2.43627 2.35294 0
M  V30 7 C -0.732 3.65373 2.2001 0
M  V30 8 S 0.101 5.13292 1.52614 0
M  V30 9 C 1.257 5.56322 2.86805 0
M  V30 10 H 1.49 2.90518 0.631377 0
M  V30 11 H -0.977 1.52953 0.210867 0
M  V30 12 H 0.981 2.67203 3.11629 0
M  V30 13 H -0.358 1.57376 2.7183 0
M  V30 14 H -1.165 3.90944 3.18086 0
M  V30 15 H -1.563 3.418 1.51819 0
M  V30 16 H 0.729 5.58782 3.83104 0
M  V30 17 H 1.672 6.56266 2.65933 0
M  V30 18 H 2.08 4.83886 2.90714 0
M  V30 19 N 1.4781 -0.272755 1.55222 0
M  V30 20 C 2.4411 -1.32041 1.87344 0
M  V30 21 C 3.4411 -1.42342 0.74803 0
M  V30 22 O 4.6311 -1.41488 1.0162 0
M  V30 23 C 1.7631 -2.70173 2.07893 0
M  V30 24 H 2.9561 -1.04789 2.80997 0
M  V30 25 H 0.5091 -0.51083 1.47717 0
M  V30 26 H 1.2441 -3.02605 1.16622 0
M  V30 27 H 1.0291 -2.64082 2.89833 0
M  V30 28 H 2.5191 -3.45869 2.34017 0
M  V30 29 N 2.9562 -1.48159 -0.537278 0
M  V30 30 C 3.8892 -1.567 -1.65893 0
M  V30 31 C 4.8672 -0.41787 -1.57139 0
M  V30 32 O 6.0512 -0.628461 -1.77715 0
M  V30 33 C 3.1782 -1.48818 -3.04255 0
M  V30 34 C 2.2242 -2.68482 -3.31391 0
M  V30 35 S 3.0572 -4.30516 -3.1846 0
M  V30 36 C 4.2132 -4.2522 -4.59281 0
M  V30 37 H 4.4462 -2.5159 -1.58397 0
M  V30 38 H 1.9792 -1.36602 -0.719672 0
M  V30 39 H 3.9372 -1.44958 -3.84054 0
M  V30 40 H 2.5982 -0.552777 -3.09198 0
M  V30 41 H 1.7912 -2.59085 -4.32309 0
M  V30 42 H 1.3932 -2.69567 -2.59248 0
M  V30 43 H 3.6852 -3.94703 -5.5065 0
M  V30 44 H 4.6282 -5.26292 -4.73732 0
M  V30 45 H 5.0362 -3.55791 -4.38261 0
M  V30 46 N 4.4343 0.785586 -1.36625 0
M  V30 47 C 5.3973 1.87999 -1.31107 0
M  V30 48 C 6.3973 1.59316 -0.217959 0
M  V30 49 O 7.5873 1.67656 -0.472977 0
M  V30 50 C 4.7193 3.24861 -1.03334 0
M  V30 51 H 5.9123 1.94307 -2.2844 0
M  V30 52 H 3.4653 0.983813 -1.21453 0
M  V30 53 H 4.2003 3.24235 -0.0647432 0
M  V30 54 H 3.9853 3.4707 -1.82441 0
M  V30 55 H 5.4753 4.04929 -1.02088 0
M  V30 56 N 5.9124 1.20967 1.01018 0
M  V30 57 C 6.8224 0.980157 2.13143 0
M  V30 58 C 7.8384 -0.0660665 1.73875 0
M  V30 59 O 9.0144 0.122821 2.01025 0
M  V30 60 C 6.0794 0.54216 3.42435 0
M  V30 61 C 5.1404 1.65999 3.95908 0
M  V30 62 C 4.3734 1.2428 5.19028 0
M  V30 63 O 4.5964 0.114196 5.70286 0
M  V30 64 O 3.5304 2.05271 5.65816 0
M  V30 65 H 7.3564 1.91913 2.35379 0
M  V30 66 H 4.9414 0.994099 1.11526 0
M  V30 67 H 6.8234 0.30744 4.20277 0
M  V30 68 H 5.4984 -0.36815 3.216 0
M  V30 69 H 4.4054 1.94906 3.19316 0
M  V30 70 H 5.7384 2.54753 4.21143 0
M  V30 71 N 7.3905 -1.2043 1.01659 0
M  V30 72 C 8.6385 -1.89423 0.704522 0
M  V30 73 C 8.9595 -1.79231 -0.768197 0
M  V30 74 O 8.2295 -1.1947 -1.55254 0
M  V30 75 H 6.8095 -0.701178 0.257602 0
M  V30 76 H 9.4715 -1.4626 1.28818 0
M  V30 77 H 8.5675 -2.96052 0.987916 0
M  V30 78 N 8.8686 -0.792821 -1.36206 0
M  V30 79 C 9.7786 -0.194808 -2.3379 0
M  V30 80 C 10.7946 0.654869 -1.61206 0
M  V30 81 O 11.9706 0.569856 -1.9317 0
M  V30 82 C 9.0356 0.657721 -3.40404 0
M  V30 83 C 8.0966 -0.210849 -4.28782 0
M  V30 84 C 7.3296 0.601086 -5.30304 0
M  V30 85 O 7.5526 1.83682 -5.40016 0
M  V30 86 O 6.4866 -0.000808277 -6.019 0
M  V30 87 H 10.3126 -1.00172 -2.86704 0
M  V30 88 H 7.8976 -0.554341 -1.38735 0
M  V30 89 H 9.7796 1.14375 -4.05581 0
M  V30 90 H 8.4546 1.44247 -2.89784 0
M  V30 91 H 7.3616 -0.743714 -3.66633 0
M  V30 92 H 8.6946 -0.959195 -4.82763 0
M  V30 93 N 10.3467 1.47872 -0.545128 0
M  V30 94 C 11.7627 1.5829 -0.204032 0
M  V30 95 C 11.9627 1.54529 1.29317 0
M  V30 96 O 11.0187 1.44232 2.07252 0
M  V30 97 C 12.3317 2.89304 -0.819987 0
M  V30 98 C 13.8797 3.02864 -0.790105 0
M  V30 99 C 14.3547 4.3656 -1.38491 0
M  V30 100 N 15.8457 4.43165 -1.34755 0
M  V30 101 C 16.5807 5.45153 -1.77753 0
M  V30 102 N 16.0767 6.54016 -2.2855 0
M  V30 103 N 17.8697 5.36125 -1.68897 0
M  V30 104 H 10.0207 1.4856 -1.51802 0
M  V30 105 H 12.2837 0.706305 -0.632327 0
M  V30 106 H 11.9897 2.97757 -1.87173 0
M  V30 107 H 11.8637 3.75957 -0.305915 0
M  V30 108 H 14.2507 2.94014 0.252913 0
M  V30 109 H 14.3317 2.17782 -1.34181 0
M  V30 110 H 13.9757 4.46164 -2.42693 0
M  V30 111 H 13.9057 5.20353 -0.808754 0
M  V30 112 H 16.3967 3.65083 -0.975855 0
M  V30 113 H 16.7097 7.27994 -2.59314 0
M  V30 114 H 15.0547 6.54938 -2.32553 0
M  V30 115 H 18.2457 4.49975 -1.28998 0
M  V30 116 H 18.4187 6.15472 -2.02726 0
M  V30 117 N 11.8248 0.280983 1.55075 0
M  V30 118 C 13.0528 -0.337293 2.04132 0
M  V30 119 C 13.4678 -1.4903 1.15912 0
M  V30 120 O 12.8248 -1.81606 0.180459 0
M  V30 121 C 12.8758 -0.812706 3.52246 0
M  V30 122 O 12.5968 0.294387 4.3711 0
M  V30 123 C 14.0978 -1.4982 4.17216 0
M  V30 124 H 11.3178 -0.0761638 0.666663 0
M  V30 125 H 13.8618 0.414787 2.00249 0
M  V30 126 H 12.0168 -1.51486 3.56554 0
M  V30 127 H 12.4308 -0.0721325 5.2445 0
M  V30 128 H 13.9048 -1.7822 5.22438 0
M  V30 129 H 14.3818 -2.43168 3.65741 0
M  V30 130 H 14.9878 -0.839742 4.16927 0
M  V30 131 N 13.3029 -1.57598 0.00835791 0
M  V30 132 C 14.2129 -2.12385 -0.996487 0
M  V30 133 C 15.2289 -1.07108 -1.37127 0
M  V30 134 O 16.4049 -1.39055 -1.4569 0
M  V30 135 C 13.4699 -2.62314 -2.26699 0
M  V30 136 C 12.5309 -3.82225 -1.95456 0
M  V30 137 C 11.7639 -4.29763 -3.16449 0
M  V30 138 O 11.9869 -3.76584 -4.28416 0
M  V30 139 O 10.9209 -5.21832 -2.99958 0
M  V30 140 H 14.7469 -2.98479 -0.560725 0
M  V30 141 H 12.3319 -1.47903 -0.210987 0
M  V30 142 H 14.2139 -2.94589 -3.01322 0
M  V30 143 H 12.8889 -1.79313 -2.69497 0
M  V30 144 H 11.7959 -3.54909 -1.18282 0
M  V30 145 H 13.1289 -4.66324 -1.57489 0
M  V30 146 N 14.781 0.264519 -1.55364 0
M  V30 147 C 16.021 1.00254 -1.78125 0
M  V30 148 C 16.385 1.83187 -0.575017 0
M  V30 149 O 17.586 2.60029 -0.681042 0
M  V30 150 C 15.857 1.85478 -3.05504 0
M  V30 151 S 17.416 2.6543 -3.49417 0
M  V30 152 H 14.234 0.337522 -0.625779 0
M  V30 153 H 16.836 0.272111 -1.93597 0
M  V30 154 H 15.54 1.23491 -3.9138 0
M  V30 155 H 15.071 2.62827 -2.92721 0
M  V30 156 H 17.086 3.87958 -3.09359 0
M  V30 157 N 16.2591 1.48442 0.529413 0
M  V30 158 C 17.2221 1.62524 1.61612 0
M  V30 159 C 18.2221 0.498509 1.52877 0
M  V30 160 O 19.4121 0.76431 1.56537 0
M  V30 161 C 16.5441 1.59597 3.01233 0
M  V30 162 H 17.7371 2.59423 1.50465 0
M  V30 163 H 15.2901 1.37047 0.751514 0
M  V30 164 H 16.0251 0.641781 3.17886 0
M  V30 165 H 15.8101 2.41397 3.08982 0
M  V30 166 H 17.3001 1.72646 3.80241 0
M  V30 167 N 17.7372 -0.778329 1.37039 0
M  V30 168 C 18.6472 -1.92253 1.34446 0
M  V30 169 C 19.6632 -1.72267 0.244991 0
M  V30 170 O 20.8392 -1.95615 0.479258 0
M  V30 171 C 17.9042 -3.27282 1.144 0
M  V30 172 C 16.9652 -3.59969 2.33925 0
M  V30 173 C 16.1982 -4.88555 2.14825 0
M  V30 174 O 16.4212 -5.59113 1.12912 0
M  V30 175 O 15.3552 -5.20153 3.02861 0
M  V30 176 H 19.1812 -1.97392 2.30803 0
M  V30 177 H 16.7662 -0.920154 1.17701 0
M  V30 178 H 18.6482 -4.08062 1.05182 0
M  V30 179 H 17.3232 -3.23011 0.211124 0
M  V30 180 H 16.2302 -2.7945 2.48714 0
M  V30 181 H 17.5632 -3.68976 3.25757 0
M  V30 182 N 19.2153 -1.21501 -1.00376 0
M  V30 183 C 20.6263 -1.03146 -1.55621 0
M  V30 184 C 20.9773 0.408375 -1.91903 0
M  V30 185 O 20.1023 1.29177 -1.73616 0
M  V30 186 C 20.6973 -1.86612 -2.82775 0
M  V30 187 C 19.2563 -1.72586 -3.34501 0
M  V30 188 C 18.4033 -1.83747 -2.07683 0
M  V30 189 H 21.3543 -1.35505 -0.826081 0
M  V30 190 H 21.3753 -1.3771 -3.54706 0
M  V30 191 H 20.8873 -2.91399 -2.56336 0
M  V30 192 H 18.9883 -0.704877 -3.65872 0
M  V30 193 H 19.1013 -2.54623 -4.05837 0
M  V30 194 H 17.4653 -1.27069 -2.20739 0
M  V30 195 H 18.2483 -2.90044 -1.83655 0
M  V30 196 N 20.6934 1.19889 -1.02296 0
M  V30 197 C 22.1044 1.71124 -0.746568 0
M  V30 198 C 22.4554 1.81939 0.734335 0
M  V30 199 O 21.5804 1.48639 1.57275 0
M  V30 200 C 22.1754 3.10804 -1.34857 0
M  V30 201 C 20.7344 3.59323 -1.1209 0
M  V30 202 C 19.8814 2.3635 -1.45031 0
M  V30 203 H 22.8324 1.04813 -1.19163 0
M  V30 204 H 22.8534 3.73186 -0.742437 0
M  V30 205 H 22.3654 3.029 -2.42638 0
M  V30 206 H 20.4664 3.7255 -0.0610337 0
M  V30 207 H 20.5794 4.4378 -1.80544 0
M  V30 208 H 18.9434 2.39399 -0.869487 0
M  V30 209 H 19.7264 2.31081 -2.53883 0
M  V30 210 N 22.1715 0.800033 1.35784 0
M  V30 211 C 23.5875 0.482977 1.52117 0
M  V30 212 C 23.7875 -0.996948 1.75109 0
M  V30 213 O 22.8435 -1.78216 1.78872 0
M  V30 214 C 24.1565 1.32264 2.70049 0
M  V30 215 C 25.7045 1.31742 2.83924 0
M  V30 216 C 26.1795 2.14106 4.04874 0
M  V30 217 N 27.6705 2.11607 4.12039 0
M  V30 218 C 28.4055 2.72099 5.04727 0
M  V30 219 N 27.9015 3.41492 6.02789 0
M  V30 220 N 29.6945 2.61776 4.97423 0
M  V30 221 H 21.8455 1.75856 1.19115 0
M  V30 222 H 24.1085 0.748122 0.582252 0
M  V30 223 H 23.8145 2.37261 2.59616 0
M  V30 224 H 23.6885 0.971303 3.6448 0
M  V30 225 H 26.0755 0.275333 2.93813 0
M  V30 226 H 26.1565 1.70859 1.9037 0
M  V30 227 H 25.8005 3.18351 3.95746 0
M  V30 228 H 25.7305 1.72353 4.97596 0
M  V30 229 H 28.2215 1.61112 3.41835 0
M  V30 230 H 28.5345 3.84953 6.70098 0
M  V30 231 H 26.8795 3.45596 6.02983 0
M  V30 232 H 30.0705 2.07157 4.19766 0
M  V30 233 H 30.2435 3.0921 5.69468 0
M  V30 234 N 23.6496 -1.47581 0.552962 0
M  V30 235 C 24.9266 -1.95563 -0.0381515 0
M  V30 236 C 25.3066 -1.49552 -1.48988 0
M  V30 237 O 24.6546 -0.732414 -2.16444 0
M  V30 238 C 24.8646 -3.48848 0.102919 0
M  V30 239 C 26.2126 -4.24577 -0.0446082 0
M  V30 240 O 27.2366 -3.56187 0.0302548 0
M  V30 241 O 26.0956 -5.46116 -0.204923 0
M  V30 242 H 23.1896 -0.824321 -0.0665067 0
M  V30 243 H 25.7356 -1.58001 0.619186 0
M  V30 244 H 24.5076 -3.75129 1.11328 0
M  V30 245 H 24.1306 -3.93165 -0.592224 0
M  V30 246 N 25.1277 -0.289203 -1.54924 0
M  V30 247 C 26.0377 0.601863 -2.26748 0
M  V30 248 C 27.0537 1.15834 -1.2984 0
M  V30 249 O 28.2297 1.18564 -1.62802 0
M  V30 250 C 25.2947 1.76299 -2.98529 0
M  V30 251 C 24.3557 1.24178 -4.10948 0
M  V30 252 C 23.5887 2.34757 -4.79296 0
M  V30 253 O 23.8117 3.54411 -4.46933 0
M  V30 254 O 22.7457 2.02115 -5.66951 0
M  V30 255 H 26.5717 0.0195879 -3.03694 0
M  V30 256 H 24.1567 -0.0560868 -1.49295 0
M  V30 257 H 26.0387 2.43973 -3.43592 0
M  V30 258 H 24.7137 2.33209 -2.24488 0
M  V30 259 H 23.6207 0.531104 -3.70311 0
M  V30 260 H 24.9537 0.718252 -4.86931 0
M  V30 261 N 26.6058 1.57591 -0.0167156 0
M  V30 262 C 28.0168 1.79201 0.523834 0
M  V30 263 C 28.3678 0.925796 1.72984 0
M  V30 264 O 27.4928 0.132792 2.15992 0
M  V30 265 C 28.0878 3.25 0.957091 0
M  V30 266 C 26.6468 3.47648 1.44283 0
M  V30 267 C 25.7938 2.74374 0.401757 0
M  V30 268 H 28.7448 1.56831 -0.242816 0
M  V30 269 H 28.7658 3.34031 1.82219 0
M  V30 270 H 28.2778 3.88019 0.0791415 0
M  V30 271 H 26.3788 2.89866 2.34113 0
M  V30 272 H 26.4918 4.56352 1.45877 0
M  V30 273 H 24.8558 2.39485 0.867121 0
M  V30 274 H 25.6388 3.40102 -0.467513 0
M  V30 275 N 28.0839 -0.256276 1.55502 0
M  V30 276 C 29.4949 -0.826068 1.67431 0
M  V30 277 C 29.8459 -1.86396 0.612446 0
M  V30 278 O 28.9709 -2.15031 -0.243025 0
M  V30 279 C 29.5659 -1.50512 3.03532 0
M  V30 280 C 28.1249 -2.02273 3.17431 0
M  V30 281 C 27.2719 -0.870548 2.63281 0
M  V30 282 H 30.2229 -0.0322728 1.58667 0
M  V30 283 H 30.2439 -2.37279 2.97454 0
M  V30 284 H 29.7559 -0.749484 3.80794 0
M  V30 285 H 27.8569 -2.80746 2.44974 0
M  V30 286 H 27.9699 -2.22655 4.24219 0
M  V30 287 H 26.3339 -1.26851 2.20864 0
M  V30 288 H 27.1169 -0.128149 3.43061 0
M  V30 289 N 29.562 -1.4872 -0.521534 0
M  V30 290 C 30.525 -1.63379 -1.60748 0
M  V30 291 C 31.525 -0.50661 -1.52611 0
M  V30 292 O 32.715 -0.772601 -1.5613 0
M  V30 293 C 29.847 -1.61192 -3.00383 0
M  V30 294 H 31.04 -2.60217 -1.49087 0
M  V30 295 H 28.593 -1.37444 -0.744235 0
M  V30 296 H 29.328 -0.65863 -3.17541 0
M  V30 297 H 29.113 -2.43032 -3.07698 0
M  V30 298 H 30.603 -1.7466 -3.7932 0
M  V30 299 N 31.0401 0.771051 -1.3745 0
M  V30 300 C 32.3171 1.519 -1.23231 0
M  V30 301 C 32.6971 2.10383 0.173809 0
M  V30 302 O 32.0451 1.95583 1.18151 0
M  V30 303 C 32.2551 2.59933 -2.32886 0
M  V30 304 C 33.6031 3.27316 -2.70461 0
M  V30 305 O 34.6271 2.70228 -2.32068 0
M  V30 306 O 33.4861 4.30531 -3.36608 0
M  V30 307 H 30.5801 0.672803 -0.480901 0
M  V30 308 H 33.1261 0.807957 -1.49232 0
M  V30 309 H 31.8981 2.14842 -3.27045 0
M  V30 310 H 31.5211 3.38637 -2.08353 0
M  V30 311 N 32.5182 1.22032 0.997298 0
M  V30 312 C 33.7662 1.04016 1.73278 0
M  V30 313 C 34.0872 -0.426255 1.90284 0
M  V30 314 O 33.3572 -1.30694 1.45931 0
M  V30 315 H 31.9372 0.381897 0.642 0
M  V30 316 H 34.5992 1.5347 1.20137 0
M  V30 317 H 33.6952 1.51441 2.72896 0
M  V30 318 N 33.9963 -1.19345 1.0293 0
M  V30 319 C 34.9593 -2.20793 0.615069 0
M  V30 320 C 35.9593 -1.57553 -0.321533 0
M  V30 321 O 37.1493 -1.73862 -0.108483 0
M  V30 322 C 34.2813 -3.40754 -0.0999222 0
M  V30 323 H 35.4743 -2.58955 1.51269 0
M  V30 324 H 33.0273 -1.3303 0.820534 0
M  V30 325 H 33.7623 -3.0811 -1.01187 0
M  V30 326 H 33.5473 -3.87889 0.57309 0
M  V30 327 H 35.0373 -4.15898 -0.376645 0
M  V30 328 N 35.4744 -0.807222 -1.35358 0
M  V30 329 C 36.4044 -0.232509 -2.3234 0
M  V30 330 C 37.3854 0.642386 -1.57504 0
M  V30 331 O 38.5704 0.572526 -1.85569 0
M  V30 332 C 35.7004 0.619238 -3.41735 0
M  V30 333 C 34.6544 -0.157215 -4.27711 0
M  V30 334 C 33.9804 0.816273 -5.28433 0
M  V30 335 C 35.2804 -1.35656 -5.04376 0
M  V30 336 H 36.9744 -1.04276 -2.80654 0
M  V30 337 H 34.5204 -0.50288 -1.34934 0
M  V30 338 H 36.4734 1.03137 -4.08584 0
M  V30 339 H 35.1974 1.46239 -2.92031 0
M  V30 340 H 33.8564 -0.550525 -3.62443 0
M  V30 341 H 33.5044 1.65494 -4.74996 0
M  V30 342 H 33.2044 0.301067 -5.86828 0
M  V30 343 H 34.7284 1.22659 -5.98153 0
M  V30 344 H 36.1424 -1.01927 -5.64166 0
M  V30 345 H 34.5394 -1.8063 -5.7227 0
M  V30 346 H 35.6094 -2.14288 -4.34981 0
M  V30 347 N 36.9525 1.47285 -0.560781 0
M  V30 348 C 37.8995 2.30058 0.18491 0
M  V30 349 C 38.8695 1.39281 0.904986 0
M  V30 350 O 40.0545 1.68241 0.899979 0
M  V30 351 C 37.1945 3.23317 1.20666 0
M  V30 352 C 36.3075 4.29186 0.492285 0
M  V30 353 C 35.4425 5.09592 1.49964 0
M  V30 354 C 34.4815 6.07232 0.770439 0
M  V30 355 N 33.6185 6.80584 1.72479 0
M  V30 356 H 38.4585 2.93302 -0.527048 0
M  V30 357 H 35.9955 1.44568 -0.271738 0
M  V30 358 H 37.9535 3.75811 1.81168 0
M  V30 359 H 36.5835 2.61929 1.88661 0
M  V30 360 H 35.6355 3.7972 -0.227333 0
M  V30 361 H 36.9475 4.98738 -0.0787929 0
M  V30 362 H 36.1015 5.66254 2.17809 0
M  V30 363 H 34.8405 4.3995 2.10464 0
M  V30 364 H 33.8455 5.49745 0.0780846 0
M  V30 365 H 35.0705 6.78884 0.171134 0
M  V30 366 H 33.0165 6.1367 2.3183 0
M  V30 367 H 32.9335 7.46319 1.20596 0
M  V30 368 H 34.2015 7.41818 2.39428 0
M  V30 369 N 38.4306 0.297415 1.54768 0
M  V30 370 C 39.8466 -0.0560823 1.59501 0
M  V30 371 C 40.0466 -1.52725 1.31444 0
M  V30 372 O 39.1026 -2.27947 1.08611 0
M  V30 373 C 40.4156 0.338631 2.98787 0
M  V30 374 C 41.9636 0.287097 3.11681 0
M  V30 375 C 42.4386 0.656579 4.53269 0
M  V30 376 N 43.9296 0.608977 4.59179 0
M  V30 377 C 44.6646 0.867385 5.66802 0
M  V30 378 N 44.1606 1.19157 6.82476 0
M  V30 379 N 45.9536 0.794687 5.56454 0
M  V30 380 H 38.1046 1.25624 1.71267 0
M  V30 381 H 40.3676 0.509057 0.799728 0
M  V30 382 H 40.0736 1.36263 3.2423 0
M  V30 383 H 39.9476 -0.309508 3.75928 0
M  V30 384 H 42.3346 -0.727649 2.85988 0
M  V30 385 H 42.4156 0.969809 2.36703 0
M  V30 386 H 42.0596 1.66912 4.7969 0
M  V30 387 H 41.9896 -0.0481649 5.26578 0
M  V30 388 H 44.4806 0.369198 3.76092 0
M  V30 389 H 44.7936 1.37482 7.60473 0
M  V30 390 H 43.1386 1.22958 6.84037 0
M  V30 391 H 46.3296 0.541098 4.64962 0
M  V30 392 H 46.5026 0.999445 6.40246 0
M  V30 393 N 39.9087 -1.5758 0.0250728 0
M  V30 394 C 40.8717 -2.08896 -0.943139 0
M  V30 395 C 41.8717 -1.00321 -1.25668 0
M  V30 396 O 43.0617 -1.26495 -1.19769 0
M  V30 397 C 40.1937 -2.55143 -2.26086 0
M  V30 398 H 41.3867 -2.95723 -0.498775 0
M  V30 399 H 38.9397 -1.54703 -0.222888 0
M  V30 400 H 39.6747 -1.71633 -2.75159 0
M  V30 401 H 39.4597 -3.34461 -2.04641 0
M  V30 402 H 40.9497 -2.95083 -2.95492 0
M  V30 403 N 41.3868 0.248026 -1.55636 0
M  V30 404 C 42.2968 1.32859 -1.93354 0
M  V30 405 C 43.3128 1.52719 -0.833838 0
M  V30 406 O 44.4888 1.66363 -1.13513 0
M  V30 407 C 41.5538 2.66337 -2.21958 0
M  V30 408 C 40.6148 2.55008 -3.45354 0
M  V30 409 C 39.8478 3.82121 -3.72584 0
M  V30 410 O 40.0708 4.83951 -3.01907 0
M  V30 411 O 39.0048 3.80822 -4.6611 0
M  V30 412 H 42.8308 1.03862 -2.85388 0
M  V30 413 H 40.4158 0.448686 -1.42503 0
M  V30 414 H 42.2978 3.45216 -2.4167 0
M  V30 415 H 40.9728 2.95068 -1.33103 0
M  V30 416 H 39.8798 1.7442 -3.30951 0
M  V30 417 H 41.2128 2.31222 -4.34508 0
M  V30 418 N 42.8649 1.48995 0.513639 0
M  V30 419 C 43.7749 1.67443 1.64317 0
M  V30 420 C 44.7909 0.556947 1.64846 0
M  V30 421 O 45.9669 0.830082 1.83498 0
M  V30 422 C 43.0319 1.72515 3.00732 0
M  V30 423 C 42.0929 2.96009 3.1093 0
M  V30 424 C 41.3259 3.00829 4.40837 0
M  V30 425 O 41.5489 2.13594 5.28898 0
M  V30 426 O 40.4829 3.93168 4.55744 0
M  V30 427 H 44.3089 2.63106 1.51687 0
M  V30 428 H 41.8939 1.32588 0.688543 0
M  V30 429 H 43.7759 1.78277 3.81831 0
M  V30 430 H 42.4509 0.800278 3.13651 0
M  V30 431 H 41.3579 2.9577 2.29065 0
M  V30 432 H 42.6909 3.87934 3.02933 0
M  V30 433 N 44.343 -0.763751 1.37857 0
M  V30 434 C 45.273 -1.89103 1.36975 0
M  V30 435 C 46.254 -1.68439 0.237152 0
M  V30 436 O 47.439 -1.8918 0.438713 0
M  V30 437 C 44.569 -3.26496 1.18395 0
M  V30 438 C 43.523 -3.61741 2.28751 0
M  V30 439 C 42.849 -4.97762 1.95286 0
M  V30 440 C 44.149 -3.67665 3.70972 0
M  V30 441 H 45.843 -1.90099 2.31307 0
M  V30 442 H 43.389 -0.91319 1.11341 0
M  V30 443 H 45.342 -4.05003 1.16406 0
M  V30 444 H 44.066 -3.25955 0.205215 0
M  V30 445 H 42.725 -2.85547 2.29909 0
M  V30 446 H 42.373 -4.93769 0.959221 0
M  V30 447 H 42.073 -5.22313 2.69189 0
M  V30 448 H 43.597 -5.7866 1.94898 0
M  V30 449 H 45.011 -4.36307 3.719 0
M  V30 450 H 43.408 -4.03718 4.43995 0
M  V30 451 H 44.478 -2.68134 4.0402 0
M  V30 452 N 45.8211 -1.22559 -0.990812 0
M  V30 453 C 46.7681 -0.997519 -2.0813 0
M  V30 454 C 47.7381 0.0814702 -1.659 0
M  V30 455 O 48.9231 -0.0685424 -1.90677 0
M  V30 456 C 46.0631 -0.583615 -3.40129 0
M  V30 457 C 45.1761 -1.7336 -3.9569 0
M  V30 458 C 44.3111 -1.26748 -5.15857 0
M  V30 459 C 43.3501 -2.38888 -5.63559 0
M  V30 460 N 42.4871 -1.93308 -6.74964 0
M  V30 461 H 47.3271 -1.93099 -2.26973 0
M  V30 462 H 44.8641 -0.962114 -1.11273 0
M  V30 463 H 46.8221 -0.324801 -4.15934 0
M  V30 464 H 45.4521 0.312845 -3.2128 0
M  V30 465 H 44.5041 -2.10669 -3.16738 0
M  V30 466 H 45.8161 -2.57704 -4.27071 0
M  V30 467 H 44.9701 -0.966173 -5.98957 0
M  V30 468 H 43.7091 -0.394272 -4.86104 0
M  V30 469 H 42.7141 -2.69805 -4.79046 0
M  V30 470 H 43.9391 -3.26728 -5.95336 0
M  V30 471 H 41.8851 -1.08352 -6.4699 0
M  V30 472 H 41.8021 -2.71217 -7.05675 0
M  V30 473 H 43.0701 -1.66252 -7.61564 0
M  V30 474 N 47.2992 1.18797 -1.03562 0
M  V30 475 C 48.5272 1.92599 -0.755869 0
M  V30 476 C 48.9422 1.75886 0.686271 0
M  V30 477 O 48.2992 1.08517 1.46732 0
M  V30 478 C 48.3502 3.44159 -1.10619 0
M  V30 479 O 48.0712 3.60341 -2.4917 0
M  V30 480 C 49.5722 4.3507 -0.850214 0
M  V30 481 H 46.7922 0.611587 -0.276048 0
M  V30 482 H 49.3362 1.50742 -1.38192 0
M  V30 483 H 47.4912 3.83823 -0.525194 0
M  V30 484 H 47.9052 4.54128 -2.62427 0
M  V30 485 H 49.3792 5.39989 -1.14523 0
M  V30 486 H 49.8562 4.38673 0.215176 0
M  V30 487 H 50.4622 4.01097 -1.41426 0
M  V30 488 N 48.7773 0.814389 1.34928 0
M  V30 489 C 49.7093 0.187834 2.28429 0
M  V30 490 C 50.7223 -0.617374 1.5064 0
M  V30 491 O 51.9113 -0.448454 1.72775 0
M  V30 492 C 49.0113 -0.755962 3.30361 0
M  V30 493 C 48.1843 0.00456686 4.374 0
M  V30 494 C 47.2433 -0.858876 5.19143 0
M  V30 495 O 46.2693 -0.306968 5.68372 0
M  V30 496 N 47.4713 -2.17988 5.38016 0
M  V30 497 H 50.2363 0.991105 2.82838 0
M  V30 498 H 47.7973 0.670561 1.4736 0
M  V30 499 H 49.7893 -1.338 3.81942 0
M  V30 500 H 48.3593 -1.46001 2.7641 0
M  V30 501 H 47.5793 0.767865 3.86649 0
M  V30 502 H 48.8673 0.528422 5.06049 0
M  V30 503 H 48.2653 -2.65212 4.99679 0
M  V30 504 H 46.8223 -2.71098 5.92747 0
M  V30 505 N 50.2554 -1.46986 0.568584 0
M  V30 506 C 51.2184 -2.28624 -0.162366 0
M  V30 507 C 52.2184 -1.37596 -0.832103 0
M  V30 508 O 53.4084 -1.60115 -0.68622 0
M  V30 509 C 50.5404 -3.17596 -1.23878 0
M  V30 510 H 51.7334 -2.94722 0.554899 0
M  V30 511 H 49.2864 -1.52863 0.325976 0
M  V30 512 H 50.0214 -2.56214 -1.98808 0
M  V30 513 H 49.8064 -3.846 -0.763219 0
M  V30 514 H 51.2964 -3.79078 -1.75185 0
M  V30 515 N 51.7335 -0.305618 -1.54608 0
M  V30 516 C 52.6815 0.584119 -2.25146 0
M  V30 517 C 53.6755 1.13326 -1.25911 0
M  V30 518 O 54.8815 1.08337 -1.43747 0
M  V30 519 H 51.2565 0.206983 -0.722954 0
M  V30 520 H 53.2275 -0.033291 -2.98381 0
M  V30 521 C 51.9765 1.74225 -3.009 0
M  V30 522 H 51.2995 1.32892 -3.77067 0
M  V30 523 H 52.7395 2.34077 -3.53531 0
M  V30 524 C 51.1985 2.64914 -2.0814 0
M  V30 525 O 51.7285 3.66137 -1.65246 0
M  V30 526 N 49.9345 2.3275 -1.74 0
M  V30 527 H 49.4815 1.50479 -2.09078 0
M  V30 528 H 49.4395 2.93694 -1.12211 0
M  V30 529 N 53.2116 1.57565 -0.0334293 0
M  V30 530 C 54.4886 1.83282 0.683163 0
M  V30 531 C 54.8686 0.91823 1.90084 0
M  V30 532 O 54.2166 -0.025113 2.28486 0
M  V30 533 C 54.4266 3.32599 1.0573 0
M  V30 534 C 55.7746 3.99179 1.44711 0
M  V30 535 O 56.7986 3.3712 1.15015 0
M  V30 536 O 55.6576 5.08565 2.0006 0
M  V30 537 H 52.7516 0.755869 0.335546 0
M  V30 538 H 55.2976 1.69589 -0.0614402 0
M  V30 539 H 54.0696 3.90834 0.190828 0
M  V30 540 H 53.6926 3.51415 1.85993 0
M  V30 541 N 54.6897 -0.239769 1.55765 0
M  V30 542 C 55.9197 -0.982743 1.8173 0
M  V30 543 C 56.3277 -1.7917 0.607835 0
M  V30 544 O 55.6707 -1.78525 -0.432973 0
M  V30 545 C 55.7327 -1.96332 3.01155 0
M  V30 546 C 55.3967 -1.34062 4.36894 0
M  V30 547 C 56.3937 -0.739539 5.14613 0
M  V30 548 C 54.0787 -1.35784 4.83599 0
M  V30 549 C 56.0727 -0.163989 6.37189 0
M  V30 550 C 53.7597 -0.778441 6.06122 0
M  V30 551 C 54.7577 -0.182548 6.82756 0
M  V30 552 O 54.4457 0.387887 8.02964 0
M  V30 553 H 54.1777 -0.294481 0.608487 0
M  V30 554 H 56.7317 -0.26572 2.03674 0
M  V30 555 H 54.9617 -2.71884 2.74984 0
M  V30 556 H 56.6507 -2.57032 3.14149 0
M  V30 557 H 57.4167 -0.718687 4.79646 0
M  V30 558 H 53.2957 -1.81105 4.23936 0
M  V30 559 H 56.8397 0.301753 6.96947 0
M  V30 560 H 52.7367 -0.796645 6.40565 0
M  V30 561 H 53.5047 0.28044 8.18019 0
M  V30 562 N 56.1678 -1.49265 -0.50573 0
M  V30 563 C 57.4148 -1.58513 -1.26015 0
M  V30 564 C 57.7428 -0.26972 -1.92621 0
M  V30 565 O 56.9978 0.741997 -1.81088 0
M  V30 566 C 57.2968 -2.69008 -2.35308 0
M  V30 567 C 56.9628 -4.10662 -1.86192 0
M  V30 568 C 55.6248 -4.49212 -1.72516 0
M  V30 569 C 57.9768 -4.99336 -1.49375 0
M  V30 570 C 55.3048 -5.74214 -1.20394 0
M  V30 571 C 57.6568 -6.24852 -0.987072 0
M  V30 572 C 56.3208 -6.62236 -0.836669 0
M  V30 573 H 55.5908 -0.580041 -0.461122 0
M  V30 574 H 58.2378 -1.83078 -0.561665 0
M  V30 575 H 56.5428 -2.38396 -3.10926 0
M  V30 576 H 58.2398 -2.73373 -2.93374 0
M  V30 577 H 54.8298 -3.8023 -1.97795 0
M  V30 578 H 59.0138 -4.70212 -1.5879 0
M  V30 579 H 54.2698 -6.01883 -1.07458 0
M  V30 580 H 58.4438 -6.92944 -0.692983 0
M  V30 581 H 56.0708 -7.58979 -0.430607 0
M  V30 582 N 57.6459 0.756429 -1.3826 0
M  V30 583 C 58.5929 1.87011 -1.35261 0
M  V30 584 C 59.5629 1.64695 -0.215616 0
M  V30 585 O 60.7479 1.864 -0.407399 0
M  V30 586 C 57.8879 3.24275 -1.18068 0
M  V30 587 C 57.0009 3.58442 -2.41129 0
M  V30 588 C 56.1359 4.84994 -2.16689 0
M  V30 589 C 55.1749 5.11939 -3.35537 0
M  V30 590 N 54.3119 6.29685 -3.10549 0
M  V30 591 H 59.1519 1.8891 -2.30472 0
M  V30 592 H 56.6889 0.923373 -1.14509 0
M  V30 593 H 58.6469 4.03479 -1.06116 0
M  V30 594 H 57.2769 3.21711 -0.264973 0
M  V30 595 H 56.3289 2.74103 -2.63764 0
M  V30 596 H 57.6409 3.74283 -3.29717 0
M  V30 597 H 56.7949 5.72135 -2.01857 0
M  V30 598 H 55.5339 4.71286 -1.25462 0
M  V30 599 H 54.5389 4.23268 -3.50891 0
M  V30 600 H 55.7639 5.27546 -4.27635 0
M  V30 601 H 53.7099 6.17306 -2.21967 0
M  V30 602 H 53.6269 6.46014 -3.92686 0
M  V30 603 H 54.8949 7.19722 -2.99367 0
M  V30 604 N 59.124 1.23083 0.984299 0
M  V30 605 C 60.087 1.00979 2.05757 0
M  V30 606 C 61.087 -0.0269573 1.60777 0
M  V30 607 O 62.277 0.212403 1.729 0
M  V30 608 C 59.409 0.527072 3.36801 0
M  V30 609 H 60.602 1.9622 2.26799 0
M  V30 610 H 58.155 1.05072 1.15714 0
M  V30 611 H 58.89 -0.429294 3.21446 0
M  V30 612 H 58.675 1.27515 3.70786 0
M  V30 613 H 60.165 0.392942 4.15747 0
M  V30 614 N 60.6021 -1.18246 1.0419 0
M  V30 615 C 61.5491 -2.2192 0.634037 0
M  V30 616 C 62.5191 -1.62179 -0.358765 0
M  V30 617 O 63.7041 -1.89122 -0.252466 0
M  V30 618 C 60.8441 -3.451 0.00445535 0
M  V30 619 C 59.9571 -4.19174 1.04487 0
M  V30 620 C 59.0921 -5.29813 0.383676 0
M  V30 621 C 58.1311 -5.9566 1.4091 0
M  V30 622 N 57.2681 -6.97834 0.772784 0
M  V30 623 H 62.1081 -2.56164 1.52263 0
M  V30 624 H 59.6451 -1.25843 0.761701 0
M  V30 625 H 61.6031 -4.15485 -0.377919 0
M  V30 626 H 60.2331 -3.11472 -0.847652 0
M  V30 627 H 59.2851 -3.47604 1.54518 0
M  V30 628 H 60.5971 -4.64267 1.82368 0
M  V30 629 H 59.7511 -6.06677 -0.0528366 0
M  V30 630 H 58.4901 -4.85825 -0.427208 0
M  V30 631 H 57.4951 -5.17535 1.85574 0
M  V30 632 H 58.7201 -6.4173 2.22171 0
M  V30 633 H 56.6661 -6.55998 -0.0177708 0
M  V30 634 H 56.5831 -7.41186 1.48928 0
M  V30 635 H 57.8511 -7.78665 0.36071 0
M  V30 636 N 62.0802 -0.821533 -1.34494 0
M  V30 637 C 63.3572 -0.33159 -1.92769 0
M  V30 638 C 63.7372 1.18088 -1.74981 0
M  V30 639 O 63.0852 1.98733 -1.12772 0
M  V30 640 C 63.2952 -0.759398 -3.40638 0
M  V30 641 C 64.6432 -0.757433 -4.1779 0
M  V30 642 O 65.6672 -0.70189 -3.49216 0
M  V30 643 O 64.5262 -0.829361 -5.4017 0
M  V30 644 H 61.6202 -0.0902502 -0.822061 0
M  V30 645 H 64.1662 -0.906231 -1.43477 0
M  V30 646 H 62.9382 -1.8012 -3.47379 0
M  V30 647 H 62.5612 -0.160378 -3.97276 0
M  V30 648 N 63.5583 1.46682 -0.576371 0
M  V30 649 C 64.7883 2.06498 -0.0648694 0
M  V30 650 C 65.1963 1.42665 1.24271 0
M  V30 651 O 64.5393 0.523886 1.76071 0
M  V30 652 C 64.6013 3.5904 0.181816 0
M  V30 653 C 64.2653 4.45028 -1.0392 0
M  V30 654 C 65.2623 4.81959 -1.94966 0
M  V30 655 C 62.9473 4.86259 -1.25927 0
M  V30 656 C 64.9413 5.58942 -3.06371 0
M  V30 657 C 62.6283 5.63002 -2.37638 0
M  V30 658 C 63.6263 5.99257 -3.2769 0
M  V30 659 O 63.3143 6.7445 -4.37461 0
M  V30 660 H 63.0463 0.674028 -0.0515987 0
M  V30 661 H 65.6003 1.89393 -0.794951 0
M  V30 662 H 63.8303 3.74429 0.966436 0
M  V30 663 H 65.5193 4.00806 0.641047 0
M  V30 664 H 66.2853 4.50689 -1.79177 0
M  V30 665 H 62.1643 4.57494 -0.567448 0
M  V30 666 H 65.7083 5.87158 -3.76684 0
M  V30 667 H 61.6053 5.93686 -2.53392 0
M  V30 668 H 62.3733 6.92867 -4.35749 0
M  V30 669 N 65.0364 0.313813 1.54444 0
M  V30 670 C 65.9464 -0.565714 2.27677 0
M  V30 671 C 66.9624 -1.13754 1.31666 0
M  V30 672 O 68.1384 -1.15959 1.64668 0
M  V30 673 C 65.2034 -1.71528 3.01296 0
M  V30 674 C 64.2644 -1.17624 4.12872 0
M  V30 675 C 63.4974 -2.27102 4.8297 0
M  V30 676 O 63.7204 -3.47256 4.52514 0
M  V30 677 O 62.6544 -1.9307 5.70094 0
M  V30 678 H 66.4804 0.0287296 3.03686 0
M  V30 679 H 64.0654 0.0798312 1.49187 0
M  V30 680 H 65.9474 -2.38476 3.4743 0
M  V30 681 H 64.6224 -2.29608 2.2817 0
M  V30 682 H 63.5294 -0.472124 3.71109 0
M  V30 683 H 64.8624 -0.640695 4.88012 0
M  V30 684 N 66.5145 -1.57545 0.0417849 0
M  V30 685 C 67.4625 -2.12148 -0.953723 0
M  V30 686 C 68.4565 -1.05104 -1.32852 0
M  V30 687 O 69.6625 -1.23524 -1.30927 0
M  V30 688 H 66.0375 -0.677957 -0.325389 0
M  V30 689 H 68.0085 -2.94707 -0.467991 0
M  V30 690 C 66.7575 -2.6739 -2.22257 0
M  V30 691 H 66.0805 -3.49413 -1.94295 0
M  V30 692 H 67.5205 -3.09227 -2.90094 0
M  V30 693 C 65.9795 -1.60723 -2.96091 0
M  V30 694 O 66.5095 -1.01449 -3.88679 0
M  V30 695 N 64.7155 -1.32466 -2.58652 0
M  V30 696 H 64.2625 -1.80856 -1.83437 0
M  V30 697 H 64.2205 -0.61325 -3.08361 0
M  V30 698 N 67.9926 0.231505 -1.5589 0
M  V30 699 C 68.9556 1.27028 -1.90779 0
M  V30 700 C 69.9556 1.40308 -0.785507 0
M  V30 701 O 71.1456 1.38744 -1.05336 0
M  V30 702 C 68.2776 2.64566 -2.14983 0
M  V30 703 H 69.4706 0.973017 -2.83677 0
M  V30 704 H 67.0236 0.471486 -1.49019 0
M  V30 705 H 67.7586 2.99406 -1.24604 0
M  V30 706 H 67.5436 2.56305 -2.96732 0
M  V30 707 H 69.0336 3.39543 -2.43105 0
M  V30 708 N 69.4707 1.49531 0.497807 0
M  V30 709 C 70.7197 1.58426 1.24837 0
M  V30 710 C 71.0327 0.277643 1.93619 0
M  V30 711 O 72.2387 0.24517 2.70391 0
M  V30 712 C 70.6947 2.79538 2.26686 0
M  V30 713 C 70.3027 4.16971 1.63828 0
M  V30 714 C 72.0467 2.97764 3.0255 0
M  V30 715 C 69.9537 5.29301 2.63807 0
M  V30 716 H 68.8837 0.58989 0.469623 0
M  V30 717 H 71.5347 1.75923 0.521857 0
M  V30 718 H 69.9167 2.55542 3.02514 0
M  V30 719 H 71.0907 4.51116 0.939711 0
M  V30 720 H 69.4057 4.04129 1.00342 0
M  V30 721 H 72.0027 3.78856 3.77323 0
M  V30 722 H 72.3457 2.08448 3.60354 0
M  V30 723 H 72.8787 3.21815 2.33838 0
M  V30 724 H 69.6177 6.20687 2.10779 0
M  V30 725 H 69.1377 4.99606 3.31894 0
M  V30 726 H 70.8167 5.58768 3.2617 0
M  V30 727 N 70.9488 -0.749086 1.3866 0
M  V30 728 C 71.8958 -1.86291 1.36251 0
M  V30 729 C 72.8658 -1.64578 0.224347 0
M  V30 730 O 74.0508 -1.86181 0.417279 0
M  V30 731 C 71.1908 -3.23644 1.19786 0
M  V30 732 C 70.3038 -3.57158 2.43027 0
M  V30 733 C 69.4388 -4.83838 2.19258 0
M  V30 734 C 68.4778 -5.10152 3.38247 0
M  V30 735 N 67.6148 -6.28029 3.13884 0
M  V30 736 H 72.4548 -1.87685 2.3147 0
M  V30 737 H 69.9918 -0.917287 1.14997 0
M  V30 738 H 71.9498 -4.0291 1.08254 0
M  V30 739 H 70.5798 -3.21566 0.282031 0
M  V30 740 H 69.6318 -2.72701 2.65214 0
M  V30 741 H 70.9438 -3.7253 3.31697 0
M  V30 742 H 70.0978 -5.71057 2.04888 0
M  V30 743 H 68.8368 -4.70614 1.2796 0
M  V30 744 H 67.8418 -4.21401 3.53131 0
M  V30 745 H 69.0668 -5.25271 4.30427 0
M  V30 746 H 67.0128 -6.1612 2.25238 0
M  V30 747 H 66.9298 -6.43922 3.96106 0
M  V30 748 H 68.1978 -7.18124 3.03179 0
M  V30 749 N 72.4269 -1.23603 -0.977757 0
M  V30 750 C 73.6739 -1.06971 -1.71941 0
M  V30 751 C 74.0019 0.393009 -1.90488 0
M  V30 752 O 73.2569 1.30719 -1.4564 0
M  V30 753 C 73.5559 -1.7433 -3.11999 0
M  V30 754 C 73.2219 -3.24252 -3.13323 0
M  V30 755 C 71.8839 -3.65156 -3.13392 0
M  V30 756 C 74.2359 -4.20141 -3.08433 0
M  V30 757 C 71.5639 -5.00403 -3.0629 0
M  V30 758 C 73.9159 -5.55384 -3.02873 0
M  V30 759 C 72.5799 -5.95647 -3.01265 0
M  V30 760 H 71.8499 -0.391433 -0.629175 0
M  V30 761 H 74.4969 -1.53572 -1.14403 0
M  V30 762 H 72.8019 -1.20096 -3.7294 0
M  V30 763 H 74.4989 -1.58936 -3.68158 0
M  V30 764 H 71.0889 -2.91692 -3.14029 0
M  V30 765 H 75.2729 -3.89547 -3.07517 0
M  V30 766 H 70.5289 -5.3081 -3.03399 0
M  V30 767 H 74.7029 -6.29398 -2.98046 0
M  V30 768 H 72.3299 -7.0041 -2.95516 0
M  V30 769 N 73.905 1.17692 -1.04816 0
M  V30 770 C 75.135 1.91508 -0.775128 0
M  V30 771 C 75.543 1.76844 0.67253 0
M  V30 772 O 74.886 1.10057 1.47082 0
M  V30 773 C 74.948 3.43167 -1.0713 0
M  V30 774 C 74.612 3.81612 -2.51438 0
M  V30 775 C 75.609 3.84772 -3.49638 0
M  V30 776 C 73.294 4.12687 -2.86348 0
M  V30 777 C 75.288 4.18469 -4.80794 0
M  V30 778 C 72.975 4.46053 -4.17708 0
M  V30 779 C 73.973 4.48921 -5.14741 0
M  V30 780 O 73.661 4.81504 -6.43746 0
M  V30 781 H 73.393 0.614575 -0.281555 0
M  V30 782 H 75.947 1.50206 -1.40098 0
M  V30 783 H 74.177 3.84745 -0.388342 0
M  V30 784 H 75.866 3.98239 -0.784883 0
M  V30 785 H 76.632 3.60893 -3.24008 0
M  V30 786 H 72.511 4.09627 -2.11486 0
M  V30 787 H 76.055 4.20623 -5.56527 0
M  V30 788 H 71.952 4.69393 -4.43103 0
M  V30 789 H 72.72 4.99377 -6.4851 0
M  V30 790 N 75.3831 0.828654 1.34056 0
M  V30 791 C 76.6081 0.431637 2.02859 0
M  V30 792 C 77.0331 -0.956339 1.61975 0
M  V30 793 O 76.3911 -1.62338 0.807228 0
M  V30 794 C 76.4391 0.548323 3.56407 0
M  V30 795 O 75.5431 -0.429556 4.10157 0
M  V30 796 H 74.8841 0.176886 0.640006 0
M  V30 797 H 77.4141 1.12066 1.71179 0
M  V30 798 H 77.4241 0.426196 4.05768 0
M  V30 799 H 76.0991 1.5606 3.8551 0
M  V30 800 H 74.6761 -0.265836 3.71951 0
M  V30 801 N 76.8612 -1.46375 0.584142 0
M  V30 802 C 77.7932 -2.28443 -0.186119 0
M  V30 803 C 78.8062 -1.38596 -0.854115 0
M  V30 804 O 79.9952 -1.63183 -0.723438 0
M  V30 805 C 77.0952 -3.13671 -1.28311 0
M  V30 806 C 76.2682 -4.31652 -0.706758 0
M  V30 807 C 75.3272 -4.98267 -1.69163 0
M  V30 808 O 74.3532 -5.55815 -1.22712 0
M  V30 809 N 75.5552 -4.95408 -3.02575 0
M  V30 810 H 78.3202 -2.9519 0.517986 0
M  V30 811 H 75.8812 -1.56303 0.42201 0
M  V30 812 H 77.8732 -3.55101 -1.94128 0
M  V30 813 H 76.4432 -2.48989 -1.89005 0
M  V30 814 H 75.6632 -3.93989 0.128908 0
M  V30 815 H 76.9512 -5.07906 -0.301506 0
M  V30 816 H 76.3492 -4.49902 -3.42936 0
M  V30 817 H 74.9062 -5.40774 -3.63877 0
M  V30 818 N 78.3393 -0.321999 -1.54275 0
M  V30 819 C 79.3023 0.531975 -2.22941 0
M  V30 820 C 80.3023 1.04478 -1.22234 0
M  V30 821 O 81.4923 0.937452 -1.46825 0
M  V30 822 C 78.6243 1.73874 -2.93224 0
M  V30 823 H 79.8173 -0.0682612 -2.99822 0
M  V30 824 H 77.3703 -0.0730644 -1.56129 0
M  V30 825 H 78.1053 2.37825 -2.20476 0
M  V30 826 H 77.8903 1.37847 -3.6707 0
M  V30 827 H 79.3803 2.34496 -3.45545 0
M  V30 828 N 79.8174 1.5752 -0.0501392 0
M  V30 829 C 81.0664 1.91827 0.623328 0
M  V30 830 C 81.3794 0.930222 1.72065 0
M  V30 831 O 82.5854 1.1653 2.4522 0
M  V30 832 C 81.0414 3.40692 1.16003 0
M  V30 833 C 80.6494 4.479 0.0948811 0
M  V30 834 C 82.3934 3.84034 1.80881 0
M  V30 835 C 80.3004 5.87879 0.644411 0
M  V30 836 H 79.2304 0.715918 0.236596 0
M  V30 837 H 81.8814 1.83115 -0.118861 0
M  V30 838 H 80.2634 3.44405 1.9545 0
M  V30 839 H 81.4374 4.55775 -0.678675 0
M  V30 840 H 79.7524 4.13892 -0.45637 0
M  V30 841 H 82.3494 4.85984 2.22988 0
M  V30 842 H 82.6924 3.20225 2.6601 0
M  V30 843 H 83.2254 3.82833 1.0809 0
M  V30 844 H 79.9644 6.55282 -0.169229 0
M  V30 845 H 79.4844 5.83567 1.38598 0
M  V30 846 H 81.1634 6.37098 1.12763 0
M  V30 847 N 81.2955 -0.223234 1.56011 0
M  V30 848 C 82.2055 -1.29766 1.95443 0
M  V30 849 C 83.2215 -1.51373 0.858028 0
M  V30 850 O 84.3975 -1.64536 1.16146 0
M  V30 851 C 81.4625 -2.62772 2.26167 0
M  V30 852 C 80.5235 -2.49482 3.49367 0
M  V30 853 C 79.7565 -3.76145 3.78616 0
M  V30 854 O 79.9795 -4.79087 3.09568 0
M  V30 855 O 78.9135 -3.73358 4.72109 0
M  V30 856 H 82.7395 -0.99309 2.87004 0
M  V30 857 H 80.3245 -0.425958 1.43199 0
M  V30 858 H 82.2065 -3.41327 2.47131 0
M  V30 859 H 80.8815 -2.92913 1.37781 0
M  V30 860 H 79.7885 -1.69133 3.33684 0
M  V30 861 H 81.1215 -2.2428 4.38131 0
M  V30 862 N 82.7736 -1.49793 -0.48987 0
M  V30 863 C 83.7036 -1.70201 -1.59856 0
M  V30 864 C 84.6846 -0.55076 -1.60937 0
M  V30 865 O 85.8696 -0.787841 -1.77501 0
M  V30 866 C 82.9996 -1.77882 -2.98287 0
M  V30 867 C 81.9536 -2.92907 -3.12073 0
M  V30 868 C 81.2796 -2.85712 -4.51965 0
M  V30 869 C 82.5796 -4.3369 -2.91051 0
M  V30 870 H 84.2736 -2.63025 -1.43032 0
M  V30 871 H 81.8196 -1.26574 -0.686664 0
M  V30 872 H 83.7726 -1.90744 -3.75759 0
M  V30 873 H 82.4966 -0.816653 -3.16225 0
M  V30 874 H 81.1556 -2.79665 -2.37029 0
M  V30 875 H 80.8036 -1.8738 -4.66795 0
M  V30 876 H 80.5036 -3.62921 -4.62128 0
M  V30 877 H 82.0276 -3.00598 -5.31482 0
M  V30 878 H 83.4416 -4.47555 -3.58284 0
M  V30 879 H 81.8386 -5.12205 -3.12675 0
M  V30 880 H 82.9086 -4.47362 -1.87071 0
M  V30 881 N 84.2517 0.741722 -1.39055 0
M  V30 882 C 85.1997 1.87702 -1.3737 0
M  V30 883 C 86.1937 1.67427 -0.257812 0
M  V30 884 O 87.3997 1.7485 -0.427489 0
M  V30 885 H 83.7747 0.617757 -0.428812 0
M  V30 886 H 85.7457 1.86239 -2.33147 0
M  V30 887 C 84.4947 3.25315 -1.22741 0
M  V30 888 H 83.8177 3.41509 -2.07873 0
M  V30 889 H 85.2577 4.04964 -1.25618 0
M  V30 890 C 83.7167 3.36838 0.0647316 0
M  V30 891 O 84.2467 3.88073 1.03741 0
M  V30 892 N 82.4527 2.90329 0.125544 0
M  V30 893 H 81.9997 2.48823 -0.666682 0
M  V30 894 H 81.9577 2.98418 0.989639 0
M  V30 895 N 85.7298 1.2412 0.971189 0
M  V30 896 C 87.1408 1.07236 1.52831 0
M  V30 897 C 87.4918 -0.357352 1.92918 0
M  V30 898 O 86.6168 -1.24528 1.76979 0
M  V30 899 C 87.2118 1.94043 2.77728 0
M  V30 900 C 85.7708 1.81394 3.29808 0
M  V30 901 C 84.9178 1.89189 2.02738 0
M  V30 902 H 87.8688 1.37648 0.789864 0
M  V30 903 H 87.8898 1.47066 3.5093 0
M  V30 904 H 87.4018 2.98093 2.4852 0
M  V30 905 H 85.5028 0.801634 3.63874 0
M  V30 906 H 85.6158 2.65294 3.98944 0
M  V30 907 H 83.9798 1.32877 2.17292 0
M  V30 908 H 84.7628 2.94812 1.759 0
M  V30 909 N 87.2079 -1.17134 1.05439 0
M  V30 910 C 88.4329 -1.91913 0.786396 0
M  V30 911 C 88.8579 -1.7643 -0.652234 0
M  V30 912 O 88.2159 -1.08372 -1.45345 0
M  V30 913 C 88.2639 -3.40921 1.17497 0
M  V30 914 O 87.3679 -4.11244 0.308589 0
M  V30 915 H 86.7089 -0.598215 0.288158 0
M  V30 916 H 89.2389 -1.48457 1.4079 0
M  V30 917 H 89.2489 -3.91668 1.14281 0
M  V30 918 H 87.9239 -3.5151 2.22292 0
M  V30 919 H 86.5009 -3.70731 0.40157 0
M  V30 920 N 88.686 -0.835752 -1.33615 0
M  V30 921 C 89.634 -0.255238 -2.31195 0
M  V30 922 C 90.628 0.61107 -1.57995 0
M  V30 923 O 91.834 0.500979 -1.72888 0
M  V30 924 H 88.209 -0.0638085 -0.749288 0
M  V30 925 H 90.18 -1.09283 -2.77669 0
M  V30 926 C 88.929 0.55754 -3.43201 0
M  V30 927 H 88.252 -0.0997553 -3.99676 0
M  V30 928 H 89.692 0.929622 -4.13683 0
M  V30 929 C 88.151 1.73515 -2.88781 0
M  V30 930 O 88.681 2.83376 -2.84712 0
M  V30 931 N 86.887 1.55603 -2.4543 0
M  V30 932 H 86.434 0.662354 -2.48939 0
M  V30 933 H 86.392 2.34545 -2.09371 0
M  V30 934 N 90.1641 1.46063 -0.591896 0
M  V30 935 C 91.1271 2.28854 0.125973 0
M  V30 936 C 92.1271 1.38903 0.810107 0
M  V30 937 O 93.3171 1.61186 0.66066 0
M  V30 938 C 90.4491 3.19526 1.1881 0
M  V30 939 H 91.6421 2.93802 -0.601717 0
M  V30 940 H 89.1951 1.52325 -0.350254 0
M  V30 941 H 89.9301 2.59345 1.94707 0
M  V30 942 H 89.7151 3.85766 0.701936 0
M  V30 943 H 91.2051 3.81817 1.69132 0
M  V30 944 N 91.6422 0.330177 1.54103 0
M  V30 945 C 92.8912 -0.271336 1.99867 0
M  V30 946 C 93.2042 -1.52723 1.22209 0
M  V30 947 O 94.4102 -2.20515 1.58383 0
M  V30 948 C 92.8662 -0.534032 3.55916 0
M  V30 949 C 92.4742 0.705193 4.42415 0
M  V30 950 C 94.2182 -1.09514 4.1013 0
M  V30 951 C 92.1252 0.414035 5.89949 0
M  V30 952 H 91.0552 -0.105166 0.74663 0
M  V30 953 H 93.7062 0.443429 1.78062 0
M  V30 954 H 92.0882 -1.30915 3.73734 0
M  V30 955 H 93.2622 1.4804 4.36372 0
M  V30 956 H 91.5772 1.18698 3.99124 0
M  V30 957 H 94.1742 -1.3277 5.17954 0
M  V30 958 H 94.5172 -2.04656 3.62521 0
M  V30 959 H 95.0502 -0.381038 3.95971 0
M  V30 960 H 91.7892 1.33481 6.41766 0
M  V30 961 H 91.3092 -0.323336 5.98928 0
M  V30 962 H 92.9882 0.0263105 6.46995 0
M  V30 963 N 93.1203 -1.57491 0.0584922 0
M  V30 964 C 94.3503 -1.9701 -0.622134 0
M  V30 965 C 94.7583 -0.935034 -1.6448 0
M  V30 966 O 94.1013 0.0882904 -1.83488 0
M  V30 967 C 94.1633 -3.32794 -1.35972 0
M  V30 968 C 93.8273 -4.54343 -0.492043 0
M  V30 969 C 94.8243 -5.19323 0.244901 0
M  V30 970 C 92.5093 -5.00534 -0.420821 0
M  V30 971 C 94.5033 -6.28835 1.04143 0
M  V30 972 C 92.1903 -6.09921 0.379389 0
M  V30 973 C 93.1883 -6.73933 1.10919 0
M  V30 974 O 92.8763 -7.81216 1.89623 0
M  V30 975 H 92.6083 -0.653127 -0.174359 0
M  V30 976 H 95.1623 -2.05029 0.123418 0
M  V30 977 H 93.3923 -3.21351 -2.15105 0
M  V30 978 H 95.0813 -3.5701 -1.93129 0
M  V30 979 H 95.8473 -4.8459 0.19939 0
M  V30 980 H 91.7263 -4.50496 -0.978474 0
M  V30 981 H 95.2703 -6.7873 1.61157 0
M  V30 982 H 91.1673 -6.44089 0.426512 0
M  V30 983 H 91.9353 -7.98029 1.81913 0
M  V30 984 N 94.5984 0.214957 -1.56127 0
M  V30 985 C 95.8284 0.953707 -1.8327 0
M  V30 986 C 96.2364 1.78181 -0.636262 0
M  V30 987 O 95.5794 1.79191 0.404516 0
M  V30 988 C 95.6414 1.91516 -3.0424 0
M  V30 989 C 95.3054 1.27094 -4.38972 0
M  V30 990 C 96.3024 0.657575 -5.15725 0
M  V30 991 C 93.9874 1.28073 -4.85698 0
M  V30 992 C 95.9814 0.0625968 -6.37369 0
M  V30 993 C 93.6684 0.681914 -6.07283 0
M  V30 994 C 94.6664 0.0739046 -6.8296 0
M  V30 995 O 94.3544 -0.515582 -8.02245 0
M  V30 996 H 94.0864 0.284764 -0.613095 0
M  V30 997 H 96.6404 0.233283 -2.04071 0
M  V30 998 H 94.8704 2.67475 -2.79274 0
M  V30 999 H 96.5594 2.52001 -3.18198 0
M  V30 1000 H 97.3254 0.642288 -4.80728 0
M  V30 1001 H 93.2044 1.74337 -4.26764 0
M  V30 1002 H 96.7484 -0.412593 -6.96379 0
M  V30 1003 H 92.6454 0.694636 -6.41752 0
M  V30 1004 H 93.4134 -0.410544 -8.1747 0
M  V30 1005 N 96.0765 1.50051 0.48192 0
M  V30 1006 C 97.3245 1.60181 1.23234 0
M  V30 1007 C 97.6455 0.299176 1.92691 0
M  V30 1008 O 96.9155 -0.682708 1.83619 0
M  V30 1009 H 95.4955 0.590232 0.457859 0
M  V30 1010 H 98.1575 1.86775 0.556881 0
M  V30 1011 H 97.2535 2.40753 1.98607 0
M  V30 1012 N 97.5546 -0.734337 1.39446 0
M  V30 1013 C 98.5026 -1.86971 1.38364 0
M  V30 1014 C 99.4966 -1.67288 0.266687 0
M  V30 1015 O 100.703 -1.74621 0.436755 0
M  V30 1016 H 97.0776 -0.615474 0.432082 0
M  V30 1017 H 99.0486 -1.85 2.34132 0
M  V30 1018 C 97.7976 -3.2466 1.24465 0
M  V30 1019 H 97.1206 -3.40402 2.09682 0
M  V30 1020 H 98.5606 -4.04292 1.27764 0
M  V30 1021 C 97.0196 -3.36867 -0.0468674 0
M  V30 1022 O 97.5496 -3.88618 -1.01681 0
M  V30 1023 N 95.7556 -2.90391 -0.110145 0
M  V30 1024 H 95.3026 -2.48466 0.679868 0
M  V30 1025 H 95.2606 -2.98939 -0.973799 0
M  V30 1026 N 99.0327 -1.24633 -0.964593 0
M  V30 1027 C 100.449 -1.01239 -1.2338 0
M  V30 1028 C 100.649 0.2769 -1.99588 0
M  V30 1029 O 99.7047 0.992241 -2.32187 0
M  V30 1030 C 101.018 -2.22937 -2.01791 0
M  V30 1031 C 102.566 -2.27594 -2.14872 0
M  V30 1032 C 103.041 -3.48921 -2.96678 0
M  V30 1033 N 104.532 -3.49257 -3.04259 0
M  V30 1034 C 105.267 -4.39795 -3.67924 0
M  V30 1035 N 104.763 -5.40591 -4.33281 0
M  V30 1036 N 106.556 -4.275 -3.64966 0
M  V30 1037 H 98.7067 -2.0748 -0.454502 0
M  V30 1038 H 100.97 -0.910647 -0.26349 0
M  V30 1039 H 100.676 -3.16587 -1.53184 0
M  V30 1040 H 100.55 -2.25306 -3.02518 0
M  V30 1041 H 102.937 -1.34473 -2.6268 0
M  V30 1042 H 103.018 -2.2925 -1.13482 0
M  V30 1043 H 102.662 -4.42359 -2.49562 0
M  V30 1044 H 102.592 -3.4451 -3.98272 0
M  V30 1045 H 105.083 -2.76337 -2.57771 0
M  V30 1046 H 105.396 -6.05904 -4.79687 0
M  V30 1047 H 103.741 -5.44475 -4.3194 0
M  V30 1048 H 106.932 -3.47987 -3.13086 0
M  V30 1049 H 107.105 -4.98258 -4.14298 0
M  V30 1050 N 100.511 1.16574 -1.06058 0
M  V30 1051 C 101.736 1.91493 -0.796562 0
M  V30 1052 C 102.161 1.76773 0.642868 0
M  V30 1053 O 101.519 1.09142 1.44768 0
M  V30 1054 C 101.567 3.40293 -1.19303 0
M  V30 1055 O 100.671 4.11074 -0.330394 0
M  V30 1056 H 100.012 0.596678 -0.291326 0
M  V30 1057 H 102.542 1.47708 -1.41575 0
M  V30 1058 H 102.552 3.91057 -1.16356 0
M  V30 1059 H 101.227 3.50326 -2.24153 0
M  V30 1060 H 99.8038 3.70513 -0.421225 0
M  V30 1061 N 101.989 0.842826 1.3317 0
M  V30 1062 C 102.919 0.294028 2.31641 0
M  V30 1063 C 103.9 -0.600401 1.59151 0
M  V30 1064 O 105.085 -0.523124 1.87022 0
M  V30 1065 C 102.215 -0.528416 3.43257 0
M  V30 1066 C 101.169 0.27056 4.27144 0
M  V30 1067 C 100.495 -0.675881 5.30411 0
M  V30 1068 C 101.795 1.48981 5.00602 0
M  V30 1069 H 103.489 1.11681 2.77791 0
M  V30 1070 H 101.035 0.538478 1.33553 0
M  V30 1071 H 102.988 -0.922674 4.11175 0
M  V30 1072 H 101.712 -1.38445 2.95805 0
M  V30 1073 H 100.371 0.646427 3.60856 0
M  V30 1074 H 100.019 -1.52842 4.79216 0
M  V30 1075 H 99.7189 -0.145374 5.8742 0
M  V30 1076 H 101.243 -1.06757 6.01195 0
M  V30 1077 H 102.657 1.16849 5.61266 0
M  V30 1078 H 101.054 1.95739 5.6728 0
M  V30 1079 H 102.124 2.25746 4.29147 0
M  V30 1080 N 103.467 -1.45747 0.599634 0
M  V30 1081 C 104.43 -2.28917 -0.113835 0
M  V30 1082 C 105.43 -1.3933 -0.802729 0
M  V30 1083 O 106.62 -1.61534 -0.652103 0
M  V30 1084 C 103.752 -3.20152 -1.17114 0
M  V30 1085 H 104.945 -2.93478 0.617289 0
M  V30 1086 H 102.498 -1.52137 0.358327 0
M  V30 1087 H 103.233 -2.60374 -1.93329 0
M  V30 1088 H 103.018 -3.86133 -0.681468 0
M  V30 1089 H 104.508 -3.82708 -1.67105 0
M  V30 1090 N 104.945 -0.338344 -1.53925 0
M  V30 1091 C 106.175 0.260919 -2.04946 0
M  V30 1092 C 106.583 1.45174 -1.2133 0
M  V30 1093 O 105.926 1.82122 -0.240262 0
M  V30 1094 C 105.988 0.744596 -3.51704 0
M  V30 1095 C 105.652 -0.325883 -4.55837 0
M  V30 1096 C 106.649 -1.16687 -5.06636 0
M  V30 1097 C 104.334 -0.478317 -5.00017 0
M  V30 1098 C 106.328 -2.14588 -6.00192 0
M  V30 1099 C 104.015 -1.46073 -5.93385 0
M  V30 1100 C 105.013 -2.29297 -6.4336 0
M  V30 1101 O 104.701 -3.25867 -7.34892 0
M  V30 1102 H 104.433 0.0551207 -0.673749 0
M  V30 1103 H 106.987 -0.486984 -1.99544 0
M  V30 1104 H 105.217 1.54366 -3.54553 0
M  V30 1105 H 106.906 1.26383 -3.85723 0
M  V30 1106 H 107.672 -1.06016 -4.73271 0
M  V30 1107 H 103.551 0.159613 -4.60724 0
M  V30 1108 H 107.095 -2.79585 -6.39123 0
M  V30 1109 H 102.992 -1.56802 -6.26166 0
M  V30 1110 H 103.76 -3.21278 -7.5281 0
M  V30 1111 N 106.423 1.57458 -0.0668435 0
M  V30 1112 C 107.353 2.15468 0.899764 0
M  V30 1113 C 108.334 1.08042 1.31381 0
M  V30 1114 O 109.519 1.36054 1.38574 0
M  V30 1115 C 106.649 2.71232 2.16911 0
M  V30 1116 C 105.603 3.83781 1.89463 0
M  V30 1117 C 104.929 4.26127 3.22986 0
M  V30 1118 C 106.229 5.08238 1.20381 0
M  V30 1119 H 107.923 2.96488 0.416529 0
M  V30 1120 H 105.469 1.4262 0.198908 0
M  V30 1121 H 107.422 3.10458 2.84945 0
M  V30 1122 H 106.146 1.87426 2.67468 0
M  V30 1123 H 104.805 3.45051 1.23836 0
M  V30 1124 H 104.453 3.39249 3.71374 0
M  V30 1125 H 104.153 5.01993 3.05413 0
M  V30 1126 H 105.677 4.67966 3.92225 0
M  V30 1127 H 107.091 5.44811 1.78475 0
M  V30 1128 H 105.488 5.89349 1.13083 0
M  V30 1129 H 106.558 4.84558 0.182153 0
M  V30 1130 N 107.901 -0.206675 1.56239 0
M  V30 1131 C 109.317 -0.557025 1.49564 0
M  V30 1132 C 109.517 -1.86424 0.764735 0
M  V30 1133 O 108.573 -2.50584 0.310491 0
M  V30 1134 C 109.886 -0.622478 2.94186 0
M  V30 1135 C 111.434 -0.712099 3.04792 0
M  V30 1136 C 111.909 -0.808767 4.50803 0
M  V30 1137 N 113.4 -0.8726 4.54907 0
M  V30 1138 C 114.135 -0.967365 5.65181 0
M  V30 1139 N 113.631 -1.02515 6.85173 0
M  V30 1140 N 115.424 -1.00366 5.53067 0
M  V30 1141 H 107.575 0.650943 2.02179 0
M  V30 1142 H 109.838 0.230387 0.919579 0
M  V30 1143 H 109.544 0.268727 3.50672 0
M  V30 1144 H 109.418 -1.4811 3.46905 0
M  V30 1145 H 111.805 -1.59374 2.48363 0
M  V30 1146 H 111.886 0.172489 2.55218 0
M  V30 1147 H 111.53 0.0684754 5.07854 0
M  V30 1148 H 111.46 -1.70899 4.98098 0
M  V30 1149 H 113.951 -0.837657 3.68499 0
M  V30 1150 H 114.264 -1.09765 7.64965 0
M  V30 1151 H 112.609 -0.994026 6.87855 0
M  V30 1152 H 115.8 -0.95527 4.58249 0
M  V30 1153 H 115.973 -1.07405 6.39037 0
M  V30 1154 N 109.379 -1.50304 -0.473955 0
M  V30 1155 C 110.607 -1.64902 -1.24959 0
M  V30 1156 C 111.022 -0.331198 -1.85872 0
M  V30 1157 O 110.379 0.68652 -1.69095 0
M  V30 1158 C 110.43 -2.73803 -2.36038 0
M  V30 1159 O 110.151 -4.00477 -1.77624 0
M  V30 1160 C 111.652 -2.99349 -3.26964 0
M  V30 1161 H 108.872 -0.554383 -0.378022 0
M  V30 1162 H 111.416 -1.9651 -0.566054 0
M  V30 1163 H 109.571 -2.44898 -3.00173 0
M  V30 1164 H 109.985 -4.60678 -2.5075 0
M  V30 1165 H 111.459 -3.79217 -4.01121 0
M  V30 1166 H 111.936 -2.10307 -3.85574 0
M  V30 1167 H 112.542 -3.29774 -2.68569 0
M  V30 1168 N 110.857 0.726932 -1.39834 0
M  V30 1169 C 111.767 1.87131 -1.41489 0
M  V30 1170 C 112.783 1.71239 -0.308757 0
M  V30 1171 O 113.959 1.93701 -0.551529 0
M  V30 1172 C 111.024 3.22811 -1.26468 0
M  V30 1173 C 110.085 3.51039 -2.47124 0
M  V30 1174 C 109.318 4.80245 -2.3281 0
M  V30 1175 O 109.541 5.54537 -1.33585 0
M  V30 1176 O 108.475 5.08554 -3.21957 0
M  V30 1177 H 112.301 1.8869 -2.3797 0
M  V30 1178 H 109.886 0.875837 -1.21035 0
M  V30 1179 H 111.768 4.03877 -1.20255 0
M  V30 1180 H 110.443 3.22005 -0.330862 0
M  V30 1181 H 109.35 2.70027 -2.58914 0
M  V30 1182 H 110.683 3.56632 -3.39227 0
M  V30 1183 N 112.336 1.25143 0.95797 0
M  V30 1184 C 113.576 1.10893 1.71703 0
M  V30 1185 C 113.94 -0.34478 1.88879 0
M  V30 1186 O 115.141 -0.609014 2.6181 0
M  V30 1187 C 113.412 1.83889 3.06463 0
M  V30 1188 S 114.971 1.85491 3.97666 0
M  V30 1189 H 111.789 0.396428 0.590226 0
M  V30 1190 H 114.391 1.58618 1.14283 0
M  V30 1191 H 113.095 2.88756 2.9163 0
M  V30 1192 H 112.626 1.36538 3.68946 0
M  V30 1193 H 114.641 0.929553 4.87415 0
M  V30 1194 N 113.814 -1.1601 1.06675 0
M  V30 1195 C 115.044 -1.90251 0.805497 0
M  V30 1196 C 115.452 -1.77891 -0.64431 0
M  V30 1197 O 114.795 -1.12383 -1.45313 0
M  V30 1198 C 114.857 -3.41419 1.12576 0
M  V30 1199 C 114.521 -3.77564 2.57477 0
M  V30 1200 C 115.518 -3.79161 3.55715 0
M  V30 1201 C 113.203 -4.08079 2.92877 0
M  V30 1202 C 115.197 -4.10767 4.8739 0
M  V30 1203 C 112.884 -4.39351 4.24751 0
M  V30 1204 C 113.882 -4.40675 5.21818 0
M  V30 1205 O 113.57 -4.71202 6.51325 0
M  V30 1206 H 113.302 -0.610018 0.291297 0
M  V30 1207 H 115.856 -1.47958 1.4247 0
M  V30 1208 H 114.086 -3.84079 0.449503 0
M  V30 1209 H 115.775 -3.9694 0.84814 0
M  V30 1210 H 116.541 -3.55693 3.29708 0
M  V30 1211 H 112.42 -4.06211 2.17976 0
M  V30 1212 H 115.964 -4.11715 5.63148 0
M  V30 1213 H 111.861 -4.62285 4.50514 0
M  V30 1214 H 112.629 -4.88996 6.56373 0
M  V30 1215 N 115.292 -0.849877 -1.32721 0
M  V30 1216 C 116.54 -0.450032 -1.97026 0
M  V30 1217 C 116.861 0.996604 -1.67609 0
M  V30 1218 O 116.131 1.6958 -0.980786 0
M  V30 1219 H 114.711 -0.163426 -0.728904 0
M  V30 1220 H 117.373 -1.08526 -1.6189 0
M  V30 1221 H 116.469 -0.591146 -3.0645 0
M  V30 1222 N 116.77 1.45427 -0.607355 0
M  V30 1223 C 118 2.06314 -0.108656 0
M  V30 1224 C 118.408 1.45269 1.21217 0
M  V30 1225 O 117.751 0.561115 1.74921 0
M  V30 1226 C 117.813 3.59345 0.105618 0
M  V30 1227 C 117.477 4.42723 -1.13337 0
M  V30 1228 C 118.474 4.77715 -2.05145 0
M  V30 1229 C 116.159 4.83478 -1.36213 0
M  V30 1230 C 118.153 5.52317 -3.18158 0
M  V30 1231 C 115.84 5.57835 -2.49527 0
M  V30 1232 C 116.838 5.92171 -3.40327 0
M  V30 1233 O 116.526 6.65019 -4.51669 0
M  V30 1234 H 116.258 0.672782 -0.0658842 0
M  V30 1235 H 118.812 1.87664 -0.834945 0
M  V30 1236 H 117.042 3.76394 0.886796 0
M  V30 1237 H 118.731 4.02076 0.555886 0
M  V30 1238 H 119.497 4.46787 -1.88697 0
M  V30 1239 H 115.376 4.56188 -0.664362 0
M  V30 1240 H 118.92 5.79036 -3.89054 0
M  V30 1241 H 114.817 5.88177 -2.65928 0
M  V30 1242 H 115.585 6.83469 -4.50348 0
M  V30 1243 N 118.248 0.346503 1.53744 0
M  V30 1244 C 119.211 -0.496439 2.23759 0
M  V30 1245 C 120.211 -1.0252 1.2388 0
M  V30 1246 O 121.401 -0.913974 1.48297 0
M  V30 1247 C 118.533 -1.69187 2.95954 0
M  V30 1248 H 119.726 0.115952 2.99676 0
M  V30 1249 H 117.279 0.0978939 1.55993 0
M  V30 1250 H 118.014 -2.34288 2.24231 0
M  V30 1251 H 117.799 -1.31989 3.69217 0
M  V30 1252 H 119.289 -2.28969 3.49232 0
M  V30 1253 N 119.726 -1.57421 0.075193 0
M  V30 1254 C 120.656 -2.15942 -0.888324 0
M  V30 1255 C 121.637 -1.08737 -1.30806 0
M  V30 1256 O 122.822 -1.36787 -1.37851 0
M  V30 1257 C 119.952 -2.72379 -2.1547 0
M  V30 1258 C 118.906 -3.8478 -1.87425 0
M  V30 1259 C 118.232 -4.27834 -3.20721 0
M  V30 1260 C 119.532 -5.08869 -1.17684 0
M  V30 1261 H 121.226 -2.96705 -0.400799 0
M  V30 1262 H 118.772 -1.42723 -0.191342 0
M  V30 1263 H 120.725 -3.11965 -2.83295 0
M  V30 1264 H 119.449 -1.88841 -2.6647 0
M  V30 1265 H 118.108 -3.45703 -1.22004 0
M  V30 1266 H 117.756 -3.41214 -3.6957 0
M  V30 1267 H 117.456 -5.03605 -3.02746 0
M  V30 1268 H 118.98 -4.70039 -3.89738 0
M  V30 1269 H 120.394 -5.4575 -1.75584 0
M  V30 1270 H 118.791 -5.8994 -1.09956 0
M  V30 1271 H 119.861 -4.84648 -0.156453 0
M  V30 1272 N 121.204 0.198386 -1.56346 0
M  V30 1273 C 122.452 0.91747 -1.80075 0
M  V30 1274 C 122.773 1.83929 -0.647692 0
M  V30 1275 O 122.043 1.93029 0.334166 0
M  V30 1276 H 120.623 0.341774 -0.664228 0
M  V30 1277 H 123.285 0.204684 -1.93822 0
M  V30 1278 H 122.381 1.51055 -2.7311 0
M  V30 1279 N 122.682 1.50554 0.465978 0
M  V30 1280 C 123.959 1.5232 1.22712 0
M  V30 1281 C 124.339 0.270807 2.09356 0
M  V30 1282 O 123.687 -0.745541 2.15995 0
M  V30 1283 C 123.897 2.82175 2.05374 0
M  V30 1284 C 125.245 3.33033 2.6339 0
M  V30 1285 O 126.269 2.83531 2.15612 0
M  V30 1286 O 125.128 4.19336 3.50456 0
M  V30 1287 H 122.222 0.611183 0.557122 0
M  V30 1288 H 124.768 1.62847 0.477381 0
M  V30 1289 H 123.54 3.64797 1.41558 0
M  V30 1290 H 123.163 2.74675 2.87471 0
M  V30 1291 N 124.16 -0.719506 1.40217 0
M  V30 1292 C 125.123 -1.8153 1.39927 0
M  V30 1293 C 126.123 -1.58095 0.293723 0
M  V30 1294 O 127.313 -1.65209 0.552429 0
M  V30 1295 C 124.445 -3.19561 1.18716 0
M  V30 1296 H 125.638 -1.83186 2.37451 0
M  V30 1297 H 123.191 -0.924746 1.26008 0
M  V30 1298 H 123.926 -3.23557 0.219366 0
M  V30 1299 H 123.711 -3.3797 1.98793 0
M  V30 1300 H 125.201 -3.99598 1.21291 0
M  V30 1301 N 125.638 -1.25649 -0.95132 0
M  V30 1302 C 126.866 -1.13343 -1.73092 0
M  V30 1303 C 127.281 0.312434 -1.86197 0
M  V30 1304 O 126.638 1.21465 -1.36207 0
M  V30 1305 C 126.689 -1.78602 -3.14299 0
M  V30 1306 O 126.41 -3.17537 -3.01831 0
M  V30 1307 C 127.911 -1.72119 -4.08522 0
M  V30 1308 H 125.131 -0.395181 -0.542285 0
M  V30 1309 H 127.675 -1.66076 -1.19328 0
M  V30 1310 H 125.83 -1.29832 -3.64996 0
M  V30 1311 H 126.244 -3.49676 -3.90931 0
M  V30 1312 H 127.718 -2.22435 -5.052 0
M  V30 1313 H 128.195 -0.685635 -4.33815 0
M  V30 1314 H 128.801 -2.20393 -3.63741 0
M  V30 1315 N 127.117 1.15442 -1.07289 0
M  V30 1316 C 128.533 1.38201 -0.798288 0
M  V30 1317 C 128.733 1.92429 0.597769 0
M  V30 1318 O 127.789 2.12962 1.3566 0
M  V30 1319 C 129.102 2.35357 -1.87156 0
M  V30 1320 C 130.65 2.49021 -1.89624 0
M  V30 1321 C 131.125 3.49468 -2.96034 0
M  V30 1322 N 132.616 3.57003 -2.95132 0
M  V30 1323 C 133.351 4.34543 -3.74112 0
M  V30 1324 N 132.847 5.15421 -4.6294 0
M  V30 1325 N 134.64 4.29625 -3.62462 0
M  V30 1326 H 126.791 0.78584 -1.97328 0
M  V30 1327 H 129.054 0.408065 -0.855679 0
M  V30 1328 H 128.76 2.02626 -2.87464 0
M  V30 1329 H 128.634 3.35129 -1.73114 0
M  V30 1330 H 131.021 2.81051 -0.899687 0
M  V30 1331 H 131.102 1.4925 -2.07745 0
M  V30 1332 H 130.746 3.18173 -3.95889 0
M  V30 1333 H 130.676 4.48992 -2.75161 0
M  V30 1334 H 133.167 2.99276 -2.30743 0
M  V30 1335 H 133.48 5.7183 -5.19837 0
M  V30 1336 H 131.825 5.14729 -4.66989 0
M  V30 1337 H 135.016 3.65505 -2.92444 0
M  V30 1338 H 135.189 4.89807 -4.24256 0
M  V30 1339 N 128.595 0.856903 1.32268 0
M  V30 1340 C 129.558 0.308171 2.27119 0
M  V30 1341 C 130.558 -0.533421 1.51695 0
M  V30 1342 O 131.748 -0.344607 1.70757 0
M  V30 1343 C 128.88 -0.563757 3.36206 0
M  V30 1344 H 130.073 1.14535 2.77167 0
M  V30 1345 H 127.626 0.631421 1.42978 0
M  V30 1346 H 128.361 -1.42266 2.91429 0
M  V30 1347 H 128.146 0.0386749 3.92081 0
M  V30 1348 H 129.636 -0.940386 4.06874 0
M  V30 1349 N 130.073 -1.45103 0.615059 0
M  V30 1350 C 131.322 -2.01396 0.110718 0
M  V30 1351 C 131.635 -1.48834 -1.26916 0
M  V30 1352 O 132.841 -1.97152 -1.86664 0
M  V30 1353 C 131.297 -3.59599 0.14723 0
M  V30 1354 C 130.905 -4.21158 1.52743 0
M  V30 1355 C 132.649 -4.23428 -0.30148 0
M  V30 1356 C 130.556 -5.71535 1.51992 0
M  V30 1357 H 129.486 -0.753061 0.0376241 0
M  V30 1358 H 132.137 -1.66494 0.77149 0
M  V30 1359 H 130.519 -3.91724 -0.580339 0
M  V30 1360 H 131.693 -4.00594 2.2773 0
M  V30 1361 H 130.008 -3.69552 1.91886 0
M  V30 1362 H 132.605 -5.33703 -0.326392 0
M  V30 1363 H 132.948 -3.94629 -1.32565 0
M  V30 1364 H 133.481 -3.96047 0.373065 0
M  V30 1365 H 130.22 -6.05044 2.52193 0
M  V30 1366 H 129.74 -5.94268 0.81274 0
M  V30 1367 H 131.419 -6.34873 1.24681 0
M  V30 1368 N 131.551 -0.354651 -1.53558 0
M  V30 1369 C 132.461 0.50515 -2.29097 0
M  V30 1370 C 133.477 1.10223 -1.34636 0
M  V30 1371 O 134.653 1.11553 -1.67684 0
M  V30 1372 C 131.718 1.63479 -3.05738 0
M  V30 1373 C 130.779 1.06636 -4.15845 0
M  V30 1374 C 130.012 2.14217 -4.88822 0
M  V30 1375 O 130.235 3.35137 -4.61562 0
M  V30 1376 O 129.169 1.77887 -5.75013 0
M  V30 1377 H 132.995 -0.109237 -3.03503 0
M  V30 1378 H 130.58 -0.119357 -1.48922 0
M  V30 1379 H 132.462 2.2918 -3.5363 0
M  V30 1380 H 131.137 2.23478 -2.34178 0
M  V30 1381 H 130.044 0.373565 -3.7223 0
M  V30 1382 H 131.377 0.511081 -4.89539 0
M  V30 1383 N 133.029 1.57378 -0.0835403 0
M  V30 1384 C 133.959 2.1641 0.87686 0
M  V30 1385 C 134.94 1.09429 1.30228 0
M  V30 1386 O 136.125 1.37516 1.37124 0
M  V30 1387 C 133.255 2.73517 2.14022 0
M  V30 1388 C 132.209 3.85769 1.85381 0
M  V30 1389 C 131.535 4.29529 3.18448 0
M  V30 1390 C 132.835 5.09486 1.14984 0
M  V30 1391 H 134.529 2.96914 0.385059 0
M  V30 1392 H 132.075 1.42823 0.18377 0
M  V30 1393 H 134.028 3.13463 2.81636 0
M  V30 1394 H 132.752 1.90252 2.65465 0
M  V30 1395 H 131.411 3.46345 1.20169 0
M  V30 1396 H 131.059 3.43169 3.67755 0
M  V30 1397 H 130.759 5.05204 3.00071 0
M  V30 1398 H 132.283 4.72099 3.8724 0
M  V30 1399 H 133.697 5.46674 1.72687 0
M  V30 1400 H 132.094 5.90515 1.06826 0
M  V30 1401 H 133.164 4.84724 0.130749 0
M  V30 1402 N 134.507 -0.190092 1.56449 0
M  V30 1403 C 135.784 -0.935886 1.71757 0
M  V30 1404 C 136.164 -2.01173 0.639726 0
M  V30 1405 O 135.512 -2.25827 -0.348502 0
M  V30 1406 C 135.722 -1.51775 3.1427 0
M  V30 1407 C 137.07 -1.99794 3.74656 0
M  V30 1408 O 138.094 -1.61607 3.1743 0
M  V30 1409 O 136.953 -2.70079 4.751 0
M  V30 1410 H 134.047 -0.439229 0.700719 0
M  V30 1411 H 136.593 -0.179395 1.68749 0
M  V30 1412 H 135.365 -0.742505 3.84191 0
M  V30 1413 H 134.988 -2.33894 3.21527 0
M  V30 1414 N 135.985 -1.50799 -0.457987 0
M  V30 1415 C 136.932 -1.70617 -1.5543 0
M  V30 1416 C 137.902 -0.547562 -1.56815 0
M  V30 1417 O 139.087 -0.779647 -1.74144 0
M  V30 1418 C 136.227 -1.81831 -2.93311 0
M  V30 1419 C 135.34 -3.09278 -3.01615 0
M  V30 1420 C 134.475 -3.11209 -4.30491 0
M  V30 1421 C 133.514 -4.33055 -4.32585 0
M  V30 1422 N 132.651 -4.32652 -5.52952 0
M  V30 1423 H 137.491 -2.64207 -1.37836 0
M  V30 1424 H 135.028 -1.30959 -0.669937 0
M  V30 1425 H 136.986 -1.86314 -3.73287 0
M  V30 1426 H 135.616 -0.916685 -3.0951 0
M  V30 1427 H 134.668 -3.14203 -2.1443 0
M  V30 1428 H 135.98 -3.99233 -2.99022 0
M  V30 1429 H 135.134 -3.14494 -5.18824 0
M  V30 1430 H 133.873 -2.19106 -4.35711 0
M  V30 1431 H 132.878 -4.29969 -3.42647 0
M  V30 1432 H 134.103 -5.264 -4.29046 0
M  V30 1433 H 132.049 -3.43409 -5.58933 0
M  V30 1434 H 131.966 -5.16392 -5.52155 0
M  V30 1435 H 133.234 -4.40101 -6.43375 0
M  V30 1436 N 137.463 0.71206 -1.40597 0
M  V30 1437 C 138.41 1.82613 -1.41142 0
M  V30 1438 C 139.38 1.63925 -0.267903 0
M  V30 1439 O 140.565 1.85009 -0.466495 0
M  V30 1440 C 137.705 3.20354 -1.28324 0
M  V30 1441 C 136.818 3.50589 -2.52411 0
M  V30 1442 C 135.953 4.77855 -2.32009 0
M  V30 1443 C 134.992 5.01005 -3.51654 0
M  V30 1444 N 134.129 6.19487 -3.30425 0
M  V30 1445 H 138.969 1.81482 -2.36365 0
M  V30 1446 H 136.506 0.886475 -1.17388 0
M  V30 1447 H 138.464 3.99899 -1.18899 0
M  V30 1448 H 137.094 3.20705 -0.367189 0
M  V30 1449 H 136.146 2.65573 -2.72351 0
M  V30 1450 H 137.458 3.63604 -3.41458 0
M  V30 1451 H 136.612 5.65424 -2.19956 0
M  V30 1452 H 135.351 4.67056 -1.40392 0
M  V30 1453 H 134.356 4.1189 -3.64179 0
M  V30 1454 H 135.581 5.13674 -4.44202 0
M  V30 1455 H 133.527 6.09932 -2.41494 0
M  V30 1456 H 133.444 6.33194 -4.13039 0
M  V30 1457 H 134.712 7.09834 -3.22113 0
M  V30 1458 N 138.941 1.26152 0.944643 0
M  V30 1459 C 140.171 1.14094 1.72239 0
M  V30 1460 C 140.579 -0.306931 1.86694 0
M  V30 1461 O 139.922 -1.22222 1.3714 0
M  V30 1462 C 139.984 1.73316 3.14963 0
M  V30 1463 C 139.648 3.2239 3.23904 0
M  V30 1464 C 140.645 4.19252 3.07447 0
M  V30 1465 C 138.33 3.62788 3.47405 0
M  V30 1466 C 140.324 5.54491 3.14353 0
M  V30 1467 C 138.011 4.98162 3.53947 0
M  V30 1468 C 139.009 5.93823 3.37436 0
M  V30 1469 O 138.697 7.26732 3.43679 0
M  V30 1470 H 138.429 0.398292 0.546205 0
M  V30 1471 H 140.983 1.67201 1.19301 0
M  V30 1472 H 139.213 1.14667 3.69308 0
M  V30 1473 H 140.902 1.56214 3.74636 0
M  V30 1474 H 141.668 3.8938 2.8915 0
M  V30 1475 H 137.547 2.88816 3.59313 0
M  V30 1476 H 141.091 6.29137 3.01384 0
M  V30 1477 H 136.988 5.27695 3.71763 0
M  V30 1478 H 137.756 7.3496 3.60245 0
M  V30 1479 N 140.419 -1.14872 1.07899 0
M  V30 1480 C 141.668 -1.85135 0.800499 0
M  V30 1481 C 141.981 -1.83547 -0.676014 0
M  V30 1482 O 143.187 -2.49548 -1.06948 0
M  V30 1483 C 141.643 -3.3231 1.38197 0
M  V30 1484 C 141.251 -3.42329 2.8899 0
M  V30 1485 C 142.995 -4.0772 1.18174 0
M  V30 1486 C 140.902 -4.83684 3.403 0
M  V30 1487 H 139.832 -0.693563 0.29578 0
M  V30 1488 H 142.483 -1.29532 1.29976 0
M  V30 1489 H 140.865 -3.87618 0.810431 0
M  V30 1490 H 142.039 -2.97097 3.52236 0
M  V30 1491 H 140.354 -2.80369 3.07867 0
M  V30 1492 H 142.951 -5.12049 1.5398 0
M  V30 1493 H 143.294 -4.16124 0.12117 0
M  V30 1494 H 143.827 -3.58696 1.71994 0
M  V30 1495 H 140.566 -4.80465 4.45907 0
M  V30 1496 H 140.086 -5.29474 2.81811 0
M  V30 1497 H 141.765 -5.52558 3.36584 0
M  V30 1498 N 141.898 -0.863906 -1.31812 0
M  V30 1499 C 142.845 -0.313303 -2.28664 0
M  V30 1500 C 143.815 0.584868 -1.55462 0
M  V30 1501 O 145 0.517805 -1.83639 0
M  V30 1502 C 142.14 0.48441 -3.41683 0
M  V30 1503 C 141.253 -0.440594 -4.29747 0
M  V30 1504 C 140.388 0.370652 -5.29905 0
M  V30 1505 C 139.427 -0.551164 -6.09613 0
M  V30 1506 N 138.564 0.223462 -7.01744 0
M  V30 1507 H 143.404 -1.14444 -2.75148 0
M  V30 1508 H 140.941 -0.575769 -1.35364 0
M  V30 1509 H 142.899 0.962627 -4.05943 0
M  V30 1510 H 141.529 1.28029 -2.96325 0
M  V30 1511 H 140.581 -1.03724 -3.65986 0
M  V30 1512 H 141.893 -1.14767 -4.85417 0
M  V30 1513 H 141.047 0.911638 -5.99812 0
M  V30 1514 H 139.786 1.11105 -4.74876 0
M  V30 1515 H 138.791 -1.10396 -5.38603 0
M  V30 1516 H 140.016 -1.29032 -6.66729 0
M  V30 1517 H 137.962 0.946787 -6.49132 0
M  V30 1518 H 137.879 -0.424399 -7.54808 0
M  V30 1519 H 139.147 0.745876 -7.75923 0
M  V30 1520 N 143.376 1.44774 -0.622745 0
M  V30 1521 C 144.624 2.01721 -0.123655 0
M  V30 1522 C 144.945 1.49172 1.25589 0
M  V30 1523 O 144.215 0.691974 1.83272 0
M  V30 1524 H 142.795 0.745777 -0.0427225 0
M  V30 1525 H 145.457 1.77382 -0.807559 0
M  V30 1526 H 144.553 3.11984 -0.0849534 0
M  V30 1527 N 144.854 0.36279 1.53368 0
M  V30 1528 C 146.084 -0.228281 2.05335 0
M  V30 1529 C 146.492 -1.43226 1.23625 0
M  V30 1530 O 145.835 -1.81717 0.269206 0
M  V30 1531 C 145.897 -0.688549 3.52845 0
M  V30 1532 C 145.561 0.398362 4.5526 0
M  V30 1533 C 146.558 1.24732 5.04716 0
M  V30 1534 C 144.243 0.557805 4.99193 0
M  V30 1535 C 146.237 2.2411 5.96702 0
M  V30 1536 C 143.924 1.55495 5.90986 0
M  V30 1537 C 144.922 2.39503 6.39631 0
M  V30 1538 O 144.61 3.37517 7.29615 0
M  V30 1539 H 144.342 -0.044395 0.674541 0
M  V30 1540 H 146.896 0.518668 1.98744 0
M  V30 1541 H 145.126 -1.48706 3.56964 0
M  V30 1542 H 146.815 -1.20231 3.87685 0
M  V30 1543 H 147.581 1.13532 4.71525 0
M  V30 1544 H 143.46 -0.0862959 4.60919 0
M  V30 1545 H 147.004 2.89718 6.34594 0
M  V30 1546 H 142.901 1.66744 6.23592 0
M  V30 1547 H 143.669 3.33213 7.47604 0
M  V30 1548 N 146.332 -1.57332 0.0918853 0
M  V30 1549 C 147.562 -1.98286 -0.580205 0
M  V30 1550 C 147.97 -0.969713 -1.6246 0
M  V30 1551 O 147.313 0.0493501 -1.83634 0
M  V30 1552 C 147.375 -3.35603 -1.28882 0
M  V30 1553 C 147.039 -4.55285 -0.395559 0
M  V30 1554 C 148.036 -5.18687 0.355002 0
M  V30 1555 C 145.721 -5.01314 -0.314556 0
M  V30 1556 C 147.715 -6.26484 1.17458 0
M  V30 1557 C 145.402 -6.08979 0.508677 0
M  V30 1558 C 146.4 -6.71429 1.2519 0
M  V30 1559 O 146.088 -7.77018 2.06151 0
M  V30 1560 H 145.82 -0.656678 -0.160466 0
M  V30 1561 H 148.374 -2.04721 0.16688 0
M  V30 1562 H 146.604 -3.25842 -2.08241 0
M  V30 1563 H 148.293 -3.61026 -1.85512 0
M  V30 1564 H 149.059 -4.84058 0.302134 0
M  V30 1565 H 144.938 -4.5247 -0.882697 0
M  V30 1566 H 148.482 -6.75159 1.75518 0
M  V30 1567 H 144.379 -6.4304 0.563037 0
M  V30 1568 H 145.147 -7.93991 1.98799 0
M  V30 1569 N 147.81 0.181792 -1.56548 0
M  V30 1570 C 149.226 0.53316 -1.50431 0
M  V30 1571 C 149.426 1.85184 -0.794297 0
M  V30 1572 O 148.482 2.50058 -0.350318 0
M  V30 1573 C 149.795 0.575597 -2.9514 0
M  V30 1574 C 151.343 0.663519 -3.05886 0
M  V30 1575 C 151.818 0.736946 -4.52032 0
M  V30 1576 N 153.309 0.800118 -4.56237 0
M  V30 1577 C 154.044 0.877327 -5.66649 0
M  V30 1578 N 153.54 0.916016 -6.86718 0
M  V30 1579 N 155.333 0.915542 -5.54594 0
M  V30 1580 H 147.484 -0.683025 -2.01118 0
M  V30 1581 H 149.747 -0.244988 -0.915797 0
M  V30 1582 H 149.453 -0.324482 -3.502 0
M  V30 1583 H 149.327 1.42572 -3.49218 0
M  V30 1584 H 151.714 1.55403 -2.50867 0
M  V30 1585 H 151.795 -0.21307 -2.54911 0
M  V30 1586 H 151.439 -0.149262 -5.07681 0
M  V30 1587 H 151.369 1.62953 -5.00753 0
M  V30 1588 H 153.86 0.778926 -3.69785 0
M  V30 1589 H 154.173 0.975813 -7.66614 0
M  V30 1590 H 152.518 0.884469 -6.89349 0
M  V30 1591 H 155.709 0.882245 -4.59711 0
M  V30 1592 H 155.882 0.972253 -6.40665 0
M  V30 1593 N 149.288 1.51039 0.449983 0
M  V30 1594 C 150.704 1.38934 0.785462 0
M  V30 1595 C 150.904 0.461817 1.96136 0
M  V30 1596 O 149.96 -0.0877389 2.52348 0
M  V30 1597 C 151.273 2.80724 1.0777 0
M  V30 1598 C 152.821 2.89787 1.1829 0
M  V30 1599 C 153.296 4.32457 1.50815 0
M  V30 1600 N 154.787 4.35505 1.57764 0
M  V30 1601 C 155.522 5.42914 1.84477 0
M  V30 1602 N 155.018 6.60502 2.09068 0
M  V30 1603 N 156.811 5.3038 1.86155 0
M  V30 1604 H 148.962 2.09904 -0.324647 0
M  V30 1605 H 151.225 0.944378 -0.0827957 0
M  V30 1606 H 150.931 3.50531 0.286498 0
M  V30 1607 H 150.805 3.19273 2.00859 0
M  V30 1608 H 153.192 2.20186 1.96474 0
M  V30 1609 H 153.273 2.54752 0.231314 0
M  V30 1610 H 152.917 5.02603 0.731622 0
M  V30 1611 H 152.847 4.64995 2.47158 0
M  V30 1612 H 155.338 3.50724 1.40715 0
M  V30 1613 H 155.651 7.38158 2.28785 0
M  V30 1614 H 153.996 6.63639 2.06416 0
M  V30 1615 H 157.187 4.37505 1.66454 0
M  V30 1616 H 157.36 6.1417 2.06637 0
M  V30 1617 N 150.766 -0.704594 1.40972 0
M  V30 1618 C 151.729 -1.80035 1.41845 0
M  V30 1619 C 152.729 -1.57774 0.310474 0
M  V30 1620 O 153.919 -1.64613 0.56992 0
M  V30 1621 C 151.051 -3.18284 1.22098 0
M  V30 1622 H 152.244 -1.80658 2.3938 0
M  V30 1623 H 149.797 -0.911329 1.26982 0
M  V30 1624 H 150.532 -3.23306 0.253672 0
M  V30 1625 H 150.317 -3.35843 2.02366 0
M  V30 1626 H 151.807 -3.98289 1.25522 0
M  V30 1627 N 152.244 -1.26651 -0.937939 0
M  V30 1628 C 153.207 -1.08546 -2.01867 0
M  V30 1629 C 154.207 -0.0327327 -1.60767 0
M  V30 1630 O 155.397 -0.276427 -1.71993 0
M  V30 1631 C 152.529 -0.651711 -3.34613 0
M  V30 1632 H 153.722 -2.04502 -2.1936 0
M  V30 1633 H 151.275 -1.09294 -1.11734 0
M  V30 1634 H 152.01 0.309696 -3.22818 0
M  V30 1635 H 151.795 -1.41189 -3.65798 0
M  V30 1636 H 153.285 -0.546973 -4.14002 0
M  V30 1637 N 153.722 1.14298 -1.08507 0
M  V30 1638 C 154.947 1.8976 -0.837001 0
M  V30 1639 C 155.372 1.78097 0.605228 0
M  V30 1640 O 154.73 1.12188 1.4242 0
M  V30 1641 C 154.778 3.37685 -1.26495 0
M  V30 1642 O 153.882 4.10281 -0.417514 0
M  V30 1643 H 153.223 0.590365 -0.303917 0
M  V30 1644 H 155.753 1.44672 -1.44676 0
M  V30 1645 H 155.763 3.88501 -1.24625 0
M  V30 1646 H 154.438 3.45492 -2.31534 0
M  V30 1647 H 153.015 3.69536 -0.499722 0
M  V30 1648 N 155.201 0.870884 1.31352 0
M  V30 1649 C 156.149 0.316445 2.30437 0
M  V30 1650 C 157.143 -0.568965 1.59559 0
M  V30 1651 O 158.349 -0.454964 1.74155 0
M  V30 1652 H 154.724 0.0836521 0.747333 0
M  V30 1653 H 156.695 1.16606 2.74673 0
M  V30 1654 C 155.444 -0.46635 3.44558 0
M  V30 1655 H 154.767 0.205687 3.99271 0
M  V30 1656 H 156.207 -0.819614 4.16003 0
M  V30 1657 C 154.666 -1.65797 2.9328 0
M  V30 1658 O 155.196 -2.75728 2.92125 0
M  V30 1659 N 153.402 -1.49041 2.4947 0
M  V30 1660 H 152.949 -0.59612 2.50608 0
M  V30 1661 H 152.907 -2.28911 2.15516 0
M  V30 1662 N 156.679 -1.44442 0.630414 0
M  V30 1663 C 157.612 -2.27862 -0.124247 0
M  V30 1664 C 158.59 -1.38495 -0.851931 0
M  V30 1665 O 159.774 -1.67935 -0.856166 0
M  V30 1666 C 156.901 -3.17407 -1.18197 0
M  V30 1667 C 155.947 -4.22875 -0.554892 0
M  V30 1668 S 156.78 -5.31485 0.654489 0
M  V30 1669 C 157.936 -6.246 -0.40326 0
M  V30 1670 H 158.169 -2.91519 0.583435 0
M  V30 1671 H 155.702 -1.48618 0.418565 0
M  V30 1672 H 157.66 -3.69549 -1.78728 0
M  V30 1673 H 156.321 -2.52971 -1.86184 0
M  V30 1674 H 155.514 -4.85542 -1.35148 0
M  V30 1675 H 155.116 -3.73992 -0.0242105 0
M  V30 1676 H 157.408 -6.65375 -1.27602 0
M  V30 1677 H 158.351 -7.07851 0.187813 0
M  V30 1678 H 158.759 -5.59775 -0.728837 0
M  V30 1679 N 158.157 -0.370918 -1.53173 0
M  V30 1680 C 159.12 0.460778 -2.24521 0
M  V30 1681 C 160.12 1.00536 -1.25496 0
M  V30 1682 O 161.31 0.890266 -1.49733 0
M  V30 1683 C 158.442 1.64457 -2.98608 0
M  V30 1684 H 159.635 -0.163613 -2.99453 0
M  V30 1685 H 157.188 -0.122699 -1.55818 0
M  V30 1686 H 157.923 2.30691 -2.2793 0
M  V30 1687 H 157.708 1.26099 -3.7127 0
M  V30 1688 H 159.198 2.23384 -3.5283 0
M  V30 1689 N 159.635 1.57281 -0.100228 0
M  V30 1690 C 160.565 2.17328 0.853857 0
M  V30 1691 C 161.546 1.10804 1.2906 0
M  V30 1692 O 162.731 1.38963 1.35657 0
M  V30 1693 C 159.861 2.75772 2.11109 0
M  V30 1694 C 158.815 3.87713 1.81279 0
M  V30 1695 C 158.141 4.32882 3.13874 0
M  V30 1696 C 159.441 5.10677 1.09574 0
M  V30 1697 H 161.135 2.97305 0.353545 0
M  V30 1698 H 158.681 1.43009 0.168612 0
M  V30 1699 H 160.634 3.16433 2.78296 0
M  V30 1700 H 159.358 1.93057 2.63432 0
M  V30 1701 H 158.017 3.476 1.16489 0
M  V30 1702 H 157.665 3.47051 3.64095 0
M  V30 1703 H 157.365 5.08358 2.94696 0
M  V30 1704 H 158.889 4.7618 3.82211 0
M  V30 1705 H 160.303 5.48474 1.66879 0
M  V30 1706 H 158.7 5.91615 1.00557 0
M  V30 1707 H 159.77 4.84835 0.0793299 0
M  V30 1708 N 161.113 -0.173488 1.56642 0
M  V30 1709 C 162.361 -0.888706 1.81512 0
M  V30 1710 C 162.682 -1.82875 0.676872 0
M  V30 1711 O 161.952 -1.93536 -0.303414 0
M  V30 1712 H 160.532 -0.331164 0.669582 0
M  V30 1713 H 163.194 -0.173823 1.94123 0
M  V30 1714 H 162.29 -1.46691 2.75478 0
M  V30 1715 N 162.591 -1.51276 -0.441967 0
M  V30 1716 C 163.538 -1.72256 -1.53612 0
M  V30 1717 C 164.508 -0.564164 -1.56225 0
M  V30 1718 O 165.693 -0.798074 -1.73307 0
M  V30 1719 C 162.833 -1.84932 -2.91366 0
M  V30 1720 C 161.946 -3.12459 -2.98317 0
M  V30 1721 C 161.081 -3.15758 -4.27166 0
M  V30 1722 C 160.12 -4.37619 -4.27967 0
M  V30 1723 N 159.257 -4.38493 -5.48333 0
M  V30 1724 H 164.097 -2.65654 -1.35026 0
M  V30 1725 H 161.634 -1.31662 -0.656009 0
M  V30 1726 H 163.592 -1.90263 -3.7129 0
M  V30 1727 H 162.222 -0.949461 -3.08521 0
M  V30 1728 H 161.274 -3.1646 -2.11086 0
M  V30 1729 H 162.586 -4.02382 -2.94771 0
M  V30 1730 H 161.74 -3.19979 -5.15459 0
M  V30 1731 H 160.479 -2.23715 -4.33362 0
M  V30 1732 H 159.484 -4.33579 -3.38067 0
M  V30 1733 H 160.709 -5.30921 -4.23438 0
M  V30 1734 H 158.655 -3.49318 -5.55259 0
M  V30 1735 H 158.572 -5.22219 -5.46647 0
M  V30 1736 H 159.84 -4.469 -6.38671 0
M  V30 1737 N 164.069 0.697108 -1.41344 0
M  V30 1738 C 165.316 1.45714 -1.40619 0
M  V30 1739 C 165.644 1.94494 -0.0147907 0
M  V30 1740 O 164.899 1.69794 0.973066 0
M  V30 1741 C 165.198 2.68553 -2.35826 0
M  V30 1742 C 164.864 2.38438 -3.82698 0
M  V30 1743 C 163.526 2.29936 -4.22709 0
M  V30 1744 C 165.878 2.13567 -4.75435 0
M  V30 1745 C 163.206 1.94656 -5.53467 0
M  V30 1746 C 165.558 1.79797 -6.06511 0
M  V30 1747 C 164.222 1.69789 -6.45545 0
M  V30 1748 H 163.492 0.533206 -0.51456 0
M  V30 1749 H 166.139 0.796901 -1.74131 0
M  V30 1750 H 164.444 3.39503 -1.95563 0
M  V30 1751 H 166.141 3.2669 -2.32539 0
M  V30 1752 H 162.731 2.4595 -3.51008 0
M  V30 1753 H 166.915 2.19082 -4.45328 0
M  V30 1754 H 162.171 1.8546 -5.82593 0
M  V30 1755 H 166.345 1.59572 -6.77872 0
M  V30 1756 H 163.972 1.4222 -7.46778 0
M  V30 1757 N 165.547 1.27147 0.931209 0
M  V30 1758 C 166.963 1.04475 1.20653 0
M  V30 1759 C 167.163 -0.223885 2.00252 0
M  V30 1760 O 166.219 -0.930332 2.34736 0
M  V30 1761 C 167.532 2.28209 1.95809 0
M  V30 1762 C 169.08 2.33211 2.08762 0
M  V30 1763 C 169.555 3.56665 2.87323 0
M  V30 1764 N 171.046 3.57201 2.94892 0
M  V30 1765 C 171.781 4.49395 3.56134 0
M  V30 1766 N 171.277 5.51889 4.18796 0
M  V30 1767 N 173.07 4.37026 3.53504 0
M  V30 1768 H 165.221 2.08612 0.399333 0
M  V30 1769 H 167.484 0.917312 0.239253 0
M  V30 1770 H 167.19 3.20538 1.44736 0
M  V30 1771 H 167.064 2.33247 2.96438 0
M  V30 1772 H 169.451 1.41391 2.59023 0
M  V30 1773 H 169.532 2.32178 1.07364 0
M  V30 1774 H 169.176 4.4882 2.37746 0
M  V30 1775 H 169.106 3.54948 3.88998 0
M  V30 1776 H 171.597 2.83074 2.50354 0
M  V30 1777 H 171.91 6.18409 4.63454 0
M  V30 1778 H 170.255 5.55735 4.17353 0
M  V30 1779 H 173.446 3.56166 3.03749 0
M  V30 1780 H 173.619 5.09067 4.00942 0
M  V30 1781 N 167.025 -1.13721 1.09112 0
M  V30 1782 C 167.988 -2.17222 0.731241 0
M  V30 1783 C 168.988 -1.59035 -0.237566 0
M  V30 1784 O 170.178 -1.74192 -0.0161704 0
M  V30 1785 C 167.31 -3.40804 0.0808443 0
M  V30 1786 H 168.503 -2.50573 1.64783 0
M  V30 1787 H 166.056 -1.28493 0.889897 0
M  V30 1788 H 166.791 -3.1304 -0.847127 0
M  V30 1789 H 166.576 -3.84306 0.777896 0
M  V30 1790 H 168.066 -4.1731 -0.155657 0
M  V30 1791 N 168.503 -0.877838 -1.30888 0
M  V30 1792 C 169.466 -0.344265 -2.266 0
M  V30 1793 C 170.466 0.50922 -1.52524 0
M  V30 1794 O 171.656 0.317398 -1.71284 0
M  V30 1795 C 168.788 0.510198 -3.37061 0
M  V30 1796 H 169.981 -1.1893 -2.7531 0
M  V30 1797 H 167.534 -0.654088 -1.41956 0
M  V30 1798 H 168.269 1.37612 -2.93655 0
M  V30 1799 H 168.054 -0.101047 -3.9197 0
M  V30 1800 H 169.544 0.875537 -4.08319 0
M  V30 1801 N 169.982 1.44106 -0.638065 0
M  V30 1802 C 170.912 2.33448 0.0494287 0
M  V30 1803 C 171.893 1.48606 0.827672 0
M  V30 1804 O 173.078 1.77308 0.792173 0
M  V30 1805 C 170.208 3.31771 1.02691 0
M  V30 1806 C 169.162 4.26485 0.359823 0
M  V30 1807 C 168.488 5.14729 1.44769 0
M  V30 1808 C 169.788 5.17056 -0.738296 0
M  V30 1809 H 171.482 2.91183 -0.696636 0
M  V30 1810 H 169.028 1.40014 -0.336456 0
M  V30 1811 H 170.981 3.93161 1.51666 0
M  V30 1812 H 169.705 2.7226 1.80395 0
M  V30 1813 H 168.364 3.66437 -0.10934 0
M  V30 1814 H 168.012 4.51566 2.21578 0
M  V30 1815 H 167.712 5.78913 1.00668 0
M  V30 1816 H 169.236 5.78991 1.93911 0
M  V30 1817 H 170.65 5.72342 -0.331354 0
M  V30 1818 H 169.047 5.89879 -1.10286 0
M  V30 1819 H 170.117 4.57652 -1.60258 0
M  V30 1820 N 171.46 0.379036 1.52974 0
M  V30 1821 C 172.876 0.0285448 1.59574 0
M  V30 1822 C 173.076 -1.45542 1.39355 0
M  V30 1823 O 172.132 -2.2187 1.20541 0
M  V30 1824 C 173.445 0.496535 2.96572 0
M  V30 1825 C 174.993 0.451909 3.0972 0
M  V30 1826 C 175.468 0.895924 4.49152 0
M  V30 1827 N 176.959 0.851522 4.55306 0
M  V30 1828 C 177.694 1.16661 5.61407 0
M  V30 1829 N 177.19 1.55166 6.752 0
M  V30 1830 N 178.983 1.08853 5.51459 0
M  V30 1831 H 171.134 1.34525 1.64367 0
M  V30 1832 H 173.397 0.550733 0.771619 0
M  V30 1833 H 173.103 1.53258 3.16552 0
M  V30 1834 H 172.977 -0.109802 3.7704 0
M  V30 1835 H 175.364 -0.575029 2.89443 0
M  V30 1836 H 175.445 1.09392 2.3123 0
M  V30 1837 H 175.089 1.92104 4.70168 0
M  V30 1838 H 175.019 0.23103 5.26093 0
M  V30 1839 H 177.51 0.568038 3.73606 0
M  V30 1840 H 177.823 1.776 7.52116 0
M  V30 1841 H 176.168 1.59044 6.76557 0
M  V30 1842 H 179.359 0.786803 4.6144 0
M  V30 1843 H 179.532 1.33742 6.34048 0
M  V30 1844 N 172.938 -1.57226 0.108567 0
M  V30 1845 C 174.215 -1.86333 -0.594939 0
M  V30 1846 C 174.595 -1.00788 -1.85486 0
M  V30 1847 O 173.943 -0.0839293 -2.28346 0
M  V30 1848 C 174.153 -3.37265 -0.897405 0
M  V30 1849 C 175.501 -4.05629 -1.25501 0
M  V30 1850 O 176.525 -3.42224 -0.987998 0
M  V30 1851 O 175.384 -5.17531 -1.75567 0
M  V30 1852 H 172.478 -0.771018 -0.2991 0
M  V30 1853 H 175.024 -1.69102 0.142283 0
M  V30 1854 H 173.796 -3.913 -0.00413806 0
M  V30 1855 H 173.419 -3.59889 -1.69014 0
M  V30 1856 N 174.416 0.165178 -1.56732 0
M  V30 1857 C 175.646 0.894919 -1.86212 0
M  V30 1858 C 176.054 1.76066 -0.692627 0
M  V30 1859 O 175.397 1.80387 0.347303 0
M  V30 1860 C 175.459 1.8174 -3.10179 0
M  V30 1861 C 175.123 1.13064 -4.42793 0
M  V30 1862 C 176.12 0.493169 -5.17556 0
M  V30 1863 C 173.805 1.12556 -4.89527 0
M  V30 1864 C 175.799 -0.140209 -6.37246 0
M  V30 1865 C 173.486 0.488366 -6.09145 0
M  V30 1866 C 174.484 -0.143411 -6.82849 0
M  V30 1867 O 174.172 -0.77055 -8.00199 0
M  V30 1868 H 173.904 0.265114 -0.621844 0
M  V30 1869 H 176.458 0.168242 -2.0471 0
M  V30 1870 H 174.688 2.58455 -2.87642 0
M  V30 1871 H 176.377 2.4175 -3.26055 0
M  V30 1872 H 177.143 0.489023 -4.82528 0
M  V30 1873 H 173.022 1.60672 -4.32094 0
M  V30 1874 H 176.566 -0.633932 -6.94714 0
M  V30 1875 H 172.463 0.490116 -6.43637 0
M  V30 1876 H 173.231 -0.670408 -8.1575 0
M  V30 1877 N 175.894 1.51508 0.433938 0
M  V30 1878 C 176.804 1.75917 1.5521 0
M  V30 1879 C 177.82 0.643545 1.61662 0
M  V30 1880 O 178.996 0.926183 1.7884 0
M  V30 1881 C 176.061 1.88213 2.91164 0
M  V30 1882 C 175.122 3.12074 2.94802 0
M  V30 1883 C 174.355 3.23774 4.24271 0
M  V30 1884 O 174.578 2.4133 5.16833 0
M  V30 1885 O 173.512 4.16774 4.34262 0
M  V30 1886 H 177.338 2.70777 1.37527 0
M  V30 1887 H 174.923 1.36051 0.617293 0
M  V30 1888 H 176.805 1.98267 3.71845 0
M  V30 1889 H 175.48 0.965413 3.08968 0
M  V30 1890 H 174.387 3.07497 2.13065 0
M  V30 1891 H 175.72 4.03446 2.81943 0
M  V30 1892 N 177.372 -0.689602 1.41712 0
M  V30 1893 C 178.6 -1.47827 1.44758 0
M  V30 1894 C 179.015 -1.88721 0.0545703 0
M  V30 1895 O 178.372 -1.57176 -0.927463 0
M  V30 1896 C 178.423 -2.73698 2.3616 0
M  V30 1897 O 178.144 -2.34524 3.7004 0
M  V30 1898 C 179.645 -3.67389 2.48072 0
M  V30 1899 H 176.865 -0.455357 0.49284 0
M  V30 1900 H 179.409 -0.848574 1.86063 0
M  V30 1901 H 177.564 -3.32891 1.98148 0
M  V30 1902 H 177.978 -3.15701 4.18847 0
M  V30 1903 H 179.452 -4.52475 3.16181 0
M  V30 1904 H 179.929 -4.12284 1.51388 0
M  V30 1905 H 180.535 -3.14097 2.86746 0
M  V30 1906 N 178.85 -1.27639 -0.924453 0
M  V30 1907 C 180.096 -1.14336 -1.67497 0
M  V30 1908 C 180.429 0.309465 -1.91718 0
M  V30 1909 O 179.704 1.22608 -1.50989 0
M  V30 1910 C 179.987 -1.93096 -3.0395 0
M  V30 1911 C 179.84 -3.46381 -2.8695 0
M  V30 1912 C 181.159 -1.73798 -4.0433 0
M  V30 1913 H 178.278 -0.416728 -0.607871 0
M  V30 1914 H 180.92 -1.56832 -1.07256 0
M  V30 1915 H 179.07 -1.56982 -3.55372 0
M  V30 1916 H 180.742 -3.92343 -2.42621 0
M  V30 1917 H 178.985 -3.72557 -2.22225 0
M  V30 1918 H 179.656 -3.96735 -3.83804 0
M  V30 1919 H 182.132 -2.05293 -3.61931 0
M  V30 1920 H 181.008 -2.31294 -4.97789 0
M  V30 1921 H 181.269 -0.686725 -4.36734 0
M  V30 1922 N 180.328 1.1314 -1.09713 0
M  V30 1923 C 181.574 1.84757 -0.836224 0
M  V30 1924 C 181.907 1.8347 0.636598 0
M  V30 1925 O 181.182 1.27491 1.46889 0
M  V30 1926 C 181.465 3.32782 -1.37578 0
M  V30 1927 C 181.318 3.42567 -2.91493 0
M  V30 1928 C 182.637 4.28307 -1.01198 0
M  V30 1929 H 179.756 0.67082 -0.305236 0
M  V30 1930 H 182.398 1.3278 -1.35903 0
M  V30 1931 H 180.548 3.77177 -0.931097 0
M  V30 1932 H 182.22 3.06862 -3.44432 0
M  V30 1933 H 180.463 2.83349 -3.28475 0
M  V30 1934 H 181.134 4.46674 -3.24324 0
M  V30 1935 H 183.61 3.91999 -1.39556 0
M  V30 1936 H 182.486 5.30307 -1.41653 0
M  V30 1937 H 182.747 4.42029 0.0794833 0
M  V30 1938 N 181.806 0.884767 1.30421 0
M  V30 1939 C 182.753 0.349642 2.28136 0
M  V30 1940 C 183.723 -0.560061 1.56373 0
M  V30 1941 O 184.908 -0.488524 1.8444 0
M  V30 1942 C 182.048 -0.42999 3.42411 0
M  V30 1943 C 181.161 0.508907 4.28992 0
M  V30 1944 C 180.296 -0.286301 5.30428 0
M  V30 1945 C 179.335 0.648079 6.08659 0
M  V30 1946 N 178.472 -0.111792 7.02011 0
M  V30 1947 H 183.312 1.18807 2.73293 0
M  V30 1948 H 180.849 0.597231 1.3443 0
M  V30 1949 H 182.807 -0.897923 4.07423 0
M  V30 1950 H 181.437 -1.23299 2.98324 0
M  V30 1951 H 180.489 1.09533 3.64289 0
M  V30 1952 H 181.801 1.22475 4.8353 0
M  V30 1953 H 180.955 -0.816098 6.01186 0
M  V30 1954 H 179.694 -1.03536 4.76583 0
M  V30 1955 H 178.699 1.18951 5.36778 0
M  V30 1956 H 179.924 1.39623 6.64592 0
M  V30 1957 H 177.87 -0.843395 6.50556 0
M  V30 1958 H 177.787 0.544429 7.54037 0
M  V30 1959 H 179.055 -0.622339 7.77012 0
M  V30 1960 N 183.284 -1.43765 0.645699 0
M  V30 1961 C 184.53 -2.02197 0.156271 0
M  V30 1962 C 184.863 -1.50776 -1.22393 0
M  V30 1963 O 184.138 -0.697771 -1.81553 0
M  V30 1964 C 184.421 -3.59749 0.158872 0
M  V30 1965 C 184.274 -4.21419 1.57245 0
M  V30 1966 C 185.593 -4.37149 -0.50879 0
M  V30 1967 H 182.712 -0.734694 0.0582602 0
M  V30 1968 H 185.354 -1.71157 0.824951 0
M  V30 1969 H 183.504 -3.86325 -0.410525 0
M  V30 1970 H 185.176 -4.059 2.19186 0
M  V30 1971 H 183.419 -3.78356 2.122 0
M  V30 1972 H 184.09 -5.30482 1.52619 0
M  V30 1973 H 186.566 -4.16093 -0.024412 0
M  V30 1974 H 185.442 -5.4683 -0.476213 0
M  V30 1975 H 185.703 -4.12839 -1.58165 0
M  V30 1976 N 184.763 -0.387143 -1.52771 0
M  V30 1977 C 185.71 0.449048 -2.26389 0
M  V30 1978 C 186.68 1.05961 -1.27912 0
M  V30 1979 O 187.865 1.08804 -1.56737 0
M  V30 1980 C 185.005 1.57155 -3.0724 0
M  V30 1981 C 184.118 0.984066 -4.20643 0
M  V30 1982 C 183.253 2.07745 -4.88892 0
M  V30 1983 C 182.292 1.46574 -5.94292 0
M  V30 1984 N 181.429 2.49834 -6.56146 0
M  V30 1985 H 186.269 -0.185205 -2.97424 0
M  V30 1986 H 183.806 -0.103164 -1.46738 0
M  V30 1987 H 185.764 2.23309 -3.52405 0
M  V30 1988 H 184.394 2.17615 -2.38419 0
M  V30 1989 H 183.446 0.212193 -3.79808 0
M  V30 1990 H 184.758 0.497029 -4.96318 0
M  V30 1991 H 183.912 2.81673 -5.3735 0
M  V30 1992 H 182.651 2.59807 -4.12737 0
M  V30 1993 H 181.656 0.711696 -5.45174 0
M  V30 1994 H 182.881 0.953088 -6.72379 0
M  V30 1995 H 180.827 3.0107 -5.82832 0
M  V30 1996 H 180.744 2.05879 -7.27427 0
M  V30 1997 H 182.012 3.23399 -7.09249 0
M  V30 1998 N 186.241 1.57166 -0.116904 0
M  V30 1999 C 187.652 1.82169 0.408809 0
M  V30 2000 C 188.003 1.03393 1.66746 0
M  V30 2001 O 187.128 0.269886 2.1471 0
M  V30 2002 C 187.723 3.30429 0.748466 0
M  V30 2003 C 186.282 3.5612 1.21882 0
M  V30 2004 C 185.429 2.76374 0.226452 0
M  V30 2005 H 188.38 1.5497 -0.342063 0
M  V30 2006 H 188.401 3.44943 1.60607 0
M  V30 2007 H 187.913 3.87737 -0.167784 0
M  V30 2008 H 186.014 3.04168 2.15204 0
M  V30 2009 H 186.127 4.64705 1.16559 0
M  V30 2010 H 184.491 2.44515 0.713063 0
M  V30 2011 H 185.274 3.3644 -0.682859 0
M  V30 2012 N 187.719 -0.156864 1.56817 0
M  V30 2013 C 188.669 -1.19891 1.93934 0
M  V30 2014 C 189.653 -1.39061 0.809372 0
M  V30 2015 O 190.845 -1.40789 1.07273 0
M  V30 2016 C 187.974 -2.53493 2.31508 0
M  V30 2017 C 187.06 -2.37957 3.51052 0
M  V30 2018 N 187.451 -1.92158 4.67877 0
M  V30 2019 C 185.749 -2.68739 3.55943 0
M  V30 2020 C 186.45 -1.8943 5.49992 0
M  V30 2021 N 185.426 -2.32375 4.91429 0
M  V30 2022 H 189.228 -0.836746 2.81737 0
M  V30 2023 H 186.742 -0.365012 1.58245 0
M  V30 2024 H 188.739 -3.28811 2.56299 0
M  V30 2025 H 187.399 -2.905 1.45051 0
M  V30 2026 H 188.41 -1.62274 4.91821 0
M  V30 2027 H 185.087 -3.09687 2.80001 0
M  V30 2028 H 186.477 -1.55596 6.53636 0
M  V30 2029 N 189.197 -1.51736 -0.425897 0
M  V30 2030 C 190.474 -1.55519 -1.1863 0
M  V30 2031 C 190.854 -0.326219 -2.08564 0
M  V30 2032 O 190.202 0.688012 -2.17896 0
M  V30 2033 C 190.412 -2.87521 -1.9782 0
M  V30 2034 C 191.76 -3.39899 -2.54468 0
M  V30 2035 O 192.784 -2.89148 -2.08019 0
M  V30 2036 O 191.643 -4.2848 -3.39215 0
M  V30 2037 H 188.737 -0.625739 -0.540721 0
M  V30 2038 H 191.283 -1.64055 -0.434038 0
M  V30 2039 H 190.055 -3.68422 -1.31836 0
M  V30 2040 H 189.678 -2.822 -2.80088 0
M  V30 2041 N 190.675 0.682077 -1.42076 0
M  V30 2042 C 191.622 1.79578 -1.44984 0
M  V30 2043 C 192.592 1.6332 -0.302614 0
M  V30 2044 O 193.777 1.83978 -0.505633 0
M  V30 2045 C 190.917 3.1756 -1.35091 0
M  V30 2046 C 190.03 3.45156 -2.59791 0
M  V30 2047 C 189.165 4.72826 -2.42093 0
M  V30 2048 C 188.204 4.93433 -3.62202 0
M  V30 2049 N 187.341 6.12338 -3.43491 0
M  V30 2050 H 192.181 1.76427 -2.40161 0
M  V30 2051 H 189.718 0.861376 -1.19242 0
M  V30 2052 H 191.676 3.97287 -1.27354 0
M  V30 2053 H 190.306 3.19854 -0.435133 0
M  V30 2054 H 189.358 2.59736 -2.77923 0
M  V30 2055 H 190.67 3.5628 -3.49094 0
M  V30 2056 H 189.824 5.60631 -2.319 0
M  V30 2057 H 188.563 4.63973 -1.50268 0
M  V30 2058 H 187.568 4.04073 -3.72834 0
M  V30 2059 H 188.793 5.04136 -4.54998 0
M  V30 2060 H 186.739 6.04672 -2.54377 0
M  V30 2061 H 186.656 6.2429 -4.26377 0
M  V30 2062 H 187.924 7.02841 -3.37097 0
M  V30 2063 N 192.153 1.28127 0.917671 0
M  V30 2064 C 193.43 1.05761 1.64542 0
M  V30 2065 C 193.81 -0.404344 2.07191 0
M  V30 2066 O 193.158 -1.38963 1.81388 0
M  V30 2067 C 193.368 2.02857 2.83989 0
M  V30 2068 C 194.716 2.32786 3.551 0
M  V30 2069 O 195.74 2.0091 2.94132 0
M  V30 2070 O 194.599 2.87169 4.64969 0
M  V30 2071 H 191.693 0.403916 0.721652 0
M  V30 2072 H 194.239 1.39431 0.967322 0
M  V30 2073 H 193.011 3.01407 2.49538 0
M  V30 2074 H 192.634 1.69809 3.59514 0
M  V30 2075 N 193.631 -1.12557 1.10312 0
M  V30 2076 C 194.594 -2.16434 0.75424 0
M  V30 2077 C 195.594 -1.59278 -0.220685 0
M  V30 2078 O 196.784 -1.742 0.00230591 0
M  V30 2079 C 193.916 -3.40699 0.116987 0
M  V30 2080 H 195.109 -2.48811 1.67431 0
M  V30 2081 H 192.662 -1.27542 0.903475 0
M  V30 2082 H 193.397 -3.13921 -0.813877 0
M  V30 2083 H 193.182 -3.83459 0.818613 0
M  V30 2084 H 194.672 -4.17451 -0.111387 0
M  V30 2085 N 195.109 -0.891671 -1.2995 0
M  V30 2086 C 196.056 -0.361736 -2.27948 0
M  V30 2087 C 197.026 0.551761 -1.56668 0
M  V30 2088 O 198.211 0.478736 -1.84696 0
M  V30 2089 C 195.351 0.411825 -3.42634 0
M  V30 2090 C 194.464 -0.531651 -4.28716 0
M  V30 2091 C 193.599 0.258167 -5.30572 0
M  V30 2092 C 192.638 -0.680349 -6.08307 0
M  V30 2093 N 191.775 0.0745613 -7.0206 0
M  V30 2094 H 196.615 -1.20254 -2.72659 0
M  V30 2095 H 194.152 -0.604352 -1.34112 0
M  V30 2096 H 196.11 0.876304 -4.07893 0
M  V30 2097 H 194.74 1.21715 -2.98974 0
M  V30 2098 H 193.792 -1.11463 -3.63703 0
M  V30 2099 H 195.104 -1.25038 -4.82874 0
M  V30 2100 H 194.258 0.784204 -6.0161 0
M  V30 2101 H 192.997 1.01008 -4.77126 0
M  V30 2102 H 192.002 -1.21796 -5.3614 0
M  V30 2103 H 193.227 -1.43145 -6.63842 0
M  V30 2104 H 191.173 0.808883 -6.50994 0
M  V30 2105 H 191.09 -0.584409 -7.53738 0
M  V30 2106 H 192.358 0.581123 -7.77331 0
M  V30 2107 N 196.587 1.43421 -0.653314 0
M  V30 2108 C 197.52 2.2803 0.0879804 0
M  V30 2109 C 198.498 1.39833 0.82979 0
M  V30 2110 O 199.682 1.69275 0.829341 0
M  V30 2111 C 196.809 3.19247 1.13132 0
M  V30 2112 C 195.855 4.23704 0.487546 0
M  V30 2113 S 196.688 5.30377 -0.738961 0
M  V30 2114 C 197.844 6.25162 0.30384 0
M  V30 2115 H 198.077 2.90554 -0.629739 0
M  V30 2116 H 195.61 1.47934 -0.442156 0
M  V30 2117 H 197.568 3.72346 1.72827 0
M  V30 2118 H 196.229 2.55901 1.82136 0
M  V30 2119 H 195.422 4.87631 1.27407 0
M  V30 2120 H 195.024 3.73983 -0.0352915 0
M  V30 2121 H 197.316 6.67321 1.17 0
M  V30 2122 H 198.259 7.07463 -0.300402 0
M  V30 2123 H 198.667 5.60864 0.63969 0
M  V30 2124 N 198.065 0.39524 1.52563 0
M  V30 2125 C 199.012 -0.437036 2.26624 0
M  V30 2126 C 199.982 -1.05281 1.28472 0
M  V30 2127 O 201.167 -1.07971 1.57311 0
M  V30 2128 C 198.307 -1.55524 3.08069 0
M  V30 2129 C 197.42 -0.961745 4.21158 0
M  V30 2130 C 196.555 -2.05149 4.89987 0
M  V30 2131 C 195.594 -1.4342 5.95061 0
M  V30 2132 N 194.731 -2.46351 6.57462 0
M  V30 2133 H 199.571 0.200976 2.97322 0
M  V30 2134 H 197.108 0.110944 1.46681 0
M  V30 2135 H 199.066 -2.21437 3.53584 0
M  V30 2136 H 197.696 -2.16348 2.3957 0
M  V30 2137 H 196.748 -0.192048 3.79915 0
M  V30 2138 H 198.06 -0.470701 4.96574 0
M  V30 2139 H 197.214 -2.78819 5.38837 0
M  V30 2140 H 195.953 -2.57615 4.14109 0
M  V30 2141 H 194.958 -0.682774 5.45544 0
M  V30 2142 H 196.183 -0.917416 6.72875 0
M  V30 2143 H 194.129 -2.97975 5.8442 0
M  V30 2144 H 194.046 -2.02019 7.28508 0
M  V30 2145 H 195.314 -3.19633 7.10954 0
M  V30 2146 N 199.544 -1.57102 0.125237 0
M  V30 2147 C 200.774 -1.99472 -0.538015 0
M  V30 2148 C 201.182 -1.00395 -1.60366 0
M  V30 2149 O 200.525 0.0103875 -1.83697 0
M  V30 2150 C 200.587 -3.38262 -1.21734 0
M  V30 2151 C 200.251 -4.56021 -0.298897 0
M  V30 2152 C 201.248 -5.17817 0.464943 0
M  V30 2153 C 198.933 -5.01869 -0.208149 0
M  V30 2154 C 200.927 -6.23852 1.3072 0
M  V30 2155 C 198.614 -6.07763 0.637736 0
M  V30 2156 C 199.612 -6.68622 1.39403 0
M  V30 2157 O 199.3 -7.7247 2.22586 0
M  V30 2158 H 199.032 -0.659934 -0.146501 0
M  V30 2159 H 201.586 -2.04321 0.210267 0
M  V30 2160 H 199.816 -3.30185 -2.01282 0
M  V30 2161 H 201.505 -3.6488 -1.77813 0
M  V30 2162 H 202.271 -4.83308 0.404741 0
M  V30 2163 H 198.15 -4.54241 -0.786522 0
M  V30 2164 H 201.694 -6.71284 1.898 0
M  V30 2165 H 197.591 -6.41701 0.699309 0
M  V30 2166 H 198.359 -7.89595 2.15596 0
M  V30 2167 N 201.022 0.148545 -1.56898 0
M  V30 2168 C 201.954 1.20852 -1.9475 0
M  V30 2169 C 202.967 1.39265 -0.843152 0
M  V30 2170 O 204.156 1.38864 -1.12156 0
M  V30 2171 C 201.256 2.57362 -2.20495 0
M  V30 2172 C 200.429 2.59947 -3.51776 0
M  V30 2173 C 199.488 3.77984 -3.6608 0
M  V30 2174 O 198.514 3.62929 -4.38487 0
M  V30 2175 N 199.716 4.95375 -3.02629 0
M  V30 2176 H 202.481 0.886804 -2.86279 0
M  V30 2177 H 200.042 0.338121 -1.5833 0
M  V30 2178 H 202.034 3.34833 -2.27307 0
M  V30 2179 H 200.604 2.81832 -1.35238 0
M  V30 2180 H 199.824 1.68403 -3.56419 0
M  V30 2181 H 201.112 2.58704 -4.38121 0
M  V30 2182 H 200.51 5.10509 -2.43715 0
M  V30 2183 H 199.067 5.70627 -3.15004 0
M  V30 2184 N 202.5 1.5196 0.417844 0
M  V30 2185 C 203.41 1.77554 1.53336 0
M  V30 2186 C 204.426 0.660655 1.6097 0
M  V30 2187 O 205.602 0.945099 1.77848 0
M  V30 2188 C 202.667 1.91291 2.89152 0
M  V30 2189 C 201.728 3.15183 2.91475 0
M  V30 2190 C 200.961 3.28256 4.20813 0
M  V30 2191 O 201.184 2.46798 5.14244 0
M  V30 2192 O 200.118 4.21356 4.29817 0
M  V30 2193 H 203.944 2.7222 1.34647 0
M  V30 2194 H 201.529 1.36698 0.602828 0
M  V30 2195 H 203.411 2.02199 3.69721 0
M  V30 2196 H 202.086 0.998129 3.07927 0
M  V30 2197 H 200.993 3.09739 2.09791 0
M  V30 2198 H 202.326 4.06414 2.77648 0
M  V30 2199 N 203.978 -0.674533 1.42435 0
M  V30 2200 C 205.218 -1.4466 1.44405 0
M  V30 2201 C 205.582 -1.91911 0.0585784 0
M  V30 2202 O 206.783 -2.68759 -0.0469991 0
M  V30 2203 C 205.054 -2.61136 2.44013 0
M  V30 2204 S 206.613 -3.49981 2.64687 0
M  V30 2205 H 203.431 -0.494074 0.511284 0
M  V30 2206 H 206.033 -0.785162 1.7904 0
M  V30 2207 H 204.737 -2.24662 3.43446 0
M  V30 2208 H 204.268 -3.32153 2.10803 0
M  V30 2209 H 206.283 -4.57124 1.93007 0
M  V30 2210 N 205.456 -1.28612 -0.910864 0
M  V30 2211 C 206.404 -1.1265 -2.03501 0
M  V30 2212 C 207.398 -0.0450054 -1.6934 0
M  V30 2213 O 208.604 -0.203988 -1.7884 0
M  V30 2214 H 204.979 -0.347639 -0.666822 0
M  V30 2215 H 206.95 -2.07849 -2.14106 0
M  V30 2216 C 205.699 -0.808143 -3.38178 0
M  V30 2217 H 205.022 -1.63231 -3.6496 0
M  V30 2218 H 206.462 -0.736426 -4.17556 0
M  V30 2219 C 204.921 0.488226 -3.33344 0
M  V30 2220 O 205.451 1.51766 -3.71927 0
M  V30 2221 N 203.657 0.490009 -2.86439 0
M  V30 2222 H 203.204 -0.348161 -2.55236 0
M  V30 2223 H 203.162 1.35741 -2.83587 0
M  V30 2224 N 206.934 1.1197 -1.10907 0
M  V30 2225 C 207.881 2.17846 -0.762345 0
M  V30 2226 C 208.851 1.63995 0.263599 0
M  V30 2227 O 210.036 1.90273 0.141773 0
M  V30 2228 C 207.176 3.44487 -0.205651 0
M  V30 2229 C 206.289 4.12369 -1.28748 0
M  V30 2230 C 205.424 5.26674 -0.691919 0
M  V30 2231 C 204.463 5.86431 -1.75399 0
M  V30 2232 N 203.6 6.92142 -1.17833 0
M  V30 2233 H 208.44 2.46851 -1.6694 0
M  V30 2234 H 205.977 1.21188 -0.833776 0
M  V30 2235 H 207.935 4.16981 0.135037 0
M  V30 2236 H 206.565 3.15884 0.664613 0
M  V30 2237 H 205.617 3.38003 -1.74522 0
M  V30 2238 H 206.929 4.52844 -2.09125 0
M  V30 2239 H 206.083 6.05953 -0.300963 0
M  V30 2240 H 204.822 4.8749 0.143232 0
M  V30 2241 H 203.827 5.05835 -2.15432 0
M  V30 2242 H 205.052 6.27685 -2.59208 0
M  V30 2243 H 202.998 6.54985 -0.364725 0
M  V30 2244 H 202.915 7.31242 -1.91887 0
M  V30 2245 H 204.183 7.75237 -0.81408 0
M  V30 2246 N 208.412 0.89855 1.29475 0
M  V30 2247 C 209.661 0.519863 1.94885 0
M  V30 2248 C 209.974 -0.9383 1.71625 0
M  V30 2249 O 211.18 -1.42445 2.31131 0
M  V30 2250 C 209.636 0.878836 3.49005 0
M  V30 2251 C 209.244 2.35569 3.81066 0
M  V30 2252 C 210.988 0.570004 4.20656 0
M  V30 2253 C 208.895 2.65558 5.28425 0
M  V30 2254 H 207.825 0.190692 0.729488 0
M  V30 2255 H 210.476 1.09539 1.47219 0
M  V30 2256 H 208.858 0.232253 3.95318 0
M  V30 2257 H 210.032 3.04773 3.45616 0
M  V30 2258 H 208.347 2.63343 3.22552 0
M  V30 2259 H 210.944 0.770925 5.29113 0
M  V30 2260 H 211.287 -0.491404 4.1339 0
M  V30 2261 H 211.82 1.17438 3.8007 0
M  V30 2262 H 208.559 3.70493 5.40754 0
M  V30 2263 H 208.079 2.00977 5.65127 0
M  V30 2264 H 209.758 2.51765 5.96006 0
M  V30 2265 N 209.89 -1.43072 0.660911 0
M  V30 2266 C 211.136 -2.0202 0.177708 0
M  V30 2267 C 211.469 -1.52066 -1.20787 0
M  V30 2268 O 210.744 -0.716987 -1.80802 0
M  V30 2269 C 211.027 -3.59561 0.197019 0
M  V30 2270 C 210.88 -4.19727 1.61706 0
M  V30 2271 C 212.199 -4.37664 -0.462396 0
M  V30 2272 H 209.318 -0.734034 0.0660494 0
M  V30 2273 H 211.96 -1.70272 0.843058 0
M  V30 2274 H 210.11 -3.86739 -0.369527 0
M  V30 2275 H 211.782 -4.03553 2.23479 0
M  V30 2276 H 210.025 -3.76084 2.16201 0
M  V30 2277 H 210.696 -5.28834 1.58237 0
M  V30 2278 H 213.172 -4.16095 0.0197215 0
M  V30 2279 H 212.048 -5.47305 -0.418188 0
M  V30 2280 H 212.309 -4.14493 -1.53778 0
M  V30 2281 N 211.368 -0.403325 -1.52352 0
M  V30 2282 C 212.315 0.425011 -2.26853 0
M  V30 2283 C 213.285 1.04598 -1.29029 0
M  V30 2284 O 214.47 1.07135 -1.57882 0
M  V30 2285 C 211.61 1.53888 -3.08889 0
M  V30 2286 C 210.723 0.939396 -4.21663 0
M  V30 2287 C 209.858 2.02547 -4.91068 0
M  V30 2288 C 208.897 1.40263 -5.95813 0
M  V30 2289 N 208.034 2.4286 -6.58759 0
M  V30 2290 H 212.874 -0.21674 -2.97211 0
M  V30 2291 H 210.411 -0.118722 -1.4662 0
M  V30 2292 H 212.369 2.19558 -3.54753 0
M  V30 2293 H 210.999 2.15074 -2.40714 0
M  V30 2294 H 210.051 0.171898 -3.80011 0
M  V30 2295 H 211.363 0.44436 -4.96817 0
M  V30 2296 H 210.517 2.75958 -5.40308 0
M  V30 2297 H 209.256 2.55415 -4.15469 0
M  V30 2298 H 208.261 0.653833 -5.45898 0
M  V30 2299 H 209.486 0.881719 -6.73352 0
M  V30 2300 H 207.432 2.94871 -5.85992 0
M  V30 2301 H 207.349 1.98152 -7.2957 0
M  V30 2302 H 208.617 3.15858 -7.12639 0
M  V30 2303 N 212.846 1.57033 -0.133567 0
M  V30 2304 C 213.778 2.13176 0.841944 0
M  V30 2305 C 214.791 1.07794 1.22001 0
M  V30 2306 O 215.98 1.35117 1.16643 0
M  V30 2307 C 213.08 2.62847 2.13926 0
M  V30 2308 C 212.253 3.92486 1.93064 0
M  V30 2309 C 211.312 4.27605 3.0666 0
M  V30 2310 O 210.338 4.96168 2.78937 0
M  V30 2311 N 211.54 3.861 4.33483 0
M  V30 2312 H 214.305 2.97503 0.362192 0
M  V30 2313 H 211.866 1.61821 0.05042 0
M  V30 2314 H 213.858 2.83363 2.88942 0
M  V30 2315 H 212.428 1.83319 2.53205 0
M  V30 2316 H 211.648 3.80732 1.02159 0
M  V30 2317 H 212.936 4.77225 1.76447 0
M  V30 2318 H 212.334 3.30828 4.58878 0
M  V30 2319 H 210.891 4.11694 5.05323 0
M  V30 2320 N 214.325 -0.140222 1.56975 0
M  V30 2321 C 215.272 -1.17292 1.98774 0
M  V30 2322 C 216.242 -1.4232 0.856408 0
M  V30 2323 O 217.427 -1.54541 1.119 0
M  V30 2324 C 214.567 -2.49973 2.37923 0
M  V30 2325 C 213.68 -2.32062 3.64378 0
M  V30 2326 C 212.815 -3.57825 3.926 0
M  V30 2327 C 211.854 -3.3498 5.12303 0
M  V30 2328 N 210.991 -4.52891 5.36502 0
M  V30 2329 H 215.831 -0.809472 2.86795 0
M  V30 2330 H 213.368 -0.388237 1.41884 0
M  V30 2331 H 215.326 -3.27346 2.58652 0
M  V30 2332 H 213.956 -2.84252 1.52972 0
M  V30 2333 H 213.008 -1.45711 3.51387 0
M  V30 2334 H 214.32 -2.11145 4.51906 0
M  V30 2335 H 213.474 -4.43624 4.13863 0
M  V30 2336 H 212.213 -3.81753 3.03506 0
M  V30 2337 H 211.218 -2.4757 4.90906 0
M  V30 2338 H 212.443 -3.12444 6.02956 0
M  V30 2339 H 210.389 -4.76979 4.50363 0
M  V30 2340 H 210.306 -4.35001 6.18312 0
M  V30 2341 H 211.574 -5.39884 5.62268 0
M  V30 2342 N 215.803 -1.52179 -0.40978 0
M  V30 2343 C 216.766 -1.74853 -1.48186 0
M  V30 2344 C 217.766 -0.618417 -1.48433 0
M  V30 2345 O 218.956 -0.886286 -1.49969 0
M  V30 2346 C 216.088 -1.8303 -2.87598 0
M  V30 2347 H 217.281 -2.70559 -1.29374 0
M  V30 2348 H 214.834 -1.42586 -0.640233 0
M  V30 2349 H 215.569 -0.89236 -3.11781 0
M  V30 2350 H 215.354 -2.65187 -2.88822 0
M  V30 2351 H 216.844 -2.02316 -3.65319 0
M  V30 2352 N 217.281 0.66697 -1.42791 0
M  V30 2353 C 218.528 1.42699 -1.43678 0
M  V30 2354 C 218.856 1.94419 -0.0560425 0
M  V30 2355 O 218.111 1.7182 0.936831 0
M  V30 2356 C 218.41 2.6349 -2.4147 0
M  V30 2357 C 218.076 2.30267 -3.8767 0
M  V30 2358 C 216.738 2.20918 -4.27491 0
M  V30 2359 C 219.09 2.03435 -4.79858 0
M  V30 2360 C 216.418 1.82873 -5.57471 0
M  V30 2361 C 218.77 1.66892 -6.10188 0
M  V30 2362 C 217.434 1.56058 -6.49001 0
M  V30 2363 H 216.704 0.522171 -0.525755 0
M  V30 2364 H 219.351 0.759785 -1.75783 0
M  V30 2365 H 217.656 3.35279 -2.0272 0
M  V30 2366 H 219.353 3.21684 -2.39417 0
M  V30 2367 H 215.943 2.38449 -3.56146 0
M  V30 2368 H 220.127 2.09586 -4.49875 0
M  V30 2369 H 215.383 1.7306 -5.86396 0
M  V30 2370 H 219.557 1.45157 -6.81104 0
M  V30 2371 H 217.184 1.26348 -7.49627 0
M  V30 2372 N 218.759 1.29093 0.90403 0
M  V30 2373 C 219.669 1.15727 2.0407 0
M  V30 2374 C 220.685 0.0815308 1.73809 0
M  V30 2375 O 221.861 0.292749 1.99261 0
M  V30 2376 C 218.926 0.830424 3.36608 0
M  V30 2377 C 217.987 1.98955 3.80415 0
M  V30 2378 C 217.22 1.6782 5.06628 0
M  V30 2379 O 217.443 0.597105 5.67266 0
M  V30 2380 O 216.377 2.52486 5.46383 0
M  V30 2381 H 220.203 2.11171 2.18267 0
M  V30 2382 H 217.788 1.08504 1.027 0
M  V30 2383 H 219.67 0.662521 4.16159 0
M  V30 2384 H 218.345 -0.0942678 3.23563 0
M  V30 2385 H 217.252 2.21267 3.01648 0
M  V30 2386 H 218.585 2.89529 3.98037 0
M  V30 2387 N 220.237 -1.11381 1.11499 0
M  V30 2388 C 221.653 -1.35143 0.849031 0
M  V30 2389 C 221.853 -1.94515 -0.525938 0
M  V30 2390 O 220.909 -2.1785 -1.27662 0
M  V30 2391 C 222.222 -2.28249 1.95762 0
M  V30 2392 C 223.77 -2.41812 1.98736 0
M  V30 2393 C 224.245 -3.3824 3.088 0
M  V30 2394 N 225.736 -3.45803 3.08179 0
M  V30 2395 C 226.471 -4.20358 3.89982 0
M  V30 2396 N 225.967 -4.97884 4.8175 0
M  V30 2397 N 227.76 -4.15877 3.78157 0
M  V30 2398 H 219.911 -0.712062 2.00109 0
M  V30 2399 H 222.174 -0.376025 0.870235 0
M  V30 2400 H 221.88 -1.91817 2.94787 0
M  V30 2401 H 221.754 -3.28473 1.85433 0
M  V30 2402 H 224.141 -2.77518 1.00338 0
M  V30 2403 H 224.222 -1.41437 2.13141 0
M  V30 2404 H 223.866 -3.03261 4.07425 0
M  V30 2405 H 223.796 -4.38471 2.91635 0
M  V30 2406 H 226.287 -2.90506 2.41691 0
M  V30 2407 H 226.6 -5.52142 5.40702 0
M  V30 2408 H 224.945 -4.97043 4.85771 0
M  V30 2409 H 228.136 -3.544 3.05808 0
M  V30 2410 H 228.309 -4.73723 4.42143 0
M  V30 2411 N 221.715 -0.905404 -1.28997 0
M  V30 2412 C 222.678 -0.392253 -2.25819 0
M  V30 2413 C 223.678 0.476753 -1.5357 0
M  V30 2414 O 224.868 0.280994 -1.71919 0
M  V30 2415 C 222 0.438588 -3.38067 0
M  V30 2416 H 223.193 -1.24743 -2.72725 0
M  V30 2417 H 220.746 -0.684051 -1.40536 0
M  V30 2418 H 221.481 1.31352 -2.96508 0
M  V30 2419 H 221.266 -0.184167 -3.91667 0
M  V30 2420 H 222.756 0.78873 -4.10084 0
M  V30 2421 N 223.193 1.4272 -0.668489 0
M  V30 2422 C 224.442 2.00846 -0.185389 0
M  V30 2423 C 224.755 1.53442 1.21305 0
M  V30 2424 O 225.961 2.03944 1.79218 0
M  V30 2425 C 224.417 3.58805 -0.280591 0
M  V30 2426 C 224.025 4.15198 -1.68268 0
M  V30 2427 C 225.769 4.24255 0.14412 0
M  V30 2428 C 223.676 5.655 -1.73099 0
M  V30 2429 H 222.606 0.751145 -0.0655475 0
M  V30 2430 H 225.257 1.63516 -0.832752 0
M  V30 2431 H 223.639 3.93608 0.434553 0
M  V30 2432 H 224.813 3.91866 -2.42441 0
M  V30 2433 H 223.128 3.62176 -2.05469 0
M  V30 2434 H 225.725 5.34547 0.128086 0
M  V30 2435 H 226.068 3.99277 1.17827 0
M  V30 2436 H 226.601 3.94389 -0.519798 0
M  V30 2437 H 223.34 5.95268 -2.74475 0
M  V30 2438 H 222.86 5.90842 -1.03274 0
M  V30 2439 H 224.539 6.29808 -1.48158 0
M  V30 2440 N 224.671 0.411399 1.52136 0
M  V30 2441 C 225.634 -0.401089 2.25663 0
M  V30 2442 C 226.634 -0.971732 1.28117 0
M  V30 2443 O 227.824 -0.850254 1.52041 0
M  V30 2444 C 224.956 -1.56483 3.02863 0
M  V30 2445 H 226.149 0.24295 2.98914 0
M  V30 2446 H 223.702 0.163968 1.55438 0
M  V30 2447 H 224.437 -2.24567 2.33967 0
M  V30 2448 H 224.222 -1.16211 3.74483 0
M  V30 2449 H 225.712 -2.13951 3.58629 0
M  V30 2450 N 226.149 -1.5696 0.141893 0
M  V30 2451 C 227.397 -1.95573 -0.509484 0
M  V30 2452 C 227.718 -1.02746 -1.65736 0
M  V30 2453 O 226.988 -0.0880311 -1.95702 0
M  V30 2454 H 225.568 -0.722115 -0.191205 0
M  V30 2455 H 228.23 -1.93697 0.216196 0
M  V30 2456 H 227.326 -2.99171 -0.889 0
M  V30 2457 N 227.627 0.131896 -1.57047 0
M  V30 2458 C 228.904 0.871495 -1.75112 0
M  V30 2459 C 229.284 1.9866 -0.713949 0
M  V30 2460 O 228.632 2.26965 0.264447 0
M  V30 2461 C 228.842 1.40007 -3.19686 0
M  V30 2462 C 230.19 1.85752 -3.81813 0
M  V30 2463 O 231.214 1.49715 -3.23209 0
M  V30 2464 O 230.073 2.5226 -4.84796 0
M  V30 2465 H 227.167 0.412919 -0.716538 0
M  V30 2466 H 229.713 0.116641 -1.69299 0
M  V30 2467 H 228.485 0.599404 -3.86682 0
M  V30 2468 H 228.108 2.218 -3.29986 0
M  V30 2469 N 229.106 1.52395 0.401703 0
M  V30 2470 C 230.016 1.7917 1.51444 0
M  V30 2471 C 231.032 0.677691 1.6026 0
M  V30 2472 O 232.208 0.963909 1.76835 0
M  V30 2473 C 229.273 1.94347 2.87107 0
M  V30 2474 C 228.334 3.18257 2.88116 0
M  V30 2475 C 227.567 3.32701 4.17308 0
M  V30 2476 O 227.79 2.52238 5.11598 0
M  V30 2477 O 226.724 4.25891 4.25324 0
M  V30 2478 H 230.55 2.73633 1.31752 0
M  V30 2479 H 228.135 1.3733 0.588296 0
M  V30 2480 H 230.017 2.06109 3.67555 0
M  V30 2481 H 228.692 1.03073 3.06851 0
M  V30 2482 H 227.599 3.11947 2.06494 0
M  V30 2483 H 228.932 4.09336 2.73322 0
M  V30 2484 N 230.584 -0.659388 1.43143 0
M  V30 2485 C 231.534 -1.7655 1.44271 0
M  V30 2486 C 232.518 -1.57847 0.311961 0
M  V30 2487 O 233.71 -1.68064 0.555306 0
M  V30 2488 C 230.839 -3.15104 1.36251 0
M  V30 2489 C 229.925 -3.39377 2.54331 0
M  V30 2490 N 230.316 -3.34153 3.79704 0
M  V30 2491 C 228.614 -3.70072 2.48922 0
M  V30 2492 C 229.315 -3.58337 4.58225 0
M  V30 2493 N 228.291 -3.79851 3.88863 0
M  V30 2494 H 232.093 -1.70928 2.39083 0
M  V30 2495 H 229.607 -0.860823 1.37708 0
M  V30 2496 H 231.604 -3.94389 1.35141 0
M  V30 2497 H 230.264 -3.21913 0.424531 0
M  V30 2498 H 231.275 -3.13704 4.1208 0
M  V30 2499 H 227.952 -3.84034 1.63781 0
M  V30 2500 H 229.342 -3.60129 5.67236 0
M  V30 2501 N 232.062 -1.29571 -0.897171 0
M  V30 2502 C 233.009 -1.14916 -2.00158 0
M  V30 2503 C 233.979 -0.0418149 -1.66047 0
M  V30 2504 O 235.164 -0.209793 -1.89643 0
M  V30 2505 C 232.304 -0.834307 -3.34863 0
M  V30 2506 C 231.417 -2.02234 -3.8174 0
M  V30 2507 C 230.552 -1.64664 -5.05034 0
M  V30 2508 C 229.591 -2.80033 -5.44286 0
M  V30 2509 N 228.728 -2.42843 -6.58765 0
M  V30 2510 H 233.568 -2.09403 -2.12025 0
M  V30 2511 H 231.105 -1.042 -1.0383 0
M  V30 2512 H 233.063 -0.632436 -4.12379 0
M  V30 2513 H 231.693 0.0736656 -3.22716 0
M  V30 2514 H 230.745 -2.33583 -3.00238 0
M  V30 2515 H 232.057 -2.88673 -4.06779 0
M  V30 2516 H 231.211 -1.4078 -5.9014 0
M  V30 2517 H 229.95 -0.753766 -4.8184 0
M  V30 2518 H 228.955 -3.04596 -4.57713 0
M  V30 2519 H 230.18 -3.69989 -5.6946 0
M  V30 2520 H 228.126 -1.56046 -6.3717 0
M  V30 2521 H 228.043 -3.22815 -6.83613 0
M  V30 2522 H 229.311 -2.22285 -7.47134 0
M  V30 2523 N 233.54 1.10788 -1.12088 0
M  V30 2524 C 234.956 1.34691 -0.856186 0
M  V30 2525 C 235.156 1.94791 0.515615 0
M  V30 2526 O 234.212 2.18524 1.26505 0
M  V30 2527 C 235.525 2.27208 -1.9697 0
M  V30 2528 C 237.073 2.40755 -2.00016 0
M  V30 2529 C 237.548 3.36598 -3.1059 0
M  V30 2530 N 239.039 3.44164 -3.10008 0
M  V30 2531 C 239.774 4.18284 -3.92206 0
M  V30 2532 N 239.27 4.95322 -4.84384 0
M  V30 2533 N 241.063 4.13865 -3.80357 0
M  V30 2534 H 233.214 0.70144 -2.00483 0
M  V30 2535 H 235.477 0.371405 -0.872217 0
M  V30 2536 H 235.183 1.90251 -2.958 0
M  V30 2537 H 235.057 3.27485 -1.87172 0
M  V30 2538 H 237.444 2.76982 -1.01808 0
M  V30 2539 H 237.525 1.40305 -2.13888 0
M  V30 2540 H 237.169 3.01096 -4.09028 0
M  V30 2541 H 237.099 4.36918 -2.93956 0
M  V30 2542 H 239.59 2.8922 -2.43228 0
M  V30 2543 H 239.903 5.49267 -5.43623 0
M  V30 2544 H 238.248 4.94459 -4.884 0
M  V30 2545 H 241.439 3.52773 -3.07683 0
M  V30 2546 H 241.612 4.71372 -4.44649 0
M  V30 2547 N 235.018 0.912232 1.28515 0
M  V30 2548 C 236.243 0.559774 1.99703 0
M  V30 2549 C 236.668 -0.851393 1.67729 0
M  V30 2550 O 236.026 -1.56875 0.908834 0
M  V30 2551 C 236.074 0.773874 3.52198 0
M  V30 2552 O 235.178 -0.167842 4.12058 0
M  V30 2553 H 234.519 0.21723 0.627461 0
M  V30 2554 H 237.049 1.22725 1.63706 0
M  V30 2555 H 237.059 0.683386 4.02236 0
M  V30 2556 H 235.734 1.80261 3.74805 0
M  V30 2557 H 234.311 -0.0287509 3.72889 0
M  V30 2558 N 236.496 -1.42363 0.676048 0
M  V30 2559 C 237.742 -2.0182 0.199125 0
M  V30 2560 C 238.075 -1.53339 -1.19168 0
M  V30 2561 O 237.35 -0.736124 -1.80032 0
M  V30 2562 C 237.633 -3.59331 0.235144 0
M  V30 2563 C 237.486 -4.17989 1.66149 0
M  V30 2564 C 238.805 -4.3813 -0.41595 0
M  V30 2565 H 235.924 -0.733293 0.0738311 0
M  V30 2566 H 238.566 -1.69368 0.86107 0
M  V30 2567 H 236.716 -3.87109 -0.328487 0
M  V30 2568 H 238.388 -4.0116 2.27747 0
M  V30 2569 H 236.631 -3.7377 2.20178 0
M  V30 2570 H 237.302 -5.27126 1.63837 0
M  V30 2571 H 239.778 -4.16051 0.0638529 0
M  V30 2572 H 238.654 -5.47717 -0.360115 0
M  V30 2573 H 238.915 -4.16101 -1.49373 0
M  V30 2574 N 237.974 -0.419461 -1.51915 0
M  V30 2575 C 239.22 0.153166 -2.02221 0
M  V30 2576 C 239.553 1.43907 -1.30401 0
M  V30 2577 O 238.828 1.90055 -0.413438 0
M  V30 2578 C 239.111 0.390291 -3.57979 0
M  V30 2579 C 238.964 -0.913014 -4.40436 0
M  V30 2580 C 240.283 1.16794 -4.2432 0
M  V30 2581 H 237.402 0.0541924 -0.735005 0
M  V30 2582 H 240.044 -0.554955 -1.81715 0
M  V30 2583 H 238.194 0.993491 -3.75582 0
M  V30 2584 H 239.866 -1.54882 -4.34522 0
M  V30 2585 H 238.109 -1.52168 -4.06236 0
M  V30 2586 H 238.78 -0.701361 -5.47526 0
M  V30 2587 H 241.256 0.657161 -4.10878 0
M  V30 2588 H 240.132 1.3026 -5.3322 0
M  V30 2589 H 240.393 2.19132 -3.83971 0
M  V30 2590 N 239.452 1.56882 -0.150215 0
M  V30 2591 C 240.729 1.87844 0.545327 0
M  V30 2592 C 241.109 1.0567 1.82749 0
M  V30 2593 O 240.457 0.144442 2.28043 0
M  V30 2594 C 240.667 3.39526 0.80767 0
M  V30 2595 C 242.015 4.08814 1.14703 0
M  V30 2596 O 243.039 3.44723 0.896917 0
M  V30 2597 O 241.898 5.22004 1.61784 0
M  V30 2598 H 238.992 0.778677 0.278553 0
M  V30 2599 H 241.538 1.68666 -0.187068 0
M  V30 2600 H 240.31 3.91173 -0.0996096 0
M  V30 2601 H 239.933 3.64243 1.59413 0
M  V30 2602 N 240.93 -0.123565 1.57115 0
M  V30 2603 C 242.155 -0.850398 1.89164 0
M  V30 2604 C 242.58 -1.7286 0.741688 0
M  V30 2605 O 241.938 -1.78665 -0.307958 0
M  V30 2606 C 241.986 -1.66353 3.19936 0
M  V30 2607 O 241.09 -2.77004 3.0552 0
M  V30 2608 H 240.431 -0.235454 0.620852 0
M  V30 2609 H 242.961 -0.107335 2.04318 0
M  V30 2610 H 242.971 -2.05372 3.52543 0
M  V30 2611 H 241.646 -1.01881 4.03228 0
M  V30 2612 H 240.223 -2.41221 2.84371 0
M  V30 2613 N 242.408 -1.52605 -0.393616 0
M  V30 2614 C 243.338 -1.80022 -1.48709 0
M  V30 2615 C 244.319 -0.651995 -1.57108 0
M  V30 2616 O 245.504 -0.89913 -1.72132 0
M  V30 2617 C 242.634 -1.96492 -2.86371 0
M  V30 2618 C 241.588 -3.12161 -2.92813 0
M  V30 2619 C 240.914 -3.13877 -4.3288 0
M  V30 2620 C 242.214 -4.51322 -2.6288 0
M  V30 2621 H 243.908 -2.71589 -1.26015 0
M  V30 2622 H 241.454 -1.30684 -0.604778 0
M  V30 2623 H 243.407 -2.14255 -3.62867 0
M  V30 2624 H 242.131 -1.01611 -3.10391 0
M  V30 2625 H 240.79 -2.94173 -2.18764 0
M  V30 2626 H 240.438 -2.16687 -4.53933 0
M  V30 2627 H 240.138 -3.91576 -4.38112 0
M  V30 2628 H 241.662 -3.33789 -5.1129 0
M  V30 2629 H 243.076 -4.69435 -3.29096 0
M  V30 2630 H 241.473 -5.31053 -2.79468 0
M  V30 2631 H 242.543 -4.58353 -1.58242 0
M  V30 2632 N 243.887 0.651787 -1.4349 0
M  V30 2633 C 245.164 1.40909 -1.35661 0
M  V30 2634 C 245.544 2.11099 -0.00511733 0
M  V30 2635 O 244.892 2.04892 1.0115 0
M  V30 2636 C 245.102 2.3926 -2.54078 0
M  V30 2637 C 246.45 3.03217 -2.97228 0
M  V30 2638 O 247.474 2.49588 -2.54135 0
M  V30 2639 O 246.333 4.00455 -3.71885 0
M  V30 2640 H 243.427 0.629625 -0.536191 0
M  V30 2641 H 245.973 0.678575 -1.55542 0
M  V30 2642 H 244.745 1.86352 -3.44076 0
M  V30 2643 H 244.368 3.1976 -2.36303 0
M  V30 2644 N 245.365 1.30045 0.890287 0
M  V30 2645 C 246.614 1.17929 1.63633 0
M  V30 2646 C 246.927 -0.266204 1.9378 0
M  V30 2647 O 248.133 -0.508804 2.6669 0
M  V30 2648 C 246.589 2.06317 2.94892 0
M  V30 2649 C 246.197 3.55745 2.72305 0
M  V30 2650 C 247.941 2.0295 3.72843 0
M  V30 2651 C 245.848 4.36205 3.99348 0
M  V30 2652 H 244.778 0.437782 0.613892 0
M  V30 2653 H 247.429 1.54754 0.986075 0
M  V30 2654 H 245.811 1.6237 3.61182 0
M  V30 2655 H 246.985 4.07805 2.1455 0
M  V30 2656 H 245.3 3.6088 2.07737 0
M  V30 2657 H 247.897 2.60319 4.67053 0
M  V30 2658 H 248.24 1.0117 4.0382 0
M  V30 2659 H 248.773 2.4499 3.13408 0
M  V30 2660 H 245.512 5.38659 3.73533 0
M  V30 2661 H 245.032 3.8891 4.56628 0
M  V30 2662 H 246.711 4.47362 4.67415 0
M  V30 2663 N 246.843 -1.10192 1.12674 0
M  V30 2664 C 247.753 -2.20172 0.810026 0
M  V30 2665 C 248.769 -1.72821 -0.202188 0
M  V30 2666 O 249.945 -2.01369 -0.0351691 0
M  V30 2667 C 247.01 -3.45631 0.272007 0
M  V30 2668 C 246.071 -4.07704 1.34447 0
M  V30 2669 C 245.304 -5.27175 0.832029 0
M  V30 2670 O 245.527 -5.69425 -0.333284 0
M  V30 2671 O 244.461 -5.80168 1.60277 0
M  V30 2672 H 248.287 -2.49701 1.72867 0
M  V30 2673 H 245.872 -1.18977 0.903597 0
M  V30 2674 H 247.754 -4.21394 -0.0230219 0
M  V30 2675 H 246.429 -3.17723 -0.619164 0
M  V30 2676 H 245.336 -3.33614 1.6927 0
M  V30 2677 H 246.669 -4.3982 2.2095 0
M  V30 2678 N 248.321 -0.919034 -1.28029 0
M  V30 2679 C 249.546 -0.570357 -1.99403 0
M  V30 2680 C 249.971 0.842486 -1.68178 0
M  V30 2681 O 249.329 1.56391 -0.917141 0
M  V30 2682 C 249.377 -0.792541 -3.51783 0
M  V30 2683 O 248.481 0.145988 -4.12142 0
M  V30 2684 H 247.822 -0.220555 -0.6263 0
M  V30 2685 H 250.352 -1.23592 -1.63053 0
M  V30 2686 H 250.362 -0.704708 -4.01868 0
M  V30 2687 H 249.037 -1.82247 -3.73844 0
M  V30 2688 H 247.614 0.00897528 -3.72899 0
M  V30 2689 N 249.799 1.42003 -0.683588 0
M  V30 2690 C 250.732 2.28166 0.039592 0
M  V30 2691 C 251.71 1.41562 0.799942 0
M  V30 2692 O 252.894 1.70997 0.793248 0
M  V30 2693 C 250.021 3.21575 1.06335 0
M  V30 2694 C 249.067 4.24643 0.397562 0
M  V30 2695 S 249.9 5.2869 -0.851296 0
M  V30 2696 C 251.056 6.25666 0.171166 0
M  V30 2697 H 251.289 2.89153 -0.691229 0
M  V30 2698 H 248.822 1.46962 -0.473435 0
M  V30 2699 H 250.78 3.75928 1.6489 0
M  V30 2700 H 249.441 2.59707 1.76667 0
M  V30 2701 H 248.634 4.90223 1.17035 0
M  V30 2702 H 248.236 3.73824 -0.114611 0
M  V30 2703 H 250.528 6.69653 1.02819 0
M  V30 2704 H 251.471 7.06666 -0.450397 0
M  V30 2705 H 251.879 5.62095 0.520578 0
M  V30 2706 N 251.277 0.427512 1.51691 0
M  V30 2707 C 252.505 -0.141191 2.06418 0
M  V30 2708 C 252.92 -1.37303 1.29589 0
M  V30 2709 O 252.277 -1.79059 0.352732 0
M  V30 2710 C 252.328 -0.473266 3.58389 0
M  V30 2711 O 252.049 0.709673 4.32314 0
M  V30 2712 C 253.55 -1.09371 4.29596 0
M  V30 2713 H 250.77 -0.0122747 0.670888 0
M  V30 2714 H 253.314 0.603764 1.95384 0
M  V30 2715 H 251.469 -1.16812 3.69369 0
M  V30 2716 H 251.883 0.42807 5.2275 0
M  V30 2717 H 253.357 -1.27613 5.37046 0
M  V30 2718 H 253.834 -2.072 3.87253 0
M  V30 2719 H 254.44 -0.43853 4.23033 0
M  V30 2720 N 252.755 -1.56801 0.158532 0
M  V30 2721 C 254.004 -1.95665 -0.489702 0
M  V30 2722 C 254.317 -1.04654 -1.65248 0
M  V30 2723 O 255.523 -1.33146 -2.3661 0
M  V30 2724 C 253.979 -3.47874 -0.922582 0
M  V30 2725 C 253.587 -4.47489 0.213893 0
M  V30 2726 C 255.331 -3.95583 -1.53996 0
M  V30 2727 C 253.238 -5.90921 -0.237903 0
M  V30 2728 H 252.168 -0.730516 -0.186716 0
M  V30 2729 H 254.819 -1.81861 0.244722 0
M  V30 2730 H 253.201 -3.57051 -1.71261 0
M  V30 2731 H 254.375 -4.50017 0.991036 0
M  V30 2732 H 252.69 -4.09764 0.740407 0
M  V30 2733 H 255.287 -5.0019 -1.8898 0
M  V30 2734 H 255.63 -3.37789 -2.43319 0
M  V30 2735 H 256.163 -3.8937 -0.814611 0
M  V30 2736 H 252.902 -6.52559 0.620236 0
M  V30 2737 H 252.422 -5.91729 -0.980676 0
M  V30 2738 H 254.101 -6.43352 -0.686067 0
M  V30 2739 N 254.233 0.115231 -1.57178 0
M  V30 2740 C 255.143 1.15994 -2.03918 0
M  V30 2741 C 256.159 1.45103 -0.960268 0
M  V30 2742 O 257.335 1.56144 -1.27204 0
M  V30 2743 C 254.4 2.46568 -2.43732 0
M  V30 2744 C 253.461 2.24822 -3.65723 0
M  V30 2745 C 252.694 3.4917 -4.03629 0
M  V30 2746 O 252.917 4.56623 -3.41835 0
M  V30 2747 O 251.851 3.39949 -4.96708 0
M  V30 2748 H 255.677 0.793019 -2.93164 0
M  V30 2749 H 253.262 0.3263 -1.45793 0
M  V30 2750 H 255.144 3.23492 -2.70057 0
M  V30 2751 H 253.819 2.82726 -1.57631 0
M  V30 2752 H 252.726 1.45744 -3.44542 0
M  V30 2753 H 254.059 1.93566 -4.52541 0
M  V30 2754 N 255.711 1.52812 0.385517 0
M  V30 2755 C 256.988 1.5861 1.14465 0
M  V30 2756 C 257.368 0.381402 2.07626 0
M  V30 2757 O 256.716 -0.629999 2.19643 0
M  V30 2758 C 256.926 2.92664 1.90128 0
M  V30 2759 C 258.274 3.46526 2.45367 0
M  V30 2760 O 259.298 2.94562 2.0028 0
M  V30 2761 O 258.157 4.37323 3.27736 0
M  V30 2762 H 255.251 0.639855 0.523941 0
M  V30 2763 H 257.797 1.65149 0.390389 0
M  V30 2764 H 256.569 3.71788 1.22022 0
M  V30 2765 H 256.192 2.89527 2.72507 0
M  V30 2766 N 257.189 -0.644168 1.43834 0
M  V30 2767 C 258.099 -1.78563 1.52159 0
M  V30 2768 C 259.115 -1.69147 0.408069 0
M  V30 2769 O 260.291 -1.90156 0.663524 0
M  V30 2770 C 257.356 -3.14888 1.45073 0
M  V30 2771 C 256.417 -3.36034 2.6717 0
M  V30 2772 C 255.65 -4.65855 2.60413 0
M  V30 2773 O 255.873 -5.45805 1.65689 0
M  V30 2774 O 254.807 -4.88918 3.5106 0
M  V30 2775 H 258.633 -1.74494 2.48567 0
M  V30 2776 H 256.218 -0.80378 1.25935 0
M  V30 2777 H 258.1 -3.96179 1.43597 0
M  V30 2778 H 256.775 -3.19528 0.518037 0
M  V30 2779 H 255.682 -2.54472 2.74217 0
M  V30 2780 H 257.015 -3.36247 3.59442 0
M  V30 2781 N 258.668 -1.30515 -0.883378 0
M  V30 2782 C 259.898 -1.22182 -1.66599 0
M  V30 2783 C 260.306 0.217507 -1.87946 0
M  V30 2784 O 259.649 1.1554 -1.42815 0
M  V30 2785 C 259.711 -1.88146 -3.06335 0
M  V30 2786 C 259.375 -3.37476 -3.08154 0
M  V30 2787 C 260.372 -4.33443 -2.87094 0
M  V30 2788 C 258.057 -3.7895 -3.29701 0
M  V30 2789 C 260.051 -5.68858 -2.8754 0
M  V30 2790 C 257.738 -5.14482 -3.29776 0
M  V30 2791 C 258.736 -6.09246 -3.0872 0
M  V30 2792 O 258.424 -7.42302 -3.08615 0
M  V30 2793 H 258.156 -0.423898 -0.52658 0
M  V30 2794 H 260.71 -1.72703 -1.11188 0
M  V30 2795 H 258.94 -1.32157 -3.63416 0
M  V30 2796 H 260.629 -1.7391 -3.66756 0
M  V30 2797 H 261.395 -4.02733 -2.70243 0
M  V30 2798 H 257.274 -3.05631 -3.45124 0
M  V30 2799 H 260.818 -6.428 -2.71024 0
M  V30 2800 H 256.715 -5.44832 -3.46163 0
M  V30 2801 H 257.483 -7.5131 -3.24769 0
M  V30 2802 N 260.146 1.09593 -1.13257 0
M  V30 2803 C 261.371 1.8604 -0.916732 0
M  V30 2804 C 261.796 1.80504 0.529146 0
M  V30 2805 O 261.154 1.18127 1.37534 0
M  V30 2806 C 261.202 3.32017 -1.40703 0
M  V30 2807 O 260.306 4.08141 -0.591153 0
M  V30 2808 H 259.647 0.576943 -0.328683 0
M  V30 2809 H 262.177 1.38405 -1.50682 0
M  V30 2810 H 262.187 3.82865 -1.4099 0
M  V30 2811 H 260.862 3.35361 -2.45979 0
M  V30 2812 H 259.439 3.67084 -0.656005 0
M  V30 2813 N 261.624 0.925811 1.2754 0
M  V30 2814 C 262.872 0.564138 1.94067 0
M  V30 2815 C 263.193 -0.897188 1.73134 0
M  V30 2816 O 262.463 -1.63573 1.07799 0
M  V30 2817 H 261.043 0.205645 0.718136 0
M  V30 2818 H 263.705 1.1778 1.55287 0
M  V30 2819 H 262.801 0.76881 3.02483 0
M  V30 2820 N 263.102 -1.41638 0.69111 0
M  V30 2821 C 264.513 -1.84346 0.295517 0
M  V30 2822 C 264.864 -1.57833 -1.16547 0
M  V30 2823 O 263.989 -1.04648 -1.89414 0
M  V30 2824 C 264.584 -3.34636 0.529575 0
M  V30 2825 C 263.143 -3.7593 0.187944 0
M  V30 2826 C 262.29 -2.65082 0.814052 0
M  V30 2827 H 265.241 -1.31253 0.892092 0
M  V30 2828 H 265.262 -3.79903 -0.213148 0
M  V30 2829 H 264.774 -3.53901 1.59297 0
M  V30 2830 H 262.875 -3.62268 -0.871367 0
M  V30 2831 H 262.988 -4.74808 0.63985 0
M  V30 2832 H 261.352 -2.53528 0.244017 0
M  V30 2833 H 262.135 -2.87167 1.88123 0
M  V30 2834 N 264.58 -0.43555 -1.51462 0
M  V30 2835 C 265.527 0.376797 -2.27703 0
M  V30 2836 C 266.497 1.01838 -1.31219 0
M  V30 2837 O 267.682 1.03762 -1.60119 0
M  V30 2838 C 264.822 1.47301 -3.12084 0
M  V30 2839 C 263.935 0.849744 -4.2356 0
M  V30 2840 C 263.07 1.92086 -4.95254 0
M  V30 2841 C 262.109 1.27593 -5.98654 0
M  V30 2842 N 261.246 2.28833 -6.63762 0
M  V30 2843 H 266.086 -0.279734 -2.96684 0
M  V30 2844 H 263.623 -0.149795 -1.46335 0
M  V30 2845 H 265.581 2.11984 -3.59331 0
M  V30 2846 H 264.211 2.0992 -2.45221 0
M  V30 2847 H 263.263 0.0912529 -3.80291 0
M  V30 2848 H 264.575 0.338878 -4.97648 0
M  V30 2849 H 263.729 2.64435 -5.46039 0
M  V30 2850 H 262.468 2.46545 -4.20793 0
M  V30 2851 H 261.473 0.537893 -5.47162 0
M  V30 2852 H 262.698 0.738693 -6.7507 0
M  V30 2853 H 260.644 2.82375 -5.92115 0
M  V30 2854 H 260.561 1.82632 -7.33608 0
M  V30 2855 H 261.829 3.00671 -7.19178 0
M  V30 2856 N 266.058 1.56714 -0.166846 0
M  V30 2857 C 266.988 2.20754 0.760913 0
M  V30 2858 C 267.969 1.16178 1.24244 0
M  V30 2859 O 269.154 1.44592 1.29641 0
M  V30 2860 C 266.284 2.84478 1.99223 0
M  V30 2861 C 265.238 3.95053 1.64672 0
M  V30 2862 C 264.564 4.45805 2.95232 0
M  V30 2863 C 265.864 5.14865 0.878155 0
M  V30 2864 H 267.558 2.98537 0.22713 0
M  V30 2865 H 265.104 1.43596 0.107805 0
M  V30 2866 H 267.057 3.27951 2.64624 0
M  V30 2867 H 265.781 2.04056 2.55007 0
M  V30 2868 H 264.44 3.52228 1.01641 0
M  V30 2869 H 264.088 3.62181 3.49047 0
M  V30 2870 H 263.788 5.204 2.7287 0
M  V30 2871 H 265.312 4.91962 3.6167 0
M  V30 2872 H 266.726 5.55059 1.43466 0
M  V30 2873 H 265.123 5.95348 0.753738 0
M  V30 2874 H 266.193 4.84735 -0.126377 0
M  V30 2875 N 267.536 -0.106894 1.57237 0
M  V30 2876 C 268.446 -1.14911 2.0453 0
M  V30 2877 C 269.462 -1.44592 0.96795 0
M  V30 2878 O 270.638 -1.55468 1.2803 0
M  V30 2879 C 267.703 -2.45272 2.45036 0
M  V30 2880 C 266.764 -2.22879 3.66911 0
M  V30 2881 C 265.997 -3.47024 4.05475 0
M  V30 2882 O 266.22 -4.54804 3.44252 0
M  V30 2883 O 265.154 -3.3731 4.98504 0
M  V30 2884 H 268.98 -0.777461 2.9358 0
M  V30 2885 H 266.565 -0.318563 1.45964 0
M  V30 2886 H 268.447 -3.22055 2.71769 0
M  V30 2887 H 267.122 -2.81886 1.59129 0
M  V30 2888 H 266.029 -1.43915 3.45311 0
M  V30 2889 H 267.362 -1.91163 4.53561 0
M  V30 2890 N 269.014 -1.53014 -0.377408 0
M  V30 2891 C 270.291 -1.59215 -1.13622 0
M  V30 2892 C 270.671 -0.392407 -2.07421 0
M  V30 2893 O 270.019 0.618342 -2.19975 0
M  V30 2894 C 270.229 -2.93669 -1.88573 0
M  V30 2895 C 271.577 -3.47822 -2.43526 0
M  V30 2896 O 272.601 -2.9562 -1.98715 0
M  V30 2897 O 271.46 -4.39055 -3.25412 0
M  V30 2898 H 268.554 -0.642625 -0.52054 0
M  V30 2899 H 271.1 -1.65353 -0.381625 0
M  V30 2900 H 269.872 -3.7243 -1.20048 0
M  V30 2901 H 269.495 -2.90968 -2.70968 0
M  V30 2902 N 270.492 0.636531 -1.44174 0
M  V30 2903 C 271.74 1.39343 -1.46383 0
M  V30 2904 C 272.061 1.94766 -0.0955715 0
M  V30 2905 O 271.331 1.75452 0.871395 0
M  V30 2906 H 269.911 0.517199 -0.538994 0
M  V30 2907 H 272.573 0.74957 -1.7991 0
M  V30 2908 H 271.669 2.22746 -2.18611 0
M  V30 2909 N 271.97 1.30982 0.876444 0
M  V30 2910 C 272.917 1.18085 1.98304 0
M  V30 2911 C 273.887 0.0682263 1.6596 0
M  V30 2912 O 275.072 0.239937 1.89285 0
M  V30 2913 C 272.212 0.887475 3.33493 0
M  V30 2914 C 271.325 2.08281 3.78475 0
M  V30 2915 C 270.46 1.72678 5.0235 0
M  V30 2916 C 269.499 2.88657 5.39762 0
M  V30 2917 N 268.636 2.53292 6.54819 0
M  V30 2918 H 273.476 2.1275 2.08666 0
M  V30 2919 H 271.013 1.05839 1.02159 0
M  V30 2920 H 272.971 0.697961 4.1132 0
M  V30 2921 H 271.601 -0.022315 3.22792 0
M  V30 2922 H 270.653 2.3833 2.96484 0
M  V30 2923 H 271.965 2.95108 4.02135 0
M  V30 2924 H 271.119 1.50151 5.87826 0
M  V30 2925 H 269.858 0.830327 4.8058 0
M  V30 2926 H 268.863 3.1184 4.52809 0
M  V30 2927 H 270.088 3.79002 5.63502 0
M  V30 2928 H 268.034 1.66163 6.34607 0
M  V30 2929 H 267.951 3.3365 6.7839 0
M  V30 2930 H 269.219 2.34143 7.43503 0
M  V30 2931 N 273.449 -1.08991 1.13837 0
M  V30 2932 C 274.695 -1.81526 0.90422 0
M  V30 2933 C 275.028 -1.85706 -0.568066 0
M  V30 2934 O 274.303 -1.32855 -1.42056 0
M  V30 2935 C 274.586 -3.27447 1.49835 0
M  V30 2936 C 274.439 -3.31512 3.04006 0
M  V30 2937 C 275.758 -4.24256 1.17025 0
M  V30 2938 H 272.877 -0.659029 0.329923 0
M  V30 2939 H 275.519 -1.27644 1.40737 0
M  V30 2940 H 273.669 -3.73462 1.07044 0
M  V30 2941 H 275.341 -2.93867 3.55584 0
M  V30 2942 H 273.584 -2.70963 3.38765 0
M  V30 2943 H 274.255 -4.34329 3.40679 0
M  V30 2944 H 276.731 -3.86549 1.54009 0
M  V30 2945 H 275.607 -5.24684 1.61237 0
M  V30 2946 H 275.868 -4.42019 0.0846274 0
M  V30 2947 N 274.927 -0.932562 -1.27047 0
M  V30 2948 C 276.155 -0.592031 -1.98249 0
M  V30 2949 C 276.57 0.831062 -1.69525 0
M  V30 2950 O 275.927 1.55299 -0.958561 0
M  V30 2951 C 275.978 -0.814279 -3.5221 0
M  V30 2952 O 275.699 -2.18139 -3.7993 0
M  V30 2953 C 277.2 -0.483121 -4.4066 0
M  V30 2954 H 274.42 -0.223896 -0.632544 0
M  V30 2955 H 276.964 -1.25091 -1.61779 0
M  V30 2956 H 275.119 -0.20213 -3.86872 0
M  V30 2957 H 275.533 -2.235 -4.74498 0
M  V30 2958 H 277.007 -0.689298 -5.47679 0
M  V30 2959 H 277.484 0.581546 -4.35333 0
M  V30 2960 H 278.09 -1.07362 -4.11526 0
M  V30 2961 N 276.405 1.4127 -0.698611 0
M  V30 2962 C 277.654 2.00408 -0.227949 0
M  V30 2963 C 277.967 1.55981 1.18023 0
M  V30 2964 O 279.173 2.07699 1.74852 0
M  V30 2965 C 277.629 3.58129 -0.356636 0
M  V30 2966 C 277.237 4.11536 -1.77037 0
M  V30 2967 C 278.981 4.24466 0.0540969 0
M  V30 2968 C 276.888 5.61701 -1.85055 0
M  V30 2969 H 275.818 0.749586 -0.0814657 0
M  V30 2970 H 278.469 1.61713 -0.867249 0
M  V30 2971 H 276.851 3.94442 0.350965 0
M  V30 2972 H 278.025 3.86636 -2.50698 0
M  V30 2973 H 276.34 3.57736 -2.13105 0
M  V30 2974 H 278.937 5.34698 0.0146723 0
M  V30 2975 H 279.28 4.01687 1.09332 0
M  V30 2976 H 279.813 3.93198 -0.603337 0
M  V30 2977 H 276.552 5.89312 -2.8704 0
M  V30 2978 H 276.072 5.88519 -1.15783 0
M  V30 2979 H 277.751 6.26524 -1.61484 0
M  V30 2980 N 277.883 0.443576 1.51229 0
M  V30 2981 C 279.108 -0.121648 2.07043 0
M  V30 2982 C 279.533 -1.35156 1.30823 0
M  V30 2983 O 278.891 -1.7793 0.347934 0
M  V30 2984 C 278.939 -0.41624 3.5819 0
M  V30 2985 O 278.043 -1.50163 3.8409 0
M  V30 2986 H 277.384 0.000871367 0.663999 0
M  V30 2987 H 279.914 0.626706 1.94765 0
M  V30 2988 H 279.924 -0.664867 4.02546 0
M  V30 2989 H 278.599 0.482653 4.1309 0
M  V30 2990 H 277.176 -1.24248 3.51592 0
M  V30 2991 N 279.361 -1.56624 0.175154 0
M  V30 2992 C 280.608 -1.96999 -0.468811 0
M  V30 2993 C 280.936 -1.06129 -1.62994 0
M  V30 2994 O 280.191 -0.0961771 -1.95464 0
M  V30 2995 C 280.49 -3.43419 -0.989864 0
M  V30 2996 C 280.156 -4.50866 0.0557687 0
M  V30 2997 C 278.818 -4.79975 0.343134 0
M  V30 2998 C 281.17 -5.15551 0.765308 0
M  V30 2999 C 278.498 -5.71066 1.34536 0
M  V30 3000 C 280.85 -6.07724 1.75654 0
M  V30 3001 C 279.514 -6.35199 2.05132 0
M  V30 3002 H 278.784 -0.720869 -0.17155 0
M  V30 3003 H 281.431 -1.89616 0.267924 0
M  V30 3004 H 279.736 -3.47772 -1.80449 0
M  V30 3005 H 281.433 -3.72002 -1.49719 0
M  V30 3006 H 278.023 -4.28229 -0.178381 0
M  V30 3007 H 282.207 -4.9317 0.556513 0
M  V30 3008 H 277.463 -5.90635 1.57988 0
M  V30 3009 H 281.637 -6.56912 2.31169 0
M  V30 3010 H 279.264 -7.05584 2.8294 0
M  V30 3011 N 280.839 0.0985539 -1.57292 0
M  V30 3012 C 281.772 1.15082 -1.97057 0
M  V30 3013 C 282.75 1.39025 -0.843255 0
M  V30 3014 O 283.934 1.52842 -1.10325 0
M  V30 3015 C 281.061 2.50069 -2.28437 0
M  V30 3016 C 280.107 2.42428 -3.509 0
M  V30 3017 S 280.94 1.84414 -5.02744 0
M  V30 3018 C 282.096 3.21032 -5.37298 0
M  V30 3019 H 282.329 0.811815 -2.86002 0
M  V30 3020 H 279.862 0.306102 -1.51335 0
M  V30 3021 H 281.82 3.27729 -2.47192 0
M  V30 3022 H 280.481 2.8114 -1.40069 0
M  V30 3023 H 279.674 3.41911 -3.70288 0
M  V30 3024 H 279.276 1.72896 -3.31637 0
M  V30 3025 H 281.568 4.17297 -5.33731 0
M  V30 3026 H 282.511 3.06452 -6.38352 0
M  V30 3027 H 282.919 3.20404 -4.64759 0
M  V30 3028 N 282.317 1.53212 0.369288 0
M  V30 3029 C 283.264 1.79388 1.45219 0
M  V30 3030 C 284.234 0.638059 1.53356 0
M  V30 3031 O 285.419 0.879852 1.69302 0
M  V30 3032 C 282.559 1.98623 2.82211 0
M  V30 3033 C 281.672 3.26337 2.8307 0
M  V30 3034 C 280.807 3.35779 4.11614 0
M  V30 3035 C 279.846 4.5754 4.06601 0
M  V30 3036 N 278.983 4.64155 5.26787 0
M  V30 3037 H 283.823 2.71794 1.22198 0
M  V30 3038 H 281.36 1.34642 0.592444 0
M  V30 3039 H 283.318 2.07761 3.61789 0
M  V30 3040 H 281.948 1.09558 3.03639 0
M  V30 3041 H 281 3.26171 1.95747 0
M  V30 3042 H 282.312 4.15988 2.75237 0
M  V30 3043 H 281.466 3.44208 4.99606 0
M  V30 3044 H 280.205 2.44137 4.22195 0
M  V30 3045 H 279.21 4.49215 3.16996 0
M  V30 3046 H 280.435 5.50519 3.97625 0
M  V30 3047 H 278.381 3.75413 5.3796 0
M  V30 3048 H 278.298 5.47706 5.21109 0
M  V30 3049 H 279.566 4.76863 6.16621 0
M  V30 3050 N 283.795 -0.628877 1.44509 0
M  V30 3051 C 284.705 -1.7694 1.54044 0
M  V30 3052 C 285.721 -1.68705 0.425987 0
M  V30 3053 O 286.897 -1.89442 0.683656 0
M  V30 3054 C 283.962 -3.13332 1.48405 0
M  V30 3055 C 283.023 -3.33181 2.70719 0
M  V30 3056 C 282.256 -4.63067 2.6534 0
M  V30 3057 O 282.479 -5.44017 1.71469 0
M  V30 3058 O 281.413 -4.85167 3.56226 0
M  V30 3059 H 285.239 -1.71848 2.50403 0
M  V30 3060 H 282.824 -0.790378 1.26781 0
M  V30 3061 H 284.706 -3.94634 1.47791 0
M  V30 3062 H 283.381 -3.1896 0.551898 0
M  V30 3063 H 282.288 -2.51549 2.769 0
M  V30 3064 H 283.621 -3.32416 3.62988 0
M  V30 3065 N 285.273 -1.31445 -0.869486 0
M  V30 3066 C 286.203 -1.21727 -1.99261 0
M  V30 3067 C 287.184 -0.104359 -1.6978 0
M  V30 3068 O 288.369 -0.289038 -1.92037 0
M  V30 3069 C 285.499 -0.924317 -3.34774 0
M  V30 3070 C 284.453 -1.99685 -3.78563 0
M  V30 3071 C 283.779 -1.55658 -5.11541 0
M  V30 3072 C 285.079 -3.41003 -3.95619 0
M  V30 3073 H 286.773 -2.1569 -2.07649 0
M  V30 3074 H 284.319 -1.03839 -0.997675 0
M  V30 3075 H 286.272 -0.842934 -4.12883 0
M  V30 3076 H 284.996 0.0509793 -3.2656 0
M  V30 3077 H 283.655 -2.06813 -3.02694 0
M  V30 3078 H 283.303 -0.569132 -4.9977 0
M  V30 3079 H 283.003 -2.27409 -5.41811 0
M  V30 3080 H 284.527 -1.48928 -5.92159 0
M  V30 3081 H 285.941 -3.36547 -4.64122 0
M  V30 3082 H 284.338 -4.10975 -4.37286 0
M  V30 3083 H 285.408 -3.81754 -2.98985 0
M  V30 3084 N 286.751 1.08385 -1.14413 0
M  V30 3085 C 287.684 2.14642 -0.774871 0
M  V30 3086 C 288.662 1.60761 0.243876 0
M  V30 3087 O 289.846 1.88031 0.132883 0
M  V30 3088 C 286.973 3.38366 -0.150491 0
M  V30 3089 C 286.019 4.10997 -1.13945 0
M  V30 3090 S 286.852 4.63797 -2.67679 0
M  V30 3091 C 288.008 5.90808 -2.06631 0
M  V30 3092 H 288.241 2.45633 -1.67487 0
M  V30 3093 H 285.774 1.20498 -0.96538 0
M  V30 3094 H 287.732 4.09996 0.203334 0
M  V30 3095 H 286.393 3.05572 0.72694 0
M  V30 3096 H 285.586 4.99783 -0.65059 0
M  V30 3097 H 285.188 3.4528 -1.43727 0
M  V30 3098 H 287.48 6.62411 -1.4219 0
M  V30 3099 H 288.423 6.4439 -2.93542 0
M  V30 3100 H 288.831 5.4383 -1.51357 0
M  V30 3101 N 288.23 0.939286 1.26551 0
M  V30 3102 C 289.162 0.404704 2.25599 0
M  V30 3103 C 290.175 -0.470983 1.55838 0
M  V30 3104 O 291.364 -0.281734 1.76263 0
M  V30 3105 C 288.464 -0.43764 3.36062 0
M  V30 3106 C 287.637 0.421449 4.35365 0
M  V30 3107 C 286.696 -0.36015 5.24966 0
M  V30 3108 O 285.722 0.236167 5.6871 0
M  V30 3109 N 286.924 -1.65715 5.56344 0
M  V30 3110 H 289.689 1.25618 2.72103 0
M  V30 3111 H 287.25 0.807963 1.40298 0
M  V30 3112 H 289.242 -0.967866 3.92956 0
M  V30 3113 H 287.812 -1.18991 2.89067 0
M  V30 3114 H 287.032 1.1329 3.7757 0
M  V30 3115 H 288.32 1.00835 4.98708 0
M  V30 3116 H 287.718 -2.16378 5.22682 0
M  V30 3117 H 286.275 -2.13366 6.15888 0
M  V30 3118 N 289.708 -1.40897 0.706093 0
M  V30 3119 C 290.954 -2.01849 0.250681 0
M  V30 3120 C 291.309 -1.5496 -1.14041 0
M  V30 3121 O 290.602 -0.755566 -1.76073 0
M  V30 3122 C 290.796 -3.5646 0.259099 0
M  V30 3123 C 290.625 -4.18357 1.64947 0
M  V30 3124 C 289.395 -4.522 2.25485 0
M  V30 3125 C 291.593 -4.43856 2.598 0
M  V30 3126 N 289.575 -4.9944 3.56977 0
M  V30 3127 C 290.946 -4.92986 3.75985 0
M  V30 3128 C 293.001 -4.25882 2.57933 0
M  V30 3129 C 291.704 -5.2603 4.90597 0
M  V30 3130 C 293.73 -4.6002 3.71665 0
M  V30 3131 C 293.092 -5.09331 4.86581 0
M  V30 3132 H 289.191 -0.769843 0.137353 0
M  V30 3133 H 291.775 -1.71278 0.925845 0
M  V30 3134 H 289.946 -3.86481 -0.385592 0
M  V30 3135 H 291.678 -4.04144 -0.21213 0
M  V30 3136 H 288.433 -4.3901 1.77671 0
M  V30 3137 H 288.857 -5.27454 4.24407 0
M  V30 3138 H 293.499 -3.86986 1.70298 0
M  V30 3139 H 291.217 -5.63843 5.78884 0
M  V30 3140 H 294.803 -4.47762 3.71484 0
M  V30 3141 H 293.683 -5.35251 5.73129 0
M  V30 3142 N 291.186 -0.45159 -1.50991 0
M  V30 3143 C 292.416 0.108177 -2.06317 0
M  V30 3144 C 292.824 1.35774 -1.31765 0
M  V30 3145 O 292.167 1.79838 -0.374694 0
M  V30 3146 C 292.229 0.481659 -3.56259 0
M  V30 3147 C 291.893 -0.663114 -4.52163 0
M  V30 3148 C 292.89 -1.53947 -4.96585 0
M  V30 3149 C 290.575 -0.8479 -4.95092 0
M  V30 3150 C 292.569 -2.58518 -5.82621 0
M  V30 3151 C 290.256 -1.89686 -5.80915 0
M  V30 3152 C 291.254 -2.76388 -6.24579 0
M  V30 3153 O 290.942 -3.79482 -7.08695 0
M  V30 3154 H 290.674 0.00499183 -0.675982 0
M  V30 3155 H 293.228 -0.633659 -1.95381 0
M  V30 3156 H 291.458 1.27641 -3.65027 0
M  V30 3157 H 293.147 0.974233 -3.94035 0
M  V30 3158 H 293.913 -1.4083 -4.64103 0
M  V30 3159 H 289.792 -0.18258 -4.60638 0
M  V30 3160 H 293.336 -3.26224 -6.16623 0
M  V30 3161 H 289.233 -2.02817 -6.12809 0
M  V30 3162 H 290.001 -3.76234 -7.26905 0
M  V30 3163 N 292.664 1.56529 -0.183458 0
M  V30 3164 C 293.611 2.18546 0.742055 0
M  V30 3165 C 294.581 1.12912 1.2182 0
M  V30 3166 O 295.766 1.41115 1.28418 0
M  V30 3167 C 292.906 2.83977 1.96089 0
M  V30 3168 C 292.019 4.04105 1.52719 0
M  V30 3169 C 291.154 4.57427 2.70063 0
M  V30 3170 C 290.193 5.69938 2.23243 0
M  V30 3171 N 289.33 6.17717 3.33722 0
M  V30 3172 H 294.17 2.97284 0.206432 0
M  V30 3173 H 291.707 1.46823 0.0901571 0
M  V30 3174 H 293.665 3.20077 2.67594 0
M  V30 3175 H 292.295 2.07822 2.47002 0
M  V30 3176 H 291.347 3.73745 0.708436 0
M  V30 3177 H 292.659 4.85513 1.1436 0
M  V30 3178 H 291.813 4.95772 3.49708 0
M  V30 3179 H 290.552 3.75101 3.11689 0
M  V30 3180 H 289.557 5.31133 1.42048 0
M  V30 3181 H 290.782 6.54073 1.82661 0
M  V30 3182 H 288.728 5.38317 3.74902 0
M  V30 3183 H 288.645 6.94146 2.99495 0
M  V30 3184 H 289.913 6.60713 4.13616 0
M  V30 3185 N 294.142 -0.090211 1.57342 0
M  V30 3186 C 295.419 -0.824761 1.77361 0
M  V30 3187 C 295.799 -1.96698 0.76637 0
M  V30 3188 O 295.147 -2.27586 -0.204179 0
M  V30 3189 C 295.357 -1.31481 3.23286 0
M  V30 3190 C 296.705 -1.75563 3.86604 0
M  V30 3191 O 297.729 -1.41093 3.27065 0
M  V30 3192 O 296.588 -2.39317 4.91314 0
M  V30 3193 H 293.682 -0.393776 0.727234 0
M  V30 3194 H 296.228 -0.0717138 1.69548 0
M  V30 3195 H 295 -0.496671 3.88135 0
M  V30 3196 H 294.623 -2.12973 3.35751 0
M  V30 3197 N 295.62 -1.53406 -0.361157 0
M  V30 3198 C 296.552 -1.76446 -1.46286 0
M  V30 3199 C 297.565 -0.645322 -1.49464 0
M  V30 3200 O 298.754 -0.921681 -1.52864 0
M  V30 3201 C 295.854 -1.83332 -2.85031 0
M  V30 3202 C 295.027 -3.13033 -3.05498 0
M  V30 3203 C 294.086 -3.11104 -4.24383 0
M  V30 3204 O 293.112 -3.84888 -4.19344 0
M  V30 3205 N 294.314 -2.32234 -5.32022 0
M  V30 3206 H 297.079 -2.71508 -1.26899 0
M  V30 3207 H 294.64 -1.52238 -0.550915 0
M  V30 3208 H 296.632 -1.79514 -3.62708 0
M  V30 3209 H 295.202 -0.955342 -2.97644 0
M  V30 3210 H 294.422 -3.30119 -2.15442 0
M  V30 3211 H 295.71 -3.9874 -3.16044 0
M  V30 3212 H 295.108 -1.71807 -5.38979 0
M  V30 3213 H 293.665 -2.3423 -6.08259 0
M  V30 3214 N 297.098 0.621204 -1.44841 0
M  V30 3215 C 298.045 1.73267 -1.5247 0
M  V30 3216 C 299.015 1.6189 -0.371611 0
M  V30 3217 O 300.2 1.81668 -0.58321 0
M  V30 3218 C 297.34 3.11545 -1.48438 0
M  V30 3219 C 296.453 3.33827 -2.74196 0
M  V30 3220 C 295.588 4.62133 -2.61929 0
M  V30 3221 C 294.627 4.77627 -3.82804 0
M  V30 3222 N 293.764 5.97219 -3.69153 0
M  V30 3223 H 298.604 1.66082 -2.47428 0
M  V30 3224 H 296.141 0.810026 -1.22788 0
M  V30 3225 H 298.099 3.91528 -1.4409 0
M  V30 3226 H 296.729 3.1772 -0.570402 0
M  V30 3227 H 295.781 2.47715 -2.88689 0
M  V30 3228 H 297.093 3.41153 -3.6389 0
M  V30 3229 H 296.247 5.50291 -2.5547 0
M  V30 3230 H 294.986 4.57182 -1.69811 0
M  V30 3231 H 293.991 3.87896 -3.89637 0
M  V30 3232 H 295.216 4.84385 -4.75971 0
M  V30 3233 H 293.162 5.93339 -2.79794 0
M  V30 3234 H 293.079 6.05644 -4.52472 0
M  V30 3235 H 294.347 6.87912 -3.66603 0
M  V30 3236 N 298.576 1.31904 0.862503 0
M  V30 3237 C 299.523 1.20182 1.9704 0
M  V30 3238 C 300.493 0.0858247 1.65878 0
M  V30 3239 O 301.678 0.26 1.8902 0
M  V30 3240 C 298.818 0.922797 3.32533 0
M  V30 3241 C 297.931 2.12284 3.76244 0
M  V30 3242 C 297.066 1.77996 5.00491 0
M  V30 3243 C 296.105 2.94366 5.36671 0
M  V30 3244 N 295.242 2.60223 6.52095 0
M  V30 3245 H 300.082 2.14951 2.06398 0
M  V30 3246 H 297.619 1.06917 1.01031 0
M  V30 3247 H 299.577 0.741548 4.10557 0
M  V30 3248 H 298.207 0.0119227 3.22798 0
M  V30 3249 H 297.259 2.41461 2.9394 0
M  V30 3250 H 298.571 2.99357 3.98982 0
M  V30 3251 H 297.725 1.56377 5.862 0
M  V30 3252 H 296.464 0.881252 4.79672 0
M  V30 3253 H 295.469 3.16625 4.49476 0
M  V30 3254 H 296.694 3.84957 5.59451 0
M  V30 3255 H 294.64 1.72884 6.32809 0
M  V30 3256 H 294.557 3.40827 6.74814 0
M  V30 3257 H 295.825 2.42016 7.40978 0
M  V30 3258 N 300.054 -1.07777 1.14986 0
M  V30 3259 C 300.984 -2.16865 0.865557 0
M  V30 3260 C 301.965 -1.69123 -0.182083 0
M  V30 3261 O 303.15 -1.94164 -0.0373815 0
M  V30 3262 C 300.28 -3.45539 0.349313 0
M  V30 3263 C 299.234 -4.06708 1.33313 0
M  V30 3264 C 298.56 -5.30411 0.675918 0
M  V30 3265 C 299.86 -4.47241 2.69764 0
M  V30 3266 H 301.554 -2.40905 1.77778 0
M  V30 3267 H 299.1 -1.15781 0.856203 0
M  V30 3268 H 301.053 -4.21174 0.137983 0
M  V30 3269 H 299.777 -3.21072 -0.598362 0
M  V30 3270 H 298.436 -3.33112 1.53075 0
M  V30 3271 H 298.084 -5.02232 -0.277767 0
M  V30 3272 H 297.784 -5.72293 1.33244 0
M  V30 3273 H 299.308 -6.08755 0.474262 0
M  V30 3274 H 300.722 -5.14025 2.53873 0
M  V30 3275 H 299.119 -5.00062 3.3175 0
M  V30 3276 H 300.189 -3.58818 3.26156 0
M  V30 3277 N 301.532 -0.945985 -1.26051 0
M  V30 3278 C 302.482 -0.430164 -2.23905 0
M  V30 3279 C 303.466 0.47579 -1.53704 0
M  V30 3280 O 304.658 0.310252 -1.7426 0
M  V30 3281 C 301.787 0.298957 -3.41996 0
M  V30 3282 C 300.873 -0.624566 -4.19476 0
M  V30 3283 N 301.264 -1.75245 -4.74471 0
M  V30 3284 C 299.562 -0.431082 -4.43912 0
M  V30 3285 C 300.263 -2.32834 -5.3307 0
M  V30 3286 N 299.239 -1.61583 -5.1903 0
M  V30 3287 H 303.041 -1.29107 -2.64024 0
M  V30 3288 H 300.555 -0.802428 -1.41191 0
M  V30 3289 H 302.552 0.685565 -4.11225 0
M  V30 3290 H 301.212 1.15657 -3.03403 0
M  V30 3291 H 302.223 -2.13449 -4.71868 0
M  V30 3292 H 298.9 0.384364 -4.15727 0
M  V30 3293 H 300.29 -3.27893 -5.86461 0
M  V30 3294 N 303.011 1.40521 -0.713556 0
M  V30 3295 C 304.427 1.54839 -0.386907 0
M  V30 3296 C 304.627 1.68532 1.1045 0
M  V30 3297 O 303.683 1.67377 1.89053 0
M  V30 3298 C 304.996 2.77792 -1.15118 0
M  V30 3299 C 306.544 2.91607 -1.13729 0
M  V30 3300 C 307.019 4.1747 -1.88368 0
M  V30 3301 N 308.51 4.24466 -1.85427 0
M  V30 3302 C 309.245 5.20755 -2.40004 0
M  V30 3303 N 308.741 6.22965 -3.03129 0
M  V30 3304 N 310.534 5.1282 -2.30158 0
M  V30 3305 H 302.685 1.29879 -1.68063 0
M  V30 3306 H 304.948 0.627896 -0.710247 0
M  V30 3307 H 304.654 2.73944 -2.20561 0
M  V30 3308 H 304.528 3.6984 -0.741477 0
M  V30 3309 H 306.915 2.94959 -0.0910608 0
M  V30 3310 H 306.996 2.00682 -1.5862 0
M  V30 3311 H 306.64 4.1488 -2.9298 0
M  V30 3312 H 306.57 5.074 -1.40898 0
M  V30 3313 H 309.061 3.51241 -1.3942 0
M  V30 3314 H 309.374 6.92859 -3.42295 0
M  V30 3315 H 307.719 6.23415 -3.07212 0
M  V30 3316 H 310.91 4.31899 -1.80501 0
M  V30 3317 H 311.083 5.87689 -2.72993 0
M  V30 3318 N 304.489 0.459591 1.5075 0
M  V30 3319 C 305.436 -0.340524 2.28274 0
M  V30 3320 C 306.406 -0.997371 1.32822 0
M  V30 3321 O 307.591 -1.01202 1.61749 0
M  V30 3322 C 304.731 -1.42317 3.14388 0
M  V30 3323 C 303.844 -0.782251 4.24859 0
M  V30 3324 C 302.979 -1.84182 4.98247 0
M  V30 3325 C 302.018 -1.18053 6.00608 0
M  V30 3326 N 301.155 -2.18244 6.67319 0
M  V30 3327 H 305.995 0.326899 2.96202 0
M  V30 3328 H 303.532 0.173057 1.46078 0
M  V30 3329 H 305.49 -2.06241 3.62658 0
M  V30 3330 H 304.12 -2.05992 2.4853 0
M  V30 3331 H 303.172 -0.0307404 3.80388 0
M  V30 3332 H 304.484 -0.259663 4.98124 0
M  V30 3333 H 303.638 -2.55714 5.50177 0
M  V30 3334 H 302.377 -2.39819 4.24662 0
M  V30 3335 H 301.382 -0.450776 5.47949 0
M  V30 3336 H 302.607 -0.631202 6.7616 0
M  V30 3337 H 300.553 -2.72919 5.96533 0
M  V30 3338 H 300.47 -1.70938 7.36421 0
M  V30 3339 H 301.738 -2.89191 7.23871 0
M  V30 3340 N 305.967 -1.56429 0.191757 0
M  V30 3341 C 307.207 -1.99383 -0.450099 0
M  V30 3342 C 307.571 -1.07581 -1.59029 0
M  V30 3343 O 308.772 -1.39758 -2.29611 0
M  V30 3344 C 307.043 -3.45841 -0.901611 0
M  V30 3345 S 308.602 -4.10822 -1.54177 0
M  V30 3346 H 305.42 -0.696253 -0.144057 0
M  V30 3347 H 308.022 -1.93276 0.294036 0
M  V30 3348 H 306.726 -4.10354 -0.0616596 0
M  V30 3349 H 306.257 -3.55757 -1.67929 0
M  V30 3350 H 308.272 -4.07553 -2.83046 0
M  V30 3351 N 307.445 0.0818655 -1.57387 0
M  V30 3352 C 308.408 1.08265 -2.02018 0
M  V30 3353 C 309.408 1.32183 -0.915664 0
M  V30 3354 O 310.598 1.28073 -1.18081 0
M  V30 3355 C 307.73 2.42871 -2.39221 0
M  V30 3356 H 308.923 0.698204 -2.91659 0
M  V30 3357 H 306.476 0.327303 -1.52835 0
M  V30 3358 H 307.211 2.86167 -1.52575 0
M  V30 3359 H 306.996 2.26855 -3.19811 0
M  V30 3360 H 308.486 3.14826 -2.74362 0
M  V30 3361 N 308.923 1.53595 0.353017 0
M  V30 3362 C 310.153 1.74058 1.11299 0
M  V30 3363 C 310.561 0.475205 1.83135 0
M  V30 3364 O 309.904 -0.562344 1.74881 0
M  V30 3365 C 309.966 2.85994 2.17825 0
M  V30 3366 C 309.63 4.25923 1.65647 0
M  V30 3367 C 310.627 5.07829 1.11383 0
M  V30 3368 C 308.312 4.72377 1.7078 0
M  V30 3369 C 310.306 6.34285 0.629439 0
M  V30 3370 C 307.993 5.98808 1.21953 0
M  V30 3371 C 308.991 6.79594 0.681265 0
M  V30 3372 O 308.679 8.03651 0.200248 0
M  V30 3373 H 308.411 0.585327 0.338183 0
M  V30 3374 H 310.965 2.01186 0.413927 0
M  V30 3375 H 309.195 2.54368 2.91262 0
M  V30 3376 H 310.884 2.94515 2.79313 0
M  V30 3377 H 311.65 4.73107 1.06746 0
M  V30 3378 H 307.529 4.0956 2.11617 0
M  V30 3379 H 311.073 6.97288 0.208636 0
M  V30 3380 H 306.97 6.33026 1.26287 0
M  V30 3381 H 307.738 8.1788 0.318416 0
M  V30 3382 N 310.401 -0.613514 1.45168 0
M  V30 3383 C 311.333 -1.73825 1.4939 0
M  V30 3384 C 312.346 -1.58175 0.385304 0
M  V30 3385 O 313.535 -1.66165 0.652036 0
M  V30 3386 C 310.635 -3.11758 1.32891 0
M  V30 3387 C 309.808 -3.53704 2.57317 0
M  V30 3388 C 308.867 -4.70579 2.35462 0
M  V30 3389 O 307.893 -4.77996 3.09044 0
M  V30 3390 N 309.095 -5.63454 1.39644 0
M  V30 3391 H 311.86 -1.70669 2.46358 0
M  V30 3392 H 309.421 -0.79862 1.40832 0
M  V30 3393 H 311.413 -3.87692 1.1609 0
M  V30 3394 H 309.983 -3.09456 0.442218 0
M  V30 3395 H 309.203 -2.67794 2.89275 0
M  V30 3396 H 310.491 -3.78486 3.40038 0
M  V30 3397 H 309.889 -5.6017 0.789062 0
M  V30 3398 H 308.446 -6.38944 1.28816 0
M  V30 3399 N 311.879 -1.3236 -0.855495 0
M  V30 3400 C 313.128 -1.22226 -1.60448 0
M  V30 3401 C 313.441 0.214733 -1.94418 0
M  V30 3402 O 314.647 0.437917 -2.67945 0
M  V30 3403 C 313.103 -2.14063 -2.89318 0
M  V30 3404 C 312.711 -3.62839 -2.62777 0
M  V30 3405 C 314.455 -2.12764 -3.67331 0
M  V30 3406 C 312.362 -4.4664 -3.87643 0
M  V30 3407 H 311.292 -0.453904 -0.602069 0
M  V30 3408 H 313.943 -1.57314 -0.944698 0
M  V30 3409 H 312.325 -1.71889 -3.5675 0
M  V30 3410 H 313.499 -4.1335 -2.03662 0
M  V30 3411 H 311.814 -3.66261 -1.98096 0
M  V30 3412 H 314.411 -2.72611 -4.59987 0
M  V30 3413 H 314.754 -1.11841 -4.00995 0
M  V30 3414 H 315.287 -2.53214 -3.06802 0
M  V30 3415 H 312.026 -5.48373 -3.5912 0
M  V30 3416 H 311.546 -4.0088 -4.46156 0
M  V30 3417 H 313.225 -4.59597 -4.55389 0
M  V30 3418 N 313.357 1.07166 -1.15556 0
M  V30 3419 C 314.287 2.16403 -0.877046 0
M  V30 3420 C 315.268 1.69217 0.173111 0
M  V30 3421 O 316.453 1.94181 0.027084 0
M  V30 3422 C 313.583 3.45349 -0.367632 0
M  V30 3423 C 312.537 4.05995 -1.35468 0
M  V30 3424 C 311.863 5.30045 -0.704038 0
M  V30 3425 C 313.163 4.45804 -2.72132 0
M  V30 3426 H 314.857 2.39959 -1.79053 0
M  V30 3427 H 312.403 1.15325 -0.862331 0
M  V30 3428 H 314.356 4.21095 -0.160317 0
M  V30 3429 H 313.08 3.21385 0.581326 0
M  V30 3430 H 311.739 3.32296 -1.54839 0
M  V30 3431 H 311.387 5.02373 0.251128 0
M  V30 3432 H 311.087 5.71579 -1.36277 0
M  V30 3433 H 312.611 6.08495 -0.50654 0
M  V30 3434 H 314.025 5.12671 -2.56595 0
M  V30 3435 H 312.422 4.98296 -3.34397 0
M  V30 3436 H 313.492 3.57083 -3.28054 0
M  V30 3437 N 314.835 0.952656 1.25548 0
M  V30 3438 C 316.081 0.607272 1.93494 0
M  V30 3439 C 316.414 -0.853245 1.74452 0
M  V30 3440 O 315.689 -1.61194 1.08843 0
M  V30 3441 C 315.972 0.96435 3.46947 0
M  V30 3442 C 315.825 2.48045 3.75225 0
M  V30 3443 C 317.144 0.487987 4.37386 0
M  V30 3444 H 314.263 0.222096 0.702739 0
M  V30 3445 H 316.905 1.18895 1.48203 0
M  V30 3446 H 315.055 0.469361 3.85654 0
M  V30 3447 H 316.727 3.04905 3.46166 0
M  V30 3448 H 314.97 2.919 3.209 0
M  V30 3449 H 315.641 2.6808 4.82532 0
M  V30 3450 H 318.117 0.912558 4.0597 0
M  V30 3451 H 316.993 0.766547 5.43521 0
M  V30 3452 H 317.254 -0.612063 4.37843 0
M  V30 3453 N 316.313 -1.40141 0.720998 0
M  V30 3454 C 317.245 -2.29177 0.0324669 0
M  V30 3455 C 318.258 -1.46105 -0.718126 0
M  V30 3456 O 319.447 -1.69335 -0.564608 0
M  V30 3457 C 316.547 -3.24473 -0.978292 0
M  V30 3458 C 315.72 -4.36423 -0.292115 0
M  V30 3459 C 314.779 -5.12122 -1.20901 0
M  V30 3460 O 313.805 -5.64981 -0.691766 0
M  V30 3461 N 315.007 -5.21992 -2.53978 0
M  V30 3462 H 317.772 -2.88909 0.796984 0
M  V30 3463 H 315.333 -1.51569 0.569068 0
M  V30 3464 H 317.325 -3.71987 -1.59398 0
M  V30 3465 H 315.895 -2.65871 -1.64413 0
M  V30 3466 H 315.115 -3.90967 0.503847 0
M  V30 3467 H 316.403 -5.08467 0.183971 0
M  V30 3468 H 315.801 -4.8054 -2.98493 0
M  V30 3469 H 314.358 -5.72995 -3.10677 0
M  V30 3470 N 317.792 -0.46758 -1.50504 0
M  V30 3471 C 319.038 0.0887532 -2.02606 0
M  V30 3472 C 319.371 1.39686 -1.34913 0
M  V30 3473 O 318.646 1.88644 -0.473694 0
M  V30 3474 C 318.929 0.276206 -3.59039 0
M  V30 3475 C 318.782 -1.05267 -4.37309 0
M  V30 3476 C 320.101 1.03235 -4.27821 0
M  V30 3477 H 317.22 0.0307814 -0.736357 0
M  V30 3478 H 319.862 -0.612485 -1.79857 0
M  V30 3479 H 318.012 0.8735 -3.78553 0
M  V30 3480 H 319.684 -1.68628 -4.29374 0
M  V30 3481 H 317.927 -1.65015 -4.01189 0
M  V30 3482 H 318.598 -0.875197 -5.45018 0
M  V30 3483 H 321.074 0.526111 -4.12761 0
M  V30 3484 H 319.95 1.1323 -5.37094 0
M  V30 3485 H 320.211 2.06806 -3.90748 0
M  V30 3486 N 319.27 1.56325 -0.20005 0
M  V30 3487 C 320.217 2.1932 0.718833 0
M  V30 3488 C 321.187 1.14198 1.20615 0
M  V30 3489 O 322.372 1.42469 1.26914 0
M  V30 3490 C 319.512 2.86041 1.93066 0
M  V30 3491 C 318.625 4.05702 1.48425 0
M  V30 3492 C 317.76 4.60266 2.65196 0
M  V30 3493 C 316.799 5.72273 2.17185 0
M  V30 3494 N 315.936 6.21221 3.27152 0
M  V30 3495 H 320.776 2.97486 0.17489 0
M  V30 3496 H 318.313 1.46911 0.0745794 0
M  V30 3497 H 320.271 3.22897 2.64184 0
M  V30 3498 H 318.901 2.1043 2.44783 0
M  V30 3499 H 317.953 3.74475 0.668755 0
M  V30 3500 H 319.265 4.86699 1.09204 0
M  V30 3501 H 318.419 4.99453 3.4443 0
M  V30 3502 H 317.158 3.78386 3.07693 0
M  V30 3503 H 316.163 5.3261 1.36407 0
M  V30 3504 H 317.388 6.55974 1.75713 0
M  V30 3505 H 315.334 5.42263 3.69171 0
M  V30 3506 H 315.251 6.97284 2.92116 0
M  V30 3507 H 316.519 6.65063 4.06585 0
M  V30 3508 N 320.748 -0.0735177 1.57428 0
M  V30 3509 C 321.658 -1.10547 2.06922 0
M  V30 3510 C 322.674 -1.42506 0.998402 0
M  V30 3511 O 323.85 -1.52717 1.31299 0
M  V30 3512 C 320.915 -2.40019 2.50184 0
M  V30 3513 C 319.976 -2.15046 3.71556 0
M  V30 3514 C 319.209 -3.38345 4.12745 0
M  V30 3515 O 319.432 -4.47399 3.53822 0
M  V30 3516 O 318.366 -3.2666 5.05546 0
M  V30 3517 H 322.192 -0.715013 2.95163 0
M  V30 3518 H 319.777 -0.287531 1.46607 0
M  V30 3519 H 321.659 -3.16218 2.78539 0
M  V30 3520 H 320.334 -2.78447 1.65072 0
M  V30 3521 H 319.241 -1.36558 3.48285 0
M  V30 3522 H 320.574 -1.81499 4.57514 0
M  V30 3523 N 322.226 -1.5378 -0.344866 0
M  V30 3524 C 323.472 -1.71216 -1.08687 0
M  V30 3525 C 323.805 -0.473281 -1.88345 0
M  V30 3526 O 323.08 0.52968 -1.87149 0
M  V30 3527 C 323.363 -2.97486 -2.02914 0
M  V30 3528 C 323.216 -4.31579 -1.26727 0
M  V30 3529 C 324.535 -3.19422 -3.0275 0
M  V30 3530 H 321.654 -0.62301 -0.393735 0
M  V30 3531 H 324.296 -1.8645 -0.365563 0
M  V30 3532 H 322.446 -2.84629 -2.64421 0
M  V30 3533 H 324.118 -4.56284 -0.67845 0
M  V30 3534 H 322.361 -4.30049 -0.569273 0
M  V30 3535 H 323.032 -5.16106 -1.95803 0
M  V30 3536 H 325.508 -3.316 -2.51357 0
M  V30 3537 H 324.384 -4.09169 -3.65885 0
M  V30 3538 H 324.645 -2.35656 -3.74057 0
M  V30 3539 N 323.704 0.605807 -1.45491 0
M  V30 3540 C 324.634 1.72709 -1.57143 0
M  V30 3541 C 325.615 1.6476 -0.422884 0
M  V30 3542 O 326.8 1.83132 -0.646247 0
M  V30 3543 C 323.93 3.11316 -1.53948 0
M  V30 3544 C 322.884 3.34077 -2.67537 0
M  V30 3545 C 322.21 4.72975 -2.49397 0
M  V30 3546 C 323.51 3.24158 -4.09535 0
M  V30 3547 H 325.204 1.63214 -2.51001 0
M  V30 3548 H 322.75 0.78379 -1.208 0
M  V30 3549 H 324.703 3.89557 -1.60696 0
M  V30 3550 H 323.427 3.21655 -0.566205 0
M  V30 3551 H 322.086 2.58227 -2.6022 0
M  V30 3552 H 321.734 4.8005 -1.50205 0
M  V30 3553 H 321.434 4.8916 -3.25571 0
M  V30 3554 H 322.958 5.53414 -2.58002 0
M  V30 3555 H 324.372 3.92271 -4.18086 0
M  V30 3556 H 322.769 3.51872 -4.86113 0
M  V30 3557 H 323.839 2.2157 -4.31317 0
M  V30 3558 N 325.182 1.32811 0.848464 0
M  V30 3559 C 326.407 1.26882 1.6406 0
M  V30 3560 C 326.832 -0.15913 1.87426 0
M  V30 3561 O 326.19 -1.11258 1.43148 0
M  V30 3562 C 326.238 2.03997 2.97351 0
M  V30 3563 O 325.342 1.39201 3.88197 0
M  V30 3564 H 324.683 0.436982 0.499943 0
M  V30 3565 H 327.213 1.75224 1.0563 0
M  V30 3566 H 327.223 2.14403 3.47124 0
M  V30 3567 H 325.898 3.0783 2.79666 0
M  V30 3568 H 324.475 1.37381 3.46671 0
M  V30 3569 N 326.66 -1.06551 1.16123 0
M  V30 3570 C 327.607 -2.13961 0.865414 0
M  V30 3571 C 328.577 -1.65066 -0.185055 0
M  V30 3572 O 329.762 -1.90732 -0.05083 0
M  V30 3573 C 326.902 -3.43113 0.369776 0
M  V30 3574 C 326.015 -4.05756 1.48276 0
M  V30 3575 C 325.15 -5.22773 0.942414 0
M  V30 3576 C 324.189 -5.77395 2.03179 0
M  V30 3577 N 323.326 -6.85731 1.50721 0
M  V30 3578 H 328.166 -2.38605 1.78527 0
M  V30 3579 H 325.703 -1.17072 0.890646 0
M  V30 3580 H 327.661 -4.17151 0.0640643 0
M  V30 3581 H 326.291 -3.18695 -0.513143 0
M  V30 3582 H 325.343 -3.29292 1.9045 0
M  V30 3583 H 326.655 -4.42351 2.30493 0
M  V30 3584 H 325.809 -6.03827 0.589729 0
M  V30 3585 H 324.548 -4.87618 0.0895191 0
M  V30 3586 H 323.553 -4.94981 2.3932 0
M  V30 3587 H 324.778 -6.14603 2.8886 0
M  V30 3588 H 322.724 -6.52499 0.676811 0
M  V30 3589 H 322.641 -7.21254 2.26557 0
M  V30 3590 H 323.909 -7.7047 1.18303 0
M  V30 3591 N 328.138 -0.959301 -1.25041 0
M  V30 3592 C 329.068 -0.501388 -2.28053 0
M  V30 3593 C 330.049 0.454673 -1.63911 0
M  V30 3594 O 331.234 0.352618 -1.90972 0
M  V30 3595 C 328.364 0.217224 -3.4662 0
M  V30 3596 C 327.318 -0.654034 -4.22973 0
M  V30 3597 C 326.644 0.195589 -5.34342 0
M  V30 3598 C 327.944 -1.93447 -4.85155 0
M  V30 3599 H 329.638 -1.36238 -2.66608 0
M  V30 3600 H 327.184 -0.656534 -1.28163 0
M  V30 3601 H 329.137 0.548732 -4.17812 0
M  V30 3602 H 327.861 1.1125 -3.07068 0
M  V30 3603 H 326.52 -0.968693 -3.5357 0
M  V30 3604 H 326.168 1.09076 -4.91031 0
M  V30 3605 H 325.868 -0.384091 -5.86343 0
M  V30 3606 H 327.392 0.521958 -6.08365 0
M  V30 3607 H 328.806 -1.66908 -5.48466 0
M  V30 3608 H 327.203 -2.46018 -5.47353 0
M  V30 3609 H 328.273 -2.63466 -4.07079 0
M  V30 3610 N 329.616 1.39756 -0.72842 0
M  V30 3611 C 330.841 2.05472 -0.282159 0
M  V30 3612 C 331.266 1.54549 1.07221 0
M  V30 3613 O 330.624 0.686372 1.67805 0
M  V30 3614 C 330.672 3.59462 -0.286264 0
M  V30 3615 O 329.776 4.05918 0.728298 0
M  V30 3616 H 329.117 0.651226 -0.129618 0
M  V30 3617 H 331.647 1.78915 -0.992499 0
M  V30 3618 H 331.657 4.07798 -0.128373 0
M  V30 3619 H 330.332 3.95889 -1.27456 0
M  V30 3620 H 328.909 3.69012 0.537081 0
M  V30 3621 N 331.094 0.475555 1.50254 0
M  V30 3622 C 332.322 -0.0754493 2.06762 0
M  V30 3623 C 332.737 -1.33111 1.33891 0
M  V30 3624 O 332.094 -1.77846 0.40952 0
M  V30 3625 C 332.145 -0.359008 3.59713 0
M  V30 3626 O 331.866 0.846851 4.29837 0
M  V30 3627 C 333.367 -0.956484 4.32858 0
M  V30 3628 H 330.587 0.00907525 0.670939 0
M  V30 3629 H 333.131 0.665618 1.93364 0
M  V30 3630 H 331.286 -1.05001 3.72899 0
M  V30 3631 H 331.7 0.594162 5.21124 0
M  V30 3632 H 333.174 -1.10463 5.40834 0
M  V30 3633 H 333.651 -1.94775 3.93649 0
M  V30 3634 H 334.257 -0.303723 4.24214 0
M  V30 3635 N 332.573 -1.56217 0.208337 0
M  V30 3636 C 333.503 -2.22694 -0.702116 0
M  V30 3637 C 334.484 -1.19432 -1.2112 0
M  V30 3638 O 335.669 -1.47978 -1.25762 0
M  V30 3639 C 332.799 -2.8966 -1.9161 0
M  V30 3640 C 331.753 -3.9928 -1.5414 0
M  V30 3641 C 331.079 -4.53476 -2.83308 0
M  V30 3642 C 332.379 -5.17012 -0.741339 0
M  V30 3643 H 334.073 -2.99034 -0.147898 0
M  V30 3644 H 331.619 -1.43831 -0.0696951 0
M  V30 3645 H 333.572 -3.34852 -2.55836 0
M  V30 3646 H 332.296 -2.10746 -2.49507 0
M  V30 3647 H 330.955 -3.54799 -0.922668 0
M  V30 3648 H 330.603 -3.71308 -3.39322 0
M  V30 3649 H 330.303 -5.27451 -2.58976 0
M  V30 3650 H 331.827 -5.01378 -3.485 0
M  V30 3651 H 333.241 -5.58667 -1.28699 0
M  V30 3652 H 331.638 -5.97137 -0.595627 0
M  V30 3653 H 332.708 -4.8423 0.254851 0
M  V30 3654 N 334.051 0.0651679 -1.57465 0
M  V30 3655 C 335.297 0.764193 -1.87851 0
M  V30 3656 C 335.63 1.76889 -0.801495 0
M  V30 3657 O 334.905 1.93594 0.187528 0
M  V30 3658 C 335.188 1.46625 -3.28897 0
M  V30 3659 C 335.041 0.477515 -4.47258 0
M  V30 3660 C 336.36 2.4095 -3.68281 0
M  V30 3661 H 333.479 0.276351 -0.683227 0
M  V30 3662 H 336.121 0.0272868 -1.8998 0
M  V30 3663 H 334.271 2.09438 -3.27212 0
M  V30 3664 H 335.943 -0.145922 -4.61069 0
M  V30 3665 H 334.186 -0.206576 -4.33308 0
M  V30 3666 H 334.857 1.0065 -5.42746 0
M  V30 3667 H 337.333 1.88209 -3.71102 0
M  V30 3668 H 336.209 2.87072 -4.67847 0
M  V30 3669 H 336.47 3.26049 -2.98571 0
M  V30 3670 N 335.529 1.53961 0.336706 0
M  V30 3671 C 336.439 1.85432 1.43708 0
M  V30 3672 C 337.455 0.745053 1.57242 0
M  V30 3673 O 338.631 1.03804 1.72588 0
M  V30 3674 C 335.696 2.06349 2.78605 0
M  V30 3675 C 334.757 3.30191 2.74358 0
M  V30 3676 C 333.99 3.50101 4.02822 0
M  V30 3677 O 334.213 2.7371 5.00439 0
M  V30 3678 O 333.147 4.43547 4.06878 0
M  V30 3679 H 336.973 2.78975 1.20028 0
M  V30 3680 H 334.558 1.39701 0.52952 0
M  V30 3681 H 336.44 2.21513 3.58483 0
M  V30 3682 H 335.115 1.15995 3.02203 0
M  V30 3683 H 334.022 3.20425 1.93078 0
M  V30 3684 H 335.355 4.2056 2.55715 0
M  V30 3685 N 337.007 -0.598083 1.45811 0
M  V30 3686 C 338.235 -1.38322 1.53866 0
M  V30 3687 C 338.65 -1.87992 0.174479 0
M  V30 3688 O 338.007 -1.62756 -0.825627 0
M  V30 3689 C 338.058 -2.58125 2.53089 0
M  V30 3690 O 337.779 -2.10516 3.84206 0
M  V30 3691 C 339.28 -3.50869 2.70935 0
M  V30 3692 H 336.5 -0.423093 0.520801 0
M  V30 3693 H 339.044 -0.728527 1.91083 0
M  V30 3694 H 337.199 -3.19615 2.18917 0
M  V30 3695 H 337.613 -2.88425 4.38077 0
M  V30 3696 H 339.087 -4.31451 3.44317 0
M  V30 3697 H 339.564 -4.01822 1.77301 0
M  V30 3698 H 340.17 -2.95225 3.06141 0
M  V30 3699 N 338.485 -1.33259 -0.841409 0
M  V30 3700 C 339.713 -1.27605 -1.62864 0
M  V30 3701 C 340.128 0.153507 -1.88175 0
M  V30 3702 O 339.485 1.09485 -1.46011 0
M  V30 3703 C 339.536 -2.04596 -2.98031 0
M  V30 3704 O 339.257 -3.41975 -2.73834 0
M  V30 3705 C 340.758 -2.06122 -3.92465 0
M  V30 3706 H 337.978 -0.439718 -0.506842 0
M  V30 3707 H 340.522 -1.75591 -1.04824 0
M  V30 3708 H 338.677 -1.60299 -3.5268 0
M  V30 3709 H 339.091 -3.81549 -3.59889 0
M  V30 3710 H 340.565 -2.64451 -4.84531 0
M  V30 3711 H 341.042 -1.05083 -4.26444 0
M  V30 3712 H 341.648 -2.50427 -3.43753 0
M  V30 3713 N 339.963 1.05934 -1.16686 0
M  V30 3714 C 340.893 2.1546 -0.899949 0
M  V30 3715 C 341.874 1.69391 0.155154 0
M  V30 3716 O 343.059 1.94199 0.00648693 0
M  V30 3717 C 340.189 3.44939 -0.404241 0
M  V30 3718 C 339.143 4.04536 -1.39767 0
M  V30 3719 C 338.469 5.29268 -0.760216 0
M  V30 3720 C 339.769 4.42893 -2.76845 0
M  V30 3721 H 341.463 2.38046 -1.81588 0
M  V30 3722 H 339.009 1.14404 -0.874514 0
M  V30 3723 H 340.962 4.20901 -0.204971 0
M  V30 3724 H 339.686 3.21983 0.547206 0
M  V30 3725 H 338.345 3.30635 -1.58355 0
M  V30 3726 H 337.993 5.02611 0.197831 0
M  V30 3727 H 337.693 5.70101 -1.42332 0
M  V30 3728 H 339.217 6.07924 -0.57105 0
M  V30 3729 H 340.631 5.09921 -2.62019 0
M  V30 3730 H 339.028 4.94721 -3.39663 0
M  V30 3731 H 340.098 3.53584 -3.31823 0
M  V30 3732 N 341.441 0.965919 1.2453 0
M  V30 3733 C 342.388 0.49402 2.25451 0
M  V30 3734 C 343.358 -0.45948 1.59618 0
M  V30 3735 O 344.543 -0.370238 1.87173 0
M  V30 3736 C 341.683 -0.211359 3.44452 0
M  V30 3737 C 340.796 0.7807 4.24887 0
M  V30 3738 C 339.931 0.0516105 5.31175 0
M  V30 3739 C 338.97 1.03385 6.03306 0
M  V30 3740 N 338.107 0.334887 7.01301 0
M  V30 3741 H 342.947 1.35946 2.65184 0
M  V30 3742 H 340.484 0.681515 1.3036 0
M  V30 3743 H 342.442 -0.637 4.12308 0
M  V30 3744 H 341.072 -1.04077 3.05562 0
M  V30 3745 H 340.124 1.32479 3.56586 0
M  V30 3746 H 341.436 1.52978 4.74762 0
M  V30 3747 H 340.59 -0.432114 6.05159 0
M  V30 3748 H 339.329 -0.730179 4.82203 0
M  V30 3749 H 338.334 1.52847 5.28127 0
M  V30 3750 H 339.559 1.81606 6.54367 0
M  V30 3751 H 337.505 -0.427959 6.54603 0
M  V30 3752 H 337.422 1.02287 7.49048 0
M  V30 3753 H 338.69 -0.126928 7.79397 0
M  V30 3754 N 342.919 -1.39368 0.735821 0
M  V30 3755 C 343.829 -2.34395 0.0979693 0
M  V30 3756 C 344.845 -1.58361 -0.720968 0
M  V30 3757 O 346.021 -1.90648 -0.649245 0
M  V30 3758 C 343.086 -3.37393 -0.797916 0
M  V30 3759 C 342.147 -4.29287 0.0333662 0
M  V30 3760 C 341.38 -5.27365 -0.819854 0
M  V30 3761 O 341.603 -5.31959 -2.05855 0
M  V30 3762 O 340.537 -6.01389 -0.248079 0
M  V30 3763 H 344.363 -2.90601 0.882315 0
M  V30 3764 H 341.948 -1.40909 0.4965 0
M  V30 3765 H 343.83 -4.00505 -1.31048 0
M  V30 3766 H 342.505 -2.83571 -1.56106 0
M  V30 3767 H 341.412 -3.69395 0.591475 0
M  V30 3768 H 342.745 -4.86317 0.758752 0
M  V30 3769 N 344.397 -0.483516 -1.5 0
M  V30 3770 C 345.625 0.0644831 -2.06799 0
M  V30 3771 C 346.04 1.32399 -1.34596 0
M  V30 3772 O 345.397 1.77626 -0.418946 0
M  V30 3773 C 345.448 0.339927 -3.59898 0
M  V30 3774 O 345.169 -0.869635 -4.29382 0
M  V30 3775 C 346.67 0.933515 -4.33359 0
M  V30 3776 H 343.89 -0.0126333 -0.670881 0
M  V30 3777 H 346.434 -0.675864 -1.93009 0
M  V30 3778 H 344.589 1.03022 -3.7345 0
M  V30 3779 H 345.003 -0.62179 -5.20801 0
M  V30 3780 H 346.477 1.07593 -5.41413 0
M  V30 3781 H 346.954 1.92685 -3.94676 0
M  V30 3782 H 347.56 0.281221 -4.24369 0
M  V30 3783 N 345.875 1.56104 -0.216619 0
M  V30 3784 C 346.785 2.23694 0.706982 0
M  V30 3785 C 347.801 1.24295 1.21765 0
M  V30 3786 O 348.977 1.57094 1.2603 0
M  V30 3787 C 346.042 2.8998 1.90033 0
M  V30 3788 C 345.103 4.04708 1.43213 0
M  V30 3789 C 344.336 4.67824 2.56859 0
M  V30 3790 O 344.559 4.29913 3.74874 0
M  V30 3791 O 343.493 5.56905 2.28343 0
M  V30 3792 H 347.319 3.03272 0.161235 0
M  V30 3793 H 344.904 1.49394 0.0136177 0
M  V30 3794 H 346.786 3.31837 2.59735 0
M  V30 3795 H 345.461 2.13365 2.43428 0
M  V30 3796 H 344.368 3.6743 0.70327 0
M  V30 3797 H 345.701 4.83051 0.944615 0
M  V30 3798 N 347.353 -0.0568162 1.57498 0
M  V30 3799 C 348.3 -1.06591 2.04712 0
M  V30 3800 C 349.27 -1.3758 0.930644 0
M  V30 3801 O 350.455 -1.48392 1.19935 0
M  V30 3802 C 347.595 -2.3701 2.50839 0
M  V30 3803 C 346.708 -2.12421 3.76167 0
M  V30 3804 C 345.843 -3.36511 4.11015 0
M  V30 3805 C 344.882 -3.07353 5.2934 0
M  V30 3806 N 344.019 -4.23816 5.59754 0
M  V30 3807 H 348.859 -0.65631 2.90683 0
M  V30 3808 H 346.396 -0.312481 1.43743 0
M  V30 3809 H 348.354 -3.13175 2.7564 0
M  V30 3810 H 346.984 -2.75744 1.67825 0
M  V30 3811 H 346.036 -1.2688 3.58616 0
M  V30 3812 H 347.348 -1.86894 4.62463 0
M  V30 3813 H 346.502 -4.21062 4.36797 0
M  V30 3814 H 345.241 -3.65128 3.23315 0
M  V30 3815 H 344.246 -2.212 5.03339 0
M  V30 3816 H 345.471 -2.80043 6.1867 0
M  V30 3817 H 343.417 -4.52436 4.75014 0
M  V30 3818 H 343.334 -4.01614 6.40501 0
M  V30 3819 H 344.602 -5.0932 5.90096 0
M  V30 3820 N 348.832 -1.54138 -0.328536 0
M  V30 3821 C 350.081 -1.71318 -1.06456 0
M  V30 3822 C 350.394 -0.491109 -1.89334 0
M  V30 3823 O 351.6 -0.54416 -2.65991 0
M  V30 3824 C 350.056 -3.03 -1.94214 0
M  V30 3825 C 349.664 -4.32595 -1.16471 0
M  V30 3826 C 351.408 -3.29544 -2.67583 0
M  V30 3827 C 349.315 -5.55341 -2.03347 0
M  V30 3828 H 348.245 -0.638429 -0.401155 0
M  V30 3829 H 350.896 -1.80633 -0.323106 0
M  V30 3830 H 349.278 -2.87579 -2.72239 0
M  V30 3831 H 350.452 -4.58766 -0.432525 0
M  V30 3832 H 348.767 -4.12777 -0.548063 0
M  V30 3833 H 351.364 -4.18444 -3.3288 0
M  V30 3834 H 351.707 -2.47206 -3.34955 0
M  V30 3835 H 352.24 -3.45809 -1.96623 0
M  V30 3836 H 348.979 -6.40268 -1.40491 0
M  V30 3837 H 348.499 -5.33397 -2.74313 0
M  V30 3838 H 350.178 -5.91557 -2.62049 0
M  V30 3839 N 350.31 0.590341 -1.46126 0
M  V30 3840 C 351.538 1.37504 -1.54597 0
M  V30 3841 C 351.953 1.87897 -0.184447 0
M  V30 3842 O 351.31 1.63192 0.816984 0
M  V30 3843 C 351.361 2.56779 -2.54454 0
M  V30 3844 O 351.082 2.08476 -3.85317 0
M  V30 3845 C 352.583 3.49427 -2.72792 0
M  V30 3846 H 349.803 0.420325 -0.523037 0
M  V30 3847 H 352.347 0.718383 -1.91467 0
M  V30 3848 H 350.502 3.1845 -2.20609 0
M  V30 3849 H 350.916 2.86097 -4.396 0
M  V30 3850 H 352.39 4.29619 -3.466 0
M  V30 3851 H 352.867 4.00876 -1.79429 0
M  V30 3852 H 353.473 2.93598 -3.07702 0
M  V30 3853 N 351.788 1.33704 0.83433 0
M  V30 3854 C 353.034 1.25603 1.59222 0
M  V30 3855 C 353.367 -0.176659 1.93395 0
M  V30 3856 O 352.642 -1.11915 1.59076 0
M  V30 3857 C 352.925 2.13576 2.89926 0
M  V30 3858 C 352.778 3.65326 2.62406 0
M  V30 3859 C 354.097 2.01238 3.91397 0
M  V30 3860 H 351.216 0.457613 0.577719 0
M  V30 3861 H 353.858 1.63848 0.961972 0
M  V30 3862 H 352.008 1.8109 3.43713 0
M  V30 3863 H 353.68 4.08124 2.15017 0
M  V30 3864 H 351.923 3.8698 1.96033 0
M  V30 3865 H 352.594 4.22232 3.55562 0
M  V30 3866 H 355.07 2.29738 3.46929 0
M  V30 3867 H 353.946 2.65036 4.80673 0
M  V30 3868 H 354.207 0.985951 4.30966 0
M  V30 3869 N 353.266 -1.05314 1.17247 0
M  V30 3870 C 354.506 -1.79869 0.970898 0
M  V30 3871 C 354.87 -1.85594 -0.491808 0
M  V30 3872 O 356.071 -2.56229 -0.812409 0
M  V30 3873 C 354.342 -3.19937 1.59295 0
M  V30 3874 S 355.901 -4.10986 1.53741 0
M  V30 3875 H 352.719 -0.61949 0.348931 0
M  V30 3876 H 355.321 -1.26368 1.49169 0
M  V30 3877 H 354.025 -3.13372 2.65003 0
M  V30 3878 H 353.556 -3.78515 1.07191 0
M  V30 3879 H 355.571 -4.93203 0.544537 0
M  V30 3880 N 354.744 -0.972509 -1.24016 0
M  V30 3881 C 355.992 -0.635776 -1.91839 0
M  V30 3882 C 356.313 0.832312 -1.76345 0
M  V30 3883 O 355.583 1.5946 -1.13795 0
M  V30 3884 H 354.163 -0.232157 -0.710009 0
M  V30 3885 H 356.825 -1.23462 -1.50809 0
M  V30 3886 H 355.921 -0.880545 -2.99421 0
M  V30 3887 N 356.222 1.38976 -0.743202 0
M  V30 3888 C 357.499 1.94351 -0.220705 0
M  V30 3889 C 357.879 1.67935 1.2791 0
M  V30 3890 O 357.227 1.01211 2.04862 0
M  V30 3891 C 357.437 3.44426 -0.563171 0
M  V30 3892 C 358.785 4.2144 -0.517046 0
M  V30 3893 O 359.809 3.52661 -0.500846 0
M  V30 3894 O 358.668 5.44032 -0.518806 0
M  V30 3895 H 355.762 0.825879 -0.043047 0
M  V30 3896 H 358.308 1.48429 -0.822618 0
M  V30 3897 H 357.08 3.5712 -1.59941 0
M  V30 3898 H 356.703 3.97543 0.0672883 0
M  V30 3899 N 357.7 0.491464 1.49741 0
M  V30 3900 C 358.928 -0.0535151 2.06831 0
M  V30 3901 C 359.343 -1.31683 1.35296 0
M  V30 3902 O 358.7 -1.77402 0.42836 0
M  V30 3903 C 358.751 -0.320835 3.60073 0
M  V30 3904 O 358.472 0.892394 4.28915 0
M  V30 3905 C 359.973 -0.910519 4.33848 0
M  V30 3906 H 357.193 0.0161909 0.670805 0
M  V30 3907 H 359.737 0.68609 1.92647 0
M  V30 3908 H 357.892 -1.0104 3.73991 0
M  V30 3909 H 358.306 0.649401 5.20464 0
M  V30 3910 H 359.78 -1.04721 5.41976 0
M  V30 3911 H 360.257 -1.90589 3.95692 0
M  V30 3912 H 360.863 -0.258712 4.24512 0
M  V30 3913 N 359.178 -1.55987 0.224894 0
M  V30 3914 C 360.128 -2.17076 -0.697296 0
M  V30 3915 C 361.112 -1.12006 -1.15514 0
M  V30 3916 O 362.304 -1.37985 -1.10857 0
M  V30 3917 C 359.433 -2.85679 -1.90374 0
M  V30 3918 C 358.519 -3.97977 -1.46543 0
M  V30 3919 N 358.91 -5.00359 -0.739909 0
M  V30 3920 C 357.208 -4.10128 -1.75245 0
M  V30 3921 C 357.909 -5.79407 -0.515939 0
M  V30 3922 N 356.885 -5.32892 -1.07364 0
M  V30 3923 H 360.687 -2.93592 -0.134594 0
M  V30 3924 H 358.201 -1.62379 0.0262885 0
M  V30 3925 H 360.198 -3.27857 -2.57518 0
M  V30 3926 H 358.858 -2.1066 -2.47088 0
M  V30 3927 H 359.869 -5.16412 -0.392253 0
M  V30 3928 H 356.546 -3.46263 -2.33255 0
M  V30 3929 H 357.936 -6.71872 0.0617349 0
M  V30 3930 N 360.656 0.0484629 -1.57525 0
M  V30 3931 C 361.904 0.741657 -1.88 0
M  V30 3932 C 362.225 1.76918 -0.820054 0
M  V30 3933 O 361.495 1.95335 0.148661 0
M  V30 3934 H 360.075 0.276908 -0.69378 0
M  V30 3935 H 362.737 0.019013 -1.94891 0
M  V30 3936 H 361.833 1.24336 -2.86264 0
M  V30 3937 N 362.134 1.5431 0.320358 0
M  V30 3938 C 363.066 1.80262 1.41556 0
M  V30 3939 C 364.079 0.684723 1.477 0
M  V30 3940 O 365.268 0.961886 1.50366 0
M  V30 3941 C 362.368 1.90825 2.8007 0
M  V30 3942 C 361.541 3.21023 2.97091 0
M  V30 3943 C 360.6 3.22247 4.15985 0
M  V30 3944 O 359.626 3.95871 4.08992 0
M  V30 3945 N 360.828 2.46258 5.25678 0
M  V30 3946 H 363.593 2.74778 1.19655 0
M  V30 3947 H 361.154 1.53646 0.510358 0
M  V30 3948 H 363.146 1.89067 3.57821 0
M  V30 3949 H 361.716 1.03392 2.95006 0
M  V30 3950 H 360.936 3.35715 2.06614 0
M  V30 3951 H 362.224 4.0698 3.05361 0
M  V30 3952 H 361.622 1.86037 5.34235 0
M  V30 3953 H 360.179 2.50275 6.01835 0
M  V30 3954 N 363.613 -0.582584 1.46437 0
M  V30 3955 C 364.86 -1.34079 1.51753 0
M  V30 3956 C 365.188 -1.93762 0.169299 0
M  V30 3957 O 364.443 -1.76989 -0.835062 0
M  V30 3958 C 364.742 -2.48964 2.56421 0
M  V30 3959 C 364.408 -2.07273 4.00436 0
M  V30 3960 C 363.07 -1.95618 4.39644 0
M  V30 3961 C 365.422 -1.75111 4.90903 0
M  V30 3962 C 362.75 -1.5006 5.67185 0
M  V30 3963 C 365.102 -1.31032 6.18881 0
M  V30 3964 C 363.766 -1.17954 6.56996 0
M  V30 3965 H 363.036 -0.49063 0.555304 0
M  V30 3966 H 365.683 -0.656007 1.79913 0
M  V30 3967 H 363.988 -3.22889 2.21923 0
M  V30 3968 H 365.685 -3.07178 2.57765 0
M  V30 3969 H 362.275 -2.17279 3.69443 0
M  V30 3970 H 366.459 -1.83001 4.61329 0
M  V30 3971 H 361.715 -1.38577 5.95488 0
M  V30 3972 H 365.889 -1.052 6.88408 0
M  V30 3973 H 363.516 -0.824279 7.55718 0
M  V30 3974 N 365.091 -1.34144 -0.827227 0
M  V30 3975 C 366.321 -1.29138 -1.61267 0
M  V30 3976 C 366.729 0.137597 -1.88699 0
M  V30 3977 O 366.072 1.09379 -1.47587 0
M  V30 3978 C 366.134 -2.0097 -2.9808 0
M  V30 3979 C 365.798 -3.50242 -2.93563 0
M  V30 3980 C 366.795 -4.4523 -2.68452 0
M  V30 3981 C 364.48 -3.92592 -3.13331 0
M  V30 3982 C 366.474 -5.80542 -2.63154 0
M  V30 3983 C 364.161 -5.28005 -3.07658 0
M  V30 3984 C 365.159 -6.21792 -2.82602 0
M  V30 3985 O 364.847 -7.54723 -2.76853 0
M  V30 3986 H 364.579 -0.445851 -0.508127 0
M  V30 3987 H 367.133 -1.77263 -1.03763 0
M  V30 3988 H 365.363 -1.47451 -3.57484 0
M  V30 3989 H 367.052 -1.89309 -3.5905 0
M  V30 3990 H 367.818 -4.13832 -2.52919 0
M  V30 3991 H 363.697 -3.19994 -3.31851 0
M  V30 3992 H 367.241 -6.53717 -2.43516 0
M  V30 3993 H 363.138 -5.59023 -3.22743 0
M  V30 3994 H 363.906 -7.64409 -2.92611 0
M  V30 3995 N 366.569 1.04691 -1.17803 0
M  V30 3996 C 367.846 1.7472 -0.879328 0
M  V30 3997 C 368.226 2.01812 0.619271 0
M  V30 3998 O 367.574 1.65824 1.57209 0
M  V30 3999 C 367.784 3.03686 -1.71976 0
M  V30 4000 C 369.132 3.77542 -1.94286 0
M  V30 4001 O 370.156 3.13569 -1.68976 0
M  V30 4002 O 369.015 4.92506 -2.36855 0
M  V30 4003 H 366.109 0.760011 -0.326056 0
M  V30 4004 H 368.655 1.10813 -1.28525 0
M  V30 4005 H 367.427 2.79754 -2.73594 0
M  V30 4006 H 367.05 3.75332 -1.31194 0
M  V30 4007 N 368.047 0.979072 1.23499 0
M  V30 4008 C 368.977 0.537606 2.27227 0
M  V30 4009 C 369.958 -0.428539 1.64613 0
M  V30 4010 O 371.143 -0.322191 1.91509 0
M  V30 4011 C 368.273 -0.162052 3.46922 0
M  V30 4012 C 367.227 0.721242 4.21879 0
M  V30 4013 C 366.553 -0.110555 5.34586 0
M  V30 4014 C 367.853 2.01141 4.82016 0
M  V30 4015 H 369.547 1.40462 2.64406 0
M  V30 4016 H 367.093 0.67684 1.27102 0
M  V30 4017 H 369.046 -0.482192 4.18632 0
M  V30 4018 H 367.77 -1.06351 3.08799 0
M  V30 4019 H 366.429 1.02482 3.51984 0
M  V30 4020 H 366.077 -1.0125 4.92704 0
M  V30 4021 H 365.777 0.477325 5.85658 0
M  V30 4022 H 367.301 -0.425107 6.09118 0
M  V30 4023 H 368.715 1.75612 5.45741 0
M  V30 4024 H 367.112 2.54695 5.43369 0
M  V30 4025 H 368.182 2.69909 4.02836 0
M  V30 4026 N 369.525 -1.3858 0.750561 0
M  V30 4027 C 370.455 -2.33102 0.136237 0
M  V30 4028 C 371.436 -1.54713 -0.706965 0
M  V30 4029 O 372.621 -1.83043 -0.648769 0
M  V30 4030 C 369.751 -3.38882 -0.760017 0
M  V30 4031 C 368.705 -4.27995 -0.0197785 0
M  V30 4032 C 368.031 -5.24605 -1.03408 0
M  V30 4033 C 369.331 -5.09554 1.14684 0
M  V30 4034 H 371.025 -2.84726 0.925822 0
M  V30 4035 H 368.571 -1.36898 0.446654 0
M  V30 4036 H 370.524 -4.0397 -1.19943 0
M  V30 4037 H 369.248 -2.85734 -1.58189 0
M  V30 4038 H 367.907 -3.64409 0.400184 0
M  V30 4039 H 367.555 -4.67746 -1.84994 0
M  V30 4040 H 367.255 -5.85081 -0.543464 0
M  V30 4041 H 368.779 -5.9257 -1.47288 0
M  V30 4042 H 370.193 -5.67899 0.785118 0
M  V30 4043 H 368.59 -5.7925 1.56812 0
M  V30 4044 H 369.66 -4.4347 1.96118 0
M  V30 4045 N 371.003 -0.499398 -1.49478 0
M  V30 4046 C 371.951 0.293604 -2.3074 0
M  V30 4047 C 372.945 0.96427 -1.39277 0
M  V30 4048 O 374.151 0.892141 -1.56336 0
M  V30 4049 H 370.526 0.113541 -0.743379 0
M  V30 4050 H 372.497 -0.411772 -2.95545 0
M  V30 4051 C 371.246 1.3462 -3.20582 0
M  V30 4052 H 370.569 0.83954 -3.90886 0
M  V30 4053 H 372.009 1.87308 -3.80384 0
M  V30 4054 C 370.468 2.36351 -2.40083 0
M  V30 4055 O 370.998 3.422 -2.10385 0
M  V30 4056 N 369.204 2.0878 -2.02137 0
M  V30 4057 H 368.751 1.22723 -2.26488 0
M  V30 4058 H 368.709 2.77075 -1.48583 0
M  V30 4059 N 372.481 1.55866 -0.233164 0
M  V30 4060 C 373.73 1.97779 0.39579 0
M  V30 4061 C 374.043 1.12419 1.60066 0
M  V30 4062 O 375.249 1.44283 2.29988 0
M  V30 4063 C 373.705 3.5188 0.755556 0
M  V30 4064 C 373.313 4.45959 -0.427152 0
M  V30 4065 C 375.057 4.02479 1.34946 0
M  V30 4066 C 372.964 5.91383 -0.0443043 0
M  V30 4067 H 371.894 0.738592 0.15165 0
M  V30 4068 H 374.545 1.80486 -0.331212 0
M  V30 4069 H 372.927 3.64816 1.5403 0
M  V30 4070 H 374.101 4.44776 -1.20462 0
M  V30 4071 H 372.416 4.05765 -0.935068 0
M  V30 4072 H 375.013 5.08637 1.649 0
M  V30 4073 H 375.356 3.49014 2.26925 0
M  V30 4074 H 375.889 3.92813 0.62791 0
M  V30 4075 H 372.628 6.48857 -0.930874 0
M  V30 4076 H 372.148 5.95734 0.697238 0
M  V30 4077 H 373.827 6.45893 0.378334 0
M  V30 4078 N 373.959 -0.0401083 1.57549 0
M  V30 4079 C 375.206 -0.733125 1.88763 0
M  V30 4080 C 375.534 -1.75946 0.829058 0
M  V30 4081 O 374.789 -1.94949 -0.171323 0
M  V30 4082 C 375.088 -1.44902 3.26708 0
M  V30 4083 C 374.754 -0.559707 4.47413 0
M  V30 4084 C 373.416 -0.314731 4.8017 0
M  V30 4085 C 375.768 0.0549743 5.21171 0
M  V30 4086 C 373.096 0.553886 5.8408 0
M  V30 4087 C 375.448 0.911229 6.26003 0
M  V30 4088 C 374.112 1.16577 6.57241 0
M  V30 4089 H 373.382 -0.268269 0.690733 0
M  V30 4090 H 376.029 0.00679408 1.91499 0
M  V30 4091 H 374.334 -2.26197 3.1991 0
M  V30 4092 H 376.031 -1.99058 3.48105 0
M  V30 4093 H 372.621 -0.760793 4.21794 0
M  V30 4094 H 376.805 -0.121344 4.96152 0
M  V30 4095 H 372.061 0.759518 6.06664 0
M  V30 4096 H 376.235 1.3941 6.82303 0
M  V30 4097 H 373.862 1.84058 7.37582 0
M  V30 4098 N 375.437 -1.54477 -0.31217 0
M  V30 4099 C 376.347 -1.87695 -1.4074 0
M  V30 4100 C 377.363 -0.769975 -1.56036 0
M  V30 4101 O 378.539 -1.06537 -1.70915 0
M  V30 4102 C 375.604 -2.10755 -2.75287 0
M  V30 4103 C 374.665 -3.34514 -2.69071 0
M  V30 4104 C 373.898 -3.56465 -3.97201 0
M  V30 4105 O 374.121 -2.81637 -4.96021 0
M  V30 4106 O 373.055 -4.49964 -3.9977 0
M  V30 4107 H 376.881 -2.80849 -1.15574 0
M  V30 4108 H 374.466 -1.40526 -0.507228 0
M  V30 4109 H 376.348 -2.27188 -3.54913 0
M  V30 4110 H 375.023 -1.20788 -3.0032 0
M  V30 4111 H 373.93 -3.23456 -1.87955 0
M  V30 4112 H 375.263 -4.24575 -2.48992 0
M  V30 4113 N 376.915 0.57481 -1.46744 0
M  V30 4114 C 377.845 1.69337 -1.60771 0
M  V30 4115 C 378.826 1.63825 -0.457736 0
M  V30 4116 O 380.011 1.8172 -0.684947 0
M  V30 4117 C 377.141 3.0798 -1.60517 0
M  V30 4118 C 376.095 3.28327 -2.74564 0
M  V30 4119 C 375.421 4.67578 -2.59373 0
M  V30 4120 C 376.721 3.15398 -4.16319 0
M  V30 4121 H 378.415 1.57853 -2.54407 0
M  V30 4122 H 375.961 0.75799 -1.22436 0
M  V30 4123 H 377.914 3.86061 -1.68923 0
M  V30 4124 H 376.638 3.20381 -0.634305 0
M  V30 4125 H 375.297 2.52649 -2.65639 0
M  V30 4126 H 374.945 4.76755 -1.60353 0
M  V30 4127 H 374.645 4.82144 -3.35873 0
M  V30 4128 H 376.169 5.47817 -2.69682 0
M  V30 4129 H 377.583 3.83315 -4.26313 0
M  V30 4130 H 375.98 3.41482 -4.93468 0
M  V30 4131 H 377.05 2.12372 -4.3592 0
M  V30 4132 N 378.394 1.34581 0.820102 0
M  V30 4133 C 379.342 1.26401 1.95258 0
M  V30 4134 C 380.336 0.161553 1.68628 0
M  V30 4135 O 381.542 0.326703 1.7701 0
M  V30 4136 H 377.917 0.392749 0.64129 0
M  V30 4137 H 379.888 2.22105 1.99279 0
M  V30 4138 C 378.637 1.03919 3.31807 0
M  V30 4139 H 377.96 1.87984 3.52848 0
M  V30 4140 H 379.4 1.02232 4.11491 0
M  V30 4141 C 377.859 -0.257433 3.35915 0
M  V30 4142 O 378.389 -1.25784 3.81499 0
M  V30 4143 N 376.595 -0.291524 2.89134 0
M  V30 4144 H 376.142 0.523161 2.52232 0
M  V30 4145 H 376.1 -1.15883 2.92264 0
M  V30 4146 N 379.872 -1.04064 1.18357 0
M  V30 4147 C 381.12 -1.76915 0.977013 0
M  V30 4148 C 381.441 -1.88624 -0.494577 0
M  V30 4149 O 380.711 -1.41125 -1.3587 0
M  V30 4150 H 379.291 -0.65535 0.358504 0
M  V30 4151 H 381.953 -1.25592 1.49039 0
M  V30 4152 H 381.049 -2.78178 1.41504 0
M  V30 4153 N 381.35 -0.985608 -1.22978 0
M  V30 4154 C 382.28 -0.549649 -2.26939 0
M  V30 4155 C 383.261 0.419803 -1.64838 0
M  V30 4156 O 384.446 0.31203 -1.91677 0
M  V30 4157 C 381.576 0.143652 -3.47003 0
M  V30 4158 C 380.53 -0.743606 -4.21491 0
M  V30 4159 C 379.856 0.0822027 -5.34637 0
M  V30 4160 C 381.156 -2.03694 -4.80943 0
M  V30 4161 H 382.85 -1.41862 -2.63658 0
M  V30 4162 H 380.396 -0.683571 -1.26741 0
M  V30 4163 H 382.349 0.459985 -4.18882 0
M  V30 4164 H 381.073 1.04711 -3.09359 0
M  V30 4165 H 379.732 -1.04347 -3.51436 0
M  V30 4166 H 379.38 0.986359 -4.93234 0
M  V30 4167 H 379.08 -0.508377 -5.85397 0
M  V30 4168 H 380.604 0.392797 -6.09335 0
M  V30 4169 H 382.018 -1.78504 -5.44802 0
M  V30 4170 H 380.415 -2.57573 -5.42011 0
M  V30 4171 H 381.485 -2.72042 -4.01399 0
M  V30 4172 N 382.828 1.3818 -0.7579 0
M  V30 4173 C 384.239 1.82726 -0.383134 0
M  V30 4174 C 384.59 1.63214 1.08884 0
M  V30 4175 O 383.715 1.13566 1.84205 0
M  V30 4176 C 384.31 3.31728 -0.688631 0
M  V30 4177 C 382.869 3.74606 -0.367091 0
M  V30 4178 C 382.016 2.60896 -0.939599 0
M  V30 4179 H 384.967 1.26847 -0.953699 0
M  V30 4180 H 384.988 3.80487 0.0316492 0
M  V30 4181 H 384.5 3.45898 -1.76001 0
M  V30 4182 H 382.601 3.66013 0.697532 0
M  V30 4183 H 382.714 4.71215 -0.865658 0
M  V30 4184 H 381.078 2.52075 -0.3647 0
M  V30 4185 H 381.861 2.77864 -2.0161 0
M  V30 4186 N 384.306 0.507319 1.49211 0
M  V30 4187 C 385.531 -0.033725 2.07373 0
M  V30 4188 C 385.956 -1.29485 1.36437 0
M  V30 4189 O 385.314 -1.76294 0.423087 0
M  V30 4190 C 385.362 -0.263945 3.59633 0
M  V30 4191 O 384.466 -1.33737 3.90113 0
M  V30 4192 H 383.807 0.0290331 0.663365 0
M  V30 4193 H 386.337 0.708749 1.91932 0
M  V30 4194 H 386.347 -0.493536 4.05004 0
M  V30 4195 H 385.022 0.657424 4.10671 0
M  V30 4196 H 383.599 -1.09224 3.56545 0
M  V30 4197 N 385.784 -1.5574 0.241426 0
M  V30 4198 C 386.694 -2.2479 -0.671305 0
M  V30 4199 C 387.71 -1.26217 -1.19772 0
M  V30 4200 O 388.886 -1.59079 -1.23514 0
M  V30 4201 C 385.951 -2.92966 -1.85396 0
M  V30 4202 C 385.012 -4.06935 -1.36756 0
M  V30 4203 C 384.245 -4.71851 -2.49384 0
M  V30 4204 O 384.468 -4.35823 -3.67987 0
M  V30 4205 O 383.402 -5.60467 -2.19454 0
M  V30 4206 H 387.228 -3.0349 -0.112966 0
M  V30 4207 H 384.813 -1.49397 0.0101513 0
M  V30 4208 H 386.695 -3.35927 -2.54423 0
M  V30 4209 H 385.37 -2.17211 -2.40002 0
M  V30 4210 H 384.277 -3.68503 -0.644726 0
M  V30 4211 H 385.61 -4.84492 -0.867647 0
M  V30 4212 N 387.262 0.0317525 -1.57568 0
M  V30 4213 C 388.49 0.734949 -1.93407 0
M  V30 4214 C 388.905 1.69036 -0.84096 0
M  V30 4215 O 388.262 1.81582 0.182836 0
M  V30 4216 C 388.313 1.49432 -3.29169 0
M  V30 4217 O 388.034 0.577261 -4.3428 0
M  V30 4218 C 389.535 2.29492 -3.79273 0
M  V30 4219 H 386.755 0.206706 -0.638368 0
M  V30 4220 H 389.299 -0.00992046 -2.04498 0
M  V30 4221 H 387.454 2.1911 -3.19483 0
M  V30 4222 H 387.868 1.10952 -5.1263 0
M  V30 4223 H 389.342 2.78172 -4.76785 0
M  V30 4224 H 389.819 3.10794 -3.10328 0
M  V30 4225 H 390.425 1.64894 -3.92033 0
M  V30 4226 N 388.74 1.54641 0.303973 0
M  V30 4227 C 389.688 1.86137 1.39484 0
M  V30 4228 C 390.682 0.734854 1.52631 0
M  V30 4229 O 391.888 0.918803 1.54784 0
M  V30 4230 H 388.263 0.590324 0.465856 0
M  V30 4231 H 390.234 2.77324 1.10154 0
M  V30 4232 C 388.983 2.12274 2.75382 0
M  V30 4233 H 388.306 2.98429 2.66046 0
M  V30 4234 H 389.746 2.38254 3.5073 0
M  V30 4235 C 388.205 0.920365 3.24085 0
M  V30 4236 O 388.735 0.139377 4.01458 0
M  V30 4237 N 386.941 0.726566 2.81371 0
M  V30 4238 H 386.488 1.36332 2.18567 0
M  V30 4239 H 386.446 -0.0763799 3.14307 0
M  V30 4240 N 390.218 -0.567019 1.47046 0
M  V30 4241 C 391.629 -1.14916 1.47143 0
M  V30 4242 C 391.98 -1.94954 0.220767 0
M  V30 4243 O 391.105 -2.05602 -0.67505 0
M  V30 4244 C 391.7 -2.09069 2.666 0
M  V30 4245 C 390.259 -2.62575 2.69687 0
M  V30 4246 C 389.406 -1.38755 2.40088 0
M  V30 4247 H 392.357 -0.354126 1.54699 0
M  V30 4248 H 392.378 -2.92789 2.43011 0
M  V30 4249 H 391.89 -1.50789 3.57609 0
M  V30 4250 H 389.991 -3.24681 1.82792 0
M  V30 4251 H 390.104 -3.04239 3.70102 0
M  V30 4252 H 388.468 -1.69098 1.90468 0
M  V30 4253 H 389.251 -0.822822 3.33293 0
M  V30 4254 N 391.696 -1.35014 -0.812953 0
M  V30 4255 C 392.926 -1.30841 -1.59888 0
M  V30 4256 C 393.334 0.117576 -1.88834 0
M  V30 4257 O 392.677 1.07807 -1.48739 0
M  V30 4258 C 392.739 -2.0412 -2.95931 0
M  V30 4259 C 392.403 -3.53336 -2.89832 0
M  V30 4260 C 393.4 -4.48052 -2.63714 0
M  V30 4261 C 391.085 -3.95894 -3.0915 0
M  V30 4262 C 393.079 -5.833 -2.56982 0
M  V30 4263 C 390.766 -5.31239 -3.0204 0
M  V30 4264 C 391.764 -6.24754 -2.75991 0
M  V30 4265 O 391.452 -7.57617 -2.68833 0
M  V30 4266 H 391.184 -0.451215 -0.50337 0
M  V30 4267 H 393.738 -1.78354 -1.01877 0
M  V30 4268 H 391.968 -1.51235 -3.559 0
M  V30 4269 H 393.657 -1.93107 -3.57022 0
M  V30 4270 H 394.423 -4.16492 -2.48515 0
M  V30 4271 H 390.302 -3.23495 -3.28438 0
M  V30 4272 H 393.846 -6.56263 -2.36569 0
M  V30 4273 H 389.743 -5.62415 -3.16796 0
M  V30 4274 H 390.511 -7.67469 -2.84487 0
M  V30 4275 N 393.175 1.03435 -1.18907 0
M  V30 4276 C 394.424 1.76143 -0.982669 0
M  V30 4277 C 394.737 1.89416 0.487953 0
M  V30 4278 O 395.943 2.59041 0.813036 0
M  V30 4279 C 394.399 3.16722 -1.70924 0
M  V30 4280 C 394.007 3.11522 -3.21959 0
M  V30 4281 C 395.751 3.93764 -1.58588 0
M  V30 4282 C 393.658 4.46999 -3.87228 0
M  V30 4283 H 392.588 0.660292 -0.364047 0
M  V30 4284 H 395.239 1.158 -1.42347 0
M  V30 4285 H 393.621 3.775 -1.19623 0
M  V30 4286 H 394.795 2.60158 -3.80335 0
M  V30 4287 H 393.11 2.47978 -3.34508 0
M  V30 4288 H 395.707 4.93963 -2.04707 0
M  V30 4289 H 396.05 4.12794 -0.539142 0
M  V30 4290 H 396.583 3.39576 -2.07203 0
M  V30 4291 H 393.322 4.33174 -4.91976 0
M  V30 4292 H 392.842 4.98441 -3.33642 0
M  V30 4293 H 394.521 5.15898 -3.90459 0
M  V30 4294 N 394.653 0.992116 1.22453 0
M  V30 4295 C 395.9 0.667534 1.91181 0
M  V30 4296 C 396.228 -0.800317 1.77271 0
M  V30 4297 O 395.483 -1.59421 1.13505 0
M  V30 4298 C 395.782 1.01832 3.42586 0
M  V30 4299 C 395.448 2.47831 3.76684 0
M  V30 4300 C 394.11 2.87729 3.85701 0
M  V30 4301 C 396.462 3.42466 3.92895 0
M  V30 4302 C 393.79 4.21252 4.08367 0
M  V30 4303 C 396.142 4.75648 4.17064 0
M  V30 4304 C 394.806 5.15288 4.24305 0
M  V30 4305 H 394.076 0.244268 0.699581 0
M  V30 4306 H 396.723 1.24816 1.45235 0
M  V30 4307 H 395.028 0.355769 3.90181 0
M  V30 4308 H 396.725 0.745228 3.94014 0
M  V30 4309 H 393.315 2.15905 3.70247 0
M  V30 4310 H 397.499 3.12814 3.85307 0
M  V30 4311 H 392.755 4.51554 4.122 0
M  V30 4312 H 396.929 5.48924 4.2855 0
M  V30 4313 H 394.556 6.18769 4.41621 0
M  V30 4314 N 396.131 -1.37776 0.765217 0
M  V30 4315 C 397.079 -2.32209 0.134798 0
M  V30 4316 C 398.073 -1.54607 -0.692315 0
M  V30 4317 O 399.279 -1.70052 -0.590109 0
M  V30 4318 H 395.654 -0.751591 0.0248005 0
M  V30 4319 H 397.625 -2.8297 0.947119 0
M  V30 4320 C 396.374 -3.39841 -0.735063 0
M  V30 4321 H 395.697 -3.99654 -0.107991 0
M  V30 4322 H 397.137 -4.08296 -1.14326 0
M  V30 4323 C 395.596 -2.79378 -1.88281 0
M  V30 4324 O 396.126 -2.69608 -2.97783 0
M  V30 4325 N 394.332 -2.37016 -1.68142 0
M  V30 4326 H 393.879 -2.45162 -0.790772 0
M  V30 4327 H 393.837 -1.96905 -2.45104 0
M  V30 4328 N 397.609 -0.515225 -1.4894 0
M  V30 4329 C 398.857 0.0241671 -2.02086 0
M  V30 4330 C 399.178 1.3616 -1.3959 0
M  V30 4331 O 398.448 1.87841 -0.556121 0
M  V30 4332 H 397.028 0.0119203 -0.746905 0
M  V30 4333 H 399.69 -0.675702 -1.82812 0
M  V30 4334 H 398.786 0.143385 -3.1177 0
M  V30 4335 N 399.087 1.5561 -0.249682 0
M  V30 4336 C 400.364 1.90932 0.424761 0
M  V30 4337 C 400.744 1.17078 1.75658 0
M  V30 4338 O 400.092 0.289176 2.26663 0
M  V30 4339 C 400.302 3.43975 0.590109 0
M  V30 4340 C 401.65 4.15281 0.884714 0
M  V30 4341 O 402.674 3.49729 0.67587 0
M  V30 4342 O 401.533 5.31236 1.28259 0
M  V30 4343 H 398.627 0.794815 0.228468 0
M  V30 4344 H 401.173 1.67135 -0.293954 0
M  V30 4345 H 399.945 3.89748 -0.34818 0
M  V30 4346 H 399.568 3.73644 1.35926 0
M  V30 4347 N 400.565 -0.0233959 1.57583 0
M  V30 4348 C 401.812 -0.713063 1.8953 0
M  V30 4349 C 402.14 -1.75056 0.847673 0
M  V30 4350 O 401.395 -1.95119 -0.150636 0
M  V30 4351 C 401.694 -1.41428 3.28227 0
M  V30 4352 C 401.36 -0.512222 4.47981 0
M  V30 4353 C 400.022 -0.263785 4.80476 0
M  V30 4354 C 402.374 0.110248 5.21083 0
M  V30 4355 C 399.702 0.615804 5.83459 0
M  V30 4356 C 402.054 0.977573 6.25001 0
M  V30 4357 C 400.718 1.23542 6.55968 0
M  V30 4358 H 399.988 -0.260928 0.69354 0
M  V30 4359 H 402.635 0.0271047 1.91481 0
M  V30 4360 H 400.94 -2.22791 3.22291 0
M  V30 4361 H 402.637 -1.95355 3.50196 0
M  V30 4362 H 399.227 -0.716013 4.22577 0
M  V30 4363 H 403.411 -0.0687137 4.96252 0
M  V30 4364 H 398.667 0.82382 6.05824 0
M  V30 4365 H 402.841 1.46638 6.80786 0
M  V30 4366 H 400.468 1.91871 7.35588 0
M  V30 4367 N 402.043 -1.548 -0.295768 0
M  V30 4368 C 403.289 -1.74588 -1.03184 0
M  V30 4369 C 403.622 -0.532962 -1.86744 0
M  V30 4370 O 402.897 0.469872 -1.88739 0
M  V30 4371 C 403.18 -3.03791 -1.93347 0
M  V30 4372 C 403.033 -4.35392 -1.12933 0
M  V30 4373 C 404.352 -3.28892 -2.92435 0
M  V30 4374 H 401.471 -0.635221 -0.373715 0
M  V30 4375 H 404.113 -1.87519 -0.30606 0
M  V30 4376 H 402.263 -2.92898 -2.55232 0
M  V30 4377 H 403.935 -4.58211 -0.532943 0
M  V30 4378 H 402.178 -4.31642 -0.432168 0
M  V30 4379 H 402.849 -5.22074 -1.79284 0
M  V30 4380 H 405.325 -3.39429 -2.4068 0
M  V30 4381 H 404.201 -4.20603 -3.52682 0
M  V30 4382 H 404.462 -2.47437 -3.6637 0
M  V30 4383 N 403.521 0.559213 -1.47345 0
M  V30 4384 C 404.798 1.31997 -1.44348 0
M  V30 4385 C 405.178 2.1064 -0.139358 0
M  V30 4386 O 404.526 2.1091 0.879153 0
M  V30 4387 C 404.736 2.22618 -2.68779 0
M  V30 4388 C 406.084 2.83701 -3.1591 0
M  V30 4389 O 407.108 2.32921 -2.69493 0
M  V30 4390 O 405.967 3.75993 -3.966 0
M  V30 4391 H 403.061 0.594251 -0.575147 0
M  V30 4392 H 405.607 0.578282 -1.59543 0
M  V30 4393 H 404.379 1.64093 -3.55231 0
M  V30 4394 H 404.002 3.04085 -2.5616 0
M  V30 4395 N 404.999 1.35443 0.805782 0
M  V30 4396 C 406.415 1.15499 1.10146 0
M  V30 4397 C 406.615 -0.0319975 2.01475 0
M  V30 4398 O 405.671 -0.70236 2.42535 0
M  V30 4399 C 406.984 2.45833 1.73166 0
M  V30 4400 C 408.532 2.52047 1.85583 0
M  V30 4401 C 409.007 3.82427 2.52019 0
M  V30 4402 N 410.498 3.83682 2.59504 0
M  V30 4403 C 411.233 4.81294 3.11679 0
M  V30 4404 N 410.729 5.89294 3.64287 0
M  V30 4405 N 412.522 4.6873 3.1024 0
M  V30 4406 H 404.673 2.11469 0.198678 0
M  V30 4407 H 406.936 0.93594 0.150731 0
M  V30 4408 H 406.642 3.32874 1.13526 0
M  V30 4409 H 406.516 2.6044 2.72857 0
M  V30 4410 H 408.903 1.65435 2.44367 0
M  V30 4411 H 408.984 2.41354 0.847455 0
M  V30 4412 H 408.628 4.69437 1.93885 0
M  V30 4413 H 408.558 3.90409 3.53395 0
M  V30 4414 H 411.049 3.05648 2.22234 0
M  V30 4415 H 411.362 6.59768 4.02401 0
M  V30 4416 H 409.707 5.92985 3.62483 0
M  V30 4417 H 412.898 3.83496 2.68419 0
M  V30 4418 H 413.071 5.44965 3.50596 0
M  V30 4419 N 406.477 -1.02803 1.19454 0
M  V30 4420 C 407.725 -1.75869 0.995722 0
M  V30 4421 C 408.046 -1.89138 -0.474543 0
M  V30 4422 O 407.316 -1.42558 -1.34366 0
M  V30 4423 H 405.896 -0.651511 0.365435 0
M  V30 4424 H 408.558 -1.24004 1.50363 0
M  V30 4425 H 407.654 -2.76661 1.44447 0
M  V30 4426 N 407.956 -0.998596 -1.21925 0
M  V30 4427 C 409.181 -0.696015 -1.95372 0
M  V30 4428 C 409.606 0.733826 -1.73195 0
M  V30 4429 O 408.964 1.50242 -1.01474 0
M  V30 4430 C 409.012 -1.01466 -3.4603 0
M  V30 4431 O 408.116 -0.116415 -4.12236 0
M  V30 4432 H 407.457 -0.259938 -0.611006 0
M  V30 4433 H 409.987 -1.33711 -1.54863 0
M  V30 4434 H 409.997 -0.958855 -3.96573 0
M  V30 4435 H 408.672 -2.05653 -3.61497 0
M  V30 4436 H 407.249 -0.228193 -3.72201 0
M  V30 4437 N 409.434 1.37368 -0.772513 0
M  V30 4438 C 410.681 1.99673 -0.337182 0
M  V30 4439 C 411.009 1.61324 1.0865 0
M  V30 4440 O 410.264 0.851377 1.7621 0
M  V30 4441 C 410.563 3.54817 -0.428876 0
M  V30 4442 C 410.229 4.12936 -1.81092 0
M  V30 4443 C 408.891 4.28523 -2.1891 0
M  V30 4444 C 411.243 4.44801 -2.71664 0
M  V30 4445 C 408.571 4.73277 -3.46735 0
M  V30 4446 C 410.923 4.90981 -3.98899 0
M  V30 4447 C 409.587 5.04773 -4.36761 0
M  V30 4448 H 408.857 0.730656 -0.123384 0
M  V30 4449 H 411.504 1.64124 -0.986686 0
M  V30 4450 H 409.809 3.90618 0.304167 0
M  V30 4451 H 411.506 4.00933 -0.0733334 0
M  V30 4452 H 408.096 4.01233 -1.50699 0
M  V30 4453 H 412.28 4.32344 -2.43706 0
M  V30 4454 H 407.536 4.82142 -3.75964 0
M  V30 4455 H 411.71 5.14603 -4.69208 0
M  V30 4456 H 409.337 5.39211 -5.35868 0
M  V30 4457 N 410.912 0.523116 1.48665 0
M  V30 4458 C 412.137 -0.0117284 2.07397 0
M  V30 4459 C 412.562 -1.28031 1.37803 0
M  V30 4460 O 411.92 -1.75836 0.441762 0
M  V30 4461 C 411.968 -0.225786 3.59892 0
M  V30 4462 O 411.072 -1.29592 3.91509 0
M  V30 4463 H 410.413 0.0360673 0.66302 0
M  V30 4464 H 412.943 0.729066 1.9117 0
M  V30 4465 H 412.953 -0.450552 4.05505 0
M  V30 4466 H 411.628 0.700944 4.09951 0
M  V30 4467 H 410.205 -1.05436 3.57684 0
M  V30 4468 N 412.39 -1.55475 0.257931 0
M  V30 4469 C 413.636 -1.99502 -0.364266 0
M  V30 4470 C 413.969 -1.146 -1.56782 0
M  V30 4471 O 413.244 -0.211968 -1.93342 0
M  V30 4472 C 413.527 -3.51917 -0.763333 0
M  V30 4473 C 413.38 -4.4758 0.446371 0
M  V30 4474 C 414.699 -4.09742 -1.60623 0
M  V30 4475 H 411.818 -0.725277 -0.130929 0
M  V30 4476 H 414.46 -1.8653 0.361446 0
M  V30 4477 H 412.61 -3.63101 -1.38166 0
M  V30 4478 H 414.282 -4.48362 1.08487 0
M  V30 4479 H 412.525 -4.19947 1.08753 0
M  V30 4480 H 413.196 -5.51862 0.123645 0
M  V30 4481 H 415.672 -4.01727 -1.08418 0
M  V30 4482 H 414.548 -5.16631 -1.85429 0
M  V30 4483 H 414.809 -3.58889 -2.58169 0
M  V30 4484 N 413.868 0.0150385 -1.57593 0
M  V30 4485 C 414.778 1.02791 -2.10882 0
M  V30 4486 C 415.794 1.38702 -1.0506 0
M  V30 4487 O 416.97 1.47739 -1.36877 0
M  V30 4488 C 414.035 2.30568 -2.58919 0
M  V30 4489 C 413.096 2.01108 -3.79281 0
M  V30 4490 C 412.329 3.22794 -4.25018 0
M  V30 4491 O 412.552 4.33959 -3.70183 0
M  V30 4492 O 411.486 3.07672 -5.17322 0
M  V30 4493 H 415.312 0.604973 -2.97613 0
M  V30 4494 H 412.897 0.23292 -1.47573 0
M  V30 4495 H 414.779 3.05662 -2.90084 0
M  V30 4496 H 413.454 2.72129 -1.75293 0
M  V30 4497 H 412.361 1.23537 -3.53114 0
M  V30 4498 H 413.694 1.64394 -4.63935 0
M  V30 4499 N 415.346 1.54954 0.287554 0
M  V30 4500 C 416.592 1.75132 1.02257 0
M  V30 4501 C 416.925 0.542858 1.86458 0
M  V30 4502 O 416.2 -0.459856 1.88986 0
M  V30 4503 C 416.483 3.04812 1.91733 0
M  V30 4504 C 416.336 4.35985 1.10622 0
M  V30 4505 C 417.655 3.30438 2.90687 0
M  V30 4506 H 414.774 0.637194 0.370341 0
M  V30 4507 H 417.416 1.87678 0.296111 0
M  V30 4508 H 415.566 2.94247 2.53675 0
M  V30 4509 H 417.238 4.58487 0.508636 0
M  V30 4510 H 415.481 4.31865 0.409271 0
M  V30 4511 H 416.152 5.23017 1.76513 0
M  V30 4512 H 418.628 3.40701 2.38877 0
M  V30 4513 H 417.504 4.22467 3.50447 0
M  V30 4514 H 417.765 2.49377 3.65053 0
M  V30 4515 N 416.824 -0.551391 1.4764 0
M  V30 4516 C 418.073 -1.30467 1.53822 0
M  V30 4517 C 418.386 -1.94495 0.207661 0
M  V30 4518 O 419.592 -2.71099 0.147533 0
M  V30 4519 C 418.048 -2.36616 2.71184 0
M  V30 4520 C 417.656 -1.78754 4.10793 0
M  V30 4521 C 419.4 -3.13088 2.86663 0
M  V30 4522 C 417.307 -2.82717 5.19447 0
M  V30 4523 H 416.237 -0.490584 0.572576 0
M  V30 4524 H 418.888 -0.58494 1.73927 0
M  V30 4525 H 417.27 -3.11529 2.4447 0
M  V30 4526 H 418.444 -1.10173 4.47435 0
M  V30 4527 H 416.759 -1.14846 4.00249 0
M  V30 4528 H 419.356 -3.90736 3.65007 0
M  V30 4529 H 419.699 -3.67635 1.95321 0
M  V30 4530 H 420.232 -2.45288 3.13175 0
M  V30 4531 H 416.971 -2.33018 6.12685 0
M  V30 4532 H 416.491 -3.4969 4.87316 0
M  V30 4533 H 418.17 -3.46102 5.46646 0
M  V30 4534 N 418.302 -1.35869 -0.798587 0
M  V30 4535 C 419.232 -1.32118 -1.92528 0
M  V30 4536 C 420.213 -0.194209 -1.68988 0
M  V30 4537 O 421.398 -0.390426 -1.90235 0
M  V30 4538 C 418.528 -1.10047 -3.29404 0
M  V30 4539 C 417.482 -2.19471 -3.67446 0
M  V30 4540 C 416.808 -1.82555 -5.02571 0
M  V30 4541 C 418.108 -3.61495 -3.76987 0
M  V30 4542 H 419.802 -2.26394 -1.95924 0
M  V30 4543 H 417.348 -1.08981 -0.94123 0
M  V30 4544 H 419.301 -1.06061 -4.07835 0
M  V30 4545 H 418.025 -0.122195 -3.26371 0
M  V30 4546 H 416.684 -2.22568 -2.91306 0
M  V30 4547 H 416.332 -0.833249 -4.9605 0
M  V30 4548 H 416.032 -2.5581 -5.28995 0
M  V30 4549 H 417.556 -1.80108 -5.83432 0
M  V30 4550 H 418.97 -3.60676 -4.4563 0
M  V30 4551 H 417.367 -4.33577 -4.14887 0
M  V30 4552 H 418.437 -3.97065 -2.78329 0
M  V30 4553 N 419.78 1.02168 -1.19998 0
M  V30 4554 C 421.008 1.79296 -1.03249 0
M  V30 4555 C 421.423 1.84103 0.418502 0
M  V30 4556 O 420.78 1.29031 1.29063 0
M  V30 4557 C 420.831 3.24007 -1.60319 0
M  V30 4558 O 420.552 3.19512 -2.99739 0
M  V30 4559 C 422.053 4.17704 -1.48453 0
M  V30 4560 H 419.273 0.564016 -0.363493 0
M  V30 4561 H 421.817 1.28639 -1.58973 0
M  V30 4562 H 419.972 3.7183 -1.08727 0
M  V30 4563 H 420.386 4.10306 -3.26725 0
M  V30 4564 H 421.86 5.17104 -1.93153 0
M  V30 4565 H 422.337 4.37029 -0.436193 0
M  V30 4566 H 422.943 3.7576 -1.99211 0
M  V30 4567 N 421.258 1.00505 1.21394 0
M  V30 4568 C 422.188 0.585684 2.26035 0
M  V30 4569 C 423.169 -0.393525 1.65485 0
M  V30 4570 O 424.354 -0.281497 1.92149 0
M  V30 4571 C 421.484 -0.0884283 3.47187 0
M  V30 4572 C 420.438 0.810567 4.20254 0
M  V30 4573 C 419.764 0.00286382 5.347 0
M  V30 4574 C 421.064 2.1132 4.77641 0
M  V30 4575 H 422.758 1.46039 2.61368 0
M  V30 4576 H 420.304 0.703648 1.25638 0
M  V30 4577 H 422.257 -0.393286 4.19561 0
M  V30 4578 H 420.981 -0.997766 3.10986 0
M  V30 4579 H 419.64 1.09925 3.49731 0
M  V30 4580 H 419.288 -0.907765 4.94741 0
M  V30 4581 H 418.988 0.601444 5.84514 0
M  V30 4582 H 420.512 -0.295808 6.09883 0
M  V30 4583 H 421.926 1.87148 5.41893 0
M  V30 4584 H 420.323 2.66164 5.37845 0
M  V30 4585 H 421.393 2.78393 3.9702 0
M  V30 4586 N 422.737 -1.36956 0.779787 0
M  V30 4587 C 423.984 -1.99491 0.347766 0
M  V30 4588 C 424.312 -1.61898 -1.07793 0
M  V30 4589 O 423.567 -0.86071 -1.75756 0
M  V30 4590 C 423.866 -3.54585 0.447686 0
M  V30 4591 C 423.532 -4.1197 1.83279 0
M  V30 4592 C 422.194 -4.27356 2.2118 0
M  V30 4593 C 424.546 -4.43354 2.74019 0
M  V30 4594 C 421.874 -4.71432 3.4924 0
M  V30 4595 C 424.226 -4.88858 4.01497 0
M  V30 4596 C 422.89 -5.0245 4.39432 0
M  V30 4597 H 422.16 -0.729991 0.127257 0
M  V30 4598 H 424.807 -1.63599 0.995376 0
M  V30 4599 H 423.112 -3.90773 -0.283447 0
M  V30 4600 H 424.809 -4.00888 0.0945948 0
M  V30 4601 H 421.399 -4.00428 1.52825 0
M  V30 4602 H 425.583 -4.31045 2.45995 0
M  V30 4603 H 420.839 -4.80141 3.78516 0
M  V30 4604 H 425.013 -5.12108 4.71931 0
M  V30 4605 H 422.64 -5.36362 5.38721 0
M  V30 4606 N 424.215 -0.530993 -1.48385 0
M  V30 4607 C 425.463 0.00273189 -2.021 0
M  V30 4608 C 425.784 1.34672 -1.41027 0
M  V30 4609 O 425.054 1.8724 -0.576012 0
M  V30 4610 H 423.634 0.00399774 -0.746989 0
M  V30 4611 H 426.296 -0.695054 -1.82085 0
M  V30 4612 H 425.392 0.11031 -3.11905 0
M  V30 4613 N 425.693 1.55336 -0.266172 0
M  V30 4614 C 426.94 1.99397 0.353158 0
M  V30 4615 C 427.268 1.15451 1.56529 0
M  V30 4616 O 426.523 0.209974 1.9457 0
M  V30 4617 C 426.822 3.48606 0.787957 0
M  V30 4618 C 426.488 4.49773 -0.318541 0
M  V30 4619 C 425.15 4.77158 -0.62239 0
M  V30 4620 C 427.502 5.10212 -1.06459 0
M  V30 4621 C 424.83 5.62251 -1.67602 0
M  V30 4622 C 427.182 5.96449 -2.10788 0
M  V30 4623 C 425.846 6.22158 -2.41817 0
M  V30 4624 H 425.116 0.729644 0.12923 0
M  V30 4625 H 427.763 1.87732 -0.37802 0
M  V30 4626 H 426.068 3.57701 1.59866 0
M  V30 4627 H 427.765 3.80098 1.27775 0
M  V30 4628 H 424.355 4.2854 -0.0715925 0
M  V30 4629 H 428.539 4.89086 -0.843098 0
M  V30 4630 H 423.795 5.80419 -1.92155 0
M  V30 4631 H 427.969 6.42317 -2.69076 0
M  V30 4632 H 425.596 6.87888 -3.23596 0
M  V30 4633 N 427.171 -0.0066808 1.57599 0
M  V30 4634 C 428.118 -1.00024 2.08 0
M  V30 4635 C 429.088 -1.34549 0.973943 0
M  V30 4636 O 430.273 -1.44502 1.24595 0
M  V30 4637 C 427.413 -2.2891 2.58252 0
M  V30 4638 C 426.526 -2.00346 3.82734 0
M  V30 4639 C 425.661 -3.23265 4.21513 0
M  V30 4640 C 424.7 -2.90357 5.3885 0
M  V30 4641 N 423.837 -4.05793 5.72954 0
M  V30 4642 H 428.677 -0.563499 2.92624 0
M  V30 4643 H 426.214 -0.266592 1.44664 0
M  V30 4644 H 428.172 -3.04247 2.85464 0
M  V30 4645 H 426.802 -2.70265 1.76512 0
M  V30 4646 H 425.854 -1.15406 3.62471 0
M  V30 4647 H 427.166 -1.72086 4.68175 0
M  V30 4648 H 426.32 -4.06953 4.49971 0
M  V30 4649 H 425.059 -3.54657 3.34768 0
M  V30 4650 H 424.064 -2.05075 5.10122 0
M  V30 4651 H 425.289 -2.60219 6.27266 0
M  V30 4652 H 423.235 -4.37094 4.89167 0
M  V30 4653 H 423.152 -3.81034 6.52954 0
M  V30 4654 H 424.42 -4.90289 6.06001 0
M  V30 4655 N 428.649 -1.55105 -0.279332 0
M  V30 4656 C 429.579 -1.90557 -1.34945 0
M  V30 4657 C 430.56 -0.766738 -1.51839 0
M  V30 4658 O 431.745 -1.02434 -1.64988 0
M  V30 4659 C 428.875 -2.17193 -2.71006 0
M  V30 4660 C 427.829 -3.33021 -2.68851 0
M  V30 4661 C 427.155 -3.45123 -4.08405 0
M  V30 4662 C 428.455 -4.69578 -2.28678 0
M  V30 4663 H 430.149 -2.80188 -1.05522 0
M  V30 4664 H 427.695 -1.34811 -0.506173 0
M  V30 4665 H 429.648 -2.40581 -3.45975 0
M  V30 4666 H 428.372 -1.24355 -3.01999 0
M  V30 4667 H 427.031 -3.0959 -1.9634 0
M  V30 4668 H 426.679 -2.49762 -4.3661 0
M  V30 4669 H 426.379 -4.22995 -4.07859 0
M  V30 4670 H 427.903 -3.70796 -4.85121 0
M  V30 4671 H 429.317 -4.92553 -2.93368 0
M  V30 4672 H 427.714 -5.5032 -2.39306 0
M  V30 4673 H 428.784 -4.68828 -1.23807 0
M  V30 4674 N 430.127 0.543554 -1.4793 0
M  V30 4675 C 431.057 1.65888 -1.64327 0
M  V30 4676 C 432.038 1.62818 -0.492383 0
M  V30 4677 O 433.223 1.80226 -0.723338 0
M  V30 4678 C 430.353 3.04506 -1.67013 0
M  V30 4679 C 429.307 3.2243 -2.81466 0
M  V30 4680 C 428.633 4.61972 -2.69233 0
M  V30 4681 C 429.933 3.06496 -4.22915 0
M  V30 4682 H 431.627 1.52421 -2.57698 0
M  V30 4683 H 429.173 0.731849 -1.24016 0
M  V30 4684 H 431.126 3.82391 -1.77074 0
M  V30 4685 H 429.85 3.18964 -0.70212 0
M  V30 4686 H 428.509 2.46957 -2.70938 0
M  V30 4687 H 428.157 4.73247 -1.7043 0
M  V30 4688 H 427.857 4.74911 -3.46025 0
M  V30 4689 H 429.381 5.41974 -2.81242 0
M  V30 4690 H 430.795 3.74186 -4.34348 0
M  V30 4691 H 429.192 3.30938 -5.006 0
M  V30 4692 H 430.262 2.03077 -4.40327 0
M  V30 4693 N 431.605 1.3629 0.791371 0
M  V30 4694 C 432.835 1.33368 1.57786 0
M  V30 4695 C 433.243 -0.0875188 1.88997 0
M  V30 4696 O 432.586 -1.05427 1.50435 0
M  V30 4697 C 432.648 2.08802 2.92646 0
M  V30 4698 C 432.312 3.57903 2.84174 0
M  V30 4699 C 433.309 4.52191 2.56553 0
M  V30 4700 C 430.994 4.00762 3.02812 0
M  V30 4701 C 432.988 5.87315 2.47669 0
M  V30 4702 C 430.675 5.35977 2.93551 0
M  V30 4703 C 431.673 6.29066 2.66017 0
M  V30 4704 O 431.361 7.61798 2.56746 0
M  V30 4705 H 431.093 0.459166 0.496128 0
M  V30 4706 H 433.647 1.79952 0.990269 0
M  V30 4707 H 431.877 1.56878 3.53449 0
M  V30 4708 H 433.566 1.98762 3.53904 0
M  V30 4709 H 434.332 4.20393 2.41858 0
M  V30 4710 H 430.211 3.2868 3.2325 0
M  V30 4711 H 433.755 6.59943 2.26099 0
M  V30 4712 H 429.652 5.67384 3.07808 0
M  V30 4713 H 430.42 7.71898 2.72242 0
M  V30 4714 N 433.083 -1.0153 1.20538 0
M  V30 4715 C 434.494 -1.56598 1.01657 0
M  V30 4716 C 434.845 -1.91505 -0.426668 0
M  V30 4717 O 433.97 -1.72375 -1.30827 0
M  V30 4718 C 434.565 -2.84542 1.83905 0
M  V30 4719 C 433.124 -3.36133 1.69386 0
M  V30 4720 C 432.271 -2.09427 1.81757 0
M  V30 4721 H 435.222 -0.838974 1.34711 0
M  V30 4722 H 435.243 -3.56004 1.34319 0
M  V30 4723 H 434.755 -2.59105 2.8894 0
M  V30 4724 H 432.856 -3.66528 0.669933 0
M  V30 4725 H 432.969 -4.08248 2.50739 0
M  V30 4726 H 431.333 -2.21941 1.24957 0
M  V30 4727 H 432.116 -1.86414 2.88279 0
M  V30 4728 N 434.561 -1.01147 -1.20859 0
M  V30 4729 C 435.838 -0.613136 -1.85742 0
M  V30 4730 C 436.218 0.909004 -1.90526 0
M  V30 4731 O 435.566 1.79862 -1.40932 0
M  V30 4732 C 435.776 -1.255 -3.25654 0
M  V30 4733 C 437.124 -1.3672 -4.01986 0
M  V30 4734 O 438.148 -1.21082 -3.34989 0
M  V30 4735 O 437.007 -1.6194 -5.21956 0
M  V30 4736 H 434.101 -0.210878 -0.799662 0
M  V30 4737 H 436.647 -1.10853 -1.2849 0
M  V30 4738 H 435.419 -2.29532 -3.16908 0
M  V30 4739 H 435.042 -0.746369 -3.90532 0
M  V30 4740 N 436.039 1.36541 -0.78704 0
M  V30 4741 C 436.989 2.27459 -0.156957 0
M  V30 4742 C 437.973 1.46843 0.657709 0
M  V30 4743 O 439.165 1.69245 0.518173 0
M  V30 4744 C 436.294 3.35893 0.709278 0
M  V30 4745 C 435.38 4.23947 -0.114049 0
M  V30 4746 N 435.771 4.92145 -1.16736 0
M  V30 4747 C 434.069 4.4587 0.107497 0
M  V30 4748 C 434.77 5.57261 -1.66837 0
M  V30 4749 N 433.746 5.3473 -0.977992 0
M  V30 4750 H 437.548 2.77669 -0.963185 0
M  V30 4751 H 435.062 1.49839 -0.62627 0
M  V30 4752 H 437.059 3.99953 1.17656 0
M  V30 4753 H 435.719 2.87238 1.51408 0
M  V30 4754 H 436.73 4.94169 -1.54976 0
M  V30 4755 H 433.407 4.08056 0.882994 0
M  V30 4756 H 434.797 6.21728 -2.54762 0
M  V30 4757 N 437.518 0.538854 1.48102 0
M  V30 4758 C 438.765 0.0080018 2.02498 0
M  V30 4759 C 439.093 -1.33437 1.41509 0
M  V30 4760 O 438.348 -1.87709 0.553507 0
M  V30 4761 C 438.647 -0.153808 3.57069 0
M  V30 4762 C 438.313 1.11533 4.36888 0
M  V30 4763 C 436.975 1.46314 4.58417 0
M  V30 4764 C 439.327 1.95718 4.83057 0
M  V30 4765 C 436.655 2.6516 5.23361 0
M  V30 4766 C 439.007 3.13751 5.49312 0
M  V30 4767 C 437.671 3.48866 5.69077 0
M  V30 4768 H 436.941 0.00292807 0.740994 0
M  V30 4769 H 439.588 0.706668 1.77984 0
M  V30 4770 H 437.893 -0.935309 3.80472 0
M  V30 4771 H 439.59 -0.579607 3.96789 0
M  V30 4772 H 436.18 0.834484 4.20398 0
M  V30 4773 H 440.364 1.70158 4.66219 0
M  V30 4774 H 435.62 2.92558 5.36861 0
M  V30 4775 H 439.794 3.79282 5.84053 0
M  V30 4776 H 437.421 4.41054 6.19173 0
M  V30 4777 N 438.996 -1.55193 0.274407 0
M  V30 4778 C 439.946 -2.19184 -0.627882 0
M  V30 4779 C 440.93 -1.15625 -1.11892 0
M  V30 4780 O 442.122 -1.41441 -1.06411 0
M  V30 4781 C 439.251 -2.91591 -1.81189 0
M  V30 4782 C 438.337 -4.02438 -1.33807 0
M  V30 4783 N 438.728 -5.0246 -0.580349 0
M  V30 4784 C 437.026 -4.15496 -1.62109 0
M  V30 4785 C 437.727 -5.80756 -0.331344 0
M  V30 4786 N 436.703 -5.36038 -0.903556 0
M  V30 4787 H 440.505 -2.93871 -0.0411216 0
M  V30 4788 H 438.019 -1.62213 0.0779348 0
M  V30 4789 H 440.016 -3.35883 -2.46957 0
M  V30 4790 H 438.676 -2.18414 -2.40261 0
M  V30 4791 H 439.687 -5.17399 -0.227762 0
M  V30 4792 H 436.364 -3.53509 -2.22121 0
M  V30 4793 H 437.754 -6.71335 0.275454 0
M  V30 4794 N 440.474 -0.00167713 -1.576 0
M  V30 4795 C 441.404 0.988091 -2.11563 0
M  V30 4796 C 442.385 1.35736 -1.02517 0
M  V30 4797 O 443.57 1.44082 -1.30208 0
M  V30 4798 C 440.7 2.27941 -2.62031 0
M  V30 4799 C 439.654 2.0517 -3.75619 0
M  V30 4800 C 438.98 3.4033 -4.12407 0
M  V30 4801 C 440.28 1.41294 -5.02825 0
M  V30 4802 H 441.974 0.538771 -2.94513 0
M  V30 4803 H 439.52 0.257712 -1.41675 0
M  V30 4804 H 441.473 2.97539 -2.9841 0
M  V30 4805 H 440.197 2.74989 -1.76205 0
M  V30 4806 H 438.856 1.37998 -3.39635 0
M  V30 4807 H 438.504 3.85085 -3.23603 0
M  V30 4808 H 438.204 3.25909 -4.88935 0
M  V30 4809 H 439.728 4.1124 -4.51347 0
M  V30 4810 H 441.142 2.00851 -5.36965 0
M  V30 4811 H 439.539 1.37356 -5.84169 0
M  V30 4812 H 440.609 0.382362 -4.8339 0
M  V30 4813 N 441.952 1.55251 0.271103 0
M  V30 4814 C 442.882 1.9127 1.33933 0
M  V30 4815 C 443.863 0.77478 1.5143 0
M  V30 4816 O 445.048 1.03307 1.64442 0
M  V30 4817 C 442.178 2.18627 2.69851 0
M  V30 4818 C 441.132 3.34442 2.67081 0
M  V30 4819 C 440.458 3.47284 4.06569 0
M  V30 4820 C 441.758 4.70784 2.26185 0
M  V30 4821 H 443.452 2.80744 1.04035 0
M  V30 4822 H 440.998 1.35077 0.499017 0
M  V30 4823 H 442.951 2.42413 3.44694 0
M  V30 4824 H 441.675 1.25955 3.01335 0
M  V30 4825 H 440.334 3.10627 1.94695 0
M  V30 4826 H 439.982 2.52074 4.35279 0
M  V30 4827 H 439.682 4.25152 4.0561 0
M  V30 4828 H 441.206 3.73363 4.83148 0
M  V30 4829 H 442.62 4.94102 2.90751 0
M  V30 4830 H 441.017 5.51582 2.36384 0
M  V30 4831 H 442.087 4.69478 1.21319 0
M  V30 4832 N 443.43 -0.535701 1.48216 0
M  V30 4833 C 444.846 -0.863701 1.3421 0
M  V30 4834 C 445.046 -1.98458 0.34879 0
M  V30 4835 O 444.102 -2.51432 -0.23204 0
M  V30 4836 C 445.415 -1.23662 2.74095 0
M  V30 4837 C 446.963 -1.34683 2.82541 0
M  V30 4838 C 447.438 -1.75322 4.23115 0
M  V30 4839 N 448.929 -1.82434 4.2576 0
M  V30 4840 C 449.664 -2.15252 5.31464 0
M  V30 4841 N 449.16 -2.46533 6.47452 0
M  V30 4842 N 450.953 -2.16209 5.18855 0
M  V30 4843 H 443.104 0.203965 2.11418 0
M  V30 4844 H 445.367 0.0286033 0.947568 0
M  V30 4845 H 445.073 -0.486674 3.48316 0
M  V30 4846 H 444.947 -2.18805 3.07253 0
M  V30 4847 H 447.334 -2.08756 2.08579 0
M  V30 4848 H 447.415 -0.376756 2.5301 0
M  V30 4849 H 447.059 -1.01812 4.97591 0
M  V30 4850 H 446.989 -2.7337 4.50085 0
M  V30 4851 H 449.48 -1.6056 3.42095 0
M  V30 4852 H 449.793 -2.70662 7.23852 0
M  V30 4853 H 448.138 -2.44065 6.50736 0
M  V30 4854 H 451.329 -1.91224 4.2726 0
M  V30 4855 H 451.502 -2.41453 6.01335 0
M  V30 4856 N 444.908 -1.36708 -0.784132 0
M  V30 4857 C 446.156 -1.30972 -1.53918 0
M  V30 4858 C 446.477 0.109086 -1.94695 0
M  V30 4859 O 445.747 1.05048 -1.65353 0
M  V30 4860 H 444.327 -0.481819 -0.570841 0
M  V30 4861 H 446.989 -1.71063 -0.934002 0
M  V30 4862 H 446.085 -1.94061 -2.44431 0
M  V30 4863 N 446.386 1.0089 -1.21074 0
M  V30 4864 C 447.334 2.11707 -0.963476 0
M  V30 4865 C 448.328 1.69172 0.0879032 0
M  V30 4866 O 449.534 1.79889 -0.0631415 0
M  V30 4867 H 445.909 0.692026 -0.294287 0
M  V30 4868 H 447.88 2.29743 -1.90422 0
M  V30 4869 C 446.629 3.43473 -0.540509 0
M  V30 4870 H 445.952 3.76634 -1.34114 0
M  V30 4871 H 447.392 4.22044 -0.406777 0
M  V30 4872 C 445.851 3.2849 0.748079 0
M  V30 4873 O 446.381 3.58883 1.8046 0
M  V30 4874 N 444.587 2.81715 0.713081 0
M  V30 4875 H 444.134 2.5718 -0.146973 0
M  V30 4876 H 444.092 2.72071 1.57558 0
M  V30 4877 N 447.864 1.01787 1.20321 0
M  V30 4878 C 448.814 0.559976 2.21016 0
M  V30 4879 C 449.798 -0.385366 1.56217 0
M  V30 4880 O 450.99 -0.208126 1.75772 0
M  V30 4881 C 448.119 -0.0990553 3.43157 0
M  V30 4882 C 447.205 0.86807 4.15121 0
M  V30 4883 N 447.596 2.0261 4.63447 0
M  V30 4884 C 445.894 0.689162 4.40643 0
M  V30 4885 C 446.595 2.63518 5.18588 0
M  V30 4886 N 445.571 1.91569 5.08726 0
M  V30 4887 H 449.373 1.44281 2.56048 0
M  V30 4888 H 446.887 0.883381 1.36272 0
M  V30 4889 H 448.884 -0.444643 4.14522 0
M  V30 4890 H 447.544 -0.977709 3.0963 0
M  V30 4891 H 448.555 2.40598 4.58621 0
M  V30 4892 H 445.232 -0.14133 4.17261 0
M  V30 4893 H 446.622 3.61527 5.66346 0
M  V30 4894 N 449.342 -1.36122 0.79427 0
M  V30 4895 C 450.252 -2.33769 0.197296 0
M  V30 4896 C 451.268 -1.61276 -0.653153 0
M  V30 4897 O 452.444 -1.9323 -0.5678 0
M  V30 4898 C 449.509 -3.40474 -0.654098 0
M  V30 4899 C 448.57 -4.28759 0.215411 0
M  V30 4900 C 447.803 -5.30368 -0.595443 0
M  V30 4901 O 448.026 -5.40211 -1.83107 0
M  V30 4902 O 446.96 -6.019 0.00721351 0
M  V30 4903 H 450.786 -2.86597 1.00478 0
M  V30 4904 H 448.371 -1.38676 0.555818 0
M  V30 4905 H 450.253 -4.05703 -1.13944 0
M  V30 4906 H 448.928 -2.89937 -1.43938 0
M  V30 4907 H 447.835 -3.66554 0.747615 0
M  V30 4908 H 449.168 -4.82661 0.964332 0
M  V30 4909 N 450.82 -0.546701 -1.47814 0
M  V30 4910 C 452.048 -0.0232857 -2.06887 0
M  V30 4911 C 452.463 1.26571 -1.4009 0
M  V30 4912 O 451.82 1.7569 -0.493906 0
M  V30 4913 C 451.871 0.186975 -3.61016 0
M  V30 4914 O 451.592 -1.05097 -4.25307 0
M  V30 4915 C 453.093 0.748872 -4.36929 0
M  V30 4916 H 450.313 -0.0410763 -0.669742 0
M  V30 4917 H 452.857 -0.757117 -1.89968 0
M  V30 4918 H 451.012 0.870903 -3.77484 0
M  V30 4919 H 451.426 -0.842121 -5.17695 0
M  V30 4920 H 452.9 0.845334 -5.45489 0
M  V30 4921 H 453.377 1.75772 -4.02493 0
M  V30 4922 H 453.983 0.100979 -4.2518 0
M  V30 4923 N 452.299 1.55045 -0.282633 0
M  V30 4924 C 453.576 1.9179 0.384166 0
M  V30 4925 C 453.956 1.20778 1.73136 0
M  V30 4926 O 453.304 0.33719 2.25998 0
M  V30 4927 C 453.514 3.45149 0.517014 0
M  V30 4928 C 454.862 4.17064 0.796427 0
M  V30 4929 O 455.886 3.51084 0.601535 0
M  V30 4930 O 454.745 5.33837 1.16962 0
M  V30 4931 H 451.839 0.799483 0.211558 0
M  V30 4932 H 454.385 1.66474 -0.32934 0
M  V30 4933 H 453.157 3.88922 -0.430772 0
M  V30 4934 H 452.78 3.76443 1.2797 0
M  V30 4935 N 453.777 0.010035 1.57597 0
M  V30 4936 C 454.725 -0.996272 2.10184 0
M  V30 4937 C 455.719 -1.34942 1.02406 0
M  V30 4938 O 456.925 -1.33389 1.20861 0
M  V30 4939 H 453.3 -0.338982 0.671264 0
M  V30 4940 H 455.271 -0.527272 2.93705 0
M  V30 4941 C 454.02 -2.27599 2.62857 0
M  V30 4942 H 453.343 -2.01295 3.45428 0
M  V30 4943 H 454.783 -2.96265 3.0332 0
M  V30 4944 C 453.242 -2.99269 1.54725 0
M  V30 4945 O 453.772 -3.90644 0.93597 0
M  V30 4946 N 451.978 -2.61269 1.27228 0
M  V30 4947 H 451.525 -1.87043 1.77123 0
M  V30 4948 H 451.483 -3.09534 0.550999 0
M  V30 4949 N 455.255 -1.55392 -0.262866 0
M  V30 4950 C 456.188 -1.8391 -1.35101 0
M  V30 4951 C 457.166 -0.692901 -1.47097 0
M  V30 4952 O 458.35 -0.936979 -1.63563 0
M  V30 4953 C 455.477 -2.00969 -2.72634 0
M  V30 4954 C 454.523 -3.23559 -2.7787 0
M  V30 4955 S 455.356 -4.80647 -2.3609 0
M  V30 4956 C 456.512 -5.00692 -3.75578 0
M  V30 4957 H 456.745 -2.75918 -1.1071 0
M  V30 4958 H 454.278 -1.47294 -0.463029 0
M  V30 4959 H 456.236 -2.11482 -3.51832 0
M  V30 4960 H 454.897 -1.09832 -2.94272 0
M  V30 4961 H 454.09 -3.32413 -3.78837 0
M  V30 4962 H 453.692 -3.11689 -2.06702 0
M  V30 4963 H 455.984 -4.87055 -4.70939 0
M  V30 4964 H 456.927 -6.02717 -3.71669 0
M  V30 4965 H 457.335 -4.28619 -3.6735 0
M  V30 4966 N 456.733 0.527833 -1.48498 0
M  V30 4967 C 457.681 1.65313 -1.63628 0
M  V30 4968 C 458.675 1.6177 -0.502676 0
M  V30 4969 O 459.881 1.66601 -0.681469 0
M  V30 4970 H 456.256 0.547518 -0.515488 0
M  V30 4971 H 458.227 1.49696 -2.58135 0
M  V30 4972 C 456.976 3.03576 -1.6952 0
M  V30 4973 H 456.299 3.06997 -2.56111 0
M  V30 4974 H 457.739 3.81923 -1.84149 0
M  V30 4975 C 456.198 3.34089 -0.43432 0
M  V30 4976 O 456.728 3.99151 0.451852 0
M  V30 4977 N 454.934 2.88991 -0.305368 0
M  V30 4978 H 454.481 2.36222 -1.02747 0
M  V30 4979 H 454.439 3.09776 0.537249 0
M  V30 4980 N 458.211 1.37122 0.776871 0
M  V30 4981 C 459.143 1.28342 1.89897 0
M  V30 4982 C 460.156 0.200277 1.61563 0
M  V30 4983 O 461.345 0.456012 1.72577 0
M  V30 4984 C 458.445 0.960427 3.25006 0
M  V30 4985 C 457.618 2.148 3.81025 0
M  V30 4986 C 456.677 1.79608 4.94598 0
M  V30 4987 O 455.703 2.51845 5.10454 0
M  V30 4988 N 456.905 0.737171 5.758 0
M  V30 4989 H 459.67 2.25027 1.97947 0
M  V30 4990 H 457.231 1.3068 0.955739 0
M  V30 4991 H 459.223 0.705942 3.98495 0
M  V30 4992 H 457.793 0.0823066 3.12492 0
M  V30 4993 H 457.013 2.56454 2.99374 0
M  V30 4994 H 458.301 2.9411 4.15183 0
M  V30 4995 H 457.699 0.137637 5.65533 0
M  V30 4996 H 456.256 0.542534 6.49538 0
M  V30 4997 N 459.689 -1.00246 1.21608 0
M  V30 4998 C 460.938 -1.73476 1.02902 0
M  V30 4999 C 461.251 -1.90643 -0.437561 0
M  V30 5000 O 462.457 -2.61105 -0.74407 0
M  V30 5001 C 460.913 -3.12079 1.79261 0
M  V30 5002 C 460.521 -3.02877 3.30106 0
M  V30 5003 C 462.265 -3.89421 1.68972 0
M  V30 5004 C 460.172 -4.36575 3.98944 0
M  V30 5005 H 459.102 -0.650408 0.381425 0
M  V30 5006 H 461.753 -1.11985 1.45367 0
M  V30 5007 H 460.135 -3.74196 1.2959 0
M  V30 5008 H 461.309 -2.49983 3.87098 0
M  V30 5009 H 459.624 -2.39022 3.40965 0
M  V30 5010 H 462.221 -4.88362 2.17731 0
M  V30 5011 H 462.564 -4.1122 0.648397 0
M  V30 5012 H 463.097 -3.33963 2.16133 0
M  V30 5013 H 459.836 -4.19978 5.03288 0
M  V30 5014 H 459.356 -4.8942 3.4674 0
M  V30 5015 H 461.035 -5.05364 4.04 0
M  V30 5016 N 461.167 -1.02423 -1.1978 0
M  V30 5017 C 462.397 -0.736387 -1.93031 0
M  V30 5018 C 462.805 0.708023 -1.75453 0
M  V30 5019 O 462.148 1.4927 -1.07071 0
M  V30 5020 C 462.21 -1.00194 -3.45255 0
M  V30 5021 C 461.874 -2.43698 -3.86601 0
M  V30 5022 C 462.871 -3.41814 -3.91738 0
M  V30 5023 C 460.556 -2.77975 -4.18372 0
M  V30 5024 C 462.55 -4.72265 -4.28071 0
M  V30 5025 C 460.237 -4.08636 -4.54378 0
M  V30 5026 C 461.235 -5.05592 -4.59201 0
M  V30 5027 O 460.923 -6.33914 -4.94376 0
M  V30 5028 H 460.655 -0.269116 -0.620123 0
M  V30 5029 H 463.209 -1.37043 -1.52998 0
M  V30 5030 H 461.439 -0.310747 -3.85449 0
M  V30 5031 H 463.128 -0.704488 -3.9974 0
M  V30 5032 H 463.894 -3.16671 -3.67348 0
M  V30 5033 H 459.773 -2.0319 -4.13805 0
M  V30 5034 H 463.317 -5.4794 -4.3175 0
M  V30 5035 H 459.214 -4.33556 -4.78226 0
M  V30 5036 H 459.982 -6.38317 -5.12341 0
M  V30 5037 N 462.645 1.35699 -0.801477 0
M  V30 5038 C 463.893 1.9852 -0.37871 0
M  V30 5039 C 464.214 1.63907 1.05638 0
M  V30 5040 O 463.484 0.919013 1.73006 0
M  V30 5041 H 462.064 0.734322 -0.137042 0
M  V30 5042 H 464.726 1.65697 -1.02619 0
M  V30 5043 H 463.822 3.08382 -0.480284 0
M  V30 5044 N 464.123 0.554532 1.47522 0
M  V30 5045 C 465.37 0.029479 2.02479 0
M  V30 5046 C 465.698 -1.31929 1.42916 0
M  V30 5047 O 464.953 -1.87112 0.573385 0
M  V30 5048 C 465.252 -0.115927 3.57212 0
M  V30 5049 C 464.918 1.16161 4.3568 0
M  V30 5050 C 463.58 1.51168 4.56839 0
M  V30 5051 C 465.932 2.0083 4.80954 0
M  V30 5052 C 463.26 2.70696 5.2052 0
M  V30 5053 C 465.612 3.19559 5.45953 0
M  V30 5054 C 464.276 3.54882 5.65345 0
M  V30 5055 H 463.546 0.0107871 0.740921 0
M  V30 5056 H 466.193 0.725506 1.77225 0
M  V30 5057 H 464.498 -0.894902 3.81443 0
M  V30 5058 H 466.195 -0.53749 3.97381 0
M  V30 5059 H 462.785 0.879026 4.19489 0
M  V30 5060 H 466.969 1.75093 4.64388 0
M  V30 5061 H 462.225 2.98236 5.33728 0
M  V30 5062 H 466.399 3.85456 5.79997 0
M  V30 5063 H 464.026 4.47596 6.1446 0
M  V30 5064 N 465.601 -1.54893 0.290851 0
M  V30 5065 C 466.511 -2.26812 -0.59945 0
M  V30 5066 C 467.527 -1.29963 -1.15696 0
M  V30 5067 O 468.703 -1.62928 -1.18391 0
M  V30 5068 C 465.768 -2.98716 -1.75982 0
M  V30 5069 C 464.829 -4.1108 -1.2374 0
M  V30 5070 C 464.062 -4.79546 -2.34246 0
M  V30 5071 O 464.285 -4.47309 -3.53936 0
M  V30 5072 O 463.219 -5.67165 -2.01512 0
M  V30 5073 H 467.045 -3.03696 -0.0163561 0
M  V30 5074 H 464.63 -1.49289 0.0576755 0
M  V30 5075 H 466.512 -3.43851 -2.43607 0
M  V30 5076 H 465.187 -2.24737 -2.3297 0
M  V30 5077 H 464.094 -3.70367 -0.527163 0
M  V30 5078 H 465.427 -4.87007 -0.71307 0
M  V30 5079 N 467.08 -0.0183926 -1.57589 0
M  V30 5080 C 468.328 0.661253 -1.90976 0
M  V30 5081 C 468.649 1.73281 -0.894353 0
M  V30 5082 O 467.919 1.9579 0.0656788 0
M  V30 5083 H 466.499 0.247233 -0.704901 0
M  V30 5084 H 469.161 -0.0636639 -1.94796 0
M  V30 5085 H 468.257 1.12083 -2.9128 0
M  V30 5086 N 468.558 1.5553 0.254621 0
M  V30 5087 C 469.468 1.92789 1.33677 0
M  V30 5088 C 470.484 0.827356 1.53071 0
M  V30 5089 O 471.66 1.12807 1.66843 0
M  V30 5090 C 468.725 2.20827 2.67275 0
M  V30 5091 C 467.786 3.4427 2.5647 0
M  V30 5092 C 467.019 3.70961 3.83697 0
M  V30 5093 O 467.242 2.99852 4.85227 0
M  V30 5094 O 466.176 4.64491 3.82794 0
M  V30 5095 H 470.002 2.84945 1.05071 0
M  V30 5096 H 467.587 1.42312 0.454723 0
M  V30 5097 H 469.469 2.40204 3.46237 0
M  V30 5098 H 468.144 1.31851 2.9563 0
M  V30 5099 H 467.051 3.30209 1.75821 0
M  V30 5100 H 468.384 4.33524 2.33062 0
M  V30 5101 N 470.036 -0.519951 1.48776 0
M  V30 5102 C 471.282 -1.27711 1.57536 0
M  V30 5103 C 471.615 -1.92547 0.252866 0
M  V30 5104 O 470.89 -1.7979 -0.742021 0
M  V30 5105 C 471.173 -2.35875 2.72094 0
M  V30 5106 C 471.026 -1.75664 4.1408 0
M  V30 5107 C 472.345 -3.37575 2.82367 0
M  V30 5108 H 469.464 -0.462971 0.573434 0
M  V30 5109 H 472.106 -0.578194 1.80989 0
M  V30 5110 H 470.256 -2.95488 2.52228 0
M  V30 5111 H 471.928 -1.20025 4.45412 0
M  V30 5112 H 470.171 -1.06154 4.20611 0
M  V30 5113 H 470.842 -2.54029 4.90075 0
M  V30 5114 H 473.318 -2.87929 3.00393 0
M  V30 5115 H 472.194 -4.1064 3.64233 0
M  V30 5116 H 472.455 -3.98743 1.90936 0
M  V30 5117 N 471.514 -1.37532 -0.769588 0
M  V30 5118 C 472.461 -1.3347 -1.88293 0
M  V30 5119 C 473.431 -0.199891 -1.64893 0
M  V30 5120 O 474.616 -0.389594 -1.8678 0
M  V30 5121 C 471.756 -1.14968 -3.25387 0
M  V30 5122 C 470.869 -2.37698 -3.60727 0
M  V30 5123 C 470.004 -2.12051 -4.8704 0
M  V30 5124 C 469.043 -3.30636 -5.15117 0
M  V30 5125 N 468.18 -3.04527 -6.3262 0
M  V30 5126 H 473.02 -2.28658 -1.911 0
M  V30 5127 H 470.557 -1.13622 -0.934257 0
M  V30 5128 H 472.515 -1.02261 -4.04473 0
M  V30 5129 H 471.145 -0.234263 -3.21949 0
M  V30 5130 H 470.197 -2.61137 -2.76608 0
M  V30 5131 H 471.509 -3.26131 -3.77413 0
M  V30 5132 H 470.663 -1.96388 -5.74035 0
M  V30 5133 H 469.402 -1.20959 -4.72462 0
M  V30 5134 H 468.407 -3.46836 -4.26597 0
M  V30 5135 H 469.632 -4.22582 -5.31603 0
M  V30 5136 H 467.578 -2.16067 -6.19396 0
M  V30 5137 H 467.495 -3.86503 -6.49732 0
M  V30 5138 H 468.763 -2.92485 -7.22546 0
M  V30 5139 N 472.992 0.995999 -1.22138 0
M  V30 5140 C 473.955 2.06711 -0.990109 0
M  V30 5141 C 474.955 1.60744 0.0422978 0
M  V30 5142 O 476.145 1.73095 -0.195895 0
M  V30 5143 C 473.277 3.37288 -0.49491 0
M  V30 5144 H 474.47 2.28661 -1.94047 0
M  V30 5145 H 472.023 1.16711 -1.03963 0
M  V30 5146 H 472.758 3.21022 0.459948 0
M  V30 5147 H 472.543 3.71986 -1.23971 0
M  V30 5148 H 474.033 4.16103 -0.353253 0
M  V30 5149 N 474.47 1.03057 1.19235 0
M  V30 5150 C 475.417 0.612832 2.22515 0
M  V30 5151 C 476.387 -0.374224 1.61829 0
M  V30 5152 O 477.572 -0.270501 1.88873 0
M  V30 5153 C 474.712 -0.028475 3.45088 0
M  V30 5154 C 473.825 1.00483 4.20151 0
M  V30 5155 C 472.96 0.333102 5.30155 0
M  V30 5156 C 471.999 1.3522 5.96977 0
M  V30 5157 N 471.136 0.70616 6.9854 0
M  V30 5158 H 475.976 1.49812 2.57605 0
M  V30 5159 H 473.513 0.749658 1.26564 0
M  V30 5160 H 475.471 -0.417548 4.15105 0
M  V30 5161 H 474.101 -0.877334 3.10649 0
M  V30 5162 H 473.153 1.51194 3.49062 0
M  V30 5163 H 474.465 1.77929 4.65986 0
M  V30 5164 H 473.619 -0.110725 6.06599 0
M  V30 5165 H 472.358 -0.473547 4.85396 0
M  V30 5166 H 471.363 1.80627 5.19282 0
M  V30 5167 H 472.588 2.16037 6.4382 0
M  V30 5168 H 470.534 -0.0803667 6.55951 0
M  V30 5169 H 470.451 1.41848 7.42573 0
M  V30 5170 H 471.719 0.286391 7.78974 0
M  V30 5171 N 475.948 -1.35272 0.808662 0
M  V30 5172 C 477.178 -2.02652 0.401953 0
M  V30 5173 C 477.586 -1.6108 -0.992462 0
M  V30 5174 O 476.929 -0.804984 -1.65123 0
M  V30 5175 C 476.991 -3.57174 0.408246 0
M  V30 5176 C 476.655 -4.22019 1.75353 0
M  V30 5177 C 477.652 -4.43552 2.71215 0
M  V30 5178 C 475.337 -4.59093 2.03811 0
M  V30 5179 C 477.331 -5.01264 3.93717 0
M  V30 5180 C 475.018 -5.16519 3.26576 0
M  V30 5181 C 476.016 -5.37546 4.21347 0
M  V30 5182 O 475.704 -5.93761 5.41944 0
M  V30 5183 H 475.436 -0.656495 0.161216 0
M  V30 5184 H 477.99 -1.73829 1.0942 0
M  V30 5185 H 476.22 -3.85197 -0.340608 0
M  V30 5186 H 477.909 -4.05893 0.0235623 0
M  V30 5187 H 478.675 -4.15288 2.50522 0
M  V30 5188 H 474.554 -4.42039 1.30854 0
M  V30 5189 H 478.098 -5.17592 4.67701 0
M  V30 5190 H 473.995 -5.4421 3.47139 0
M  V30 5191 H 474.763 -6.1221 5.43269 0
M  V30 5192 N 477.426 -0.562348 -1.47226 0
M  V30 5193 C 478.654 -0.0452275 -2.06851 0
M  V30 5194 C 479.069 1.25078 -1.41424 0
M  V30 5195 O 478.426 1.75156 -0.512513 0
M  V30 5196 C 478.477 0.148674 -3.61194 0
M  V30 5197 O 478.198 -1.09602 -4.24169 0
M  V30 5198 C 479.699 0.702488 -4.37699 0
M  V30 5199 H 476.919 -0.0481775 -0.669268 0
M  V30 5200 H 479.463 -0.777223 -1.89155 0
M  V30 5201 H 477.618 0.830817 -3.78386 0
M  V30 5202 H 478.032 -0.896982 -5.16773 0
M  V30 5203 H 479.506 0.78743 -5.46355 0
M  V30 5204 H 479.983 1.71493 -4.04335 0
M  V30 5205 H 480.589 0.0558772 -4.25263 0
M  V30 5206 N 478.904 1.54736 -0.299062 0
M  V30 5207 C 479.867 2.22127 0.565012 0
M  V30 5208 C 480.867 1.20669 1.06281 0
M  V30 5209 O 482.057 1.45417 0.959145 0
M  V30 5210 C 479.189 2.90611 1.78208 0
M  V30 5211 H 480.382 2.99891 -0.0237448 0
M  V30 5212 H 477.935 1.5622 -0.0498788 0
M  V30 5213 H 478.67 2.16921 2.41072 0
M  V30 5214 H 478.455 3.64984 1.43281 0
M  V30 5215 H 479.945 3.42026 2.396 0
M  V30 5216 N 480.382 0.0267497 1.57577 0
M  V30 5217 C 481.314 -0.984594 2.06974 0
M  V30 5218 C 482.327 -1.29032 0.992705 0
M  V30 5219 O 483.516 -1.25539 1.26895 0
M  V30 5220 C 480.616 -2.31262 2.47732 0
M  V30 5221 C 479.789 -2.1924 3.78487 0
M  V30 5222 C 478.848 -3.34956 4.05821 0
M  V30 5223 O 477.874 -3.11948 4.76106 0
M  V30 5224 N 479.076 -4.58672 3.55809 0
M  V30 5225 H 481.841 -0.563143 2.94362 0
M  V30 5226 H 479.402 -0.160061 1.61107 0
M  V30 5227 H 481.394 -3.07496 2.63112 0
M  V30 5228 H 479.964 -2.65056 1.65723 0
M  V30 5229 H 479.184 -1.27747 3.72927 0
M  V30 5230 H 480.472 -2.08409 4.64158 0
M  V30 5231 H 479.87 -4.8026 2.98942 0
M  V30 5232 H 478.427 -5.32083 3.76472 0
M  V30 5233 N 481.861 -1.55662 -0.24637 0
M  V30 5234 C 482.794 -1.85332 -1.33143 0
M  V30 5235 C 483.772 -0.708464 -1.46354 0
M  V30 5236 O 484.956 -0.954274 -1.6256 0
M  V30 5237 C 482.083 -2.0385 -2.70487 0
M  V30 5238 C 481.129 -3.26488 -2.74423 0
M  V30 5239 S 481.962 -4.83124 -2.30979 0
M  V30 5240 C 483.118 -5.04647 -3.70246 0
M  V30 5241 H 483.351 -2.77077 -1.07777 0
M  V30 5242 H 480.884 -1.47776 -0.44738 0
M  V30 5243 H 482.842 -2.15202 -3.49569 0
M  V30 5244 H 481.503 -1.12947 -2.9309 0
M  V30 5245 H 480.696 -3.36413 -3.7529 0
M  V30 5246 H 480.298 -3.13864 -2.03385 0
M  V30 5247 H 482.59 -4.92023 -4.65746 0
M  V30 5248 H 483.533 -6.06625 -3.65255 0
M  V30 5249 H 483.941 -4.32491 -3.62784 0
M  V30 5250 N 483.339 0.512053 -1.4905 0
M  V30 5251 C 484.569 1.28928 -1.61434 0
M  V30 5252 C 484.977 1.87107 -0.280647 0
M  V30 5253 O 484.32 1.68024 0.742537 0
M  V30 5254 C 484.382 2.466 -2.61588 0
M  V30 5255 C 484.046 2.09375 -4.06216 0
M  V30 5256 C 485.043 1.63994 -4.93358 0
M  V30 5257 C 482.728 2.19348 -4.51876 0
M  V30 5258 C 484.722 1.29076 -6.24194 0
M  V30 5259 C 482.409 1.84041 -5.82728 0
M  V30 5260 C 483.407 1.38978 -6.68711 0
M  V30 5261 O 483.095 1.04144 -7.97126 0
M  V30 5262 H 482.827 0.397668 -0.546659 0
M  V30 5263 H 485.381 0.622507 -1.9574 0
M  V30 5264 H 483.611 3.16318 -2.22441 0
M  V30 5265 H 485.3 3.08642 -2.63619 0
M  V30 5266 H 486.066 1.55744 -4.59313 0
M  V30 5267 H 481.945 2.53376 -3.85125 0
M  V30 5268 H 485.489 0.938303 -6.91261 0
M  V30 5269 H 481.386 1.91938 -6.16304 0
M  V30 5270 H 482.154 1.17387 -8.10039 0
M  V30 5271 N 484.817 1.37938 0.762283 0
M  V30 5272 C 485.727 1.36681 1.90671 0
M  V30 5273 C 486.743 0.265078 1.71969 0
M  V30 5274 O 487.919 0.502055 1.95042 0
M  V30 5275 C 484.984 1.18211 3.25925 0
M  V30 5276 C 484.045 2.3811 3.57214 0
M  V30 5277 C 483.278 2.20512 4.86014 0
M  V30 5278 O 483.501 1.19429 5.57757 0
M  V30 5279 O 482.435 3.08911 5.16583 0
M  V30 5280 H 486.261 2.33091 1.94685 0
M  V30 5281 H 483.846 1.18767 0.906356 0
M  V30 5282 H 485.728 1.09937 4.06807 0
M  V30 5283 H 484.403 0.248807 3.22742 0
M  V30 5284 H 483.31 2.51958 2.76529 0
M  V30 5285 H 484.643 3.30041 3.65149 0
M  V30 5286 N 486.295 -0.989507 1.22664 0
M  V30 5287 C 487.225 -2.09847 1.02404 0
M  V30 5288 C 488.206 -1.70007 -0.0561303 0
M  V30 5289 O 489.391 -1.93906 0.106748 0
M  V30 5290 C 486.521 -3.41996 0.604663 0
M  V30 5291 C 485.475 -3.95699 1.63115 0
M  V30 5292 C 484.801 -5.23936 1.0675 0
M  V30 5293 C 486.101 -4.25999 3.02196 0
M  V30 5294 H 487.795 -2.27054 1.95158 0
M  V30 5295 H 485.341 -1.09111 0.939727 0
M  V30 5296 H 487.294 -4.1899 0.45002 0
M  V30 5297 H 486.018 -3.24626 -0.35855 0
M  V30 5298 H 484.677 -3.2084 1.77362 0
M  V30 5299 H 484.325 -5.02909 0.0955422 0
M  V30 5300 H 484.025 -5.60833 1.75328 0
M  V30 5301 H 485.549 -6.0356 0.924516 0
M  V30 5302 H 486.963 -4.93777 2.91303 0
M  V30 5303 H 485.36 -4.74076 3.67929 0
M  V30 5304 H 486.43 -3.33636 3.51873 0
M  V30 5305 N 487.773 -1.03688 -1.18687 0
M  V30 5306 C 489.02 -0.73803 -1.88572 0
M  V30 5307 C 489.348 0.733973 -1.8012 0
M  V30 5308 O 488.603 1.55098 -1.19344 0
M  V30 5309 C 488.902 -1.14477 -3.3857 0
M  V30 5310 C 488.568 -2.61641 -3.67226 0
M  V30 5311 C 487.23 -3.01846 -3.74757 0
M  V30 5312 C 489.582 -3.56812 -3.79914 0
M  V30 5313 C 486.91 -4.36118 -3.92451 0
M  V30 5314 C 489.262 -4.90799 -3.99123 0
M  V30 5315 C 487.926 -5.3068 -4.04888 0
M  V30 5316 H 487.196 -0.270064 -0.690034 0
M  V30 5317 H 489.843 -1.3012 -1.40503 0
M  V30 5318 H 488.148 -0.500337 -3.88592 0
M  V30 5319 H 489.845 -0.89095 -3.90977 0
M  V30 5320 H 486.435 -2.29498 -3.61979 0
M  V30 5321 H 490.619 -3.26899 -3.73431 0
M  V30 5322 H 485.875 -4.66542 -3.95157 0
M  V30 5323 H 490.049 -5.64451 -4.07882 0
M  V30 5324 H 487.676 -6.34733 -4.18351 0
M  V30 5325 N 489.251 1.34841 -0.815825 0
M  V30 5326 C 490.476 2.03261 -0.41226 0
M  V30 5327 C 490.901 1.61055 0.971751 0
M  V30 5328 O 490.259 0.7917 1.63101 0
M  V30 5329 C 490.307 3.56914 -0.514289 0
M  V30 5330 O 489.411 4.09728 0.468675 0
M  V30 5331 H 488.752 0.641664 -0.170771 0
M  V30 5332 H 491.282 1.72241 -1.10427 0
M  V30 5333 H 491.292 4.06156 -0.387457 0
M  V30 5334 H 489.967 3.86982 -1.52375 0
M  V30 5335 H 488.544 3.71681 0.301316 0
M  V30 5336 N 490.729 0.570148 1.46925 0
M  V30 5337 C 491.639 -0.173061 2.33961 0
M  V30 5338 C 492.655 -0.898825 1.48987 0
M  V30 5339 O 493.831 -0.864825 1.81887 0
M  V30 5340 C 490.896 -1.18177 3.25937 0
M  V30 5341 C 489.957 -0.462041 4.26806 0
M  V30 5342 C 489.19 -1.4227 5.14388 0
M  V30 5343 O 489.413 -2.65842 5.04662 0
M  V30 5344 O 488.347 -0.940127 5.94513 0
M  V30 5345 H 492.173 0.541216 2.98839 0
M  V30 5346 H 489.758 0.330647 1.45695 0
M  V30 5347 H 491.64 -1.76372 3.82715 0
M  V30 5348 H 490.315 -1.87774 2.63671 0
M  V30 5349 H 489.222 0.161429 3.73752 0
M  V30 5350 H 490.555 0.192719 4.91823 0
M  V30 5351 N 492.207 -1.54576 0.307264 0
M  V30 5352 C 493.453 -2.0056 -0.300612 0
M  V30 5353 C 493.786 -1.1953 -1.53057 0
M  V30 5354 O 493.061 -0.27337 -1.92569 0
M  V30 5355 C 493.344 -3.54167 -0.650987 0
M  V30 5356 C 493.197 -4.45933 0.588539 0
M  V30 5357 C 494.516 -4.14645 -1.47506 0
M  V30 5358 H 491.635 -0.729075 -0.107788 0
M  V30 5359 H 494.277 -1.85286 0.420606 0
M  V30 5360 H 492.427 -3.67313 -1.26544 0
M  V30 5361 H 494.099 -4.44683 1.22697 0
M  V30 5362 H 492.342 -4.16274 1.22058 0
M  V30 5363 H 493.013 -5.51189 0.299153 0
M  V30 5364 H 495.489 -4.04973 -0.955821 0
M  V30 5365 H 494.365 -5.22269 -1.68899 0
M  V30 5366 H 494.626 -3.66921 -2.4662 0
M  V30 5367 N 493.685 -0.035106 -1.57561 0
M  V30 5368 C 494.932 0.642229 -1.92046 0
M  V30 5369 C 495.26 1.7179 -0.91206 0
M  V30 5370 O 494.515 1.95544 0.0781153 0
M  V30 5371 C 494.814 1.29149 -3.3325 0
M  V30 5372 C 494.48 0.345604 -4.49574 0
M  V30 5373 C 493.142 0.0852775 -4.81124 0
M  V30 5374 C 495.494 -0.303569 -5.20315 0
M  V30 5375 C 492.822 -0.831927 -5.80772 0
M  V30 5376 C 495.174 -1.20886 -6.20942 0
M  V30 5377 C 493.838 -1.47802 -6.50931 0
M  V30 5378 H 493.108 0.235008 -0.702746 0
M  V30 5379 H 495.755 -0.0981529 -1.91248 0
M  V30 5380 H 494.06 2.10676 -3.30337 0
M  V30 5381 H 495.757 1.82223 -3.57205 0
M  V30 5382 H 492.347 0.558683 -4.24943 0
M  V30 5383 H 496.531 -0.115515 -4.96166 0
M  V30 5384 H 491.787 -1.0481 -6.02349 0
M  V30 5385 H 495.961 -1.71804 -6.74875 0
M  V30 5386 H 493.588 -2.19039 -7.2796 0
M  V30 5387 N 495.163 1.55791 0.238111 0
M  V30 5388 C 496.073 1.94196 1.31625 0
M  V30 5389 C 497.089 0.843545 1.52185 0
M  V30 5390 O 498.265 1.1457 1.65637 0
M  V30 5391 C 495.33 2.2365 2.64918 0
M  V30 5392 C 494.391 3.46971 2.52804 0
M  V30 5393 C 493.624 3.7501 3.79741 0
M  V30 5394 O 493.847 3.04982 4.82019 0
M  V30 5395 O 492.781 4.68525 3.77846 0
M  V30 5396 H 496.607 2.86044 1.02043 0
M  V30 5397 H 494.192 1.42786 0.439603 0
M  V30 5398 H 496.074 2.43863 3.4367 0
M  V30 5399 H 494.749 1.34979 2.94215 0
M  V30 5400 H 493.656 3.32055 1.72309 0
M  V30 5401 H 494.989 4.35971 2.28451 0
M  V30 5402 N 496.642 -0.504142 1.49319 0
M  V30 5403 C 497.888 -1.25767 1.59857 0
M  V30 5404 C 498.243 -1.90348 0.280262 0
M  V30 5405 O 497.536 -1.77588 -0.719241 0
M  V30 5406 C 497.73 -2.35021 2.69258 0
M  V30 5407 C 497.559 -1.81154 4.11598 0
M  V30 5408 C 496.329 -1.62596 4.78425 0
M  V30 5409 C 498.527 -1.3252 4.96934 0
M  V30 5410 N 496.509 -1.03625 6.05091 0
M  V30 5411 C 497.88 -0.856633 6.14054 0
M  V30 5412 C 499.935 -1.21063 4.82958 0
M  V30 5413 C 498.638 -0.284841 7.18736 0
M  V30 5414 C 500.664 -0.652815 5.87786 0
M  V30 5415 C 500.026 -0.194461 7.04132 0
M  V30 5416 H 496.125 -0.450293 0.639343 0
M  V30 5417 H 498.709 -0.565344 1.86311 0
M  V30 5418 H 496.88 -3.01719 2.44581 0
M  V30 5419 H 498.612 -3.02061 2.69335 0
M  V30 5420 H 495.367 -1.86873 4.35173 0
M  V30 5421 H 495.791 -0.76076 6.72712 0
M  V30 5422 H 500.433 -1.551 3.93324 0
M  V30 5423 H 498.151 0.0677979 8.08072 0
M  V30 5424 H 501.737 -0.566994 5.79031 0
M  V30 5425 H 500.617 0.230442 7.83861 0
M  V30 5426 N 498.12 -1.38341 -0.754957 0
M  V30 5427 C 499.05 -1.38176 -1.88227 0
M  V30 5428 C 500.031 -0.247873 -1.68284 0
M  V30 5429 O 501.216 -0.45075 -1.88896 0
M  V30 5430 C 498.346 -1.20471 -3.25736 0
M  V30 5431 C 497.3 -2.3105 -3.60278 0
M  V30 5432 C 496.626 -1.98452 -4.96509 0
M  V30 5433 C 497.926 -3.73305 -3.65295 0
M  V30 5434 H 499.62 -2.32512 -1.88622 0
M  V30 5435 H 497.166 -1.1192 -0.906082 0
M  V30 5436 H 499.119 -1.18982 -4.04254 0
M  V30 5437 H 497.843 -0.225965 -3.25817 0
M  V30 5438 H 496.502 -2.31723 -2.84078 0
M  V30 5439 H 496.15 -0.990641 -4.93148 0
M  V30 5440 H 495.85 -2.7251 -5.20588 0
M  V30 5441 H 497.374 -1.98578 -5.77407 0
M  V30 5442 H 498.788 -3.7467 -4.3393 0
M  V30 5443 H 497.185 -4.46557 -4.00883 0
M  V30 5444 H 498.255 -4.05719 -2.65556 0
M  V30 5445 N 499.598 0.982988 -1.23187 0
M  V30 5446 C 501.009 1.53847 -1.05773 0
M  V30 5447 C 501.36 1.92568 0.375744 0
M  V30 5448 O 500.485 1.75783 1.26211 0
M  V30 5449 C 501.08 2.79567 -1.91384 0
M  V30 5450 C 499.639 3.31524 -1.78238 0
M  V30 5451 C 498.786 2.04534 -1.87246 0
M  V30 5452 H 501.737 0.802962 -1.36888 0
M  V30 5453 H 501.758 3.52317 -1.43711 0
M  V30 5454 H 501.27 2.51353 -2.95708 0
M  V30 5455 H 499.371 3.64623 -0.766875 0
M  V30 5456 H 499.484 4.01457 -2.61475 0
M  V30 5457 H 497.848 2.1855 -1.30797 0
M  V30 5458 H 498.631 1.78706 -2.9312 0
M  V30 5459 N 501.076 1.04316 1.18135 0
M  V30 5460 C 502.006 0.657299 2.24058 0
M  V30 5461 C 502.987 -0.340678 1.66654 0
M  V30 5462 O 504.172 -0.220223 1.92947 0
M  V30 5463 C 501.302 0.0220715 3.47293 0
M  V30 5464 C 500.256 0.943857 4.17463 0
M  V30 5465 C 499.582 0.172973 5.3442 0
M  V30 5466 C 500.882 2.26409 4.70677 0
M  V30 5467 H 502.576 1.5428 2.56589 0
M  V30 5468 H 500.122 0.743263 1.23335 0
M  V30 5469 H 502.075 -0.259607 4.206 0
M  V30 5470 H 500.799 -0.898323 3.14003 0
M  V30 5471 H 499.458 1.20996 3.46057 0
M  V30 5472 H 499.106 -0.749907 4.97379 0
M  V30 5473 H 498.806 0.787098 5.82304 0
M  V30 5474 H 500.33 -0.101628 6.10515 0
M  V30 5475 H 501.744 2.04294 5.35665 0
M  V30 5476 H 500.141 2.8314 5.29105 0
M  V30 5477 H 501.211 2.90883 3.87962 0
M  V30 5478 N 502.554 -1.34406 0.822964 0
M  V30 5479 C 503.517 -2.2783 0.250271 0
M  V30 5480 C 504.517 -1.50288 -0.571854 0
M  V30 5481 O 505.707 -1.69825 -0.387952 0
M  V30 5482 C 502.839 -3.34663 -0.649137 0
M  V30 5483 H 504.032 -2.79992 1.07444 0
M  V30 5484 H 501.585 -1.44539 0.594829 0
M  V30 5485 H 502.32 -2.87714 -1.49637 0
M  V30 5486 H 502.105 -3.92052 -0.0611199 0
M  V30 5487 H 503.595 -4.04349 -1.04363 0
M  V30 5488 N 504.032 -0.577932 -1.46621 0
M  V30 5489 C 504.964 0.195801 -2.28362 0
M  V30 5490 C 505.977 0.859983 -1.38232 0
M  V30 5491 O 507.166 0.730349 -1.62875 0
M  V30 5492 C 504.266 1.29639 -3.13124 0
M  V30 5493 C 503.439 0.725049 -4.31349 0
M  V30 5494 C 502.498 1.71274 -4.97546 0
M  V30 5495 O 501.524 1.25067 -5.5529 0
M  V30 5496 N 502.726 3.04672 -4.94121 0
M  V30 5497 H 505.491 -0.505468 -2.95407 0
M  V30 5498 H 503.052 -0.415381 -1.56481 0
M  V30 5499 H 505.044 1.95631 -3.54275 0
M  V30 5500 H 503.614 1.90059 -2.48186 0
M  V30 5501 H 502.834 -0.112205 -3.9404 0
M  V30 5502 H 504.122 0.323034 -5.07774 0
M  V30 5503 H 503.52 3.4484 -4.48444 0
M  V30 5504 H 502.077 3.66166 -5.39227 0
M  V30 5505 N 505.51 1.54411 -0.315457 0
M  V30 5506 C 506.75 2.02329 0.290236 0
M  V30 5507 C 507.114 1.19878 1.49977 0
M  V30 5508 O 508.315 1.57562 2.17779 0
M  V30 5509 C 506.586 3.51912 0.623937 0
M  V30 5510 S 508.145 4.21775 1.21044 0
M  V30 5511 H 504.963 0.705499 0.0882739 0
M  V30 5512 H 507.565 1.90328 -0.446694 0
M  V30 5513 H 506.269 4.09546 -0.264624 0
M  V30 5514 H 505.8 3.67977 1.39128 0
M  V30 5515 H 507.815 4.28757 2.49764 0
M  V30 5516 N 506.988 0.0434614 1.5754 0
M  V30 5517 C 508.237 -0.631454 1.91561 0
M  V30 5518 C 508.55 -1.72457 0.92292 0
M  V30 5519 O 509.756 -2.45712 1.15489 0
M  V30 5520 C 508.212 -1.17447 3.40197 0
M  V30 5521 C 507.82 -0.113867 4.47855 0
M  V30 5522 C 509.564 -1.82507 3.83264 0
M  V30 5523 C 507.471 -0.669326 5.876 0
M  V30 5524 H 506.401 -0.239629 0.714908 0
M  V30 5525 H 509.052 0.111097 1.83163 0
M  V30 5526 H 507.434 -1.96909 3.43574 0
M  V30 5527 H 508.608 0.659348 4.56058 0
M  V30 5528 H 506.923 0.438821 4.14081 0
M  V30 5529 H 509.52 -2.25047 4.85034 0
M  V30 5530 H 509.863 -2.67365 3.19095 0
M  V30 5531 H 510.396 -1.09712 3.82372 0
M  V30 5532 H 507.135 0.141449 6.55347 0
M  V30 5533 H 506.655 -1.4107 5.82974 0
M  V30 5534 H 508.334 -1.15463 6.36614 0
M  V30 5535 N 508.466 -1.55915 -0.229846 0
M  V30 5536 C 509.414 -1.9258 -1.30444 0
M  V30 5537 C 510.408 -0.806839 -1.48951 0
M  V30 5538 O 511.614 -0.991606 -1.50224 0
M  V30 5539 H 507.989 -0.611878 -0.437161 0
M  V30 5540 H 509.96 -2.82264 -0.96797 0
M  V30 5541 C 508.709 -2.25171 -2.6494 0
M  V30 5542 H 508.032 -3.10782 -2.51504 0
M  V30 5543 H 509.472 -2.54716 -3.38963 0
M  V30 5544 C 507.931 -1.07394 -3.19324 0
M  V30 5545 O 508.461 -0.330759 -4.00336 0
M  V30 5546 N 506.667 -0.859984 -2.77584 0
M  V30 5547 H 506.214 -1.46605 -2.11813 0
M  V30 5548 H 506.172 -0.0736671 -3.14314 0
M  V30 5549 N 509.944 0.496216 -1.49584 0
M  V30 5550 C 511.192 1.24756 -1.58998 0
M  V30 5551 C 511.513 1.92968 -0.280775 0
M  V30 5552 O 510.783 1.82959 0.700198 0
M  V30 5553 H 509.363 0.463471 -0.585836 0
M  V30 5554 H 512.025 0.574678 -1.86235 0
M  V30 5555 H 511.121 2.00895 -2.38847 0
M  V30 5556 N 511.423 1.38739 0.74761 0
M  V30 5557 C 512.37 1.36449 1.86146 0
M  V30 5558 C 513.34 0.226098 1.64554 0
M  V30 5559 O 514.525 0.41926 1.86137 0
M  V30 5560 C 511.665 1.2013 3.23516 0
M  V30 5561 C 510.778 2.43407 3.56899 0
M  V30 5562 C 509.913 2.19773 4.83605 0
M  V30 5563 C 508.952 3.3879 5.09792 0
M  V30 5564 N 508.089 3.14553 6.27695 0
M  V30 5565 H 512.929 2.3167 1.87438 0
M  V30 5566 H 510.466 1.15094 0.916063 0
M  V30 5567 H 512.424 1.08683 4.02795 0
M  V30 5568 H 511.054 0.285453 3.21535 0
M  V30 5569 H 510.106 2.65504 2.72418 0
M  V30 5570 H 511.418 3.32094 3.72176 0
M  V30 5571 H 510.572 2.05496 5.70838 0
M  V30 5572 H 509.311 1.28461 4.70478 0
M  V30 5573 H 508.316 3.53579 4.21025 0
M  V30 5574 H 509.541 4.30986 5.24812 0
M  V30 5575 H 507.487 2.25893 6.1588 0
M  V30 5576 H 507.404 3.96791 6.435 0
M  V30 5577 H 508.672 3.03943 7.17801 0
M  V30 5578 N 512.901 -0.976442 1.23707 0
M  V30 5579 C 514.147 -1.72081 1.07312 0
M  V30 5580 C 514.48 -1.90275 -0.388476 0
M  V30 5581 O 513.755 -1.4579 -1.28746 0
M  V30 5582 C 514.038 -3.11675 1.80363 0
M  V30 5583 C 513.891 -3.01027 3.3422 0
M  V30 5584 C 515.21 -4.1117 1.5693 0
M  V30 5585 H 512.329 -0.624583 0.391236 0
M  V30 5586 H 514.971 -1.13649 1.52263 0
M  V30 5587 H 513.121 -3.61559 1.42153 0
M  V30 5588 H 514.793 -2.58637 3.81975 0
M  V30 5589 H 513.036 -2.3744 3.63049 0
M  V30 5590 H 513.707 -3.9988 3.80525 0
M  V30 5591 H 516.183 -3.7011 1.90151 0
M  V30 5592 H 515.059 -5.06928 2.10513 0
M  V30 5593 H 515.32 -4.392 0.505548 0
M  V30 5594 N 514.379 -1.04941 -1.1758 0
M  V30 5595 C 515.309 -0.669172 -2.23706 0
M  V30 5596 C 516.29 0.331835 -1.66832 0
M  V30 5597 O 517.475 0.209988 -1.93061 0
M  V30 5598 C 514.605 -0.0404889 -3.47276 0
M  V30 5599 C 513.559 -0.965983 -4.16957 0
M  V30 5600 C 512.885 -0.201312 -5.34321 0
M  V30 5601 C 514.185 -2.28902 -4.69469 0
M  V30 5602 H 515.879 -1.55639 -2.55767 0
M  V30 5603 H 513.425 -0.749793 -1.22939 0
M  V30 5604 H 515.378 0.237298 -4.20731 0
M  V30 5605 H 514.102 0.881658 -3.14475 0
M  V30 5606 H 512.761 -1.22829 -3.45411 0
M  V30 5607 H 512.409 0.723519 -4.97769 0
M  V30 5608 H 512.109 -0.817968 -5.81879 0
M  V30 5609 H 513.633 0.0692499 -6.10561 0
M  V30 5610 H 515.047 -2.07132 -5.34574 0
M  V30 5611 H 513.444 -2.85942 -5.27596 0
M  V30 5612 H 514.514 -2.92937 -3.86414 0
M  V30 5613 N 515.857 1.33968 -0.830081 0
M  V30 5614 C 517.106 1.97323 -0.417928 0
M  V30 5615 C 517.419 1.6652 1.02618 0
M  V30 5616 O 518.625 2.2342 1.54259 0
M  V30 5617 C 517.081 3.53099 -0.696359 0
M  V30 5618 C 516.689 3.92788 -2.15457 0
M  V30 5619 C 518.433 4.23049 -0.350724 0
M  V30 5620 C 516.34 5.41506 -2.37751 0
M  V30 5621 H 515.27 0.738409 -0.152541 0
M  V30 5622 H 517.921 1.52711 -1.01744 0
M  V30 5623 H 516.303 3.95991 -0.0265904 0
M  V30 5624 H 517.477 3.6098 -2.86408 0
M  V30 5625 H 515.792 3.35795 -2.46232 0
M  V30 5626 H 518.389 5.32403 -0.495036 0
M  V30 5627 H 518.732 4.10279 0.705476 0
M  V30 5628 H 519.265 3.85657 -0.975362 0
M  V30 5629 H 516.004 5.5927 -3.41903 0
M  V30 5630 H 515.524 5.74804 -1.7135 0
M  V30 5631 H 517.203 6.0828 -2.20465 0
M  V30 5632 N 517.335 0.585699 1.46312 0
M  V30 5633 C 518.268 -0.194257 2.27372 0
M  V30 5634 C 519.246 -0.894116 1.3581 0
M  V30 5635 O 520.43 -0.907402 1.65222 0
M  V30 5636 C 517.557 -1.27901 3.13622 0
M  V30 5637 C 516.603 -0.684666 4.20969 0
M  V30 5638 S 517.436 0.490745 5.33247 0
M  V30 5639 C 518.592 -0.595137 6.23064 0
M  V30 5640 H 518.825 0.493515 2.93175 0
M  V30 5641 H 516.358 0.372666 1.49835 0
M  V30 5642 H 518.316 -1.90008 3.63878 0
M  V30 5643 H 516.977 -1.93875 2.47126 0
M  V30 5644 H 516.17 -1.50015 4.81156 0
M  V30 5645 H 515.772 -0.139204 3.73741 0
M  V30 5646 H 518.064 -1.48002 6.61137 0
M  V30 5647 H 519.007 -0.0299446 7.08094 0
M  V30 5648 H 519.415 -0.900627 5.57269 0
M  V30 5649 N 518.813 -1.54241 0.323641 0
M  V30 5650 C 519.763 -2.21071 -0.557833 0
M  V30 5651 C 520.747 -1.19126 -1.08157 0
M  V30 5652 O 521.939 -1.44755 -1.01857 0
M  V30 5653 C 519.068 -2.97208 -1.71821 0
M  V30 5654 C 518.154 -4.06491 -1.20936 0
M  V30 5655 N 518.545 -5.04052 -0.420202 0
M  V30 5656 C 516.843 -4.20443 -1.48808 0
M  V30 5657 C 517.544 -5.81516 -0.146413 0
M  V30 5658 N 516.52 -5.38641 -0.732562 0
M  V30 5659 H 520.322 -2.93853 0.0523921 0
M  V30 5660 H 517.836 -1.61883 0.129502 0
M  V30 5661 H 519.833 -3.4357 -2.36146 0
M  V30 5662 H 518.493 -2.25947 -2.33191 0
M  V30 5663 H 519.504 -5.17862 -0.0630401 0
M  V30 5664 H 516.181 -3.60396 -2.10762 0
M  V30 5665 H 517.571 -6.70119 0.488895 0
M  V30 5666 N 520.291 -0.0518155 -1.57515 0
M  V30 5667 C 521.539 0.620595 -1.92336 0
M  V30 5668 C 521.86 1.71345 -0.930907 0
M  V30 5669 O 521.13 1.95885 0.0241341 0
M  V30 5670 H 519.71 0.232226 -0.709986 0
M  V30 5671 H 522.372 -0.104969 -1.94617 0
M  V30 5672 H 521.468 1.05879 -2.93592 0
M  V30 5673 N 521.769 1.56035 0.221574 0
M  V30 5674 C 523.017 1.78693 0.944102 0
M  V30 5675 C 523.338 0.620317 1.8487 0
M  V30 5676 O 522.608 -0.362784 1.92512 0
M  V30 5677 H 521.188 0.659082 0.351597 0
M  V30 5678 H 523.85 1.93497 0.233435 0
M  V30 5679 H 522.946 2.70837 1.55093 0
M  V30 5680 N 523.247 -0.488276 1.49845 0
M  V30 5681 C 524.177 -1.59675 1.70371 0
M  V30 5682 C 525.158 -1.60878 0.552473 0
M  V30 5683 O 526.343 -1.77417 0.78973 0
M  V30 5684 C 523.473 -2.98098 1.782 0
M  V30 5685 C 522.427 -3.11761 2.93239 0
M  V30 5686 C 521.753 -4.51661 2.86193 0
M  V30 5687 C 523.053 -2.90589 4.33999 0
M  V30 5688 H 524.747 -1.42752 2.63177 0
M  V30 5689 H 522.293 -0.685317 1.26647 0
M  V30 5690 H 524.246 -3.75555 1.91144 0
M  V30 5691 H 522.97 -3.16138 0.820018 0
M  V30 5692 H 521.629 -2.36732 2.79917 0
M  V30 5693 H 521.277 -4.66595 1.87877 0
M  V30 5694 H 520.977 -4.61742 3.63412 0
M  V30 5695 H 522.501 -5.31162 3.01163 0
M  V30 5696 H 523.915 -3.57807 4.47936 0
M  V30 5697 H 522.312 -3.1213 5.12538 0
M  V30 5698 H 523.382 -1.86595 4.4756 0
M  V30 5699 N 524.725 -1.39134 -0.740242 0
M  V30 5700 C 525.972 -1.36071 -1.49969 0
M  V30 5701 C 526.3 0.0450245 -1.94448 0
M  V30 5702 O 525.555 1.02482 -1.66721 0
M  V30 5703 C 525.854 -2.27457 -2.75678 0
M  V30 5704 C 525.52 -3.75185 -2.50094 0
M  V30 5705 C 524.182 -4.15439 -2.42825 0
M  V30 5706 C 526.534 -4.68643 -2.28086 0
M  V30 5707 C 523.862 -5.4722 -2.11584 0
M  V30 5708 C 526.214 -6.00695 -1.98363 0
M  V30 5709 C 524.878 -6.40018 -1.8956 0
M  V30 5710 H 524.148 -0.497921 -0.548777 0
M  V30 5711 H 526.795 -1.71599 -0.85007 0
M  V30 5712 H 525.1 -1.8503 -3.45356 0
M  V30 5713 H 526.797 -2.22384 -3.33686 0
M  V30 5714 H 523.387 -3.43279 -2.56627 0
M  V30 5715 H 527.571 -4.3838 -2.32672 0
M  V30 5716 H 522.827 -5.76615 -2.03287 0
M  V30 5717 H 527.001 -6.72644 -1.80341 0
M  V30 5718 H 524.628 -7.42051 -1.65117 0
M  V30 5719 N 526.204 0.969867 -1.24223 0
M  V30 5720 C 527.429 1.75289 -1.10853 0
M  V30 5721 C 527.854 1.85091 0.335079 0
M  V30 5722 O 527.212 1.32024 1.24255 0
M  V30 5723 C 527.26 3.15255 -1.75062 0
M  V30 5724 O 526.364 3.99589 -1.01992 0
M  V30 5725 H 525.705 0.538904 -0.387915 0
M  V30 5726 H 528.235 1.21675 -1.64488 0
M  V30 5727 H 528.245 3.65787 -1.80731 0
M  V30 5728 H 526.92 3.07436 -2.801 0
M  V30 5729 H 525.497 3.58077 -1.04094 0
M  V30 5730 N 527.682 1.05563 1.17022 0
M  V30 5731 C 528.592 0.670758 2.24807 0
M  V30 5732 C 529.608 -0.309865 1.71219 0
M  V30 5733 O 530.784 -0.161025 2.00755 0
M  V30 5734 C 527.849 0.055337 3.46656 0
M  V30 5735 C 526.91 1.08688 4.15314 0
M  V30 5736 C 526.143 0.500736 5.31346 0
M  V30 5737 O 526.366 -0.688718 5.66227 0
M  V30 5738 O 525.3 1.23683 5.89055 0
M  V30 5739 H 529.126 1.56914 2.60023 0
M  V30 5740 H 526.711 0.827428 1.24395 0
M  V30 5741 H 528.593 -0.286492 4.20425 0
M  V30 5742 H 527.268 -0.816638 3.13229 0
M  V30 5743 H 526.175 1.48077 3.43546 0
M  V30 5744 H 527.508 1.93014 4.52777 0
M  V30 5745 N 529.16 -1.33526 0.837174 0
M  V30 5746 C 530.437 -1.92369 0.354065 0
M  V30 5747 C 530.817 -1.76348 -1.16038 0
M  V30 5748 O 530.165 -1.15083 -1.97403 0
M  V30 5749 C 530.375 -3.39728 0.799101 0
M  V30 5750 C 531.723 -4.16877 0.806139 0
M  V30 5751 O 532.747 -3.48373 0.742597 0
M  V30 5752 O 531.606 -5.39166 0.892345 0
M  V30 5753 H 528.7 -0.820952 0.0998378 0
M  V30 5754 H 531.246 -1.42409 0.922913 0
M  V30 5755 H 530.018 -3.45254 1.84162 0
M  V30 5756 H 529.641 -3.97062 0.206731 0
M  V30 5757 N 530.638 -0.59345 -1.46 0
M  V30 5758 C 531.886 -0.082988 -2.0193 0
M  V30 5759 C 532.207 1.28569 -1.46612 0
M  V30 5760 O 531.477 1.84629 -0.654909 0
M  V30 5761 H 530.057 -0.0276882 -0.746487 0
M  V30 5762 H 532.719 -0.771657 -1.78973 0
M  V30 5763 H 531.815 -0.022079 -3.12092 0
M  V30 5764 N 532.116 1.54067 -0.331816 0
M  V30 5765 C 533.362 2.01012 0.268667 0
M  V30 5766 C 533.695 1.2195 1.51136 0
M  V30 5767 O 532.97 0.303972 1.9211 0
M  V30 5768 C 533.253 3.55158 0.59456 0
M  V30 5769 C 533.106 4.4494 -0.659409 0
M  V30 5770 C 534.425 4.16939 1.4089 0
M  V30 5771 H 531.544 0.730698 0.0961756 0
M  V30 5772 H 534.186 1.84593 -0.450031 0
M  V30 5773 H 532.336 3.6928 1.20685 0
M  V30 5774 H 534.008 4.42675 -1.29756 0
M  V30 5775 H 532.251 4.1428 -1.28665 0
M  V30 5776 H 532.922 5.50643 -0.386804 0
M  V30 5777 H 535.398 4.06443 0.891272 0
M  V30 5778 H 534.274 5.24889 1.60569 0
M  V30 5779 H 534.535 3.70798 2.40752 0
M  V30 5780 N 533.594 0.0601682 1.57485 0
M  V30 5781 C 534.822 -0.620937 1.97363 0
M  V30 5782 C 535.237 -1.63846 0.938082 0
M  V30 5783 O 534.594 -1.82339 -0.0766578 0
M  V30 5784 C 534.645 -1.29987 3.37321 0
M  V30 5785 O 534.366 -0.323081 4.36907 0
M  V30 5786 C 535.867 -2.06989 3.92008 0
M  V30 5787 H 533.087 -0.169135 0.649334 0
M  V30 5788 H 535.631 0.129132 2.04092 0
M  V30 5789 H 533.786 -2.0011 3.31715 0
M  V30 5790 H 534.2 -0.808754 5.18227 0
M  V30 5791 H 535.674 -2.49901 4.92192 0
M  V30 5792 H 536.151 -2.92173 3.2792 0
M  V30 5793 H 536.757 -1.41757 4.0098 0
M  V30 5794 N 535.072 -1.5615 -0.213296 0
M  V30 5795 C 536.002 -1.96109 -1.26742 0
M  V30 5796 C 536.983 -0.830448 -1.48451 0
M  V30 5797 O 538.168 -1.09339 -1.60495 0
M  V30 5798 C 535.298 -2.28492 -2.61551 0
M  V30 5799 C 534.252 -3.44124 -2.54485 0
M  V30 5800 C 533.578 -3.62134 -3.93399 0
M  V30 5801 C 534.878 -4.78855 -2.08556 0
M  V30 5802 H 536.572 -2.84412 -0.935434 0
M  V30 5803 H 534.118 -1.36836 -0.44854 0
M  V30 5804 H 536.071 -2.55039 -3.3546 0
M  V30 5805 H 534.795 -1.37052 -2.96453 0
M  V30 5806 H 533.454 -3.17639 -1.83033 0
M  V30 5807 H 533.102 -2.68055 -4.25623 0
M  V30 5808 H 532.802 -4.39913 -3.89551 0
M  V30 5809 H 534.326 -3.91038 -4.68958 0
M  V30 5810 H 535.74 -5.04552 -2.72213 0
M  V30 5811 H 534.137 -5.59975 -2.1575 0
M  V30 5812 H 535.207 -4.73657 -1.03811 0
M  V30 5813 N 536.55 0.480323 -1.50102 0
M  V30 5814 C 537.827 1.24159 -1.51142 0
M  V30 5815 C 538.207 2.09605 -0.250818 0
M  V30 5816 O 537.555 2.15274 0.766118 0
M  V30 5817 C 537.765 2.08057 -2.80202 0
M  V30 5818 C 539.113 2.66556 -3.30504 0
M  V30 5819 O 540.137 2.18308 -2.81461 0
M  V30 5820 O 538.996 3.54442 -4.15973 0
M  V30 5821 H 536.09 0.562928 -0.605839 0
M  V30 5822 H 538.636 0.492899 -1.62384 0
M  V30 5823 H 537.408 1.45032 -3.6343 0
M  V30 5824 H 537.031 2.90079 -2.71919 0
M  V30 5825 N 538.028 1.39524 0.732853 0
M  V30 5826 C 539.305 1.27373 1.48444 0
M  V30 5827 C 539.685 -0.115725 2.10783 0
M  V30 5828 O 539.033 -1.12713 1.98766 0
M  V30 5829 C 539.243 2.39966 2.53412 0
M  V30 5830 C 540.591 2.79384 3.19733 0
M  V30 5831 O 541.615 2.39431 2.63725 0
M  V30 5832 O 540.474 3.48353 4.21085 0
M  V30 5833 H 537.568 0.499272 0.659285 0
M  V30 5834 H 540.114 1.51403 0.766496 0
M  V30 5835 H 538.886 3.32845 2.05742 0
M  V30 5836 H 538.509 2.17612 3.32762 0
M  V30 5837 N 539.506 -0.963266 1.24736 0
M  V30 5838 C 540.755 -1.70115 1.08369 0
M  V30 5839 C 541.068 -1.91939 -0.376688 0
M  V30 5840 O 542.274 -2.6334 -0.660624 0
M  V30 5841 C 540.73 -3.06218 1.89099 0
M  V30 5842 C 540.338 -2.92221 3.39574 0
M  V30 5843 C 542.082 -3.83848 1.81275 0
M  V30 5844 C 539.989 -4.23662 4.12631 0
M  V30 5845 H 538.919 -0.637944 0.401924 0
M  V30 5846 H 541.57 -1.07304 1.48856 0
M  V30 5847 H 539.952 -3.69884 1.41429 0
M  V30 5848 H 541.126 -2.37541 3.94856 0
M  V30 5849 H 539.441 -2.28054 3.48397 0
M  V30 5850 H 542.038 -4.81188 2.33158 0
M  V30 5851 H 542.381 -4.08949 0.778895 0
M  V30 5852 H 542.914 -3.26918 2.26649 0
M  V30 5853 H 539.653 -4.03753 5.16395 0
M  V30 5854 H 539.173 -4.78141 3.62135 0
M  V30 5855 H 540.852 -4.92256 4.19873 0
M  V30 5856 N 540.985 -1.06182 -1.16461 0
M  V30 5857 C 542.401 -0.785065 -1.38956 0
M  V30 5858 C 542.601 0.616103 -1.9185 0
M  V30 5859 O 541.657 1.37686 -2.11657 0
M  V30 5860 C 542.97 -1.84902 -2.37132 0
M  V30 5861 C 544.518 -1.8724 -2.50819 0
M  V30 5862 C 544.993 -2.92686 -3.52277 0
M  V30 5863 N 546.484 -2.91712 -3.59803 0
M  V30 5864 C 547.219 -3.69949 -4.38093 0
M  V30 5865 N 546.715 -4.58 -5.19815 0
M  V30 5866 N 548.508 -3.58346 -4.33064 0
M  V30 5867 H 540.659 -1.96569 -0.804634 0
M  V30 5868 H 542.922 -0.851747 -0.416211 0
M  V30 5869 H 542.628 -2.85518 -2.0536 0
M  V30 5870 H 542.502 -1.69908 -3.36766 0
M  V30 5871 H 544.889 -0.872827 -2.81897 0
M  V30 5872 H 544.97 -2.06311 -1.51226 0
M  V30 5873 H 544.614 -3.92835 -3.21937 0
M  V30 5874 H 544.544 -2.70864 -4.51598 0
M  V30 5875 H 547.035 -2.27876 -3.01464 0
M  V30 5876 H 547.348 -5.14357 -5.76764 0
M  V30 5877 H 545.693 -4.62056 -5.19162 0
M  V30 5878 H 548.884 -2.88943 -3.68279 0
M  V30 5879 H 549.057 -4.19563 -4.93833 0
M  V30 5880 N 542.463 1.3308 -0.844243 0
M  V30 5881 C 543.41 2.29104 -0.279323 0
M  V30 5882 C 544.38 1.54577 0.607882 0
M  V30 5883 O 545.565 1.8285 0.545009 0
M  V30 5884 C 542.705 3.40927 0.53508 0
M  V30 5885 C 541.818 4.30354 -0.376749 0
M  V30 5886 C 540.953 5.29297 0.449276 0
M  V30 5887 C 539.992 6.10365 -0.460606 0
M  V30 5888 N 539.129 7.01335 0.327612 0
M  V30 5889 H 543.969 2.76817 -1.10346 0
M  V30 5890 H 541.506 1.36203 -0.555611 0
M  V30 5891 H 543.464 4.04469 1.02278 0
M  V30 5892 H 542.094 2.94391 1.32414 0
M  V30 5893 H 541.146 3.67485 -0.982791 0
M  V30 5894 H 542.458 4.87067 -1.07549 0
M  V30 5895 H 541.612 5.98392 1.00058 0
M  V30 5896 H 540.351 4.73174 1.18143 0
M  V30 5897 H 539.356 5.40182 -1.02388 0
M  V30 5898 H 540.581 6.68571 -1.1912 0
M  V30 5899 H 538.527 6.47655 1.04305 0
M  V30 5900 H 538.444 7.55355 -0.3123 0
M  V30 5901 H 539.712 7.74731 0.86098 0
M  V30 5902 N 543.941 0.601185 1.45683 0
M  V30 5903 C 545.19 0.0914953 2.01492 0
M  V30 5904 C 545.503 -1.28331 1.47616 0
M  V30 5905 O 546.709 -1.88537 1.95362 0
M  V30 5906 C 545.165 0.11291 3.59723 0
M  V30 5907 C 544.773 1.48717 4.22596 0
M  V30 5908 C 546.517 -0.341871 4.23121 0
M  V30 5909 C 544.424 1.46531 5.7296 0
M  V30 5910 H 543.354 0.0304365 0.753385 0
M  V30 5911 H 546.005 0.755568 1.67223 0
M  V30 5912 H 544.387 -0.617692 3.91153 0
M  V30 5913 H 545.561 2.23897 4.02749 0
M  V30 5914 H 543.876 1.88351 3.71366 0
M  V30 5915 H 546.473 -0.377304 5.33367 0
M  V30 5916 H 546.816 -1.36325 3.93346 0
M  V30 5917 H 547.349 0.335256 3.96385 0
M  V30 5918 H 544.088 2.46408 6.07423 0
M  V30 5919 H 543.608 0.755997 5.95017 0
M  V30 5920 H 545.287 1.18618 6.36034 0
M  V30 5921 N 545.419 -1.53889 0.339982 0
M  V30 5922 C 546.329 -2.28604 -0.526988 0
M  V30 5923 C 547.345 -1.33578 -1.11503 0
M  V30 5924 O 548.521 -1.66612 -1.13148 0
M  V30 5925 C 545.586 -3.04164 -1.66389 0
M  V30 5926 C 544.647 -4.14809 -1.10599 0
M  V30 5927 C 543.88 -4.86756 -2.18871 0
M  V30 5928 O 544.103 -4.58343 -3.39526 0
M  V30 5929 O 543.037 -5.73289 -1.83366 0
M  V30 5930 H 546.863 -3.03594 0.0802707 0
M  V30 5931 H 544.448 -1.4903 0.105141 0
M  V30 5932 H 546.33 -3.51427 -2.32544 0
M  V30 5933 H 545.005 -2.32035 -2.25703 0
M  V30 5934 H 543.912 -3.71857 -0.409067 0
M  V30 5935 H 545.245 -4.89029 -0.557771 0
M  V30 5936 N 546.897 -0.0685191 -1.57451 0
M  V30 5937 C 548.313 0.288101 -1.56978 0
M  V30 5938 C 548.513 1.70262 -1.07765 0
M  V30 5939 O 547.569 2.4135 -0.742054 0
M  V30 5940 C 548.882 0.100745 -3.00531 0
M  V30 5941 C 550.43 0.170531 -3.12535 0
M  V30 5942 C 550.905 0.0114944 -4.57999 0
M  V30 5943 N 552.396 0.0672065 -4.63151 0
M  V30 5944 C 553.131 -0.0314813 -5.73391 0
M  V30 5945 N 552.627 -0.183503 -6.92557 0
M  V30 5946 N 554.42 0.0253489 -5.62094 0
M  V30 5947 H 546.571 -0.993026 -1.87757 0
M  V30 5948 H 548.834 -0.386981 -0.865419 0
M  V30 5949 H 548.54 -0.875197 -3.40636 0
M  V30 5950 H 548.414 0.854457 -3.67395 0
M  V30 5951 H 550.801 1.13696 -2.72318 0
M  V30 5952 H 550.882 -0.614229 -2.48316 0
M  V30 5953 H 550.526 -0.951684 -4.98904 0
M  V30 5954 H 550.456 0.815617 -5.20245 0
M  V30 5955 H 552.947 0.183246 -3.77455 0
M  V30 5956 H 553.26 -0.251041 -7.72392 0
M  V30 5957 H 551.605 -0.218822 -6.94655 0
M  V30 5958 H 554.796 0.142794 -4.67882 0
M  V30 5959 H 554.969 -0.0550166 -6.47977 0
M  V30 5960 N 548.375 1.56261 0.205012 0
M  V30 5961 C 549.323 1.94631 1.27364 0
M  V30 5962 C 550.317 0.830434 1.47649 0
M  V30 5963 O 551.523 1.01538 1.48627 0
M  V30 5964 H 547.898 0.618755 0.427371 0
M  V30 5965 H 549.869 2.83768 0.922941 0
M  V30 5966 C 548.618 2.29358 2.61324 0
M  V30 5967 H 547.941 3.14744 2.46528 0
M  V30 5968 H 549.381 2.60076 3.34868 0
M  V30 5969 C 547.84 1.12461 3.17575 0
M  V30 5970 O 548.37 0.394407 3.99759 0
M  V30 5971 N 546.576 0.904036 2.7618 0
M  V30 5972 H 546.123 1.49956 2.09454 0
M  V30 5973 H 546.081 0.123662 3.14157 0
M  V30 5974 N 549.853 -0.472356 1.50355 0
M  V30 5975 C 551.269 -0.806001 1.37753 0
M  V30 5976 C 551.469 -1.968 0.432649 0
M  V30 5977 O 550.525 -2.52189 -0.12519 0
M  V30 5978 C 551.838 -1.11926 2.79093 0
M  V30 5979 C 553.386 -1.22579 2.87999 0
M  V30 5980 C 553.861 -1.57218 4.3017 0
M  V30 5981 N 555.352 -1.64212 4.33115 0
M  V30 5982 C 556.087 -1.92517 5.40116 0
M  V30 5983 N 555.583 -2.1885 6.57325 0
M  V30 5984 N 557.376 -1.94008 5.27558 0
M  V30 5985 H 549.527 0.293451 2.10363 0
M  V30 5986 H 551.79 0.0687672 0.945503 0
M  V30 5987 H 551.496 -0.338504 3.50067 0
M  V30 5988 H 551.37 -2.05577 3.16256 0
M  V30 5989 H 553.757 -1.99722 2.17245 0
M  V30 5990 H 553.838 -0.269107 2.54381 0
M  V30 5991 H 553.482 -0.806154 5.01461 0
M  V30 5992 H 553.412 -2.54034 4.61275 0
M  V30 5993 H 555.903 -1.45906 3.48597 0
M  V30 5994 H 556.216 -2.39718 7.3468 0
M  V30 5995 H 554.561 -2.16245 6.60502 0
M  V30 5996 H 557.752 -1.72931 4.34986 0
M  V30 5997 H 557.925 -2.15731 6.11035 0
M  V30 5998 N 551.331 -1.39911 -0.725443 0
M  V30 5999 C 552.263 -1.35301 -1.85003 0
M  V30 6000 C 553.276 -0.260102 -1.60709 0
M  V30 6001 O 554.465 -0.519749 -1.70766 0
M  V30 6002 C 551.565 -1.08039 -3.21218 0
M  V30 6003 C 550.738 -2.28793 -3.7279 0
M  V30 6004 C 549.797 -1.97841 -4.87591 0
M  V30 6005 O 548.823 -2.70616 -5.00755 0
M  V30 6006 N 550.025 -0.950367 -5.72668 0
M  V30 6007 H 552.79 -2.32218 -1.89459 0
M  V30 6008 H 550.351 -1.34137 -0.90658 0
M  V30 6009 H 552.343 -0.853354 -3.95601 0
M  V30 6010 H 550.913 -0.198229 -3.11971 0
M  V30 6011 H 550.133 -2.67388 -2.8965 0
M  V30 6012 H 551.421 -3.09317 -4.03981 0
M  V30 6013 H 550.819 -0.347436 -5.64632 0
M  V30 6014 H 549.376 -0.783232 -6.47077 0
M  V30 6015 N 552.809 0.956637 -1.25245 0
M  V30 6016 C 554.22 1.51569 -1.09012 0
M  V30 6017 C 554.571 1.93322 0.334813 0
M  V30 6018 O 553.696 1.78421 1.22454 0
M  V30 6019 C 554.291 2.75444 -1.97271 0
M  V30 6020 C 552.85 3.27669 -1.8523 0
M  V30 6021 C 551.997 2.00517 -1.91542 0
M  V30 6022 H 554.948 0.773746 -1.3856 0
M  V30 6023 H 554.969 3.4919 -1.51151 0
M  V30 6024 H 554.481 2.45024 -3.00973 0
M  V30 6025 H 552.582 3.62914 -0.844045 0
M  V30 6026 H 552.695 3.9582 -2.69932 0
M  V30 6027 H 551.059 2.15727 -1.35404 0
M  V30 6028 H 551.842 1.72448 -2.96844 0
M  V30 6029 N 554.287 1.06798 1.15896 0
M  V30 6030 C 555.698 0.811355 1.68149 0
M  V30 6031 C 556.049 -0.664339 1.8461 0
M  V30 6032 O 555.174 -1.51485 1.54535 0
M  V30 6033 C 555.769 1.46624 3.05429 0
M  V30 6034 C 554.328 1.25726 3.54781 0
M  V30 6035 C 553.475 1.53949 2.3064 0
M  V30 6036 H 556.426 1.23078 1.00187 0
M  V30 6037 H 556.447 0.88437 3.7008 0
M  V30 6038 H 555.959 2.54025 2.93416 0
M  V30 6039 H 554.06 0.20322 3.72045 0
M  V30 6040 H 554.173 1.97354 4.36564 0
M  V30 6041 H 552.537 0.96025 2.35905 0
M  V30 6042 H 553.32 2.6252 2.2122 0
M  V30 6043 N 555.766 -1.3263 0.851289 0
M  V30 6044 C 557.043 -1.91982 0.374448 0
M  V30 6045 C 557.423 -1.77568 -1.14161 0
M  V30 6046 O 556.771 -1.1717 -1.96172 0
M  V30 6047 C 556.981 -3.38862 0.835088 0
M  V30 6048 C 558.329 -4.15999 0.850309 0
M  V30 6049 O 559.353 -3.47566 0.779505 0
M  V30 6050 O 558.212 -5.38189 0.949481 0
M  V30 6051 H 555.306 -0.819846 0.10854 0
M  V30 6052 H 557.852 -1.41422 0.937966 0
M  V30 6053 H 556.624 -3.43281 1.87814 0
M  V30 6054 H 556.247 -3.96821 0.248833 0
M  V30 6055 N 557.244 -0.608902 -1.45362 0
M  V30 6056 C 558.469 -0.10921 -2.07112 0
M  V30 6057 C 558.894 1.19779 -1.45033 0
M  V30 6058 O 558.252 1.72961 -0.543527 0
M  V30 6059 C 558.3 0.0155745 -3.60597 0
M  V30 6060 O 557.404 1.06546 -3.98399 0
M  V30 6061 H 556.745 -0.0746619 -0.659789 0
M  V30 6062 H 559.275 -0.839283 -1.86594 0
M  V30 6063 H 559.285 0.213364 -4.07442 0
M  V30 6064 H 557.96 -0.938765 -4.05167 0
M  V30 6065 H 556.537 0.844024 -3.63223 0
M  V30 6066 N 558.722 1.53707 -0.348139 0
M  V30 6067 C 559.97 2.00591 0.246478 0
M  V30 6068 C 560.291 1.23753 1.50699 0
M  V30 6069 O 559.561 0.345964 1.92821 0
M  V30 6070 H 558.141 0.741053 0.0940679 0
M  V30 6071 H 560.803 1.89139 -0.470354 0
M  V30 6072 H 559.899 3.08297 0.485714 0
M  V30 6073 N 560.2 0.0768682 1.57412 0
M  V30 6074 C 561.611 -0.455037 1.8107 0
M  V30 6075 C 561.962 -1.69323 0.991162 0
M  V30 6076 O 561.087 -2.15328 0.215156 0
M  V30 6077 C 561.682 -0.832316 3.28417 0
M  V30 6078 C 560.241 -1.30906 3.52903 0
M  V30 6079 C 559.388 -0.296714 2.75708 0
M  V30 6080 H 562.339 0.302514 1.5579 0
M  V30 6081 H 562.36 -1.69333 3.40744 0
M  V30 6082 H 561.872 0.0690532 3.88039 0
M  V30 6083 H 559.973 -2.22875 2.98592 0
M  V30 6084 H 560.086 -1.28348 4.61588 0
M  V30 6085 H 558.45 -0.775059 2.42621 0
M  V30 6086 H 559.233 0.597015 3.38069 0
M  V30 6087 N 561.678 -1.56367 -0.196722 0
M  V30 6088 C 562.611 -1.89475 -1.2718 0
M  V30 6089 C 563.589 -0.754667 -1.44026 0
M  V30 6090 O 564.773 -1.00551 -1.59442 0
M  V30 6091 C 561.9 -2.12352 -2.63864 0
M  V30 6092 C 560.946 -3.35053 -2.63897 0
M  V30 6093 S 561.779 -4.90228 -2.15492 0
M  V30 6094 C 562.935 -5.16171 -3.54004 0
M  V30 6095 H 563.168 -2.80365 -0.989075 0
M  V30 6096 H 560.701 -1.49125 -0.40014 0
M  V30 6097 H 562.659 -2.26214 -3.42545 0
M  V30 6098 H 561.32 -1.22214 -2.89349 0
M  V30 6099 H 560.513 -3.48182 -3.64397 0
M  V30 6100 H 560.115 -3.20176 -1.93296 0
M  V30 6101 H 562.407 -5.06591 -4.49857 0
M  V30 6102 H 563.35 -6.17938 -3.45771 0
M  V30 6103 H 563.758 -4.43814 -3.48841 0
M  V30 6104 N 563.156 0.464375 -1.50603 0
M  V30 6105 C 564.396 1.22573 -1.6357 0
M  V30 6106 C 564.76 1.89111 -0.331834 0
M  V30 6107 O 565.961 2.66679 -0.336999 0
M  V30 6108 C 564.232 2.23643 -2.7878 0
M  V30 6109 S 565.791 3.08628 -3.1192 0
M  V30 6110 H 562.609 0.416058 -0.576556 0
M  V30 6111 H 565.211 0.521637 -1.88412 0
M  V30 6112 H 563.915 1.73354 -3.7199 0
M  V30 6113 H 563.446 2.98672 -2.56044 0
M  V30 6114 H 565.461 4.24904 -2.56264 0
M  V30 6115 N 564.634 1.40294 0.718013 0
M  V30 6116 C 565.911 1.2894 1.47084 0
M  V30 6117 C 566.291 -0.0933625 2.10893 0
M  V30 6118 O 565.639 -1.10598 1.99951 0
M  V30 6119 C 565.849 2.4264 2.50852 0
M  V30 6120 C 567.197 2.8276 3.16752 0
M  V30 6121 O 568.221 2.42215 2.61171 0
M  V30 6122 O 567.08 3.528 4.17366 0
M  V30 6123 H 564.174 0.506236 0.653952 0
M  V30 6124 H 566.72 1.52208 0.750394 0
M  V30 6125 H 565.492 3.35009 2.022 0
M  V30 6126 H 565.115 2.21129 3.30435 0
M  V30 6127 N 566.112 -0.949982 1.2575 0
M  V30 6128 C 567.042 -2.06483 1.09028 0
M  V30 6129 C 568.023 -1.701 -0.00201532 0
M  V30 6130 O 569.208 -1.93469 0.168383 0
M  V30 6131 C 566.338 -3.39899 0.71316 0
M  V30 6132 C 565.292 -3.90309 1.75621 0
M  V30 6133 C 564.618 -5.20274 1.23365 0
M  V30 6134 C 565.918 -4.16169 3.15596 0
M  V30 6135 H 567.612 -2.20731 2.02283 0
M  V30 6136 H 565.158 -1.06066 0.973964 0
M  V30 6137 H 567.111 -4.17346 0.58309 0
M  V30 6138 H 565.835 -3.25602 -0.255091 0
M  V30 6139 H 564.494 -3.15035 1.8748 0
M  V30 6140 H 564.142 -5.02351 0.255491 0
M  V30 6141 H 563.842 -5.54971 1.93082 0
M  V30 6142 H 565.366 -6.00314 1.11607 0
M  V30 6143 H 566.78 -4.84259 3.06864 0
M  V30 6144 H 565.177 -4.62131 3.82825 0
M  V30 6145 H 566.247 -3.22273 3.6231 0
M  V30 6146 N 567.59 -1.07411 -1.15328 0
M  V30 6147 C 568.52 -0.716472 -2.22236 0
M  V30 6148 C 569.501 0.296373 -1.67498 0
M  V30 6149 O 570.686 0.168989 -1.93463 0
M  V30 6150 C 567.816 -0.114142 -3.47112 0
M  V30 6151 C 566.77 -1.05421 -4.14814 0
M  V30 6152 C 566.096 -0.314604 -5.33774 0
M  V30 6153 C 567.396 -2.38808 -4.64508 0
M  V30 6154 H 569.09 -1.61029 -2.52408 0
M  V30 6155 H 566.636 -0.775702 -1.21321 0
M  V30 6156 H 568.589 0.148001 -4.2114 0
M  V30 6157 H 567.313 0.814755 -3.16274 0
M  V30 6158 H 565.972 -1.30128 -3.42728 0
M  V30 6159 H 565.62 0.617772 -4.99192 0
M  V30 6160 H 565.32 -0.941209 -5.80013 0
M  V30 6161 H 566.844 -0.0602747 -6.1057 0
M  V30 6162 H 568.258 -2.18424 -5.3006 0
M  V30 6163 H 566.655 -2.97069 -5.21412 0
M  V30 6164 H 567.725 -3.01067 -3.80114 0
M  V30 6165 N 569.068 1.32177 -0.85831 0
M  V30 6166 C 570.314 1.97813 -0.47346 0
M  V30 6167 C 570.669 1.66674 0.961122 0
M  V30 6168 O 569.962 0.94657 1.66585 0
M  V30 6169 C 570.156 3.51372 -0.653658 0
M  V30 6170 C 569.985 3.97433 -2.1042 0
M  V30 6171 C 568.755 4.24338 -2.74345 0
M  V30 6172 C 570.953 4.12233 -3.0752 0
M  V30 6173 N 568.935 4.56672 -4.10272 0
M  V30 6174 C 570.306 4.48146 -4.28445 0
M  V30 6175 C 572.361 3.94577 -3.03667 0
M  V30 6176 C 571.064 4.68246 -5.4602 0
M  V30 6177 C 573.09 4.15864 -4.20489 0
M  V30 6178 C 572.452 4.52098 -5.40173 0
M  V30 6179 H 568.551 0.749808 -0.222061 0
M  V30 6180 H 571.135 1.59927 -1.11047 0
M  V30 6181 H 569.306 3.88372 -0.0463267 0
M  V30 6182 H 571.038 4.03998 -0.238343 0
M  V30 6183 H 567.793 4.16544 -2.25362 0
M  V30 6184 H 568.217 4.77019 -4.80398 0
M  V30 6185 H 572.859 3.65662 -2.12252 0
M  V30 6186 H 570.577 4.96014 -6.37962 0
M  V30 6187 H 574.163 4.03702 -4.18947 0
M  V30 6188 H 573.043 4.68238 -6.29065 0
M  V30 6189 N 570.547 0.616602 1.45037 0
M  V30 6190 C 571.772 0.120192 2.07051 0
M  V30 6191 C 572.197 -1.19008 1.45666 0
M  V30 6192 O 571.555 -1.7267 0.552692 0
M  V30 6193 C 571.603 0.00354901 3.606 0
M  V30 6194 O 570.707 -1.04431 3.98958 0
M  V30 6195 H 570.048 0.0781599 0.659384 0
M  V30 6196 H 572.578 0.849167 1.86146 0
M  V30 6197 H 572.588 -0.191754 4.07549 0
M  V30 6198 H 571.263 0.960239 4.04663 0
M  V30 6199 H 569.84 -0.824749 3.63665 0
M  V30 6200 N 572.025 -1.5352 0.356285 0
M  V30 6201 C 573.302 -1.93405 -0.292223 0
M  V30 6202 C 573.682 -1.28901 -1.67176 0
M  V30 6203 O 573.03 -0.444632 -2.24132 0
M  V30 6204 C 573.24 -3.47223 -0.35175 0
M  V30 6205 C 574.588 -4.20389 -0.596534 0
M  V30 6206 O 575.612 -3.53554 -0.433344 0
M  V30 6207 O 574.471 -5.3881 -0.913589 0
M  V30 6208 H 571.565 -0.808666 -0.173172 0
M  V30 6209 H 574.111 -1.64713 0.408391 0
M  V30 6210 H 572.883 -3.86423 0.615841 0
M  V30 6211 H 572.506 -3.8212 -1.09864 0
M  V30 6212 N 573.503 -0.0852151 -1.57369 0
M  V30 6213 C 574.914 0.445428 -1.81309 0
M  V30 6214 C 575.265 1.68795 -1.00013 0
M  V30 6215 O 574.39 2.15211 -0.226573 0
M  V30 6216 C 574.985 0.814887 -3.28854 0
M  V30 6217 C 573.544 1.29032 -3.53592 0
M  V30 6218 C 572.691 0.282089 -2.75861 0
M  V30 6219 H 575.642 -0.310771 -1.55627 0
M  V30 6220 H 575.663 1.67524 -3.41637 0
M  V30 6221 H 575.175 -0.0896309 -3.87996 0
M  V30 6222 H 573.276 2.21289 -2.9977 0
M  V30 6223 H 573.389 1.25898 -4.62262 0
M  V30 6224 H 571.753 0.762182 -2.43029 0
M  V30 6225 H 572.536 -0.614936 -3.37748 0
M  V30 6226 N 574.981 1.5647 0.188427 0
M  V30 6227 C 575.913 1.91611 1.25769 0
M  V30 6228 C 576.926 0.807436 1.41366 0
M  V30 6229 O 578.115 1.08586 1.41673 0
M  V30 6230 C 575.215 2.13874 2.6289 0
M  V30 6231 C 574.388 3.45047 2.68815 0
M  V30 6232 C 573.447 3.56342 3.87178 0
M  V30 6233 O 572.473 4.29109 3.73971 0
M  V30 6234 N 573.675 2.89924 5.02916 0
M  V30 6235 H 576.44 2.8393 0.959373 0
M  V30 6236 H 574.001 1.57418 0.378306 0
M  V30 6237 H 575.993 2.18713 3.4051 0
M  V30 6238 H 574.563 1.28022 2.85183 0
M  V30 6239 H 573.783 3.52017 1.77419 0
M  V30 6240 H 575.071 4.31395 2.6977 0
M  V30 6241 H 574.469 2.30644 5.16546 0
M  V30 6242 H 573.026 3.0038 5.78459 0
M  V30 6243 N 576.459 -0.456382 1.50847 0
M  V30 6244 C 577.87 -1.03685 1.55262 0
M  V30 6245 C 578.221 -1.92779 0.364771 0
M  V30 6246 O 577.346 -2.10043 -0.52068 0
M  V30 6247 C 577.941 -1.88718 2.81374 0
M  V30 6248 C 576.5 -2.41847 2.88422 0
M  V30 6249 C 575.647 -1.20564 2.49719 0
M  V30 6250 H 578.598 -0.238399 1.56899 0
M  V30 6251 H 578.619 -2.73957 2.6406 0
M  V30 6252 H 578.131 -1.23847 3.67809 0
M  V30 6253 H 576.232 -3.10228 2.06372 0
M  V30 6254 H 576.345 -2.75947 3.9165 0
M  V30 6255 H 574.709 -1.54504 2.02486 0
M  V30 6256 H 575.492 -0.573326 3.38479 0
M  V30 6257 N 577.937 -1.40673 -0.710563 0
M  V30 6258 C 578.869 -1.37256 -1.83558 0
M  V30 6259 C 579.882 -0.277133 -1.60424 0
M  V30 6260 O 581.071 -0.537831 -1.70205 0
M  V30 6261 C 578.171 -1.1144 -3.20054 0
M  V30 6262 C 577.344 -2.32734 -3.70342 0
M  V30 6263 C 576.403 -2.03002 -4.85465 0
M  V30 6264 O 575.429 -2.75912 -4.97857 0
M  V30 6265 N 576.631 -1.01105 -5.71627 0
M  V30 6266 H 579.396 -2.34215 -1.86985 0
M  V30 6267 H 576.957 -1.35091 -0.892301 0
M  V30 6268 H 578.949 -0.895265 -3.94673 0
M  V30 6269 H 577.519 -0.231307 -3.11743 0
M  V30 6270 H 576.739 -2.70446 -2.86798 0
M  V30 6271 H 578.027 -3.13584 -4.00678 0
M  V30 6272 H 577.425 -0.407303 -5.64232 0
M  V30 6273 H 575.982 -0.85182 -6.4621 0
M  V30 6274 N 579.415 0.9433 -1.26252 0
M  V30 6275 C 580.363 2.06302 -1.07434 0
M  V30 6276 C 581.357 1.694 -0.00189471 0
M  V30 6277 O 582.563 1.79302 -0.158408 0
M  V30 6278 H 578.938 0.675453 -0.330556 0
M  V30 6279 H 580.909 2.19326 -2.02333 0
M  V30 6280 C 579.658 3.40125 -0.721817 0
M  V30 6281 H 578.981 3.68996 -1.5389 0
M  V30 6282 H 580.421 4.19295 -0.629922 0
M  V30 6283 C 578.88 3.31993 0.572902 0
M  V30 6284 O 579.41 3.67945 1.61182 0
M  V30 6285 N 577.616 2.85099 0.562748 0
M  V30 6286 H 577.163 2.5604 -0.283092 0
M  V30 6287 H 577.121 2.80041 1.42915 0
M  V30 6288 N 580.893 1.08022 1.14757 0
M  V30 6289 C 582.141 0.805913 1.85336 0
M  V30 6290 C 582.462 -0.670162 1.83122 0
M  V30 6291 O 581.732 -1.48567 1.2769 0
M  V30 6292 H 580.312 0.295138 0.686223 0
M  V30 6293 H 582.974 1.36538 1.3908 0
M  V30 6294 H 582.07 1.14655 2.90277 0
M  V30 6295 N 582.371 -1.3172 0.865308 0
M  V30 6296 C 583.787 -1.4958 0.556596 0
M  V30 6297 C 583.987 -1.79763 -0.910353 0
M  V30 6298 O 583.043 -1.87351 -1.6928 0
M  V30 6299 C 584.356 -2.63277 1.45279 0
M  V30 6300 C 585.904 -2.77161 1.45433 0
M  V30 6301 C 586.379 -3.93949 2.33598 0
M  V30 6302 N 587.87 -4.01228 2.31453 0
M  V30 6303 C 588.605 -4.90855 2.96393 0
M  V30 6304 N 588.101 -5.85416 3.70486 0
M  V30 6305 N 589.894 -4.84063 2.85726 0
M  V30 6306 H 582.045 -1.10396 1.81456 0
M  V30 6307 H 584.308 -0.54507 0.775631 0
M  V30 6308 H 584.014 -2.47734 2.49641 0
M  V30 6309 H 583.888 -3.59309 1.14792 0
M  V30 6310 H 586.275 -2.9212 0.41831 0
M  V30 6311 H 586.356 -1.8181 1.79941 0
M  V30 6312 H 586 -3.79748 3.37274 0
M  V30 6313 H 585.93 -4.88598 1.96417 0
M  V30 6314 H 588.421 -3.3357 1.77593 0
M  V30 6315 H 588.734 -6.50525 4.17178 0
M  V30 6316 H 587.079 -5.85409 3.74594 0
M  V30 6317 H 590.27 -4.09163 2.27384 0
M  V30 6318 H 590.443 -5.53708 3.36617 0
M  V30 6319 N 583.85 -0.624285 -1.44708 0
M  V30 6320 C 585.075 -0.131171 -2.06985 0
M  V30 6321 C 585.5 1.18234 -1.46295 0
M  V30 6322 O 584.858 1.72375 -0.561842 0
M  V30 6323 C 584.906 -0.0226724 -3.60593 0
M  V30 6324 O 584.01 1.02314 -3.99507 0
M  V30 6325 H 583.351 -0.0816556 -0.65896 0
M  V30 6326 H 585.88 -0.859027 -1.85693 0
M  V30 6327 H 585.891 0.170138 -4.07645 0
M  V30 6328 H 584.566 -0.981685 -4.04148 0
M  V30 6329 H 583.143 0.805452 -3.64097 0
M  V30 6330 N 585.328 1.53329 -0.364422 0
M  V30 6331 C 586.577 2.00421 0.226747 0
M  V30 6332 C 586.89 1.25581 1.49963 0
M  V30 6333 O 588.096 1.63256 2.16933 0
M  V30 6334 C 586.552 3.57017 0.454618 0
M  V30 6335 C 586.16 4.40734 -0.803568 0
M  V30 6336 C 587.904 4.12468 1.00351 0
M  V30 6337 C 585.811 5.8888 -0.545345 0
M  V30 6338 H 584.741 0.748787 0.0885082 0
M  V30 6339 H 587.392 1.7703 -0.482983 0
M  V30 6340 H 585.774 3.76558 1.22558 0
M  V30 6341 H 586.948 4.32967 -1.57723 0
M  V30 6342 H 585.263 3.96381 -1.27559 0
M  V30 6343 H 587.86 5.20783 1.212 0
M  V30 6344 H 588.203 3.6699 1.9653 0
M  V30 6345 H 588.736 3.96721 0.29274 0
M  V30 6346 H 585.475 6.38633 -1.47743 0
M  V30 6347 H 584.995 5.99499 0.189842 0
M  V30 6348 H 586.674 6.46776 -0.170425 0
M  V30 6349 N 586.806 0.0935595 1.57322 0
M  V30 6350 C 588.031 -0.582324 1.99057 0
M  V30 6351 C 588.456 -1.61025 0.972242 0
M  V30 6352 O 587.814 -1.81202 -0.0594622 0
M  V30 6353 C 587.862 -1.20799 3.39765 0
M  V30 6354 O 586.966 -2.32382 3.40694 0
M  V30 6355 H 586.307 -0.147884 0.647323 0
M  V30 6356 H 588.837 0.174516 2.03854 0
M  V30 6357 H 588.847 -1.54966 3.77425 0
M  V30 6358 H 587.522 -0.454914 4.13405 0
M  V30 6359 H 586.099 -1.99845 3.14827 0
M  V30 6360 N 588.284 -1.56567 -0.180126 0
M  V30 6361 C 589.231 -1.95725 -1.22313 0
M  V30 6362 C 590.201 -0.819911 -1.44453 0
M  V30 6363 O 591.386 -1.07931 -1.57339 0
M  V30 6364 C 588.526 -2.31484 -2.55947 0
M  V30 6365 C 587.639 -3.58354 -2.4126 0
M  V30 6366 C 586.774 -3.83366 -3.67701 0
M  V30 6367 C 585.813 -5.03612 -3.47909 0
M  V30 6368 N 584.95 -5.24802 -4.66398 0
M  V30 6369 H 589.79 -2.84642 -0.882198 0
M  V30 6370 H 587.327 -1.4085 -0.42422 0
M  V30 6371 H 589.285 -2.50237 -3.33822 0
M  V30 6372 H 587.915 -1.45689 -2.88053 0
M  V30 6373 H 586.967 -3.47565 -1.54606 0
M  V30 6374 H 588.279 -4.46386 -2.22577 0
M  V30 6375 H 587.433 -4.02439 -4.54013 0
M  V30 6376 H 586.172 -2.93692 -3.89353 0
M  V30 6377 H 585.177 -4.84447 -2.59983 0
M  V30 6378 H 586.402 -5.94809 -3.27688 0
M  V30 6379 H 584.348 -4.38079 -4.88286 0
M  V30 6380 H 584.265 -6.07041 -4.50596 0
M  V30 6381 H 585.533 -5.48346 -5.54019 0
M  V30 6382 N 589.762 0.448376 -1.51087 0
M  V30 6383 C 591.178 0.783984 -1.39017 0
M  V30 6384 C 591.378 1.96087 -0.463904 0
M  V30 6385 O 590.434 2.52357 0.0850534 0
M  V30 6386 C 591.747 1.07471 -2.80839 0
M  V30 6387 C 593.295 1.17981 -2.89913 0
M  V30 6388 C 593.77 1.50354 -4.32617 0
M  V30 6389 N 595.261 1.57301 -4.35673 0
M  V30 6390 C 595.996 1.839 -5.4311 0
M  V30 6391 N 595.492 2.08365 -6.60724 0
M  V30 6392 N 597.285 1.8559 -5.30578 0
M  V30 6393 H 589.436 -0.326881 -2.0987 0
M  V30 6394 H 591.699 -0.0838006 -0.944289 0
M  V30 6395 H 591.405 0.282768 -3.50561 0
M  V30 6396 H 591.279 2.00519 -3.19487 0
M  V30 6397 H 593.666 1.9624 -2.20395 0
M  V30 6398 H 593.747 0.228603 -2.54776 0
M  V30 6399 H 593.391 0.726273 -5.0268 0
M  V30 6400 H 593.321 2.46663 -4.65258 0
M  V30 6401 H 595.812 1.40342 -3.50874 0
M  V30 6402 H 596.125 2.27999 -7.38401 0
M  V30 6403 H 594.47 2.0571 -6.63859 0
M  V30 6404 H 597.661 1.65989 -4.37682 0
M  V30 6405 H 597.834 2.05983 -6.1439 0
M  V30 6406 N 591.24 1.41047 0.703093 0
M  V30 6407 C 592.488 1.39723 1.4602 0
M  V30 6408 C 592.809 0.00461257 1.94999 0
M  V30 6409 O 592.079 -0.952292 1.71196 0
M  V30 6410 H 590.659 0.514281 0.541779 0
M  V30 6411 H 593.321 1.76217 0.832678 0
M  V30 6412 H 592.417 2.07982 2.32701 0
M  V30 6413 N 592.718 -0.936591 1.26751 0
M  V30 6414 C 593.964 -1.6858 1.12733 0
M  V30 6415 C 594.297 -1.91414 -0.327745 0
M  V30 6416 O 593.572 -1.49812 -1.24043 0
M  V30 6417 C 593.855 -3.05779 1.90187 0
M  V30 6418 C 593.708 -2.90242 3.43627 0
M  V30 6419 C 595.027 -4.0597 1.69931 0
M  V30 6420 H 592.146 -0.61182 0.410908 0
M  V30 6421 H 594.788 -1.08747 1.55801 0
M  V30 6422 H 592.938 -3.56853 1.53584 0
M  V30 6423 H 594.61 -2.46354 3.9001 0
M  V30 6424 H 592.853 -2.2577 3.70419 0
M  V30 6425 H 593.524 -3.87572 3.93055 0
M  V30 6426 H 596 -3.63874 2.0183 0
M  V30 6427 H 594.876 -4.99974 2.26534 0
M  V30 6428 H 595.137 -4.37369 0.64502 0
M  V30 6429 N 594.196 -1.08629 -1.14182 0
M  V30 6430 C 595.421 -0.83902 -1.89671 0
M  V30 6431 C 595.846 0.603332 -1.78161 0
M  V30 6432 O 595.204 1.42301 -1.12339 0
M  V30 6433 C 595.252 -1.26854 -3.37551 0
M  V30 6434 O 594.356 -0.42188 -4.10236 0
M  V30 6435 H 593.697 -0.304545 -0.590041 0
M  V30 6436 H 596.227 -1.4483 -1.44518 0
M  V30 6437 H 596.237 -1.25038 -3.88368 0
M  V30 6438 H 594.912 -2.31901 -3.45246 0
M  V30 6439 H 593.489 -0.503654 -3.69483 0
M  V30 6440 N 595.674 1.31259 -0.872281 0
M  V30 6441 C 596.914 1.98418 -0.490894 0
M  V30 6442 C 597.278 1.67429 0.939755 0
M  V30 6443 O 598.479 2.27818 1.42661 0
M  V30 6444 C 596.75 3.49583 -0.743408 0
M  V30 6445 S 598.309 4.36359 -0.462226 0
M  V30 6446 H 595.127 0.687005 -0.183151 0
M  V30 6447 H 597.729 1.59619 -1.12881 0
M  V30 6448 H 596.433 3.69627 -1.78338 0
M  V30 6449 H 595.964 3.93291 -0.0925758 0
M  V30 6450 H 597.979 4.91173 0.704525 0
M  V30 6451 N 597.152 0.631951 1.44375 0
M  V30 6452 C 598.084 -0.110911 2.28931 0
M  V30 6453 C 599.097 -0.808086 1.41329 0
M  V30 6454 O 600.286 -0.669396 1.65473 0
M  V30 6455 C 597.386 -1.17928 3.1772 0
M  V30 6456 C 596.559 -0.564458 4.33743 0
M  V30 6457 C 595.618 -1.5269 5.0356 0
M  V30 6458 O 594.644 -1.04372 5.59549 0
M  V30 6459 N 595.846 -2.86123 5.05088 0
M  V30 6460 H 598.611 0.614758 2.93327 0
M  V30 6461 H 596.172 0.473171 1.54831 0
M  V30 6462 H 598.164 -1.82348 3.61291 0
M  V30 6463 H 596.734 -1.80717 2.55069 0
M  V30 6464 H 595.954 0.258373 3.93352 0
M  V30 6465 H 597.242 -0.134355 5.08623 0
M  V30 6466 H 596.64 -3.27959 4.60933 0
M  V30 6467 H 595.197 -3.45901 5.52445 0
M  V30 6468 N 598.631 -1.53133 0.372548 0
M  V30 6469 C 599.878 -2.01356 -0.214959 0
M  V30 6470 C 600.206 -1.2596 -1.48204 0
M  V30 6471 O 599.461 -0.343511 -1.92662 0
M  V30 6472 C 599.76 -3.53206 -0.545938 0
M  V30 6473 C 599.426 -4.46511 0.627624 0
M  V30 6474 C 598.088 -4.71737 0.949615 0
M  V30 6475 C 600.44 -5.01666 1.41353 0
M  V30 6476 C 597.768 -5.4937 2.05936 0
M  V30 6477 C 600.12 -5.80511 2.51375 0
M  V30 6478 C 598.784 -6.04022 2.84101 0
M  V30 6479 H 598.054 -0.736813 -0.078659 0
M  V30 6480 H 600.701 -1.84682 0.506447 0
M  V30 6481 H 599.006 -3.67864 -1.34845 0
M  V30 6482 H 600.703 -3.87997 -1.01287 0
M  V30 6483 H 597.293 -4.27029 0.366635 0
M  V30 6484 H 601.477 -4.82117 1.17802 0
M  V30 6485 H 596.733 -5.65803 2.31682 0
M  V30 6486 H 600.907 -6.22255 3.12684 0
M  V30 6487 H 598.534 -6.63962 3.70214 0
M  V30 6488 N 600.109 -0.101901 -1.5727 0
M  V30 6489 C 601.357 0.559091 -1.94213 0
M  V30 6490 C 601.678 1.68297 -0.984948 0
M  V30 6491 O 600.948 1.95863 -0.0381975 0
M  V30 6492 H 599.528 0.20952 -0.717015 0
M  V30 6493 H 602.19 -0.166831 -1.94185 0
M  V30 6494 H 601.286 0.96485 -2.96811 0
M  V30 6495 N 601.587 1.56661 0.17182 0
M  V30 6496 C 602.998 1.71652 0.734329 0
M  V30 6497 C 603.349 0.712335 1.82812 0
M  V30 6498 O 602.474 -0.126401 2.16031 0
M  V30 6499 C 603.069 3.11226 1.3388 0
M  V30 6500 C 601.628 3.27904 1.84813 0
M  V30 6501 C 600.775 2.67603 0.726917 0
M  V30 6502 H 603.726 1.5861 -0.0535665 0
M  V30 6503 H 603.747 3.09849 2.20849 0
M  V30 6504 H 603.259 3.8429 0.54249 0
M  V30 6505 H 601.36 2.59796 2.6709 0
M  V30 6506 H 601.473 4.35637 1.99392 0
M  V30 6507 H 599.837 2.274 1.14723 0
M  V30 6508 H 600.62 3.43252 -0.0575334 0
M  V30 6509 N 603.065 -0.440357 1.51323 0
M  V30 6510 C 604.342 -1.20109 1.5438 0
M  V30 6511 C 604.722 -2.08866 0.306303 0
M  V30 6512 O 604.07 -2.1723 -0.708773 0
M  V30 6513 C 604.28 -2.00555 2.8562 0
M  V30 6514 C 605.628 -2.577 3.37455 0
M  V30 6515 O 606.652 -2.10769 2.8715 0
M  V30 6516 O 605.511 -3.43289 4.25224 0
M  V30 6517 H 602.605 -0.546668 0.620551 0
M  V30 6518 H 605.151 -0.449672 1.63634 0
M  V30 6519 H 603.923 -1.35346 3.67147 0
M  V30 6520 H 603.546 -2.82768 2.79514 0
M  V30 6521 N 604.543 -1.41418 -0.695603 0
M  V30 6522 C 605.789 -1.40982 -1.4578 0
M  V30 6523 C 606.122 -0.0187763 -1.94191 0
M  V30 6524 O 605.397 0.95346 -1.69527 0
M  V30 6525 C 605.68 -2.41657 -2.66972 0
M  V30 6526 C 605.533 -3.89869 -2.24327 0
M  V30 6527 C 606.852 -2.39589 -3.69168 0
M  V30 6528 H 603.971 -0.513405 -0.528757 0
M  V30 6529 H 606.613 -1.72693 -0.792275 0
M  V30 6530 H 604.763 -2.14746 -3.23754 0
M  V30 6531 H 606.435 -4.27683 -1.72872 0
M  V30 6532 H 604.678 -4.04737 -1.56111 0
M  V30 6533 H 605.349 -4.55857 -3.11285 0
M  V30 6534 H 607.825 -2.63471 -3.2206 0
M  V30 6535 H 606.701 -3.12044 -4.51575 0
M  V30 6536 H 606.962 -1.41447 -4.18862 0
M  V30 6537 N 606.021 0.929856 -1.27246 0
M  V30 6538 C 607.249 1.71144 -1.16265 0
M  V30 6539 C 607.664 1.867 0.280786 0
M  V30 6540 O 607.021 1.38249 1.19136 0
M  V30 6541 C 607.072 3.11222 -1.83911 0
M  V30 6542 O 606.793 2.96398 -3.22614 0
M  V30 6543 C 608.294 4.05541 -1.79028 0
M  V30 6544 H 605.514 0.535499 -0.404328 0
M  V30 6545 H 608.058 1.16492 -1.68077 0
M  V30 6546 H 606.213 3.6274 -1.36009 0
M  V30 6547 H 606.627 3.8494 -3.56261 0
M  V30 6548 H 608.101 5.01351 -2.30978 0
M  V30 6549 H 608.578 4.32589 -0.759168 0
M  V30 6550 H 609.184 3.59947 -2.26535 0
M  V30 6551 N 607.499 1.09233 1.13605 0
M  V30 6552 C 608.446 0.729921 2.18954 0
M  V30 6553 C 609.416 -0.287916 1.63586 0
M  V30 6554 O 610.601 -0.170003 1.90041 0
M  V30 6555 C 607.741 0.154489 3.44754 0
M  V30 6556 C 606.854 1.22613 4.14234 0
M  V30 6557 C 605.989 0.613657 5.27644 0
M  V30 6558 C 605.028 1.66674 5.8897 0
M  V30 6559 N 604.165 1.07545 6.93814 0
M  V30 6560 H 609.005 1.63257 2.49302 0
M  V30 6561 H 606.542 0.815693 1.22413 0
M  V30 6562 H 608.5 -0.196923 4.16735 0
M  V30 6563 H 607.13 -0.711433 3.14863 0
M  V30 6564 H 606.182 1.69485 3.40557 0
M  V30 6565 H 607.494 2.0238 4.55899 0
M  V30 6566 H 606.648 0.210976 6.06333 0
M  V30 6567 H 605.387 -0.215584 4.87223 0
M  V30 6568 H 604.392 2.07899 5.08978 0
M  V30 6569 H 605.617 2.49861 6.31464 0
M  V30 6570 H 603.563 0.267451 6.55455 0
M  V30 6571 H 603.48 1.81011 7.3401 0
M  V30 6572 H 604.748 0.698906 7.7636 0
M  V30 6573 N 608.977 -1.30795 0.87923 0
M  V30 6574 C 609.94 -2.26563 0.346676 0
M  V30 6575 C 610.94 -1.52578 -0.507597 0
M  V30 6576 O 612.13 -1.71318 -0.315575 0
M  V30 6577 C 609.262 -3.37115 -0.506611 0
M  V30 6578 H 610.455 -2.75183 1.19223 0
M  V30 6579 H 608.008 -1.41886 0.655598 0
M  V30 6580 H 608.743 -2.93802 -1.37299 0
M  V30 6581 H 608.528 -3.91959 0.105218 0
M  V30 6582 H 610.018 -4.08412 -0.871192 0
M  V30 6583 N 610.455 -0.639598 -1.44038 0
M  V30 6584 C 611.702 -0.14748 -2.01962 0
M  V30 6585 C 612.03 1.23372 -1.50365 0
M  V30 6586 O 611.285 1.8345 -0.681501 0
M  V30 6587 C 611.584 -0.0925348 -3.5728 0
M  V30 6588 C 611.25 -1.41365 -4.28167 0
M  V30 6589 C 609.912 -1.77545 -4.47248 0
M  V30 6590 C 612.264 -2.2853 -4.68427 0
M  V30 6591 C 609.592 -3.00583 -5.03852 0
M  V30 6592 C 611.944 -3.50846 -5.26393 0
M  V30 6593 C 610.608 -3.8724 -5.43692 0
M  V30 6594 H 609.878 -0.0539666 -0.739032 0
M  V30 6595 H 612.525 -0.827599 -1.72694 0
M  V30 6596 H 610.83 0.670987 -3.86012 0
M  V30 6597 H 612.527 0.304891 -3.99839 0
M  V30 6598 H 609.117 -1.1221 -4.13651 0
M  V30 6599 H 613.301 -2.0187 -4.5339 0
M  V30 6600 H 608.557 -3.28846 -5.15432 0
M  V30 6601 H 612.731 -4.18616 -5.56537 0
M  V30 6602 H 610.358 -4.8266 -5.87319 0
M  V30 6603 N 611.933 1.52934 -0.380664 0
M  V30 6604 C 612.863 2.29118 0.450268 0
M  V30 6605 C 613.844 1.32153 1.07096 0
M  V30 6606 O 615.029 1.61038 1.08537 0
M  V30 6607 C 612.159 3.09161 1.58231 0
M  V30 6608 C 611.113 4.13938 1.0881 0
M  V30 6609 C 610.439 4.82153 2.31155 0
M  V30 6610 C 611.739 5.22048 0.162146 0
M  V30 6611 H 613.433 2.98826 -0.185361 0
M  V30 6612 H 610.979 1.43715 -0.0905886 0
M  V30 6613 H 612.932 3.61211 2.17036 0
M  V30 6614 H 611.656 2.3717 2.2454 0
M  V30 6615 H 610.315 3.62855 0.522633 0
M  V30 6616 H 609.963 4.06719 2.95953 0
M  V30 6617 H 609.663 5.52966 1.98752 0
M  V30 6618 H 611.187 5.37004 2.90618 0
M  V30 6619 H 612.601 5.6951 0.658126 0
M  V30 6620 H 610.998 6.00057 -0.0717122 0
M  V30 6621 H 612.068 4.78398 -0.791438 0
M  V30 6622 N 613.412 0.11024 1.57214 0
M  V30 6623 C 614.322 -0.857077 2.18383 0
M  V30 6624 C 615.338 -1.29915 1.1575 0
M  V30 6625 O 616.514 -1.36394 1.48184 0
M  V30 6626 C 613.579 -2.09264 2.76423 0
M  V30 6627 C 612.64 -1.70333 3.94063 0
M  V30 6628 C 611.873 -2.87999 4.49324 0
M  V30 6629 O 612.096 -4.0317 4.03497 0
M  V30 6630 O 611.03 -2.6559 5.40135 0
M  V30 6631 H 614.856 -0.366561 3.0148 0
M  V30 6632 H 612.441 -0.114914 1.48957 0
M  V30 6633 H 614.323 -2.81644 3.13456 0
M  V30 6634 H 612.998 -2.57339 1.96363 0
M  V30 6635 H 611.905 -0.950864 3.61814 0
M  V30 6636 H 613.238 -1.27007 4.75531 0
M  V30 6637 N 614.89 -1.56749 -0.16351 0
M  V30 6638 C 615.8 -2.00255 -1.2221 0
M  V30 6639 C 616.816 -0.915194 -1.47987 0
M  V30 6640 O 617.992 -1.22342 -1.59982 0
M  V30 6641 C 615.057 -2.36035 -2.53946 0
M  V30 6642 C 614.118 -3.58637 -2.35962 0
M  V30 6643 C 613.351 -3.92701 -3.61416 0
M  V30 6644 O 613.574 -3.27632 -4.66919 0
M  V30 6645 O 612.508 -4.86019 -3.55062 0
M  V30 6646 H 616.334 -2.90586 -0.882794 0
M  V30 6647 H 613.919 -1.44721 -0.370978 0
M  V30 6648 H 615.801 -2.59982 -3.31643 0
M  V30 6649 H 614.476 -1.48863 -2.8744 0
M  V30 6650 H 613.383 -3.39898 -1.5627 0
M  V30 6651 H 614.716 -4.46374 -2.0739 0
M  V30 6652 N 616.368 0.432326 -1.51554 0
M  V30 6653 C 617.316 1.54572 -1.73811 0
M  V30 6654 C 618.31 1.58246 -0.604539 0
M  V30 6655 O 619.516 1.6193 -0.786041 0
M  V30 6656 H 615.891 0.513626 -0.549265 0
M  V30 6657 H 617.862 1.32977 -2.67132 0
M  V30 6658 C 616.611 2.92181 -1.88483 0
M  V30 6659 H 615.934 2.90088 -2.75116 0
M  V30 6660 H 617.374 3.69439 -2.08065 0
M  V30 6661 C 615.833 3.3065 -0.645909 0
M  V30 6662 O 616.363 4.01216 0.197093 0
M  V30 6663 N 614.569 2.86464 -0.488538 0
M  V30 6664 H 614.116 2.29209 -1.17562 0
M  V30 6665 H 614.074 3.12565 0.339156 0
M  V30 6666 N 617.846 1.41785 0.688094 0
M  V30 6667 C 618.794 1.44436 1.82321 0
M  V30 6668 C 619.788 0.321544 1.6632 0
M  V30 6669 O 620.994 0.493931 1.73091 0
M  V30 6670 H 617.369 0.452084 0.600936 0
M  V30 6671 H 619.34 2.40087 1.77202 0
M  V30 6672 C 618.089 1.35071 3.20392 0
M  V30 6673 H 617.412 2.2076 3.33324 0
M  V30 6674 H 618.852 1.40988 3.99873 0
M  V30 6675 C 617.311 0.0639127 3.36839 0
M  V30 6676 O 617.841 -0.888495 3.91751 0
M  V30 6677 N 616.047 -0.0146114 2.90596 0
M  V30 6678 H 615.594 0.761191 2.46097 0
M  V30 6679 H 615.552 -0.874988 3.01979 0
M  V30 6680 N 619.324 -0.923095 1.27737 0
M  V30 6681 C 620.254 -2.04124 1.13383 0
M  V30 6682 C 621.235 -1.70066 0.0340658 0
M  V30 6683 O 622.42 -1.93068 0.209383 0
M  V30 6684 C 619.55 -3.3831 0.785097 0
M  V30 6685 C 618.504 -3.86496 1.8386 0
M  V30 6686 C 617.83 -5.1754 1.34373 0
M  V30 6687 C 619.13 -4.09381 3.24353 0
M  V30 6688 H 620.824 -2.1639 2.06919 0
M  V30 6689 H 618.37 -1.03976 0.996243 0
M  V30 6690 H 620.323 -4.16016 0.671485 0
M  V30 6691 H 619.047 -3.2607 -0.185969 0
M  V30 6692 H 617.706 -3.10987 1.9412 0
M  V30 6693 H 617.354 -5.01696 0.361989 0
M  V30 6694 H 617.054 -5.50751 2.04811 0
M  V30 6695 H 618.578 -5.97811 1.24315 0
M  V30 6696 H 619.992 -4.77641 3.17067 0
M  V30 6697 H 618.389 -4.53906 3.92542 0
M  V30 6698 H 619.459 -3.14515 3.69064 0
M  V30 6699 N 620.802 -1.09834 -1.13024 0
M  V30 6700 C 622.079 -0.749225 -1.80682 0
M  V30 6701 C 622.459 0.765171 -1.96744 0
M  V30 6702 O 621.807 1.68912 -1.53886 0
M  V30 6703 C 622.017 -1.49311 -3.15448 0
M  V30 6704 C 623.365 -1.66162 -3.90737 0
M  V30 6705 O 624.389 -1.45597 -3.25085 0
M  V30 6706 O 623.248 -2.00211 -5.08505 0
M  V30 6707 H 620.342 -0.269614 -0.781817 0
M  V30 6708 H 622.888 -1.20078 -1.19914 0
M  V30 6709 H 621.66 -2.52407 -2.99009 0
M  V30 6710 H 621.283 -1.034 -3.8392 0
M  V30 6711 N 622.28 1.30327 -0.886154 0
M  V30 6712 C 623.51 1.99964 -0.519421 0
M  V30 6713 C 623.918 1.66593 0.89686 0
M  V30 6714 O 623.261 0.899886 1.60149 0
M  V30 6715 C 623.323 3.54187 -0.615795 0
M  V30 6716 C 622.987 4.11078 -1.9966 0
M  V30 6717 C 623.984 4.26985 -2.96614 0
M  V30 6718 C 621.669 4.46429 -2.30231 0
M  V30 6719 C 623.663 4.77456 -4.22273 0
M  V30 6720 C 621.35 4.966 -3.56135 0
M  V30 6721 C 622.348 5.12066 -4.5197 0
M  V30 6722 O 622.036 5.61154 -5.7564 0
M  V30 6723 H 621.768 0.645979 -0.199217 0
M  V30 6724 H 624.322 1.67154 -1.19368 0
M  V30 6725 H 622.552 3.86528 0.115448 0
M  V30 6726 H 624.241 4.05065 -0.26017 0
M  V30 6727 H 625.007 3.99975 -2.74308 0
M  V30 6728 H 620.886 4.33658 -1.56404 0
M  V30 6729 H 624.43 4.89444 -4.97082 0
M  V30 6730 H 620.327 5.23045 -3.78277 0
M  V30 6731 H 621.095 5.79494 -5.78039 0
M  V30 6732 N 623.758 0.647228 1.43697 0
M  V30 6733 C 625.007 0.155552 2.01099 0
M  V30 6734 C 625.32 -1.23569 1.51624 0
M  V30 6735 O 626.526 -1.82226 2.01261 0
M  V30 6736 C 624.982 0.227296 3.59182 0
M  V30 6737 C 624.59 1.62086 4.17651 0
M  V30 6738 C 626.334 -0.207085 4.23995 0
M  V30 6739 C 624.241 1.64685 5.68008 0
M  V30 6740 H 623.171 0.0543895 0.752036 0
M  V30 6741 H 625.822 0.808386 1.64734 0
M  V30 6742 H 624.204 -0.492937 3.9292 0
M  V30 6743 H 625.378 2.36597 3.95422 0
M  V30 6744 H 623.693 2.0007 3.65186 0
M  V30 6745 H 626.29 -0.207426 5.34298 0
M  V30 6746 H 626.633 -1.23742 3.97484 0
M  V30 6747 H 627.166 0.461193 3.95118 0
M  V30 6748 H 623.905 2.65608 5.99277 0
M  V30 6749 H 623.425 0.944914 5.9231 0
M  V30 6750 H 625.104 1.38792 6.31938 0
M  V30 6751 N 625.236 -1.5273 0.388769 0
M  V30 6752 C 626.485 -2.00757 -0.194833 0
M  V30 6753 C 626.798 -1.27951 -1.47946 0
M  V30 6754 O 628.004 -1.66686 -2.14308 0
M  V30 6755 C 626.46 -3.57695 -0.397762 0
M  V30 6756 C 626.068 -4.394 0.873583 0
M  V30 6757 C 627.812 -4.14012 -0.937759 0
M  V30 6758 C 625.719 -5.87938 0.638962 0
M  V30 6759 H 624.649 -0.750101 -0.0765845 0
M  V30 6760 H 627.3 -1.76239 0.511086 0
M  V30 6761 H 625.682 -3.7846 -1.16552 0
M  V30 6762 H 626.856 -4.30403 1.64591 0
M  V30 6763 H 625.171 -3.94301 1.33849 0
M  V30 6764 H 627.768 -5.22645 -1.12899 0
M  V30 6765 H 628.111 -3.7007 -1.90666 0
M  V30 6766 H 628.644 -3.97137 -0.229588 0
M  V30 6767 H 625.383 -6.36202 1.57885 0
M  V30 6768 H 624.903 -5.99726 -0.094443 0
M  V30 6769 H 626.582 -6.46423 0.273299 0
M  V30 6770 N 626.714 -0.118576 -1.57153 0
M  V30 6771 C 628.13 0.238014 -1.57815 0
M  V30 6772 C 628.33 1.66747 -1.13127 0
M  V30 6773 O 627.386 2.38867 -0.818462 0
M  V30 6774 C 628.699 0.00508207 -3.007 0
M  V30 6775 C 630.247 0.0710139 -3.12919 0
M  V30 6776 C 630.722 -0.13422 -4.57803 0
M  V30 6777 N 632.213 -0.0801755 -4.63131 0
M  V30 6778 C 632.948 -0.213885 -5.73001 0
M  V30 6779 N 632.444 -0.403742 -6.91623 0
M  V30 6780 N 634.237 -0.15349 -5.6189 0
M  V30 6781 H 626.388 -1.05226 -1.84503 0
M  V30 6782 H 628.651 -0.414318 -0.852669 0
M  V30 6783 H 628.357 -0.983125 -3.3768 0
M  V30 6784 H 628.231 0.73714 -3.69927 0
M  V30 6785 H 630.618 1.04975 -2.75798 0
M  V30 6786 H 630.699 -0.692918 -2.46236 0
M  V30 6787 H 630.343 -1.10992 -4.95624 0
M  V30 6788 H 630.273 0.649692 -5.22577 0
M  V30 6789 H 632.764 0.0630689 -3.77847 0
M  V30 6790 H 633.077 -0.496645 -7.71202 0
M  V30 6791 H 631.422 -0.43971 -6.93608 0
M  V30 6792 H 634.613 -0.00613174 -4.681 0
M  V30 6793 H 634.786 -0.261138 -6.47474 0
M  V30 6794 N 628.193 1.56834 0.155195 0
M  V30 6795 C 629.418 1.87412 0.888337 0
M  V30 6796 C 629.843 0.70671 1.74319 0
M  V30 6797 O 629.201 -0.343892 1.78009 0
M  V30 6798 C 629.249 3.1652 1.72765 0
M  V30 6799 O 628.353 2.99877 2.83103 0
M  V30 6800 H 627.694 0.615983 0.247914 0
M  V30 6801 H 630.224 2.04061 0.148478 0
M  V30 6802 H 630.234 3.48334 2.12433 0
M  V30 6803 H 628.909 4.01094 1.09985 0
M  V30 6804 H 627.486 2.79453 2.46902 0
M  V30 6805 N 629.671 -0.424282 1.51781 0
M  V30 6806 C 630.621 -1.51464 1.70419 0
M  V30 6807 C 631.605 -1.50911 0.558094 0
M  V30 6808 O 632.797 -1.57143 0.814552 0
M  V30 6809 C 629.926 -2.89539 1.84451 0
M  V30 6810 C 629.012 -2.94798 3.04886 0
M  V30 6811 N 629.403 -2.69778 4.27848 0
M  V30 6812 C 627.701 -3.25962 3.04408 0
M  V30 6813 C 628.402 -2.81216 5.09208 0
M  V30 6814 N 627.378 -3.13447 4.44131 0
M  V30 6815 H 631.18 -1.30892 2.63144 0
M  V30 6816 H 628.694 -0.631783 1.49607 0
M  V30 6817 H 630.691 -3.67998 1.95917 0
M  V30 6818 H 629.351 -3.11121 0.929168 0
M  V30 6819 H 630.362 -2.44458 4.56575 0
M  V30 6820 H 627.039 -3.53236 2.22555 0
M  V30 6821 H 628.429 -2.65715 6.17127 0
M  V30 6822 N 631.149 -1.42148 -0.680565 0
M  V30 6823 C 632.059 -1.47565 -1.82378 0
M  V30 6824 C 633.075 -0.36489 -1.70131 0
M  V30 6825 O 634.251 -0.614916 -1.91783 0
M  V30 6826 C 631.316 -1.37013 -3.18478 0
M  V30 6827 C 630.377 -2.58532 -3.42724 0
M  V30 6828 C 629.61 -2.48473 -4.72331 0
M  V30 6829 O 629.833 -1.51745 -5.49845 0
M  V30 6830 O 628.767 -3.38503 -4.97694 0
M  V30 6831 H 632.593 -2.44045 -1.80764 0
M  V30 6832 H 630.178 -1.23849 -0.835569 0
M  V30 6833 H 632.06 -1.33468 -3.99705 0
M  V30 6834 H 630.735 -0.436552 -3.20743 0
M  V30 6835 H 629.642 -2.67652 -2.61368 0
M  V30 6836 H 630.975 -3.50769 -3.45286 0
M  V30 6837 N 632.627 0.916307 -1.28225 0
M  V30 6838 C 633.873 1.66765 -1.154 0
M  V30 6839 C 634.206 1.91912 0.297251 0
M  V30 6840 O 633.481 1.51766 1.21644 0
M  V30 6841 C 633.764 3.02715 -1.95028 0
M  V30 6842 C 633.617 2.84738 -3.48201 0
M  V30 6843 C 634.936 4.03215 -1.76369 0
M  V30 6844 H 632.055 0.605205 -0.42059 0
M  V30 6845 H 634.697 1.06255 -1.57512 0
M  V30 6846 H 632.847 3.54365 -1.59242 0
M  V30 6847 H 634.519 2.40118 -3.9388 0
M  V30 6848 H 632.762 2.19848 -3.73964 0
M  V30 6849 H 633.433 3.8127 -3.99171 0
M  V30 6850 H 635.909 3.60617 -2.07593 0
M  V30 6851 H 634.785 4.96306 -2.34459 0
M  V30 6852 H 635.046 4.36288 -0.71452 0
M  V30 6853 N 634.105 1.10431 1.1244 0
M  V30 6854 C 635.052 0.753103 2.18167 0
M  V30 6855 C 636.022 -0.270549 1.63882 0
M  V30 6856 O 637.207 -0.149837 1.90211 0
M  V30 6857 C 634.347 0.191046 3.44571 0
M  V30 6858 C 633.46 1.26999 4.12911 0
M  V30 6859 C 632.595 0.669586 5.26963 0
M  V30 6860 C 631.634 1.72912 5.87169 0
M  V30 6861 N 630.771 1.14898 6.92635 0
M  V30 6862 H 635.611 1.65892 2.47556 0
M  V30 6863 H 633.148 0.828631 1.21541 0
M  V30 6864 H 635.106 -0.152712 4.1692 0
M  V30 6865 H 633.736 -0.677997 3.15599 0
M  V30 6866 H 632.788 1.73087 3.3874 0
M  V30 6867 H 634.1 2.07204 4.53727 0
M  V30 6868 H 633.254 0.275274 6.06075 0
M  V30 6869 H 631.993 -0.163895 4.87425 0
M  V30 6870 H 630.998 2.13286 5.06744 0
M  V30 6871 H 632.223 2.56544 6.28778 0
M  V30 6872 H 630.169 0.336956 6.55134 0
M  V30 6873 H 630.086 1.88786 7.32049 0
M  V30 6874 H 631.354 0.78121 7.75576 0
M  V30 6875 N 635.583 -1.29855 0.893053 0
M  V30 6876 C 636.546 -2.26183 0.370687 0
M  V30 6877 C 637.546 -1.53108 -0.491385 0
M  V30 6878 O 638.736 -1.71643 -0.297386 0
M  V30 6879 C 635.868 -3.37633 -0.470827 0
M  V30 6880 H 637.061 -2.73903 1.22135 0
M  V30 6881 H 634.614 -1.41183 0.67061 0
M  V30 6882 H 635.349 -2.95241 -1.34175 0
M  V30 6883 H 635.134 -3.91825 0.146784 0
M  V30 6884 H 636.624 -4.09313 -0.827825 0
M  V30 6885 N 637.061 -0.65484 -1.43351 0
M  V30 6886 C 637.971 0.0363603 -2.34572 0
M  V30 6887 C 638.987 0.810432 -1.53974 0
M  V30 6888 O 640.163 0.757308 -1.86619 0
M  V30 6889 C 637.228 0.989733 -3.32273 0
M  V30 6890 C 636.289 0.212414 -4.28774 0
M  V30 6891 C 635.522 1.12038 -5.21808 0
M  V30 6892 O 635.745 2.35967 -5.19303 0
M  V30 6893 O 634.679 0.59191 -5.98982 0
M  V30 6894 H 638.505 -0.714527 -2.95175 0
M  V30 6895 H 636.09 -0.415029 -1.4352 0
M  V30 6896 H 637.972 1.53759 -3.92347 0
M  V30 6897 H 636.647 1.72082 -2.74171 0
M  V30 6898 H 635.554 -0.379062 -3.72175 0
M  V30 6899 H 636.887 -0.479138 -4.89862 0
M  V30 6900 N 638.539 1.52521 -0.396863 0
M  V30 6901 C 639.787 2.01274 0.182536 0
M  V30 6902 C 640.108 1.28485 1.46685 0
M  V30 6903 O 639.378 0.407134 1.91623 0
M  V30 6904 H 637.958 0.743671 0.0704442 0
M  V30 6905 H 640.62 1.87547 -0.530289 0
M  V30 6906 H 639.716 3.09687 0.387385 0
M  V30 6907 N 640.017 0.126909 1.57088 0
M  V30 6908 C 641.247 -0.535892 1.99529 0
M  V30 6909 C 641.655 -1.60259 1.00566 0
M  V30 6910 O 640.998 -1.83698 -0.00843269 0
M  V30 6911 C 641.06 -1.21374 3.38391 0
M  V30 6912 C 640.724 -0.294044 4.56053 0
M  V30 6913 C 641.721 0.470454 5.17767 0
M  V30 6914 C 639.406 -0.202808 5.0189 0
M  V30 6915 C 641.4 1.31384 6.23712 0
M  V30 6916 C 639.087 0.644203 6.07695 0
M  V30 6917 C 640.085 1.40115 6.68473 0
M  V30 6918 O 639.773 2.23408 7.72233 0
M  V30 6919 H 639.505 -0.145799 0.66009 0
M  V30 6920 H 642.059 0.212441 2.04298 0
M  V30 6921 H 640.289 -2.00931 3.30399 0
M  V30 6922 H 641.978 -1.77424 3.65069 0
M  V30 6923 H 642.744 0.409884 4.83265 0
M  V30 6924 H 638.623 -0.781688 4.54324 0
M  V30 6925 H 642.167 1.90514 6.71081 0
M  V30 6926 H 638.064 0.706137 6.41626 0
M  V30 6927 H 638.832 2.16436 7.89365 0
M  V30 6928 N 641.495 -1.56914 -0.146875 0
M  V30 6929 C 642.405 -2.0154 -1.20079 0
M  V30 6930 C 643.421 -0.930838 -1.47008 0
M  V30 6931 O 644.597 -1.24032 -1.58676 0
M  V30 6932 C 641.662 -2.38715 -2.51428 0
M  V30 6933 C 640.723 -3.6112 -2.32145 0
M  V30 6934 C 639.956 -3.96512 -3.57231 0
M  V30 6935 O 640.179 -3.32566 -4.63418 0
M  V30 6936 O 639.113 -4.89758 -3.49887 0
M  V30 6937 H 642.939 -2.91506 -0.851924 0
M  V30 6938 H 640.524 -1.45106 -0.355607 0
M  V30 6939 H 642.406 -2.63485 -3.28867 0
M  V30 6940 H 641.081 -1.51903 -2.85845 0
M  V30 6941 H 639.988 -3.41536 -1.52656 0
M  V30 6942 H 641.321 -4.48549 -2.02644 0
M  V30 6943 N 642.974 0.416227 -1.52004 0
M  V30 6944 C 644.22 1.16555 -1.6596 0
M  V30 6945 C 644.553 1.90347 -0.384906 0
M  V30 6946 O 643.828 1.84474 0.616405 0
M  V30 6947 C 644.111 2.1657 -2.87696 0
M  V30 6948 C 643.964 1.46722 -4.25197 0
M  V30 6949 C 645.283 3.17321 -3.04951 0
M  V30 6950 H 642.402 0.422369 -0.603965 0
M  V30 6951 H 645.044 0.452141 -1.84542 0
M  V30 6952 H 643.194 2.77411 -2.71985 0
M  V30 6953 H 644.866 0.89056 -4.52622 0
M  V30 6954 H 643.109 0.769263 -4.26925 0
M  V30 6955 H 643.78 2.19665 -5.0641 0
M  V30 6956 H 646.256 2.66552 -3.19514 0
M  V30 6957 H 645.132 3.84573 -3.91656 0
M  V30 6958 H 645.393 3.84643 -2.17951 0
M  V30 6959 N 644.452 1.42507 0.673017 0
M  V30 6960 C 645.415 1.4582 1.76831 0
M  V30 6961 C 646.415 0.345542 1.57043 0
M  V30 6962 O 647.605 0.606447 1.63303 0
M  V30 6963 C 644.737 1.29158 3.15485 0
M  V30 6964 H 645.93 2.43345 1.7528 0
M  V30 6965 H 643.483 1.28981 0.882817 0
M  V30 6966 H 644.218 0.325626 3.22661 0
M  V30 6967 H 644.003 2.09797 3.31252 0
M  V30 6968 H 645.493 1.34363 3.95394 0
M  V30 6969 N 645.93 -0.909495 1.28709 0
M  V30 6970 C 646.88 -1.9991 1.09636 0
M  V30 6971 C 647.864 -1.60889 0.01872 0
M  V30 6972 O 649.056 -1.75374 0.239338 0
M  V30 6973 C 646.185 -3.34675 0.764702 0
M  V30 6974 C 645.271 -3.80085 1.8814 0
M  V30 6975 N 645.662 -3.97824 3.12361 0
M  V30 6976 C 643.96 -4.09278 1.77221 0
M  V30 6977 C 644.661 -4.35928 3.85151 0
M  V30 6978 N 643.637 -4.44426 3.13028 0
M  V30 6979 H 647.439 -2.11681 2.03883 0
M  V30 6980 H 644.953 -1.09763 1.1969 0
M  V30 6981 H 646.95 -4.12426 0.609132 0
M  V30 6982 H 645.61 -3.24255 -0.169952 0
M  V30 6983 H 646.621 -3.83626 3.47925 0
M  V30 6984 H 643.298 -4.0747 0.909621 0
M  V30 6985 H 644.688 -4.57581 4.92006 0
M  V30 6986 N 647.408 -1.11026 -1.11852 0
M  V30 6987 C 648.656 -0.854769 -1.83134 0
M  V30 6988 C 648.977 0.621375 -1.84835 0
M  V30 6989 O 648.247 1.45129 -1.31584 0
M  V30 6990 H 646.827 -0.313229 -0.678157 0
M  V30 6991 H 649.489 -1.40178 -1.35411 0
M  V30 6992 H 648.585 -1.22311 -2.87135 0
M  V30 6993 N 648.886 1.2938 -0.899927 0
M  V30 6994 C 650.134 1.95164 -0.524924 0
M  V30 6995 C 650.455 1.71292 0.931888 0
M  V30 6996 O 649.725 1.04481 1.65712 0
M  V30 6997 H 648.305 0.722133 -0.191135 0
M  V30 6998 H 650.967 1.57628 -1.14627 0
M  V30 6999 H 650.063 3.0397 -0.707711 0
M  V30 7000 N 650.364 0.662433 1.43002 0
M  V30 7001 C 651.78 0.330835 1.56133 0
M  V30 7002 C 651.98 -1.16454 1.64441 0
M  V30 7003 O 651.036 -1.94964 1.60453 0
M  V30 7004 C 652.349 1.05029 2.81761 0
M  V30 7005 C 653.897 1.03142 2.95518 0
M  V30 7006 C 654.372 1.73196 4.2399 0
M  V30 7007 N 655.863 1.70004 4.30875 0
M  V30 7008 C 656.598 2.21074 5.29069 0
M  V30 7009 N 656.094 2.80473 6.33488 0
M  V30 7010 N 657.887 2.1152 5.20784 0
M  V30 7011 H 650.038 1.63272 1.35853 0
M  V30 7012 H 652.301 0.687149 0.653092 0
M  V30 7013 H 652.007 2.10542 2.81718 0
M  V30 7014 H 651.881 0.607664 3.72273 0
M  V30 7015 H 654.268 -0.0153339 2.95096 0
M  V30 7016 H 654.349 1.51282 2.0627 0
M  V30 7017 H 653.993 2.77833 4.25172 0
M  V30 7018 H 653.923 1.22515 5.1215 0
M  V30 7019 H 656.414 1.26667 3.56039 0
M  V30 7020 H 656.727 3.17094 7.04749 0
M  V30 7021 H 655.072 2.84538 6.34085 0
M  V30 7022 H 658.263 1.64814 4.38126 0
M  V30 7023 H 658.436 2.51629 5.97149 0
M  V30 7024 N 651.842 -1.52309 0.404946 0
M  V30 7025 C 653.082 -2.03677 -0.171779 0
M  V30 7026 C 653.446 -1.28419 -1.42733 0
M  V30 7027 O 654.647 -1.69991 -2.08222 0
M  V30 7028 C 652.918 -3.54951 -0.417701 0
M  V30 7029 S 654.477 -4.28114 -0.962472 0
M  V30 7030 H 651.295 -0.709445 -0.0469912 0
M  V30 7031 H 653.897 -1.874 0.556901 0
M  V30 7032 H 652.601 -4.07306 0.50295 0
M  V30 7033 H 652.132 -3.75462 -1.17437 0
M  V30 7034 H 654.147 -4.42589 -2.24342 0
M  V30 7035 N 653.32 -0.135238 -1.57019 0
M  V30 7036 C 654.566 0.519563 -1.96032 0
M  V30 7037 C 654.899 1.65284 -1.01955 0
M  V30 7038 O 654.174 1.94408 -0.059727 0
M  V30 7039 C 654.457 1.0369 -3.44848 0
M  V30 7040 C 654.31 -0.0940754 -4.49702 0
M  V30 7041 C 655.629 1.92254 -3.95887 0
M  V30 7042 H 652.748 0.18739 -0.712779 0
M  V30 7043 H 655.39 -0.214086 -1.8879 0
M  V30 7044 H 653.54 1.66209 -3.5115 0
M  V30 7045 H 655.212 -0.73 -4.55487 0
M  V30 7046 H 653.455 -0.754924 -4.27181 0
M  V30 7047 H 654.126 0.309419 -5.51132 0
M  V30 7048 H 656.602 1.39581 -3.9199 0
M  V30 7049 H 655.478 2.25364 -5.00502 0
M  V30 7050 H 655.739 2.85513 -3.37543 0
M  V30 7051 N 654.798 1.5699 0.138552 0
M  V30 7052 C 656.026 1.87976 0.864437 0
M  V30 7053 C 656.441 0.724372 1.74351 0
M  V30 7054 O 655.798 -0.305575 1.79924 0
M  V30 7055 C 655.849 3.18276 1.71414 0
M  V30 7056 O 655.57 4.29365 0.870487 0
M  V30 7057 C 657.071 3.62834 2.54688 0
M  V30 7058 H 654.291 0.622878 0.249528 0
M  V30 7059 H 656.835 2.04094 0.128805 0
M  V30 7060 H 654.99 3.03886 2.40274 0
M  V30 7061 H 655.404 5.03924 1.45466 0
M  V30 7062 H 656.878 4.5682 3.0987 0
M  V30 7063 H 657.355 2.88533 3.31127 0
M  V30 7064 H 657.961 3.79946 1.91105 0
M  V30 7065 N 656.276 -0.40816 1.52223 0
M  V30 7066 C 657.522 -1.15673 1.66576 0
M  V30 7067 C 657.855 -1.90141 0.394996 0
M  V30 7068 O 657.13 -1.84798 -0.606613 0
M  V30 7069 C 657.413 -2.15042 2.88841 0
M  V30 7070 C 657.266 -1.44465 4.25969 0
M  V30 7071 C 658.585 -3.15699 3.0663 0
M  V30 7072 H 655.704 -0.41916 0.606196 0
M  V30 7073 H 658.346 -0.442348 1.84779 0
M  V30 7074 H 656.496 -2.75964 2.73452 0
M  V30 7075 H 658.168 -0.866544 4.53088 0
M  V30 7076 H 656.411 -0.746612 4.27327 0
M  V30 7077 H 657.082 -2.16976 5.07568 0
M  V30 7078 H 659.558 -2.64854 3.20923 0
M  V30 7079 H 658.434 -3.82491 3.9369 0
M  V30 7080 H 658.695 -3.83481 2.19987 0
M  V30 7081 N 657.755 -1.42862 -0.66545 0
M  V30 7082 C 659.002 -1.4383 -1.42546 0
M  V30 7083 C 659.33 -0.0581114 -1.94413 0
M  V30 7084 O 658.585 0.935002 -1.71919 0
M  V30 7085 C 658.884 -2.4175 -2.63233 0
M  V30 7086 C 658.55 -3.87915 -2.29854 0
M  V30 7087 C 657.212 -4.27726 -2.20463 0
M  V30 7088 C 659.564 -4.80074 -2.02924 0
M  V30 7089 C 656.892 -5.57666 -1.82279 0
M  V30 7090 C 659.244 -6.10366 -1.66242 0
M  V30 7091 C 657.908 -6.49167 -1.55367 0
M  V30 7092 H 657.178 -0.52631 -0.521612 0
M  V30 7093 H 659.825 -1.75863 -0.757914 0
M  V30 7094 H 658.13 -2.03077 -3.35063 0
M  V30 7095 H 659.827 -2.39759 -3.21429 0
M  V30 7096 H 656.417 -3.564 -2.3807 0
M  V30 7097 H 660.601 -4.50097 -2.09108 0
M  V30 7098 H 655.857 -5.8658 -1.72436 0
M  V30 7099 H 660.031 -6.81258 -1.44432 0
M  V30 7100 H 657.658 -7.49761 -1.2555 0
M  V30 7101 N 659.233 0.902656 -1.29189 0
M  V30 7102 C 660.458 1.69167 -1.19989 0
M  V30 7103 C 660.883 1.86607 0.236495 0
M  V30 7104 O 660.241 1.38425 1.17082 0
M  V30 7105 C 660.289 3.05532 -1.91527 0
M  V30 7106 O 659.393 3.93621 -1.2303 0
M  V30 7107 H 658.734 0.517584 -0.415936 0
M  V30 7108 H 661.264 1.12785 -1.70706 0
M  V30 7109 H 661.274 3.55693 -1.99866 0
M  V30 7110 H 659.949 2.92156 -2.96003 0
M  V30 7111 H 658.526 3.52055 -1.22928 0
M  V30 7112 N 660.711 1.11618 1.11262 0
M  V30 7113 C 661.674 0.779447 2.15539 0
M  V30 7114 C 662.674 -0.202081 1.59525 0
M  V30 7115 O 663.864 0.0226356 1.74185 0
M  V30 7116 C 660.996 0.15674 3.40539 0
M  V30 7117 H 662.189 1.70324 2.4684 0
M  V30 7118 H 659.742 0.918298 1.26479 0
M  V30 7119 H 660.477 -0.777186 3.1485 0
M  V30 7120 H 660.262 0.863308 3.82478 0
M  V30 7121 H 661.752 -0.062661 4.17553 0
M  V30 7122 N 662.189 -1.289 0.906776 0
M  V30 7123 C 663.6 -1.77336 0.58384 0
M  V30 7124 C 663.951 -1.74304 -0.900697 0
M  V30 7125 O 663.076 -1.33335 -1.70443 0
M  V30 7126 C 663.671 -3.22019 1.05304 0
M  V30 7127 C 662.23 -3.68205 0.781148 0
M  V30 7128 C 661.377 -2.48837 1.22373 0
M  V30 7129 H 664.328 -1.15462 1.08877 0
M  V30 7130 H 664.349 -3.78481 0.391414 0
M  V30 7131 H 663.861 -3.24194 2.13353 0
M  V30 7132 H 661.962 -3.71497 -0.28643 0
M  V30 7133 H 662.075 -4.58675 1.384 0
M  V30 7134 H 660.439 -2.46461 0.642594 0
M  V30 7135 H 661.222 -2.53736 2.31242 0
M  V30 7136 N 663.667 -0.670007 -1.42649 0
M  V30 7137 C 664.615 0.0230106 -2.32589 0
M  V30 7138 C 665.609 0.795585 -1.49555 0
M  V30 7139 O 666.815 0.70409 -1.65658 0
M  V30 7140 H 663.19 0.0262342 -0.751542 0
M  V30 7141 H 665.161 -0.753009 -2.88743 0
M  V30 7142 C 663.91 0.963872 -3.34073 0
M  V30 7143 H 663.233 0.378813 -3.98001 0
M  V30 7144 H 664.673 1.41755 -3.99602 0
M  V30 7145 C 663.132 2.06797 -2.65964 0
M  V30 7146 O 663.662 3.15383 -2.48789 0
M  V30 7147 N 661.868 1.83831 -2.25066 0
M  V30 7148 H 661.415 0.955235 -2.39234 0
M  V30 7149 H 661.373 2.57895 -1.79827 0
M  V30 7150 N 665.145 1.52092 -0.413018 0
M  V30 7151 C 666.375 2.05974 0.160648 0
M  V30 7152 C 666.783 1.28267 1.39084 0
M  V30 7153 O 666.126 0.328805 1.80733 0
M  V30 7154 C 666.188 3.54918 0.572169 0
M  V30 7155 C 665.852 4.53705 -0.547826 0
M  V30 7156 C 666.849 5.00342 -1.41259 0
M  V30 7157 C 664.534 4.97089 -0.721627 0
M  V30 7158 C 666.528 5.89011 -2.43607 0
M  V30 7159 C 664.215 5.85554 -1.74841 0
M  V30 7160 C 665.213 6.3141 -2.60403 0
M  V30 7161 O 664.901 7.18123 -3.61323 0
M  V30 7162 H 664.633 0.675636 0.0221936 0
M  V30 7163 H 667.187 1.96931 -0.58373 0
M  V30 7164 H 665.417 3.61661 1.36889 0
M  V30 7165 H 667.106 3.91428 1.0742 0
M  V30 7166 H 667.872 4.67537 -1.28974 0
M  V30 7167 H 663.751 4.60954 -0.0652911 0
M  V30 7168 H 667.295 6.24725 -3.10425 0
M  V30 7169 H 663.192 6.17773 -1.87156 0
M  V30 7170 H 663.96 7.36244 -3.57613 0
M  V30 7171 N 666.623 0.143563 1.56945 0
M  V30 7172 C 667.863 -0.511198 1.97904 0
M  V30 7173 C 668.227 -1.62262 1.0264 0
M  V30 7174 O 669.428 -2.338 1.32631 0
M  V30 7175 C 667.699 -1.00753 3.42905 0
M  V30 7176 S 669.258 -1.66737 4.05887 0
M  V30 7177 H 666.076 -0.165399 0.691494 0
M  V30 7178 H 668.678 0.234464 1.94089 0
M  V30 7179 H 667.382 -0.187817 4.0997 0
M  V30 7180 H 666.913 -1.7879 3.50425 0
M  V30 7181 H 668.928 -2.95444 3.98657 0
M  V30 7182 N 668.101 -1.57061 -0.130224 0
M  V30 7183 C 669.378 -1.75205 -0.869631 0
M  V30 7184 C 669.758 -0.716063 -1.98584 0
M  V30 7185 O 669.106 0.262032 -2.26993 0
M  V30 7186 C 669.316 -3.19835 -1.39666 0
M  V30 7187 C 670.664 -3.82011 -1.85345 0
M  V30 7188 O 671.688 -3.23368 -1.49371 0
M  V30 7189 O 670.547 -4.85064 -2.51744 0
M  V30 7190 H 667.641 -0.716977 -0.412157 0
M  V30 7191 H 670.187 -1.69311 -0.11484 0
M  V30 7192 H 668.959 -3.86745 -0.595288 0
M  V30 7193 H 668.582 -3.30222 -2.21448 0
M  V30 7194 N 669.579 0.400081 -1.52437 0
M  V30 7195 C 670.511 1.50729 -1.72666 0
M  V30 7196 C 671.524 1.51058 -0.607075 0
M  V30 7197 O 672.713 1.5516 -0.88248 0
M  V30 7198 C 669.813 2.89604 -1.76019 0
M  V30 7199 C 668.986 3.13365 -3.05157 0
M  V30 7200 C 668.045 4.32163 -3.00203 0
M  V30 7201 O 667.071 4.29004 -3.74092 0
M  V30 7202 N 668.273 5.3776 -2.18619 0
M  V30 7203 H 671.038 1.33767 -2.68191 0
M  V30 7204 H 668.599 0.58948 -1.50787 0
M  V30 7205 H 670.591 3.67159 -1.70225 0
M  V30 7206 H 669.161 2.99979 -0.879284 0
M  V30 7207 H 668.381 2.23774 -3.24529 0
M  V30 7208 H 669.669 3.26089 -3.90568 0
M  V30 7209 H 669.067 5.43177 -1.58035 0
M  V30 7210 H 667.624 6.14023 -2.18674 0
M  V30 7211 N 671.057 1.43213 0.657864 0
M  V30 7212 C 671.99 1.42456 1.78273 0
M  V30 7213 C 672.968 0.286598 1.60054 0
M  V30 7214 O 674.152 0.479467 1.823 0
M  V30 7215 C 671.279 1.23169 3.15511 0
M  V30 7216 C 670.325 2.40181 3.52442 0
M  V30 7217 S 671.158 4.02729 3.52944 0
M  V30 7218 C 672.314 3.85816 4.92846 0
M  V30 7219 H 672.547 2.37642 1.78644 0
M  V30 7220 H 670.08 1.30188 0.830084 0
M  V30 7221 H 672.038 1.12728 3.94719 0
M  V30 7222 H 670.699 0.295398 3.12708 0
M  V30 7223 H 669.892 2.22478 4.52239 0
M  V30 7224 H 669.494 2.47224 2.80636 0
M  V30 7225 H 671.786 3.47853 5.81381 0
M  V30 7226 H 672.729 4.85348 5.15599 0
M  V30 7227 H 673.137 3.18361 4.66162 0
M  V30 7228 N 672.536 -0.895792 1.29666 0
M  V30 7229 C 673.784 -1.64339 1.17631 0
M  V30 7230 C 674.105 -1.93099 -0.271643 0
M  V30 7231 O 673.375 -1.55981 -1.18518 0
M  V30 7232 H 671.955 -0.609162 0.432354 0
M  V30 7233 H 674.617 -1.07389 1.62646 0
M  V30 7234 H 673.713 -2.59815 1.72924 0
M  V30 7235 N 674.014 -1.12206 -1.10668 0
M  V30 7236 C 674.962 -0.782918 -2.19028 0
M  V30 7237 C 675.956 0.229175 -1.67843 0
M  V30 7238 O 677.162 0.0876295 -1.79787 0
M  V30 7239 H 673.537 -0.235339 -0.714227 0
M  V30 7240 H 675.508 -1.70527 -2.44874 0
M  V30 7241 C 674.257 -0.25116 -3.46792 0
M  V30 7242 H 673.58 -1.02123 -3.86537 0
M  V30 7243 H 675.02 -0.0521409 -4.23968 0
M  V30 7244 C 673.479 1.02037 -3.21076 0
M  V30 7245 O 674.009 2.09862 -3.42522 0
M  V30 7246 N 672.215 0.946348 -2.74759 0
M  V30 7247 H 671.762 0.068777 -2.57508 0
M  V30 7248 H 671.72 1.79775 -2.57931 0
M  V30 7249 N 675.492 1.28418 -0.913599 0
M  V30 7250 C 676.439 2.27301 -0.400373 0
M  V30 7251 C 677.409 1.57582 0.52509 0
M  V30 7252 O 678.594 1.85482 0.447318 0
M  V30 7253 C 675.734 3.43284 0.35361 0
M  V30 7254 C 674.847 4.27752 -0.604341 0
M  V30 7255 C 673.982 5.30934 0.168075 0
M  V30 7256 C 673.021 6.07065 -0.783499 0
M  V30 7257 N 672.158 7.02086 -0.0446112 0
M  V30 7258 H 676.998 2.70579 -1.24865 0
M  V30 7259 H 674.535 1.33067 -0.627028 0
M  V30 7260 H 676.493 4.09322 0.806945 0
M  V30 7261 H 675.123 3.00997 1.16623 0
M  V30 7262 H 674.175 3.61759 -1.17621 0
M  V30 7263 H 675.487 4.80682 -1.33216 0
M  V30 7264 H 674.641 6.02855 0.681979 0
M  V30 7265 H 673.38 4.78771 0.928947 0
M  V30 7266 H 672.385 5.33995 -1.30878 0
M  V30 7267 H 673.61 6.61317 -1.54392 0
M  V30 7268 H 671.556 6.52273 0.698272 0
M  V30 7269 H 671.473 7.52637 -0.712258 0
M  V30 7270 H 672.741 7.78205 0.449102 0
M  V30 7271 N 676.97 0.677563 1.42291 0
M  V30 7272 C 677.933 0.0101085 2.29198 0
M  V30 7273 C 678.933 -0.726219 1.43467 0
M  V30 7274 O 680.123 -0.563807 1.64824 0
M  V30 7275 C 677.255 -0.996316 3.26016 0
M  V30 7276 H 678.448 0.775071 2.89711 0
M  V30 7277 H 676.001 0.440065 1.49977 0
M  V30 7278 H 676.736 -1.78967 2.70446 0
M  V30 7279 H 676.521 -0.471687 3.89253 0
M  V30 7280 H 678.011 -1.46167 3.91184 0
M  V30 7281 N 678.448 -1.51871 0.421078 0
M  V30 7282 C 679.673 -2.0684 -0.152371 0
M  V30 7283 C 680.098 -1.28802 -1.37083 0
M  V30 7284 O 679.456 -0.321482 -1.78427 0
M  V30 7285 C 679.504 -3.57532 -0.469368 0
M  V30 7286 O 678.608 -3.81818 -1.55848 0
M  V30 7287 H 677.949 -0.663939 -0.00898586 0
M  V30 7288 H 680.479 -1.95674 0.597724 0
M  V30 7289 H 680.489 -4.01515 -0.724553 0
M  V30 7290 H 679.164 -4.13761 0.421276 0
M  V30 7291 H 677.741 -3.49709 -1.29453 0
M  V30 7292 N 679.926 -0.151884 -1.56866 0
M  V30 7293 C 681.156 0.504081 -2.00356 0
M  V30 7294 C 681.564 1.58639 -1.03103 0
M  V30 7295 O 680.907 1.83688 -0.0207931 0
M  V30 7296 C 680.969 1.15975 -3.40279 0
M  V30 7297 C 680.633 0.221453 -4.56463 0
M  V30 7298 C 681.63 -0.552766 -5.16953 0
M  V30 7299 C 679.315 0.122936 -5.0215 0
M  V30 7300 C 681.309 -1.4129 -6.21543 0
M  V30 7301 C 678.996 -0.740801 -6.06593 0
M  V30 7302 C 679.994 -1.50732 -6.6616 0
M  V30 7303 O 679.682 -2.35666 -7.68581 0
M  V30 7304 H 679.414 0.135279 -0.662326 0
M  V30 7305 H 681.968 -0.244916 -2.03935 0
M  V30 7306 H 680.198 1.95649 -3.33554 0
M  V30 7307 H 681.887 1.71594 -3.67846 0
M  V30 7308 H 682.653 -0.486716 -4.82552 0
M  V30 7309 H 678.532 0.70931 -4.5551 0
M  V30 7310 H 682.076 -2.01166 -6.67966 0
M  V30 7311 H 677.973 -0.808125 -6.40421 0
M  V30 7312 H 678.741 -2.28967 -7.85822 0
M  V30 7313 N 681.404 1.57128 0.121893 0
M  V30 7314 C 682.653 1.83888 0.828748 0
M  V30 7315 C 682.966 0.737087 1.81181 0
M  V30 7316 O 684.172 0.891007 2.56463 0
M  V30 7317 C 682.628 3.26014 1.52455 0
M  V30 7318 C 682.236 4.44195 0.58263 0
M  V30 7319 C 683.98 3.62025 2.21671 0
M  V30 7320 C 681.887 5.77349 1.28149 0
M  V30 7321 H 680.817 0.685856 0.313238 0
M  V30 7322 H 683.468 1.83319 0.0814851 0
M  V30 7323 H 681.85 3.21044 2.31834 0
M  V30 7324 H 683.024 4.60457 -0.177729 0
M  V30 7325 H 681.339 4.164 -0.00241228 0
M  V30 7326 H 683.936 4.58776 2.74643 0
M  V30 7327 H 684.279 2.89315 2.99337 0
M  V30 7328 H 684.812 3.68767 1.49184 0
M  V30 7329 H 681.551 6.53221 0.546189 0
M  V30 7330 H 681.071 5.64978 2.01394 0
M  V30 7331 H 682.75 6.21006 1.81549 0
M  V30 7332 N 682.882 -0.391992 1.52647 0
M  V30 7333 C 683.832 -1.47815 1.73594 0
M  V30 7334 C 684.816 -1.49693 0.589979 0
M  V30 7335 O 686.008 -1.5538 0.847701 0
M  V30 7336 C 683.137 -2.85561 1.90551 0
M  V30 7337 C 682.223 -2.88264 3.1107 0
M  V30 7338 N 682.614 -2.60642 4.33474 0
M  V30 7339 C 680.912 -3.19432 3.11254 0
M  V30 7340 C 681.613 -2.70351 5.15058 0
M  V30 7341 N 680.589 -3.03956 4.50679 0
M  V30 7342 H 684.391 -1.2528 2.65861 0
M  V30 7343 H 681.905 -0.599907 1.50913 0
M  V30 7344 H 683.902 -3.63759 2.03678 0
M  V30 7345 H 682.562 -3.09081 0.994952 0
M  V30 7346 H 683.573 -2.34718 4.61658 0
M  V30 7347 H 680.25 -3.48436 2.29997 0
M  V30 7348 H 681.64 -2.52565 6.22624 0
M  V30 7349 N 684.36 -1.4356 -0.65026 0
M  V30 7350 C 685.29 -1.51758 -1.77459 0
M  V30 7351 C 686.271 -0.372019 -1.65982 0
M  V30 7352 O 687.456 -0.589627 -1.85033 0
M  V30 7353 C 684.586 -1.44302 -3.15902 0
M  V30 7354 C 683.54 -2.57138 -3.42146 0
M  V30 7355 C 682.866 -2.34735 -4.8042 0
M  V30 7356 C 684.166 -3.99373 -3.36598 0
M  V30 7357 H 685.86 -2.45863 -1.70855 0
M  V30 7358 H 683.406 -1.18333 -0.820566 0
M  V30 7359 H 685.359 -1.48641 -3.94314 0
M  V30 7360 H 684.083 -0.467026 -3.23244 0
M  V30 7361 H 682.742 -2.52157 -2.66106 0
M  V30 7362 H 682.39 -1.35372 -4.84441 0
M  V30 7363 H 682.09 -3.10375 -4.9894 0
M  V30 7364 H 683.614 -2.40862 -5.61086 0
M  V30 7365 H 685.028 -4.05826 -4.04942 0
M  V30 7366 H 683.425 -4.75063 -3.66654 0
M  V30 7367 H 684.495 -4.243 -2.34729 0
M  V30 7368 N 685.838 0.888903 -1.30139 0
M  V30 7369 C 686.77 1.99972 -1.11999 0
M  V30 7370 C 687.783 1.62673 -0.0643619 0
M  V30 7371 O 688.972 1.75788 -0.309983 0
M  V30 7372 C 686.072 3.31904 -0.685059 0
M  V30 7373 C 685.245 3.97665 -1.82158 0
M  V30 7374 C 684.304 5.07894 -1.37585 0
M  V30 7375 O 683.33 5.2974 -2.08241 0
M  V30 7376 N 684.532 5.7995 -0.252697 0
M  V30 7377 H 687.297 2.16085 -2.07671 0
M  V30 7378 H 684.858 1.06175 -1.22223 0
M  V30 7379 H 686.85 4.03005 -0.369964 0
M  V30 7380 H 685.42 3.12084 0.179507 0
M  V30 7381 H 684.64 3.19787 -2.305 0
M  V30 7382 H 685.928 4.3834 -2.58332 0
M  V30 7383 H 685.326 5.647 0.336141 0
M  V30 7384 H 683.883 6.518 0.00296813 0
M  V30 7385 N 687.317 1.12792 1.10072 0
M  V30 7386 C 688.565 0.883796 1.81751 0
M  V30 7387 C 688.886 -0.591891 1.858 0
M  V30 7388 O 688.156 -1.43017 1.33876 0
M  V30 7389 H 686.736 0.323978 0.673088 0
M  V30 7390 H 689.398 1.42314 1.33164 0
M  V30 7391 H 688.494 1.26863 2.85153 0
M  V30 7392 N 688.795 -1.27931 0.920396 0
M  V30 7393 C 690.02 -1.99343 0.572478 0
M  V30 7394 C 690.445 -1.68267 -0.840696 0
M  V30 7395 O 689.803 -0.918805 -1.56294 0
M  V30 7396 C 689.851 -3.51698 0.796284 0
M  V30 7397 O 688.955 -4.12157 -0.141602 0
M  V30 7398 H 688.296 -0.626065 0.221221 0
M  V30 7399 H 690.826 -1.62921 1.23765 0
M  V30 7400 H 690.836 -4.01793 0.708984 0
M  V30 7401 H 689.511 -3.73649 1.82644 0
M  V30 7402 H 688.088 -3.729 -0.005007 0
M  V30 7403 N 690.273 -0.685099 -1.4193 0
M  V30 7404 C 691.55 -0.140152 -1.95097 0
M  V30 7405 C 691.93 1.34745 -1.62502 0
M  V30 7406 O 691.278 2.08872 -0.926534 0
M  V30 7407 C 691.488 -0.420268 -3.4646 0
M  V30 7408 C 692.836 -0.342338 -4.23218 0
M  V30 7409 O 693.86 -0.354592 -3.54431 0
M  V30 7410 O 692.719 -0.293404 -5.45712 0
M  V30 7411 H 689.813 -0.00885998 -0.826953 0
M  V30 7412 H 692.359 -0.760539 -1.51703 0
M  V30 7413 H 691.131 -1.45037 -3.63428 0
M  V30 7414 H 690.754 0.231616 -3.96925 0
M  V30 7415 N 691.751 1.51645 -0.429126 0
M  V30 7416 C 692.681 2.30434 0.377148 0
M  V30 7417 C 693.662 1.35493 1.02838 0
M  V30 7418 O 694.847 1.6441 1.03359 0
M  V30 7419 C 691.977 3.14038 1.48315 0
M  V30 7420 C 690.931 4.1719 0.955855 0
M  V30 7421 C 690.257 4.89263 2.15698 0
M  V30 7422 C 691.557 5.223 -0.00402136 0
M  V30 7423 H 693.251 2.98085 -0.280336 0
M  V30 7424 H 690.797 1.43354 -0.136265 0
M  V30 7425 H 692.75 3.67933 2.05435 0
M  V30 7426 H 691.474 2.44193 2.16881 0
M  V30 7427 H 690.133 3.64335 0.406929 0
M  V30 7428 H 689.781 4.15929 2.82864 0
M  V30 7429 H 689.481 5.59009 1.81059 0
M  V30 7430 H 691.005 5.45978 2.73387 0
M  V30 7431 H 692.419 5.71315 0.476607 0
M  V30 7432 H 690.816 5.99525 -0.26258 0
M  V30 7433 H 691.886 4.75638 -0.943236 0
M  V30 7434 N 693.229 0.160201 1.56784 0
M  V30 7435 C 694.645 -0.196089 1.58391 0
M  V30 7436 C 694.845 -1.63689 1.17508 0
M  V30 7437 O 693.901 -2.36613 0.881506 0
M  V30 7438 C 695.214 0.0746449 3.00607 0
M  V30 7439 C 696.762 0.0119762 3.12998 0
M  V30 7440 C 697.237 0.255551 4.57286 0
M  V30 7441 N 698.728 0.202938 4.62755 0
M  V30 7442 C 699.463 0.365731 5.72232 0
M  V30 7443 N 698.959 0.586972 6.90309 0
M  V30 7444 N 700.752 0.302411 5.61286 0
M  V30 7445 H 692.903 1.1008 1.81648 0
M  V30 7446 H 695.166 0.436779 0.841384 0
M  V30 7447 H 694.872 1.07231 3.34954 0
M  V30 7448 H 694.746 -0.638802 3.71751 0
M  V30 7449 H 697.133 -0.976254 2.78484 0
M  V30 7450 H 697.214 0.75796 2.44313 0
M  V30 7451 H 696.858 1.24094 4.92507 0
M  V30 7452 H 696.788 -0.510912 5.24116 0
M  V30 7453 H 699.279 0.0371328 3.77882 0
M  V30 7454 H 699.592 0.700941 7.69615 0
M  V30 7455 H 697.937 0.623453 6.92198 0
M  V30 7456 H 701.128 0.130238 4.67919 0
M  V30 7457 H 701.301 0.432712 6.46554 0
M  V30 7458 N 694.707 -1.5719 -0.113559 0
M  V30 7459 C 696.118 -1.74259 -0.670116 0
M  V30 7460 C 696.469 -0.779694 -1.80042 0
M  V30 7461 O 695.594 0.0461353 -2.16351 0
M  V30 7462 C 696.189 -3.15981 -1.22236 0
M  V30 7463 C 694.748 -3.34537 -1.72516 0
M  V30 7464 C 693.895 -2.70116 -0.627098 0
M  V30 7465 H 696.846 -1.58301 0.112396 0
M  V30 7466 H 696.867 -3.17832 -2.09197 0
M  V30 7467 H 696.379 -3.86038 -0.39949 0
M  V30 7468 H 694.48 -2.6953 -2.57263 0
M  V30 7469 H 694.593 -4.42737 -1.83086 0
M  V30 7470 H 692.957 -2.31501 -1.06204 0
M  V30 7471 H 693.74 -3.42802 0.184889 0
M  V30 7472 N 696.185 0.383891 -1.52853 0
M  V30 7473 C 697.117 1.48889 -1.74255 0
M  V30 7474 C 698.13 1.50405 -0.623063 0
M  V30 7475 O 699.319 1.54215 -0.898887 0
M  V30 7476 C 696.419 2.87721 -1.79081 0
M  V30 7477 C 695.592 3.10111 -3.08464 0
M  V30 7478 C 694.651 4.28954 -3.0477 0
M  V30 7479 O 693.677 4.25012 -3.78621 0
M  V30 7480 N 694.879 5.35411 -2.24311 0
M  V30 7481 H 697.644 1.30915 -2.69595 0
M  V30 7482 H 695.205 0.573454 -1.51404 0
M  V30 7483 H 697.197 3.65333 -1.7411 0
M  V30 7484 H 695.767 2.99029 -0.911052 0
M  V30 7485 H 694.987 2.20319 -3.26884 0
M  V30 7486 H 696.275 3.21928 -3.94005 0
M  V30 7487 H 695.673 5.41471 -1.63787 0
M  V30 7488 H 694.23 6.1167 -2.25175 0
M  V30 7489 N 697.663 1.43903 0.642637 0
M  V30 7490 C 698.91 1.46079 1.40239 0
M  V30 7491 C 699.238 0.0890335 1.94296 0
M  V30 7492 O 698.493 -0.907533 1.73385 0
M  V30 7493 C 698.792 2.45907 2.59354 0
M  V30 7494 C 698.458 3.91522 2.23654 0
M  V30 7495 C 697.12 4.31179 2.1363 0
M  V30 7496 C 699.472 4.83242 1.95261 0
M  V30 7497 C 696.8 5.60495 1.73384 0
M  V30 7498 C 699.152 6.12933 1.56511 0
M  V30 7499 C 697.816 6.51556 1.4502 0
M  V30 7500 H 697.086 0.534542 0.513172 0
M  V30 7501 H 699.733 1.77047 0.72984 0
M  V30 7502 H 698.038 2.08381 3.3179 0
M  V30 7503 H 699.735 2.44842 3.17574 0
M  V30 7504 H 696.325 3.60142 2.32369 0
M  V30 7505 H 700.509 4.53367 2.0192 0
M  V30 7506 H 695.765 5.89249 1.63082 0
M  V30 7507 H 699.939 6.83469 1.33576 0
M  V30 7508 H 697.566 7.51663 1.13606 0
M  V30 7509 N 699.141 -0.881989 1.30609 0
M  V30 7510 C 700.091 -1.97539 1.13852 0
M  V30 7511 C 701.075 -1.60813 0.0528428 0
M  V30 7512 O 702.267 -1.74827 0.276484 0
M  V30 7513 C 699.396 -3.32977 0.835519 0
M  V30 7514 C 698.482 -3.76008 1.96159 0
M  V30 7515 N 698.873 -3.91109 3.20729 0
M  V30 7516 C 697.171 -4.05427 1.85863 0
M  V30 7517 C 697.872 -4.27661 3.94311 0
M  V30 7518 N 696.848 -4.37686 3.22385 0
M  V30 7519 H 700.65 -2.07309 2.08327 0
M  V30 7520 H 698.164 -1.072 1.21992 0
M  V30 7521 H 700.161 -4.11041 0.696477 0
M  V30 7522 H 698.821 -3.24542 -0.101135 0
M  V30 7523 H 699.832 -3.7616 3.55984 0
M  V30 7524 H 696.509 -4.05449 0.995847 0
M  V30 7525 H 697.899 -4.47042 5.01601 0
M  V30 7526 N 700.619 -1.13374 -1.09472 0
M  V30 7527 C 701.551 -0.768466 -2.15933 0
M  V30 7528 C 702.564 0.209585 -1.61445 0
M  V30 7529 O 703.753 -0.010539 -1.78497 0
M  V30 7530 C 700.853 -0.118266 -3.38694 0
M  V30 7531 C 700.026 -1.12829 -4.22597 0
M  V30 7532 C 699.085 -0.503875 -5.23782 0
M  V30 7533 O 698.111 -1.16374 -5.57177 0
M  V30 7534 N 699.313 0.724288 -5.75964 0
M  V30 7535 H 702.078 -1.68457 -2.47876 0
M  V30 7536 H 699.639 -1.02668 -1.25183 0
M  V30 7537 H 701.631 0.311698 -4.03498 0
M  V30 7538 H 700.201 0.700769 -3.04644 0
M  V30 7539 H 699.421 -1.73556 -3.53938 0
M  V30 7540 H 700.709 -1.81095 -4.75481 0
M  V30 7541 H 700.107 1.27918 -5.51048 0
M  V30 7542 H 698.664 1.09692 -6.42504 0
M  V30 7543 N 702.098 1.27442 -0.927168 0
M  V30 7544 C 703.345 1.94391 -0.567324 0
M  V30 7545 C 703.673 1.72875 0.891321 0
M  V30 7546 O 702.928 1.05071 1.65102 0
M  V30 7547 C 703.227 3.47413 -0.838994 0
M  V30 7548 C 702.893 3.89049 -2.2793 0
M  V30 7549 C 701.555 4.00127 -2.67305 0
M  V30 7550 C 703.907 4.10154 -3.21595 0
M  V30 7551 C 701.235 4.29697 -3.99471 0
M  V30 7552 C 703.587 4.41208 -4.53341 0
M  V30 7553 C 702.251 4.50499 -4.92551 0
M  V30 7554 H 701.521 0.711325 -0.207598 0
M  V30 7555 H 704.168 1.51523 -1.17103 0
M  V30 7556 H 702.473 3.91503 -0.152609 0
M  V30 7557 H 704.17 3.97354 -0.53955 0
M  V30 7558 H 700.76 3.80962 -1.96381 0
M  V30 7559 H 704.944 4.01036 -2.92377 0
M  V30 7560 H 700.2 4.35099 -4.29533 0
M  V30 7561 H 704.374 4.56486 -5.25922 0
M  V30 7562 H 702.001 4.73167 -5.94994 0
M  V30 7563 N 703.576 0.692616 1.41565 0
M  V30 7564 C 704.804 0.231279 2.05603 0
M  V30 7565 C 705.219 -1.11837 1.52111 0
M  V30 7566 O 704.576 -1.6983 0.66813 0
M  V30 7567 C 704.627 0.177125 3.61066 0
M  V30 7568 O 704.348 1.47346 4.12578 0
M  V30 7569 C 705.849 -0.30556 4.42246 0
M  V30 7570 H 703.069 0.108238 0.662213 0
M  V30 7571 H 705.613 0.944369 1.81389 0
M  V30 7572 H 703.768 -0.486769 3.8433 0
M  V30 7573 H 704.182 1.35861 5.06599 0
M  V30 7574 H 705.656 -0.29233 5.51225 0
M  V30 7575 H 706.133 -1.34393 4.18133 0
M  V30 7576 H 706.739 0.327229 4.24039 0
M  V30 7577 N 705.054 -1.51416 0.437162 0
M  V30 7578 C 706.017 -2.26312 -0.362729 0
M  V30 7579 C 707.017 -1.29748 -0.949847 0
M  V30 7580 O 708.207 -1.53462 -0.824325 0
M  V30 7581 C 705.339 -3.05475 -1.5132 0
M  V30 7582 H 706.532 -2.98459 0.29365 0
M  V30 7583 H 704.085 -1.55137 0.190327 0
M  V30 7584 H 704.82 -2.37744 -2.20563 0
M  V30 7585 H 704.605 -3.76401 -1.09838 0
M  V30 7586 H 706.095 -3.62209 -2.07833 0
M  V30 7587 N 706.532 -0.168513 -1.56696 0
M  V30 7588 C 707.778 0.477865 -1.9709 0
M  V30 7589 C 708.111 1.63084 -1.05438 0
M  V30 7590 O 707.386 1.94238 -0.10095 0
M  V30 7591 C 707.669 0.963521 -3.4697 0
M  V30 7592 C 707.522 -0.189443 -4.49401 0
M  V30 7593 C 708.841 1.83813 -3.99876 0
M  V30 7594 H 705.96 0.172229 -0.716593 0
M  V30 7595 H 708.602 -0.254083 -1.88293 0
M  V30 7596 H 706.752 1.58724 -3.54597 0
M  V30 7597 H 708.424 -0.826451 -4.53836 0
M  V30 7598 H 706.667 -0.845366 -4.25483 0
M  V30 7599 H 707.338 0.192446 -5.51664 0
M  V30 7600 H 709.814 1.31235 -3.94863 0
M  V30 7601 H 708.69 2.14697 -5.0517 0
M  V30 7602 H 708.951 2.78289 -3.43523 0
M  V30 7603 N 708.01 1.57248 0.105221 0
M  V30 7604 C 709.421 1.74612 0.660865 0
M  V30 7605 C 709.772 0.789231 1.79626 0
M  V30 7606 O 708.897 -0.0346611 2.16372 0
M  V30 7607 C 709.492 3.16624 1.20559 0
M  V30 7608 C 708.051 3.35447 1.7074 0
M  V30 7609 C 707.198 2.70445 0.612764 0
M  V30 7610 H 710.149 1.5824 -0.12079 0
M  V30 7611 H 710.17 3.18937 2.07508 0
M  V30 7612 H 709.682 3.86245 0.379012 0
M  V30 7613 H 707.783 2.7089 2.5583 0
M  V30 7614 H 707.896 4.43702 1.80736 0
M  V30 7615 H 706.26 2.32061 1.04975 0
M  V30 7616 H 707.043 3.42699 -0.203066 0
M  V30 7617 N 709.488 -0.375779 1.53054 0
M  V30 7618 C 710.438 -1.45965 1.75152 0
M  V30 7619 C 711.422 -1.49059 0.605823 0
M  V30 7620 O 712.614 -1.54472 0.864133 0
M  V30 7621 C 709.743 -2.83524 1.93569 0
M  V30 7622 C 708.829 -2.84949 3.1411 0
M  V30 7623 N 709.22 -2.56029 4.36214 0
M  V30 7624 C 707.518 -3.16113 3.14625 0
M  V30 7625 C 708.219 -2.64873 5.17897 0
M  V30 7626 N 707.195 -2.99159 4.53878 0
M  V30 7627 H 710.997 -1.22454 2.67175 0
M  V30 7628 H 708.511 -0.583867 1.51541 0
M  V30 7629 H 710.508 -3.61578 2.07525 0
M  V30 7630 H 709.168 -3.08008 1.02768 0
M  V30 7631 H 710.179 -2.29808 4.64121 0
M  V30 7632 H 706.856 -3.45977 2.3368 0
M  V30 7633 H 708.246 -2.45947 6.25268 0
M  V30 7634 N 710.966 -1.44241 -0.634997 0
M  V30 7635 C 712.377 -1.41622 -1.21655 0
M  V30 7636 C 712.728 -0.129584 -1.95772 0
M  V30 7637 O 711.853 0.770225 -2.02229 0
M  V30 7638 C 712.448 -2.56557 -2.21278 0
M  V30 7639 C 711.007 -2.57145 -2.7487 0
M  V30 7640 C 710.154 -2.33354 -1.49804 0
M  V30 7641 H 713.105 -1.52878 -0.425905 0
M  V30 7642 H 713.126 -2.29089 -3.03807 0
M  V30 7643 H 712.638 -3.50186 -1.67306 0
M  V30 7644 H 710.739 -1.67447 -3.32855 0
M  V30 7645 H 710.852 -3.55507 -3.21172 0
M  V30 7646 H 709.216 -1.82372 -1.77799 0
M  V30 7647 H 709.999 -3.29092 -0.977402 0
M  V30 7648 N 712.444 0.87505 -1.31075 0
M  V30 7649 C 713.392 2.00317 -1.18219 0
M  V30 7650 C 714.386 1.69152 -0.0916872 0
M  V30 7651 O 715.592 1.7821 -0.253229 0
M  V30 7652 H 711.967 0.656981 -0.365895 0
M  V30 7653 H 713.938 2.08293 -2.13674 0
M  V30 7654 C 712.687 3.35821 -0.901095 0
M  V30 7655 H 712.01 3.6032 -1.73233 0
M  V30 7656 H 713.45 4.15366 -0.851295 0
M  V30 7657 C 711.909 3.34563 0.396114 0
M  V30 7658 O 712.439 3.75971 1.41452 0
M  V30 7659 N 710.645 2.87681 0.410832 0
M  V30 7660 H 710.192 2.54179 -0.418415 0
M  V30 7661 H 710.15 2.87223 1.27869 0
M  V30 7662 N 713.922 1.13953 1.08869 0
M  V30 7663 C 715.168 0.906151 1.8143 0
M  V30 7664 C 715.501 -0.566089 1.85766 0
M  V30 7665 O 714.776 -1.41915 1.33006 0
M  V30 7666 C 715.059 1.50183 3.27287 0
M  V30 7667 C 714.912 3.04359 3.31189 0
M  V30 7668 C 716.231 1.17477 4.24131 0
M  V30 7669 H 713.35 0.330624 0.658678 0
M  V30 7670 H 715.992 1.40873 1.27495 0
M  V30 7671 H 714.142 1.07442 3.73348 0
M  V30 7672 H 715.814 3.55896 2.93488 0
M  V30 7673 H 714.057 3.39053 2.70602 0
M  V30 7674 H 714.728 3.41141 4.33966 0
M  V30 7675 H 717.204 1.5442 3.86385 0
M  V30 7676 H 716.08 1.61795 5.24513 0
M  V30 7677 H 716.341 0.0893312 4.4201 0
M  V30 7678 N 715.4 -1.26948 0.933913 0
M  V30 7679 C 716.347 -2.26635 0.436484 0
M  V30 7680 C 717.317 -1.58397 -0.499953 0
M  V30 7681 O 718.502 -1.86171 -0.417753 0
M  V30 7682 C 715.642 -3.43803 -0.298951 0
M  V30 7683 C 714.755 -4.26736 0.672316 0
M  V30 7684 C 713.89 -5.31134 -0.0835872 0
M  V30 7685 C 712.929 -6.05742 0.879979 0
M  V30 7686 N 712.066 -7.01926 0.156301 0
M  V30 7687 H 716.906 -2.68558 1.29154 0
M  V30 7688 H 714.443 -1.32052 0.648118 0
M  V30 7689 H 716.401 -4.10554 -0.741723 0
M  V30 7690 H 715.031 -3.02814 -1.1182 0
M  V30 7691 H 714.083 -3.59842 1.23361 0
M  V30 7692 H 715.395 -4.78502 1.40846 0
M  V30 7693 H 714.549 -6.03863 -0.585984 0
M  V30 7694 H 713.288 -4.80188 -0.852661 0
M  V30 7695 H 712.293 -5.31846 1.39357 0
M  V30 7696 H 713.518 -6.58777 1.64894 0
M  V30 7697 H 711.464 -6.53301 -0.594413 0
M  V30 7698 H 711.381 -7.51409 0.831906 0
M  V30 7699 H 712.649 -7.78821 -0.325239 0
M  V30 7700 N 716.879 -0.700114 -1.41195 0
M  V30 7701 C 718.29 -0.307249 -1.84154 0
M  V30 7702 C 718.641 1.15539 -1.58572 0
M  V30 7703 O 717.766 1.88744 -1.05852 0
M  V30 7704 C 718.361 -0.550872 -3.34292 0
M  V30 7705 C 716.92 -0.211877 -3.75803 0
M  V30 7706 C 716.067 -0.830915 -2.64558 0
M  V30 7707 H 719.018 -0.900431 -1.30683 0
M  V30 7708 H 719.039 0.188954 -3.80031 0
M  V30 7709 H 718.551 -1.61548 -3.5288 0
M  V30 7710 H 716.652 0.848283 -3.62815 0
M  V30 7711 H 716.765 -0.67007 -4.74391 0
M  V30 7712 H 715.129 -0.260155 -2.53368 0
M  V30 7713 H 715.912 -1.89948 -2.85963 0
M  V30 7714 N 718.357 1.51182 -0.445186 0
M  V30 7715 C 719.29 2.24528 0.4077 0
M  V30 7716 C 720.268 1.26778 1.01814 0
M  V30 7717 O 721.452 1.55934 1.05909 0
M  V30 7718 C 718.579 3.00171 1.56892 0
M  V30 7719 C 717.625 4.12641 1.0784 0
M  V30 7720 S 718.458 5.35498 0.014049 0
M  V30 7721 C 719.614 6.14681 1.17975 0
M  V30 7722 H 719.847 2.96522 -0.214987 0
M  V30 7723 H 717.38 1.52681 -0.229781 0
M  V30 7724 H 719.338 3.44349 2.23459 0
M  V30 7725 H 717.999 2.27752 2.16304 0
M  V30 7726 H 717.192 4.64875 1.94698 0
M  V30 7727 H 716.794 3.70765 0.490852 0
M  V30 7728 H 719.086 6.44244 2.09658 0
M  V30 7729 H 720.029 7.04659 0.697222 0
M  V30 7730 H 720.437 5.46299 1.42187 0
M  V30 7731 N 719.835 0.176821 1.56605 0
M  V30 7732 C 720.798 -0.737429 2.17013 0
M  V30 7733 C 721.798 -1.15414 1.11965 0
M  V30 7734 O 722.988 -1.0702 1.37449 0
M  V30 7735 C 720.12 -2.00445 2.75744 0
M  V30 7736 H 721.313 -0.211455 2.99154 0
M  V30 7737 H 718.866 -0.0727582 1.56131 0
M  V30 7738 H 719.601 -2.57338 1.97352 0
M  V30 7739 H 719.386 -1.71456 3.52626 0
M  V30 7740 H 720.876 -2.65679 3.22187 0
M  V30 7741 N 721.313 -1.57302 -0.09688 0
M  V30 7742 C 722.543 -1.89926 -0.813114 0
M  V30 7743 C 722.951 -0.76852 -1.72888 0
M  V30 7744 O 722.294 0.268549 -1.81726 0
M  V30 7745 C 722.356 -3.17787 -1.68082 0
M  V30 7746 C 722.02 -4.4729 -0.937061 0
M  V30 7747 C 723.017 -5.1921 -0.267687 0
M  V30 7748 C 720.702 -4.93957 -0.911671 0
M  V30 7749 C 722.696 -6.36034 0.417129 0
M  V30 7750 C 720.383 -6.10693 -0.223068 0
M  V30 7751 C 721.381 -6.8158 0.440155 0
M  V30 7752 O 721.069 -7.96092 1.11772 0
M  V30 7753 H 720.801 -0.632783 -0.237828 0
M  V30 7754 H 723.355 -2.05248 -0.0790818 0
M  V30 7755 H 721.585 -2.98607 -2.45705 0
M  V30 7756 H 723.274 -3.36257 -2.27346 0
M  V30 7757 H 724.04 -4.84198 -0.278774 0
M  V30 7758 H 719.919 -4.38671 -1.41734 0
M  V30 7759 H 723.463 -6.91301 0.93537 0
M  V30 7760 H 719.36 -6.45159 -0.209821 0
M  V30 7761 H 720.128 -8.12064 1.02443 0
M  V30 7762 N 722.791 0.367657 -1.53252 0
M  V30 7763 C 723.754 1.43308 -1.78873 0
M  V30 7764 C 724.754 1.46671 -0.659115 0
M  V30 7765 O 725.944 1.47468 -0.927306 0
M  V30 7766 C 723.076 2.82442 -1.90892 0
M  V30 7767 H 724.269 1.21864 -2.74024 0
M  V30 7768 H 721.822 0.600668 -1.44297 0
M  V30 7769 H 722.557 3.09202 -0.978 0
M  V30 7770 H 722.342 2.81399 -2.73051 0
M  V30 7771 H 723.832 3.59601 -2.12314 0
M  V30 7772 N 724.269 1.44576 0.627338 0
M  V30 7773 C 725.217 1.52039 1.76031 0
M  V30 7774 C 726.211 0.391796 1.64807 0
M  V30 7775 O 727.417 0.5669 1.7084 0
M  V30 7776 H 723.792 0.477165 0.581221 0
M  V30 7777 H 725.763 2.47387 1.6686 0
M  V30 7778 C 724.512 1.48539 3.14375 0
M  V30 7779 H 723.835 2.34699 3.23661 0
M  V30 7780 H 725.275 1.57821 3.93534 0
M  V30 7781 C 723.734 0.20672 3.36265 0
M  V30 7782 O 724.264 -0.72154 3.95167 0
M  V30 7783 N 722.47 0.108654 2.90397 0
M  V30 7784 H 722.017 0.864884 2.42647 0
M  V30 7785 H 721.975 -0.746121 3.05418 0
M  V30 7786 N 725.747 -0.868086 1.31537 0
M  V30 7787 C 726.975 -1.65402 1.24298 0
M  V30 7788 C 727.39 -1.87827 -0.191389 0
M  V30 7789 O 726.747 -1.43776 -1.12404 0
M  V30 7790 C 726.798 -3.02093 1.9855 0
M  V30 7791 O 726.519 -2.80668 3.36388 0
M  V30 7792 C 728.02 -3.96538 1.98173 0
M  V30 7793 H 725.24 -0.515598 0.429417 0
M  V30 7794 H 727.784 -1.0834 1.73444 0
M  V30 7795 H 725.939 -3.55838 1.53161 0
M  V30 7796 H 726.353 -3.67504 3.74221 0
M  V30 7797 H 727.827 -4.8976 2.54635 0
M  V30 7798 H 728.304 -4.28474 0.964697 0
M  V30 7799 H 728.91 -3.48729 2.4345 0
M  V30 7800 N 727.225 -1.14528 -1.08264 0
M  V30 7801 C 728.155 -0.856356 -2.1723 0
M  V30 7802 C 729.136 0.189251 -1.69044 0
M  V30 7803 O 730.321 0.0456119 -1.94146 0
M  V30 7804 C 727.451 -0.334662 -3.45684 0
M  V30 7805 C 726.405 -1.31588 -4.0727 0
M  V30 7806 C 725.731 -0.653428 -5.30692 0
M  V30 7807 C 727.031 -2.67866 -4.48381 0
M  V30 7808 H 728.725 -1.76755 -2.41657 0
M  V30 7809 H 726.271 -0.851287 -1.16143 0
M  V30 7810 H 728.224 -0.120128 -4.21229 0
M  V30 7811 H 726.948 0.611967 -3.20815 0
M  V30 7812 H 725.607 -1.51661 -3.33758 0
M  V30 7813 H 725.255 0.299054 -5.0211 0
M  V30 7814 H 724.955 -1.30817 -5.72853 0
M  V30 7815 H 726.479 -0.448453 -6.08951 0
M  V30 7816 H 727.893 -2.51692 -5.15096 0
M  V30 7817 H 726.29 -3.29627 -5.01464 0
M  V30 7818 H 727.36 -3.24632 -3.60198 0
M  V30 7819 N 728.703 1.26451 -0.940633 0
M  V30 7820 C 729.633 2.28773 -0.467479 0
M  V30 7821 C 730.614 1.63218 0.478955 0
M  V30 7822 O 731.799 1.90427 0.380929 0
M  V30 7823 C 728.929 3.46259 0.268656 0
M  V30 7824 C 727.883 4.23898 -0.591171 0
M  V30 7825 C 727.209 5.33993 0.274891 0
M  V30 7826 C 728.509 4.87974 -1.86223 0
M  V30 7827 H 730.203 2.68601 -1.32265 0
M  V30 7828 H 727.749 1.29123 -0.637436 0
M  V30 7829 H 729.702 4.16951 0.610696 0
M  V30 7830 H 728.426 3.05383 1.15796 0
M  V30 7831 H 727.085 3.54969 -0.916098 0
M  V30 7832 H 726.733 4.89358 1.16353 0
M  V30 7833 H 726.433 5.86849 -0.297006 0
M  V30 7834 H 727.957 6.07523 0.612213 0
M  V30 7835 H 729.371 5.50883 -1.58747 0
M  V30 7836 H 727.768 5.50945 -2.37866 0
M  V30 7837 H 728.838 4.10945 -2.57394 0
M  V30 7838 N 730.181 0.707592 1.40822 0
M  V30 7839 C 731.113 0.0105968 2.29198 0
M  V30 7840 C 732.126 -0.732035 1.45414 0
M  V30 7841 O 733.315 -0.580741 1.68789 0
M  V30 7842 C 730.415 -1.00921 3.23525 0
M  V30 7843 C 729.588 -0.333747 4.36125 0
M  V30 7844 C 728.647 -1.25783 5.10945 0
M  V30 7845 O 727.673 -0.745646 5.64295 0
M  V30 7846 N 728.875 -2.58947 5.19545 0
M  V30 7847 H 731.64 0.76938 2.89656 0
M  V30 7848 H 729.201 0.554579 1.52105 0
M  V30 7849 H 731.193 -1.6294 3.70449 0
M  V30 7850 H 729.763 -1.66942 2.6429 0
M  V30 7851 H 728.983 0.466518 3.9143 0
M  V30 7852 H 730.271 0.135444 5.0862 0
M  V30 7853 H 729.669 -3.03065 4.7767 0
M  V30 7854 H 728.226 -3.16131 5.70004 0
M  V30 7855 N 731.66 -1.50943 0.453197 0
M  V30 7856 C 732.59 -2.31005 -0.34044 0
M  V30 7857 C 733.571 -1.37112 -1.00669 0
M  V30 7858 O 734.756 -1.66033 -1.0073 0
M  V30 7859 C 731.886 -3.16358 -1.433 0
M  V30 7860 C 730.84 -4.18658 -0.889363 0
M  V30 7861 C 730.166 -4.92633 -2.07887 0
M  V30 7862 C 731.466 -5.22227 0.0871142 0
M  V30 7863 H 733.16 -2.97601 0.327723 0
M  V30 7864 H 730.706 -1.43119 0.159054 0
M  V30 7865 H 732.659 -3.71155 -1.99555 0
M  V30 7866 H 731.383 -2.47613 -2.12968 0
M  V30 7867 H 730.042 -3.64936 -0.348915 0
M  V30 7868 H 729.69 -4.20376 -2.76211 0
M  V30 7869 H 729.39 -5.61819 -1.72143 0
M  V30 7870 H 730.914 -5.50258 -2.64666 0
M  V30 7871 H 732.328 -5.72001 -0.385656 0
M  V30 7872 H 730.725 -5.99032 0.357926 0
M  V30 7873 H 731.795 -4.74077 1.01879 0
M  V30 7874 N 733.138 -0.185124 -1.56509 0
M  V30 7875 C 734.386 0.455357 -1.96903 0
M  V30 7876 C 734.707 1.62839 -1.07277 0
M  V30 7877 O 733.977 1.95385 -0.141966 0
M  V30 7878 H 732.557 0.171218 -0.727113 0
M  V30 7879 H 735.219 -0.26953 -1.93027 0
M  V30 7880 H 734.315 0.80616 -3.01509 0
M  V30 7881 N 734.616 1.57351 0.0885366 0
M  V30 7882 C 735.549 1.97786 1.13825 0
M  V30 7883 C 736.527 0.852091 1.38485 0
M  V30 7884 O 737.711 1.11296 1.52137 0
M  V30 7885 C 734.838 2.30024 2.48609 0
M  V30 7886 C 733.884 3.52437 2.40189 0
M  V30 7887 S 734.717 5.03908 1.81209 0
M  V30 7888 C 735.873 5.39331 3.17605 0
M  V30 7889 H 736.106 2.86513 0.793587 0
M  V30 7890 H 733.639 1.51527 0.29646 0
M  V30 7891 H 735.597 2.49274 3.26148 0
M  V30 7892 H 734.258 1.41856 2.80242 0
M  V30 7893 H 733.451 3.72457 3.39546 0
M  V30 7894 H 733.053 3.32731 1.70781 0
M  V30 7895 H 735.345 5.36378 4.13891 0
M  V30 7896 H 736.288 6.4029 3.02381 0
M  V30 7897 H 736.696 4.6679 3.17438 0
M  V30 7898 N 736.094 -0.359525 1.53444 0
M  V30 7899 C 737.027 -1.46338 1.75101 0
M  V30 7900 C 738.005 -1.51142 0.599559 0
M  V30 7901 O 739.189 -1.69102 0.832862 0
M  V30 7902 C 736.316 -2.84667 1.83527 0
M  V30 7903 C 735.362 -2.9756 3.05549 0
M  V30 7904 S 736.195 -2.65685 4.64943 0
M  V30 7905 C 737.351 -4.06153 4.76225 0
M  V30 7906 H 737.584 -1.27747 2.68455 0
M  V30 7907 H 735.117 -0.554231 1.4411 0
M  V30 7908 H 737.075 -3.64368 1.89067 0
M  V30 7909 H 735.736 -3.00564 0.912147 0
M  V30 7910 H 734.929 -3.98883 3.08072 0
M  V30 7911 H 734.531 -2.25789 2.98153 0
M  V30 7912 H 736.823 -5.00475 4.56652 0
M  V30 7913 H 737.766 -4.08632 5.78295 0
M  V30 7914 H 738.174 -3.93435 4.04808 0
M  V30 7915 O 737.611 -1.53385 -0.505502 0
M  V30 7916 H 738.302 -1.55093 -1.16042 0
M  V30 END ATOM
M  V30 BEGIN BOND
M  V30 END BOND
M  V30 END CTAB
M  END
$$$$
