drugbank_target|P53355 Death-associated protein kinase 1 (DB04069; DB04395; DB07444; DB12010)
 OpenBabel12092119593D

  0  0  0     0  0            999 V3000
M  V30 BEGIN CTAB
M  V30 COUNTS 22474 22703 0 0 0
M  V30 BEGIN ATOM
M  V30 1 H -0.908 1.98254 -0.117106 0
M  V30 2 N 0 1.576 0 0
M  V30 3 C 0.933 2.03868 1.02534 0
M  V30 4 C 1.911 0.928543 1.3348 0
M  V30 5 O 3.095 1.19667 1.45644 0
M  V30 6 C 0.222 2.43627 2.35294 0
M  V30 7 C -0.732 3.65373 2.2001 0
M  V30 8 S 0.101 5.13292 1.52614 0
M  V30 9 C 1.257 5.56322 2.86805 0
M  V30 10 H 1.49 2.90518 0.631377 0
M  V30 11 H -0.977 1.52953 0.210867 0
M  V30 12 H 0.981 2.67203 3.11629 0
M  V30 13 H -0.358 1.57376 2.7183 0
M  V30 14 H -1.165 3.90944 3.18086 0
M  V30 15 H -1.563 3.418 1.51819 0
M  V30 16 H 0.729 5.58782 3.83104 0
M  V30 17 H 1.672 6.56266 2.65933 0
M  V30 18 H 2.08 4.83886 2.90714 0
M  V30 19 N 1.4781 -0.272755 1.55222 0
M  V30 20 C 2.7061 -1.02255 1.79865 0
M  V30 21 C 3.1211 -1.79924 0.572088 0
M  V30 22 O 2.4781 -1.76638 -0.458842 0
M  V30 23 C 2.5291 -1.98094 3.02392 0
M  V30 24 O 2.2501 -1.23572 4.20311 0
M  V30 25 C 3.7511 -2.84884 3.39641 0
M  V30 26 H 0.9711 -0.302057 0.599168 0
M  V30 27 H 3.5151 -0.303465 2.02236 0
M  V30 28 H 1.6701 -2.65465 2.82147 0
M  V30 29 H 2.0841 -1.88172 4.89583 0
M  V30 30 H 3.5581 -3.47927 4.28545 0
M  V30 31 H 4.0351 -3.54665 2.59055 0
M  V30 32 H 4.6411 -2.23003 3.62146 0
M  V30 33 N 2.9562 -1.48159 -0.537278 0
M  V30 34 C 4.2022 -1.56035 -1.29541 0
M  V30 35 C 4.5352 -0.230377 -1.92829 0
M  V30 36 O 3.8102 0.762952 -1.78911 0
M  V30 37 C 4.0932 -2.69323 -2.39034 0
M  V30 38 C 3.9462 -4.12002 -1.80485 0
M  V30 39 C 5.2652 -2.78408 -3.40847 0
M  V30 40 H 2.3842 -0.567992 -0.469632 0
M  V30 41 H 5.0262 -1.80302 -0.599277 0
M  V30 42 H 3.1762 -2.48763 -2.98412 0
M  V30 43 H 4.8482 -4.43981 -1.25215 0
M  V30 44 H 3.0912 -4.19344 -1.11055 0
M  V30 45 H 3.7622 -4.87077 -2.59731 0
M  V30 46 H 6.2382 -2.97012 -2.91416 0
M  V30 47 H 5.1142 -3.59416 -4.14863 0
M  V30 48 H 5.3752 -1.86269 -4.00944 0
M  V30 49 N 4.4343 0.785586 -1.36625 0
M  V30 50 C 5.6813 1.54362 -1.31067 0
M  V30 51 C 6.0093 1.94195 0.10893 0
M  V30 52 O 5.2643 1.63262 1.07908 0
M  V30 53 C 5.5633 2.83007 -2.1827 0
M  V30 54 C 5.2293 2.62294 -3.6676 0
M  V30 55 C 3.8913 2.56353 -4.0723 0
M  V30 56 C 6.2433 2.43371 -4.6089 0
M  V30 57 C 3.5713 2.29461 -5.39967 0
M  V30 58 C 5.9233 2.18005 -5.93849 0
M  V30 59 C 4.5873 2.105 -6.3344 0
M  V30 60 H 3.8573 0.564851 -0.479609 0
M  V30 61 H 6.5043 0.906028 -1.68711 0
M  V30 62 H 4.8093 3.51253 -1.73576 0
M  V30 63 H 6.5063 3.40817 -2.11292 0
M  V30 64 H 3.0963 2.67774 -3.34656 0
M  V30 65 H 7.2803 2.46959 -4.30494 0
M  V30 66 H 2.5363 2.22135 -5.69619 0
M  V30 67 H 6.7103 2.02359 -6.66351 0
M  V30 68 H 4.3373 1.89425 -7.36222 0
M  V30 69 N 5.9124 1.20967 1.01018 0
M  V30 70 C 7.3284 0.965905 1.27053 0
M  V30 71 C 7.5284 -0.350785 1.98423 0
M  V30 72 O 6.5844 -1.07773 2.28344 0
M  V30 73 C 7.8974 2.15294 2.09926 0
M  V30 74 C 9.4454 2.19463 2.23171 0
M  V30 75 C 9.9204 3.3767 3.09424 0
M  V30 76 N 11.4114 3.37724 3.17012 0
M  V30 77 C 12.1464 4.25837 3.83993 0
M  V30 78 N 11.6424 5.24138 4.53047 0
M  V30 79 N 13.4354 4.1366 3.80581 0
M  V30 80 H 5.5864 2.0565 0.531194 0
M  V30 81 H 7.8494 0.90024 0.297106 0
M  V30 82 H 7.5554 3.10684 1.64828 0
M  V30 83 H 7.4294 2.13923 3.10672 0
M  V30 84 H 9.8164 1.24632 2.6749 0
M  V30 85 H 9.8974 2.2488 1.21912 0
M  V30 86 H 9.5414 4.32791 2.65808 0
M  V30 87 H 9.4714 3.29491 4.10784 0
M  V30 88 H 11.9624 2.6658 2.6785 0
M  V30 89 H 12.2754 5.87684 5.01844 0
M  V30 90 H 10.6204 5.28068 4.5185 0
M  V30 91 H 13.8114 3.36127 3.25785 0
M  V30 92 H 13.9844 4.82538 4.32505 0
M  V30 93 N 7.3905 -1.2043 1.01659 0
M  V30 94 C 8.3225 -2.22626 0.544988 0
M  V30 95 C 9.3355 -1.58479 -0.372609 0
M  V30 96 O 10.5245 -1.77679 -0.170958 0
M  V30 97 C 7.6245 -3.38141 -0.22663 0
M  V30 98 C 6.7975 -4.31877 0.692876 0
M  V30 99 C 5.8565 -5.26191 -0.0311616 0
M  V30 100 O 4.8825 -5.6612 0.591343 0
M  V30 101 N 6.0845 -5.65618 -1.30601 0
M  V30 102 H 8.8495 -2.63716 1.42388 0
M  V30 103 H 6.4105 -1.34971 0.894116 0
M  V30 104 H 8.4025 -3.98239 -0.72024 0
M  V30 105 H 6.9725 -2.95943 -1.00681 0
M  V30 106 H 6.1925 -3.69746 1.36679 0
M  V30 107 H 7.4805 -4.91426 1.31824 0
M  V30 108 H 6.8785 -5.3519 -1.83269 0
M  V30 109 H 5.4355 -6.28025 -1.74435 0
M  V30 110 N 8.8686 -0.792821 -1.36206 0
M  V30 111 C 9.7786 -0.194808 -2.3379 0
M  V30 112 C 10.7946 0.654869 -1.61206 0
M  V30 113 O 11.9706 0.569856 -1.9317 0
M  V30 114 C 9.0356 0.657721 -3.40404 0
M  V30 115 C 8.0966 -0.210849 -4.28782 0
M  V30 116 C 7.3296 0.601086 -5.30304 0
M  V30 117 O 7.5526 1.83682 -5.40016 0
M  V30 118 O 6.4866 -0.000808277 -6.019 0
M  V30 119 H 10.3126 -1.00172 -2.86704 0
M  V30 120 H 7.8976 -0.554341 -1.38735 0
M  V30 121 H 9.7796 1.14375 -4.05581 0
M  V30 122 H 8.4546 1.44247 -2.89784 0
M  V30 123 H 7.3616 -0.743714 -3.66633 0
M  V30 124 H 8.6946 -0.959195 -4.82763 0
M  V30 125 N 10.3467 1.47872 -0.545128 0
M  V30 126 C 11.2947 2.31533 0.222512 0
M  V30 127 C 12.2887 1.42177 0.920985 0
M  V30 128 O 13.4947 1.59005 0.843645 0
M  V30 129 H 9.8697 0.746519 0.0906278 0
M  V30 130 H 11.8407 2.94139 -0.50246 0
M  V30 131 C 10.5897 3.2457 1.24699 0
M  V30 132 H 9.9127 3.93283 0.718944 0
M  V30 133 H 11.3527 3.85963 1.75523 0
M  V30 134 C 9.8117 2.47237 2.28856 0
M  V30 135 O 10.3417 2.20808 3.35569 0
M  V30 136 N 8.5477 2.08461 2.02466 0
M  V30 137 H 8.0947 2.30155 1.157 0
M  V30 138 H 8.0527 1.57033 2.72375 0
M  V30 139 N 11.8248 0.280983 1.55075 0
M  V30 140 C 13.0708 -0.33461 2.00021 0
M  V30 141 C 13.4038 -1.55063 1.16915 0
M  V30 142 O 12.6788 -1.93006 0.240646 0
M  V30 143 C 12.9618 -0.711007 3.53011 0
M  V30 144 C 12.8148 0.512766 4.46868 0
M  V30 145 C 14.1338 -1.54522 4.12081 0
M  V30 146 H 11.2528 -0.120147 0.727141 0
M  V30 147 H 13.8948 0.389097 1.85973 0
M  V30 148 H 12.0448 -1.32761 3.65112 0
M  V30 149 H 13.7168 1.15131 4.46702 0
M  V30 150 H 11.9598 1.14975 4.18286 0
M  V30 151 H 12.6308 0.205556 5.51617 0
M  V30 152 H 15.1068 -1.02442 4.03293 0
M  V30 153 H 13.9828 -1.77739 5.19327 0
M  V30 154 H 14.2438 -2.52813 3.62682 0
M  V30 155 N 13.3029 -1.57598 0.00835791 0
M  V30 156 C 14.5799 -1.82172 -0.712235 0
M  V30 157 C 14.9599 -0.887873 -1.9152 0
M  V30 158 O 14.3079 0.06146 -2.28417 0
M  V30 159 C 14.5179 -3.30875 -1.11008 0
M  V30 160 C 15.8659 -3.96826 -1.51044 0
M  V30 161 O 16.8899 -3.35248 -1.20364 0
M  V30 162 O 15.7489 -5.05318 -2.08125 0
M  V30 163 H 12.8429 -0.750435 -0.347529 0
M  V30 164 H 15.3889 -1.69665 0.0344523 0
M  V30 165 H 14.1609 -3.90481 -0.252982 0
M  V30 166 H 13.7839 -3.48412 -1.9156 0
M  V30 167 N 14.781 0.264519 -1.55364 0
M  V30 168 C 16.058 1.01677 -1.67096 0
M  V30 169 C 16.438 2.03996 -0.543015 0
M  V30 170 O 15.786 2.23907 0.45585 0
M  V30 171 C 15.996 1.66596 -3.0667 0
M  V30 172 C 17.344 2.17442 -3.64697 0
M  V30 173 O 18.368 1.76568 -3.09358 0
M  V30 174 O 17.227 2.92439 -4.61673 0
M  V30 175 H 14.321 0.472161 -0.678965 0
M  V30 176 H 16.867 0.259703 -1.67701 0
M  V30 177 H 15.639 0.924962 -3.80211 0
M  V30 178 H 15.262 2.48968 -3.10001 0
M  V30 179 N 16.2591 1.48442 0.529413 0
M  V30 180 C 17.4891 1.59919 1.30804 0
M  V30 181 C 17.8971 0.258792 1.87422 0
M  V30 182 O 17.2401 -0.762096 1.67146 0
M  V30 183 C 17.3021 2.58693 2.49636 0
M  V30 184 C 16.9661 4.03745 2.14101 0
M  V30 185 C 17.9631 4.9141 1.6974 0
M  V30 186 C 15.6481 4.49285 2.24607 0
M  V30 187 C 17.6421 6.22645 1.36351 0
M  V30 188 C 15.3291 5.8054 1.9083 0
M  V30 189 C 16.3271 6.67043 1.46773 0
M  V30 190 O 16.0151 7.95856 1.1344 0
M  V30 191 H 15.7471 0.541981 0.404021 0
M  V30 192 H 18.3011 1.95 0.645309 0
M  V30 193 H 16.5311 2.18734 3.18892 0
M  V30 194 H 18.2201 2.59999 3.11698 0
M  V30 195 H 18.9861 4.57465 1.61094 0
M  V30 196 H 14.8651 3.82142 2.57854 0
M  V30 197 H 18.4091 6.90119 1.01891 0
M  V30 198 H 14.3061 6.14022 1.99117 0
M  V30 199 H 15.0741 8.08613 1.26832 0
M  V30 200 N 17.7372 -0.778329 1.37039 0
M  V30 201 C 18.9672 -1.56507 1.34868 0
M  V30 202 C 19.3752 -1.89072 -0.0694802 0
M  V30 203 O 18.7182 -1.51434 -1.03987 0
M  V30 204 C 18.7802 -2.90641 2.11585 0
M  V30 205 C 18.4442 -2.80746 3.60598 0
M  V30 206 C 19.4412 -2.52226 4.54618 0
M  V30 207 C 17.1262 -2.98974 4.03633 0
M  V30 208 C 19.1202 -2.42054 5.89651 0
M  V30 209 C 16.8072 -2.88423 5.38754 0
M  V30 210 C 17.8052 -2.60002 6.31576 0
M  V30 211 O 17.4932 -2.49465 7.64214 0
M  V30 212 H 17.2252 -0.491723 0.463879 0
M  V30 213 H 19.7792 -0.973053 1.80889 0
M  V30 214 H 18.0092 -3.51936 1.60243 0
M  V30 215 H 19.6982 -3.51992 2.0213 0
M  V30 216 H 20.4642 -2.37835 4.22681 0
M  V30 217 H 16.3432 -3.20099 3.31749 0
M  V30 218 H 19.8872 -2.19791 6.62071 0
M  V30 219 H 15.7842 -3.0238 5.70295 0
M  V30 220 H 16.5522 -2.64864 7.74461 0
M  V30 221 N 19.2153 -1.21501 -1.00376 0
M  V30 222 C 20.4923 -0.941745 -1.71437 0
M  V30 223 C 20.8723 0.546114 -2.03914 0
M  V30 224 O 20.2203 1.51128 -1.71384 0
M  V30 225 C 20.4303 -1.82812 -2.97289 0
M  V30 226 C 21.7783 -2.07771 -3.70292 0
M  V30 227 O 22.8023 -1.80171 -3.07273 0
M  V30 228 O 21.6613 -2.54456 -4.83647 0
M  V30 229 H 18.7553 -0.353243 -0.747762 0
M  V30 230 H 21.3013 -1.32436 -1.06108 0
M  V30 231 H 20.0733 -2.83501 -2.69709 0
M  V30 232 H 19.6963 -1.4464 -3.70358 0
M  V30 233 N 20.6934 1.19889 -1.02296 0
M  V30 234 C 21.9214 1.9339 -0.735399 0
M  V30 235 C 22.3364 1.75148 0.704887 0
M  V30 236 O 21.6934 1.06954 1.47875 0
M  V30 237 C 21.7444 3.45313 -1.06962 0
M  V30 238 O 21.4654 3.62964 -2.45334 0
M  V30 239 C 22.9664 4.35948 -0.804021 0
M  V30 240 H 20.1864 0.61448 -0.269546 0
M  V30 241 H 22.7304 1.522 -1.36585 0
M  V30 242 H 20.8854 3.84359 -0.484455 0
M  V30 243 H 21.2994 4.56886 -2.57595 0
M  V30 244 H 22.7734 5.41174 -1.0879 0
M  V30 245 H 23.2504 4.3842 0.261691 0
M  V30 246 H 23.8564 4.02574 -1.37164 0
M  V30 247 N 22.1715 0.800033 1.35784 0
M  V30 248 C 23.4195 0.376597 1.9856 0
M  V30 249 C 23.7405 -1.05812 1.63795 0
M  V30 250 O 23.0105 -1.73103 0.917171 0
M  V30 251 H 21.5905 0.136261 0.734467 0
M  V30 252 H 24.2525 1.02442 1.65806 0
M  V30 253 H 23.3485 0.477002 3.08433 0
M  V30 254 N 23.6496 -1.47581 0.552962 0
M  V30 255 C 24.5596 -2.33743 -0.200353 0
M  V30 256 C 25.5756 -1.47928 -0.916151 0
M  V30 257 O 26.7516 -1.80865 -0.885993 0
M  V30 258 C 23.8166 -3.24536 -1.21973 0
M  V30 259 C 22.8776 -4.26238 -0.511819 0
M  V30 260 C 22.1106 -5.12693 -1.48263 0
M  V30 261 O 22.3336 -5.01525 -2.71714 0
M  V30 262 O 21.2676 -5.93375 -1.00945 0
M  V30 263 H 25.0936 -2.9945 0.506304 0
M  V30 264 H 22.6786 -1.46071 0.313622 0
M  V30 265 H 24.5606 -3.80631 -1.80827 0
M  V30 266 H 23.2356 -2.61462 -1.90839 0
M  V30 267 H 22.1426 -3.73914 0.117799 0
M  V30 268 H 23.4756 -4.92014 0.135308 0
M  V30 269 N 25.1277 -0.289203 -1.54924 0
M  V30 270 C 26.0377 0.601863 -2.26748 0
M  V30 271 C 27.0537 1.15834 -1.2984 0
M  V30 272 O 28.2297 1.18564 -1.62802 0
M  V30 273 C 25.2947 1.76299 -2.98529 0
M  V30 274 C 24.3557 1.24178 -4.10948 0
M  V30 275 C 23.5887 2.34757 -4.79296 0
M  V30 276 O 23.8117 3.54411 -4.46933 0
M  V30 277 O 22.7457 2.02115 -5.66951 0
M  V30 278 H 26.5717 0.0195879 -3.03694 0
M  V30 279 H 24.1567 -0.0560868 -1.49295 0
M  V30 280 H 26.0387 2.43973 -3.43592 0
M  V30 281 H 24.7137 2.33209 -2.24488 0
M  V30 282 H 23.6207 0.531104 -3.70311 0
M  V30 283 H 24.9537 0.718252 -4.86931 0
M  V30 284 N 26.6058 1.57591 -0.0167156 0
M  V30 285 C 27.5358 2.12496 0.967858 0
M  V30 286 C 28.5168 1.03807 1.34752 0
M  V30 287 O 29.7018 1.31577 1.42833 0
M  V30 288 C 26.8318 2.64194 2.25431 0
M  V30 289 C 25.7858 3.77559 2.01576 0
M  V30 290 C 25.1118 4.15636 3.36379 0
M  V30 291 C 26.4118 5.04151 1.36489 0
M  V30 292 H 28.1058 2.95013 0.510643 0
M  V30 293 H 25.6518 1.41915 0.244181 0
M  V30 294 H 27.6048 3.01236 2.94678 0
M  V30 295 H 26.3288 1.78821 2.73296 0
M  V30 296 H 24.9878 3.40937 1.34751 0
M  V30 297 H 24.6358 3.27263 3.81979 0
M  V30 298 H 24.3358 4.92022 3.21229 0
M  V30 299 H 25.8598 4.5525 4.06915 0
M  V30 300 H 27.2738 5.38857 1.95718 0
M  V30 301 H 25.6708 5.85453 1.31776 0
M  V30 302 H 26.7408 4.83733 0.336219 0
M  V30 303 N 28.0839 -0.256276 1.55502 0
M  V30 304 C 29.3319 -0.983672 1.76545 0
M  V30 305 C 29.6529 -1.86206 0.578982 0
M  V30 306 O 28.9229 -1.91656 -0.405577 0
M  V30 307 H 27.5029 -0.366191 0.651086 0
M  V30 308 H 30.1649 -0.276479 1.92929 0
M  V30 309 H 29.2609 -1.61087 2.67315 0
M  V30 310 N 29.562 -1.4872 -0.521534 0
M  V30 311 C 30.787 -1.61101 -1.30618 0
M  V30 312 C 31.212 -0.274611 -1.86085 0
M  V30 313 O 30.57 0.754937 -1.64834 0
M  V30 314 C 30.618 -2.66709 -2.4269 0
M  V30 315 O 29.722 -2.24456 -3.45967 0
M  V30 316 H 29.063 -0.539921 -0.386499 0
M  V30 317 H 31.593 -1.94767 -0.626645 0
M  V30 318 H 31.603 -2.88245 -2.88754 0
M  V30 319 H 30.278 -3.63727 -2.01682 0
M  V30 320 H 28.855 -2.13168 -3.05964 0
M  V30 321 N 31.0401 0.771051 -1.3745 0
M  V30 322 C 32.2881 1.52661 -1.32435 0
M  V30 323 C 32.6091 1.9479 0.0905024 0
M  V30 324 O 31.8791 1.66348 1.03466 0
M  V30 325 H 30.4591 0.566218 -0.487244 0
M  V30 326 H 33.1211 0.917636 -1.71946 0
M  V30 327 H 32.2171 2.42568 -1.96385 0
M  V30 328 N 32.5182 1.22032 0.997298 0
M  V30 329 C 33.4502 0.944263 2.08845 0
M  V30 330 C 34.4632 -0.0754663 1.62625 0
M  V30 331 O 35.6522 0.157994 1.77799 0
M  V30 332 C 32.7522 0.397723 3.36558 0
M  V30 333 C 31.9252 1.47362 4.11829 0
M  V30 334 C 30.9842 0.934951 5.17827 0
M  V30 335 O 30.0102 1.62016 5.45655 0
M  V30 336 N 31.2122 -0.245895 5.79979 0
M  V30 337 H 33.9772 1.88363 2.33109 0
M  V30 338 H 31.5382 1.12661 1.16272 0
M  V30 339 H 33.5302 0.0227771 4.04694 0
M  V30 340 H 32.1002 -0.446646 3.09393 0
M  V30 341 H 31.3202 2.02208 3.38386 0
M  V30 342 H 32.6082 2.19764 4.58891 0
M  V30 343 H 32.0062 -0.819475 5.59733 0
M  V30 344 H 30.5632 -0.562272 6.4937 0
M  V30 345 N 33.9963 -1.19345 1.0293 0
M  V30 346 C 35.2433 -1.89038 0.726008 0
M  V30 347 C 35.5713 -1.79649 -0.745427 0
M  V30 348 O 34.8263 -1.18354 -1.55855 0
M  V30 349 C 35.1253 -3.39292 1.12319 0
M  V30 350 C 34.7913 -3.68885 2.59297 0
M  V30 351 C 33.4533 -3.76671 2.99453 0
M  V30 352 C 35.8053 -3.82178 3.54386 0
M  V30 353 C 33.1333 -3.9522 4.33611 0
M  V30 354 C 35.4853 -4.0224 4.88248 0
M  V30 355 C 34.1493 -4.08259 5.28092 0
M  V30 356 H 33.4193 -0.691739 0.265665 0
M  V30 357 H 36.0663 -1.41328 1.29223 0
M  V30 358 H 34.3713 -3.88903 0.475584 0
M  V30 359 H 36.0683 -3.91536 0.866037 0
M  V30 360 H 32.6583 -3.63433 2.27189 0
M  V30 361 H 36.8423 -3.75505 3.24514 0
M  V30 362 H 32.0983 -3.98119 4.64016 0
M  V30 363 H 36.2723 -4.11468 5.61843 0
M  V30 364 H 33.8993 -4.22384 6.32057 0
M  V30 365 N 35.4744 -0.807222 -1.35358 0
M  V30 366 C 36.4374 -0.223665 -2.28106 0
M  V30 367 C 37.4374 0.589354 -1.4961 0
M  V30 368 O 38.6274 0.407745 -1.69361 0
M  V30 369 C 35.7594 0.688149 -3.33882 0
M  V30 370 H 36.9524 -1.04169 -2.81227 0
M  V30 371 H 34.5054 -0.577921 -1.45223 0
M  V30 372 H 35.2404 1.52984 -2.85948 0
M  V30 373 H 35.0254 0.10687 -3.91954 0
M  V30 374 H 36.5154 1.09075 -4.03104 0
M  V30 375 N 36.9525 1.47285 -0.560781 0
M  V30 376 C 38.1985 2.02764 -0.0381184 0
M  V30 377 C 38.5315 1.43384 1.30976 0
M  V30 378 O 37.8065 0.590733 1.85312 0
M  V30 379 C 38.0895 3.60064 0.0511427 0
M  V30 380 C 37.9425 4.2987 -1.32408 0
M  V30 381 C 39.2615 4.33439 0.762795 0
M  V30 382 H 36.3805 0.736841 -0.0153264 0
M  V30 383 H 39.0225 1.75675 -0.723759 0
M  V30 384 H 37.1725 3.83274 0.635065 0
M  V30 385 H 38.8445 4.17989 -1.95148 0
M  V30 386 H 37.0875 3.90085 -1.8978 0
M  V30 387 H 37.7585 5.38478 -1.21431 0
M  V30 388 H 40.2345 4.15243 0.266965 0
M  V30 389 H 39.1105 5.43124 0.794221 0
M  V30 390 H 39.3715 4.02915 1.81966 0
M  V30 391 N 38.4306 0.297415 1.54768 0
M  V30 392 C 39.6766 -0.313376 2.00364 0
M  V30 393 C 40.0096 -1.53815 1.18553 0
M  V30 394 O 39.2846 -1.92739 0.261103 0
M  V30 395 C 39.5676 -0.673525 3.53745 0
M  V30 396 C 39.4206 0.560133 4.46299 0
M  V30 397 C 40.7396 -1.50143 4.13697 0
M  V30 398 H 37.8586 -0.112428 0.728374 0
M  V30 399 H 40.5006 0.4088 1.8555 0
M  V30 400 H 38.6506 -1.28881 3.665 0
M  V30 401 H 40.3226 1.19863 4.45455 0
M  V30 402 H 38.5656 1.19405 4.17043 0
M  V30 403 H 39.2366 0.26405 5.51368 0
M  V30 404 H 41.7126 -0.981588 4.04356 0
M  V30 405 H 40.5886 -1.72221 5.21182 0
M  V30 406 H 40.8496 -2.48952 3.65343 0
M  V30 407 N 39.9087 -1.5758 0.0250728 0
M  V30 408 C 40.8557 -2.09973 -0.958129 0
M  V30 409 C 41.8257 -1.00085 -1.3256 0
M  V30 410 O 43.0107 -1.27481 -1.41962 0
M  V30 411 C 40.1507 -2.62812 -2.2366 0
M  V30 412 C 39.2637 -3.86693 -1.92594 0
M  V30 413 C 38.3987 -4.27941 -3.14707 0
M  V30 414 C 37.4377 -5.44591 -2.79442 0
M  V30 415 N 36.5747 -5.81014 -3.94167 0
M  V30 416 H 41.4147 -2.937 -0.504428 0
M  V30 417 H 38.9517 -1.45172 -0.237392 0
M  V30 418 H 40.9097 -2.91536 -2.98434 0
M  V30 419 H 39.5397 -1.81922 -2.66654 0
M  V30 420 H 38.5917 -3.64723 -1.0808 0
M  V30 421 H 39.9037 -4.71547 -1.62619 0
M  V30 422 H 39.0577 -4.58079 -3.97804 0
M  V30 423 H 37.7967 -3.41845 -3.4784 0
M  V30 424 H 36.8017 -5.1415 -1.94755 0
M  V30 425 H 38.0267 -6.32382 -2.47528 0
M  V30 426 H 35.9727 -4.97874 -4.2715 0
M  V30 427 H 35.8897 -6.60498 -3.67801 0
M  V30 428 H 37.1577 -6.15756 -4.7798 0
M  V30 429 N 41.3868 0.248026 -1.55636 0
M  V30 430 C 42.3338 1.30707 -1.90222 0
M  V30 431 C 43.3038 1.47881 -0.756332 0
M  V30 432 O 44.4888 1.61883 -1.00988 0
M  V30 433 C 41.6288 2.65769 -2.20138 0
M  V30 434 C 40.7418 2.56612 -3.47526 0
M  V30 435 C 39.8768 3.8402 -3.67017 0
M  V30 436 C 38.9158 3.69476 -4.8801 0
M  V30 437 N 38.0528 4.88774 -5.04029 0
M  V30 438 H 42.8928 1.00512 -2.80538 0
M  V30 439 H 40.4298 0.485055 -1.38873 0
M  V30 440 H 42.3878 3.44386 -2.35487 0
M  V30 441 H 41.0178 2.94115 -1.33027 0
M  V30 442 H 40.0698 1.69571 -3.40514 0
M  V30 443 H 41.3818 2.41774 -4.36287 0
M  V30 444 H 40.5358 4.7108 -3.8232 0
M  V30 445 H 39.2748 4.01754 -2.76487 0
M  V30 446 H 38.2798 2.80799 -4.72686 0
M  V30 447 H 39.5048 3.53238 -5.8 0
M  V30 448 H 37.4508 5.0687 -4.16435 0
M  V30 449 H 37.3678 4.76562 -5.86877 0
M  V30 450 H 38.6358 5.77335 -5.23741 0
M  V30 451 N 42.8649 1.48995 0.513639 0
M  V30 452 C 44.1049 1.59452 1.27885 0
M  V30 453 C 44.4689 0.269479 1.90099 0
M  V30 454 O 45.6699 0.249139 2.67643 0
M  V30 455 C 43.9409 2.71277 2.32688 0
M  V30 456 S 45.4999 3.01604 3.18717 0
M  V30 457 H 42.3179 0.562565 0.434789 0
M  V30 458 H 44.9199 1.86595 0.583301 0
M  V30 459 H 43.6239 3.66089 1.8549 0
M  V30 460 H 43.1549 2.46086 3.06929 0
M  V30 461 H 45.1699 2.42155 4.331 0
M  V30 462 N 44.343 -0.763751 1.37857 0
M  V30 463 C 45.759 -1.06542 1.18832 0
M  V30 464 C 45.959 -2.01478 0.0299722 0
M  V30 465 O 45.015 -2.4458 -0.627447 0
M  V30 466 C 46.328 -1.65525 2.51042 0
M  V30 467 C 47.876 -1.77745 2.57635 0
M  V30 468 C 48.351 -2.4014 3.89996 0
M  V30 469 N 49.842 -2.47582 3.91481 0
M  V30 470 C 50.577 -2.96732 4.9065 0
M  V30 471 N 50.073 -3.45993 6.00217 0
M  V30 472 N 51.866 -2.95679 4.78048 0
M  V30 473 H 44.017 -0.133556 2.1198 0
M  V30 474 H 46.28 -0.121879 0.940133 0
M  V30 475 H 45.986 -1.03236 3.36207 0
M  V30 476 H 45.86 -2.64719 2.68707 0
M  V30 477 H 48.247 -2.39164 1.72872 0
M  V30 478 H 48.328 -0.772836 2.43846 0
M  V30 479 H 47.972 -1.79358 4.75177 0
M  V30 480 H 47.902 -3.41223 4.01092 0
M  V30 481 H 50.393 -2.1273 3.12337 0
M  V30 482 H 50.706 -3.81922 6.7183 0
M  V30 483 H 49.051 -3.44077 6.03851 0
M  V30 484 H 52.242 -2.56499 3.91568 0
M  V30 485 H 52.415 -3.33672 5.55488 0
M  V30 486 N 45.8211 -1.22559 -0.990812 0
M  V30 487 C 46.7311 -1.01394 -2.11557 0
M  V30 488 C 47.7471 0.0383962 -1.73958 0
M  V30 489 O 48.9231 -0.154787 -2.00804 0
M  V30 490 C 45.9881 -0.596569 -3.41529 0
M  V30 491 C 45.0491 -1.72276 -3.93217 0
M  V30 492 C 44.2821 -1.32521 -5.16985 0
M  V30 493 O 44.5051 -0.204909 -5.70032 0
M  V30 494 O 43.4391 -2.14247 -5.62478 0
M  V30 495 H 47.2651 -1.95633 -2.32296 0
M  V30 496 H 44.8501 -1.01172 -1.0993 0
M  V30 497 H 46.7321 -0.374263 -4.19735 0
M  V30 498 H 45.4071 0.316939 -3.22145 0
M  V30 499 H 44.3141 -1.99961 -3.16174 0
M  V30 500 H 45.6471 -2.61421 -4.17037 0
M  V30 501 N 47.2992 1.18797 -1.03562 0
M  V30 502 C 48.2462 2.22253 -0.622259 0
M  V30 503 C 49.2162 1.61987 0.36736 0
M  V30 504 O 50.4012 1.88986 0.262492 0
M  V30 505 C 47.5412 3.45097 0.0138462 0
M  V30 506 C 46.6542 4.19722 -1.02263 0
M  V30 507 C 45.7892 5.30009 -0.355573 0
M  V30 508 C 44.8282 5.96399 -1.37749 0
M  V30 509 N 43.9652 6.98234 -0.735766 0
M  V30 510 H 48.8052 2.56968 -1.50903 0
M  V30 511 H 46.3422 1.26245 -0.755017 0
M  V30 512 H 48.3002 4.15279 0.399948 0
M  V30 513 H 46.9302 3.11018 0.864158 0
M  V30 514 H 45.9822 3.48418 -1.52673 0
M  V30 515 H 47.2942 4.65227 -1.79903 0
M  V30 516 H 46.4482 6.0664 0.0850095 0
M  V30 517 H 45.1872 4.85592 0.452967 0
M  V30 518 H 44.1922 5.18512 -1.82826 0
M  V30 519 H 45.4172 6.42899 -2.18764 0
M  V30 520 H 43.3632 6.55979 0.0525597 0
M  V30 521 H 43.2802 7.41965 -1.44995 0
M  V30 522 H 44.5482 7.78845 -0.31941 0
M  V30 523 N 48.7773 0.814389 1.34928 0
M  V30 524 C 50.0023 0.410097 2.03305 0
M  V30 525 C 50.4273 -0.973464 1.60951 0
M  V30 526 O 49.7853 -1.63185 0.789964 0
M  V30 527 C 49.8333 0.51049 3.56968 0
M  V30 528 O 48.9373 -0.473035 4.09678 0
M  V30 529 H 48.2783 0.170088 0.641846 0
M  V30 530 H 50.8083 1.10244 1.72358 0
M  V30 531 H 50.8183 0.383135 4.06197 0
M  V30 532 H 49.4933 1.51963 3.87144 0
M  V30 533 H 48.0703 -0.305272 3.71648 0
M  V30 534 N 50.2554 -1.46986 0.568584 0
M  V30 535 C 51.4834 -2.0683 0.0539956 0
M  V30 536 C 51.8984 -1.41953 -1.24478 0
M  V30 537 O 51.2554 -0.519933 -1.74937 0
M  V30 538 C 51.3064 -3.61254 -0.133362 0
M  V30 539 O 51.0274 -4.237 1.11399 0
M  V30 540 C 52.5284 -4.37992 -0.683927 0
M  V30 541 H 49.7484 -0.669058 0.0510141 0
M  V30 542 H 52.2924 -1.88824 0.785234 0
M  V30 543 H 50.4474 -3.78735 -0.81477 0
M  V30 544 H 50.8614 -5.16388 0.91888 0
M  V30 545 H 52.3354 -5.46684 -0.764263 0
M  V30 546 H 52.8124 -4.05058 -1.69778 0
M  V30 547 H 53.4184 -4.25283 -0.0378494 0
M  V30 548 N 51.7335 -0.305618 -1.54608 0
M  V30 549 C 52.9815 0.301701 -1.99835 0
M  V30 550 C 53.3025 1.54054 -1.19551 0
M  V30 551 O 52.5725 1.93702 -0.292658 0
M  V30 552 H 51.1525 0.114468 -0.738178 0
M  V30 553 H 53.8145 -0.418016 -1.90364 0
M  V30 554 H 52.9105 0.570548 -3.06841 0
M  V30 555 N 53.2116 1.57565 -0.0334293 0
M  V30 556 C 54.1416 2.13511 0.945265 0
M  V30 557 C 55.1226 1.05231 1.33643 0
M  V30 558 O 56.3076 1.33084 1.41429 0
M  V30 559 C 53.4376 2.6657 2.22616 0
M  V30 560 C 52.3916 3.79676 1.97561 0
M  V30 561 C 51.7176 4.1918 3.31952 0
M  V30 562 C 53.0176 5.0557 1.31135 0
M  V30 563 H 54.7116 2.95538 0.479325 0
M  V30 564 H 52.2576 1.42166 0.229115 0
M  V30 565 H 54.2106 3.04344 2.91466 0
M  V30 566 H 52.9346 1.8171 2.71384 0
M  V30 567 H 51.5936 3.42347 1.31127 0
M  V30 568 H 51.2416 3.31296 3.78487 0
M  V30 569 H 50.9416 4.95402 3.15992 0
M  V30 570 H 52.4656 4.59541 4.02063 0
M  V30 571 H 53.8796 5.40903 1.89992 0
M  V30 572 H 52.2766 5.86818 1.25559 0
M  V30 573 H 53.3466 4.84062 0.284894 0
M  V30 574 N 54.6897 -0.239769 1.55765 0
M  V30 575 C 55.6217 -1.32001 1.87372 0
M  V30 576 C 56.6347 -1.43944 0.760522 0
M  V30 577 O 57.8237 -1.45167 1.0387 0
M  V30 578 C 54.9237 -2.69779 2.05115 0
M  V30 579 C 54.0967 -2.80014 3.36022 0
M  V30 580 C 53.1557 -3.98684 3.4342 0
M  V30 581 O 52.1817 -3.87877 4.16582 0
M  V30 582 N 53.3837 -5.12176 2.73232 0
M  V30 583 H 56.1487 -1.0522 2.80622 0
M  V30 584 H 53.7097 -0.429857 1.56089 0
M  V30 585 H 55.7017 -3.47517 2.07399 0
M  V30 586 H 54.2717 -2.89237 1.18577 0
M  V30 587 H 53.4917 -1.88896 3.45994 0
M  V30 588 H 54.7797 -2.83808 4.22292 0
M  V30 589 H 54.1777 -5.2385 2.13536 0
M  V30 590 H 52.7347 -5.88022 2.81199 0
M  V30 591 N 56.1678 -1.49265 -0.50573 0
M  V30 592 C 57.3978 -1.61979 -1.28243 0
M  V30 593 C 57.8058 -0.288576 -1.86986 0
M  V30 594 O 57.1488 0.735408 -1.68337 0
M  V30 595 C 57.2108 -2.62632 -2.45489 0
M  V30 596 C 56.8748 -4.071 -2.07651 0
M  V30 597 C 57.8718 -4.94049 -1.61901 0
M  V30 598 C 55.5568 -4.52801 -2.17431 0
M  V30 599 C 57.5508 -6.24736 -1.26428 0
M  V30 600 C 55.2378 -5.83503 -1.8157 0
M  V30 601 C 56.2358 -6.69294 -1.36142 0
M  V30 602 O 55.9238 -7.9756 -1.00764 0
M  V30 603 H 55.6558 -0.54834 -0.395347 0
M  V30 604 H 58.2098 -1.96002 -0.614204 0
M  V30 605 H 56.4398 -2.2378 -3.15372 0
M  V30 606 H 58.1288 -2.64925 -3.07522 0
M  V30 607 H 58.8948 -4.5997 -1.53795 0
M  V30 608 H 54.7738 -3.86196 -2.51742 0
M  V30 609 H 58.3178 -6.91652 -0.908992 0
M  V30 610 H 54.2148 -6.17112 -1.89324 0
M  V30 611 H 54.9828 -8.10529 -1.13952 0
M  V30 612 N 57.6459 0.756429 -1.3826 0
M  V30 613 C 58.6089 1.85176 -1.35065 0
M  V30 614 C 59.6089 1.58818 -0.251703 0
M  V30 615 O 60.7989 1.66615 -0.508433 0
M  V30 616 C 57.9309 3.22596 -1.10201 0
M  V30 617 H 59.1239 1.89417 -2.3251 0
M  V30 618 H 56.6769 0.95783 -1.23512 0
M  V30 619 H 57.4119 3.24025 -0.133504 0
M  V30 620 H 57.1969 3.43122 -1.89762 0
M  V30 621 H 58.6869 4.02673 -1.10654 0
M  V30 622 N 59.124 1.23083 0.984299 0
M  V30 623 C 60.087 1.00979 2.05757 0
M  V30 624 C 61.087 -0.0269573 1.60777 0
M  V30 625 O 62.277 0.212403 1.729 0
M  V30 626 C 59.409 0.527072 3.36801 0
M  V30 627 H 60.602 1.9622 2.26799 0
M  V30 628 H 58.155 1.05072 1.15714 0
M  V30 629 H 58.89 -0.429294 3.21446 0
M  V30 630 H 58.675 1.27515 3.70786 0
M  V30 631 H 60.165 0.392942 4.15747 0
M  V30 632 N 60.6021 -1.18246 1.0419 0
M  V30 633 C 61.5491 -2.2192 0.634037 0
M  V30 634 C 62.5191 -1.62179 -0.358765 0
M  V30 635 O 63.7041 -1.89122 -0.252466 0
M  V30 636 C 60.8441 -3.451 0.00445535 0
M  V30 637 C 59.9571 -4.19174 1.04487 0
M  V30 638 C 59.0921 -5.29813 0.383676 0
M  V30 639 C 58.1311 -5.9566 1.4091 0
M  V30 640 N 57.2681 -6.97834 0.772784 0
M  V30 641 H 62.1081 -2.56164 1.52263 0
M  V30 642 H 59.6451 -1.25843 0.761701 0
M  V30 643 H 61.6031 -4.15485 -0.377919 0
M  V30 644 H 60.2331 -3.11472 -0.847652 0
M  V30 645 H 59.2851 -3.47604 1.54518 0
M  V30 646 H 60.5971 -4.64267 1.82368 0
M  V30 647 H 59.7511 -6.06677 -0.0528366 0
M  V30 648 H 58.4901 -4.85825 -0.427208 0
M  V30 649 H 57.4951 -5.17535 1.85574 0
M  V30 650 H 58.7201 -6.4173 2.22171 0
M  V30 651 H 56.6661 -6.55998 -0.0177708 0
M  V30 652 H 56.5831 -7.41186 1.48928 0
M  V30 653 H 57.8511 -7.78665 0.36071 0
M  V30 654 N 62.0802 -0.821533 -1.34494 0
M  V30 655 C 63.3272 -0.408946 -1.98328 0
M  V30 656 C 63.6552 1.02764 -1.65136 0
M  V30 657 O 62.9102 1.73026 -0.914349 0
M  V30 658 C 63.2092 -0.556512 -3.53041 0
M  V30 659 C 62.8752 -1.95861 -4.0614 0
M  V30 660 C 61.5372 -2.34217 -4.20352 0
M  V30 661 C 63.8892 -2.87523 -4.34718 0
M  V30 662 C 61.2172 -3.63572 -4.6047 0
M  V30 663 C 63.5692 -4.1634 -4.76281 0
M  V30 664 C 62.2332 -4.54675 -4.88699 0
M  V30 665 H 61.5032 -0.149644 -0.725732 0
M  V30 666 H 64.1502 -1.04521 -1.6046 0
M  V30 667 H 62.4552 0.163148 -3.9146 0
M  V30 668 H 64.1522 -0.217826 -4.00408 0
M  V30 669 H 60.7422 -1.65066 -3.95539 0
M  V30 670 H 64.9262 -2.59133 -4.23277 0
M  V30 671 H 60.1822 -3.93101 -4.68275 0
M  V30 672 H 64.3562 -4.87455 -4.97354 0
M  V30 673 H 61.9832 -5.54959 -5.19542 0
M  V30 674 N 63.5583 1.46682 -0.576371 0
M  V30 675 C 64.8073 2.01619 -0.0572825 0
M  V30 676 C 65.1203 1.45417 1.30818 0
M  V30 677 O 66.3263 1.92133 1.91825 0
M  V30 678 C 64.7823 3.59863 -0.0518371 0
M  V30 679 C 64.3903 4.25059 -1.41523 0
M  V30 680 C 66.1343 4.2248 0.413639 0
M  V30 681 C 64.0413 5.75364 -1.36785 0
M  V30 682 H 62.9713 0.753794 -0.0176448 0
M  V30 683 H 65.6223 1.68481 -0.727076 0
M  V30 684 H 64.0043 3.90048 0.683994 0
M  V30 685 H 65.1783 4.06491 -2.17029 0
M  V30 686 H 63.4933 3.7451 -1.8202 0
M  V30 687 H 66.0903 5.3265 0.467779 0
M  V30 688 H 66.4333 3.90976 1.42982 0
M  V30 689 H 66.9663 3.96897 -0.267929 0
M  V30 690 H 63.7053 6.11518 -2.36063 0
M  V30 691 H 63.2253 5.96214 -0.654895 0
M  V30 692 H 64.9043 6.37955 -1.07805 0
M  V30 693 N 65.0364 0.313813 1.54444 0
M  V30 694 C 65.9834 -0.55655 2.23989 0
M  V30 695 C 66.9534 -1.11943 1.22711 0
M  V30 696 O 68.1384 -1.16158 1.51367 0
M  V30 697 C 65.2784 -1.71635 2.99392 0
M  V30 698 C 64.3914 -1.18364 4.15468 0
M  V30 699 C 63.5264 -2.30834 4.78424 0
M  V30 700 C 62.5654 -1.74762 5.86622 0
M  V30 701 N 61.7024 -2.80855 6.43479 0
M  V30 702 H 66.5424 0.0430893 2.97969 0
M  V30 703 H 64.0794 0.0330359 1.47063 0
M  V30 704 H 66.0374 -2.39868 3.41349 0
M  V30 705 H 64.6674 -2.28742 2.27765 0
M  V30 706 H 63.7194 -0.393163 3.78363 0
M  V30 707 H 65.0314 -0.733262 4.93381 0
M  V30 708 H 64.1854 -3.0699 5.23299 0
M  V30 709 H 62.9244 -2.79204 3.99871 0
M  V30 710 H 61.9294 -0.970995 5.41158 0
M  V30 711 H 63.1544 -1.2728 6.67066 0
M  V30 712 H 61.1004 -3.28535 5.67804 0
M  V30 713 H 61.0174 -2.40351 7.16776 0
M  V30 714 H 62.2854 -3.5687 6.93011 0
M  V30 715 N 66.5145 -1.57545 0.0417849 0
M  V30 716 C 67.4615 -2.10977 -0.935805 0
M  V30 717 C 68.4315 -1.01486 -1.31491 0
M  V30 718 O 69.6165 -1.2898 -1.40602 0
M  V30 719 C 66.7565 -2.65169 -2.2086 0
M  V30 720 C 65.8695 -3.88714 -1.88482 0
M  V30 721 C 65.0045 -4.31254 -3.1015 0
M  V30 722 C 64.0435 -5.47524 -2.7365 0
M  V30 723 N 63.1805 -5.85162 -3.87982 0
M  V30 724 H 68.0205 -2.94218 -0.473249 0
M  V30 725 H 65.5575 -1.45415 -0.221981 0
M  V30 726 H 67.5155 -2.94685 -2.95325 0
M  V30 727 H 66.1455 -1.8474 -2.64709 0
M  V30 728 H 65.1975 -3.65849 -1.04205 0
M  V30 729 H 66.5095 -4.73245 -1.57608 0
M  V30 730 H 65.6635 -4.62273 -3.92923 0
M  V30 731 H 64.4025 -3.45516 -3.44195 0
M  V30 732 H 63.4075 -5.16187 -1.89291 0
M  V30 733 H 64.6325 -6.34971 -2.40807 0
M  V30 734 H 62.5785 -5.02377 -4.21846 0
M  V30 735 H 62.4955 -6.64362 -3.60775 0
M  V30 736 H 63.7635 -6.20791 -4.71422 0
M  V30 737 N 67.9926 0.231505 -1.5589 0
M  V30 738 C 69.4086 0.580748 -1.48659 0
M  V30 739 C 69.6086 1.87617 -0.73498 0
M  V30 740 O 68.6646 2.51046 -0.270586 0
M  V30 741 C 69.9776 0.669202 -2.93159 0
M  V30 742 C 71.5256 0.760499 -3.03621 0
M  V30 743 C 72.0006 0.880383 -4.49459 0
M  V30 744 N 73.4916 0.944861 -4.53461 0
M  V30 745 C 74.2266 1.05716 -5.63571 0
M  V30 746 N 73.7226 1.13403 -6.83456 0
M  V30 747 N 75.5156 1.09152 -5.514 0
M  V30 748 H 67.6666 -0.618695 -2.03189 0
M  V30 749 H 69.9296 -0.215728 -0.923128 0
M  V30 750 H 69.6356 -0.212904 -3.51055 0
M  V30 751 H 69.5096 1.5361 -3.44505 0
M  V30 752 H 71.8966 1.63305 -2.45796 0
M  V30 753 H 71.9776 -0.131864 -2.5546 0
M  V30 754 H 71.6216 0.0123284 -5.07899 0
M  V30 755 H 71.5516 1.78802 -4.95316 0
M  V30 756 H 74.0426 0.896176 -3.6712 0
M  V30 757 H 74.3556 1.21921 -7.63122 0
M  V30 758 H 72.7006 1.10333 -6.86186 0
M  V30 759 H 75.8916 1.02805 -4.56671 0
M  V30 760 H 76.0646 1.17558 -6.37247 0
M  V30 761 N 69.4707 1.49531 0.497807 0
M  V30 762 C 70.8867 1.36365 0.829266 0
M  V30 763 C 71.0867 0.399184 1.97506 0
M  V30 764 O 70.1427 -0.167977 2.51941 0
M  V30 765 C 71.4557 2.77153 1.16647 0
M  V30 766 C 73.0037 2.85877 1.27449 0
M  V30 767 C 73.4787 4.2744 1.64497 0
M  V30 768 N 74.9697 4.30265 1.7154 0
M  V30 769 C 75.7047 5.3677 2.01656 0
M  V30 770 N 75.2007 6.53516 2.29976 0
M  V30 771 N 76.9937 5.24189 2.02934 0
M  V30 772 H 69.1447 2.10831 -0.257703 0
M  V30 773 H 71.4077 0.946534 -0.0527091 0
M  V30 774 H 71.1137 3.49442 0.397872 0
M  V30 775 H 70.9877 3.12722 2.10915 0
M  V30 776 H 73.3747 2.13824 2.0338 0
M  V30 777 H 73.4557 2.53887 0.312244 0
M  V30 778 H 73.0997 5.00021 0.891151 0
M  V30 779 H 73.0297 4.56896 2.61827 0
M  V30 780 H 75.5207 3.4607 1.51802 0
M  V30 781 H 75.8337 7.30506 2.52153 0
M  V30 782 H 74.1787 6.56737 2.27425 0
M  V30 783 H 77.3697 4.31988 1.80289 0
M  V30 784 H 77.5427 6.07286 2.26071 0
M  V30 785 N 70.9488 -0.749086 1.3866 0
M  V30 786 C 72.1768 -1.53834 1.38358 0
M  V30 787 C 72.5918 -1.88783 -0.0255219 0
M  V30 788 O 71.9488 -1.53101 -0.993292 0
M  V30 789 C 71.9998 -2.83468 2.2434 0
M  V30 790 O 71.7208 -2.50008 3.5976 0
M  V30 791 C 73.2218 -3.7758 2.32267 0
M  V30 792 H 70.4418 -0.47585 0.473083 0
M  V30 793 H 72.9858 -0.926726 1.82297 0
M  V30 794 H 71.1408 -3.40995 1.83851 0
M  V30 795 H 71.5548 -3.33182 4.05081 0
M  V30 796 H 73.0288 -4.65478 2.96706 0
M  V30 797 H 73.5058 -4.18334 1.33765 0
M  V30 798 H 74.1118 -3.25976 2.73166 0
M  V30 799 N 72.4269 -1.23603 -0.977757 0
M  V30 800 C 73.3739 -1.01954 -2.07061 0
M  V30 801 C 74.3439 0.0638697 -1.65977 0
M  V30 802 O 75.5289 -0.0887624 -1.90593 0
M  V30 803 C 72.6689 -0.619658 -3.39491 0
M  V30 804 C 71.7819 -1.77547 -3.93829 0
M  V30 805 C 70.9169 -1.32212 -5.14484 0
M  V30 806 C 69.9559 -2.44852 -5.60994 0
M  V30 807 N 69.0929 -2.00456 -6.72876 0
M  V30 808 H 73.9329 -1.95495 -2.24913 0
M  V30 809 H 71.4699 -0.973861 -1.10247 0
M  V30 810 H 73.4279 -0.368898 -4.15566 0
M  V30 811 H 72.0579 0.278752 -3.21594 0
M  V30 812 H 71.1099 -2.14016 -3.14486 0
M  V30 813 H 72.4219 -2.62219 -4.24314 0
M  V30 814 H 71.5759 -1.02965 -5.97899 0
M  V30 815 H 70.3149 -0.445808 -4.85658 0
M  V30 816 H 69.3199 -2.74871 -4.76157 0
M  V30 817 H 70.5449 -3.33024 -5.91837 0
M  V30 818 H 68.4909 -1.15208 -6.45804 0
M  V30 819 H 68.4079 -2.78687 -7.02759 0
M  V30 820 H 69.6759 -1.7432 -7.59758 0
M  V30 821 N 73.905 1.17692 -1.04816 0
M  V30 822 C 75.13 1.92327 -0.776207 0
M  V30 823 C 75.555 1.76082 0.661581 0
M  V30 824 O 74.913 1.076 1.45917 0
M  V30 825 C 74.961 3.41539 -1.15687 0
M  V30 826 O 74.065 4.11402 -0.286775 0
M  V30 827 H 73.406 0.599735 -0.284981 0
M  V30 828 H 75.936 1.49201 -1.4 0
M  V30 829 H 75.946 3.92269 -1.12202 0
M  V30 830 H 74.621 3.52684 -2.20425 0
M  V30 831 H 73.198 3.70939 -0.381903 0
M  V30 832 N 75.3831 0.828654 1.34056 0
M  V30 833 C 76.6081 0.431637 2.02859 0
M  V30 834 C 77.0331 -0.956339 1.61975 0
M  V30 835 O 76.3911 -1.62338 0.807228 0
M  V30 836 C 76.4391 0.548323 3.56407 0
M  V30 837 O 75.5431 -0.429556 4.10157 0
M  V30 838 H 74.8841 0.176886 0.640006 0
M  V30 839 H 77.4141 1.12066 1.71179 0
M  V30 840 H 77.4241 0.426196 4.05768 0
M  V30 841 H 76.0991 1.5606 3.8551 0
M  V30 842 H 74.6761 -0.265836 3.71951 0
M  V30 843 N 76.8612 -1.46375 0.584142 0
M  V30 844 C 78.2772 -1.57694 0.245929 0
M  V30 845 C 78.4772 -1.57903 -1.25175 0
M  V30 846 O 77.5332 -1.49676 -2.03355 0
M  V30 847 C 78.8462 -2.87028 0.896402 0
M  V30 848 C 80.3942 -3.00662 0.870127 0
M  V30 849 C 80.8692 -4.32734 1.50017 0
M  V30 850 N 82.3602 -4.39436 1.46458 0
M  V30 851 C 83.0952 -5.40248 1.92144 0
M  V30 852 N 82.5912 -6.47726 2.4581 0
M  V30 853 N 84.3842 -5.31459 1.83052 0
M  V30 854 H 76.5352 -1.44483 1.55687 0
M  V30 855 H 78.7982 -0.689291 0.650831 0
M  V30 856 H 78.5042 -2.9269 1.95002 0
M  V30 857 H 78.3782 -3.75014 0.405486 0
M  V30 858 H 80.7652 -2.94581 -0.174871 0
M  V30 859 H 80.8462 -2.14148 1.39908 0
M  V30 860 H 80.4902 -4.39573 2.54437 0
M  V30 861 H 80.4202 -5.18025 0.946432 0
M  V30 862 H 82.9112 -3.62367 1.07231 0
M  V30 863 H 83.2242 -7.20863 2.78525 0
M  V30 864 H 81.5692 -6.48542 2.49836 0
M  V30 865 H 84.7602 -4.46396 1.40883 0
M  V30 866 H 84.9332 -6.09881 2.18973 0
M  V30 867 N 78.3393 -0.321999 -1.54275 0
M  V30 868 C 79.7553 0.0306999 -1.5957 0
M  V30 869 C 79.9553 1.50614 -1.33857 0
M  V30 870 O 79.0113 2.2619 -1.12223 0
M  V30 871 C 80.3243 -0.386122 -2.98211 0
M  V30 872 C 81.8723 -0.336647 -3.11184 0
M  V30 873 C 82.3473 -0.728607 -4.52167 0
M  V30 874 N 83.8383 -0.681952 -4.58152 0
M  V30 875 C 84.5733 -0.957449 -5.6535 0
M  V30 876 N 84.0693 -1.3 -6.80494 0
M  V30 877 N 85.8623 -0.883113 -5.55119 0
M  V30 878 H 78.0133 -1.28332 -1.69247 0
M  V30 879 H 80.2763 -0.521716 -0.791528 0
M  V30 880 H 79.9823 -1.41404 -3.22022 0
M  V30 881 H 79.8563 0.249662 -3.76373 0
M  V30 882 H 82.2433 0.682058 -2.8711 0
M  V30 883 H 82.3243 -1.00734 -2.3513 0
M  V30 884 H 81.9683 -1.74522 -4.76974 0
M  V30 885 H 81.8983 -0.0356152 -5.26588 0
M  V30 886 H 84.3893 -0.428985 -3.75457 0
M  V30 887 H 84.7023 -1.49563 -7.58189 0
M  V30 888 H 83.0473 -1.33824 -6.81994 0
M  V30 889 H 86.2383 -0.615001 -4.64042 0
M  V30 890 H 86.4113 -1.10118 -6.38575 0
M  V30 891 N 79.8174 1.5752 -0.0501392 0
M  V30 892 C 81.0654 1.9227 0.622642 0
M  V30 893 C 81.3864 0.929083 1.71444 0
M  V30 894 O 80.6564 -0.0262186 1.95882 0
M  V30 895 H 79.2364 0.709739 0.232981 0
M  V30 896 H 81.8984 1.94628 -0.102898 0
M  V30 897 H 80.9944 2.93479 1.06191 0
M  V30 898 N 81.2955 -0.223234 1.56011 0
M  V30 899 C 82.5415 -0.949279 1.79211 0
M  V30 900 C 82.8745 -1.84054 0.619494 0
M  V30 901 O 82.1495 -1.90726 -0.381317 0
M  V30 902 C 82.4325 -1.78965 3.12479 0
M  V30 903 C 82.2855 -0.924997 4.40186 0
M  V30 904 C 83.6045 -2.76774 3.42175 0
M  V30 905 H 80.7235 -0.343676 0.651963 0
M  V30 906 H 83.3655 -0.218253 1.88742 0
M  V30 907 H 81.5155 -2.41291 3.04485 0
M  V30 908 H 83.1875 -0.318615 4.60198 0
M  V30 909 H 81.4305 -0.230344 4.33188 0
M  V30 910 H 82.1015 -1.54735 5.29869 0
M  V30 911 H 84.5775 -2.24584 3.50287 0
M  V30 912 H 83.4535 -3.32678 4.36597 0
M  V30 913 H 83.7145 -3.54429 2.64258 0
M  V30 914 N 82.7736 -1.49793 -0.48987 0
M  V30 915 C 83.9986 -1.63836 -1.27172 0
M  V30 916 C 84.4236 -0.31402 -1.8546 0
M  V30 917 O 83.7816 0.719803 -1.66399 0
M  V30 918 C 83.8296 -2.71797 -2.36978 0
M  V30 919 O 82.9336 -2.31744 -3.41128 0
M  V30 920 H 82.2746 -0.547997 -0.37496 0
M  V30 921 H 84.8046 -1.96053 -0.585191 0
M  V30 922 H 84.8146 -2.94305 -2.82575 0
M  V30 923 H 83.4896 -3.67923 -1.93921 0
M  V30 924 H 82.0666 -2.1961 -3.01373 0
M  V30 925 N 84.2517 0.741722 -1.39055 0
M  V30 926 C 85.6677 1.04638 -1.20512 0
M  V30 927 C 85.8677 2.01405 -0.0620218 0
M  V30 928 O 84.9237 2.45547 0.588457 0
M  V30 929 C 86.2367 1.6151 -2.53643 0
M  V30 930 C 87.7847 1.73623 -2.6043 0
M  V30 931 C 88.2597 2.33906 -3.93767 0
M  V30 932 N 89.7507 2.41323 -3.9537 0
M  V30 933 C 90.4857 2.88888 -4.95309 0
M  V30 934 N 89.9817 3.36401 -6.05645 0
M  V30 935 N 91.7747 2.88037 -4.82692 0
M  V30 936 H 83.9257 0.0998155 -2.12165 0
M  V30 937 H 86.1887 0.106907 -0.941953 0
M  V30 938 H 85.8947 0.978739 -3.37807 0
M  V30 939 H 85.7687 2.60411 -2.72885 0
M  V30 940 H 88.1557 2.36384 -1.76655 0
M  V30 941 H 88.2367 0.733945 -2.45045 0
M  V30 942 H 87.8807 1.71776 -4.7797 0
M  V30 943 H 87.8107 3.34799 -4.06469 0
M  V30 944 H 90.3017 2.07734 -3.15682 0
M  V30 945 H 90.6147 3.71186 -6.77821 0
M  V30 946 H 88.9597 3.34427 -6.09248 0
M  V30 947 H 92.1507 2.50237 -3.95599 0
M  V30 948 H 92.3237 3.24792 -5.60726 0
M  V30 949 N 85.7298 1.2412 0.971189 0
M  V30 950 C 86.6398 1.04747 2.09917 0
M  V30 951 C 87.6558 -0.0107162 1.73997 0
M  V30 952 O 88.8318 0.186714 2.00533 0
M  V30 953 C 85.8968 0.650828 3.40537 0
M  V30 954 C 84.9578 1.7851 3.90426 0
M  V30 955 C 84.1908 1.40729 5.14812 0
M  V30 956 O 84.4138 0.29557 5.69634 0
M  V30 957 O 83.3478 2.23168 5.58999 0
M  V30 958 H 87.1738 1.99304 2.29154 0
M  V30 959 H 84.7588 1.02908 1.08307 0
M  V30 960 H 86.6408 0.440992 4.19086 0
M  V30 961 H 85.3158 -0.265649 3.22608 0
M  V30 962 H 84.2228 2.04966 3.12953 0
M  V30 963 H 85.5558 2.68023 4.12825 0
M  V30 964 N 87.2079 -1.17134 1.05439 0
M  V30 965 C 88.4849 -1.83411 0.679699 0
M  V30 966 C 88.8649 -1.9368 -0.839726 0
M  V30 967 O 88.2129 -1.47325 -1.74664 0
M  V30 968 C 88.4229 -3.20918 1.37159 0
M  V30 969 C 89.7709 -3.96796 1.51123 0
M  V30 970 O 90.7949 -3.30406 1.3308 0
M  V30 971 O 89.6539 -5.15778 1.80651 0
M  V30 972 H 86.7479 -0.79154 0.239569 0
M  V30 973 H 89.2939 -1.24411 1.15413 0
M  V30 974 H 88.0659 -3.08428 2.40807 0
M  V30 975 H 87.6889 -3.87587 0.886674 0
M  V30 976 N 88.686 -0.835752 -1.33615 0
M  V30 977 C 89.935 -0.426289 -1.97144 0
M  V30 978 C 90.248 1.01912 -1.66953 0
M  V30 979 O 91.454 1.53311 -2.24072 0
M  V30 980 C 89.91 -0.711321 -3.52801 0
M  V30 981 C 89.518 -2.1712 -3.91871 0
M  V30 982 C 91.262 -0.368654 -4.22896 0
M  V30 983 C 89.169 -2.40044 -5.40493 0
M  V30 984 H 88.099 -0.15567 -0.737755 0
M  V30 985 H 90.75 -1.0239 -1.52278 0
M  V30 986 H 89.132 -0.0433766 -3.95976 0
M  V30 987 H 90.306 -2.87936 -3.59763 0
M  V30 988 H 88.621 -2.47654 -3.34749 0
M  V30 989 H 91.218 -0.517601 -5.32189 0
M  V30 990 H 91.561 0.688078 -4.10574 0
M  V30 991 H 92.094 -0.991702 -3.8524 0
M  V30 992 H 88.833 -3.44271 -5.57815 0
M  V30 993 H 88.353 -1.73785 -5.74072 0
M  V30 994 H 90.032 -2.23042 -6.0734 0
M  V30 995 N 90.1641 1.46063 -0.591896 0
M  V30 996 C 91.0741 2.34192 0.13831 0
M  V30 997 C 92.0901 1.50305 0.876608 0
M  V30 998 O 93.2661 1.8315 0.837728 0
M  V30 999 C 90.3311 3.27656 1.13326 0
M  V30 1000 C 89.3921 4.27445 0.39863 0
M  V30 1001 C 88.6251 5.16443 1.34618 0
M  V30 1002 O 88.8481 5.08553 2.58321 0
M  V30 1003 O 87.7821 5.95843 0.851768 0
M  V30 1004 H 91.6081 2.98002 -0.58552 0
M  V30 1005 H 89.1931 1.45188 -0.352239 0
M  V30 1006 H 91.0751 3.85291 1.70671 0
M  V30 1007 H 89.7501 2.6643 1.83839 0
M  V30 1008 H 88.6571 3.73471 -0.216895 0
M  V30 1009 H 89.9901 4.91482 -0.265709 0
M  V30 1010 N 91.6422 0.330177 1.54103 0
M  V30 1011 C 93.0582 -0.0222371 1.59585 0
M  V30 1012 C 93.2582 -1.49902 1.34654 0
M  V30 1013 O 92.3142 -2.25592 1.13421 0
M  V30 1014 C 93.6272 0.401932 2.98002 0
M  V30 1015 C 95.1752 0.353145 3.11001 0
M  V30 1016 C 95.6502 0.752576 4.51775 0
M  V30 1017 N 97.1412 0.706239 4.57784 0
M  V30 1018 C 97.8762 0.987417 5.64834 0
M  V30 1019 N 97.3722 1.33607 6.79795 0
M  V30 1020 N 99.1652 0.91254 5.54643 0
M  V30 1021 H 91.3162 1.29228 1.68564 0
M  V30 1022 H 93.5792 0.525906 0.78875 0
M  V30 1023 H 93.2852 1.4311 3.21267 0
M  V30 1024 H 93.1592 -0.229699 3.765 0
M  V30 1025 H 95.5462 -0.666822 2.87467 0
M  V30 1026 H 95.6272 1.0198 2.34593 0
M  V30 1027 H 95.2712 1.77049 4.76042 0
M  V30 1028 H 95.2012 0.0635409 5.26562 0
M  V30 1029 H 97.6922 0.44889 3.75224 0
M  V30 1030 H 98.0052 1.53582 7.57385 0
M  V30 1031 H 96.3502 1.37439 6.81275 0
M  V30 1032 H 99.5412 0.639601 4.6371 0
M  V30 1033 H 99.7142 1.13503 6.37982 0
M  V30 1034 N 93.1203 -1.57491 0.0584922 0
M  V30 1035 C 94.0303 -2.15448 -0.928414 0
M  V30 1036 C 95.0463 -1.11416 -1.3365 0
M  V30 1037 O 96.2223 -1.4362 -1.41193 0
M  V30 1038 C 93.2873 -2.69393 -2.18239 0
M  V30 1039 C 92.3483 -3.88249 -1.83196 0
M  V30 1040 C 91.5813 -4.39613 -3.02616 0
M  V30 1041 O 91.8043 -3.90023 -4.16219 0
M  V30 1042 O 90.7383 -5.31111 -2.83204 0
M  V30 1043 H 94.5643 -3.00112 -0.465483 0
M  V30 1044 H 92.1493 -1.48499 -0.163826 0
M  V30 1045 H 94.0313 -3.04026 -2.91798 0
M  V30 1046 H 92.7063 -1.87796 -2.63656 0
M  V30 1047 H 91.6133 -3.58492 -1.06931 0
M  V30 1048 H 92.9463 -4.71098 -1.42573 0
M  V30 1049 N 94.5984 0.214957 -1.56127 0
M  V30 1050 C 95.8444 0.939762 -1.79712 0
M  V30 1051 C 96.1774 1.83723 -0.629247 0
M  V30 1052 O 95.4524 1.90925 0.371197 0
M  V30 1053 C 95.7354 1.77306 -3.13424 0
M  V30 1054 C 95.5884 0.90164 -4.40671 0
M  V30 1055 C 96.9074 2.74956 -3.43638 0
M  V30 1056 H 94.0264 0.340214 -0.653776 0
M  V30 1057 H 96.6684 0.20824 -1.88855 0
M  V30 1058 H 94.8184 2.39673 -3.0576 0
M  V30 1059 H 96.4904 0.294206 -4.60361 0
M  V30 1060 H 94.7334 0.207368 -4.33304 0
M  V30 1061 H 95.4044 1.51923 -5.30682 0
M  V30 1062 H 97.8804 2.22724 -3.51473 0
M  V30 1063 H 96.7564 3.30358 -4.38355 0
M  V30 1064 H 97.0174 3.53023 -2.66134 0
M  V30 1065 N 96.0765 1.50051 0.48192 0
M  V30 1066 C 97.3015 1.64508 1.26301 0
M  V30 1067 C 97.7265 0.323851 1.85291 0
M  V30 1068 O 97.0845 -0.710969 1.66778 0
M  V30 1069 C 97.1325 2.7305 2.35533 0
M  V30 1070 O 96.2365 2.3355 3.39895 0
M  V30 1071 H 95.5775 0.549978 0.372048 0
M  V30 1072 H 98.1075 1.9636 0.574786 0
M  V30 1073 H 98.1175 2.95799 2.8101 0
M  V30 1074 H 96.7925 3.68946 1.91967 0
M  V30 1075 H 95.3695 2.21205 3.00204 0
M  V30 1076 N 97.5546 -0.734337 1.39446 0
M  V30 1077 C 98.8036 -1.48937 1.36017 0
M  V30 1078 C 99.1166 -1.95557 -0.0409005 0
M  V30 1079 O 100.323 -2.70779 -0.19778 0
M  V30 1080 C 98.7786 -2.69125 2.38955 0
M  V30 1081 C 98.3866 -2.29452 3.8478 0
M  V30 1082 C 100.131 -3.46944 2.44603 0
M  V30 1083 C 98.0376 -3.46366 4.79358 0
M  V30 1084 H 96.9676 -0.559296 0.505672 0
M  V30 1085 H 99.6186 -0.800983 1.65095 0
M  V30 1086 H 98.0006 -3.40041 2.02948 0
M  V30 1087 H 99.1746 -1.66077 4.29831 0
M  V30 1088 H 97.4896 -1.64723 3.82433 0
M  V30 1089 H 100.087 -4.33907 3.12456 0
M  V30 1090 H 100.43 -3.89454 1.47076 0
M  V30 1091 H 100.963 -2.83056 2.79507 0
M  V30 1092 H 97.7016 -3.08905 5.78151 0
M  V30 1093 H 97.2216 -4.08719 4.38986 0
M  V30 1094 H 98.9006 -4.12691 4.98292 0
M  V30 1095 N 99.0327 -1.24633 -0.964593 0
M  V30 1096 C 99.9627 -1.06611 -2.07741 0
M  V30 1097 C 100.944 0.0218666 -1.70086 0
M  V30 1098 O 102.129 -0.145793 -1.93652 0
M  V30 1099 C 99.2587 -0.673444 -3.40708 0
M  V30 1100 C 98.2127 -1.71054 -3.92332 0
M  V30 1101 C 97.5387 -1.17285 -5.21678 0
M  V30 1102 C 98.8387 -3.10718 -4.19824 0
M  V30 1103 H 100.533 -1.99693 -2.23076 0
M  V30 1104 H 98.0787 -0.96152 -1.07195 0
M  V30 1105 H 100.032 -0.534345 -4.17998 0
M  V30 1106 H 98.7557 0.293073 -3.25282 0
M  V30 1107 H 97.4147 -1.83791 -3.17201 0
M  V30 1108 H 97.0627 -0.196847 -5.02615 0
M  V30 1109 H 96.7627 -1.86592 -5.57187 0
M  V30 1110 H 98.2867 -1.04593 -6.01575 0
M  V30 1111 H 99.7007 -3.01192 -4.87808 0
M  V30 1112 H 98.0977 -3.77406 -4.66567 0
M  V30 1113 H 99.1677 -3.58524 -3.26479 0
M  V30 1114 N 100.511 1.16574 -1.06058 0
M  V30 1115 C 101.458 2.20883 -0.669263 0
M  V30 1116 C 102.428 1.62729 0.332918 0
M  V30 1117 O 103.613 1.895 0.222346 0
M  V30 1118 C 100.753 3.45049 -0.0593572 0
M  V30 1119 C 99.8658 4.17458 -1.11143 0
M  V30 1120 C 99.0008 5.29135 -0.467916 0
M  V30 1121 C 98.0398 5.93343 -1.50369 0
M  V30 1122 N 97.1768 6.96516 -0.883706 0
M  V30 1123 H 102.017 2.53709 -1.5632 0
M  V30 1124 H 99.5538 1.24616 -0.781625 0
M  V30 1125 H 101.512 4.16033 0.311771 0
M  V30 1126 H 100.142 3.12781 0.797992 0
M  V30 1127 H 99.1938 3.45101 -1.60029 0
M  V30 1128 H 100.506 4.61307 -1.89731 0
M  V30 1129 H 99.6598 6.06684 -0.0436871 0
M  V30 1130 H 98.3988 4.86443 0.349864 0
M  V30 1131 H 97.4038 5.14517 -1.93784 0
M  V30 1132 H 98.6288 6.38114 -2.32352 0
M  V30 1133 H 96.5748 6.55943 -0.086595 0
M  V30 1134 H 96.4918 7.38723 -1.607 0
M  V30 1135 H 97.7598 7.77993 -0.484543 0
M  V30 1136 N 101.989 0.842826 1.3317 0
M  V30 1137 C 102.899 0.281444 2.32906 0
M  V30 1138 C 103.915 -0.594587 1.63526 0
M  V30 1139 O 105.091 -0.49777 1.95152 0
M  V30 1140 C 102.156 -0.530929 3.42611 0
M  V30 1141 C 101.217 0.369843 4.27704 0
M  V30 1142 C 100.45 -0.403853 5.3217 0
M  V30 1143 O 100.673 -1.63513 5.46461 0
M  V30 1144 O 99.6069 0.224199 6.01482 0
M  V30 1145 H 103.433 1.10744 2.82789 0
M  V30 1146 H 101.018 0.60545 1.36582 0
M  V30 1147 H 102.9 -0.992437 4.09547 0
M  V30 1148 H 101.575 -1.33392 2.94938 0
M  V30 1149 H 100.482 0.879275 3.6362 0
M  V30 1150 H 101.815 1.13771 4.78871 0
M  V30 1151 N 103.467 -1.45747 0.599634 0
M  V30 1152 C 104.716 -2.01502 0.0893511 0
M  V30 1153 C 105.029 -1.4748 -1.28488 0
M  V30 1154 O 106.235 -1.95161 -1.88745 0
M  V30 1155 C 104.691 -3.59735 0.109082 0
M  V30 1156 C 104.299 -4.22754 1.48267 0
M  V30 1157 C 106.043 -4.23085 -0.346374 0
M  V30 1158 C 103.95 -5.73115 1.45921 0
M  V30 1159 H 102.88 -0.753417 0.0296347 0
M  V30 1160 H 105.531 -1.67303 0.753788 0
M  V30 1161 H 103.913 -3.91087 -0.621854 0
M  V30 1162 H 105.087 -4.02987 2.23468 0
M  V30 1163 H 103.402 -3.71567 1.87955 0
M  V30 1164 H 105.999 -5.33327 -0.38298 0
M  V30 1165 H 106.342 -3.93201 -1.36743 0
M  V30 1166 H 106.875 -3.9642 0.331038 0
M  V30 1167 H 103.614 -6.07685 2.45762 0
M  V30 1168 H 103.134 -5.95097 0.749665 0
M  V30 1169 H 104.813 -6.3616 1.17941 0
M  V30 1170 N 104.945 -0.338344 -1.53925 0
M  V30 1171 C 105.877 0.555117 -2.22376 0
M  V30 1172 C 106.89 1.06812 -1.22862 0
M  V30 1173 O 108.079 0.979163 -1.49247 0
M  V30 1174 C 105.179 1.77609 -2.88631 0
M  V30 1175 C 104.352 1.39927 -4.14414 0
M  V30 1176 C 103.411 2.47936 -4.64127 0
M  V30 1177 O 102.437 2.11461 -5.28463 0
M  V30 1178 N 103.639 3.79107 -4.39612 0
M  V30 1179 H 106.404 -0.0310778 -2.99684 0
M  V30 1180 H 103.965 -0.162226 -1.61085 0
M  V30 1181 H 105.957 2.49287 -3.18807 0
M  V30 1182 H 104.527 2.26978 -2.14941 0
M  V30 1183 H 103.747 0.513481 -3.90841 0
M  V30 1184 H 105.035 1.12341 -4.96243 0
M  V30 1185 H 104.433 4.11531 -3.88148 0
M  V30 1186 H 102.99 4.4697 -4.74406 0
M  V30 1187 N 106.423 1.57458 -0.0668435 0
M  V30 1188 C 107.373 2.0896 0.912119 0
M  V30 1189 C 108.357 0.998186 1.26195 0
M  V30 1190 O 109.549 1.26133 1.24175 0
M  V30 1191 C 106.678 2.6508 2.18145 0
M  V30 1192 C 105.764 3.81218 1.85832 0
M  V30 1193 N 106.155 4.90378 1.23948 0
M  V30 1194 C 104.453 3.9042 2.15612 0
M  V30 1195 C 105.154 5.71279 1.09616 0
M  V30 1196 N 104.13 5.19389 1.60423 0
M  V30 1197 H 107.932 2.90749 0.42924 0
M  V30 1198 H 105.446 1.6182 0.137184 0
M  V30 1199 H 107.443 3.0029 2.89192 0
M  V30 1200 H 106.103 1.84736 2.67025 0
M  V30 1201 H 107.114 5.09847 0.909731 0
M  V30 1202 H 103.791 3.21043 2.66903 0
M  V30 1203 H 105.181 6.69085 0.614425 0
M  V30 1204 N 107.901 -0.206675 1.56239 0
M  V30 1205 C 109.312 -0.772383 1.69974 0
M  V30 1206 C 109.663 -1.84353 0.671436 0
M  V30 1207 O 108.788 -2.15695 -0.174491 0
M  V30 1208 C 109.383 -1.40779 3.08167 0
M  V30 1209 C 107.942 -1.92072 3.23706 0
M  V30 1210 C 107.089 -0.786347 2.65917 0
M  V30 1211 H 110.04 0.0182223 1.5869 0
M  V30 1212 H 110.061 -2.27696 3.04852 0
M  V30 1213 H 109.573 -0.627958 3.82986 0
M  V30 1214 H 107.674 -2.7281 2.53782 0
M  V30 1215 H 107.787 -2.09046 4.31087 0
M  V30 1216 H 106.151 -1.1976 2.24788 0
M  V30 1217 H 106.934 -0.0189416 3.43295 0
M  V30 1218 N 109.379 -1.50304 -0.473955 0
M  V30 1219 C 110.327 -1.69482 -1.59307 0
M  V30 1220 C 111.321 -0.560669 -1.59853 0
M  V30 1221 O 112.527 -0.741087 -1.64036 0
M  V30 1222 H 108.902 -0.534892 -0.528578 0
M  V30 1223 H 110.873 -2.63364 -1.40293 0
M  V30 1224 C 109.622 -1.80354 -2.97267 0
M  V30 1225 H 108.945 -2.67012 -2.97564 0
M  V30 1226 H 110.385 -1.97798 -3.75036 0
M  V30 1227 C 108.844 -0.55448 -3.32306 0
M  V30 1228 O 109.374 0.307661 -4.0052 0
M  V30 1229 N 107.58 -0.409354 -2.87702 0
M  V30 1230 H 107.127 -1.11196 -2.32364 0
M  V30 1231 H 107.085 0.425223 -3.11511 0
M  V30 1232 N 110.857 0.726932 -1.39834 0
M  V30 1233 C 112.103 1.48884 -1.377 0
M  V30 1234 C 112.436 1.94185 0.0244852 0
M  V30 1235 O 111.711 1.67361 0.990986 0
M  V30 1236 C 111.994 2.72288 -2.3565 0
M  V30 1237 C 111.847 2.32956 -3.84775 0
M  V30 1238 C 113.166 3.74414 -2.31306 0
M  V30 1239 H 110.285 0.540062 -0.5015 0
M  V30 1240 H 112.927 0.830547 -1.70886 0
M  V30 1241 H 111.077 3.28457 -2.07481 0
M  V30 1242 H 112.749 1.82356 -4.23726 0
M  V30 1243 H 110.992 1.65088 -4.01159 0
M  V30 1244 H 111.663 3.21362 -4.4881 0
M  V30 1245 H 114.139 3.27849 -2.56231 0
M  V30 1246 H 113.015 4.58414 -3.01907 0
M  V30 1247 H 113.276 4.21909 -1.32081 0
M  V30 1248 N 112.336 1.25143 0.95797 0
M  V30 1249 C 113.585 1.0909 1.69654 0
M  V30 1250 C 113.898 -0.368548 1.92097 0
M  V30 1251 O 115.104 -0.649455 2.63618 0
M  V30 1252 C 113.56 1.90395 3.05414 0
M  V30 1253 C 113.168 3.4081 2.90779 0
M  V30 1254 C 114.912 1.82901 3.83076 0
M  V30 1255 C 112.819 4.14423 4.21909 0
M  V30 1256 H 111.749 0.404625 0.636235 0
M  V30 1257 H 114.4 1.4931 1.06672 0
M  V30 1258 H 112.782 1.42996 3.69281 0
M  V30 1259 H 113.956 3.95859 2.35865 0
M  V30 1260 H 112.271 3.49361 2.26575 0
M  V30 1261 H 114.868 2.35196 4.80195 0
M  V30 1262 H 115.211 0.796224 4.08615 0
M  V30 1263 H 115.744 2.28033 3.25954 0
M  V30 1264 H 112.483 5.18102 4.01561 0
M  V30 1265 H 112.003 3.64159 4.76601 0
M  V30 1266 H 113.682 4.21956 4.90471 0
M  V30 1267 N 113.814 -1.1601 1.06675 0
M  V30 1268 C 115.042 -1.90527 0.806667 0
M  V30 1269 C 115.457 -1.77643 -0.639396 0
M  V30 1270 O 114.814 -1.12369 -1.43803 0
M  V30 1271 C 114.865 -3.41106 1.19705 0
M  V30 1272 O 114.586 -3.53608 2.58636 0
M  V30 1273 C 116.087 -4.32663 0.965266 0
M  V30 1274 H 113.307 -0.604053 0.292166 0
M  V30 1275 H 115.851 -1.47026 1.4214 0
M  V30 1276 H 114.006 -3.82296 0.626774 0
M  V30 1277 H 114.42 -4.47011 2.74375 0
M  V30 1278 H 115.894 -5.36763 1.288 0
M  V30 1279 H 116.371 -4.39089 -0.0987936 0
M  V30 1280 H 116.977 -3.97206 1.52011 0
M  V30 1281 N 115.292 -0.849877 -1.32721 0
M  V30 1282 C 116.222 -0.306308 -2.31482 0
M  V30 1283 C 117.203 0.591952 -1.59468 0
M  V30 1284 O 118.388 0.513199 -1.87296 0
M  V30 1285 C 115.518 0.510204 -3.43532 0
M  V30 1286 C 114.472 -0.293209 -4.26994 0
M  V30 1287 C 113.798 0.647743 -5.30762 0
M  V30 1288 C 115.098 -1.51634 -4.99804 0
M  V30 1289 H 116.792 -1.13153 -2.77195 0
M  V30 1290 H 114.338 -0.545553 -1.33266 0
M  V30 1291 H 116.291 0.900856 -4.11658 0
M  V30 1292 H 115.015 1.36874 -2.96535 0
M  V30 1293 H 113.674 -0.665555 -3.60508 0
M  V30 1294 H 113.322 1.50299 -4.8002 0
M  V30 1295 H 113.022 0.11422 -5.87489 0
M  V30 1296 H 114.546 1.03567 -6.01753 0
M  V30 1297 H 115.96 -1.19824 -5.60638 0
M  V30 1298 H 114.357 -1.98745 -5.66234 0
M  V30 1299 H 115.427 -2.28018 -4.27943 0
M  V30 1300 N 116.77 1.45427 -0.607355 0
M  V30 1301 C 117.72 2.27612 0.133038 0
M  V30 1302 C 118.704 1.37307 0.838785 0
M  V30 1303 O 119.896 1.61299 0.728813 0
M  V30 1304 C 117.025 3.24173 1.12991 0
M  V30 1305 C 116.111 4.21965 0.425011 0
M  V30 1306 N 116.502 5.02982 -0.533217 0
M  V30 1307 C 114.8 4.40899 0.672593 0
M  V30 1308 C 115.501 5.73931 -0.947518 0
M  V30 1309 N 114.477 5.42819 -0.291321 0
M  V30 1310 H 118.279 2.87649 -0.602935 0
M  V30 1311 H 115.793 1.56576 -0.431006 0
M  V30 1312 H 117.79 3.81783 1.67473 0
M  V30 1313 H 116.45 2.65696 1.86644 0
M  V30 1314 H 117.461 5.09843 -0.90995 0
M  V30 1315 H 114.138 3.93547 1.39382 0
M  V30 1316 H 115.528 6.49037 -1.73782 0
M  V30 1317 N 118.248 0.346503 1.53744 0
M  V30 1318 C 119.158 -0.517293 2.28826 0
M  V30 1319 C 120.174 -1.10935 1.3405 0
M  V30 1320 O 121.35 -1.1244 1.6709 0
M  V30 1321 C 118.415 -1.65098 3.04866 0
M  V30 1322 C 117.476 -1.0884 4.15274 0
M  V30 1323 C 116.709 -2.16806 4.87679 0
M  V30 1324 O 116.932 -3.3758 4.59778 0
M  V30 1325 O 115.866 -1.80934 5.74061 0
M  V30 1326 H 119.692 0.0931396 3.03557 0
M  V30 1327 H 117.277 0.111458 1.48984 0
M  V30 1328 H 119.159 -2.31053 3.5241 0
M  V30 1329 H 117.834 -2.24717 2.32989 0
M  V30 1330 H 116.741 -0.3933 3.72027 0
M  V30 1331 H 118.074 -0.537036 4.89261 0
M  V30 1332 N 119.726 -1.57421 0.075193 0
M  V30 1333 C 120.972 -1.93905 -0.594025 0
M  V30 1334 C 121.305 -0.955701 -1.69056 0
M  V30 1335 O 120.58 0.0145373 -1.94495 0
M  V30 1336 C 120.863 -3.40638 -1.1678 0
M  V30 1337 C 120.716 -4.49733 -0.0776792 0
M  V30 1338 C 122.035 -3.88259 -2.07228 0
M  V30 1339 H 119.154 -0.705105 -0.214466 0
M  V30 1340 H 121.796 -1.8947 0.141854 0
M  V30 1341 H 119.946 -3.44549 -1.79494 0
M  V30 1342 H 121.618 -4.57942 0.555573 0
M  V30 1343 H 119.861 -4.29751 0.591286 0
M  V30 1344 H 120.532 -5.49549 -0.519603 0
M  V30 1345 H 123.008 -3.86376 -1.54445 0
M  V30 1346 H 121.884 -4.91533 -2.44308 0
M  V30 1347 H 122.145 -3.26396 -2.98191 0
M  V30 1348 N 121.204 0.198386 -1.56346 0
M  V30 1349 C 122.434 0.934215 -1.84271 0
M  V30 1350 C 122.842 1.77496 -0.655125 0
M  V30 1351 O 122.185 1.7961 0.385488 0
M  V30 1352 C 122.247 1.88278 -3.06254 0
M  V30 1353 C 121.911 1.22431 -4.40295 0
M  V30 1354 C 122.908 0.602839 -5.16393 0
M  V30 1355 C 120.593 1.22915 -4.87029 0
M  V30 1356 C 122.587 -0.0050083 -6.374 0
M  V30 1357 C 120.274 0.617465 -6.07973 0
M  V30 1358 C 121.272 0.00146341 -6.83 0
M  V30 1359 O 120.96 -0.600642 -8.01653 0
M  V30 1360 H 120.692 0.278245 -0.616081 0
M  V30 1361 H 123.246 0.211626 -2.04307 0
M  V30 1362 H 121.476 2.64498 -2.82095 0
M  V30 1363 H 123.165 2.48612 -3.20853 0
M  V30 1364 H 123.931 0.591265 -4.81382 0
M  V30 1365 H 119.81 1.69801 -4.28589 0
M  V30 1366 H 123.354 -0.48643 -6.95902 0
M  V30 1367 H 119.251 0.62653 -6.42452 0
M  V30 1368 H 120.019 -0.497225 -8.16988 0
M  V30 1369 N 122.682 1.50554 0.465978 0
M  V30 1370 C 123.592 1.72585 1.58907 0
M  V30 1371 C 124.608 0.60911 1.6299 0
M  V30 1372 O 125.784 0.88804 1.80765 0
M  V30 1373 C 122.849 1.81995 2.95091 0
M  V30 1374 C 121.91 3.05751 3.01355 0
M  V30 1375 C 121.143 3.14702 4.31043 0
M  V30 1376 O 121.366 2.30313 5.21835 0
M  V30 1377 O 120.3 4.07468 4.43005 0
M  V30 1378 H 124.126 2.67799 1.43239 0
M  V30 1379 H 121.711 1.34711 0.646013 0
M  V30 1380 H 123.593 1.90335 3.75966 0
M  V30 1381 H 122.268 0.899659 3.10947 0
M  V30 1382 H 121.175 3.02908 2.19539 0
M  V30 1383 H 122.508 3.97375 2.90437 0
M  V30 1384 N 124.16 -0.719506 1.40217 0
M  V30 1385 C 125.108 -1.85493 1.40339 0
M  V30 1386 C 126.102 -1.66995 0.284415 0
M  V30 1387 O 127.308 -1.74148 0.455252 0
M  V30 1388 H 123.683 -0.610857 0.438586 0
M  V30 1389 H 125.654 -1.82506 2.36081 0
M  V30 1390 C 124.403 -3.23321 1.27901 0
M  V30 1391 H 123.726 -3.38159 2.1328 0
M  V30 1392 H 125.166 -4.02914 1.32045 0
M  V30 1393 C 123.625 -3.36898 -0.0111355 0
M  V30 1394 O 124.155 -3.89674 -0.975538 0
M  V30 1395 N 122.361 -2.90492 -0.0793393 0
M  V30 1396 H 121.908 -2.47731 0.706183 0
M  V30 1397 H 121.866 -2.99955 -0.942038 0
M  V30 1398 N 125.638 -1.25649 -0.95132 0
M  V30 1399 C 126.585 -1.06323 -2.04851 0
M  V30 1400 C 127.555 0.0286491 -1.66075 0
M  V30 1401 O 128.74 -0.12917 -1.90362 0
M  V30 1402 C 125.88 -0.691529 -3.381 0
M  V30 1403 C 124.993 -1.85861 -3.89974 0
M  V30 1404 C 124.128 -1.43096 -5.11563 0
M  V30 1405 C 123.167 -2.56696 -5.55674 0
M  V30 1406 N 122.304 -2.14684 -6.68472 0
M  V30 1407 H 127.144 -2.00222 -2.20715 0
M  V30 1408 H 124.681 -0.997027 -1.08156 0
M  V30 1409 H 126.639 -0.456963 -4.1469 0
M  V30 1410 H 125.269 0.210474 -3.22113 0
M  V30 1411 H 124.321 -2.20639 -3.09875 0
M  V30 1412 H 125.633 -2.71161 -4.18657 0
M  V30 1413 H 124.787 -1.15624 -5.9558 0
M  V30 1414 H 123.526 -0.548722 -4.84603 0
M  V30 1415 H 122.531 -2.84909 -4.7022 0
M  V30 1416 H 123.756 -3.45503 -5.8464 0
M  V30 1417 H 121.702 -1.28881 -6.43215 0
M  V30 1418 H 121.619 -2.9353 -6.96689 0
M  V30 1419 H 122.887 -1.90397 -7.5589 0
M  V30 1420 N 127.117 1.15442 -1.07289 0
M  V30 1421 C 128.345 1.90096 -0.81676 0
M  V30 1422 C 128.76 1.7798 0.629966 0
M  V30 1423 O 128.117 1.1313 1.43206 0
M  V30 1424 C 128.168 3.40466 -1.21512 0
M  V30 1425 O 127.889 3.52232 -2.60508 0
M  V30 1426 C 129.39 4.32145 -0.988198 0
M  V30 1427 H 126.61 0.602495 -0.295366 0
M  V30 1428 H 129.154 1.4627 -1.42918 0
M  V30 1429 H 127.309 3.81958 -0.647039 0
M  V30 1430 H 127.723 4.45549 -2.76742 0
M  V30 1431 H 129.197 5.36072 -1.31645 0
M  V30 1432 H 129.674 4.39135 0.0755063 0
M  V30 1433 H 130.28 3.96395 -1.54115 0
M  V30 1434 N 128.595 0.856903 1.32268 0
M  V30 1435 C 129.872 0.382583 1.91822 0
M  V30 1436 C 130.252 -1.13407 1.78051 0
M  V30 1437 O 129.6 -1.95673 1.18001 0
M  V30 1438 C 129.81 0.849446 3.38505 0
M  V30 1439 C 131.158 0.867936 4.15634 0
M  V30 1440 O 132.182 0.794232 3.47232 0
M  V30 1441 O 131.041 0.972286 5.37781 0
M  V30 1442 H 128.135 0.112014 0.819379 0
M  V30 1443 H 130.681 0.943952 1.41024 0
M  V30 1444 H 129.453 1.89267 3.42482 0
M  V30 1445 H 129.076 0.265652 3.96712 0
M  V30 1446 N 130.073 -1.45103 0.615059 0
M  V30 1447 C 131.319 -2.02483 0.113347 0
M  V30 1448 C 131.652 -1.48146 -1.25564 0
M  V30 1449 O 130.927 -0.659104 -1.82992 0
M  V30 1450 C 131.21 -3.60005 0.0825278 0
M  V30 1451 C 131.063 -4.2466 1.48271 0
M  V30 1452 C 132.382 -4.35972 -0.601401 0
M  V30 1453 H 129.501 -0.735764 0.0426632 0
M  V30 1454 H 132.143 -1.72868 0.788461 0
M  V30 1455 H 130.293 -3.85367 -0.492378 0
M  V30 1456 H 131.965 -4.10458 2.10527 0
M  V30 1457 H 130.208 -3.82772 2.04127 0
M  V30 1458 H 130.879 -5.336 1.41332 0
M  V30 1459 H 133.355 -4.15947 -0.112666 0
M  V30 1460 H 132.231 -5.45697 -0.592097 0
M  V30 1461 H 132.492 -4.09391 -1.66887 0
M  V30 1462 N 131.551 -0.354651 -1.53558 0
M  V30 1463 C 132.8 0.239504 -2.00273 0
M  V30 1464 C 133.113 1.50759 -1.24623 0
M  V30 1465 O 134.319 2.17968 -1.61871 0
M  V30 1466 C 132.775 0.477341 -3.5672 0
M  V30 1467 C 132.383 -0.775488 -4.41237 0
M  V30 1468 C 134.127 1.02975 -4.11821 0
M  V30 1469 C 132.034 -0.507838 -5.89216 0
M  V30 1470 H 130.964 0.0932743 -0.748208 0
M  V30 1471 H 133.615 -0.471701 -1.77334 0
M  V30 1472 H 131.997 1.24953 -3.7577 0
M  V30 1473 H 133.171 -1.54963 -4.33962 0
M  V30 1474 H 131.486 -1.25033 -3.97185 0
M  V30 1475 H 134.083 1.24513 -5.2 0
M  V30 1476 H 134.426 1.98862 -3.65731 0
M  V30 1477 H 134.959 0.317994 -3.96527 0
M  V30 1478 H 131.698 -1.43674 -6.39561 0
M  V30 1479 H 131.218 0.228011 -5.99366 0
M  V30 1480 H 132.897 -0.129238 -6.46871 0
M  V30 1481 N 133.029 1.57378 -0.0835403 0
M  V30 1482 C 133.959 2.1641 0.87686 0
M  V30 1483 C 134.94 1.09429 1.30228 0
M  V30 1484 O 136.125 1.37516 1.37124 0
M  V30 1485 C 133.255 2.73517 2.14022 0
M  V30 1486 C 132.209 3.85769 1.85381 0
M  V30 1487 C 131.535 4.29529 3.18448 0
M  V30 1488 C 132.835 5.09486 1.14984 0
M  V30 1489 H 134.529 2.96914 0.385059 0
M  V30 1490 H 132.075 1.42823 0.18377 0
M  V30 1491 H 134.028 3.13463 2.81636 0
M  V30 1492 H 132.752 1.90252 2.65465 0
M  V30 1493 H 131.411 3.46345 1.20169 0
M  V30 1494 H 131.059 3.43169 3.67755 0
M  V30 1495 H 130.759 5.05204 3.00071 0
M  V30 1496 H 132.283 4.72099 3.8724 0
M  V30 1497 H 133.697 5.46674 1.72687 0
M  V30 1498 H 132.094 5.90515 1.06826 0
M  V30 1499 H 133.164 4.84724 0.130749 0
M  V30 1500 N 134.507 -0.190092 1.56449 0
M  V30 1501 C 135.756 -0.907912 1.80111 0
M  V30 1502 C 136.069 -1.84214 0.657619 0
M  V30 1503 O 137.275 -2.60094 0.778663 0
M  V30 1504 C 135.731 -1.66485 3.19078 0
M  V30 1505 C 135.339 -0.7752 4.41242 0
M  V30 1506 C 137.083 -2.37201 3.52045 0
M  V30 1507 C 134.99 -1.53129 5.71231 0
M  V30 1508 H 133.92 -0.34276 0.671589 0
M  V30 1509 H 136.571 -0.161109 1.82791 0
M  V30 1510 H 134.953 -2.45572 3.10661 0
M  V30 1511 H 136.127 -0.0226298 4.60794 0
M  V30 1512 H 134.442 -0.178627 4.16017 0
M  V30 1513 H 137.039 -2.94329 4.46402 0
M  V30 1514 H 137.382 -3.11632 2.76028 0
M  V30 1515 H 137.915 -1.65075 3.61932 0
M  V30 1516 H 134.654 -0.82967 6.50228 0
M  V30 1517 H 134.174 -2.25767 5.55688 0
M  V30 1518 H 135.853 -2.08377 6.12526 0
M  V30 1519 N 135.985 -1.50799 -0.457987 0
M  V30 1520 C 136.915 -1.73553 -1.5621 0
M  V30 1521 C 137.896 -0.584774 -1.59732 0
M  V30 1522 O 139.081 -0.825314 -1.7579 0
M  V30 1523 C 136.211 -1.84169 -2.94447 0
M  V30 1524 C 135.165 -2.99461 -3.0579 0
M  V30 1525 C 134.491 -2.95235 -4.45803 0
M  V30 1526 C 135.791 -4.39766 -2.81786 0
M  V30 1527 H 137.485 -2.66 -1.37421 0
M  V30 1528 H 135.031 -1.28002 -0.659662 0
M  V30 1529 H 136.984 -1.98672 -3.71628 0
M  V30 1530 H 135.708 -0.883545 -3.14422 0
M  V30 1531 H 134.367 -2.8463 -2.31044 0
M  V30 1532 H 134.015 -1.97239 -4.62715 0
M  V30 1533 H 133.715 -3.72642 -4.54326 0
M  V30 1534 H 135.239 -3.11803 -5.24987 0
M  V30 1535 H 136.653 -4.55054 -3.4871 0
M  V30 1536 H 135.05 -5.18722 -3.0174 0
M  V30 1537 H 136.12 -4.51229 -1.7754 0
M  V30 1538 N 137.463 0.71206 -1.40597 0
M  V30 1539 C 138.373 1.8562 -1.43466 0
M  V30 1540 C 139.389 1.70902 -0.326902 0
M  V30 1541 O 140.565 1.93105 -0.572043 0
M  V30 1542 C 137.63 3.21451 -1.29884 0
M  V30 1543 C 136.691 3.48398 -2.50833 0
M  V30 1544 C 135.924 4.77749 -2.3789 0
M  V30 1545 O 136.147 5.53089 -1.39459 0
M  V30 1546 O 135.081 5.05111 -3.27333 0
M  V30 1547 H 138.907 1.86155 -2.39958 0
M  V30 1548 H 136.492 0.86295 -1.21957 0
M  V30 1549 H 138.374 4.02579 -1.24531 0
M  V30 1550 H 137.049 3.21636 -0.364997 0
M  V30 1551 H 135.956 2.67265 -2.61763 0
M  V30 1552 H 137.289 3.53014 -3.4299 0
M  V30 1553 N 138.941 1.26152 0.944643 0
M  V30 1554 C 139.871 1.09902 2.06019 0
M  V30 1555 C 140.852 0.00519538 1.70099 0
M  V30 1556 O 142.037 0.176583 1.93396 0
M  V30 1557 C 139.167 0.727562 3.39594 0
M  V30 1558 C 138.121 1.77274 3.89561 0
M  V30 1559 C 137.447 1.25569 5.19747 0
M  V30 1560 C 138.747 3.17357 4.14827 0
M  V30 1561 H 140.441 2.03217 2.19871 0
M  V30 1562 H 137.987 0.978452 1.05652 0
M  V30 1563 H 139.94 0.600777 4.17095 0
M  V30 1564 H 138.664 -0.241287 3.25707 0
M  V30 1565 H 137.323 1.88814 3.14237 0
M  V30 1566 H 136.971 0.276783 5.02238 0
M  V30 1567 H 136.671 1.95433 5.54148 0
M  V30 1568 H 138.195 1.1415 5.99835 0
M  V30 1569 H 139.609 3.08914 4.82954 0
M  V30 1570 H 138.006 3.84781 4.60504 0
M  V30 1571 H 139.076 3.63673 3.20734 0
M  V30 1572 N 140.419 -1.14872 1.07899 0
M  V30 1573 C 141.665 -1.86064 0.806725 0
M  V30 1574 C 141.998 -1.82434 -0.665706 0
M  V30 1575 O 141.273 -1.25138 -1.48899 0
M  V30 1576 C 141.556 -3.34929 1.32267 0
M  V30 1577 C 141.409 -3.47161 2.86006 0
M  V30 1578 C 142.728 -4.29863 0.943717 0
M  V30 1579 H 139.847 -0.675591 0.294526 0
M  V30 1580 H 142.489 -1.34925 1.33773 0
M  V30 1581 H 140.639 -3.78611 0.870974 0
M  V30 1582 H 142.311 -3.12302 3.39507 0
M  V30 1583 H 140.554 -2.88539 3.23925 0
M  V30 1584 H 141.225 -4.51777 3.17177 0
M  V30 1585 H 143.701 -3.9417 1.33302 0
M  V30 1586 H 142.577 -5.32494 1.33198 0
M  V30 1587 H 142.838 -4.41846 -0.149796 0
M  V30 1588 N 141.898 -0.863906 -1.31812 0
M  V30 1589 C 142.861 -0.320212 -2.26952 0
M  V30 1590 C 143.861 0.525369 -1.51975 0
M  V30 1591 O 145.051 0.335547 -1.70938 0
M  V30 1592 C 142.183 0.545919 -3.365 0
M  V30 1593 H 143.376 -1.16004 -2.76556 0
M  V30 1594 H 140.929 -0.638995 -1.42641 0
M  V30 1595 H 141.664 1.40718 -2.92179 0
M  V30 1596 H 141.449 -0.0594674 -3.92055 0
M  V30 1597 H 142.939 0.918796 -4.07367 0
M  V30 1598 N 143.376 1.44774 -0.622745 0
M  V30 1599 C 144.624 2.01721 -0.123655 0
M  V30 1600 C 144.945 1.49172 1.25589 0
M  V30 1601 O 144.215 0.691974 1.83272 0
M  V30 1602 H 142.795 0.745777 -0.0427225 0
M  V30 1603 H 145.457 1.77382 -0.807559 0
M  V30 1604 H 144.553 3.11984 -0.0849534 0
M  V30 1605 N 144.854 0.36279 1.53368 0
M  V30 1606 C 146.102 -0.227326 2.00817 0
M  V30 1607 C 146.423 -1.49511 1.25186 0
M  V30 1608 O 145.693 -1.92482 0.364348 0
M  V30 1609 H 144.273 -0.0869923 0.741917 0
M  V30 1610 H 146.935 0.488381 1.88682 0
M  V30 1611 H 146.031 -0.456273 3.08747 0
M  V30 1612 N 146.332 -1.57332 0.0918853 0
M  V30 1613 C 147.242 -2.17368 -0.882505 0
M  V30 1614 C 148.258 -1.14226 -1.31257 0
M  V30 1615 O 149.434 -1.46582 -1.38115 0
M  V30 1616 C 146.499 -2.73962 -2.12476 0
M  V30 1617 C 145.56 -3.92048 -1.7492 0
M  V30 1618 C 144.793 -4.45933 -2.93223 0
M  V30 1619 O 145.016 -3.98764 -4.07852 0
M  V30 1620 O 143.95 -5.36999 -2.71875 0
M  V30 1621 H 147.776 -3.01031 -0.40172 0
M  V30 1622 H 145.361 -1.48813 -0.132291 0
M  V30 1623 H 147.243 -3.10147 -2.85283 0
M  V30 1624 H 145.918 -1.93347 -2.59613 0
M  V30 1625 H 144.825 -3.6068 -0.993025 0
M  V30 1626 H 146.158 -4.74017 -1.32548 0
M  V30 1627 N 147.81 0.181792 -1.56548 0
M  V30 1628 C 148.74 1.22765 -1.98623 0
M  V30 1629 C 149.721 1.46747 -0.860189 0
M  V30 1630 O 150.906 1.58259 -1.12551 0
M  V30 1631 C 148.036 2.56894 -2.33715 0
M  V30 1632 C 146.99 2.475 -3.49182 0
M  V30 1633 C 146.316 3.86023 -3.69986 0
M  V30 1634 C 147.616 1.98866 -4.82959 0
M  V30 1635 H 149.31 0.877942 -2.86239 0
M  V30 1636 H 146.856 0.42088 -1.37712 0
M  V30 1637 H 148.809 3.30253 -2.61746 0
M  V30 1638 H 147.533 2.93632 -1.42997 0
M  V30 1639 H 146.192 1.76596 -3.21262 0
M  V30 1640 H 145.84 4.20136 -2.76576 0
M  V30 1641 H 145.54 3.80609 -4.47672 0
M  V30 1642 H 147.064 4.60984 -4.00407 0
M  V30 1643 H 148.478 2.61992 -5.09934 0
M  V30 1644 H 146.875 2.04424 -5.64208 0
M  V30 1645 H 147.945 0.942465 -4.75653 0
M  V30 1646 N 149.288 1.51039 0.449983 0
M  V30 1647 C 150.535 1.63081 1.20045 0
M  V30 1648 C 150.863 0.341024 1.91487 0
M  V30 1649 O 150.118 -0.674276 1.83717 0
M  V30 1650 C 150.417 2.77556 2.25161 0
M  V30 1651 C 150.083 4.17289 1.70823 0
M  V30 1652 C 148.745 4.55305 1.55725 0
M  V30 1653 C 151.097 5.04536 1.3074 0
M  V30 1654 C 148.425 5.78287 0.989999 0
M  V30 1655 C 150.777 6.28085 0.754482 0
M  V30 1656 C 149.441 6.64885 0.590308 0
M  V30 1657 H 148.711 0.596755 0.439277 0
M  V30 1658 H 151.358 1.85037 0.49333 0
M  V30 1659 H 149.663 2.49771 3.01863 0
M  V30 1660 H 151.36 2.84073 2.83026 0
M  V30 1661 H 147.95 3.8731 1.83546 0
M  V30 1662 H 152.134 4.75782 1.41229 0
M  V30 1663 H 147.39 6.05456 0.850451 0
M  V30 1664 H 151.564 6.95038 0.435324 0
M  V30 1665 H 149.191 7.60055 0.14862 0
M  V30 1666 N 150.766 -0.704594 1.40972 0
M  V30 1667 C 152.043 -1.45847 1.30338 0
M  V30 1668 C 152.423 -2.10973 -0.0732344 0
M  V30 1669 O 151.771 -2.00997 -1.08685 0
M  V30 1670 C 151.981 -2.48525 2.45023 0
M  V30 1671 C 153.329 -3.1404 2.8577 0
M  V30 1672 O 154.353 -2.58848 2.44696 0
M  V30 1673 O 153.212 -4.13981 3.56766 0
M  V30 1674 H 150.306 -0.649092 0.512454 0
M  V30 1675 H 152.852 -0.735836 1.52917 0
M  V30 1676 H 151.624 -1.98994 3.36923 0
M  V30 1677 H 151.247 -3.2831 2.24272 0
M  V30 1678 N 152.244 -1.26651 -0.937939 0
M  V30 1679 C 153.491 -1.12387 -1.6845 0
M  V30 1680 C 153.819 0.332208 -1.91642 0
M  V30 1681 O 153.074 1.2602 -1.49725 0
M  V30 1682 C 153.373 -1.84168 -3.06295 0
M  V30 1683 C 153.039 -3.34056 -3.02849 0
M  V30 1684 C 151.701 -3.74942 -3.01616 0
M  V30 1685 C 154.053 -4.29741 -2.9491 0
M  V30 1686 C 151.381 -5.09894 -2.90215 0
M  V30 1687 C 153.733 -5.64738 -2.8505 0
M  V30 1688 C 152.397 -6.0493 -2.82162 0
M  V30 1689 H 151.667 -0.411252 -0.616403 0
M  V30 1690 H 154.314 -1.57134 -1.09459 0
M  V30 1691 H 152.619 -1.319 -3.6893 0
M  V30 1692 H 154.316 -1.70569 -3.62915 0
M  V30 1693 H 150.906 -3.01534 -3.0459 0
M  V30 1694 H 155.09 -3.99133 -2.94969 0
M  V30 1695 H 150.346 -5.40194 -2.86358 0
M  V30 1696 H 154.52 -6.38561 -2.77872 0
M  V30 1697 H 152.147 -7.09457 -2.73084 0
M  V30 1698 N 153.722 1.14298 -1.08507 0
M  V30 1699 C 154.652 2.21542 -0.737646 0
M  V30 1700 C 155.633 1.67773 0.280377 0
M  V30 1701 O 156.818 1.93616 0.150521 0
M  V30 1702 C 153.948 3.46988 -0.147259 0
M  V30 1703 C 152.902 4.13789 -1.09374 0
M  V30 1704 C 152.228 5.33449 -0.365524 0
M  V30 1705 C 153.528 4.62208 -2.4323 0
M  V30 1706 H 155.222 2.5086 -1.6343 0
M  V30 1707 H 152.768 1.20576 -0.787243 0
M  V30 1708 H 154.721 4.21262 0.107808 0
M  V30 1709 H 153.445 3.17037 0.784538 0
M  V30 1710 H 152.104 3.4147 -1.33393 0
M  V30 1711 H 151.752 4.99759 0.57011 0
M  V30 1712 H 151.452 5.79088 -0.996512 0
M  V30 1713 H 152.976 6.10485 -0.118534 0
M  V30 1714 H 154.39 5.27952 -2.23472 0
M  V30 1715 H 152.787 5.18553 -3.02031 0
M  V30 1716 H 153.857 3.77224 -3.04681 0
M  V30 1717 N 155.201 0.870884 1.31352 0
M  V30 1718 C 156.164 0.332243 2.26779 0
M  V30 1719 C 157.164 -0.517302 1.52252 0
M  V30 1720 O 158.354 -0.326477 1.71113 0
M  V30 1721 C 155.486 -0.528066 3.36785 0
M  V30 1722 H 156.679 1.17469 2.75937 0
M  V30 1723 H 154.232 0.64655 1.423 0
M  V30 1724 H 154.967 -1.39167 2.92922 0
M  V30 1725 H 154.752 0.0802582 3.92018 0
M  V30 1726 H 156.242 -0.897179 4.07849 0
M  V30 1727 N 156.679 -1.44442 0.630414 0
M  V30 1728 C 157.589 -2.34476 -0.0761693 0
M  V30 1729 C 158.605 -1.52576 -0.836449 0
M  V30 1730 O 159.781 -1.85307 -0.788874 0
M  V30 1731 C 156.846 -3.30545 -1.04599 0
M  V30 1732 C 155.907 -4.28352 -0.28516 0
M  V30 1733 C 155.14 -5.19831 -1.20878 0
M  V30 1734 O 155.363 -5.15223 -2.44747 0
M  V30 1735 O 154.297 -5.97892 -0.693491 0
M  V30 1736 H 158.123 -2.96345 0.664324 0
M  V30 1737 H 155.708 -1.44203 0.39061 0
M  V30 1738 H 157.59 -3.89681 -1.60396 0
M  V30 1739 H 156.265 -2.7121 -1.76711 0
M  V30 1740 H 155.172 -3.72764 0.315837 0
M  V30 1741 H 156.505 -4.90605 0.395924 0
M  V30 1742 N 158.157 -0.370918 -1.53173 0
M  V30 1743 C 159.104 0.473035 -2.259 0
M  V30 1744 C 160.074 1.07311 -1.26781 0
M  V30 1745 O 161.259 1.1046 -1.55574 0
M  V30 1746 C 158.399 1.60405 -3.05556 0
M  V30 1747 C 157.512 1.02863 -4.19575 0
M  V30 1748 C 156.647 2.12918 -4.86661 0
M  V30 1749 C 155.686 1.52869 -5.92704 0
M  V30 1750 N 154.823 2.56779 -6.53459 0
M  V30 1751 H 159.663 -0.153649 -2.97604 0
M  V30 1752 H 157.2 -0.0875946 -1.46839 0
M  V30 1753 H 159.158 2.27034 -3.50016 0
M  V30 1754 H 157.788 2.20131 -2.36097 0
M  V30 1755 H 156.84 0.252465 -3.79561 0
M  V30 1756 H 158.152 0.549642 -4.95762 0
M  V30 1757 H 157.306 2.87356 -5.34333 0
M  V30 1758 H 156.045 2.6417 -4.09958 0
M  V30 1759 H 155.05 0.769479 -5.44389 0
M  V30 1760 H 156.275 1.02435 -6.7133 0
M  V30 1761 H 154.221 3.07235 -5.79606 0
M  V30 1762 H 154.138 2.13583 -7.25202 0
M  V30 1763 H 155.406 3.30903 -7.05779 0
M  V30 1764 N 159.635 1.57281 -0.100228 0
M  V30 1765 C 160.545 2.17833 0.870965 0
M  V30 1766 C 161.561 1.14921 1.30649 0
M  V30 1767 O 162.737 1.47313 1.37335 0
M  V30 1768 C 159.802 2.75085 2.1102 0
M  V30 1769 C 158.863 3.9297 1.72838 0
M  V30 1770 C 158.096 4.47482 2.90854 0
M  V30 1771 O 158.319 4.00922 4.05731 0
M  V30 1772 O 157.253 5.38433 2.69023 0
M  V30 1773 H 161.079 3.0124 0.38575 0
M  V30 1774 H 158.664 1.48881 0.124397 0
M  V30 1775 H 160.546 3.11656 2.83634 0
M  V30 1776 H 159.221 1.94721 2.58584 0
M  V30 1777 H 158.128 3.61201 0.973883 0
M  V30 1778 H 159.461 4.74713 1.30033 0
M  V30 1779 N 161.113 -0.173488 1.56642 0
M  V30 1780 C 162.338 -0.910149 1.86363 0
M  V30 1781 C 162.763 -1.75132 0.686318 0
M  V30 1782 O 162.121 -1.77595 -0.364643 0
M  V30 1783 C 162.169 -1.76447 3.14482 0
M  V30 1784 O 161.273 -2.86584 2.96553 0
M  V30 1785 H 160.614 -0.255086 0.613047 0
M  V30 1786 H 163.144 -0.172283 2.03873 0
M  V30 1787 H 163.154 -2.16483 3.45831 0
M  V30 1788 H 161.829 -1.14658 3.99783 0
M  V30 1789 H 160.406 -2.50146 2.76553 0
M  V30 1790 N 162.591 -1.51276 -0.441967 0
M  V30 1791 C 163.521 -1.752 -1.54361 0
M  V30 1792 C 164.502 -0.601682 -1.59103 0
M  V30 1793 O 165.687 -0.843913 -1.74905 0
M  V30 1794 C 162.817 -1.87282 -2.92477 0
M  V30 1795 C 161.771 -3.02687 -3.02596 0
M  V30 1796 C 161.097 -2.99947 -4.42647 0
M  V30 1797 C 162.397 -4.4273 -2.77106 0
M  V30 1798 H 164.091 -2.67442 -1.34592 0
M  V30 1799 H 161.637 -1.28694 -0.646048 0
M  V30 1800 H 163.59 -2.02602 -3.695 0
M  V30 1801 H 162.314 -0.916844 -3.13467 0
M  V30 1802 H 160.973 -2.87065 -2.28012 0
M  V30 1803 H 160.621 -2.02136 -4.60597 0
M  V30 1804 H 160.321 -3.77439 -4.50348 0
M  V30 1805 H 161.845 -3.17354 -5.2165 0
M  V30 1806 H 163.259 -4.58727 -3.43864 0
M  V30 1807 H 161.656 -5.21893 -2.96222 0
M  V30 1808 H 162.726 -4.53087 -1.72744 0
M  V30 1809 N 164.069 0.697108 -1.41344 0
M  V30 1810 C 165.297 1.48593 -1.43972 0
M  V30 1811 C 165.712 1.88747 -0.0445612 0
M  V30 1812 O 165.069 1.56682 0.935785 0
M  V30 1813 C 165.12 2.74946 -2.34706 0
M  V30 1814 O 164.841 2.36484 -3.68791 0
M  V30 1815 C 166.342 3.687 -2.46121 0
M  V30 1816 H 163.562 0.457964 -0.490418 0
M  V30 1817 H 166.106 0.858429 -1.8561 0
M  V30 1818 H 164.261 3.33937 -1.9638 0
M  V30 1819 H 164.675 3.17918 -4.17167 0
M  V30 1820 H 166.149 4.54145 -3.13777 0
M  V30 1821 H 166.626 4.13081 -1.49199 0
M  V30 1822 H 167.232 3.15613 -2.85076 0
M  V30 1823 N 165.547 1.27147 0.931209 0
M  V30 1824 C 166.457 1.11372 2.06478 0
M  V30 1825 C 167.473 0.044645 1.73943 0
M  V30 1826 O 168.649 0.250417 1.99837 0
M  V30 1827 C 165.714 0.758838 3.38294 0
M  V30 1828 C 164.775 1.90841 3.84549 0
M  V30 1829 C 164.008 1.57036 5.10074 0
M  V30 1830 O 164.231 0.476645 5.68405 0
M  V30 1831 O 163.165 2.40839 5.51616 0
M  V30 1832 H 166.991 2.06493 2.22698 0
M  V30 1833 H 164.576 1.06301 1.04978 0
M  V30 1834 H 166.458 0.574098 4.17471 0
M  V30 1835 H 165.133 -0.162879 3.2329 0
M  V30 1836 H 164.04 2.14819 3.06274 0
M  V30 1837 H 165.373 2.81021 4.04089 0
M  V30 1838 N 167.025 -1.13721 1.09112 0
M  V30 1839 C 167.935 -2.22638 0.73957 0
M  V30 1840 C 168.951 -1.72091 -0.257068 0
M  V30 1841 O 170.127 -2.01155 -0.0992154 0
M  V30 1842 C 167.192 -3.46322 0.16191 0
M  V30 1843 C 166.253 -4.11775 1.21408 0
M  V30 1844 C 165.486 -5.29555 0.663891 0
M  V30 1845 O 165.709 -5.68077 -0.514274 0
M  V30 1846 O 164.643 -5.84973 1.41738 0
M  V30 1847 H 168.469 -2.55074 1.64836 0
M  V30 1848 H 166.054 -1.21791 0.865289 0
M  V30 1849 H 167.936 -4.21107 -0.157073 0
M  V30 1850 H 166.611 -3.15593 -0.719932 0
M  V30 1851 H 165.518 -3.3883 1.58571 0
M  V30 1852 H 166.851 -4.46627 2.06845 0
M  V30 1853 N 168.503 -0.877838 -1.30888 0
M  V30 1854 C 169.413 -0.343096 -2.32078 0
M  V30 1855 C 170.429 0.551022 -1.65045 0
M  V30 1856 O 171.605 0.445854 -1.96403 0
M  V30 1857 C 168.67 0.439905 -3.43898 0
M  V30 1858 C 167.731 -0.483111 -4.26573 0
M  V30 1859 C 166.964 0.262616 -5.33053 0
M  V30 1860 O 167.187 1.48967 -5.50604 0
M  V30 1861 O 166.121 -0.383593 -6.00676 0
M  V30 1862 H 169.947 -1.18203 -2.79753 0
M  V30 1863 H 167.532 -0.64145 -1.34929 0
M  V30 1864 H 169.414 0.883504 -4.12034 0
M  V30 1865 H 168.089 1.25526 -2.98371 0
M  V30 1866 H 166.996 -0.975374 -3.61161 0
M  V30 1867 H 168.329 -1.26427 -4.75686 0
M  V30 1868 N 169.982 1.44106 -0.638065 0
M  V30 1869 C 170.945 2.29138 0.0531013 0
M  V30 1870 C 171.945 1.41409 0.765506 0
M  V30 1871 O 173.135 1.63206 0.609046 0
M  V30 1872 C 170.267 3.23144 1.08584 0
M  V30 1873 H 171.46 2.91739 -0.694883 0
M  V30 1874 H 169.013 1.51134 -0.398538 0
M  V30 1875 H 169.748 2.65408 1.86357 0
M  V30 1876 H 169.533 3.87804 0.578852 0
M  V30 1877 H 171.023 3.87004 1.56899 0
M  V30 1878 N 171.46 0.379036 1.52974 0
M  V30 1879 C 172.688 -0.20679 2.05864 0
M  V30 1880 C 173.103 -1.41356 1.25155 0
M  V30 1881 O 172.46 -1.8009 0.295588 0
M  V30 1882 C 172.511 -0.587045 3.56702 0
M  V30 1883 O 172.232 0.571776 4.34353 0
M  V30 1884 C 173.733 -1.22983 4.25899 0
M  V30 1885 H 170.953 -0.0336123 0.670158 0
M  V30 1886 H 173.497 0.541298 1.97206 0
M  V30 1887 H 171.652 -1.28504 3.65466 0
M  V30 1888 H 172.066 0.261544 5.23847 0
M  V30 1889 H 173.54 -1.44635 5.32715 0
M  V30 1890 H 174.017 -2.19416 3.80465 0
M  V30 1891 H 174.623 -0.572892 4.21424 0
M  V30 1892 N 172.938 -1.57226 0.108567 0
M  V30 1893 C 173.848 -2.18292 -0.859401 0
M  V30 1894 C 174.864 -1.15612 -1.30038 0
M  V30 1895 O 176.04 -1.48039 -1.36552 0
M  V30 1896 C 173.105 -2.762 -2.09558 0
M  V30 1897 C 172.166 -3.93881 -1.70752 0
M  V30 1898 C 171.399 -4.49018 -2.88477 0
M  V30 1899 O 171.622 -4.03068 -4.036 0
M  V30 1900 O 170.556 -5.39852 -2.66164 0
M  V30 1901 H 174.382 -3.01441 -0.369769 0
M  V30 1902 H 171.967 -1.48945 -0.1165 0
M  V30 1903 H 173.849 -3.13156 -2.81978 0
M  V30 1904 H 172.524 -1.96089 -2.57548 0
M  V30 1905 H 171.431 -3.61713 -0.954714 0
M  V30 1906 H 172.764 -4.75396 -1.27513 0
M  V30 1907 N 174.416 0.165178 -1.56732 0
M  V30 1908 C 175.663 0.880807 -1.8234 0
M  V30 1909 C 175.991 1.81977 -0.686621 0
M  V30 1910 O 175.246 1.92971 0.325697 0
M  V30 1911 C 175.545 1.70405 -3.1416 0
M  V30 1912 C 175.211 0.913475 -4.4155 0
M  V30 1913 C 173.873 0.695303 -4.7615 0
M  V30 1914 C 176.225 0.359349 -5.1996 0
M  V30 1915 C 173.553 -0.0879947 -5.86634 0
M  V30 1916 C 175.905 -0.410893 -6.31264 0
M  V30 1917 C 174.569 -0.639808 -6.64427 0
M  V30 1918 H 173.839 0.32231 -0.667231 0
M  V30 1919 H 176.486 0.145402 -1.90947 0
M  V30 1920 H 174.791 2.50903 -3.00923 0
M  V30 1921 H 176.488 2.26091 -3.31186 0
M  V30 1922 H 173.078 1.09357 -4.14414 0
M  V30 1923 H 177.262 0.515228 -4.93618 0
M  V30 1924 H 172.518 -0.27503 -6.10781 0
M  V30 1925 H 176.692 -0.847494 -6.91224 0
M  V30 1926 H 174.319 -1.24864 -7.49875 0
M  V30 1927 N 175.894 1.51508 0.433938 0
M  V30 1928 C 176.824 1.76016 1.53429 0
M  V30 1929 C 177.805 0.610112 1.58782 0
M  V30 1930 O 178.99 0.853177 1.74455 0
M  V30 1931 C 176.12 1.88831 2.9148 0
M  V30 1932 C 175.074 3.04288 3.00987 0
M  V30 1933 C 174.4 3.0229 4.4105 0
M  V30 1934 C 175.7 4.44193 2.74754 0
M  V30 1935 H 177.394 2.68152 1.33171 0
M  V30 1936 H 174.94 1.29035 0.639214 0
M  V30 1937 H 176.893 2.04559 3.6842 0
M  V30 1938 H 175.617 0.933455 3.12976 0
M  V30 1939 H 174.276 2.8827 2.26486 0
M  V30 1940 H 173.924 2.04576 4.59519 0
M  V30 1941 H 173.624 3.79822 4.4834 0
M  V30 1942 H 175.148 3.20116 5.1996 0
M  V30 1943 H 176.562 4.60544 3.41426 0
M  V30 1944 H 174.959 5.23457 2.9345 0
M  V30 1945 H 176.029 4.53996 1.70339 0
M  V30 1946 N 177.372 -0.689602 1.41712 0
M  V30 1947 C 178.319 -1.80345 1.44029 0
M  V30 1948 C 179.289 -1.63478 0.293948 0
M  V30 1949 O 180.474 -1.84244 0.495869 0
M  V30 1950 C 177.614 -3.18272 1.33405 0
M  V30 1951 C 176.727 -3.46529 2.57956 0
M  V30 1952 C 175.862 -4.74103 2.39582 0
M  V30 1953 C 174.901 -4.95347 3.5958 0
M  V30 1954 N 174.038 -6.14151 3.40239 0
M  V30 1955 H 178.878 -1.77698 2.39222 0
M  V30 1956 H 176.415 -0.867688 1.18784 0
M  V30 1957 H 178.373 -3.97956 1.25246 0
M  V30 1958 H 177.003 -3.2008 0.418164 0
M  V30 1959 H 176.055 -2.61207 2.76542 0
M  V30 1960 H 177.367 -3.58126 3.47199 0
M  V30 1961 H 176.521 -5.61853 2.28924 0
M  V30 1962 H 175.26 -4.64763 1.47805 0
M  V30 1963 H 174.265 -4.06044 3.70686 0
M  V30 1964 H 175.49 -5.06542 4.52318 0
M  V30 1965 H 173.436 -6.06013 2.51167 0
M  V30 1966 H 173.353 -6.26543 4.23061 0
M  V30 1967 H 174.621 -7.04619 3.33365 0
M  V30 1968 N 178.85 -1.27639 -0.924453 0
M  V30 1969 C 179.782 -1.06442 -2.02985 0
M  V30 1970 C 180.795 -0.0194771 -1.62788 0
M  V30 1971 O 181.984 -0.261388 -1.76576 0
M  V30 1972 C 179.084 -0.59327 -3.33667 0
M  V30 1973 C 178.257 -1.71123 -4.02537 0
M  V30 1974 C 177.316 -1.23527 -5.11495 0
M  V30 1975 O 176.342 -1.93553 -5.35281 0
M  V30 1976 N 177.544 -0.0926678 -5.80426 0
M  V30 1977 H 180.309 -2.01633 -2.2173 0
M  V30 1978 H 177.87 -1.19248 -1.09505 0
M  V30 1979 H 179.862 -0.258686 -4.03872 0
M  V30 1980 H 178.432 0.265502 -3.1147 0
M  V30 1981 H 177.652 -2.21593 -3.26022 0
M  V30 1982 H 178.94 -2.46145 -4.45298 0
M  V30 1983 H 178.338 0.491741 -5.63559 0
M  V30 1984 H 176.895 0.182714 -6.51544 0
M  V30 1985 N 180.328 1.1314 -1.09713 0
M  V30 1986 C 181.577 1.83838 -0.829851 0
M  V30 1987 C 181.89 1.84599 0.646728 0
M  V30 1988 O 183.096 2.51218 1.02965 0
M  V30 1989 C 181.552 3.30069 -1.43466 0
M  V30 1990 C 181.16 3.37688 -2.94399 0
M  V30 1991 C 182.904 4.05788 -1.24645 0
M  V30 1992 C 180.811 4.78209 -3.47952 0
M  V30 1993 H 179.741 0.68877 -0.306777 0
M  V30 1994 H 182.392 1.27448 -1.3202 0
M  V30 1995 H 180.774 3.8628 -0.871996 0
M  V30 1996 H 181.948 2.91456 -3.56918 0
M  V30 1997 H 180.263 2.75436 -3.12289 0
M  V30 1998 H 182.86 5.09535 -1.62107 0
M  V30 1999 H 183.203 4.15878 -0.187357 0
M  V30 2000 H 183.736 3.55915 -1.77678 0
M  V30 2001 H 180.475 4.73311 -4.53495 0
M  V30 2002 H 179.995 5.24924 -2.90198 0
M  V30 2003 H 181.674 5.47133 -3.45332 0
M  V30 2004 N 181.806 0.884767 1.30421 0
M  V30 2005 C 182.736 0.367574 2.30589 0
M  V30 2006 C 183.717 -0.549464 1.60981 0
M  V30 2007 O 184.902 -0.46336 1.88591 0
M  V30 2008 C 182.032 -0.418944 3.44764 0
M  V30 2009 C 180.986 0.406316 4.26067 0
M  V30 2010 C 180.312 -0.506793 5.32293 0
M  V30 2011 C 181.612 1.64832 4.95608 0
M  V30 2012 H 183.306 1.20462 2.74097 0
M  V30 2013 H 180.852 0.580695 1.31772 0
M  V30 2014 H 182.805 -0.791395 4.13902 0
M  V30 2015 H 181.529 -1.28964 3.0006 0
M  V30 2016 H 180.188 0.760903 3.58617 0
M  V30 2017 H 179.836 -1.37519 4.83836 0
M  V30 2018 H 179.536 0.0415828 5.87585 0
M  V30 2019 H 181.06 -0.875764 6.04287 0
M  V30 2020 H 182.474 1.34646 5.57264 0
M  V30 2021 H 180.871 2.13688 5.60765 0
M  V30 2022 H 181.941 2.39284 4.21748 0
M  V30 2023 N 183.284 -1.43765 0.645699 0
M  V30 2024 C 184.232 -2.32516 -0.0624849 0
M  V30 2025 C 185.226 -1.48183 -0.820855 0
M  V30 2026 O 186.432 -1.64439 -0.732106 0
M  V30 2027 H 182.807 -0.750989 -0.0389864 0
M  V30 2028 H 184.778 -2.89979 0.703892 0
M  V30 2029 C 183.527 -3.32389 -1.02044 0
M  V30 2030 H 182.85 -3.97301 -0.446312 0
M  V30 2031 H 184.29 -3.97138 -1.48517 0
M  V30 2032 C 182.749 -2.62416 -2.11281 0
M  V30 2033 O 183.279 -2.434 -3.19561 0
M  V30 2034 N 181.485 -2.21913 -1.87624 0
M  V30 2035 H 181.032 -2.37578 -0.995703 0
M  V30 2036 H 180.99 -1.75424 -2.6091 0
M  V30 2037 N 184.763 -0.387143 -1.52771 0
M  V30 2038 C 186.011 0.195349 -2.01154 0
M  V30 2039 C 186.332 1.475 -1.27549 0
M  V30 2040 O 185.602 1.91878 -0.394924 0
M  V30 2041 H 184.182 0.075178 -0.743207 0
M  V30 2042 H 186.844 -0.518337 -1.87881 0
M  V30 2043 H 185.94 0.407096 -3.09434 0
M  V30 2044 N 186.241 1.57166 -0.116904 0
M  V30 2045 C 187.487 1.95412 0.542405 0
M  V30 2046 C 187.82 1.00019 1.66463 0
M  V30 2047 O 187.095 0.0370346 1.94465 0
M  V30 2048 C 187.378 3.43615 1.07708 0
M  V30 2049 C 187.231 4.49781 -0.0415868 0
M  V30 2050 C 188.55 3.93616 1.96861 0
M  V30 2051 H 185.669 0.710543 0.195696 0
M  V30 2052 H 188.311 1.89027 -0.192038 0
M  V30 2053 H 186.461 3.49187 1.70296 0
M  V30 2054 H 188.133 4.56308 -0.676793 0
M  V30 2055 H 186.376 4.28033 -0.705019 0
M  V30 2056 H 187.047 5.50733 0.373717 0
M  V30 2057 H 189.523 3.90335 1.44146 0
M  V30 2058 H 188.399 4.97838 2.3119 0
M  V30 2059 H 188.66 3.34188 2.89432 0
M  V30 2060 N 187.719 -0.156864 1.56817 0
M  V30 2061 C 188.949 -0.885031 1.86684 0
M  V30 2062 C 189.357 -1.75696 0.701954 0
M  V30 2063 O 188.7 -1.80569 -0.337732 0
M  V30 2064 C 188.762 -1.80092 3.11138 0
M  V30 2065 C 188.426 -1.10714 4.43386 0
M  V30 2066 C 189.423 -0.465714 5.1781 0
M  V30 2067 C 187.108 -1.09959 4.90117 0
M  V30 2068 C 189.102 0.174002 6.37162 0
M  V30 2069 C 186.789 -0.456055 6.09396 0
M  V30 2070 C 187.787 0.179622 6.82764 0
M  V30 2071 O 187.475 0.812975 7.99779 0
M  V30 2072 H 187.207 -0.261813 0.623242 0
M  V30 2073 H 189.761 -0.157383 2.04796 0
M  V30 2074 H 187.991 -2.56926 2.89009 0
M  V30 2075 H 189.68 -2.40018 3.27332 0
M  V30 2076 H 190.446 -0.463427 4.82781 0
M  V30 2077 H 186.325 -1.58378 4.3294 0
M  V30 2078 H 189.869 0.670765 6.94368 0
M  V30 2079 H 185.766 -0.455975 6.43888 0
M  V30 2080 H 186.534 0.71366 8.15383 0
M  V30 2081 N 189.197 -1.51736 -0.425897 0
M  V30 2082 C 190.427 -1.68549 -1.19476 0
M  V30 2083 C 190.835 -0.387288 -1.85194 0
M  V30 2084 O 190.178 0.645142 -1.71999 0
M  V30 2085 C 190.24 -2.75275 -2.31223 0
M  V30 2086 C 189.904 -4.17534 -1.8578 0
M  V30 2087 C 190.901 -5.01936 -1.35485 0
M  V30 2088 C 188.586 -4.6369 -1.93123 0
M  V30 2089 C 190.58 -6.30559 -0.931347 0
M  V30 2090 C 188.267 -5.92307 -1.50384 0
M  V30 2091 C 189.265 -6.75569 -1.00473 0
M  V30 2092 O 188.953 -8.0178 -0.583452 0
M  V30 2093 H 188.685 -0.568525 -0.365725 0
M  V30 2094 H 191.239 -1.98982 -0.509444 0
M  V30 2095 H 189.469 -2.40182 -3.03067 0
M  V30 2096 H 191.158 -2.80853 -2.93047 0
M  V30 2097 H 191.924 -4.67475 -1.29197 0
M  V30 2098 H 187.803 -3.98997 -2.30916 0
M  V30 2099 H 191.347 -6.95498 -0.541084 0
M  V30 2100 H 187.244 -6.2628 -1.56346 0
M  V30 2101 H 188.012 -8.1543 -0.708275 0
M  V30 2102 N 190.675 0.682077 -1.42076 0
M  V30 2103 C 191.605 1.80796 -1.47767 0
M  V30 2104 C 192.586 1.6677 -0.334954 0
M  V30 2105 O 193.771 1.863 -0.548264 0
M  V30 2106 C 190.901 3.19038 -1.37229 0
M  V30 2107 C 189.855 3.47789 -2.49453 0
M  V30 2108 C 189.181 4.8553 -2.23975 0
M  V30 2109 C 190.481 3.45411 -3.91776 0
M  V30 2110 H 192.175 1.7629 -2.41997 0
M  V30 2111 H 189.721 0.846721 -1.16476 0
M  V30 2112 H 191.674 3.97528 -1.39821 0
M  V30 2113 H 190.398 3.24204 -0.394907 0
M  V30 2114 H 189.057 2.71657 -2.46166 0
M  V30 2115 H 188.705 4.87337 -1.24547 0
M  V30 2116 H 188.405 5.0573 -2.99184 0
M  V30 2117 H 189.929 5.66312 -2.28304 0
M  V30 2118 H 191.343 4.13882 -3.96705 0
M  V30 2119 H 189.74 3.77145 -4.66778 0
M  V30 2120 H 190.81 2.44122 -4.18966 0
M  V30 2121 N 192.153 1.28127 0.917671 0
M  V30 2122 C 193.103 1.08361 2.00604 0
M  V30 2123 C 194.087 0.00847518 1.60898 0
M  V30 2124 O 195.279 0.228167 1.75523 0
M  V30 2125 C 192.408 0.743376 3.35155 0
M  V30 2126 C 191.494 1.85716 3.81275 0
M  V30 2127 N 191.885 3.09822 3.99805 0
M  V30 2128 C 190.183 1.74612 4.10398 0
M  V30 2129 C 190.884 3.82368 4.38372 0
M  V30 2130 N 189.86 3.10192 4.4641 0
M  V30 2131 H 193.662 2.02531 2.12975 0
M  V30 2132 H 191.176 1.18989 1.10523 0
M  V30 2133 H 193.173 0.582859 4.12805 0
M  V30 2134 H 191.833 -0.190595 3.2414 0
M  V30 2135 H 192.844 3.45475 3.85833 0
M  V30 2136 H 189.521 0.883657 4.08041 0
M  V30 2137 H 190.911 4.89082 4.60704 0
M  V30 2138 N 193.631 -1.12557 1.10312 0
M  V30 2139 C 194.856 -1.88405 0.867085 0
M  V30 2140 C 195.281 -1.79038 -0.576817 0
M  V30 2141 O 194.639 -1.14439 -1.40618 0
M  V30 2142 C 194.687 -3.3563 1.31851 0
M  V30 2143 O 193.791 -4.09565 0.482734 0
M  V30 2144 H 193.132 -0.585455 0.313271 0
M  V30 2145 H 195.662 -1.42352 1.4696 0
M  V30 2146 H 195.672 -3.86469 1.3079 0
M  V30 2147 H 194.347 -3.41765 2.37001 0
M  V30 2148 H 192.924 -3.68695 0.558448 0
M  V30 2149 N 195.109 -0.891671 -1.2995 0
M  V30 2150 C 196.039 -0.379797 -2.30391 0
M  V30 2151 C 197.02 0.540919 -1.6127 0
M  V30 2152 O 198.205 0.453352 -1.88834 0
M  V30 2153 C 195.335 0.400654 -3.44981 0
M  V30 2154 C 194.289 -0.428905 -4.25846 0
M  V30 2155 C 193.615 0.478557 -5.32554 0
M  V30 2156 C 194.915 -1.67458 -4.94727 0
M  V30 2157 H 196.609 -1.21914 -2.73454 0
M  V30 2158 H 194.155 -0.587675 -1.31462 0
M  V30 2159 H 196.108 0.769434 -4.14316 0
M  V30 2160 H 194.832 1.27371 -3.0074 0
M  V30 2161 H 193.491 -0.779911 -3.58208 0
M  V30 2162 H 193.139 1.34951 -4.84559 0
M  V30 2163 H 192.839 -0.0727433 -5.87555 0
M  V30 2164 H 194.363 0.843705 -6.04743 0
M  V30 2165 H 195.777 -1.376 -5.56542 0
M  V30 2166 H 194.174 -2.16659 -5.59624 0
M  V30 2167 H 195.244 -2.41518 -4.20473 0
M  V30 2168 N 196.587 1.43421 -0.653314 0
M  V30 2169 C 197.519 2.29071 0.0769134 0
M  V30 2170 C 198.532 1.42513 0.787017 0
M  V30 2171 O 199.721 1.66449 0.644757 0
M  V30 2172 C 196.821 3.19436 1.13199 0
M  V30 2173 C 195.994 4.34533 0.500006 0
M  V30 2174 C 195.053 5.05771 1.45198 0
M  V30 2175 O 194.079 5.61037 0.960538 0
M  V30 2176 N 195.281 5.0928 2.78594 0
M  V30 2177 H 198.046 2.92382 -0.658235 0
M  V30 2178 H 195.607 1.54112 -0.496104 0
M  V30 2179 H 197.599 3.63958 1.76964 0
M  V30 2180 H 196.169 2.57724 1.7691 0
M  V30 2181 H 195.389 3.92925 -0.316738 0
M  V30 2182 H 196.677 5.08766 0.0588345 0
M  V30 2183 H 196.075 4.65751 3.2108 0
M  V30 2184 H 194.632 5.57519 3.37662 0
M  V30 2185 N 198.065 0.39524 1.52563 0
M  V30 2186 C 199.314 -0.186321 2.00838 0
M  V30 2187 C 199.627 -1.47402 1.28577 0
M  V30 2188 O 200.833 -2.13599 1.67593 0
M  V30 2189 C 199.289 -0.382595 3.57861 0
M  V30 2190 C 198.897 0.892202 4.39026 0
M  V30 2191 C 200.641 -0.9202 4.14406 0
M  V30 2192 C 198.548 0.66388 5.87662 0
M  V30 2193 H 197.478 -0.0734041 0.750418 0
M  V30 2194 H 200.129 0.518552 1.76021 0
M  V30 2195 H 198.511 -1.14946 3.7895 0
M  V30 2196 H 199.685 1.66414 4.29701 0
M  V30 2197 H 198 1.35519 3.9373 0
M  V30 2198 H 200.597 -1.10683 5.23119 0
M  V30 2199 H 200.94 -1.89096 3.70875 0
M  V30 2200 H 201.473 -0.212751 3.97231 0
M  V30 2201 H 198.212 1.6058 6.35527 0
M  V30 2202 H 197.732 -0.0690193 5.9976 0
M  V30 2203 H 199.411 0.300699 6.46301 0
M  V30 2204 N 199.544 -1.57102 0.125237 0
M  V30 2205 C 200.507 -2.14471 -0.80838 0
M  V30 2206 C 201.507 -1.0811 -1.19033 0
M  V30 2207 O 202.697 -1.33856 -1.11482 0
M  V30 2208 C 199.829 -2.69005 -2.09402 0
M  V30 2209 H 201.022 -2.98297 -0.309696 0
M  V30 2210 H 198.575 -1.55807 -0.124051 0
M  V30 2211 H 199.31 -1.88785 -2.63687 0
M  V30 2212 H 199.095 -3.46799 -1.82957 0
M  V30 2213 H 200.585 -3.13278 -2.76128 0
M  V30 2214 N 201.022 0.148545 -1.56898 0
M  V30 2215 C 201.972 1.1886 -1.94567 0
M  V30 2216 C 202.956 1.3863 -0.816735 0
M  V30 2217 O 204.148 1.40218 -1.08018 0
M  V30 2218 C 201.277 2.52262 -2.32849 0
M  V30 2219 C 200.363 2.36092 -3.52309 0
M  V30 2220 N 200.754 1.89674 -4.6889 0
M  V30 2221 C 199.052 2.66848 -3.57363 0
M  V30 2222 C 199.753 1.86511 -5.50989 0
M  V30 2223 N 198.729 2.29766 -4.92655 0
M  V30 2224 H 202.531 0.821793 -2.82177 0
M  V30 2225 H 200.045 0.356615 -1.58436 0
M  V30 2226 H 202.042 3.27447 -2.58039 0
M  V30 2227 H 200.702 2.89727 -1.46589 0
M  V30 2228 H 201.713 1.59663 -4.92674 0
M  V30 2229 H 198.39 3.08198 -2.81639 0
M  V30 2230 H 199.78 1.52128 -6.54452 0
M  V30 2231 N 202.5 1.5196 0.417844 0
M  V30 2232 C 203.747 1.65591 1.16559 0
M  V30 2233 C 204.075 0.381565 1.90721 0
M  V30 2234 O 203.33 -0.635156 1.85106 0
M  V30 2235 C 203.629 2.82269 2.19223 0
M  V30 2236 C 203.295 4.20819 1.61933 0
M  V30 2237 C 201.957 4.58506 1.46033 0
M  V30 2238 C 204.309 5.07196 1.20008 0
M  V30 2239 C 201.637 5.80257 0.867113 0
M  V30 2240 C 203.989 6.29544 0.621086 0
M  V30 2241 C 202.653 6.65987 0.449144 0
M  V30 2242 H 201.923 0.605939 0.42652 0
M  V30 2243 H 204.57 1.86041 0.45397 0
M  V30 2244 H 202.875 2.56118 2.96498 0
M  V30 2245 H 204.572 2.90012 2.76936 0
M  V30 2246 H 201.162 3.91116 1.7529 0
M  V30 2247 H 205.346 4.7867 1.31105 0
M  V30 2248 H 200.602 6.07124 0.721833 0
M  V30 2249 H 204.776 6.95805 0.287798 0
M  V30 2250 H 202.403 7.60199 -0.012632 0
M  V30 2251 N 203.978 -0.674533 1.42435 0
M  V30 2252 C 205.255 -1.4305 1.33402 0
M  V30 2253 C 205.635 -2.11081 -0.0284674 0
M  V30 2254 O 204.983 -2.03257 -1.04397 0
M  V30 2255 C 205.193 -2.43272 2.50239 0
M  V30 2256 C 206.541 -3.07907 2.92367 0
M  V30 2257 O 207.565 -2.53599 2.50132 0
M  V30 2258 O 206.424 -4.0632 3.65467 0
M  V30 2259 H 203.518 -0.638076 0.526106 0
M  V30 2260 H 206.064 -0.703235 1.54443 0
M  V30 2261 H 204.836 -1.91803 3.41068 0
M  V30 2262 H 204.459 -3.23479 2.31186 0
M  V30 2263 N 205.456 -1.28612 -0.910864 0
M  V30 2264 C 206.386 -1.15326 -2.03032 0
M  V30 2265 C 207.367 -0.0502924 -1.70026 0
M  V30 2266 O 208.552 -0.227797 -1.92859 0
M  V30 2267 C 205.682 -0.817343 -3.37545 0
M  V30 2268 C 204.636 -1.8754 -3.84724 0
M  V30 2269 C 203.962 -1.39305 -5.16235 0
M  V30 2270 C 205.262 -3.28244 -4.06267 0
M  V30 2271 H 206.956 -2.08975 -2.14406 0
M  V30 2272 H 204.502 -1.00612 -1.03021 0
M  V30 2273 H 206.455 -0.711151 -4.15356 0
M  V30 2274 H 205.179 0.154846 -3.26233 0
M  V30 2275 H 203.838 -1.97079 -3.09121 0
M  V30 2276 H 203.486 -0.409846 -5.01328 0
M  V30 2277 H 203.186 -2.10057 -5.48771 0
M  V30 2278 H 204.71 -1.30014 -5.96598 0
M  V30 2279 H 206.124 -3.21611 -4.74594 0
M  V30 2280 H 204.521 -3.96855 -4.5014 0
M  V30 2281 H 205.591 -3.72048 -3.10979 0
M  V30 2282 N 206.934 1.1197 -1.10907 0
M  V30 2283 C 207.881 2.17846 -0.762345 0
M  V30 2284 C 208.851 1.63995 0.263599 0
M  V30 2285 O 210.036 1.90273 0.141773 0
M  V30 2286 C 207.176 3.44487 -0.205651 0
M  V30 2287 C 206.289 4.12369 -1.28748 0
M  V30 2288 C 205.424 5.26674 -0.691919 0
M  V30 2289 C 204.463 5.86431 -1.75399 0
M  V30 2290 N 203.6 6.92142 -1.17833 0
M  V30 2291 H 208.44 2.46851 -1.6694 0
M  V30 2292 H 205.977 1.21188 -0.833776 0
M  V30 2293 H 207.935 4.16981 0.135037 0
M  V30 2294 H 206.565 3.15884 0.664613 0
M  V30 2295 H 205.617 3.38003 -1.74522 0
M  V30 2296 H 206.929 4.52844 -2.09125 0
M  V30 2297 H 206.083 6.05953 -0.300963 0
M  V30 2298 H 204.822 4.8749 0.143232 0
M  V30 2299 H 203.827 5.05835 -2.15432 0
M  V30 2300 H 205.052 6.27685 -2.59208 0
M  V30 2301 H 202.998 6.54985 -0.364725 0
M  V30 2302 H 202.915 7.31242 -1.91887 0
M  V30 2303 H 204.183 7.75237 -0.81408 0
M  V30 2304 N 208.412 0.89855 1.29475 0
M  V30 2305 C 209.823 0.572537 1.77705 0
M  V30 2306 C 210.174 -0.911778 1.73727 0
M  V30 2307 O 209.299 -1.71288 1.32247 0
M  V30 2308 C 209.894 1.03252 3.22683 0
M  V30 2309 C 208.453 0.757687 3.68695 0
M  V30 2310 C 207.6 1.20787 2.49612 0
M  V30 2311 H 210.551 1.08139 1.16153 0
M  V30 2312 H 210.572 0.367307 3.78723 0
M  V30 2313 H 210.084 2.11285 3.25546 0
M  V30 2314 H 208.185 -0.310079 3.71308 0
M  V30 2315 H 208.298 1.35476 4.59547 0
M  V30 2316 H 206.662 0.626888 2.46865 0
M  V30 2317 H 207.445 2.29622 2.55203 0
M  V30 2318 N 209.89 -1.43072 0.660911 0
M  V30 2319 C 210.8 -2.34585 -0.0264163 0
M  V30 2320 C 211.816 -1.54316 -0.803898 0
M  V30 2321 O 212.992 -1.86939 -0.749391 0
M  V30 2322 C 210.057 -3.32689 -0.975639 0
M  V30 2323 C 209.118 -4.2886 -0.194236 0
M  V30 2324 C 208.351 -5.22278 -1.09825 0
M  V30 2325 O 208.574 -5.20299 -2.33763 0
M  V30 2326 O 207.508 -5.99228 -0.566513 0
M  V30 2327 H 211.334 -2.94869 0.727034 0
M  V30 2328 H 208.919 -1.43342 0.42111 0
M  V30 2329 H 210.801 -3.92995 -1.52094 0
M  V30 2330 H 209.476 -2.74898 -1.70918 0
M  V30 2331 H 208.383 -3.72011 0.394835 0
M  V30 2332 H 209.716 -4.89655 0.499899 0
M  V30 2333 N 211.368 -0.403325 -1.52352 0
M  V30 2334 C 212.316 0.439752 -2.28405 0
M  V30 2335 C 213.31 1.05089 -1.32863 0
M  V30 2336 O 214.516 0.989759 -1.50345 0
M  V30 2337 H 210.891 0.160587 -0.734653 0
M  V30 2338 H 212.862 -0.222983 -2.97566 0
M  V30 2339 C 211.611 1.54736 -3.11371 0
M  V30 2340 H 210.934 1.08643 -3.84755 0
M  V30 2341 H 212.374 2.1112 -3.67701 0
M  V30 2342 C 210.833 2.51141 -2.24566 0
M  V30 2343 O 211.363 3.54887 -1.88196 0
M  V30 2344 N 209.569 2.21213 -1.8845 0
M  V30 2345 H 209.116 1.36878 -2.18225 0
M  V30 2346 H 209.074 2.85963 -1.30662 0
M  V30 2347 N 212.846 1.57033 -0.133567 0
M  V30 2348 C 214.095 1.94861 0.520768 0
M  V30 2349 C 214.408 1.02012 1.66892 0
M  V30 2350 O 215.614 1.29365 2.38699 0
M  V30 2351 C 214.07 3.46362 0.977809 0
M  V30 2352 C 213.678 4.47773 -0.142674 0
M  V30 2353 C 215.422 3.93083 1.60269 0
M  V30 2354 C 213.329 5.90468 0.331883 0
M  V30 2355 H 212.259 0.727453 0.198315 0
M  V30 2356 H 214.91 1.82227 -0.215759 0
M  V30 2357 H 213.292 3.54282 1.7692 0
M  V30 2358 H 214.466 4.51536 -0.919317 0
M  V30 2359 H 212.781 4.10891 -0.675124 0
M  V30 2360 H 215.378 4.97121 1.96914 0
M  V30 2361 H 215.721 3.33876 2.48662 0
M  V30 2362 H 216.254 3.88025 0.876453 0
M  V30 2363 H 212.993 6.53463 -0.516341 0
M  V30 2364 H 212.513 5.90094 1.07469 0
M  V30 2365 H 214.192 6.42179 0.788332 0
M  V30 2366 N 214.325 -0.140222 1.56975 0
M  V30 2367 C 215.258 -1.20266 1.93936 0
M  V30 2368 C 216.236 -1.41212 0.806099 0
M  V30 2369 O 217.42 -1.55713 1.06234 0
M  V30 2370 C 214.547 -2.56037 2.21726 0
M  V30 2371 C 213.593 -2.51646 3.44349 0
M  V30 2372 S 214.426 -1.97678 4.97678 0
M  V30 2373 C 215.582 -3.35165 5.28597 0
M  V30 2374 H 215.815 -0.887358 2.83749 0
M  V30 2375 H 213.348 -0.346119 1.50471 0
M  V30 2376 H 215.306 -3.34167 2.38416 0
M  V30 2377 H 213.967 -2.84755 1.32566 0
M  V30 2378 H 213.16 -3.51608 3.61092 0
M  V30 2379 H 212.762 -1.81628 3.26936 0
M  V30 2380 H 215.054 -4.31302 5.2248 0
M  V30 2381 H 215.997 -3.23269 6.30002 0
M  V30 2382 H 216.405 -3.32614 4.56101 0
M  V30 2383 N 215.803 -1.52179 -0.40978 0
M  V30 2384 C 216.733 -1.78435 -1.5061 0
M  V30 2385 C 217.714 -0.635295 -1.57791 0
M  V30 2386 O 218.899 -0.880823 -1.73076 0
M  V30 2387 C 216.029 -1.93444 -2.88439 0
M  V30 2388 C 214.983 -3.09038 -2.96108 0
M  V30 2389 C 214.309 -3.09268 -4.36185 0
M  V30 2390 C 215.609 -4.48508 -2.67652 0
M  V30 2391 H 217.303 -2.70237 -1.28889 0
M  V30 2392 H 214.849 -1.30036 -0.618605 0
M  V30 2393 H 216.802 -2.10394 -3.65119 0
M  V30 2394 H 215.526 -0.983129 -3.11452 0
M  V30 2395 H 214.185 -2.91837 -2.21872 0
M  V30 2396 H 213.833 -2.11861 -4.56206 0
M  V30 2397 H 213.533 -3.86907 -4.42241 0
M  V30 2398 H 215.057 -3.28348 -5.14801 0
M  V30 2399 H 216.471 -4.65918 -3.34056 0
M  V30 2400 H 214.868 -5.28059 -2.85085 0
M  V30 2401 H 215.938 -4.56649 -1.63095 0
M  V30 2402 N 217.281 0.66697 -1.42791 0
M  V30 2403 C 218.211 1.79218 -1.49677 0
M  V30 2404 C 219.192 1.66405 -0.352623 0
M  V30 2405 O 220.377 1.85708 -0.567993 0
M  V30 2406 C 217.507 3.17565 -1.40605 0
M  V30 2407 C 216.461 3.45124 -2.53127 0
M  V30 2408 C 215.787 4.83127 -2.29112 0
M  V30 2409 C 217.087 3.41236 -3.95418 0
M  V30 2410 H 218.781 1.73713 -2.43853 0
M  V30 2411 H 216.327 0.83432 -1.17367 0
M  V30 2412 H 218.28 3.96022 -1.44029 0
M  V30 2413 H 217.004 3.23767 -0.429271 0
M  V30 2414 H 215.663 2.69031 -2.49034 0
M  V30 2415 H 215.311 4.85988 -1.29709 0
M  V30 2416 H 215.011 5.02528 -3.04531 0
M  V30 2417 H 216.535 5.63859 -2.34297 0
M  V30 2418 H 217.949 4.09651 -4.01073 0
M  V30 2419 H 216.346 3.72173 -4.70752 0
M  V30 2420 H 217.416 2.39665 -4.21532 0
M  V30 2421 N 218.759 1.29093 0.90403 0
M  V30 2422 C 220.036 1.075 1.63411 0
M  V30 2423 C 220.416 -0.382346 2.07609 0
M  V30 2424 O 219.764 -1.37031 1.82851 0
M  V30 2425 C 219.974 2.05858 2.81822 0
M  V30 2426 C 221.322 2.36539 3.52611 0
M  V30 2427 O 222.346 2.04019 2.91984 0
M  V30 2428 O 221.205 2.92085 4.61897 0
M  V30 2429 H 218.299 0.411547 0.717327 0
M  V30 2430 H 220.845 1.40449 0.952479 0
M  V30 2431 H 219.617 3.04037 2.46327 0
M  V30 2432 H 219.24 1.73613 3.57693 0
M  V30 2433 N 220.237 -1.11381 1.11499 0
M  V30 2434 C 221.653 -1.35143 0.849031 0
M  V30 2435 C 221.853 -1.94515 -0.525938 0
M  V30 2436 O 220.909 -2.1785 -1.27662 0
M  V30 2437 C 222.222 -2.28249 1.95762 0
M  V30 2438 C 223.77 -2.41812 1.98736 0
M  V30 2439 C 224.245 -3.3824 3.088 0
M  V30 2440 N 225.736 -3.45803 3.08179 0
M  V30 2441 C 226.471 -4.20358 3.89982 0
M  V30 2442 N 225.967 -4.97884 4.8175 0
M  V30 2443 N 227.76 -4.15877 3.78157 0
M  V30 2444 H 219.911 -0.712062 2.00109 0
M  V30 2445 H 222.174 -0.376025 0.870235 0
M  V30 2446 H 221.88 -1.91817 2.94787 0
M  V30 2447 H 221.754 -3.28473 1.85433 0
M  V30 2448 H 224.141 -2.77518 1.00338 0
M  V30 2449 H 224.222 -1.41437 2.13141 0
M  V30 2450 H 223.866 -3.03261 4.07425 0
M  V30 2451 H 223.796 -4.38471 2.91635 0
M  V30 2452 H 226.287 -2.90506 2.41691 0
M  V30 2453 H 226.6 -5.52142 5.40702 0
M  V30 2454 H 224.945 -4.97043 4.85771 0
M  V30 2455 H 228.136 -3.544 3.05808 0
M  V30 2456 H 228.309 -4.73723 4.42143 0
M  V30 2457 N 221.715 -0.905404 -1.28997 0
M  V30 2458 C 222.663 -0.377431 -2.29517 0
M  V30 2459 C 223.657 0.526461 -1.61012 0
M  V30 2460 O 224.863 0.40863 -1.753 0
M  V30 2461 H 221.238 -0.103437 -0.744852 0
M  V30 2462 H 223.209 -1.23848 -2.71485 0
M  V30 2463 C 221.958 0.374833 -3.45674 0
M  V30 2464 H 221.281 -0.311474 -3.98585 0
M  V30 2465 H 222.721 0.70903 -4.1803 0
M  V30 2466 C 221.18 1.57963 -2.97572 0
M  V30 2467 O 221.71 2.67886 -2.99333 0
M  V30 2468 N 219.916 1.42375 -2.53333 0
M  V30 2469 H 219.463 0.529466 -2.521 0
M  V30 2470 H 219.421 2.23117 -2.21509 0
M  V30 2471 N 223.193 1.4272 -0.668489 0
M  V30 2472 C 224.439 2.01923 -0.188419 0
M  V30 2473 C 224.772 1.52704 1.19979 0
M  V30 2474 O 224.047 0.726566 1.8042 0
M  V30 2475 C 224.33 3.59451 -0.216085 0
M  V30 2476 C 224.183 4.18864 -1.6393 0
M  V30 2477 C 225.502 4.37903 0.439179 0
M  V30 2478 H 222.621 0.733674 -0.0699412 0
M  V30 2479 H 225.263 1.69822 -0.852076 0
M  V30 2480 H 223.413 3.86929 0.349012 0
M  V30 2481 H 225.085 4.02362 -2.25616 0
M  V30 2482 H 223.328 3.74933 -2.18193 0
M  V30 2483 H 223.999 5.27987 -1.61039 0
M  V30 2484 H 226.475 4.16079 -0.0417878 0
M  V30 2485 H 225.351 5.47519 0.389157 0
M  V30 2486 H 225.612 4.15303 1.51577 0
M  V30 2487 N 224.671 0.411399 1.52136 0
M  V30 2488 C 226.082 -0.0576826 1.86611 0
M  V30 2489 C 226.433 -1.44238 1.33003 0
M  V30 2490 O 225.558 -2.05759 0.670228 0
M  V30 2491 C 226.153 -0.111448 3.38617 0
M  V30 2492 C 224.712 -0.52487 3.72723 0
M  V30 2493 C 223.859 0.299176 2.75681 0
M  V30 2494 H 226.81 0.628368 1.4573 0
M  V30 2495 H 226.831 -0.926252 3.69054 0
M  V30 2496 H 226.343 0.896488 3.77604 0
M  V30 2497 H 224.444 -1.53936 3.39315 0
M  V30 2498 H 224.557 -0.267681 4.78352 0
M  V30 2499 H 222.921 -0.238814 2.53578 0
M  V30 2500 H 223.704 1.3055 3.17508 0
M  V30 2501 N 226.149 -1.5696 0.141893 0
M  V30 2502 C 227.096 -2.16501 -0.799737 0
M  V30 2503 C 228.066 -1.09643 -1.24771 0
M  V30 2504 O 229.251 -1.3766 -1.32115 0
M  V30 2505 C 226.391 -2.78679 -2.03549 0
M  V30 2506 C 225.504 -3.99914 -1.6338 0
M  V30 2507 C 224.639 -4.50106 -2.82096 0
M  V30 2508 C 223.678 -5.63819 -2.38275 0
M  V30 2509 N 222.815 -6.08651 -3.49983 0
M  V30 2510 H 227.655 -2.96632 -0.285179 0
M  V30 2511 H 225.192 -1.46533 -0.129053 0
M  V30 2512 H 227.15 -3.1287 -2.75986 0
M  V30 2513 H 225.78 -2.012 -2.52425 0
M  V30 2514 H 224.832 -3.71735 -0.807279 0
M  V30 2515 H 226.144 -4.82311 -1.27192 0
M  V30 2516 H 225.298 -4.86325 -3.62729 0
M  V30 2517 H 224.037 -3.66706 -3.21525 0
M  V30 2518 H 223.042 -5.2718 -1.56081 0
M  V30 2519 H 224.267 -6.49 -1.99938 0
M  V30 2520 H 222.213 -5.28188 -3.89042 0
M  V30 2521 H 222.13 -6.85961 -3.17794 0
M  V30 2522 H 223.398 -6.49515 -4.30988 0
M  V30 2523 N 227.627 0.131896 -1.57047 0
M  V30 2524 C 229.038 0.690407 -1.73465 0
M  V30 2525 C 229.389 1.8094 -0.758629 0
M  V30 2526 O 228.514 2.16282 0.0713813 0
M  V30 2527 C 229.109 1.25916 -3.14532 0
M  V30 2528 C 227.668 1.76409 -3.32501 0
M  V30 2529 C 226.815 0.658579 -2.69366 0
M  V30 2530 H 229.766 -0.0939144 -1.58422 0
M  V30 2531 H 229.787 2.12892 -3.15369 0
M  V30 2532 H 229.299 0.444515 -3.85546 0
M  V30 2533 H 227.4 2.60391 -2.66509 0
M  V30 2534 H 227.513 1.88241 -4.4057 0
M  V30 2535 H 225.877 1.08899 -2.30246 0
M  V30 2536 H 226.66 -0.14487 -3.42994 0
M  V30 2537 N 229.106 1.52395 0.401703 0
M  V30 2538 C 230.522 1.41363 0.740864 0
M  V30 2539 C 230.722 0.523982 1.94568 0
M  V30 2540 O 229.778 -0.00741204 2.52499 0
M  V30 2541 C 231.091 2.84011 0.987847 0
M  V30 2542 C 232.639 2.93404 1.09011 0
M  V30 2543 C 233.114 4.37036 1.3698 0
M  V30 2544 N 234.605 4.40304 1.43829 0
M  V30 2545 C 235.34 5.48508 1.67112 0
M  V30 2546 N 234.836 6.66819 1.87949 0
M  V30 2547 N 236.629 5.36034 1.69187 0
M  V30 2548 H 228.78 2.08765 -0.391262 0
M  V30 2549 H 231.043 0.941265 -0.112798 0
M  V30 2550 H 230.749 3.51265 0.174835 0
M  V30 2551 H 230.623 3.25502 1.906 0
M  V30 2552 H 233.01 2.26325 1.8937 0
M  V30 2553 H 233.091 2.55359 0.15015 0
M  V30 2554 H 232.735 5.04676 0.571353 0
M  V30 2555 H 232.665 4.72623 2.3224 0
M  V30 2556 H 235.156 3.55024 1.29486 0
M  V30 2557 H 235.469 7.45063 2.05185 0
M  V30 2558 H 233.814 6.6987 1.85199 0
M  V30 2559 H 237.005 4.42579 1.52451 0
M  V30 2560 H 237.178 6.20434 1.86993 0
M  V30 2561 N 230.584 -0.659388 1.43143 0
M  V30 2562 C 231.833 -1.41518 1.43721 0
M  V30 2563 C 232.146 -1.95499 0.0628176 0
M  V30 2564 O 233.352 -2.71446 -0.0539683 0
M  V30 2565 C 231.808 -2.5608 2.52885 0
M  V30 2566 C 231.416 -2.08733 3.96402 0
M  V30 2567 C 233.16 -3.3349 2.62649 0
M  V30 2568 C 231.067 -3.20469 4.97045 0
M  V30 2569 H 229.997 -0.531705 0.534608 0
M  V30 2570 H 232.648 -0.712343 1.69109 0
M  V30 2571 H 231.03 -3.28805 2.20688 0
M  V30 2572 H 232.204 -1.43059 4.3803 0
M  V30 2573 H 230.519 -1.44219 3.90627 0
M  V30 2574 H 233.116 -4.16734 3.35017 0
M  V30 2575 H 233.459 -3.8111 1.67513 0
M  V30 2576 H 233.992 -2.67842 2.94118 0
M  V30 2577 H 230.731 -2.77824 5.93712 0
M  V30 2578 H 230.251 -3.84874 4.60034 0
M  V30 2579 H 231.93 -3.85698 5.19467 0
M  V30 2580 N 232.062 -1.29571 -0.897171 0
M  V30 2581 C 233.009 -1.14916 -2.00158 0
M  V30 2582 C 233.979 -0.0418149 -1.66047 0
M  V30 2583 O 235.164 -0.209793 -1.89643 0
M  V30 2584 C 232.304 -0.834307 -3.34863 0
M  V30 2585 C 231.417 -2.02234 -3.8174 0
M  V30 2586 C 230.552 -1.64664 -5.05034 0
M  V30 2587 C 229.591 -2.80033 -5.44286 0
M  V30 2588 N 228.728 -2.42843 -6.58765 0
M  V30 2589 H 233.568 -2.09403 -2.12025 0
M  V30 2590 H 231.105 -1.042 -1.0383 0
M  V30 2591 H 233.063 -0.632436 -4.12379 0
M  V30 2592 H 231.693 0.0736656 -3.22716 0
M  V30 2593 H 230.745 -2.33583 -3.00238 0
M  V30 2594 H 232.057 -2.88673 -4.06779 0
M  V30 2595 H 231.211 -1.4078 -5.9014 0
M  V30 2596 H 229.95 -0.753766 -4.8184 0
M  V30 2597 H 228.955 -3.04596 -4.57713 0
M  V30 2598 H 230.18 -3.69989 -5.6946 0
M  V30 2599 H 228.126 -1.56046 -6.3717 0
M  V30 2600 H 228.043 -3.22815 -6.83613 0
M  V30 2601 H 229.311 -2.22285 -7.47134 0
M  V30 2602 N 233.54 1.10788 -1.12088 0
M  V30 2603 C 234.789 1.82036 -0.868659 0
M  V30 2604 C 235.102 1.85929 0.607426 0
M  V30 2605 O 236.308 2.53346 0.97613 0
M  V30 2606 C 234.764 3.26951 -1.50435 0
M  V30 2607 C 234.372 3.31367 -3.01496 0
M  V30 2608 C 236.116 4.03053 -1.33225 0
M  V30 2609 C 234.023 4.7072 -3.58017 0
M  V30 2610 H 232.953 0.682108 -0.321318 0
M  V30 2611 H 235.604 1.24618 -1.34694 0
M  V30 2612 H 233.986 3.84343 -0.953735 0
M  V30 2613 H 235.16 2.83819 -3.6302 0
M  V30 2614 H 233.475 2.6875 -3.18061 0
M  V30 2615 H 236.072 5.05981 -1.72878 0
M  V30 2616 H 236.415 4.15387 -0.275529 0
M  V30 2617 H 236.948 3.52066 -1.85188 0
M  V30 2618 H 233.687 4.63585 -4.63432 0
M  V30 2619 H 233.207 5.1865 -3.01268 0
M  V30 2620 H 234.886 5.39685 -3.56859 0
M  V30 2621 N 235.018 0.912232 1.28515 0
M  V30 2622 C 236.267 0.540504 1.94323 0
M  V30 2623 C 236.58 -0.920044 1.72611 0
M  V30 2624 O 237.786 -1.39986 2.32629 0
M  V30 2625 C 236.242 0.915803 3.48053 0
M  V30 2626 C 235.85 2.39598 3.78546 0
M  V30 2627 C 237.594 0.614588 4.20027 0
M  V30 2628 C 235.501 2.71148 5.25578 0
M  V30 2629 H 234.431 0.198418 0.727424 0
M  V30 2630 H 237.082 1.11094 1.46049 0
M  V30 2631 H 235.464 0.274168 3.9505 0
M  V30 2632 H 236.638 3.08422 3.42364 0
M  V30 2633 H 234.953 2.66749 3.1974 0
M  V30 2634 H 237.55 0.827002 5.28266 0
M  V30 2635 H 237.893 -0.447531 4.13887 0
M  V30 2636 H 238.426 1.21462 3.78803 0
M  V30 2637 H 235.165 3.76207 5.36794 0
M  V30 2638 H 234.685 2.0696 5.62963 0
M  V30 2639 H 236.364 2.58072 5.93302 0
M  V30 2640 N 236.496 -1.42363 0.676048 0
M  V30 2641 C 237.773 -1.95183 0.127726 0
M  V30 2642 C 238.153 -1.61641 -1.35777 0
M  V30 2643 O 237.501 -0.913216 -2.09458 0
M  V30 2644 C 237.711 -3.46721 0.398199 0
M  V30 2645 C 239.059 -4.23427 0.315383 0
M  V30 2646 O 240.083 -3.54649 0.332016 0
M  V30 2647 O 238.942 -5.45888 0.25865 0
M  V30 2648 H 236.036 -0.826992 0.00359427 0
M  V30 2649 H 238.582 -1.52184 0.750864 0
M  V30 2650 H 237.354 -3.64344 1.4272 0
M  V30 2651 H 236.977 -3.96769 -0.256885 0
M  V30 2652 N 237.974 -0.419461 -1.51915 0
M  V30 2653 C 239.221 0.152939 -2.01922 0
M  V30 2654 C 239.549 1.4426 -1.30458 0
M  V30 2655 O 238.804 1.91514 -0.402593 0
M  V30 2656 C 239.103 0.437067 -3.54717 0
M  V30 2657 C 238.769 -0.764632 -4.44369 0
M  V30 2658 C 237.431 -1.09423 -4.68594 0
M  V30 2659 C 239.783 -1.56713 -4.97082 0
M  V30 2660 C 237.111 -2.22732 -5.42777 0
M  V30 2661 C 239.463 -2.69107 -5.72507 0
M  V30 2662 C 238.127 -3.02541 -5.95 0
M  V30 2663 H 237.397 0.0559644 -0.738884 0
M  V30 2664 H 240.044 -0.562998 -1.83037 0
M  V30 2665 H 238.349 1.23469 -3.71837 0
M  V30 2666 H 240.046 0.893083 -3.90928 0
M  V30 2667 H 236.636 -0.497775 -4.257 0
M  V30 2668 H 240.82 -1.32571 -4.78266 0
M  V30 2669 H 236.076 -2.48971 -5.58411 0
M  V30 2670 H 240.25 -3.31671 -6.12346 0
M  V30 2671 H 237.877 -3.90457 -6.52264 0
M  V30 2672 N 239.452 1.56882 -0.150215 0
M  V30 2673 C 240.7 1.9584 0.499105 0
M  V30 2674 C 241.021 1.03623 1.65188 0
M  V30 2675 O 240.291 0.0984084 1.95653 0
M  V30 2676 H 238.871 0.723119 0.187373 0
M  V30 2677 H 241.533 1.9358 -0.226466 0
M  V30 2678 H 240.629 2.99638 0.873122 0
M  V30 2679 N 240.93 -0.123565 1.57115 0
M  V30 2680 C 241.86 -1.15309 2.03042 0
M  V30 2681 C 242.841 -1.43454 0.914061 0
M  V30 2682 O 244.026 -1.53973 1.18347 0
M  V30 2683 C 241.156 -2.48043 2.43089 0
M  V30 2684 C 240.11 -2.3437 3.58127 0
M  V30 2685 C 239.436 -3.72026 3.84059 0
M  V30 2686 C 240.736 -1.80804 4.90007 0
M  V30 2687 H 242.43 -0.771102 2.893 0
M  V30 2688 H 239.976 -0.369479 1.39179 0
M  V30 2689 H 241.929 -3.20311 2.73823 0
M  V30 2690 H 240.653 -2.88122 1.53796 0
M  V30 2691 H 239.312 -1.64551 3.27595 0
M  V30 2692 H 238.96 -4.09582 2.91979 0
M  V30 2693 H 238.66 -3.63732 4.6149 0
M  V30 2694 H 240.184 -4.45806 4.1724 0
M  V30 2695 H 241.598 -2.42886 5.19307 0
M  V30 2696 H 239.995 -1.83343 5.71407 0
M  V30 2697 H 241.065 -0.76528 4.78823 0
M  V30 2698 N 242.408 -1.52605 -0.393616 0
M  V30 2699 C 243.371 -1.76415 -1.46323 0
M  V30 2700 C 244.371 -0.634126 -1.47768 0
M  V30 2701 O 245.561 -0.902142 -1.4902 0
M  V30 2702 C 242.693 -1.8607 -2.85641 0
M  V30 2703 H 243.886 -2.71916 -1.26498 0
M  V30 2704 H 241.439 -1.43257 -0.625073 0
M  V30 2705 H 242.174 -0.925378 -3.10817 0
M  V30 2706 H 241.959 -2.68235 -2.85993 0
M  V30 2707 H 243.449 -2.06179 -3.63153 0
M  V30 2708 N 243.887 0.651787 -1.4349 0
M  V30 2709 C 244.837 1.75783 -1.45205 0
M  V30 2710 C 245.821 1.57679 -0.320328 0
M  V30 2711 O 247.013 1.67767 -0.564211 0
M  V30 2712 C 244.142 3.14377 -1.3792 0
M  V30 2713 C 243.228 3.38023 -2.56127 0
M  V30 2714 N 243.619 3.32135 -3.81471 0
M  V30 2715 C 241.917 3.68747 -2.50882 0
M  V30 2716 C 242.618 3.55902 -4.60118 0
M  V30 2717 N 241.594 3.77783 -3.90872 0
M  V30 2718 H 245.396 1.69657 -2.39987 0
M  V30 2719 H 242.91 0.853508 -1.38163 0
M  V30 2720 H 244.907 3.93666 -1.37231 0
M  V30 2721 H 243.567 3.21683 -0.441596 0
M  V30 2722 H 244.578 3.11515 -4.13738 0
M  V30 2723 H 241.255 3.8316 -1.65816 0
M  V30 2724 H 242.645 3.57116 -5.69138 0
M  V30 2725 N 245.365 1.30045 0.890287 0
M  V30 2726 C 246.312 1.15976 1.99545 0
M  V30 2727 C 247.282 0.0506202 1.66023 0
M  V30 2728 O 248.467 0.219847 1.89529 0
M  V30 2729 C 245.607 0.852054 3.34416 0
M  V30 2730 C 244.72 2.04255 3.80662 0
M  V30 2731 C 243.855 1.6734 5.04154 0
M  V30 2732 C 242.894 2.82916 5.42794 0
M  V30 2733 N 242.031 2.46333 6.57468 0
M  V30 2734 H 246.871 2.10524 2.10911 0
M  V30 2735 H 244.408 1.04749 1.03276 0
M  V30 2736 H 246.366 0.654296 4.12037 0
M  V30 2737 H 244.996 -0.0565502 3.2275 0
M  V30 2738 H 244.048 2.35172 2.98995 0
M  V30 2739 H 245.36 2.90826 4.05242 0
M  V30 2740 H 244.514 1.43908 5.89386 0
M  V30 2741 H 243.253 0.779308 4.81433 0
M  V30 2742 H 242.258 3.0702 4.56091 0
M  V30 2743 H 243.483 3.73004 5.6749 0
M  V30 2744 H 241.429 1.59423 6.36334 0
M  V30 2745 H 241.346 3.26436 6.81891 0
M  V30 2746 H 242.614 2.26244 7.45945 0
M  V30 2747 N 246.843 -1.10192 1.12674 0
M  V30 2748 C 248.092 -1.81573 0.8783 0
M  V30 2749 C 248.405 -1.86249 -0.597557 0
M  V30 2750 O 249.611 -2.5386 -0.962681 0
M  V30 2751 C 248.067 -3.26149 1.52167 0
M  V30 2752 C 247.675 -3.29763 3.03249 0
M  V30 2753 C 249.419 -4.0234 1.3536 0
M  V30 2754 C 247.326 -4.68815 3.60508 0
M  V30 2755 H 246.256 -0.680394 0.324931 0
M  V30 2756 H 248.907 -1.23902 1.35353 0
M  V30 2757 H 247.289 -3.83832 0.974104 0
M  V30 2758 H 248.463 -2.8189 3.6452 0
M  V30 2759 H 246.778 -2.67059 3.19481 0
M  V30 2760 H 249.375 -5.05058 1.75559 0
M  V30 2761 H 249.718 -4.15235 0.297554 0
M  V30 2762 H 250.251 -3.51079 1.87052 0
M  V30 2763 H 246.99 -4.61121 4.65884 0
M  V30 2764 H 246.51 -5.17045 3.04014 0
M  V30 2765 H 248.189 -5.37785 3.59717 0
M  V30 2766 N 248.321 -0.919034 -1.28029 0
M  V30 2767 C 249.598 -0.473668 -1.89778 0
M  V30 2768 C 249.978 1.04783 -1.83259 0
M  V30 2769 O 249.326 1.8982 -1.27202 0
M  V30 2770 C 249.536 -1.00998 -3.34066 0
M  V30 2771 C 250.884 -1.06525 -4.1102 0
M  V30 2772 O 251.908 -0.958996 -3.43048 0
M  V30 2773 O 250.767 -1.22776 -5.3253 0
M  V30 2774 H 247.861 -0.15098 -0.813101 0
M  V30 2775 H 250.407 -1.01016 -1.36359 0
M  V30 2776 H 249.179 -2.05392 -3.33061 0
M  V30 2777 H 248.802 -0.454626 -3.94992 0
M  V30 2778 N 249.799 1.42003 -0.683588 0
M  V30 2779 C 251.046 2.01413 -0.209514 0
M  V30 2780 C 251.374 1.54088 1.1869 0
M  V30 2781 O 250.629 0.737591 1.81268 0
M  V30 2782 C 250.928 3.56827 -0.202357 0
M  V30 2783 C 250.594 4.23617 -1.54464 0
M  V30 2784 C 249.256 4.41577 -1.91215 0
M  V30 2785 C 251.608 4.61178 -2.42826 0
M  V30 2786 C 248.936 4.9437 -3.15935 0
M  V30 2787 C 251.288 5.15355 -3.66867 0
M  V30 2788 C 249.952 5.31528 -4.03776 0
M  V30 2789 H 249.222 0.737023 -0.0766668 0
M  V30 2790 H 251.869 1.70067 -0.880312 0
M  V30 2791 H 250.174 3.87892 0.551969 0
M  V30 2792 H 251.871 4.00588 0.181793 0
M  V30 2793 H 248.461 4.10004 -1.24877 0
M  V30 2794 H 252.645 4.46968 -2.15717 0
M  V30 2795 H 247.901 5.05076 -3.44541 0
M  V30 2796 H 252.075 5.43402 -4.35531 0
M  V30 2797 H 249.702 5.72199 -5.00492 0
M  V30 2798 N 251.277 0.427512 1.51691 0
M  V30 2799 C 252.525 -0.141948 2.01601 0
M  V30 2800 C 252.846 -1.44067 1.31414 0
M  V30 2801 O 252.116 -1.90763 0.445658 0
M  V30 2802 H 250.696 -0.0554468 0.744939 0
M  V30 2803 H 253.358 0.567968 1.86441 0
M  V30 2804 H 252.454 -0.324913 3.10404 0
M  V30 2805 N 252.755 -1.56801 0.158532 0
M  V30 2806 C 253.703 -2.18638 -0.793729 0
M  V30 2807 C 254.697 -1.14669 -1.24689 0
M  V30 2808 O 255.903 -1.32895 -1.21403 0
M  V30 2809 H 252.278 -0.700226 -0.274204 0
M  V30 2810 H 254.249 -2.97367 -0.248095 0
M  V30 2811 C 252.998 -2.83139 -2.0181 0
M  V30 2812 H 252.321 -3.62863 -1.67841 0
M  V30 2813 H 253.761 -3.29894 -2.66357 0
M  V30 2814 C 252.22 -1.82244 -2.83353 0
M  V30 2815 O 252.75 -1.3 -3.80083 0
M  V30 2816 N 250.956 -1.51288 -2.48114 0
M  V30 2817 H 250.503 -1.93964 -1.69516 0
M  V30 2818 H 250.461 -0.840296 -3.02963 0
M  V30 2819 N 254.233 0.115231 -1.57178 0
M  V30 2820 C 255.143 1.15994 -2.03918 0
M  V30 2821 C 256.159 1.45103 -0.960268 0
M  V30 2822 O 257.335 1.56144 -1.27204 0
M  V30 2823 C 254.4 2.46568 -2.43732 0
M  V30 2824 C 253.461 2.24822 -3.65723 0
M  V30 2825 C 252.694 3.4917 -4.03629 0
M  V30 2826 O 252.917 4.56623 -3.41835 0
M  V30 2827 O 251.851 3.39949 -4.96708 0
M  V30 2828 H 255.677 0.793019 -2.93164 0
M  V30 2829 H 253.262 0.3263 -1.45793 0
M  V30 2830 H 255.144 3.23492 -2.70057 0
M  V30 2831 H 253.819 2.82726 -1.57631 0
M  V30 2832 H 252.726 1.45744 -3.44542 0
M  V30 2833 H 254.059 1.93566 -4.52541 0
M  V30 2834 N 255.711 1.52812 0.385517 0
M  V30 2835 C 256.958 1.68026 1.1302 0
M  V30 2836 C 257.286 0.421934 1.89868 0
M  V30 2837 O 256.541 -0.595749 1.86412 0
M  V30 2838 C 256.84 2.86856 2.13187 0
M  V30 2839 C 256.506 4.24159 1.5297 0
M  V30 2840 C 255.168 4.61501 1.36274 0
M  V30 2841 C 257.52 5.09627 1.09223 0
M  V30 2842 C 254.848 5.81966 0.743837 0
M  V30 2843 C 257.2 6.30719 0.487411 0
M  V30 2844 C 255.864 6.6679 0.307777 0
M  V30 2845 H 255.134 0.614849 0.413571 0
M  V30 2846 H 257.781 1.86962 0.414405 0
M  V30 2847 H 256.086 2.6235 2.90998 0
M  V30 2848 H 257.783 2.95821 2.70722 0
M  V30 2849 H 254.373 3.94746 1.66954 0
M  V30 2850 H 258.557 4.81343 1.20922 0
M  V30 2851 H 253.813 6.08519 0.592891 0
M  V30 2852 H 257.987 6.96259 0.140143 0
M  V30 2853 H 255.614 7.60001 -0.173879 0
M  V30 2854 N 257.189 -0.644168 1.43834 0
M  V30 2855 C 258.136 -1.75671 1.49694 0
M  V30 2856 C 259.106 -1.6246 0.345809 0
M  V30 2857 O 260.291 -1.82573 0.554234 0
M  V30 2858 C 257.431 -3.13867 1.43463 0
M  V30 2859 C 256.544 -3.38147 2.6885 0
M  V30 2860 C 255.679 -4.66241 2.54544 0
M  V30 2861 C 254.718 -4.83657 3.75157 0
M  V30 2862 N 253.855 -6.03016 3.59605 0
M  V30 2863 H 258.695 -1.69998 2.44754 0
M  V30 2864 H 256.232 -0.829458 1.21484 0
M  V30 2865 H 258.19 -3.9377 1.37843 0
M  V30 2866 H 256.82 -3.18588 0.519783 0
M  V30 2867 H 255.872 -2.52276 2.84712 0
M  V30 2868 H 257.184 -3.46899 3.58417 0
M  V30 2869 H 256.338 -5.54285 2.46683 0
M  V30 2870 H 255.077 -4.59826 1.62516 0
M  V30 2871 H 254.082 -3.94046 3.83416 0
M  V30 2872 H 255.307 -4.91896 4.68204 0
M  V30 2873 H 253.253 -5.97715 2.7032 0
M  V30 2874 H 253.17 -6.12766 4.42779 0
M  V30 2875 H 254.438 -6.93657 3.55613 0
M  V30 2876 N 258.668 -1.30515 -0.883378 0
M  V30 2877 C 259.616 -1.16941 -2.01066 0
M  V30 2878 C 260.61 -0.0809148 -1.69207 0
M  V30 2879 O 261.816 -0.241877 -1.78367 0
M  V30 2880 H 258.191 -0.361705 -0.659298 0
M  V30 2881 H 260.162 -2.12344 -2.09649 0
M  V30 2882 C 258.911 -0.879694 -3.36388 0
M  V30 2883 H 258.234 -1.70936 -3.61415 0
M  V30 2884 H 259.674 -0.82483 -4.159 0
M  V30 2885 C 258.133 0.417409 -3.34304 0
M  V30 2886 O 258.663 1.43843 -3.75063 0
M  V30 2887 N 256.869 0.429141 -2.87414 0
M  V30 2888 H 256.416 -0.402222 -2.5444 0
M  V30 2889 H 256.374 1.29696 -2.86403 0
M  V30 2890 N 260.146 1.09593 -1.13257 0
M  V30 2891 C 261.395 1.81105 -0.887917 0
M  V30 2892 C 261.708 1.86563 0.587672 0
M  V30 2893 O 262.914 2.54367 0.949204 0
M  V30 2894 C 261.37 3.25338 -1.53895 0
M  V30 2895 C 260.978 3.28151 -3.04994 0
M  V30 2896 C 262.722 4.01617 -1.37492 0
M  V30 2897 C 260.629 4.66897 -3.6299 0
M  V30 2898 H 259.559 0.678661 -0.328534 0
M  V30 2899 H 262.21 1.23183 -1.36008 0
M  V30 2900 H 260.592 3.8331 -0.994446 0
M  V30 2901 H 261.766 2.79953 -3.66009 0
M  V30 2902 H 260.081 2.65361 -3.20893 0
M  V30 2903 H 262.678 5.04119 -1.78235 0
M  V30 2904 H 263.021 4.15072 -0.31957 0
M  V30 2905 H 263.554 3.50082 -1.88912 0
M  V30 2906 H 260.293 4.58643 -4.68323 0
M  V30 2907 H 259.813 5.15426 -3.06752 0
M  V30 2908 H 261.492 5.3587 -3.62563 0
M  V30 2909 N 261.624 0.925811 1.2754 0
M  V30 2910 C 262.871 0.565255 1.94451 0
M  V30 2911 C 263.199 -0.89316 1.7278 0
M  V30 2912 O 262.454 -1.65213 1.04895 0
M  V30 2913 C 262.753 0.835296 3.47502 0
M  V30 2914 C 262.419 2.27515 3.89291 0
M  V30 2915 C 261.081 2.66879 4.00411 0
M  V30 2916 C 263.433 3.21158 4.10496 0
M  V30 2917 C 260.761 3.99014 4.30122 0
M  V30 2918 C 263.113 4.52871 4.4169 0
M  V30 2919 C 261.777 4.92072 4.51023 0
M  V30 2920 H 261.047 0.206841 0.711546 0
M  V30 2921 H 263.694 1.16942 1.51647 0
M  V30 2922 H 261.999 0.148442 3.91519 0
M  V30 2923 H 263.696 0.535322 3.97411 0
M  V30 2924 H 260.286 1.95976 3.81171 0
M  V30 2925 H 264.47 2.9195 4.01346 0
M  V30 2926 H 259.726 4.2907 4.35556 0
M  V30 2927 H 263.9 5.25436 4.57045 0
M  V30 2928 H 261.527 5.9449 4.738 0
M  V30 2929 N 263.102 -1.41638 0.69111 0
M  V30 2930 C 264.35 -2.00902 0.219758 0
M  V30 2931 C 264.671 -1.54994 -1.18329 0
M  V30 2932 O 263.941 -0.778628 -1.79762 0
M  V30 2933 H 262.521 -0.74289 0.0782558 0
M  V30 2934 H 265.183 -1.73327 0.891271 0
M  V30 2935 H 264.279 -3.11224 0.233708 0
M  V30 2936 N 264.58 -0.43555 -1.51462 0
M  V30 2937 C 265.808 0.130242 -2.0649 0
M  V30 2938 C 266.223 1.36614 -1.30315 0
M  V30 2939 O 265.58 1.78869 -0.362223 0
M  V30 2940 C 265.631 0.454253 -3.58635 0
M  V30 2941 O 265.352 -0.73259 -4.31931 0
M  V30 2942 C 266.853 1.07091 -4.3017 0
M  V30 2943 H 264.073 0.00871669 -0.670943 0
M  V30 2944 H 266.617 -0.614117 -1.95061 0
M  V30 2945 H 264.772 1.14851 -3.69984 0
M  V30 2946 H 265.186 -0.455787 -5.22516 0
M  V30 2947 H 266.66 1.24764 -5.37716 0
M  V30 2948 H 267.137 2.05144 -3.88346 0
M  V30 2949 H 267.743 0.416089 -4.2326 0
M  V30 2950 N 266.058 1.56714 -0.166846 0
M  V30 2951 C 267.469 1.83378 0.350646 0
M  V30 2952 C 267.82 1.08646 1.63372 0
M  V30 2953 O 266.945 0.338058 2.13743 0
M  V30 2954 C 267.54 3.32643 0.642963 0
M  V30 2955 C 266.099 3.59818 1.10491 0
M  V30 2956 C 265.246 2.76954 0.138411 0
M  V30 2957 H 268.197 1.53803 -0.391193 0
M  V30 2958 H 268.218 3.49878 1.49551 0
M  V30 2959 H 267.73 3.87007 -0.291055 0
M  V30 2960 H 265.831 3.1086 2.05418 0
M  V30 2961 H 265.944 4.68178 1.01716 0
M  V30 2962 H 264.308 2.4666 0.634911 0
M  V30 2963 H 265.091 3.34097 -0.789549 0
M  V30 2964 N 267.536 -0.106894 1.57237 0
M  V30 2965 C 268.446 -1.14911 2.0453 0
M  V30 2966 C 269.462 -1.44592 0.96795 0
M  V30 2967 O 270.638 -1.55468 1.2803 0
M  V30 2968 C 267.703 -2.45272 2.45036 0
M  V30 2969 C 266.764 -2.22879 3.66911 0
M  V30 2970 C 265.997 -3.47024 4.05475 0
M  V30 2971 O 266.22 -4.54804 3.44252 0
M  V30 2972 O 265.154 -3.3731 4.98504 0
M  V30 2973 H 268.98 -0.777461 2.9358 0
M  V30 2974 H 266.565 -0.318563 1.45964 0
M  V30 2975 H 268.447 -3.22055 2.71769 0
M  V30 2976 H 267.122 -2.81886 1.59129 0
M  V30 2977 H 266.029 -1.43915 3.45311 0
M  V30 2978 H 267.362 -1.91163 4.53561 0
M  V30 2979 N 269.014 -1.53014 -0.377408 0
M  V30 2980 C 270.261 -1.68623 -1.12128 0
M  V30 2981 C 270.589 -0.431997 -1.89642 0
M  V30 2982 O 269.844 0.585855 -1.86725 0
M  V30 2983 C 270.143 -2.87982 -2.11663 0
M  V30 2984 C 269.809 -4.24964 -1.50719 0
M  V30 2985 C 268.471 -4.62217 -1.33825 0
M  V30 2986 C 270.823 -5.10199 -1.06519 0
M  V30 2987 C 268.151 -5.82352 -0.712963 0
M  V30 2988 C 270.503 -6.30969 -0.453955 0
M  V30 2989 C 269.167 -6.66944 -0.272411 0
M  V30 2990 H 268.437 -0.617034 -0.410305 0
M  V30 2991 H 271.084 -1.8718 -0.404484 0
M  V30 2992 H 269.389 -2.63889 -2.89603 0
M  V30 2993 H 271.086 -2.97253 -2.6915 0
M  V30 2994 H 267.676 -3.95626 -1.64858 0
M  V30 2995 H 271.86 -4.81978 -1.18368 0
M  V30 2996 H 267.116 -6.08824 -0.560611 0
M  V30 2997 H 271.29 -6.96324 -0.103217 0
M  V30 2998 H 268.917 -7.59898 0.214181 0
M  V30 2999 N 270.492 0.636531 -1.44174 0
M  V30 3000 C 271.738 1.39826 -1.4689 0
M  V30 3001 C 272.071 1.93947 -0.0990585 0
M  V30 3002 O 271.346 1.73325 0.882544 0
M  V30 3003 C 271.629 2.56751 -2.5249 0
M  V30 3004 C 271.482 2.08014 -3.98811 0
M  V30 3005 C 272.801 3.58946 -2.54649 0
M  V30 3006 H 269.92 0.507075 -0.53483 0
M  V30 3007 H 272.562 0.720188 -1.75822 0
M  V30 3008 H 270.712 3.14597 -2.2795 0
M  V30 3009 H 272.384 1.5504 -4.34466 0
M  V30 3010 H 270.627 1.39242 -4.10846 0
M  V30 3011 H 271.298 2.92169 -4.68339 0
M  V30 3012 H 273.774 3.1089 -2.76563 0
M  V30 3013 H 272.65 4.38286 -3.3045 0
M  V30 3014 H 272.911 4.12655 -1.58646 0
M  V30 3015 N 271.97 1.30982 0.876444 0
M  V30 3016 C 272.933 1.18054 1.96459 0
M  V30 3017 C 273.933 0.109399 1.60427 0
M  V30 3018 O 275.123 0.358173 1.70478 0
M  V30 3019 C 272.255 0.810616 3.31122 0
M  V30 3020 H 273.448 2.14735 2.09354 0
M  V30 3021 H 271.001 1.145 1.06392 0
M  V30 3022 H 271.736 -0.155322 3.23928 0
M  V30 3023 H 271.521 1.58481 3.58645 0
M  V30 3024 H 273.011 0.743876 4.10921 0
M  V30 3025 N 273.449 -1.08991 1.13837 0
M  V30 3026 C 274.86 -1.62746 0.914917 0
M  V30 3027 C 275.211 -1.88403 -0.547594 0
M  V30 3028 O 274.336 -1.63706 -1.41525 0
M  V30 3029 C 274.931 -2.95662 1.65437 0
M  V30 3030 C 273.49 -3.46225 1.47666 0
M  V30 3031 C 272.637 -2.20562 1.6807 0
M  V30 3032 H 275.588 -0.922946 1.29102 0
M  V30 3033 H 275.609 -3.63825 1.11407 0
M  V30 3034 H 275.121 -2.76956 2.71877 0
M  V30 3035 H 273.222 -3.70046 0.435478 0
M  V30 3036 H 273.335 -4.23368 2.24268 0
M  V30 3037 H 271.699 -2.29439 1.10589 0
M  V30 3038 H 272.482 -2.0437 2.7584 0
M  V30 3039 N 274.927 -0.932562 -1.27047 0
M  V30 3040 C 275.837 -0.441219 -2.30414 0
M  V30 3041 C 276.853 0.480525 -1.67233 0
M  V30 3042 O 278.029 0.362151 -1.98117 0
M  V30 3043 C 275.094 0.293651 -3.45454 0
M  V30 3044 C 274.155 -0.663601 -4.2414 0
M  V30 3045 C 273.388 0.0362932 -5.33688 0
M  V30 3046 O 273.611 1.2548 -5.56427 0
M  V30 3047 O 272.545 -0.638015 -5.98509 0
M  V30 3048 H 276.371 -1.29962 -2.74488 0
M  V30 3049 H 273.956 -0.6981 -1.32087 0
M  V30 3050 H 275.838 0.707951 -4.15411 0
M  V30 3051 H 274.513 1.12758 -3.03426 0
M  V30 3052 H 273.42 -1.12768 -3.56699 0
M  V30 3053 H 274.753 -1.46489 -4.69896 0
M  V30 3054 N 276.405 1.4127 -0.698611 0
M  V30 3055 C 277.654 2.00408 -0.227949 0
M  V30 3056 C 277.967 1.55981 1.18023 0
M  V30 3057 O 279.173 2.07699 1.74852 0
M  V30 3058 C 277.629 3.58129 -0.356636 0
M  V30 3059 C 277.237 4.11536 -1.77037 0
M  V30 3060 C 278.981 4.24466 0.0540969 0
M  V30 3061 C 276.888 5.61701 -1.85055 0
M  V30 3062 H 275.818 0.749586 -0.0814657 0
M  V30 3063 H 278.469 1.61713 -0.867249 0
M  V30 3064 H 276.851 3.94442 0.350965 0
M  V30 3065 H 278.025 3.86636 -2.50698 0
M  V30 3066 H 276.34 3.57736 -2.13105 0
M  V30 3067 H 278.937 5.34698 0.0146723 0
M  V30 3068 H 279.28 4.01687 1.09332 0
M  V30 3069 H 279.813 3.93198 -0.603337 0
M  V30 3070 H 276.552 5.89312 -2.8704 0
M  V30 3071 H 276.072 5.88519 -1.15783 0
M  V30 3072 H 277.751 6.26524 -1.61484 0
M  V30 3073 N 277.883 0.443576 1.51229 0
M  V30 3074 C 279.129 -0.120975 2.02439 0
M  V30 3075 C 279.462 -1.41815 1.32674 0
M  V30 3076 O 278.737 -1.89373 0.443622 0
M  V30 3077 C 279.02 -0.333291 3.58554 0
M  V30 3078 C 278.873 0.982968 4.38928 0
M  V30 3079 C 280.192 -1.10028 4.26124 0
M  V30 3080 H 277.311 -0.0424923 0.735774 0
M  V30 3081 H 279.953 0.583794 1.80809 0
M  V30 3082 H 278.103 -0.933614 3.77115 0
M  V30 3083 H 279.775 1.61775 4.32003 0
M  V30 3084 H 278.018 1.58611 4.03763 0
M  V30 3085 H 278.689 0.788379 5.46341 0
M  V30 3086 H 281.165 -0.591711 4.11871 0
M  V30 3087 H 280.041 -1.21761 5.35225 0
M  V30 3088 H 280.302 -2.12996 3.87408 0
M  V30 3089 N 279.361 -1.56624 0.175154 0
M  V30 3090 C 280.309 -2.19468 -0.770495 0
M  V30 3091 C 281.303 -1.15985 -1.23466 0
M  V30 3092 O 282.509 -1.34176 -1.19987 0
M  V30 3093 H 278.884 -0.703095 -0.266761 0
M  V30 3094 H 280.855 -2.97613 -0.216542 0
M  V30 3095 C 279.604 -2.85264 -1.98796 0
M  V30 3096 H 278.927 -3.64623 -1.63983 0
M  V30 3097 H 280.367 -3.327 -2.62843 0
M  V30 3098 C 278.826 -1.85239 -2.81404 0
M  V30 3099 O 279.356 -1.34024 -3.78682 0
M  V30 3100 N 277.562 -1.53911 -2.46495 0
M  V30 3101 H 277.109 -1.95751 -1.67449 0
M  V30 3102 H 277.067 -0.872382 -3.02054 0
M  V30 3103 N 280.839 0.0985539 -1.57292 0
M  V30 3104 C 282.069 0.815135 -1.8984 0
M  V30 3105 C 282.477 1.7297 -0.766679 0
M  V30 3106 O 281.82 1.81698 0.270483 0
M  V30 3107 C 281.882 1.6842 -3.17608 0
M  V30 3108 C 281.546 0.94182 -4.4719 0
M  V30 3109 C 282.543 0.273212 -5.19182 0
M  V30 3110 C 280.228 0.916927 -4.9386 0
M  V30 3111 C 282.222 -0.410361 -6.36078 0
M  V30 3112 C 279.909 0.229567 -6.10669 0
M  V30 3113 C 280.907 -0.432902 -6.81627 0
M  V30 3114 O 280.595 -1.10925 -7.9621 0
M  V30 3115 H 280.327 0.238501 -0.632529 0
M  V30 3116 H 282.881 0.0812659 -2.05239 0
M  V30 3117 H 281.111 2.46022 -2.98345 0
M  V30 3118 H 282.8 2.27704 -3.36015 0
M  V30 3119 H 283.566 0.283927 -4.84168 0
M  V30 3120 H 279.445 1.42201 -4.3852 0
M  V30 3121 H 282.989 -0.928013 -6.914 0
M  V30 3122 H 278.886 0.216686 -6.45136 0
M  V30 3123 H 279.654 -1.01579 -8.12172 0
M  V30 3124 N 282.317 1.53212 0.369288 0
M  V30 3125 C 283.227 1.82342 1.47609 0
M  V30 3126 C 284.243 0.711532 1.58787 0
M  V30 3127 O 285.419 1.0012 1.74751 0
M  V30 3128 C 282.484 2.00393 2.8292 0
M  V30 3129 C 281.545 3.24297 2.81301 0
M  V30 3130 C 280.778 3.41478 4.10157 0
M  V30 3131 O 281.001 2.63033 5.06132 0
M  V30 3132 O 279.935 4.34817 4.16194 0
M  V30 3133 H 283.761 2.76366 1.25918 0
M  V30 3134 H 281.346 1.38547 0.559034 0
M  V30 3135 H 283.228 2.13859 3.63101 0
M  V30 3136 H 281.903 1.09559 3.04596 0
M  V30 3137 H 280.81 3.16257 1.99831 0
M  V30 3138 H 282.143 4.15041 2.64578 0
M  V30 3139 N 283.795 -0.628877 1.44509 0
M  V30 3140 C 285.206 -1.21054 1.42137 0
M  V30 3141 C 285.557 -1.95715 0.137881 0
M  V30 3142 O 284.682 -2.02554 -0.761645 0
M  V30 3143 C 285.277 -2.20189 2.57493 0
M  V30 3144 C 283.836 -2.73777 2.58308 0
M  V30 3145 C 282.983 -1.48813 2.33987 0
M  V30 3146 H 285.934 -0.41942 1.53057 0
M  V30 3147 H 285.955 -3.02833 2.30375 0
M  V30 3148 H 285.467 -1.6582 3.50892 0
M  V30 3149 H 283.568 -3.32142 1.68856 0
M  V30 3150 H 283.681 -3.19662 3.56865 0
M  V30 3151 H 282.045 -1.77024 1.83124 0
M  V30 3152 H 282.828 -0.963442 3.29504 0
M  V30 3153 N 285.273 -1.31445 -0.869486 0
M  V30 3154 C 286.203 -1.21727 -1.99261 0
M  V30 3155 C 287.184 -0.104359 -1.6978 0
M  V30 3156 O 288.369 -0.289038 -1.92037 0
M  V30 3157 C 285.499 -0.924317 -3.34774 0
M  V30 3158 C 284.453 -1.99685 -3.78563 0
M  V30 3159 C 283.779 -1.55658 -5.11541 0
M  V30 3160 C 285.079 -3.41003 -3.95619 0
M  V30 3161 H 286.773 -2.1569 -2.07649 0
M  V30 3162 H 284.319 -1.03839 -0.997675 0
M  V30 3163 H 286.272 -0.842934 -4.12883 0
M  V30 3164 H 284.996 0.0509793 -3.2656 0
M  V30 3165 H 283.655 -2.06813 -3.02694 0
M  V30 3166 H 283.303 -0.569132 -4.9977 0
M  V30 3167 H 283.003 -2.27409 -5.41811 0
M  V30 3168 H 284.527 -1.48928 -5.92159 0
M  V30 3169 H 285.941 -3.36547 -4.64122 0
M  V30 3170 H 284.338 -4.10975 -4.37286 0
M  V30 3171 H 285.408 -3.81754 -2.98985 0
M  V30 3172 N 286.751 1.08385 -1.14413 0
M  V30 3173 C 287.999 1.80419 -0.910679 0
M  V30 3174 C 288.32 1.86658 0.564243 0
M  V30 3175 O 287.59 1.35985 1.41014 0
M  V30 3176 H 286.17 0.668204 -0.333934 0
M  V30 3177 H 288.832 1.31037 -1.44275 0
M  V30 3178 H 287.928 2.83238 -1.31082 0
M  V30 3179 N 288.23 0.939286 1.26551 0
M  V30 3180 C 289.16 0.465044 2.28822 0
M  V30 3181 C 290.141 -0.480692 1.63167 0
M  V30 3182 O 291.326 -0.382955 1.90387 0
M  V30 3183 C 288.456 -0.27234 3.46231 0
M  V30 3184 C 287.41 0.58666 4.2396 0
M  V30 3185 C 286.736 -0.280573 5.33963 0
M  V30 3186 C 288.036 1.85704 4.88171 0
M  V30 3187 H 289.73 1.31979 2.68741 0
M  V30 3188 H 287.276 0.636061 1.29191 0
M  V30 3189 H 289.229 -0.615133 4.16886 0
M  V30 3190 H 287.953 -1.16121 3.0526 0
M  V30 3191 H 286.612 0.91232 3.55067 0
M  V30 3192 H 286.26 -1.16874 4.89234 0
M  V30 3193 H 285.96 0.29076 5.8688 0
M  V30 3194 H 287.484 -0.618678 6.07458 0
M  V30 3195 H 288.898 1.58161 5.51052 0
M  V30 3196 H 287.295 2.37279 5.51197 0
M  V30 3197 H 288.365 2.56957 4.11219 0
M  V30 3198 N 289.708 -1.40897 0.706093 0
M  V30 3199 C 290.618 -2.3455 0.0482286 0
M  V30 3200 C 291.634 -1.56796 -0.754396 0
M  V30 3201 O 292.81 -1.89228 -0.689538 0
M  V30 3202 C 289.875 -3.35625 -0.869303 0
M  V30 3203 C 288.936 -4.29261 -0.0576994 0
M  V30 3204 C 288.169 -5.25508 -0.931531 0
M  V30 3205 O 288.392 -5.27472 -2.17092 0
M  V30 3206 O 287.326 -6.00727 -0.375587 0
M  V30 3207 H 291.152 -2.92407 0.820476 0
M  V30 3208 H 288.737 -1.4193 0.4665 0
M  V30 3209 H 290.619 -3.97635 -1.39514 0
M  V30 3210 H 289.294 -2.80196 -1.62086 0
M  V30 3211 H 288.201 -3.70566 0.512988 0
M  V30 3212 H 289.534 -4.87817 0.655426 0
M  V30 3213 N 291.186 -0.45159 -1.50991 0
M  V30 3214 C 292.149 0.341117 -2.26647 0
M  V30 3215 C 293.149 0.937422 -1.30649 0
M  V30 3216 O 294.339 0.809644 -1.54241 0
M  V30 3217 C 291.471 1.48398 -3.06905 0
M  V30 3218 H 292.664 -0.322117 -2.98165 0
M  V30 3219 H 290.217 -0.205122 -1.54948 0
M  V30 3220 H 290.952 2.18284 -2.39838 0
M  V30 3221 H 290.737 1.06241 -3.77432 0
M  V30 3222 H 292.227 2.04367 -3.64176 0
M  V30 3223 N 292.664 1.56529 -0.183458 0
M  V30 3224 C 293.941 1.88959 0.50536 0
M  V30 3225 C 294.321 1.09523 1.80466 0
M  V30 3226 O 293.669 0.19278 2.27685 0
M  V30 3227 C 293.879 3.41162 0.73547 0
M  V30 3228 C 295.227 4.11155 1.06005 0
M  V30 3229 O 296.251 3.46548 0.823594 0
M  V30 3230 O 295.11 5.25318 1.50675 0
M  V30 3231 H 292.204 0.78441 0.261973 0
M  V30 3232 H 294.75 1.68231 -0.222802 0
M  V30 3233 H 293.522 3.90874 -0.182561 0
M  V30 3234 H 293.145 3.67543 1.51651 0
M  V30 3235 N 294.142 -0.090211 1.57342 0
M  V30 3236 C 295.075 -1.14035 1.97664 0
M  V30 3237 C 296.053 -1.38576 0.850616 0
M  V30 3238 O 297.237 -1.52255 1.11134 0
M  V30 3239 C 294.364 -2.48854 2.2976 0
M  V30 3240 C 293.41 -2.40564 3.52181 0
M  V30 3241 S 294.243 -1.81745 5.03715 0
M  V30 3242 C 295.399 -3.18178 5.38993 0
M  V30 3243 H 295.632 -0.796636 2.86428 0
M  V30 3244 H 293.165 -0.298072 1.51496 0
M  V30 3245 H 295.123 -3.26413 2.48927 0
M  V30 3246 H 293.784 -2.80393 1.41558 0
M  V30 3247 H 292.977 -3.39942 3.72096 0
M  V30 3248 H 292.579 -1.71135 3.32549 0
M  V30 3249 H 294.871 -4.14461 5.35937 0
M  V30 3250 H 295.814 -3.03062 6.39968 0
M  V30 3251 H 296.222 -3.17935 4.66452 0
M  V30 3252 N 295.62 -1.53406 -0.361157 0
M  V30 3253 C 296.866 -1.70999 -1.1014 0
M  V30 3254 C 297.221 -0.458425 -1.86859 0
M  V30 3255 O 296.514 0.548654 -1.83577 0
M  V30 3256 C 296.708 -2.90211 -2.08596 0
M  V30 3257 C 296.537 -4.26841 -1.41553 0
M  V30 3258 C 295.307 -4.91621 -1.16778 0
M  V30 3259 C 297.505 -5.07212 -0.850915 0
M  V30 3260 N 295.487 -6.12164 -0.461312 0
M  V30 3261 C 296.858 -6.19394 -0.274046 0
M  V30 3262 C 298.913 -4.92218 -0.750036 0
M  V30 3263 C 297.616 -7.18221 0.393868 0
M  V30 3264 C 299.642 -5.91322 -0.095894 0
M  V30 3265 C 299.004 -7.0283 0.470081 0
M  V30 3266 H 295.103 -0.678939 -0.388028 0
M  V30 3267 H 297.687 -1.90811 -0.38722 0
M  V30 3268 H 295.858 -2.71931 -2.77323 0
M  V30 3269 H 297.59 -2.96606 -2.7533 0
M  V30 3270 H 294.345 -4.50849 -1.45024 0
M  V30 3271 H 294.769 -6.76888 -0.123312 0
M  V30 3272 H 299.411 -4.06192 -1.17337 0
M  V30 3273 H 297.129 -8.03835 0.82914 0
M  V30 3274 H 300.715 -5.81797 -0.0187075 0
M  V30 3275 H 299.595 -7.782 0.968241 0
M  V30 3276 N 297.098 0.621204 -1.44841 0
M  V30 3277 C 298.323 1.41244 -1.51871 0
M  V30 3278 C 298.748 1.87519 -0.147764 0
M  V30 3279 O 298.106 1.59334 0.865 0
M  V30 3280 C 298.154 2.60221 -2.49634 0
M  V30 3281 O 297.258 3.60395 -2.00473 0
M  V30 3282 H 296.599 0.42223 -0.512463 0
M  V30 3283 H 299.129 0.757305 -1.90069 0
M  V30 3284 H 299.139 3.0764 -2.67996 0
M  V30 3285 H 297.814 2.25887 -3.4921 0
M  V30 3286 H 296.391 3.19717 -1.91925 0
M  V30 3287 N 298.576 1.31904 0.862503 0
M  V30 3288 C 299.825 1.21373 1.61094 0
M  V30 3289 C 300.138 -0.22504 1.94301 0
M  V30 3290 O 301.344 -0.452121 2.67709 0
M  V30 3291 C 299.8 2.12525 2.9045 0
M  V30 3292 C 299.408 3.61441 2.64697 0
M  V30 3293 C 301.152 2.10813 3.68454 0
M  V30 3294 C 299.059 4.44578 3.90006 0
M  V30 3295 H 297.989 0.450705 0.604468 0
M  V30 3296 H 300.64 1.56811 0.953027 0
M  V30 3297 H 299.022 1.69994 3.57656 0
M  V30 3298 H 300.196 4.12264 2.05851 0
M  V30 3299 H 298.511 3.65205 2.00036 0
M  V30 3300 H 301.108 2.70167 4.61426 0
M  V30 3301 H 301.451 1.09713 4.01583 0
M  V30 3302 H 301.984 2.51583 3.08141 0
M  V30 3303 H 298.723 5.46461 3.62023 0
M  V30 3304 H 298.243 3.98508 4.48276 0
M  V30 3305 H 299.922 4.57176 4.5782 0
M  V30 3306 N 300.054 -1.07777 1.14986 0
M  V30 3307 C 301.302 -1.79934 0.920235 0
M  V30 3308 C 301.623 -1.86955 -0.554336 0
M  V30 3309 O 300.893 -1.36731 -1.40291 0
M  V30 3310 H 299.473 -0.666424 0.337473 0
M  V30 3311 H 302.135 -1.3027 1.44968 0
M  V30 3312 H 301.231 -2.82539 1.32583 0
M  V30 3313 N 301.532 -0.945985 -1.26051 0
M  V30 3314 C 302.778 -0.597002 -1.93814 0
M  V30 3315 C 303.111 0.862484 -1.73997 0
M  V30 3316 O 302.386 1.61769 -1.07986 0
M  V30 3317 C 302.669 -0.945937 -3.47454 0
M  V30 3318 C 302.522 -2.46052 -3.76535 0
M  V30 3319 C 303.841 -0.464785 -4.37639 0
M  V30 3320 H 300.96 -0.218366 -0.703907 0
M  V30 3321 H 303.602 -1.18107 -1.48831 0
M  V30 3322 H 301.752 -0.448902 -3.85898 0
M  V30 3323 H 303.424 -3.03065 -3.47778 0
M  V30 3324 H 301.667 -2.90194 -3.22444 0
M  V30 3325 H 302.338 -2.65517 -4.83947 0
M  V30 3326 H 304.814 -0.891016 -4.06448 0
M  V30 3327 H 303.69 -0.737712 -5.4392 0
M  V30 3328 H 303.951 0.635274 -4.37512 0
M  V30 3329 N 303.011 1.40521 -0.713556 0
M  V30 3330 C 304.26 2.00155 -0.249192 0
M  V30 3331 C 304.573 1.57224 1.16362 0
M  V30 3332 O 305.779 2.09542 1.72639 0
M  V30 3333 C 304.235 3.5773 -0.3946 0
M  V30 3334 C 303.843 4.09635 -1.81392 0
M  V30 3335 C 305.587 4.24499 0.00907364 0
M  V30 3336 C 303.494 5.59707 -1.91003 0
M  V30 3337 H 302.424 0.74868 -0.0894114 0
M  V30 3338 H 305.075 1.60784 -0.884352 0
M  V30 3339 H 303.457 3.94792 0.30911 0
M  V30 3340 H 304.631 3.83955 -2.54785 0
M  V30 3341 H 302.946 3.55456 -2.16888 0
M  V30 3342 H 305.543 5.34683 -0.0420404 0
M  V30 3343 H 305.886 4.02824 1.05065 0
M  V30 3344 H 306.419 3.92536 -0.645007 0
M  V30 3345 H 303.158 5.86234 -2.93275 0
M  V30 3346 H 302.678 5.87258 -1.22019 0
M  V30 3347 H 304.357 6.24776 -1.6812 0
M  V30 3348 N 304.489 0.459591 1.5075 0
M  V30 3349 C 305.717 -0.0973749 2.06671 0
M  V30 3350 C 306.132 -1.34524 1.32472 0
M  V30 3351 O 305.489 -1.7827 0.390634 0
M  V30 3352 C 305.54 -0.39714 3.59312 0
M  V30 3353 O 305.261 0.801214 4.30711 0
M  V30 3354 C 306.762 -1.00234 4.31819 0
M  V30 3355 H 303.982 0.00195854 0.670997 0
M  V30 3356 H 306.526 0.645072 1.94059 0
M  V30 3357 H 304.681 -1.08951 3.71764 0
M  V30 3358 H 305.095 0.538857 5.21725 0
M  V30 3359 H 306.569 -1.16193 5.39632 0
M  V30 3360 H 307.046 -1.98939 3.91561 0
M  V30 3361 H 307.652 -0.348699 4.23868 0
M  V30 3362 N 305.967 -1.56429 0.191757 0
M  V30 3363 C 307.197 -2.01574 -0.452928 0
M  V30 3364 C 307.605 -1.07107 -1.55964 0
M  V30 3365 O 306.948 -0.067534 -1.83576 0
M  V30 3366 C 307.01 -3.43121 -1.07278 0
M  V30 3367 C 306.674 -4.56879 -0.105214 0
M  V30 3368 C 307.671 -5.15379 0.684149 0
M  V30 3369 C 305.356 -5.023 0.00489824 0
M  V30 3370 C 307.35 -6.17746 1.57062 0
M  V30 3371 C 305.037 -6.04511 0.894935 0
M  V30 3372 C 306.035 -6.62108 1.67637 0
M  V30 3373 O 305.723 -7.62335 2.55149 0
M  V30 3374 H 305.455 -0.665554 -0.118379 0
M  V30 3375 H 308.009 -2.03245 0.296737 0
M  V30 3376 H 306.239 -3.38425 -1.87097 0
M  V30 3377 H 307.928 -3.72093 -1.62177 0
M  V30 3378 H 308.694 -4.81157 0.609365 0
M  V30 3379 H 304.573 -4.57168 -0.593156 0
M  V30 3380 H 308.117 -6.6263 2.181 0
M  V30 3381 H 304.014 -6.38157 0.970847 0
M  V30 3382 H 304.782 -7.79741 2.48892 0
M  V30 3383 N 307.445 0.0818655 -1.57387 0
M  V30 3384 C 308.694 0.781681 -1.85937 0
M  V30 3385 C 309.007 1.79246 -0.782957 0
M  V30 3386 O 310.213 2.54112 -0.955987 0
M  V30 3387 C 308.669 1.44109 -3.29789 0
M  V30 3388 C 308.277 0.469396 -4.45534 0
M  V30 3389 C 310.021 2.12386 -3.67549 0
M  V30 3390 C 307.928 1.13415 -5.80423 0
M  V30 3391 H 306.858 0.295682 -0.693605 0
M  V30 3392 H 309.509 0.0348051 -1.83467 0
M  V30 3393 H 307.891 2.23588 -3.2684 0
M  V30 3394 H 309.065 -0.294856 -4.59856 0
M  V30 3395 H 307.38 -0.108383 -4.16259 0
M  V30 3396 H 309.977 2.62878 -4.65617 0
M  V30 3397 H 310.32 2.91877 -2.96839 0
M  V30 3398 H 310.853 1.39751 -3.72444 0
M  V30 3399 H 307.592 0.379771 -6.54399 0
M  V30 3400 H 307.112 1.8695 -5.69921 0
M  V30 3401 H 308.791 1.65686 -6.25426 0
M  V30 3402 N 308.923 1.53595 0.353017 0
M  V30 3403 C 309.853 1.83902 1.43883 0
M  V30 3404 C 310.834 0.693421 1.55324 0
M  V30 3405 O 312.019 0.944452 1.69687 0
M  V30 3406 C 309.149 2.04016 2.8106 0
M  V30 3407 C 308.103 3.19814 2.84434 0
M  V30 3408 C 307.429 3.25244 4.24406 0
M  V30 3409 C 308.729 4.58133 2.50822 0
M  V30 3410 H 310.423 2.74835 1.1877 0
M  V30 3411 H 307.969 1.32242 0.569917 0
M  V30 3412 H 309.922 2.238 3.57059 0
M  V30 3413 H 308.646 1.09804 3.07588 0
M  V30 3414 H 307.305 2.9987 2.10887 0
M  V30 3415 H 306.953 2.28646 4.48029 0
M  V30 3416 H 306.653 4.03054 4.27576 0
M  V30 3417 H 308.177 3.47228 5.0226 0
M  V30 3418 H 309.591 4.77995 3.16534 0
M  V30 3419 H 307.988 5.38276 2.6529 0
M  V30 3420 H 309.058 4.62387 1.46034 0
M  V30 3421 N 310.401 -0.613514 1.45168 0
M  V30 3422 C 311.331 -1.7354 1.56225 0
M  V30 3423 C 312.312 -1.64981 0.41414 0
M  V30 3424 O 313.497 -1.83472 0.636526 0
M  V30 3425 C 310.627 -3.12128 1.52295 0
M  V30 3426 C 309.581 -3.35491 2.65762 0
M  V30 3427 C 308.907 -4.74291 2.46885 0
M  V30 3428 C 310.207 -3.26325 4.0781 0
M  V30 3429 H 311.901 -1.64543 2.50132 0
M  V30 3430 H 309.447 -0.790185 1.20383 0
M  V30 3431 H 311.4 -3.90404 1.58628 0
M  V30 3432 H 310.124 -3.2195 0.549139 0
M  V30 3433 H 308.783 -2.59603 2.58847 0
M  V30 3434 H 308.431 -4.80839 1.47657 0
M  V30 3435 H 308.131 -4.9088 3.22972 0
M  V30 3436 H 309.655 -5.54775 2.55063 0
M  V30 3437 H 311.069 -3.94483 4.16 0
M  V30 3438 H 309.466 -3.54445 4.8424 0
M  V30 3439 H 310.536 -2.23855 4.30136 0
M  V30 3440 N 311.879 -1.3236 -0.855495 0
M  V30 3441 C 313.104 -1.2601 -1.64731 0
M  V30 3442 C 313.529 0.169068 -1.87339 0
M  V30 3443 O 312.887 1.12016 -1.42556 0
M  V30 3444 C 312.935 -2.02417 -2.98429 0
M  V30 3445 O 312.039 -1.3714 -3.8893 0
M  V30 3446 H 311.38 -0.434325 -0.502253 0
M  V30 3447 H 313.91 -1.74661 -1.06558 0
M  V30 3448 H 313.92 -2.12559 -3.48257 0
M  V30 3449 H 312.595 -3.06343 -2.81295 0
M  V30 3450 H 311.172 -1.3554 -3.47395 0
M  V30 3451 N 313.357 1.07166 -1.15556 0
M  V30 3452 C 314.605 1.79443 -0.929764 0
M  V30 3453 C 314.926 1.87246 0.544414 0
M  V30 3454 O 314.196 1.37473 1.39564 0
M  V30 3455 H 312.776 0.664625 -0.341003 0
M  V30 3456 H 315.438 1.29499 -1.45657 0
M  V30 3457 H 314.534 2.81832 -1.34079 0
M  V30 3458 N 314.835 0.952656 1.25548 0
M  V30 3459 C 315.798 0.475794 2.24207 0
M  V30 3460 C 316.798 -0.419428 1.55234 0
M  V30 3461 O 317.988 -0.216994 1.72843 0
M  V30 3462 C 315.12 -0.312814 3.39462 0
M  V30 3463 H 316.313 1.34779 2.67908 0
M  V30 3464 H 313.866 0.735739 1.37901 0
M  V30 3465 H 314.601 -1.20257 3.01179 0
M  V30 3466 H 314.386 0.329404 3.90714 0
M  V30 3467 H 315.876 -0.635986 4.12729 0
M  V30 3468 N 316.313 -1.40141 0.720998 0
M  V30 3469 C 317.538 -2.05618 0.271258 0
M  V30 3470 C 317.963 -1.53978 -1.08039 0
M  V30 3471 O 317.321 -0.677463 -1.68167 0
M  V30 3472 C 317.369 -3.59609 0.267197 0
M  V30 3473 O 316.473 -4.05526 -0.749814 0
M  V30 3474 H 315.814 -0.651904 0.126162 0
M  V30 3475 H 318.344 -1.79439 0.982997 0
M  V30 3476 H 318.354 -4.0786 0.106744 0
M  V30 3477 H 317.029 -3.96559 1.25354 0
M  V30 3478 H 315.606 -3.68722 -0.556644 0
M  V30 3479 N 317.792 -0.46758 -1.50504 0
M  V30 3480 C 319.203 -0.0116166 -1.86696 0
M  V30 3481 C 319.554 1.39202 -1.38265 0
M  V30 3482 O 318.679 2.0313 -0.746132 0
M  V30 3483 C 319.274 -0.0143044 -3.38797 0
M  V30 3484 C 317.833 0.386175 -3.74414 0
M  V30 3485 C 316.98 -0.401287 -2.74381 0
M  V30 3486 H 319.931 -0.682022 -1.43297 0
M  V30 3487 H 319.952 0.788641 -3.72237 0
M  V30 3488 H 319.464 -1.03602 -3.74016 0
M  V30 3489 H 317.565 1.41237 -3.44794 0
M  V30 3490 H 317.678 0.0899596 -4.79016 0
M  V30 3491 H 316.042 0.144536 -2.5429 0
M  V30 3492 H 316.825 -1.42244 -3.12444 0
M  V30 3493 N 319.27 1.56325 -0.20005 0
M  V30 3494 C 320.517 1.97719 0.437411 0
M  V30 3495 C 320.845 1.08709 1.61284 0
M  V30 3496 O 320.1 0.127261 1.95286 0
M  V30 3497 C 320.399 3.4495 0.935103 0
M  V30 3498 C 320.065 4.5072 -0.12749 0
M  V30 3499 C 318.727 4.79368 -0.419451 0
M  V30 3500 C 321.079 5.14268 -0.847231 0
M  V30 3501 C 318.407 5.68854 -1.43604 0
M  V30 3502 C 320.759 6.04852 -1.85301 0
M  V30 3503 C 319.423 6.31855 -2.15211 0
M  V30 3504 H 318.693 0.723507 0.16006 0
M  V30 3505 H 321.34 1.89166 -0.298056 0
M  V30 3506 H 319.645 3.50599 1.74894 0
M  V30 3507 H 321.342 3.74337 1.43781 0
M  V30 3508 H 317.932 4.28458 0.11023 0
M  V30 3509 H 322.116 4.92222 -0.634901 0
M  V30 3510 H 317.372 5.88047 -1.67364 0
M  V30 3511 H 321.546 6.53152 -2.41591 0
M  V30 3512 H 319.173 7.00994 -2.94129 0
M  V30 3513 N 320.748 -0.0735177 1.57428 0
M  V30 3514 C 321.678 -1.0879 2.06608 0
M  V30 3515 C 322.659 -1.40473 0.959237 0
M  V30 3516 O 323.844 -1.5013 1.23185 0
M  V30 3517 C 320.974 -2.40183 2.50857 0
M  V30 3518 C 319.928 -2.22858 3.65402 0
M  V30 3519 C 319.254 -3.59619 3.957 0
M  V30 3520 C 320.554 -1.65123 4.95511 0
M  V30 3521 H 322.248 -0.678673 2.91607 0
M  V30 3522 H 319.794 -0.325013 1.40284 0
M  V30 3523 H 321.747 -3.11437 2.83874 0
M  V30 3524 H 320.471 -2.83083 1.62885 0
M  V30 3525 H 319.13 -1.54045 3.32664 0
M  V30 3526 H 318.778 -4.00086 3.04861 0
M  V30 3527 H 318.478 -3.48866 4.72828 0
M  V30 3528 H 320.002 -4.32306 4.31212 0
M  V30 3529 H 321.416 -2.26241 5.26771 0
M  V30 3530 H 319.813 -1.65071 5.7695 0
M  V30 3531 H 320.883 -0.612559 4.81015 0
M  V30 3532 N 322.226 -1.5378 -0.344866 0
M  V30 3533 C 323.474 -1.70625 -1.08311 0
M  V30 3534 C 323.795 -0.471447 -1.89215 0
M  V30 3535 O 323.065 0.514616 -1.8902 0
M  V30 3536 H 321.645 -0.629058 -0.402859 0
M  V30 3537 H 324.307 -1.9103 -0.386459 0
M  V30 3538 H 323.403 -2.57656 -1.76124 0
M  V30 3539 N 323.704 0.605807 -1.45491 0
M  V30 3540 C 324.981 1.36522 -1.40075 0
M  V30 3541 C 325.361 2.10976 -0.0722744 0
M  V30 3542 O 324.709 2.08007 0.945808 0
M  V30 3543 C 324.919 2.31056 -2.61561 0
M  V30 3544 C 326.267 2.93608 -3.06724 0
M  V30 3545 O 327.291 2.41376 -2.61946 0
M  V30 3546 O 326.15 3.88421 -3.84437 0
M  V30 3547 H 323.244 0.612248 -0.555951 0
M  V30 3548 H 325.79 0.628747 -1.57623 0
M  V30 3549 H 324.562 1.75311 -3.49831 0
M  V30 3550 H 324.185 3.12081 -2.46356 0
M  V30 3551 N 325.182 1.32811 0.848464 0
M  V30 3552 C 326.41 1.26739 1.63538 0
M  V30 3553 C 326.825 -0.163484 1.88091 0
M  V30 3554 O 326.182 -1.10258 1.45429 0
M  V30 3555 C 326.233 2.03013 2.99112 0
M  V30 3556 O 325.954 3.40518 2.75643 0
M  V30 3557 C 327.455 2.04038 3.93552 0
M  V30 3558 H 324.675 0.437024 0.509167 0
M  V30 3559 H 327.219 1.75033 1.05753 0
M  V30 3560 H 325.374 1.58426 3.53525 0
M  V30 3561 H 325.788 3.79635 3.61908 0
M  V30 3562 H 327.262 2.61877 4.85926 0
M  V30 3563 H 327.739 1.0282 4.26995 0
M  V30 3564 H 328.345 2.486 3.45077 0
M  V30 3565 N 326.66 -1.06551 1.16123 0
M  V30 3566 C 327.607 -2.13961 0.865414 0
M  V30 3567 C 328.577 -1.65066 -0.185055 0
M  V30 3568 O 329.762 -1.90732 -0.05083 0
M  V30 3569 C 326.902 -3.43113 0.369776 0
M  V30 3570 C 326.015 -4.05756 1.48276 0
M  V30 3571 C 325.15 -5.22773 0.942414 0
M  V30 3572 C 324.189 -5.77395 2.03179 0
M  V30 3573 N 323.326 -6.85731 1.50721 0
M  V30 3574 H 328.166 -2.38605 1.78527 0
M  V30 3575 H 325.703 -1.17072 0.890646 0
M  V30 3576 H 327.661 -4.17151 0.0640643 0
M  V30 3577 H 326.291 -3.18695 -0.513143 0
M  V30 3578 H 325.343 -3.29292 1.9045 0
M  V30 3579 H 326.655 -4.42351 2.30493 0
M  V30 3580 H 325.809 -6.03827 0.589729 0
M  V30 3581 H 324.548 -4.87618 0.0895191 0
M  V30 3582 H 323.553 -4.94981 2.3932 0
M  V30 3583 H 324.778 -6.14603 2.8886 0
M  V30 3584 H 322.724 -6.52499 0.676811 0
M  V30 3585 H 322.641 -7.21254 2.26557 0
M  V30 3586 H 323.909 -7.7047 1.18303 0
M  V30 3587 N 328.138 -0.959301 -1.25041 0
M  V30 3588 C 329.07 -0.440543 -2.24926 0
M  V30 3589 C 330.083 0.446131 -1.56568 0
M  V30 3590 O 331.272 0.253657 -1.76689 0
M  V30 3591 C 328.372 0.38412 -3.36716 0
M  V30 3592 C 327.545 -0.490658 -4.34639 0
M  V30 3593 C 326.604 0.276587 -5.25473 0
M  V30 3594 O 325.63 -0.326614 -5.68262 0
M  V30 3595 N 326.832 1.56844 -5.5891 0
M  V30 3596 H 329.597 -1.29931 -2.70071 0
M  V30 3597 H 327.158 -0.830181 -1.38995 0
M  V30 3598 H 329.15 0.905228 -3.94446 0
M  V30 3599 H 327.72 1.14377 -2.90924 0
M  V30 3600 H 326.94 -1.19282 -3.7572 0
M  V30 3601 H 328.228 -1.08756 -4.97041 0
M  V30 3602 H 327.626 2.08036 -5.26059 0
M  V30 3603 H 326.183 2.03541 -6.19205 0
M  V30 3604 N 329.616 1.39756 -0.72842 0
M  V30 3605 C 330.526 2.34444 -0.0855374 0
M  V30 3606 C 331.542 1.57976 0.729356 0
M  V30 3607 O 332.718 1.90301 0.659346 0
M  V30 3608 C 329.783 3.36965 0.815798 0
M  V30 3609 C 328.844 4.29299 -0.0105996 0
M  V30 3610 C 328.077 5.26923 0.84781 0
M  V30 3611 O 328.3 5.30859 2.08673 0
M  V30 3612 O 327.234 6.01249 0.279969 0
M  V30 3613 H 331.06 2.91065 -0.866892 0
M  V30 3614 H 328.645 1.4117 -0.48902 0
M  V30 3615 H 330.527 3.99804 1.33171 0
M  V30 3616 H 329.202 2.82739 1.57608 0
M  V30 3617 H 328.109 3.69703 -0.571877 0
M  V30 3618 H 329.442 4.86712 -0.73295 0
M  V30 3619 N 331.094 0.475555 1.50254 0
M  V30 3620 C 332.322 -0.0754493 2.06762 0
M  V30 3621 C 332.737 -1.33111 1.33891 0
M  V30 3622 O 332.094 -1.77846 0.40952 0
M  V30 3623 C 332.145 -0.359008 3.59713 0
M  V30 3624 O 331.866 0.846851 4.29837 0
M  V30 3625 C 333.367 -0.956484 4.32858 0
M  V30 3626 H 330.587 0.00907525 0.670939 0
M  V30 3627 H 333.131 0.665618 1.93364 0
M  V30 3628 H 331.286 -1.05001 3.72899 0
M  V30 3629 H 331.7 0.594162 5.21124 0
M  V30 3630 H 333.174 -1.10463 5.40834 0
M  V30 3631 H 333.651 -1.94775 3.93649 0
M  V30 3632 H 334.257 -0.303723 4.24214 0
M  V30 3633 N 332.573 -1.56217 0.208337 0
M  V30 3634 C 333.503 -2.22694 -0.702116 0
M  V30 3635 C 334.484 -1.19432 -1.2112 0
M  V30 3636 O 335.669 -1.47978 -1.25762 0
M  V30 3637 C 332.799 -2.8966 -1.9161 0
M  V30 3638 C 331.753 -3.9928 -1.5414 0
M  V30 3639 C 331.079 -4.53476 -2.83308 0
M  V30 3640 C 332.379 -5.17012 -0.741339 0
M  V30 3641 H 334.073 -2.99034 -0.147898 0
M  V30 3642 H 331.619 -1.43831 -0.0696951 0
M  V30 3643 H 333.572 -3.34852 -2.55836 0
M  V30 3644 H 332.296 -2.10746 -2.49507 0
M  V30 3645 H 330.955 -3.54799 -0.922668 0
M  V30 3646 H 330.603 -3.71308 -3.39322 0
M  V30 3647 H 330.303 -5.27451 -2.58976 0
M  V30 3648 H 331.827 -5.01378 -3.485 0
M  V30 3649 H 333.241 -5.58667 -1.28699 0
M  V30 3650 H 331.638 -5.97137 -0.595627 0
M  V30 3651 H 332.708 -4.8423 0.254851 0
M  V30 3652 N 334.051 0.0651679 -1.57465 0
M  V30 3653 C 335.014 1.06117 -2.03155 0
M  V30 3654 C 336.014 1.31204 -0.929632 0
M  V30 3655 O 337.204 1.26813 -1.19432 0
M  V30 3656 C 334.336 2.4032 -2.41783 0
M  V30 3657 H 335.529 0.667231 -2.92383 0
M  V30 3658 H 333.082 0.311075 -1.53173 0
M  V30 3659 H 333.817 2.84532 -1.55601 0
M  V30 3660 H 333.602 2.23451 -3.22199 0
M  V30 3661 H 335.092 3.11898 -2.77685 0
M  V30 3662 N 335.529 1.53961 0.336706 0
M  V30 3663 C 336.477 1.83136 1.43401 0
M  V30 3664 C 337.471 0.702313 1.54156 0
M  V30 3665 O 338.677 0.885765 1.56698 0
M  V30 3666 H 335.052 0.580309 0.478273 0
M  V30 3667 H 337.023 2.74925 1.16012 0
M  V30 3668 C 335.772 2.06385 2.79822 0
M  V30 3669 H 335.095 2.92718 2.72316 0
M  V30 3670 H 336.535 2.30761 3.55704 0
M  V30 3671 C 334.994 0.851414 3.25964 0
M  V30 3672 O 335.524 0.0541904 4.01663 0
M  V30 3673 N 333.73 0.66672 2.82848 0
M  V30 3674 H 333.277 1.31665 2.21409 0
M  V30 3675 H 333.235 -0.143032 3.14074 0
M  V30 3676 N 337.007 -0.598083 1.45811 0
M  V30 3677 C 338.253 -1.35882 1.50545 0
M  V30 3678 C 338.586 -1.93616 0.150445 0
M  V30 3679 O 337.861 -1.75604 -0.83628 0
M  V30 3680 C 338.144 -2.49966 2.59208 0
M  V30 3681 C 337.997 -1.97367 4.04186 0
M  V30 3682 C 339.316 -3.52068 2.64076 0
M  V30 3683 H 336.435 -0.492717 0.548087 0
M  V30 3684 H 339.077 -0.673319 1.77669 0
M  V30 3685 H 337.227 -3.08443 2.3621 0
M  V30 3686 H 338.899 -1.43466 4.38423 0
M  V30 3687 H 337.142 -1.283 4.14393 0
M  V30 3688 H 337.813 -2.79649 4.75921 0
M  V30 3689 H 340.289 -3.03448 2.84708 0
M  V30 3690 H 339.165 -4.2937 3.41954 0
M  V30 3691 H 339.426 -4.08304 1.69531 0
M  V30 3692 N 338.485 -1.33259 -0.841409 0
M  V30 3693 C 339.71 -1.2775 -1.63385 0
M  V30 3694 C 340.135 0.149188 -1.87507 0
M  V30 3695 O 339.493 1.10498 -1.43736 0
M  V30 3696 C 339.541 -2.05571 -2.96265 0
M  V30 3697 O 338.645 -1.41257 -3.87453 0
M  V30 3698 H 337.986 -0.439627 -0.497618 0
M  V30 3699 H 340.516 -1.75782 -1.04699 0
M  V30 3700 H 340.526 -2.16241 -3.45982 0
M  V30 3701 H 339.201 -3.09309 -2.7803 0
M  V30 3702 H 337.778 -1.39217 -3.45938 0
M  V30 3703 N 339.963 1.05934 -1.16686 0
M  V30 3704 C 340.926 2.11669 -0.879144 0
M  V30 3705 C 341.926 1.60294 0.127445 0
M  V30 3706 O 343.116 1.7389 -0.103865 0
M  V30 3707 C 340.248 3.39438 -0.315425 0
M  V30 3708 H 341.441 2.38626 -1.81653 0
M  V30 3709 H 338.994 1.22058 -0.976299 0
M  V30 3710 H 339.729 3.18132 0.629468 0
M  V30 3711 H 339.514 3.78034 -1.04079 0
M  V30 3712 H 341.004 4.17391 -0.132189 0
M  V30 3713 N 341.441 0.965919 1.2453 0
M  V30 3714 C 342.687 0.62776 1.92839 0
M  V30 3715 C 343.02 -0.834694 1.75347 0
M  V30 3716 O 342.295 -1.60031 1.10546 0
M  V30 3717 C 342.578 1.00109 3.45905 0
M  V30 3718 C 342.431 2.52011 3.72573 0
M  V30 3719 C 343.75 0.53435 4.36844 0
M  V30 3720 H 340.869 0.229537 0.700344 0
M  V30 3721 H 343.511 1.2046 1.46933 0
M  V30 3722 H 341.661 0.510238 3.85135 0
M  V30 3723 H 343.333 3.08559 3.42912 0
M  V30 3724 H 341.576 2.95287 3.17786 0
M  V30 3725 H 342.247 2.73183 4.79661 0
M  V30 3726 H 344.723 0.955565 4.04979 0
M  V30 3727 H 343.599 0.824152 5.42678 0
M  V30 3728 H 343.86 -0.565589 4.38467 0
M  V30 3729 N 342.919 -1.39368 0.735821 0
M  V30 3730 C 343.867 -2.32443 0.0855131 0
M  V30 3731 C 344.861 -1.53104 -0.724954 0
M  V30 3732 O 346.067 -1.68762 -0.626047 0
M  V30 3733 H 342.442 -0.751948 0.00885257 0
M  V30 3734 H 344.413 -2.84916 0.886883 0
M  V30 3735 C 343.162 -3.38206 -0.806983 0
M  V30 3736 H 342.485 -3.99335 -0.19274 0
M  V30 3737 H 343.925 -4.05779 -1.2296 0
M  V30 3738 C 342.384 -2.75321 -1.94165 0
M  V30 3739 O 342.914 -2.63231 -3.03435 0
M  V30 3740 N 341.12 -2.33396 -1.73132 0
M  V30 3741 H 340.667 -2.4343 -0.842596 0
M  V30 3742 H 340.625 -1.91661 -2.49225 0
M  V30 3743 N 344.397 -0.483516 -1.5 0
M  V30 3744 C 345.627 0.0643896 -2.065 0
M  V30 3745 C 346.035 1.32949 -1.34615 0
M  V30 3746 O 345.378 1.79003 -0.412756 0
M  V30 3747 C 345.44 0.405983 -3.572 0
M  V30 3748 C 345.104 -0.758875 -4.50655 0
M  V30 3749 C 346.101 -1.64445 -4.93208 0
M  V30 3750 C 343.786 -0.952725 -4.93182 0
M  V30 3751 C 345.78 -2.70818 -5.77006 0
M  V30 3752 C 343.467 -2.01966 -5.76761 0
M  V30 3753 C 344.465 -2.89574 -6.18576 0
M  V30 3754 O 344.153 -3.94429 -7.00486 0
M  V30 3755 H 343.885 -0.00934786 -0.675935 0
M  V30 3756 H 346.439 -0.674959 -1.93993 0
M  V30 3757 H 344.669 1.19869 -3.67652 0
M  V30 3758 H 346.358 0.890433 -3.96013 0
M  V30 3759 H 347.124 -1.50643 -4.61012 0
M  V30 3760 H 343.003 -0.280247 -4.60147 0
M  V30 3761 H 346.547 -3.3923 -6.09565 0
M  V30 3762 H 342.444 -2.1577 -6.0837 0
M  V30 3763 H 343.212 -3.91568 -7.1876 0
M  V30 3764 N 345.875 1.56104 -0.216619 0
M  V30 3765 C 346.785 2.23694 0.706982 0
M  V30 3766 C 347.801 1.24295 1.21765 0
M  V30 3767 O 348.977 1.57094 1.2603 0
M  V30 3768 C 346.042 2.8998 1.90033 0
M  V30 3769 C 345.103 4.04708 1.43213 0
M  V30 3770 C 344.336 4.67824 2.56859 0
M  V30 3771 O 344.559 4.29913 3.74874 0
M  V30 3772 O 343.493 5.56905 2.28343 0
M  V30 3773 H 347.319 3.03272 0.161235 0
M  V30 3774 H 344.904 1.49394 0.0136177 0
M  V30 3775 H 346.786 3.31837 2.59735 0
M  V30 3776 H 345.461 2.13365 2.43428 0
M  V30 3777 H 344.368 3.6743 0.70327 0
M  V30 3778 H 345.701 4.83051 0.944615 0
M  V30 3779 N 347.353 -0.0568162 1.57498 0
M  V30 3780 C 348.6 -0.753104 1.87975 0
M  V30 3781 C 348.928 -1.76815 0.81035 0
M  V30 3782 O 348.183 -1.94756 -0.19199 0
M  V30 3783 C 348.482 -1.48359 3.25153 0
M  V30 3784 C 348.148 -0.60713 4.46794 0
M  V30 3785 C 346.81 -0.365642 4.79809 0
M  V30 3786 C 349.162 -0.000305978 5.212 0
M  V30 3787 C 346.49 0.491905 5.84634 0
M  V30 3788 C 348.842 0.844781 6.26934 0
M  V30 3789 C 347.506 1.096 6.58441 0
M  V30 3790 H 346.776 -0.27558 0.687849 0
M  V30 3791 H 349.423 -0.0135173 1.91495 0
M  V30 3792 H 347.728 -2.29577 3.17492 0
M  V30 3793 H 349.425 -2.02739 3.45974 0
M  V30 3794 H 346.015 -0.805487 4.20963 0
M  V30 3795 H 350.199 -0.173961 4.95995 0
M  V30 3796 H 345.455 0.695131 6.07436 0
M  V30 3797 H 349.629 1.32165 6.83744 0
M  V30 3798 H 347.256 1.76224 7.39492 0
M  V30 3799 N 348.832 -1.54138 -0.328536 0
M  V30 3800 C 349.742 -1.86192 -1.42723 0
M  V30 3801 C 350.758 -0.753382 -1.56844 0
M  V30 3802 O 351.934 -1.04718 -1.72035 0
M  V30 3803 C 348.999 -2.07824 -2.77507 0
M  V30 3804 C 348.06 -3.31641 -2.72603 0
M  V30 3805 C 347.293 -3.52232 -4.00959 0
M  V30 3806 O 347.516 -2.7636 -4.9898 0
M  V30 3807 O 346.45 -4.45699 -4.0452 0
M  V30 3808 H 350.276 -2.79608 -1.18547 0
M  V30 3809 H 347.861 -1.3998 -0.522104 0
M  V30 3810 H 349.743 -2.23411 -3.57303 0
M  V30 3811 H 348.418 -1.17596 -3.01584 0
M  V30 3812 H 347.325 -3.21444 -1.91376 0
M  V30 3813 H 348.658 -4.2191 -2.53481 0
M  V30 3814 N 350.31 0.590341 -1.46126 0
M  V30 3815 C 351.587 1.35029 -1.41515 0
M  V30 3816 C 351.967 2.10888 -0.0946472 0
M  V30 3817 O 351.315 2.08998 0.923693 0
M  V30 3818 C 351.525 2.28269 -2.63997 0
M  V30 3819 C 352.873 2.90338 -3.09821 0
M  V30 3820 O 353.897 2.38585 -2.64492 0
M  V30 3821 O 352.756 3.84321 -3.88535 0
M  V30 3822 H 349.85 0.606317 -0.562413 0
M  V30 3823 H 352.396 0.611994 -1.58281 0
M  V30 3824 H 351.168 1.71591 -3.51671 0
M  V30 3825 H 350.791 3.0945 -2.49652 0
M  V30 3826 N 351.788 1.33704 0.83433 0
M  V30 3827 C 352.698 1.26382 1.97648 0
M  V30 3828 C 353.714 0.173548 1.73132 0
M  V30 3829 O 354.89 0.397962 1.97429 0
M  V30 3830 C 351.955 1.00769 3.31733 0
M  V30 3831 C 351.016 2.1884 3.69334 0
M  V30 3832 C 350.249 1.9444 4.9702 0
M  V30 3833 O 350.472 0.896961 5.63303 0
M  V30 3834 O 349.406 2.81093 5.32231 0
M  V30 3835 H 353.232 2.22444 2.06767 0
M  V30 3836 H 350.817 1.13795 0.968037 0
M  V30 3837 H 352.699 0.882186 4.12062 0
M  V30 3838 H 351.374 0.0773783 3.23608 0
M  V30 3839 H 350.281 2.36946 2.89495 0
M  V30 3840 H 351.614 3.10221 3.82131 0
M  V30 3841 N 353.266 -1.05314 1.17247 0
M  V30 3842 C 354.496 -1.81707 0.983166 0
M  V30 3843 C 354.904 -1.83222 -0.471822 0
M  V30 3844 O 354.247 -1.25721 -1.3394 0
M  V30 3845 C 354.309 -3.29134 1.44606 0
M  V30 3846 C 353.973 -3.51304 2.92292 0
M  V30 3847 C 354.97 -3.4353 3.90235 0
M  V30 3848 C 352.655 -3.78306 3.30439 0
M  V30 3849 C 354.649 -3.62442 5.24323 0
M  V30 3850 C 352.336 -3.96866 4.64694 0
M  V30 3851 C 353.334 -3.88933 5.61445 0
M  V30 3852 O 353.022 -4.06976 6.93272 0
M  V30 3853 H 352.754 -0.579476 0.348114 0
M  V30 3854 H 355.308 -1.33705 1.55924 0
M  V30 3855 H 353.538 -3.78046 0.813537 0
M  V30 3856 H 355.227 -3.87049 1.22262 0
M  V30 3857 H 355.993 -3.22648 3.62109 0
M  V30 3858 H 351.872 -3.83585 2.55702 0
M  V30 3859 H 355.416 -3.56165 5.99827 0
M  V30 3860 H 351.313 -4.1724 4.92525 0
M  V30 3861 H 352.081 -4.24209 6.99992 0
M  V30 3862 N 354.744 -0.972509 -1.24016 0
M  V30 3863 C 355.991 -0.637034 -1.92219 0
M  V30 3864 C 356.319 0.828418 -1.75976 0
M  V30 3865 O 355.574 1.61206 -1.10955 0
M  V30 3866 C 355.873 -0.963694 -3.44162 0
M  V30 3867 C 355.539 -2.41807 -3.80579 0
M  V30 3868 C 354.201 -2.81556 -3.9023 0
M  V30 3869 C 356.553 -3.36172 -3.98293 0
M  V30 3870 C 353.881 -4.14702 -4.15017 0
M  V30 3871 C 356.233 -4.68952 -4.24578 0
M  V30 3872 C 354.897 -5.08472 -4.32449 0
M  V30 3873 H 354.167 -0.233107 -0.703379 0
M  V30 3874 H 356.814 -1.2249 -1.47202 0
M  V30 3875 H 355.119 -0.29365 -3.90698 0
M  V30 3876 H 356.816 -0.682449 -3.9515 0
M  V30 3877 H 353.406 -2.09988 -3.73635 0
M  V30 3878 H 357.59 -3.06644 -3.90234 0
M  V30 3879 H 352.846 -4.4494 -4.19331 0
M  V30 3880 H 357.02 -5.42037 -4.37229 0
M  V30 3881 H 354.647 -6.11665 -4.51409 0
M  V30 3882 N 356.222 1.38976 -0.743202 0
M  V30 3883 C 357.447 2.05161 -0.303936 0
M  V30 3884 C 357.872 1.55677 1.05576 0
M  V30 3885 O 357.23 0.704131 1.67068 0
M  V30 3886 C 357.278 3.59138 -0.324373 0
M  V30 3887 O 356.382 4.06668 0.685204 0
M  V30 3888 H 355.723 0.649815 -0.136518 0
M  V30 3889 H 358.253 1.77852 -1.01142 0
M  V30 3890 H 358.263 4.07639 -0.171618 0
M  V30 3891 H 356.938 3.94515 -1.31647 0
M  V30 3892 H 355.515 3.69561 0.497913 0
M  V30 3893 N 357.7 0.491464 1.49741 0
M  V30 3894 C 358.648 -0.305837 2.30581 0
M  V30 3895 C 359.642 -0.971642 1.38764 0
M  V30 3896 O 360.848 -0.90042 1.5586 0
M  V30 3897 H 357.223 -0.117482 0.742767 0
M  V30 3898 H 359.194 0.396093 2.95759 0
M  V30 3899 C 357.943 -1.36319 3.19863 0
M  V30 3900 H 357.266 -0.860258 3.90435 0
M  V30 3901 H 358.706 -1.89323 3.79385 0
M  V30 3902 C 357.165 -2.37621 2.38826 0
M  V30 3903 O 357.695 -3.43311 2.08567 0
M  V30 3904 N 355.901 -2.09849 2.01026 0
M  V30 3905 H 355.448 -1.23922 2.25834 0
M  V30 3906 H 355.406 -2.77859 1.47112 0
M  V30 3907 N 359.178 -1.55987 0.224894 0
M  V30 3908 C 360.406 -2.02784 -0.410665 0
M  V30 3909 C 360.821 -1.10464 -1.53112 0
M  V30 3910 O 360.178 -0.114871 -1.82138 0
M  V30 3911 C 360.229 -3.49087 -0.939165 0
M  V30 3912 O 359.95 -4.37887 0.136614 0
M  V30 3913 C 361.451 -4.11543 -1.64763 0
M  V30 3914 H 358.671 -0.663484 -0.100148 0
M  V30 3915 H 361.215 -2.01614 0.342326 0
M  V30 3916 H 359.37 -3.50861 -1.64242 0
M  V30 3917 H 359.784 -5.23849 -0.261155 0
M  V30 3918 H 361.258 -5.15673 -1.96939 0
M  V30 3919 H 361.735 -3.56736 -2.56195 0
M  V30 3920 H 362.341 -4.13629 -0.989503 0
M  V30 3921 N 360.656 0.0484629 -1.57525 0
M  V30 3922 C 361.881 0.759177 -1.93006 0
M  V30 3923 C 362.306 1.69125 -0.823317 0
M  V30 3924 O 361.664 1.79931 0.222364 0
M  V30 3925 C 361.712 1.50899 -3.27509 0
M  V30 3926 O 360.816 2.62112 -3.18388 0
M  V30 3927 H 360.157 0.205564 -0.631379 0
M  V30 3928 H 362.687 0.00972959 -2.04598 0
M  V30 3929 H 362.697 1.88317 -3.6194 0
M  V30 3930 H 361.372 0.825269 -4.0763 0
M  V30 3931 H 359.949 2.27379 -2.95556 0
M  V30 3932 N 362.134 1.5431 0.320358 0
M  V30 3933 C 363.097 1.83195 1.3774 0
M  V30 3934 C 364.097 0.703906 1.44575 0
M  V30 3935 O 365.287 0.972214 1.44546 0
M  V30 3936 C 362.419 1.99487 2.76438 0
M  V30 3937 H 363.612 2.77642 1.1338 0
M  V30 3938 H 361.165 1.46076 0.556012 0
M  V30 3939 H 361.9 1.07262 3.06048 0
M  V30 3940 H 361.685 2.81575 2.7287 0
M  V30 3941 H 363.175 2.23271 3.52902 0
M  V30 3942 N 363.613 -0.582584 1.46437 0
M  V30 3943 C 364.543 -1.70187 1.59871 0
M  V30 3944 C 365.524 -1.64066 0.449042 0
M  V30 3945 O 366.709 -1.82081 0.6753 0
M  V30 3946 C 363.839 -3.08827 1.58881 0
M  V30 3947 C 362.793 -3.29779 2.72819 0
M  V30 3948 C 362.119 -4.68947 2.5689 0
M  V30 3949 C 363.419 -3.17601 4.1464 0
M  V30 3950 H 365.113 -1.592 2.53566 0
M  V30 3951 H 362.659 -0.764472 1.22032 0
M  V30 3952 H 364.612 -3.86951 1.66873 0
M  V30 3953 H 363.336 -3.20713 0.617306 0
M  V30 3954 H 361.995 -2.54054 2.64296 0
M  V30 3955 H 361.643 -4.77599 1.57823 0
M  V30 3956 H 361.343 -4.83919 3.33312 0
M  V30 3957 H 362.867 -5.4924 2.66773 0
M  V30 3958 H 364.281 -3.8557 4.24274 0
M  V30 3959 H 362.678 -3.44094 4.9165 0
M  V30 3960 H 363.748 -2.14681 4.34788 0
M  V30 3961 N 365.091 -1.34144 -0.827227 0
M  V30 3962 C 366.054 -1.25264 -1.91942 0
M  V30 3963 C 367.054 -0.168866 -1.59911 0
M  V30 3964 O 368.244 -0.421198 -1.69031 0
M  V30 3965 C 365.376 -0.932952 -3.27885 0
M  V30 3966 H 366.569 -2.22357 -2.0124 0
M  V30 3967 H 364.122 -1.1837 -1.0207 0
M  V30 3968 H 364.857 0.0349917 -3.24281 0
M  V30 3969 H 364.642 -1.71682 -3.52516 0
M  V30 3970 H 366.132 -0.895874 -4.07877 0
M  V30 3971 N 366.569 1.04691 -1.17803 0
M  V30 3972 C 367.516 2.12557 -0.899343 0
M  V30 3973 C 368.486 1.65339 0.158771 0
M  V30 3974 O 369.671 1.90789 0.0204797 0
M  V30 3975 C 366.811 3.42481 -0.424315 0
M  V30 3976 C 365.924 4.03346 -1.54713 0
M  V30 3977 C 365.059 5.21208 -1.02546 0
M  V30 3978 C 364.098 5.74089 -2.12339 0
M  V30 3979 N 363.235 6.83247 -1.61612 0
M  V30 3980 H 368.075 2.35734 -1.823 0
M  V30 3981 H 365.612 1.1564 -0.909159 0
M  V30 3982 H 367.57 4.16996 -0.130421 0
M  V30 3983 H 366.2 3.19471 0.462377 0
M  V30 3984 H 365.252 3.2622 -1.95664 0
M  V30 3985 H 366.564 4.38628 -2.37501 0
M  V30 3986 H 365.718 6.02812 -0.685718 0
M  V30 3987 H 364.457 4.87414 -0.167084 0
M  V30 3988 H 363.462 4.91111 -2.47165 0
M  V30 3989 H 364.687 6.0993 -2.98601 0
M  V30 3990 H 362.633 6.5134 -0.780533 0
M  V30 3991 H 362.55 7.17559 -2.38003 0
M  V30 3992 H 363.818 7.68491 -1.30545 0
M  V30 3993 N 368.047 0.979072 1.23499 0
M  V30 3994 C 369.324 0.563674 1.87302 0
M  V30 3995 C 369.704 -0.959199 1.88049 0
M  V30 3996 O 369.052 -1.83535 1.36114 0
M  V30 3997 C 369.262 1.16822 3.28867 0
M  V30 3998 C 370.61 1.26014 4.0547 0
M  V30 3999 O 371.634 1.12158 3.38082 0
M  V30 4000 O 370.493 1.48044 5.26066 0
M  V30 4001 H 367.587 0.189602 0.804972 0
M  V30 4002 H 370.133 1.07407 1.31384 0
M  V30 4003 H 368.905 2.21049 3.22883 0
M  V30 4004 H 368.528 0.642564 3.92373 0
M  V30 4005 N 369.525 -1.3858 0.750561 0
M  V30 4006 C 370.772 -2.00184 0.305373 0
M  V30 4007 C 371.1 -1.59575 -1.11203 0
M  V30 4008 O 370.355 -0.823236 -1.77542 0
M  V30 4009 C 370.654 -3.55455 0.372373 0
M  V30 4010 C 370.32 -4.15765 1.745 0
M  V30 4011 C 368.982 -4.31951 2.12065 0
M  V30 4012 C 371.334 -4.49067 2.64553 0
M  V30 4013 C 368.662 -4.78734 3.39162 0
M  V30 4014 C 371.014 -4.97265 3.91038 0
M  V30 4015 C 369.678 -5.11658 4.28676 0
M  V30 4016 H 368.948 -0.732526 0.111744 0
M  V30 4017 H 371.595 -1.65673 0.960451 0
M  V30 4018 H 369.9 -3.90084 -0.366272 0
M  V30 4019 H 371.597 -4.00999 0.00953918 0
M  V30 4020 H 368.187 -4.03579 1.44297 0
M  V30 4021 H 372.371 -4.36166 2.36796 0
M  V30 4022 H 367.627 -4.88062 3.68246 0
M  V30 4023 H 371.801 -5.22003 4.60962 0
M  V30 4024 H 369.428 -5.47668 5.27222 0
M  V30 4025 N 371.003 -0.499398 -1.49478 0
M  V30 4026 C 372.252 0.0475259 -2.01644 0
M  V30 4027 C 372.565 1.38195 -1.38425 0
M  V30 4028 O 373.771 2.01547 -1.8191 0
M  V30 4029 C 372.227 0.135164 -3.59646 0
M  V30 4030 C 371.835 -1.19252 -4.31837 0
M  V30 4031 C 373.579 0.632538 -4.19761 0
M  V30 4032 C 371.486 -1.06713 -5.81693 0
M  V30 4033 H 370.416 0.0215349 -0.753692 0
M  V30 4034 H 373.067 -0.638577 -1.7203 0
M  V30 4035 H 371.449 0.885681 -3.85969 0
M  V30 4036 H 372.623 -1.9562 -4.17216 0
M  V30 4037 H 370.938 -1.62321 -3.83459 0
M  V30 4038 H 373.535 0.743833 -5.29501 0
M  V30 4039 H 373.878 1.63098 -3.83021 0
M  V30 4040 H 374.411 -0.0613987 -3.97753 0
M  V30 4041 H 371.15 -2.03979 -6.22955 0
M  V30 4042 H 370.67 -0.344307 -5.98811 0
M  V30 4043 H 372.349 -0.745208 -6.42694 0
M  V30 4044 N 372.481 1.55866 -0.233164 0
M  V30 4045 C 373.897 1.59133 0.121988 0
M  V30 4046 C 374.097 1.25016 1.58029 0
M  V30 4047 O 373.153 0.990922 2.32243 0
M  V30 4048 C 374.466 2.99932 -0.214792 0
M  V30 4049 C 376.014 3.12601 -0.157971 0
M  V30 4050 C 376.489 4.55597 -0.46859 0
M  V30 4051 N 377.98 4.61305 -0.418585 0
M  V30 4052 C 378.715 5.69903 -0.63227 0
M  V30 4053 N 378.211 6.86819 -0.90835 0
M  V30 4054 N 380.004 5.59264 -0.563913 0
M  V30 4055 H 372.155 1.76315 -1.18434 0
M  V30 4056 H 374.418 0.820093 -0.475553 0
M  V30 4057 H 374.124 3.29588 -1.22739 0
M  V30 4058 H 373.998 3.74327 0.464691 0
M  V30 4059 H 376.385 2.82735 0.845283 0
M  V30 4060 H 376.466 2.40511 -0.871102 0
M  V30 4061 H 376.11 4.86182 -1.46934 0
M  V30 4062 H 376.04 5.25928 0.265865 0
M  V30 4063 H 378.531 3.77297 -0.213368 0
M  V30 4064 H 378.844 7.65507 -1.05919 0
M  V30 4065 H 377.189 6.88536 -0.945673 0
M  V30 4066 H 380.38 4.66802 -0.348372 0
M  V30 4067 H 380.553 6.43831 -0.733847 0
M  V30 4068 N 373.959 -0.0401083 1.57549 0
M  V30 4069 C 375.375 -0.395556 1.54621 0
M  V30 4070 C 375.575 -1.77281 0.957799 0
M  V30 4071 O 374.631 -2.45888 0.574031 0
M  V30 4072 C 375.944 -0.307535 2.99123 0
M  V30 4073 C 377.492 -0.385425 3.10618 0
M  V30 4074 C 377.967 -0.326973 4.56831 0
M  V30 4075 N 379.458 -0.386102 4.61588 0
M  V30 4076 C 380.193 -0.363591 5.72246 0
M  V30 4077 N 379.689 -0.29402 6.92176 0
M  V30 4078 N 381.482 -0.412503 5.60584 0
M  V30 4079 H 373.633 0.861325 1.94152 0
M  V30 4080 H 375.896 0.326445 0.890021 0
M  V30 4081 H 375.602 0.638461 3.45856 0
M  V30 4082 H 375.476 -1.10552 3.60636 0
M  V30 4083 H 377.863 -1.32185 2.63839 0
M  V30 4084 H 377.944 0.44171 2.51957 0
M  V30 4085 H 377.588 0.605738 5.04275 0
M  V30 4086 H 377.518 -1.17207 5.13391 0
M  V30 4087 H 380.009 -0.442832 3.75296 0
M  V30 4088 H 380.322 -0.28164 7.72287 0
M  V30 4089 H 378.667 -0.260232 6.94513 0
M  V30 4090 H 381.858 -0.464769 4.65787 0
M  V30 4091 H 382.031 -0.391492 6.46816 0
M  V30 4092 N 375.437 -1.54477 -0.31217 0
M  V30 4093 C 376.367 -1.87652 -1.38957 0
M  V30 4094 C 377.348 -0.734358 -1.53431 0
M  V30 4095 O 378.533 -0.98911 -1.67123 0
M  V30 4096 C 375.663 -2.11396 -2.75552 0
M  V30 4097 C 374.617 -3.27243 -2.75855 0
M  V30 4098 C 373.943 -3.36382 -4.15633 0
M  V30 4099 C 375.243 -4.64622 -2.38587 0
M  V30 4100 H 376.937 -2.77887 -1.11442 0
M  V30 4101 H 374.483 -1.33707 -0.534655 0
M  V30 4102 H 376.436 -2.33189 -3.51 0
M  V30 4103 H 375.16 -1.17921 -3.04569 0
M  V30 4104 H 373.819 -3.05356 -2.02863 0
M  V30 4105 H 373.467 -2.40445 -4.41809 0
M  V30 4106 H 373.167 -4.14249 -4.1674 0
M  V30 4107 H 374.691 -3.60422 -4.92877 0
M  V30 4108 H 376.105 -4.86219 -3.03749 0
M  V30 4109 H 374.502 -5.45121 -2.50925 0
M  V30 4110 H 375.572 -4.66097 -1.33723 0
M  V30 4111 N 376.915 0.57481 -1.46744 0
M  V30 4112 C 377.845 1.69337 -1.60771 0
M  V30 4113 C 378.826 1.63825 -0.457736 0
M  V30 4114 O 380.011 1.8172 -0.684947 0
M  V30 4115 C 377.141 3.0798 -1.60517 0
M  V30 4116 C 376.095 3.28327 -2.74564 0
M  V30 4117 C 375.421 4.67578 -2.59373 0
M  V30 4118 C 376.721 3.15398 -4.16319 0
M  V30 4119 H 378.415 1.57853 -2.54407 0
M  V30 4120 H 375.961 0.75799 -1.22436 0
M  V30 4121 H 377.914 3.86061 -1.68923 0
M  V30 4122 H 376.638 3.20381 -0.634305 0
M  V30 4123 H 375.297 2.52649 -2.65639 0
M  V30 4124 H 374.945 4.76755 -1.60353 0
M  V30 4125 H 374.645 4.82144 -3.35873 0
M  V30 4126 H 376.169 5.47817 -2.69682 0
M  V30 4127 H 377.583 3.83315 -4.26313 0
M  V30 4128 H 375.98 3.41482 -4.93468 0
M  V30 4129 H 377.05 2.12372 -4.3592 0
M  V30 4130 N 378.394 1.34581 0.820102 0
M  V30 4131 C 379.64 1.27285 1.57881 0
M  V30 4132 C 379.973 -0.156137 1.93571 0
M  V30 4133 O 379.248 -1.10222 1.60254 0
M  V30 4134 C 379.531 2.16639 2.87645 0
M  V30 4135 C 379.384 3.68088 2.58517 0
M  V30 4136 C 380.703 2.05378 3.8924 0
M  V30 4137 H 377.822 0.463714 0.572833 0
M  V30 4138 H 380.464 1.64859 0.944539 0
M  V30 4139 H 378.614 1.84725 3.41773 0
M  V30 4140 H 380.286 4.10382 2.10676 0
M  V30 4141 H 378.529 3.89038 1.91917 0
M  V30 4142 H 379.2 4.2598 3.51063 0
M  V30 4143 H 381.676 2.33404 3.44473 0
M  V30 4144 H 380.552 2.7012 4.77835 0
M  V30 4145 H 380.813 1.0316 4.29896 0
M  V30 4146 N 379.872 -1.04064 1.18357 0
M  V30 4147 C 380.819 -2.12077 0.910603 0
M  V30 4148 C 381.789 -1.65421 -0.15 0
M  V30 4149 O 382.974 -1.90797 -0.0103614 0
M  V30 4150 C 380.114 -3.42252 0.442472 0
M  V30 4151 C 379.227 -4.0252 1.5685 0
M  V30 4152 C 378.362 -5.20657 1.05309 0
M  V30 4153 C 377.401 -5.72955 2.1538 0
M  V30 4154 N 376.538 -6.8238 1.65233 0
M  V30 4155 H 381.378 -2.34764 1.83548 0
M  V30 4156 H 378.915 -1.15157 0.915279 0
M  V30 4157 H 380.873 -4.16921 0.152534 0
M  V30 4158 H 379.503 -3.19712 -0.445428 0
M  V30 4159 H 378.555 -3.25178 1.97391 0
M  V30 4160 H 379.867 -4.37362 2.39824 0
M  V30 4161 H 379.021 -6.0244 0.717677 0
M  V30 4162 H 377.76 -4.87318 0.19293 0
M  V30 4163 H 376.765 -4.89793 2.49766 0
M  V30 4164 H 377.99 -6.08337 3.01832 0
M  V30 4165 H 375.936 -6.50917 0.815064 0
M  V30 4166 H 375.853 -7.16286 2.41805 0
M  V30 4167 H 377.121 -7.67788 1.34619 0
M  V30 4168 N 381.35 -0.985608 -1.22978 0
M  V30 4169 C 382.627 -0.573599 -1.87001 0
M  V30 4170 C 383.007 0.949213 -1.88555 0
M  V30 4171 O 382.355 1.82811 -1.37086 0
M  V30 4172 C 382.565 -1.18564 -3.28243 0
M  V30 4173 C 383.913 -1.28163 -4.04796 0
M  V30 4174 O 384.937 -1.13949 -3.37482 0
M  V30 4175 O 383.796 -1.50832 -5.25273 0
M  V30 4176 H 380.89 -0.193868 -0.803955 0
M  V30 4177 H 383.436 -1.08102 -1.30813 0
M  V30 4178 H 382.208 -2.22758 -3.21706 0
M  V30 4179 H 381.831 -0.663363 -3.92027 0
M  V30 4180 N 382.828 1.3818 -0.7579 0
M  V30 4181 C 384.239 1.82726 -0.383134 0
M  V30 4182 C 384.59 1.63214 1.08884 0
M  V30 4183 O 383.715 1.13566 1.84205 0
M  V30 4184 C 384.31 3.31728 -0.688631 0
M  V30 4185 C 382.869 3.74606 -0.367091 0
M  V30 4186 C 382.016 2.60896 -0.939599 0
M  V30 4187 H 384.967 1.26847 -0.953699 0
M  V30 4188 H 384.988 3.80487 0.0316492 0
M  V30 4189 H 384.5 3.45898 -1.76001 0
M  V30 4190 H 382.601 3.66013 0.697532 0
M  V30 4191 H 382.714 4.71215 -0.865658 0
M  V30 4192 H 381.078 2.52075 -0.3647 0
M  V30 4193 H 381.861 2.77864 -2.0161 0
M  V30 4194 N 384.306 0.507319 1.49211 0
M  V30 4195 C 385.253 -0.267728 2.29242 0
M  V30 4196 C 386.223 -0.954609 1.35928 0
M  V30 4197 O 387.408 -0.960046 1.64887 0
M  V30 4198 C 384.548 -1.32243 3.18756 0
M  V30 4199 C 383.661 -0.64669 4.27132 0
M  V30 4200 C 382.796 -1.68238 5.03855 0
M  V30 4201 C 381.835 -0.98885 6.0406 0
M  V30 4202 N 380.972 -1.96903 6.73924 0
M  V30 4203 H 385.812 0.420968 2.95012 0
M  V30 4204 H 383.349 0.219443 1.45454 0
M  V30 4205 H 385.307 -1.94599 3.69036 0
M  V30 4206 H 383.937 -1.97981 2.54958 0
M  V30 4207 H 382.989 0.0902926 3.80293 0
M  V30 4208 H 384.301 -0.101058 4.98698 0
M  V30 4209 H 383.455 -2.38081 5.58034 0
M  V30 4210 H 382.194 -2.26187 4.32077 0
M  V30 4211 H 381.199 -0.276222 5.49106 0
M  V30 4212 H 382.424 -0.415767 6.77826 0
M  V30 4213 H 380.37 -2.53803 6.04913 0
M  V30 4214 H 380.287 -1.47423 7.41487 0
M  V30 4215 H 381.555 -2.66015 7.32705 0
M  V30 4216 N 385.784 -1.5574 0.241426 0
M  V30 4217 C 386.731 -2.21149 -0.660432 0
M  V30 4218 C 387.701 -1.17356 -1.17545 0
M  V30 4219 O 388.886 -1.45784 -1.23093 0
M  V30 4220 C 386.026 -2.91059 -1.85414 0
M  V30 4221 C 385.139 -4.09495 -1.37616 0
M  V30 4222 C 384.274 -4.67135 -2.529 0
M  V30 4223 C 383.313 -5.77831 -2.01936 0
M  V30 4224 N 382.45 -6.29677 -3.10566 0
M  V30 4225 H 387.29 -2.97845 -0.095955 0
M  V30 4226 H 384.827 -1.47057 -0.0356024 0
M  V30 4227 H 386.785 -3.29788 -2.5553 0
M  V30 4228 H 385.415 -2.16846 -2.39118 0
M  V30 4229 H 384.467 -3.76117 -0.569235 0
M  V30 4230 H 385.779 -4.89423 -0.962618 0
M  V30 4231 H 384.933 -5.08409 -3.31067 0
M  V30 4232 H 383.672 -3.86411 -2.97553 0
M  V30 4233 H 382.677 -5.36039 -1.22238 0
M  V30 4234 H 383.902 -6.60402 -1.58259 0
M  V30 4235 H 381.848 -5.5186 -3.54664 0
M  V30 4236 H 381.765 -7.04783 -2.73526 0
M  V30 4237 H 383.033 -6.75609 -3.88809 0
M  V30 4238 N 387.262 0.0317525 -1.57568 0
M  V30 4239 C 388.678 0.38735 -1.54828 0
M  V30 4240 C 388.878 1.7677 -0.967187 0
M  V30 4241 O 387.934 2.45581 -0.587063 0
M  V30 4242 C 389.247 0.291667 -2.99282 0
M  V30 4243 C 390.795 0.368946 -3.10818 0
M  V30 4244 C 391.27 0.302741 -4.56998 0
M  V30 4245 N 392.761 0.361617 -4.61786 0
M  V30 4246 C 393.496 0.333238 -5.72431 0
M  V30 4247 N 392.992 0.257308 -6.92322 0
M  V30 4248 N 394.785 0.382769 -5.60795 0
M  V30 4249 H 386.936 -0.871609 -1.93692 0
M  V30 4250 H 389.199 -0.331161 -0.888277 0
M  V30 4251 H 388.905 -0.656794 -3.45513 0
M  V30 4252 H 388.779 1.08638 -3.61217 0
M  V30 4253 H 391.166 1.30784 -2.64536 0
M  V30 4254 H 391.247 -0.455066 -2.5172 0
M  V30 4255 H 390.891 -0.632473 -5.03947 0
M  V30 4256 H 390.821 1.14482 -5.14005 0
M  V30 4257 H 393.312 0.422923 -3.75526 0
M  V30 4258 H 393.625 0.24068 -7.72425 0
M  V30 4259 H 391.97 0.223396 -6.94641 0
M  V30 4260 H 395.161 0.44006 -4.66027 0
M  V30 4261 H 395.334 0.357184 -6.47015 0
M  V30 4262 N 388.74 1.54641 0.303973 0
M  V30 4263 C 389.673 1.80263 1.3993 0
M  V30 4264 C 390.651 0.653657 1.48883 0
M  V30 4265 O 391.835 0.893284 1.6599 0
M  V30 4266 C 388.962 1.9367 2.77866 0
M  V30 4267 C 388.008 3.16078 2.86351 0
M  V30 4268 S 388.841 4.74219 2.4875 0
M  V30 4269 C 389.997 4.90558 3.88721 0
M  V30 4270 H 390.23 2.72886 1.17986 0
M  V30 4271 H 387.763 1.46014 0.501918 0
M  V30 4272 H 389.721 2.0208 3.57315 0
M  V30 4273 H 388.382 1.01991 2.9708 0
M  V30 4274 H 387.575 3.22252 3.87517 0
M  V30 4275 H 387.177 3.06099 2.14893 0
M  V30 4276 H 389.469 4.74398 4.83687 0
M  V30 4277 H 390.412 5.92651 3.87518 0
M  V30 4278 H 390.82 4.18728 3.78585 0
M  V30 4279 N 390.218 -0.567019 1.47046 0
M  V30 4280 C 391.446 -1.35027 1.56765 0
M  V30 4281 C 391.861 -1.8758 0.214316 0
M  V30 4282 O 391.218 -1.64471 -0.790919 0
M  V30 4283 C 391.269 -2.52698 2.58507 0
M  V30 4284 O 390.99 -2.0232 3.88585 0
M  V30 4285 C 392.491 -3.45043 2.78316 0
M  V30 4286 H 389.711 -0.41195 0.529658 0
M  V30 4287 H 392.255 -0.687832 1.92585 0
M  V30 4288 H 390.41 -3.149 2.25648 0
M  V30 4289 H 390.824 -2.79068 4.44096 0
M  V30 4290 H 392.298 -4.2405 3.53391 0
M  V30 4291 H 392.775 -3.97971 1.85784 0
M  V30 4292 H 393.381 -2.88665 3.12334 0
M  V30 4293 N 391.696 -1.35014 -0.812953 0
M  V30 4294 C 392.945 -1.27269 -1.56479 0
M  V30 4295 C 393.258 0.152771 -1.95002 0
M  V30 4296 O 394.464 0.352451 -2.69203 0
M  V30 4297 C 392.92 -2.23159 -2.82362 0
M  V30 4298 C 392.528 -3.71016 -2.511 0
M  V30 4299 C 394.272 -2.24342 -3.60376 0
M  V30 4300 C 392.179 -4.58746 -3.73237 0
M  V30 4301 H 391.109 -0.472829 -0.587324 0
M  V30 4302 H 393.76 -1.6024 -0.894171 0
M  V30 4303 H 392.142 -1.83151 -3.51101 0
M  V30 4304 H 393.316 -4.1962 -1.90409 0
M  V30 4305 H 391.631 -3.72378 -1.86343 0
M  V30 4306 H 394.228 -2.87107 -4.51081 0
M  V30 4307 H 394.571 -1.24542 -3.97234 0
M  V30 4308 H 395.104 -2.62846 -2.98591 0
M  V30 4309 H 391.843 -5.59521 -3.41492 0
M  V30 4310 H 391.363 -4.14871 -4.33176 0
M  V30 4311 H 393.042 -4.73852 -4.40537 0
M  V30 4312 N 393.175 1.03435 -1.18907 0
M  V30 4313 C 394.107 2.1165 -0.879595 0
M  V30 4314 C 395.12 1.62316 0.125439 0
M  V30 4315 O 396.309 1.78201 -0.103245 0
M  V30 4316 C 393.409 3.37622 -0.294042 0
M  V30 4317 C 392.582 4.16166 -1.34629 0
M  V30 4318 C 391.641 5.20457 -0.775274 0
M  V30 4319 O 390.667 5.50379 -1.4516 0
M  V30 4320 N 391.869 5.78949 0.424126 0
M  V30 4321 H 394.634 2.38791 -1.81105 0
M  V30 4322 H 392.195 1.19681 -1.09032 0
M  V30 4323 H 394.187 4.04572 0.101679 0
M  V30 4324 H 392.757 3.07873 0.541575 0
M  V30 4325 H 391.977 3.44444 -1.91707 0
M  V30 4326 H 393.265 4.65432 -2.05549 0
M  V30 4327 H 392.663 5.56948 0.991209 0
M  V30 4328 H 391.22 6.47334 0.761691 0
M  V30 4329 N 394.653 0.992116 1.22453 0
M  V30 4330 C 395.93 0.583508 1.86694 0
M  V30 4331 C 396.31 -0.9392 1.89056 0
M  V30 4332 O 395.658 -1.82081 1.38053 0
M  V30 4333 C 395.868 1.20304 3.2761 0
M  V30 4334 C 397.216 1.30308 4.0411 0
M  V30 4335 O 398.24 1.15737 3.36873 0
M  V30 4336 O 397.099 1.53615 5.24466 0
M  V30 4337 H 394.193 0.198129 0.802916 0
M  V30 4338 H 396.739 1.08794 1.30238 0
M  V30 4339 H 395.511 2.24461 3.2052 0
M  V30 4340 H 395.134 0.684144 3.9167 0
M  V30 4341 N 396.131 -1.37776 0.765217 0
M  V30 4342 C 397.356 -2.04651 0.336537 0
M  V30 4343 C 397.781 -1.57337 -1.03086 0
M  V30 4344 O 397.139 -0.730621 -1.65927 0
M  V30 4345 C 397.187 -3.58577 0.381468 0
M  V30 4346 O 396.291 -4.07706 -0.62042 0
M  V30 4347 H 395.632 -0.64756 0.146838 0
M  V30 4348 H 398.162 -1.76221 1.03959 0
M  V30 4349 H 398.172 -4.07314 0.236448 0
M  V30 4350 H 396.847 -3.9237 1.37907 0
M  V30 4351 H 395.424 -3.70306 -0.439056 0
M  V30 4352 N 397.609 -0.515225 -1.4894 0
M  V30 4353 C 398.539 0.244628 -2.32215 0
M  V30 4354 C 399.52 0.949136 -1.41157 0
M  V30 4355 O 400.705 0.937783 -1.70057 0
M  V30 4356 C 397.835 1.30096 -3.22013 0
M  V30 4357 C 396.789 0.715486 -4.21977 0
M  V30 4358 C 396.115 1.87339 -5.00808 0
M  V30 4359 C 397.415 -0.302982 -5.2142 0
M  V30 4360 H 399.109 -0.450501 -2.95991 0
M  V30 4361 H 396.655 -0.218098 -1.42339 0
M  V30 4362 H 398.608 1.84037 -3.79089 0
M  V30 4363 H 397.332 2.02547 -2.56207 0
M  V30 4364 H 395.991 0.197715 -3.66066 0
M  V30 4365 H 395.639 2.58592 -4.31438 0
M  V30 4366 H 395.339 1.48764 -5.68457 0
M  V30 4367 H 396.863 2.41686 -5.60732 0
M  V30 4368 H 398.277 0.148802 -5.73107 0
M  V30 4369 H 396.674 -0.60532 -5.97039 0
M  V30 4370 H 397.744 -1.21395 -4.69459 0
M  V30 4371 N 399.087 1.5561 -0.249682 0
M  V30 4372 C 400.019 2.18834 0.681496 0
M  V30 4373 C 401.032 1.16546 1.1367 0
M  V30 4374 O 402.221 1.43397 1.06299 0
M  V30 4375 C 399.321 2.77992 1.9384 0
M  V30 4376 C 398.494 4.05725 1.63419 0
M  V30 4377 C 397.553 4.49174 2.74096 0
M  V30 4378 O 396.579 5.15492 2.41364 0
M  V30 4379 N 397.781 4.17191 4.03649 0
M  V30 4380 H 400.546 2.9937 0.140514 0
M  V30 4381 H 398.107 1.6175 -0.0697541 0
M  V30 4382 H 400.099 3.04015 2.67127 0
M  V30 4383 H 398.669 2.01596 2.38909 0
M  V30 4384 H 397.889 3.87261 0.736358 0
M  V30 4385 H 399.177 4.88999 1.40562 0
M  V30 4386 H 398.575 3.63955 4.33074 0
M  V30 4387 H 397.132 4.48043 4.73393 0
M  V30 4388 N 400.565 -0.0233959 1.57583 0
M  V30 4389 C 401.515 -1.03023 2.03397 0
M  V30 4390 C 402.499 -1.31701 0.924315 0
M  V30 4391 O 403.691 -1.31191 1.18819 0
M  V30 4392 C 400.82 -2.32961 2.52159 0
M  V30 4393 C 399.906 -2.07349 3.69956 0
M  V30 4394 N 400.297 -1.51814 4.82479 0
M  V30 4395 C 398.595 -2.37606 3.77438 0
M  V30 4396 C 399.296 -1.42136 5.64068 0
M  V30 4397 N 398.272 -1.89891 5.09355 0
M  V30 4398 H 402.074 -0.594962 2.87815 0
M  V30 4399 H 399.588 -0.229586 1.60769 0
M  V30 4400 H 401.585 -3.05906 2.83244 0
M  V30 4401 H 400.245 -2.77162 1.69149 0
M  V30 4402 H 401.256 -1.20008 5.03804 0
M  V30 4403 H 397.933 -2.84842 3.05239 0
M  V30 4404 H 399.323 -0.996405 6.64471 0
M  V30 4405 N 402.043 -1.548 -0.295768 0
M  V30 4406 C 403.454 -1.65274 -0.868411 0
M  V30 4407 C 403.805 -0.56481 -1.87894 0
M  V30 4408 O 402.93 0.29767 -2.14343 0
M  V30 4409 C 403.525 -2.99603 -1.58188 0
M  V30 4410 C 402.084 -3.12181 -2.10286 0
M  V30 4411 C 401.231 -2.6098 -0.93727 0
M  V30 4412 H 404.182 -1.58534 -0.0726422 0
M  V30 4413 H 404.203 -2.91319 -2.44772 0
M  V30 4414 H 403.715 -3.78764 -0.846151 0
M  V30 4415 H 401.816 -2.3775 -2.8689 0
M  V30 4416 H 401.929 -4.18415 -2.33379 0
M  V30 4417 H 400.293 -2.17564 -1.32431 0
M  V30 4418 H 401.076 -3.42623 -0.215414 0
M  V30 4419 N 403.521 0.559213 -1.47345 0
M  V30 4420 C 404.767 1.31614 -1.55079 0
M  V30 4421 C 405.122 1.91257 -0.209422 0
M  V30 4422 O 404.415 1.74796 0.784656 0
M  V30 4423 C 404.609 2.44853 -2.6035 0
M  V30 4424 C 404.438 1.96305 -4.04591 0
M  V30 4425 C 403.208 1.8024 -4.72061 0
M  V30 4426 C 405.406 1.50872 -4.91673 0
M  V30 4427 N 403.388 1.26011 -6.00828 0
M  V30 4428 C 404.759 1.08395 -6.10451 0
M  V30 4429 C 406.814 1.38905 -4.78132 0
M  V30 4430 C 405.517 0.551399 -7.17183 0
M  V30 4431 C 407.543 0.870518 -5.84958 0
M  V30 4432 C 406.905 0.455661 -7.02925 0
M  V30 4433 H 403.004 0.473712 -0.62219 0
M  V30 4434 H 405.588 0.634103 -1.84085 0
M  V30 4435 H 403.759 3.10589 -2.33215 0
M  V30 4436 H 405.491 3.11849 -2.57938 0
M  V30 4437 H 402.246 2.02895 -4.27937 0
M  V30 4438 H 402.67 1.00991 -6.69425 0
M  V30 4439 H 407.312 1.69591 -3.87297 0
M  V30 4440 H 405.03 0.232159 -8.07766 0
M  V30 4441 H 408.616 0.781507 -5.76527 0
M  V30 4442 H 407.496 0.0606414 -7.84177 0
M  V30 4443 N 404.999 1.35443 0.805782 0
M  V30 4444 C 406.248 1.28097 1.55801 0
M  V30 4445 C 406.561 -0.142428 1.95081 0
M  V30 4446 O 407.767 -0.33817 2.69386 0
M  V30 4447 C 406.223 2.24653 2.81174 0
M  V30 4448 C 405.831 3.72342 2.49129 0
M  V30 4449 C 407.575 2.2625 3.59181 0
M  V30 4450 C 405.482 4.60719 3.70799 0
M  V30 4451 H 404.412 0.475937 0.584808 0
M  V30 4452 H 407.063 1.60712 0.885661 0
M  V30 4453 H 405.445 1.85011 3.50124 0
M  V30 4454 H 406.619 4.20624 1.88181 0
M  V30 4455 H 404.934 3.73361 1.84366 0
M  V30 4456 H 407.531 2.89495 4.49552 0
M  V30 4457 H 407.874 1.26647 3.96568 0
M  V30 4458 H 408.407 2.64426 2.97193 0
M  V30 4459 H 405.146 5.61324 3.3852 0
M  V30 4460 H 404.666 4.17163 4.3097 0
M  V30 4461 H 406.345 4.76182 4.38018 0
M  V30 4462 N 406.477 -1.02803 1.19454 0
M  V30 4463 C 407.424 -2.11099 0.933046 0
M  V30 4464 C 408.394 -1.65571 -0.132447 0
M  V30 4465 O 409.579 -1.90797 0.00987576 0
M  V30 4466 C 406.719 -3.41763 0.478747 0
M  V30 4467 C 405.832 -4.00833 1.6111 0
M  V30 4468 C 404.967 -5.19511 1.10825 0
M  V30 4469 C 404.006 -5.70639 2.21445 0
M  V30 4470 N 403.143 -6.80589 1.72461 0
M  V30 4471 H 407.983 -2.32804 1.86028 0
M  V30 4472 H 405.52 -1.14179 0.927441 0
M  V30 4473 H 407.478 -4.16736 0.196745 0
M  V30 4474 H 406.108 -3.20166 -0.411493 0
M  V30 4475 H 405.16 -3.23066 2.00829 0
M  V30 4476 H 406.472 -4.34794 2.4445 0
M  V30 4477 H 405.626 -6.01645 0.781533 0
M  V30 4478 H 404.365 -4.87086 0.244606 0
M  V30 4479 H 403.37 -4.87116 2.54947 0
M  V30 4480 H 404.595 -6.05102 3.08267 0
M  V30 4481 H 402.541 -6.50016 0.884056 0
M  V30 4482 H 402.458 -7.13681 2.49389 0
M  V30 4483 H 403.726 -7.66317 1.42755 0
M  V30 4484 N 407.956 -0.998596 -1.21925 0
M  V30 4485 C 409.367 -0.711939 -1.72593 0
M  V30 4486 C 409.718 0.770842 -1.80423 0
M  V30 4487 O 408.843 1.60237 -1.4544 0
M  V30 4488 C 409.438 -1.28567 -3.13458 0
M  V30 4489 C 407.997 -1.04828 -3.61508 0
M  V30 4490 C 407.144 -1.4024 -2.39224 0
M  V30 4491 H 410.095 -1.17027 -1.07193 0
M  V30 4492 H 410.116 -0.667098 -3.74607 0
M  V30 4493 H 409.628 -2.36486 -3.07727 0
M  V30 4494 H 407.729 0.0140383 -3.72597 0
M  V30 4495 H 407.842 -1.71566 -4.47328 0
M  V30 4496 H 406.206 -0.821077 -2.41103 0
M  V30 4497 H 406.989 -2.49176 -2.36149 0
M  V30 4498 N 409.434 1.37368 -0.772513 0
M  V30 4499 C 410.381 2.30262 -0.157488 0
M  V30 4500 C 411.351 1.51137 0.688965 0
M  V30 4501 O 412.536 1.79704 0.641168 0
M  V30 4502 C 409.676 3.37611 0.715045 0
M  V30 4503 C 408.789 4.31746 -0.148098 0
M  V30 4504 C 407.924 5.26171 0.729213 0
M  V30 4505 C 406.963 6.11948 -0.136418 0
M  V30 4506 N 406.1 6.98613 0.698914 0
M  V30 4507 H 410.94 2.82277 -0.955179 0
M  V30 4508 H 408.477 1.38957 -0.482631 0
M  V30 4509 H 410.435 3.98479 1.23575 0
M  V30 4510 H 409.065 2.86959 1.47833 0
M  V30 4511 H 408.117 3.72178 -0.786613 0
M  V30 4512 H 409.429 4.92084 -0.81579 0
M  V30 4513 H 408.583 5.92247 1.31637 0
M  V30 4514 H 407.322 4.66246 1.43059 0
M  V30 4515 H 406.327 5.4485 -0.736102 0
M  V30 4516 H 407.552 6.73945 -0.835134 0
M  V30 4517 H 405.498 6.41215 1.38489 0
M  V30 4518 H 405.415 7.55948 0.0885358 0
M  V30 4519 H 406.683 7.69077 1.27044 0
M  V30 4520 N 410.912 0.523116 1.48665 0
M  V30 4521 C 412.189 -0.0775449 1.95446 0
M  V30 4522 C 412.569 -1.5197 1.4652 0
M  V30 4523 O 411.917 -2.17876 0.688657 0
M  V30 4524 C 412.127 0.0326135 3.48985 0
M  V30 4525 C 413.475 -0.130141 4.24401 0
M  V30 4526 O 414.499 -0.0415142 3.56176 0
M  V30 4527 O 413.358 -0.31491 5.45592 0
M  V30 4528 H 410.452 -0.0831012 0.822814 0
M  V30 4529 H 412.998 0.587227 1.59216 0
M  V30 4530 H 411.77 1.03748 3.77296 0
M  V30 4531 H 411.393 -0.671317 3.91892 0
M  V30 4532 N 412.39 -1.55475 0.257931 0
M  V30 4533 C 413.618 -2.03609 -0.367559 0
M  V30 4534 C 414.033 -1.13687 -1.50734 0
M  V30 4535 O 413.39 -0.153479 -1.81853 0
M  V30 4536 C 413.441 -3.51001 -0.864908 0
M  V30 4537 O 413.162 -4.37499 0.229465 0
M  V30 4538 C 414.663 -4.14946 -1.55997 0
M  V30 4539 H 411.883 -0.665459 -0.0860521 0
M  V30 4540 H 414.427 -2.00843 0.385014 0
M  V30 4541 H 412.582 -3.54266 -1.56762 0
M  V30 4542 H 412.996 -5.24286 -0.14998 0
M  V30 4543 H 414.47 -5.19735 -1.85956 0
M  V30 4544 H 414.947 -3.6209 -2.4857 0
M  V30 4545 H 415.553 -4.15635 -0.901543 0
M  V30 4546 N 413.868 0.0150385 -1.57593 0
M  V30 4547 C 414.8 1.03912 -2.04291 0
M  V30 4548 C 415.813 1.31618 -0.958146 0
M  V30 4549 O 417.002 1.28859 -1.23522 0
M  V30 4550 C 414.102 2.37749 -2.41514 0
M  V30 4551 C 413.275 2.29198 -3.72541 0
M  V30 4552 C 412.334 3.45598 -3.96797 0
M  V30 4553 O 411.36 3.24461 -4.67668 0
M  V30 4554 N 412.562 4.67945 -3.43523 0
M  V30 4555 H 415.327 0.64099 -2.92765 0
M  V30 4556 H 412.888 0.20272 -1.60626 0
M  V30 4557 H 414.88 3.14364 -2.54867 0
M  V30 4558 H 413.45 2.69357 -1.58637 0
M  V30 4559 H 412.67 1.3759 -3.69408 0
M  V30 4560 H 413.958 2.20642 -4.5847 0
M  V30 4561 H 413.356 4.88017 -2.86104 0
M  V30 4562 H 411.913 5.41878 -3.62232 0
M  V30 4563 N 415.346 1.54954 0.287554 0
M  V30 4564 C 416.278 1.83224 1.37701 0
M  V30 4565 C 417.291 0.715898 1.46215 0
M  V30 4566 O 418.48 0.993565 1.48292 0
M  V30 4567 C 415.58 1.96723 2.75959 0
M  V30 4568 C 414.753 3.27253 2.90215 0
M  V30 4569 C 413.812 3.30998 4.09056 0
M  V30 4570 O 412.838 4.04457 4.00503 0
M  V30 4571 N 414.04 2.57353 5.20336 0
M  V30 4572 H 416.805 2.77254 1.138 0
M  V30 4573 H 414.366 1.54694 0.477652 0
M  V30 4574 H 416.358 1.96615 3.5373 0
M  V30 4575 H 414.928 1.09626 2.92747 0
M  V30 4576 H 414.148 3.40022 1.99447 0
M  V30 4577 H 415.436 4.13365 2.96659 0
M  V30 4578 H 414.834 1.97327 5.30169 0
M  V30 4579 H 413.391 2.62984 5.96391 0
M  V30 4580 N 416.824 -0.551391 1.4764 0
M  V30 4581 C 417.787 -1.64007 1.60107 0
M  V30 4582 C 418.787 -1.53601 0.47576 0
M  V30 4583 O 419.977 -1.57655 0.740988 0
M  V30 4584 C 417.109 -3.03569 1.55108 0
M  V30 4585 H 418.302 -1.543 2.57161 0
M  V30 4586 H 415.855 -0.771776 1.35917 0
M  V30 4587 H 416.59 -3.18804 0.594519 0
M  V30 4588 H 416.375 -3.12532 2.36783 0
M  V30 4589 H 417.865 -3.82762 1.66982 0
M  V30 4590 N 418.302 -1.35869 -0.798587 0
M  V30 4591 C 419.232 -1.32118 -1.92528 0
M  V30 4592 C 420.213 -0.194209 -1.68988 0
M  V30 4593 O 421.398 -0.390426 -1.90235 0
M  V30 4594 C 418.528 -1.10047 -3.29404 0
M  V30 4595 C 417.482 -2.19471 -3.67446 0
M  V30 4596 C 416.808 -1.82555 -5.02571 0
M  V30 4597 C 418.108 -3.61495 -3.76987 0
M  V30 4598 H 419.802 -2.26394 -1.95924 0
M  V30 4599 H 417.348 -1.08981 -0.94123 0
M  V30 4600 H 419.301 -1.06061 -4.07835 0
M  V30 4601 H 418.025 -0.122195 -3.26371 0
M  V30 4602 H 416.684 -2.22568 -2.91306 0
M  V30 4603 H 416.332 -0.833249 -4.9605 0
M  V30 4604 H 416.032 -2.5581 -5.28995 0
M  V30 4605 H 417.556 -1.80108 -5.83432 0
M  V30 4606 H 418.97 -3.60676 -4.4563 0
M  V30 4607 H 417.367 -4.33577 -4.14887 0
M  V30 4608 H 418.437 -3.97065 -2.78329 0
M  V30 4609 N 419.78 1.02168 -1.19998 0
M  V30 4610 C 421.005 1.79833 -1.03319 0
M  V30 4611 C 421.43 1.83504 0.413281 0
M  V30 4612 O 420.788 1.26635 1.29743 0
M  V30 4613 C 420.836 3.22396 -1.61533 0
M  V30 4614 O 419.94 4.03555 -0.849519 0
M  V30 4615 H 419.281 0.554872 -0.364709 0
M  V30 4616 H 421.811 1.28542 -1.59179 0
M  V30 4617 H 421.821 3.73124 -1.65054 0
M  V30 4618 H 420.496 3.19039 -2.66809 0
M  V30 4619 H 419.073 3.62169 -0.888129 0
M  V30 4620 N 421.258 1.00505 1.21394 0
M  V30 4621 C 422.674 0.717873 1.42544 0
M  V30 4622 C 422.874 -0.706936 1.88692 0
M  V30 4623 O 421.93 -1.47627 2.04847 0
M  V30 4624 C 423.243 1.73377 2.45684 0
M  V30 4625 C 424.791 1.75059 2.59467 0
M  V30 4626 C 425.266 2.75545 3.6584 0
M  V30 4627 N 426.757 2.74213 3.73311 0
M  V30 4628 C 427.492 3.48626 4.55245 0
M  V30 4629 N 426.988 4.32678 5.41075 0
M  V30 4630 N 428.781 3.37276 4.49668 0
M  V30 4631 H 420.932 1.92506 0.897503 0
M  V30 4632 H 423.195 0.830919 0.456375 0
M  V30 4633 H 422.901 2.75395 2.18748 0
M  V30 4634 H 422.775 1.53647 3.44489 0
M  V30 4635 H 425.162 0.737337 2.8574 0
M  V30 4636 H 425.243 1.98861 1.60897 0
M  V30 4637 H 424.887 3.77028 3.40313 0
M  V30 4638 H 424.817 2.49009 4.64007 0
M  V30 4639 H 427.308 2.13234 3.11993 0
M  V30 4640 H 427.621 4.86253 6.00648 0
M  V30 4641 H 425.966 4.3676 5.40616 0
M  V30 4642 H 429.157 2.71043 3.81646 0
M  V30 4643 H 429.33 3.95524 5.13288 0
M  V30 4644 N 422.737 -1.36956 0.779787 0
M  V30 4645 C 423.684 -2.30175 0.169697 0
M  V30 4646 C 424.654 -1.51501 -0.68094 0
M  V30 4647 O 425.839 -1.80042 -0.631629 0
M  V30 4648 C 422.979 -3.37985 -0.697131 0
M  V30 4649 C 422.092 -4.31661 0.170992 0
M  V30 4650 C 421.227 -5.2655 -0.701298 0
M  V30 4651 C 420.266 -6.11867 0.168869 0
M  V30 4652 N 419.403 -6.98973 -0.661855 0
M  V30 4653 H 424.243 -2.81767 0.970135 0
M  V30 4654 H 421.78 -1.38699 0.489994 0
M  V30 4655 H 423.738 -3.99128 -1.2146 0
M  V30 4656 H 422.368 -2.87739 -1.46309 0
M  V30 4657 H 421.42 -3.71756 0.80634 0
M  V30 4658 H 422.732 -4.91644 0.841875 0
M  V30 4659 H 421.886 -5.92937 -1.28494 0
M  V30 4660 H 420.625 -4.66998 -1.40584 0
M  V30 4661 H 419.63 -5.44452 0.764986 0
M  V30 4662 H 420.855 -6.73493 0.870863 0
M  V30 4663 H 418.801 -6.41941 -1.35086 0
M  V30 4664 H 418.718 -7.55984 -0.0484447 0
M  V30 4665 H 419.986 -7.6974 -1.22963 0
M  V30 4666 N 424.215 -0.530993 -1.48385 0
M  V30 4667 C 425.178 0.220497 -2.28137 0
M  V30 4668 C 426.178 0.866851 -1.35434 0
M  V30 4669 O 427.368 0.726746 -1.58316 0
M  V30 4670 C 424.5 1.31921 -3.1434 0
M  V30 4671 H 425.693 -0.479714 -2.96038 0
M  V30 4672 H 423.246 -0.286968 -1.53643 0
M  V30 4673 H 423.981 2.05264 -2.51072 0
M  V30 4674 H 423.766 0.86085 -3.82533 0
M  V30 4675 H 425.256 1.84776 -3.74497 0
M  V30 4676 N 425.693 1.55336 -0.266172 0
M  V30 4677 C 426.918 2.04258 0.359661 0
M  V30 4678 C 427.343 1.14359 1.49344 0
M  V30 4679 O 426.701 0.140369 1.80756 0
M  V30 4680 C 426.749 3.50997 0.826635 0
M  V30 4681 O 425.853 3.64204 1.93466 0
M  V30 4682 H 425.194 0.659668 0.075727 0
M  V30 4683 H 427.724 2.00694 -0.39786 0
M  V30 4684 H 427.734 3.9219 1.12477 0
M  V30 4685 H 426.409 4.159 -0.00293032 0
M  V30 4686 H 424.986 3.34913 1.63974 0
M  V30 4687 N 427.171 -0.0066808 1.57599 0
M  V30 4688 C 428.134 -0.985035 2.06953 0
M  V30 4689 C 429.134 -1.27663 0.977687 0
M  V30 4690 O 430.324 -1.22293 1.24057 0
M  V30 4691 C 427.456 -2.3118 2.50536 0
M  V30 4692 H 428.649 -0.558255 2.94658 0
M  V30 4693 H 426.202 -0.254011 1.54222 0
M  V30 4694 H 426.937 -2.78561 1.66054 0
M  V30 4695 H 426.722 -2.11338 3.3027 0
M  V30 4696 H 428.212 -3.01377 2.8907 0
M  V30 4697 N 428.649 -1.55105 -0.279332 0
M  V30 4698 C 429.895 -1.75672 -1.01327 0
M  V30 4699 C 430.228 -0.552739 -1.86168 0
M  V30 4700 O 429.503 0.449827 -1.89227 0
M  V30 4701 C 429.786 -3.05825 -1.90114 0
M  V30 4702 C 429.639 -4.36565 -1.08309 0
M  V30 4703 C 430.958 -3.31975 -2.8893 0
M  V30 4704 H 428.077 -0.639149 -0.366957 0
M  V30 4705 H 430.719 -1.87833 -0.286154 0
M  V30 4706 H 428.869 -2.95588 -2.52111 0
M  V30 4707 H 430.541 -4.58751 -0.484314 0
M  V30 4708 H 428.784 -4.32076 -0.386362 0
M  V30 4709 H 429.455 -5.23946 -1.73737 0
M  V30 4710 H 431.931 -3.41963 -2.37067 0
M  V30 4711 H 430.807 -4.2432 -3.48201 0
M  V30 4712 H 431.068 -2.51309 -3.63725 0
M  V30 4713 N 430.127 0.543554 -1.4793 0
M  V30 4714 C 431.075 1.67039 -1.61866 0
M  V30 4715 C 432.069 1.62294 -0.48549 0
M  V30 4716 O 433.275 1.67315 -0.66376 0
M  V30 4717 H 429.65 0.552954 -0.509652 0
M  V30 4718 H 431.621 1.52426 -2.56533 0
M  V30 4719 C 430.37 3.05357 -1.6629 0
M  V30 4720 H 429.693 3.09696 -2.5284 0
M  V30 4721 H 431.133 3.83855 -1.80088 0
M  V30 4722 C 429.592 3.34531 -0.398861 0
M  V30 4723 O 430.122 3.98649 0.494162 0
M  V30 4724 N 428.328 2.89299 -0.2747 0
M  V30 4725 H 427.875 2.37298 -1.00236 0
M  V30 4726 H 427.833 3.09188 0.570075 0
M  V30 4727 N 431.605 1.3629 0.791371 0
M  V30 4728 C 432.538 1.24816 1.9104 0
M  V30 4729 C 433.516 0.132739 1.62057 0
M  V30 4730 O 434.7 0.303527 1.8604 0
M  V30 4731 C 431.827 0.925355 3.25814 0
M  V30 4732 C 430.873 2.05495 3.7373 0
M  V30 4733 S 431.706 3.67255 3.89723 0
M  V30 4734 C 432.862 3.37084 5.27376 0
M  V30 4735 H 433.095 2.19533 2.00481 0
M  V30 4736 H 430.628 1.21684 0.950393 0
M  V30 4737 H 432.586 0.745924 4.03666 0
M  V30 4738 H 431.247 -0.00400098 3.141 0
M  V30 4739 H 430.44 1.7836 4.71385 0
M  V30 4740 H 430.042 2.1935 3.02922 0
M  V30 4741 H 432.334 2.90856 6.1189 0
M  V30 4742 H 433.277 4.33995 5.59512 0
M  V30 4743 H 433.685 2.7248 4.94383 0
M  V30 4744 N 433.083 -1.0153 1.20538 0
M  V30 4745 C 433.993 -2.13557 0.971113 0
M  V30 4746 C 435.009 -1.73845 -0.0734366 0
M  V30 4747 O 436.185 -2.01075 0.114299 0
M  V30 4748 C 433.25 -3.42661 0.527639 0
M  V30 4749 C 432.311 -3.96608 1.64319 0
M  V30 4750 C 431.544 -5.1955 1.22078 0
M  V30 4751 O 431.767 -5.70329 0.0900198 0
M  V30 4752 O 430.701 -5.66681 2.02871 0
M  V30 4753 H 434.527 -2.3619 1.90913 0
M  V30 4754 H 432.112 -1.11946 0.989362 0
M  V30 4755 H 433.994 -4.20404 0.289621 0
M  V30 4756 H 432.669 -3.21441 -0.381779 0
M  V30 4757 H 431.576 -3.20139 1.93551 0
M  V30 4758 H 432.909 -4.22219 2.52966 0
M  V30 4759 N 434.561 -1.01147 -1.20859 0
M  V30 4760 C 435.508 -0.577354 -2.23462 0
M  V30 4761 C 436.478 0.399922 -1.61214 0
M  V30 4762 O 437.663 0.300515 -1.88419 0
M  V30 4763 C 434.803 0.083372 -3.44999 0
M  V30 4764 C 433.916 -0.937856 -4.21697 0
M  V30 4765 C 433.051 -0.248717 -5.30617 0
M  V30 4766 C 432.09 -1.25705 -5.99053 0
M  V30 4767 N 431.227 -0.594939 -6.99575 0
M  V30 4768 H 436.067 -1.45695 -2.59956 0
M  V30 4769 H 433.604 -0.729428 -1.27741 0
M  V30 4770 H 435.562 0.483535 -4.14388 0
M  V30 4771 H 434.192 0.926645 -3.09214 0
M  V30 4772 H 433.244 -1.45622 -3.51423 0
M  V30 4773 H 434.556 -1.70493 -4.68757 0
M  V30 4774 H 433.71 0.207215 -6.06346 0
M  V30 4775 H 432.449 0.55071 -4.84581 0
M  V30 4776 H 431.454 -1.72343 -5.2209 0
M  V30 4777 H 432.679 -2.05767 -6.47176 0
M  V30 4778 H 430.625 0.184713 -6.5574 0
M  V30 4779 H 430.542 -1.30017 -7.44736 0
M  V30 4780 H 431.81 -0.162427 -7.79331 0
M  V30 4781 N 436.039 1.36541 -0.78704 0
M  V30 4782 C 437.286 1.99304 -0.358341 0
M  V30 4783 C 437.614 1.62467 1.06933 0
M  V30 4784 O 436.869 0.870019 1.75297 0
M  V30 4785 C 437.168 3.54343 -0.466485 0
M  V30 4786 C 436.834 4.10993 -1.85461 0
M  V30 4787 C 435.496 4.26177 -2.23443 0
M  V30 4788 C 437.848 4.41895 -2.76366 0
M  V30 4789 C 435.176 4.69573 -3.51736 0
M  V30 4790 C 437.528 4.86722 -4.04084 0
M  V30 4791 C 436.192 5.00112 -4.42091 0
M  V30 4792 H 435.462 0.729306 -0.131126 0
M  V30 4793 H 438.109 1.63068 -1.00404 0
M  V30 4794 H 436.414 3.90918 0.262719 0
M  V30 4795 H 438.111 4.00833 -0.115854 0
M  V30 4796 H 434.701 3.99612 -1.54946 0
M  V30 4797 H 438.885 4.29735 -2.48277 0
M  V30 4798 H 434.141 4.78127 -3.81057 0
M  V30 4799 H 438.315 5.09598 -4.7464 0
M  V30 4800 H 435.942 5.33498 -5.41557 0
M  V30 4801 N 437.518 0.538854 1.48102 0
M  V30 4802 C 438.465 -0.219042 2.29758 0
M  V30 4803 C 439.435 -0.925562 1.37922 0
M  V30 4804 O 440.62 -0.924855 1.66886 0
M  V30 4805 C 437.76 -1.25452 3.2149 0
M  V30 4806 C 436.873 -0.555943 4.28408 0
M  V30 4807 C 436.008 -1.57512 5.0731 0
M  V30 4808 C 435.047 -0.860498 6.06021 0
M  V30 4809 N 434.184 -1.82564 6.77949 0
M  V30 4810 H 439.024 0.483449 2.94052 0
M  V30 4811 H 436.561 0.250247 1.44956 0
M  V30 4812 H 438.519 -1.86727 3.7308 0
M  V30 4813 H 437.149 -1.92528 2.591 0
M  V30 4814 H 436.201 0.170938 3.80016 0
M  V30 4815 H 437.513 0.00474616 4.988 0
M  V30 4816 H 436.667 -2.26191 5.62959 0
M  V30 4817 H 435.406 -2.16972 4.36778 0
M  V30 4818 H 434.411 -0.159686 5.49568 0
M  V30 4819 H 435.636 -0.271897 6.78555 0
M  V30 4820 H 433.582 -2.40915 6.10161 0
M  V30 4821 H 433.499 -1.31662 7.44447 0
M  V30 4822 H 434.767 -2.50414 7.38182 0
M  V30 4823 N 438.996 -1.55193 0.274407 0
M  V30 4824 C 439.943 -2.225 -0.613374 0
M  V30 4825 C 440.913 -1.19823 -1.15029 0
M  V30 4826 O 442.098 -1.48362 -1.19973 0
M  V30 4827 C 439.238 -2.94927 -1.79199 0
M  V30 4828 C 438.351 -4.12322 -1.28899 0
M  V30 4829 C 437.486 -4.72394 -2.42934 0
M  V30 4830 C 436.525 -5.81984 -1.89634 0
M  V30 4831 N 435.662 -6.36123 -2.9714 0
M  V30 4832 H 440.502 -2.97982 -0.032756 0
M  V30 4833 H 438.039 -1.47099 -0.00440146 0
M  V30 4834 H 439.997 -3.35134 -2.48478 0
M  V30 4835 H 438.627 -2.2187 -2.34465 0
M  V30 4836 H 437.679 -3.7724 -0.489327 0
M  V30 4837 H 438.991 -4.91355 -0.858587 0
M  V30 4838 H 438.145 -5.15317 -3.20208 0
M  V30 4839 H 436.884 -3.92636 -2.8929 0
M  V30 4840 H 435.889 -5.38511 -1.1084 0
M  V30 4841 H 437.114 -6.6361 -1.44215 0
M  V30 4842 H 435.06 -5.59259 -3.42878 0
M  V30 4843 H 434.977 -7.10427 -2.58515 0
M  V30 4844 H 436.245 -6.83704 -3.74391 0
M  V30 4845 N 440.474 -0.00167713 -1.576 0
M  V30 4846 C 441.721 0.68282 -1.90641 0
M  V30 4847 C 442.049 1.73686 -0.875415 0
M  V30 4848 O 441.304 1.95334 0.119575 0
M  V30 4849 C 441.603 1.36189 -3.30435 0
M  V30 4850 C 441.269 0.440887 -4.48739 0
M  V30 4851 C 439.931 0.187312 -4.80835 0
M  V30 4852 C 442.283 -0.193134 -5.20842 0
M  V30 4853 C 439.611 -0.70855 -5.82406 0
M  V30 4854 C 441.963 -1.07688 -6.23367 0
M  V30 4855 C 440.627 -1.33962 -6.53919 0
M  V30 4856 H 439.897 0.249862 -0.697603 0
M  V30 4857 H 442.544 -0.0575642 -1.91413 0
M  V30 4858 H 440.849 2.17636 -3.25794 0
M  V30 4859 H 442.546 1.89759 -3.5326 0
M  V30 4860 H 439.136 0.648694 -4.23663 0
M  V30 4861 H 443.32 -0.0102445 -4.96299 0
M  V30 4862 H 438.576 -0.920097 -6.04437 0
M  V30 4863 H 442.75 -1.57451 -6.78367 0
M  V30 4864 H 440.377 -2.03549 -7.32442 0
M  V30 4865 N 441.952 1.55251 0.271103 0
M  V30 4866 C 442.915 1.87484 1.31842 0
M  V30 4867 C 443.915 0.749545 1.42262 0
M  V30 4868 O 445.105 1.01771 1.4138 0
M  V30 4869 C 442.237 2.0818 2.69951 0
M  V30 4870 H 443.43 2.81108 1.0449 0
M  V30 4871 H 440.983 1.47771 0.509258 0
M  V30 4872 H 441.718 1.16944 3.02481 0
M  V30 4873 H 441.503 2.90114 2.63774 0
M  V30 4874 H 442.993 2.34385 3.4562 0
M  V30 4875 N 443.43 -0.535701 1.48216 0
M  V30 4876 C 444.393 -1.623 1.61838 0
M  V30 4877 C 445.393 -1.53087 0.492024 0
M  V30 4878 O 446.583 -1.5686 0.757668 0
M  V30 4879 C 443.715 -3.01907 1.58319 0
M  V30 4880 H 444.908 -1.51564 2.58783 0
M  V30 4881 H 442.461 -0.757317 1.36727 0
M  V30 4882 H 443.196 -3.18155 0.628299 0
M  V30 4883 H 442.981 -3.10003 2.40085 0
M  V30 4884 H 444.471 -3.80969 1.71033 0
M  V30 4885 N 444.908 -1.36708 -0.784132 0
M  V30 4886 C 446.324 -1.17237 -1.08294 0
M  V30 4887 C 446.524 -5.93947e-05 -2.015 0
M  V30 4888 O 445.58 0.663686 -2.43622 0
M  V30 4889 C 446.893 -2.48557 -1.69233 0
M  V30 4890 C 448.441 -2.54968 -1.8155 0
M  V30 4891 C 448.916 -3.86388 -2.45904 0
M  V30 4892 N 450.407 -3.87762 -2.53367 0
M  V30 4893 C 451.142 -4.86191 -3.03983 0
M  V30 4894 N 450.638 -5.95015 -3.54866 0
M  V30 4895 N 452.431 -4.73606 -3.02743 0
M  V30 4896 H 444.582 -2.11758 -0.16501 0
M  V30 4897 H 446.845 -0.93822 -0.135822 0
M  V30 4898 H 446.551 -3.34638 -1.08215 0
M  V30 4899 H 446.425 -2.64748 -2.68679 0
M  V30 4900 H 448.812 -1.69302 -2.41704 0
M  V30 4901 H 448.893 -2.42672 -0.80895 0
M  V30 4902 H 448.537 -4.72462 -1.86392 0
M  V30 4903 H 448.467 -3.95982 -3.4714 0
M  V30 4904 H 450.958 -3.09145 -2.17343 0
M  V30 4905 H 451.271 -6.66086 -3.91854 0
M  V30 4906 H 449.616 -5.98676 -3.53003 0
M  V30 4907 H 452.807 -3.87717 -2.62284 0
M  V30 4908 H 452.98 -5.50473 -3.41881 0
M  V30 4909 N 446.386 1.0089 -1.21074 0
M  V30 4910 C 447.333 2.09588 -0.966512 0
M  V30 4911 C 448.303 1.65761 0.106089 0
M  V30 4912 O 449.488 1.90758 -0.0402287 0
M  V30 4913 C 446.628 3.40958 -0.533058 0
M  V30 4914 C 445.741 3.9822 -1.67467 0
M  V30 4915 C 444.876 5.17682 -1.19076 0
M  V30 4916 C 443.915 5.67043 -2.30496 0
M  V30 4917 N 443.052 6.77759 -1.83267 0
M  V30 4918 H 447.892 2.29815 -1.89708 0
M  V30 4919 H 445.429 1.12689 -0.945489 0
M  V30 4920 H 447.387 4.1637 -0.263019 0
M  V30 4921 H 446.017 3.20781 0.360505 0
M  V30 4922 H 445.069 3.1983 -2.05944 0
M  V30 4923 H 446.381 4.3085 -2.51336 0
M  V30 4924 H 445.535 6.00326 -0.877151 0
M  V30 4925 H 444.274 4.86635 -0.322066 0
M  V30 4926 H 443.279 4.82999 -2.62664 0
M  V30 4927 H 444.504 6.00121 -3.17855 0
M  V30 4928 H 442.45 6.48527 -0.987356 0
M  V30 4929 H 442.367 7.09624 -2.60711 0
M  V30 4930 H 443.635 7.63949 -1.54928 0
M  V30 4931 N 447.864 1.01787 1.20321 0
M  V30 4932 C 448.811 0.589197 2.23153 0
M  V30 4933 C 449.781 -0.391367 1.61423 0
M  V30 4934 O 450.966 -0.290518 1.88575 0
M  V30 4935 C 448.106 -0.0650747 3.45039 0
M  V30 4936 C 447.219 0.960207 4.21194 0
M  V30 4937 C 446.354 0.276854 5.30478 0
M  V30 4938 C 445.393 1.2888 5.98378 0
M  V30 4939 N 444.53 0.632031 6.99249 0
M  V30 4940 H 449.37 1.47071 2.59179 0
M  V30 4941 H 446.907 0.736192 1.27352 0
M  V30 4942 H 448.865 -0.461552 4.14639 0
M  V30 4943 H 447.495 -0.910233 3.09701 0
M  V30 4944 H 446.547 1.47484 3.50646 0
M  V30 4945 H 447.859 1.72977 4.67847 0
M  V30 4946 H 447.013 -0.175056 6.06447 0
M  V30 4947 H 445.752 -0.525004 4.84866 0
M  V30 4948 H 444.757 1.75109 5.21169 0
M  V30 4949 H 445.982 2.09196 6.46076 0
M  V30 4950 H 443.928 -0.149935 6.55829 0
M  V30 4951 H 443.845 1.33964 7.44036 0
M  V30 4952 H 445.113 0.203755 7.79234 0
M  V30 4953 N 449.342 -1.36122 0.79427 0
M  V30 4954 C 450.588 -1.99846 0.378542 0
M  V30 4955 C 450.943 -1.61898 -1.03955 0
M  V30 4956 O 450.236 -0.866013 -1.70912 0
M  V30 4957 C 450.43 -3.5409 0.48527 0
M  V30 4958 C 450.259 -4.0702 1.91219 0
M  V30 4959 C 449.029 -4.36944 2.53787 0
M  V30 4960 C 451.227 -4.26435 2.87502 0
M  V30 4961 N 449.209 -4.75727 3.88017 0
M  V30 4962 C 450.58 -4.68077 4.06576 0
M  V30 4963 C 452.635 -4.08616 2.84495 0
M  V30 4964 C 451.338 -4.93765 5.23057 0
M  V30 4965 C 453.364 -4.35453 4.00169 0
M  V30 4966 C 452.726 -4.77355 5.17988 0
M  V30 4967 H 448.825 -0.759549 0.186034 0
M  V30 4968 H 451.409 -1.65043 1.0329 0
M  V30 4969 H 449.58 -3.88151 -0.139023 0
M  V30 4970 H 451.312 -4.04675 0.0453192 0
M  V30 4971 H 448.067 -4.26822 2.05231 0
M  V30 4972 H 448.491 -4.99396 4.57092 0
M  V30 4973 H 453.133 -3.75373 1.94564 0
M  V30 4974 H 450.851 -5.25887 6.1357 0
M  V30 4975 H 454.437 -4.2323 3.99208 0
M  V30 4976 H 453.317 -4.97718 6.06008 0
M  V30 4977 N 450.82 -0.546701 -1.47814 0
M  V30 4978 C 451.767 0.206854 -2.29871 0
M  V30 4979 C 452.737 0.918235 -1.38411 0
M  V30 4980 O 453.922 0.915991 -1.67375 0
M  V30 4981 C 451.062 1.23746 -3.22151 0
M  V30 4982 C 450.175 0.533216 -4.28697 0
M  V30 4983 C 449.31 1.5482 -5.08138 0
M  V30 4984 C 448.349 0.828347 -6.06469 0
M  V30 4985 N 447.486 1.78966 -6.78908 0
M  V30 4986 H 452.326 -0.499037 -2.93792 0
M  V30 4987 H 449.863 -0.25793 -1.44821 0
M  V30 4988 H 451.821 1.84746 -3.74065 0
M  V30 4989 H 450.451 1.91151 -2.60117 0
M  V30 4990 H 449.503 -0.191089 -3.7992 0
M  V30 4991 H 450.815 -0.0311987 -4.9879 0
M  V30 4992 H 449.969 2.23202 -5.6415 0
M  V30 4993 H 448.708 2.14652 -4.37922 0
M  V30 4994 H 447.713 0.130539 -5.49645 0
M  V30 4995 H 448.938 0.235907 -6.7869 0
M  V30 4996 H 446.884 2.37675 -6.1143 0
M  V30 4997 H 446.801 1.27712 -7.45135 0
M  V30 4998 H 448.069 2.46496 -7.395 0
M  V30 4999 N 452.299 1.55045 -0.282633 0
M  V30 5000 C 453.231 2.2023 0.634924 0
M  V30 5001 C 454.244 1.18931 1.11172 0
M  V30 5002 O 455.433 1.4562 1.03233 0
M  V30 5003 C 452.533 2.82041 1.87899 0
M  V30 5004 C 451.706 4.091 1.54776 0
M  V30 5005 C 450.765 4.54887 2.64507 0
M  V30 5006 O 449.791 5.20496 2.30375 0
M  V30 5007 N 450.993 4.25659 3.94709 0
M  V30 5008 H 453.758 2.99601 0.0769811 0
M  V30 5009 H 451.319 1.61565 -0.104048 0
M  V30 5010 H 453.311 3.09613 2.60619 0
M  V30 5011 H 451.881 2.06618 2.3458 0
M  V30 5012 H 451.101 3.88736 0.654049 0
M  V30 5013 H 452.389 4.9187 1.30158 0
M  V30 5014 H 451.787 3.7306 4.25256 0
M  V30 5015 H 450.344 4.57984 4.63782 0
M  V30 5016 N 453.777 0.010035 1.57597 0
M  V30 5017 C 455.002 -0.687021 1.95691 0
M  V30 5018 C 455.427 -1.65952 0.885519 0
M  V30 5019 O 454.785 -1.80633 -0.15543 0
M  V30 5020 C 454.833 -1.3864 3.32884 0
M  V30 5021 O 453.937 -2.50115 3.27897 0
M  V30 5022 H 453.278 -0.181989 0.638573 0
M  V30 5023 H 455.808 0.0662122 2.04493 0
M  V30 5024 H 455.818 -1.74754 3.6868 0
M  V30 5025 H 454.493 -0.673411 4.10412 0
M  V30 5026 H 453.07 -2.16253 3.03791 0
M  V30 5027 N 455.255 -1.55392 -0.262866 0
M  V30 5028 C 456.501 -1.76737 -0.99458 0
M  V30 5029 C 456.834 -0.572453 -1.85571 0
M  V30 5030 O 456.109 0.429732 -1.89693 0
M  V30 5031 C 456.392 -3.07824 -1.8686 0
M  V30 5032 C 456.245 -4.3769 -1.03672 0
M  V30 5033 C 457.564 -3.35021 -2.85393 0
M  V30 5034 H 454.683 -0.643005 -0.360157 0
M  V30 5035 H 457.325 -1.88126 -0.266216 0
M  V30 5036 H 455.475 -2.98245 -2.48962 0
M  V30 5037 H 457.147 -4.59238 -0.43563 0
M  V30 5038 H 455.39 -4.32461 -0.340513 0
M  V30 5039 H 456.061 -5.25759 -1.6817 0
M  V30 5040 H 458.537 -3.44458 -2.33426 0
M  V30 5041 H 457.413 -4.27989 -3.43681 0
M  V30 5042 H 457.674 -2.55153 -3.61039 0
M  V30 5043 N 456.733 0.527833 -1.48498 0
M  V30 5044 C 458.149 0.856571 -1.34666 0
M  V30 5045 C 458.349 1.98271 -0.35931 0
M  V30 5046 O 457.405 2.51551 0.218703 0
M  V30 5047 C 458.718 1.22207 -2.74747 0
M  V30 5048 C 460.266 1.33183 -2.83251 0
M  V30 5049 C 460.741 1.73075 -4.24039 0
M  V30 5050 N 462.232 1.80174 -4.26722 0
M  V30 5051 C 462.967 2.1243 -5.32598 0
M  V30 5052 N 462.463 2.43096 -6.4875 0
M  V30 5053 N 464.256 2.13454 -5.19994 0
M  V30 5054 H 456.407 -0.215174 -2.11307 0
M  V30 5055 H 458.67 -0.0336281 -0.947403 0
M  V30 5056 H 458.376 0.468195 -3.4857 0
M  V30 5057 H 458.25 2.17173 -3.08409 0
M  V30 5058 H 460.637 2.07647 -2.09683 0
M  V30 5059 H 460.718 0.363333 -2.53206 0
M  V30 5060 H 460.362 0.991712 -4.98124 0
M  V30 5061 H 460.292 2.70979 -4.51529 0
M  V30 5062 H 462.783 1.58744 -3.42942 0
M  V30 5063 H 463.096 2.6682 -7.25277 0
M  V30 5064 H 461.441 2.40611 -6.52021 0
M  V30 5065 H 464.632 1.88956 -4.28268 0
M  V30 5066 H 464.805 2.38261 -6.02608 0
M  V30 5067 N 458.211 1.37122 0.776871 0
M  V30 5068 C 459.141 1.35164 1.90402 0
M  V30 5069 C 460.122 0.221069 1.68657 0
M  V30 5070 O 461.307 0.420642 1.8959 0
M  V30 5071 C 458.437 1.15274 3.27611 0
M  V30 5072 C 457.391 2.25289 3.63908 0
M  V30 5073 C 456.717 1.90527 4.99603 0
M  V30 5074 C 458.017 3.67446 3.71188 0
M  V30 5075 H 459.711 2.29482 1.92297 0
M  V30 5076 H 457.257 1.10465 0.923773 0
M  V30 5077 H 459.21 1.12536 4.06096 0
M  V30 5078 H 457.934 0.174102 3.26136 0
M  V30 5079 H 456.593 2.27174 2.87728 0
M  V30 5080 H 456.241 0.91206 4.94662 0
M  V30 5081 H 455.941 2.64193 5.24858 0
M  V30 5082 H 457.465 1.89367 5.80493 0
M  V30 5083 H 458.879 3.67719 4.39836 0
M  V30 5084 H 457.276 4.40123 4.07936 0
M  V30 5085 H 458.346 4.01443 2.71977 0
M  V30 5086 N 459.689 -1.00246 1.21608 0
M  V30 5087 C 460.938 -1.73476 1.02902 0
M  V30 5088 C 461.251 -1.90643 -0.437561 0
M  V30 5089 O 462.457 -2.61105 -0.74407 0
M  V30 5090 C 460.913 -3.12079 1.79261 0
M  V30 5091 C 460.521 -3.02877 3.30106 0
M  V30 5092 C 462.265 -3.89421 1.68972 0
M  V30 5093 C 460.172 -4.36575 3.98944 0
M  V30 5094 H 459.102 -0.650408 0.381425 0
M  V30 5095 H 461.753 -1.11985 1.45367 0
M  V30 5096 H 460.135 -3.74196 1.2959 0
M  V30 5097 H 461.309 -2.49983 3.87098 0
M  V30 5098 H 459.624 -2.39022 3.40965 0
M  V30 5099 H 462.221 -4.88362 2.17731 0
M  V30 5100 H 462.564 -4.1122 0.648397 0
M  V30 5101 H 463.097 -3.33963 2.16133 0
M  V30 5102 H 459.836 -4.19978 5.03288 0
M  V30 5103 H 459.356 -4.8942 3.4674 0
M  V30 5104 H 461.035 -5.05364 4.04 0
M  V30 5105 N 461.167 -1.02423 -1.1978 0
M  V30 5106 C 462.392 -0.7373 -1.93852 0
M  V30 5107 C 462.817 0.696923 -1.74713 0
M  V30 5108 O 462.175 1.48056 -1.04638 0
M  V30 5109 C 462.223 -1.08783 -3.438 0
M  V30 5110 O 461.327 -0.20383 -4.11896 0
M  V30 5111 H 460.668 -0.27284 -0.605355 0
M  V30 5112 H 463.198 -1.36966 -1.51992 0
M  V30 5113 H 463.208 -1.04276 -3.9445 0
M  V30 5114 H 461.883 -2.13274 -3.57053 0
M  V30 5115 H 460.46 -0.307091 -3.71633 0
M  V30 5116 N 462.645 1.35699 -0.801477 0
M  V30 5117 C 463.575 2.32436 -0.222658 0
M  V30 5118 C 464.556 1.5723 0.649057 0
M  V30 5119 O 465.741 1.85324 0.580387 0
M  V30 5120 C 462.871 3.41469 0.633719 0
M  V30 5121 C 461.825 4.27774 -0.139083 0
M  V30 5122 C 461.151 5.28082 0.838666 0
M  V30 5123 C 462.451 5.04946 -1.33517 0
M  V30 5124 H 464.145 2.81094 -1.03086 0
M  V30 5125 H 461.691 1.35146 -0.497155 0
M  V30 5126 H 463.644 4.08143 1.04868 0
M  V30 5127 H 462.368 2.91408 1.47475 0
M  V30 5128 H 461.027 3.62673 -0.535156 0
M  V30 5129 H 460.675 4.7429 1.67506 0
M  V30 5130 H 460.375 5.86695 0.32594 0
M  V30 5131 H 461.899 5.97628 1.25194 0
M  V30 5132 H 463.313 5.64593 -0.995349 0
M  V30 5133 H 461.71 5.7303 -1.78202 0
M  V30 5134 H 462.78 4.35886 -2.12442 0
M  V30 5135 N 464.123 0.554532 1.47522 0
M  V30 5136 C 465.363 0.0317994 2.04375 0
M  V30 5137 C 465.727 -1.29242 1.41988 0
M  V30 5138 O 466.928 -1.90269 1.89872 0
M  V30 5139 C 465.199 -0.0623344 3.57346 0
M  V30 5140 S 466.758 -0.531578 4.35568 0
M  V30 5141 H 463.576 0.0238553 0.7106 0
M  V30 5142 H 466.178 0.74066 1.80927 0
M  V30 5143 H 464.882 0.905857 4.00278 0
M  V30 5144 H 464.413 -0.794831 3.85287 0
M  V30 5145 H 466.428 -1.79175 4.62721 0
M  V30 5146 N 465.601 -1.54893 0.290851 0
M  V30 5147 C 466.533 -2.20564 -0.623236 0
M  V30 5148 C 467.546 -1.19519 -1.1054 0
M  V30 5149 O 468.735 -1.46165 -1.02459 0
M  V30 5150 C 465.835 -2.83033 -1.86401 0
M  V30 5151 C 465.008 -4.09916 -1.52604 0
M  V30 5152 C 464.067 -4.56284 -2.62091 0
M  V30 5153 O 463.093 -5.2171 -2.27612 0
M  V30 5154 N 464.295 -4.27746 -3.92446 0
M  V30 5155 H 467.06 -2.99638 -0.0610915 0
M  V30 5156 H 464.621 -1.61508 0.112615 0
M  V30 5157 H 466.613 -3.1099 -2.58973 0
M  V30 5158 H 465.183 -2.0786 -2.33481 0
M  V30 5159 H 464.403 -3.89078 -0.633424 0
M  V30 5160 H 465.691 -4.92554 -1.27547 0
M  V30 5161 H 465.089 -3.7531 -4.23272 0
M  V30 5162 H 463.646 -4.60437 -4.61347 0
M  V30 5163 N 467.08 -0.0183926 -1.57589 0
M  V30 5164 C 468.496 0.337897 -1.55982 0
M  V30 5165 C 468.696 1.73604 -1.02294 0
M  V30 5166 O 467.752 2.43589 -0.664895 0
M  V30 5167 C 469.065 0.196305 -3.00059 0
M  V30 5168 C 470.613 0.269875 -3.11834 0
M  V30 5169 C 471.088 0.157197 -4.5773 0
M  V30 5170 N 472.579 0.214521 -4.62703 0
M  V30 5171 C 473.314 0.150955 -5.73201 0
M  V30 5172 N 472.81 0.0369212 -6.9279 0
M  V30 5173 N 474.603 0.204162 -5.61729 0
M  V30 5174 H 466.754 -0.93279 -1.90821 0
M  V30 5175 H 469.017 -0.359253 -0.877292 0
M  V30 5176 H 468.723 -0.766383 -3.43248 0
M  V30 5177 H 468.597 0.970908 -3.6449 0
M  V30 5178 H 470.984 1.22302 -2.68563 0
M  V30 5179 H 471.065 -0.534918 -2.50144 0
M  V30 5180 H 470.709 -0.792479 -5.01679 0
M  V30 5181 H 470.639 0.980717 -5.17387 0
M  V30 5182 H 473.13 0.303238 -3.76681 0
M  V30 5183 H 473.443 -0.00518321 -7.728 0
M  V30 5184 H 471.788 0.0022886 -6.95 0
M  V30 5185 H 474.979 0.291575 -4.67191 0
M  V30 5186 H 475.152 0.15116 -6.47824 0
M  V30 5187 N 468.558 1.5553 0.254621 0
M  V30 5188 C 469.488 1.9268 1.31897 0
M  V30 5189 C 470.469 0.790797 1.506 0
M  V30 5190 O 471.654 1.05045 1.63337 0
M  V30 5191 C 468.784 2.21477 2.67517 0
M  V30 5192 C 467.738 3.37256 2.63519 0
M  V30 5193 C 467.064 3.51576 4.02862 0
M  V30 5194 C 468.364 4.73157 2.21179 0
M  V30 5195 H 470.058 2.81832 1.01051 0
M  V30 5196 H 467.604 1.35599 0.484662 0
M  V30 5197 H 469.557 2.46055 3.42104 0
M  V30 5198 H 468.281 1.29144 2.99982 0
M  V30 5199 H 466.94 3.12675 1.9139 0
M  V30 5200 H 466.588 2.56676 4.32581 0
M  V30 5201 H 466.288 4.2943 4.01078 0
M  V30 5202 H 467.812 3.78467 4.79161 0
M  V30 5203 H 469.226 4.97158 2.85494 0
M  V30 5204 H 467.623 5.54058 2.30521 0
M  V30 5205 H 468.693 4.70739 1.16332 0
M  V30 5206 N 470.036 -0.519951 1.48776 0
M  V30 5207 C 471.261 -1.30447 1.6124 0
M  V30 5208 C 471.686 -1.86055 0.276591 0
M  V30 5209 O 471.044 -1.64915 -0.753183 0
M  V30 5210 C 471.092 -2.42406 2.66967 0
M  V30 5211 O 470.196 -3.45728 2.24824 0
M  V30 5212 H 469.537 -0.385924 0.540332 0
M  V30 5213 H 472.067 -0.624572 1.94834 0
M  V30 5214 H 472.077 -2.88447 2.88552 0
M  V30 5215 H 470.752 -2.01294 3.63941 0
M  V30 5216 H 469.329 -3.05737 2.13494 0
M  V30 5217 N 471.514 -1.37532 -0.769588 0
M  V30 5218 C 472.93 -1.18379 -1.07045 0
M  V30 5219 C 473.13 -0.0214312 -2.01489 0
M  V30 5220 O 472.186 0.637809 -2.44312 0
M  V30 5221 C 473.499 -2.50338 -1.66588 0
M  V30 5222 C 475.047 -2.56879 -1.78835 0
M  V30 5223 C 475.522 -3.88974 -2.41792 0
M  V30 5224 N 477.013 -3.90428 -2.4924 0
M  V30 5225 C 477.748 -4.89388 -2.98809 0
M  V30 5226 N 477.244 -5.98745 -3.48535 0
M  V30 5227 N 479.037 -4.76791 -2.97703 0
M  V30 5228 H 471.188 -2.11921 -0.142541 0
M  V30 5229 H 473.451 -0.939608 -0.125863 0
M  V30 5230 H 473.157 -3.35767 -1.0466 0
M  V30 5231 H 473.031 -2.67583 -2.65856 0
M  V30 5232 H 475.418 -1.71856 -2.39895 0
M  V30 5233 H 475.499 -2.43516 -0.783166 0
M  V30 5234 H 475.143 -4.74412 -1.81371 0
M  V30 5235 H 475.073 -3.99641 -3.4292 0
M  V30 5236 H 477.564 -3.11433 -2.14052 0
M  V30 5237 H 477.877 -6.70205 -3.84767 0
M  V30 5238 H 476.222 -6.02387 -3.46634 0
M  V30 5239 H 479.413 -3.90478 -2.58157 0
M  V30 5240 H 479.586 -5.54069 -3.36024 0
M  V30 5241 N 472.992 0.995999 -1.22138 0
M  V30 5242 C 474.217 1.77601 -1.0711 0
M  V30 5243 C 474.642 1.84339 0.374264 0
M  V30 5244 O 474 1.29359 1.27028 0
M  V30 5245 C 474.048 3.18897 -1.68336 0
M  V30 5246 O 473.152 4.01663 -0.934928 0
M  V30 5247 H 472.493 0.547011 -0.376397 0
M  V30 5248 H 475.023 1.25137 -1.6187 0
M  V30 5249 H 475.033 3.69539 -1.72931 0
M  V30 5250 H 473.708 3.13308 -2.73516 0
M  V30 5251 H 472.285 3.60204 -0.964751 0
M  V30 5252 N 474.47 1.03057 1.19235 0
M  V30 5253 C 475.717 0.728019 1.88961 0
M  V30 5254 C 476.045 -0.743515 1.79728 0
M  V30 5255 O 475.3 -1.55729 1.1852 0
M  V30 5256 C 475.599 1.1268 3.39172 0
M  V30 5257 C 475.265 2.5969 3.68608 0
M  V30 5258 C 473.927 2.99854 3.76352 0
M  V30 5259 C 476.279 3.54793 3.81801 0
M  V30 5260 C 473.607 4.34031 3.94758 0
M  V30 5261 C 475.959 4.88675 4.0172 0
M  V30 5262 C 474.623 5.28526 4.07697 0
M  V30 5263 H 473.893 0.266401 0.691456 0
M  V30 5264 H 476.54 1.29373 1.41191 0
M  V30 5265 H 474.845 0.479722 3.88852 0
M  V30 5266 H 476.542 0.870203 3.91444 0
M  V30 5267 H 473.132 2.27575 3.63191 0
M  V30 5268 H 477.316 3.24914 3.7516 0
M  V30 5269 H 472.572 4.6444 3.97625 0
M  V30 5270 H 476.746 5.6228 4.1087 0
M  V30 5271 H 474.373 6.32506 4.21712 0
M  V30 5272 N 475.948 -1.35272 0.808662 0
M  V30 5273 C 476.878 -2.32315 0.234981 0
M  V30 5274 C 477.859 -1.57572 -0.64071 0
M  V30 5275 O 479.044 -1.8563 -0.570551 0
M  V30 5276 C 476.174 -3.41801 -0.615601 0
M  V30 5277 C 475.128 -4.27694 0.161767 0
M  V30 5278 C 474.454 -5.28519 -0.810649 0
M  V30 5279 C 475.754 -5.04231 1.36193 0
M  V30 5280 H 477.448 -2.80543 1.04575 0
M  V30 5281 H 474.994 -1.3488 0.504315 0
M  V30 5282 H 476.947 -4.08693 -1.02702 0
M  V30 5283 H 475.671 -2.92186 -1.45928 0
M  V30 5284 H 474.33 -3.62384 0.554382 0
M  V30 5285 H 473.978 -4.75171 -1.64988 0
M  V30 5286 H 473.678 -5.8686 -0.294822 0
M  V30 5287 H 475.202 -5.98283 -1.22023 0
M  V30 5288 H 476.616 -5.64058 1.02528 0
M  V30 5289 H 475.013 -5.72077 1.81239 0
M  V30 5290 H 476.083 -4.34753 2.14751 0
M  V30 5291 N 477.426 -0.562348 -1.47226 0
M  V30 5292 C 478.651 -0.0432632 -2.07355 0
M  V30 5293 C 479.076 1.24332 -1.41149 0
M  V30 5294 O 478.434 1.74603 -0.488226 0
M  V30 5295 C 478.482 0.130288 -3.60365 0
M  V30 5296 O 477.586 1.19166 -3.94808 0
M  V30 5297 H 476.927 -0.0536334 -0.66183 0
M  V30 5298 H 479.457 -0.779495 -1.89169 0
M  V30 5299 H 479.467 0.342881 -4.06557 0
M  V30 5300 H 478.142 -0.809389 -4.07948 0
M  V30 5301 H 476.719 0.959153 -3.60354 0
M  V30 5302 N 478.904 1.54736 -0.299062 0
M  V30 5303 C 480.32 1.59507 0.0543849 0
M  V30 5304 C 480.52 1.31606 1.52585 0
M  V30 5305 O 479.576 1.08853 2.27832 0
M  V30 5306 C 480.889 2.98751 -0.34181 0
M  V30 5307 C 482.437 3.1165 -0.290414 0
M  V30 5308 C 482.912 4.53199 -0.661402 0
M  V30 5309 N 484.403 4.59114 -0.613863 0
M  V30 5310 C 485.138 5.66709 -0.873417 0
M  V30 5311 N 484.634 6.82349 -1.19884 0
M  V30 5312 N 486.427 5.56369 -0.800608 0
M  V30 5313 H 478.578 1.71133 -1.25806 0
M  V30 5314 H 480.841 0.799186 -0.509908 0
M  V30 5315 H 480.547 3.24085 -1.36608 0
M  V30 5316 H 480.421 3.75961 0.305508 0
M  V30 5317 H 482.808 2.86066 0.724605 0
M  V30 5318 H 482.889 2.366 -0.972327 0
M  V30 5319 H 482.533 4.79513 -1.67422 0
M  V30 5320 H 482.463 5.26583 0.0425612 0
M  V30 5321 H 484.954 3.76053 -0.3732 0
M  V30 5322 H 485.267 7.60326 -1.38291 0
M  V30 5323 H 483.612 6.83906 -1.23685 0
M  V30 5324 H 486.803 4.64904 -0.546045 0
M  V30 5325 H 486.976 6.40139 -1.00626 0
M  V30 5326 N 480.382 0.0267497 1.57577 0
M  V30 5327 C 481.607 -0.666227 1.96408 0
M  V30 5328 C 482.032 -1.65004 0.903071 0
M  V30 5329 O 481.39 -1.80787 -0.136263 0
M  V30 5330 C 481.438 -1.35101 3.34335 0
M  V30 5331 O 480.542 -2.46623 3.30531 0
M  V30 5332 H 479.883 -0.175206 0.640468 0
M  V30 5333 H 482.413 0.0878977 2.04411 0
M  V30 5334 H 482.423 -1.70834 3.70513 0
M  V30 5335 H 481.098 -0.629844 4.11103 0
M  V30 5336 H 479.675 -2.13019 3.06068 0
M  V30 5337 N 481.861 -1.55662 -0.24637 0
M  V30 5338 C 482.809 -1.91186 -1.3248 0
M  V30 5339 C 483.803 -0.790996 -1.49799 0
M  V30 5340 O 485.009 -0.975617 -1.51267 0
M  V30 5341 H 481.384 -0.607207 -0.443626 0
M  V30 5342 H 483.355 -2.81221 -0.997853 0
M  V30 5343 C 482.104 -2.22349 -2.67313 0
M  V30 5344 H 481.427 -3.08097 -2.54786 0
M  V30 5345 H 482.867 -2.51107 -3.41645 0
M  V30 5346 C 481.326 -1.04001 -3.20446 0
M  V30 5347 O 481.856 -0.28828 -4.00664 0
M  V30 5348 N 480.062 -0.830494 -2.7848 0
M  V30 5349 H 479.609 -1.4435 -2.13356 0
M  V30 5350 H 479.567 -0.0403258 -3.14374 0
M  V30 5351 N 483.339 0.512053 -1.4905 0
M  V30 5352 C 484.272 1.63209 -1.59493 0
M  V30 5353 C 485.25 1.56407 -0.444481 0
M  V30 5354 O 486.434 1.76623 -0.658535 0
M  V30 5355 C 483.561 3.01685 -1.53961 0
M  V30 5356 C 482.607 3.26786 -2.74068 0
M  V30 5357 S 483.44 3.11107 -4.35859 0
M  V30 5358 C 484.596 4.51997 -4.32954 0
M  V30 5359 H 484.829 1.54104 -2.54243 0
M  V30 5360 H 482.362 0.696382 -1.37804 0
M  V30 5361 H 484.32 3.81538 -1.51455 0
M  V30 5362 H 482.981 3.08215 -0.605178 0
M  V30 5363 H 482.174 4.27849 -2.66386 0
M  V30 5364 H 481.776 2.54635 -2.73928 0
M  V30 5365 H 484.068 5.43871 -4.03993 0
M  V30 5366 H 485.011 4.64731 -5.34257 0
M  V30 5367 H 485.419 4.32159 -3.63178 0
M  V30 5368 N 484.817 1.37938 0.762283 0
M  V30 5369 C 486.042 1.37059 1.55659 0
M  V30 5370 C 486.467 -0.0396123 1.88058 0
M  V30 5371 O 485.825 -1.01929 1.49934 0
M  V30 5372 C 485.873 2.22494 2.83776 0
M  V30 5373 O 484.977 1.63607 3.78559 0
M  V30 5374 H 484.318 0.467892 0.47114 0
M  V30 5375 H 486.848 1.81587 0.942725 0
M  V30 5376 H 486.858 2.36045 3.32786 0
M  V30 5377 H 485.533 3.24993 2.59524 0
M  V30 5378 H 484.11 1.5915 3.37233 0
M  V30 5379 N 486.295 -0.989507 1.22664 0
M  V30 5380 C 487.541 -1.7321 1.05481 0
M  V30 5381 C 487.874 -1.89852 -0.408635 0
M  V30 5382 O 487.149 -1.44416 -1.30285 0
M  V30 5383 C 487.432 -3.1357 1.77047 0
M  V30 5384 C 487.285 -3.04555 3.31008 0
M  V30 5385 C 488.604 -4.12812 1.5256 0
M  V30 5386 H 485.723 -0.628697 0.384589 0
M  V30 5387 H 488.365 -1.15258 1.51049 0
M  V30 5388 H 486.515 -3.63046 1.3831 0
M  V30 5389 H 488.187 -2.62674 3.7921 0
M  V30 5390 H 486.43 -2.41278 3.6051 0
M  V30 5391 H 487.101 -4.03894 3.76263 0
M  V30 5392 H 489.577 -3.72106 1.86215 0
M  V30 5393 H 488.453 -5.09132 2.05124 0
M  V30 5394 H 488.714 -4.39711 0.458936 0
M  V30 5395 N 487.773 -1.03688 -1.18687 0
M  V30 5396 C 488.736 -0.629115 -2.20397 0
M  V30 5397 C 489.736 0.311495 -1.57754 0
M  V30 5398 O 490.926 0.0974107 -1.73927 0
M  V30 5399 C 488.058 0.0782231 -3.4081 0
M  V30 5400 H 489.251 -1.52915 -2.57987 0
M  V30 5401 H 486.804 -0.828988 -1.32505 0
M  V30 5402 H 487.539 0.992233 -3.08748 0
M  V30 5403 H 487.324 -0.597776 -3.87517 0
M  V30 5404 H 488.814 0.350156 -4.16129 0
M  V30 5405 N 489.251 1.34841 -0.815825 0
M  V30 5406 C 490.667 1.51543 -0.500697 0
M  V30 5407 C 490.867 1.76261 0.976444 0
M  V30 5408 O 489.923 1.8094 1.76117 0
M  V30 5409 C 491.236 2.68487 -1.35407 0
M  V30 5410 C 492.784 2.82368 -1.35046 0
M  V30 5411 C 493.259 4.02347 -2.18816 0
M  V30 5412 N 494.75 4.09542 -2.16402 0
M  V30 5413 C 495.485 5.01517 -2.77971 0
M  V30 5414 N 494.981 5.98763 -3.48503 0
M  V30 5415 N 496.774 4.94334 -2.67563 0
M  V30 5416 H 488.925 1.17055 -1.77234 0
M  V30 5417 H 491.188 0.573481 -0.754866 0
M  V30 5418 H 490.894 2.56829 -2.40274 0
M  V30 5419 H 490.768 3.63321 -1.01377 0
M  V30 5420 H 493.155 2.93471 -0.309604 0
M  V30 5421 H 493.236 1.88363 -1.73069 0
M  V30 5422 H 492.88 3.92004 -3.22948 0
M  V30 5423 H 492.81 4.95551 -1.78148 0
M  V30 5424 H 495.301 3.39932 -1.65091 0
M  V30 5425 H 495.614 6.6556 -3.92747 0
M  V30 5426 H 493.959 5.98909 -3.52609 0
M  V30 5427 H 497.15 4.1732 -2.12041 0
M  V30 5428 H 497.323 5.6582 -3.15834 0
M  V30 5429 N 490.729 0.570148 1.46925 0
M  V30 5430 C 491.954 0.0542592 2.07329 0
M  V30 5431 C 492.379 -1.23582 1.41806 0
M  V30 5432 O 491.737 -1.74341 0.497479 0
M  V30 5433 C 491.785 -0.111175 3.60429 0
M  V30 5434 O 490.889 -1.17071 3.95434 0
M  V30 5435 H 490.23 0.0571425 0.661537 0
M  V30 5436 H 492.76 0.789516 1.88753 0
M  V30 5437 H 492.77 -0.321315 4.06733 0
M  V30 5438 H 491.445 0.831012 4.07513 0
M  V30 5439 H 490.022 -0.940029 3.60857 0
M  V30 5440 N 492.207 -1.54576 0.307264 0
M  V30 5441 C 493.484 -1.92377 -0.353605 0
M  V30 5442 C 493.864 -1.23517 -1.71192 0
M  V30 5443 O 493.212 -0.373101 -2.25433 0
M  V30 5444 C 493.422 -3.45928 -0.462039 0
M  V30 5445 C 494.77 -4.18278 -0.729975 0
M  V30 5446 O 495.794 -3.51997 -0.545605 0
M  V30 5447 O 494.653 -5.3563 -1.08454 0
M  V30 5448 H 491.747 -0.802747 -0.198812 0
M  V30 5449 H 494.293 -1.65929 0.355783 0
M  V30 5450 H 493.065 -3.88187 0.492592 0
M  V30 5451 H 492.688 -3.78431 -1.21965 0
M  V30 5452 N 493.685 -0.035106 -1.57561 0
M  V30 5453 C 494.962 0.681212 -1.83354 0
M  V30 5454 C 495.342 1.89986 -0.920252 0
M  V30 5455 O 494.69 2.28489 0.0226815 0
M  V30 5456 C 494.9 1.05376 -3.32712 0
M  V30 5457 C 496.248 1.44286 -3.99333 0
M  V30 5458 O 497.272 1.14656 -3.37242 0
M  V30 5459 O 496.131 1.99518 -5.08778 0
M  V30 5460 H 493.225 0.334741 -0.756226 0
M  V30 5461 H 495.771 -0.0632448 -1.69582 0
M  V30 5462 H 494.543 0.186668 -3.90854 0
M  V30 5463 H 494.166 1.85619 -3.51613 0
M  V30 5464 N 495.163 1.55791 0.238111 0
M  V30 5465 C 496.391 1.82098 0.982233 0
M  V30 5466 C 496.806 0.612025 1.78605 0
M  V30 5467 O 496.163 -0.419381 1.77616 0
M  V30 5468 C 496.214 3.0673 1.91309 0
M  V30 5469 O 495.935 4.2296 1.14179 0
M  V30 5470 C 497.436 3.45903 2.77248 0
M  V30 5471 H 494.656 0.605748 0.288635 0
M  V30 5472 H 497.2 2.02862 0.258341 0
M  V30 5473 H 495.355 2.87991 2.59114 0
M  V30 5474 H 495.769 4.93653 1.7722 0
M  V30 5475 H 497.243 4.36189 3.38295 0
M  V30 5476 H 497.72 2.66891 3.48806 0
M  V30 5477 H 498.326 3.67024 2.14881 0
M  V30 5478 N 496.642 -0.504142 1.49319 0
M  V30 5479 C 497.572 -1.61473 1.68667 0
M  V30 5480 C 498.553 -1.61455 0.535378 0
M  V30 5481 O 499.738 -1.78245 0.770868 0
M  V30 5482 C 496.868 -2.99971 1.75028 0
M  V30 5483 C 495.822 -3.14854 2.89916 0
M  V30 5484 C 495.148 -4.54671 2.81387 0
M  V30 5485 C 496.448 -2.95176 4.30893 0
M  V30 5486 H 498.142 -1.45535 2.61648 0
M  V30 5487 H 495.688 -0.698711 1.25913 0
M  V30 5488 H 497.641 -3.77562 1.8715 0
M  V30 5489 H 496.365 -3.1699 0.786441 0
M  V30 5490 H 495.024 -2.39687 2.77391 0
M  V30 5491 H 494.672 -4.68562 1.82917 0
M  V30 5492 H 494.372 -4.6557 3.58494 0
M  V30 5493 H 495.896 -5.34327 2.95512 0
M  V30 5494 H 497.31 -3.62538 4.44116 0
M  V30 5495 H 495.707 -3.17549 5.09198 0
M  V30 5496 H 496.777 -1.91332 4.45556 0
M  V30 5497 N 498.12 -1.38341 -0.754957 0
M  V30 5498 C 499.397 -1.24995 -1.50451 0
M  V30 5499 C 499.777 0.149244 -2.10572 0
M  V30 5500 O 499.125 1.15861 -1.96948 0
M  V30 5501 C 499.335 -2.35904 -2.57197 0
M  V30 5502 C 500.683 -2.74262 -3.24138 0
M  V30 5503 O 501.707 -2.35205 -2.67501 0
M  V30 5504 O 500.566 -3.4161 -4.26574 0
M  V30 5505 H 497.66 -0.48872 -0.667144 0
M  V30 5506 H 500.206 -1.50165 -0.790486 0
M  V30 5507 H 498.978 -3.2953 -2.11011 0
M  V30 5508 H 498.601 -2.12291 -3.36182 0
M  V30 5509 N 499.598 0.982988 -1.23187 0
M  V30 5510 C 500.508 2.10907 -1.02739 0
M  V30 5511 C 501.524 1.73979 0.0273188 0
M  V30 5512 O 502.7 2.00702 -0.16757 0
M  V30 5513 C 499.765 3.41142 -0.618304 0
M  V30 5514 C 498.826 3.92112 -1.74777 0
M  V30 5515 C 498.059 5.16131 -1.3581 0
M  V30 5516 O 498.282 5.6989 -0.241201 0
M  V30 5517 O 497.216 5.61103 -2.17824 0
M  V30 5518 H 501.042 2.31046 -1.97108 0
M  V30 5519 H 498.627 1.09284 -1.01869 0
M  V30 5520 H 500.509 4.19488 -0.400982 0
M  V30 5521 H 499.184 3.2234 0.296421 0
M  V30 5522 H 498.091 3.14895 -2.0197 0
M  V30 5523 H 499.424 4.15364 -2.64071 0
M  V30 5524 N 501.076 1.04316 1.18135 0
M  V30 5525 C 501.986 0.646876 2.25505 0
M  V30 5526 C 503.002 -0.328008 1.7088 0
M  V30 5527 O 504.178 -0.182309 2.00573 0
M  V30 5528 C 501.243 0.0185664 3.46695 0
M  V30 5529 C 500.304 1.04277 4.16443 0
M  V30 5530 C 499.537 0.444352 5.31847 0
M  V30 5531 O 499.76 -0.748735 5.65465 0
M  V30 5532 O 498.694 1.17428 5.90334 0
M  V30 5533 H 502.52 1.54147 2.61672 0
M  V30 5534 H 500.105 0.814188 1.25265 0
M  V30 5535 H 501.987 -0.331068 4.20097 0
M  V30 5536 H 500.662 -0.849814 3.12346 0
M  V30 5537 H 499.569 1.44425 3.45098 0
M  V30 5538 H 500.902 1.882 4.54798 0
M  V30 5539 N 502.554 -1.34406 0.822964 0
M  V30 5540 C 503.831 -1.92733 0.333641 0
M  V30 5541 C 504.211 -1.75107 -1.17901 0
M  V30 5542 O 503.559 -1.12983 -1.98613 0
M  V30 5543 C 503.769 -3.40557 0.763023 0
M  V30 5544 C 505.117 -4.17709 0.761879 0
M  V30 5545 O 506.141 -3.49141 0.705606 0
M  V30 5546 O 505 -5.40082 0.835109 0
M  V30 5547 H 502.094 -0.821964 0.0911249 0
M  V30 5548 H 504.64 -1.4338 0.907757 0
M  V30 5549 H 503.412 -3.47187 1.8049 0
M  V30 5550 H 503.035 -3.97259 0.164605 0
M  V30 5551 N 504.032 -0.577932 -1.46621 0
M  V30 5552 C 505.257 -0.0652536 -2.07297 0
M  V30 5553 C 505.682 1.22828 -1.4246 0
M  V30 5554 O 505.04 1.74075 -0.506718 0
M  V30 5555 C 505.088 0.0920589 -3.60482 0
M  V30 5556 O 504.192 1.14972 -3.96049 0
M  V30 5557 H 503.533 -0.06065 -0.661224 0
M  V30 5558 H 506.063 -0.799515 -1.88332 0
M  V30 5559 H 506.073 0.299741 -4.06897 0
M  V30 5560 H 504.748 -0.852612 -4.07067 0
M  V30 5561 H 503.325 0.920879 -3.61351 0
M  V30 5562 N 505.51 1.54411 -0.315457 0
M  V30 5563 C 506.757 2.00419 0.289543 0
M  V30 5564 C 507.085 1.20373 1.52776 0
M  V30 5565 O 506.34 0.271769 1.93804 0
M  V30 5566 C 506.639 3.50936 0.676652 0
M  V30 5567 C 506.305 4.48532 -0.461472 0
M  V30 5568 C 504.967 4.74936 -0.773879 0
M  V30 5569 C 507.319 5.06567 -1.22637 0
M  V30 5570 C 504.647 5.56634 -1.85405 0
M  V30 5571 C 506.999 5.89441 -2.29657 0
M  V30 5572 C 505.663 6.1415 -2.61488 0
M  V30 5573 H 504.933 0.733386 0.105951 0
M  V30 5574 H 507.58 1.86434 -0.437554 0
M  V30 5575 H 505.885 3.62606 1.48405 0
M  V30 5576 H 507.582 3.83971 1.15618 0
M  V30 5577 H 504.172 4.28096 -0.207893 0
M  V30 5578 H 508.356 4.86157 -0.998271 0
M  V30 5579 H 503.612 5.74012 -2.10523 0
M  V30 5580 H 507.786 6.33432 -2.89374 0
M  V30 5581 H 505.413 6.77245 -3.45317 0
M  V30 5582 N 506.988 0.0434614 1.5754 0
M  V30 5583 C 508.234 -0.632971 1.92669 0
M  V30 5584 C 508.567 -1.70947 0.921446 0
M  V30 5585 O 507.842 -1.94426 -0.0537202 0
M  V30 5586 C 508.125 -1.23619 3.38216 0
M  V30 5587 C 507.978 -0.168274 4.49485 0
M  V30 5588 C 509.297 -2.15008 3.84005 0
M  V30 5589 H 506.416 -0.228629 0.700641 0
M  V30 5590 H 509.058 0.103651 1.89717 0
M  V30 5591 H 507.208 -1.864 3.40863 0
M  V30 5592 H 508.88 0.463196 4.58969 0
M  V30 5593 H 507.123 0.504581 4.30855 0
M  V30 5594 H 507.794 -0.630218 5.48391 0
M  V30 5595 H 510.27 -1.62198 3.83185 0
M  V30 5596 H 509.146 -2.54161 4.86511 0
M  V30 5597 H 509.407 -3.04707 3.20322 0
M  V30 5598 N 508.466 -1.55915 -0.229846 0
M  V30 5599 C 509.399 -1.86734 -1.3117 0
M  V30 5600 C 510.377 -0.723947 -1.45595 0
M  V30 5601 O 511.561 -0.971462 -1.61539 0
M  V30 5602 C 508.688 -2.06707 -2.68309 0
M  V30 5603 C 507.734 -3.2938 -2.70944 0
M  V30 5604 S 508.567 -4.85547 -2.25842 0
M  V30 5605 C 509.723 -5.08546 -3.64873 0
M  V30 5606 H 509.956 -2.78204 -1.04832 0
M  V30 5607 H 507.489 -1.48243 -0.431681 0
M  V30 5608 H 509.447 -2.18898 -3.47267 0
M  V30 5609 H 508.108 -1.16049 -2.91876 0
M  V30 5610 H 507.301 -3.40374 -3.71701 0
M  V30 5611 H 506.903 -3.16004 -2.00044 0
M  V30 5612 H 509.195 -4.96935 -4.60502 0
M  V30 5613 H 510.138 -6.10465 -3.58801 0
M  V30 5614 H 510.546 -4.36314 -3.58176 0
M  V30 5615 N 509.944 0.496216 -1.49584 0
M  V30 5616 C 510.891 1.59722 -1.66606 0
M  V30 5617 C 511.861 1.58158 -0.507477 0
M  V30 5618 O 513.046 1.76072 -0.735076 0
M  V30 5619 C 510.186 2.97844 -1.74308 0
M  V30 5620 C 509.299 3.09388 -3.01502 0
M  V30 5621 C 508.434 4.38271 -3.00153 0
M  V30 5622 C 507.473 4.43466 -4.21906 0
M  V30 5623 N 506.61 5.63784 -4.1844 0
M  V30 5624 H 511.45 1.44515 -2.60613 0
M  V30 5625 H 508.987 0.703048 -1.29212 0
M  V30 5626 H 510.945 3.77907 -1.76754 0
M  V30 5627 H 509.575 3.11743 -0.837619 0
M  V30 5628 H 508.627 2.22357 -3.08645 0
M  V30 5629 H 509.939 3.09085 -3.91494 0
M  V30 5630 H 509.093 5.2666 -3.01188 0
M  V30 5631 H 507.832 4.41146 -2.07947 0
M  V30 5632 H 506.837 3.53478 -4.21109 0
M  V30 5633 H 508.062 4.42303 -5.1531 0
M  V30 5634 H 506.008 5.67491 -3.29074 0
M  V30 5635 H 505.925 5.65118 -5.02173 0
M  V30 5636 H 507.193 6.54367 -4.23585 0
M  V30 5637 N 511.423 1.38739 0.74761 0
M  V30 5638 C 512.386 1.36241 1.84312 0
M  V30 5639 C 513.386 0.261811 1.58654 0
M  V30 5640 O 514.576 0.519031 1.66288 0
M  V30 5641 C 511.708 1.12253 3.21888 0
M  V30 5642 H 512.901 2.33712 1.87933 0
M  V30 5643 H 510.454 1.2412 0.949946 0
M  V30 5644 H 511.189 0.154133 3.23934 0
M  V30 5645 H 510.974 1.91943 3.41907 0
M  V30 5646 H 512.464 1.13215 4.0196 0
M  V30 5647 N 512.901 -0.976442 1.23707 0
M  V30 5648 C 514.15 -1.71254 1.06559 0
M  V30 5649 C 514.463 -1.91528 -0.397024 0
M  V30 5650 O 515.669 -2.62625 -0.688518 0
M  V30 5651 C 514.125 -3.08207 1.8584 0
M  V30 5652 C 513.733 -2.95806 3.36456 0
M  V30 5653 C 515.477 -3.85749 1.77194 0
M  V30 5654 C 513.384 -4.28015 4.08114 0
M  V30 5655 H 512.314 -0.642171 0.395136 0
M  V30 5656 H 514.965 -1.08877 1.4771 0
M  V30 5657 H 513.347 -3.71363 1.37498 0
M  V30 5658 H 514.521 -2.41716 3.92314 0
M  V30 5659 H 512.836 -2.31736 3.45959 0
M  V30 5660 H 515.433 -4.83633 2.28041 0
M  V30 5661 H 515.776 -4.09752 0.735477 0
M  V30 5662 H 516.309 -3.29303 2.23169 0
M  V30 5663 H 513.048 -4.09208 5.12083 0
M  V30 5664 H 512.568 -4.81955 3.57043 0
M  V30 5665 H 514.247 -4.96681 4.14629 0
M  V30 5666 N 514.379 -1.04941 -1.1758 0
M  V30 5667 C 515.628 -0.753124 -1.87112 0
M  V30 5668 C 515.941 0.722507 -1.81767 0
M  V30 5669 O 517.147 1.13265 -2.46746 0
M  V30 5670 C 515.603 -1.29695 -3.35719 0
M  V30 5671 C 515.211 -2.80184 -3.49572 0
M  V30 5672 C 516.955 -1.07759 -4.10595 0
M  V30 5673 C 514.862 -3.2788 -4.92187 0
M  V30 5674 H 513.792 -0.278034 -0.700866 0
M  V30 5675 H 516.443 -1.26637 -1.32798 0
M  V30 5676 H 514.825 -0.711522 -3.89555 0
M  V30 5677 H 515.999 -3.44561 -3.05965 0
M  V30 5678 H 514.314 -3.00632 -2.88113 0
M  V30 5679 H 516.911 -1.40899 -5.15802 0
M  V30 5680 H 517.254 -0.0152302 -4.16297 0
M  V30 5681 H 517.787 -1.62809 -3.62957 0
M  V30 5682 H 514.526 -4.33535 -4.91658 0
M  V30 5683 H 514.046 -2.68245 -5.36475 0
M  V30 5684 H 515.725 -3.22412 -5.60945 0
M  V30 5685 N 515.857 1.33968 -0.830081 0
M  V30 5686 C 516.807 2.26845 -0.229242 0
M  V30 5687 C 517.791 1.48862 0.610659 0
M  V30 5688 O 518.983 1.70808 0.464067 0
M  V30 5689 C 516.112 3.3798 0.602057 0
M  V30 5690 C 515.198 4.23369 -0.248866 0
M  V30 5691 N 515.589 4.88182 -1.32334 0
M  V30 5692 C 513.887 4.45987 -0.0344077 0
M  V30 5693 C 514.588 5.51671 -1.84482 0
M  V30 5694 N 513.564 5.31348 -1.14762 0
M  V30 5695 H 517.366 2.74464 -1.05104 0
M  V30 5696 H 514.88 1.4777 -0.673623 0
M  V30 5697 H 516.877 4.03494 1.04873 0
M  V30 5698 H 515.537 2.9191 1.42193 0
M  V30 5699 H 516.548 4.88988 -1.70619 0
M  V30 5700 H 513.225 4.10658 0.752727 0
M  V30 5701 H 514.615 6.13308 -2.74413 0
M  V30 5702 N 517.335 0.585699 1.46312 0
M  V30 5703 C 518.298 -0.135673 2.28798 0
M  V30 5704 C 519.298 -0.815988 1.38558 0
M  V30 5705 O 520.488 -0.667487 1.60904 0
M  V30 5706 C 517.62 -1.20163 3.1902 0
M  V30 5707 H 518.813 0.589257 2.94054 0
M  V30 5708 H 516.366 0.343794 1.52472 0
M  V30 5709 H 517.101 -1.95804 2.58517 0
M  V30 5710 H 516.886 -0.718282 3.85465 0
M  V30 5711 H 518.376 -1.70749 3.81096 0
M  V30 5712 N 518.813 -1.54241 0.323641 0
M  V30 5713 C 520.062 -1.9975 -0.279806 0
M  V30 5714 C 520.375 -1.2156 -1.5324 0
M  V30 5715 O 521.581 -1.57447 -2.21185 0
M  V30 5716 C 520.037 -3.55686 -0.549115 0
M  V30 5717 C 519.645 -4.4271 0.686432 0
M  V30 5718 C 521.389 -4.09663 -1.11251 0
M  V30 5719 C 519.296 -5.90119 0.389022 0
M  V30 5720 H 518.226 -0.746177 -0.10833 0
M  V30 5721 H 520.877 -1.78248 0.435877 0
M  V30 5722 H 519.259 -3.73176 -1.32499 0
M  V30 5723 H 520.433 -4.36996 1.46188 0
M  V30 5724 H 518.748 -3.99623 1.17005 0
M  V30 5725 H 521.345 -5.17386 -1.34965 0
M  V30 5726 H 521.688 -3.61651 -2.06191 0
M  V30 5727 H 522.221 -3.95806 -0.39782 0
M  V30 5728 H 518.96 -6.42326 1.30759 0
M  V30 5729 H 518.48 -5.98785 -0.348722 0
M  V30 5730 H 520.159 -6.47 -0.0011164 0
M  V30 5731 N 520.291 -0.0518155 -1.57515 0
M  V30 5732 C 521.239 0.940195 -2.12751 0
M  V30 5733 C 522.233 1.3218 -1.05948 0
M  V30 5734 O 523.439 1.30138 -1.24355 0
M  V30 5735 H 519.814 0.321066 -0.680015 0
M  V30 5736 H 521.785 0.449217 -2.94999 0
M  V30 5737 C 520.534 2.2055 -2.68799 0
M  V30 5738 H 519.857 1.92066 -3.50643 0
M  V30 5739 H 521.297 2.88119 -3.11068 0
M  V30 5740 C 519.756 2.95061 -1.62605 0
M  V30 5741 O 520.286 3.88025 -1.03921 0
M  V30 5742 N 518.492 2.57804 -1.34111 0
M  V30 5743 H 518.039 1.82281 -1.8202 0
M  V30 5744 H 517.997 3.07964 -0.632872 0
M  V30 5745 N 521.769 1.56035 0.221574 0
M  V30 5746 C 523.046 1.69837 0.970301 0
M  V30 5747 C 523.426 0.599065 2.02421 0
M  V30 5748 O 522.774 -0.393929 2.25079 0
M  V30 5749 C 522.984 3.11148 1.58076 0
M  V30 5750 C 524.332 3.70555 2.07302 0
M  V30 5751 O 525.356 3.14109 1.6797 0
M  V30 5752 O 524.215 4.69562 2.79596 0
M  V30 5753 H 521.309 0.691727 0.453257 0
M  V30 5754 H 523.855 1.68353 0.213358 0
M  V30 5755 H 522.627 3.82617 0.819759 0
M  V30 5756 H 522.25 3.16749 2.40324 0
M  V30 5757 N 523.247 -0.488276 1.49845 0
M  V30 5758 C 524.524 -1.24959 1.50481 0
M  V30 5759 C 524.904 -2.09735 0.239698 0
M  V30 5760 O 524.252 -2.14865 -0.777524 0
M  V30 5761 C 524.462 -2.0954 2.79095 0
M  V30 5762 C 525.81 -2.68305 3.29086 0
M  V30 5763 O 526.834 -2.19797 2.80299 0
M  V30 5764 O 525.693 -3.56643 4.14087 0
M  V30 5765 H 522.787 -0.566133 0.602845 0
M  V30 5766 H 525.333 -0.501504 1.6212 0
M  V30 5767 H 524.105 -1.46958 3.62656 0
M  V30 5768 H 523.728 -2.91517 2.70377 0
M  V30 5769 N 524.725 -1.39134 -0.740242 0
M  V30 5770 C 525.673 -1.3757 -1.87556 0
M  V30 5771 C 526.667 -0.259593 -1.67399 0
M  V30 5772 O 527.873 -0.429349 -1.74804 0
M  V30 5773 H 524.248 -0.42947 -0.6173 0
M  V30 5774 H 526.219 -2.33345 -1.85991 0
M  V30 5775 C 524.968 -1.23087 -3.25184 0
M  V30 5776 H 524.291 -2.08237 -3.41288 0
M  V30 5777 H 525.731 -1.26049 -4.0483 0
M  V30 5778 C 524.19 0.0611471 -3.36845 0
M  V30 5779 O 524.72 1.03328 -3.88183 0
M  V30 5780 N 522.926 0.122454 -2.90342 0
M  V30 5781 H 522.473 -0.669329 -2.48752 0
M  V30 5782 H 522.431 0.986463 -2.98523 0
M  V30 5783 N 526.204 0.969867 -1.24223 0
M  V30 5784 C 527.45 1.7151 -1.08223 0
M  V30 5785 C 527.783 1.90478 0.37838 0
M  V30 5786 O 527.058 1.4647 1.27971 0
M  V30 5787 C 527.341 3.10714 -1.82013 0
M  V30 5788 C 527.194 2.9925 -3.35811 0
M  V30 5789 C 528.513 4.10332 -1.59108 0
M  V30 5790 H 525.632 0.622499 -0.394543 0
M  V30 5791 H 528.274 1.1284 -1.52863 0
M  V30 5792 H 526.424 3.608 -1.44068 0
M  V30 5793 H 528.096 2.56608 -3.83341 0
M  V30 5794 H 526.339 2.35512 -3.64303 0
M  V30 5795 H 527.01 3.97857 -3.82641 0
M  V30 5796 H 529.486 3.69097 -1.92111 0
M  V30 5797 H 528.362 5.05804 -2.13198 0
M  V30 5798 H 528.623 4.38926 -0.528832 0
M  V30 5799 N 527.682 1.05563 1.17022 0
M  V30 5800 C 529.093 0.793475 1.69 0
M  V30 5801 C 529.444 -0.683882 1.83895 0
M  V30 5802 O 528.569 -1.53116 1.5292 0
M  V30 5803 C 529.164 1.43376 3.06967 0
M  V30 5804 C 527.723 1.21956 3.56095 0
M  V30 5805 C 526.87 1.51494 2.3226 0
M  V30 5806 H 529.821 1.22008 1.01487 0
M  V30 5807 H 529.842 0.845068 3.70997 0
M  V30 5808 H 529.354 2.50899 2.96093 0
M  V30 5809 H 527.455 0.163749 3.7224 0
M  V30 5810 H 527.568 1.92713 4.38633 0
M  V30 5811 H 525.932 0.935175 2.3691 0
M  V30 5812 H 526.715 2.60159 2.23992 0
M  V30 5813 N 529.16 -1.33526 0.837174 0
M  V30 5814 C 530.408 -1.97446 0.431211 0
M  V30 5815 C 530.729 -1.6665 -1.01255 0
M  V30 5816 O 529.999 -0.964559 -1.70508 0
M  V30 5817 H 528.579 -0.73043 0.156463 0
M  V30 5818 H 531.241 -1.62918 1.06976 0
M  V30 5819 H 530.337 -3.07001 0.561877 0
M  V30 5820 N 530.638 -0.59345 -1.46 0
M  V30 5821 C 531.568 0.121192 -2.33185 0
M  V30 5822 C 532.549 0.872977 -1.4599 0
M  V30 5823 O 533.734 0.846321 -1.74789 0
M  V30 5824 C 530.864 1.12844 -3.28456 0
M  V30 5825 C 529.818 0.4908 -4.25177 0
M  V30 5826 C 529.144 1.60529 -5.10034 0
M  V30 5827 C 530.444 -0.578949 -5.19081 0
M  V30 5828 H 532.138 -0.606767 -2.93187 0
M  V30 5829 H 529.684 -0.293242 -1.40983 0
M  V30 5830 H 531.637 1.63684 -3.88311 0
M  V30 5831 H 530.361 1.88681 -2.66584 0
M  V30 5832 H 529.02 0.00339328 -3.666 0
M  V30 5833 H 528.668 2.35359 -4.44539 0
M  V30 5834 H 528.368 1.18422 -5.75543 0
M  V30 5835 H 529.892 2.11623 -5.72755 0
M  V30 5836 H 531.306 -0.155199 -5.7309 0
M  V30 5837 H 529.703 -0.920947 -5.92991 0
M  V30 5838 H 530.773 -1.46109 -4.62364 0
M  V30 5839 N 532.116 1.54067 -0.331816 0
M  V30 5840 C 533.048 2.22139 0.564538 0
M  V30 5841 C 534.061 1.22408 1.07332 0
M  V30 5842 O 535.25 1.4883 0.985481 0
M  V30 5843 C 532.35 2.87876 1.78831 0
M  V30 5844 C 531.523 4.13817 1.41682 0
M  V30 5845 C 530.582 4.63072 2.49901 0
M  V30 5846 O 529.608 5.27562 2.13699 0
M  V30 5847 N 530.81 4.38001 3.80967 0
M  V30 5848 H 533.575 2.99694 -0.0183736 0
M  V30 5849 H 531.136 1.61153 -0.155396 0
M  V30 5850 H 533.128 3.17747 2.50637 0
M  V30 5851 H 531.698 2.13977 2.27887 0
M  V30 5852 H 530.918 3.9062 0.530044 0
M  V30 5853 H 532.206 4.95762 1.14443 0
M  V30 5854 H 531.604 3.864 4.13173 0
M  V30 5855 H 530.161 4.72507 4.48977 0
M  V30 5856 N 533.594 0.0601682 1.57485 0
M  V30 5857 C 534.544 -0.920969 2.08572 0
M  V30 5858 C 535.528 -1.26617 0.992827 0
M  V30 5859 O 536.72 -1.24708 1.25606 0
M  V30 5860 C 533.849 -2.19267 2.64153 0
M  V30 5861 C 532.935 -1.87447 3.80427 0
M  V30 5862 N 533.326 -1.26025 4.89848 0
M  V30 5863 C 531.624 -2.17265 3.89502 0
M  V30 5864 C 532.325 -1.12036 5.70809 0
M  V30 5865 N 531.301 -1.62624 5.18705 0
M  V30 5866 H 535.103 -0.441561 2.90564 0
M  V30 5867 H 532.617 -0.144043 1.6176 0
M  V30 5868 H 534.614 -2.90462 2.99061 0
M  V30 5869 H 533.274 -2.67806 1.83603 0
M  V30 5870 H 534.285 -0.931336 5.09457 0
M  V30 5871 H 530.962 -2.68262 3.19909 0
M  V30 5872 H 532.352 -0.642783 6.68818 0
M  V30 5873 N 535.072 -1.5615 -0.213296 0
M  V30 5874 C 536.002 -1.96109 -1.26742 0
M  V30 5875 C 536.983 -0.830448 -1.48451 0
M  V30 5876 O 538.168 -1.09339 -1.60495 0
M  V30 5877 C 535.298 -2.28492 -2.61551 0
M  V30 5878 C 534.252 -3.44124 -2.54485 0
M  V30 5879 C 533.578 -3.62134 -3.93399 0
M  V30 5880 C 534.878 -4.78855 -2.08556 0
M  V30 5881 H 536.572 -2.84412 -0.935434 0
M  V30 5882 H 534.118 -1.36836 -0.44854 0
M  V30 5883 H 536.071 -2.55039 -3.3546 0
M  V30 5884 H 534.795 -1.37052 -2.96453 0
M  V30 5885 H 533.454 -3.17639 -1.83033 0
M  V30 5886 H 533.102 -2.68055 -4.25623 0
M  V30 5887 H 532.802 -4.39913 -3.89551 0
M  V30 5888 H 534.326 -3.91038 -4.68958 0
M  V30 5889 H 535.74 -5.04552 -2.72213 0
M  V30 5890 H 534.137 -5.59975 -2.1575 0
M  V30 5891 H 535.207 -4.73657 -1.03811 0
M  V30 5892 N 536.55 0.480323 -1.50102 0
M  V30 5893 C 537.48 1.58769 -1.71215 0
M  V30 5894 C 538.461 1.60583 -0.560997 0
M  V30 5895 O 539.646 1.76996 -0.799127 0
M  V30 5896 C 536.776 2.97148 -1.79778 0
M  V30 5897 C 535.73 3.10201 -2.94888 0
M  V30 5898 C 535.056 4.50137 -2.88584 0
M  V30 5899 C 536.356 2.88283 -4.35534 0
M  V30 5900 H 538.05 1.41354 -2.6393 0
M  V30 5901 H 535.596 0.678591 -1.27008 0
M  V30 5902 H 537.549 3.74536 -1.93133 0
M  V30 5903 H 536.273 3.15699 -0.836772 0
M  V30 5904 H 534.932 2.35244 -2.81169 0
M  V30 5905 H 534.58 4.65593 -1.90349 0
M  V30 5906 H 534.28 4.59808 -3.65856 0
M  V30 5907 H 535.804 5.29558 -3.03976 0
M  V30 5908 H 537.218 3.55427 -4.49827 0
M  V30 5909 H 535.615 3.09408 -5.14186 0
M  V30 5910 H 536.685 1.84219 -4.48544 0
M  V30 5911 N 538.028 1.39524 0.732853 0
M  V30 5912 C 539.276 1.36594 1.48951 0
M  V30 5913 C 539.597 -0.0367507 1.94965 0
M  V30 5914 O 538.867 -0.988391 1.69138 0
M  V30 5915 H 537.447 0.502673 0.552566 0
M  V30 5916 H 540.109 1.74411 0.869869 0
M  V30 5917 H 539.205 2.03 2.3706 0
M  V30 5918 N 539.506 -0.963266 1.24736 0
M  V30 5919 C 540.731 -1.74699 1.11781 0
M  V30 5920 C 541.156 -1.85267 -0.325258 0
M  V30 5921 O 540.514 -1.32681 -1.23553 0
M  V30 5922 C 540.562 -3.14322 1.76731 0
M  V30 5923 O 539.666 -3.99043 1.04109 0
M  V30 5924 H 539.007 -0.53684 0.390767 0
M  V30 5925 H 541.537 -1.20801 1.65131 0
M  V30 5926 H 541.547 -3.64824 1.82668 0
M  V30 5927 H 540.222 -3.05946 2.81726 0
M  V30 5928 H 538.799 -3.5752 1.05991 0
M  V30 5929 N 540.985 -1.06182 -1.16461 0
M  V30 5930 C 541.915 -0.692861 -2.22984 0
M  V30 5931 C 542.896 0.314122 -1.67174 0
M  V30 5932 O 544.081 0.189499 -1.93273 0
M  V30 5933 C 541.211 -0.07732 -3.47214 0
M  V30 5934 C 540.165 -1.01015 -4.15909 0
M  V30 5935 C 539.491 -0.257973 -5.34077 0
M  V30 5936 C 540.791 -2.33868 -4.67015 0
M  V30 5937 H 542.485 -1.58343 -2.54102 0
M  V30 5938 H 540.031 -0.76279 -1.22137 0
M  V30 5939 H 541.984 0.19266 -4.20959 0
M  V30 5940 H 540.708 0.848254 -3.15392 0
M  V30 5941 H 539.367 -1.26486 -3.44088 0
M  V30 5942 H 539.015 0.670684 -4.98509 0
M  V30 5943 H 538.715 -0.879638 -5.80979 0
M  V30 5944 H 540.239 0.00448788 -6.106 0
M  V30 5945 H 541.653 -2.1279 -5.32347 0
M  V30 5946 H 540.05 -2.91522 -5.24533 0
M  V30 5947 H 541.12 -2.97019 -3.83286 0
M  V30 5948 N 542.463 1.3308 -0.844243 0
M  V30 5949 C 543.688 2.02341 -0.455282 0
M  V30 5950 C 544.113 1.6308 0.93737 0
M  V30 5951 O 543.471 0.826118 1.61385 0
M  V30 5952 C 543.519 3.55743 -0.58988 0
M  V30 5953 O 542.623 4.1063 0.38166 0
M  V30 5954 H 541.964 0.637898 -0.184343 0
M  V30 5955 H 544.494 1.6986 -1.14056 0
M  V30 5956 H 544.504 4.05243 -0.473522 0
M  V30 5957 H 543.179 3.83662 -1.60549 0
M  V30 5958 H 541.756 3.72236 0.22241 0
M  V30 5959 N 543.941 0.601185 1.45683 0
M  V30 5960 C 544.889 -0.133955 2.32214 0
M  V30 5961 C 545.883 -0.866034 1.45589 0
M  V30 5962 O 547.089 -0.782326 1.6211 0
M  V30 5963 H 543.464 -0.0620613 0.749435 0
M  V30 5964 H 545.435 0.614389 2.92007 0
M  V30 5965 C 544.184 -1.12216 3.29094 0
M  V30 5966 H 543.507 -0.568273 3.95741 0
M  V30 5967 H 544.947 -1.60659 3.92383 0
M  V30 5968 C 543.406 -2.19251 2.55794 0
M  V30 5969 O 543.936 -3.26894 2.33459 0
M  V30 5970 N 542.142 -1.9436 2.16039 0
M  V30 5971 H 541.689 -1.06829 2.34404 0
M  V30 5972 H 541.647 -2.66181 1.67318 0
M  V30 5973 N 545.419 -1.53889 0.339982 0
M  V30 5974 C 546.649 -2.04973 -0.258738 0
M  V30 5975 C 547.057 -1.21485 -1.45045 0
M  V30 5976 O 546.4 -0.2422 -1.82096 0
M  V30 5977 C 546.462 -3.51783 -0.740853 0
M  V30 5978 C 546.126 -4.55802 0.330734 0
M  V30 5979 C 547.123 -5.06512 1.17226 0
M  V30 5980 C 544.808 -4.99966 0.483637 0
M  V30 5981 C 546.802 -5.99963 2.15227 0
M  V30 5982 C 544.489 -5.93229 1.46704 0
M  V30 5983 C 545.487 -6.43115 2.29981 0
M  V30 5984 O 545.175 -7.34545 3.26649 0
M  V30 5985 H 544.907 -0.673807 -0.0544037 0
M  V30 5986 H 547.461 -1.99492 0.489107 0
M  V30 5987 H 545.691 -3.54717 -1.53988 0
M  V30 5988 H 547.38 -3.85857 -1.25973 0
M  V30 5989 H 548.146 -4.73158 1.0652 0
M  V30 5990 H 544.025 -4.6074 -0.15471 0
M  V30 5991 H 547.569 -6.38825 2.80265 0
M  V30 5992 H 543.466 -6.25998 1.57468 0
M  V30 5993 H 544.234 -7.52468 3.22078 0
M  V30 5994 N 546.897 -0.0685191 -1.57451 0
M  V30 5995 C 548.174 0.642167 -1.84758 0
M  V30 5996 C 548.554 1.87991 -0.960344 0
M  V30 5997 O 547.902 2.28485 -0.0257894 0
M  V30 5998 C 548.112 0.982946 -3.34872 0
M  V30 5999 C 549.46 1.35784 -4.02303 0
M  V30 6000 O 550.484 1.07477 -3.39598 0
M  V30 6001 O 549.343 1.88681 -5.12895 0
M  V30 6002 H 546.437 0.318625 -0.763156 0
M  V30 6003 H 548.983 -0.0992015 -1.6941 0
M  V30 6004 H 547.755 0.10372 -3.91163 0
M  V30 6005 H 547.378 1.78119 -3.55471 0
M  V30 6006 N 548.375 1.56261 0.205012 0
M  V30 6007 C 549.621 1.80306 0.9283 0
M  V30 6008 C 549.954 0.640932 1.83319 0
M  V30 6009 O 549.229 -0.359032 1.91158 0
M  V30 6010 C 549.512 3.14547 1.75306 0
M  V30 6011 C 549.365 4.41236 0.873562 0
M  V30 6012 C 550.684 3.45382 2.72762 0
M  V30 6013 H 547.803 0.655929 0.336044 0
M  V30 6014 H 550.445 1.88984 0.196211 0
M  V30 6015 H 548.595 3.0728 2.37721 0
M  V30 6016 H 550.267 4.60539 0.264887 0
M  V30 6017 H 548.51 4.33427 0.179773 0
M  V30 6018 H 549.181 5.31639 1.48541 0
M  V30 6019 H 551.657 3.52884 2.20481 0
M  V30 6020 H 550.533 4.40449 3.2756 0
M  V30 6021 H 550.794 2.68377 3.51321 0
M  V30 6022 N 549.853 -0.472356 1.50355 0
M  V30 6023 C 550.801 -1.59126 1.69651 0
M  V30 6024 C 551.795 -1.59793 0.56237 0
M  V30 6025 O 553.001 -1.63957 0.742832 0
M  V30 6026 H 549.376 -0.528008 0.535454 0
M  V30 6027 H 551.347 -1.40013 2.63513 0
M  V30 6028 C 550.096 -2.97075 1.8067 0
M  V30 6029 H 549.419 -2.9728 2.67329 0
M  V30 6030 H 550.859 -3.74825 1.98197 0
M  V30 6031 C 549.318 -3.32247 0.558016 0
M  V30 6032 O 549.848 -4.00553 -0.303399 0
M  V30 6033 N 548.054 -2.87659 0.412415 0
M  V30 6034 H 547.601 -2.32246 1.11443 0
M  V30 6035 H 547.559 -3.11556 -0.421908 0
M  V30 6036 N 551.331 -1.39911 -0.725443 0
M  V30 6037 C 552.263 -1.35301 -1.85003 0
M  V30 6038 C 553.276 -0.260102 -1.60709 0
M  V30 6039 O 554.465 -0.519749 -1.70766 0
M  V30 6040 C 551.565 -1.08039 -3.21218 0
M  V30 6041 C 550.738 -2.28793 -3.7279 0
M  V30 6042 C 549.797 -1.97841 -4.87591 0
M  V30 6043 O 548.823 -2.70616 -5.00755 0
M  V30 6044 N 550.025 -0.950367 -5.72668 0
M  V30 6045 H 552.79 -2.32218 -1.89459 0
M  V30 6046 H 550.351 -1.34137 -0.90658 0
M  V30 6047 H 552.343 -0.853354 -3.95601 0
M  V30 6048 H 550.913 -0.198229 -3.11971 0
M  V30 6049 H 550.133 -2.67388 -2.8965 0
M  V30 6050 H 551.421 -3.09317 -4.03981 0
M  V30 6051 H 550.819 -0.347436 -5.64632 0
M  V30 6052 H 549.376 -0.783232 -6.47077 0
M  V30 6053 N 552.809 0.956637 -1.25245 0
M  V30 6054 C 554.22 1.51569 -1.09012 0
M  V30 6055 C 554.571 1.93322 0.334813 0
M  V30 6056 O 553.696 1.78421 1.22454 0
M  V30 6057 C 554.291 2.75444 -1.97271 0
M  V30 6058 C 552.85 3.27669 -1.8523 0
M  V30 6059 C 551.997 2.00517 -1.91542 0
M  V30 6060 H 554.948 0.773746 -1.3856 0
M  V30 6061 H 554.969 3.4919 -1.51151 0
M  V30 6062 H 554.481 2.45024 -3.00973 0
M  V30 6063 H 552.582 3.62914 -0.844045 0
M  V30 6064 H 552.695 3.9582 -2.69932 0
M  V30 6065 H 551.059 2.15727 -1.35404 0
M  V30 6066 H 551.842 1.72448 -2.96844 0
M  V30 6067 N 554.287 1.06798 1.15896 0
M  V30 6068 C 555.235 0.677525 2.22514 0
M  V30 6069 C 556.229 -0.308994 1.66558 0
M  V30 6070 O 557.435 -0.173308 1.79164 0
M  V30 6071 H 553.81 0.200994 0.724642 0
M  V30 6072 H 555.781 1.5865 2.52731 0
M  V30 6073 C 554.53 0.0854153 3.47595 0
M  V30 6074 H 553.853 0.835645 3.90969 0
M  V30 6075 H 555.293 -0.150199 4.23734 0
M  V30 6076 C 553.752 -1.1724 3.15843 0
M  V30 6077 O 554.282 -2.25965 3.32119 0
M  V30 6078 N 552.488 -1.07636 2.69931 0
M  V30 6079 H 552.035 -0.191559 2.56887 0
M  V30 6080 H 551.993 -1.91876 2.4906 0
M  V30 6081 N 555.766 -1.3263 0.851289 0
M  V30 6082 C 556.713 -2.28952 0.291469 0
M  V30 6083 C 557.683 -1.54897 -0.599676 0
M  V30 6084 O 558.868 -1.83137 -0.535305 0
M  V30 6085 C 556.008 -3.41206 -0.516992 0
M  V30 6086 C 555.121 -4.30148 0.399566 0
M  V30 6087 C 554.256 -5.29527 -0.4212 0
M  V30 6088 C 553.295 -6.10112 0.492969 0
M  V30 6089 N 552.432 -7.01499 -0.290414 0
M  V30 6090 H 557.272 -2.76228 1.11813 0
M  V30 6091 H 554.809 -1.35907 0.562826 0
M  V30 6092 H 556.767 -4.05005 -1.00132 0
M  V30 6093 H 555.397 -2.9509 -1.30851 0
M  V30 6094 H 554.449 -3.66959 1.00227 0
M  V30 6095 H 555.761 -4.8649 1.1013 0
M  V30 6096 H 554.915 -5.98914 -0.968832 0
M  V30 6097 H 553.654 -4.73794 -1.15632 0
M  V30 6098 H 552.659 -5.39632 1.05251 0
M  V30 6099 H 553.884 -6.6793 1.22664 0
M  V30 6100 H 551.83 -6.48199 -1.00868 0
M  V30 6101 H 551.747 -7.55178 0.352354 0
M  V30 6102 H 553.015 -7.75176 -0.819882 0
M  V30 6103 N 557.244 -0.608902 -1.45362 0
M  V30 6104 C 558.194 0.130616 -2.27626 0
M  V30 6105 C 559.178 0.837323 -1.37396 0
M  V30 6106 O 560.37 0.727096 -1.61376 0
M  V30 6107 C 557.499 1.12646 -3.24293 0
M  V30 6108 C 556.585 0.42052 -4.2201 0
M  V30 6109 N 556.976 -0.538569 -5.02925 0
M  V30 6110 C 555.274 0.667901 -4.40971 0
M  V30 6111 C 555.975 -0.953625 -5.7383 0
M  V30 6112 N 554.951 -0.297097 -5.42788 0
M  V30 6113 H 558.753 -0.605996 -2.87585 0
M  V30 6114 H 556.267 -0.432672 -1.5653 0
M  V30 6115 H 558.264 1.67066 -3.81961 0
M  V30 6116 H 556.924 1.86361 -2.65894 0
M  V30 6117 H 557.935 -0.915375 -5.09746 0
M  V30 6118 H 554.612 1.38963 -3.93695 0
M  V30 6119 H 556.002 -1.74473 -6.48852 0
M  V30 6120 N 558.722 1.53707 -0.348139 0
M  V30 6121 C 559.97 2.00591 0.246478 0
M  V30 6122 C 560.291 1.23753 1.50699 0
M  V30 6123 O 559.561 0.345964 1.92821 0
M  V30 6124 H 558.141 0.741053 0.0940679 0
M  V30 6125 H 560.803 1.89139 -0.470354 0
M  V30 6126 H 559.899 3.08297 0.485714 0
M  V30 6127 N 560.2 0.0768682 1.57412 0
M  V30 6128 C 561.428 -0.59997 1.9801 0
M  V30 6129 C 561.843 -1.62842 0.955408 0
M  V30 6130 O 561.2 -1.8241 -0.057314 0
M  V30 6131 C 561.251 -1.26401 3.38681 0
M  V30 6132 O 560.972 -0.276723 4.37225 0
M  V30 6133 C 562.473 -2.0282 3.94182 0
M  V30 6134 H 559.693 -0.162239 0.651091 0
M  V30 6135 H 562.237 0.150771 2.03943 0
M  V30 6136 H 560.392 -1.96581 3.33819 0
M  V30 6137 H 560.806 -0.753744 5.19056 0
M  V30 6138 H 562.28 -2.44667 4.94815 0
M  V30 6139 H 562.757 -2.88678 3.31001 0
M  V30 6140 H 563.363 -1.37496 4.02461 0
M  V30 6141 N 561.678 -1.56367 -0.196722 0
M  V30 6142 C 563.089 -1.70462 -0.761545 0
M  V30 6143 C 563.44 -0.683161 -1.83922 0
M  V30 6144 O 562.565 0.160753 -2.15802 0
M  V30 6145 C 563.16 -3.09057 -1.38814 0
M  V30 6146 C 561.719 -3.24922 -1.90007 0
M  V30 6147 C 560.866 -2.66412 -0.769399 0
M  V30 6148 H 563.817 -1.58675 0.0283263 0
M  V30 6149 H 563.838 -3.06296 -2.2575 0
M  V30 6150 H 563.35 -3.83378 -0.603559 0
M  V30 6151 H 561.451 -2.55514 -2.71189 0
M  V30 6152 H 561.564 -4.3241 -2.06297 0
M  V30 6153 H 559.928 -2.25546 -1.18326 0
M  V30 6154 H 560.711 -3.433 0.00291773 0
M  V30 6155 N 563.156 0.464375 -1.50603 0
M  V30 6156 C 564.567 1.04507 -1.5471 0
M  V30 6157 C 564.918 1.9297 -0.354542 0
M  V30 6158 O 564.043 2.09763 0.531812 0
M  V30 6159 C 564.638 1.90207 -2.80369 0
M  V30 6160 C 563.197 2.43373 -2.87135 0
M  V30 6161 C 562.344 1.21886 -2.49076 0
M  V30 6162 H 565.295 0.246716 -1.56771 0
M  V30 6163 H 565.316 2.75353 -2.62604 0
M  V30 6164 H 564.828 1.25796 -3.67147 0
M  V30 6165 H 562.929 3.11318 -2.04724 0
M  V30 6166 H 563.042 2.7802 -3.90181 0
M  V30 6167 H 561.406 1.55575 -2.01664 0
M  V30 6168 H 562.189 0.591268 -3.3817 0
M  V30 6169 N 564.634 1.40294 0.718013 0
M  V30 6170 C 565.564 1.43118 1.84498 0
M  V30 6171 C 566.545 0.292403 1.67568 0
M  V30 6172 O 567.73 0.500675 1.87635 0
M  V30 6173 C 564.86 1.29065 3.22427 0
M  V30 6174 C 563.814 2.40521 3.54025 0
M  V30 6175 C 563.14 2.11546 4.91073 0
M  V30 6176 C 564.44 3.82859 3.55269 0
M  V30 6177 H 566.134 2.37432 1.82391 0
M  V30 6178 H 563.68 1.14283 0.87609 0
M  V30 6179 H 565.633 1.29658 4.00957 0
M  V30 6180 H 564.357 0.312271 3.25104 0
M  V30 6181 H 563.016 2.39173 2.77834 0
M  V30 6182 H 562.664 1.12104 4.90348 0
M  V30 6183 H 562.364 2.86216 5.1318 0
M  V30 6184 H 563.888 2.13817 5.71939 0
M  V30 6185 H 565.302 3.86044 4.23843 0
M  V30 6186 H 563.699 4.57029 3.88902 0
M  V30 6187 H 564.769 4.12617 2.54706 0
M  V30 6188 N 566.112 -0.949982 1.2575 0
M  V30 6189 C 567.042 -2.06483 1.09028 0
M  V30 6190 C 568.023 -1.701 -0.00201532 0
M  V30 6191 O 569.208 -1.93469 0.168383 0
M  V30 6192 C 566.338 -3.39899 0.71316 0
M  V30 6193 C 565.292 -3.90309 1.75621 0
M  V30 6194 C 564.618 -5.20274 1.23365 0
M  V30 6195 C 565.918 -4.16169 3.15596 0
M  V30 6196 H 567.612 -2.20731 2.02283 0
M  V30 6197 H 565.158 -1.06066 0.973964 0
M  V30 6198 H 567.111 -4.17346 0.58309 0
M  V30 6199 H 565.835 -3.25602 -0.255091 0
M  V30 6200 H 564.494 -3.15035 1.8748 0
M  V30 6201 H 564.142 -5.02351 0.255491 0
M  V30 6202 H 563.842 -5.54971 1.93082 0
M  V30 6203 H 565.366 -6.00314 1.11607 0
M  V30 6204 H 566.78 -4.84259 3.06864 0
M  V30 6205 H 565.177 -4.62131 3.82825 0
M  V30 6206 H 566.247 -3.22273 3.6231 0
M  V30 6207 N 567.59 -1.07411 -1.15328 0
M  V30 6208 C 568.839 -0.792643 -1.85473 0
M  V30 6209 C 569.152 0.683789 -1.83259 0
M  V30 6210 O 570.358 1.08005 -2.49093 0
M  V30 6211 C 568.814 -1.36787 -3.32892 0
M  V30 6212 C 568.422 -2.87536 -3.43551 0
M  V30 6213 C 570.166 -1.16444 -4.08217 0
M  V30 6214 C 568.073 -3.38247 -4.85122 0
M  V30 6215 H 567.003 -0.292838 -0.694811 0
M  V30 6216 H 569.654 -1.29426 -1.30082 0
M  V30 6217 H 568.036 -0.793993 -3.87958 0
M  V30 6218 H 569.21 -3.50973 -2.98588 0
M  V30 6219 H 567.525 -3.06676 -2.81672 0
M  V30 6220 H 570.122 -1.51808 -5.12697 0
M  V30 6221 H 570.465 -0.10353 -4.16171 0
M  V30 6222 H 570.998 -1.70472 -3.59422 0
M  V30 6223 H 567.737 -4.43866 -4.82351 0
M  V30 6224 H 567.257 -2.79564 -5.30664 0
M  V30 6225 H 568.936 -3.34238 -5.5398 0
M  V30 6226 N 569.068 1.32177 -0.85831 0
M  V30 6227 C 570.031 2.27086 -0.310588 0
M  V30 6228 C 571.031 1.51751 0.531806 0
M  V30 6229 O 572.221 1.70794 0.34279 0
M  V30 6230 C 569.353 3.36266 0.560179 0
M  V30 6231 H 570.546 2.77045 -1.1483 0
M  V30 6232 H 568.099 1.42911 -0.632942 0
M  V30 6233 H 568.834 2.9158 1.41956 0
M  V30 6234 H 568.619 3.92077 -0.0428473 0
M  V30 6235 H 570.109 4.06974 0.936056 0
M  V30 6236 N 570.547 0.616602 1.45037 0
M  V30 6237 C 571.51 -0.0871112 2.29034 0
M  V30 6238 C 572.51 -0.786414 1.40258 0
M  V30 6239 O 573.7 -0.633207 1.62284 0
M  V30 6240 C 570.832 -1.13369 3.21497 0
M  V30 6241 H 572.025 0.651497 2.92738 0
M  V30 6242 H 569.578 0.376058 1.51709 0
M  V30 6243 H 570.313 -1.90277 2.62612 0
M  V30 6244 H 570.098 -0.636358 3.86902 0
M  V30 6245 H 571.588 -1.62627 3.84633 0
M  V30 6246 N 572.025 -1.5352 0.356285 0
M  V30 6247 C 573.273 -2.00719 -0.235837 0
M  V30 6248 C 573.594 -1.24551 -1.5004 0
M  V30 6249 O 572.864 -0.356185 -1.92635 0
M  V30 6250 H 571.444 -0.741542 -0.0901366 0
M  V30 6251 H 574.106 -1.88887 0.480378 0
M  V30 6252 H 573.202 -3.08551 -0.469357 0
M  V30 6253 N 573.503 -0.0852151 -1.57369 0
M  V30 6254 C 574.743 0.584297 -1.95871 0
M  V30 6255 C 575.107 1.6596 -0.965473 0
M  V30 6256 O 576.308 2.38561 -1.23862 0
M  V30 6257 C 574.579 1.13411 -3.38929 0
M  V30 6258 S 576.138 1.81687 -3.99419 0
M  V30 6259 H 572.956 0.19095 -0.684879 0
M  V30 6260 H 575.558 -0.162267 -1.94825 0
M  V30 6261 H 574.262 0.339845 -4.0899 0
M  V30 6262 H 573.793 1.91672 -3.43548 0
M  V30 6263 H 575.808 3.10037 -3.87417 0
M  V30 6264 N 574.981 1.5647 0.188427 0
M  V30 6265 C 576.229 1.80655 0.905986 0
M  V30 6266 C 576.55 0.659391 1.83513 0
M  V30 6267 O 575.82 -0.321868 1.93238 0
M  V30 6268 H 574.4 0.666391 0.337538 0
M  V30 6269 H 577.062 1.93949 0.192339 0
M  V30 6270 H 576.158 2.74066 1.49313 0
M  V30 6271 N 576.459 -0.456382 1.50847 0
M  V30 6272 C 577.407 -1.57318 1.71329 0
M  V30 6273 C 578.401 -1.59187 0.579287 0
M  V30 6274 O 579.607 -1.6316 0.76018 0
M  V30 6275 H 575.982 -0.5223 0.541024 0
M  V30 6276 H 577.953 -1.3721 2.64983 0
M  V30 6277 C 576.702 -2.95142 1.83811 0
M  V30 6278 H 576.025 -2.94428 2.70467 0
M  V30 6279 H 577.465 -3.72702 2.02161 0
M  V30 6280 C 575.924 -3.31636 0.593224 0
M  V30 6281 O 576.454 -4.00852 -0.260898 0
M  V30 6282 N 574.66 -2.87205 0.442902 0
M  V30 6283 H 574.207 -2.31051 1.13901 0
M  V30 6284 H 574.165 -3.11986 -0.38884 0
M  V30 6285 N 577.937 -1.40673 -0.710563 0
M  V30 6286 C 579.186 -1.38525 -1.46607 0
M  V30 6287 C 579.499 0.0077024 -1.95598 0
M  V30 6288 O 580.705 0.151792 -2.71075 0
M  V30 6289 C 579.161 -2.43489 -2.6503 0
M  V30 6290 C 578.769 -3.88619 -2.22888 0
M  V30 6291 C 580.513 -2.50456 -3.42742 0
M  V30 6292 C 578.42 -4.85168 -3.3818 0
M  V30 6293 H 577.35 -0.515092 -0.550632 0
M  V30 6294 H 580.001 -1.66431 -0.772846 0
M  V30 6295 H 578.383 -2.0869 -3.36548 0
M  V30 6296 H 579.557 -4.32588 -1.58758 0
M  V30 6297 H 577.872 -3.85174 -1.58208 0
M  V30 6298 H 580.469 -3.19776 -4.28541 0
M  V30 6299 H 580.812 -1.53665 -3.86902 0
M  V30 6300 H 581.345 -2.84271 -2.78271 0
M  V30 6301 H 578.084 -5.8331 -2.99047 0
M  V30 6302 H 577.604 -4.4586 -4.01209 0
M  V30 6303 H 579.283 -5.05225 -4.04174 0
M  V30 6304 N 579.415 0.9433 -1.26252 0
M  V30 6305 C 580.347 2.04542 -1.03417 0
M  V30 6306 C 581.36 1.62799 0.0046911 0
M  V30 6307 O 582.549 1.76944 -0.235146 0
M  V30 6308 C 579.649 3.34511 -0.543671 0
M  V30 6309 C 578.822 4.05033 -1.65128 0
M  V30 6310 C 577.881 5.13273 -1.1592 0
M  V30 6311 O 576.907 5.38095 -1.85586 0
M  V30 6312 N 578.109 5.805 -0.00649279 0
M  V30 6313 H 580.874 2.24699 -1.98319 0
M  V30 6314 H 578.435 1.11264 -1.1761 0
M  V30 6315 H 580.427 4.04212 -0.198703 0
M  V30 6316 H 578.997 3.11042 0.311711 0
M  V30 6317 H 578.217 3.29275 -2.16729 0
M  V30 6318 H 579.505 4.48903 -2.39508 0
M  V30 6319 H 578.903 5.62767 0.575347 0
M  V30 6320 H 577.46 6.51201 0.279416 0
M  V30 6321 N 580.893 1.08022 1.14757 0
M  V30 6322 C 582.142 0.802468 1.8505 0
M  V30 6323 C 582.455 -0.674061 1.83619 0
M  V30 6324 O 583.661 -1.06683 2.49662 0
M  V30 6325 C 582.117 1.38551 3.32162 0
M  V30 6326 C 581.725 2.89354 3.42021 0
M  V30 6327 C 583.469 1.18608 4.07594 0
M  V30 6328 C 581.376 3.40815 4.83321 0
M  V30 6329 H 580.306 0.296518 0.693248 0
M  V30 6330 H 582.957 1.30114 1.29393 0
M  V30 6331 H 581.339 0.814556 3.87532 0
M  V30 6332 H 582.513 3.52552 2.96722 0
M  V30 6333 H 580.828 3.08165 2.80041 0
M  V30 6334 H 583.425 1.54525 5.11885 0
M  V30 6335 H 583.768 0.125599 4.1611 0
M  V30 6336 H 584.301 1.72375 3.58513 0
M  V30 6337 H 581.04 4.46418 4.79991 0
M  V30 6338 H 580.56 2.82374 5.29174 0
M  V30 6339 H 582.239 3.37171 5.522 0
M  V30 6340 N 582.371 -1.3172 0.865308 0
M  V30 6341 C 583.301 -2.31109 0.333302 0
M  V30 6342 C 584.282 -1.60148 -0.573301 0
M  V30 6343 O 585.467 -1.87882 -0.491305 0
M  V30 6344 C 582.597 -3.44104 -0.470078 0
M  V30 6345 C 581.551 -4.26623 0.343021 0
M  V30 6346 C 580.877 -5.31482 -0.585756 0
M  V30 6347 C 582.177 -4.98001 1.57456 0
M  V30 6348 H 583.871 -2.75855 1.1638 0
M  V30 6349 H 581.417 -1.3262 0.561069 0
M  V30 6350 H 583.37 -4.12682 -0.852752 0
M  V30 6351 H 582.094 -2.98112 -1.33404 0
M  V30 6352 H 580.753 -3.59707 0.707583 0
M  V30 6353 H 580.401 -4.81741 -1.44686 0
M  V30 6354 H 580.101 -5.87582 -0.0456494 0
M  V30 6355 H 581.625 -6.0292 -0.965375 0
M  V30 6356 H 583.039 -5.59201 1.26359 0
M  V30 6357 H 581.436 -5.63876 2.05339 0
M  V30 6358 H 582.506 -4.25253 2.32997 0
M  V30 6359 N 583.85 -0.624285 -1.44708 0
M  V30 6360 C 584.782 0.12305 -2.28869 0
M  V30 6361 C 585.795 0.81557 -1.40898 0
M  V30 6362 O 586.984 0.678162 -1.65116 0
M  V30 6363 C 584.084 1.19612 -3.1709 0
M  V30 6364 C 583.257 0.587452 -4.33437 0
M  V30 6365 C 582.316 1.55358 -5.02743 0
M  V30 6366 O 581.341 1.07338 -5.58988 0
M  V30 6367 N 582.543 2.88798 -5.03563 0
M  V30 6368 H 585.308 -0.599193 -2.93649 0
M  V30 6369 H 582.87 -0.464954 -1.5508 0
M  V30 6370 H 584.861 1.84261 -3.60319 0
M  V30 6371 H 583.432 1.82067 -2.54107 0
M  V30 6372 H 582.652 -0.237509 -3.93484 0
M  V30 6373 H 583.94 0.161326 -5.08544 0
M  V30 6374 H 583.338 3.30399 -4.59188 0
M  V30 6375 H 581.894 3.48826 -5.50603 0
M  V30 6376 N 585.328 1.53329 -0.364422 0
M  V30 6377 C 586.258 2.28627 0.474543 0
M  V30 6378 C 587.239 1.31009 1.08492 0
M  V30 6379 O 588.424 1.59878 1.10239 0
M  V30 6380 C 585.554 3.07465 1.61501 0
M  V30 6381 C 584.508 4.1276 1.13194 0
M  V30 6382 C 583.834 4.79674 2.36255 0
M  V30 6383 C 585.134 5.21847 0.217507 0
M  V30 6384 H 586.828 2.99005 -0.153656 0
M  V30 6385 H 584.374 1.43803 -0.0753406 0
M  V30 6386 H 586.327 3.58889 2.20855 0
M  V30 6387 H 585.051 2.34775 2.27042 0
M  V30 6388 H 583.71 3.62281 0.56109 0
M  V30 6389 H 583.358 4.03557 3.00251 0
M  V30 6390 H 583.058 5.50827 2.04606 0
M  V30 6391 H 584.582 5.33892 2.96297 0
M  V30 6392 H 585.996 5.6878 0.718493 0
M  V30 6393 H 584.393 6.00099 -0.00806408 0
M  V30 6394 H 585.463 4.7921 -0.740653 0
M  V30 6395 N 586.806 0.0935595 1.57322 0
M  V30 6396 C 587.736 -0.863062 2.16964 0
M  V30 6397 C 588.717 -1.29528 1.10256 0
M  V30 6398 O 589.902 -1.36245 1.38387 0
M  V30 6399 C 587.032 -2.12276 2.74875 0
M  V30 6400 C 585.986 -1.82921 3.86942 0
M  V30 6401 C 585.312 -3.15707 4.31548 0
M  V30 6402 C 586.612 -1.11737 5.10208 0
M  V30 6403 H 588.306 -0.366145 2.97153 0
M  V30 6404 H 585.852 -0.174673 1.42937 0
M  V30 6405 H 587.805 -2.79634 3.1525 0
M  V30 6406 H 586.529 -2.64248 1.91938 0
M  V30 6407 H 585.188 -1.17961 3.47103 0
M  V30 6408 H 584.836 -3.65563 3.45504 0
M  V30 6409 H 584.536 -2.96849 5.07104 0
M  V30 6410 H 586.06 -3.84226 4.74555 0
M  V30 6411 H 587.474 -1.69203 5.47762 0
M  V30 6412 H 585.871 -1.03064 5.91183 0
M  V30 6413 H 586.941 -0.0998818 4.84797 0
M  V30 6414 N 588.284 -1.56567 -0.180126 0
M  V30 6415 C 589.533 -1.80685 -0.896426 0
M  V30 6416 C 589.846 -0.669335 -1.83791 0
M  V30 6417 O 591.052 -0.795209 -2.59593 0
M  V30 6418 C 589.508 -3.20132 -1.6445 0
M  V30 6419 C 589.116 -4.41727 -0.747088 0
M  V30 6420 C 590.86 -3.53549 -2.34955 0
M  V30 6421 C 588.767 -5.72195 -1.49489 0
M  V30 6422 H 587.697 -0.673758 -0.338477 0
M  V30 6423 H 590.348 -1.8289 -0.149467 0
M  V30 6424 H 588.73 -3.12218 -2.43589 0
M  V30 6425 H 589.904 -4.608 0.00671129 0
M  V30 6426 H 588.219 -4.16122 -0.152134 0
M  V30 6427 H 590.816 -4.48267 -2.91481 0
M  V30 6428 H 591.159 -2.78006 -3.09868 0
M  V30 6429 H 591.692 -3.62976 -1.62768 0
M  V30 6430 H 588.431 -6.50743 -0.788251 0
M  V30 6431 H 587.951 -5.57115 -2.22224 0
M  V30 6432 H 589.63 -6.1384 -2.04472 0
M  V30 6433 N 589.762 0.448376 -1.51087 0
M  V30 6434 C 590.709 1.54341 -1.71603 0
M  V30 6435 C 591.679 1.56463 -0.557536 0
M  V30 6436 O 592.864 1.73644 -0.79072 0
M  V30 6437 C 590.004 2.92148 -1.83695 0
M  V30 6438 C 589.117 2.99639 -3.11192 0
M  V30 6439 C 588.252 4.285 -3.13944 0
M  V30 6440 C 587.291 4.29819 -4.35801 0
M  V30 6441 N 586.428 5.50186 -4.36164 0
M  V30 6442 H 591.268 1.36151 -2.65079 0
M  V30 6443 H 588.805 0.661585 -1.31383 0
M  V30 6444 H 590.763 3.72093 -1.88687 0
M  V30 6445 H 589.393 3.0892 -0.936374 0
M  V30 6446 H 588.445 2.12425 -3.15562 0
M  V30 6447 H 589.757 2.96474 -4.01129 0
M  V30 6448 H 588.911 5.16811 -3.17791 0
M  V30 6449 H 587.65 4.34307 -2.21876 0
M  V30 6450 H 586.655 3.39902 -4.32142 0
M  V30 6451 H 587.88 4.25685 -5.29121 0
M  V30 6452 H 585.826 5.56735 -3.46961 0
M  V30 6453 H 585.743 5.48856 -5.19897 0
M  V30 6454 H 587.011 6.40559 -4.44189 0
M  V30 6455 N 591.24 1.41047 0.703093 0
M  V30 6456 C 592.656 1.23351 1.01275 0
M  V30 6457 C 592.856 0.11754 2.01157 0
M  V30 6458 O 591.912 -0.520518 2.47077 0
M  V30 6459 C 593.225 2.58001 1.54454 0
M  V30 6460 C 594.773 2.65119 1.66376 0
M  V30 6461 C 595.248 4.00067 2.22958 0
M  V30 6462 N 596.739 4.01875 2.30328 0
M  V30 6463 C 597.474 5.03087 2.75119 0
M  V30 6464 N 596.97 6.14692 3.19571 0
M  V30 6465 N 598.763 4.90451 2.74616 0
M  V30 6466 H 590.914 2.1236 0.0412686 0
M  V30 6467 H 593.177 0.944543 0.08089 0
M  V30 6468 H 592.883 3.40378 0.88521 0
M  V30 6469 H 592.757 2.79962 2.52786 0
M  V30 6470 H 595.144 1.83106 2.31422 0
M  V30 6471 H 595.225 2.46975 0.666089 0
M  V30 6472 H 594.869 4.82526 1.58529 0
M  V30 6473 H 594.799 4.15547 3.23462 0
M  V30 6474 H 597.29 3.21291 1.98949 0
M  V30 6475 H 597.603 6.87799 3.52352 0
M  V30 6476 H 595.948 6.18239 3.17498 0
M  V30 6477 H 599.139 4.0235 2.39233 0
M  V30 6478 H 599.312 5.6947 3.09206 0
M  V30 6479 N 592.718 -0.936591 1.26751 0
M  V30 6480 C 593.966 -1.67998 1.12343 0
M  V30 6481 C 594.287 -1.92137 -0.332938 0
M  V30 6482 O 593.557 -1.52132 -1.23421 0
M  V30 6483 H 592.137 -0.622609 0.412756 0
M  V30 6484 H 594.799 -1.12509 1.59147 0
M  V30 6485 H 593.895 -2.65185 1.64571 0
M  V30 6486 N 594.196 -1.08629 -1.14182 0
M  V30 6487 C 595.421 -0.83902 -1.89671 0
M  V30 6488 C 595.846 0.603332 -1.78161 0
M  V30 6489 O 595.204 1.42301 -1.12339 0
M  V30 6490 C 595.252 -1.26854 -3.37551 0
M  V30 6491 O 594.356 -0.42188 -4.10236 0
M  V30 6492 H 593.697 -0.304545 -0.590041 0
M  V30 6493 H 596.227 -1.4483 -1.44518 0
M  V30 6494 H 596.237 -1.25038 -3.88368 0
M  V30 6495 H 594.912 -2.31901 -3.45246 0
M  V30 6496 H 593.489 -0.503654 -3.69483 0
M  V30 6497 N 595.674 1.31259 -0.872281 0
M  V30 6498 C 597.09 1.49283 -0.564521 0
M  V30 6499 C 597.29 1.80243 0.900807 0
M  V30 6500 O 596.346 1.88246 1.68284 0
M  V30 6501 C 597.659 2.62503 -1.46673 0
M  V30 6502 C 599.207 2.76386 -1.46901 0
M  V30 6503 C 599.682 3.92705 -2.35684 0
M  V30 6504 N 601.173 3.99995 -2.33577 0
M  V30 6505 C 601.908 4.89276 -2.98992 0
M  V30 6506 N 601.404 5.83443 -3.73585 0
M  V30 6507 N 603.197 4.82541 -2.88289 0
M  V30 6508 H 595.348 1.09432 -1.82039 0
M  V30 6509 H 597.611 0.540949 -0.77851 0
M  V30 6510 H 597.317 2.46407 -2.50951 0
M  V30 6511 H 597.191 3.58695 -1.16696 0
M  V30 6512 H 599.578 2.91894 -0.433796 0
M  V30 6513 H 599.659 1.80853 -1.80903 0
M  V30 6514 H 599.303 3.77954 -3.39283 0
M  V30 6515 H 599.233 4.87549 -1.99006 0
M  V30 6516 H 601.724 3.32624 -1.7936 0
M  V30 6517 H 602.037 6.48303 -4.20622 0
M  V30 6518 H 600.382 5.83415 -3.77694 0
M  V30 6519 H 603.573 4.07951 -2.2955 0
M  V30 6520 H 603.746 5.51916 -3.39549 0
M  V30 6521 N 597.152 0.631951 1.44375 0
M  V30 6522 C 598.401 0.134214 2.01253 0
M  V30 6523 C 598.714 -1.25171 1.50305 0
M  V30 6524 O 599.92 -1.8435 1.99317 0
M  V30 6525 C 598.376 0.189187 3.59402 0
M  V30 6526 C 597.984 1.57647 4.19346 0
M  V30 6527 C 599.728 -0.252044 4.23751 0
M  V30 6528 C 597.635 1.58651 5.69722 0
M  V30 6529 H 596.565 0.0464101 0.75257 0
M  V30 6530 H 599.216 0.790868 1.65582 0
M  V30 6531 H 597.598 -0.534584 3.92375 0
M  V30 6532 H 598.772 2.32389 3.97909 0
M  V30 6533 H 597.087 1.96186 3.67288 0
M  V30 6534 H 599.684 -0.264084 5.34047 0
M  V30 6535 H 600.027 -1.27951 3.96149 0
M  V30 6536 H 600.56 0.41926 3.95584 0
M  V30 6537 H 597.299 2.59237 6.0206 0
M  V30 6538 H 596.819 0.882039 5.93279 0
M  V30 6539 H 598.498 1.32082 6.33375 0
M  V30 6540 N 598.631 -1.53133 0.372548 0
M  V30 6541 C 599.908 -1.93704 -0.271693 0
M  V30 6542 C 600.288 -1.30667 -1.65799 0
M  V30 6543 O 599.636 -0.46838 -2.23648 0
M  V30 6544 C 599.846 -3.47576 -0.314903 0
M  V30 6545 C 601.194 -4.20998 -0.551912 0
M  V30 6546 O 602.218 -3.53994 -0.39582 0
M  V30 6547 O 601.077 -5.39748 -0.85639 0
M  V30 6548 H 598.171 -0.810457 -0.164586 0
M  V30 6549 H 600.717 -1.6427 0.425838 0
M  V30 6550 H 599.489 -3.85749 0.656792 0
M  V30 6551 H 599.112 -3.83264 -1.05804 0
M  V30 6552 N 600.109 -0.101901 -1.5727 0
M  V30 6553 C 601.355 0.561027 -1.94885 0
M  V30 6554 C 601.688 1.6741 -0.984258 0
M  V30 6555 O 600.963 1.94491 -0.0184767 0
M  V30 6556 C 601.246 1.10982 -3.42571 0
M  V30 6557 C 601.099 0.00133418 -4.498 0
M  V30 6558 C 602.418 2.00608 -3.9172 0
M  V30 6559 H 599.537 0.202467 -0.708644 0
M  V30 6560 H 602.179 -0.173992 -1.89202 0
M  V30 6561 H 600.329 1.73621 -3.47546 0
M  V30 6562 H 602.001 -0.63322 -4.56933 0
M  V30 6563 H 600.244 -0.664143 -4.28686 0
M  V30 6564 H 600.915 0.426253 -5.50352 0
M  V30 6565 H 603.391 1.47864 -3.88941 0
M  V30 6566 H 602.267 2.3593 -4.95609 0
M  V30 6567 H 602.528 2.92608 -3.3141 0
M  V30 6568 N 601.587 1.56661 0.17182 0
M  V30 6569 C 602.519 1.92934 1.2373 0
M  V30 6570 C 603.532 0.822385 1.40502 0
M  V30 6571 O 604.721 1.10083 1.40514 0
M  V30 6572 C 601.821 2.16651 2.60607 0
M  V30 6573 C 600.994 3.47878 2.6514 0
M  V30 6574 C 600.053 3.60429 3.83377 0
M  V30 6575 O 599.079 4.33051 3.69398 0
M  V30 6576 N 600.281 2.95241 4.99813 0
M  V30 6577 H 603.046 2.84931 0.929205 0
M  V30 6578 H 600.607 1.5781 0.361588 0
M  V30 6579 H 602.599 2.22312 3.38171 0
M  V30 6580 H 601.169 1.3104 2.83809 0
M  V30 6581 H 600.389 3.53879 1.73675 0
M  V30 6582 H 601.677 4.34232 2.6518 0
M  V30 6583 H 601.075 2.3611 5.14071 0
M  V30 6584 H 599.632 3.06499 5.75241 0
M  V30 6585 N 603.065 -0.440357 1.51323 0
M  V30 6586 C 604.342 -1.20109 1.5438 0
M  V30 6587 C 604.722 -2.08866 0.306303 0
M  V30 6588 O 604.07 -2.1723 -0.708773 0
M  V30 6589 C 604.28 -2.00555 2.8562 0
M  V30 6590 C 605.628 -2.577 3.37455 0
M  V30 6591 O 606.652 -2.10769 2.8715 0
M  V30 6592 O 605.511 -3.43289 4.25224 0
M  V30 6593 H 602.605 -0.546668 0.620551 0
M  V30 6594 H 605.151 -0.449672 1.63634 0
M  V30 6595 H 603.923 -1.35346 3.67147 0
M  V30 6596 H 603.546 -2.82768 2.79514 0
M  V30 6597 N 604.543 -1.41418 -0.695603 0
M  V30 6598 C 605.49 -1.43264 -1.80954 0
M  V30 6599 C 606.46 -0.287016 -1.63601 0
M  V30 6600 O 607.645 -0.488054 -1.84452 0
M  V30 6601 C 604.785 -1.32054 -3.18835 0
M  V30 6602 C 603.898 -2.56485 -3.4762 0
M  V30 6603 C 603.033 -2.3757 -4.75115 0
M  V30 6604 C 602.072 -3.57477 -4.96867 0
M  V30 6605 N 601.209 -3.37632 -6.15588 0
M  V30 6606 H 606.049 -2.38467 -1.78711 0
M  V30 6607 H 603.586 -1.18415 -0.872715 0
M  V30 6608 H 605.544 -1.23558 -3.98484 0
M  V30 6609 H 604.174 -0.404592 -3.20254 0
M  V30 6610 H 603.226 -2.75432 -2.62376 0
M  V30 6611 H 604.538 -3.45678 -3.59594 0
M  V30 6612 H 603.692 -2.2654 -5.62818 0
M  V30 6613 H 602.431 -1.45834 -4.65386 0
M  V30 6614 H 601.436 -3.68961 -4.07612 0
M  V30 6615 H 602.661 -4.50167 -5.08455 0
M  V30 6616 H 600.607 -2.48596 -6.07072 0
M  V30 6617 H 600.524 -4.20401 -6.2833 0
M  V30 6618 H 601.792 -3.30375 -7.06026 0
M  V30 6619 N 606.021 0.929856 -1.27246 0
M  V30 6620 C 607.269 1.674 -1.13233 0
M  V30 6621 C 607.59 1.92311 0.322744 0
M  V30 6622 O 606.86 1.52784 1.22612 0
M  V30 6623 H 605.44 0.620411 -0.416052 0
M  V30 6624 H 608.102 1.11663 -1.59741 0
M  V30 6625 H 607.198 2.64308 -1.65975 0
M  V30 6626 N 607.499 1.09233 1.13605 0
M  V30 6627 C 608.747 0.825525 1.84471 0
M  V30 6628 C 609.068 -0.650702 1.83823 0
M  V30 6629 O 608.338 -1.47204 1.29259 0
M  V30 6630 H 606.918 0.3024 0.683054 0
M  V30 6631 H 609.58 1.38006 1.37624 0
M  V30 6632 H 608.676 1.17727 2.89045 0
M  V30 6633 N 608.977 -1.30795 0.87923 0
M  V30 6634 C 610.202 -2.01063 0.508769 0
M  V30 6635 C 610.627 -1.65508 -0.893803 0
M  V30 6636 O 609.985 -0.868616 -1.59138 0
M  V30 6637 C 610.033 -3.54054 0.683991 0
M  V30 6638 O 609.137 -4.11498 -0.272654 0
M  V30 6639 H 608.478 -0.632786 0.201191 0
M  V30 6640 H 611.008 -1.66776 1.18519 0
M  V30 6641 H 611.018 -4.03845 0.580798 0
M  V30 6642 H 609.693 -3.79271 1.70665 0
M  V30 6643 H 608.27 -3.72695 -0.12364 0
M  V30 6644 N 610.455 -0.639598 -1.44038 0
M  V30 6645 C 611.403 0.0723409 -2.32487 0
M  V30 6646 C 612.397 0.827129 -1.47834 0
M  V30 6647 O 613.603 0.73907 -1.64127 0
M  V30 6648 H 609.978 0.0421696 -0.750817 0
M  V30 6649 H 611.949 -0.691593 -2.90275 0
M  V30 6650 C 610.698 1.03452 -3.31953 0
M  V30 6651 H 610.021 0.46315 -3.97108 0
M  V30 6652 H 611.461 1.502 -3.96505 0
M  V30 6653 C 609.92 2.12392 -2.61518 0
M  V30 6654 O 610.45 3.2059 -2.42044 0
M  V30 6655 N 608.656 1.88563 -2.21116 0
M  V30 6656 H 608.203 1.00577 -2.37154 0
M  V30 6657 H 608.161 2.61651 -1.74316 0
M  V30 6658 N 611.933 1.52934 -0.380664 0
M  V30 6659 C 612.896 2.24809 0.446473 0
M  V30 6660 C 613.896 1.26133 0.997347 0
M  V30 6661 O 615.086 1.50297 0.880714 0
M  V30 6662 C 612.218 2.99649 1.62553 0
M  V30 6663 H 613.411 2.99343 -0.182677 0
M  V30 6664 H 610.964 1.55736 -0.132618 0
M  V30 6665 H 611.699 2.29395 2.29235 0
M  V30 6666 H 611.484 3.72066 1.23732 0
M  V30 6667 H 612.974 3.54246 2.21133 0
M  V30 6668 N 613.412 0.11024 1.57214 0
M  V30 6669 C 614.658 -0.550684 1.9518 0
M  V30 6670 C 614.991 -1.66885 0.993122 0
M  V30 6671 O 614.266 -1.94479 0.0287907 0
M  V30 6672 C 614.549 -1.09163 3.43155 0
M  V30 6673 C 614.402 0.0225198 4.49794 0
M  V30 6674 C 615.721 -1.98527 3.92778 0
M  V30 6675 H 612.84 -0.198706 0.709708 0
M  V30 6676 H 615.482 0.184024 1.89107 0
M  V30 6677 H 613.632 -1.71775 3.48462 0
M  V30 6678 H 615.304 0.657443 4.56591 0
M  V30 6679 H 613.547 0.686868 4.28328 0
M  V30 6680 H 614.218 -0.39706 5.5057 0
M  V30 6681 H 616.694 -1.458 3.8972 0
M  V30 6682 H 615.57 -2.33298 4.96853 0
M  V30 6683 H 615.831 -2.90846 3.32958 0
M  V30 6684 N 614.89 -1.56749 -0.16351 0
M  V30 6685 C 616.12 -1.86307 -0.892936 0
M  V30 6686 C 616.528 -0.6945 -1.75992 0
M  V30 6687 O 615.871 0.345384 -1.80424 0
M  V30 6688 C 615.933 -3.10372 -1.81409 0
M  V30 6689 C 615.597 -4.42913 -1.12593 0
M  V30 6690 C 616.594 -5.17608 -0.487661 0
M  V30 6691 C 614.279 -4.89646 -1.12035 0
M  V30 6692 C 616.273 -6.3723 0.14699 0
M  V30 6693 C 613.96 -6.09197 -0.481883 0
M  V30 6694 C 614.958 -6.82834 0.150678 0
M  V30 6695 O 614.646 -8.00116 0.779065 0
M  V30 6696 H 614.378 -0.622126 -0.264452 0
M  V30 6697 H 616.932 -2.04728 -0.166063 0
M  V30 6698 H 615.162 -2.87917 -2.58148 0
M  V30 6699 H 616.851 -3.26312 -2.41403 0
M  V30 6700 H 617.617 -4.8258 -0.483888 0
M  V30 6701 H 613.496 -4.32265 -1.60212 0
M  V30 6702 H 617.04 -6.94646 0.641325 0
M  V30 6703 H 612.937 -6.43688 -0.483266 0
M  V30 6704 H 613.705 -8.15678 0.679089 0
M  V30 6705 N 616.368 0.432326 -1.51554 0
M  V30 6706 C 617.614 1.17997 -1.65675 0
M  V30 6707 C 617.969 1.88794 -0.37076 0
M  V30 6708 O 617.262 1.80817 0.633692 0
M  V30 6709 C 617.456 2.21907 -2.80164 0
M  V30 6710 C 617.285 1.6131 -4.19773 0
M  V30 6711 C 616.055 1.39585 -4.85638 0
M  V30 6712 C 618.253 1.08659 -5.0269 0
M  V30 6713 N 616.235 0.746374 -6.09346 0
M  V30 6714 C 617.606 0.562685 -6.17441 0
M  V30 6715 C 619.661 0.978831 -4.88184 0
M  V30 6716 C 618.364 -0.0584015 -7.19276 0
M  V30 6717 C 620.39 0.371631 -5.90231 0
M  V30 6718 C 619.752 -0.141711 -7.04257 0
M  V30 6719 H 615.851 0.419277 -0.660099 0
M  V30 6720 H 618.435 0.475809 -1.88797 0
M  V30 6721 H 616.606 2.89706 -2.58698 0
M  V30 6722 H 618.338 2.88867 -2.8344 0
M  V30 6723 H 615.093 1.65897 -4.43593 0
M  V30 6724 H 615.517 0.438934 -6.75576 0
M  V30 6725 H 620.159 1.36157 -4.00276 0
M  V30 6726 H 617.877 -0.453262 -8.06828 0
M  V30 6727 H 621.463 0.290086 -5.81076 0
M  V30 6728 H 620.343 -0.60417 -7.81869 0
M  V30 6729 N 617.846 1.41785 0.688094 0
M  V30 6730 C 618.809 1.43936 1.78368 0
M  V30 6731 C 619.809 0.328866 1.57401 0
M  V30 6732 O 620.999 0.589093 1.63937 0
M  V30 6733 C 618.131 1.25804 3.16838 0
M  V30 6734 H 619.324 2.41472 1.77852 0
M  V30 6735 H 616.877 1.28037 0.896448 0
M  V30 6736 H 617.612 0.291386 3.22988 0
M  V30 6737 H 617.397 2.06272 3.33458 0
M  V30 6738 H 618.887 1.30162 3.96797 0
M  V30 6739 N 619.324 -0.923095 1.27737 0
M  V30 6740 C 620.287 -2.00587 1.10894 0
M  V30 6741 C 621.287 -1.60718 0.0514927 0
M  V30 6742 O 622.477 -1.71658 0.296481 0
M  V30 6743 C 619.609 -3.33829 0.690717 0
M  V30 6744 H 620.802 -2.16959 2.07048 0
M  V30 6745 H 618.355 -1.10451 1.1059 0
M  V30 6746 H 619.09 -3.23157 -0.272 0
M  V30 6747 H 618.875 -3.64125 1.45448 0
M  V30 6748 H 620.365 -4.13336 0.595252 0
M  V30 6749 N 620.802 -1.09834 -1.13024 0
M  V30 6750 C 622.218 -0.828875 -1.36388 0
M  V30 6751 C 622.418 0.554756 -1.93713 0
M  V30 6752 O 621.474 1.30882 -2.15931 0
M  V30 6753 C 622.787 -1.92352 -2.3113 0
M  V30 6754 C 624.335 -1.95124 -2.44735 0
M  V30 6755 C 624.81 -3.03745 -3.42787 0
M  V30 6756 N 626.301 -3.03012 -3.5034 0
M  V30 6757 C 627.036 -3.83699 -4.26101 0
M  V30 6758 N 626.532 -4.74306 -5.04981 0
M  V30 6759 N 628.325 -3.71942 -4.21445 0
M  V30 6760 H 620.476 -1.99029 -0.74169 0
M  V30 6761 H 622.739 -0.864557 -0.388903 0
M  V30 6762 H 622.445 -2.91906 -1.96172 0
M  V30 6763 H 622.319 -1.80536 -3.3119 0
M  V30 6764 H 624.706 -0.962069 -2.78977 0
M  V30 6765 H 624.787 -2.11018 -1.44586 0
M  V30 6766 H 624.431 -4.02878 -3.09276 0
M  V30 6767 H 624.361 -2.85094 -4.42752 0
M  V30 6768 H 626.852 -2.37352 -2.94062 0
M  V30 6769 H 627.165 -5.32446 -5.60108 0
M  V30 6770 H 625.51 -4.78339 -5.04199 0
M  V30 6771 H 628.701 -3.00513 -3.589 0
M  V30 6772 H 628.874 -4.35062 -4.80235 0
M  V30 6773 N 622.28 1.30327 -0.886154 0
M  V30 6774 C 623.23 2.25668 -0.325248 0
M  V30 6775 C 624.214 1.51318 0.546972 0
M  V30 6776 O 625.406 1.72623 0.391203 0
M  V30 6777 C 622.535 3.40229 0.458167 0
M  V30 6778 C 621.621 4.21933 -0.428208 0
M  V30 6779 N 622.012 4.82129 -1.52921 0
M  V30 6780 C 620.31 4.45439 -0.223535 0
M  V30 6781 C 621.011 5.43351 -2.07714 0
M  V30 6782 N 619.987 5.26002 -1.37195 0
M  V30 6783 H 623.789 2.69759 -1.1665 0
M  V30 6784 H 621.303 1.4478 -0.735691 0
M  V30 6785 H 623.3 4.07579 0.876648 0
M  V30 6786 H 621.96 2.97678 1.29684 0
M  V30 6787 H 622.971 4.81312 -1.91205 0
M  V30 6788 H 619.648 4.13481 0.577875 0
M  V30 6789 H 621.038 6.01118 -3.00178 0
M  V30 6790 N 623.758 0.647228 1.43697 0
M  V30 6791 C 625.006 0.157876 2.01482 0
M  V30 6792 C 625.327 -1.23039 1.51282 0
M  V30 6793 O 624.597 -1.82071 0.722982 0
M  V30 6794 H 623.177 0.0553745 0.744945 0
M  V30 6795 H 625.839 0.83755 1.75986 0
M  V30 6796 H 624.935 0.137895 3.11795 0
M  V30 6797 N 625.236 -1.5273 0.388769 0
M  V30 6798 C 626.186 -2.23238 -0.463567 0
M  V30 6799 C 627.17 -1.23606 -1.03007 0
M  V30 6800 O 628.362 -1.48945 -0.956261 0
M  V30 6801 C 625.491 -3.04228 -1.5906 0
M  V30 6802 C 624.577 -4.11255 -1.03587 0
M  V30 6803 N 624.968 -5.0538 -0.206038 0
M  V30 6804 C 623.266 -4.26376 -1.30841 0
M  V30 6805 C 623.967 -5.81613 0.100359 0
M  V30 6806 N 622.943 -5.41264 -0.503447 0
M  V30 6807 H 626.745 -2.93367 0.176978 0
M  V30 6808 H 624.259 -1.61188 0.198046 0
M  V30 6809 H 626.256 -3.53277 -2.21362 0
M  V30 6810 H 624.916 -2.35634 -2.23398 0
M  V30 6811 H 625.927 -5.17663 0.156659 0
M  V30 6812 H 622.604 -3.69011 -1.95287 0
M  V30 6813 H 623.994 -6.67442 0.772676 0
M  V30 6814 N 626.714 -0.118576 -1.57153 0
M  V30 6815 C 627.96 0.540326 -1.95469 0
M  V30 6816 C 628.293 1.66356 -1.00196 0
M  V30 6817 O 627.568 1.94461 -0.039104 0
M  V30 6818 C 627.851 1.07342 -3.43729 0
M  V30 6819 C 627.704 -0.0463732 -4.49776 0
M  V30 6820 C 629.023 1.96442 -3.93826 0
M  V30 6821 H 626.142 0.19494 -0.710751 0
M  V30 6822 H 628.784 -0.19405 -1.89006 0
M  V30 6823 H 626.934 1.69925 -3.49368 0
M  V30 6824 H 628.606 -0.681648 -4.56236 0
M  V30 6825 H 626.849 -0.709574 -4.27957 0
M  V30 6826 H 627.52 0.367856 -5.50773 0
M  V30 6827 H 629.996 1.43731 -3.90488 0
M  V30 6828 H 628.872 2.3066 -4.98084 0
M  V30 6829 H 629.133 2.89077 -3.34495 0
M  V30 6830 N 628.193 1.56834 0.155195 0
M  V30 6831 C 629.47 1.73799 0.897395 0
M  V30 6832 C 629.85 0.684379 1.99698 0
M  V30 6833 O 629.198 -0.298111 2.26547 0
M  V30 6834 C 629.408 3.17572 1.44737 0
M  V30 6835 C 630.756 3.79014 1.91399 0
M  V30 6836 O 631.78 3.20951 1.54496 0
M  V30 6837 O 630.639 4.80998 2.59429 0
M  V30 6838 H 627.733 0.710329 0.423511 0
M  V30 6839 H 630.279 1.69107 0.141761 0
M  V30 6840 H 629.051 3.85749 0.656741 0
M  V30 6841 H 628.674 3.26657 2.26674 0
M  V30 6842 N 629.671 -0.424282 1.51781 0
M  V30 6843 C 630.899 -1.1947 1.68921 0
M  V30 6844 C 631.314 -1.84683 0.39213 0
M  V30 6845 O 630.671 -1.71261 -0.630554 0
M  V30 6846 C 630.722 -2.26909 2.81416 0
M  V30 6847 O 630.443 -1.64361 4.061 0
M  V30 6848 C 631.944 -3.16945 3.09937 0
M  V30 6849 H 629.164 -0.359591 0.566511 0
M  V30 6850 H 631.708 -0.501139 1.98265 0
M  V30 6851 H 629.863 -2.91959 2.54635 0
M  V30 6852 H 630.277 -2.35468 4.68674 0
M  V30 6853 H 631.751 -3.88437 3.922 0
M  V30 6854 H 632.228 -3.78451 2.22871 0
M  V30 6855 H 632.834 -2.57581 3.38426 0
M  V30 6856 N 631.149 -1.42148 -0.680565 0
M  V30 6857 C 632.079 -1.4796 -1.80638 0
M  V30 6858 C 633.06 -0.336728 -1.66734 0
M  V30 6859 O 634.245 -0.550247 -1.86242 0
M  V30 6860 C 631.375 -1.37569 -3.18892 0
M  V30 6861 C 630.329 -2.49823 -3.47524 0
M  V30 6862 C 629.655 -2.24491 -4.85291 0
M  V30 6863 C 630.955 -3.92144 -3.44994 0
M  V30 6864 H 632.649 -2.42184 -1.76032 0
M  V30 6865 H 630.195 -1.16566 -0.845481 0
M  V30 6866 H 632.148 -1.40243 -3.97379 0
M  V30 6867 H 630.872 -0.398357 -3.24162 0
M  V30 6868 H 629.531 -2.46455 -2.71395 0
M  V30 6869 H 629.179 -1.25066 -4.87204 0
M  V30 6870 H 628.879 -2.99722 -5.05411 0
M  V30 6871 H 630.403 -2.28906 -5.66069 0
M  V30 6872 H 631.817 -3.97145 -4.13459 0
M  V30 6873 H 630.214 -4.67179 -3.76648 0
M  V30 6874 H 631.284 -4.19225 -2.43676 0
M  V30 6875 N 632.627 0.916307 -1.28225 0
M  V30 6876 C 633.574 2.01841 -1.11932 0
M  V30 6877 C 634.544 1.66091 -0.0171604 0
M  V30 6878 O 635.729 1.89934 -0.181617 0
M  V30 6879 C 632.869 3.36065 -0.784504 0
M  V30 6880 C 631.982 3.847 -1.96544 0
M  V30 6881 C 631.117 5.07423 -1.57149 0
M  V30 6882 C 630.156 5.48384 -2.71922 0
M  V30 6883 N 629.293 6.62298 -2.33037 0
M  V30 6884 H 634.133 2.1511 -2.06232 0
M  V30 6885 H 631.67 1.05366 -1.02647 0
M  V30 6886 H 633.628 4.13272 -0.571148 0
M  V30 6887 H 632.258 3.22571 0.121565 0
M  V30 6888 H 631.31 3.03673 -2.291 0
M  V30 6889 H 632.622 4.1102 -2.82603 0
M  V30 6890 H 631.776 5.92165 -1.32004 0
M  V30 6891 H 630.515 4.82906 -0.682153 0
M  V30 6892 H 629.52 4.62184 -2.97768 0
M  V30 6893 H 630.745 5.7489 -3.61494 0
M  V30 6894 H 628.691 6.39416 -1.4657 0
M  V30 6895 H 628.608 6.8833 -3.12631 0
M  V30 6896 H 629.876 7.50352 -2.11169 0
M  V30 6897 N 634.105 1.10431 1.1244 0
M  V30 6898 C 635.352 0.846717 1.83948 0
M  V30 6899 C 635.68 -0.627709 1.84093 0
M  V30 6900 O 634.935 -1.47876 1.28184 0
M  V30 6901 C 635.234 1.34022 3.3132 0
M  V30 6902 C 634.9 2.82606 3.51347 0
M  V30 6903 C 633.562 3.23182 3.56521 0
M  V30 6904 C 635.914 3.78356 3.58464 0
M  V30 6905 C 633.242 4.58258 3.66356 0
M  V30 6906 C 635.594 5.13234 3.69829 0
M  V30 6907 C 634.258 5.53384 3.73259 0
M  V30 6908 H 633.528 0.309836 0.673114 0
M  V30 6909 H 636.175 1.38091 1.32677 0
M  V30 6910 H 634.48 0.726047 3.85014 0
M  V30 6911 H 636.177 1.11739 3.85118 0
M  V30 6912 H 632.767 2.50212 3.47983 0
M  V30 6913 H 636.951 3.48115 3.53737 0
M  V30 6914 H 632.207 4.88787 3.67284 0
M  V30 6915 H 636.381 5.87272 3.74279 0
M  V30 6916 H 634.008 6.58045 3.80633 0
M  V30 6917 N 635.583 -1.29855 0.893053 0
M  V30 6918 C 636.513 -2.3035 0.382249 0
M  V30 6919 C 637.494 -1.61328 -0.539203 0
M  V30 6920 O 638.679 -1.88882 -0.451342 0
M  V30 6921 C 635.809 -3.45024 -0.396983 0
M  V30 6922 C 634.763 -4.258 0.433437 0
M  V30 6923 C 634.089 -5.32605 -0.472889 0
M  V30 6924 C 635.389 -4.94549 1.67984 0
M  V30 6925 H 637.083 -2.73325 1.22205 0
M  V30 6926 H 634.629 -1.314 0.589073 0
M  V30 6927 H 636.582 -4.14398 -0.765024 0
M  V30 6928 H 635.306 -3.00875 -1.2705 0
M  V30 6929 H 633.965 -3.58125 0.783723 0
M  V30 6930 H 633.613 -4.84702 -1.34435 0
M  V30 6931 H 633.313 -5.87547 0.0789958 0
M  V30 6932 H 634.837 -6.04832 -0.837269 0
M  V30 6933 H 636.251 -5.56395 1.38192 0
M  V30 6934 H 634.648 -5.59393 2.17254 0
M  V30 6935 H 635.718 -4.20215 2.41965 0
M  V30 6936 N 637.061 -0.65484 -1.43351 0
M  V30 6937 C 638.286 -0.175046 -2.0666 0
M  V30 6938 C 638.711 1.15104 -1.4877 0
M  V30 6939 O 638.069 1.71144 -0.598279 0
M  V30 6940 C 638.117 -0.0991544 -3.60464 0
M  V30 6941 O 637.221 0.938169 -4.01587 0
M  V30 6942 H 636.562 -0.0956148 -0.65708 0
M  V30 6943 H 639.092 -0.898222 -1.83829 0
M  V30 6944 H 639.102 0.083632 -4.07914 0
M  V30 6945 H 637.777 -1.06719 -4.01975 0
M  V30 6946 H 636.354 0.72804 -3.65724 0
M  V30 6947 N 638.539 1.52521 -0.396863 0
M  V30 6948 C 639.449 2.30403 0.44178 0
M  V30 6949 C 640.465 1.37625 1.06468 0
M  V30 6950 O 641.641 1.70697 1.06886 0
M  V30 6951 C 638.706 3.1013 1.54986 0
M  V30 6952 C 637.767 4.18628 0.951279 0
M  V30 6953 C 637 4.94543 2.00655 0
M  V30 6954 O 637.223 4.70629 3.22281 0
M  V30 6955 O 636.157 5.797 1.61962 0
M  V30 6956 H 639.983 3.03087 -0.192892 0
M  V30 6957 H 637.568 1.48537 -0.16038 0
M  V30 6958 H 639.45 3.59816 2.19341 0
M  V30 6959 H 638.125 2.40251 2.16935 0
M  V30 6960 H 637.032 3.73119 0.270773 0
M  V30 6961 H 638.365 4.90763 0.375887 0
M  V30 6962 N 640.017 0.126909 1.57088 0
M  V30 6963 C 640.965 -0.837618 2.16995 0
M  V30 6964 C 641.959 -1.26974 1.12133 0
M  V30 6965 O 643.165 -1.24056 1.30423 0
M  V30 6966 H 639.54 -0.288256 0.694559 0
M  V30 6967 H 641.511 -0.307957 2.96807 0
M  V30 6968 C 640.26 -2.07474 2.79016 0
M  V30 6969 H 639.583 -1.75117 3.59408 0
M  V30 6970 H 641.023 -2.72949 3.24461 0
M  V30 6971 C 639.482 -2.86967 1.76498 0
M  V30 6972 O 640.012 -3.82625 1.22316 0
M  V30 6973 N 638.218 -2.51111 1.46258 0
M  V30 6974 H 637.765 -1.73389 1.90509 0
M  V30 6975 H 637.723 -3.04594 0.779085 0
M  V30 6976 N 641.495 -1.56914 -0.146875 0
M  V30 6977 C 642.442 -1.98275 -1.18134 0
M  V30 6978 C 643.412 -0.850367 -1.42681 0
M  V30 6979 O 644.597 -1.11244 -1.55014 0
M  V30 6980 C 641.737 -2.36861 -2.5098 0
M  V30 6981 C 640.85 -3.63391 -2.33605 0
M  V30 6982 C 639.985 -3.91079 -3.59486 0
M  V30 6983 C 639.024 -5.10879 -3.37149 0
M  V30 6984 N 638.161 -5.34577 -4.55161 0
M  V30 6985 H 643.001 -2.8645 -0.821622 0
M  V30 6986 H 640.538 -1.41718 -0.394248 0
M  V30 6987 H 642.496 -2.57262 -3.28439 0
M  V30 6988 H 641.126 -1.51766 -2.84898 0
M  V30 6989 H 640.178 -3.50766 -1.47199 0
M  V30 6990 H 641.49 -4.51007 -2.13059 0
M  V30 6991 H 640.644 -4.11979 -4.45374 0
M  V30 6992 H 639.383 -3.01885 -3.83036 0
M  V30 6993 H 638.388 -4.89853 -2.49649 0
M  V30 6994 H 639.613 -6.01626 -3.14997 0
M  V30 6995 H 637.559 -4.48337 -4.78884 0
M  V30 6996 H 637.476 -6.16463 -4.37618 0
M  V30 6997 H 638.744 -5.59975 -5.42263 0
M  V30 6998 N 642.974 0.416227 -1.52004 0
M  V30 6999 C 644.214 1.17307 -1.67387 0
M  V30 7000 C 644.578 1.87959 -0.39183 0
M  V30 7001 O 645.779 2.65472 -0.421671 0
M  V30 7002 C 644.05 2.14661 -2.85754 0
M  V30 7003 S 645.609 2.98549 -3.21581 0
M  V30 7004 H 642.427 0.397505 -0.5895 0
M  V30 7005 H 645.029 0.461431 -1.89976 0
M  V30 7006 H 643.733 1.61431 -3.77317 0
M  V30 7007 H 643.264 2.90375 -2.65417 0
M  V30 7008 H 645.279 4.16536 -2.69652 0
M  V30 7009 N 644.452 1.42507 0.673017 0
M  V30 7010 C 645.863 1.38347 1.25367 0
M  V30 7011 C 646.214 0.0776327 1.96046 0
M  V30 7012 O 645.339 -0.823571 2.00116 0
M  V30 7013 C 645.934 2.506 2.28002 0
M  V30 7014 C 644.493 2.49767 2.81591 0
M  V30 7015 C 643.64 2.293 1.55938 0
M  V30 7016 H 646.591 1.51695 0.466288 0
M  V30 7017 H 646.612 2.20953 3.09774 0
M  V30 7018 H 646.124 3.45627 1.76532 0
M  V30 7019 H 644.225 1.58563 3.37177 0
M  V30 7020 H 644.338 3.46867 3.30485 0
M  V30 7021 H 642.702 1.77594 1.82572 0
M  V30 7022 H 643.485 3.26385 1.06431 0
M  V30 7023 N 645.93 -0.909495 1.28709 0
M  V30 7024 C 646.86 -2.0291 1.15542 0
M  V30 7025 C 647.841 -1.7002 0.0521017 0
M  V30 7026 O 649.026 -1.92835 0.229849 0
M  V30 7027 C 646.156 -3.37458 0.820935 0
M  V30 7028 C 645.11 -3.84524 1.87949 0
M  V30 7029 C 644.436 -5.16086 1.39854 0
M  V30 7030 C 645.736 -4.05918 3.28676 0
M  V30 7031 H 647.43 -2.14183 2.09203 0
M  V30 7032 H 644.976 -1.02913 1.00722 0
M  V30 7033 H 646.929 -4.1528 0.715571 0
M  V30 7034 H 645.653 -3.26249 -0.151374 0
M  V30 7035 H 644.312 -3.08911 1.97408 0
M  V30 7036 H 643.96 -5.01284 0.41518 0
M  V30 7037 H 643.66 -5.48547 2.1064 0
M  V30 7038 H 645.184 -5.96459 1.30649 0
M  V30 7039 H 646.598 -4.74252 3.22115 0
M  V30 7040 H 644.995 -4.49717 3.97334 0
M  V30 7041 H 646.065 -3.10583 3.72379 0
M  V30 7042 N 647.408 -1.11026 -1.11852 0
M  V30 7043 C 648.685 -0.768347 -1.79877 0
M  V30 7044 C 649.065 0.744261 -1.97545 0
M  V30 7045 O 648.413 1.67271 -1.55669 0
M  V30 7046 C 648.623 -1.52648 -3.13846 0
M  V30 7047 C 649.971 -1.70297 -3.88953 0
M  V30 7048 O 650.995 -1.49037 -3.23522 0
M  V30 7049 O 649.854 -2.05593 -5.06353 0
M  V30 7050 H 646.948 -0.277891 -0.778913 0
M  V30 7051 H 649.494 -1.21343 -1.18633 0
M  V30 7052 H 648.266 -2.55564 -2.96315 0
M  V30 7053 H 647.889 -1.07466 -3.82801 0
M  V30 7054 N 648.886 1.2938 -0.899927 0
M  V30 7055 C 650.132 1.9584 -0.526742 0
M  V30 7056 C 650.465 1.70774 0.924651 0
M  V30 7057 O 649.74 1.02084 1.65557 0
M  V30 7058 C 650.023 3.50638 -0.820062 0
M  V30 7059 C 649.876 3.85161 -2.32317 0
M  V30 7060 C 651.195 4.3903 -0.30671 0
M  V30 7061 H 648.314 0.711322 -0.192848 0
M  V30 7062 H 650.956 1.52992 -1.12665 0
M  V30 7063 H 649.106 3.87265 -0.309491 0
M  V30 7064 H 650.778 3.58477 -2.9033 0
M  V30 7065 H 649.021 3.32696 -2.78381 0
M  V30 7066 H 649.692 4.93204 -2.47898 0
M  V30 7067 H 652.168 4.09396 -0.743908 0
M  V30 7068 H 651.044 5.46226 -0.541144 0
M  V30 7069 H 651.305 4.34937 0.792588 0
M  V30 7070 N 650.364 0.662433 1.43002 0
M  V30 7071 C 651.311 -0.0235324 2.30788 0
M  V30 7072 C 652.281 -0.805342 1.4527 0
M  V30 7073 O 653.466 -0.78009 1.74124 0
M  V30 7074 C 650.606 -0.977545 3.30965 0
M  V30 7075 C 649.719 -0.190865 4.31578 0
M  V30 7076 C 648.854 -1.13951 5.18834 0
M  V30 7077 C 647.893 -0.343796 6.11134 0
M  V30 7078 N 647.03 -1.2445 6.90982 0
M  V30 7079 H 651.87 0.730921 2.88897 0
M  V30 7080 H 649.407 0.372197 1.42313 0
M  V30 7081 H 651.365 -1.54437 3.87563 0
M  V30 7082 H 649.995 -1.69877 2.74484 0
M  V30 7083 H 649.047 0.492388 3.772 0
M  V30 7084 H 650.359 0.427464 4.96965 0
M  V30 7085 H 649.513 -1.77666 5.80103 0
M  V30 7086 H 648.252 -1.79174 4.53595 0
M  V30 7087 H 647.257 0.30665 5.48944 0
M  V30 7088 H 648.482 0.304161 6.78419 0
M  V30 7089 H 646.428 -1.88336 6.28383 0
M  V30 7090 H 646.345 -0.680959 7.52927 0
M  V30 7091 H 647.613 -1.86952 7.56749 0
M  V30 7092 N 651.842 -1.52309 0.404946 0
M  V30 7093 C 653.119 -1.94237 -0.230544 0
M  V30 7094 C 653.499 -1.34154 -1.6299 0
M  V30 7095 O 652.847 -0.515713 -2.22604 0
M  V30 7096 C 653.057 -3.48166 -0.241106 0
M  V30 7097 C 654.405 -4.22074 -0.462488 0
M  V30 7098 O 655.429 -3.54754 -0.320644 0
M  V30 7099 O 654.288 -5.41443 -0.741708 0
M  V30 7100 H 651.382 -0.813766 -0.147358 0
M  V30 7101 H 653.928 -1.6333 0.460587 0
M  V30 7102 H 652.7 -3.84269 0.738467 0
M  V30 7103 H 652.323 -3.85422 -0.97651 0
M  V30 7104 N 653.32 -0.135238 -1.57019 0
M  V30 7105 C 654.267 0.808908 -2.1616 0
M  V30 7106 C 655.237 1.25234 -1.09113 0
M  V30 7107 O 656.422 1.32697 -1.37099 0
M  V30 7108 C 653.562 2.04729 -2.77813 0
M  V30 7109 C 652.675 1.65074 -3.99218 0
M  V30 7110 C 651.81 2.84002 -4.48906 0
M  V30 7111 C 650.849 2.40663 -5.62803 0
M  V30 7112 N 649.986 3.5256 -6.07162 0
M  V30 7113 H 654.826 0.297751 -2.96509 0
M  V30 7114 H 652.363 0.135264 -1.46477 0
M  V30 7115 H 654.321 2.7731 -3.11697 0
M  V30 7116 H 652.951 2.53275 -2.00128 0
M  V30 7117 H 652.003 0.823029 -3.7139 0
M  V30 7118 H 653.315 1.29236 -4.81767 0
M  V30 7119 H 652.469 3.64788 -4.84783 0
M  V30 7120 H 651.208 3.23076 -3.65339 0
M  V30 7121 H 650.213 1.58314 -5.26514 0
M  V30 7122 H 651.438 2.02687 -6.48147 0
M  V30 7123 H 649.384 3.91278 -5.26534 0
M  V30 7124 H 649.301 3.20699 -6.84608 0
M  V30 7125 H 650.569 4.33738 -6.47682 0
M  V30 7126 N 654.798 1.5699 0.138552 0
M  V30 7127 C 656.023 1.88344 0.86841 0
M  V30 7128 C 656.448 0.725159 1.7356 0
M  V30 7129 O 655.806 -0.324992 1.78363 0
M  V30 7130 C 655.854 3.18334 1.69398 0
M  V30 7131 O 654.958 3.02863 2.79907 0
M  V30 7132 H 654.299 0.618577 0.241367 0
M  V30 7133 H 656.829 2.04207 0.126826 0
M  V30 7134 H 656.839 3.50567 2.08726 0
M  V30 7135 H 655.514 4.02238 1.05725 0
M  V30 7136 H 654.091 2.82056 2.43924 0
M  V30 7137 N 656.276 -0.40816 1.52223 0
M  V30 7138 C 657.524 -1.15274 1.66001 0
M  V30 7139 C 657.845 -1.91003 0.392803 0
M  V30 7140 O 657.115 -1.8673 -0.592336 0
M  V30 7141 H 655.695 -0.428526 0.611861 0
M  V30 7142 H 658.357 -0.46512 1.89269 0
M  V30 7143 H 657.453 -1.86628 2.50153 0
M  V30 7144 N 657.755 -1.42862 -0.66545 0
M  V30 7145 C 658.665 -1.49491 -1.80803 0
M  V30 7146 C 659.681 -0.382914 -1.69734 0
M  V30 7147 O 660.857 -0.635223 -1.9112 0
M  V30 7148 C 657.922 -1.40383 -3.17007 0
M  V30 7149 C 656.983 -2.62152 -3.39963 0
M  V30 7150 C 656.216 -2.53469 -4.69669 0
M  V30 7151 O 656.439 -1.57568 -5.48205 0
M  V30 7152 O 655.373 -3.43763 -4.94075 0
M  V30 7153 H 659.199 -2.45949 -1.78165 0
M  V30 7154 H 656.784 -1.24728 -0.822387 0
M  V30 7155 H 658.666 -1.377 -3.98267 0
M  V30 7156 H 657.341 -0.470546 -3.20262 0
M  V30 7157 H 656.248 -2.70409 -2.58515 0
M  V30 7158 H 657.581 -3.54411 -3.41546 0
M  V30 7159 N 659.233 0.902656 -1.29189 0
M  V30 7160 C 660.166 2.00816 -1.0839 0
M  V30 7161 C 661.144 1.626 0.00335266 0
M  V30 7162 O 662.328 1.87928 -0.146765 0
M  V30 7163 C 659.455 3.32415 -0.649435 0
M  V30 7164 C 658.501 3.89617 -1.73496 0
M  V30 7165 S 659.334 4.19091 -3.33351 0
M  V30 7166 C 660.49 5.53736 -2.91766 0
M  V30 7167 H 660.723 2.18151 -2.01984 0
M  V30 7168 H 658.256 1.0489 -1.13303 0
M  V30 7169 H 660.214 4.08492 -0.405479 0
M  V30 7170 H 658.875 3.12964 0.266857 0
M  V30 7171 H 658.068 4.84658 -1.38284 0
M  V30 7172 H 657.67 3.20217 -1.93229 0
M  V30 7173 H 659.962 6.34085 -2.38627 0
M  V30 7174 H 660.905 5.93871 -3.85647 0
M  V30 7175 H 661.313 5.15453 -2.30149 0
M  V30 7176 N 660.711 1.11618 1.11262 0
M  V30 7177 C 661.674 0.779447 2.15539 0
M  V30 7178 C 662.674 -0.202081 1.59525 0
M  V30 7179 O 663.864 0.0226356 1.74185 0
M  V30 7180 C 660.996 0.15674 3.40539 0
M  V30 7181 H 662.189 1.70324 2.4684 0
M  V30 7182 H 659.742 0.918298 1.26479 0
M  V30 7183 H 660.477 -0.777186 3.1485 0
M  V30 7184 H 660.262 0.863308 3.82478 0
M  V30 7185 H 661.752 -0.062661 4.17553 0
M  V30 7186 N 662.189 -1.289 0.906776 0
M  V30 7187 C 663.119 -2.29932 0.406659 0
M  V30 7188 C 664.1 -1.6189 -0.522061 0
M  V30 7189 O 665.285 -1.8935 -0.431283 0
M  V30 7190 C 662.415 -3.45425 -0.360366 0
M  V30 7191 C 661.369 -4.25316 0.478574 0
M  V30 7192 C 660.695 -5.33076 -0.416373 0
M  V30 7193 C 661.995 -4.92739 1.7322 0
M  V30 7194 H 663.689 -2.72013 1.25097 0
M  V30 7195 H 661.235 -1.30768 0.602977 0
M  V30 7196 H 663.188 -4.15186 -0.721029 0
M  V30 7197 H 661.912 -3.02206 -1.23852 0
M  V30 7198 H 660.571 -3.57273 0.821662 0
M  V30 7199 H 660.219 -4.86101 -1.29287 0
M  V30 7200 H 659.919 -5.8743 0.141309 0
M  V30 7201 H 661.443 -6.05686 -0.773072 0
M  V30 7202 H 662.857 -5.54898 1.44086 0
M  V30 7203 H 661.254 -5.57057 2.23175 0
M  V30 7204 H 662.324 -4.17625 2.46408 0
M  V30 7205 N 663.667 -0.670007 -1.42649 0
M  V30 7206 C 664.617 0.0339546 -2.27975 0
M  V30 7207 C 665.601 0.778295 -1.40824 0
M  V30 7208 O 666.793 0.657997 -1.64315 0
M  V30 7209 C 663.922 0.987899 -3.28779 0
M  V30 7210 C 663.008 0.241153 -4.23414 0
M  V30 7211 N 663.399 -0.751392 -5.00188 0
M  V30 7212 C 661.697 0.480269 -4.43407 0
M  V30 7213 C 662.398 -1.19615 -5.69269 0
M  V30 7214 N 661.374 -0.527045 -5.41039 0
M  V30 7215 H 665.176 -0.727425 -2.84756 0
M  V30 7216 H 662.69 -0.498673 -1.54554 0
M  V30 7217 H 664.687 1.50716 -3.88703 0
M  V30 7218 H 663.347 1.74916 -2.73559 0
M  V30 7219 H 664.358 -1.13075 -5.05405 0
M  V30 7220 H 661.035 1.2214 -3.99234 0
M  V30 7221 H 662.425 -2.01836 -6.40868 0
M  V30 7222 N 665.145 1.52092 -0.413018 0
M  V30 7223 C 666.391 2.02154 0.161737 0
M  V30 7224 C 666.724 1.29789 1.44459 0
M  V30 7225 O 665.999 0.405378 1.90229 0
M  V30 7226 C 666.282 3.5781 0.405463 0
M  V30 7227 C 666.135 4.40819 -0.894335 0
M  V30 7228 C 667.454 4.23821 1.18591 0
M  V30 7229 H 664.573 0.734769 0.0573077 0
M  V30 7230 H 667.215 1.81948 -0.547247 0
M  V30 7231 H 665.365 3.75158 1.0094 0
M  V30 7232 H 667.037 4.35175 -1.53039 0
M  V30 7233 H 665.28 4.06877 -1.50444 0
M  V30 7234 H 665.951 5.47819 -0.678144 0
M  V30 7235 H 668.427 4.10596 0.674573 0
M  V30 7236 H 667.303 5.32663 1.3252 0
M  V30 7237 H 667.564 3.83038 2.20758 0
M  V30 7238 N 666.623 0.143563 1.56945 0
M  V30 7239 C 667.586 -0.783295 2.154 0
M  V30 7240 C 668.586 -1.17763 1.09492 0
M  V30 7241 O 669.776 -1.09912 1.35148 0
M  V30 7242 C 666.908 -2.06248 2.7143 0
M  V30 7243 H 668.101 -0.274863 2.98638 0
M  V30 7244 H 665.654 -0.105859 1.55941 0
M  V30 7245 H 666.389 -2.61466 1.91849 0
M  V30 7246 H 666.174 -1.78897 3.4891 0
M  V30 7247 H 667.664 -2.72453 3.16479 0
M  V30 7248 N 668.101 -1.57061 -0.130224 0
M  V30 7249 C 669.064 -1.98593 -1.14426 0
M  V30 7250 C 670.064 -0.874584 -1.34936 0
M  V30 7251 O 671.254 -1.14086 -1.31643 0
M  V30 7252 C 668.386 -2.31639 -2.50112 0
M  V30 7253 H 669.579 -2.89374 -0.787561 0
M  V30 7254 H 667.132 -1.51756 -0.374146 0
M  V30 7255 H 667.867 -1.43703 -2.90723 0
M  V30 7256 H 667.652 -3.12684 -2.36583 0
M  V30 7257 H 669.142 -2.64551 -3.23114 0
M  V30 7258 N 669.579 0.400081 -1.52437 0
M  V30 7259 C 670.995 0.739359 -1.41441 0
M  V30 7260 C 671.195 1.94512 -0.526053 0
M  V30 7261 O 670.251 2.525 0.00472502 0
M  V30 7262 C 671.564 0.984824 -2.84116 0
M  V30 7263 C 673.112 1.08698 -2.93519 0
M  V30 7264 C 673.587 1.36515 -4.37181 0
M  V30 7265 N 675.078 1.43361 -4.40457 0
M  V30 7266 C 675.813 1.66528 -5.48686 0
M  V30 7267 N 675.309 1.87239 -6.67018 0
M  V30 7268 N 677.102 1.68617 -5.36213 0
M  V30 7269 H 669.253 -0.393484 -2.08723 0
M  V30 7270 H 671.516 -0.1138 -0.941145 0
M  V30 7271 H 671.222 0.171096 -3.51284 0
M  V30 7272 H 671.096 1.90253 -3.25705 0
M  V30 7273 H 673.483 1.89129 -2.26526 0
M  V30 7274 H 673.564 0.147432 -2.55375 0
M  V30 7275 H 673.208 0.565982 -5.04737 0
M  V30 7276 H 673.138 2.31737 -4.7287 0
M  V30 7277 H 675.629 1.29108 -3.55161 0
M  V30 7278 H 675.942 2.04392 -7.45281 0
M  V30 7279 H 674.287 1.84486 -6.70067 0
M  V30 7280 H 677.478 1.5198 -4.42741 0
M  V30 7281 H 677.651 1.86332 -6.20632 0
M  V30 7282 N 671.057 1.43213 0.657864 0
M  V30 7283 C 672.287 1.478 1.44356 0
M  V30 7284 C 672.695 0.0930206 1.88971 0
M  V30 7285 O 672.038 -0.906089 1.59799 0
M  V30 7286 C 672.1 2.35745 2.71412 0
M  V30 7287 C 671.764 3.83359 2.48767 0
M  V30 7288 C 672.761 4.74585 2.12285 0
M  V30 7289 C 670.446 4.27799 2.63235 0
M  V30 7290 C 672.44 6.08247 1.90562 0
M  V30 7291 C 670.127 5.61516 2.41128 0
M  V30 7292 C 671.125 6.51557 2.04847 0
M  V30 7293 O 670.813 7.82802 1.82967 0
M  V30 7294 H 670.545 0.504363 0.450104 0
M  V30 7295 H 673.099 1.88572 0.814241 0
M  V30 7296 H 671.329 1.89852 3.36887 0
M  V30 7297 H 673.018 2.31589 3.33348 0
M  V30 7298 H 673.784 4.41531 2.00687 0
M  V30 7299 H 669.663 3.57993 2.90451 0
M  V30 7300 H 673.207 6.78489 1.62168 0
M  V30 7301 H 669.104 5.94139 2.52327 0
M  V30 7302 H 669.872 7.94332 1.97429 0
M  V30 7303 N 672.536 -0.895792 1.29666 0
M  V30 7304 C 673.784 -1.64339 1.17631 0
M  V30 7305 C 674.105 -1.93099 -0.271643 0
M  V30 7306 O 673.375 -1.55981 -1.18518 0
M  V30 7307 H 671.955 -0.609162 0.432354 0
M  V30 7308 H 674.617 -1.07389 1.62646 0
M  V30 7309 H 673.713 -2.59815 1.72924 0
M  V30 7310 N 674.014 -1.12206 -1.10668 0
M  V30 7311 C 674.964 -0.75669 -2.15077 0
M  V30 7312 C 675.948 0.243154 -1.59052 0
M  V30 7313 O 677.14 0.0490268 -1.76932 0
M  V30 7314 C 674.269 -0.210303 -3.42655 0
M  V30 7315 C 673.355 -1.23829 -4.05619 0
M  V30 7316 N 673.746 -2.43513 -4.43323 0
M  V30 7317 C 672.044 -1.08309 -4.32649 0
M  V30 7318 C 672.745 -3.09138 -4.92756 0
M  V30 7319 N 671.721 -2.36593 -4.89413 0
M  V30 7320 H 675.523 -1.66747 -2.42018 0
M  V30 7321 H 673.037 -1.00248 -1.27765 0
M  V30 7322 H 675.034 0.0696287 -4.16842 0
M  V30 7323 H 673.694 0.694967 -3.17176 0
M  V30 7324 H 674.705 -2.80912 -4.35097 0
M  V30 7325 H 671.382 -0.234919 -4.16839 0
M  V30 7326 H 672.772 -4.11049 -5.31496 0
M  V30 7327 N 675.492 1.28418 -0.913599 0
M  V30 7328 C 676.455 2.25564 -0.406624 0
M  V30 7329 C 677.455 1.5387 0.466965 0
M  V30 7330 O 678.645 1.72094 0.270042 0
M  V30 7331 C 675.777 3.38339 0.417053 0
M  V30 7332 H 676.97 2.71926 -1.26477 0
M  V30 7333 H 674.523 1.40098 -0.692986 0
M  V30 7334 H 675.258 2.97339 1.29461 0
M  V30 7335 H 675.043 3.91542 -0.209102 0
M  V30 7336 H 676.533 4.10578 0.762602 0
M  V30 7337 N 676.97 0.677563 1.42291 0
M  V30 7338 C 678.247 0.129803 1.95169 0
M  V30 7339 C 678.627 -1.35605 1.61786 0
M  V30 7340 O 677.975 -2.09361 0.915444 0
M  V30 7341 C 678.185 0.401889 3.46678 0
M  V30 7342 C 679.533 0.319889 4.23393 0
M  V30 7343 O 680.557 0.33579 3.54614 0
M  V30 7344 O 679.416 0.264459 5.4586 0
M  V30 7345 H 676.51 0.00447433 0.826988 0
M  V30 7346 H 679.056 0.752483 1.52105 0
M  V30 7347 H 677.828 1.43108 3.64192 0
M  V30 7348 H 677.451 -0.252662 3.96796 0
M  V30 7349 N 678.448 -1.51871 0.421078 0
M  V30 7350 C 679.694 -2.02237 -0.151014 0
M  V30 7351 C 680.027 -1.30554 -1.43768 0
M  V30 7352 O 679.302 -0.41546 -1.90011 0
M  V30 7353 C 679.585 -3.5802 -0.386482 0
M  V30 7354 C 679.438 -4.40339 0.9177 0
M  V30 7355 C 680.757 -4.24444 -1.16342 0
M  V30 7356 H 677.876 -0.735062 -0.0534102 0
M  V30 7357 H 680.518 -1.81656 0.556888 0
M  V30 7358 H 678.668 -3.75688 -0.989494 0
M  V30 7359 H 680.34 -4.34357 1.55344 0
M  V30 7360 H 678.583 -4.06073 1.526 0
M  V30 7361 H 679.254 -5.47451 0.707187 0
M  V30 7362 H 681.73 -4.10948 -0.652788 0
M  V30 7363 H 680.606 -5.33358 -1.29693 0
M  V30 7364 H 680.867 -3.84204 -2.18724 0
M  V30 7365 N 679.926 -0.151884 -1.56866 0
M  V30 7366 C 680.889 0.771861 -2.15812 0
M  V30 7367 C 681.889 1.17181 -1.10115 0
M  V30 7368 O 683.079 1.09194 -1.35729 0
M  V30 7369 C 680.211 2.04806 -2.7252 0
M  V30 7370 H 681.404 0.259021 -2.98779 0
M  V30 7371 H 678.957 0.097588 -1.55995 0
M  V30 7372 H 679.692 2.60445 -1.93233 0
M  V30 7373 H 679.477 1.77044 -3.49854 0
M  V30 7374 H 680.967 2.70771 -3.1792 0
M  V30 7375 N 681.404 1.57128 0.121893 0
M  V30 7376 C 682.336 1.96773 1.17529 0
M  V30 7377 C 683.349 0.866668 1.37814 0
M  V30 7378 O 684.538 1.14497 1.3694 0
M  V30 7379 C 681.638 2.24832 2.53582 0
M  V30 7380 C 680.811 3.56138 2.53939 0
M  V30 7381 C 679.87 3.72443 3.71716 0
M  V30 7382 O 678.896 4.44584 3.55434 0
M  V30 7383 N 680.098 3.10993 4.90167 0
M  V30 7384 H 682.863 2.87743 0.838086 0
M  V30 7385 H 680.424 1.58881 0.311199 0
M  V30 7386 H 682.416 2.32958 3.30927 0
M  V30 7387 H 680.986 1.40002 2.79496 0
M  V30 7388 H 680.206 3.59226 1.62329 0
M  V30 7389 H 681.494 4.42448 2.51231 0
M  V30 7390 H 680.892 2.52345 5.06299 0
M  V30 7391 H 679.449 3.24644 5.65198 0
M  V30 7392 N 682.882 -0.391992 1.52647 0
M  V30 7393 C 683.812 -1.48517 1.8018 0
M  V30 7394 C 684.793 -1.57039 0.653667 0
M  V30 7395 O 685.978 -1.72036 0.900962 0
M  V30 7396 C 683.108 -2.86161 1.96797 0
M  V30 7397 C 682.062 -2.92481 3.12472 0
M  V30 7398 C 681.388 -4.32546 3.14338 0
M  V30 7399 C 682.688 -2.624 4.51601 0
M  V30 7400 H 684.382 -1.25726 2.71723 0
M  V30 7401 H 681.928 -0.603387 1.30749 0
M  V30 7402 H 683.881 -3.62639 2.14641 0
M  V30 7403 H 682.605 -3.10283 1.01941 0
M  V30 7404 H 681.264 -2.18451 2.94406 0
M  V30 7405 H 680.912 -4.53703 2.1717 0
M  V30 7406 H 680.612 -4.37695 3.92042 0
M  V30 7407 H 682.136 -5.10934 3.34333 0
M  V30 7408 H 683.55 -3.28596 4.69785 0
M  V30 7409 H 681.947 -2.78903 5.3135 0
M  V30 7410 H 683.017 -1.57754 4.58521 0
M  V30 7411 N 684.36 -1.4356 -0.65026 0
M  V30 7412 C 685.29 -1.51758 -1.77459 0
M  V30 7413 C 686.271 -0.372019 -1.65982 0
M  V30 7414 O 687.456 -0.589627 -1.85033 0
M  V30 7415 C 684.586 -1.44302 -3.15902 0
M  V30 7416 C 683.54 -2.57138 -3.42146 0
M  V30 7417 C 682.866 -2.34735 -4.8042 0
M  V30 7418 C 684.166 -3.99373 -3.36598 0
M  V30 7419 H 685.86 -2.45863 -1.70855 0
M  V30 7420 H 683.406 -1.18333 -0.820566 0
M  V30 7421 H 685.359 -1.48641 -3.94314 0
M  V30 7422 H 684.083 -0.467026 -3.23244 0
M  V30 7423 H 682.742 -2.52157 -2.66106 0
M  V30 7424 H 682.39 -1.35372 -4.84441 0
M  V30 7425 H 682.09 -3.10375 -4.9894 0
M  V30 7426 H 683.614 -2.40862 -5.61086 0
M  V30 7427 H 685.028 -4.05826 -4.04942 0
M  V30 7428 H 683.425 -4.75063 -3.66654 0
M  V30 7429 H 684.495 -4.243 -2.34729 0
M  V30 7430 N 685.838 0.888903 -1.30139 0
M  V30 7431 C 687.078 1.65456 -1.20015 0
M  V30 7432 C 687.442 1.90467 0.242148 0
M  V30 7433 O 688.643 2.6472 0.466561 0
M  V30 7434 C 686.914 2.96071 -2.00191 0
M  V30 7435 S 688.473 3.87055 -2.06721 0
M  V30 7436 H 685.291 0.567927 -0.427761 0
M  V30 7437 H 687.893 1.05539 -1.64565 0
M  V30 7438 H 686.597 2.7559 -3.04103 0
M  V30 7439 H 686.128 3.61023 -1.56288 0
M  V30 7440 H 688.143 4.81676 -1.19174 0
M  V30 7441 N 687.317 1.12792 1.10072 0
M  V30 7442 C 688.542 0.908838 1.86427 0
M  V30 7443 C 688.967 -0.536793 1.80278 0
M  V30 7444 O 688.325 -1.38033 1.17543 0
M  V30 7445 C 688.373 1.39295 3.3261 0
M  V30 7446 O 687.477 0.573846 4.08388 0
M  V30 7447 H 686.818 0.326234 0.578331 0
M  V30 7448 H 689.348 1.50094 1.39043 0
M  V30 7449 H 689.358 1.39366 3.83459 0
M  V30 7450 H 688.033 2.44555 3.36401 0
M  V30 7451 H 686.61 0.640438 3.67359 0
M  V30 7452 N 688.795 -1.27931 0.920396 0
M  V30 7453 C 690.042 -1.94689 0.557007 0
M  V30 7454 C 690.37 -1.724 -0.900476 0
M  V30 7455 O 689.625 -1.04194 -1.65657 0
M  V30 7456 C 689.924 -3.47853 0.820558 0
M  V30 7457 C 689.59 -3.90252 2.25863 0
M  V30 7458 C 688.252 -4.01539 2.65179 0
M  V30 7459 C 690.604 -4.11853 3.19415 0
M  V30 7460 C 687.932 -4.3181 3.97187 0
M  V30 7461 C 690.284 -4.43606 4.50995 0
M  V30 7462 C 688.948 -4.53105 4.90155 0
M  V30 7463 H 688.218 -0.712416 0.203823 0
M  V30 7464 H 690.865 -1.52142 1.16298 0
M  V30 7465 H 689.17 -3.91578 0.131844 0
M  V30 7466 H 690.867 -3.97634 0.51847 0
M  V30 7467 H 687.457 -3.81999 1.94358 0
M  V30 7468 H 691.641 -4.0258 2.90246 0
M  V30 7469 H 686.897 -4.37371 4.2722 0
M  V30 7470 H 691.071 -4.59268 5.23494 0
M  V30 7471 H 688.698 -4.76315 5.92476 0
M  V30 7472 N 690.273 -0.685099 -1.4193 0
M  V30 7473 C 691.521 -0.21124 -2.00993 0
M  V30 7474 C 691.842 1.18985 -1.54491 0
M  V30 7475 O 691.112 1.8009 -0.771 0
M  V30 7476 H 689.692 -0.0751059 -0.743215 0
M  V30 7477 H 692.354 -0.883915 -1.73704 0
M  V30 7478 H 691.45 -0.220513 -3.1132 0
M  V30 7479 N 691.751 1.51645 -0.429126 0
M  V30 7480 C 692.976 2.06917 0.141399 0
M  V30 7481 C 693.401 1.29527 1.36398 0
M  V30 7482 O 692.759 0.33094 1.78254 0
M  V30 7483 C 692.807 3.57776 0.4504 0
M  V30 7484 O 691.911 3.82639 1.53821 0
M  V30 7485 H 691.252 0.663978 0.0054647 0
M  V30 7486 H 693.782 1.95355 -0.608093 0
M  V30 7487 H 693.792 4.01894 0.703249 0
M  V30 7488 H 692.467 4.13532 -0.443213 0
M  V30 7489 H 691.044 3.5039 1.27597 0
M  V30 7490 N 693.229 0.160201 1.56784 0
M  V30 7491 C 694.177 -0.791402 2.18723 0
M  V30 7492 C 695.171 -1.24567 1.14801 0
M  V30 7493 O 696.377 -1.21262 1.33025 0
M  V30 7494 H 692.752 -0.273458 0.700517 0
M  V30 7495 H 694.723 -0.244931 2.97393 0
M  V30 7496 C 693.472 -2.01509 2.83354 0
M  V30 7497 H 692.795 -1.67454 3.63041 0
M  V30 7498 H 694.235 -2.66006 3.30177 0
M  V30 7499 C 692.694 -2.83159 1.82545 0
M  V30 7500 O 693.224 -3.79944 1.30405 0
M  V30 7501 N 691.43 -2.47953 1.51552 0
M  V30 7502 H 690.977 -1.69309 1.94144 0
M  V30 7503 H 690.935 -3.02873 0.843519 0
M  V30 7504 N 694.707 -1.5719 -0.113559 0
M  V30 7505 C 696.118 -1.74259 -0.670116 0
M  V30 7506 C 696.469 -0.779694 -1.80042 0
M  V30 7507 O 695.594 0.0461353 -2.16351 0
M  V30 7508 C 696.189 -3.15981 -1.22236 0
M  V30 7509 C 694.748 -3.34537 -1.72516 0
M  V30 7510 C 693.895 -2.70116 -0.627098 0
M  V30 7511 H 696.846 -1.58301 0.112396 0
M  V30 7512 H 696.867 -3.17832 -2.09197 0
M  V30 7513 H 696.379 -3.86038 -0.39949 0
M  V30 7514 H 694.48 -2.6953 -2.57263 0
M  V30 7515 H 694.593 -4.42737 -1.83086 0
M  V30 7516 H 692.957 -2.31501 -1.06204 0
M  V30 7517 H 693.74 -3.42802 0.184889 0
M  V30 7518 N 696.185 0.383891 -1.52853 0
M  V30 7519 C 697.133 1.48965 -1.7864 0
M  V30 7520 C 698.127 1.56242 -0.654577 0
M  V30 7521 O 699.333 1.59347 -0.83716 0
M  V30 7522 H 695.708 0.495892 -0.565328 0
M  V30 7523 H 697.679 1.24411 -2.71228 0
M  V30 7524 C 696.428 2.86036 -1.97683 0
M  V30 7525 H 695.751 2.81188 -2.84206 0
M  V30 7526 H 697.191 3.62632 -2.19713 0
M  V30 7527 C 695.65 3.28428 -0.750776 0
M  V30 7528 O 696.18 4.0164 0.0693491 0
M  V30 7529 N 694.386 2.84765 -0.579427 0
M  V30 7530 H 693.933 2.25353 -1.24795 0
M  V30 7531 H 693.891 3.13486 0.239544 0
M  V30 7532 N 697.663 1.43903 0.642637 0
M  V30 7533 C 698.912 1.45362 1.39831 0
M  V30 7534 C 699.225 0.0856289 1.95412 0
M  V30 7535 O 700.431 -0.0222856 2.71491 0
M  V30 7536 C 698.887 2.55857 2.53111 0
M  V30 7537 C 698.495 3.98811 2.04092 0
M  V30 7538 C 700.239 2.66524 3.30402 0
M  V30 7539 C 698.146 5.00751 3.14647 0
M  V30 7540 H 697.076 0.540777 0.52543 0
M  V30 7541 H 699.727 1.69929 0.692559 0
M  V30 7542 H 698.109 2.2451 3.26207 0
M  V30 7543 H 699.283 4.3967 1.37938 0
M  V30 7544 H 697.598 3.92284 1.39651 0
M  V30 7545 H 700.195 3.39858 4.12796 0
M  V30 7546 H 700.538 1.71949 3.79129 0
M  V30 7547 H 701.071 2.97224 2.64392 0
M  V30 7548 H 697.81 5.96914 2.70876 0
M  V30 7549 H 697.33 4.64495 3.79479 0
M  V30 7550 H 699.009 5.23933 3.79609 0
M  V30 7551 N 699.141 -0.881989 1.30609 0
M  V30 7552 C 700.073 -1.99375 1.13058 0
M  V30 7553 C 701.086 -1.62636 0.0729879 0
M  V30 7554 O 702.275 -1.75621 0.319301 0
M  V30 7555 C 699.375 -3.31536 0.702651 0
M  V30 7556 C 698.548 -3.96693 1.84265 0
M  V30 7557 C 697.607 -5.07158 1.40277 0
M  V30 7558 O 696.633 -5.28628 2.11048 0
M  V30 7559 N 697.835 -5.79808 0.283449 0
M  V30 7560 H 700.6 -2.14981 2.08814 0
M  V30 7561 H 698.161 -1.05526 1.22784 0
M  V30 7562 H 700.153 -4.02804 0.391331 0
M  V30 7563 H 698.723 -3.12175 -0.162954 0
M  V30 7564 H 697.943 -3.1856 2.32192 0
M  V30 7565 H 699.231 -4.36964 2.60653 0
M  V30 7566 H 698.629 -5.64871 -0.306189 0
M  V30 7567 H 697.186 -6.51792 0.0315985 0
M  V30 7568 N 700.619 -1.13374 -1.09472 0
M  V30 7569 C 701.896 -0.806329 -1.78207 0
M  V30 7570 C 702.276 0.702191 -1.99079 0
M  V30 7571 O 701.624 1.63931 -1.59182 0
M  V30 7572 C 701.834 -1.59271 -3.10538 0
M  V30 7573 C 703.182 -1.78509 -3.85253 0
M  V30 7574 O 704.206 -1.55866 -3.20288 0
M  V30 7575 O 703.065 -2.16287 -5.01879 0
M  V30 7576 H 700.159 -0.29435 -0.772843 0
M  V30 7577 H 702.705 -1.23833 -1.16033 0
M  V30 7578 H 701.477 -2.61792 -2.90828 0
M  V30 7579 H 701.1 -1.15562 -3.80436 0
M  V30 7580 N 702.098 1.27442 -0.927168 0
M  V30 7581 C 703.045 2.26863 -0.424459 0
M  V30 7582 C 704.015 1.5813 0.508346 0
M  V30 7583 O 705.2 1.85946 0.42762 0
M  V30 7584 C 702.34 3.43639 0.31718 0
M  V30 7585 C 701.453 4.27087 -0.649675 0
M  V30 7586 C 700.588 5.31082 0.111753 0
M  V30 7587 C 699.627 6.062 -0.847843 0
M  V30 7588 N 698.764 7.01999 -0.119074 0
M  V30 7589 H 703.604 2.69239 -1.27728 0
M  V30 7590 H 701.141 1.32394 -0.641106 0
M  V30 7591 H 703.099 4.10155 0.763486 0
M  V30 7592 H 701.729 3.02217 1.13424 0
M  V30 7593 H 700.781 3.60491 -1.21451 0
M  V30 7594 H 702.093 4.79242 -1.38307 0
M  V30 7595 H 701.247 6.03544 0.618 0
M  V30 7596 H 699.986 4.7973 0.878114 0
M  V30 7597 H 698.991 5.32577 -1.36534 0
M  V30 7598 H 700.216 6.59642 -1.61398 0
M  V30 7599 H 698.162 6.52977 0.629051 0
M  V30 7600 H 698.079 7.5184 -0.792046 0
M  V30 7601 H 699.347 7.78638 0.366537 0
M  V30 7602 N 703.576 0.692616 1.41565 0
M  V30 7603 C 704.486 0.0258451 2.34586 0
M  V30 7604 C 705.502 -0.769324 1.56069 0
M  V30 7605 O 706.678 -0.707563 1.88562 0
M  V30 7606 C 703.743 -0.901289 3.3478 0
M  V30 7607 C 702.804 -0.0986579 4.29187 0
M  V30 7608 C 702.037 -0.981634 5.24595 0
M  V30 7609 O 702.26 -2.22115 5.25377 0
M  V30 7610 O 701.194 -0.432892 6.00341 0
M  V30 7611 H 705.02 0.792537 2.93177 0
M  V30 7612 H 702.605 0.452935 1.42369 0
M  V30 7613 H 704.487 -1.43302 3.96286 0
M  V30 7614 H 703.162 -1.64752 2.78637 0
M  V30 7615 H 702.069 0.477604 3.71039 0
M  V30 7616 H 703.402 0.608848 4.8842 0
M  V30 7617 N 705.054 -1.51416 0.437162 0
M  V30 7618 C 705.964 -2.31493 -0.380537 0
M  V30 7619 C 706.98 -1.40399 -1.02782 0
M  V30 7620 O 708.156 -1.73471 -1.02323 0
M  V30 7621 C 705.221 -3.1413 -1.46709 0
M  V30 7622 C 704.282 -4.21003 -0.839953 0
M  V30 7623 C 703.515 -4.9969 -1.87473 0
M  V30 7624 O 703.738 -4.79008 -3.09689 0
M  V30 7625 O 702.672 -5.8379 -1.46536 0
M  V30 7626 H 706.498 -3.02469 0.273183 0
M  V30 7627 H 704.083 -1.48059 0.199706 0
M  V30 7628 H 705.965 -3.65505 -2.09724 0
M  V30 7629 H 704.64 -2.45919 -2.10489 0
M  V30 7630 H 703.547 -3.73706 -0.171752 0
M  V30 7631 H 704.88 -4.91587 -0.245638 0
M  V30 7632 N 706.532 -0.168513 -1.56696 0
M  V30 7633 C 707.442 0.775435 -2.21414 0
M  V30 7634 C 708.458 1.25529 -1.20492 0
M  V30 7635 O 709.634 1.30801 -1.53144 0
M  V30 7636 C 706.699 1.9886 -2.83999 0
M  V30 7637 C 705.76 1.5559 -4.00113 0
M  V30 7638 C 704.993 2.71124 -4.59704 0
M  V30 7639 O 705.216 3.87917 -4.18182 0
M  V30 7640 O 704.15 2.4536 -5.4962 0
M  V30 7641 H 707.976 0.254416 -3.02632 0
M  V30 7642 H 705.561 0.0595507 -1.49281 0
M  V30 7643 H 707.443 2.69816 -3.23693 0
M  V30 7644 H 706.118 2.49874 -2.05779 0
M  V30 7645 H 705.025 0.815924 -3.65094 0
M  V30 7646 H 706.358 1.09271 -4.79917 0
M  V30 7647 N 708.01 1.57248 0.105221 0
M  V30 7648 C 709.238 1.89768 0.82437 0
M  V30 7649 C 709.653 0.761192 1.72775 0
M  V30 7650 O 709.01 -0.267342 1.80531 0
M  V30 7651 C 709.061 3.2184 1.64625 0
M  V30 7652 O 708.782 4.31115 0.779217 0
M  V30 7653 C 710.283 3.68155 2.46935 0
M  V30 7654 H 707.503 0.628031 0.236259 0
M  V30 7655 H 710.047 2.04321 0.085485 0
M  V30 7656 H 708.202 3.08915 2.33775 0
M  V30 7657 H 708.616 5.06897 1.34745 0
M  V30 7658 H 710.09 4.6329 3.00111 0
M  V30 7659 H 710.567 2.95492 3.24932 0
M  V30 7660 H 711.173 3.83914 1.83002 0
M  V30 7661 N 709.488 -0.375779 1.53054 0
M  V30 7662 C 710.899 -0.95309 1.6054 0
M  V30 7663 C 711.25 -1.90575 0.466446 0
M  V30 7664 O 710.375 -2.12507 -0.408609 0
M  V30 7665 C 710.97 -1.73537 2.90982 0
M  V30 7666 C 709.529 -2.26218 3.00836 0
M  V30 7667 C 708.676 -1.07157 2.55759 0
M  V30 7668 H 711.627 -0.154895 1.57942 0
M  V30 7669 H 711.648 -2.59574 2.78211 0
M  V30 7670 H 711.16 -1.04176 3.73857 0
M  V30 7671 H 709.261 -2.98852 2.22527 0
M  V30 7672 H 709.374 -2.54799 4.05727 0
M  V30 7673 H 707.738 -1.43553 2.10391 0
M  V30 7674 H 708.521 -0.393099 3.41042 0
M  V30 7675 N 710.966 -1.44241 -0.634997 0
M  V30 7676 C 711.896 -1.53632 -1.7584 0
M  V30 7677 C 712.877 -0.389603 -1.65578 0
M  V30 7678 O 714.062 -0.609219 -1.84397 0
M  V30 7679 C 711.192 -1.47644 -3.14354 0
M  V30 7680 C 710.146 -2.60752 -3.394 0
M  V30 7681 C 709.472 -2.39817 -4.77904 0
M  V30 7682 C 710.772 -4.02921 -3.32343 0
M  V30 7683 H 712.466 -2.47662 -1.68238 0
M  V30 7684 H 710.012 -1.19197 -0.807969 0
M  V30 7685 H 711.965 -1.52815 -3.92716 0
M  V30 7686 H 710.689 -0.501284 -3.2273 0
M  V30 7687 H 709.348 -2.54965 -2.63417 0
M  V30 7688 H 708.996 -1.40502 -4.82978 0
M  V30 7689 H 708.696 -3.15649 -4.9562 0
M  V30 7690 H 710.22 -2.46799 -5.585 0
M  V30 7691 H 711.634 -4.10098 -4.00615 0
M  V30 7692 H 710.031 -4.78925 -3.61595 0
M  V30 7693 H 711.101 -4.26766 -2.30215 0
M  V30 7694 N 712.444 0.87505 -1.31075 0
M  V30 7695 C 713.394 1.96933 -1.14898 0
M  V30 7696 C 714.378 1.60783 -0.0613703 0
M  V30 7697 O 715.57 1.74678 -0.285751 0
M  V30 7698 C 712.699 3.3253 -0.853166 0
M  V30 7699 C 711.785 3.74963 -1.98151 0
M  V30 7700 N 712.176 3.89403 -3.22799 0
M  V30 7701 C 710.474 4.04436 -1.8801 0
M  V30 7702 C 711.175 4.25563 -3.96574 0
M  V30 7703 N 710.151 4.3597 -3.24701 0
M  V30 7704 H 713.953 2.06201 -2.09424 0
M  V30 7705 H 711.467 1.06551 -1.22558 0
M  V30 7706 H 713.464 4.10666 -0.718266 0
M  V30 7707 H 712.124 3.24592 0.0839218 0
M  V30 7708 H 713.135 3.74266 -3.57974 0
M  V30 7709 H 709.812 4.04915 -1.01733 0
M  V30 7710 H 711.202 4.44375 -5.03965 0
M  V30 7711 N 713.922 1.13953 1.08869 0
M  V30 7712 C 715.162 0.915128 1.8277 0
M  V30 7713 C 715.526 -0.548647 1.83994 0
M  V30 7714 O 716.727 -0.890817 2.5361 0
M  V30 7715 C 714.998 1.49382 3.24684 0
M  V30 7716 S 716.557 1.4103 4.15519 0
M  V30 7717 H 713.375 0.329716 0.629927 0
M  V30 7718 H 715.977 1.45213 1.30895 0
M  V30 7719 H 714.681 2.55241 3.21372 0
M  V30 7720 H 714.212 0.955008 3.81632 0
M  V30 7721 H 716.227 0.392617 4.94644 0
M  V30 7722 N 715.4 -1.26948 0.933913 0
M  V30 7723 C 716.363 -2.24889 0.442457 0
M  V30 7724 C 717.363 -1.54594 -0.442426 0
M  V30 7725 O 718.553 -1.72502 -0.242629 0
M  V30 7726 C 715.685 -3.3896 -0.363173 0
M  V30 7727 H 716.878 -2.69879 1.30787 0
M  V30 7728 H 714.431 -1.38978 0.715187 0
M  V30 7729 H 715.166 -2.99361 -1.24714 0
M  V30 7730 H 714.951 -3.9116 0.271366 0
M  V30 7731 H 716.441 -4.11739 -0.697186 0
M  V30 7732 N 716.879 -0.700114 -1.41195 0
M  V30 7733 C 717.842 -0.0465706 -2.29153 0
M  V30 7734 C 718.842 0.703302 -1.44604 0
M  V30 7735 O 720.032 0.537513 -1.657 0
M  V30 7736 C 717.164 0.944324 -3.2756 0
M  V30 7737 H 718.357 -0.821064 -2.88442 0
M  V30 7738 H 715.91 -0.463869 -1.49258 0
M  V30 7739 H 716.645 1.74642 -2.73259 0
M  V30 7740 H 716.43 0.409701 -3.89954 0
M  V30 7741 H 717.92 1.39925 -3.9346 0
M  V30 7742 N 718.357 1.51182 -0.445186 0
M  V30 7743 C 719.603 2.03097 0.111049 0
M  V30 7744 C 719.958 1.32293 1.397 0
M  V30 7745 O 719.251 0.431529 1.86677 0
M  V30 7746 C 719.445 3.55408 0.376797 0
M  V30 7747 C 719.274 4.40969 -0.88185 0
M  V30 7748 C 718.044 4.85006 -1.41766 0
M  V30 7749 C 720.242 4.82876 -1.77017 0
M  V30 7750 N 718.224 5.54804 -2.62803 0
M  V30 7751 C 719.595 5.51821 -2.82654 0
M  V30 7752 C 721.65 4.64855 -1.78365 0
M  V30 7753 C 720.353 6.04655 -3.89595 0
M  V30 7754 C 722.379 5.18612 -2.84246 0
M  V30 7755 C 721.741 5.87509 -3.88603 0
M  V30 7756 H 717.84 0.781999 0.0012696 0
M  V30 7757 H 720.424 1.84976 -0.60761 0
M  V30 7758 H 718.595 3.73528 1.06449 0
M  V30 7759 H 720.327 3.93985 0.925082 0
M  V30 7760 H 717.082 4.6355 -0.970476 0
M  V30 7761 H 717.506 5.94326 -3.24201 0
M  V30 7762 H 722.148 4.11043 -0.990119 0
M  V30 7763 H 719.866 6.57518 -4.69782 0
M  V30 7764 H 723.452 5.06515 -2.86241 0
M  V30 7765 H 722.332 6.28358 -4.69186 0
M  V30 7766 N 719.835 0.176821 1.56605 0
M  V30 7767 C 720.785 -0.763718 2.14829 0
M  V30 7768 C 721.769 -1.18903 1.08401 0
M  V30 7769 O 722.961 -1.15048 1.3451 0
M  V30 7770 C 720.09 -1.99069 2.7969 0
M  V30 7771 C 719.176 -1.58711 3.93283 0
M  V30 7772 N 719.567 -0.893423 4.97847 0
M  V30 7773 C 717.865 -1.87774 4.04545 0
M  V30 7774 C 718.566 -0.693866 5.77547 0
M  V30 7775 N 717.542 -1.23699 5.29339 0
M  V30 7776 H 721.344 -0.224811 2.93039 0
M  V30 7777 H 718.858 -0.0236563 1.62383 0
M  V30 7778 H 720.855 -2.67478 3.19783 0
M  V30 7779 H 719.515 -2.53449 2.02962 0
M  V30 7780 H 720.526 -0.550868 5.14962 0
M  V30 7781 H 717.203 -2.43793 3.38927 0
M  V30 7782 H 718.593 -0.144899 6.71744 0
M  V30 7783 N 721.313 -1.57302 -0.09688 0
M  V30 7784 C 722.561 -1.8563 -0.799117 0
M  V30 7785 C 722.882 -0.765263 -1.79356 0
M  V30 7786 O 722.152 0.208657 -1.94786 0
M  V30 7787 H 720.732 -0.684937 -0.298111 0
M  V30 7788 H 723.394 -1.9474 -0.0789341 0
M  V30 7789 H 722.49 -2.82305 -1.3308 0
M  V30 7790 N 722.791 0.367657 -1.53252 0
M  V30 7791 C 724.021 1.12955 -1.72988 0
M  V30 7792 C 724.429 1.8358 -0.457708 0
M  V30 7793 O 723.772 1.74336 0.579006 0
M  V30 7794 C 723.834 2.20545 -2.83902 0
M  V30 7795 C 723.498 1.69704 -4.24323 0
M  V30 7796 C 724.495 1.16223 -5.06743 0
M  V30 7797 C 722.18 1.7528 -4.70725 0
M  V30 7798 C 724.174 0.689935 -6.33655 0
M  V30 7799 C 721.861 1.27662 -5.97617 0
M  V30 7800 C 722.859 0.746083 -6.78913 0
M  V30 7801 O 722.547 0.276925 -8.03423 0
M  V30 7802 H 722.279 0.343753 -0.582074 0
M  V30 7803 H 724.833 0.433106 -2.00782 0
M  V30 7804 H 723.063 2.93676 -2.51577 0
M  V30 7805 H 724.752 2.82111 -2.91836 0
M  V30 7806 H 725.518 1.11256 -4.72067 0
M  V30 7807 H 721.397 2.15515 -4.07522 0
M  V30 7808 H 724.941 0.275164 -6.97057 0
M  V30 7809 H 720.838 1.32322 -6.31792 0
M  V30 7810 H 721.606 0.396445 -8.17539 0
M  V30 7811 N 724.269 1.44576 0.627338 0
M  V30 7812 C 725.499 1.50829 1.41189 0
M  V30 7813 C 725.907 0.133083 1.88731 0
M  V30 7814 O 725.25 -0.87199 1.61685 0
M  V30 7815 C 725.312 2.41449 2.66351 0
M  V30 7816 C 724.976 3.88549 2.40579 0
M  V30 7817 C 725.973 4.78981 2.0217 0
M  V30 7818 C 723.658 4.33287 2.54102 0
M  V30 7819 C 725.652 6.12153 1.77618 0
M  V30 7820 C 723.339 5.66505 2.29163 0
M  V30 7821 C 724.337 6.55756 1.9098 0
M  V30 7822 O 724.025 7.86506 1.66321 0
M  V30 7823 H 723.757 0.513797 0.439304 0
M  V30 7824 H 726.311 1.90256 0.774059 0
M  V30 7825 H 724.541 1.96955 3.32784 0
M  V30 7826 H 726.23 2.38608 3.28361 0
M  V30 7827 H 726.996 4.45689 1.91277 0
M  V30 7828 H 722.875 3.64074 2.82792 0
M  V30 7829 H 726.419 6.81776 1.47739 0
M  V30 7830 H 722.316 5.99358 2.39668 0
M  V30 7831 H 723.084 7.98341 1.80536 0
M  V30 7832 N 725.747 -0.868086 1.31537 0
M  V30 7833 C 726.972 -1.65926 1.24432 0
M  V30 7834 C 727.397 -1.87169 -0.186936 0
M  V30 7835 O 726.755 -1.4148 -1.13371 0
M  V30 7836 C 726.803 -3.00347 1.9956 0
M  V30 7837 O 725.907 -3.90221 1.33422 0
M  V30 7838 H 725.248 -0.506375 0.429512 0
M  V30 7839 H 727.778 -1.0822 1.73637 0
M  V30 7840 H 727.788 -3.50269 2.09226 0
M  V30 7841 H 726.463 -2.84205 3.03645 0
M  V30 7842 H 725.04 -3.48672 1.32219 0
M  V30 7843 N 727.225 -1.14528 -1.08264 0
M  V30 7844 C 728.471 -0.91576 -1.80947 0
M  V30 7845 C 728.804 0.55623 -1.86064 0
M  V30 7846 O 728.079 1.41207 -1.33756 0
M  V30 7847 C 728.362 -1.51917 -3.26486 0
M  V30 7848 C 728.215 -3.06111 -3.2957 0
M  V30 7849 C 729.534 -1.19724 -4.23502 0
M  V30 7850 H 726.653 -0.334113 -0.656915 0
M  V30 7851 H 729.295 -1.41547 -1.26746 0
M  V30 7852 H 727.445 -1.0942 -3.72773 0
M  V30 7853 H 729.117 -3.57448 -2.91597 0
M  V30 7854 H 727.36 -3.40483 -2.688 0
M  V30 7855 H 728.031 -3.43438 -4.32151 0
M  V30 7856 H 730.507 -1.56467 -3.85561 0
M  V30 7857 H 729.383 -1.64575 -5.23647 0
M  V30 7858 H 729.644 -0.112771 -4.41956 0
M  V30 7859 N 728.703 1.26451 -0.940633 0
M  V30 7860 C 729.666 2.24651 -0.454378 0
M  V30 7861 C 730.666 1.54826 0.434222 0
M  V30 7862 O 731.856 1.72628 0.233477 0
M  V30 7863 C 728.988 3.39148 0.345192 0
M  V30 7864 H 730.181 2.69182 -1.32217 0
M  V30 7865 H 727.734 1.38596 -0.722547 0
M  V30 7866 H 728.469 3.00018 1.23125 0
M  V30 7867 H 728.254 3.9101 -0.292107 0
M  V30 7868 H 729.744 4.12103 0.675341 0
M  V30 7869 N 730.181 0.707592 1.40822 0
M  V30 7870 C 731.128 0.0499029 2.30746 0
M  V30 7871 C 732.098 -0.758718 1.47759 0
M  V30 7872 O 733.283 -0.724299 1.76518 0
M  V30 7873 C 730.423 -0.871756 3.33908 0
M  V30 7874 C 729.536 -0.0534655 4.31967 0
M  V30 7875 C 728.671 -0.973869 5.22197 0
M  V30 7876 C 727.71 -0.149194 6.11918 0
M  V30 7877 N 726.847 -1.02404 6.94592 0
M  V30 7878 H 731.687 0.822461 2.86426 0
M  V30 7879 H 729.224 0.417285 1.41057 0
M  V30 7880 H 731.182 -1.42028 3.9228 0
M  V30 7881 H 729.812 -1.61058 2.7975 0
M  V30 7882 H 728.864 0.612142 3.75442 0
M  V30 7883 H 730.176 0.585354 4.95353 0
M  V30 7884 H 729.33 -1.59121 5.85462 0
M  V30 7885 H 728.069 -1.64652 4.59065 0
M  V30 7886 H 727.074 0.481137 5.47691 0
M  V30 7887 H 728.299 0.519841 6.77107 0
M  V30 7888 H 726.245 -1.6825 6.34057 0
M  V30 7889 H 726.162 -0.441076 7.54712 0
M  V30 7890 H 727.43 -1.62782 7.62314 0
M  V30 7891 N 731.66 -1.50943 0.453197 0
M  V30 7892 C 732.623 -2.26684 -0.338705 0
M  V30 7893 C 733.623 -1.30748 -0.936032 0
M  V30 7894 O 734.813 -1.54327 -0.808002 0
M  V30 7895 C 731.945 -3.07063 -1.48071 0
M  V30 7896 H 733.138 -2.98131 0.325289 0
M  V30 7897 H 730.691 -1.54926 0.206771 0
M  V30 7898 H 731.426 -2.4007 -2.18029 0
M  V30 7899 H 731.211 -3.77545 -1.0584 0
M  V30 7900 H 732.701 -3.64393 -2.0398 0
M  V30 7901 N 733.138 -0.185124 -1.56509 0
M  V30 7902 C 734.068 0.735098 -2.21627 0
M  V30 7903 C 735.049 1.2288 -1.1762 0
M  V30 7904 O 736.234 1.27945 -1.46095 0
M  V30 7905 C 733.364 1.95889 -2.86783 0
M  V30 7906 C 732.318 1.6005 -3.96948 0
M  V30 7907 C 731.644 2.90009 -4.4922 0
M  V30 7908 C 732.944 0.818008 -5.15855 0
M  V30 7909 H 734.638 0.192274 -2.98782 0
M  V30 7910 H 732.184 0.0910393 -1.43712 0
M  V30 7911 H 734.137 2.60779 -3.31017 0
M  V30 7912 H 732.861 2.52608 -2.07018 0
M  V30 7913 H 731.52 0.975237 -3.5339 0
M  V30 7914 H 731.168 3.44797 -3.6623 0
M  V30 7915 H 730.868 2.66778 -5.23549 0
M  V30 7916 H 732.392 3.55904 -4.9615 0
M  V30 7917 H 733.806 1.36979 -5.56695 0
M  V30 7918 H 732.203 0.684207 -5.96187 0
M  V30 7919 H 733.273 -0.182939 -4.84555 0
M  V30 7920 N 734.616 1.57351 0.0885366 0
M  V30 7921 C 735.856 1.88248 0.796362 0
M  V30 7922 C 736.22 0.776915 1.75579 0
M  V30 7923 O 737.421 0.968485 2.50747 0
M  V30 7924 C 735.692 3.24385 1.50031 0
M  V30 7925 S 737.251 3.76991 2.24551 0
M  V30 7926 H 734.069 0.659697 0.265181 0
M  V30 7927 H 736.671 1.95428 0.0531843 0
M  V30 7928 H 735.375 4.02764 0.788 0
M  V30 7929 H 734.906 3.20361 2.28325 0
M  V30 7930 H 736.921 3.50933 3.508 0
M  V30 7931 N 736.094 -0.359525 1.53444 0
M  V30 7932 C 737.004 -1.46445 1.83278 0
M  V30 7933 C 738.02 -1.5833 0.721629 0
M  V30 7934 O 739.196 -1.7411 1.01231 0
M  V30 7935 C 736.261 -2.81638 2.02191 0
M  V30 7936 C 735.322 -2.7923 3.26082 0
M  V30 7937 C 734.555 -4.07974 3.44082 0
M  V30 7938 O 734.778 -5.04447 2.66251 0
M  V30 7939 O 733.712 -4.13417 4.37458 0
M  V30 7940 H 737.538 -1.24156 2.77162 0
M  V30 7941 H 735.123 -0.550201 1.389 0
M  V30 7942 H 737.005 -3.61732 2.16167 0
M  V30 7943 H 735.68 -3.03892 1.11496 0
M  V30 7944 H 734.587 -1.97813 3.17523 0
M  V30 7945 H 735.92 -2.6193 4.16718 0
M  V30 7946 N 737.572 -1.44907 -0.619662 0
M  V30 7947 C 738.535 -1.52282 -1.71297 0
M  V30 7948 C 739.535 -0.40359 -1.55653 0
M  V30 7949 O 740.725 -0.666638 -1.6094 0
M  V30 7950 C 737.857 -1.40778 -3.10474 0
M  V30 7951 H 739.05 -2.49683 -1.66128 0
M  V30 7952 H 736.603 -1.32168 -0.834339 0
M  V30 7953 H 737.338 -0.445156 -3.2123 0
M  V30 7954 H 737.123 -2.21947 -3.23237 0
M  V30 7955 H 738.613 -1.48946 -3.90135 0
M  V30 7956 N 739.05 0.861098 -1.31996 0
M  V30 7957 C 740.298 1.61162 -1.21947 0
M  V30 7958 C 740.619 1.93751 0.220351 0
M  V30 7959 O 739.889 1.59069 1.14341 0
M  V30 7960 H 738.469 0.597485 -0.448353 0
M  V30 7961 H 741.131 1.03039 -1.65436 0
M  V30 7962 H 740.227 2.55138 -1.79752 0
M  V30 7963 N 740.528 1.15101 1.07655 0
M  V30 7964 C 741.768 0.934462 1.81789 0
M  V30 7965 C 742.132 -0.529101 1.84566 0
M  V30 7966 O 743.333 -0.863868 2.5454 0
M  V30 7967 C 741.604 1.52817 3.23082 0
M  V30 7968 S 743.163 1.45429 4.14 0
M  V30 7969 H 739.981 0.336379 0.626395 0
M  V30 7970 H 742.583 1.46593 1.29347 0
M  V30 7971 H 741.287 2.58635 3.18647 0
M  V30 7972 H 740.818 0.995432 3.80598 0
M  V30 7973 H 742.833 0.445058 4.942 0
M  V30 7974 N 742.006 -1.2595 0.947325 0
M  V30 7975 C 742.954 -2.28152 0.452687 0
M  V30 7976 C 743.948 -1.62655 -0.473239 0
M  V30 7977 O 745.154 -1.76549 -0.350774 0
M  V30 7978 H 741.529 -0.741049 0.12787 0
M  V30 7979 H 743.5 -2.67267 1.32707 0
M  V30 7980 C 742.249 -3.46719 -0.26098 0
M  V30 7981 H 741.572 -3.97345 0.442352 0
M  V30 7982 H 743.012 -4.20135 -0.571208 0
M  V30 7983 C 741.471 -3.02605 -1.48094 0
M  V30 7984 O 742.001 -3.07979 -2.57899 0
M  V30 7985 N 740.207 -2.57877 -1.33969 0
M  V30 7986 H 739.754 -2.53704 -0.446295 0
M  V30 7987 H 739.712 -2.28725 -2.15713 0
M  V30 7988 N 743.484 -0.715051 -1.40445 0
M  V30 7989 C 744.73 -0.254705 -2.01194 0
M  V30 7990 C 745.063 1.14894 -1.56567 0
M  V30 7991 O 744.338 1.77933 -0.785491 0
M  V30 7992 C 744.621 -0.334148 -3.58546 0
M  V30 7993 C 744.474 -1.77613 -4.13248 0
M  V30 7994 C 745.793 0.294968 -4.3911 0
M  V30 7995 H 742.912 -0.094025 -0.730978 0
M  V30 7996 H 745.554 -0.907449 -1.66929 0
M  V30 7997 H 743.704 0.221609 -3.87867 0
M  V30 7998 H 745.376 -2.38723 -3.94727 0
M  V30 7999 H 743.619 -2.30402 -3.67556 0
M  V30 8000 H 744.29 -1.78311 -5.22407 0
M  V30 8001 H 746.766 -0.178563 -4.15717 0
M  V30 8002 H 745.642 0.208934 -5.48502 0
M  V30 8003 H 745.903 1.37841 -4.20062 0
M  V30 8004 N 744.962 1.50701 -0.461195 0
M  V30 8005 C 745.91 2.29918 0.352231 0
M  V30 8006 C 746.904 1.36778 0.999403 0
M  V30 8007 O 748.11 1.54015 0.931639 0
M  V30 8008 H 744.485 0.740249 0.132423 0
M  V30 8009 H 746.456 2.96497 -0.336424 0
M  V30 8010 C 745.205 3.17052 1.42736 0
M  V30 8011 H 744.528 3.88623 0.938747 0
M  V30 8012 H 745.968 3.75493 1.96928 0
M  V30 8013 C 744.427 2.3399 2.42384 0
M  V30 8014 O 744.957 2.01608 3.47444 0
M  V30 8015 N 743.163 1.96758 2.13857 0
M  V30 8016 H 742.71 2.23292 1.28447 0
M  V30 8017 H 742.668 1.41484 2.80766 0
M  V30 8018 N 746.441 0.193421 1.56409 0
M  V30 8019 C 747.69 -0.445995 1.96707 0
M  V30 8020 C 748.003 -1.62876 1.08309 0
M  V30 8021 O 749.209 -2.33586 1.38383 0
M  V30 8022 C 747.665 -0.844863 3.49843 0
M  V30 8023 C 747.273 0.31352 4.46902 0
M  V30 8024 C 749.017 -1.45146 3.98915 0
M  V30 8025 C 746.924 -0.106214 5.91305 0
M  V30 8026 H 745.854 -0.170398 0.734493 0
M  V30 8027 H 748.505 0.285172 1.81271 0
M  V30 8028 H 746.887 -1.63265 3.60778 0
M  V30 8029 H 748.061 1.09103 4.47698 0
M  V30 8030 H 746.376 0.8315 4.08014 0
M  V30 8031 H 748.973 -1.77792 5.04276 0
M  V30 8032 H 749.316 -2.35734 3.43126 0
M  V30 8033 H 749.849 -0.727675 3.91088 0
M  V30 8034 H 746.588 0.765442 6.51016 0
M  V30 8035 H 746.108 -0.848623 5.93766 0
M  V30 8036 H 747.787 -0.542588 6.44721 0
M  V30 8037 N 747.919 -1.57396 -0.0801906 0
M  V30 8038 C 748.866 -2.03107 -1.09618 0
M  V30 8039 C 749.836 -0.910118 -1.38946 0
M  V30 8040 O 751.021 -1.17719 -1.50156 0
M  V30 8041 C 748.161 -2.47293 -2.40708 0
M  V30 8042 C 747.274 -3.72972 -2.17982 0
M  V30 8043 C 746.409 -4.05975 -3.42576 0
M  V30 8044 C 745.448 -5.24719 -3.15177 0
M  V30 8045 N 744.585 -5.53401 -4.32078 0
M  V30 8046 H 749.425 -2.89677 -0.69939 0
M  V30 8047 H 746.962 -1.43263 -0.333785 0
M  V30 8048 H 748.92 -2.7096 -3.17232 0
M  V30 8049 H 747.55 -1.63713 -2.78205 0
M  V30 8050 H 746.602 -3.56693 -1.32189 0
M  V30 8051 H 747.914 -4.59638 -1.93738 0
M  V30 8052 H 747.068 -4.30498 -4.275 0
M  V30 8053 H 745.807 -3.17859 -3.69887 0
M  V30 8054 H 744.812 -5 -2.28648 0
M  V30 8055 H 746.037 -6.14445 -2.89197 0
M  V30 8056 H 743.983 -4.68245 -4.59437 0
M  V30 8057 H 743.9 -6.34469 -4.11078 0
M  V30 8058 H 745.168 -5.8247 -5.18024 0
M  V30 8059 N 749.397 0.351382 -1.53633 0
M  V30 8060 C 750.345 1.45142 -1.8176 0
M  V30 8061 C 751.339 1.54819 -0.687571 0
M  V30 8062 O 752.545 1.57536 -0.870772 0
M  V30 8063 H 748.92 0.483789 -0.575719 0
M  V30 8064 H 750.891 1.1863 -2.73806 0
M  V30 8065 C 749.64 2.81779 -2.03706 0
M  V30 8066 H 748.963 2.75097 -2.90107 0
M  V30 8067 H 750.403 3.5789 -2.27356 0
M  V30 8068 C 748.862 3.26762 -0.820271 0
M  V30 8069 O 749.392 4.01697 -0.0158603 0
M  V30 8070 N 747.598 2.83472 -0.639699 0
M  V30 8071 H 747.145 2.22655 -1.29547 0
M  V30 8072 H 747.103 3.13924 0.172995 0
M  V30 8073 N 750.875 1.45233 0.611969 0
M  V30 8074 C 752.291 1.29542 0.932251 0
M  V30 8075 C 752.491 0.24523 2.00002 0
M  V30 8076 O 751.547 -0.362333 2.49887 0
M  V30 8077 C 752.86 2.67301 1.37733 0
M  V30 8078 C 754.408 2.75163 1.49178 0
M  V30 8079 C 754.883 4.13437 1.97064 0
M  V30 8080 N 756.374 4.15709 2.04304 0
M  V30 8081 C 757.109 5.19566 2.42568 0
M  V30 8082 N 756.605 6.33771 2.79832 0
M  V30 8083 N 758.398 5.06923 2.42869 0
M  V30 8084 H 750.549 2.12192 -0.0938679 0
M  V30 8085 H 752.812 0.947775 0.0206569 0
M  V30 8086 H 752.518 3.45318 0.666951 0
M  V30 8087 H 752.392 2.95472 2.3447 0
M  V30 8088 H 754.779 1.97453 2.19309 0
M  V30 8089 H 754.86 2.50712 0.507674 0
M  V30 8090 H 754.504 4.91631 1.27521 0
M  V30 8091 H 754.434 4.35277 2.9638 0
M  V30 8092 H 756.925 3.33293 1.78113 0
M  V30 8093 H 757.238 7.08815 3.07898 0
M  V30 8094 H 755.583 6.37179 2.77538 0
M  V30 8095 H 758.774 4.1675 2.1316 0
M  V30 8096 H 758.947 5.87981 2.72364 0
M  V30 8097 N 752.353 -0.854086 1.3245 0
M  V30 8098 C 753.263 -1.99503 1.23434 0
M  V30 8099 C 754.279 -1.73371 0.147828 0
M  V30 8100 O 755.455 -1.97998 0.368609 0
M  V30 8101 C 752.52 -3.33192 0.958328 0
M  V30 8102 C 751.581 -3.72542 2.13333 0
M  V30 8103 C 750.814 -4.99852 1.8704 0
M  V30 8104 O 751.037 -5.64573 0.813239 0
M  V30 8105 O 749.971 -5.36345 2.73161 0
M  V30 8106 H 753.797 -2.10046 2.1935 0
M  V30 8107 H 751.382 -0.984823 1.12346 0
M  V30 8108 H 753.264 -4.13327 0.820918 0
M  V30 8109 H 751.939 -3.23687 0.0293299 0
M  V30 8110 H 750.846 -2.92981 2.32622 0
M  V30 8111 H 752.179 -3.86694 3.04514 0
M  V30 8112 N 753.831 -1.1567 -1.07043 0
M  V30 8113 C 755.079 -0.931673 -1.79344 0
M  V30 8114 C 755.4 0.542421 -1.87304 0
M  V30 8115 O 754.67 1.39418 -1.37621 0
M  V30 8116 H 753.25 -0.34171 -0.664262 0
M  V30 8117 H 755.912 -1.45795 -1.29344 0
M  V30 8118 H 755.008 -1.34379 -2.81689 0
M  V30 8119 N 755.309 1.25446 -0.953992 0
M  V30 8120 C 756.219 2.29632 -0.480264 0
M  V30 8121 C 757.235 1.68025 0.452071 0
M  V30 8122 O 758.411 1.98703 0.328472 0
M  V30 8123 C 755.476 3.45903 0.234974 0
M  V30 8124 C 754.537 4.22953 -0.735495 0
M  V30 8125 C 753.77 5.33672 -0.0542957 0
M  V30 8126 O 753.993 5.58477 1.16018 0
M  V30 8127 O 752.927 5.9734 -0.739509 0
M  V30 8128 H 756.753 2.72242 -1.34602 0
M  V30 8129 H 754.338 1.30883 -0.720419 0
M  V30 8130 H 756.22 4.16552 0.637341 0
M  V30 8131 H 754.895 3.05296 1.07592 0
M  V30 8132 H 753.802 3.54734 -1.18806 0
M  V30 8133 H 755.135 4.67341 -1.54444 0
M  V30 8134 N 756.787 0.722489 1.40064 0
M  V30 8135 C 758.015 0.274838 2.05066 0
M  V30 8136 C 758.43 -1.08586 1.54449 0
M  V30 8137 O 757.787 -1.68375 0.704003 0
M  V30 8138 C 757.838 0.253673 3.60609 0
M  V30 8139 O 757.559 1.56064 4.0936 0
M  V30 8140 C 759.06 -0.211684 4.42794 0
M  V30 8141 H 756.28 0.12226 0.659768 0
M  V30 8142 H 758.824 0.982632 1.79345 0
M  V30 8143 H 756.979 -0.405137 3.85276 0
M  V30 8144 H 757.393 1.46576 5.03603 0
M  V30 8145 H 758.867 -0.175341 5.51721 0
M  V30 8146 H 759.344 -1.25493 4.2089 0
M  V30 8147 H 759.95 0.4171 4.2325 0
M  V30 8148 N 758.265 -1.50454 0.469181 0
M  V30 8149 C 759.676 -1.86695 0.0136034 0
M  V30 8150 C 760.027 -1.38413 -1.39055 0
M  V30 8151 O 759.152 -0.748294 -2.03051 0
M  V30 8152 C 759.747 -3.38795 0.0179098 0
M  V30 8153 C 758.306 -3.74455 -0.382191 0
M  V30 8154 C 757.453 -2.74338 0.404207 0
M  V30 8155 H 760.404 -1.43225 0.683547 0
M  V30 8156 H 760.425 -3.72321 -0.78468 0
M  V30 8157 H 759.937 -3.73906 1.04 0
M  V30 8158 H 758.038 -3.44944 -1.4087 0
M  V30 8159 H 758.151 -4.79025 -0.084862 0
M  V30 8160 H 756.515 -2.54305 -0.141829 0
M  V30 8161 H 757.298 -3.12293 1.42577 0
M  V30 8162 N 759.743 -0.201713 -1.56304 0
M  V30 8163 C 760.673 0.71155 -2.22394 0
M  V30 8164 C 761.654 1.21625 -1.18917 0
M  V30 8165 O 762.839 1.26388 -1.47444 0
M  V30 8166 C 759.969 1.92837 -2.88845 0
M  V30 8167 C 758.923 1.55831 -3.98623 0
M  V30 8168 C 758.249 2.85228 -4.52271 0
M  V30 8169 C 759.549 0.763249 -5.16693 0
M  V30 8170 H 761.243 0.160573 -2.98969 0
M  V30 8171 H 758.789 0.0757916 -1.438 0
M  V30 8172 H 760.742 2.57253 -3.33764 0
M  V30 8173 H 759.466 2.50398 -2.09686 0
M  V30 8174 H 758.125 0.9377 -3.54405 0
M  V30 8175 H 757.773 3.40893 -3.69866 0
M  V30 8176 H 757.473 2.6121 -5.26349 0
M  V30 8177 H 758.997 3.50622 -4.99897 0
M  V30 8178 H 760.411 1.31066 -5.58117 0
M  V30 8179 H 758.808 0.620935 -5.96879 0
M  V30 8180 H 759.878 -0.234322 -4.84334 0
M  V30 8181 N 761.222 1.57436 0.0718424 0
M  V30 8182 C 762.152 2.06724 1.08571 0
M  V30 8183 C 763.133 0.960731 1.40371 0
M  V30 8184 O 764.318 1.23345 1.49999 0
M  V30 8185 C 761.448 2.51112 2.39916 0
M  V30 8186 C 760.402 3.65639 2.22469 0
M  V30 8187 C 759.728 3.96082 3.59198 0
M  V30 8188 C 761.028 4.95687 1.64596 0
M  V30 8189 H 762.722 2.91679 0.675569 0
M  V30 8190 H 760.268 1.40319 0.32352 0
M  V30 8191 H 762.221 2.84206 3.11135 0
M  V30 8192 H 760.945 1.63186 2.8291 0
M  V30 8193 H 759.604 3.32828 1.53691 0
M  V30 8194 H 759.252 3.05287 3.99761 0
M  V30 8195 H 758.952 4.73199 3.48362 0
M  V30 8196 H 760.476 4.31672 4.31847 0
M  V30 8197 H 761.89 5.27011 2.25681 0
M  V30 8198 H 760.287 5.77126 1.64457 0
M  V30 8199 H 761.357 4.8108 0.60744 0
M  V30 8200 N 762.7 -0.34323 1.53817 0
M  V30 8201 C 763.928 -1.10348 1.75017 0
M  V30 8202 C 764.343 -1.82345 0.489475 0
M  V30 8203 O 763.7 -1.74362 -0.538886 0
M  V30 8204 C 763.751 -2.11672 2.93048 0
M  V30 8205 O 763.472 -1.42603 4.14241 0
M  V30 8206 C 764.973 -3.0007 3.26301 0
M  V30 8207 H 762.193 -0.329056 0.584776 0
M  V30 8208 H 764.737 -0.395339 2.00642 0
M  V30 8209 H 762.892 -2.78051 2.69753 0
M  V30 8210 H 763.306 -2.10294 4.80496 0
M  V30 8211 H 764.78 -3.67101 4.12239 0
M  V30 8212 H 765.257 -3.66105 2.42618 0
M  V30 8213 H 765.863 -2.3928 3.51604 0
M  V30 8214 N 764.178 -1.45556 -0.604258 0
M  V30 8215 C 765.141 -1.54091 -1.69672 0
M  V30 8216 C 766.141 -0.420076 -1.55216 0
M  V30 8217 O 767.331 -0.683671 -1.60224 0
M  V30 8218 C 764.463 -1.44063 -3.08964 0
M  V30 8219 H 765.656 -2.51431 -1.6347 0
M  V30 8220 H 763.209 -1.33046 -0.820273 0
M  V30 8221 H 763.944 -0.479201 -3.2074 0
M  V30 8222 H 763.729 -2.25362 -3.20865 0
M  V30 8223 H 765.219 -1.53075 -3.88533 0
M  V30 8224 N 765.656 0.84705 -1.32902 0
M  V30 8225 C 766.881 1.63925 -1.27056 0
M  V30 8226 C 767.306 1.87443 0.157136 0
M  V30 8227 O 766.664 1.43266 1.11106 0
M  V30 8228 C 766.712 2.97134 -2.04313 0
M  V30 8229 O 765.816 3.88049 -1.39614 0
M  V30 8230 H 765.157 0.499477 -0.437514 0
M  V30 8231 H 767.687 1.05443 -1.75336 0
M  V30 8232 H 767.697 3.46896 -2.14772 0
M  V30 8233 H 766.372 2.79339 -3.08128 0
M  V30 8234 H 764.949 3.46525 -1.3775 0
M  V30 8235 N 767.134 1.16236 1.06428 0
M  V30 8236 C 768.097 0.870163 2.1204 0
M  V30 8237 C 769.097 -0.134239 1.60239 0
M  V30 8238 O 770.287 0.0964932 1.73933 0
M  V30 8239 C 767.419 0.301033 3.39568 0
M  V30 8240 H 768.612 1.8064 2.39394 0
M  V30 8241 H 766.165 0.971116 1.2247 0
M  V30 8242 H 766.9 -0.642948 3.17863 0
M  V30 8243 H 766.685 1.02475 3.78472 0
M  V30 8244 H 768.175 0.114494 4.17443 0
M  V30 8245 N 768.612 -1.24939 0.960631 0
M  V30 8246 C 770.028 -1.45039 0.666018 0
M  V30 8247 C 770.228 -1.86021 -0.774501 0
M  V30 8248 O 769.284 -1.99392 -1.54916 0
M  V30 8249 C 770.597 -2.51775 1.64408 0
M  V30 8250 C 772.145 -2.6561 1.65592 0
M  V30 8251 C 772.62 -3.75536 2.62177 0
M  V30 8252 N 774.111 -3.82954 2.60577 0
M  V30 8253 C 774.846 -4.67517 3.31987 0
M  V30 8254 N 774.342 -5.56321 4.1289 0
M  V30 8255 N 776.135 -4.61535 3.20845 0
M  V30 8256 H 768.286 -0.96632 1.89145 0
M  V30 8257 H 770.549 -0.486034 0.813926 0
M  V30 8258 H 770.255 -2.28534 2.67329 0
M  V30 8259 H 770.129 -3.49804 1.41128 0
M  V30 8260 H 772.516 -2.88212 0.633846 0
M  V30 8261 H 772.597 -1.67962 1.92931 0
M  V30 8262 H 772.241 -3.53684 3.64514 0
M  V30 8263 H 772.171 -4.72682 2.32119 0
M  V30 8264 H 774.662 -3.19478 2.01847 0
M  V30 8265 H 774.975 -6.17787 4.64283 0
M  V30 8266 H 773.32 -5.5601 4.16987 0
M  V30 8267 H 776.511 -3.91169 2.57108 0
M  V30 8268 H 776.684 -5.27214 3.76762 0
M  V30 8269 N 770.09 -0.729906 -1.39679 0
M  V30 8270 C 771.338 -0.275077 -2.00219 0
M  V30 8271 C 771.659 1.1401 -1.58199 0
M  V30 8272 O 770.929 1.77546 -0.827904 0
M  V30 8273 H 769.509 -0.0987127 -0.740449 0
M  V30 8274 H 772.171 -0.93873 -1.70804 0
M  V30 8275 H 771.267 -0.319446 -3.10461 0
M  V30 8276 N 771.568 1.50203 -0.477153 0
M  V30 8277 C 772.798 2.0647 0.0731427 0
M  V30 8278 C 773.206 1.3405 1.33518 0
M  V30 8279 O 772.549 0.405164 1.79176 0
M  V30 8280 C 772.611 3.57025 0.421121 0
M  V30 8281 C 772.275 4.50973 -0.739765 0
M  V30 8282 C 773.272 4.939 -1.62353 0
M  V30 8283 C 770.957 4.93581 -0.93181 0
M  V30 8284 C 772.951 5.78149 -2.6837 0
M  V30 8285 C 770.638 5.77612 -1.99519 0
M  V30 8286 C 771.636 6.19798 -2.86949 0
M  V30 8287 O 771.324 7.02152 -3.91456 0
M  V30 8288 H 771.056 0.675969 -0.00648243 0
M  V30 8289 H 773.61 1.94278 -0.66673 0
M  V30 8290 H 771.84 3.67141 1.21426 0
M  V30 8291 H 773.529 3.95632 0.907213 0
M  V30 8292 H 774.295 4.61646 -1.48687 0
M  V30 8293 H 770.174 4.60262 -0.260739 0
M  V30 8294 H 773.718 6.10997 -3.36643 0
M  V30 8295 H 769.615 6.09279 -2.13189 0
M  V30 8296 H 770.383 7.20414 -3.88518 0
M  V30 8297 N 773.046 0.209999 1.56195 0
M  V30 8298 C 773.996 -0.717978 2.164 0
M  V30 8299 C 774.98 -1.16577 1.10899 0
M  V30 8300 O 776.172 -1.12169 1.3692 0
M  V30 8301 C 773.301 -1.93091 2.8385 0
M  V30 8302 C 772.387 -1.50333 3.96561 0
M  V30 8303 N 772.778 -0.787621 4.9963 0
M  V30 8304 C 771.076 -1.79151 4.08437 0
M  V30 8305 C 771.777 -0.571204 5.78889 0
M  V30 8306 N 770.753 -1.12444 5.31843 0
M  V30 8307 H 774.555 -0.162603 2.9345 0
M  V30 8308 H 772.069 0.0107928 1.62396 0
M  V30 8309 H 774.066 -2.60635 3.25384 0
M  V30 8310 H 772.726 -2.49087 2.08293 0
M  V30 8311 H 773.737 -0.441513 5.16015 0
M  V30 8312 H 770.414 -2.36549 3.44022 0
M  V30 8313 H 771.804 -0.00237941 6.719 0
M  V30 8314 N 774.524 -1.57472 -0.0634922 0
M  V30 8315 C 775.801 -1.78736 -0.794538 0
M  V30 8316 C 776.181 -0.799645 -1.95369 0
M  V30 8317 O 775.529 0.165521 -2.279 0
M  V30 8318 C 775.739 -3.25471 -1.25975 0
M  V30 8319 C 777.087 -3.89528 -1.68976 0
M  V30 8320 O 778.111 -3.29412 -1.35521 0
M  V30 8321 O 776.97 -4.95305 -2.30944 0
M  V30 8322 H 774.064 -0.733813 -0.381376 0
M  V30 8323 H 776.61 -1.69646 -0.0429258 0
M  V30 8324 H 775.382 -3.88922 -0.430721 0
M  V30 8325 H 775.005 -3.39317 -2.07243 0
M  V30 8326 N 776.003 0.335068 -1.53997 0
M  V30 8327 C 777.252 1.07182 -1.70865 0
M  V30 8328 C 777.565 1.89541 -0.483078 0
M  V30 8329 O 778.771 2.66219 -0.532879 0
M  V30 8330 C 777.227 1.95497 -3.02174 0
M  V30 8331 C 776.835 1.18304 -4.32097 0
M  V30 8332 C 778.579 2.68978 -3.28407 0
M  V30 8333 C 776.486 2.05699 -5.54474 0
M  V30 8334 H 775.416 0.403857 -0.636722 0
M  V30 8335 H 778.067 0.33076 -1.80494 0
M  V30 8336 H 776.449 2.73456 -2.86423 0
M  V30 8337 H 777.623 0.451969 -4.58578 0
M  V30 8338 H 775.938 0.565556 -4.12541 0
M  V30 8339 H 778.535 3.34651 -4.17029 0
M  V30 8340 H 778.878 3.36 -2.45784 0
M  V30 8341 H 779.411 1.98087 -3.44973 0
M  V30 8342 H 776.15 1.43204 -6.39666 0
M  V30 8343 H 775.67 2.76572 -5.32229 0
M  V30 8344 H 777.349 2.64554 -5.90441 0
M  V30 8345 N 777.481 1.45874 0.596531 0
M  V30 8346 C 778.727 1.5069 1.35722 0
M  V30 8347 C 779.06 0.152506 1.936 0
M  V30 8348 O 778.335 -0.834411 1.75692 0
M  V30 8349 C 778.618 2.59474 2.4969 0
M  V30 8350 C 778.471 4.04396 1.96937 0
M  V30 8351 C 779.79 2.64451 3.51787 0
M  V30 8352 H 776.909 0.548611 0.492133 0
M  V30 8353 H 779.551 1.77741 0.671428 0
M  V30 8354 H 777.701 2.36539 3.08191 0
M  V30 8355 H 779.373 4.38576 1.43 0
M  V30 8356 H 777.616 4.14529 1.27859 0
M  V30 8357 H 778.287 4.76218 2.79143 0
M  V30 8358 H 780.763 2.85031 3.03145 0
M  V30 8359 H 779.639 3.42411 4.29006 0
M  V30 8360 H 779.9 1.69965 4.08123 0
M  V30 8361 N 778.959 -0.83999 1.33349 0
M  V30 8362 C 779.869 -1.98182 1.25543 0
M  V30 8363 C 780.885 -1.73204 0.166208 0
M  V30 8364 O 782.061 -1.97596 0.389589 0
M  V30 8365 C 779.126 -3.32157 0.993614 0
M  V30 8366 C 778.187 -3.70258 2.17273 0
M  V30 8367 C 777.42 -4.9784 1.92331 0
M  V30 8368 O 777.643 -5.63679 0.873074 0
M  V30 8369 O 776.577 -5.33418 2.78835 0
M  V30 8370 H 780.403 -2.07708 2.21565 0
M  V30 8371 H 777.988 -0.972852 1.13384 0
M  V30 8372 H 779.87 -4.12433 0.864711 0
M  V30 8373 H 778.545 -3.23637 0.0636596 0
M  V30 8374 H 777.452 -2.90497 2.35716 0
M  V30 8375 H 778.785 -3.83442 3.08598 0
M  V30 8376 N 780.437 -1.16799 -1.0581 0
M  V30 8377 C 781.677 -0.963264 -1.80279 0
M  V30 8378 C 782.041 0.499671 -1.85384 0
M  V30 8379 O 783.242 0.823264 -2.55882 0
M  V30 8380 C 781.513 -1.57938 -3.20609 0
M  V30 8381 S 783.072 -1.51997 -4.11634 0
M  V30 8382 H 779.89 -0.346302 -0.620964 0
M  V30 8383 H 782.492 -1.48632 -1.26999 0
M  V30 8384 H 781.196 -2.63672 -3.14492 0
M  V30 8385 H 780.727 -1.05586 -3.78966 0
M  V30 8386 H 782.742 -0.523625 -4.93429 0
M  V30 8387 N 781.915 1.24427 -0.967243 0
M  V30 8388 C 782.845 2.2773 -0.515899 0
M  V30 8389 C 783.826 1.64197 0.444227 0
M  V30 8390 O 785.011 1.91193 0.340451 0
M  V30 8391 C 782.141 3.46751 0.195149 0
M  V30 8392 C 781.095 4.22548 -0.680953 0
M  V30 8393 C 780.421 5.34456 0.161561 0
M  V30 8394 C 781.721 4.83914 -1.96532 0
M  V30 8395 H 783.415 2.65735 -1.37933 0
M  V30 8396 H 780.961 1.27742 -0.664681 0
M  V30 8397 H 782.914 4.18153 0.522117 0
M  V30 8398 H 781.638 3.07771 1.09292 0
M  V30 8399 H 780.297 3.52946 -0.991186 0
M  V30 8400 H 779.945 4.91716 1.05947 0
M  V30 8401 H 779.645 5.86087 -0.421418 0
M  V30 8402 H 781.169 6.08685 0.483211 0
M  V30 8403 H 782.583 5.47392 -1.70396 0
M  V30 8404 H 780.98 5.45775 -2.49499 0
M  V30 8405 H 782.05 4.05393 -2.66053 0
M  V30 8406 N 783.393 0.737304 1.3929 0
M  V30 8407 C 784.356 0.10731 2.28949 0
M  V30 8408 C 785.356 -0.664716 1.46418 0
M  V30 8409 O 786.546 -0.493392 1.67067 0
M  V30 8410 C 783.678 -0.857145 3.29948 0
M  V30 8411 H 784.871 0.89725 2.86163 0
M  V30 8412 H 782.424 0.503279 1.47976 0
M  V30 8413 H 783.159 -1.67336 2.77794 0
M  V30 8414 H 782.944 -0.306167 3.90903 0
M  V30 8415 H 784.434 -1.29444 3.97031 0
M  V30 8416 N 784.871 -1.49948 0.485112 0
M  V30 8417 C 785.781 -2.32587 -0.306697 0
M  V30 8418 C 786.797 -1.43598 -0.982632 0
M  V30 8419 O 787.973 -1.76638 -0.967519 0
M  V30 8420 C 785.038 -3.18638 -1.3664 0
M  V30 8421 C 784.099 -4.23462 -0.705589 0
M  V30 8422 C 783.332 -5.05401 -1.7148 0
M  V30 8423 O 783.555 -4.88618 -2.94293 0
M  V30 8424 O 782.489 -5.88157 -1.27889 0
M  V30 8425 H 786.315 -3.01447 0.369272 0
M  V30 8426 H 783.9 -1.47349 0.246709 0
M  V30 8427 H 785.782 -3.71992 -1.9799 0
M  V30 8428 H 784.457 -2.52491 -2.02559 0
M  V30 8429 H 783.364 -3.74063 -0.0527733 0
M  V30 8430 H 784.697 -4.92119 -0.0891187 0
M  V30 8431 N 786.349 -0.21828 -1.56081 0
M  V30 8432 C 787.299 0.706492 -2.16778 0
M  V30 8433 C 788.283 1.15987 -1.11516 0
M  V30 8434 O 789.475 1.11441 -1.37513 0
M  V30 8435 C 786.604 1.91583 -2.8487 0
M  V30 8436 C 785.69 1.48228 -3.97353 0
M  V30 8437 N 786.081 0.761113 -5.00041 0
M  V30 8438 C 784.379 1.76982 -4.09382 0
M  V30 8439 C 785.08 0.540496 -5.79184 0
M  V30 8440 N 784.056 1.09622 -5.32432 0
M  V30 8441 H 787.858 0.147038 -2.93532 0
M  V30 8442 H 785.372 -0.0194049 -1.62388 0
M  V30 8443 H 787.369 2.58906 -3.26762 0
M  V30 8444 H 786.029 2.47979 -2.09611 0
M  V30 8445 H 787.04 0.414141 -5.16241 0
M  V30 8446 H 783.717 2.34721 -3.45271 0
M  V30 8447 H 785.107 -0.0332531 -6.71892 0
M  V30 8448 N 787.827 1.57504 0.0551401 0
M  V30 8449 C 789.075 1.87684 0.74962 0
M  V30 8450 C 789.396 0.812547 1.77264 0
M  V30 8451 O 788.666 -0.15694 1.9527 0
M  V30 8452 H 787.246 0.6926 0.279846 0
M  V30 8453 H 789.908 1.94881 0.0272745 0
M  V30 8454 H 789.004 2.85734 1.25548 0
M  V30 8455 N 789.305 -0.326896 1.54172 0
M  V30 8456 C 790.268 -1.38515 1.8261 0
M  V30 8457 C 791.268 -1.44872 0.697771 0
M  V30 8458 O 792.458 -1.44957 0.966078 0
M  V30 8459 C 789.59 -2.77281 1.98313 0
M  V30 8460 H 790.783 -1.14556 2.77159 0
M  V30 8461 H 788.336 -0.562199 1.45839 0
M  V30 8462 H 789.071 -3.065 1.05964 0
M  V30 8463 H 788.856 -2.74061 2.80416 0
M  V30 8464 H 790.346 -3.53845 2.21773 0
M  V30 8465 N 790.784 -1.46188 -0.588786 0
M  V30 8466 C 792.061 -1.41659 -1.34878 0
M  V30 8467 C 792.441 -0.0968913 -2.10878 0
M  V30 8468 O 791.789 0.921468 -2.09096 0
M  V30 8469 C 791.999 -2.6424 -2.27988 0
M  V30 8470 C 793.347 -3.1013 -2.90008 0
M  V30 8471 O 794.371 -2.64745 -2.38303 0
M  V30 8472 O 793.23 -3.88944 -3.83908 0
M  V30 8473 H 790.324 -0.563058 -0.605718 0
M  V30 8474 H 792.87 -1.58346 -0.610309 0
M  V30 8475 H 791.642 -3.51853 -1.71217 0
M  V30 8476 H 791.265 -2.49982 -3.09184 0
M  V30 8477 N 792.262 0.832906 -1.33792 0
M  V30 8478 C 793.192 1.95828 -1.27176 0
M  V30 8479 C 794.173 1.69427 -0.15114 0
M  V30 8480 O 795.358 1.91167 -0.341886 0
M  V30 8481 C 792.488 3.32098 -1.01629 0
M  V30 8482 C 791.442 3.72912 -2.10049 0
M  V30 8483 C 790.768 5.07054 -1.69706 0
M  V30 8484 C 792.068 3.86064 -3.51783 0
M  V30 8485 H 793.762 2.01622 -2.21334 0
M  V30 8486 H 791.308 0.96866 -1.0655 0
M  V30 8487 H 793.261 4.10402 -0.956474 0
M  V30 8488 H 791.985 3.26577 -0.0390956 0
M  V30 8489 H 790.644 2.96876 -2.15082 0
M  V30 8490 H 790.292 4.9801 -0.706737 0
M  V30 8491 H 789.992 5.35333 -2.42264 0
M  V30 8492 H 791.516 5.87827 -1.65202 0
M  V30 8493 H 792.93 4.54665 -3.49218 0
M  V30 8494 H 791.327 4.25787 -4.22878 0
M  V30 8495 H 792.397 2.88344 -3.89854 0
M  V30 8496 N 793.74 1.17359 1.05189 0
M  V30 8497 C 794.688 0.886527 2.15043 0
M  V30 8498 C 795.682 -0.148834 1.68745 0
M  V30 8499 O 796.888 -0.00175123 1.8 0
M  V30 8500 H 793.263 0.269147 0.702185 0
M  V30 8501 H 795.234 1.82016 2.36459 0
M  V30 8502 C 793.983 0.416333 3.45198 0
M  V30 8503 H 793.306 1.20449 3.81225 0
M  V30 8504 H 794.746 0.254362 4.23236 0
M  V30 8505 C 793.205 -0.866016 3.25579 0
M  V30 8506 O 793.735 -1.9328 3.52144 0
M  V30 8507 N 791.941 -0.814179 2.78961 0
M  V30 8508 H 791.488 0.0541618 2.57543 0
M  V30 8509 H 791.446 -1.67264 2.66214 0
M  V30 8510 N 795.218 -1.23913 0.973828 0
M  V30 8511 C 796.181 -2.23367 0.51378 0
M  V30 8512 C 797.181 -1.55923 -0.39302 0
M  V30 8513 O 798.371 -1.73187 -0.187626 0
M  V30 8514 C 795.503 -3.39944 -0.255152 0
M  V30 8515 H 796.696 -2.65581 1.39307 0
M  V30 8516 H 794.249 -1.36632 0.759039 0
M  V30 8517 H 794.984 -3.03177 -1.15127 0
M  V30 8518 H 794.769 -3.90098 0.395673 0
M  V30 8519 H 796.259 -4.13749 -0.565842 0
M  V30 8520 N 796.696 -0.74468 -1.38897 0
M  V30 8521 C 797.936 -0.301691 -2.02161 0
M  V30 8522 C 798.3 1.09338 -1.57826 0
M  V30 8523 O 799.501 1.63499 -2.13358 0
M  V30 8524 C 797.772 -0.410601 -3.55034 0
M  V30 8525 S 799.331 -0.0488802 -4.38773 0
M  V30 8526 H 796.149 -0.117583 -0.70121 0
M  V30 8527 H 798.751 -0.973334 -1.69548 0
M  V30 8528 H 797.455 -1.42705 -3.8479 0
M  V30 8529 H 796.986 0.278531 -3.92413 0
M  V30 8530 H 799.001 1.16434 -4.82346 0
M  V30 8531 N 798.174 1.49689 -0.493057 0
M  V30 8532 C 799.451 1.9525 0.116907 0
M  V30 8533 C 799.831 1.43429 1.54892 0
M  V30 8534 O 799.179 0.644621 2.19219 0
M  V30 8535 C 799.389 3.4898 0.037705 0
M  V30 8536 C 800.737 4.24052 0.215621 0
M  V30 8537 O 801.761 3.5602 0.113266 0
M  V30 8538 O 800.62 5.44847 0.42477 0
M  V30 8539 H 797.714 0.820973 0.099662 0
M  V30 8540 H 800.26 1.60367 -0.555029 0
M  V30 8541 H 799.032 3.79309 -0.961251 0
M  V30 8542 H 798.655 3.9046 0.750137 0
M  V30 8543 N 799.652 0.226554 1.55963 0
M  V30 8544 C 800.599 -0.681504 2.20509 0
M  V30 8545 C 801.569 -1.1866 1.16229 0
M  V30 8546 O 802.754 -1.24478 1.44602 0
M  V30 8547 C 799.894 -1.88183 2.89277 0
M  V30 8548 C 799.007 -1.41517 4.08163 0
M  V30 8549 C 798.142 -2.57346 4.647 0
M  V30 8550 C 797.181 -2.07441 5.75877 0
M  V30 8551 N 796.318 -3.16561 6.26685 0
M  V30 8552 H 801.158 -0.124372 2.9774 0
M  V30 8553 H 798.695 -0.0496333 1.47016 0
M  V30 8554 H 800.653 -2.58666 3.27335 0
M  V30 8555 H 799.283 -2.41177 2.14555 0
M  V30 8556 H 798.335 -0.605099 3.75557 0
M  V30 8557 H 799.647 -1.00928 4.88482 0
M  V30 8558 H 798.801 -3.35903 5.05227 0
M  V30 8559 H 797.54 -3.01227 3.83554 0
M  V30 8560 H 796.545 -1.27347 5.34848 0
M  V30 8561 H 797.77 -1.64554 6.58862 0
M  V30 8562 H 795.716 -3.59914 5.48451 0
M  V30 8563 H 795.633 -2.80239 7.02141 0
M  V30 8564 H 796.901 -3.95238 6.71868 0
M  V30 8565 N 801.13 -1.57531 -0.0467866 0
M  V30 8566 C 802.407 -1.79568 -0.775536 0
M  V30 8567 C 802.787 -0.820322 -1.94509 0
M  V30 8568 O 802.135 0.14134 -2.28062 0
M  V30 8569 C 802.345 -3.26789 -1.22516 0
M  V30 8570 C 803.693 -3.91299 -1.64835 0
M  V30 8571 O 804.717 -3.30831 -1.3202 0
M  V30 8572 O 803.576 -4.97727 -2.25677 0
M  V30 8573 H 800.67 -0.737817 -0.373572 0
M  V30 8574 H 803.216 -1.69682 -0.0249302 0
M  V30 8575 H 801.988 -3.89357 -0.389446 0
M  V30 8576 H 801.611 -3.41496 -2.03633 0
M  V30 8577 N 802.608 0.318715 -1.54344 0
M  V30 8578 C 803.856 1.054 -1.72439 0
M  V30 8579 C 804.177 1.88388 -0.503495 0
M  V30 8580 O 803.447 1.89866 0.48246 0
M  V30 8581 H 802.027 0.392124 -0.635805 0
M  V30 8582 H 804.689 0.35398 -1.91659 0
M  V30 8583 H 803.785 1.71726 -2.60608 0
M  V30 8584 N 804.086 1.46499 0.581025 0
M  V30 8585 C 805.036 1.53606 1.68491 0
M  V30 8586 C 806.02 0.396853 1.55929 0
M  V30 8587 O 807.212 0.645366 1.64815 0
M  V30 8588 C 804.341 1.53089 3.07276 0
M  V30 8589 C 803.427 2.72309 3.25128 0
M  V30 8590 N 803.818 3.97216 3.13134 0
M  V30 8591 C 802.116 2.68568 3.56072 0
M  V30 8592 C 802.817 4.7693 3.33036 0
M  V30 8593 N 801.793 4.08833 3.58269 0
M  V30 8594 H 805.595 2.47976 1.5775 0
M  V30 8595 H 803.109 1.42161 0.785104 0
M  V30 8596 H 805.106 1.56268 3.86505 0
M  V30 8597 H 803.766 0.597969 3.19146 0
M  V30 8598 H 804.777 4.28439 2.90964 0
M  V30 8599 H 801.454 1.84307 3.74616 0
M  V30 8600 H 802.844 5.85879 3.28932 0
M  V30 8601 N 805.565 -0.825799 1.34232 0
M  V30 8602 C 806.814 -1.57686 1.2577 0
M  V30 8603 C 807.127 -1.94848 -0.171372 0
M  V30 8604 O 808.333 -2.68854 -0.378123 0
M  V30 8605 C 806.789 -2.84478 2.20454 0
M  V30 8606 C 806.397 -2.54629 3.68603 0
M  V30 8607 C 808.141 -3.625 2.20893 0
M  V30 8608 C 806.048 -3.77597 4.55164 0
M  V30 8609 H 804.978 -0.591809 0.467203 0
M  V30 8610 H 807.629 -0.909421 1.59379 0
M  V30 8611 H 806.011 -3.52832 1.79793 0
M  V30 8612 H 807.185 -1.94404 4.17784 0
M  V30 8613 H 805.5 -1.89888 3.70582 0
M  V30 8614 H 808.097 -4.538 2.82789 0
M  V30 8615 H 808.44 -3.98404 1.20746 0
M  V30 8616 H 808.973 -3.01086 2.59985 0
M  V30 8617 H 805.712 -3.46815 5.56237 0
M  V30 8618 H 805.232 -4.37116 4.10719 0
M  V30 8619 H 806.911 -4.45039 4.69627 0
M  V30 8620 N 807.043 -1.17915 -1.04565 0
M  V30 8621 C 808.006 -0.903787 -2.10628 0
M  V30 8622 C 809.006 0.10873 -1.60432 0
M  V30 8623 O 810.196 -0.124152 -1.73757 0
M  V30 8624 C 807.328 -0.355017 -3.39046 0
M  V30 8625 H 808.521 -1.84425 -2.3649 0
M  V30 8626 H 806.074 -0.990477 -1.2091 0
M  V30 8627 H 806.809 0.592297 -3.18845 0
M  V30 8628 H 806.594 -1.08484 -3.76794 0
M  V30 8629 H 808.084 -0.180891 -4.17208 0
M  V30 8630 N 808.521 1.23394 -0.980386 0
M  V30 8631 C 809.451 2.2717 -0.540024 0
M  V30 8632 C 810.432 1.64659 0.426787 0
M  V30 8633 O 811.617 1.91543 0.320153 0
M  V30 8634 C 808.747 3.46939 0.15836 0
M  V30 8635 C 807.701 4.21802 -0.725732 0
M  V30 8636 C 807.027 5.34597 0.104866 0
M  V30 8637 C 808.327 4.81802 -2.01654 0
M  V30 8638 H 810.021 2.64257 -1.40743 0
M  V30 8639 H 807.567 1.2703 -0.678193 0
M  V30 8640 H 809.52 4.18683 0.477737 0
M  V30 8641 H 808.244 3.08912 1.06022 0
M  V30 8642 H 806.903 3.51875 -1.02857 0
M  V30 8643 H 806.551 4.92812 1.00726 0
M  V30 8644 H 806.251 5.85607 -0.483557 0
M  V30 8645 H 807.775 6.09163 0.418624 0
M  V30 8646 H 809.189 5.45554 -1.76193 0
M  V30 8647 H 807.586 5.43098 -2.55273 0
M  V30 8648 H 808.656 4.02549 -2.70338 0
M  V30 8649 N 809.999 0.752036 1.385 0
M  V30 8650 C 810.949 0.0990189 2.27785 0
M  V30 8651 C 811.933 -0.694867 1.45122 0
M  V30 8652 O 813.125 -0.561077 1.67872 0
M  V30 8653 C 810.254 -0.794531 3.33979 0
M  V30 8654 C 809.34 0.00611984 4.241 0
M  V30 8655 N 809.731 1.04174 4.94956 0
M  V30 8656 C 808.029 -0.220934 4.45452 0
M  V30 8657 C 808.73 1.52601 5.61327 0
M  V30 8658 N 807.706 0.84159 5.37046 0
M  V30 8659 H 811.508 0.892208 2.8003 0
M  V30 8660 H 809.022 0.587934 1.51384 0
M  V30 8661 H 811.019 -1.27797 3.96829 0
M  V30 8662 H 809.679 -1.58669 2.83292 0
M  V30 8663 H 810.69 1.42349 4.97953 0
M  V30 8664 H 807.367 -0.986556 4.05676 0
M  V30 8665 H 808.757 2.38857 6.2801 0
M  V30 8666 N 811.477 -1.49425 0.500989 0
M  V30 8667 C 812.407 -2.31971 -0.266775 0
M  V30 8668 C 813.388 -1.40245 -0.962563 0
M  V30 8669 O 814.573 -1.69154 -0.953968 0
M  V30 8670 C 811.703 -3.20757 -1.33163 0
M  V30 8671 C 810.657 -4.21275 -0.75572 0
M  V30 8672 C 809.983 -4.98997 -1.92109 0
M  V30 8673 C 811.283 -5.21686 0.253213 0
M  V30 8674 H 812.977 -2.96408 0.422237 0
M  V30 8675 H 810.523 -1.4254 0.204505 0
M  V30 8676 H 812.476 -3.77315 -1.87646 0
M  V30 8677 H 811.2 -2.54263 -2.04983 0
M  V30 8678 H 809.859 -3.65861 -0.232637 0
M  V30 8679 H 809.507 -4.28951 -2.62698 0
M  V30 8680 H 809.207 -5.67011 -1.54182 0
M  V30 8681 H 810.731 -5.584 -2.47026 0
M  V30 8682 H 812.145 -5.72939 -0.203483 0
M  V30 8683 H 810.542 -5.9759 0.548322 0
M  V30 8684 H 811.612 -4.70596 1.16909 0
M  V30 8685 N 812.955 -0.234822 -1.55841 0
M  V30 8686 C 813.918 0.656378 -2.196 0
M  V30 8687 C 814.918 1.11179 -1.16171 0
M  V30 8688 O 816.108 1.01845 -1.41326 0
M  V30 8689 C 813.24 1.90072 -2.82993 0
M  V30 8690 H 814.433 0.100281 -2.99732 0
M  V30 8691 H 811.986 0.0147613 -1.56293 0
M  V30 8692 H 812.721 2.49836 -2.06767 0
M  V30 8693 H 812.506 1.5825 -3.58747 0
M  V30 8694 H 813.996 2.53538 -3.31826 0
M  V30 8695 N 814.433 1.57553 0.0384317 0
M  V30 8696 C 815.679 1.89121 0.732199 0
M  V30 8697 C 816.012 0.831404 1.75503 0
M  V30 8698 O 815.287 -0.154642 1.93884 0
M  V30 8699 C 815.57 3.31338 1.41021 0
M  V30 8700 C 815.423 4.48004 0.401532 0
M  V30 8701 C 816.742 3.72318 2.34665 0
M  V30 8702 H 813.861 0.687819 0.264715 0
M  V30 8703 H 816.503 1.89999 -0.00496279 0
M  V30 8704 H 814.653 3.3072 2.03854 0
M  V30 8705 H 816.325 4.60755 -0.224159 0
M  V30 8706 H 814.568 4.32895 -0.280092 0
M  V30 8707 H 815.239 5.44377 0.91423 0
M  V30 8708 H 817.715 3.74243 1.81883 0
M  V30 8709 H 816.591 4.72652 2.7909 0
M  V30 8710 H 816.852 3.04062 3.20934 0
M  V30 8711 N 815.911 -0.310526 1.54511 0
M  V30 8712 C 817.327 -0.655637 1.45511 0
M  V30 8713 C 817.527 -1.91114 0.638564 0
M  V30 8714 O 816.583 -2.52098 0.142497 0
M  V30 8715 C 817.896 -0.817501 2.89374 0
M  V30 8716 C 819.444 -0.914003 2.99358 0
M  V30 8717 C 819.919 -1.10794 4.44397 0
M  V30 8718 N 821.41 -1.17437 4.48066 0
M  V30 8719 C 822.145 -1.34255 5.57461 0
M  V30 8720 N 821.641 -1.48032 6.768 0
M  V30 8721 N 823.434 -1.37067 5.45132 0
M  V30 8722 H 815.585 0.514506 2.06074 0
M  V30 8723 H 817.848 0.168478 0.932909 0
M  V30 8724 H 817.554 0.034003 3.51684 0
M  V30 8725 H 817.428 -1.7094 3.36243 0
M  V30 8726 H 819.815 -1.756 2.37168 0
M  V30 8727 H 819.896 0.00170958 2.558 0
M  V30 8728 H 819.54 -0.270743 5.07178 0
M  V30 8729 H 819.47 -2.03773 4.85576 0
M  V30 8730 H 821.961 -1.08181 3.62084 0
M  V30 8731 H 822.274 -1.60593 7.5593 0
M  V30 8732 H 820.619 -1.45105 6.79683 0
M  V30 8733 H 823.81 -1.25909 4.50849 0
M  V30 8734 H 823.983 -1.49831 6.3044 0
M  V30 8735 N 817.389 -1.46805 -0.573248 0
M  V30 8736 C 818.805 -1.31969 -0.897577 0
M  V30 8737 C 819.005 -0.298171 -1.99282 0
M  V30 8738 O 818.061 0.295953 -2.5076 0
M  V30 8739 C 819.374 -2.70859 -1.30598 0
M  V30 8740 C 820.922 -2.79022 -1.4183 0
M  V30 8741 C 821.397 -4.18516 -1.86033 0
M  V30 8742 N 822.888 -4.2098 -1.9321 0
M  V30 8743 C 823.623 -5.25814 -2.28707 0
M  V30 8744 N 823.119 -6.40968 -2.6293 0
M  V30 8745 N 824.912 -5.13184 -2.29343 0
M  V30 8746 H 817.063 -2.11869 0.150094 0
M  V30 8747 H 819.326 -0.947989 0.00447895 0
M  V30 8748 H 819.032 -3.46965 -0.575161 0
M  V30 8749 H 818.906 -3.01585 -2.26554 0
M  V30 8750 H 821.293 -2.03198 -2.13996 0
M  V30 8751 H 821.374 -2.51969 -0.441024 0
M  V30 8752 H 821.018 -4.94839 -1.14442 0
M  V30 8753 H 820.948 -4.42982 -2.84735 0
M  V30 8754 H 823.439 -3.37898 -1.69214 0
M  V30 8755 H 823.752 -7.16729 -2.88996 0
M  V30 8756 H 822.097 -6.44314 -2.60547 0
M  V30 8757 H 825.288 -4.22255 -2.02036 0
M  V30 8758 H 825.461 -5.94996 -2.56679 0
M  V30 8759 N 818.867 0.818669 -1.34668 0
M  V30 8760 C 820.107 1.58862 -1.28617 0
M  V30 8761 C 820.471 1.91483 0.140845 0
M  V30 8762 O 821.672 2.66821 0.325583 0
M  V30 8763 C 819.943 2.85044 -2.15604 0
M  V30 8764 S 821.502 3.75553 -2.26948 0
M  V30 8765 H 818.32 0.544454 -0.457265 0
M  V30 8766 H 820.922 0.966679 -1.69928 0
M  V30 8767 H 819.626 2.59083 -3.18284 0
M  V30 8768 H 819.157 3.52231 -1.75205 0
M  V30 8769 H 821.172 4.74682 -1.44539 0
M  V30 8770 N 820.346 1.18468 1.03938 0
M  V30 8771 C 821.278 0.870615 2.12021 0
M  V30 8772 C 822.291 -0.132318 1.62261 0
M  V30 8773 O 823.48 0.0956901 1.78243 0
M  V30 8774 C 820.58 0.279727 3.37744 0
M  V30 8775 C 819.753 1.32863 4.16733 0
M  V30 8776 C 818.812 0.753204 5.20781 0
M  V30 8777 O 817.838 1.42825 5.5099 0
M  V30 8778 N 819.04 -0.448664 5.78764 0
M  V30 8779 H 821.805 1.80091 2.39556 0
M  V30 8780 H 819.366 1.08524 1.20142 0
M  V30 8781 H 821.358 -0.118829 4.04526 0
M  V30 8782 H 819.928 -0.554621 3.07641 0
M  V30 8783 H 819.148 1.90245 3.45254 0
M  V30 8784 H 820.436 2.03574 4.66299 0
M  V30 8785 H 819.834 -1.01481 5.56523 0
M  V30 8786 H 818.391 -0.789125 6.47005 0
M  V30 8787 N 821.824 -1.22873 0.986916 0
M  V30 8788 C 822.757 -2.23154 0.477245 0
M  V30 8789 C 823.735 -1.55981 -0.459206 0
M  V30 8790 O 824.919 -1.84503 -0.386141 0
M  V30 8791 C 822.046 -3.37289 -0.308838 0
M  V30 8792 C 821.092 -4.22637 0.572717 0
M  V30 8793 S 821.925 -4.95758 2.02446 0
M  V30 8794 C 823.081 -6.13338 1.2477 0
M  V30 8795 H 823.314 -2.6604 1.32702 0
M  V30 8796 H 820.847 -1.32455 0.793415 0
M  V30 8797 H 822.805 -4.03472 -0.756351 0
M  V30 8798 H 821.466 -2.92922 -1.13381 0
M  V30 8799 H 820.659 -5.0399 -0.0318024 0
M  V30 8800 H 820.261 -3.61555 0.956746 0
M  V30 8801 H 822.553 -6.7556 0.51231 0
M  V30 8802 H 823.496 -6.78189 2.03629 0
M  V30 8803 H 823.904 -5.59311 0.763622 0
M  V30 8804 N 823.302 -0.75937 -1.38099 0
M  V30 8805 C 824.212 -0.13774 -2.34195 0
M  V30 8806 C 825.228 0.693985 -1.59561 0
M  V30 8807 O 826.404 0.616792 -1.91723 0
M  V30 8808 C 823.469 0.740535 -3.38699 0
M  V30 8809 C 822.53 -0.106225 -4.29169 0
M  V30 8810 C 821.763 0.730225 -5.28681 0
M  V30 8811 O 821.986 1.96796 -5.35376 0
M  V30 8812 O 820.92 0.145969 -6.01723 0
M  V30 8813 H 824.746 -0.931512 -2.89061 0
M  V30 8814 H 822.331 -0.520345 -1.40046 0
M  V30 8815 H 824.213 1.24232 -4.02672 0
M  V30 8816 H 822.888 1.51271 -2.8618 0
M  V30 8817 H 821.795 -0.654088 -3.68337 0
M  V30 8818 H 823.128 -0.841186 -4.84959 0
M  V30 8819 N 824.78 1.49157 -0.508906 0
M  V30 8820 C 826.026 2.02773 0.0328469 0
M  V30 8821 C 826.359 1.38714 1.35912 0
M  V30 8822 O 825.634 0.525536 1.87266 0
M  V30 8823 C 825.917 3.59664 0.177088 0
M  V30 8824 C 825.77 4.34239 -1.17287 0
M  V30 8825 C 827.089 4.30505 0.913977 0
M  V30 8826 H 824.208 0.736926 0.0104631 0
M  V30 8827 H 826.85 1.781 -0.661851 0
M  V30 8828 H 825 3.80818 0.768774 0
M  V30 8829 H 826.672 4.24561 -1.80404 0
M  V30 8830 H 824.915 3.96486 -1.76016 0
M  V30 8831 H 825.586 5.42397 -1.02516 0
M  V30 8832 H 828.062 4.14054 0.412084 0
M  V30 8833 H 826.938 5.40012 0.983759 0
M  V30 8834 H 827.199 3.96302 1.95951 0
M  V30 8835 N 826.258 0.243083 1.55714 0
M  V30 8836 C 827.507 -0.383188 1.98027 0
M  V30 8837 C 827.82 -1.59347 1.13436 0
M  V30 8838 O 829.026 -2.29065 1.45745 0
M  V30 8839 C 827.482 -0.733135 3.52354 0
M  V30 8840 C 827.09 0.455539 4.45678 0
M  V30 8841 C 828.834 -1.32381 4.03331 0
M  V30 8842 C 826.741 0.0819591 5.91343 0
M  V30 8843 H 825.671 -0.146944 0.739543 0
M  V30 8844 H 828.322 0.342697 1.80272 0
M  V30 8845 H 826.704 -1.51704 3.65789 0
M  V30 8846 H 827.878 1.23291 4.44 0
M  V30 8847 H 826.193 0.960886 4.05162 0
M  V30 8848 H 828.79 -1.61658 5.09677 0
M  V30 8849 H 829.133 -2.24698 3.50452 0
M  V30 8850 H 829.666 -0.602885 3.93205 0
M  V30 8851 H 826.405 0.972171 6.48251 0
M  V30 8852 H 825.925 -0.659291 5.96166 0
M  V30 8853 H 827.604 -0.3372 6.46121 0
M  V30 8854 N 827.736 -1.57571 -0.0300757 0
M  V30 8855 C 828.683 -2.06492 -1.03101 0
M  V30 8856 C 829.653 -0.953862 -1.3598 0
M  V30 8857 O 830.838 -1.22436 -1.46335 0
M  V30 8858 C 827.978 -2.54826 -2.32718 0
M  V30 8859 C 827.091 -3.79718 -2.06006 0
M  V30 8860 C 826.226 -4.16668 -3.29487 0
M  V30 8861 C 825.265 -5.3448 -2.98324 0
M  V30 8862 N 824.402 -5.66867 -4.14254 0
M  V30 8863 H 829.242 -2.91755 -0.606877 0
M  V30 8864 H 826.779 -1.44252 -0.288038 0
M  V30 8865 H 828.737 -2.80916 -3.08451 0
M  V30 8866 H 827.367 -1.72481 -2.72856 0
M  V30 8867 H 826.419 -3.60718 -1.20774 0
M  V30 8868 H 827.731 -4.65569 -1.79017 0
M  V30 8869 H 826.885 -4.43881 -4.13588 0
M  V30 8870 H 825.624 -3.29466 -3.59588 0
M  V30 8871 H 824.629 -5.07021 -2.12625 0
M  V30 8872 H 825.854 -6.23334 -2.69502 0
M  V30 8873 H 823.8 -4.82625 -4.44308 0
M  V30 8874 H 823.717 -6.47226 -3.90685 0
M  V30 8875 H 824.985 -5.98656 -4.99231 0
M  V30 8876 N 829.214 0.302327 -1.54673 0
M  V30 8877 C 830.442 1.05669 -1.77881 0
M  V30 8878 C 830.857 1.80983 -0.537648 0
M  V30 8879 O 830.214 1.7573 0.492467 0
M  V30 8880 C 830.265 2.03828 -2.98557 0
M  V30 8881 O 829.986 1.3157 -4.17877 0
M  V30 8882 C 831.487 2.91314 -3.34143 0
M  V30 8883 H 828.707 0.313436 -0.593295 0
M  V30 8884 H 831.251 0.342003 -2.0162 0
M  V30 8885 H 829.406 2.70801 -2.7703 0
M  V30 8886 H 829.82 1.97481 -4.85903 0
M  V30 8887 H 831.294 3.56042 -4.21827 0
M  V30 8888 H 831.771 3.59544 -2.52239 0
M  V30 8889 H 832.377 2.29874 -3.57824 0
M  V30 8890 N 830.692 1.47107 0.565454 0
M  V30 8891 C 831.622 1.61846 1.68309 0
M  V30 8892 C 832.603 0.468159 1.63531 0
M  V30 8893 O 833.788 0.696504 1.8128 0
M  V30 8894 C 830.918 1.62474 3.06952 0
M  V30 8895 C 829.872 2.76649 3.26572 0
M  V30 8896 C 829.198 2.62345 4.65917 0
M  V30 8897 C 830.498 4.18319 3.12741 0
M  V30 8898 H 832.192 2.55407 1.5623 0
M  V30 8899 H 829.738 1.22916 0.750179 0
M  V30 8900 H 831.691 1.71378 3.84977 0
M  V30 8901 H 830.415 0.654692 3.19971 0
M  V30 8902 H 829.074 2.67242 2.50952 0
M  V30 8903 H 828.722 1.63386 4.75725 0
M  V30 8904 H 828.422 3.38936 4.79996 0
M  V30 8905 H 829.946 2.73165 5.46089 0
M  V30 8906 H 831.36 4.28745 3.80593 0
M  V30 8907 H 829.757 4.95632 3.38333 0
M  V30 8908 H 830.827 4.37263 2.09592 0
M  V30 8909 N 832.17 -0.811516 1.35101 0
M  V30 8910 C 833.1 -1.9378 1.30275 0
M  V30 8911 C 834.081 -1.69165 0.178075 0
M  V30 8912 O 835.266 -1.90599 0.372256 0
M  V30 8913 C 832.396 -3.30439 1.06899 0
M  V30 8914 C 831.35 -3.69523 2.15955 0
M  V30 8915 C 830.676 -5.0429 1.77751 0
M  V30 8916 C 831.976 -3.80419 3.57881 0
M  V30 8917 H 833.67 -1.98075 2.24514 0
M  V30 8918 H 831.216 -0.951586 1.08078 0
M  V30 8919 H 833.169 -4.08828 1.02164 0
M  V30 8920 H 831.893 -3.26473 0.0910462 0
M  V30 8921 H 830.552 -2.93416 2.19778 0
M  V30 8922 H 830.2 -4.96823 0.785876 0
M  V30 8923 H 829.9 -5.31411 2.5075 0
M  V30 8924 H 831.424 -5.85125 1.74533 0
M  V30 8925 H 832.838 -4.49051 3.56407 0
M  V30 8926 H 831.235 -4.19005 4.29598 0
M  V30 8927 H 832.305 -2.82105 3.94391 0
M  V30 8928 N 833.648 -1.19017 -1.03309 0
M  V30 8929 C 834.873 -1.01598 -1.80811 0
M  V30 8930 C 835.298 0.430773 -1.83101 0
M  V30 8931 O 834.656 1.30946 -1.25391 0
M  V30 8932 C 834.704 -1.5845 -3.23923 0
M  V30 8933 O 833.808 -0.810972 -4.04348 0
M  V30 8934 H 833.149 -0.359398 -0.558327 0
M  V30 8935 H 835.679 -1.57945 -1.30055 0
M  V30 8936 H 835.689 -1.61486 -3.74682 0
M  V30 8937 H 834.364 -2.63752 -3.21571 0
M  V30 8938 H 832.941 -0.85353 -3.63 0
M  V30 8939 N 835.127 1.22348 -0.993418 0
M  V30 8940 C 836.059 2.23626 -0.502404 0
M  V30 8941 C 837.072 1.57739 0.402784 0
M  V30 8942 O 838.261 1.77321 0.204835 0
M  V30 8943 C 835.361 3.37647 0.291118 0
M  V30 8944 C 834.534 4.33121 -0.610332 0
M  V30 8945 C 833.593 5.26035 0.131572 0
M  V30 8946 O 832.619 5.67145 -0.483199 0
M  V30 8947 N 833.821 5.63023 1.41371 0
M  V30 8948 H 836.586 2.66385 -1.37329 0
M  V30 8949 H 834.147 1.36653 -0.868196 0
M  V30 8950 H 836.139 3.96792 0.796107 0
M  V30 8951 H 834.709 2.93967 1.0631 0
M  V30 8952 H 833.929 3.72287 -1.29598 0
M  V30 8953 H 835.217 4.93853 -1.22422 0
M  V30 8954 H 834.615 5.31596 1.93449 0
M  V30 8955 H 833.172 6.24582 1.86388 0
M  V30 8956 N 836.605 0.766683 1.37694 0
M  V30 8957 C 837.853 0.328065 1.9942 0
M  V30 8958 C 838.174 -1.09775 1.61166 0
M  V30 8959 O 837.444 -1.75288 0.874686 0
M  V30 8960 H 836.024 0.11831 0.737572 0
M  V30 8961 H 838.686 0.983686 1.68255 0
M  V30 8962 H 837.782 0.401647 3.09505 0
M  V30 8963 N 838.083 -1.48885 0.516809 0
M  V30 8964 C 839.323 -2.0439 -0.0202232 0
M  V30 8965 C 839.687 -1.38652 -1.32814 0
M  V30 8966 O 840.888 -1.84968 -1.95039 0
M  V30 8967 C 839.159 -3.57071 -0.153257 0
M  V30 8968 S 840.718 -4.34074 -0.642256 0
M  V30 8969 H 837.536 -0.710977 0.00576322 0
M  V30 8970 H 840.138 -1.82753 0.694376 0
M  V30 8971 H 838.842 -4.02454 0.803695 0
M  V30 8972 H 838.373 -3.83139 -0.892627 0
M  V30 8973 H 840.388 -4.58011 -1.90893 0
M  V30 8974 N 839.561 -0.251338 -1.55583 0
M  V30 8975 C 840.808 0.372169 -1.99051 0
M  V30 8976 C 841.136 1.57623 -1.13953 0
M  V30 8977 O 840.391 1.94762 -0.191398 0
M  V30 8978 C 840.69 0.821186 -3.47838 0
M  V30 8979 C 840.356 -0.275608 -4.50057 0
M  V30 8980 C 839.018 -0.57683 -4.7773 0
M  V30 8981 C 841.37 -1.01585 -5.11204 0
M  V30 8982 C 838.698 -1.62229 -5.63825 0
M  V30 8983 C 841.05 -2.05087 -5.98433 0
M  V30 8984 C 839.714 -2.35869 -6.24437 0
M  V30 8985 H 838.984 0.136186 -0.728378 0
M  V30 8986 H 841.631 -0.360089 -1.88084 0
M  V30 8987 H 839.936 1.63272 -3.56159 0
M  V30 8988 H 841.633 1.31396 -3.78861 0
M  V30 8989 H 838.223 -0.030697 -4.28589 0
M  V30 8990 H 842.407 -0.79639 -4.89869 0
M  V30 8991 H 837.663 -1.86607 -5.82226 0
M  V30 8992 H 841.837 -2.62934 -6.44855 0
M  V30 8993 H 839.464 -3.17017 -6.90944 0
M  V30 8994 N 841.039 1.57585 0.0217189 0
M  V30 8995 C 842.285 1.89887 0.712099 0
M  V30 8996 C 842.618 0.849971 1.74611 0
M  V30 8997 O 841.893 -0.13407 1.94037 0
M  V30 8998 C 842.176 3.32815 1.37499 0
M  V30 8999 C 842.029 4.48405 0.353993 0
M  V30 9000 C 843.348 3.74786 2.30703 0
M  V30 9001 H 840.467 0.690588 0.257405 0
M  V30 9002 H 843.109 1.89983 -0.0251145 0
M  V30 9003 H 841.259 3.32863 2.00335 0
M  V30 9004 H 842.931 4.60491 -0.273015 0
M  V30 9005 H 841.174 4.32573 -0.32599 0
M  V30 9006 H 841.845 5.45316 0.85644 0
M  V30 9007 H 844.321 3.76151 1.77904 0
M  V30 9008 H 843.197 4.75585 2.74061 0
M  V30 9009 H 843.458 3.07449 3.17691 0
M  V30 9010 N 842.517 -0.29412 1.54831 0
M  V30 9011 C 843.794 -1.04847 1.65126 0
M  V30 9012 C 844.174 -2.04996 0.503986 0
M  V30 9013 O 843.522 -2.22996 -0.498496 0
M  V30 9014 C 843.732 -1.72418 3.03435 0
M  V30 9015 C 845.08 -2.24362 3.60481 0
M  V30 9016 O 846.104 -1.8244 3.05932 0
M  V30 9017 O 844.963 -3.01196 4.56008 0
M  V30 9018 H 842.057 -0.485032 0.669831 0
M  V30 9019 H 844.603 -0.291659 1.67175 0
M  V30 9020 H 843.375 -0.997351 3.78376 0
M  V30 9021 H 842.998 -2.54839 3.05193 0
M  V30 9022 N 843.995 -1.47404 -0.557645 0
M  V30 9023 C 845.225 -1.57393 -1.33832 0
M  V30 9024 C 845.633 -0.222978 -1.87881 0
M  V30 9025 O 844.976 0.793854 -1.65661 0
M  V30 9026 C 845.038 -2.53882 -2.54528 0
M  V30 9027 C 844.702 -3.99585 -2.21767 0
M  V30 9028 C 845.699 -4.88082 -1.79087 0
M  V30 9029 C 843.384 -4.44917 -2.3314 0
M  V30 9030 C 845.378 -6.1993 -1.48209 0
M  V30 9031 C 843.065 -5.76793 -2.01874 0
M  V30 9032 C 844.063 -6.64121 -1.59476 0
M  V30 9033 O 843.751 -7.93546 -1.28607 0
M  V30 9034 H 843.483 -0.534172 -0.41429 0
M  V30 9035 H 846.037 -1.93733 -0.682404 0
M  V30 9036 H 844.267 -2.12609 -3.23009 0
M  V30 9037 H 845.956 -2.54003 -3.16603 0
M  V30 9038 H 846.722 -4.54307 -1.69794 0
M  V30 9039 H 842.601 -3.77152 -2.65099 0
M  V30 9040 H 846.145 -6.88049 -1.15043 0
M  V30 9041 H 842.042 -6.1011 -2.10799 0
M  V30 9042 H 842.81 -8.06046 -1.42241 0
M  V30 9043 N 845.473 0.80434 -1.35529 0
M  V30 9044 C 846.405 1.92445 -1.2449 0
M  V30 9045 C 847.418 1.61934 -0.167685 0
M  V30 9046 O 848.607 1.73461 -0.42115 0
M  V30 9047 C 845.707 3.26875 -0.894751 0
M  V30 9048 C 844.88 3.85275 -2.07079 0
M  V30 9049 C 843.939 4.98116 -1.69607 0
M  V30 9050 O 842.965 5.15424 -2.41509 0
M  V30 9051 N 844.167 5.77169 -0.621012 0
M  V30 9052 H 846.932 2.02441 -2.20993 0
M  V30 9053 H 844.493 0.981874 -1.28728 0
M  V30 9054 H 846.485 3.99837 -0.625511 0
M  V30 9055 H 845.055 3.12594 -0.0193306 0
M  V30 9056 H 844.275 3.0448 -2.5037 0
M  V30 9057 H 845.563 4.21024 -2.85685 0
M  V30 9058 H 844.961 5.65695 -0.0236679 0
M  V30 9059 H 843.518 6.50499 -0.411558 0
M  V30 9060 N 846.951 1.19563 1.02676 0
M  V30 9061 C 848.228 0.908857 1.73203 0
M  V30 9062 C 848.608 -0.584928 2.02834 0
M  V30 9063 O 847.956 -1.54372 1.68469 0
M  V30 9064 C 848.166 1.77105 3.00724 0
M  V30 9065 C 849.514 2.00667 3.7419 0
M  V30 9066 O 850.538 1.74274 3.10656 0
M  V30 9067 O 849.397 2.4518 4.88415 0
M  V30 9068 H 846.491 0.338909 0.754367 0
M  V30 9069 H 849.037 1.30387 1.08616 0
M  V30 9070 H 847.809 2.78303 2.7507 0
M  V30 9071 H 847.432 1.37546 3.73051 0
M  V30 9072 N 848.429 -1.21819 0.999893 0
M  V30 9073 C 849.845 -1.42847 0.711824 0
M  V30 9074 C 850.045 -1.88391 -0.714928 0
M  V30 9075 O 849.101 -2.0422 -1.48494 0
M  V30 9076 C 850.414 -2.46417 1.72334 0
M  V30 9077 C 851.962 -2.60207 1.73958 0
M  V30 9078 C 852.437 -3.67005 2.73992 0
M  V30 9079 N 853.928 -3.7447 2.72628 0
M  V30 9080 C 854.663 -4.56718 3.46693 0
M  V30 9081 N 854.159 -5.42904 4.3038 0
M  V30 9082 N 855.952 -4.51094 3.35366 0
M  V30 9083 H 848.103 -0.905656 1.92124 0
M  V30 9084 H 850.366 -0.459893 0.828977 0
M  V30 9085 H 850.072 -2.19914 2.74465 0
M  V30 9086 H 849.946 -3.45137 1.52186 0
M  V30 9087 H 852.333 -2.8605 0.725217 0
M  V30 9088 H 852.414 -1.61739 1.98177 0
M  V30 9089 H 852.058 -3.41908 3.75582 0
M  V30 9090 H 851.988 -4.65058 2.4704 0
M  V30 9091 H 854.479 -3.12895 2.11909 0
M  V30 9092 H 854.792 -6.02704 4.83702 0
M  V30 9093 H 853.137 -5.42463 4.34464 0
M  V30 9094 H 856.328 -3.82791 2.69423 0
M  V30 9095 H 856.501 -5.1496 3.93344 0
M  V30 9096 N 849.908 -0.773975 -1.37286 0
M  V30 9097 C 850.858 -0.135245 -2.27599 0
M  V30 9098 C 851.842 0.671691 -1.46209 0
M  V30 9099 O 853.034 0.534299 -1.68743 0
M  V30 9100 C 850.163 0.741298 -3.35201 0
M  V30 9101 C 849.249 -0.0735896 -4.24036 0
M  V30 9102 N 849.64 -1.12035 -4.93236 0
M  V30 9103 C 847.938 0.150038 -4.45748 0
M  V30 9104 C 848.639 -1.61512 -5.58828 0
M  V30 9105 N 847.615 -0.926922 -5.35639 0
M  V30 9106 H 851.417 -0.936646 -2.78575 0
M  V30 9107 H 848.931 -0.611944 -1.50429 0
M  V30 9108 H 850.928 1.21468 -3.98812 0
M  V30 9109 H 849.588 1.54142 -2.8578 0
M  V30 9110 H 850.599 -1.50253 -4.95625 0
M  V30 9111 H 847.276 0.921891 -4.07195 0
M  V30 9112 H 848.666 -2.48818 -6.24131 0
M  V30 9113 N 851.386 1.48609 -0.524698 0
M  V30 9114 C 852.634 2.02097 0.0112991 0
M  V30 9115 C 852.955 1.40455 1.35268 0
M  V30 9116 O 852.225 0.56807 1.87483 0
M  V30 9117 H 850.805 0.746966 0.00716426 0
M  V30 9118 H 853.467 1.82378 -0.687329 0
M  V30 9119 H 852.563 3.11855 0.123531 0
M  V30 9120 N 852.864 0.259585 1.55447 0
M  V30 9121 C 853.812 -0.6507 2.23313 0
M  V30 9122 C 854.806 -1.17014 1.22491 0
M  V30 9123 O 856.012 -1.12557 1.40467 0
M  V30 9124 H 852.387 -0.228354 0.71649 0
M  V30 9125 H 854.358 -0.0553039 2.98349 0
M  V30 9126 C 853.107 -1.83081 2.95596 0
M  V30 9127 H 852.43 -1.44027 3.72956 0
M  V30 9128 H 853.87 -2.44469 3.46426 0
M  V30 9129 C 852.329 -2.70976 2.00184 0
M  V30 9130 O 852.859 -3.70882 1.54304 0
M  V30 9131 N 851.065 -2.37813 1.67014 0
M  V30 9132 H 850.612 -1.5662 2.04519 0
M  V30 9133 H 850.57 -2.96896 1.03443 0
M  V30 9134 N 854.342 -1.57594 -0.0133615 0
M  V30 9135 C 855.57 -1.94251 -0.712328 0
M  V30 9136 C 855.985 -0.86063 -1.68043 0
M  V30 9137 O 855.342 0.161632 -1.81783 0
M  V30 9138 C 855.393 -3.30891 -1.45581 0
M  V30 9139 O 855.114 -4.34924 -0.526539 0
M  V30 9140 C 856.615 -3.81926 -2.2505 0
M  V30 9141 H 853.835 -0.640737 -0.199241 0
M  V30 9142 H 856.379 -2.04472 0.0337855 0
M  V30 9143 H 854.534 -3.22019 -2.15366 0
M  V30 9144 H 854.948 -5.1389 -1.04962 0
M  V30 9145 H 856.422 -4.79999 -2.72589 0
M  V30 9146 H 856.899 -3.13934 -3.07152 0
M  V30 9147 H 857.505 -3.93931 -1.60308 0
M  V30 9148 N 855.82 0.285905 -1.54985 0
M  V30 9149 C 857.231 0.857869 -1.65824 0
M  V30 9150 C 857.582 1.87531 -0.576763 0
M  V30 9151 O 856.707 2.14528 0.284016 0
M  V30 9152 C 857.302 1.56277 -3.00604 0
M  V30 9153 C 855.861 2.08294 -3.13513 0
M  V30 9154 C 855.008 0.920633 -2.61571 0
M  V30 9155 H 857.959 0.0625463 -1.58577 0
M  V30 9156 H 857.98 2.42912 -2.92872 0
M  V30 9157 H 857.492 0.822017 -3.79295 0
M  V30 9158 H 855.593 2.8537 -2.39572 0
M  V30 9159 H 855.706 2.3071 -4.19892 0
M  V30 9160 H 854.07 1.31043 -2.18403 0
M  V30 9161 H 854.853 0.193594 -3.42754 0
M  V30 9162 N 857.298 1.47698 0.54982 0
M  V30 9163 C 858.228 1.63622 1.66583 0
M  V30 9164 C 859.209 0.485477 1.63025 0
M  V30 9165 O 860.394 0.715692 1.80531 0
M  V30 9166 C 857.524 1.65721 3.05211 0
M  V30 9167 C 856.478 2.80097 3.2362 0
M  V30 9168 C 855.804 2.67272 4.63109 0
M  V30 9169 C 857.104 4.21612 3.08286 0
M  V30 9170 H 858.798 2.57049 1.53512 0
M  V30 9171 H 856.344 1.23705 0.737099 0
M  V30 9172 H 858.297 1.75451 3.83138 0
M  V30 9173 H 857.021 0.688593 3.19258 0
M  V30 9174 H 855.68 2.69889 2.48104 0
M  V30 9175 H 855.328 1.68422 4.73965 0
M  V30 9176 H 855.028 3.44008 4.76374 0
M  V30 9177 H 856.552 2.78942 5.43161 0
M  V30 9178 H 857.966 4.32758 3.76024 0
M  V30 9179 H 856.363 4.99193 3.33057 0
M  V30 9180 H 857.433 4.39462 2.04942 0
M  V30 9181 N 858.776 -0.797141 1.35954 0
M  V30 9182 C 859.726 -1.89899 1.26184 0
M  V30 9183 C 860.71 -1.60152 0.155007 0
M  V30 9184 O 861.902 -1.72715 0.387108 0
M  V30 9185 C 859.031 -3.2699 1.04559 0
M  V30 9186 C 858.117 -3.62772 2.19675 0
M  V30 9187 N 858.508 -3.6992 3.44953 0
M  V30 9188 C 856.806 -3.92786 2.1127 0
M  V30 9189 C 857.507 -4.01718 4.20711 0
M  V30 9190 N 856.483 -4.16298 3.49567 0
M  V30 9191 H 860.285 -1.9364 2.2109 0
M  V30 9192 H 857.799 -0.992246 1.28562 0
M  V30 9193 H 859.796 -4.0578 0.956474 0
M  V30 9194 H 858.456 -3.24529 0.105467 0
M  V30 9195 H 859.467 -3.52759 3.79185 0
M  V30 9196 H 856.144 -3.98295 1.25168 0
M  V30 9197 H 857.534 -4.14237 5.29016 0
M  V30 9198 N 860.254 -1.20106 -1.0204 0
M  V30 9199 C 861.5 -1.01039 -1.75838 0
M  V30 9200 C 861.833 0.456819 -1.88751 0
M  V30 9201 O 861.108 1.33919 -1.41053 0
M  V30 9202 C 861.391 -1.69009 -3.17975 0
M  V30 9203 C 861.244 -3.2315 -3.1288 0
M  V30 9204 C 862.563 -1.42005 -4.16561 0
M  V30 9205 H 859.682 -0.368465 -0.638281 0
M  V30 9206 H 862.324 -1.48066 -1.19064 0
M  V30 9207 H 860.474 -1.29026 -3.66449 0
M  V30 9208 H 862.146 -3.72402 -2.72239 0
M  V30 9209 H 860.389 -3.54253 -2.50374 0
M  V30 9210 H 861.06 -3.65862 -4.13339 0
M  V30 9211 H 863.536 -1.76685 -3.76725 0
M  V30 9212 H 862.412 -1.92101 -5.14187 0
M  V30 9213 H 862.673 -0.346884 -4.40737 0
M  V30 9214 N 861.732 1.21287 -1.00634 0
M  V30 9215 C 862.695 2.21927 -0.572821 0
M  V30 9216 C 863.695 1.5691 0.351541 0
M  V30 9217 O 864.885 1.73623 0.141643 0
M  V30 9218 C 862.017 3.40501 0.164932 0
M  V30 9219 H 863.21 2.61795 -1.463 0
M  V30 9220 H 860.763 1.34571 -0.794998 0
M  V30 9221 H 861.498 3.06123 1.07049 0
M  V30 9222 H 861.283 3.88912 -0.498962 0
M  V30 9223 H 862.773 4.15103 0.455945 0
M  V30 9224 N 863.21 0.781244 1.36873 0
M  V30 9225 C 864.45 0.355185 2.0129 0
M  V30 9226 C 864.814 -1.05115 1.6067 0
M  V30 9227 O 866.015 -1.57785 2.17618 0
M  V30 9228 C 864.286 0.504587 3.5382 0
M  V30 9229 S 865.845 0.165196 4.38489 0
M  V30 9230 H 862.663 0.136133 0.697846 0
M  V30 9231 H 865.265 1.01794 1.66908 0
M  V30 9232 H 863.969 1.52857 3.80871 0
M  V30 9233 H 863.5 -0.174392 3.93013 0
M  V30 9234 H 865.515 -1.03605 4.85263 0
M  V30 9235 N 864.689 -1.48329 0.532571 0
M  V30 9236 C 865.636 -2.29663 -0.228779 0
M  V30 9237 C 866.606 -1.37529 -0.931401 0
M  V30 9238 O 867.791 -1.66493 -0.931921 0
M  V30 9239 C 864.931 -3.20955 -1.26814 0
M  V30 9240 C 864.044 -4.28168 -0.574099 0
M  V30 9241 C 863.179 -5.06638 -1.59661 0
M  V30 9242 C 862.218 -6.05651 -0.88618 0
M  V30 9243 N 861.355 -6.77169 -1.85436 0
M  V30 9244 H 866.195 -2.94255 0.47098 0
M  V30 9245 H 863.732 -1.45061 0.2441 0
M  V30 9246 H 865.69 -3.72285 -1.88307 0
M  V30 9247 H 864.32 -2.58281 -1.93625 0
M  V30 9248 H 863.372 -3.80085 0.154827 0
M  V30 9249 H 864.684 -4.98797 -0.0163984 0
M  V30 9250 H 863.838 -5.61995 -2.28576 0
M  V30 9251 H 862.577 -4.35854 -2.18821 0
M  V30 9252 H 861.582 -5.49495 -0.182981 0
M  V30 9253 H 862.807 -6.78434 -0.300659 0
M  V30 9254 H 860.753 -6.09134 -2.43499 0
M  V30 9255 H 860.67 -7.43882 -1.34816 0
M  V30 9256 H 861.938 -7.37114 -2.53541 0
M  V30 9257 N 866.167 -0.267825 -1.55308 0
M  V30 9258 C 867.444 0.402449 -1.91415 0
M  V30 9259 C 867.824 1.7428 -1.1912 0
M  V30 9260 O 867.172 2.2631 -0.315609 0
M  V30 9261 C 867.382 0.549926 -3.4464 0
M  V30 9262 C 868.73 0.836188 -4.16285 0
M  V30 9263 O 869.754 0.635009 -3.50494 0
M  V30 9264 O 868.613 1.22051 -5.32697 0
M  V30 9265 H 865.707 0.219177 -0.797427 0
M  V30 9266 H 868.253 -0.313439 -1.6678 0
M  V30 9267 H 867.025 -0.393641 -3.89315 0
M  V30 9268 H 866.648 1.31556 -3.75205 0
M  V30 9269 N 867.645 1.57599 0.00500368 0
M  V30 9270 C 868.893 1.89973 0.68953 0
M  V30 9271 C 869.214 0.868531 1.7459 0
M  V30 9272 O 868.484 -0.0947367 1.95671 0
M  V30 9273 H 867.064 0.701153 0.25767 0
M  V30 9274 H 869.726 1.94869 -0.0347392 0
M  V30 9275 H 868.822 2.89584 1.16394 0
M  V30 9276 N 869.123 -0.277682 1.55134 0
M  V30 9277 C 870.071 -1.36305 1.88478 0
M  V30 9278 C 871.065 -1.51362 0.760654 0
M  V30 9279 O 872.271 -1.53202 0.944943 0
M  V30 9280 H 868.646 -0.45577 0.598146 0
M  V30 9281 H 870.617 -1.05431 2.79154 0
M  V30 9282 C 869.366 -2.71739 2.16918 0
M  V30 9283 H 868.689 -2.60942 3.02901 0
M  V30 9284 H 870.129 -3.46635 2.44172 0
M  V30 9285 C 868.588 -3.22476 0.975239 0
M  V30 9286 O 869.118 -4.01164 0.207497 0
M  V30 9287 N 867.324 -2.80097 0.774219 0
M  V30 9288 H 866.871 -2.16221 1.40022 0
M  V30 9289 H 866.829 -3.14392 -0.023021 0
M  V30 9290 N 870.601 -1.47988 -0.541979 0
M  V30 9291 C 871.534 -1.56172 -1.66389 0
M  V30 9292 C 872.512 -0.412879 -1.57271 0
M  V30 9293 O 873.696 -0.622816 -1.77914 0
M  V30 9294 C 870.823 -1.47851 -3.04726 0
M  V30 9295 C 869.869 -2.67428 -3.32242 0
M  V30 9296 S 870.702 -4.29502 -3.19825 0
M  V30 9297 C 871.858 -4.2376 -4.60628 0
M  V30 9298 H 872.091 -2.51086 -1.59195 0
M  V30 9299 H 869.624 -1.36373 -0.724005 0
M  V30 9300 H 871.582 -1.43738 -3.84512 0
M  V30 9301 H 870.243 -0.542958 -3.09372 0
M  V30 9302 H 869.436 -2.57711 -4.33129 0
M  V30 9303 H 869.038 -2.68743 -2.60103 0
M  V30 9304 H 871.33 -3.92953 -5.51901 0
M  V30 9305 H 872.273 -5.24786 -4.75401 0
M  V30 9306 H 872.681 -3.54398 -4.39389 0
M  V30 9307 N 872.079 0.78992 -1.36375 0
M  V30 9308 C 873.49 1.36506 -1.2737 0
M  V30 9309 C 873.841 1.96008 0.086711 0
M  V30 9310 O 872.966 1.92521 0.988159 0
M  V30 9311 C 873.561 2.48175 -2.30639 0
M  V30 9312 C 872.12 3.01506 -2.25325 0
M  V30 9313 C 871.267 1.74581 -2.15445 0
M  V30 9314 H 874.218 0.591606 -1.47261 0
M  V30 9315 H 874.239 3.27179 -1.94253 0
M  V30 9316 H 873.751 2.04838 -3.2964 0
M  V30 9317 H 871.852 3.49265 -1.29788 0
M  V30 9318 H 871.965 3.58355 -3.17992 0
M  V30 9319 H 870.329 1.96794 -1.61692 0
M  V30 9320 H 871.112 1.33373 -3.16333 0
M  V30 9321 N 873.557 1.20646 1.01402 0
M  V30 9322 C 874.806 1.01242 1.7445 0
M  V30 9323 C 875.119 -0.455732 1.90217 0
M  V30 9324 O 876.325 -0.768951 2.60383 0
M  V30 9325 C 874.781 1.76275 3.13776 0
M  V30 9326 C 874.389 3.27201 3.06013 0
M  V30 9327 C 876.133 1.65248 3.91016 0
M  V30 9328 C 874.04 3.9476 4.40362 0
M  V30 9329 H 872.97 0.375202 0.654018 0
M  V30 9330 H 875.621 1.44292 1.13367 0
M  V30 9331 H 874.003 1.26013 3.75415 0
M  V30 9332 H 875.177 3.84695 2.53665 0
M  V30 9333 H 873.492 3.38669 2.42265 0
M  V30 9334 H 876.089 2.13061 4.90417 0
M  V30 9335 H 876.432 0.609128 4.1182 0
M  V30 9336 H 876.965 2.12937 3.3601 0
M  V30 9337 H 873.704 4.99258 4.24761 0
M  V30 9338 H 873.224 3.42054 4.92706 0
M  V30 9339 H 874.903 3.99159 5.09196 0
M  V30 9340 N 875.035 -1.20752 1.01276 0
M  V30 9341 C 876.281 -1.90302 0.700924 0
M  V30 9342 C 876.614 -1.78406 -0.767142 0
M  V30 9343 O 875.889 -1.16575 -1.55694 0
M  V30 9344 C 876.172 -3.41831 1.13242 0
M  V30 9345 C 876.025 -3.6268 2.66051 0
M  V30 9346 C 877.344 -4.34486 0.700738 0
M  V30 9347 H 874.463 -0.69107 0.256107 0
M  V30 9348 H 877.105 -1.42227 1.25982 0
M  V30 9349 H 875.255 -3.82906 0.656902 0
M  V30 9350 H 876.927 -3.30882 3.21426 0
M  V30 9351 H 875.17 -3.06281 3.07204 0
M  V30 9352 H 875.841 -4.68882 2.91296 0
M  V30 9353 H 878.317 -4.01036 1.10948 0
M  V30 9354 H 877.193 -5.39136 1.03073 0
M  V30 9355 H 877.454 -4.40307 -0.39778 0
M  V30 9356 N 876.513 -0.788492 -1.36457 0
M  V30 9357 C 877.759 -0.360995 -1.99561 0
M  V30 9358 C 878.092 1.06433 -1.62437 0
M  V30 9359 O 877.367 1.7352 -0.878705 0
M  V30 9360 C 877.65 -0.523735 -3.56271 0
M  V30 9361 C 877.503 -1.99268 -4.03252 0
M  V30 9362 C 878.822 0.0617908 -4.40057 0
M  V30 9363 H 875.941 -0.13264 -0.724966 0
M  V30 9364 H 878.583 -0.994659 -1.61884 0
M  V30 9365 H 876.733 0.0156979 -3.88497 0
M  V30 9366 H 878.405 -2.59311 -3.81518 0
M  V30 9367 H 876.648 -2.49561 -3.54826 0
M  V30 9368 H 877.319 -2.05752 -5.12221 0
M  V30 9369 H 879.795 -0.398674 -4.14186 0
M  V30 9370 H 878.671 -0.0821089 -5.48839 0
M  V30 9371 H 878.932 1.15381 -4.26778 0
M  V30 9372 N 877.991 1.48044 -0.54043 0
M  V30 9373 C 878.954 2.28273 0.205966 0
M  V30 9374 C 879.954 1.35983 0.858209 0
M  V30 9375 O 881.144 1.58776 0.716651 0
M  V30 9376 C 878.276 3.15174 1.29917 0
M  V30 9377 H 879.469 2.95727 -0.498555 0
M  V30 9378 H 877.022 1.53457 -0.296745 0
M  V30 9379 H 877.757 2.52374 2.03661 0
M  V30 9380 H 877.542 3.83074 0.836475 0
M  V30 9381 H 879.032 3.75666 1.82387 0
M  V30 9382 N 879.47 0.276058 1.55163 0
M  V30 9383 C 880.4 -0.604633 2.25536 0
M  V30 9384 C 881.381 -1.15813 1.24585 0
M  V30 9385 O 882.566 -1.1921 1.53306 0
M  V30 9386 C 879.696 -1.78836 2.97716 0
M  V30 9387 C 878.65 -1.36635 4.05604 0
M  V30 9388 C 877.976 -2.63325 4.65364 0
M  V30 9389 C 879.276 -0.515858 5.19746 0
M  V30 9390 H 880.97 -0.0177483 2.99395 0
M  V30 9391 H 878.516 -0.00709627 1.43998 0
M  V30 9392 H 880.469 -2.41036 3.45658 0
M  V30 9393 H 879.193 -2.40109 2.21394 0
M  V30 9394 H 877.852 -0.767541 3.58475 0
M  V30 9395 H 877.5 -3.22858 3.85709 0
M  V30 9396 H 877.2 -2.358 5.38212 0
M  V30 9397 H 878.724 -3.26372 5.16056 0
M  V30 9398 H 880.138 -1.04289 5.63735 0
M  V30 9399 H 878.535 -0.335449 5.99162 0
M  V30 9400 H 879.605 0.465137 4.82664 0
M  V30 9401 N 880.948 -1.576 0.00335426 0
M  V30 9402 C 882.188 -1.92571 -0.685253 0
M  V30 9403 C 882.552 -0.877961 -1.70751 0
M  V30 9404 O 883.753 -1.11303 -2.44673 0
M  V30 9405 C 882.024 -3.3258 -1.30863 0
M  V30 9406 S 883.583 -3.89442 -2.02189 0
M  V30 9407 H 880.401 -0.674035 -0.226268 0
M  V30 9408 H 883.003 -1.95405 0.0608461 0
M  V30 9409 H 881.707 -4.06673 -0.551837 0
M  V30 9410 H 881.238 -3.33128 -2.09259 0
M  V30 9411 H 883.253 -3.70789 -3.29742 0
M  V30 9412 N 882.426 0.269451 -1.5528 0
M  V30 9413 C 883.336 1.35511 -1.91505 0
M  V30 9414 C 884.352 1.53854 -0.812712 0
M  V30 9415 O 885.528 1.67912 -1.1121 0
M  V30 9416 C 882.593 2.6937 -2.18267 0
M  V30 9417 C 881.654 2.59743 -3.41807 0
M  V30 9418 C 880.887 3.87219 -3.67283 0
M  V30 9419 O 881.11 4.88066 -2.95208 0
M  V30 9420 O 880.044 3.87209 -4.60818 0
M  V30 9421 H 883.87 1.07785 -2.8393 0
M  V30 9422 H 881.455 0.468282 -1.41871 0
M  V30 9423 H 883.337 3.48513 -2.36889 0
M  V30 9424 H 882.012 2.96874 -1.29024 0
M  V30 9425 H 880.919 1.78964 -3.28516 0
M  V30 9426 H 882.252 2.37188 -4.3128 0
M  V30 9427 N 883.904 1.48273 0.534124 0
M  V30 9428 C 884.867 1.6201 1.62127 0
M  V30 9429 C 885.867 0.493653 1.53035 0
M  V30 9430 O 887.057 0.759337 1.56779 0
M  V30 9431 C 884.189 1.5864 3.01739 0
M  V30 9432 H 885.382 2.58944 1.51288 0
M  V30 9433 H 882.935 1.36808 0.755861 0
M  V30 9434 H 883.67 0.631685 3.18088 0
M  V30 9435 H 883.455 2.40415 3.09747 0
M  V30 9436 H 884.945 1.71438 3.80787 0
M  V30 9437 N 885.382 -0.782676 1.36792 0
M  V30 9438 C 886.33 -1.91698 1.31737 0
M  V30 9439 C 887.324 -1.68118 0.207994 0
M  V30 9440 O 888.53 -1.76042 0.375393 0
M  V30 9441 H 884.905 -0.630215 0.410284 0
M  V30 9442 H 886.876 -1.93078 2.27516 0
M  V30 9443 C 885.625 -3.28816 1.13029 0
M  V30 9444 H 884.948 -3.4753 1.97643 0
M  V30 9445 H 886.388 -4.08515 1.13541 0
M  V30 9446 C 884.847 -3.36497 -0.1647 0
M  V30 9447 O 885.377 -3.84822 -1.15216 0
M  V30 9448 N 883.583 -2.89828 -0.211678 0
M  V30 9449 H 883.13 -2.50693 0.59252 0
M  V30 9450 H 883.088 -2.95349 -1.07779 0
M  V30 9451 N 886.86 -1.21182 -1.00761 0
M  V30 9452 C 888.1 -1.03886 -1.76031 0
M  V30 9453 C 888.464 0.420593 -1.87337 0
M  V30 9454 O 889.665 0.713994 -2.59144 0
M  V30 9455 C 887.936 -1.71394 -3.13622 0
M  V30 9456 S 889.495 -1.69319 -4.04816 0
M  V30 9457 H 886.313 -0.372327 -0.605717 0
M  V30 9458 H 888.915 -1.53885 -1.20581 0
M  V30 9459 H 887.619 -2.76773 -3.03026 0
M  V30 9460 H 887.15 -1.21564 -3.74147 0
M  V30 9461 H 889.165 -0.732434 -4.90765 0
M  V30 9462 N 888.338 1.20213 -1.01915 0
M  V30 9463 C 889.286 2.25125 -0.584936 0
M  V30 9464 C 890.28 1.65138 0.377602 0
M  V30 9465 O 891.486 1.78294 0.247245 0
M  V30 9466 H 887.861 0.732333 -0.170858 0
M  V30 9467 H 889.832 2.59075 -1.48063 0
M  V30 9468 C 888.581 3.47651 0.058389 0
M  V30 9469 H 887.904 3.9409 -0.673263 0
M  V30 9470 H 889.344 4.2275 0.325285 0
M  V30 9471 C 887.803 3.10725 1.30199 0
M  V30 9472 O 888.333 3.22491 2.39505 0
M  V30 9473 N 886.539 2.6525 1.18706 0
M  V30 9474 H 886.086 2.55875 0.297618 0
M  V30 9475 H 886.044 2.40913 2.02011 0
M  V30 9476 N 889.816 0.795718 1.36037 0
M  V30 9477 C 890.746 0.212803 2.32528 0
M  V30 9478 C 891.727 -0.655716 1.56953 0
M  V30 9479 O 892.912 -0.588238 1.85077 0
M  V30 9480 C 890.042 -0.648189 3.41198 0
M  V30 9481 C 888.996 0.120948 4.27829 0
M  V30 9482 C 888.322 -0.861044 5.27722 0
M  V30 9483 C 889.622 1.31375 5.05508 0
M  V30 9484 H 891.316 1.01893 2.81528 0
M  V30 9485 H 888.862 0.491422 1.35355 0
M  V30 9486 H 890.815 -1.06597 4.07695 0
M  V30 9487 H 889.539 -1.48709 2.9078 0
M  V30 9488 H 888.198 0.519777 3.62897 0
M  V30 9489 H 887.846 -1.69515 4.73575 0
M  V30 9490 H 887.546 -0.350808 5.86552 0
M  V30 9491 H 889.07 -1.27726 5.97092 0
M  V30 9492 H 890.484 0.971406 5.6501 0
M  V30 9493 H 888.881 1.75772 5.73781 0
M  V30 9494 H 889.951 2.10593 4.36782 0
M  V30 9495 N 891.294 -1.47756 0.548274 0
M  V30 9496 C 892.571 -1.9555 -0.0443603 0
M  V30 9497 C 892.951 -1.49079 -1.49462 0
M  V30 9498 O 892.299 -0.725538 -2.16675 0
M  V30 9499 C 892.509 -3.48879 0.0918425 0
M  V30 9500 C 893.857 -4.2456 -0.0580879 0
M  V30 9501 O 894.881 -3.56195 0.018946 0
M  V30 9502 O 893.74 -5.46048 -0.222261 0
M  V30 9503 H 890.834 -0.824106 -0.0691235 0
M  V30 9504 H 893.38 -1.58196 0.614166 0
M  V30 9505 H 892.152 -3.7548 1.10137 0
M  V30 9506 H 891.775 -3.92975 -0.604704 0
M  V30 9507 N 892.772 -0.284283 -1.55015 0
M  V30 9508 C 894.021 0.33055 -1.98973 0
M  V30 9509 C 894.334 1.56284 -1.17621 0
M  V30 9510 O 895.54 2.2512 -1.51767 0
M  V30 9511 C 893.996 0.639457 -3.54174 0
M  V30 9512 C 893.604 -0.573543 -4.44313 0
M  V30 9513 C 895.348 1.21641 -4.06699 0
M  V30 9514 C 893.255 -0.238715 -5.90918 0
M  V30 9515 H 892.185 0.127285 -0.743179 0
M  V30 9516 H 894.836 -0.390372 -1.793 0
M  V30 9517 H 893.218 1.41953 -3.69683 0
M  V30 9518 H 894.392 -1.3502 -4.40575 0
M  V30 9519 H 892.707 -1.06797 -4.02472 0
M  V30 9520 H 895.304 1.48088 -5.13784 0
M  V30 9521 H 895.647 2.15328 -3.56286 0
M  V30 9522 H 896.18 0.498422 -3.94665 0
M  V30 9523 H 892.919 -1.1437 -6.45445 0
M  V30 9524 H 892.439 0.500997 -5.97704 0
M  V30 9525 H 894.118 0.165774 -6.46788 0
M  V30 9526 N 894.251 1.57596 -0.0117121 0
M  V30 9527 C 895.476 1.95764 0.684938 0
M  V30 9528 C 895.901 0.887285 1.65858 0
M  V30 9529 O 895.259 -0.153508 1.80649 0
M  V30 9530 C 895.307 3.33031 1.38285 0
M  V30 9531 O 894.411 3.28163 2.49765 0
M  V30 9532 H 893.752 0.638767 0.181309 0
M  V30 9533 H 896.282 2.04486 -0.0683883 0
M  V30 9534 H 896.292 3.68866 1.74362 0
M  V30 9535 H 894.967 4.10483 0.669043 0
M  V30 9536 H 893.544 3.04021 2.15929 0
M  V30 9537 N 895.729 -0.261212 1.5542 0
M  V30 9538 C 896.677 -1.34298 1.89913 0
M  V30 9539 C 897.671 -1.50547 0.776665 0
M  V30 9540 O 898.877 -1.52191 0.961139 0
M  V30 9541 H 895.252 -0.4494 0.602946 0
M  V30 9542 H 897.223 -1.02464 2.80256 0
M  V30 9543 C 895.972 -2.69423 2.19788 0
M  V30 9544 H 895.295 -2.57715 3.05652 0
M  V30 9545 H 896.735 -3.44026 2.47835 0
M  V30 9546 C 895.194 -3.21423 1.00939 0
M  V30 9547 O 895.724 -4.00921 0.250034 0
M  V30 9548 N 893.93 -2.7926 0.803883 0
M  V30 9549 H 893.477 -2.14724 1.42308 0
M  V30 9550 H 893.435 -3.14398 0.0103257 0
M  V30 9551 N 897.207 -1.48554 -0.526253 0
M  V30 9552 C 898.154 -1.63354 -1.63046 0
M  V30 9553 C 899.124 -0.475509 -1.59148 0
M  V30 9554 O 900.309 -0.699453 -1.77517 0
M  V30 9555 C 897.449 -1.68271 -3.01295 0
M  V30 9556 C 896.562 -2.95207 -3.15399 0
M  V30 9557 C 895.697 -2.91262 -4.4423 0
M  V30 9558 C 894.736 -4.12886 -4.51876 0
M  V30 9559 N 893.873 -4.06996 -5.721 0
M  V30 9560 H 898.713 -2.57649 -1.49737 0
M  V30 9561 H 896.25 -1.27769 -0.728938 0
M  V30 9562 H 898.208 -1.69104 -3.81392 0
M  V30 9563 H 896.838 -0.774641 -3.13367 0
M  V30 9564 H 895.89 -3.04102 -2.2853 0
M  V30 9565 H 897.202 -3.85187 -3.1691 0
M  V30 9566 H 896.356 -2.90516 -5.32621 0
M  V30 9567 H 895.095 -1.99016 -4.45246 0
M  V30 9568 H 894.1 -4.13902 -3.61891 0
M  V30 9569 H 895.325 -5.06294 -4.52596 0
M  V30 9570 H 893.271 -3.17573 -5.74006 0
M  V30 9571 H 893.188 -4.90685 -5.75121 0
M  V30 9572 H 894.456 -4.10315 -6.62768 0
M  V30 9573 N 898.685 0.775411 -1.37205 0
M  V30 9574 C 899.915 1.56219 -1.352 0
M  V30 9575 C 900.323 1.89087 0.065456 0
M  V30 9576 O 899.666 1.51655 1.03665 0
M  V30 9577 C 899.728 2.9019 -2.12203 0
M  V30 9578 C 899.392 2.79978 -3.61195 0
M  V30 9579 C 900.389 2.51258 -4.55154 0
M  V30 9580 C 898.074 2.98115 -4.04268 0
M  V30 9581 C 900.068 2.40798 -5.90165 0
M  V30 9582 C 897.755 2.87276 -5.39366 0
M  V30 9583 C 898.753 2.58657 -6.32128 0
M  V30 9584 O 898.441 2.47838 -7.64743 0
M  V30 9585 H 898.173 0.490735 -0.464925 0
M  V30 9586 H 900.727 0.969201 -1.81096 0
M  V30 9587 H 898.957 3.51594 -1.60992 0
M  V30 9588 H 900.646 3.51561 -2.02879 0
M  V30 9589 H 901.412 2.36935 -4.23186 0
M  V30 9590 H 897.291 3.19392 -3.3243 0
M  V30 9591 H 900.835 2.18381 -6.62537 0
M  V30 9592 H 896.732 3.01166 -5.70937 0
M  V30 9593 H 897.5 2.63215 -7.75023 0
M  V30 9594 N 900.163 1.21714 1.00117 0
M  V30 9595 C 901.411 1.03465 1.73607 0
M  V30 9596 C 901.732 -0.432295 1.90148 0
M  V30 9597 O 901.002 -1.31157 1.45515 0
M  V30 9598 H 899.582 0.379857 0.643209 0
M  V30 9599 H 902.244 1.53088 1.20624 0
M  V30 9600 H 901.34 1.50574 2.73375 0
M  V30 9601 N 901.641 -1.19671 1.02551 0
M  V30 9602 C 903.057 -1.41305 0.741963 0
M  V30 9603 C 903.257 -1.89865 -0.674807 0
M  V30 9604 O 902.313 -2.07323 -1.44129 0
M  V30 9605 C 903.626 -2.42706 1.77522 0
M  V30 9606 C 905.174 -2.56458 1.79438 0
M  V30 9607 C 905.649 -3.61111 2.81715 0
M  V30 9608 N 907.14 -3.68603 2.8051 0
M  V30 9609 C 907.875 -4.49262 3.56302 0
M  V30 9610 N 907.371 -5.33653 4.41799 0
M  V30 9611 N 909.164 -4.43879 3.44859 0
M  V30 9612 H 901.315 -0.8647 1.94002 0
M  V30 9613 H 903.578 -0.442206 0.838545 0
M  V30 9614 H 903.284 -2.14042 2.79068 0
M  V30 9615 H 903.158 -3.41831 1.59472 0
M  V30 9616 H 905.545 -2.84447 0.78573 0
M  V30 9617 H 905.626 -1.57499 2.01563 0
M  V30 9618 H 905.27 -3.33864 3.82749 0
M  V30 9619 H 905.2 -4.59713 2.56849 0
M  V30 9620 H 907.691 -3.08329 2.18498 0
M  V30 9621 H 908.004 -5.92308 4.96378 0
M  V30 9622 H 906.349 -5.33125 4.45873 0
M  V30 9623 H 909.54 -3.7699 2.77482 0
M  V30 9624 H 909.713 -5.06501 4.04179 0
M  V30 9625 N 903.119 -0.802921 -1.35613 0
M  V30 9626 C 904.347 -0.39393 -2.03115 0
M  V30 9627 C 904.762 0.993961 -1.60517 0
M  V30 9628 O 904.119 1.63984 -0.800973 0
M  V30 9629 C 904.17 -0.463486 -3.58516 0
M  V30 9630 O 903.891 -1.79666 -3.99565 0
M  V30 9631 C 905.392 -0.0468377 -4.43275 0
M  V30 9632 H 902.612 -0.160519 -0.651517 0
M  V30 9633 H 905.156 -1.08552 -1.73311 0
M  V30 9634 H 903.311 0.179821 -3.86982 0
M  V30 9635 H 903.725 -1.75688 -4.942 0
M  V30 9636 H 905.199 -0.146626 -5.51805 0
M  V30 9637 H 905.676 1.00741 -4.2749 0
M  V30 9638 H 906.282 -0.663158 -4.20098 0
M  V30 9639 N 904.597 1.47463 -0.556102 0
M  V30 9640 C 906.008 1.86298 -0.122429 0
M  V30 9641 C 906.359 1.46285 1.30749 0
M  V30 9642 O 905.484 0.865405 1.98342 0
M  V30 9643 C 906.079 3.38115 -0.215407 0
M  V30 9644 C 904.638 3.76046 0.163223 0
M  V30 9645 C 903.785 2.71515 -0.563466 0
M  V30 9646 H 906.736 1.38996 -0.765888 0
M  V30 9647 H 906.757 3.76263 0.566271 0
M  V30 9648 H 906.269 3.67207 -1.25622 0
M  V30 9649 H 904.37 3.5257 1.20519 0
M  V30 9650 H 904.483 4.78705 -0.194568 0
M  V30 9651 H 902.847 2.54699 -0.00667879 0
M  V30 9652 H 903.63 3.03449 -1.60542 0
M  V30 9653 N 906.075 0.2925 1.54862 0
M  V30 9654 C 907.005 -0.580677 2.26165 0
M  V30 9655 C 907.986 -1.14485 1.25806 0
M  V30 9656 O 909.171 -1.17577 1.54562 0
M  V30 9657 C 906.301 -1.75668 2.99596 0
M  V30 9658 C 905.255 -1.32325 4.07031 0
M  V30 9659 C 904.581 -2.58374 4.68131 0
M  V30 9660 C 905.881 -0.460703 5.20264 0
M  V30 9661 H 907.575 0.0140075 2.99397 0
M  V30 9662 H 905.121 0.00817706 1.43998 0
M  V30 9663 H 907.074 -2.37356 3.48195 0
M  V30 9664 H 905.798 -2.37747 2.23928 0
M  V30 9665 H 904.457 -0.729477 3.59269 0
M  V30 9666 H 904.105 -3.18749 3.89112 0
M  V30 9667 H 903.805 -2.30078 5.40683 0
M  V30 9668 H 905.329 -3.2088 5.19489 0
M  V30 9669 H 906.743 -0.983037 5.64809 0
M  V30 9670 H 905.14 -0.271881 5.99484 0
M  V30 9671 H 906.21 0.516304 4.82143 0
M  V30 9672 N 907.553 -1.57587 0.0200696 0
M  V30 9673 C 908.503 -2.0616 -0.973751 0
M  V30 9674 C 909.487 -0.960282 -1.29102 0
M  V30 9675 O 910.679 -1.22391 -1.27865 0
M  V30 9676 C 907.808 -2.58487 -2.25919 0
M  V30 9677 C 906.894 -3.75533 -1.97068 0
M  V30 9678 N 907.285 -4.86482 -1.38451 0
M  V30 9679 C 905.583 -3.83847 -2.27107 0
M  V30 9680 C 906.284 -5.67773 -1.26527 0
M  V30 9681 N 905.26 -5.14398 -1.75772 0
M  V30 9682 H 909.062 -2.89346 -0.515365 0
M  V30 9683 H 906.576 -1.61341 -0.185163 0
M  V30 9684 H 908.573 -2.91572 -2.97979 0
M  V30 9685 H 907.233 -1.76728 -2.72392 0
M  V30 9686 H 908.244 -5.06922 -1.06069 0
M  V30 9687 H 904.921 -3.12978 -2.76316 0
M  V30 9688 H 906.311 -6.66966 -0.812785 0
M  V30 9689 N 909.032 0.252966 -1.55557 0
M  V30 9690 C 909.962 1.31691 -1.9282 0
M  V30 9691 C 910.943 1.50516 -0.7924 0
M  V30 9692 O 912.128 1.63225 -1.05219 0
M  V30 9693 C 909.258 2.67281 -2.21762 0
M  V30 9694 C 908.212 2.6316 -3.37536 0
M  V30 9695 C 907.538 4.02488 -3.52005 0
M  V30 9696 C 908.838 2.20675 -4.73392 0
M  V30 9697 H 910.532 1.00751 -2.81939 0
M  V30 9698 H 908.078 0.483219 -1.3565 0
M  V30 9699 H 910.031 3.41842 -2.46419 0
M  V30 9700 H 908.755 2.99845 -1.29463 0
M  V30 9701 H 907.414 1.91057 -3.12878 0
M  V30 9702 H 907.062 4.32307 -2.57137 0
M  V30 9703 H 906.762 4.00621 -4.29857 0
M  V30 9704 H 908.286 4.78758 -3.78977 0
M  V30 9705 H 909.7 2.84965 -4.97461 0
M  V30 9706 H 908.097 2.29931 -5.54303 0
M  V30 9707 H 909.167 1.15831 -4.70862 0
M  V30 9708 N 910.51 1.48831 0.518367 0
M  V30 9709 C 911.473 1.63721 1.604 0
M  V30 9710 C 912.473 0.509857 1.52503 0
M  V30 9711 O 913.663 0.775922 1.55965 0
M  V30 9712 C 910.795 1.61831 3.00039 0
M  V30 9713 H 911.988 2.60534 1.48533 0
M  V30 9714 H 909.541 1.37602 0.741309 0
M  V30 9715 H 910.276 0.665387 3.17401 0
M  V30 9716 H 910.061 2.43686 3.0718 0
M  V30 9717 H 911.551 1.75467 3.78947 0
M  V30 9718 N 911.988 -0.768124 1.37614 0
M  V30 9719 C 912.951 -1.86314 1.3349 0
M  V30 9720 C 913.951 -1.59025 0.23823 0
M  V30 9721 O 915.141 -1.6704 0.494288 0
M  V30 9722 C 912.273 -3.23519 1.07462 0
M  V30 9723 H 913.466 -1.91382 2.30896 0
M  V30 9724 H 911.019 -0.968267 1.22696 0
M  V30 9725 H 911.754 -3.24127 0.106028 0
M  V30 9726 H 911.539 -3.44719 1.86846 0
M  V30 9727 H 913.029 -4.03597 1.07236 0
M  V30 9728 N 913.466 -1.22244 -0.994698 0
M  V30 9729 C 914.414 -0.988118 -2.10568 0
M  V30 9730 C 915.408 0.0681541 -1.69263 0
M  V30 9731 O 916.614 -0.0841311 -1.79803 0
M  V30 9732 H 912.989 -0.302343 -0.688544 0
M  V30 9733 H 914.96 -1.93091 -2.27505 0
M  V30 9734 C 913.709 -0.580557 -3.42819 0
M  V30 9735 H 913.032 -1.385 -3.75044 0
M  V30 9736 H 914.472 -0.456004 -4.21541 0
M  V30 9737 C 912.931 0.709692 -3.2934 0
M  V30 9738 O 913.461 1.76259 -3.60965 0
M  V30 9739 N 911.667 0.680155 -2.82528 0
M  V30 9740 H 911.214 -0.176977 -2.56991 0
M  V30 9741 H 911.172 1.54372 -2.73892 0
M  V30 9742 N 914.944 1.19125 -1.03184 0
M  V30 9743 C 915.892 2.24492 -0.608781 0
M  V30 9744 C 916.886 1.65529 0.360065 0
M  V30 9745 O 918.092 1.78546 0.22832 0
M  V30 9746 H 914.467 0.73048 -0.178616 0
M  V30 9747 H 916.438 2.5749 -1.50803 0
M  V30 9748 C 915.187 3.47693 0.0215126 0
M  V30 9749 H 914.51 3.93354 -0.715024 0
M  V30 9750 H 915.95 4.23072 0.280429 0
M  V30 9751 C 914.409 3.12088 1.26896 0
M  V30 9752 O 914.939 3.25013 2.36071 0
M  V30 9753 N 913.145 2.66494 1.15886 0
M  V30 9754 H 912.692 2.56176 0.270463 0
M  V30 9755 H 912.65 2.43042 1.99444 0
M  V30 9756 N 916.422 0.810101 1.35185 0
M  V30 9757 C 917.67 0.391343 1.98275 0
M  V30 9758 C 917.991 -1.04592 1.64577 0
M  V30 9759 O 917.261 -1.72417 0.93001 0
M  V30 9760 H 915.841 0.141715 0.733434 0
M  V30 9761 H 918.503 1.03672 1.6504 0
M  V30 9762 H 917.599 0.49991 3.0807 0
M  V30 9763 N 917.9 -1.47166 0.563914 0
M  V30 9764 C 919.149 -2.0166 0.0401871 0
M  V30 9765 C 919.462 -1.44303 -1.32046 0
M  V30 9766 O 920.668 -1.905 -1.93448 0
M  V30 9767 C 919.124 -3.59894 0.0213257 0
M  V30 9768 C 918.732 -4.26244 1.37914 0
M  V30 9769 C 920.476 -4.22114 -0.449442 0
M  V30 9770 C 918.383 -5.76503 1.31902 0
M  V30 9771 H 917.313 -0.753916 0.0112534 0
M  V30 9772 H 919.964 -1.69091 0.712766 0
M  V30 9773 H 918.346 -3.89454 -0.717038 0
M  V30 9774 H 919.52 -4.08317 2.13574 0
M  V30 9775 H 917.835 -3.76039 1.78839 0
M  V30 9776 H 920.432 -5.32234 -0.51292 0
M  V30 9777 H 920.775 -3.89749 -1.46291 0
M  V30 9778 H 921.308 -3.9711 0.23427 0
M  V30 9779 H 918.047 -6.13498 2.3087 0
M  V30 9780 H 917.567 -5.96748 0.604324 0
M  V30 9781 H 919.246 -6.38846 1.02392 0
M  V30 9782 N 919.378 -0.300708 -1.54705 0
M  V30 9783 C 920.308 0.568675 -2.26469 0
M  V30 9784 C 921.289 1.13817 -1.26411 0
M  V30 9785 O 922.474 1.16756 -1.55183 0
M  V30 9786 C 919.604 1.74077 -3.00524 0
M  V30 9787 C 918.558 1.30165 -4.07727 0
M  V30 9788 C 917.884 2.55888 -4.69495 0
M  V30 9789 C 919.184 0.433106 -5.20501 0
M  V30 9790 H 920.878 -0.0298851 -2.99385 0
M  V30 9791 H 918.424 -0.0158135 -1.43991 0
M  V30 9792 H 920.377 2.35506 -3.49449 0
M  V30 9793 H 919.101 2.36556 -2.25186 0
M  V30 9794 H 917.76 0.710414 -3.59651 0
M  V30 9795 H 917.408 3.16681 -3.90797 0
M  V30 9796 H 917.108 2.27207 -5.41895 0
M  V30 9797 H 918.632 3.18121 -5.21183 0
M  V30 9798 H 920.046 0.95307 -5.65322 0
M  V30 9799 H 918.443 0.240085 -5.9962 0
M  V30 9800 H 919.513 -0.541866 -4.81863 0
M  V30 9801 N 920.856 1.57574 -0.0284266 0
M  V30 9802 C 922.133 1.83064 0.688979 0
M  V30 9803 C 922.513 0.91219 1.90374 0
M  V30 9804 O 921.861 -0.0323672 2.28477 0
M  V30 9805 C 922.071 3.32262 1.06785 0
M  V30 9806 C 923.419 3.98717 1.45978 0
M  V30 9807 O 924.443 3.36753 1.16085 0
M  V30 9808 O 923.302 5.07927 2.01673 0
M  V30 9809 H 920.396 0.7548 0.337944 0
M  V30 9810 H 922.942 1.69607 -0.0560555 0
M  V30 9811 H 921.714 3.90772 0.203235 0
M  V30 9812 H 921.337 3.50823 1.87107 0
M  V30 9813 N 922.334 -0.244713 1.55689 0
M  V30 9814 C 923.58 -0.973886 1.77886 0
M  V30 9815 C 923.913 -1.8489 0.594071 0
M  V30 9816 O 923.188 -1.90182 -0.407564 0
M  V30 9817 C 923.471 -1.83255 3.09983 0
M  V30 9818 C 923.324 -0.985571 4.3887 0
M  V30 9819 C 924.643 -2.81464 3.38329 0
M  V30 9820 H 921.762 -0.352629 0.647165 0
M  V30 9821 H 924.404 -0.244243 1.88424 0
M  V30 9822 H 922.554 -2.45464 3.01131 0
M  V30 9823 H 924.226 -0.382005 4.59716 0
M  V30 9824 H 922.469 -0.29002 4.32829 0
M  V30 9825 H 923.14 -1.62022 5.27686 0
M  V30 9826 H 925.616 -2.2939 3.47159 0
M  V30 9827 H 924.492 -3.38663 4.31971 0
M  V30 9828 H 924.753 -3.58037 2.59349 0
M  V30 9829 N 923.813 -1.49104 -0.510467 0
M  V30 9830 C 925.059 -1.58346 -1.26705 0
M  V30 9831 C 925.392 -0.265121 -1.92382 0
M  V30 9832 O 924.667 0.730558 -1.80258 0
M  V30 9833 C 924.95 -2.7359 -2.34137 0
M  V30 9834 C 924.803 -4.1519 -1.73024 0
M  V30 9835 C 926.122 -2.84511 -3.3577 0
M  V30 9836 H 923.241 -0.57637 -0.459311 0
M  V30 9837 H 925.883 -1.81353 -0.566658 0
M  V30 9838 H 924.033 -2.54105 -2.93876 0
M  V30 9839 H 925.705 -4.46167 -1.17186 0
M  V30 9840 H 923.948 -4.21279 -1.03473 0
M  V30 9841 H 924.619 -4.91683 -2.50903 0
M  V30 9842 H 927.095 -3.0222 -2.86011 0
M  V30 9843 H 925.971 -3.6684 -4.08313 0
M  V30 9844 H 926.232 -1.93471 -3.97519 0
M  V30 9845 N 925.291 0.760815 -1.38019 0
M  V30 9846 C 926.707 1.06289 -1.19058 0
M  V30 9847 C 926.907 2.01471 -0.0342603 0
M  V30 9848 O 925.963 2.44713 0.62224 0
M  V30 9849 C 927.276 1.6499 -2.51394 0
M  V30 9850 C 928.824 1.77196 -2.58013 0
M  V30 9851 C 929.299 2.3931 -3.90506 0
M  V30 9852 N 930.79 2.46749 -3.92007 0
M  V30 9853 C 931.525 2.95687 -4.91281 0
M  V30 9854 N 931.021 3.44715 -6.00952 0
M  V30 9855 N 932.814 2.94661 -4.78677 0
M  V30 9856 H 924.965 0.129045 -2.12008 0
M  V30 9857 H 927.228 0.119878 -0.94039 0
M  V30 9858 H 926.934 1.0252 -3.36426 0
M  V30 9859 H 926.808 2.64146 -2.6927 0
M  V30 9860 H 929.195 2.38796 -1.7338 0
M  V30 9861 H 929.276 0.767645 -2.4401 0
M  V30 9862 H 928.92 1.78346 -4.75558 0
M  V30 9863 H 928.85 3.40369 -4.01817 0
M  V30 9864 H 931.341 2.12064 -3.12789 0
M  V30 9865 H 931.654 3.80492 -6.72641 0
M  V30 9866 H 929.999 3.42791 -6.04582 0
M  V30 9867 H 933.19 2.55665 -3.92113 0
M  V30 9868 H 933.363 3.32489 -5.56197 0
M  V30 9869 N 926.769 1.22769 0.988202 0
M  V30 9870 C 927.999 1.07998 1.76125 0
M  V30 9871 C 928.407 -0.372062 1.85506 0
M  V30 9872 O 927.75 -1.26946 1.3278 0
M  V30 9873 C 927.812 1.6219 3.20834 0
M  V30 9874 C 927.476 3.1086 3.34986 0
M  V30 9875 C 928.473 4.08239 3.21927 0
M  V30 9876 C 926.158 3.50411 3.59886 0
M  V30 9877 C 928.152 5.43154 3.33561 0
M  V30 9878 C 925.839 4.85473 3.71159 0
M  V30 9879 C 926.837 5.81653 3.58006 0
M  V30 9880 O 926.525 7.14263 3.68895 0
M  V30 9881 H 926.257 0.378937 0.559806 0
M  V30 9882 H 928.811 1.62925 1.25078 0
M  V30 9883 H 927.041 1.01676 3.73094 0
M  V30 9884 H 928.73 1.43011 3.79872 0
M  V30 9885 H 929.496 3.79025 3.02597 0
M  V30 9886 H 925.375 2.76068 3.69198 0
M  V30 9887 H 928.919 6.18207 3.23211 0
M  V30 9888 H 924.816 5.14365 3.89998 0
M  V30 9889 H 925.584 7.21906 3.85739 0
M  V30 9890 N 928.247 -1.18576 1.03814 0
M  V30 9891 C 929.177 -2.24334 0.647795 0
M  V30 9892 C 930.158 -1.66508 -0.34774 0
M  V30 9893 O 931.343 -1.92852 -0.228401 0
M  V30 9894 C 928.473 -3.47299 0.00734922 0
M  V30 9895 C 927.427 -4.17859 0.926152 0
M  V30 9896 C 926.753 -5.34489 0.150317 0
M  V30 9897 C 928.053 -4.71632 2.24411 0
M  V30 9898 H 929.747 -2.57241 1.53191 0
M  V30 9899 H 927.293 -1.23649 0.738028 0
M  V30 9900 H 929.246 -4.20486 -0.277434 0
M  V30 9901 H 927.97 -3.13619 -0.911626 0
M  V30 9902 H 926.629 -3.46567 1.19528 0
M  V30 9903 H 926.277 -4.97056 -0.770985 0
M  V30 9904 H 925.977 -5.82633 0.762407 0
M  V30 9905 H 927.501 -6.10467 -0.127508 0
M  V30 9906 H 928.915 -5.36526 2.02021 0
M  V30 9907 H 927.312 -5.303 2.80894 0
M  V30 9908 H 928.382 -3.89192 2.89236 0
M  V30 9909 N 929.725 -0.817259 -1.34754 0
M  V30 9910 C 930.965 -0.408429 -2.00278 0
M  V30 9911 C 931.329 1.00818 -1.634 0
M  V30 9912 O 932.53 1.51959 -2.21725 0
M  V30 9913 C 930.801 -0.598219 -3.52358 0
M  V30 9914 S 932.36 -0.281395 -4.37897 0
M  V30 9915 H 929.178 -0.154587 -0.693991 0
M  V30 9916 H 931.78 -1.06184 -1.6415 0
M  V30 9917 H 930.484 -1.62901 -3.76685 0
M  V30 9918 H 930.015 0.0701299 -3.93337 0
M  V30 9919 H 932.03 0.907024 -4.8784 0
M  V30 9920 N 931.203 1.46865 -0.571711 0
M  V30 9921 C 932.133 2.3298 0.155795 0
M  V30 9922 C 933.114 1.44678 0.894553 0
M  V30 9923 O 934.299 1.73513 0.872176 0
M  V30 9924 C 931.429 3.26745 1.17708 0
M  V30 9925 C 930.383 4.24401 0.553863 0
M  V30 9926 C 929.709 5.07595 1.68083 0
M  V30 9927 C 931.009 5.19884 -0.501827 0
M  V30 9928 H 932.703 2.94056 -0.563176 0
M  V30 9929 H 930.249 1.41402 -0.27228 0
M  V30 9930 H 932.202 3.85838 1.6943 0
M  V30 9931 H 930.926 2.63753 1.92618 0
M  V30 9932 H 929.585 3.66554 0.057815 0
M  V30 9933 H 929.233 4.40996 2.41933 0
M  V30 9934 H 928.933 5.73722 1.26953 0
M  V30 9935 H 930.457 5.6955 2.20103 0
M  V30 9936 H 931.871 5.73257 -0.0701057 0
M  V30 9937 H 930.268 5.94293 -0.832815 0
M  V30 9938 H 931.338 4.64482 -1.39229 0
M  V30 9939 N 932.681 0.308908 1.54543 0
M  V30 9940 C 933.614 -0.605854 2.20011 0
M  V30 9941 C 934.592 -1.1269 1.17216 0
M  V30 9942 O 935.776 -1.19363 1.45893 0
M  V30 9943 C 932.903 -1.82977 2.85021 0
M  V30 9944 C 931.949 -1.44126 4.0141 0
M  V30 9945 S 932.782 -0.490445 5.33249 0
M  V30 9946 C 933.938 -1.72198 6.01746 0
M  V30 9947 H 934.171 -0.0496911 2.97258 0
M  V30 9948 H 931.704 0.0930238 1.5412 0
M  V30 9949 H 933.662 -2.53211 3.23102 0
M  V30 9950 H 932.323 -2.35711 2.07604 0
M  V30 9951 H 931.516 -2.35288 4.45708 0
M  V30 9952 H 931.118 -0.818788 3.64927 0
M  V30 9953 H 933.41 -2.66147 6.23034 0
M  V30 9954 H 934.353 -1.32142 6.95661 0
M  V30 9955 H 934.761 -1.90229 5.31482 0
M  V30 9956 N 934.159 -1.57557 0.0367827 0
M  V30 9957 C 935.407 -1.91735 -0.63892 0
M  V30 9958 C 935.728 -0.914515 -1.72226 0
M  V30 9959 O 934.998 0.0428248 -1.95853 0
M  V30 9960 H 933.578 -0.707738 -0.23899 0
M  V30 9961 H 936.24 -1.94708 0.0863931 0
M  V30 9962 H 935.336 -2.92568 -1.08676 0
M  V30 9963 N 935.637 0.236453 -1.55816 0
M  V30 9964 C 936.6 1.27633 -1.90375 0
M  V30 9965 C 937.6 1.40557 -0.781048 0
M  V30 9966 O 938.79 1.39078 -1.04895 0
M  V30 9967 C 935.922 2.65247 -2.14142 0
M  V30 9968 H 937.115 0.982019 -2.83366 0
M  V30 9969 H 934.668 0.476215 -1.48869 0
M  V30 9970 H 935.403 2.99801 -1.23653 0
M  V30 9971 H 935.188 2.57246 -2.95917 0
M  V30 9972 H 936.678 3.40313 -2.42026 0
M  V30 9973 N 937.115 1.49373 0.502552 0
M  V30 9974 C 938.34 1.62752 1.28556 0
M  V30 9975 C 938.765 0.298285 1.8572 0
M  V30 9976 O 938.123 -0.733885 1.65782 0
M  V30 9977 C 938.171 2.69778 2.39274 0
M  V30 9978 O 937.275 2.28843 3.43081 0
M  V30 9979 H 936.616 0.544799 0.379592 0
M  V30 9980 H 939.146 1.9555 0.601792 0
M  V30 9981 H 939.156 2.91899 2.8506 0
M  V30 9982 H 937.831 3.66266 1.97033 0
M  V30 9983 H 936.408 2.17047 3.03224 0
M  V30 9984 N 938.594 -0.753485 1.38421 0
M  V30 9985 C 939.84 -1.51485 1.34834 0
M  V30 9986 C 940.173 -1.94102 -0.0615381 0
M  V30 9987 O 939.448 -1.65439 -1.02274 0
M  V30 9988 C 939.731 -2.76736 2.30411 0
M  V30 9989 C 939.584 -2.40256 3.80259 0
M  V30 9990 C 940.903 -3.7876 2.24119 0
M  V30 9991 H 938.022 -0.549534 0.491102 0
M  V30 9992 H 940.664 -0.863006 1.6927 0
M  V30 9993 H 938.814 -3.32357 2.01175 0
M  V30 9994 H 940.486 -1.90409 4.20169 0
M  V30 9995 H 938.729 -1.72714 3.97935 0
M  V30 9996 H 939.4 -3.29869 4.42595 0
M  V30 9997 H 941.876 -3.32679 2.49928 0
M  V30 9998 H 940.752 -4.64092 2.93104 0
M  V30 9999 H 941.013 -4.24352 1.24006 0
M  V30 10000 N 940.072 -1.23292 -0.981677 0
M  V30 10001 C 940.982 -1.02964 -2.10798 0
M  V30 10002 C 941.998 0.0254674 -1.73981 0
M  V30 10003 O 943.174 -0.169706 -2.00684 0
M  V30 10004 C 940.239 -0.621934 -3.41076 0
M  V30 10005 C 939.3 -1.75194 -3.91926 0
M  V30 10006 C 938.533 -1.36359 -5.15986 0
M  V30 10007 O 938.756 -0.247265 -5.69864 0
M  V30 10008 O 937.69 -2.18421 -5.60871 0
M  V30 10009 H 941.516 -1.97354 -2.30836 0
M  V30 10010 H 939.101 -1.01986 -1.09175 0
M  V30 10011 H 940.983 -0.405446 -4.19445 0
M  V30 10012 H 939.658 0.29299 -3.22371 0
M  V30 10013 H 938.565 -2.02305 -3.1468 0
M  V30 10014 H 939.898 -2.64513 -4.15083 0
M  V30 10015 N 941.55 1.18024 -1.04442 0
M  V30 10016 C 942.513 2.19992 -0.643136 0
M  V30 10017 C 943.513 1.57949 0.301444 0
M  V30 10018 O 944.703 1.73986 0.0863341 0
M  V30 10019 C 941.835 3.40853 0.0565208 0
M  V30 10020 H 943.028 2.57008 -1.54554 0
M  V30 10021 H 940.581 1.31974 -0.837408 0
M  V30 10022 H 941.316 3.09373 0.972553 0
M  V30 10023 H 941.101 3.87128 -0.622439 0
M  V30 10024 H 942.591 4.16344 0.323652 0
M  V30 10025 N 943.028 0.824394 1.34319 0
M  V30 10026 C 943.958 0.262077 2.32025 0
M  V30 10027 C 944.939 -0.622277 1.58309 0
M  V30 10028 O 946.124 -0.548848 1.86283 0
M  V30 10029 C 943.254 -0.57567 3.42496 0
M  V30 10030 C 942.208 0.21167 4.27476 0
M  V30 10031 C 941.534 -0.748913 5.29429 0
M  V30 10032 C 942.834 1.42068 5.02607 0
M  V30 10033 H 944.528 1.07842 2.79304 0
M  V30 10034 H 942.074 0.520022 1.34282 0
M  V30 10035 H 944.027 -0.979251 4.09864 0
M  V30 10036 H 942.751 -1.42508 2.93869 0
M  V30 10037 H 941.41 0.596636 3.61712 0
M  V30 10038 H 941.058 -1.59432 4.77064 0
M  V30 10039 H 940.758 -0.226313 5.87164 0
M  V30 10040 H 942.282 -1.15032 5.99667 0
M  V30 10041 H 943.696 1.09103 5.62823 0
M  V30 10042 H 942.093 1.87903 5.69923 0
M  V30 10043 H 943.163 2.1981 4.32217 0
M  V30 10044 N 944.506 -1.46559 0.579492 0
M  V30 10045 C 945.734 -2.06784 0.0693648 0
M  V30 10046 C 946.149 -1.42875 -1.23419 0
M  V30 10047 O 945.506 -0.532919 -1.74546 0
M  V30 10048 C 945.557 -3.61343 -0.106511 0
M  V30 10049 O 945.278 -4.22861 1.14545 0
M  V30 10050 C 946.779 -4.38489 -0.651359 0
M  V30 10051 H 943.999 -0.66866 0.0559848 0
M  V30 10052 H 946.543 -1.88235 0.799245 0
M  V30 10053 H 944.698 -3.7933 -0.786601 0
M  V30 10054 H 945.112 -5.15691 0.95723 0
M  V30 10055 H 946.586 -5.47237 -0.723615 0
M  V30 10056 H 947.063 -4.06309 -1.66763 0
M  V30 10057 H 947.669 -4.253 -0.0062433 0
M  V30 10058 N 945.984 -0.3171 -1.54377 0
M  V30 10059 C 947.212 0.289558 -2.04864 0
M  V30 10060 C 947.627 1.46284 -1.19359 0
M  V30 10061 O 946.984 1.81135 -0.222795 0
M  V30 10062 C 947.035 0.730273 -3.54047 0
M  V30 10063 O 946.756 -0.396325 -4.36304 0
M  V30 10064 C 948.257 1.40041 -4.20599 0
M  V30 10065 H 945.477 0.0605836 -0.668259 0
M  V30 10066 H 948.021 -0.461411 -1.99227 0
M  V30 10067 H 946.176 1.43123 -3.59992 0
M  V30 10068 H 946.59 -0.0502901 -5.24476 0
M  V30 10069 H 948.064 1.65979 -5.26455 0
M  V30 10070 H 948.541 2.34565 -3.71316 0
M  V30 10071 H 949.147 0.742206 -4.18774 0
M  V30 10072 N 947.462 1.57535 -0.0451378 0
M  V30 10073 C 948.739 1.83785 0.669523 0
M  V30 10074 C 949.119 0.932331 1.89396 0
M  V30 10075 O 948.467 -0.00813229 2.28499 0
M  V30 10076 C 948.677 3.33376 1.03255 0
M  V30 10077 C 950.025 4.00243 1.41741 0
M  V30 10078 O 951.049 3.37965 1.12507 0
M  V30 10079 O 949.908 5.10038 1.96275 0
M  V30 10080 H 947.002 0.758342 0.329919 0
M  V30 10081 H 949.548 1.69538 -0.0740415 0
M  V30 10082 H 948.32 3.90965 0.161777 0
M  V30 10083 H 947.943 3.52787 1.83376 0
M  V30 10084 N 948.94 -0.228186 1.55939 0
M  V30 10085 C 950.188 -0.951668 1.78291 0
M  V30 10086 C 950.509 -1.85132 0.612474 0
M  V30 10087 O 949.779 -1.92356 -0.370942 0
M  V30 10088 H 948.359 -0.354388 0.657585 0
M  V30 10089 H 951.021 -0.241635 1.93396 0
M  V30 10090 H 950.117 -1.56239 2.70177 0
M  V30 10091 N 950.418 -1.49637 -0.494624 0
M  V30 10092 C 951.365 -1.66776 -1.59545 0
M  V30 10093 C 952.335 -0.509159 -1.58104 0
M  V30 10094 O 953.52 -0.736949 -1.75993 0
M  V30 10095 C 950.66 -1.74624 -2.97658 0
M  V30 10096 C 949.773 -3.01831 -3.09067 0
M  V30 10097 C 948.908 -3.00619 -4.37952 0
M  V30 10098 C 947.947 -4.22378 -4.43016 0
M  V30 10099 N 947.084 -4.1904 -5.63339 0
M  V30 10100 H 951.924 -2.60767 -1.44238 0
M  V30 10101 H 949.461 -1.29286 -0.701673 0
M  V30 10102 H 951.419 -1.77156 -3.77719 0
M  V30 10103 H 950.049 -0.840936 -3.11654 0
M  V30 10104 H 949.101 -3.08881 -2.22029 0
M  V30 10105 H 950.413 -3.91823 -3.08669 0
M  V30 10106 H 949.567 -3.01749 -5.26339 0
M  V30 10107 H 948.306 -2.08416 -4.40924 0
M  V30 10108 H 947.311 -4.21485 -3.5303 0
M  V30 10109 H 948.536 -5.15781 -4.41755 0
M  V30 10110 H 946.482 -3.29677 -5.67141 0
M  V30 10111 H 946.399 -5.02774 -5.64583 0
M  V30 10112 H 947.667 -4.24281 -6.53916 0
M  V30 10113 N 951.896 0.746133 -1.38819 0
M  V30 10114 C 953.124 1.53539 -1.38685 0
M  V30 10115 C 953.539 1.88788 0.0215039 0
M  V30 10116 O 952.896 1.53312 0.990031 0
M  V30 10117 C 952.947 2.8299 -2.24942 0
M  V30 10118 O 952.668 2.49242 -3.60292 0
M  V30 10119 C 954.169 3.77085 -2.3307 0
M  V30 10120 H 951.389 0.474842 -0.474095 0
M  V30 10121 H 953.933 0.922844 -1.82493 0
M  V30 10122 H 952.088 3.40603 -1.84576 0
M  V30 10123 H 952.502 3.32319 -4.05789 0
M  V30 10124 H 953.976 4.64845 -2.97696 0
M  V30 10125 H 954.453 4.18049 -1.34655 0
M  V30 10126 H 955.059 3.25394 -2.73859 0
M  V30 10127 N 953.375 1.23811 0.975125 0
M  V30 10128 C 954.338 1.02505 2.05001 0
M  V30 10129 C 955.338 -0.0150084 1.60793 0
M  V30 10130 O 956.528 0.225246 1.72738 0
M  V30 10131 C 953.66 0.552087 3.364 0
M  V30 10132 H 954.853 1.979 2.25335 0
M  V30 10133 H 952.406 1.05929 1.1493 0
M  V30 10134 H 953.141 -0.405394 3.21756 0
M  V30 10135 H 952.926 1.30267 3.69828 0
M  V30 10136 H 954.416 0.423828 4.15444 0
M  V30 10137 N 954.853 -1.17469 1.05066 0
M  V30 10138 C 955.763 -2.25089 0.661222 0
M  V30 10139 C 956.779 -1.71086 -0.31712 0
M  V30 10140 O 957.955 -2.00685 -0.169534 0
M  V30 10141 C 955.02 -3.46676 0.0406415 0
M  V30 10142 C 954.081 -4.15771 1.06927 0
M  V30 10143 C 953.314 -5.31553 0.478208 0
M  V30 10144 O 953.537 -5.6593 -0.712714 0
M  V30 10145 O 952.471 -5.89574 1.21185 0
M  V30 10146 H 956.297 -2.60685 1.5581 0
M  V30 10147 H 953.882 -1.24744 0.822147 0
M  V30 10148 H 955.764 -4.203 -0.304312 0
M  V30 10149 H 954.439 -3.1288 -0.829909 0
M  V30 10150 H 953.346 -3.44171 1.46619 0
M  V30 10151 H 954.679 -4.53591 1.91092 0
M  V30 10152 N 956.331 -0.831506 -1.3388 0
M  V30 10153 C 957.608 -0.345907 -1.92517 0
M  V30 10154 C 957.988 1.16784 -1.75854 0
M  V30 10155 O 957.336 1.97889 -1.14245 0
M  V30 10156 C 957.546 -0.784692 -3.40064 0
M  V30 10157 C 958.894 -0.78846 -4.17215 0
M  V30 10158 O 959.918 -0.727823 -3.48685 0
M  V30 10159 O 958.777 -0.869481 -5.39539 0
M  V30 10160 H 955.871 -0.0963568 -0.821367 0
M  V30 10161 H 958.417 -0.916868 -1.42799 0
M  V30 10162 H 957.189 -1.82697 -3.46031 0
M  V30 10163 H 956.812 -0.189897 -3.97146 0
M  V30 10164 N 957.809 1.4625 -0.587256 0
M  V30 10165 C 958.739 2.33132 0.131076 0
M  V30 10166 C 959.72 1.45619 0.879158 0
M  V30 10167 O 960.905 1.74428 0.853723 0
M  V30 10168 C 958.035 3.27975 1.14236 0
M  V30 10169 C 956.989 4.24965 0.508819 0
M  V30 10170 C 956.315 5.09349 1.62689 0
M  V30 10171 C 957.615 5.19322 -0.55694 0
M  V30 10172 H 959.309 2.93442 -0.594333 0
M  V30 10173 H 956.855 1.41106 -0.287263 0
M  V30 10174 H 958.808 3.87614 1.65328 0
M  V30 10175 H 957.532 2.65781 1.8981 0
M  V30 10176 H 956.191 3.66595 0.0189337 0
M  V30 10177 H 955.839 4.43537 2.37242 0
M  V30 10178 H 955.539 5.75036 1.20861 0
M  V30 10179 H 957.063 5.71852 2.14049 0
M  V30 10180 H 958.477 5.73151 -0.130903 0
M  V30 10181 H 956.874 5.93376 -0.895801 0
M  V30 10182 H 957.944 4.62979 -1.44148 0
M  V30 10183 N 959.287 0.325282 1.54207 0
M  V30 10184 C 960.25 -0.527228 2.23054 0
M  V30 10185 C 961.25 -1.04217 1.22456 0
M  V30 10186 O 962.44 -0.934325 1.47024 0
M  V30 10187 C 959.572 -1.7325 2.93594 0
M  V30 10188 H 960.765 0.0746423 2.99807 0
M  V30 10189 H 958.318 0.0763872 1.56113 0
M  V30 10190 H 959.053 -2.37356 2.20981 0
M  V30 10191 H 958.838 -1.37065 3.67363 0
M  V30 10192 H 960.328 -2.3376 3.46043 0
M  V30 10193 N 960.765 -1.57509 0.0534917 0
M  V30 10194 C 962.181 -1.56696 -0.303067 0
M  V30 10195 C 962.381 -1.06135 -1.71282 0
M  V30 10196 O 961.437 -0.71899 -2.42047 0
M  V30 10197 C 962.75 -3.00421 -0.129418 0
M  V30 10198 C 964.298 -3.12358 -0.200346 0
M  V30 10199 C 964.773 -4.57967 -0.0551971 0
M  V30 10200 N 966.264 -4.63066 -0.111398 0
M  V30 10201 C 966.999 -5.73395 -0.0232344 0
M  V30 10202 N 966.495 -6.92701 0.11741 0
M  V30 10203 N 968.288 -5.62045 -0.078984 0
M  V30 10204 H 960.439 -1.88696 0.975064 0
M  V30 10205 H 962.702 -0.869072 0.378706 0
M  V30 10206 H 962.408 -3.41456 0.842653 0
M  V30 10207 H 962.282 -3.66563 -0.889476 0
M  V30 10208 H 964.669 -2.71221 -1.16289 0
M  V30 10209 H 964.75 -2.48891 0.590506 0
M  V30 10210 H 964.394 -4.9979 0.904034 0
M  V30 10211 H 964.324 -5.19443 -0.865223 0
M  V30 10212 H 966.815 -3.77263 -0.219256 0
M  V30 10213 H 967.128 -7.72597 0.177326 0
M  V30 10214 H 965.473 -6.94833 0.152526 0
M  V30 10215 H 968.664 -4.67725 -0.187434 0
M  V30 10216 H 968.837 -6.48 -0.00681731 0
M  V30 10217 N 962.243 0.219913 -1.56058 0
M  V30 10218 C 963.468 0.965073 -1.83579 0
M  V30 10219 C 963.893 1.77092 -0.634024 0
M  V30 10220 O 963.251 1.76434 0.417205 0
M  V30 10221 C 963.299 1.85705 -3.09105 0
M  V30 10222 O 962.403 2.95261 -2.87914 0
M  V30 10223 H 961.744 0.273173 -0.605204 0
M  V30 10224 H 964.274 0.23273 -2.03272 0
M  V30 10225 H 964.284 2.26655 -3.39252 0
M  V30 10226 H 962.959 1.26476 -3.96203 0
M  V30 10227 H 961.536 2.58246 -2.69005 0
M  V30 10228 N 963.721 1.49897 0.486681 0
M  V30 10229 C 964.631 1.70379 1.6127 0
M  V30 10230 C 965.647 0.58659 1.63814 0
M  V30 10231 O 966.823 0.863044 1.81971 0
M  V30 10232 C 963.888 1.77911 2.97571 0
M  V30 10233 C 962.949 3.01569 3.0554 0
M  V30 10234 C 962.182 3.08732 4.35339 0
M  V30 10235 O 962.405 2.23099 5.2496 0
M  V30 10236 O 961.339 4.01325 4.48578 0
M  V30 10237 H 965.165 2.65799 1.46916 0
M  V30 10238 H 962.75 1.33808 0.664516 0
M  V30 10239 H 964.632 1.85135 3.78554 0
M  V30 10240 H 963.307 0.856722 3.12157 0
M  V30 10241 H 962.214 2.99854 2.23693 0
M  V30 10242 H 963.547 3.93335 2.95886 0
M  V30 10243 N 965.199 -0.738761 1.39212 0
M  V30 10244 C 966.131 -1.86286 1.3353 0
M  V30 10245 C 967.144 -1.6095 0.244755 0
M  V30 10246 O 968.333 -1.71254 0.50343 0
M  V30 10247 C 965.433 -3.22234 1.04969 0
M  V30 10248 C 964.606 -3.74956 2.25226 0
M  V30 10249 C 963.665 -4.89457 1.9318 0
M  V30 10250 O 962.691 -5.03314 2.65826 0
M  V30 10251 N 963.893 -5.73548 0.895679 0
M  V30 10252 H 966.658 -1.91666 2.304 0
M  V30 10253 H 964.219 -0.919338 1.33266 0
M  V30 10254 H 966.211 -3.96397 0.815566 0
M  V30 10255 H 964.781 -3.12146 0.168451 0
M  V30 10256 H 964.001 -2.92188 2.64612 0
M  V30 10257 H 965.289 -4.06914 3.05448 0
M  V30 10258 H 964.687 -5.64938 0.293541 0
M  V30 10259 H 963.244 -6.47795 0.721451 0
M  V30 10260 N 966.677 -1.24326 -0.968545 0
M  V30 10261 C 967.627 -1.00191 -2.04807 0
M  V30 10262 C 968.611 0.0563524 -1.60801 0
M  V30 10263 O 969.803 -0.157268 -1.763 0
M  V30 10264 C 966.932 -0.607749 -3.37878 0
M  V30 10265 C 966.018 -1.70204 -3.88447 0
M  V30 10266 N 966.409 -2.93463 -4.11962 0
M  V30 10267 C 964.707 -1.57936 -4.171 0
M  V30 10268 C 965.408 -3.64397 -4.5342 0
M  V30 10269 N 964.384 -2.91956 -4.58544 0
M  V30 10270 H 968.186 -1.93786 -2.20962 0
M  V30 10271 H 965.7 -1.1444 -1.15227 0
M  V30 10272 H 967.697 -0.416079 -4.14819 0
M  V30 10273 H 966.357 0.321026 -3.23109 0
M  V30 10274 H 967.368 -3.2965 -3.99438 0
M  V30 10275 H 964.045 -0.718552 -4.1127 0
M  V30 10276 H 965.435 -4.70125 -4.80034 0
M  V30 10277 N 968.156 1.1691 -1.05688 0
M  V30 10278 C 969.066 2.24735 -0.67315 0
M  V30 10279 C 970.082 1.71252 0.308043 0
M  V30 10280 O 971.258 2.00772 0.158889 0
M  V30 10281 C 968.323 3.4665 -0.059026 0
M  V30 10282 C 967.384 4.15198 -1.0913 0
M  V30 10283 C 966.617 5.31292 -0.50639 0
M  V30 10284 O 966.84 5.663 0.682692 0
M  V30 10285 O 965.774 5.88923 -1.2431 0
M  V30 10286 H 969.6 2.59855 -1.57191 0
M  V30 10287 H 967.185 1.24306 -0.828751 0
M  V30 10288 H 969.067 4.20455 0.282018 0
M  V30 10289 H 967.742 3.13316 0.813304 0
M  V30 10290 H 966.649 3.43389 -1.48442 0
M  V30 10291 H 967.982 4.52571 -1.93495 0
M  V30 10292 N 969.634 0.838594 1.33437 0
M  V30 10293 C 970.584 0.243681 2.26694 0
M  V30 10294 C 971.568 -0.601168 1.49247 0
M  V30 10295 O 972.76 -0.453181 1.711 0
M  V30 10296 C 969.889 -0.580525 3.38356 0
M  V30 10297 C 968.975 0.275819 4.23202 0
M  V30 10298 N 969.366 1.3544 4.87329 0
M  V30 10299 C 967.664 0.0628047 4.45956 0
M  V30 10300 C 968.365 1.87991 5.50486 0
M  V30 10301 N 967.341 1.18143 5.30607 0
M  V30 10302 H 971.143 1.06849 2.73789 0
M  V30 10303 H 968.657 0.683019 1.47338 0
M  V30 10304 H 970.654 -1.02301 4.04153 0
M  V30 10305 H 969.314 -1.40331 2.92809 0
M  V30 10306 H 970.325 1.73729 4.87892 0
M  V30 10307 H 967.002 -0.726563 4.11129 0
M  V30 10308 H 968.392 2.78312 6.11549 0
M  V30 10309 N 971.112 -1.45937 0.595003 0
M  V30 10310 C 972.358 -2.0262 0.0854317 0
M  V30 10311 C 972.691 -1.46402 -1.27594 0
M  V30 10312 O 971.966 -0.633823 -1.83883 0
M  V30 10313 C 972.249 -3.60085 0.0329075 0
M  V30 10314 C 972.102 -4.26663 1.42405 0
M  V30 10315 C 973.421 -4.35101 -0.661426 0
M  V30 10316 H 970.54 -0.736282 0.0325196 0
M  V30 10317 H 973.182 -1.73938 0.764563 0
M  V30 10318 H 971.332 -3.84652 -0.545439 0
M  V30 10319 H 973.004 -4.13321 2.04851 0
M  V30 10320 H 971.247 -3.85549 1.98833 0
M  V30 10321 H 971.918 -5.35497 1.33965 0
M  V30 10322 H 974.394 -4.15753 -0.169977 0
M  V30 10323 H 973.27 -5.44829 -0.667243 0
M  V30 10324 H 973.531 -4.07053 -1.72513 0
M  V30 10325 N 972.59 -0.333456 -1.54032 0
M  V30 10326 C 973.553 0.515392 -2.2333 0
M  V30 10327 C 974.553 1.03566 -1.23007 0
M  V30 10328 O 975.743 0.926514 -1.47517 0
M  V30 10329 C 972.875 1.7169 -2.94508 0
M  V30 10330 H 974.068 -0.0905407 -2.99763 0
M  V30 10331 H 971.621 -0.0846651 -1.56071 0
M  V30 10332 H 972.356 2.3618 -2.22237 0
M  V30 10333 H 972.141 1.35115 -3.68085 0
M  V30 10334 H 973.631 2.31922 -3.47278 0
M  V30 10335 N 974.068 1.57479 -0.061844 0
M  V30 10336 C 975.316 1.92727 0.608336 0
M  V30 10337 C 975.637 0.941799 1.70749 0
M  V30 10338 O 974.907 -0.0116608 1.95897 0
M  V30 10339 H 973.487 0.71145 0.2277 0
M  V30 10340 H 976.149 1.94546 -0.117359 0
M  V30 10341 H 975.245 2.9426 1.04007 0
M  V30 10342 N 975.546 -0.211634 1.56173 0
M  V30 10343 C 976.476 -1.26533 1.96244 0
M  V30 10344 C 977.457 -1.48362 0.832028 0
M  V30 10345 O 978.642 -1.60378 1.0951 0
M  V30 10346 C 975.772 -2.61307 2.2877 0
M  V30 10347 C 974.726 -2.54119 3.44395 0
M  V30 10348 C 974.052 -3.93014 3.62552 0
M  V30 10349 C 975.352 -2.08046 4.79076 0
M  V30 10350 H 977.046 -0.932407 2.84511 0
M  V30 10351 H 974.592 -0.447084 1.36884 0
M  V30 10352 H 976.545 -3.35188 2.55396 0
M  V30 10353 H 975.269 -2.96307 1.37367 0
M  V30 10354 H 973.928 -1.82694 3.17834 0
M  V30 10355 H 973.576 -4.25338 2.68508 0
M  V30 10356 H 973.276 -3.89083 4.40327 0
M  V30 10357 H 974.8 -4.68542 3.91537 0
M  V30 10358 H 976.214 -2.71676 5.04842 0
M  V30 10359 H 974.611 -2.15154 5.60204 0
M  V30 10360 H 975.681 -1.03306 4.73768 0
M  V30 10361 N 977.024 -1.50153 -0.478725 0
M  V30 10362 C 977.954 -1.71384 -1.58587 0
M  V30 10363 C 978.935 -0.562705 -1.60523 0
M  V30 10364 O 980.12 -0.80101 -1.76911 0
M  V30 10365 C 977.25 -1.80094 -2.96957 0
M  V30 10366 C 976.204 -2.95218 -3.09888 0
M  V30 10367 C 975.53 -2.89063 -4.49829 0
M  V30 10368 C 976.83 -4.35841 -2.8782 0
M  V30 10369 H 978.524 -2.64081 -1.41073 0
M  V30 10370 H 976.07 -1.27081 -0.677239 0
M  V30 10371 H 978.023 -1.93531 -3.74331 0
M  V30 10372 H 976.747 -0.840131 -3.1561 0
M  V30 10373 H 975.406 -2.81419 -2.34944 0
M  V30 10374 H 975.054 -1.90844 -4.6539 0
M  V30 10375 H 974.754 -3.66345 -4.59418 0
M  V30 10376 H 976.278 -3.04539 -5.29234 0
M  V30 10377 H 977.692 -4.50205 -3.54948 0
M  V30 10378 H 976.089 -5.14515 -3.0886 0
M  V30 10379 H 977.159 -4.48739 -1.83742 0
M  V30 10380 N 978.502 0.731368 -1.39602 0
M  V30 10381 C 979.465 1.8271 -1.38383 0
M  V30 10382 C 980.465 1.58338 -0.280309 0
M  V30 10383 O 981.655 1.65671 -0.538402 0
M  V30 10384 C 978.787 3.20556 -1.16002 0
M  V30 10385 H 979.98 1.85193 -2.35889 0
M  V30 10386 H 977.533 0.935396 -1.2522 0
M  V30 10387 H 978.268 3.23732 -0.191927 0
M  V30 10388 H 978.053 3.39643 -1.9592 0
M  V30 10389 H 979.543 4.00612 -1.17899 0
M  V30 10390 N 979.98 1.24838 0.961938 0
M  V30 10391 C 981.396 1.01502 1.23165 0
M  V30 10392 C 981.596 -0.272651 1.99647 0
M  V30 10393 O 980.652 -0.987297 2.32398 0
M  V30 10394 C 981.965 2.23366 2.01316 0
M  V30 10395 C 983.513 2.28051 2.14387 0
M  V30 10396 C 983.988 3.49552 2.95935 0
M  V30 10397 N 985.479 3.49904 3.03515 0
M  V30 10398 C 986.214 4.40577 3.66987 0
M  V30 10399 N 985.71 5.41512 4.3213 0
M  V30 10400 N 987.503 4.28275 3.64056 0
M  V30 10401 H 979.654 2.07576 0.450086 0
M  V30 10402 H 981.917 0.911205 0.261551 0
M  V30 10403 H 981.623 3.16913 1.5251 0
M  V30 10404 H 981.497 2.25949 3.02038 0
M  V30 10405 H 983.884 1.35032 2.62393 0
M  V30 10406 H 983.965 2.29491 1.12994 0
M  V30 10407 H 983.609 4.42889 2.4862 0
M  V30 10408 H 983.539 3.45357 3.97538 0
M  V30 10409 H 986.03 2.76885 2.57183 0
M  V30 10410 H 986.343 6.06924 4.78396 0
M  V30 10411 H 984.688 5.45393 4.3078 0
M  V30 10412 H 987.879 3.48653 3.12344 0
M  V30 10413 H 988.052 4.99138 4.13237 0
M  V30 10414 N 981.458 -1.16348 1.06306 0
M  V30 10415 C 982.388 -2.2291 0.695234 0
M  V30 10416 C 983.369 -1.67208 -0.312343 0
M  V30 10417 O 984.554 -1.93293 -0.187442 0
M  V30 10418 C 981.684 -3.47205 0.0810149 0
M  V30 10419 C 980.638 -4.15801 1.01458 0
M  V30 10420 C 979.964 -5.3405 0.263656 0
M  V30 10421 C 981.264 -4.66766 2.34365 0
M  V30 10422 H 982.958 -2.53934 1.58613 0
M  V30 10423 H 980.504 -1.22056 0.76409 0
M  V30 10424 H 982.457 -4.2098 -0.18818 0
M  V30 10425 H 981.181 -3.15482 -0.844897 0
M  V30 10426 H 979.84 -3.43954 1.26852 0
M  V30 10427 H 979.488 -4.9858 -0.665378 0
M  V30 10428 H 979.188 -5.80885 0.88582 0
M  V30 10429 H 980.712 -6.106 0.00200994 0
M  V30 10430 H 982.126 -5.3212 2.13356 0
M  V30 10431 H 980.523 -5.24223 2.9208 0
M  V30 10432 H 981.593 -3.82969 2.97426 0
M  V30 10433 N 982.937 -0.845659 -1.3299 0
M  V30 10434 C 984.353 -0.53433 -1.5039 0
M  V30 10435 C 984.553 0.936939 -1.78392 0
M  V30 10436 O 983.609 1.72043 -1.84818 0
M  V30 10437 C 984.922 -1.41354 -2.65404 0
M  V30 10438 C 986.47 -1.41303 -2.79289 0
M  V30 10439 C 986.945 -2.27724 -3.97373 0
M  V30 10440 N 988.436 -2.25471 -4.0462 0
M  V30 10441 C 989.171 -2.89074 -4.95201 0
M  V30 10442 N 988.667 -3.61755 -5.90851 0
M  V30 10443 N 990.46 -2.78508 -4.88251 0
M  V30 10444 H 982.611 -1.79798 -1.13078 0
M  V30 10445 H 984.874 -0.767454 -0.556524 0
M  V30 10446 H 984.58 -2.45936 -2.51413 0
M  V30 10447 H 984.454 -1.09445 -3.60973 0
M  V30 10448 H 986.841 -0.374899 -2.92709 0
M  V30 10449 H 986.922 -1.77222 -1.84461 0
M  V30 10450 H 986.566 -3.316 -3.84713 0
M  V30 10451 H 986.496 -1.89142 -4.9146 0
M  V30 10452 H 988.987 -1.72622 -3.3617 0
M  V30 10453 H 989.3 -4.07475 -6.56646 0
M  V30 10454 H 987.645 -3.65863 -5.90906 0
M  V30 10455 H 990.836 -2.21285 -4.12493 0
M  V30 10456 H 991.009 -3.2836 -5.58645 0
M  V30 10457 N 984.415 1.45619 -0.602734 0
M  V30 10458 C 985.362 2.30493 0.118944 0
M  V30 10459 C 986.332 1.41816 0.864723 0
M  V30 10460 O 987.517 1.7075 0.851424 0
M  V30 10461 C 984.657 3.2664 1.11356 0
M  V30 10462 C 983.77 4.3042 0.369161 0
M  V30 10463 C 982.905 5.13678 1.35307 0
M  V30 10464 C 981.944 6.09189 0.596207 0
M  V30 10465 N 981.081 6.85245 1.52916 0
M  V30 10466 H 985.921 2.91672 -0.610836 0
M  V30 10467 H 983.458 1.43731 -0.313032 0
M  V30 10468 H 985.416 3.80846 1.7033 0
M  V30 10469 H 984.046 2.67225 1.81081 0
M  V30 10470 H 983.098 3.78913 -0.335994 0
M  V30 10471 H 984.41 4.98307 -0.221603 0
M  V30 10472 H 983.564 5.7226 2.01502 0
M  V30 10473 H 982.303 4.45798 1.97777 0
M  V30 10474 H 981.308 5.49743 -0.0793984 0
M  V30 10475 H 982.533 6.79096 -0.0233734 0
M  V30 10476 H 980.479 6.20058 2.14159 0
M  V30 10477 H 980.396 7.49467 0.991713 0
M  V30 10478 H 981.664 7.48371 2.18083 0
M  V30 10479 N 985.893 0.34162 1.53853 0
M  V30 10480 C 987.17 -0.310664 1.93117 0
M  V30 10481 C 987.55 -1.68398 1.273 0
M  V30 10482 O 986.898 -2.24546 0.423225 0
M  V30 10483 C 987.108 -0.384867 3.46871 0
M  V30 10484 C 988.456 -0.636621 4.198 0
M  V30 10485 O 989.48 -0.467061 3.53125 0
M  V30 10486 O 988.339 -0.964962 5.37913 0
M  V30 10487 H 985.433 -0.180881 0.806977 0
M  V30 10488 H 987.979 0.392656 1.65095 0
M  V30 10489 H 986.751 0.57894 3.86994 0
M  V30 10490 H 986.374 -1.13505 3.81054 0
M  V30 10491 N 987.371 -1.57444 0.0701946 0
M  V30 10492 C 988.599 -1.97754 -0.608358 0
M  V30 10493 C 989.014 -0.948496 -1.63245 0
M  V30 10494 O 988.371 0.065046 -1.82384 0
M  V30 10495 C 988.422 -3.38142 -1.27836 0
M  V30 10496 O 988.143 -4.37104 -0.295255 0
M  V30 10497 C 989.644 -3.93318 -2.04489 0
M  V30 10498 H 986.864 -0.650398 -0.164997 0
M  V30 10499 H 989.408 -2.04006 0.142124 0
M  V30 10500 H 987.563 -3.32982 -1.97994 0
M  V30 10501 H 987.977 -5.18732 -0.77574 0
M  V30 10502 H 989.451 -4.93774 -2.46762 0
M  V30 10503 H 989.928 -3.29774 -2.90079 0
M  V30 10504 H 990.534 -4.01875 -1.39201 0
M  V30 10505 N 988.849 0.203349 -1.56283 0
M  V30 10506 C 989.799 1.25595 -1.90289 0
M  V30 10507 C 990.783 1.41403 -0.767732 0
M  V30 10508 O 991.975 1.43912 -1.03046 0
M  V30 10509 C 989.104 2.60255 -2.23881 0
M  V30 10510 C 988.19 2.48274 -3.43833 0
M  V30 10511 N 988.581 2.05963 -4.61966 0
M  V30 10512 C 986.879 2.79188 -3.47808 0
M  V30 10513 C 987.58 2.05674 -5.44126 0
M  V30 10514 N 986.556 2.46862 -4.84314 0
M  V30 10515 H 990.358 0.920016 -2.79129 0
M  V30 10516 H 987.872 0.411829 -1.57091 0
M  V30 10517 H 989.869 3.36274 -2.46425 0
M  V30 10518 H 988.529 2.94678 -1.36363 0
M  V30 10519 H 989.54 1.76803 -4.86787 0
M  V30 10520 H 986.217 3.17863 -2.70684 0
M  V30 10521 H 987.607 1.74932 -6.48728 0
M  V30 10522 N 990.327 1.50405 0.470755 0
M  V30 10523 C 991.743 1.37838 0.804534 0
M  V30 10524 C 991.943 0.434743 1.96754 0
M  V30 10525 O 990.999 -0.122507 2.52203 0
M  V30 10526 C 992.312 2.79212 1.11629 0
M  V30 10527 C 993.86 2.88129 1.22272 0
M  V30 10528 C 994.335 4.30337 1.5676 0
M  V30 10529 N 995.826 4.3329 1.63751 0
M  V30 10530 C 996.561 5.4032 1.91942 0
M  V30 10531 N 996.057 6.57558 2.18151 0
M  V30 10532 N 997.85 5.27764 1.93446 0
M  V30 10533 H 990.001 2.10332 -0.295689 0
M  V30 10534 H 992.264 0.945429 -0.0697733 0
M  V30 10535 H 991.97 3.50103 0.334778 0
M  V30 10536 H 991.844 3.16475 2.0524 0
M  V30 10537 H 994.231 2.17457 1.9949 0
M  V30 10538 H 994.312 2.54409 0.2664 0
M  V30 10539 H 993.956 5.01547 0.800817 0
M  V30 10540 H 993.886 4.61545 2.53543 0
M  V30 10541 H 996.377 3.48752 1.45535 0
M  V30 10542 H 996.69 7.34935 2.38936 0
M  V30 10543 H 995.035 6.60732 2.15542 0
M  V30 10544 H 998.226 4.35169 1.72468 0
M  V30 10545 H 998.399 6.11264 2.15081 0
M  V30 10546 N 991.805 -0.723954 1.39988 0
M  V30 10547 C 993.053 -1.48078 1.3754 0
M  V30 10548 C 993.374 -1.94985 -0.0243358 0
M  V30 10549 O 992.644 -1.69764 -0.977602 0
M  V30 10550 H 991.224 -0.549354 0.506181 0
M  V30 10551 H 993.886 -0.858746 1.74962 0
M  V30 10552 H 992.982 -2.35763 2.04505 0
M  V30 10553 N 993.283 -1.25346 -0.955304 0
M  V30 10554 C 994.213 -1.08152 -2.06943 0
M  V30 10555 C 995.194 0.00922598 -1.70097 0
M  V30 10556 O 996.379 -0.160181 -1.93538 0
M  V30 10557 C 993.509 -0.698745 -3.40198 0
M  V30 10558 C 992.463 -1.73965 -3.9105 0
M  V30 10559 C 991.789 -1.21158 -5.20792 0
M  V30 10560 C 993.089 -3.13829 -4.17503 0
M  V30 10561 H 994.783 -2.01345 -2.21586 0
M  V30 10562 H 992.329 -0.969459 -1.06478 0
M  V30 10563 H 994.282 -0.565394 -4.1759 0
M  V30 10564 H 993.006 0.268892 -3.25491 0
M  V30 10565 H 991.665 -1.86143 -3.15827 0
M  V30 10566 H 991.313 -0.234193 -5.02455 0
M  V30 10567 H 991.013 -1.90728 -5.55785 0
M  V30 10568 H 992.537 -1.09061 -6.00781 0
M  V30 10569 H 993.951 -3.04809 -4.85556 0
M  V30 10570 H 992.348 -3.80863 -4.63749 0
M  V30 10571 H 993.418 -3.6094 -3.23806 0
M  V30 10572 N 994.761 1.15782 -1.06922 0
M  V30 10573 C 996.008 1.86465 -0.789752 0
M  V30 10574 C 996.336 1.82075 0.684022 0
M  V30 10575 O 995.591 1.23576 1.51748 0
M  V30 10576 C 995.89 3.35284 -1.2377 0
M  V30 10577 C 995.556 3.59871 -2.71668 0
M  V30 10578 C 994.218 3.6629 -3.12066 0
M  V30 10579 C 996.57 3.69929 -3.67154 0
M  V30 10580 C 993.898 3.80275 -4.46775 0
M  V30 10581 C 996.25 3.85436 -5.01619 0
M  V30 10582 C 994.914 3.901 -5.41644 0
M  V30 10583 H 994.184 0.682324 -0.288991 0
M  V30 10584 H 996.831 1.36861 -1.33945 0
M  V30 10585 H 995.136 3.87065 -0.607309 0
M  V30 10586 H 996.833 3.88371 -0.998431 0
M  V30 10587 H 993.423 3.55512 -2.39393 0
M  V30 10588 H 997.607 3.64274 -3.37073 0
M  V30 10589 H 992.863 3.8214 -4.77262 0
M  V30 10590 H 997.037 3.92161 -5.75485 0
M  V30 10591 H 994.664 4.00688 -6.46029 0
M  V30 10592 N 996.239 0.8527 1.3254 0
M  V30 10593 C 997.488 0.45136 1.96585 0
M  V30 10594 C 997.801 -0.997773 1.68237 0
M  V30 10595 O 999.007 -1.50445 2.26006 0
M  V30 10596 C 997.463 0.75619 3.51866 0
M  V30 10597 C 997.071 2.22092 3.89075 0
M  V30 10598 C 998.815 0.422478 4.22392 0
M  V30 10599 C 996.722 2.46908 5.37392 0
M  V30 10600 H 995.652 0.165052 0.735713 0
M  V30 10601 H 998.303 1.04321 1.50962 0
M  V30 10602 H 996.685 0.0937988 3.95889 0
M  V30 10603 H 997.859 2.92494 3.56067 0
M  V30 10604 H 996.174 2.51896 3.31568 0
M  V30 10605 H 998.771 0.58533 5.31487 0
M  V30 10606 H 999.114 -0.635737 4.11417 0
M  V30 10607 H 999.647 1.04068 3.83946 0
M  V30 10608 H 996.386 3.51346 5.53386 0
M  V30 10609 H 995.906 1.81082 5.71812 0
M  V30 10610 H 997.585 2.30758 6.0445 0
M  V30 10611 N 997.718 -1.45297 0.610449 0
M  V30 10612 C 998.65 -2.28742 -0.144884 0
M  V30 10613 C 999.663 -1.40114 -0.828977 0
M  V30 10614 O 1000.85 -1.64461 -0.693887 0
M  V30 10615 C 997.952 -3.15934 -1.22632 0
M  V30 10616 C 997.125 -4.32857 -0.628785 0
M  V30 10617 C 996.184 -5.01237 -1.60148 0
M  V30 10618 O 995.21 -5.57938 -1.12667 0
M  V30 10619 N 996.412 -5.00785 -2.9359 0
M  V30 10620 H 999.177 -2.94207 0.571145 0
M  V30 10621 H 996.738 -1.55517 0.450134 0
M  V30 10622 H 998.73 -3.58545 -1.87691 0
M  V30 10623 H 997.3 -2.52358 -1.84483 0
M  V30 10624 H 996.52 -3.93693 0.199951 0
M  V30 10625 H 997.808 -5.08367 -0.209845 0
M  V30 10626 H 997.206 -4.56014 -3.34765 0
M  V30 10627 H 995.763 -5.4725 -3.54064 0
M  V30 10628 N 999.196 -0.349774 -1.5367 0
M  V30 10629 C 1000.13 0.538575 -2.22782 0
M  V30 10630 C 1001.14 1.05896 -1.23652 0
M  V30 10631 O 1002.33 0.968045 -1.4997 0
M  V30 10632 C 999.43 1.7546 -2.89943 0
M  V30 10633 C 998.603 1.36843 -4.15443 0
M  V30 10634 C 997.662 2.4448 -4.65957 0
M  V30 10635 O 996.688 2.07528 -5.3002 0
M  V30 10636 N 997.89 3.75829 -4.42417 0
M  V30 10637 H 1000.65 -0.053348 -2.99653 0
M  V30 10638 H 998.216 -0.174193 -1.6096 0
M  V30 10639 H 1000.21 2.46911 -3.20651 0
M  V30 10640 H 998.778 2.25375 -2.16622 0
M  V30 10641 H 997.998 0.484421 -3.91212 0
M  V30 10642 H 999.286 1.0865 -4.97064 0
M  V30 10643 H 998.684 4.08635 -3.91196 0
M  V30 10644 H 997.241 4.43432 -4.77714 0
M  V30 10645 N 1000.67 1.57404 -0.0785433 0
M  V30 10646 C 1001.6 2.16131 0.883726 0
M  V30 10647 C 1002.58 1.09015 1.30575 0
M  V30 10648 O 1003.77 1.3708 1.37559 0
M  V30 10649 C 1000.9 2.72836 2.1489 0
M  V30 10650 C 999.854 3.85178 1.86605 0
M  V30 10651 C 999.18 4.28516 3.1981 0
M  V30 10652 C 1000.48 5.09118 1.16601 0
M  V30 10653 H 1002.17 2.9679 0.394484 0
M  V30 10654 H 999.72 1.42763 0.188304 0
M  V30 10655 H 1001.67 3.12567 2.8263 0
M  V30 10656 H 1000.4 1.89408 2.66068 0
M  V30 10657 H 999.056 3.45962 1.21268 0
M  V30 10658 H 998.704 3.42 3.68843 0
M  V30 10659 H 998.404 5.04249 3.01674 0
M  V30 10660 H 999.928 4.70868 3.88737 0
M  V30 10661 H 1001.34 5.46123 1.74422 0
M  V30 10662 H 999.739 5.90173 1.087 0
M  V30 10663 H 1000.81 4.8468 0.146138 0
M  V30 10664 N 1002.15 -0.195058 1.56388 0
M  V30 10665 C 1003.57 -0.545894 1.49974 0
M  V30 10666 C 1003.77 -1.85851 0.778568 0
M  V30 10667 O 1002.82 -2.50346 0.329105 0
M  V30 10668 C 1004.14 -0.600599 2.94641 0
M  V30 10669 C 1005.68 -0.689429 3.05313 0
M  V30 10670 C 1006.16 -0.775243 4.51391 0
M  V30 10671 N 1007.65 -0.838769 4.55542 0
M  V30 10672 C 1008.39 -0.925337 5.65884 0
M  V30 10673 N 1007.88 -0.974204 6.85916 0
M  V30 10674 N 1009.67 -0.962528 5.53798 0
M  V30 10675 H 1001.83 0.66595 2.0169 0
M  V30 10676 H 1004.09 0.237215 0.917842 0
M  V30 10677 H 1003.79 0.29478 3.50462 0
M  V30 10678 H 1003.67 -1.45528 3.47996 0
M  V30 10679 H 1006.06 -1.57524 2.4954 0
M  V30 10680 H 1006.14 0.191451 2.55083 0
M  V30 10681 H 1005.78 0.106215 5.07789 0
M  V30 10682 H 1005.71 -1.67193 4.99354 0
M  V30 10683 H 1008.2 -0.810249 3.69112 0
M  V30 10684 H 1008.51 -1.04077 7.6576 0
M  V30 10685 H 1006.86 -0.942881 6.88574 0
M  V30 10686 H 1010.05 -0.921188 4.58946 0
M  V30 10687 H 1010.22 -1.02653 6.39817 0
M  V30 10688 N 1003.63 -1.50653 -0.462772 0
M  V30 10689 C 1005.04 -1.54821 -1.04342 0
M  V30 10690 C 1005.39 -0.356595 -1.92932 0
M  V30 10691 O 1004.52 0.529579 -2.0982 0
M  V30 10692 C 1005.11 -2.80571 -1.89909 0
M  V30 10693 C 1003.67 -2.87394 -2.43067 0
M  V30 10694 C 1002.82 -2.49206 -1.21621 0
M  V30 10695 H 1005.77 -1.56797 -0.245048 0
M  V30 10696 H 1005.79 -2.62897 -2.75074 0
M  V30 10697 H 1005.3 -3.67281 -1.25405 0
M  V30 10698 H 1003.4 -2.05055 -3.111 0
M  V30 10699 H 1003.52 -3.90477 -2.77605 0
M  V30 10700 H 1001.88 -2.01829 -1.55361 0
M  V30 10701 H 1002.66 -3.38233 -0.587669 0
M  V30 10702 N 1005.11 0.71652 -1.4037 0
M  V30 10703 C 1006.34 1.50563 -1.4191 0
M  V30 10704 C 1006.75 1.88791 -0.0185456 0
M  V30 10705 O 1006.11 1.55378 0.957289 0
M  V30 10706 C 1006.16 2.78155 -2.30894 0
M  V30 10707 O 1005.88 2.41543 -3.65497 0
M  V30 10708 C 1007.38 3.72057 -2.41016 0
M  V30 10709 H 1004.6 0.464679 -0.48406 0
M  V30 10710 H 1007.15 0.883927 -1.8441 0
M  V30 10711 H 1005.3 3.36611 -1.91759 0
M  V30 10712 H 1005.71 3.23636 -4.12747 0
M  V30 10713 H 1007.19 4.58426 -3.07489 0
M  V30 10714 H 1007.67 4.15098 -1.43492 0
M  V30 10715 H 1008.27 3.19512 -2.80699 0
M  V30 10716 N 1006.59 1.25851 0.948643 0
M  V30 10717 C 1007.52 1.02549 2.04979 0
M  V30 10718 C 1008.53 -0.0115923 1.62796 0
M  V30 10719 O 1009.72 0.227643 1.77042 0
M  V30 10720 C 1006.82 0.529486 3.34738 0
M  V30 10721 C 1005.99 1.6341 4.05729 0
M  V30 10722 C 1005.05 1.13743 5.1376 0
M  V30 10723 O 1004.08 1.83303 5.38877 0
M  V30 10724 N 1005.28 -0.0181151 5.80497 0
M  V30 10725 H 1008.05 1.97365 2.25537 0
M  V30 10726 H 1005.61 1.17137 1.11761 0
M  V30 10727 H 1007.6 0.181566 4.04293 0
M  V30 10728 H 1006.17 -0.324893 3.10907 0
M  V30 10729 H 1005.39 2.15331 3.30191 0
M  V30 10730 H 1006.68 2.37603 4.49914 0
M  V30 10731 H 1006.07 -0.599198 5.62518 0
M  V30 10732 H 1004.63 -0.307019 6.51077 0
M  V30 10733 N 1008.06 -1.15214 1.07534 0
M  V30 10734 C 1009.01 -2.22078 0.69168 0
M  V30 10735 C 1010.01 -1.66751 -0.298382 0
M  V30 10736 O 1011.21 -1.7927 -0.161897 0
M  V30 10737 H 1007.59 -0.723347 0.205604 0
M  V30 10738 H 1009.56 -2.51716 1.60256 0
M  V30 10739 C 1008.31 -3.47534 0.107546 0
M  V30 10740 H 1007.63 -3.90429 0.860522 0
M  V30 10741 H 1009.07 -4.23821 -0.123215 0
M  V30 10742 C 1007.53 -3.16583 -1.15226 0
M  V30 10743 O 1008.06 -3.33551 -2.23845 0
M  V30 10744 N 1006.27 -2.70611 -1.05915 0
M  V30 10745 H 1005.81 -2.57004 -0.175198 0
M  V30 10746 H 1005.77 -2.50277 -1.90287 0
M  V30 10747 N 1009.54 -0.859717 -1.32086 0
M  V30 10748 C 1010.47 -0.323502 -2.31248 0
M  V30 10749 C 1011.45 0.580085 -1.59903 0
M  V30 10750 O 1012.64 0.499265 -1.87673 0
M  V30 10751 C 1009.77 0.484661 -3.43902 0
M  V30 10752 C 1008.72 -0.324933 -4.26765 0
M  V30 10753 C 1008.05 0.608281 -5.31229 0
M  V30 10754 C 1009.35 -1.55344 -4.98664 0
M  V30 10755 H 1011.04 -1.15209 -2.76346 0
M  V30 10756 H 1008.59 -0.555442 -1.32856 0
M  V30 10757 H 1010.54 0.870238 -4.12316 0
M  V30 10758 H 1009.27 1.34666 -2.97544 0
M  V30 10759 H 1007.92 -0.692328 -3.60003 0
M  V30 10760 H 1007.57 1.46727 -4.81124 0
M  V30 10761 H 1007.27 0.0705571 -5.87558 0
M  V30 10762 H 1008.8 0.990925 -6.02506 0
M  V30 10763 H 1010.21 -1.23987 -5.59732 0
M  V30 10764 H 1008.61 -2.02947 -5.64741 0
M  V30 10765 H 1009.68 -2.31192 -4.26237 0
M  V30 10766 N 1011.02 1.44971 -0.618145 0
M  V30 10767 C 1011.95 2.28815 0.132751 0
M  V30 10768 C 1012.97 1.40551 0.821535 0
M  V30 10769 O 1014.15 1.64827 0.685155 0
M  V30 10770 C 1011.25 3.1658 1.20955 0
M  V30 10771 C 1010.43 4.33184 0.605821 0
M  V30 10772 C 1009.49 5.0208 1.57488 0
M  V30 10773 O 1008.51 5.58528 1.09706 0
M  V30 10774 N 1009.71 5.02335 2.9093 0
M  V30 10775 H 1012.48 2.939 -0.58674 0
M  V30 10776 H 1010.04 1.55276 -0.458375 0
M  V30 10777 H 1012.03 3.59535 1.85787 0
M  V30 10778 H 1010.6 2.53333 1.83143 0
M  V30 10779 H 1009.82 3.93581 -0.220827 0
M  V30 10780 H 1011.11 5.08471 0.182883 0
M  V30 10781 H 1010.51 4.57783 3.32342 0
M  V30 10782 H 1009.07 5.49119 3.51157 0
M  V30 10783 N 1012.5 0.357919 1.53482 0
M  V30 10784 C 1013.91 -0.122938 1.86295 0
M  V30 10785 C 1014.26 -1.48803 1.27875 0
M  V30 10786 O 1013.39 -2.07978 0.597828 0
M  V30 10787 C 1013.98 -0.229853 3.38019 0
M  V30 10788 C 1012.54 -0.654955 3.70658 0
M  V30 10789 C 1011.69 0.202539 2.76559 0
M  V30 10790 H 1014.64 0.576997 1.47839 0
M  V30 10791 H 1014.66 -1.05481 3.65587 0
M  V30 10792 H 1014.17 0.763825 3.80509 0
M  V30 10793 H 1012.27 -1.65714 3.33721 0
M  V30 10794 H 1012.38 -0.43488 4.77122 0
M  V30 10795 H 1010.75 -0.327388 2.52587 0
M  V30 10796 H 1011.53 1.19361 3.21882 0
M  V30 10797 N 1013.98 -1.5736 0.0868897 0
M  V30 10798 C 1015.39 -1.57304 -0.269762 0
M  V30 10799 C 1015.59 -1.09745 -1.68992 0
M  V30 10800 O 1014.65 -0.77017 -2.40468 0
M  V30 10801 C 1015.96 -3.00628 -0.0656646 0
M  V30 10802 C 1017.51 -3.12713 -0.134045 0
M  V30 10803 C 1017.98 -4.57981 0.0419569 0
M  V30 10804 N 1019.48 -4.63198 -0.0131501 0
M  V30 10805 C 1020.21 -5.73316 0.0983964 0
M  V30 10806 N 1019.71 -6.92296 0.264315 0
M  V30 10807 N 1021.5 -5.62086 0.0402517 0
M  V30 10808 H 1013.65 -1.86585 1.01487 0
M  V30 10809 H 1015.91 -0.860843 0.397055 0
M  V30 10810 H 1015.62 -3.39592 0.914891 0
M  V30 10811 H 1015.49 -3.68367 -0.811522 0
M  V30 10812 H 1017.88 -2.73627 -1.1051 0
M  V30 10813 H 1017.96 -2.47582 0.643167 0
M  V30 10814 H 1017.61 -4.9776 1.00984 0
M  V30 10815 H 1017.54 -5.21162 -0.754847 0
M  V30 10816 H 1020.03 -3.77644 -0.139183 0
M  V30 10817 H 1020.34 -7.72047 0.341165 0
M  V30 10818 H 1018.68 -6.94353 0.299876 0
M  V30 10819 H 1021.88 -4.68017 -0.0881801 0
M  V30 10820 H 1022.05 -6.47868 0.130635 0
M  V30 10821 N 1015.45 0.186762 -1.56489 0
M  V30 10822 C 1016.7 0.904077 -1.80303 0
M  V30 10823 C 1017.02 1.84073 -0.661538 0
M  V30 10824 O 1018.22 2.59928 -0.784197 0
M  V30 10825 C 1016.68 1.65806 -3.19432 0
M  V30 10826 C 1016.29 0.765807 -4.41406 0
M  V30 10827 C 1018.03 2.36451 -3.52549 0
M  V30 10828 C 1015.94 1.51913 -5.71556 0
M  V30 10829 H 1014.87 0.34133 -0.672317 0
M  V30 10830 H 1017.52 0.157218 -1.82825 0
M  V30 10831 H 1015.9 2.44911 -3.11183 0
M  V30 10832 H 1017.07 0.0128225 -4.60798 0
M  V30 10833 H 1015.39 0.169772 -4.16054 0
M  V30 10834 H 1017.99 2.93378 -4.47027 0
M  V30 10835 H 1018.33 3.11044 -2.7669 0
M  V30 10836 H 1018.86 1.64305 -3.62283 0
M  V30 10837 H 1015.6 0.815829 -6.50403 0
M  V30 10838 H 1015.12 2.24583 -5.56168 0
M  V30 10839 H 1016.8 2.07073 -6.12968 0
M  V30 10840 N 1016.93 1.50896 0.454776 0
M  V30 10841 C 1017.88 1.70947 1.55067 0
M  V30 10842 C 1018.85 0.550899 1.56698 0
M  V30 10843 O 1020.03 0.783352 1.73978 0
M  V30 10844 C 1017.17 1.82455 2.92924 0
M  V30 10845 C 1016.29 3.09919 3.00956 0
M  V30 10846 C 1015.42 3.12125 4.29827 0
M  V30 10847 C 1014.46 4.33975 4.31662 0
M  V30 10848 N 1013.6 4.33828 5.5203 0
M  V30 10849 H 1018.44 2.645 1.37273 0
M  V30 10850 H 1015.98 1.31101 0.667148 0
M  V30 10851 H 1017.93 1.87108 3.72889 0
M  V30 10852 H 1016.56 0.92327 3.09315 0
M  V30 10853 H 1015.62 3.14659 2.13761 0
M  V30 10854 H 1016.93 3.99869 2.98172 0
M  V30 10855 H 1016.08 3.15598 5.18154 0
M  V30 10856 H 1014.82 2.20033 4.35243 0
M  V30 10857 H 1013.83 4.30697 3.41731 0
M  V30 10858 H 1015.05 5.27312 4.27924 0
M  V30 10859 H 1013 3.44598 5.58201 0
M  V30 10860 H 1012.91 5.17566 5.51055 0
M  V30 10861 H 1014.18 4.4147 6.42437 0
M  V30 10862 N 1018.41 -0.709066 1.40748 0
M  V30 10863 C 1019.34 -1.83583 1.4429 0
M  V30 10864 C 1020.32 -1.67378 0.303067 0
M  V30 10865 O 1021.51 -1.87312 0.512612 0
M  V30 10866 C 1018.64 -3.21599 1.31116 0
M  V30 10867 C 1017.59 -3.52486 2.4277 0
M  V30 10868 C 1016.92 -4.89716 2.14668 0
M  V30 10869 C 1018.22 -3.52824 3.85113 0
M  V30 10870 H 1019.91 -1.80876 2.38588 0
M  V30 10871 H 1017.46 -0.868795 1.14839 0
M  V30 10872 H 1019.41 -4.00123 1.32209 0
M  V30 10873 H 1018.13 -3.24898 0.332965 0
M  V30 10874 H 1016.79 -2.76305 2.40937 0
M  V30 10875 H 1016.44 -4.89625 1.15224 0
M  V30 10876 H 1016.14 -5.11347 2.89478 0
M  V30 10877 H 1017.66 -5.70566 2.17455 0
M  V30 10878 H 1019.08 -4.21377 3.88734 0
M  V30 10879 H 1017.48 -3.85984 4.59496 0
M  V30 10880 H 1018.55 -2.52073 4.14231 0
M  V30 10881 N 1019.89 -1.26353 -0.941956 0
M  V30 10882 C 1020.84 -1.07842 -2.04056 0
M  V30 10883 C 1021.81 0.0163064 -1.66092 0
M  V30 10884 O 1022.99 -0.143313 -1.90261 0
M  V30 10885 C 1020.13 -0.716636 -3.37577 0
M  V30 10886 C 1019.24 -1.88754 -3.88582 0
M  V30 10887 C 1018.38 -1.46893 -5.10486 0
M  V30 10888 C 1017.42 -2.60819 -5.53751 0
M  V30 10889 N 1016.56 -2.19646 -6.66858 0
M  V30 10890 H 1021.4 -2.01856 -2.19221 0
M  V30 10891 H 1018.93 -1.00504 -1.07412 0
M  V30 10892 H 1020.89 -0.487768 -4.14339 0
M  V30 10893 H 1019.52 0.18653 -3.22261 0
M  V30 10894 H 1018.57 -2.22936 -3.08227 0
M  V30 10895 H 1019.88 -2.74264 -4.1663 0
M  V30 10896 H 1019.04 -1.20047 -5.94705 0
M  V30 10897 H 1017.78 -0.584721 -4.84182 0
M  V30 10898 H 1016.78 -2.88396 -4.6809 0
M  V30 10899 H 1018.01 -3.49838 -5.82057 0
M  V30 10900 H 1015.95 -1.33657 -6.4224 0
M  V30 10901 H 1015.87 -2.987 -6.94489 0
M  V30 10902 H 1017.14 -1.96009 -7.54454 0
M  V30 10903 N 1021.37 1.14642 -1.08144 0
M  V30 10904 C 1022.3 2.21775 -0.730609 0
M  V30 10905 C 1023.28 1.67683 0.285702 0
M  V30 10906 O 1024.46 1.93567 0.156667 0
M  V30 10907 C 1021.59 3.47033 -0.136242 0
M  V30 10908 C 1020.55 4.14134 -1.0806 0
M  V30 10909 C 1019.87 5.33563 -0.348585 0
M  V30 10910 C 1021.17 4.62978 -2.41761 0
M  V30 10911 H 1022.87 2.51378 -1.62633 0
M  V30 10912 H 1020.41 1.20825 -0.783411 0
M  V30 10913 H 1022.37 4.21226 0.121182 0
M  V30 10914 H 1021.09 3.16786 0.7946 0
M  V30 10915 H 1019.75 3.41892 -1.32308 0
M  V30 10916 H 1019.4 4.99575 0.585974 0
M  V30 10917 H 1019.1 5.79402 -0.978122 0
M  V30 10918 H 1020.62 6.10519 -0.0991508 0
M  V30 10919 H 1022.04 5.28659 -2.21795 0
M  V30 10920 H 1020.43 5.1951 -3.00383 0
M  V30 10921 H 1021.5 3.78189 -3.03482 0
M  V30 10922 N 1022.85 0.866709 1.31628 0
M  V30 10923 C 1024.09 0.476026 1.96825 0
M  V30 10924 C 1024.42 -0.970994 1.68529 0
M  V30 10925 O 1023.68 -1.69823 0.97255 0
M  V30 10926 C 1023.97 0.676018 3.50948 0
M  V30 10927 C 1023.64 2.09533 3.99258 0
M  V30 10928 C 1022.3 2.48349 4.1216 0
M  V30 10929 C 1024.65 3.02112 4.24709 0
M  V30 10930 C 1021.98 3.78991 4.47864 0
M  V30 10931 C 1024.33 4.32266 4.61875 0
M  V30 10932 C 1023 4.71 4.72985 0
M  V30 10933 H 1022.27 0.17419 0.720235 0
M  V30 10934 H 1024.92 1.09907 1.5682 0
M  V30 10935 H 1023.22 -0.0301867 3.91788 0
M  V30 10936 H 1024.92 0.353604 3.99438 0
M  V30 10937 H 1021.51 1.78396 3.89709 0
M  V30 10938 H 1025.69 2.73351 4.14238 0
M  V30 10939 H 1020.95 4.08769 4.54663 0
M  V30 10940 H 1025.12 5.04055 4.80522 0
M  V30 10941 H 1022.75 5.72273 5.00407 0
M  V30 10942 N 1024.32 -1.44642 0.625825 0
M  V30 10943 C 1025.57 -2.01695 0.127948 0
M  V30 10944 C 1025.89 -1.49439 -1.25271 0
M  V30 10945 O 1025.16 -0.695873 -1.83124 0
M  V30 10946 H 1023.74 -0.745685 0.0443096 0
M  V30 10947 H 1026.4 -1.7721 0.811332 0
M  V30 10948 H 1025.5 -3.11966 0.0915933 0
M  V30 10949 N 1025.8 -0.366053 -1.5329 0
M  V30 10950 C 1026.75 0.496656 -2.22525 0
M  V30 10951 C 1027.74 1.0483 -1.22063 0
M  V30 10952 O 1028.93 0.978266 -1.47509 0
M  V30 10953 C 1026.06 1.63559 -3.01833 0
M  V30 10954 C 1025.14 1.0968 -4.09672 0
M  V30 10955 N 1025.53 0.28104 -5.05019 0
M  V30 10956 C 1023.83 1.37157 -4.24387 0
M  V30 10957 C 1024.53 -0.0140071 -5.81698 0
M  V30 10958 N 1023.51 0.583743 -5.40457 0
M  V30 10959 H 1027.31 -0.133408 -2.93597 0
M  V30 10960 H 1024.82 -0.174095 -1.61464 0
M  V30 10961 H 1026.82 2.26582 -3.49952 0
M  V30 10962 H 1025.48 2.26871 -2.32292 0
M  V30 10963 H 1026.49 -0.0797947 -5.17839 0
M  V30 10964 H 1023.17 2.00743 -3.66072 0
M  V30 10965 H 1024.56 -0.673508 -6.68516 0
M  V30 10966 N 1027.28 1.57312 -0.0952337 0
M  V30 10967 C 1028.5 1.99119 0.580206 0
M  V30 10968 C 1028.93 0.973955 1.60922 0
M  V30 10969 O 1028.29 -0.0575338 1.81209 0
M  V30 10970 C 1028.34 3.39893 1.20438 0
M  V30 10971 O 1027.44 3.40941 2.32019 0
M  V30 10972 H 1026.78 0.64748 0.147195 0
M  V30 10973 H 1029.31 2.03836 -0.176686 0
M  V30 10974 H 1029.32 3.7759 1.54564 0
M  V30 10975 H 1028 4.13453 0.450514 0
M  V30 10976 H 1026.57 3.1504 1.9951 0
M  V30 10977 N 1028.76 -0.17846 1.56586 0
M  V30 10978 C 1030.01 -0.894464 1.81228 0
M  V30 10979 C 1030.33 -1.83089 0.671062 0
M  V30 10980 O 1029.6 -1.93439 -0.309557 0
M  V30 10981 H 1028.18 -0.333288 0.668527 0
M  V30 10982 H 1030.84 -0.179986 1.94067 0
M  V30 10983 H 1029.93 -1.47565 2.75011 0
M  V30 10984 N 1030.24 -1.51135 -0.446768 0
M  V30 10985 C 1031.46 -1.67411 -1.22427 0
M  V30 10986 C 1031.89 -0.367009 -1.84485 0
M  V30 10987 O 1031.24 0.67185 -1.68392 0
M  V30 10988 C 1031.29 -2.78473 -2.29096 0
M  V30 10989 O 1030.4 -2.41419 -3.34351 0
M  V30 10990 H 1029.74 -0.558512 -0.359111 0
M  V30 10991 H 1032.27 -1.97648 -0.5288 0
M  V30 10992 H 1032.28 -3.02277 -2.7403 0
M  V30 10993 H 1030.95 -3.73326 -1.83304 0
M  V30 10994 H 1029.53 -2.28152 -2.9496 0
M  V30 10995 N 1031.71 0.701592 -1.41122 0
M  V30 10996 C 1032.96 1.45871 -1.39879 0
M  V30 10997 C 1033.28 1.94999 -0.00668769 0
M  V30 10998 O 1032.55 1.71298 0.95047 0
M  V30 10999 H 1031.13 0.541231 -0.514857 0
M  V30 11000 H 1033.79 0.830803 -1.76306 0
M  V30 11001 H 1032.89 2.32479 -2.0823 0
M  V30 11002 N 1033.19 1.2685 0.935242 0
M  V30 11003 C 1034.14 1.08923 2.03481 0
M  V30 11004 C 1035.11 -0.00749786 1.66098 0
M  V30 11005 O 1036.29 0.153401 1.90182 0
M  V30 11006 C 1033.43 0.734529 3.37192 0
M  V30 11007 C 1032.55 1.90812 3.87576 0
M  V30 11008 C 1031.68 1.49599 5.097 0
M  V30 11009 C 1030.72 2.63752 5.5236 0
M  V30 11010 N 1029.86 2.23179 6.65684 0
M  V30 11011 H 1034.7 2.03016 2.18148 0
M  V30 11012 H 1032.23 1.01072 1.06878 0
M  V30 11013 H 1034.19 0.509734 4.14074 0
M  V30 11014 H 1032.82 -0.169438 3.22355 0
M  V30 11015 H 1031.87 2.24567 3.0704 0
M  V30 11016 H 1033.19 2.7647 4.1517 0
M  V30 11017 H 1032.34 1.23199 5.9406 0
M  V30 11018 H 1031.08 0.61039 4.83865 0
M  V30 11019 H 1030.08 2.90874 4.66554 0
M  V30 11020 H 1031.31 3.5292 5.80193 0
M  V30 11021 H 1029.26 1.37061 6.41522 0
M  V30 11022 H 1029.17 3.02379 6.92895 0
M  V30 11023 H 1030.44 2.00007 7.53404 0
M  V30 11024 N 1034.67 -1.14067 1.0875 0
M  V30 11025 C 1035.9 -1.89041 0.840902 0
M  V30 11026 C 1036.31 -1.78768 -0.60725 0
M  V30 11027 O 1035.67 -1.14945 -1.41753 0
M  V30 11028 C 1035.72 -3.38891 1.25838 0
M  V30 11029 O 1035.44 -3.48886 2.64972 0
M  V30 11030 C 1036.94 -4.30852 1.04315 0
M  V30 11031 H 1034.16 -0.598685 0.303014 0
M  V30 11032 H 1036.71 -1.44438 1.44769 0
M  V30 11033 H 1034.86 -3.81103 0.695627 0
M  V30 11034 H 1035.28 -4.41989 2.82393 0
M  V30 11035 H 1036.75 -5.34353 1.38461 0
M  V30 11036 H 1037.23 -4.39196 -0.0195784 0
M  V30 11037 H 1037.83 -3.944 1.59151 0
M  V30 11038 N 1036.15 -0.873678 -1.31166 0
M  V30 11039 C 1037.38 -0.501043 -2.00742 0
M  V30 11040 C 1037.79 0.907477 -1.65561 0
M  V30 11041 O 1037.15 1.59507 -0.886771 0
M  V30 11042 C 1037.2 -0.652877 -3.55556 0
M  V30 11043 O 1036.92 -2.00593 -3.89479 0
M  V30 11044 C 1038.42 -0.281742 -4.42404 0
M  V30 11045 H 1035.64 -0.194829 -0.642092 0
M  V30 11046 H 1038.19 -1.17587 -1.67313 0
M  V30 11047 H 1036.34 -0.0255627 -3.87392 0
M  V30 11048 H 1036.75 -2.01638 -4.84193 0
M  V30 11049 H 1038.23 -0.43892 -5.50252 0
M  V30 11050 H 1038.71 0.779389 -4.32229 0
M  V30 11051 H 1039.31 -0.88491 -4.15992 0
M  V30 11052 N 1037.63 1.44308 -0.633487 0
M  V30 11053 C 1038.56 2.33431 0.0568402 0
M  V30 11054 C 1039.54 1.48342 0.832386 0
M  V30 11055 O 1040.72 1.77056 0.797798 0
M  V30 11056 C 1037.85 3.31443 1.03743 0
M  V30 11057 C 1036.81 4.26368 0.373362 0
M  V30 11058 C 1036.13 5.14267 1.46403 0
M  V30 11059 C 1037.43 5.17287 -0.721876 0
M  V30 11060 H 1039.13 2.91402 -0.687388 0
M  V30 11061 H 1036.67 1.4012 -0.332009 0
M  V30 11062 H 1038.63 3.92677 1.52913 0
M  V30 11063 H 1037.35 2.71686 1.81258 0
M  V30 11064 H 1036.01 3.6647 -0.0977053 0
M  V30 11065 H 1035.66 4.50861 2.23011 0
M  V30 11066 H 1035.36 5.7859 1.02506 0
M  V30 11067 H 1036.88 5.78373 1.95748 0
M  V30 11068 H 1038.29 5.72444 -0.313181 0
M  V30 11069 H 1036.69 5.90226 -1.08413 0
M  V30 11070 H 1037.76 4.58159 -1.58804 0
M  V30 11071 N 1039.1 0.374177 1.53094 0
M  V30 11072 C 1040.35 -0.213131 2.01677 0
M  V30 11073 C 1040.68 -1.47715 1.26071 0
M  V30 11074 O 1039.96 -1.91199 0.356834 0
M  V30 11075 C 1040.24 -0.496392 3.56662 0
M  V30 11076 C 1040.09 0.781859 4.42953 0
M  V30 11077 C 1041.41 -1.29339 4.20666 0
M  V30 11078 H 1038.53 -0.0759885 0.733072 0
M  V30 11079 H 1041.17 0.500765 1.83282 0
M  V30 11080 H 1039.32 -1.10455 3.72467 0
M  V30 11081 H 1041 1.41914 4.38928 0
M  V30 11082 H 1039.24 1.40041 4.10574 0
M  V30 11083 H 1039.91 0.538508 5.49367 0
M  V30 11084 H 1042.39 -0.778848 4.08746 0
M  V30 11085 H 1041.26 -1.46033 5.29118 0
M  V30 11086 H 1041.52 -2.30435 3.77296 0
M  V30 11087 N 1040.58 -1.57259 0.103575 0
M  V30 11088 C 1041.49 -2.18018 -0.866327 0
M  V30 11089 C 1042.51 -1.15198 -1.30404 0
M  V30 11090 O 1043.68 -1.47605 -1.37021 0
M  V30 11091 C 1040.75 -2.75533 -2.10434 0
M  V30 11092 C 1039.81 -3.93337 -1.72002 0
M  V30 11093 C 1039.04 -4.481 -2.89901 0
M  V30 11094 O 1039.27 -4.01784 -4.04877 0
M  V30 11095 O 1038.2 -5.39004 -2.67877 0
M  V30 11096 H 1042.03 -3.01322 -0.379338 0
M  V30 11097 H 1039.61 -1.48907 -0.121228 0
M  V30 11098 H 1041.49 -3.12259 -2.8297 0
M  V30 11099 H 1040.17 -1.9527 -2.58169 0
M  V30 11100 H 1039.08 -3.61408 -0.966193 0
M  V30 11101 H 1040.41 -4.74989 -1.29022 0
M  V30 11102 N 1042.06 0.170153 -1.56679 0
M  V30 11103 C 1043.29 0.90618 -1.86556 0
M  V30 11104 C 1043.71 1.74986 -0.690044 0
M  V30 11105 O 1043.07 1.77672 0.360862 0
M  V30 11106 C 1043.12 1.75777 -3.14857 0
M  V30 11107 O 1042.22 2.85952 -2.97162 0
M  V30 11108 H 1041.56 0.253781 -0.613589 0
M  V30 11109 H 1044.09 0.167943 -2.0391 0
M  V30 11110 H 1044.1 2.15747 -3.46291 0
M  V30 11111 H 1042.78 1.13807 -4.00026 0
M  V30 11112 H 1041.35 2.49557 -2.77084 0
M  V30 11113 N 1043.54 1.5137 0.438746 0
M  V30 11114 C 1044.47 1.75528 1.53987 0
M  V30 11115 C 1045.45 0.605067 1.58975 0
M  V30 11116 O 1046.63 0.847634 1.74725 0
M  V30 11117 C 1043.76 1.87904 2.92078 0
M  V30 11118 C 1042.72 3.0333 3.01951 0
M  V30 11119 C 1042.04 3.00888 4.42007 0
M  V30 11120 C 1043.34 4.43319 2.76163 0
M  V30 11121 H 1045.04 2.67728 1.34022 0
M  V30 11122 H 1042.58 1.28831 0.643308 0
M  V30 11123 H 1044.54 2.03388 3.69068 0
M  V30 11124 H 1043.26 0.923514 3.13271 0
M  V30 11125 H 1041.92 2.87549 2.274 0
M  V30 11126 H 1041.57 2.03116 4.60166 0
M  V30 11127 H 1041.27 3.78397 4.49544 0
M  V30 11128 H 1042.79 3.18464 5.20973 0
M  V30 11129 H 1044.21 4.59458 3.42887 0
M  V30 11130 H 1042.6 5.22523 2.9511 0
M  V30 11131 H 1043.67 4.53453 1.71779 0
M  V30 11132 N 1045.02 -0.694098 1.41492 0
M  V30 11133 C 1045.96 -1.80801 1.43456 0
M  V30 11134 C 1046.93 -1.63571 0.288757 0
M  V30 11135 O 1048.12 -1.844 0.490017 0
M  V30 11136 C 1045.26 -3.18694 1.32394 0
M  V30 11137 C 1044.37 -3.47346 2.56855 0
M  V30 11138 C 1043.51 -4.74862 2.38075 0
M  V30 11139 C 1042.55 -4.96486 3.58005 0
M  V30 11140 N 1041.68 -6.15229 3.38287 0
M  V30 11141 H 1046.52 -1.78457 2.38657 0
M  V30 11142 H 1044.06 -0.871455 1.18508 0
M  V30 11143 H 1046.02 -3.98352 1.23982 0
M  V30 11144 H 1044.65 -3.20211 0.407999 0
M  V30 11145 H 1043.7 -2.62083 2.75711 0
M  V30 11146 H 1045.01 -3.59226 3.4606 0
M  V30 11147 H 1044.17 -5.62577 2.27139 0
M  V30 11148 H 1042.9 -4.6523 1.46329 0
M  V30 11149 H 1041.91 -4.07219 3.69395 0
M  V30 11150 H 1043.13 -5.07976 4.50708 0
M  V30 11151 H 1041.08 -6.06807 2.49242 0
M  V30 11152 H 1041 -6.27883 4.21069 0
M  V30 11153 H 1042.27 -7.05674 3.31126 0
M  V30 11154 N 1046.49 -1.27344 -0.928501 0
M  V30 11155 C 1047.73 -1.14871 -1.69068 0
M  V30 11156 C 1048.1 0.300603 -1.89632 0
M  V30 11157 O 1049.3 0.547743 -2.6316 0
M  V30 11158 C 1047.57 -1.90992 -3.02087 0
M  V30 11159 S 1049.13 -1.94722 -3.93229 0
M  V30 11160 H 1045.95 -0.410095 -0.580812 0
M  V30 11161 H 1048.55 -1.61242 -1.1055 0
M  V30 11162 H 1047.25 -2.95484 -2.84811 0
M  V30 11163 H 1046.78 -1.45112 -3.65658 0
M  V30 11164 H 1048.8 -1.04306 -4.85113 0
M  V30 11165 N 1047.97 1.13488 -1.09353 0
M  V30 11166 C 1049.22 1.84383 -0.827488 0
M  V30 11167 C 1049.54 1.83892 0.648745 0
M  V30 11168 O 1048.81 1.29415 1.47066 0
M  V30 11169 H 1047.39 0.682732 -0.303127 0
M  V30 11170 H 1050.05 1.37477 -1.38152 0
M  V30 11171 H 1049.15 2.88919 -1.18035 0
M  V30 11172 N 1049.45 0.880621 1.30701 0
M  V30 11173 C 1050.38 0.360251 2.30704 0
M  V30 11174 C 1051.36 -0.554572 1.60806 0
M  V30 11175 O 1052.55 -0.469345 1.88443 0
M  V30 11176 C 1049.68 -0.429888 3.44629 0
M  V30 11177 C 1048.63 0.392786 4.26194 0
M  V30 11178 C 1047.96 -0.52369 5.32129 0
M  V30 11179 C 1049.26 1.63258 4.96129 0
M  V30 11180 H 1050.95 1.19591 2.74478 0
M  V30 11181 H 1048.5 0.576508 1.31956 0
M  V30 11182 H 1050.45 -0.804532 4.13649 0
M  V30 11183 H 1049.17 -1.29916 2.99649 0
M  V30 11184 H 1047.83 0.749514 3.58856 0
M  V30 11185 H 1047.48 -1.39054 4.83397 0
M  V30 11186 H 1047.18 0.0229272 5.87596 0
M  V30 11187 H 1048.71 -0.894946 6.04006 0
M  V30 11188 H 1050.12 1.32877 5.57689 0
M  V30 11189 H 1048.52 2.11906 5.61441 0
M  V30 11190 H 1049.59 2.37944 4.22505 0
M  V30 11191 N 1050.93 -1.4397 0.641131 0
M  V30 11192 C 1051.86 -2.33458 -0.04446 0
M  V30 11193 C 1052.84 -1.48781 -0.824507 0
M  V30 11194 O 1054.03 -1.77477 -0.788397 0
M  V30 11195 C 1051.16 -3.31989 -1.01984 0
M  V30 11196 C 1050.11 -4.2656 -0.350745 0
M  V30 11197 C 1049.44 -5.15036 -1.43673 0
M  V30 11198 C 1050.74 -5.16897 0.749299 0
M  V30 11199 H 1052.43 -2.91034 0.702832 0
M  V30 11200 H 1049.98 -1.39942 0.339435 0
M  V30 11201 H 1051.93 -3.93483 -1.50828 0
M  V30 11202 H 1050.65 -2.72643 -1.79815 0
M  V30 11203 H 1049.31 -3.66413 0.117139 0
M  V30 11204 H 1048.96 -4.52037 -2.20617 0
M  V30 11205 H 1048.66 -5.79125 -0.994358 0
M  V30 11206 H 1050.18 -5.79403 -1.92678 0
M  V30 11207 H 1051.6 -5.7227 0.343534 0
M  V30 11208 H 1049.99 -5.89643 1.11541 0
M  V30 11209 H 1051.06 -4.5731 1.61232 0
M  V30 11210 N 1052.41 -0.382291 -1.52893 0
M  V30 11211 C 1053.82 -0.031941 -1.59568 0
M  V30 11212 C 1054.02 1.45245 -1.39664 0
M  V30 11213 O 1053.08 2.21612 -1.21013 0
M  V30 11214 C 1054.39 -0.502846 -2.96466 0
M  V30 11215 C 1055.94 -0.4585 -3.09624 0
M  V30 11216 C 1056.42 -0.905481 -4.4896 0
M  V30 11217 N 1057.91 -0.861211 -4.55124 0
M  V30 11218 C 1058.64 -1.17856 -5.61157 0
M  V30 11219 N 1058.14 -1.56603 -6.74868 0
M  V30 11220 N 1059.93 -1.10027 -5.51226 0
M  V30 11221 H 1052.08 -1.34875 -1.64081 0
M  V30 11222 H 1054.34 -0.552375 -0.770446 0
M  V30 11223 H 1054.05 -1.53931 -3.16225 0
M  V30 11224 H 1053.92 0.101777 -3.77063 0
M  V30 11225 H 1056.31 0.568868 -2.89565 0
M  V30 11226 H 1056.39 -1.09884 -2.30996 0
M  V30 11227 H 1056.04 -1.93105 -4.69759 0
M  V30 11228 H 1055.97 -0.242227 -5.26043 0
M  V30 11229 H 1058.46 -0.575988 -3.73485 0
M  V30 11230 H 1058.77 -1.792 -7.51736 0
M  V30 11231 H 1057.12 -1.60484 -6.76217 0
M  V30 11232 H 1060.31 -0.796623 -4.61272 0
M  V30 11233 H 1060.48 -1.35091 -6.33762 0
M  V30 11234 N 1053.89 1.57202 -0.111913 0
M  V30 11235 C 1055.11 1.99723 0.559054 0
M  V30 11236 C 1055.54 0.990968 1.59879 0
M  V30 11237 O 1054.89 -0.038311 1.8126 0
M  V30 11238 C 1054.94 3.41151 1.16826 0
M  V30 11239 O 1054.05 3.43383 2.2839 0
M  V30 11240 H 1053.39 0.649004 0.140319 0
M  V30 11241 H 1055.92 2.03637 -0.198295 0
M  V30 11242 H 1055.93 3.79208 1.50551 0
M  V30 11243 H 1054.6 4.13907 0.406637 0
M  V30 11244 H 1053.18 3.17138 1.96158 0
M  V30 11245 N 1055.36 -0.161842 1.56767 0
M  V30 11246 C 1056.61 -0.876925 1.82527 0
M  V30 11247 C 1056.94 -1.81831 0.690492 0
M  V30 11248 O 1056.19 -1.9304 -0.32159 0
M  V30 11249 C 1056.49 -1.69736 3.14522 0
M  V30 11250 C 1056.16 -0.904075 4.41743 0
M  V30 11251 C 1054.82 -0.685168 4.76297 0
M  V30 11252 C 1057.17 -0.348282 5.20035 0
M  V30 11253 C 1054.5 0.10048 5.86614 0
M  V30 11254 C 1056.85 0.424327 6.31175 0
M  V30 11255 C 1055.52 0.653948 6.64289 0
M  V30 11256 H 1054.79 -0.320889 0.667915 0
M  V30 11257 H 1057.43 -0.141338 1.90978 0
M  V30 11258 H 1055.74 -2.50262 3.01456 0
M  V30 11259 H 1057.44 -2.25386 3.31666 0
M  V30 11260 H 1054.03 -1.08474 4.14646 0
M  V30 11261 H 1058.21 -0.504721 4.93727 0
M  V30 11262 H 1053.47 0.288029 6.10721 0
M  V30 11263 H 1057.64 0.862203 6.91042 0
M  V30 11264 H 1055.27 1.26459 7.49608 0
M  V30 11265 N 1056.84 -1.516 -0.430713 0
M  V30 11266 C 1058.09 -1.64596 -1.17959 0
M  V30 11267 C 1058.42 -0.365382 -1.91037 0
M  V30 11268 O 1057.67 0.650826 -1.84561 0
M  V30 11269 C 1057.97 -2.804 -2.21609 0
M  V30 11270 C 1057.64 -4.19431 -1.65495 0
M  V30 11271 C 1056.3 -4.57252 -1.49915 0
M  V30 11272 C 1058.65 -5.0616 -1.24304 0
M  V30 11273 C 1055.98 -5.79501 -0.916276 0
M  V30 11274 C 1058.33 -6.28995 -0.674437 0
M  V30 11275 C 1056.99 -6.65582 -0.505591 0
M  V30 11276 H 1056.26 -0.602301 -0.431642 0
M  V30 11277 H 1058.91 -1.8565 -0.469726 0
M  V30 11278 H 1057.22 -2.53595 -2.98658 0
M  V30 11279 H 1058.91 -2.87654 -2.79385 0
M  V30 11280 H 1055.5 -3.89615 -1.78599 0
M  V30 11281 H 1059.69 -4.77541 -1.35159 0
M  V30 11282 H 1054.94 -6.0649 -0.77328 0
M  V30 11283 H 1059.12 -6.95536 -0.346779 0
M  V30 11284 H 1056.74 -7.60182 -0.0518188 0
M  V30 11285 N 1058.32 0.686584 -1.41858 0
M  V30 11286 C 1059.74 0.998283 -1.24525 0
M  V30 11287 C 1059.94 2.01006 -0.141007 0
M  V30 11288 O 1058.99 2.47667 0.491648 0
M  V30 11289 C 1060.3 1.51432 -2.59786 0
M  V30 11290 C 1061.85 1.6327 -2.67043 0
M  V30 11291 C 1062.33 2.18274 -4.02642 0
M  V30 11292 N 1063.82 2.25622 -4.04535 0
M  V30 11293 C 1064.55 2.69229 -5.06264 0
M  V30 11294 N 1064.05 3.12375 -6.1838 0
M  V30 11295 N 1065.84 2.68873 -4.93623 0
M  V30 11296 H 1057.99 0.0164825 -2.12394 0
M  V30 11297 H 1060.26 0.0698613 -0.945422 0
M  V30 11298 H 1059.96 0.845426 -3.41388 0
M  V30 11299 H 1059.84 2.49502 -2.82894 0
M  V30 11300 H 1062.22 2.29269 -1.85794 0
M  V30 11301 H 1062.3 0.637221 -2.47736 0
M  V30 11302 H 1061.95 1.52887 -4.84343 0
M  V30 11303 H 1061.88 3.18591 -4.19294 0
M  V30 11304 H 1064.37 1.95186 -3.23591 0
M  V30 11305 H 1064.68 3.44301 -6.91864 0
M  V30 11306 H 1063.03 3.10262 -6.21902 0
M  V30 11307 H 1066.22 2.34521 -4.05114 0
M  V30 11308 H 1066.39 3.02539 -5.7304 0
M  V30 11309 N 1059.8 1.27835 0.921735 0
M  V30 11310 C 1061.21 1.05369 1.19873 0
M  V30 11311 C 1061.41 -0.208997 2.00413 0
M  V30 11312 O 1060.47 -0.912861 2.35421 0
M  V30 11313 C 1061.78 2.29658 1.94108 0
M  V30 11314 C 1063.33 2.34756 2.07023 0
M  V30 11315 C 1063.81 3.5879 2.84664 0
M  V30 11316 N 1065.3 3.59383 2.9223 0
M  V30 11317 C 1066.03 4.52029 3.52785 0
M  V30 11318 N 1065.53 5.54986 4.14683 0
M  V30 11319 N 1067.32 4.39641 3.50246 0
M  V30 11320 H 1059.47 2.08903 0.383819 0
M  V30 11321 H 1061.73 0.919065 0.232429 0
M  V30 11322 H 1061.44 3.21604 1.4235 0
M  V30 11323 H 1061.31 2.35444 2.94696 0
M  V30 11324 H 1063.7 1.43312 2.57965 0
M  V30 11325 H 1063.78 2.32969 1.05636 0
M  V30 11326 H 1063.43 4.50574 2.34404 0
M  V30 11327 H 1063.36 3.57829 3.86349 0
M  V30 11328 H 1065.85 2.84927 2.48244 0
M  V30 11329 H 1066.16 6.21837 4.58845 0
M  V30 11330 H 1064.51 5.58822 4.13211 0
M  V30 11331 H 1067.7 3.58413 3.01094 0
M  V30 11332 H 1067.87 5.12033 3.97148 0
M  V30 11333 N 1061.28 -1.12907 1.09954 0
M  V30 11334 C 1062.69 -1.363 0.830326 0
M  V30 11335 C 1062.89 -1.93772 -0.552694 0
M  V30 11336 O 1061.95 -2.1607 -1.30652 0
M  V30 11337 C 1063.26 -2.30925 1.92598 0
M  V30 11338 C 1064.81 -2.44528 1.95385 0
M  V30 11339 C 1065.28 -3.42464 3.0411 0
M  V30 11340 N 1066.77 -3.50018 3.03384 0
M  V30 11341 C 1067.51 -4.25693 3.84152 0
M  V30 11342 N 1067.01 -5.04476 4.74843 0
M  V30 11343 N 1068.8 -4.21049 3.7239 0
M  V30 11344 H 1060.95 -0.739571 1.99108 0
M  V30 11345 H 1063.21 -0.387983 0.86497 0
M  V30 11346 H 1062.92 -1.95861 2.92115 0
M  V30 11347 H 1062.79 -3.30997 1.80889 0
M  V30 11348 H 1065.18 -2.78875 0.965037 0
M  V30 11349 H 1065.26 -1.44361 2.11172 0
M  V30 11350 H 1064.9 -3.08847 4.03207 0
M  V30 11351 H 1064.83 -4.42448 2.85565 0
M  V30 11352 H 1067.33 -2.93809 2.37665 0
M  V30 11353 H 1067.64 -5.59541 5.33042 0
M  V30 11354 H 1065.98 -5.0369 4.78875 0
M  V30 11355 H 1069.17 -3.5858 3.00895 0
M  V30 11356 H 1069.35 -4.79771 4.35572 0
M  V30 11357 N 1062.75 -0.88754 -1.30232 0
M  V30 11358 C 1064.17 -0.581904 -1.48614 0
M  V30 11359 C 1064.37 0.879711 -1.81282 0
M  V30 11360 O 1063.43 1.66076 -1.90198 0
M  V30 11361 C 1064.74 -1.49726 -2.60773 0
M  V30 11362 C 1066.29 -1.50117 -2.74653 0
M  V30 11363 C 1066.76 -2.40251 -3.89927 0
M  V30 11364 N 1068.25 -2.38229 -3.97242 0
M  V30 11365 C 1068.99 -3.04682 -4.85754 0
M  V30 11366 N 1068.48 -3.80369 -5.79043 0
M  V30 11367 N 1070.28 -2.93901 -4.79144 0
M  V30 11368 H 1062.43 -1.83304 -1.073 0
M  V30 11369 H 1064.69 -0.78477 -0.531826 0
M  V30 11370 H 1064.4 -2.5381 -2.43462 0
M  V30 11371 H 1064.27 -1.20874 -3.57308 0
M  V30 11372 H 1066.66 -0.467832 -2.91368 0
M  V30 11373 H 1066.74 -1.83001 -1.7873 0
M  V30 11374 H 1066.38 -3.43671 -3.73969 0
M  V30 11375 H 1066.31 -2.04682 -4.85194 0
M  V30 11376 H 1068.8 -1.83229 -3.30508 0
M  V30 11377 H 1069.12 -4.28159 -6.4335 0
M  V30 11378 H 1067.46 -3.84477 -5.78967 0
M  V30 11379 H 1070.65 -2.34296 -4.05245 0
M  V30 11380 H 1070.83 -3.45967 -5.47915 0
M  V30 11381 N 1064.23 1.43628 -0.648757 0
M  V30 11382 C 1065.64 1.85142 -0.24066 0
M  V30 11383 C 1065.99 1.54304 1.21181 0
M  V30 11384 O 1065.12 0.989792 1.92437 0
M  V30 11385 C 1065.71 3.3606 -0.429999 0
M  V30 11386 C 1064.27 3.76323 -0.0762588 0
M  V30 11387 C 1063.42 2.67382 -0.734999 0
M  V30 11388 H 1066.37 1.33844 -0.852734 0
M  V30 11389 H 1066.39 3.79102 0.325836 0
M  V30 11390 H 1065.9 3.58474 -1.48721 0
M  V30 11391 H 1064.01 3.59521 0.978529 0
M  V30 11392 H 1064.12 4.76498 -0.498612 0
M  V30 11393 H 1062.48 2.54141 -0.168644 0
M  V30 11394 H 1063.27 2.92625 -1.79515 0
M  V30 11395 N 1065.71 0.390394 1.52688 0
M  V30 11396 C 1067.13 0.0404028 1.59549 0
M  V30 11397 C 1067.33 -1.44503 1.40432 0
M  V30 11398 O 1066.38 -2.20968 1.22187 0
M  V30 11399 C 1067.7 0.518561 2.96195 0
M  V30 11400 C 1069.24 0.474913 3.09376 0
M  V30 11401 C 1069.72 0.929278 4.48473 0
M  V30 11402 N 1071.21 0.885335 4.5466 0
M  V30 11403 C 1071.94 1.2083 5.60524 0
M  V30 11404 N 1071.44 1.6018 6.74028 0
M  V30 11405 N 1073.23 1.12949 5.50635 0
M  V30 11406 H 1065.38 1.35743 1.63363 0
M  V30 11407 H 1067.65 0.556453 0.767505 0
M  V30 11408 H 1067.35 1.55606 3.15404 0
M  V30 11409 H 1067.23 -0.081779 3.77111 0
M  V30 11410 H 1069.61 -0.553503 2.89863 0
M  V30 11411 H 1069.7 1.11107 2.3041 0
M  V30 11412 H 1069.34 1.95593 4.68728 0
M  V30 11413 H 1069.27 0.270121 5.25907 0
M  V30 11414 H 1071.76 0.595787 3.73174 0
M  V30 11415 H 1072.07 1.83184 7.50775 0
M  V30 11416 H 1070.42 1.64067 6.75357 0
M  V30 11417 H 1073.61 0.821074 4.60843 0
M  V30 11418 H 1073.78 1.3845 6.33037 0
M  V30 11419 N 1067.19 -1.57141 0.120249 0
M  V30 11420 C 1068.12 -2.18398 -0.826112 0
M  V30 11421 C 1069.1 -1.12439 -1.27638 0
M  V30 11422 O 1070.28 -1.40679 -1.33877 0
M  V30 11423 C 1067.41 -2.78438 -2.0758 0
M  V30 11424 C 1066.37 -3.89991 -1.76327 0
M  V30 11425 C 1065.69 -4.36844 -3.08336 0
M  V30 11426 C 1066.99 -5.12031 -1.03062 0
M  V30 11427 H 1068.69 -2.97731 -0.315656 0
M  V30 11428 H 1066.23 -1.43213 -0.150387 0
M  V30 11429 H 1068.19 -3.19951 -2.74243 0
M  V30 11430 H 1066.91 -1.96396 -2.60953 0
M  V30 11431 H 1065.57 -3.49055 -1.12053 0
M  V30 11432 H 1065.22 -3.51659 -3.59646 0
M  V30 11433 H 1064.92 -5.1207 -2.88199 0
M  V30 11434 H 1066.44 -4.81009 -3.76116 0
M  V30 11435 H 1067.86 -5.50555 -1.59881 0
M  V30 11436 H 1066.25 -5.92848 -0.930146 0
M  V30 11437 H 1067.32 -4.84897 -0.017582 0
M  V30 11438 N 1068.67 0.153526 -1.5685 0
M  V30 11439 C 1069.89 0.886343 -1.87507 0
M  V30 11440 C 1070.32 1.74244 -0.708565 0
M  V30 11441 O 1069.67 1.78045 0.341997 0
M  V30 11442 C 1069.72 1.72428 -3.16703 0
M  V30 11443 O 1068.83 2.82784 -3.00178 0
M  V30 11444 H 1068.17 0.247259 -0.616246 0
M  V30 11445 H 1070.7 0.146306 -2.04076 0
M  V30 11446 H 1070.71 2.12062 -3.4856 0
M  V30 11447 H 1069.38 1.09558 -4.01211 0
M  V30 11448 H 1067.96 2.46604 -2.79716 0
M  V30 11449 N 1070.14 1.51827 0.422667 0
M  V30 11450 C 1071.37 1.69337 1.19748 0
M  V30 11451 C 1071.79 0.396312 1.83878 0
M  V30 11452 O 1071.15 -0.644976 1.6944 0
M  V30 11453 C 1071.2 2.82082 2.24637 0
M  V30 11454 O 1070.3 2.46708 3.30468 0
M  V30 11455 H 1069.65 0.564154 0.35018 0
M  V30 11456 H 1072.18 1.98465 0.497289 0
M  V30 11457 H 1072.19 3.06599 2.69186 0
M  V30 11458 H 1070.86 3.76195 1.77341 0
M  V30 11459 H 1069.44 2.32815 2.91293 0
M  V30 11460 N 1071.62 -0.679052 1.4222 0
M  V30 11461 C 1072.85 -1.46747 1.45852 0
M  V30 11462 C 1073.27 -1.88675 0.0685937 0
M  V30 11463 O 1072.62 -1.57861 -0.915757 0
M  V30 11464 C 1072.67 -2.71935 2.38188 0
M  V30 11465 O 1072.39 -2.31768 3.71773 0
M  V30 11466 C 1073.9 -3.65536 2.50796 0
M  V30 11467 H 1071.12 -0.451682 0.49621 0
M  V30 11468 H 1073.66 -0.834723 1.86689 0
M  V30 11469 H 1071.81 -3.31409 2.00616 0
M  V30 11470 H 1072.23 -3.12579 4.21182 0
M  V30 11471 H 1073.7 -4.50113 3.19535 0
M  V30 11472 H 1074.18 -4.11148 1.54447 0
M  V30 11473 H 1074.79 -3.11957 2.89072 0
M  V30 11474 N 1073.1 -1.28322 -0.914942 0
M  V30 11475 C 1074.05 -1.12003 -2.03858 0
M  V30 11476 C 1075.04 -0.0396287 -1.69354 0
M  V30 11477 O 1076.25 -0.198309 -1.78904 0
M  V30 11478 H 1072.62 -0.34552 -0.667922 0
M  V30 11479 H 1074.59 -2.07168 -2.14765 0
M  V30 11480 C 1073.34 -0.797402 -3.38433 0
M  V30 11481 H 1072.67 -1.62071 -3.65476 0
M  V30 11482 H 1074.11 -0.723165 -4.17787 0
M  V30 11483 C 1072.57 0.498807 -3.33187 0
M  V30 11484 O 1073.1 1.52946 -3.71444 0
M  V30 11485 N 1071.3 0.499101 -2.86282 0
M  V30 11486 H 1070.85 -0.340056 -2.55346 0
M  V30 11487 H 1070.81 1.36641 -2.83155 0
M  V30 11488 N 1074.58 1.12322 -1.10551 0
M  V30 11489 C 1075.8 1.8822 -0.871093 0
M  V30 11490 C 1076.23 1.7916 0.573005 0
M  V30 11491 O 1075.59 1.14738 1.40374 0
M  V30 11492 C 1075.63 3.35349 -1.32565 0
M  V30 11493 O 1074.74 4.09461 -0.49145 0
M  V30 11494 H 1074.08 0.584787 -0.314516 0
M  V30 11495 H 1076.61 1.42039 -1.47262 0
M  V30 11496 H 1076.62 3.86189 -1.31612 0
M  V30 11497 H 1075.29 3.4126 -2.37728 0
M  V30 11498 H 1073.87 3.68575 -0.566294 0
M  V30 11499 N 1076.06 0.894434 1.2976 0
M  V30 11500 C 1077.28 0.5322 2.00455 0
M  V30 11501 C 1077.71 -0.874427 1.66539 0
M  V30 11502 O 1077.06 -1.58113 0.887129 0
M  V30 11503 C 1077.11 0.725264 3.53231 0
M  V30 11504 O 1076.22 -0.224612 4.11788 0
M  V30 11505 H 1075.56 0.208562 0.630395 0
M  V30 11506 H 1078.09 1.20458 1.65382 0
M  V30 11507 H 1078.1 0.627889 4.0314 0
M  V30 11508 H 1076.77 1.75079 3.77253 0
M  V30 11509 H 1075.35 -0.0801361 3.72814 0
M  V30 11510 N 1077.53 -1.43282 0.656365 0
M  V30 11511 C 1078.95 -1.56272 0.324213 0
M  V30 11512 C 1079.15 -1.63946 -1.1715 0
M  V30 11513 O 1078.21 -1.59625 -1.95643 0
M  V30 11514 C 1079.52 -2.82204 1.03833 0
M  V30 11515 C 1081.07 -2.95952 1.01889 0
M  V30 11516 C 1081.54 -4.2472 1.71397 0
M  V30 11517 N 1083.03 -4.31591 1.68176 0
M  V30 11518 C 1083.77 -5.30001 2.1883 0
M  V30 11519 N 1083.26 -6.34671 2.77785 0
M  V30 11520 N 1085.06 -5.21676 2.09311 0
M  V30 11521 H 1077.21 -1.36544 1.62694 0
M  V30 11522 H 1079.47 -0.655999 0.684375 0
M  V30 11523 H 1079.18 -2.82608 2.09346 0
M  V30 11524 H 1079.05 -3.72527 0.591878 0
M  V30 11525 H 1081.44 -2.95087 -0.0278431 0
M  V30 11526 H 1081.52 -2.0691 1.50406 0
M  V30 11527 H 1081.16 -4.26346 2.76028 0
M  V30 11528 H 1081.09 -5.12665 1.20342 0
M  V30 11529 H 1083.58 -3.56573 1.25157 0
M  V30 11530 H 1083.9 -7.06087 3.14104 0
M  V30 11531 H 1082.24 -6.35285 2.81847 0
M  V30 11532 H 1085.43 -4.3882 1.62955 0
M  V30 11533 H 1085.61 -5.9821 2.49095 0
M  V30 11534 N 1079.01 -0.398486 -1.52479 0
M  V30 11535 C 1080.26 0.180752 -2.01692 0
M  V30 11536 C 1080.59 1.46044 -1.28457 0
M  V30 11537 O 1079.84 1.92051 -0.376162 0
M  V30 11538 C 1080.14 0.485909 -3.54081 0
M  V30 11539 C 1079.81 -0.703321 -4.45381 0
M  V30 11540 C 1078.47 -1.02955 -4.70057 0
M  V30 11541 C 1080.82 -1.49848 -4.99194 0
M  V30 11542 C 1078.15 -2.15231 -5.45795 0
M  V30 11543 C 1080.5 -2.61192 -5.76161 0
M  V30 11544 C 1079.17 -2.94313 -5.99113 0
M  V30 11545 H 1078.44 0.0661417 -0.738042 0
M  V30 11546 H 1081.08 -0.53772 -1.83796 0
M  V30 11547 H 1079.39 1.28582 -3.701 0
M  V30 11548 H 1081.09 0.946872 -3.89661 0
M  V30 11549 H 1077.68 -0.439062 -4.26345 0
M  V30 11550 H 1081.86 -1.25968 -4.80048 0
M  V30 11551 H 1077.12 -2.41252 -5.61789 0
M  V30 11552 H 1081.29 -3.23201 -6.16858 0
M  V30 11553 H 1078.92 -3.81431 -6.57583 0
M  V30 11554 N 1080.49 1.57075 -0.12858 0
M  V30 11555 C 1081.9 1.82468 0.39526 0
M  V30 11556 C 1082.25 1.0463 1.65973 0
M  V30 11557 O 1081.38 0.285835 2.14504 0
M  V30 11558 C 1081.97 3.30976 0.723889 0
M  V30 11559 C 1080.53 3.57016 1.19232 0
M  V30 11560 C 1079.68 2.76534 0.205907 0
M  V30 11561 H 1082.63 1.54711 -0.353571 0
M  V30 11562 H 1082.65 3.46127 1.58039 0
M  V30 11563 H 1082.16 3.87602 -0.196595 0
M  V30 11564 H 1080.26 3.05758 2.12938 0
M  V30 11565 H 1080.38 4.65558 1.13103 0
M  V30 11566 H 1078.74 2.45038 0.694872 0
M  V30 11567 H 1079.52 3.35923 -0.707842 0
M  V30 11568 N 1081.97 -0.145205 1.5693 0
M  V30 11569 C 1083.38 -0.705089 1.72874 0
M  V30 11570 C 1083.73 -1.81577 0.743261 0
M  V30 11571 O 1082.86 -2.16214 -0.0897153 0
M  V30 11572 C 1083.45 -1.28578 3.13454 0
M  V30 11573 C 1082.01 -1.79221 3.30994 0
M  V30 11574 C 1081.16 -0.681392 2.68798 0
M  V30 11575 H 1084.11 0.0804798 1.58496 0
M  V30 11576 H 1084.13 -2.15558 3.13552 0
M  V30 11577 H 1083.64 -0.477186 3.85155 0
M  V30 11578 H 1081.74 -2.62642 2.64292 0
M  V30 11579 H 1081.86 -1.91969 4.38959 0
M  V30 11580 H 1080.22 -1.10847 2.29314 0
M  V30 11581 H 1081 0.115786 3.43105 0
M  V30 11582 N 1083.45 -1.52049 -0.414609 0
M  V30 11583 C 1084.67 -1.6997 -1.18848 0
M  V30 11584 C 1085.1 -0.406058 -1.83665 0
M  V30 11585 O 1084.46 0.635981 -1.69779 0
M  V30 11586 C 1084.5 -2.8327 -2.23138 0
M  V30 11587 O 1083.61 -2.48457 -3.29155 0
M  V30 11588 H 1082.95 -0.566003 -0.347183 0
M  V30 11589 H 1085.48 -1.98726 -0.486757 0
M  V30 11590 H 1085.49 -3.08022 -2.67557 0
M  V30 11591 H 1084.16 -3.7713 -1.75344 0
M  V30 11592 H 1082.74 -2.34357 -2.90054 0
M  V30 11593 N 1084.93 0.6715 -1.42579 0
M  V30 11594 C 1086.34 1.2522 -1.38481 0
M  V30 11595 C 1086.69 1.96038 -0.079719 0
M  V30 11596 O 1085.81 2.00203 0.821441 0
M  V30 11597 C 1086.41 2.27736 -2.50842 0
M  V30 11598 C 1084.97 2.81325 -2.50067 0
M  V30 11599 C 1084.11 1.55694 -2.29466 0
M  V30 11600 H 1087.06 0.464673 -1.51745 0
M  V30 11601 H 1087.09 3.09539 -2.21283 0
M  V30 11602 H 1086.6 1.76164 -3.45815 0
M  V30 11603 H 1084.7 3.37008 -1.58922 0
M  V30 11604 H 1084.81 3.30116 -3.47218 0
M  V30 11605 H 1083.18 1.82383 -1.77788 0
M  V30 11606 H 1083.96 1.06084 -3.26498 0
M  V30 11607 N 1086.4 1.28806 0.908124 0
M  V30 11608 C 1087.33 1.15758 2.02787 0
M  V30 11609 C 1088.31 0.053911 1.70015 0
M  V30 11610 O 1089.5 0.231901 1.9281 0
M  V30 11611 C 1086.63 0.824526 3.37371 0
M  V30 11612 C 1085.58 1.88359 3.84324 0
M  V30 11613 C 1084.91 1.40404 5.15937 0
M  V30 11614 C 1086.21 3.29108 4.05568 0
M  V30 11615 H 1087.9 2.09431 2.13961 0
M  V30 11616 H 1085.45 1.00831 1.02806 0
M  V30 11617 H 1087.4 0.71999 4.15204 0
M  V30 11618 H 1086.13 -0.147902 3.26265 0
M  V30 11619 H 1084.79 1.97736 3.087 0
M  V30 11620 H 1084.43 0.420515 5.01239 0
M  V30 11621 H 1084.13 2.11224 5.48323 0
M  V30 11622 H 1085.66 1.31283 5.9632 0
M  V30 11623 H 1087.07 3.2262 4.73909 0
M  V30 11624 H 1085.47 3.97812 4.49294 0
M  V30 11625 H 1086.54 3.72709 3.10187 0
M  V30 11626 N 1087.88 -1.11734 1.11145 0
M  V30 11627 C 1088.84 -2.15868 0.770303 0
M  V30 11628 C 1089.84 -1.59438 -0.208842 0
M  V30 11629 O 1091.03 -1.74193 0.0152516 0
M  V30 11630 C 1088.17 -3.40603 0.142303 0
M  V30 11631 H 1089.36 -2.4756 1.69276 0
M  V30 11632 H 1086.91 -1.26867 0.912929 0
M  V30 11633 H 1087.65 -3.14517 -0.790526 0
M  V30 11634 H 1087.43 -3.8284 0.847087 0
M  V30 11635 H 1088.92 -4.17523 -0.0803608 0
M  V30 11636 N 1089.36 -0.901303 -1.29284 0
M  V30 11637 C 1090.58 -0.542823 -2.0017 0
M  V30 11638 C 1091.01 0.865583 -1.67001 0
M  V30 11639 O 1090.37 1.5764 -0.895502 0
M  V30 11640 C 1090.42 -0.743987 -3.52842 0
M  V30 11641 O 1089.52 0.202771 -4.11901 0
M  V30 11642 H 1088.86 -0.211903 -0.62928 0
M  V30 11643 H 1091.39 -1.21333 -1.64741 0
M  V30 11644 H 1091.4 -0.64926 -4.02801 0
M  V30 11645 H 1090.08 -1.77077 -3.7632 0
M  V30 11646 H 1088.65 0.0603637 -3.72851 0
M  V30 11647 N 1090.84 1.42931 -0.663954 0
M  V30 11648 C 1091.78 2.3079 0.0210764 0
M  V30 11649 C 1092.75 1.45356 0.803796 0
M  V30 11650 O 1093.94 1.74207 0.778237 0
M  V30 11651 C 1091.08 3.31069 0.974023 0
M  V30 11652 C 1090.19 4.31598 0.186273 0
M  V30 11653 C 1089.33 5.18955 1.13399 0
M  V30 11654 C 1088.37 6.1117 0.337292 0
M  V30 11655 N 1087.5 6.91114 1.23715 0
M  V30 11656 H 1092.34 2.88819 -0.733995 0
M  V30 11657 H 1089.88 1.42274 -0.373711 0
M  V30 11658 H 1091.84 3.87727 1.54024 0
M  V30 11659 H 1090.47 2.74665 1.69585 0
M  V30 11660 H 1089.52 3.77147 -0.496402 0
M  V30 11661 H 1090.83 4.96919 -0.432753 0
M  V30 11662 H 1089.99 5.80292 1.77049 0
M  V30 11663 H 1088.73 4.53785 1.78691 0
M  V30 11664 H 1087.73 5.48911 -0.312492 0
M  V30 11665 H 1088.96 6.78386 -0.31138 0
M  V30 11666 H 1086.9 6.28583 1.87668 0
M  V30 11667 H 1086.82 7.52999 0.672946 0
M  V30 11668 H 1088.09 7.56948 1.86146 0
M  V30 11669 N 1092.32 0.406567 1.52266 0
M  V30 11670 C 1093.73 -0.063607 1.86592 0
M  V30 11671 C 1094.08 -1.4466 1.32544 0
M  V30 11672 O 1093.2 -2.05971 0.663692 0
M  V30 11673 C 1093.8 -0.122198 3.3858 0
M  V30 11674 C 1092.36 -0.536701 3.72554 0
M  V30 11675 C 1091.5 0.290422 2.75775 0
M  V30 11676 H 1094.45 0.623738 1.45929 0
M  V30 11677 H 1094.48 -0.937964 3.68758 0
M  V30 11678 H 1093.99 0.884495 3.77887 0
M  V30 11679 H 1092.09 -1.55013 3.38824 0
M  V30 11680 H 1092.2 -0.282867 4.78264 0
M  V30 11681 H 1090.57 -0.246864 2.53501 0
M  V30 11682 H 1091.35 1.29541 3.17921 0
M  V30 11683 N 1093.79 -1.57004 0.136909 0
M  V30 11684 C 1095.02 -2.00156 -0.523936 0
M  V30 11685 C 1095.44 -1.01688 -1.59075 0
M  V30 11686 O 1094.79 -0.0123678 -1.82496 0
M  V30 11687 C 1094.85 -3.4326 -1.13379 0
M  V30 11688 O 1094.57 -4.37963 -0.109598 0
M  V30 11689 C 1096.07 -4.01637 -1.87623 0
M  V30 11690 H 1093.29 -0.65681 -0.137263 0
M  V30 11691 H 1095.83 -2.03219 0.228522 0
M  V30 11692 H 1093.99 -3.4108 -1.83693 0
M  V30 11693 H 1094.4 -5.21555 -0.55503 0
M  V30 11694 H 1095.87 -5.03795 -2.25597 0
M  V30 11695 H 1096.35 -3.41781 -2.75831 0
M  V30 11696 H 1096.96 -4.07417 -1.22031 0
M  V30 11697 N 1095.27 0.136881 -1.57004 0
M  V30 11698 C 1096.52 0.849031 -1.84172 0
M  V30 11699 C 1096.85 1.80359 -0.720027 0
M  V30 11700 O 1096.13 1.92538 0.275584 0
M  V30 11701 C 1096.41 1.61465 -3.21871 0
M  V30 11702 C 1096.26 0.680902 -4.44616 0
M  V30 11703 C 1097.58 2.57488 -3.56914 0
M  V30 11704 H 1094.7 0.307209 -0.669919 0
M  V30 11705 H 1097.34 0.113862 -1.89659 0
M  V30 11706 H 1095.49 2.24137 -3.17325 0
M  V30 11707 H 1097.16 0.0644094 -4.61255 0
M  V30 11708 H 1095.41 -0.00883629 -4.33799 0
M  V30 11709 H 1096.08 1.25286 -5.37594 0
M  V30 11710 H 1098.55 2.0493 -3.62136 0
M  V30 11711 H 1097.43 3.08101 -4.54274 0
M  V30 11712 H 1097.69 3.39321 -2.83397 0
M  V30 11713 N 1096.75 1.52266 0.40654 0
M  V30 11714 C 1097.98 1.70598 1.17945 0
M  V30 11715 C 1098.4 0.415793 1.83447 0
M  V30 11716 O 1097.76 -0.626968 1.70114 0
M  V30 11717 C 1097.81 2.84449 2.21633 0
M  V30 11718 O 1096.91 2.50199 3.27833 0
M  V30 11719 H 1096.25 0.567837 0.344177 0
M  V30 11720 H 1098.78 1.98981 0.476211 0
M  V30 11721 H 1098.79 3.09436 2.65919 0
M  V30 11722 H 1097.47 3.78055 1.73341 0
M  V30 11723 H 1096.04 2.35892 2.88807 0
M  V30 11724 N 1098.23 -0.663929 1.42933 0
M  V30 11725 C 1099.47 -1.42603 1.44195 0
M  V30 11726 C 1099.81 -1.94101 0.0620284 0
M  V30 11727 O 1099.08 -1.71609 -0.91546 0
M  V30 11728 C 1099.37 -2.61522 2.47544 0
M  V30 11729 C 1099.22 -2.15587 3.94769 0
M  V30 11730 C 1100.54 -3.6374 2.47753 0
M  V30 11731 H 1097.66 -0.517189 0.525056 0
M  V30 11732 H 1100.3 -0.75361 1.74415 0
M  V30 11733 H 1098.45 -3.1889 2.21904 0
M  V30 11734 H 1100.12 -1.63303 4.31428 0
M  V30 11735 H 1098.36 -1.47057 4.08114 0
M  V30 11736 H 1099.03 -3.01053 4.62678 0
M  V30 11737 H 1101.51 -3.16111 2.70579 0
M  V30 11738 H 1100.39 -4.44512 3.22025 0
M  V30 11739 H 1100.65 -4.15607 1.50742 0
M  V30 11740 N 1099.71 -1.29285 -0.901281 0
M  V30 11741 C 1100.93 -1.20169 -1.69039 0
M  V30 11742 C 1101.36 0.234509 -1.86632 0
M  V30 11743 O 1100.71 1.16935 -1.38549 0
M  V30 11744 C 1100.76 -1.91852 -3.05328 0
M  V30 11745 O 1099.87 -1.23448 -3.9349 0
M  V30 11746 H 1099.21 -0.416486 -0.517141 0
M  V30 11747 H 1101.74 -1.70826 -1.12603 0
M  V30 11748 H 1101.75 -2.00244 -3.5548 0
M  V30 11749 H 1100.42 -2.96313 -2.91841 0
M  V30 11750 H 1099 -1.23303 -3.51924 0
M  V30 11751 N 1101.18 1.11143 -1.11736 0
M  V30 11752 C 1102.43 1.82311 -0.862875 0
M  V30 11753 C 1102.75 1.85735 0.613326 0
M  V30 11754 O 1103.95 2.53034 0.984168 0
M  V30 11755 C 1102.41 3.27427 -1.49396 0
M  V30 11756 C 1102.02 3.32323 -3.00443 0
M  V30 11757 C 1103.76 4.03474 -1.31944 0
M  V30 11758 C 1101.67 4.71855 -3.56521 0
M  V30 11759 H 1100.6 0.683124 -0.31915 0
M  V30 11760 H 1103.25 1.25045 -1.34298 0
M  V30 11761 H 1101.63 3.84644 -0.941528 0
M  V30 11762 H 1102.8 2.84971 -3.62117 0
M  V30 11763 H 1101.12 2.69758 -3.17206 0
M  V30 11764 H 1103.72 5.06528 -1.71271 0
M  V30 11765 H 1104.06 4.15473 -0.262339 0
M  V30 11766 H 1104.59 3.52652 -1.84069 0
M  V30 11767 H 1101.33 4.65054 -4.61958 0
M  V30 11768 H 1100.85 5.19604 -2.99619 0
M  V30 11769 H 1102.53 5.40816 -3.55144 0
M  V30 11770 N 1102.66 0.908147 1.28804 0
M  V30 11771 C 1103.61 0.382315 2.29437 0
M  V30 11772 C 1104.6 -0.523033 1.61123 0
M  V30 11773 O 1105.81 -0.404898 1.75387 0
M  V30 11774 H 1102.19 0.105022 0.74463 0
M  V30 11775 H 1104.16 1.24425 2.71221 0
M  V30 11776 C 1102.91 -0.367475 3.45753 0
M  V30 11777 H 1102.23 0.319957 3.98518 0
M  V30 11778 H 1103.67 -0.700131 4.1818 0
M  V30 11779 C 1102.13 -1.57329 2.97908 0
M  V30 11780 O 1102.66 -2.67248 2.99902 0
M  V30 11781 N 1100.86 -1.41835 2.53636 0
M  V30 11782 H 1100.41 -0.524099 2.52212 0
M  V30 11783 H 1100.37 -2.22645 2.21984 0
M  V30 11784 N 1104.14 -1.42577 0.671525 0
M  V30 11785 C 1105.09 -2.32591 -0.0205354 0
M  V30 11786 C 1106.08 -1.4964 -0.793993 0
M  V30 11787 O 1107.29 -1.65733 -0.702327 0
M  V30 11788 H 1103.66 -0.75157 -0.0254344 0
M  V30 11789 H 1105.63 -2.88662 0.756082 0
M  V30 11790 C 1104.38 -3.34175 -0.960316 0
M  V30 11791 H 1103.71 -3.98041 -0.374577 0
M  V30 11792 H 1105.15 -3.99752 -1.4133 0
M  V30 11793 C 1103.61 -2.66184 -2.06513 0
M  V30 11794 O 1104.14 -2.49125 -3.15119 0
M  V30 11795 N 1102.34 -2.25261 -1.83591 0
M  V30 11796 H 1101.89 -2.39336 -0.952689 0
M  V30 11797 H 1101.85 -1.80101 -2.57703 0
M  V30 11798 N 1105.62 -0.414636 -1.52048 0
M  V30 11799 C 1106.55 0.399119 -2.30064 0
M  V30 11800 C 1107.53 1.04126 -1.34506 0
M  V30 11801 O 1108.71 1.04923 -1.63416 0
M  V30 11802 C 1105.84 1.51305 -3.12608 0
M  V30 11803 C 1104.8 0.995621 -4.16259 0
M  V30 11804 C 1104.12 2.20357 -4.87183 0
M  V30 11805 C 1105.42 0.0458178 -5.2228 0
M  V30 11806 H 1107.12 -0.251879 -2.98339 0
M  V30 11807 H 1104.66 -0.122579 -1.43477 0
M  V30 11808 H 1106.62 2.08936 -3.65956 0
M  V30 11809 H 1105.34 2.19201 -2.42113 0
M  V30 11810 H 1104 0.441676 -3.6393 0
M  V30 11811 H 1103.65 2.8682 -4.13211 0
M  V30 11812 H 1103.35 1.86385 -5.57256 0
M  V30 11813 H 1104.87 2.78584 -5.43345 0
M  V30 11814 H 1106.29 0.531102 -5.70835 0
M  V30 11815 H 1104.68 -0.20536 -5.99749 0
M  V30 11816 H 1105.75 -0.897807 -4.76516 0
M  V30 11817 N 1107.1 1.56929 -0.145233 0
M  V30 11818 C 1108.33 2.00141 0.51257 0
M  V30 11819 C 1108.73 1.0243 1.59075 0
M  V30 11820 O 1108.08 0.0130063 1.83695 0
M  V30 11821 C 1108.14 3.39785 1.17417 0
M  V30 11822 C 1107.8 4.56365 0.240801 0
M  V30 11823 C 1108.8 5.17183 -0.530847 0
M  V30 11824 C 1106.49 5.02093 0.144221 0
M  V30 11825 C 1108.48 6.22136 -1.38654 0
M  V30 11826 C 1106.17 6.06902 -0.71508 0
M  V30 11827 C 1107.16 6.66793 -1.47907 0
M  V30 11828 O 1106.85 7.69573 -2.32405 0
M  V30 11829 H 1106.58 0.661747 0.138085 0
M  V30 11830 H 1109.14 2.04037 -0.236269 0
M  V30 11831 H 1107.37 3.32722 1.97061 0
M  V30 11832 H 1109.06 3.67115 1.73152 0
M  V30 11833 H 1109.82 4.82754 -0.466256 0
M  V30 11834 H 1105.7 4.55206 0.728613 0
M  V30 11835 H 1109.25 6.68812 -1.98333 0
M  V30 11836 H 1105.14 6.40758 -0.78097 0
M  V30 11837 H 1105.91 7.86786 -2.25634 0
M  V30 11838 N 1108.58 -0.128553 1.57075 0
M  V30 11839 C 1109.99 -0.686713 1.73612 0
M  V30 11840 C 1110.34 -1.80778 0.762478 0
M  V30 11841 O 1109.46 -2.16297 -0.0667779 0
M  V30 11842 C 1110.06 -1.25246 3.148 0
M  V30 11843 C 1108.62 -1.757 3.32876 0
M  V30 11844 C 1107.76 -0.652844 2.69506 0
M  V30 11845 H 1110.71 0.0972859 1.58402 0
M  V30 11846 H 1110.74 -2.1222 3.15821 0
M  V30 11847 H 1110.25 -0.436308 3.8564 0
M  V30 11848 H 1108.35 -2.59824 2.67063 0
M  V30 11849 H 1108.46 -1.87302 4.4097 0
M  V30 11850 H 1106.83 -1.08408 2.30477 0
M  V30 11851 H 1107.61 0.15217 3.42963 0
M  V30 11852 N 1110.05 -1.5248 -0.398459 0
M  V30 11853 C 1111.3 -1.66731 -1.14215 0
M  V30 11854 C 1111.62 -0.404957 -1.90749 0
M  V30 11855 O 1110.89 0.580434 -1.87104 0
M  V30 11856 H 1109.47 -0.614577 -0.424622 0
M  V30 11857 H 1112.13 -1.89561 -0.453059 0
M  V30 11858 H 1111.23 -2.51336 -1.85031 0
M  V30 11859 N 1111.53 0.65634 -1.43283 0
M  V30 11860 C 1112.77 1.4281 -1.46235 0
M  V30 11861 C 1113.14 1.9182 -0.0830126 0
M  V30 11862 O 1114.34 2.68797 0.0127701 0
M  V30 11863 C 1112.61 2.58008 -2.47319 0
M  V30 11864 S 1114.17 3.46582 -2.69122 0
M  V30 11865 H 1110.98 0.487523 -0.517534 0
M  V30 11866 H 1113.59 0.762298 -1.80026 0
M  V30 11867 H 1112.29 2.20271 -3.46279 0
M  V30 11868 H 1111.82 3.29441 -2.15016 0
M  V30 11869 H 1113.84 4.54629 -1.98813 0
M  V30 11870 N 1113.01 1.29761 0.894412 0
M  V30 11871 C 1113.92 1.1724 2.03204 0
M  V30 11872 C 1114.94 0.0944452 1.73743 0
M  V30 11873 O 1116.11 0.307549 1.99038 0
M  V30 11874 C 1113.18 0.855416 3.35981 0
M  V30 11875 C 1112.24 2.01777 3.78926 0
M  V30 11876 C 1111.47 1.71581 5.05367 0
M  V30 11877 O 1111.69 0.639245 5.66807 0
M  V30 11878 O 1110.63 2.56539 5.44492 0
M  V30 11879 H 1114.45 2.12787 2.16692 0
M  V30 11880 H 1112.04 1.09264 1.0189 0
M  V30 11881 H 1113.92 0.693429 4.15656 0
M  V30 11882 H 1112.6 -0.0702195 3.23624 0
M  V30 11883 H 1111.5 2.23502 2.99996 0
M  V30 11884 H 1112.84 2.92479 3.95875 0
M  V30 11885 N 1114.49 -1.10549 1.12324 0
M  V30 11886 C 1115.44 -2.18944 0.785248 0
M  V30 11887 C 1116.43 -1.67867 -0.227389 0
M  V30 11888 O 1117.64 -1.79796 -0.0857162 0
M  V30 11889 H 1114.01 -0.713976 0.236098 0
M  V30 11890 H 1115.98 -2.44692 1.70788 0
M  V30 11891 C 1114.73 -3.46765 0.25485 0
M  V30 11892 H 1114.05 -3.86428 1.02534 0
M  V30 11893 H 1115.49 -4.23962 0.0566526 0
M  V30 11894 C 1113.95 -3.21185 -1.01695 0
M  V30 11895 O 1114.48 -3.42745 -2.09497 0
M  V30 11896 N 1112.69 -2.7486 -0.943423 0
M  V30 11897 H 1112.24 -2.57515 -0.0660366 0
M  V30 11898 H 1112.19 -2.58122 -1.795 0
M  V30 11899 N 1115.97 -0.914965 -1.28321 0
M  V30 11900 C 1117.21 -0.549562 -1.95212 0
M  V30 11901 C 1117.54 0.904658 -1.71842 0
M  V30 11902 O 1116.82 1.64354 -1.04009 0
M  V30 11903 C 1117.1 -0.860927 -3.49657 0
M  V30 11904 C 1116.96 -2.36797 -3.82423 0
M  V30 11905 C 1118.27 -0.357926 -4.38642 0
M  V30 11906 H 1115.39 -0.201136 -0.709023 0
M  V30 11907 H 1118.04 -1.14443 -1.51667 0
M  V30 11908 H 1116.19 -0.354665 -3.86878 0
M  V30 11909 H 1117.86 -2.94494 -3.55065 0
M  V30 11910 H 1116.1 -2.82245 -3.29424 0
M  V30 11911 H 1116.77 -2.53637 -4.90278 0
M  V30 11912 H 1119.25 -0.791636 -4.085 0
M  V30 11913 H 1118.12 -0.604855 -5.45557 0
M  V30 11914 H 1118.38 0.741775 -4.35833 0
M  V30 11915 N 1117.44 1.42219 -0.679077 0
M  V30 11916 C 1118.67 2.06333 -0.210097 0
M  V30 11917 C 1119.09 1.50703 1.12562 0
M  V30 11918 O 1118.45 0.627241 1.70104 0
M  V30 11919 C 1118.5 3.60243 -0.160322 0
M  V30 11920 O 1117.6 4.03122 0.869872 0
M  V30 11921 H 1116.94 0.655362 -0.106754 0
M  V30 11922 H 1119.47 1.82278 -0.929294 0
M  V30 11923 H 1119.48 4.07997 0.014384 0
M  V30 11924 H 1118.16 4.00106 -1.13526 0
M  V30 11925 H 1116.74 3.66907 0.66586 0
M  V30 11926 N 1118.92 0.422693 1.51826 0
M  V30 11927 C 1120.17 -0.148861 2.02253 0
M  V30 11928 C 1120.5 -1.43629 1.30707 0
M  V30 11929 O 1119.78 -1.89967 0.417482 0
M  V30 11930 C 1120.06 -0.382672 3.58061 0
M  V30 11931 C 1119.91 0.922386 4.40241 0
M  V30 11932 C 1121.23 -1.1589 4.24567 0
M  V30 11933 H 1118.35 -0.0526279 0.735119 0
M  V30 11934 H 1120.99 0.558821 1.81596 0
M  V30 11935 H 1119.14 -0.985495 3.75793 0
M  V30 11936 H 1120.81 1.55806 4.34191 0
M  V30 11937 H 1119.06 1.53032 4.05911 0
M  V30 11938 H 1119.73 0.713012 5.47376 0
M  V30 11939 H 1122.2 -0.648415 4.11017 0
M  V30 11940 H 1121.08 -1.29125 5.33496 0
M  V30 11941 H 1121.34 -2.18315 3.84436 0
M  V30 11942 N 1120.4 -1.5685 0.153553 0
M  V30 11943 C 1121.82 -1.58306 -0.202801 0
M  V30 11944 C 1122.02 -1.16813 -1.64186 0
M  V30 11945 O 1121.07 -0.871468 -2.36985 0
M  V30 11946 C 1122.38 -3.00636 0.0619012 0
M  V30 11947 C 1123.93 -3.13 -0.00129219 0
M  V30 11948 C 1124.41 -4.57391 0.236164 0
M  V30 11949 N 1125.9 -4.62837 0.18332 0
M  V30 11950 C 1126.63 -5.72382 0.341471 0
M  V30 11951 N 1126.13 -6.90552 0.557704 0
M  V30 11952 N 1127.92 -5.61409 0.278615 0
M  V30 11953 H 1120.07 -1.82113 1.09309 0
M  V30 11954 H 1122.34 -0.843228 0.433209 0
M  V30 11955 H 1122.04 -3.35406 1.0581 0
M  V30 11956 H 1121.92 -3.71477 -0.654555 0
M  V30 11957 H 1124.3 -2.78068 -0.98805 0
M  V30 11958 H 1124.38 -2.44632 0.747596 0
M  V30 11959 H 1124.03 -4.93029 1.22005 0
M  V30 11960 H 1123.96 -5.23894 -0.533125 0
M  V30 11961 H 1126.45 -3.77894 0.0211138 0
M  V30 11962 H 1126.76 -7.69905 0.66831 0
M  V30 11963 H 1125.11 -6.92456 0.594105 0
M  V30 11964 H 1128.3 -4.6797 0.110401 0
M  V30 11965 H 1128.47 -6.46731 0.4053 0
M  V30 11966 N 1121.88 0.120221 -1.57141 0
M  V30 11967 C 1123.1 0.84637 -1.89344 0
M  V30 11968 C 1123.53 1.72702 -0.745365 0
M  V30 11969 O 1122.89 1.7873 0.304155 0
M  V30 11970 C 1122.93 1.65671 -3.20289 0
M  V30 11971 O 1122.04 2.76353 -3.06109 0
M  V30 11972 H 1121.38 0.234132 -0.621352 0
M  V30 11973 H 1123.91 0.102986 -2.04341 0
M  V30 11974 H 1123.92 2.04621 -3.52979 0
M  V30 11975 H 1122.59 1.01023 -4.03444 0
M  V30 11976 H 1121.17 2.40615 -2.84884 0
M  V30 11977 N 1123.36 1.52689 0.390367 0
M  V30 11978 C 1124.77 1.41909 0.730338 0
M  V30 11979 C 1124.97 0.538427 1.94173 0
M  V30 11980 O 1124.03 0.0113527 2.52497 0
M  V30 11981 C 1125.34 2.84737 0.966714 0
M  V30 11982 C 1126.89 2.94206 1.06827 0
M  V30 11983 C 1127.36 4.38042 1.33728 0
M  V30 11984 N 1128.86 4.4136 1.40553 0
M  V30 11985 C 1129.59 5.49735 1.63031 0
M  V30 11986 N 1129.09 6.68197 1.82988 0
M  V30 11987 N 1130.88 5.37276 1.65199 0
M  V30 11988 H 1123.03 2.08469 -0.406766 0
M  V30 11989 H 1125.29 0.940401 -0.11979 0
M  V30 11990 H 1125 3.51385 0.148725 0
M  V30 11991 H 1124.87 3.26909 1.88176 0
M  V30 11992 H 1127.26 2.27726 1.87683 0
M  V30 11993 H 1127.34 2.55463 0.131168 0
M  V30 11994 H 1126.99 5.05087 0.533832 0
M  V30 11995 H 1126.92 4.74336 2.28721 0
M  V30 11996 H 1129.41 3.55976 1.26844 0
M  V30 11997 H 1129.72 7.46567 1.99643 0
M  V30 11998 H 1128.06 6.71228 1.80215 0
M  V30 11999 H 1131.26 4.437 1.49158 0
M  V30 12000 H 1131.43 6.21806 1.82377 0
M  V30 12001 N 1124.83 -0.648732 1.43629 0
M  V30 12002 C 1126.06 -1.44117 1.49148 0
M  V30 12003 C 1126.48 -1.87767 0.111952 0
M  V30 12004 O 1125.84 -1.57655 -0.895249 0
M  V30 12005 C 1125.89 -2.64938 2.44623 0
M  V30 12006 O 1124.99 -3.64155 1.93559 0
M  V30 12007 H 1124.34 -0.431933 0.504312 0
M  V30 12008 H 1126.87 -0.793439 1.88589 0
M  V30 12009 H 1126.88 -3.12698 2.62076 0
M  V30 12010 H 1125.55 -2.3251 3.44836 0
M  V30 12011 H 1124.13 -3.23322 1.85789 0
M  V30 12012 N 1126.31 -1.30234 -0.887518 0
M  V30 12013 C 1127.25 -1.10726 -1.99537 0
M  V30 12014 C 1128.22 -0.0156237 -1.62592 0
M  V30 12015 O 1129.41 -0.168687 -1.87744 0
M  V30 12016 C 1126.53 -0.688185 -3.31635 0
M  V30 12017 C 1125.58 -1.78031 -3.87566 0
M  V30 12018 S 1126.41 -3.38219 -4.15172 0
M  V30 12019 C 1127.57 -2.98208 -5.50293 0
M  V30 12020 H 1127.8 -2.04516 -2.15778 0
M  V30 12021 H 1125.34 -1.14519 -1.0356 0
M  V30 12022 H 1127.29 -0.453124 -4.07991 0
M  V30 12023 H 1125.95 0.230315 -3.13254 0
M  V30 12024 H 1125.15 -1.43931 -4.83011 0
M  V30 12025 H 1124.75 -1.96952 -3.1794 0
M  V30 12026 H 1127.04 -2.4601 -6.31257 0
M  V30 12027 H 1127.98 -3.92551 -5.89329 0
M  V30 12028 H 1128.39 -2.36149 -5.12732 0
M  V30 12029 N 1127.79 1.09952 -1.12909 0
M  V30 12030 C 1128.72 2.15689 -0.745217 0
M  V30 12031 C 1129.7 1.60409 0.266007 0
M  V30 12032 O 1130.89 1.8783 0.158783 0
M  V30 12033 C 1128.01 3.38541 -0.103846 0
M  V30 12034 C 1127.06 4.12529 -1.0827 0
M  V30 12035 S 1127.89 4.67442 -2.61262 0
M  V30 12036 C 1129.05 5.936 -1.9847 0
M  V30 12037 H 1129.28 2.47918 -1.64086 0
M  V30 12038 H 1126.81 1.21817 -0.948682 0
M  V30 12039 H 1128.77 4.09677 0.259816 0
M  V30 12040 H 1127.43 3.04541 0.768982 0
M  V30 12041 H 1126.63 5.00632 -0.581653 0
M  V30 12042 H 1126.23 3.47228 -1.38955 0
M  V30 12043 H 1128.52 6.64308 -1.33048 0
M  V30 12044 H 1129.46 6.48374 -2.84634 0
M  V30 12045 H 1129.87 5.45864 -1.43848 0
M  V30 12046 N 1129.27 0.921757 1.27833 0
M  V30 12047 C 1130.52 0.559078 1.94629 0
M  V30 12048 C 1130.84 -0.898641 1.72495 0
M  V30 12049 O 1130.1 -1.65546 1.0437 0
M  V30 12050 C 1130.4 0.824259 3.47765 0
M  V30 12051 C 1130.06 2.26278 3.90011 0
M  V30 12052 C 1128.73 2.65607 4.01256 0
M  V30 12053 C 1131.08 3.19853 4.11513 0
M  V30 12054 C 1128.41 3.97646 4.31387 0
M  V30 12055 C 1130.76 4.51467 4.43126 0
M  V30 12056 C 1129.42 4.90637 4.52583 0
M  V30 12057 H 1128.69 0.204581 0.712199 0
M  V30 12058 H 1131.34 1.1646 1.52018 0
M  V30 12059 H 1129.64 0.136011 3.91564 0
M  V30 12060 H 1131.34 0.522701 3.97579 0
M  V30 12061 H 1127.93 1.94765 3.81791 0
M  V30 12062 H 1132.11 2.90674 4.02271 0
M  V30 12063 H 1127.37 4.27685 4.36916 0
M  V30 12064 H 1131.54 5.23982 4.58711 0
M  V30 12065 H 1129.17 5.92982 4.75685 0
M  V30 12066 N 1130.75 -1.41857 0.686609 0
M  V30 12067 C 1131.66 -2.34595 0.0159005 0
M  V30 12068 C 1132.67 -1.55741 -0.775933 0
M  V30 12069 O 1133.85 -1.8826 -0.71555 0
M  V30 12070 C 1130.91 -3.34395 -0.915473 0
M  V30 12071 C 1129.97 -4.29141 -0.116851 0
M  V30 12072 C 1129.21 -5.24174 -1.00386 0
M  V30 12073 O 1129.43 -5.24431 -2.2434 0
M  V30 12074 O 1128.36 -6.00152 -0.458337 0
M  V30 12075 H 1132.19 -2.9351 0.780101 0
M  V30 12076 H 1129.78 -1.42559 0.446896 0
M  V30 12077 H 1131.66 -3.95675 -1.44981 0
M  V30 12078 H 1130.33 -2.77936 -1.65932 0
M  V30 12079 H 1129.24 -3.71238 0.461871 0
M  V30 12080 H 1130.57 -4.88673 0.588138 0
M  V30 12081 N 1132.22 -0.430739 -1.51599 0
M  V30 12082 C 1133.64 0.0339139 -1.86669 0
M  V30 12083 C 1133.99 1.42533 -1.34829 0
M  V30 12084 O 1133.11 2.04889 -0.696376 0
M  V30 12085 C 1133.71 0.0683174 -3.38731 0
M  V30 12086 C 1132.27 0.477363 -3.73361 0
M  V30 12087 C 1131.41 -0.334258 -2.75278 0
M  V30 12088 H 1134.36 -0.646875 -1.44918 0
M  V30 12089 H 1134.38 0.879179 -3.70204 0
M  V30 12090 H 1133.9 -0.944501 -3.76432 0
M  V30 12091 H 1132 1.49603 -3.41247 0
M  V30 12092 H 1132.11 0.206744 -4.78654 0
M  V30 12093 H 1130.47 0.206503 -2.53861 0
M  V30 12094 H 1131.26 -1.34583 -3.1582 0
M  V30 12095 N 1133.7 1.56767 -0.161869 0
M  V30 12096 C 1134.95 1.96206 0.484537 0
M  V30 12097 C 1135.27 1.04848 1.64414 0
M  V30 12098 O 1134.54 0.112946 1.95574 0
M  V30 12099 H 1133.12 0.724491 0.181994 0
M  V30 12100 H 1135.78 1.93406 -0.240845 0
M  V30 12101 H 1134.88 3.00279 0.85083 0
M  V30 12102 N 1135.18 -0.111886 1.57202 0
M  V30 12103 C 1136.11 -1.13796 2.03894 0
M  V30 12104 C 1137.09 -1.4277 0.924696 0
M  V30 12105 O 1138.28 -1.53089 1.19488 0
M  V30 12106 C 1135.41 -2.46229 2.44925 0
M  V30 12107 C 1134.36 -2.31702 3.59859 0
M  V30 12108 C 1133.69 -3.69161 3.86813 0
M  V30 12109 C 1134.99 -1.77158 4.91337 0
M  V30 12110 H 1136.68 -0.749581 2.89865 0
M  V30 12111 H 1134.23 -0.359126 1.3945 0
M  V30 12112 H 1136.18 -3.18267 2.76195 0
M  V30 12113 H 1134.9 -2.86971 1.55933 0
M  V30 12114 H 1133.56 -1.62112 3.28809 0
M  V30 12115 H 1133.21 -4.07401 2.95015 0
M  V30 12116 H 1132.91 -3.60292 4.6418 0
M  V30 12117 H 1134.43 -4.42693 4.20542 0
M  V30 12118 H 1135.85 -2.3902 5.21097 0
M  V30 12119 H 1134.25 -1.79091 5.72753 0
M  V30 12120 H 1135.32 -0.729675 4.79379 0
M  V30 12121 N 1136.66 -1.52894 -0.382264 0
M  V30 12122 C 1137.89 -1.72152 -1.14766 0
M  V30 12123 C 1138.3 -0.442911 -1.83531 0
M  V30 12124 O 1137.66 0.583085 -1.72935 0
M  V30 12125 C 1137.71 -2.87566 -2.19062 0
M  V30 12126 O 1137.43 -4.10478 -1.53099 0
M  V30 12127 C 1138.93 -3.18559 -3.08277 0
M  V30 12128 H 1136.15 -0.576212 -0.343832 0
M  V30 12129 H 1138.7 -1.99571 -0.446273 0
M  V30 12130 H 1136.85 -2.62589 -2.84826 0
M  V30 12131 H 1137.26 -4.74989 -2.22454 0
M  V30 12132 H 1138.74 -4.02763 -3.77473 0
M  V30 12133 H 1139.22 -2.33222 -3.72161 0
M  V30 12134 H 1139.82 -3.454 -2.48151 0
M  V30 12135 N 1138.14 0.641106 -1.43971 0
M  V30 12136 C 1139.08 1.75352 -1.50068 0
M  V30 12137 C 1140.05 1.62386 -0.349266 0
M  V30 12138 O 1141.24 1.82455 -0.558118 0
M  V30 12139 C 1138.38 3.13561 -1.4413 0
M  V30 12140 C 1137.49 3.37574 -2.6957 0
M  V30 12141 C 1136.63 4.65698 -2.55535 0
M  V30 12142 C 1135.67 4.82857 -3.76186 0
M  V30 12143 N 1134.8 6.02249 -3.60888 0
M  V30 12144 H 1139.64 1.69477 -2.45116 0
M  V30 12145 H 1137.18 0.826871 -1.2166 0
M  V30 12146 H 1139.14 3.93476 -1.38681 0
M  V30 12147 H 1137.77 3.18476 -0.526563 0
M  V30 12148 H 1136.82 2.5167 -2.85248 0
M  V30 12149 H 1138.13 3.46135 -3.59154 0
M  V30 12150 H 1137.29 5.53759 -2.47862 0
M  V30 12151 H 1136.03 4.59479 -1.63495 0
M  V30 12152 H 1135.03 3.93229 -3.84254 0
M  V30 12153 H 1136.26 4.90898 -4.6925 0
M  V30 12154 H 1134.2 5.97138 -2.71591 0
M  V30 12155 H 1134.12 6.11822 -4.44083 0
M  V30 12156 H 1135.39 6.92898 -3.57088 0
M  V30 12157 N 1139.62 1.30703 0.880598 0
M  V30 12158 C 1140.86 1.19541 1.62955 0
M  V30 12159 C 1141.18 -0.249089 1.93403 0
M  V30 12160 O 1140.45 -1.1669 1.57354 0
M  V30 12161 H 1139.03 0.439434 0.604075 0
M  V30 12162 H 1141.7 1.63888 1.05483 0
M  V30 12163 H 1140.79 1.75945 2.57779 0
M  V30 12164 N 1141.09 -1.09351 1.1349 0
M  V30 12165 C 1142.03 -2.15291 0.756645 0
M  V30 12166 C 1143 -1.60548 -0.257497 0
M  V30 12167 O 1144.19 -1.87912 -0.14882 0
M  V30 12168 C 1141.32 -3.38481 0.121799 0
M  V30 12169 C 1140.36 -4.11949 1.10456 0
M  V30 12170 S 1141.19 -4.6605 2.63738 0
M  V30 12171 C 1142.35 -5.92539 2.01615 0
M  V30 12172 H 1142.58 -2.47044 1.65398 0
M  V30 12173 H 1140.12 -1.21312 0.955129 0
M  V30 12174 H 1142.07 -4.09809 -0.238086 0
M  V30 12175 H 1140.74 -3.04945 -0.752821 0
M  V30 12176 H 1139.93 -5.00317 0.608195 0
M  V30 12177 H 1139.53 -3.46486 1.40795 0
M  V30 12178 H 1141.82 -6.63593 1.36569 0
M  V30 12179 H 1142.77 -6.46856 2.88068 0
M  V30 12180 H 1143.17 -5.45094 1.46741 0
M  V30 12181 N 1142.57 -0.928524 -1.27343 0
M  V30 12182 C 1143.5 -0.445627 -2.29208 0
M  V30 12183 C 1144.48 0.494508 -1.62753 0
M  V30 12184 O 1145.67 0.399082 -1.90055 0
M  V30 12185 C 1142.8 0.301684 -3.45987 0
M  V30 12186 C 1141.75 -0.550695 -4.24442 0
M  V30 12187 C 1141.08 0.325833 -5.33706 0
M  V30 12188 C 1142.38 -1.81559 -4.89728 0
M  V30 12189 H 1144.07 -1.29696 -2.69851 0
M  V30 12190 H 1141.62 -0.625085 -1.29725 0
M  V30 12191 H 1143.57 0.650455 -4.1635 0
M  V30 12192 H 1142.29 1.18705 -3.04264 0
M  V30 12193 H 1140.95 -0.882185 -3.55827 0
M  V30 12194 H 1140.6 1.21018 -4.88225 0
M  V30 12195 H 1140.3 -0.240994 -5.87106 0
M  V30 12196 H 1141.83 0.670156 -6.06911 0
M  V30 12197 H 1143.24 -1.53483 -5.52373 0
M  V30 12198 H 1141.64 -2.32598 -5.53189 0
M  V30 12199 H 1142.71 -2.53461 -4.13383 0
M  V30 12200 N 1144.05 1.41491 -0.694123 0
M  V30 12201 C 1144.96 2.34583 -0.0283414 0
M  V30 12202 C 1145.98 1.5615 0.767662 0
M  V30 12203 O 1147.15 1.88637 0.705556 0
M  V30 12204 C 1144.22 3.34876 0.897726 0
M  V30 12205 C 1143.28 4.29197 0.0940905 0
M  V30 12206 C 1142.51 5.24699 0.976051 0
M  V30 12207 O 1142.73 5.25613 2.21556 0
M  V30 12208 O 1141.67 6.00387 0.426503 0
M  V30 12209 H 1145.49 2.93092 -0.795656 0
M  V30 12210 H 1143.08 1.4232 -0.45445 0
M  V30 12211 H 1144.96 3.96438 1.4288 0
M  V30 12212 H 1143.64 2.78812 1.64456 0
M  V30 12213 H 1142.54 3.70988 -0.481552 0
M  V30 12214 H 1143.88 4.88355 -0.614045 0
M  V30 12215 N 1145.53 0.438773 1.51369 0
M  V30 12216 C 1146.77 -0.127401 2.02399 0
M  V30 12217 C 1147.11 -1.42235 1.32223 0
M  V30 12218 O 1146.38 -1.89513 0.437607 0
M  V30 12219 C 1146.66 -0.344673 3.58447 0
M  V30 12220 C 1146.52 0.969027 4.39238 0
M  V30 12221 C 1147.84 -1.11381 4.25773 0
M  V30 12222 H 1144.96 -0.0448281 0.735635 0
M  V30 12223 H 1147.6 0.57805 1.80993 0
M  V30 12224 H 1145.75 -0.945582 3.76817 0
M  V30 12225 H 1147.42 1.60403 4.32514 0
M  V30 12226 H 1145.66 1.57329 4.04265 0
M  V30 12227 H 1146.33 0.771029 5.46589 0
M  V30 12228 H 1148.81 -0.604785 4.11681 0
M  V30 12229 H 1147.69 -1.23459 5.34835 0
M  V30 12230 H 1147.95 -2.14225 3.8673 0
M  V30 12231 N 1147.01 -1.56678 0.170181 0
M  V30 12232 C 1148.25 -1.96849 -0.475064 0
M  V30 12233 C 1148.58 -1.05611 -1.6333 0
M  V30 12234 O 1147.84 -0.0899708 -1.95493 0
M  V30 12235 C 1148.13 -3.43103 -1.00076 0
M  V30 12236 C 1147.8 -4.50881 0.0414538 0
M  V30 12237 C 1146.46 -4.80082 0.327894 0
M  V30 12238 C 1148.81 -5.15791 0.748936 0
M  V30 12239 C 1146.14 -5.71491 1.32722 0
M  V30 12240 C 1148.49 -6.08278 1.73724 0
M  V30 12241 C 1147.16 -6.35847 2.03114 0
M  V30 12242 H 1146.43 -0.72032 -0.173838 0
M  V30 12243 H 1149.08 -1.89701 0.261903 0
M  V30 12244 H 1147.38 -3.47197 -1.81553 0
M  V30 12245 H 1149.08 -3.71525 -1.50899 0
M  V30 12246 H 1145.67 -4.2817 -0.191976 0
M  V30 12247 H 1149.85 -4.93344 0.540852 0
M  V30 12248 H 1145.11 -5.91134 1.56112 0
M  V30 12249 H 1149.28 -6.57643 2.29082 0
M  V30 12250 H 1146.91 -7.06479 2.80698 0
M  V30 12251 N 1148.48 0.103547 -1.57259 0
M  V30 12252 C 1149.73 0.809774 -1.85931 0
M  V30 12253 C 1150.06 1.78791 -0.758122 0
M  V30 12254 O 1149.34 1.93079 0.234682 0
M  V30 12255 C 1149.62 1.54601 -3.25224 0
M  V30 12256 C 1149.47 0.586439 -4.45961 0
M  V30 12257 C 1150.79 2.4986 -3.62296 0
M  V30 12258 H 1147.91 0.29293 -0.676285 0
M  V30 12259 H 1150.55 0.0736065 -1.89857 0
M  V30 12260 H 1148.7 2.17355 -3.22008 0
M  V30 12261 H 1150.38 -0.0334441 -4.61288 0
M  V30 12262 H 1148.62 -0.10085 -4.33683 0
M  V30 12263 H 1149.29 1.13855 -5.40131 0
M  V30 12264 H 1151.77 1.97203 -3.66402 0
M  V30 12265 H 1150.64 2.98396 -4.60707 0
M  V30 12266 H 1150.9 3.33233 -2.90531 0
M  V30 12267 N 1149.96 1.53094 0.37415 0
M  V30 12268 C 1150.92 1.78264 1.44065 0
M  V30 12269 C 1151.92 0.652892 1.46949 0
M  V30 12270 O 1153.11 0.921046 1.47859 0
M  V30 12271 C 1150.25 1.89693 2.83248 0
M  V30 12272 H 1151.44 2.73505 1.23025 0
M  V30 12273 H 1148.99 1.44041 0.60678 0
M  V30 12274 H 1149.73 0.964884 3.09613 0
M  V30 12275 H 1149.51 2.71855 2.82554 0
M  V30 12276 H 1151 2.10787 3.60498 0
M  V30 12277 N 1151.44 -0.633461 1.44309 0
M  V30 12278 C 1152.85 -1.21504 1.41752 0
M  V30 12279 C 1153.2 -1.95758 0.131667 0
M  V30 12280 O 1152.33 -2.02311 -0.768072 0
M  V30 12281 C 1152.92 -2.21005 2.56792 0
M  V30 12282 C 1151.48 -2.74596 2.57438 0
M  V30 12283 C 1150.63 -1.49555 2.33513 0
M  V30 12284 H 1153.58 -0.424277 1.52923 0
M  V30 12285 H 1153.6 -3.03563 2.29412 0
M  V30 12286 H 1153.11 -1.66934 3.50364 0
M  V30 12287 H 1151.21 -3.32676 1.67801 0
M  V30 12288 H 1151.33 -3.20794 3.55849 0
M  V30 12289 H 1149.69 -1.77605 1.82561 0
M  V30 12290 H 1150.47 -0.973899 3.29196 0
M  V30 12291 N 1152.92 -1.31168 -0.873655 0
M  V30 12292 C 1154.15 -1.23595 -1.65927 0
M  V30 12293 C 1154.56 0.199349 -1.87745 0
M  V30 12294 O 1153.92 1.13013 -1.43298 0
M  V30 12295 C 1153.97 -1.97268 -3.02932 0
M  V30 12296 O 1153.69 -3.35196 -2.82091 0
M  V30 12297 C 1155.19 -1.9649 -3.97374 0
M  V30 12298 H 1152.41 -0.427228 -0.517414 0
M  V30 12299 H 1154.96 -1.72983 -1.09074 0
M  V30 12300 H 1153.11 -1.51651 -3.56484 0
M  V30 12301 H 1153.52 -3.7266 -3.69087 0
M  V30 12302 H 1155 -2.52557 -4.90835 0
M  V30 12303 H 1155.48 -0.946525 -4.28879 0
M  V30 12304 H 1156.08 -2.4197 -3.49758 0
M  V30 12305 N 1154.4 1.08748 -1.14068 0
M  V30 12306 C 1155.35 2.13762 -0.793087 0
M  V30 12307 C 1156.33 1.59442 0.216123 0
M  V30 12308 O 1157.52 1.7699 0.0189888 0
M  V30 12309 C 1154.65 3.42249 -0.268432 0
M  V30 12310 C 1153.74 4.03459 -1.30696 0
M  V30 12311 N 1154.13 4.39126 -2.51002 0
M  V30 12312 C 1152.43 4.30748 -1.15637 0
M  V30 12313 C 1153.13 4.87438 -3.17457 0
M  V30 12314 N 1152.1 4.85326 -2.44866 0
M  V30 12315 H 1155.91 2.39152 -1.70831 0
M  V30 12316 H 1153.42 1.26046 -1.02403 0
M  V30 12317 H 1155.42 4.169 -0.00113254 0
M  V30 12318 H 1154.08 3.18309 0.641032 0
M  V30 12319 H 1155.09 4.30266 -2.88256 0
M  V30 12320 H 1151.76 4.1638 -0.305636 0
M  V30 12321 H 1153.15 5.24443 -4.20011 0
M  V30 12322 N 1155.87 0.935264 1.26849 0
M  V30 12323 C 1156.82 0.411166 2.24262 0
M  V30 12324 C 1157.81 -0.488804 1.53296 0
M  V30 12325 O 1159 -0.325015 1.7399 0
M  V30 12326 C 1156.13 -0.327941 3.4173 0
M  V30 12327 C 1155.22 0.58898 4.1999 0
M  V30 12328 N 1155.61 1.71216 4.7594 0
M  V30 12329 C 1153.9 0.393431 4.44261 0
M  V30 12330 C 1154.61 2.28306 5.35024 0
M  V30 12331 N 1153.58 1.57176 5.20381 0
M  V30 12332 H 1157.38 1.26864 2.65109 0
M  V30 12333 H 1154.9 0.790429 1.41866 0
M  V30 12334 H 1156.89 -0.720404 4.10629 0
M  V30 12335 H 1155.55 -1.18225 3.02412 0
M  V30 12336 H 1156.57 2.09441 4.73661 0
M  V30 12337 H 1153.24 -0.419596 4.15386 0
M  V30 12338 H 1154.63 3.22909 5.89219 0
M  V30 12339 N 1157.35 -1.41121 0.701616 0
M  V30 12340 C 1158.76 -1.84122 0.309208 0
M  V30 12341 C 1159.11 -1.58695 -1.15371 0
M  V30 12342 O 1158.24 -1.06053 -1.88631 0
M  V30 12343 C 1158.83 -3.34233 0.554429 0
M  V30 12344 C 1157.39 -3.7578 0.215876 0
M  V30 12345 C 1156.54 -2.6447 0.833729 0
M  V30 12346 H 1159.49 -1.30587 0.901822 0
M  V30 12347 H 1159.51 -3.8005 -0.18491 0
M  V30 12348 H 1159.02 -3.52707 1.61923 0
M  V30 12349 H 1157.13 -3.62905 -0.844421 0
M  V30 12350 H 1157.24 -4.74319 0.675118 0
M  V30 12351 H 1155.6 -2.5334 0.262851 0
M  V30 12352 H 1156.39 -2.85761 1.90252 0
M  V30 12353 N 1158.83 -0.446794 -1.51134 0
M  V30 12354 C 1159.78 0.378002 -2.24845 0
M  V30 12355 C 1160.76 0.982126 -1.27448 0
M  V30 12356 O 1161.96 0.8987 -1.52487 0
M  V30 12357 C 1159.09 1.4733 -3.10079 0
M  V30 12358 C 1158.17 0.878102 -4.1491 0
M  V30 12359 N 1158.56 0.0129452 -5.05798 0
M  V30 12360 C 1156.86 1.14468 -4.3106 0
M  V30 12361 C 1157.56 -0.322333 -5.80806 0
M  V30 12362 N 1156.54 0.296438 -5.42791 0
M  V30 12363 H 1160.34 -0.28885 -2.92477 0
M  V30 12364 H 1157.85 -0.259439 -1.60314 0
M  V30 12365 H 1159.85 2.07713 -3.6147 0
M  V30 12366 H 1158.51 2.14239 -2.43992 0
M  V30 12367 H 1159.52 -0.354177 -5.16688 0
M  V30 12368 H 1156.2 1.81056 -3.76198 0
M  V30 12369 H 1157.59 -1.02693 -6.64006 0
M  V30 12370 N 1160.31 1.56586 -0.178487 0
M  V30 12371 C 1161.55 1.98994 0.466987 0
M  V30 12372 C 1161.91 1.06229 1.59935 0
M  V30 12373 O 1163.11 1.37806 2.30788 0
M  V30 12374 C 1161.38 3.45064 0.930899 0
M  V30 12375 S 1162.94 4.095 1.57655 0
M  V30 12376 H 1159.76 0.695007 0.149955 0
M  V30 12377 H 1162.36 1.93519 -0.27764 0
M  V30 12378 H 1161.07 4.10287 0.0964476 0
M  V30 12379 H 1160.6 3.54321 1.70939 0
M  V30 12380 H 1162.61 4.05139 2.86491 0
M  V30 12381 N 1161.79 -0.095206 1.57312 0
M  V30 12382 C 1163.01 -0.81614 1.90667 0
M  V30 12383 C 1163.44 -1.71494 0.772746 0
M  V30 12384 O 1162.79 -1.79192 -0.275682 0
M  V30 12385 C 1162.84 -1.60555 3.22885 0
M  V30 12386 O 1161.95 -2.71448 3.10467 0
M  V30 12387 H 1161.29 -0.224217 0.624998 0
M  V30 12388 H 1163.82 -0.070464 2.04479 0
M  V30 12389 H 1163.83 -1.98979 3.5619 0
M  V30 12390 H 1162.5 -0.945918 4.05 0
M  V30 12391 H 1161.08 -2.36053 2.88675 0
M  V30 12392 N 1163.26 -1.53291 -0.366026 0
M  V30 12393 C 1164.23 -1.79025 -1.43117 0
M  V30 12394 C 1165.23 -0.660676 -1.46601 0
M  V30 12395 O 1166.42 -0.928875 -1.47369 0
M  V30 12396 C 1163.55 -1.91192 -2.82238 0
M  V30 12397 H 1164.74 -2.74154 -1.21572 0
M  V30 12398 H 1162.3 -1.44361 -0.599132 0
M  V30 12399 H 1163.03 -0.98129 -3.09097 0
M  V30 12400 H 1162.82 -2.7335 -2.81109 0
M  V30 12401 H 1164.31 -2.12696 -3.59375 0
M  V30 12402 N 1164.74 0.6258 -1.44643 0
M  V30 12403 C 1166.02 1.38439 -1.38181 0
M  V30 12404 C 1166.4 2.11056 -0.0431928 0
M  V30 12405 O 1165.75 2.06683 0.974383 0
M  V30 12406 C 1165.96 2.34639 -2.58352 0
M  V30 12407 C 1167.31 2.97807 -3.02649 0
M  V30 12408 O 1168.33 2.44963 -2.58595 0
M  V30 12409 O 1167.19 3.93682 -3.79048 0
M  V30 12410 H 1164.28 0.619852 -0.54746 0
M  V30 12411 H 1166.83 0.650409 -1.56741 0
M  V30 12412 H 1165.6 1.80116 -3.47382 0
M  V30 12413 H 1165.22 3.15446 -2.42032 0
M  V30 12414 N 1166.22 1.31629 0.866686 0
M  V30 12415 C 1167.5 1.12136 1.60265 0
M  V30 12416 C 1167.88 -0.322729 2.08618 0
M  V30 12417 O 1167.23 -1.31738 1.86701 0
M  V30 12418 C 1167.44 2.13845 2.7581 0
M  V30 12419 C 1168.78 2.46541 3.45692 0
M  V30 12420 O 1169.81 2.12298 2.86021 0
M  V30 12421 O 1168.67 3.05194 4.53342 0
M  V30 12422 H 1165.76 0.431923 0.705246 0
M  V30 12423 H 1168.31 1.43119 0.911863 0
M  V30 12424 H 1167.08 3.10967 2.37518 0
M  V30 12425 H 1166.7 1.83786 3.52574 0
M  V30 12426 N 1167.7 -1.08142 1.14644 0
M  V30 12427 C 1168.63 -2.15022 0.793614 0
M  V30 12428 C 1169.64 -1.61679 -0.190729 0
M  V30 12429 O 1170.83 -1.78472 0.0313696 0
M  V30 12430 C 1167.93 -3.38532 0.157785 0
M  V30 12431 C 1167.11 -4.21252 1.17753 0
M  V30 12432 C 1166.17 -5.23158 0.564968 0
M  V30 12433 O 1165.19 -5.5578 1.22869 0
M  V30 12434 N 1166.39 -5.7677 -0.657022 0
M  V30 12435 H 1169.16 -2.45893 1.71338 0
M  V30 12436 H 1166.72 -1.23976 1.04122 0
M  V30 12437 H 1168.71 -4.03834 -0.264586 0
M  V30 12438 H 1167.28 -3.05441 -0.665168 0
M  V30 12439 H 1166.5 -3.51888 1.77675 0
M  V30 12440 H 1167.79 -4.73335 1.86632 0
M  V30 12441 H 1167.19 -5.52503 -1.21478 0
M  V30 12442 H 1165.74 -6.4374 -1.02186 0
M  V30 12443 N 1169.18 -0.941978 -1.26351 0
M  V30 12444 C 1170.4 -0.606231 -1.98342 0
M  V30 12445 C 1170.83 0.812014 -1.6967 0
M  V30 12446 O 1170.19 1.54712 -0.9452 0
M  V30 12447 C 1170.23 -0.855864 -3.50296 0
M  V30 12448 O 1169.34 0.0716251 -4.12338 0
M  V30 12449 H 1168.68 -0.231815 -0.62222 0
M  V30 12450 H 1171.21 -1.26513 -1.60797 0
M  V30 12451 H 1171.22 -0.777079 -4.00531 0
M  V30 12452 H 1169.89 -1.8896 -3.70496 0
M  V30 12453 H 1168.47 -0.0582866 -3.72854 0
M  V30 12454 N 1170.66 1.40747 -0.709091 0
M  V30 12455 C 1171.88 2.05319 -0.255258 0
M  V30 12456 C 1172.3 1.53406 1.10054 0
M  V30 12457 O 1171.66 0.687905 1.69039 0
M  V30 12458 C 1171.71 3.60835 -0.219251 0
M  V30 12459 O 1171.43 4.1083 -1.52151 0
M  V30 12460 C 1172.93 4.42572 0.253927 0
M  V30 12461 H 1170.15 0.660904 -0.115959 0
M  V30 12462 H 1172.69 1.80274 -0.965474 0
M  V30 12463 H 1170.85 3.84872 0.441882 0
M  V30 12464 H 1171.26 5.04979 -1.41764 0
M  V30 12465 H 1172.74 5.51529 0.22798 0
M  V30 12466 H 1173.21 4.19673 1.29504 0
M  V30 12467 H 1173.82 4.23629 -0.376694 0
M  V30 12468 N 1172.13 0.454803 1.50895 0
M  V30 12469 C 1173.08 -0.347769 2.28165 0
M  V30 12470 C 1174.05 -1.00158 1.32505 0
M  V30 12471 O 1175.24 -1.01715 1.61427 0
M  V30 12472 C 1172.38 -1.43315 3.13934 0
M  V30 12473 C 1171.49 -0.795736 4.24608 0
M  V30 12474 C 1170.62 -1.85763 4.9766 0
M  V30 12475 C 1169.66 -1.19959 6.0023 0
M  V30 12476 N 1168.8 -2.20361 6.66622 0
M  V30 12477 H 1173.64 0.317493 2.96304 0
M  V30 12478 H 1171.18 0.168418 1.46133 0
M  V30 12479 H 1173.13 -2.07391 3.62001 0
M  V30 12480 H 1171.76 -2.0678 2.47875 0
M  V30 12481 H 1170.82 -0.0428173 3.80376 0
M  V30 12482 H 1172.13 -0.275477 4.98039 0
M  V30 12483 H 1171.28 -2.5746 5.49363 0
M  V30 12484 H 1170.02 -2.41166 4.23899 0
M  V30 12485 H 1169.03 -0.46817 5.47803 0
M  V30 12486 H 1170.25 -0.652666 6.75956 0
M  V30 12487 H 1168.2 -2.74812 5.95663 0
M  V30 12488 H 1168.11 -1.73275 7.35875 0
M  V30 12489 H 1169.38 -2.91488 7.22949 0
M  V30 12490 N 1173.61 -1.56489 0.186789 0
M  V30 12491 C 1174.57 -2.17478 -0.723596 0
M  V30 12492 C 1175.57 -1.12698 -1.14699 0
M  V30 12493 O 1176.76 -1.38128 -1.06143 0
M  V30 12494 C 1173.9 -2.77015 -1.98685 0
M  V30 12495 H 1175.09 -2.99282 -0.192403 0
M  V30 12496 H 1172.64 -1.56174 -0.0628153 0
M  V30 12497 H 1173.38 -1.98987 -2.56076 0
M  V30 12498 H 1173.16 -3.53711 -1.69207 0
M  V30 12499 H 1174.65 -3.23872 -2.63622 0
M  V30 12500 N 1175.09 0.086862 -1.5736 0
M  V30 12501 C 1176.34 0.787581 -1.85688 0
M  V30 12502 C 1176.65 1.79494 -0.777263 0
M  V30 12503 O 1177.86 2.54415 -0.947914 0
M  V30 12504 C 1176.31 1.45155 -3.2933 0
M  V30 12505 C 1175.92 0.483539 -4.45383 0
M  V30 12506 C 1177.67 2.13552 -3.66873 0
M  V30 12507 C 1175.57 1.15257 -5.8006 0
M  V30 12508 H 1174.5 0.297882 -0.692663 0
M  V30 12509 H 1177.15 0.0406299 -1.83455 0
M  V30 12510 H 1175.54 2.24625 -3.26128 0
M  V30 12511 H 1176.71 -0.280254 -4.59947 0
M  V30 12512 H 1175.02 -0.0951664 -4.16291 0
M  V30 12513 H 1177.62 2.64355 -4.6478 0
M  V30 12514 H 1177.96 2.92818 -2.95911 0
M  V30 12515 H 1178.5 1.40932 -3.71999 0
M  V30 12516 H 1175.24 0.400546 -6.54275 0
M  V30 12517 H 1174.76 1.88759 -5.69324 0
M  V30 12518 H 1176.44 1.67671 -6.24896 0
M  V30 12519 N 1176.57 1.53483 0.357892 0
M  V30 12520 C 1177.84 1.60649 1.11585 0
M  V30 12521 C 1178.22 0.418789 2.06904 0
M  V30 12522 O 1177.57 -0.590279 2.20744 0
M  V30 12523 C 1177.78 2.96046 1.84818 0
M  V30 12524 C 1179.13 3.50895 2.39076 0
M  V30 12525 O 1180.15 2.98126 1.94934 0
M  V30 12526 O 1179.01 4.43163 3.19794 0
M  V30 12527 H 1176.11 0.649202 0.512315 0
M  V30 12528 H 1178.65 1.65826 0.360537 0
M  V30 12529 H 1177.43 3.73929 1.15296 0
M  V30 12530 H 1177.05 2.94395 2.6724 0
M  V30 12531 N 1178.05 -0.61812 1.44973 0
M  V30 12532 C 1179.29 -1.37343 1.47715 0
M  V30 12533 C 1179.61 -1.95239 0.118784 0
M  V30 12534 O 1180.81 -2.7149 0.0237981 0
M  V30 12535 C 1179.27 -2.48732 2.60116 0
M  V30 12536 C 1178.88 -1.97294 4.02218 0
M  V30 12537 C 1180.62 -3.25831 2.72093 0
M  V30 12538 C 1178.53 -3.06102 5.06019 0
M  V30 12539 H 1177.46 -0.516175 0.549617 0
M  V30 12540 H 1180.11 -0.663617 1.7108 0
M  V30 12541 H 1178.49 -3.2235 2.30014 0
M  V30 12542 H 1179.67 -1.30455 4.41948 0
M  V30 12543 H 1177.98 -1.32972 3.94598 0
M  V30 12544 H 1180.58 -4.06968 3.46815 0
M  V30 12545 H 1180.92 -3.76156 1.7836 0
M  V30 12546 H 1181.45 -2.59309 3.01668 0
M  V30 12547 H 1178.19 -2.60706 6.01426 0
M  V30 12548 H 1177.71 -3.71541 4.70869 0
M  V30 12549 H 1179.39 -3.70662 5.30301 0
M  V30 12550 N 1179.52 -1.32087 -0.859693 0
M  V30 12551 C 1180.46 -1.16426 -1.97428 0
M  V30 12552 C 1181.47 -0.100582 -1.62489 0
M  V30 12553 O 1182.66 -0.349063 -1.75054 0
M  V30 12554 C 1179.76 -0.758822 -3.30295 0
M  V30 12555 C 1178.93 -1.90971 -3.93508 0
M  V30 12556 C 1177.99 -1.48865 -5.04704 0
M  V30 12557 O 1177.02 -2.1999 -5.2497 0
M  V30 12558 N 1178.22 -0.38182 -5.79243 0
M  V30 12559 H 1180.98 -2.12433 -2.11406 0
M  V30 12560 H 1178.54 -1.24558 -1.03426 0
M  V30 12561 H 1180.54 -0.459643 -4.02081 0
M  V30 12562 H 1179.11 0.109944 -3.12407 0
M  V30 12563 H 1178.33 -2.37566 -3.14573 0
M  V30 12564 H 1179.61 -2.68032 -4.32477 0
M  V30 12565 H 1179.01 0.210268 -5.65309 0
M  V30 12566 H 1177.57 -0.142224 -6.51645 0
M  V30 12567 N 1181 1.07532 -1.15215 0
M  V30 12568 C 1181.95 2.16785 -0.843022 0
M  V30 12569 C 1182.94 1.68411 0.182802 0
M  V30 12570 O 1184.15 1.7996 0.0380164 0
M  V30 12571 H 1180.52 0.707465 -0.254945 0
M  V30 12572 H 1182.5 2.40078 -1.77215 0
M  V30 12573 C 1181.24 3.45967 -0.346699 0
M  V30 12574 H 1180.57 3.83574 -1.12744 0
M  V30 12575 H 1182.01 4.23663 -0.169039 0
M  V30 12576 C 1180.47 3.23768 0.931437 0
M  V30 12577 O 1181 3.48179 2.00336 0
M  V30 12578 N 1179.2 2.77264 0.870217 0
M  V30 12579 H 1178.75 2.576 -0.00226223 0
M  V30 12580 H 1178.71 2.6279 1.72594 0
M  V30 12581 N 1182.48 0.948665 1.2585 0
M  V30 12582 C 1183.44 0.468673 2.24357 0
M  V30 12583 C 1184.44 -0.424355 1.551 0
M  V30 12584 O 1185.63 -0.222481 1.72773 0
M  V30 12585 C 1182.77 -0.32359 3.39361 0
M  V30 12586 H 1183.96 1.33928 2.68334 0
M  V30 12587 H 1181.51 0.731357 1.38133 0
M  V30 12588 H 1182.25 -1.21212 3.00796 0
M  V30 12589 H 1182.03 0.316998 3.90816 0
M  V30 12590 H 1183.52 -0.649087 4.12525 0
M  V30 12591 N 1183.96 -1.40369 0.716545 0
M  V30 12592 C 1185.19 -2.04884 0.265757 0
M  V30 12593 C 1185.6 -1.54095 -1.09779 0
M  V30 12594 O 1184.94 -0.692944 -1.70129 0
M  V30 12595 C 1185 -3.59103 0.16887 0
M  V30 12596 C 1184.67 -4.32785 1.46786 0
M  V30 12597 C 1185.66 -4.6067 2.40997 0
M  V30 12598 C 1183.35 -4.71676 1.72705 0
M  V30 12599 C 1185.34 -5.26432 3.59372 0
M  V30 12600 C 1183.03 -5.3717 2.91362 0
M  V30 12601 C 1184.03 -5.64478 3.84517 0
M  V30 12602 O 1183.71 -6.28618 5.01093 0
M  V30 12603 H 1183.45 -0.665794 0.117025 0
M  V30 12604 H 1186 -1.80746 0.975698 0
M  V30 12605 H 1184.23 -3.82064 -0.597023 0
M  V30 12606 H 1185.92 -4.05145 -0.247483 0
M  V30 12607 H 1186.69 -4.31087 2.22236 0
M  V30 12608 H 1182.56 -4.49789 1.0105 0
M  V30 12609 H 1186.11 -5.47663 4.321 0
M  V30 12610 H 1182.01 -5.66173 3.1003 0
M  V30 12611 H 1182.77 -6.47115 5.01183 0
M  V30 12612 N 1185.44 -0.462799 -1.50652 0
M  V30 12613 C 1186.37 0.325724 -2.31217 0
M  V30 12614 C 1187.35 0.997942 -1.3775 0
M  V30 12615 O 1188.53 0.996707 -1.66671 0
M  V30 12616 C 1185.66 1.41283 -3.17264 0
M  V30 12617 C 1184.62 0.862687 -4.19216 0
M  V30 12618 C 1183.94 2.04746 -4.93946 0
M  V30 12619 C 1185.24 -0.120365 -5.22161 0
M  V30 12620 H 1186.94 -0.346666 -2.97386 0
M  V30 12621 H 1184.48 -0.168163 -1.43015 0
M  V30 12622 H 1186.44 1.97188 -3.72418 0
M  V30 12623 H 1185.16 2.11387 -2.48964 0
M  V30 12624 H 1183.82 0.325671 -3.65151 0
M  V30 12625 H 1183.47 2.73529 -4.22127 0
M  V30 12626 H 1183.17 1.68562 -5.62904 0
M  V30 12627 H 1184.69 2.61157 -5.51932 0
M  V30 12628 H 1186.1 0.349226 -5.72235 0
M  V30 12629 H 1184.5 -0.396061 -5.98792 0
M  V30 12630 H 1185.57 -1.04895 -4.73418 0
M  V30 12631 N 1186.91 1.56388 -0.195085 0
M  V30 12632 C 1187.86 2.20431 0.742484 0
M  V30 12633 C 1188.86 1.17548 1.21979 0
M  V30 12634 O 1190.06 1.35693 1.18269 0
M  V30 12635 H 1186.44 0.706435 0.257786 0
M  V30 12636 H 1188.41 2.97865 0.178624 0
M  V30 12637 C 1187.16 2.87772 1.95147 0
M  V30 12638 H 1186.48 3.66681 1.59326 0
M  V30 12639 H 1187.92 3.36021 2.58585 0
M  V30 12640 C 1186.38 1.88807 2.79022 0
M  V30 12641 O 1186.91 1.38836 3.76945 0
M  V30 12642 N 1185.12 1.57037 2.44515 0
M  V30 12643 H 1184.66 1.97868 1.64943 0
M  V30 12644 H 1184.62 0.910776 3.00919 0
M  V30 12645 N 1188.39 -0.0785156 1.57404 0
M  V30 12646 C 1189.64 -0.777399 1.8655 0
M  V30 12647 C 1189.96 -1.78451 0.786142 0
M  V30 12648 O 1189.23 -1.95016 -0.185911 0
M  V30 12649 H 1187.81 -0.290097 0.688369 0
M  V30 12650 H 1190.47 -0.0562017 1.94819 0
M  V30 12651 H 1189.57 -1.29776 2.83839 0
M  V30 12652 N 1189.87 -1.5367 -0.349747 0
M  V30 12653 C 1191.12 -1.7087 -1.0923 0
M  V30 12654 C 1191.45 -0.467299 -1.88494 0
M  V30 12655 O 1190.72 0.535619 -1.8698 0
M  V30 12656 C 1191.01 -2.9684 -2.03858 0
M  V30 12657 C 1190.86 -4.31174 -1.28097 0
M  V30 12658 C 1192.18 -3.18459 -3.03763 0
M  V30 12659 H 1189.3 -0.621757 -0.395711 0
M  V30 12660 H 1191.94 -1.86333 -0.371481 0
M  V30 12661 H 1190.09 -2.83788 -2.65323 0
M  V30 12662 H 1191.76 -4.56066 -0.692933 0
M  V30 12663 H 1190.01 -4.29866 -0.582924 0
M  V30 12664 H 1190.68 -5.15482 -1.9744 0
M  V30 12665 H 1193.15 -3.30801 -2.52409 0
M  V30 12666 H 1192.03 -4.08006 -3.67182 0
M  V30 12667 H 1192.29 -2.34467 -3.74803 0
M  V30 12668 N 1191.35 0.610423 -1.45298 0
M  V30 12669 C 1192.6 1.3668 -1.48872 0
M  V30 12670 C 1192.92 1.94562 -0.130686 0
M  V30 12671 O 1192.19 1.76996 0.839607 0
M  V30 12672 H 1190.77 0.507393 -0.548235 0
M  V30 12673 H 1193.43 0.716997 -1.81232 0
M  V30 12674 H 1192.53 2.18766 -2.22593 0
M  V30 12675 N 1192.83 1.32541 0.852676 0
M  V30 12676 C 1194.1 1.1383 1.59067 0
M  V30 12677 C 1194.48 -0.300584 2.08949 0
M  V30 12678 O 1193.83 -1.29751 1.88088 0
M  V30 12679 C 1194.04 2.16758 2.73527 0
M  V30 12680 C 1195.39 2.50194 3.43057 0
M  V30 12681 O 1196.41 2.15319 2.83754 0
M  V30 12682 O 1195.27 3.09985 4.50079 0
M  V30 12683 H 1192.37 0.439379 0.700625 0
M  V30 12684 H 1194.91 1.44078 0.896632 0
M  V30 12685 H 1193.68 3.13469 2.34207 0
M  V30 12686 H 1193.31 1.87515 3.50605 0
M  V30 12687 N 1194.3 -1.0692 1.15784 0
M  V30 12688 C 1195.55 -1.796 0.935429 0
M  V30 12689 C 1195.88 -1.86935 -0.537173 0
M  V30 12690 O 1195.13 -1.35244 -1.41448 0
M  V30 12691 C 1195.43 -3.24389 1.50022 0
M  V30 12692 C 1195.1 -3.37145 2.99406 0
M  V30 12693 C 1193.76 -3.40334 3.40186 0
M  V30 12694 C 1196.11 -3.39584 3.95389 0
M  V30 12695 C 1193.44 -3.43569 4.75581 0
M  V30 12696 C 1195.79 -3.44356 5.30661 0
M  V30 12697 C 1194.46 -3.45824 5.70931 0
M  V30 12698 H 1193.73 -0.657201 0.342298 0
M  V30 12699 H 1196.37 -1.25784 1.44397 0
M  V30 12700 H 1194.68 -3.81015 0.91297 0
M  V30 12701 H 1196.38 -3.79209 1.30389 0
M  V30 12702 H 1192.97 -3.35365 2.66887 0
M  V30 12703 H 1197.15 -3.36337 3.64954 0
M  V30 12704 H 1192.41 -3.43006 5.06119 0
M  V30 12705 H 1196.58 -3.4519 6.04828 0
M  V30 12706 H 1194.21 -3.48084 6.75826 0
M  V30 12707 N 1195.78 -0.955326 -1.25345 0
M  V30 12708 C 1197.01 -0.627233 -1.97688 0
M  V30 12709 C 1197.43 0.793973 -1.70522 0
M  V30 12710 O 1196.79 1.537 -0.961556 0
M  V30 12711 C 1196.84 -0.892969 -3.49369 0
M  V30 12712 O 1195.94 0.0278871 -4.12391 0
M  V30 12713 H 1195.28 -0.238402 -0.619726 0
M  V30 12714 H 1197.81 -1.28211 -1.59446 0
M  V30 12715 H 1197.82 -0.819517 -3.99685 0
M  V30 12716 H 1196.5 -1.92879 -3.6847 0
M  V30 12717 H 1195.08 -0.0978295 -3.72772 0
M  V30 12718 N 1197.26 1.39987 -0.723979 0
M  V30 12719 C 1198.51 2.01028 -0.267511 0
M  V30 12720 C 1198.84 1.57295 1.13894 0
M  V30 12721 O 1198.12 0.796805 1.7743 0
M  V30 12722 C 1198.4 3.58326 -0.356971 0
M  V30 12723 C 1198.25 4.12109 -1.8024 0
M  V30 12724 C 1199.57 4.39289 0.267003 0
M  V30 12725 H 1196.69 0.730364 -0.0986775 0
M  V30 12726 H 1199.33 1.66348 -0.91806 0
M  V30 12727 H 1197.48 3.88001 0.196908 0
M  V30 12728 H 1199.15 3.93199 -2.41231 0
M  V30 12729 H 1197.4 3.66082 -2.32737 0
M  V30 12730 H 1198.07 5.21261 -1.81634 0
M  V30 12731 H 1200.54 4.15595 -0.20503 0
M  V30 12732 H 1199.42 5.48624 0.174004 0
M  V30 12733 H 1199.68 4.20931 1.35164 0
M  V30 12734 N 1198.74 0.470782 1.50404 0
M  V30 12735 C 1199.99 -0.0765611 2.03256 0
M  V30 12736 C 1200.34 -1.37435 1.34646 0
M  V30 12737 O 1199.63 -1.85918 0.463152 0
M  V30 12738 C 1199.83 -0.316419 3.55997 0
M  V30 12739 C 1199.66 0.956569 4.39409 0
M  V30 12740 C 1198.43 1.49978 4.82529 0
M  V30 12741 C 1200.62 1.85188 4.79802 0
M  V30 12742 N 1198.61 2.72182 5.50264 0
M  V30 12743 C 1199.98 2.9198 5.46944 0
M  V30 12744 C 1202.03 1.86229 4.61761 0
M  V30 12745 C 1200.74 3.99802 5.97955 0
M  V30 12746 C 1202.76 2.93008 5.13712 0
M  V30 12747 C 1202.12 3.98519 5.80829 0
M  V30 12748 H 1198.22 0.0120036 0.781908 0
M  V30 12749 H 1200.81 0.638919 1.83918 0
M  V30 12750 H 1198.98 -1.00094 3.75281 0
M  V30 12751 H 1200.71 -0.858077 3.95499 0
M  V30 12752 H 1197.46 1.04901 4.61836 0
M  V30 12753 H 1197.89 3.34241 5.88737 0
M  V30 12754 H 1202.53 1.05974 4.09303 0
M  V30 12755 H 1200.25 4.80875 6.4945 0
M  V30 12756 H 1203.83 2.94797 5.01584 0
M  V30 12757 H 1202.71 4.79784 6.20304 0
M  V30 12758 N 1200.22 -1.56282 0.203376 0
M  V30 12759 C 1201.13 -2.23086 -0.725922 0
M  V30 12760 C 1202.14 -1.23258 -1.22814 0
M  V30 12761 O 1203.32 -1.5602 -1.27357 0
M  V30 12762 C 1200.38 -2.88358 -1.92485 0
M  V30 12763 C 1199.45 -4.03479 -1.46639 0
M  V30 12764 C 1198.68 -4.65629 -2.60816 0
M  V30 12765 O 1198.9 -4.2672 -3.78506 0
M  V30 12766 O 1197.84 -5.54949 -2.33056 0
M  V30 12767 H 1201.66 -3.03124 -0.18694 0
M  V30 12768 H 1199.25 -1.49377 -0.0262829 0
M  V30 12769 H 1201.13 -3.29623 -2.62539 0
M  V30 12770 H 1199.8 -2.11294 -2.45228 0
M  V30 12771 H 1198.71 -3.66821 -0.734396 0
M  V30 12772 H 1200.04 -4.82232 -0.985535 0
M  V30 12773 N 1201.7 0.070167 -1.57444 0
M  V30 12774 C 1202.94 0.769014 -1.8733 0
M  V30 12775 C 1203.27 1.77496 -0.79533 0
M  V30 12776 O 1202.53 1.94586 0.208495 0
M  V30 12777 C 1202.82 1.5111 -3.23883 0
M  V30 12778 C 1202.49 0.644988 -4.46263 0
M  V30 12779 C 1201.15 0.406307 -4.79482 0
M  V30 12780 C 1203.5 0.0444938 -5.21181 0
M  V30 12781 C 1200.83 -0.442322 -5.8503 0
M  V30 12782 C 1203.18 -0.791599 -6.27628 0
M  V30 12783 C 1201.85 -1.04014 -6.59346 0
M  V30 12784 H 1201.12 0.281402 -0.685488 0
M  V30 12785 H 1203.77 0.029752 -1.91477 0
M  V30 12786 H 1202.07 2.32261 -3.15535 0
M  V30 12787 H 1203.77 2.05665 -3.44242 0
M  V30 12788 H 1200.36 0.841148 -4.20265 0
M  V30 12789 H 1204.54 0.216005 -4.9583 0
M  V30 12790 H 1199.8 -0.643607 -6.08003 0
M  V30 12791 H 1203.97 -1.26363 -6.8484 0
M  V30 12792 H 1201.6 -1.69949 -7.4096 0
M  V30 12793 N 1203.17 1.53854 0.341593 0
M  V30 12794 C 1204.4 1.75447 1.10604 0
M  V30 12795 C 1204.82 0.493225 1.81518 0
M  V30 12796 O 1204.18 -0.554253 1.7262 0
M  V30 12797 C 1204.23 2.93593 2.09369 0
M  V30 12798 O 1203.33 2.63878 3.16926 0
M  V30 12799 H 1202.67 0.581923 0.319783 0
M  V30 12800 H 1205.2 2.00822 0.391388 0
M  V30 12801 H 1205.21 3.20437 2.52556 0
M  V30 12802 H 1203.89 3.85067 1.57151 0
M  V30 12803 H 1202.47 2.47929 2.78542 0
M  V30 12804 N 1204.65 -0.602709 1.4562 0
M  V30 12805 C 1205.9 -1.35889 1.49595 0
M  V30 12806 C 1206.22 -1.9449 0.141002 0
M  V30 12807 O 1205.49 -1.77438 -0.830209 0
M  V30 12808 H 1204.07 -0.504478 0.550918 0
M  V30 12809 H 1206.73 -0.707376 1.8161 0
M  V30 12810 H 1205.83 -2.17583 2.2375 0
M  V30 12811 N 1206.13 -1.32992 -0.845635 0
M  V30 12812 C 1207.08 -1.22652 -1.97634 0
M  V30 12813 C 1208.07 -0.129344 -1.68905 0
M  V30 12814 O 1209.28 -0.292863 -1.77602 0
M  V30 12815 H 1205.65 -0.380439 -0.648668 0
M  V30 12816 H 1207.62 -2.18261 -2.03481 0
M  V30 12817 C 1206.37 -0.975677 -3.3373 0
M  V30 12818 H 1205.7 -1.81217 -3.56371 0
M  V30 12819 H 1207.14 -0.943608 -4.13367 0
M  V30 12820 C 1205.59 0.321491 -3.35363 0
M  V30 12821 O 1206.12 1.33042 -3.79029 0
M  V30 12822 N 1204.33 0.346648 -2.88525 0
M  V30 12823 H 1203.88 -0.474931 -2.53184 0
M  V30 12824 H 1203.84 1.2144 -2.9 0
M  V30 12825 N 1207.61 1.06304 -1.1635 0
M  V30 12826 C 1209.02 1.60566 -0.952652 0
M  V30 12827 C 1209.37 1.8963 0.503473 0
M  V30 12828 O 1208.49 1.66964 1.37666 0
M  V30 12829 C 1209.09 2.9172 -1.72292 0
M  V30 12830 C 1207.65 3.42684 -1.55707 0
M  V30 12831 C 1206.8 2.16579 -1.73172 0
M  V30 12832 H 1209.75 0.892563 -1.31221 0
M  V30 12833 H 1209.77 3.61126 -1.19868 0
M  V30 12834 H 1209.28 2.70535 -2.78267 0
M  V30 12835 H 1207.38 3.68929 -0.521726 0
M  V30 12836 H 1207.49 4.18018 -2.34088 0
M  V30 12837 H 1205.86 2.26795 -1.15914 0
M  V30 12838 H 1206.64 1.97877 -2.80535 0
M  V30 12839 N 1209.09 0.96196 1.24836 0
M  V30 12840 C 1210.33 0.621634 1.93038 0
M  V30 12841 C 1210.66 -0.840257 1.75081 0
M  V30 12842 O 1209.94 -1.60381 1.10038 0
M  V30 12843 C 1210.22 0.990107 3.46221 0
M  V30 12844 C 1210.08 2.50827 3.73371 0
M  V30 12845 C 1211.39 0.520478 4.37011 0
M  V30 12846 H 1208.51 0.227312 0.701069 0
M  V30 12847 H 1211.16 1.19993 1.47315 0
M  V30 12848 H 1209.31 0.498008 3.85295 0
M  V30 12849 H 1210.98 3.07469 3.4389 0
M  V30 12850 H 1209.22 2.94277 3.18722 0
M  V30 12851 H 1209.89 2.71659 4.80526 0
M  V30 12852 H 1212.37 0.942703 4.05281 0
M  V30 12853 H 1211.24 0.806918 5.42937 0
M  V30 12854 H 1211.5 -0.579507 4.38285 0
M  V30 12855 N 1210.56 -1.39601 0.731392 0
M  V30 12856 C 1211.79 -2.0459 0.287472 0
M  V30 12857 C 1212.2 -1.5525 -1.08139 0
M  V30 12858 O 1211.54 -0.710949 -1.69385 0
M  V30 12859 C 1211.61 -3.58904 0.206948 0
M  V30 12860 C 1211.27 -4.31204 1.51368 0
M  V30 12861 C 1212.27 -4.58088 2.45869 0
M  V30 12862 C 1209.95 -4.69818 1.77698 0
M  V30 12863 C 1211.95 -5.22591 3.64935 0
M  V30 12864 C 1209.63 -5.34049 2.97043 0
M  V30 12865 C 1210.63 -5.60368 3.90483 0
M  V30 12866 O 1210.32 -6.23268 5.07732 0
M  V30 12867 H 1210.05 -0.664515 0.12408 0
M  V30 12868 H 1212.61 -1.79701 0.994814 0
M  V30 12869 H 1210.84 -3.82675 -0.556466 0
M  V30 12870 H 1212.52 -4.05385 -0.204498 0
M  V30 12871 H 1213.29 -4.28706 2.26796 0
M  V30 12872 H 1209.17 -4.48692 1.05815 0
M  V30 12873 H 1212.71 -5.43049 4.37885 0
M  V30 12874 H 1208.61 -5.62852 3.16018 0
M  V30 12875 H 1209.38 -6.41763 5.08019 0
M  V30 12876 N 1212.04 -0.478751 -1.50152 0
M  V30 12877 C 1213.29 0.073585 -2.02366 0
M  V30 12878 C 1213.62 1.3903 -1.36018 0
M  V30 12879 O 1212.87 1.89787 -0.477435 0
M  V30 12880 C 1213.17 0.297535 -3.56159 0
M  V30 12881 C 1212.84 -0.938419 -4.41027 0
M  V30 12882 C 1211.5 -1.27727 -4.63939 0
M  V30 12883 C 1213.85 -1.76098 -4.9055 0
M  V30 12884 C 1211.18 -2.4386 -5.33619 0
M  V30 12885 C 1213.53 -2.91366 -5.61506 0
M  V30 12886 C 1212.2 -3.25657 -5.8267 0
M  V30 12887 H 1211.47 0.0269267 -0.740511 0
M  V30 12888 H 1214.11 -0.63439 -1.80687 0
M  V30 12889 H 1212.42 1.08783 -3.76395 0
M  V30 12890 H 1214.11 0.73899 -3.94132 0
M  V30 12891 H 1210.7 -0.664441 -4.23418 0
M  V30 12892 H 1214.89 -1.51237 -4.72696 0
M  V30 12893 H 1210.14 -2.70692 -5.48211 0
M  V30 12894 H 1214.32 -3.55445 -5.98859 0
M  V30 12895 H 1211.95 -4.15751 -6.36439 0
M  V30 12896 N 1213.52 1.56172 -0.211661 0
M  V30 12897 C 1214.76 1.9994 0.424672 0
M  V30 12898 C 1215.12 1.09598 1.57646 0
M  V30 12899 O 1216.33 1.4267 2.27813 0
M  V30 12900 C 1214.6 3.46961 0.857497 0
M  V30 12901 S 1216.16 4.12752 1.48933 0
M  V30 12902 H 1212.97 0.698031 0.135179 0
M  V30 12903 H 1215.58 1.92886 -0.318625 0
M  V30 12904 H 1214.28 4.10399 0.009398 0
M  V30 12905 H 1213.81 3.57867 1.63385 0
M  V30 12906 H 1215.83 4.11125 2.77833 0
M  V30 12907 N 1215 -0.0618163 1.57479 0
M  V30 12908 C 1216.24 -0.764296 1.89573 0
M  V30 12909 C 1216.6 -1.74235 0.806605 0
M  V30 12910 O 1217.8 -2.49067 1.0109 0
M  V30 12911 C 1216.07 -1.44503 3.26885 0
M  V30 12912 S 1217.63 -2.1812 3.80748 0
M  V30 12913 H 1214.45 -0.253946 0.664103 0
M  V30 12914 H 1217.05 -0.0200064 1.9549 0
M  V30 12915 H 1215.76 -0.719525 4.04043 0
M  V30 12916 H 1215.29 -2.22855 3.2419 0
M  V30 12917 H 1217.3 -3.44793 3.56837 0
M  V30 12918 N 1216.48 -1.54033 -0.333429 0
M  V30 12919 C 1217.71 -1.75461 -1.09073 0
M  V30 12920 C 1218.11 -0.498488 -1.82515 0
M  V30 12921 O 1217.46 0.540029 -1.75583 0
M  V30 12922 C 1217.52 -2.88744 -2.14166 0
M  V30 12923 C 1217.18 -4.27998 -1.60209 0
M  V30 12924 C 1218.18 -5.09206 -1.04907 0
M  V30 12925 C 1215.87 -4.74513 -1.6475 0
M  V30 12926 C 1217.86 -6.35035 -0.548615 0
M  V30 12927 C 1215.55 -6.00312 -1.14318 0
M  V30 12928 C 1216.54 -6.80406 -0.594667 0
M  V30 12929 O 1216.23 -8.0384 -0.097891 0
M  V30 12930 H 1215.96 -0.589586 -0.330702 0
M  V30 12931 H 1218.52 -2.01697 -0.388274 0
M  V30 12932 H 1216.75 -2.58057 -2.87999 0
M  V30 12933 H 1218.44 -2.98048 -2.7554 0
M  V30 12934 H 1219.2 -4.74428 -1.00713 0
M  V30 12935 H 1215.08 -4.12222 -2.06384 0
M  V30 12936 H 1218.63 -6.97497 -0.119823 0
M  V30 12937 H 1214.52 -6.34583 -1.18215 0
M  V30 12938 H 1215.29 -8.1822 -0.214237 0
M  V30 12939 N 1217.95 0.594978 -1.45938 0
M  V30 12940 C 1219.23 1.35477 -1.41086 0
M  V30 12941 C 1219.61 2.10917 -0.0879512 0
M  V30 12942 O 1218.96 2.08704 0.930323 0
M  V30 12943 C 1219.17 2.29106 -2.63271 0
M  V30 12944 C 1220.52 2.9132 -3.08898 0
M  V30 12945 O 1221.54 2.39423 -2.63733 0
M  V30 12946 O 1220.4 3.85553 -3.87313 0
M  V30 12947 H 1217.49 0.6081 -0.560485 0
M  V30 12948 H 1220.04 0.617016 -1.58085 0
M  V30 12949 H 1218.81 1.72707 -3.51124 0
M  V30 12950 H 1218.44 3.10241 -2.48669 0
M  V30 12951 N 1219.43 1.33438 0.838571 0
M  V30 12952 C 1220.66 1.27766 1.62356 0
M  V30 12953 C 1221.07 -0.15359 1.88576 0
M  V30 12954 O 1220.41 -1.10626 1.46654 0
M  V30 12955 C 1220.48 1.98435 2.99773 0
M  V30 12956 C 1220.14 3.47741 2.96522 0
M  V30 12957 C 1221.14 4.42938 2.72217 0
M  V30 12958 C 1218.82 3.89922 3.16648 0
M  V30 12959 C 1220.82 5.7829 2.68066 0
M  V30 12960 C 1218.5 5.25378 3.12123 0
M  V30 12961 C 1219.5 6.19374 2.87863 0
M  V30 12962 O 1219.19 7.52349 2.83242 0
M  V30 12963 H 1218.92 0.441527 0.511889 0
M  V30 12964 H 1221.47 1.76377 1.05262 0
M  V30 12965 H 1219.7 1.44415 3.58721 0
M  V30 12966 H 1221.39 1.86258 3.60642 0
M  V30 12967 H 1222.16 4.11673 2.56418 0
M  V30 12968 H 1218.04 3.17169 3.34552 0
M  V30 12969 H 1221.58 6.51629 2.4905 0
M  V30 12970 H 1217.48 5.56267 3.27471 0
M  V30 12971 H 1218.25 7.61901 2.99082 0
M  V30 12972 N 1220.91 -1.05686 1.16912 0
M  V30 12973 C 1222.16 -1.78597 0.954425 0
M  V30 12974 C 1222.49 -1.87494 -0.517315 0
M  V30 12975 O 1221.74 -1.36736 -1.40006 0
M  V30 12976 C 1222.04 -3.22779 1.53455 0
M  V30 12977 C 1221.71 -3.3395 3.02965 0
M  V30 12978 C 1220.37 -3.36706 3.43777 0
M  V30 12979 C 1222.72 -3.35371 3.98969 0
M  V30 12980 C 1220.05 -3.38506 4.79198 0
M  V30 12981 C 1222.4 -3.38708 5.34284 0
M  V30 12982 C 1221.06 -3.39749 5.74567 0
M  V30 12983 H 1220.33 -0.653534 0.349249 0
M  V30 12984 H 1222.98 -1.24245 1.45723 0
M  V30 12985 H 1221.29 -3.80025 0.953331 0
M  V30 12986 H 1222.98 -3.77805 1.34404 0
M  V30 12987 H 1219.57 -3.32515 2.70429 0
M  V30 12988 H 1223.76 -3.32447 3.685 0
M  V30 12989 H 1219.01 -3.37619 5.09729 0
M  V30 12990 H 1223.19 -3.38755 6.08455 0
M  V30 12991 H 1220.81 -3.40897 6.7948 0
M  V30 12992 N 1222.39 -0.968567 -1.24324 0
M  V30 12993 C 1223.35 -0.504307 -2.23583 0
M  V30 12994 C 1224.35 0.399626 -1.55755 0
M  V30 12995 O 1225.54 0.194966 -1.73106 0
M  V30 12996 C 1222.67 0.26956 -3.39833 0
M  V30 12997 H 1223.87 -1.3818 -2.6617 0
M  V30 12998 H 1221.42 -0.753241 -1.36952 0
M  V30 12999 H 1222.15 1.16411 -3.02686 0
M  V30 13000 H 1221.94 -0.379133 -3.90263 0
M  V30 13001 H 1223.43 0.583376 -4.13505 0
M  V30 13002 N 1223.87 1.39211 -0.738786 0
M  V30 13003 C 1224.83 2.28937 -0.109746 0
M  V30 13004 C 1225.83 1.46488 0.663157 0
M  V30 13005 O 1227.02 1.67119 0.491614 0
M  V30 13006 C 1224.15 3.30039 0.853633 0
M  V30 13007 H 1225.34 2.86068 -0.900295 0
M  V30 13008 H 1222.9 1.47922 -0.504853 0
M  V30 13009 H 1223.63 2.77971 1.6704 0
M  V30 13010 H 1223.42 3.90935 0.302007 0
M  V30 13011 H 1224.91 3.97169 1.29022 0
M  V30 13012 N 1225.34 0.486708 1.49896 0
M  V30 13013 C 1226.29 -0.313156 2.30482 0
M  V30 13014 C 1227.29 -0.976043 1.38455 0
M  V30 13015 O 1228.49 -0.905364 1.55574 0
M  V30 13016 H 1224.87 -0.119839 0.74239 0
M  V30 13017 H 1226.84 0.386701 2.95884 0
M  V30 13018 C 1225.59 -1.37334 3.19429 0
M  V30 13019 H 1224.91 -0.87265 3.9016 0
M  V30 13020 H 1226.35 -1.90526 3.78782 0
M  V30 13021 C 1224.81 -2.38378 2.38071 0
M  V30 13022 O 1225.34 -3.43972 2.07476 0
M  V30 13023 N 1223.55 -2.10486 2.00359 0
M  V30 13024 H 1223.09 -1.24638 2.2544 0
M  V30 13025 H 1223.05 -2.78324 1.46229 0
M  V30 13026 N 1226.82 -1.56058 0.219941 0
M  V30 13027 C 1228.1 -1.90087 -0.46112 0
M  V30 13028 C 1228.48 -1.13705 -1.77861 0
M  V30 13029 O 1227.83 -0.245868 -2.27173 0
M  V30 13030 C 1228.04 -3.42786 -0.655644 0
M  V30 13031 C 1229.39 -4.13517 -0.963803 0
M  V30 13032 O 1230.41 -3.48376 -0.742488 0
M  V30 13033 O 1229.27 -5.28692 -1.38374 0
M  V30 13034 H 1226.36 -0.790311 -0.243595 0
M  V30 13035 H 1228.91 -1.67665 0.262005 0
M  V30 13036 H 1227.68 -3.90341 0.273738 0
M  V30 13037 H 1227.3 -3.70982 -1.43032 0
M  V30 13038 N 1228.3 0.053464 -1.57509 0
M  V30 13039 C 1229.71 0.603099 -1.76691 0
M  V30 13040 C 1230.06 1.76934 -0.847861 0
M  V30 13041 O 1229.19 2.16369 -0.0364962 0
M  V30 13042 C 1229.78 1.10084 -3.20417 0
M  V30 13043 C 1228.34 1.59618 -3.4088 0
M  V30 13044 C 1227.49 0.523516 -2.72313 0
M  V30 13045 H 1230.44 -0.172751 -1.57757 0
M  V30 13046 H 1230.46 1.9691 -3.25587 0
M  V30 13047 H 1229.97 0.251818 -3.87282 0
M  V30 13048 H 1228.07 2.46786 -2.79155 0
M  V30 13049 H 1228.19 1.6605 -4.49404 0
M  V30 13050 H 1226.55 0.972886 -2.35387 0
M  V30 13051 H 1227.33 -0.315629 -3.41846 0
M  V30 13052 N 1229.78 1.54207 0.325255 0
M  V30 13053 C 1231.01 1.76293 1.08298 0
M  V30 13054 C 1231.42 0.510722 1.81761 0
M  V30 13055 O 1230.78 -0.5185 1.7498 0
M  V30 13056 C 1230.83 2.95498 2.08238 0
M  V30 13057 O 1230.55 4.15877 1.37759 0
M  V30 13058 C 1232.05 3.29781 2.96242 0
M  V30 13059 H 1229.27 0.588576 0.322209 0
M  V30 13060 H 1231.82 2.0109 0.371896 0
M  V30 13061 H 1229.97 2.72979 2.74884 0
M  V30 13062 H 1230.39 4.82918 2.04672 0
M  V30 13063 H 1231.86 4.16495 3.62265 0
M  V30 13064 H 1232.34 2.46874 3.63249 0
M  V30 13065 H 1232.94 3.54372 2.3516 0
M  V30 13066 N 1231.26 -0.58723 1.46251 0
M  V30 13067 C 1232.48 -1.37661 1.55126 0
M  V30 13068 C 1232.91 -1.87123 0.191489 0
M  V30 13069 O 1232.27 -1.6131 -0.827576 0
M  V30 13070 C 1232.31 -2.54324 2.5564 0
M  V30 13071 O 1231.42 -3.55617 2.0883 0
M  V30 13072 H 1230.76 -0.410154 0.522178 0
M  V30 13073 H 1233.29 -0.712738 1.91784 0
M  V30 13074 H 1233.3 -3.01301 2.75103 0
M  V30 13075 H 1231.97 -2.17675 3.54387 0
M  V30 13076 H 1230.55 -3.15151 1.99335 0
M  V30 13077 N 1232.74 -1.33881 -0.831482 0
M  V30 13078 C 1233.98 -1.251 -1.58218 0
M  V30 13079 C 1234.3 0.17963 -1.94773 0
M  V30 13080 O 1235.5 0.389516 -2.68691 0
M  V30 13081 C 1233.96 -2.19246 -2.8541 0
M  V30 13082 C 1233.57 -3.6752 -2.5619 0
M  V30 13083 C 1235.31 -2.19355 -3.63433 0
M  V30 13084 C 1233.22 -4.53559 -3.79523 0
M  V30 13085 H 1232.15 -0.46469 -0.593784 0
M  V30 13086 H 1234.8 -1.58992 -0.916169 0
M  V30 13087 H 1233.18 -1.78295 -3.53591 0
M  V30 13088 H 1234.36 -4.16956 -1.96173 0
M  V30 13089 H 1232.67 -3.69774 -1.91458 0
M  V30 13090 H 1235.27 -2.80863 -4.54995 0
M  V30 13091 H 1235.61 -1.19056 -3.98913 0
M  V30 13092 H 1236.14 -2.58706 -3.02185 0
M  V30 13093 H 1232.88 -5.54762 -3.4917 0
M  V30 13094 H 1232.4 -4.08862 -4.38853 0
M  V30 13095 H 1234.08 -4.67736 -4.47025 0
M  V30 13096 N 1234.21 1.05064 -1.1747 0
M  V30 13097 C 1235.16 2.11131 -0.860692 0
M  V30 13098 C 1236.15 1.60049 0.165288 0
M  V30 13099 O 1237.34 1.76961 -0.0373288 0
M  V30 13100 C 1234.47 3.41222 -0.37718 0
M  V30 13101 C 1233.55 3.99097 -1.43466 0
M  V30 13102 N 1233.95 4.30918 -2.64846 0
M  V30 13103 C 1232.24 4.26851 -1.29282 0
M  V30 13104 C 1232.94 4.77092 -3.32804 0
M  V30 13105 N 1231.92 4.77291 -2.60182 0
M  V30 13106 H 1235.72 2.33597 -1.78353 0
M  V30 13107 H 1233.24 1.22724 -1.06361 0
M  V30 13108 H 1235.23 4.16685 -0.133766 0
M  V30 13109 H 1233.89 3.20188 0.53944 0
M  V30 13110 H 1234.9 4.20877 -3.01799 0
M  V30 13111 H 1231.58 4.15197 -0.437949 0
M  V30 13112 H 1232.97 5.10815 -4.36483 0
M  V30 13113 N 1235.69 0.975146 1.23809 0
M  V30 13114 C 1236.94 0.642074 1.92367 0
M  V30 13115 C 1237.27 -0.82164 1.75962 0
M  V30 13116 O 1236.55 -1.59205 1.11732 0
M  V30 13117 C 1236.83 1.02677 3.45151 0
M  V30 13118 C 1236.68 2.54773 3.7069 0
M  V30 13119 C 1238 0.5668 4.36435 0
M  V30 13120 H 1235.12 0.234735 0.698619 0
M  V30 13121 H 1237.76 1.21549 1.46034 0
M  V30 13122 H 1235.91 0.538846 3.84745 0
M  V30 13123 H 1237.58 3.11099 3.4061 0
M  V30 13124 H 1235.83 2.97641 3.15583 0
M  V30 13125 H 1236.5 2.7674 4.77618 0
M  V30 13126 H 1238.97 0.985635 4.04258 0
M  V30 13127 H 1237.85 0.864458 5.4205 0
M  V30 13128 H 1238.11 -0.532989 4.38875 0
M  V30 13129 N 1237.17 -1.38817 0.746158 0
M  V30 13130 C 1238.42 -2.00577 0.299458 0
M  V30 13131 C 1238.75 -1.59087 -1.11378 0
M  V30 13132 O 1238.02 -0.824932 -1.7614 0
M  V30 13133 C 1238.31 -3.57713 0.413932 0
M  V30 13134 C 1238.16 -4.09189 1.86774 0
M  V30 13135 C 1239.48 -4.39659 -0.197082 0
M  V30 13136 H 1236.6 -0.728702 0.110285 0
M  V30 13137 H 1239.24 -1.64866 0.944408 0
M  V30 13138 H 1237.39 -3.88265 -0.135155 0
M  V30 13139 H 1239.06 -3.89311 2.47456 0
M  V30 13140 H 1237.3 -3.62333 2.38532 0
M  V30 13141 H 1237.98 -5.18305 1.89904 0
M  V30 13142 H 1240.45 -4.15216 0.271121 0
M  V30 13143 H 1239.33 -5.48832 -0.0867011 0
M  V30 13144 H 1239.59 -4.23028 -1.2845 0
M  V30 13145 N 1238.65 -0.49465 -1.49636 0
M  V30 13146 C 1239.89 0.0521945 -2.02733 0
M  V30 13147 C 1240.23 1.3723 -1.37411 0
M  V30 13148 O 1239.5 1.87758 -0.507642 0
M  V30 13149 C 1239.78 0.2114 -3.59479 0
M  V30 13150 C 1239.64 -1.13138 -4.35339 0
M  V30 13151 C 1240.96 0.955015 -4.29613 0
M  V30 13152 H 1238.08 0.0174946 -0.736792 0
M  V30 13153 H 1240.72 -0.644827 -1.78723 0
M  V30 13154 H 1238.87 0.805078 -3.80067 0
M  V30 13155 H 1240.54 -1.76345 -4.26263 0
M  V30 13156 H 1238.78 -1.72224 -3.98147 0
M  V30 13157 H 1239.45 -0.97336 -5.4335 0
M  V30 13158 H 1241.93 0.451575 -4.13642 0
M  V30 13159 H 1240.81 1.03524 -5.39049 0
M  V30 13160 H 1241.07 1.99724 -3.94414 0
M  V30 13161 N 1240.13 1.55939 -0.228214 0
M  V30 13162 C 1241.37 1.98476 0.401677 0
M  V30 13163 C 1241.7 1.116 1.59297 0
M  V30 13164 O 1240.96 0.162465 1.95024 0
M  V30 13165 C 1241.25 3.46581 0.872732 0
M  V30 13166 C 1240.92 4.50416 -0.208767 0
M  V30 13167 C 1239.58 4.78534 -0.505847 0
M  V30 13168 C 1241.93 5.12656 -0.939852 0
M  V30 13169 C 1239.26 5.66171 -1.53841 0
M  V30 13170 C 1241.61 6.01412 -1.9618 0
M  V30 13171 C 1240.28 6.2787 -2.26573 0
M  V30 13172 H 1239.55 0.726276 0.146984 0
M  V30 13173 H 1242.2 1.88598 -0.332128 0
M  V30 13174 H 1240.5 3.53696 1.68541 0
M  V30 13175 H 1242.2 3.76869 1.37006 0
M  V30 13176 H 1238.79 4.28587 0.0329308 0
M  V30 13177 H 1242.97 4.90997 -0.723581 0
M  V30 13178 H 1238.23 5.84933 -1.77944 0
M  V30 13179 H 1242.4 6.48688 -2.53332 0
M  V30 13180 H 1240.03 6.95574 -3.06725 0
M  V30 13181 N 1241.6 -0.0451101 1.57535 0
M  V30 13182 C 1242.83 -0.755068 1.93167 0
M  V30 13183 C 1243.25 -1.68949 0.826915 0
M  V30 13184 O 1242.61 -1.79978 -0.218534 0
M  V30 13185 C 1242.66 -1.50201 3.27829 0
M  V30 13186 O 1241.76 -2.61434 3.18945 0
M  V30 13187 H 1241.11 -0.204219 0.631815 0
M  V30 13188 H 1243.64 -0.00537504 2.04599 0
M  V30 13189 H 1243.65 -1.87547 3.6234 0
M  V30 13190 H 1242.32 -0.816591 4.07805 0
M  V30 13191 H 1240.9 -2.26749 2.96039 0
M  V30 13192 N 1243.08 -1.54377 -0.317073 0
M  V30 13193 C 1244.01 -1.8721 -1.39552 0
M  V30 13194 C 1244.99 -0.729483 -1.53664 0
M  V30 13195 O 1246.18 -0.983799 -1.67437 0
M  V30 13196 C 1243.31 -2.1052 -2.76222 0
M  V30 13197 C 1242.26 -3.26366 -2.76892 0
M  V30 13198 C 1241.59 -3.35061 -4.16699 0
M  V30 13199 C 1242.89 -4.63862 -2.40061 0
M  V30 13200 H 1244.58 -2.77532 -1.12323 0
M  V30 13201 H 1242.13 -1.33536 -0.538897 0
M  V30 13202 H 1244.08 -2.32073 -3.51739 0
M  V30 13203 H 1242.81 -1.16953 -3.04942 0
M  V30 13204 H 1241.46 -3.0471 -2.03831 0
M  V30 13205 H 1241.11 -2.39041 -4.4257 0
M  V30 13206 H 1240.81 -4.12923 -4.18053 0
M  V30 13207 H 1242.34 -3.58856 -4.94019 0
M  V30 13208 H 1243.75 -4.85252 -3.05292 0
M  V30 13209 H 1242.15 -5.44321 -2.52655 0
M  V30 13210 H 1243.22 -4.6567 -1.35202 0
M  V30 13211 N 1244.56 0.579466 -1.4656 0
M  V30 13212 C 1245.47 1.71609 -1.59961 0
M  V30 13213 C 1246.49 1.67162 -0.483002 0
M  V30 13214 O 1247.66 1.87012 -0.747561 0
M  V30 13215 C 1244.73 3.08114 -1.58954 0
M  V30 13216 C 1243.79 3.238 -2.81872 0
M  V30 13217 C 1243.02 4.53794 -2.80904 0
M  V30 13218 O 1243.24 5.37884 -1.89835 0
M  V30 13219 O 1242.18 4.72796 -3.72488 0
M  V30 13220 H 1246 1.6325 -2.56092 0
M  V30 13221 H 1243.59 0.746891 -1.2939 0
M  V30 13222 H 1245.47 3.8939 -1.611 0
M  V30 13223 H 1244.15 3.16903 -0.65984 0
M  V30 13224 H 1243.05 2.42006 -2.85279 0
M  V30 13225 H 1244.39 3.19904 -3.74062 0
M  V30 13226 N 1246.04 1.3432 0.824371 0
M  V30 13227 C 1246.95 1.27847 1.96704 0
M  V30 13228 C 1247.96 0.18641 1.72999 0
M  V30 13229 O 1249.14 0.412623 1.97128 0
M  V30 13230 C 1246.21 1.03231 3.30975 0
M  V30 13231 C 1245.27 2.21579 3.67697 0
M  V30 13232 C 1244.5 1.98128 4.95561 0
M  V30 13233 O 1244.72 0.938798 5.62621 0
M  V30 13234 O 1243.66 2.85041 5.30128 0
M  V30 13235 H 1247.48 2.23974 2.05108 0
M  V30 13236 H 1245.07 1.14512 0.959554 0
M  V30 13237 H 1246.95 0.912784 4.11395 0
M  V30 13238 H 1245.62 0.101425 3.23541 0
M  V30 13239 H 1244.53 2.3909 2.87727 0
M  V30 13240 H 1245.86 3.13052 3.79815 0
M  V30 13241 N 1247.52 -1.0444 1.18026 0
M  V30 13242 C 1248.93 -1.5903 0.978076 0
M  V30 13243 C 1249.28 -1.90407 -0.473241 0
M  V30 13244 O 1248.4 -1.69133 -1.34992 0
M  V30 13245 C 1249 -2.88942 1.76912 0
M  V30 13246 C 1247.56 -3.40164 1.61139 0
M  V30 13247 C 1246.7 -2.13797 1.76596 0
M  V30 13248 H 1249.66 -0.871574 1.32625 0
M  V30 13249 H 1249.68 -3.59173 1.25598 0
M  V30 13250 H 1249.19 -2.66074 2.82535 0
M  V30 13251 H 1247.29 -3.68053 0.580353 0
M  V30 13252 H 1247.4 -4.14241 2.40709 0
M  V30 13253 H 1245.77 -2.24922 1.19507 0
M  V30 13254 H 1246.55 -1.93389 2.83647 0
M  V30 13255 N 1248.99 -0.981699 -1.2329 0
M  V30 13256 C 1250.22 -0.668399 -1.95489 0
M  V30 13257 C 1250.63 0.768976 -1.72868 0
M  V30 13258 O 1249.98 1.52925 -1.01783 0
M  V30 13259 C 1250.04 -0.880535 -3.4855 0
M  V30 13260 C 1249.7 -2.30023 -3.9489 0
M  V30 13261 C 1250.7 -3.27899 -4.03458 0
M  V30 13262 C 1248.38 -2.63167 -4.27842 0
M  V30 13263 C 1250.38 -4.56999 -4.44332 0
M  V30 13264 C 1248.06 -3.92489 -4.68397 0
M  V30 13265 C 1249.06 -4.89216 -4.76609 0
M  V30 13266 O 1248.75 -6.16229 -5.16253 0
M  V30 13267 H 1248.48 -0.247255 -0.629159 0
M  V30 13268 H 1251.04 -1.31606 -1.57699 0
M  V30 13269 H 1249.27 -0.175698 -3.86301 0
M  V30 13270 H 1250.96 -0.564198 -4.0196 0
M  V30 13271 H 1251.72 -3.03624 -3.78203 0
M  V30 13272 H 1247.6 -1.88588 -4.20661 0
M  V30 13273 H 1251.14 -5.32498 -4.50656 0
M  V30 13274 H 1247.04 -4.16558 -4.93102 0
M  V30 13275 H 1247.81 -6.20001 -5.34361 0
M  V30 13276 N 1250.47 1.3842 -0.753509 0
M  V30 13277 C 1251.38 2.34252 -0.127811 0
M  V30 13278 C 1252.4 1.59266 0.700743 0
M  V30 13279 O 1253.57 1.9146 0.624914 0
M  V30 13280 C 1250.64 3.38382 0.754886 0
M  V30 13281 C 1249.7 4.2921 -0.0880312 0
M  V30 13282 C 1248.93 5.28367 0.75263 0
M  V30 13283 O 1249.16 5.34537 1.99064 0
M  V30 13284 O 1248.09 6.01656 0.171475 0
M  V30 13285 H 1251.92 2.89454 -0.91925 0
M  V30 13286 H 1249.5 1.40265 -0.514404 0
M  V30 13287 H 1251.38 4.02141 1.25938 0
M  V30 13288 H 1250.06 2.85536 1.52482 0
M  V30 13289 H 1248.97 3.68611 -0.638468 0
M  V30 13290 H 1250.3 4.85311 -0.82062 0
M  V30 13291 N 1251.95 0.502579 1.49372 0
M  V30 13292 C 1253.2 -0.0432341 2.01654 0
M  V30 13293 C 1253.51 -1.379 1.38719 0
M  V30 13294 O 1254.72 -2.01159 1.82338 0
M  V30 13295 C 1253.17 -0.127509 3.59674 0
M  V30 13296 C 1252.78 1.20171 4.31582 0
M  V30 13297 C 1254.53 -0.623603 4.19895 0
M  V30 13298 C 1252.43 1.07951 5.81464 0
M  V30 13299 H 1251.36 -0.0199308 0.753737 0
M  V30 13300 H 1254.01 0.642237 1.71894 0
M  V30 13301 H 1252.4 -0.877465 3.86156 0
M  V30 13302 H 1253.57 1.96508 4.16799 0
M  V30 13303 H 1251.89 1.63136 3.83113 0
M  V30 13304 H 1254.48 -0.732562 5.29658 0
M  V30 13305 H 1254.83 -1.62282 3.83367 0
M  V30 13306 H 1255.36 0.0698641 3.97739 0
M  V30 13307 H 1252.1 2.05304 6.22519 0
M  V30 13308 H 1251.62 0.357051 5.98736 0
M  V30 13309 H 1253.3 0.758885 6.42534 0
M  V30 13310 N 1253.43 -1.55816 0.23648 0
M  V30 13311 C 1254.36 -2.18248 -0.700024 0
M  V30 13312 C 1255.37 -1.15579 -1.14654 0
M  V30 13313 O 1256.56 -1.42491 -1.07511 0
M  V30 13314 C 1253.66 -2.76338 -1.9619 0
M  V30 13315 C 1252.84 -4.04325 -1.66853 0
M  V30 13316 C 1251.89 -4.46834 -2.77895 0
M  V30 13317 O 1250.92 -5.13427 -2.45725 0
M  V30 13318 N 1252.12 -4.13753 -4.07171 0
M  V30 13319 H 1254.89 -2.99241 -0.16589 0
M  V30 13320 H 1252.45 -1.61803 0.0560383 0
M  V30 13321 H 1254.44 -3.01739 -2.69695 0
M  V30 13322 H 1253.01 -1.99563 -2.4061 0
M  V30 13323 H 1252.23 -3.86623 -0.769164 0
M  V30 13324 H 1253.52 -4.8779 -1.44703 0
M  V30 13325 H 1252.92 -3.60271 -4.36144 0
M  V30 13326 H 1251.47 -4.44014 -4.77174 0
M  V30 13327 N 1254.91 0.036755 -1.57557 0
M  V30 13328 C 1255.84 1.03939 -2.09091 0
M  V30 13329 C 1256.82 1.38196 -0.991761 0
M  V30 13330 O 1258 1.47214 -1.26656 0
M  V30 13331 C 1255.13 2.34263 -2.56394 0
M  V30 13332 C 1254.09 2.14269 -3.70504 0
M  V30 13333 C 1253.41 3.50286 -4.03985 0
M  V30 13334 C 1254.71 1.53514 -4.9923 0
M  V30 13335 H 1256.41 0.610429 -2.93111 0
M  V30 13336 H 1253.95 0.292183 -1.41005 0
M  V30 13337 H 1255.91 3.04727 -2.91066 0
M  V30 13338 H 1254.63 2.79205 -1.69447 0
M  V30 13339 H 1253.29 1.46239 -3.36169 0
M  V30 13340 H 1252.94 3.92861 -3.14116 0
M  V30 13341 H 1252.64 3.37735 -4.80842 0
M  V30 13342 H 1254.16 4.22124 -4.41184 0
M  V30 13343 H 1255.57 2.13885 -5.31908 0
M  V30 13344 H 1253.97 1.51561 -5.80646 0
M  V30 13345 H 1255.04 0.500126 -4.82314 0
M  V30 13346 N 1256.39 1.54543 0.308881 0
M  V30 13347 C 1257.33 1.85693 1.40074 0
M  V30 13348 C 1258.33 0.730004 1.52864 0
M  V30 13349 O 1259.53 0.913884 1.55075 0
M  V30 13350 H 1255.91 0.588842 0.467728 0
M  V30 13351 H 1257.88 2.76973 1.11034 0
M  V30 13352 C 1256.63 2.11399 2.76054 0
M  V30 13353 H 1255.95 2.97583 2.66992 0
M  V30 13354 H 1257.39 2.37139 3.51484 0
M  V30 13355 C 1255.85 0.91007 3.24375 0
M  V30 13356 O 1256.38 0.12663 4.015 0
M  V30 13357 N 1254.59 0.717629 2.816 0
M  V30 13358 H 1254.13 1.35637 2.18998 0
M  V30 13359 H 1254.09 -0.0863585 3.14281 0
M  V30 13360 N 1257.86 -0.571685 1.46866 0
M  V30 13361 C 1258.8 -1.69475 1.54307 0
M  V30 13362 C 1259.81 -1.57006 0.430449 0
M  V30 13363 O 1261 -1.64229 0.69936 0
M  V30 13364 C 1258.1 -3.07824 1.41766 0
M  V30 13365 C 1257.27 -3.46189 2.67342 0
M  V30 13366 C 1256.33 -4.63642 2.48843 0
M  V30 13367 O 1255.36 -4.68949 3.22608 0
M  V30 13368 N 1256.56 -5.59223 1.55724 0
M  V30 13369 H 1259.32 -1.63543 2.51145 0
M  V30 13370 H 1256.88 -0.757957 1.43062 0
M  V30 13371 H 1258.88 -3.84208 1.27146 0
M  V30 13372 H 1257.45 -3.08063 0.530667 0
M  V30 13373 H 1256.67 -2.59399 2.96826 0
M  V30 13374 H 1257.95 -3.68591 3.50739 0
M  V30 13375 H 1257.35 -5.5768 0.949175 0
M  V30 13376 H 1255.91 -6.34993 1.47063 0
M  V30 13377 N 1259.34 -1.34755 -0.817236 0
M  V30 13378 C 1260.59 -1.2762 -1.5761 0
M  V30 13379 C 1260.92 0.152017 -1.93604 0
M  V30 13380 O 1260.2 1.09881 -1.60488 0
M  V30 13381 C 1260.48 -2.17251 -2.87183 0
M  V30 13382 C 1260.33 -3.68638 -2.57733 0
M  V30 13383 C 1261.65 -2.06206 -3.88802 0
M  V30 13384 H 1258.77 -0.464933 -0.571845 0
M  V30 13385 H 1261.41 -1.6506 -0.941028 0
M  V30 13386 H 1259.56 -1.85452 -3.41379 0
M  V30 13387 H 1261.23 -4.10829 -2.09802 0
M  V30 13388 H 1259.48 -3.89445 -1.91089 0
M  V30 13389 H 1260.15 -4.26726 -3.50156 0
M  V30 13390 H 1262.62 -2.34137 -3.43975 0
M  V30 13391 H 1261.5 -2.71136 -4.77259 0
M  V30 13392 H 1261.76 -1.04075 -4.29675 0
M  V30 13393 N 1260.82 1.03812 -1.18578 0
M  V30 13394 C 1262.07 1.76455 -0.977071 0
M  V30 13395 C 1262.38 1.8926 0.493964 0
M  V30 13396 O 1263.59 2.58781 0.821256 0
M  V30 13397 C 1262.04 3.17264 -1.69917 0
M  V30 13398 C 1261.65 3.12543 -3.20969 0
M  V30 13399 C 1263.4 3.94266 -1.57337 0
M  V30 13400 C 1261.3 4.48226 -3.85807 0
M  V30 13401 H 1260.23 0.661445 -0.361949 0
M  V30 13402 H 1262.88 1.16252 -1.41978 0
M  V30 13403 H 1261.27 3.77878 -1.18424 0
M  V30 13404 H 1262.44 2.61364 -3.79507 0
M  V30 13405 H 1260.75 2.49039 -3.33719 0
M  V30 13406 H 1263.35 4.9461 -2.03137 0
M  V30 13407 H 1263.69 4.12963 -0.526033 0
M  V30 13408 H 1264.23 3.40232 -2.06124 0
M  V30 13409 H 1260.97 4.34734 -4.90599 0
M  V30 13410 H 1260.49 4.99497 -3.32058 0
M  V30 13411 H 1262.17 5.17135 -3.88819 0
M  V30 13412 N 1262.3 0.988223 1.22768 0
M  V30 13413 C 1263.54 0.661461 1.91392 0
M  V30 13414 C 1263.87 -0.805942 1.77016 0
M  V30 13415 O 1263.13 -1.5978 1.12999 0
M  V30 13416 C 1263.43 1.00744 3.42907 0
M  V30 13417 C 1263.09 2.46634 3.77469 0
M  V30 13418 C 1261.75 2.86503 3.86613 0
M  V30 13419 C 1264.11 3.41217 3.9398 0
M  V30 13420 C 1261.43 4.19954 4.09702 0
M  V30 13421 C 1263.79 4.74321 4.18572 0
M  V30 13422 C 1262.45 5.13938 4.25939 0
M  V30 13423 H 1261.72 0.242046 0.700353 0
M  V30 13424 H 1264.37 1.24354 1.45631 0
M  V30 13425 H 1262.67 0.34338 3.90292 0
M  V30 13426 H 1264.37 0.732714 3.94249 0
M  V30 13427 H 1260.96 2.14729 3.70931 0
M  V30 13428 H 1265.14 3.11589 3.86298 0
M  V30 13429 H 1260.4 4.50243 4.13631 0
M  V30 13430 H 1264.57 5.47561 4.30291 0
M  V30 13431 H 1262.2 6.17364 4.43583 0
M  V30 13432 N 1263.78 -1.38018 0.760839 0
M  V30 13433 C 1265.02 -2.0071 0.329695 0
M  V30 13434 C 1265.38 -1.59315 -1.07872 0
M  V30 13435 O 1264.67 -0.824077 -1.72973 0
M  V30 13436 C 1264.86 -3.55168 0.398778 0
M  V30 13437 C 1264.69 -4.11562 1.81237 0
M  V30 13438 C 1263.46 -4.43003 2.43056 0
M  V30 13439 C 1265.66 -4.3332 2.77018 0
M  V30 13440 N 1263.64 -4.85048 3.76301 0
M  V30 13441 C 1265.01 -4.77853 3.9504 0
M  V30 13442 C 1267.07 -4.15432 2.74446 0
M  V30 13443 C 1265.77 -5.06373 5.10861 0
M  V30 13444 C 1267.8 -4.45081 3.89431 0
M  V30 13445 C 1267.16 -4.89845 5.06193 0
M  V30 13446 H 1263.26 -0.76386 0.167457 0
M  V30 13447 H 1265.84 -1.67513 0.992343 0
M  V30 13448 H 1264.01 -3.87697 -0.233635 0
M  V30 13449 H 1265.75 -4.04665 -0.0533765 0
M  V30 13450 H 1262.5 -4.317 1.94762 0
M  V30 13451 H 1262.92 -5.10394 4.44778 0
M  V30 13452 H 1267.57 -3.80006 1.85353 0
M  V30 13453 H 1265.28 -5.40693 6.00564 0
M  V30 13454 H 1268.87 -4.32839 3.88769 0
M  V30 13455 H 1267.75 -5.12348 5.93691 0
M  V30 13456 N 1265.25 -0.510493 -1.49103 0
M  V30 13457 C 1266.18 0.251999 -2.32136 0
M  V30 13458 C 1267.16 0.953613 -1.40855 0
M  V30 13459 O 1268.35 0.943178 -1.69758 0
M  V30 13460 C 1265.48 1.31118 -3.21598 0
M  V30 13461 C 1264.43 0.72888 -4.21748 0
M  V30 13462 C 1263.76 1.88928 -5.0021 0
M  V30 13463 C 1265.06 -0.286425 -5.21514 0
M  V30 13464 H 1266.75 -0.441102 -2.96133 0
M  V30 13465 H 1264.3 -0.213577 -1.42407 0
M  V30 13466 H 1266.25 1.8524 -3.78503 0
M  V30 13467 H 1264.98 2.0336 -2.55563 0
M  V30 13468 H 1263.64 0.209336 -3.66002 0
M  V30 13469 H 1263.28 2.59961 -4.30615 0
M  V30 13470 H 1262.98 1.50568 -5.67981 0
M  V30 13471 H 1264.51 2.43465 -5.59962 0
M  V30 13472 H 1265.92 0.166997 -5.73057 0
M  V30 13473 H 1264.32 -0.586361 -5.97228 0
M  V30 13474 H 1265.39 -1.19904 -4.69842 0
M  V30 13475 N 1266.73 1.55688 -0.24474 0
M  V30 13476 C 1267.96 2.03743 0.387776 0
M  V30 13477 C 1268.38 1.1229 1.50906 0
M  V30 13478 O 1267.74 0.115445 1.80932 0
M  V30 13479 C 1267.79 3.49825 0.874927 0
M  V30 13480 O 1266.89 3.61504 1.98466 0
M  V30 13481 H 1266.23 0.658561 0.0848107 0
M  V30 13482 H 1268.76 2.01224 -0.370165 0
M  V30 13483 H 1268.77 3.90603 1.17871 0
M  V30 13484 H 1267.45 4.15864 0.0543852 0
M  V30 13485 H 1266.02 3.32622 1.68574 0
M  V30 13486 N 1268.21 -0.0283989 1.57574 0
M  V30 13487 C 1269.46 -0.719077 1.89303 0
M  V30 13488 C 1269.78 -1.75325 0.84211 0
M  V30 13489 O 1269.04 -1.95071 -0.15683 0
M  V30 13490 C 1269.34 -1.4247 3.27776 0
M  V30 13491 C 1269 -0.526442 4.47816 0
M  V30 13492 C 1267.67 -0.279038 4.8039 0
M  V30 13493 C 1270.02 0.0937038 5.21116 0
M  V30 13494 C 1267.35 0.597277 5.83652 0
M  V30 13495 C 1269.7 0.957725 6.25308 0
M  V30 13496 C 1268.36 1.21458 6.56357 0
M  V30 13497 H 1267.63 -0.263129 0.692708 0
M  V30 13498 H 1270.28 0.0210252 1.91488 0
M  V30 13499 H 1268.58 -2.23813 3.21582 0
M  V30 13500 H 1270.28 -1.96466 3.49574 0
M  V30 13501 H 1266.87 -0.729426 4.22347 0
M  V30 13502 H 1271.06 -0.084469 4.96228 0
M  V30 13503 H 1266.31 0.804582 6.06083 0
M  V30 13504 H 1270.49 1.44476 6.81249 0
M  V30 13505 H 1268.11 1.89534 7.36193 0
M  V30 13506 N 1269.69 -1.54705 -0.300681 0
M  V30 13507 C 1270.62 -1.88679 -1.37559 0
M  V30 13508 C 1271.6 -0.74574 -1.52881 0
M  V30 13509 O 1272.78 -1.0015 -1.66384 0
M  V30 13510 C 1269.91 -2.13438 -2.73974 0
M  V30 13511 C 1268.87 -3.29284 -2.73415 0
M  V30 13512 C 1268.19 -3.39462 -4.13122 0
M  V30 13513 C 1269.49 -4.66382 -2.35128 0
M  V30 13514 H 1271.19 -2.78707 -1.09373 0
M  V30 13515 H 1268.73 -1.341 -0.524704 0
M  V30 13516 H 1270.69 -2.35791 -3.49257 0
M  V30 13517 H 1269.41 -1.20181 -3.03684 0
M  V30 13518 H 1268.07 -3.06855 -2.00588 0
M  V30 13519 H 1267.72 -2.43721 -4.4001 0
M  V30 13520 H 1267.42 -4.17334 -4.1365 0
M  V30 13521 H 1268.94 -3.64075 -4.90185 0
M  V30 13522 H 1270.36 -4.88463 -3.00128 0
M  V30 13523 H 1268.75 -5.4697 -2.46867 0
M  V30 13524 H 1269.82 -4.67078 -1.30256 0
M  V30 13525 N 1271.17 0.563888 -1.47167 0
M  V30 13526 C 1272.11 1.67151 -1.59152 0
M  V30 13527 C 1273.08 1.60307 -0.434852 0
M  V30 13528 O 1274.27 1.7924 -0.654049 0
M  V30 13529 C 1271.41 3.0548 -1.60549 0
M  V30 13530 C 1270.52 3.2281 -2.87085 0
M  V30 13531 C 1269.66 4.51498 -2.79862 0
M  V30 13532 C 1268.7 4.62237 -4.01252 0
M  V30 13533 N 1267.83 5.82273 -3.92305 0
M  V30 13534 H 1272.67 1.56245 -2.53755 0
M  V30 13535 H 1270.21 0.761219 -1.25872 0
M  V30 13536 H 1272.17 3.85572 -1.59343 0
M  V30 13537 H 1270.8 3.15237 -0.69464 0
M  V30 13538 H 1269.85 2.36196 -2.98188 0
M  V30 13539 H 1271.16 3.2661 -3.76997 0
M  V30 13540 H 1270.32 5.39842 -2.76867 0
M  V30 13541 H 1269.05 4.50166 -1.87621 0
M  V30 13542 H 1268.06 3.72307 -4.04558 0
M  V30 13543 H 1269.28 4.65334 -4.94612 0
M  V30 13544 H 1267.23 5.81902 -3.02862 0
M  V30 13545 H 1267.15 5.87422 -4.7589 0
M  V30 13546 H 1268.42 6.72996 -3.93315 0
M  V30 13547 N 1272.64 1.35187 0.810078 0
M  V30 13548 C 1273.87 1.31528 1.60359 0
M  V30 13549 C 1274.29 -0.105385 1.87805 0
M  V30 13550 O 1273.65 -1.07113 1.46276 0
M  V30 13551 C 1273.7 2.12429 2.91386 0
M  V30 13552 O 1272.8 1.50262 3.84051 0
M  V30 13553 H 1272.15 0.451122 0.487222 0
M  V30 13554 H 1274.68 1.78178 1.00568 0
M  V30 13555 H 1274.69 2.24257 3.40841 0
M  V30 13556 H 1273.36 3.15714 2.70735 0
M  V30 13557 H 1271.94 1.47253 3.42594 0
M  V30 13558 N 1274.12 -1.03182 1.19127 0
M  V30 13559 C 1275.05 -2.13301 0.94999 0
M  V30 13560 C 1276.03 -1.69707 -0.115577 0
M  V30 13561 O 1277.22 -1.94161 0.0388395 0
M  V30 13562 C 1274.35 -3.43902 0.484637 0
M  V30 13563 C 1273.3 -4.01164 1.4917 0
M  V30 13564 C 1272.63 -5.2735 0.883537 0
M  V30 13565 C 1273.93 -4.36311 2.87107 0
M  V30 13566 H 1275.62 -2.33743 1.87095 0
M  V30 13567 H 1273.17 -1.12332 0.900977 0
M  V30 13568 H 1275.12 -4.20308 0.30315 0
M  V30 13569 H 1273.85 -3.23173 -0.471909 0
M  V30 13570 H 1272.5 -3.26849 1.66028 0
M  V30 13571 H 1272.15 -5.02936 -0.0804712 0
M  V30 13572 H 1271.85 -5.66624 1.55599 0
M  V30 13573 H 1273.38 -6.06425 0.71278 0
M  V30 13574 H 1274.79 -5.03666 2.73848 0
M  V30 13575 H 1273.19 -4.86659 3.51117 0
M  V30 13576 H 1274.26 -3.45743 3.39985 0
M  V30 13577 N 1275.6 -0.99472 -1.22242 0
M  V30 13578 C 1276.85 -0.672596 -1.91322 0
M  V30 13579 C 1277.18 0.793542 -1.77247 0
M  V30 13580 O 1276.45 1.57407 -1.14251 0
M  V30 13581 C 1276.74 -1.08155 -3.43474 0
M  V30 13582 C 1276.59 -2.60638 -3.6659 0
M  V30 13583 C 1277.91 -0.636161 -4.35478 0
M  V30 13584 H 1275.03 -0.24582 -0.694796 0
M  V30 13585 H 1277.67 -1.23857 -1.44082 0
M  V30 13586 H 1275.82 -0.599987 -3.83839 0
M  V30 13587 H 1277.49 -3.16479 -3.35617 0
M  V30 13588 H 1275.74 -3.02624 -3.10808 0
M  V30 13589 H 1276.41 -2.84304 -4.73155 0
M  V30 13590 H 1278.88 -1.04982 -4.02639 0
M  V30 13591 H 1277.76 -0.950584 -5.40606 0
M  V30 13592 H 1278.02 0.4631 -4.39668 0
M  V30 13593 N 1277.08 1.37613 -0.768148 0
M  V30 13594 C 1278.49 1.82437 -0.396703 0
M  V30 13595 C 1278.84 1.64019 1.07668 0
M  V30 13596 O 1277.97 1.14932 1.83356 0
M  V30 13597 C 1278.56 3.31207 -0.713265 0
M  V30 13598 C 1277.12 3.74323 -0.39492 0
M  V30 13599 C 1276.27 2.60191 -0.958962 0
M  V30 13600 H 1279.22 1.26135 -0.963099 0
M  V30 13601 H 1279.24 3.805 0.00337228 0
M  V30 13602 H 1278.75 3.4458 -1.78567 0
M  V30 13603 H 1276.85 3.66521 0.670313 0
M  V30 13604 H 1276.96 4.70558 -0.900653 0
M  V30 13605 H 1275.33 2.51797 -0.383423 0
M  V30 13606 H 1276.11 2.76358 -2.03669 0
M  V30 13607 N 1278.56 0.518393 1.4883 0
M  V30 13608 C 1279.8 -0.0199348 2.0279 0
M  V30 13609 C 1280.14 -1.35026 1.39576 0
M  V30 13610 O 1279.41 -1.86927 0.537449 0
M  V30 13611 C 1279.69 -0.154184 3.5977 0
M  V30 13612 C 1279.55 1.2005 4.33484 0
M  V30 13613 C 1280.87 -0.886547 4.31078 0
M  V30 13614 H 1277.98 -0.00577061 0.736977 0
M  V30 13615 H 1280.63 0.673178 1.77675 0
M  V30 13616 H 1278.78 -0.74451 3.81299 0
M  V30 13617 H 1280.45 1.83104 4.23404 0
M  V30 13618 H 1278.69 1.78537 3.95357 0
M  V30 13619 H 1279.36 1.05968 5.41733 0
M  V30 13620 H 1281.84 -0.385711 4.14308 0
M  V30 13621 H 1280.71 -0.949355 5.40628 0
M  V30 13622 H 1280.98 -1.93424 3.97542 0
M  V30 13623 N 1280.03 -1.55556 0.252993 0
M  V30 13624 C 1280.94 -2.25283 -0.654581 0
M  V30 13625 C 1281.96 -1.27103 -1.18831 0
M  V30 13626 O 1283.14 -1.59993 -1.22329 0
M  V30 13627 C 1280.2 -2.94336 -1.83214 0
M  V30 13628 C 1279.26 -4.0794 -1.33728 0
M  V30 13629 C 1278.5 -4.73691 -2.45871 0
M  V30 13630 O 1278.72 -4.38545 -3.64738 0
M  V30 13631 O 1277.65 -5.62083 -2.15283 0
M  V30 13632 H 1281.48 -3.03565 -0.0904091 0
M  V30 13633 H 1279.06 -1.49385 0.0212535 0
M  V30 13634 H 1280.95 -3.37808 -2.5192 0
M  V30 13635 H 1279.62 -2.18989 -2.38381 0
M  V30 13636 H 1278.53 -3.68971 -0.617323 0
M  V30 13637 H 1279.86 -4.85124 -0.831617 0
M  V30 13638 N 1281.51 0.0200419 -1.57587 0
M  V30 13639 C 1282.42 1.0346 -2.10555 0
M  V30 13640 C 1283.44 1.39035 -1.0462 0
M  V30 13641 O 1284.61 1.48172 -1.36407 0
M  V30 13642 C 1281.68 2.31389 -2.58186 0
M  V30 13643 C 1280.74 2.02311 -3.7864 0
M  V30 13644 C 1279.97 3.24141 -4.23991 0
M  V30 13645 O 1280.2 4.35132 -3.68803 0
M  V30 13646 O 1279.13 3.09312 -5.16342 0
M  V30 13647 H 1282.96 0.614419 -2.9742 0
M  V30 13648 H 1280.54 0.237604 -1.47498 0
M  V30 13649 H 1282.42 3.06582 -2.89112 0
M  V30 13650 H 1281.1 2.72684 -1.74428 0
M  V30 13651 H 1280.01 1.24658 -3.5272 0
M  V30 13652 H 1281.34 1.65866 -4.6341 0
M  V30 13653 N 1282.99 1.54862 0.292472 0
M  V30 13654 C 1284.4 1.65459 0.864891 0
M  V30 13655 C 1284.75 0.568808 1.87774 0
M  V30 13656 O 1283.88 -0.293107 2.14406 0
M  V30 13657 C 1284.47 2.99939 1.5755 0
M  V30 13658 C 1283.03 3.12628 2.09621 0
M  V30 13659 C 1282.18 2.61179 0.931713 0
M  V30 13660 H 1285.13 1.58549 0.0692679 0
M  V30 13661 H 1285.15 2.91839 2.44152 0
M  V30 13662 H 1284.66 3.78943 0.838088 0
M  V30 13663 H 1282.76 2.3836 2.86383 0
M  V30 13664 H 1282.88 4.18911 2.32488 0
M  V30 13665 H 1281.24 2.17846 1.31967 0
M  V30 13666 H 1282.02 3.42669 0.208121 0
M  V30 13667 N 1284.47 -0.556076 1.47464 0
M  V30 13668 C 1285.72 -1.30955 1.53407 0
M  V30 13669 C 1286.03 -1.94559 0.201485 0
M  V30 13670 O 1287.24 -2.71144 0.138925 0
M  V30 13671 C 1285.69 -2.37476 2.70431 0
M  V30 13672 C 1285.3 -1.80057 4.10224 0
M  V30 13673 C 1287.04 -3.13997 2.85668 0
M  V30 13674 C 1284.95 -2.84365 5.18547 0
M  V30 13675 H 1283.88 -0.4924 0.571015 0
M  V30 13676 H 1286.53 -0.590459 1.73741 0
M  V30 13677 H 1284.91 -3.12304 2.43479 0
M  V30 13678 H 1286.09 -1.11593 4.47083 0
M  V30 13679 H 1284.4 -1.16116 3.99882 0
M  V30 13680 H 1287 -3.91892 3.63764 0
M  V30 13681 H 1287.34 -3.68253 1.94153 0
M  V30 13682 H 1287.88 -2.46281 3.12395 0
M  V30 13683 H 1284.62 -2.34963 6.11942 0
M  V30 13684 H 1284.14 -3.51235 4.86203 0
M  V30 13685 H 1285.81 -3.47836 5.45545 0
M  V30 13686 N 1285.95 -1.35615 -0.802897 0
M  V30 13687 C 1286.91 -1.28705 -1.89651 0
M  V30 13688 C 1287.91 -0.197681 -1.5958 0
M  V30 13689 O 1289.1 -0.451618 -1.68244 0
M  V30 13690 C 1286.23 -0.991941 -3.26149 0
M  V30 13691 H 1287.43 -2.25951 -1.97196 0
M  V30 13692 H 1284.98 -1.20192 -0.999179 0
M  V30 13693 H 1285.71 -0.0235051 -3.24291 0
M  V30 13694 H 1285.5 -1.78013 -3.49362 0
M  V30 13695 H 1286.99 -0.969298 -4.06195 0
M  V30 13696 N 1287.43 1.02549 -1.19673 0
M  V30 13697 C 1288.67 1.76004 -1.00144 0
M  V30 13698 C 1289 1.888 0.467423 0
M  V30 13699 O 1288.26 1.404 1.36331 0
M  V30 13700 C 1288.55 3.18597 -1.61959 0
M  V30 13701 C 1288.22 3.258 -3.11713 0
M  V30 13702 C 1286.88 3.27473 -3.52583 0
M  V30 13703 C 1289.23 3.24675 -4.0772 0
M  V30 13704 C 1286.56 3.25681 -4.88005 0
M  V30 13705 C 1288.91 3.24424 -5.43076 0
M  V30 13706 C 1287.58 3.24396 -5.83372 0
M  V30 13707 H 1286.85 0.644044 -0.366453 0
M  V30 13708 H 1289.5 1.20338 -1.48966 0
M  V30 13709 H 1287.8 3.77364 -1.05375 0
M  V30 13710 H 1289.5 3.74109 -1.44374 0
M  V30 13711 H 1286.09 3.25228 -2.7915 0
M  V30 13712 H 1290.27 3.2256 -3.77185 0
M  V30 13713 H 1285.53 3.23986 -5.18501 0
M  V30 13714 H 1289.7 3.22504 -6.17223 0
M  V30 13715 H 1287.33 3.22762 -6.8828 0
M  V30 13716 N 1288.9 1.00119 1.21713 0
M  V30 13717 C 1290.15 0.680377 1.90303 0
M  V30 13718 C 1290.47 -0.790927 1.7824 0
M  V30 13719 O 1289.74 -1.5676 1.17486 0
M  V30 13720 H 1288.32 0.248665 0.704397 0
M  V30 13721 H 1290.98 1.26948 1.47886 0
M  V30 13722 H 1290.08 0.950188 2.97284 0
M  V30 13723 N 1290.38 -1.37203 0.775435 0
M  V30 13724 C 1291.63 -1.99207 0.340756 0
M  V30 13725 C 1291.95 -1.61861 -1.08747 0
M  V30 13726 O 1291.22 -0.88583 -1.74728 0
M  V30 13727 H 1289.8 -0.736803 0.123004 0
M  V30 13728 H 1292.46 -1.67625 0.994379 0
M  V30 13729 H 1291.56 -3.09243 0.421346 0
M  V30 13730 N 1291.86 -0.526279 -1.48553 0
M  V30 13731 C 1292.81 0.238513 -2.29564 0
M  V30 13732 C 1293.78 0.937222 -1.37133 0
M  V30 13733 O 1294.96 0.93897 -1.66096 0
M  V30 13734 C 1292.1 1.28173 -3.20415 0
M  V30 13735 C 1291.21 0.592244 -4.27921 0
M  V30 13736 C 1290.35 1.61808 -5.05956 0
M  V30 13737 C 1289.39 0.911846 -6.0527 0
M  V30 13738 N 1288.53 1.88305 -6.76377 0
M  V30 13739 H 1293.37 -0.458502 -2.94452 0
M  V30 13740 H 1290.9 -0.237948 -1.45163 0
M  V30 13741 H 1292.86 1.89883 -3.71484 0
M  V30 13742 H 1291.49 1.94718 -2.57458 0
M  V30 13743 H 1290.54 -0.138714 -3.80147 0
M  V30 13744 H 1291.85 0.0375427 -4.98786 0
M  V30 13745 H 1291.01 2.30956 -5.61021 0
M  V30 13746 H 1289.75 2.20667 -4.34922 0
M  V30 13747 H 1288.75 0.206273 -5.49413 0
M  V30 13748 H 1289.98 0.329415 -6.78301 0
M  V30 13749 H 1287.92 2.46079 -6.08096 0
M  V30 13750 H 1287.84 1.37969 -7.43304 0
M  V30 13751 H 1289.11 2.56663 -7.36033 0
M  V30 13752 N 1293.34 1.5542 -0.261239 0
M  V30 13753 C 1294.27 2.24949 0.626126 0
M  V30 13754 C 1295.25 1.23474 1.16997 0
M  V30 13755 O 1296.43 1.52161 1.20667 0
M  V30 13756 C 1293.56 2.95996 1.81669 0
M  V30 13757 C 1292.52 4.04282 1.40499 0
M  V30 13758 C 1291.84 4.62831 2.67753 0
M  V30 13759 C 1293.14 5.1923 0.56543 0
M  V30 13760 H 1294.84 2.99364 0.0463164 0
M  V30 13761 H 1292.38 1.43985 0.0208366 0
M  V30 13762 H 1294.34 3.43343 2.44323 0
M  V30 13763 H 1293.06 2.19093 2.42211 0
M  V30 13764 H 1291.72 3.57726 0.801712 0
M  V30 13765 H 1291.37 3.82611 3.26524 0
M  V30 13766 H 1291.07 5.35938 2.40925 0
M  V30 13767 H 1292.59 5.12918 3.31281 0
M  V30 13768 H 1294.01 5.62714 1.09663 0
M  V30 13769 H 1292.4 5.98814 0.392607 0
M  V30 13770 H 1293.47 4.83086 -0.419059 0
M  V30 13771 N 1294.82 -0.0116844 1.57596 0
M  V30 13772 C 1295.76 -1.00684 2.07681 0
M  V30 13773 C 1296.73 -1.34858 0.969666 0
M  V30 13774 O 1297.92 -1.44896 1.24136 0
M  V30 13775 C 1295.06 -2.29729 2.57524 0
M  V30 13776 C 1294.17 -2.0156 3.82096 0
M  V30 13777 C 1293.31 -3.24601 4.20485 0
M  V30 13778 C 1292.34 -2.92066 5.37925 0
M  V30 13779 N 1291.48 -4.0761 5.71663 0
M  V30 13780 H 1296.32 -0.572787 2.92443 0
M  V30 13781 H 1293.86 -0.271184 1.44579 0
M  V30 13782 H 1295.82 -3.05152 2.84496 0
M  V30 13783 H 1294.45 -2.70824 1.75653 0
M  V30 13784 H 1293.5 -1.16556 3.62103 0
M  V30 13785 H 1294.81 -1.73572 4.67626 0
M  V30 13786 H 1293.96 -4.08379 4.48677 0
M  V30 13787 H 1292.7 -3.55718 3.3364 0
M  V30 13788 H 1291.71 -2.06693 5.09468 0
M  V30 13789 H 1292.93 -2.62209 6.26437 0
M  V30 13790 H 1290.88 -4.38645 4.87777 0
M  V30 13791 H 1290.8 -3.83105 6.51741 0
M  V30 13792 H 1292.06 -4.92211 6.04441 0
M  V30 13793 N 1296.29 -1.55015 -0.284256 0
M  V30 13794 C 1297.24 -1.87898 -1.37102 0
M  V30 13795 C 1298.24 -0.754231 -1.51683 0
M  V30 13796 O 1299.44 -0.93844 -1.53601 0
M  V30 13797 H 1295.82 -0.596208 -0.458301 0
M  V30 13798 H 1297.79 -2.78704 -1.06613 0
M  V30 13799 C 1296.54 -2.15764 -2.72656 0
M  V30 13800 H 1295.86 -3.01792 -2.62224 0
M  V30 13801 H 1297.3 -2.42701 -3.47667 0
M  V30 13802 C 1295.76 -0.961561 -3.22886 0
M  V30 13803 O 1296.29 -0.190489 -4.01248 0
M  V30 13804 N 1294.49 -0.762338 -2.80422 0
M  V30 13805 H 1294.04 -1.39104 -2.16813 0
M  V30 13806 H 1294 0.0363482 -3.14379 0
M  V30 13807 N 1297.77 0.548248 -1.47757 0
M  V30 13808 C 1299.18 1.13033 -1.48595 0
M  V30 13809 C 1299.53 1.94657 -0.245575 0
M  V30 13810 O 1298.66 2.06445 0.648813 0
M  V30 13811 C 1299.25 2.05657 -2.69241 0
M  V30 13812 C 1297.81 2.59119 -2.73009 0
M  V30 13813 C 1296.96 1.35686 -2.41836 0
M  V30 13814 H 1299.91 0.334397 -1.55137 0
M  V30 13815 H 1299.93 2.89671 -2.4672 0
M  V30 13816 H 1299.44 1.46222 -3.595 0
M  V30 13817 H 1297.54 3.22327 -1.86912 0
M  V30 13818 H 1297.66 2.99501 -3.73946 0
M  V30 13819 H 1296.02 1.66659 -1.92606 0
M  V30 13820 H 1296.8 0.780311 -3.34314 0
M  V30 13821 N 1299.25 1.36039 0.795694 0
M  V30 13822 C 1300.18 1.32528 1.92246 0
M  V30 13823 C 1301.16 0.197805 1.68946 0
M  V30 13824 O 1302.35 0.394474 1.90151 0
M  V30 13825 C 1299.48 1.10748 3.29169 0
M  V30 13826 C 1298.43 2.20253 3.66978 0
M  V30 13827 C 1297.76 1.83624 5.02181 0
M  V30 13828 C 1299.06 3.62296 3.76216 0
M  V30 13829 H 1300.75 2.2681 1.95442 0
M  V30 13830 H 1298.3 1.09181 0.938908 0
M  V30 13831 H 1300.25 1.06929 4.07608 0
M  V30 13832 H 1298.97 0.129141 3.26345 0
M  V30 13833 H 1297.63 2.23187 2.90832 0
M  V30 13834 H 1297.28 0.843804 4.95872 0
M  V30 13835 H 1296.98 2.56935 5.28449 0
M  V30 13836 H 1298.5 1.81349 5.83048 0
M  V30 13837 H 1299.92 3.61623 4.44861 0
M  V30 13838 H 1298.31 4.34459 4.13963 0
M  V30 13839 H 1299.38 3.97657 2.77483 0
M  V30 13840 N 1300.73 -1.01913 1.20215 0
M  V30 13841 C 1301.66 -2.10513 0.906476 0
M  V30 13842 C 1302.67 -1.62463 -0.104758 0
M  V30 13843 O 1303.86 -1.78055 0.12593 0
M  V30 13844 C 1300.96 -3.3722 0.337012 0
M  V30 13845 C 1300.14 -4.14417 1.39917 0
M  V30 13846 C 1299.19 -5.19428 0.841489 0
M  V30 13847 O 1298.22 -5.48486 1.52157 0
M  V30 13848 N 1299.42 -5.79442 -0.350365 0
M  V30 13849 H 1302.19 -2.36465 1.84132 0
M  V30 13850 H 1299.75 -1.18283 1.10548 0
M  V30 13851 H 1301.74 -4.04669 -0.0501507 0
M  V30 13852 H 1300.31 -3.08538 -0.502325 0
M  V30 13853 H 1299.53 -3.41975 1.96078 0
M  V30 13854 H 1300.82 -4.62777 2.1146 0
M  V30 13855 H 1300.22 -5.58166 -0.920204 0
M  V30 13856 H 1298.77 -6.48252 -0.679194 0
M  V30 13857 N 1302.21 -1.00763 -1.2118 0
M  V30 13858 C 1303.45 -0.692851 -1.90598 0
M  V30 13859 C 1303.79 0.774698 -1.78079 0
M  V30 13860 O 1303.06 1.56186 -1.15914 0
M  V30 13861 C 1303.34 -1.11792 -3.42308 0
M  V30 13862 C 1303.2 -2.64511 -3.63805 0
M  V30 13863 C 1304.52 -0.682314 -4.34779 0
M  V30 13864 H 1301.63 -0.253175 -0.69215 0
M  V30 13865 H 1304.28 -1.25378 -1.4276 0
M  V30 13866 H 1302.43 -0.640665 -3.83181 0
M  V30 13867 H 1304.1 -3.20021 -3.32242 0
M  V30 13868 H 1302.34 -3.05903 -3.0758 0
M  V30 13869 H 1303.01 -2.89306 -4.70113 0
M  V30 13870 H 1305.49 -1.09247 -4.01503 0
M  V30 13871 H 1304.36 -1.00787 -5.39568 0
M  V30 13872 H 1304.63 0.416441 -4.40134 0
M  V30 13873 N 1303.68 1.3679 -0.7827 0
M  V30 13874 C 1304.93 1.99712 -0.352533 0
M  V30 13875 C 1305.26 1.61984 1.0712 0
M  V30 13876 O 1304.54 0.871342 1.7389 0
M  V30 13877 C 1304.82 3.5649 -0.508628 0
M  V30 13878 C 1304.67 4.04093 -1.97557 0
M  V30 13879 C 1305.99 4.40026 0.0804447 0
M  V30 13880 H 1303.11 0.725522 -0.129566 0
M  V30 13881 H 1305.75 1.62305 -0.987788 0
M  V30 13882 H 1303.9 3.88487 0.0321664 0
M  V30 13883 H 1305.58 3.82613 -2.57691 0
M  V30 13884 H 1303.82 3.55881 -2.48055 0
M  V30 13885 H 1304.49 5.13088 -2.03579 0
M  V30 13886 H 1306.97 4.14351 -0.381113 0
M  V30 13887 H 1305.84 5.48868 -0.0588424 0
M  V30 13888 H 1306.1 4.26285 1.17189 0
M  V30 13889 N 1305.16 0.53415 1.48272 0
M  V30 13890 C 1306.09 -0.215037 2.32508 0
M  V30 13891 C 1307.07 -0.931083 1.42355 0
M  V30 13892 O 1308.26 -0.916051 1.71237 0
M  V30 13893 C 1305.39 -1.25985 3.23643 0
M  V30 13894 C 1304.34 -0.661692 4.22854 0
M  V30 13895 C 1303.67 -1.80946 5.03153 0
M  V30 13896 C 1304.97 0.369358 5.20992 0
M  V30 13897 H 1306.66 0.488158 2.95394 0
M  V30 13898 H 1304.21 0.236206 1.4205 0
M  V30 13899 H 1306.16 -1.79195 3.81402 0
M  V30 13900 H 1304.89 -1.99268 2.58766 0
M  V30 13901 H 1303.54 -0.151082 3.66289 0
M  V30 13902 H 1303.19 -2.53077 4.34696 0
M  V30 13903 H 1302.89 -1.41513 5.70305 0
M  V30 13904 H 1304.42 -2.34526 5.63764 0
M  V30 13905 H 1305.83 -0.0758076 5.7325 0
M  V30 13906 H 1304.23 0.681301 5.9622 0
M  V30 13907 H 1305.3 1.27363 4.67875 0
M  V30 13908 N 1306.64 -1.55279 0.269478 0
M  V30 13909 C 1307.89 -1.99767 -0.34943 0
M  V30 13910 C 1308.22 -1.15762 -1.55926 0
M  V30 13911 O 1307.49 -0.22633 -1.93179 0
M  V30 13912 C 1307.78 -3.52474 -0.73716 0
M  V30 13913 C 1307.63 -4.47236 0.479621 0
M  V30 13914 C 1308.95 -4.10924 -1.57573 0
M  V30 13915 H 1306.07 -0.72623 -0.125535 0
M  V30 13916 H 1308.71 -1.86257 0.375298 0
M  V30 13917 H 1306.86 -3.64118 -1.35464 0
M  V30 13918 H 1308.53 -4.47543 1.11816 0
M  V30 13919 H 1306.78 -4.19127 1.11871 0
M  V30 13920 H 1307.45 -5.51754 0.164653 0
M  V30 13921 H 1309.92 -4.02522 -1.05429 0
M  V30 13922 H 1308.8 -5.17995 -1.81584 0
M  V30 13923 H 1309.06 -3.60798 -2.55495 0
M  V30 13924 N 1308.12 0.00332656 -1.576 0
M  V30 13925 C 1309.08 0.980628 -2.07163 0
M  V30 13926 C 1310.08 1.27455 -0.980402 0
M  V30 13927 O 1311.27 1.22029 -1.24317 0
M  V30 13928 C 1308.4 2.30647 -2.51028 0
M  V30 13929 H 1309.6 0.551982 -2.94776 0
M  V30 13930 H 1307.15 0.250728 -1.54276 0
M  V30 13931 H 1307.88 2.78207 -1.66647 0
M  V30 13932 H 1307.67 2.10635 -3.30719 0
M  V30 13933 H 1309.16 3.00761 -2.89711 0
M  V30 13934 N 1309.6 1.55164 0.276031 0
M  V30 13935 C 1310.82 1.79649 1.02635 0
M  V30 13936 C 1311.24 0.568289 1.80044 0
M  V30 13937 O 1310.6 -0.462569 1.7654 0
M  V30 13938 C 1310.65 3.01974 1.98731 0
M  V30 13939 O 1310.37 4.2005 1.24459 0
M  V30 13940 C 1311.87 3.39039 2.856 0
M  V30 13941 H 1309.09 0.598529 0.303321 0
M  V30 13942 H 1311.63 2.02171 0.307733 0
M  V30 13943 H 1309.79 2.81586 2.6606 0
M  V30 13944 H 1310.2 4.89185 1.89205 0
M  V30 13945 H 1311.68 4.27809 3.48831 0
M  V30 13946 H 1312.15 2.58306 3.55211 0
M  V30 13947 H 1312.76 3.61674 2.23767 0
M  V30 13948 N 1311.07 -0.540404 1.48045 0
M  V30 13949 C 1312.02 -1.64191 1.58194 0
M  V30 13950 C 1313.01 -1.54775 0.439703 0
M  V30 13951 O 1314.2 -1.62973 0.690572 0
M  V30 13952 C 1311.33 -3.02937 1.61505 0
M  V30 13953 C 1310.42 -3.17495 2.81172 0
M  V30 13954 N 1310.81 -3.02061 4.05701 0
M  V30 13955 C 1309.1 -3.4853 2.78286 0
M  V30 13956 C 1309.81 -3.19757 4.85932 0
M  V30 13957 N 1308.78 -3.46859 4.18557 0
M  V30 13958 H 1312.58 -1.50852 2.52232 0
M  V30 13959 H 1310.1 -0.745602 1.44272 0
M  V30 13960 H 1312.09 -3.82048 1.66868 0
M  V30 13961 H 1310.75 -3.17376 0.685753 0
M  V30 13962 H 1311.77 -2.79038 4.363 0
M  V30 13963 H 1308.44 -3.69391 1.94567 0
M  V30 13964 H 1309.83 -3.1265 5.94727 0
M  V30 13965 N 1312.55 -1.36459 -0.788468 0
M  V30 13966 C 1313.52 -1.3071 -1.88275 0
M  V30 13967 C 1314.52 -0.214596 -1.59362 0
M  V30 13968 O 1315.71 -0.469437 -1.67756 0
M  V30 13969 C 1312.84 -1.02648 -3.25079 0
M  V30 13970 H 1314.03 -2.28029 -1.94788 0
M  V30 13971 H 1311.58 -1.21245 -0.986375 0
M  V30 13972 H 1312.32 -0.0578992 -3.24248 0
M  V30 13973 H 1312.1 -1.81708 -3.47454 0
M  V30 13974 H 1313.59 -1.01233 -4.05144 0
M  V30 13975 N 1314.03 1.01274 -1.20754 0
M  V30 13976 C 1315.31 1.7213 -0.929008 0
M  V30 13977 C 1315.69 2.03503 0.561217 0
M  V30 13978 O 1315.04 1.70259 1.52395 0
M  V30 13979 C 1315.25 2.98636 -1.80603 0
M  V30 13980 C 1316.59 3.71823 -2.0502 0
M  V30 13981 O 1317.62 3.08601 -1.77888 0
M  V30 13982 O 1316.48 4.8552 -2.50864 0
M  V30 13983 H 1313.57 0.750361 -0.347689 0
M  V30 13984 H 1316.12 1.07086 -1.31646 0
M  V30 13985 H 1314.89 2.71803 -2.81494 0
M  V30 13986 H 1314.51 3.7142 -1.4189 0
M  V30 13987 N 1315.51 1.01404 1.20644 0
M  V30 13988 C 1316.76 0.697244 1.89265 0
M  V30 13989 C 1317.07 -0.776149 1.79542 0
M  V30 13990 O 1318.28 -1.2054 2.43274 0
M  V30 13991 C 1316.73 1.19672 3.39421 0
M  V30 13992 C 1316.34 2.69683 3.57736 0
M  V30 13993 C 1318.09 0.955225 4.13613 0
M  V30 13994 C 1315.99 3.13124 5.01704 0
M  V30 13995 H 1314.92 0.257105 0.708811 0
M  V30 13996 H 1317.57 1.22639 1.36499 0
M  V30 13997 H 1315.96 0.595562 3.91496 0
M  V30 13998 H 1317.13 3.35326 3.16059 0
M  V30 13999 H 1315.44 2.91946 2.96911 0
M  V30 14000 H 1318.04 1.25524 5.19757 0
M  V30 14001 H 1318.38 -0.108362 4.16159 0
M  V30 14002 H 1318.92 1.51962 3.67631 0
M  V30 14003 H 1315.66 4.18748 5.04311 0
M  V30 14004 H 1315.18 2.522 5.44201 0
M  V30 14005 H 1316.86 3.05617 5.70269 0
M  V30 14006 N 1316.99 -1.36373 0.789944 0
M  V30 14007 C 1317.92 -2.27803 0.134613 0
M  V30 14008 C 1318.9 -1.47252 -0.689599 0
M  V30 14009 O 1320.08 -1.76551 -0.660466 0
M  V30 14010 C 1317.21 -3.28751 -0.814888 0
M  V30 14011 C 1316.26 -4.26439 -0.0724012 0
M  V30 14012 S 1317.09 -5.20654 1.2522 0
M  V30 14013 C 1318.24 -6.25148 0.306715 0
M  V30 14014 H 1318.48 -2.83036 0.909837 0
M  V30 14015 H 1316.01 -1.42922 0.584187 0
M  V30 14016 H 1317.97 -3.87413 -1.35726 0
M  V30 14017 H 1316.63 -2.72429 -1.56336 0
M  V30 14018 H 1315.82 -4.97724 -0.792894 0
M  V30 14019 H 1315.42 -3.7186 0.399504 0
M  V30 14020 H 1317.72 -6.75546 -0.514246 0
M  V30 14021 H 1318.66 -7.0117 0.98827 0
M  V30 14022 H 1319.07 -5.64428 -0.0901834 0
M  V30 14023 N 1318.47 -0.542005 -1.47987 0
M  V30 14024 C 1319.41 0.227398 -2.31486 0
M  V30 14025 C 1320.41 0.923984 -1.41982 0
M  V30 14026 O 1321.61 0.847 -1.58827 0
M  V30 14027 H 1317.99 0.0922034 -0.746326 0
M  V30 14028 H 1319.96 -0.49625 -2.94245 0
M  V30 14029 C 1318.71 1.25384 -3.24306 0
M  V30 14030 H 1318.03 0.727243 -3.9313 0
M  V30 14031 H 1319.47 1.76337 -3.85592 0
M  V30 14032 C 1317.93 2.29378 -2.46754 0
M  V30 14033 O 1318.46 3.36034 -2.201 0
M  V30 14034 N 1316.67 2.02905 -2.08033 0
M  V30 14035 H 1316.21 1.16186 -2.2991 0
M  V30 14036 H 1316.17 2.72705 -1.56458 0
M  V30 14037 N 1319.94 1.55134 -0.277709 0
M  V30 14038 C 1321.19 1.99949 0.338831 0
M  V30 14039 C 1321.52 1.16587 1.5531 0
M  V30 14040 O 1320.8 0.236572 1.93056 0
M  V30 14041 C 1321.08 3.5286 0.718457 0
M  V30 14042 C 1320.93 4.46975 -0.503332 0
M  V30 14043 C 1322.25 4.11754 1.55392 0
M  V30 14044 H 1319.37 0.726885 0.121682 0
M  V30 14045 H 1322.01 1.86055 -0.385171 0
M  V30 14046 H 1320.16 3.64831 1.33531 0
M  V30 14047 H 1321.84 4.46944 -1.14188 0
M  V30 14048 H 1320.08 4.18528 -1.14092 0
M  V30 14049 H 1320.75 5.51659 -0.193912 0
M  V30 14050 H 1323.23 4.03075 1.03293 0
M  V30 14051 H 1322.1 5.1895 1.78835 0
M  V30 14052 H 1322.36 3.62147 2.53578 0
M  V30 14053 N 1321.42 0.00503138 1.57599 0
M  V30 14054 C 1322.83 -0.537106 1.78807 0
M  V30 14055 C 1323.18 -1.73666 0.912945 0
M  V30 14056 O 1322.31 -2.16085 0.116775 0
M  V30 14057 C 1322.9 -0.98116 3.24282 0
M  V30 14058 C 1321.46 -1.46857 3.46569 0
M  V30 14059 C 1320.61 -0.422088 2.74069 0
M  V30 14060 H 1323.56 0.231182 1.57007 0
M  V30 14061 H 1323.58 -1.8469 3.32671 0
M  V30 14062 H 1323.09 -0.107907 3.8795 0
M  V30 14063 H 1321.19 -2.36255 2.88122 0
M  V30 14064 H 1321.31 -1.49256 4.55258 0
M  V30 14065 H 1319.67 -0.884853 2.38836 0
M  V30 14066 H 1320.45 0.442285 3.40439 0
M  V30 14067 N 1322.9 -1.55308 -0.267798 0
M  V30 14068 C 1324.32 -1.47264 -0.61526 0
M  V30 14069 C 1324.52 -0.691025 -1.8928 0
M  V30 14070 O 1323.57 -0.211964 -2.51609 0
M  V30 14071 C 1324.88 -2.91519 -0.73739 0
M  V30 14072 C 1326.43 -3.01764 -0.831102 0
M  V30 14073 C 1326.91 -4.47283 -0.984965 0
M  V30 14074 N 1328.4 -4.51134 -1.05036 0
M  V30 14075 C 1329.13 -5.60952 -1.1883 0
M  V30 14076 N 1328.63 -6.80625 -1.29311 0
M  V30 14077 N 1330.42 -5.48705 -1.21982 0
M  V30 14078 H 1322.57 -2.04577 0.57114 0
M  V30 14079 H 1324.84 -0.927908 0.194141 0
M  V30 14080 H 1324.54 -3.51456 0.130974 0
M  V30 14081 H 1324.42 -3.40829 -1.61603 0
M  V30 14082 H 1326.8 -2.4192 -1.68993 0
M  V30 14083 H 1326.88 -2.55698 0.0722509 0
M  V30 14084 H 1326.53 -5.07732 -0.130776 0
M  V30 14085 H 1326.46 -4.91011 -1.90305 0
M  V30 14086 H 1328.95 -3.6493 -0.981551 0
M  V30 14087 H 1329.26 -7.60071 -1.39685 0
M  V30 14088 H 1327.61 -6.83426 -1.26306 0
M  V30 14089 H 1330.8 -4.5415 -1.13428 0
M  V30 14090 H 1330.97 -6.34332 -1.32388 0
M  V30 14091 N 1324.38 0.532545 -1.4833 0
M  V30 14092 C 1325.79 1.11451 -1.49785 0
M  V30 14093 C 1326.14 1.94386 -0.266207 0
M  V30 14094 O 1325.26 2.07121 0.62688 0
M  V30 14095 C 1325.86 2.0279 -2.71407 0
M  V30 14096 C 1324.42 2.56209 -2.75742 0
M  V30 14097 C 1323.57 1.33114 -2.43261 0
M  V30 14098 H 1326.52 0.317924 -1.55483 0
M  V30 14099 H 1326.54 2.87038 -2.49779 0
M  V30 14100 H 1326.05 1.42401 -3.61031 0
M  V30 14101 H 1324.15 3.20327 -1.9032 0
M  V30 14102 H 1324.26 2.95518 -3.77102 0
M  V30 14103 H 1322.63 1.64607 -1.94362 0
M  V30 14104 H 1323.41 0.744809 -3.35123 0
M  V30 14105 N 1325.86 1.36875 0.78122 0
M  V30 14106 C 1326.82 1.31706 1.8758 0
M  V30 14107 C 1327.82 0.223044 1.59246 0
M  V30 14108 O 1329.01 0.478327 1.67504 0
M  V30 14109 C 1326.14 1.0437 3.2453 0
M  V30 14110 H 1327.33 2.29059 1.93576 0
M  V30 14111 H 1324.89 1.21766 0.979931 0
M  V30 14112 H 1325.62 0.0750941 3.24213 0
M  V30 14113 H 1325.41 1.83548 3.46486 0
M  V30 14114 H 1326.9 1.0338 4.04602 0
M  V30 14115 N 1327.33 -1.00632 1.21289 0
M  V30 14116 C 1328.58 -1.74044 1.02728 0
M  V30 14117 C 1328.9 -1.89963 -0.440351 0
M  V30 14118 O 1328.17 -1.44958 -1.31772 0
M  V30 14119 H 1326.75 -0.644813 0.377127 0
M  V30 14120 H 1329.41 -1.21272 1.52575 0
M  V30 14121 H 1328.51 -2.74011 1.49413 0
M  V30 14122 N 1328.81 -1.02043 -1.20104 0
M  V30 14123 C 1330.06 -0.710566 -1.89197 0
M  V30 14124 C 1330.38 0.762471 -1.79475 0
M  V30 14125 O 1329.65 1.54871 -1.19965 0
M  V30 14126 H 1328.23 -0.259839 -0.700352 0
M  V30 14127 H 1330.89 -1.29285 -1.45848 0
M  V30 14128 H 1329.99 -0.997363 -2.95735 0
M  V30 14129 N 1330.29 1.35952 -0.797165 0
M  V30 14130 C 1331.2 2.33726 -0.202271 0
M  V30 14131 C 1332.22 1.61415 0.649719 0
M  V30 14132 O 1333.39 1.93351 0.563686 0
M  V30 14133 C 1330.46 3.40612 0.64685 0
M  V30 14134 C 1329.52 4.28712 -0.224536 0
M  V30 14135 C 1328.75 5.30493 0.584153 0
M  V30 14136 O 1328.97 5.40599 1.81957 0
M  V30 14137 O 1327.91 6.01897 -0.0200239 0
M  V30 14138 H 1331.73 2.86383 -1.01087 0
M  V30 14139 H 1329.32 1.38557 -0.558768 0
M  V30 14140 H 1331.2 4.05944 1.1308 0
M  V30 14141 H 1329.88 2.90243 1.43321 0
M  V30 14142 H 1328.78 3.66394 -0.755415 0
M  V30 14143 H 1330.12 4.82454 -0.974603 0
M  V30 14144 N 1331.77 0.549846 1.47697 0
M  V30 14145 C 1333.02 0.0230503 2.02487 0
M  V30 14146 C 1333.34 -1.32382 1.42497 0
M  V30 14147 O 1332.6 -1.87293 0.567441 0
M  V30 14148 C 1332.9 -0.127268 3.57173 0
M  V30 14149 C 1332.56 1.14777 4.36047 0
M  V30 14150 C 1331.23 1.49716 4.57317 0
M  V30 14151 C 1333.58 1.99302 4.81589 0
M  V30 14152 C 1330.91 2.69042 5.21376 0
M  V30 14153 C 1333.26 3.17824 5.46965 0
M  V30 14154 C 1331.92 3.53086 5.66469 0
M  V30 14155 H 1331.19 0.00843471 0.740952 0
M  V30 14156 H 1333.84 0.719876 1.77454 0
M  V30 14157 H 1332.14 -0.907008 3.81157 0
M  V30 14158 H 1333.84 -0.550103 3.97209 0
M  V30 14159 H 1330.43 0.865703 4.19766 0
M  V30 14160 H 1334.61 1.73618 4.64942 0
M  V30 14161 H 1329.87 2.9654 5.34672 0
M  V30 14162 H 1334.04 3.83612 5.81218 0
M  V30 14163 H 1331.67 4.45643 6.15878 0
M  V30 14164 N 1333.25 -1.54984 0.285932 0
M  V30 14165 C 1334.49 -1.99436 -0.32709 0
M  V30 14166 C 1334.82 -1.17582 -1.55562 0
M  V30 14167 O 1334.09 -0.268002 -1.94058 0
M  V30 14168 H 1332.67 -0.736662 -0.123846 0
M  V30 14169 H 1335.33 -1.90881 0.393774 0
M  V30 14170 H 1334.42 -3.0609 -0.609523 0
M  V30 14171 N 1334.72 -0.0133892 -1.57594 0
M  V30 14172 C 1335.95 0.67827 -1.95149 0
M  V30 14173 C 1336.36 1.67089 -0.887572 0
M  V30 14174 O 1335.71 1.8316 0.140774 0
M  V30 14175 C 1335.77 1.45441 -3.28766 0
M  V30 14176 C 1335.43 0.621889 -4.52749 0
M  V30 14177 C 1336.43 -0.0961541 -5.19811 0
M  V30 14178 C 1334.11 0.563917 -4.99124 0
M  V30 14179 C 1336.11 -0.86101 -6.31558 0
M  V30 14180 C 1333.79 -0.204654 -6.10757 0
M  V30 14181 C 1334.79 -0.915839 -6.76832 0
M  V30 14182 O 1334.48 -1.67184 -7.86323 0
M  V30 14183 H 1334.21 0.192983 -0.647869 0
M  V30 14184 H 1336.77 -0.0646816 -2.05298 0
M  V30 14185 H 1335 2.24215 -3.15063 0
M  V30 14186 H 1336.69 2.03268 -3.51336 0
M  V30 14187 H 1337.45 -0.0606029 -4.84962 0
M  V30 14188 H 1333.33 1.10702 -4.47511 0
M  V30 14189 H 1336.87 -1.41664 -6.83064 0
M  V30 14190 H 1332.77 -0.241979 -6.45046 0
M  V30 14191 H 1333.54 -1.58996 -8.02909 0
M  V30 14192 N 1336.2 1.55448 0.259558 0
M  V30 14193 C 1337.48 1.6742 1.01143 0
M  V30 14194 C 1337.86 0.549525 2.03822 0
M  V30 14195 O 1337.21 -0.448699 2.24051 0
M  V30 14196 C 1337.42 3.07201 1.65616 0
M  V30 14197 C 1338.77 3.6539 2.16277 0
M  V30 14198 O 1339.79 3.0992 1.7558 0
M  V30 14199 O 1338.65 4.62604 2.90963 0
M  V30 14200 H 1335.74 0.680469 0.469991 0
M  V30 14201 H 1338.29 1.67783 0.254348 0
M  V30 14202 H 1337.06 3.80504 0.912819 0
M  V30 14203 H 1336.68 3.10794 2.47977 0
M  V30 14204 N 1337.68 -0.524672 1.4861 0
M  V30 14205 C 1338.63 -1.62872 1.63527 0
M  V30 14206 C 1339.6 -1.59097 0.477202 0
M  V30 14207 O 1340.78 -1.77443 0.701341 0
M  V30 14208 C 1337.92 -3.01116 1.68592 0
M  V30 14209 C 1337.04 -3.15085 2.95542 0
M  V30 14210 C 1336.17 -4.4392 2.91734 0
M  V30 14211 C 1335.21 -4.51436 4.13366 0
M  V30 14212 N 1334.35 -5.71667 4.07605 0
M  V30 14213 H 1339.19 -1.49462 2.57808 0
M  V30 14214 H 1336.72 -0.727578 1.27846 0
M  V30 14215 H 1338.68 -3.81212 1.6951 0
M  V30 14216 H 1337.31 -3.13285 0.777975 0
M  V30 14217 H 1336.36 -2.28207 3.04345 0
M  V30 14218 H 1337.68 -3.165 3.85524 0
M  V30 14219 H 1336.83 -5.32312 2.91083 0
M  V30 14220 H 1335.57 -4.45034 1.9949 0
M  V30 14221 H 1334.57 -3.6145 4.14287 0
M  V30 14222 H 1335.8 -4.52057 5.06776 0
M  V30 14223 H 1333.74 -5.73668 3.18184 0
M  V30 14224 H 1333.66 -5.74599 4.91297 0
M  V30 14225 H 1334.93 -6.62331 4.1102 0
M  V30 14226 N 1339.16 -1.37287 -0.77395 0
M  V30 14227 C 1340.44 -1.2291 -1.52159 0
M  V30 14228 C 1340.82 0.178249 -2.10346 0
M  V30 14229 O 1340.16 1.18564 -1.95333 0
M  V30 14230 C 1340.37 -2.32337 -2.60424 0
M  V30 14231 C 1341.72 -2.69769 -3.27887 0
M  V30 14232 O 1342.75 -2.31497 -2.70717 0
M  V30 14233 O 1341.6 -3.35699 -4.31241 0
M  V30 14234 H 1338.7 -0.47948 -0.673816 0
M  V30 14235 H 1341.24 -1.49061 -0.811105 0
M  V30 14236 H 1340.02 -3.26591 -2.15532 0
M  V30 14237 H 1339.64 -2.07638 -3.39076 0
M  V30 14238 N 1340.64 0.999871 -1.21821 0
M  V30 14239 C 1341.86 1.77405 -1.06467 0
M  V30 14240 C 1342.28 1.84828 0.385227 0
M  V30 14241 O 1341.64 1.31338 1.26714 0
M  V30 14242 C 1341.69 3.21062 -1.66137 0
M  V30 14243 O 1341.41 3.14054 -3.05454 0
M  V30 14244 C 1342.91 4.14958 -1.55963 0
M  V30 14245 H 1340.13 0.557368 -0.373607 0
M  V30 14246 H 1342.67 1.2575 -1.61267 0
M  V30 14247 H 1340.83 3.69808 -1.15416 0
M  V30 14248 H 1341.24 4.04346 -3.34073 0
M  V30 14249 H 1342.72 5.13536 -2.02448 0
M  V30 14250 H 1343.19 4.36171 -0.514949 0
M  V30 14251 H 1343.8 3.72105 -2.05956 0
M  V30 14252 N 1342.11 1.02678 1.19562 0
M  V30 14253 C 1343.34 0.741424 1.93695 0
M  V30 14254 C 1343.76 -0.693203 1.74861 0
M  V30 14255 O 1343.12 -1.47833 1.04953 0
M  V30 14256 C 1343.17 1.09514 3.43568 0
M  V30 14257 O 1342.27 0.212596 4.11852 0
M  V30 14258 H 1341.62 0.274128 0.604773 0
M  V30 14259 H 1344.15 1.37289 1.517 0
M  V30 14260 H 1344.16 1.05115 3.94227 0
M  V30 14261 H 1342.83 2.14034 3.56598 0
M  V30 14262 H 1341.41 0.315 3.71567 0
M  V30 14263 N 1343.59 -1.35528 0.804364 0
M  V30 14264 C 1344.52 -2.32388 0.227604 0
M  V30 14265 C 1345.5 -1.57368 -0.645709 0
M  V30 14266 O 1346.69 -1.85448 -0.576441 0
M  V30 14267 C 1343.82 -3.41603 -0.62645 0
M  V30 14268 C 1342.77 -4.27743 0.148187 0
M  V30 14269 C 1342.1 -5.28259 -0.827425 0
M  V30 14270 C 1343.4 -5.04661 1.34591 0
M  V30 14271 H 1345.09 -2.80874 1.03684 0
M  V30 14272 H 1342.64 -1.3504 0.500031 0
M  V30 14273 H 1344.59 -4.08365 -1.03999 0
M  V30 14274 H 1343.32 -2.91721 -1.46855 0
M  V30 14275 H 1341.97 -3.62558 0.542874 0
M  V30 14276 H 1341.62 -4.74645 -1.66496 0
M  V30 14277 H 1341.32 -5.86763 -0.313453 0
M  V30 14278 H 1342.85 -5.97893 -1.23921 0
M  V30 14279 H 1344.26 -5.6438 1.00736 0
M  V30 14280 H 1342.66 -5.7265 1.79422 0
M  V30 14281 H 1343.73 -4.35432 2.1337 0
M  V30 14282 N 1345.07 -0.557671 -1.47404 0
M  V30 14283 C 1346 0.178019 -2.3282 0
M  V30 14284 C 1346.98 0.908318 -1.43818 0
M  V30 14285 O 1348.17 0.888693 -1.72673 0
M  V30 14286 C 1345.3 1.2082 -3.25607 0
M  V30 14287 C 1344.25 0.594335 -4.23853 0
M  V30 14288 C 1343.58 1.72919 -5.05968 0
M  V30 14289 C 1344.88 -0.452196 -5.20339 0
M  V30 14290 H 1346.57 -0.535091 -2.9458 0
M  V30 14291 H 1344.12 -0.258775 -1.41656 0
M  V30 14292 H 1346.07 1.73104 -3.84204 0
M  V30 14293 H 1344.79 1.95126 -2.61903 0
M  V30 14294 H 1343.45 0.0927898 -3.66483 0
M  V30 14295 H 1343.1 2.4613 -4.38668 0
M  V30 14296 H 1342.8 1.32422 -5.72484 0
M  V30 14297 H 1344.33 2.25527 -5.67424 0
M  V30 14298 H 1345.74 -0.0154011 -5.73298 0
M  V30 14299 H 1344.14 -0.776068 -5.95061 0
M  V30 14300 H 1345.21 -1.34791 -4.65789 0
M  V30 14301 N 1346.55 1.54831 -0.294147 0
M  V30 14302 C 1347.5 2.23263 0.58499 0
M  V30 14303 C 1348.47 1.21278 1.13494 0
M  V30 14304 O 1349.65 1.49878 1.18073 0
M  V30 14305 C 1346.79 2.97185 1.75429 0
M  V30 14306 C 1345.9 4.1393 1.23638 0
M  V30 14307 C 1345.04 4.7545 2.36899 0
M  V30 14308 C 1344.08 5.84352 1.82207 0
M  V30 14309 N 1343.22 6.39855 2.89015 0
M  V30 14310 H 1348.06 2.98 -0.00519329 0
M  V30 14311 H 1345.59 1.47093 -0.0143313 0
M  V30 14312 H 1347.55 3.38271 2.4419 0
M  V30 14313 H 1346.18 2.24837 2.3162 0
M  V30 14314 H 1345.23 3.77832 0.441247 0
M  V30 14315 H 1346.54 4.92409 0.795946 0
M  V30 14316 H 1345.7 5.19353 3.1362 0
M  V30 14317 H 1344.44 3.96288 2.84266 0
M  V30 14318 H 1343.44 5.39879 1.03974 0
M  V30 14319 H 1344.67 6.65393 1.35753 0
M  V30 14320 H 1342.61 5.6358 3.35729 0
M  V30 14321 H 1342.53 7.13661 2.49447 0
M  V30 14322 H 1343.8 6.88417 3.65654 0
M  V30 14323 N 1348.03 0.0217466 1.57585 0
M  V30 14324 C 1348.94 -0.978407 2.13224 0
M  V30 14325 C 1349.95 -1.36212 1.08269 0
M  V30 14326 O 1351.13 -1.44504 1.40288 0
M  V30 14327 C 1348.19 -2.24462 2.6423 0
M  V30 14328 C 1347.26 -1.92201 3.83871 0
M  V30 14329 C 1346.49 -3.12786 4.32436 0
M  V30 14330 O 1346.71 -4.25201 3.8021 0
M  V30 14331 O 1345.65 -2.95514 5.24362 0
M  V30 14332 H 1349.47 -0.535347 2.98944 0
M  V30 14333 H 1347.06 -0.198414 1.48077 0
M  V30 14334 H 1348.94 -2.98809 2.97138 0
M  V30 14335 H 1347.61 -2.67964 1.81596 0
M  V30 14336 H 1346.52 -1.15262 3.55901 0
M  V30 14337 H 1347.85 -1.53521 4.67645 0
M  V30 14338 N 1349.51 -1.55583 -0.251311 0
M  V30 14339 C 1350.75 -1.76411 -0.977859 0
M  V30 14340 C 1351.07 -0.584857 -1.86651 0
M  V30 14341 O 1352.27 -0.676046 -2.62948 0
M  V30 14342 C 1350.73 -3.12302 -1.78872 0
M  V30 14343 C 1350.34 -4.37862 -0.947674 0
M  V30 14344 C 1352.08 -3.42471 -2.50827 0
M  V30 14345 C 1349.99 -5.64786 -1.75417 0
M  V30 14346 H 1348.92 -0.657628 -0.368839 0
M  V30 14347 H 1351.57 -1.82019 -0.232682 0
M  V30 14348 H 1349.95 -3.0079 -2.57569 0
M  V30 14349 H 1351.13 -4.60351 -0.203352 0
M  V30 14350 H 1349.44 -4.14996 -0.341666 0
M  V30 14351 H 1352.04 -4.34514 -3.11612 0
M  V30 14352 H 1352.38 -2.63592 -3.22219 0
M  V30 14353 H 1352.91 -3.55179 -1.79145 0
M  V30 14354 H 1349.65 -6.46474 -1.08407 0
M  V30 14355 H 1349.17 -5.46405 -2.47389 0
M  V30 14356 H 1350.85 -6.03881 -2.32242 0
M  V30 14357 N 1350.98 0.516783 -1.48886 0
M  V30 14358 C 1352.4 0.84654 -1.35299 0
M  V30 14359 C 1352.6 1.97998 -0.374035 0
M  V30 14360 O 1351.66 2.51707 0.200003 0
M  V30 14361 C 1352.97 1.20162 -2.75648 0
M  V30 14362 C 1354.52 1.31074 -2.84233 0
M  V30 14363 C 1354.99 1.69919 -4.25313 0
M  V30 14364 N 1356.48 1.76998 -4.28049 0
M  V30 14365 C 1357.22 2.08466 -5.34162 0
M  V30 14366 N 1356.71 2.38268 -6.50538 0
M  V30 14367 N 1358.51 2.09584 -5.21566 0
M  V30 14368 H 1350.66 -0.230871 -2.11142 0
M  V30 14369 H 1352.92 -0.0406678 -0.947127 0
M  V30 14370 H 1352.63 0.442278 -3.48908 0
M  V30 14371 H 1352.5 2.14875 -3.10014 0
M  V30 14372 H 1354.89 2.06083 -2.1122 0
M  V30 14373 H 1354.97 0.344506 -2.5347 0
M  V30 14374 H 1354.61 0.954667 -4.98847 0
M  V30 14375 H 1354.54 2.67616 -4.5353 0
M  V30 14376 H 1357.03 1.56191 -3.44112 0
M  V30 14377 H 1357.35 2.61423 -7.2724 0
M  V30 14378 H 1355.69 2.35758 -6.53791 0
M  V30 14379 H 1358.88 1.85768 -4.2966 0
M  V30 14380 H 1359.06 2.33776 -6.04362 0
M  V30 14381 N 1352.46 1.37696 0.766659 0
M  V30 14382 C 1353.41 1.33966 1.90147 0
M  V30 14383 C 1354.4 0.2276 1.67864 0
M  V30 14384 O 1355.61 0.395912 1.75592 0
M  V30 14385 H 1351.98 0.417611 0.625384 0
M  V30 14386 H 1353.96 2.29753 1.9041 0
M  V30 14387 C 1352.7 1.16859 3.27474 0
M  V30 14388 H 1352.03 2.01686 3.452 0
M  V30 14389 H 1353.47 1.18301 4.07162 0
M  V30 14390 C 1351.93 -0.125418 3.36666 0
M  V30 14391 O 1352.46 -1.10717 3.86141 0
M  V30 14392 N 1350.66 -0.17784 2.90055 0
M  V30 14393 H 1350.21 0.621737 2.49984 0
M  V30 14394 H 1350.17 -1.04325 2.96587 0
M  V30 14395 N 1353.94 -0.993397 1.22349 0
M  V30 14396 C 1355.36 -1.25708 0.983345 0
M  V30 14397 C 1355.56 -1.98888 -0.323372 0
M  V30 14398 O 1354.61 -2.2981 -1.04612 0
M  V30 14399 C 1355.92 -2.06935 2.1817 0
M  V30 14400 C 1357.47 -2.20121 2.22521 0
M  V30 14401 C 1357.95 -3.04735 3.41907 0
M  V30 14402 N 1359.44 -3.12322 3.42066 0
M  V30 14403 C 1360.17 -3.78081 4.31095 0
M  V30 14404 N 1359.67 -4.45771 5.3034 0
M  V30 14405 N 1361.46 -3.74837 4.18872 0
M  V30 14406 H 1353.61 -0.502767 2.06364 0
M  V30 14407 H 1355.88 -0.284656 0.904254 0
M  V30 14408 H 1355.58 -1.60525 3.12929 0
M  V30 14409 H 1355.46 -3.0769 2.18189 0
M  V30 14410 H 1357.84 -2.65745 1.28311 0
M  V30 14411 H 1357.92 -1.18798 2.26541 0
M  V30 14412 H 1357.57 -2.59811 4.36418 0
M  V30 14413 H 1357.5 -4.06198 3.35128 0
M  V30 14414 H 1359.99 -2.64146 2.7025 0
M  V30 14415 H 1360.3 -4.93687 5.94553 0
M  V30 14416 H 1358.65 -4.44521 5.34253 0
M  V30 14417 H 1361.84 -3.21116 3.40591 0
M  V30 14418 H 1362.01 -4.25806 4.8846 0
M  V30 14419 N 1355.42 -1.03311 -1.19015 0
M  V30 14420 C 1356.66 -0.732039 -1.88805 0
M  V30 14421 C 1356.99 0.739688 -1.79886 0
M  V30 14422 O 1356.25 1.55476 -1.18851 0
M  V30 14423 C 1356.55 -1.13402 -3.38932 0
M  V30 14424 C 1356.21 -2.60473 -3.68055 0
M  V30 14425 C 1354.87 -3.00654 -3.75713 0
M  V30 14426 C 1357.23 -3.55604 -3.81045 0
M  V30 14427 C 1354.55 -4.3487 -3.93833 0
M  V30 14428 C 1356.91 -4.89529 -4.00679 0
M  V30 14429 C 1355.57 -5.29392 -4.06571 0
M  V30 14430 H 1354.84 -0.267872 -0.690888 0
M  V30 14431 H 1357.49 -1.29673 -1.40915 0
M  V30 14432 H 1355.79 -0.487997 -3.88749 0
M  V30 14433 H 1357.49 -0.878532 -3.91258 0
M  V30 14434 H 1354.08 -2.28348 -3.62706 0
M  V30 14435 H 1358.26 -3.25711 -3.74467 0
M  V30 14436 H 1353.52 -4.65285 -3.96636 0
M  V30 14437 H 1357.69 -5.63153 -4.09672 0
M  V30 14438 H 1355.32 -6.33402 -4.20364 0
M  V30 14439 N 1356.9 1.35099 -0.81154 0
M  V30 14440 C 1358.14 1.98233 -0.393453 0
M  V30 14441 C 1358.46 1.64688 1.04417 0
M  V30 14442 O 1357.73 0.931845 1.72318 0
M  V30 14443 H 1356.31 0.733283 -0.142496 0
M  V30 14444 H 1358.98 1.6493 -1.03847 0
M  V30 14445 H 1358.07 3.08017 -0.503188 0
M  V30 14446 N 1358.37 0.56548 1.47106 0
M  V30 14447 C 1359.32 -0.190542 2.31818 0
M  V30 14448 C 1360.32 -0.901279 1.43434 0
M  V30 14449 O 1361.52 -0.821625 1.60154 0
M  V30 14450 H 1357.9 -0.0803183 0.747698 0
M  V30 14451 H 1359.87 0.542999 2.93418 0
M  V30 14452 C 1358.62 -1.20208 3.2626 0
M  V30 14453 H 1357.94 -0.664608 3.94237 0
M  V30 14454 H 1359.38 -1.7018 3.88349 0
M  V30 14455 C 1357.84 -2.25423 2.50372 0
M  V30 14456 O 1358.37 -3.3249 2.25418 0
M  V30 14457 N 1356.57 -1.9957 2.11235 0
M  V30 14458 H 1356.12 -1.12513 2.31729 0
M  V30 14459 H 1356.08 -2.70182 1.60777 0
M  V30 14460 N 1359.85 -1.54672 0.302354 0
M  V30 14461 C 1361.13 -1.92264 -0.359711 0
M  V30 14462 C 1361.51 -1.22973 -1.71583 0
M  V30 14463 O 1360.86 -0.365942 -2.25551 0
M  V30 14464 C 1361.07 -3.4578 -0.473019 0
M  V30 14465 C 1362.42 -4.18044 -0.743252 0
M  V30 14466 O 1363.44 -3.51822 -0.556778 0
M  V30 14467 O 1362.3 -5.35283 -1.10155 0
M  V30 14468 H 1359.39 -0.802112 -0.201359 0
M  V30 14469 H 1361.94 -1.66041 0.350513 0
M  V30 14470 H 1360.71 -3.88342 0.480265 0
M  V30 14471 H 1360.33 -3.78042 -1.23166 0
M  V30 14472 N 1361.33 -0.0301034 -1.57571 0
M  V30 14473 C 1362.26 0.94977 -2.13311 0
M  V30 14474 C 1363.24 1.33865 -1.04948 0
M  V30 14475 O 1364.43 1.4171 -1.32786 0
M  V30 14476 C 1361.56 2.23178 -2.66099 0
M  V30 14477 C 1360.51 1.98362 -3.79258 0
M  V30 14478 C 1359.84 3.32836 -4.18479 0
M  V30 14479 C 1361.14 1.32201 -5.05292 0
M  V30 14480 H 1362.83 0.485562 -2.95436 0
M  V30 14481 H 1360.38 0.232116 -1.42117 0
M  V30 14482 H 1362.33 2.92108 -3.03728 0
M  V30 14483 H 1361.05 2.71766 -1.81137 0
M  V30 14484 H 1359.71 1.31849 -3.42069 0
M  V30 14485 H 1359.36 3.79185 -3.30496 0
M  V30 14486 H 1359.06 3.17037 -4.94733 0
M  V30 14487 H 1360.58 4.03032 -4.58691 0
M  V30 14488 H 1362 1.91133 -5.40501 0
M  V30 14489 H 1360.4 1.26797 -5.86551 0
M  V30 14490 H 1361.47 0.29511 -4.84001 0
M  V30 14491 N 1362.81 1.55714 0.243056 0
M  V30 14492 C 1363.76 1.87031 1.30397 0
M  V30 14493 C 1364.74 0.731497 1.43311 0
M  V30 14494 O 1365.93 0.9935 1.46487 0
M  V30 14495 C 1363.06 2.17185 2.65868 0
M  V30 14496 C 1362.15 3.37403 2.56944 0
M  V30 14497 N 1362.54 4.56575 2.17653 0
M  V30 14498 C 1360.84 3.4059 2.87949 0
M  V30 14499 C 1361.54 5.38715 2.19455 0
M  V30 14500 N 1360.52 4.77875 2.59108 0
M  V30 14501 H 1364.32 2.76697 0.990755 0
M  V30 14502 H 1361.83 1.55992 0.451675 0
M  V30 14503 H 1363.83 2.37787 3.42437 0
M  V30 14504 H 1362.49 1.28819 2.98053 0
M  V30 14505 H 1363.5 4.82129 1.89134 0
M  V30 14506 H 1360.18 2.62506 3.24648 0
M  V30 14507 H 1361.57 6.44066 1.91385 0
M  V30 14508 N 1364.29 -0.50888 1.49158 0
M  V30 14509 C 1365.54 -1.26008 1.57496 0
M  V30 14510 C 1365.85 -1.9382 0.263281 0
M  V30 14511 O 1367.05 -2.70565 0.225117 0
M  V30 14512 C 1365.51 -2.28752 2.7785 0
M  V30 14513 C 1365.12 -1.66915 4.15744 0
M  V30 14514 C 1366.86 -3.0475 2.95513 0
M  V30 14515 C 1364.77 -2.67724 5.27331 0
M  V30 14516 H 1363.7 -0.473984 0.586392 0
M  V30 14517 H 1366.35 -0.534886 1.75531 0
M  V30 14518 H 1364.73 -3.044 2.53292 0
M  V30 14519 H 1365.91 -0.973131 4.50407 0
M  V30 14520 H 1364.22 -1.03336 4.03374 0
M  V30 14521 H 1366.82 -3.80121 3.76048 0
M  V30 14522 H 1367.16 -3.6189 2.05771 0
M  V30 14523 H 1367.69 -2.36217 3.20072 0
M  V30 14524 H 1364.43 -2.15375 6.19107 0
M  V30 14525 H 1363.95 -3.35589 4.97132 0
M  V30 14526 H 1365.63 -3.30304 5.56335 0
M  V30 14527 N 1365.76 -1.381 -0.759346 0
M  V30 14528 C 1366.99 -1.37389 -1.55367 0
M  V30 14529 C 1367.41 0.0356097 -1.88066 0
M  V30 14530 O 1366.77 1.0161 -1.5015 0
M  V30 14531 C 1366.82 -2.23098 -2.83302 0
M  V30 14532 O 1365.92 -1.64412 -3.7821 0
M  V30 14533 H 1365.27 -0.468894 -0.470143 0
M  V30 14534 H 1367.8 -1.81787 -0.938858 0
M  V30 14535 H 1367.81 -2.36753 -3.32283 0
M  V30 14536 H 1366.48 -3.25544 -2.58831 0
M  V30 14537 H 1365.06 -1.59867 -3.36893 0
M  V30 14538 N 1367.24 0.986894 -1.22875 0
M  V30 14539 C 1368.19 2.09935 -1.00151 0
M  V30 14540 C 1369.18 1.69303 0.0573751 0
M  V30 14541 O 1370.39 1.79746 -0.0955781 0
M  V30 14542 H 1366.77 0.686605 -0.306721 0
M  V30 14543 H 1368.74 2.26271 -1.94535 0
M  V30 14544 C 1367.49 3.42442 -0.602374 0
M  V30 14545 H 1366.81 3.74154 -1.40886 0
M  V30 14546 H 1368.25 4.21242 -0.482836 0
M  V30 14547 C 1366.71 3.29785 0.688707 0
M  V30 14548 O 1367.24 3.6208 1.73957 0
M  V30 14549 N 1365.44 2.82956 0.662152 0
M  V30 14550 H 1364.99 2.56873 -0.193337 0
M  V30 14551 H 1364.95 2.74869 1.52625 0
M  V30 14552 N 1368.72 1.0394 1.18466 0
M  V30 14553 C 1369.67 0.629352 2.22054 0
M  V30 14554 C 1370.64 -0.362187 1.62103 0
M  V30 14555 O 1371.82 -0.256457 1.89069 0
M  V30 14556 C 1368.96 -0.00282888 3.451 0
M  V30 14557 C 1368.08 1.03602 4.19393 0
M  V30 14558 C 1367.21 0.372492 5.29892 0
M  V30 14559 C 1366.25 1.39652 5.95956 0
M  V30 14560 N 1365.39 0.758053 6.97996 0
M  V30 14561 H 1370.23 1.51722 2.56485 0
M  V30 14562 H 1367.76 0.759043 1.26004 0
M  V30 14563 H 1369.72 -0.386688 4.15404 0
M  V30 14564 H 1368.35 -0.854224 3.11292 0
M  V30 14565 H 1367.4 1.53784 3.47929 0
M  V30 14566 H 1368.72 1.81387 4.64651 0
M  V30 14567 H 1367.87 -0.065642 6.06664 0
M  V30 14568 H 1366.61 -0.437462 4.85734 0
M  V30 14569 H 1365.61 1.84481 5.17926 0
M  V30 14570 H 1366.84 2.20816 6.42197 0
M  V30 14571 H 1364.78 -0.0316173 6.55992 0
M  V30 14572 H 1364.7 1.47363 7.41499 0
M  V30 14573 H 1365.97 0.344273 7.78739 0
M  V30 14574 N 1370.2 -1.34667 0.818693 0
M  V30 14575 C 1371.13 -2.32134 0.252239 0
M  V30 14576 C 1372.11 -1.58044 -0.628982 0
M  V30 14577 O 1373.29 -1.86049 -0.55674 0
M  V30 14578 C 1370.42 -3.42249 -0.590183 0
M  V30 14579 C 1369.38 -4.27562 0.193547 0
M  V30 14580 C 1368.7 -5.29107 -0.771349 0
M  V30 14581 C 1370 -5.03205 1.39936 0
M  V30 14582 H 1371.7 -2.79758 1.06657 0
M  V30 14583 H 1369.24 -1.34502 0.514325 0
M  V30 14584 H 1371.2 -4.09445 -0.996616 0
M  V30 14585 H 1369.92 -2.93262 -1.43752 0
M  V30 14586 H 1368.58 -3.61962 0.581297 0
M  V30 14587 H 1368.23 -4.76384 -1.61453 0
M  V30 14588 H 1367.93 -5.87063 -0.251201 0
M  V30 14589 H 1369.45 -5.99174 -1.17573 0
M  V30 14590 H 1370.87 -5.6328 1.06717 0
M  V30 14591 H 1369.26 -5.70715 1.85485 0
M  V30 14592 H 1370.33 -4.33145 2.17976 0
M  V30 14593 N 1371.68 -0.573274 -1.46804 0
M  V30 14594 C 1372.92 -0.0552613 -2.02425 0
M  V30 14595 C 1373.25 1.30098 -1.44585 0
M  V30 14596 O 1372.51 1.86366 -0.597166 0
M  V30 14597 C 1372.81 0.0704285 -3.57331 0
M  V30 14598 C 1372.47 -1.217 -4.34166 0
M  V30 14599 C 1371.13 -1.56973 -4.54877 0
M  V30 14600 C 1373.49 -2.06939 -4.78357 0
M  V30 14601 C 1370.81 -2.77302 -5.1703 0
M  V30 14602 C 1373.17 -3.26486 -5.41839 0
M  V30 14603 C 1371.83 -3.62053 -5.6078 0
M  V30 14604 H 1371.1 -0.0202215 -0.740724 0
M  V30 14605 H 1373.75 -0.748016 -1.76287 0
M  V30 14606 H 1372.05 0.846254 -3.82552 0
M  V30 14607 H 1373.75 0.486841 -3.98034 0
M  V30 14608 H 1370.34 -0.932374 -4.18336 0
M  V30 14609 H 1374.52 -1.80992 -4.62121 0
M  V30 14610 H 1369.78 -3.05008 -5.29887 0
M  V30 14611 H 1373.95 -3.92811 -5.75042 0
M  V30 14612 H 1371.58 -4.55385 -6.08711 0
M  V30 14613 N 1373.15 1.5451 -0.310553 0
M  V30 14614 C 1374.4 2.00623 0.296343 0
M  V30 14615 C 1374.73 1.19855 1.52802 0
M  V30 14616 O 1374.01 0.277468 1.92511 0
M  V30 14617 C 1374.29 3.54305 0.643448 0
M  V30 14618 C 1374.14 4.45807 -0.598029 0
M  V30 14619 C 1375.46 4.14958 1.46623 0
M  V30 14620 H 1372.58 0.729303 0.106236 0
M  V30 14621 H 1375.22 1.85196 -0.424549 0
M  V30 14622 H 1373.37 3.67581 1.25762 0
M  V30 14623 H 1375.05 4.44421 -1.23643 0
M  V30 14624 H 1373.29 4.16014 -1.22944 0
M  V30 14625 H 1373.96 5.51124 -0.310883 0
M  V30 14626 H 1376.44 4.05176 0.947199 0
M  V30 14627 H 1375.31 5.22627 1.67787 0
M  V30 14628 H 1375.57 3.67445 2.45839 0
M  V30 14629 N 1374.63 0.0384594 1.57553 0
M  V30 14630 C 1375.56 -0.938444 2.13812 0
M  V30 14631 C 1376.54 -1.33307 1.05657 0
M  V30 14632 O 1377.73 -1.41003 1.33535 0
M  V30 14633 C 1374.86 -2.21764 2.67279 0
M  V30 14634 C 1373.81 -1.96347 3.80305 0
M  V30 14635 C 1373.14 -3.30612 4.20238 0
M  V30 14636 C 1374.44 -1.2952 5.05986 0
M  V30 14637 H 1376.13 -0.469887 2.9569 0
M  V30 14638 H 1373.68 -0.224576 1.42238 0
M  V30 14639 H 1375.63 -2.90493 3.05273 0
M  V30 14640 H 1374.36 -2.70802 1.82576 0
M  V30 14641 H 1373.02 -1.30033 3.42764 0
M  V30 14642 H 1372.66 -3.77427 3.32502 0
M  V30 14643 H 1372.36 -3.14409 4.96408 0
M  V30 14644 H 1373.89 -4.00594 4.60822 0
M  V30 14645 H 1375.3 -1.88264 5.41507 0
M  V30 14646 H 1373.7 -1.23685 5.87216 0
M  V30 14647 H 1374.77 -0.269439 4.84151 0
M  V30 14648 N 1376.11 -1.55841 -0.234795 0
M  V30 14649 C 1377.39 -1.69008 -0.984665 0
M  V30 14650 C 1377.77 -0.581882 -2.02922 0
M  V30 14651 O 1377.12 0.412998 -2.24737 0
M  V30 14652 C 1377.33 -3.09796 -1.60708 0
M  V30 14653 C 1378.67 -3.68784 -2.10436 0
M  V30 14654 O 1379.7 -3.12674 -1.70627 0
M  V30 14655 O 1378.56 -4.67175 -2.83567 0
M  V30 14656 H 1375.65 -0.68786 -0.459105 0
M  V30 14657 H 1378.2 -1.68166 -0.227623 0
M  V30 14658 H 1376.97 -3.81908 -0.852169 0
M  V30 14659 H 1376.59 -3.147 -2.43001 0
M  V30 14660 N 1377.59 0.500963 -1.49426 0
M  V30 14661 C 1378.55 1.58478 -1.65582 0
M  V30 14662 C 1379.55 1.51897 -0.52762 0
M  V30 14663 O 1380.74 1.55049 -0.794071 0
M  V30 14664 C 1377.87 2.9813 -1.65322 0
M  V30 14665 H 1379.07 1.45483 -2.6225 0
M  V30 14666 H 1376.62 0.725199 -1.38458 0
M  V30 14667 H 1377.36 3.16602 -0.702384 0
M  V30 14668 H 1377.14 3.04315 -2.47255 0
M  V30 14669 H 1378.63 3.76874 -1.79878 0
M  V30 14670 N 1379.07 1.38501 0.752011 0
M  V30 14671 C 1380.32 1.34529 1.50819 0
M  V30 14672 C 1380.64 -0.0636155 1.94896 0
M  V30 14673 O 1379.91 -1.01161 1.6776 0
M  V30 14674 H 1378.49 0.49501 0.559441 0
M  V30 14675 H 1381.15 1.73196 0.893822 0
M  V30 14676 H 1380.24 1.99713 2.39835 0
M  V30 14677 N 1380.55 -0.980364 1.23396 0
M  V30 14678 C 1381.51 -2.05433 1.01635 0
M  V30 14679 C 1382.51 -1.60785 -0.0218244 0
M  V30 14680 O 1383.7 -1.72832 0.217922 0
M  V30 14681 C 1380.83 -3.36631 0.537822 0
M  V30 14682 H 1382.02 -2.26172 1.96943 0
M  V30 14683 H 1379.58 -1.15378 1.05441 0
M  V30 14684 H 1380.31 -3.21581 -0.41903 0
M  V30 14685 H 1380.1 -3.70377 1.28698 0
M  V30 14686 H 1381.59 -4.1562 0.406213 0
M  V30 14687 N 1382.02 -1.04567 -1.17913 0
M  V30 14688 C 1383.25 -0.772146 -1.92491 0
M  V30 14689 C 1383.67 0.665297 -1.75942 0
M  V30 14690 O 1383.03 1.46144 -1.07292 0
M  V30 14691 C 1383.08 -1.14966 -3.41782 0
M  V30 14692 O 1382.18 -0.278091 -4.11461 0
M  V30 14693 H 1381.52 -0.283715 -0.600335 0
M  V30 14694 H 1384.05 -1.39685 -1.49496 0
M  V30 14695 H 1384.06 -1.11374 -3.92505 0
M  V30 14696 H 1382.74 -2.1968 -3.53148 0
M  V30 14697 H 1381.32 -0.374073 -3.71019 0
M  V30 14698 N 1383.5 1.34231 -0.825823 0
M  V30 14699 C 1384.75 1.97805 -0.414456 0
M  V30 14700 C 1385.07 1.65786 1.02664 0
M  V30 14701 O 1384.34 0.950069 1.7132 0
M  V30 14702 H 1382.92 0.73173 -0.150265 0
M  V30 14703 H 1385.58 1.63819 -1.05591 0
M  V30 14704 H 1384.68 3.07466 -0.535829 0
M  V30 14705 N 1384.98 0.581051 1.46498 0
M  V30 14706 C 1386.2 0.0696654 2.07283 0
M  V30 14707 C 1386.63 -1.22525 1.42721 0
M  V30 14708 O 1385.99 -1.73967 0.510421 0
M  V30 14709 C 1386.04 -0.0843864 3.60501 0
M  V30 14710 O 1385.14 -1.14129 3.96293 0
M  V30 14711 H 1384.48 0.0620572 0.661094 0
M  V30 14712 H 1387.01 0.803522 1.88161 0
M  V30 14713 H 1387.02 -0.29108 4.0696 0
M  V30 14714 H 1385.7 0.861274 4.06884 0
M  V30 14715 H 1384.27 -0.913186 3.61546 0
M  V30 14716 N 1386.46 -1.54343 0.318742 0
M  V30 14717 C 1387.4 -2.24166 -0.549397 0
M  V30 14718 C 1388.37 -1.23068 -1.1155 0
M  V30 14719 O 1389.56 -1.51737 -1.15674 0
M  V30 14720 C 1386.7 -2.99938 -1.70678 0
M  V30 14721 C 1385.81 -4.15844 -1.17037 0
M  V30 14722 C 1384.95 -4.79158 -2.29305 0
M  V30 14723 C 1383.99 -5.87176 -1.72888 0
M  V30 14724 N 1383.12 -6.44372 -2.78799 0
M  V30 14725 H 1387.96 -2.97954 0.0526018 0
M  V30 14726 H 1385.5 -1.47052 0.0377307 0
M  V30 14727 H 1387.46 -3.42113 -2.38777 0
M  V30 14728 H 1386.09 -2.28494 -2.28014 0
M  V30 14729 H 1385.14 -3.78486 -0.381082 0
M  V30 14730 H 1386.45 -4.93612 -0.717507 0
M  V30 14731 H 1385.61 -5.24277 -3.05317 0
M  V30 14732 H 1384.35 -4.0076 -2.77926 0
M  V30 14733 H 1383.35 -5.41465 -0.953714 0
M  V30 14734 H 1384.58 -6.67469 -1.2515 0
M  V30 14735 H 1382.52 -5.6885 -3.2672 0
M  V30 14736 H 1382.44 -7.17539 -2.38062 0
M  V30 14737 H 1383.71 -6.94147 -3.54655 0
M  V30 14738 N 1387.94 -0.0468143 -1.5753 0
M  V30 14739 C 1389.21 0.667567 -1.83856 0
M  V30 14740 C 1389.59 1.89297 -0.934346 0
M  V30 14741 O 1388.94 2.28499 0.00570067 0
M  V30 14742 C 1389.15 1.029 -3.33485 0
M  V30 14743 C 1390.5 1.41315 -4.00394 0
M  V30 14744 O 1391.52 1.12147 -3.38085 0
M  V30 14745 O 1390.38 1.95732 -5.10246 0
M  V30 14746 H 1387.48 0.329112 -0.758692 0
M  V30 14747 H 1390.02 -0.0758456 -1.6953 0
M  V30 14748 H 1388.79 0.157617 -3.90982 0
M  V30 14749 H 1388.42 1.83 -3.52982 0
M  V30 14750 N 1389.41 1.55964 0.226527 0
M  V30 14751 C 1390.35 1.87013 1.30772 0
M  V30 14752 C 1391.33 0.727044 1.4544 0
M  V30 14753 O 1392.51 0.974898 1.61332 0
M  V30 14754 C 1389.64 2.07278 2.67869 0
M  V30 14755 C 1388.68 3.29956 2.70243 0
M  V30 14756 S 1389.52 4.86026 2.24808 0
M  V30 14757 C 1390.67 5.09321 3.6379 0
M  V30 14758 H 1390.9 2.78427 1.0424 0
M  V30 14759 H 1388.44 1.48334 0.428525 0
M  V30 14760 H 1390.4 2.19636 3.468 0
M  V30 14761 H 1389.06 1.1667 2.91628 0
M  V30 14762 H 1388.25 3.41164 3.70975 0
M  V30 14763 H 1387.85 3.16429 1.99371 0
M  V30 14764 H 1390.14 4.97914 4.59443 0
M  V30 14765 H 1391.09 6.11227 3.57501 0
M  V30 14766 H 1391.49 4.37076 3.57247 0
M  V30 14767 N 1390.89 -0.493031 1.4969 0
M  V30 14768 C 1391.84 -1.59367 1.66945 0
M  V30 14769 C 1392.81 -1.58049 0.510842 0
M  V30 14770 O 1393.99 -1.75915 0.738822 0
M  V30 14771 C 1391.13 -2.97472 1.74941 0
M  V30 14772 C 1390.25 -3.08745 3.02159 0
M  V30 14773 C 1389.38 -4.37632 3.01085 0
M  V30 14774 C 1388.42 -4.42567 4.22849 0
M  V30 14775 N 1387.56 -5.62892 4.19639 0
M  V30 14776 H 1392.4 -1.4396 2.6092 0
M  V30 14777 H 1389.94 -0.700297 1.29361 0
M  V30 14778 H 1391.89 -3.7753 1.77558 0
M  V30 14779 H 1390.52 -3.11564 0.844252 0
M  V30 14780 H 1389.58 -2.217 3.09117 0
M  V30 14781 H 1390.89 -3.08251 3.92151 0
M  V30 14782 H 1390.04 -5.26018 3.02309 0
M  V30 14783 H 1388.78 -4.40702 2.08885 0
M  V30 14784 H 1387.79 -3.52581 4.21861 0
M  V30 14785 H 1389.01 -4.41205 5.1625 0
M  V30 14786 H 1386.96 -5.6679 3.30281 0
M  V30 14787 H 1386.87 -5.64048 5.03374 0
M  V30 14788 H 1388.14 -6.53464 4.24977 0
M  V30 14789 N 1392.37 -1.38898 -0.744656 0
M  V30 14790 C 1393.62 -1.35795 -1.50623 0
M  V30 14791 C 1393.95 0.0491775 -1.94138 0
M  V30 14792 O 1393.22 1.01219 -1.66087 0
M  V30 14793 C 1393.51 -2.32168 -2.75263 0
M  V30 14794 C 1393.36 -3.81781 -2.3783 0
M  V30 14795 C 1394.68 -2.26526 -3.77325 0
M  V30 14796 H 1391.8 -0.494591 -0.546396 0
M  V30 14797 H 1394.44 -1.69816 -0.852211 0
M  V30 14798 H 1392.59 -2.03287 -3.31069 0
M  V30 14799 H 1394.26 -4.21373 -1.8773 0
M  V30 14800 H 1392.51 -3.99027 -1.70176 0
M  V30 14801 H 1393.18 -4.44687 -3.27044 0
M  V30 14802 H 1395.65 -2.52041 -3.31081 0
M  V30 14803 H 1394.53 -2.96053 -4.62216 0
M  V30 14804 H 1394.79 -1.26705 -4.23554 0
M  V30 14805 N 1393.85 0.973806 -1.23914 0
M  V30 14806 C 1394.78 2.08526 -1.05068 0
M  V30 14807 C 1395.76 1.70065 0.0344761 0
M  V30 14808 O 1396.94 1.93755 -0.131432 0
M  V30 14809 C 1394.07 3.41198 -0.648165 0
M  V30 14810 C 1393.03 3.9359 -1.6814 0
M  V30 14811 C 1392.35 5.22534 -1.13414 0
M  V30 14812 C 1393.65 4.22116 -3.07597 0
M  V30 14813 H 1395.35 2.24551 -1.98034 0
M  V30 14814 H 1392.89 1.07905 -0.953546 0
M  V30 14815 H 1394.85 4.18383 -0.50334 0
M  V30 14816 H 1393.57 3.25056 0.317182 0
M  V30 14817 H 1392.23 3.18555 -1.81434 0
M  V30 14818 H 1391.88 5.02747 -0.159578 0
M  V30 14819 H 1391.58 5.58555 -1.82456 0
M  V30 14820 H 1393.1 6.02334 -1.0013 0
M  V30 14821 H 1394.52 4.90027 -2.97567 0
M  V30 14822 H 1392.91 4.69352 -3.73937 0
M  V30 14823 H 1393.98 3.29128 -3.56094 0
M  V30 14824 N 1395.33 1.05191 1.17357 0
M  V30 14825 C 1396.74 0.773255 1.39617 0
M  V30 14826 C 1396.94 -0.632346 1.91321 0
M  V30 14827 O 1396 -1.39475 2.10483 0
M  V30 14828 C 1397.31 1.82885 2.38692 0
M  V30 14829 C 1398.86 1.85106 2.52398 0
M  V30 14830 C 1399.33 2.89689 3.54746 0
M  V30 14831 N 1400.83 2.88651 3.62263 0
M  V30 14832 C 1401.56 3.66221 4.41214 0
M  V30 14833 N 1401.06 4.53577 5.23679 0
M  V30 14834 N 1402.85 3.54661 4.36087 0
M  V30 14835 H 1395 1.9588 0.82127 0
M  V30 14836 H 1397.26 0.848187 0.423417 0
M  V30 14837 H 1396.97 2.83766 2.07773 0
M  V30 14838 H 1396.84 1.67047 3.38194 0
M  V30 14839 H 1399.23 0.848896 2.82627 0
M  V30 14840 H 1399.31 2.05022 1.5297 0
M  V30 14841 H 1398.96 3.90091 3.25255 0
M  V30 14842 H 1398.89 2.67025 4.53878 0
M  V30 14843 H 1401.38 2.25312 3.03386 0
M  V30 14844 H 1401.69 5.09449 5.81104 0
M  V30 14845 H 1400.03 4.57638 5.23061 0
M  V30 14846 H 1403.23 2.8581 3.70716 0
M  V30 14847 H 1403.4 4.15361 4.97372 0
M  V30 14848 N 1396.8 -1.33791 0.83293 0
M  V30 14849 C 1397.75 -2.31249 0.250357 0
M  V30 14850 C 1398.75 -1.57865 -0.614403 0
M  V30 14851 O 1399.95 -1.72782 -0.504627 0
M  V30 14852 H 1396.33 -0.749421 0.0622268 0
M  V30 14853 H 1398.3 -2.77899 1.08697 0
M  V30 14854 C 1397.05 -3.43082 -0.564783 0
M  V30 14855 H 1396.37 -3.99696 0.0913189 0
M  V30 14856 H 1397.81 -4.13486 -0.938351 0
M  V30 14857 C 1396.27 -2.88414 -1.74124 0
M  V30 14858 O 1396.8 -2.84113 -2.83976 0
M  V30 14859 N 1395.01 -2.45101 -1.56121 0
M  V30 14860 H 1394.55 -2.48799 -0.667607 0
M  V30 14861 H 1394.51 -2.08875 -2.34986 0
M  V30 14862 N 1398.28 -0.588812 -1.46187 0
M  V30 14863 C 1399.23 0.161973 -2.27424 0
M  V30 14864 C 1400.22 0.856178 -1.36229 0
M  V30 14865 O 1401.41 0.749266 -1.60359 0
M  V30 14866 C 1398.54 1.17104 -3.2271 0
M  V30 14867 C 1397.62 0.478637 -4.2139 0
M  V30 14868 N 1398.01 -0.46921 -5.03619 0
M  V30 14869 C 1396.31 0.728608 -4.40008 0
M  V30 14870 C 1397.01 -0.874455 -5.7509 0
M  V30 14871 N 1395.99 -0.222267 -5.43145 0
M  V30 14872 H 1399.79 -0.566306 -2.88392 0
M  V30 14873 H 1397.31 -0.41106 -1.57112 0
M  V30 14874 H 1399.3 1.72314 -3.79623 0
M  V30 14875 H 1397.96 1.90008 -2.63301 0
M  V30 14876 H 1398.97 -0.84504 -5.10959 0
M  V30 14877 H 1395.65 1.44375 -3.91742 0
M  V30 14878 H 1397.04 -1.65514 -6.51195 0
M  V30 14879 N 1399.76 1.54172 -0.326923 0
M  V30 14880 C 1400.69 2.27402 0.530154 0
M  V30 14881 C 1401.67 1.28325 1.11655 0
M  V30 14882 O 1402.86 1.57142 1.14105 0
M  V30 14883 C 1399.99 3.03435 1.68951 0
M  V30 14884 C 1398.94 4.09877 1.23226 0
M  V30 14885 C 1398.27 4.7377 2.47882 0
M  V30 14886 C 1399.57 5.21161 0.344698 0
M  V30 14887 H 1401.26 2.99291 -0.0806959 0
M  V30 14888 H 1398.81 1.43944 -0.0402511 0
M  V30 14889 H 1400.76 3.53396 2.29541 0
M  V30 14890 H 1399.48 2.29169 2.327 0
M  V30 14891 H 1398.14 3.60805 0.649267 0
M  V30 14892 H 1397.79 3.96116 3.10002 0
M  V30 14893 H 1397.49 5.45674 2.17977 0
M  V30 14894 H 1399.01 5.26507 3.09229 0
M  V30 14895 H 1400.43 5.66859 0.856979 0
M  V30 14896 H 1398.83 5.99941 0.138276 0
M  V30 14897 H 1399.9 4.80874 -0.623575 0
M  V30 14898 N 1401.24 0.0551678 1.57503 0
M  V30 14899 C 1402.17 -0.947102 2.08717 0
M  V30 14900 C 1403.18 -1.2722 1.01582 0
M  V30 14901 O 1404.37 -1.23229 1.29139 0
M  V30 14902 C 1401.47 -2.26756 2.51863 0
M  V30 14903 C 1400.65 -2.12378 3.8238 0
M  V30 14904 C 1399.7 -3.27582 4.11797 0
M  V30 14905 O 1398.73 -3.03309 4.81656 0
M  V30 14906 N 1399.93 -4.5218 3.64024 0
M  V30 14907 H 1402.7 -0.509957 2.9533 0
M  V30 14908 H 1400.26 -0.130976 1.61369 0
M  V30 14909 H 1402.25 -3.02701 2.68616 0
M  V30 14910 H 1400.82 -2.62024 1.70477 0
M  V30 14911 H 1400.04 -1.21 3.7517 0
M  V30 14912 H 1401.33 -2.00003 4.67842 0
M  V30 14913 H 1400.73 -4.7479 3.07556 0
M  V30 14914 H 1399.28 -5.25206 3.86008 0
M  V30 14915 N 1402.72 -1.56081 -0.218252 0
M  V30 14916 C 1403.63 -1.95856 -1.29141 0
M  V30 14917 C 1404.64 -0.862857 -1.51099 0
M  V30 14918 O 1405.82 -1.1667 -1.64165 0
M  V30 14919 C 1402.88 -2.27005 -2.62049 0
M  V30 14920 C 1401.94 -3.50162 -2.48365 0
M  V30 14921 C 1401.18 -3.79815 -3.74935 0
M  V30 14922 O 1401.4 -3.11095 -4.78096 0
M  V30 14923 O 1400.33 -4.73299 -3.71849 0
M  V30 14924 H 1404.16 -2.8732 -0.983922 0
M  V30 14925 H 1401.75 -1.43334 -0.421385 0
M  V30 14926 H 1403.63 -2.4822 -3.40536 0
M  V30 14927 H 1402.3 -1.38715 -2.92472 0
M  V30 14928 H 1401.21 -3.34222 -1.68066 0
M  V30 14929 H 1402.54 -4.38845 -2.22881 0
M  V30 14930 N 1404.2 0.485086 -1.49949 0
M  V30 14931 C 1405.44 1.23486 -1.5948 0
M  V30 14932 C 1405.76 1.93377 -0.294082 0
M  V30 14933 O 1406.96 2.70173 -0.268133 0
M  V30 14934 C 1405.42 2.24303 -2.81454 0
M  V30 14935 C 1405.03 1.60279 -4.18347 0
M  V30 14936 C 1406.77 3.0001 -3.00324 0
M  V30 14937 C 1404.68 2.593 -5.31524 0
M  V30 14938 H 1403.61 0.464595 -0.593858 0
M  V30 14939 H 1406.26 0.506893 -1.7636 0
M  V30 14940 H 1404.64 3.00332 -2.58102 0
M  V30 14941 H 1405.82 0.901352 -4.51899 0
M  V30 14942 H 1404.13 0.969053 -4.04967 0
M  V30 14943 H 1406.73 3.74091 -3.82048 0
M  V30 14944 H 1407.07 3.5857 -2.11502 0
M  V30 14945 H 1407.6 2.31095 -3.2379 0
M  V30 14946 H 1404.34 2.05498 -6.22455 0
M  V30 14947 H 1403.86 3.27638 -5.02408 0
M  V30 14948 H 1405.54 3.21411 -5.61519 0
M  V30 14949 N 1405.67 1.39291 0.737279 0
M  V30 14950 C 1407.09 1.20845 1.04253 0
M  V30 14951 C 1407.29 0.0684513 2.01384 0
M  V30 14952 O 1406.35 -0.580615 2.45734 0
M  V30 14953 C 1407.66 2.54158 1.60699 0
M  V30 14954 C 1409.21 2.60983 1.72791 0
M  V30 14955 C 1409.68 3.94511 2.32647 0
M  V30 14956 N 1411.17 3.96138 2.4006 0
M  V30 14957 C 1411.91 4.96229 2.87306 0
M  V30 14958 N 1411.4 6.06716 3.34465 0
M  V30 14959 N 1413.2 4.83609 2.86494 0
M  V30 14960 H 1405.35 2.12196 0.0930416 0
M  V30 14961 H 1407.61 0.942289 0.103899 0
M  V30 14962 H 1407.32 3.38118 0.96795 0
M  V30 14963 H 1407.19 2.73715 2.59538 0
M  V30 14964 H 1409.58 1.77408 2.35818 0
M  V30 14965 H 1409.66 2.45278 0.726118 0
M  V30 14966 H 1409.3 4.78516 1.70249 0
M  V30 14967 H 1409.23 4.07536 3.33499 0
M  V30 14968 H 1411.72 3.16344 2.06725 0
M  V30 14969 H 1412.04 6.79002 3.6902 0
M  V30 14970 H 1410.38 6.10313 3.3248 0
M  V30 14971 H 1413.57 3.96396 2.48973 0
M  V30 14972 H 1413.75 5.6176 3.23001 0
M  V30 14973 N 1407.15 -0.967221 1.24429 0
M  V30 14974 C 1408.38 -1.75053 1.11226 0
M  V30 14975 C 1408.8 -1.85162 -0.331139 0
M  V30 14976 O 1408.16 -1.32288 -1.23974 0
M  V30 14977 C 1408.21 -3.14882 1.75733 0
M  V30 14978 O 1407.31 -3.99371 1.02842 0
M  V30 14979 H 1406.65 -0.538078 0.389061 0
M  V30 14980 H 1409.18 -1.21325 1.64746 0
M  V30 14981 H 1409.19 -3.65402 1.81509 0
M  V30 14982 H 1407.87 -3.06839 2.80754 0
M  V30 14983 H 1406.44 -3.57854 1.04856 0
M  V30 14984 N 1408.63 -1.05812 -1.16797 0
M  V30 14985 C 1409.56 -0.622584 -2.20582 0
M  V30 14986 C 1410.57 0.316905 -1.59686 0
M  V30 14987 O 1411.76 0.108657 -1.78169 0
M  V30 14988 C 1408.86 0.108124 -3.38727 0
M  V30 14989 C 1408.04 -0.84363 -4.29187 0
M  V30 14990 C 1407.1 -0.15305 -5.25977 0
M  V30 14991 O 1406.12 -0.78915 -5.63703 0
M  V30 14992 N 1407.32 1.10721 -5.69843 0
M  V30 14993 H 1410.09 -1.51532 -2.5857 0
M  V30 14994 H 1407.65 -0.940815 -1.31758 0
M  V30 14995 H 1409.64 0.580395 -4.00517 0
M  V30 14996 H 1408.21 0.902599 -2.99286 0
M  V30 14997 H 1407.43 -1.49538 -3.64735 0
M  V30 14998 H 1408.72 -1.48946 -4.86511 0
M  V30 14999 H 1408.12 1.64423 -5.41278 0
M  V30 15000 H 1406.67 1.52344 -6.33746 0
M  V30 15001 N 1410.11 1.33347 -0.840014 0
M  V30 15002 C 1411.36 1.97007 -0.432581 0
M  V30 15003 C 1411.67 1.67278 1.01378 0
M  V30 15004 O 1412.88 2.2456 1.52595 0
M  V30 15005 C 1411.33 3.52572 -0.72258 0
M  V30 15006 C 1410.94 3.91176 -2.1837 0
M  V30 15007 C 1412.68 4.22776 -0.382153 0
M  V30 15008 C 1410.59 5.39724 -2.41768 0
M  V30 15009 H 1409.52 0.737255 -0.158024 0
M  V30 15010 H 1412.17 1.5195 -1.02876 0
M  V30 15011 H 1410.55 3.9596 -0.0560179 0
M  V30 15012 H 1411.73 3.58842 -2.89083 0
M  V30 15013 H 1410.04 3.33956 -2.48721 0
M  V30 15014 H 1412.64 5.32021 -0.534588 0
M  V30 15015 H 1412.98 4.10792 0.674967 0
M  V30 15016 H 1413.52 3.84922 -1.004 0
M  V30 15017 H 1410.25 5.56713 -3.4605 0
M  V30 15018 H 1409.77 5.73514 -1.75617 0
M  V30 15019 H 1411.45 6.06624 -2.2498 0
M  V30 15020 N 1411.59 0.596556 1.45873 0
M  V30 15021 C 1412.83 0.0875879 2.02611 0
M  V30 15022 C 1413.16 -1.27438 1.46538 0
M  V30 15023 O 1412.44 -1.83815 0.635779 0
M  V30 15024 C 1412.72 0.0367394 3.60081 0
M  V30 15025 C 1412.58 1.42859 4.26511 0
M  V30 15026 C 1413.89 -0.656795 4.35171 0
M  V30 15027 H 1411.01 0.0333031 0.736247 0
M  V30 15028 H 1413.66 0.766413 1.73857 0
M  V30 15029 H 1411.81 -0.541345 3.8471 0
M  V30 15030 H 1413.48 2.0529 4.13102 0
M  V30 15031 H 1411.72 1.99243 3.85337 0
M  V30 15032 H 1412.39 1.34535 5.35354 0
M  V30 15033 H 1414.87 -0.165553 4.15771 0
M  V30 15034 H 1413.74 -0.661445 5.449 0
M  V30 15035 H 1414 -1.72079 4.07236 0
M  V30 15036 N 1413.06 -1.53996 0.335095 0
M  V30 15037 C 1414.29 -2.05657 -0.268328 0
M  V30 15038 C 1414.71 -1.20897 -1.44102 0
M  V30 15039 O 1414.07 -0.220737 -1.79951 0
M  V30 15040 C 1414.12 -3.54331 -0.669481 0
M  V30 15041 O 1413.22 -3.7246 -1.77052 0
M  V30 15042 H 1412.56 -0.662386 -0.0462705 0
M  V30 15043 H 1415.09 -1.98723 0.486854 0
M  V30 15044 H 1415.1 -3.9681 -0.948971 0
M  V30 15045 H 1413.78 -4.15474 0.188168 0
M  V30 15046 H 1412.36 -3.41884 -1.48895 0
M  V30 15047 N 1414.54 -0.0635198 -1.57472 0
M  V30 15048 C 1415.79 0.608384 -1.93459 0
M  V30 15049 C 1416.12 1.6976 -0.943141 0
M  V30 15050 O 1415.4 1.94478 0.0289567 0
M  V30 15051 C 1415.68 1.19302 -3.39763 0
M  V30 15052 C 1415.53 0.11102 -4.49663 0
M  V30 15053 C 1416.85 2.101 -3.86712 0
M  V30 15054 H 1413.97 0.219688 -0.703496 0
M  V30 15055 H 1416.61 -0.127803 -1.8957 0
M  V30 15056 H 1414.76 1.82044 -3.43209 0
M  V30 15057 H 1416.43 -0.521606 -4.58342 0
M  V30 15058 H 1414.68 -0.559408 -4.30178 0
M  V30 15059 H 1415.35 0.560332 -5.49149 0
M  V30 15060 H 1417.82 1.57305 -3.8522 0
M  V30 15061 H 1416.7 2.47945 -4.89708 0
M  V30 15062 H 1416.96 3.00603 -3.24177 0
M  V30 15063 N 1416.02 1.56195 0.209972 0
M  V30 15064 C 1417.26 1.81525 0.939574 0
M  V30 15065 C 1417.62 0.638789 1.81062 0
M  V30 15066 O 1418.82 0.771648 2.57486 0
M  V30 15067 C 1417.1 3.11809 1.7467 0
M  V30 15068 S 1418.65 3.58494 2.53036 0
M  V30 15069 H 1415.47 0.637211 0.31541 0
M  V30 15070 H 1418.07 1.94431 0.204175 0
M  V30 15071 H 1416.78 3.95463 1.09715 0
M  V30 15072 H 1416.31 3.01742 2.52419 0
M  V30 15073 H 1418.32 3.2275 3.76891 0
M  V30 15074 N 1417.5 -0.477127 1.50204 0
M  V30 15075 C 1418.91 -1.05815 1.53819 0
M  V30 15076 C 1419.26 -1.93264 0.338169 0
M  V30 15077 O 1418.38 -2.09305 -0.549576 0
M  V30 15078 C 1418.98 -1.92577 2.78746 0
M  V30 15079 C 1417.54 -2.45799 2.85061 0
M  V30 15080 C 1416.69 -1.23994 2.48034 0
M  V30 15081 H 1419.64 -0.259998 1.56556 0
M  V30 15082 H 1419.66 -2.7757 2.6026 0
M  V30 15083 H 1419.17 -1.28904 3.66068 0
M  V30 15084 H 1417.27 -3.13042 2.02077 0
M  V30 15085 H 1417.38 -2.81318 3.8781 0
M  V30 15086 H 1415.75 -1.5728 2.00338 0
M  V30 15087 H 1416.53 -0.619917 3.37657 0
M  V30 15088 N 1418.98 -1.3968 -0.729882 0
M  V30 15089 C 1420.39 -1.33184 -1.30839 0
M  V30 15090 C 1420.74 0.00141129 -1.962 0
M  V30 15091 O 1419.86 0.903523 -1.96635 0
M  V30 15092 C 1420.46 -2.41211 -2.37913 0
M  V30 15093 C 1419.02 -2.3822 -2.91424 0
M  V30 15094 C 1418.16 -2.22832 -1.65049 0
M  V30 15095 H 1421.12 -1.49694 -0.527023 0
M  V30 15096 H 1421.14 -2.08294 -3.18424 0
M  V30 15097 H 1420.65 -3.38234 -1.90313 0
M  V30 15098 H 1418.75 -1.4485 -3.43292 0
M  V30 15099 H 1418.86 -3.33271 -3.44191 0
M  V30 15100 H 1417.23 -1.70095 -1.89578 0
M  V30 15101 H 1418.01 -3.21832 -1.19494 0
M  V30 15102 N 1420.45 0.960609 -1.2494 0
M  V30 15103 C 1421.39 2.05548 -0.991229 0
M  V30 15104 C 1422.37 1.62415 0.0774707 0
M  V30 15105 O 1423.55 1.88401 -0.0609447 0
M  V30 15106 C 1420.68 3.3503 -0.497227 0
M  V30 15107 C 1419.72 3.97121 -1.55555 0
M  V30 15108 S 1420.56 4.33851 -3.139 0
M  V30 15109 C 1421.71 5.66461 -2.6622 0
M  V30 15110 H 1421.94 2.27131 -1.9183 0
M  V30 15111 H 1419.48 1.09945 -1.08404 0
M  V30 15112 H 1421.44 4.09916 -0.218845 0
M  V30 15113 H 1420.1 3.11423 0.409246 0
M  V30 15114 H 1419.29 4.90458 -1.16047 0
M  V30 15115 H 1418.89 3.28692 -1.7843 0
M  V30 15116 H 1421.18 6.44304 -2.09474 0
M  V30 15117 H 1422.13 6.10833 -3.58174 0
M  V30 15118 H 1422.53 5.25409 -2.06413 0
M  V30 15119 N 1421.93 1.0643 1.16234 0
M  V30 15120 C 1423.16 0.802644 1.90697 0
M  V30 15121 C 1423.58 -0.643145 1.77508 0
M  V30 15122 O 1422.93 -1.4404 1.12065 0
M  V30 15123 C 1422.98 1.18984 3.41358 0
M  V30 15124 O 1422.7 2.5789 3.54153 0
M  V30 15125 C 1424.21 0.956132 4.32866 0
M  V30 15126 H 1421.43 0.290891 0.604668 0
M  V30 15127 H 1423.97 1.41829 1.47325 0
M  V30 15128 H 1422.12 0.618703 3.82428 0
M  V30 15129 H 1422.54 2.73431 4.47589 0
M  V30 15130 H 1424.01 1.27667 5.37034 0
M  V30 15131 H 1424.49 -0.108062 4.39067 0
M  V30 15132 H 1425.1 1.51172 3.97526 0
M  V30 15133 N 1423.41 -1.329 0.847073 0
M  V30 15134 C 1424.36 -2.26534 0.258111 0
M  V30 15135 C 1425.34 -1.49627 -0.591653 0
M  V30 15136 O 1426.54 -1.71385 -0.442277 0
M  V30 15137 C 1423.67 -3.38719 -0.558969 0
M  V30 15138 C 1422.75 -4.23018 0.30276 0
M  V30 15139 N 1423.14 -4.86457 1.38541 0
M  V30 15140 C 1421.44 -4.45907 0.0911992 0
M  V30 15141 C 1422.14 -5.49277 1.91492 0
M  V30 15142 N 1421.12 -5.29843 1.21519 0
M  V30 15143 H 1424.92 -2.73103 1.0859 0
M  V30 15144 H 1422.43 -1.46901 0.692386 0
M  V30 15145 H 1424.43 -4.04797 -0.997259 0
M  V30 15146 H 1423.09 -2.93697 -1.38464 0
M  V30 15147 H 1424.1 -4.86776 1.76832 0
M  V30 15148 H 1420.78 -4.11584 -0.70037 0
M  V30 15149 H 1422.17 -6.09764 2.82201 0
M  V30 15150 N 1424.89 -0.604284 -1.45555 0
M  V30 15151 C 1425.82 0.103859 -2.33269 0
M  V30 15152 C 1426.8 0.862104 -1.46635 0
M  V30 15153 O 1427.98 0.833308 -1.75413 0
M  V30 15154 C 1425.11 1.104 -3.29286 0
M  V30 15155 C 1424.07 0.459189 -4.2553 0
M  V30 15156 C 1423.39 1.56734 -5.11213 0
M  V30 15157 C 1424.69 -0.617509 -5.18637 0
M  V30 15158 H 1426.39 -0.628538 -2.92728 0
M  V30 15159 H 1423.93 -0.303711 -1.40761 0
M  V30 15160 H 1425.89 1.60794 -3.89517 0
M  V30 15161 H 1424.61 1.86695 -2.67979 0
M  V30 15162 H 1423.27 -0.0238508 -3.66592 0
M  V30 15163 H 1422.92 2.32049 -4.46276 0
M  V30 15164 H 1422.62 1.14142 -5.76407 0
M  V30 15165 H 1424.14 2.07361 -5.74312 0
M  V30 15166 H 1425.56 -0.197784 -5.72959 0
M  V30 15167 H 1423.95 -0.96499 -5.9229 0
M  V30 15168 H 1425.02 -1.49541 -4.61265 0
M  V30 15169 N 1426.37 1.53816 -0.343257 0
M  V30 15170 C 1427.61 2.0282 0.253695 0
M  V30 15171 C 1427.97 1.22564 1.47791 0
M  V30 15172 O 1429.17 1.61464 2.14902 0
M  V30 15173 C 1427.44 3.5298 0.560361 0
M  V30 15174 S 1429 4.23889 1.13416 0
M  V30 15175 H 1425.82 0.706976 0.0755344 0
M  V30 15176 H 1428.42 1.89492 -0.480951 0
M  V30 15177 H 1427.13 4.09002 -0.338451 0
M  V30 15178 H 1426.66 3.70426 1.32468 0
M  V30 15179 H 1428.67 4.33192 2.4199 0
M  V30 15180 N 1427.84 0.0718701 1.57436 0
M  V30 15181 C 1428.75 -0.910077 2.16229 0
M  V30 15182 C 1429.77 -1.32699 1.12548 0
M  V30 15183 O 1430.95 -1.39967 1.44814 0
M  V30 15184 C 1428.01 -2.15942 2.71238 0
M  V30 15185 C 1427.07 -1.79891 3.89792 0
M  V30 15186 C 1426.31 -2.9887 4.42168 0
M  V30 15187 O 1426.53 -4.1289 3.93545 0
M  V30 15188 O 1425.46 -2.78682 5.33498 0
M  V30 15189 H 1429.29 -0.439969 3.00496 0
M  V30 15190 H 1426.87 -0.151204 1.48633 0
M  V30 15191 H 1428.76 -2.89204 3.06494 0
M  V30 15192 H 1427.43 -2.62051 1.90029 0
M  V30 15193 H 1426.34 -1.03881 3.59388 0
M  V30 15194 H 1427.67 -1.38566 4.72293 0
M  V30 15195 N 1429.32 -1.56304 -0.201686 0
M  V30 15196 C 1430.27 -1.94021 -1.24999 0
M  V30 15197 C 1431.24 -0.799926 -1.45569 0
M  V30 15198 O 1432.42 -1.05752 -1.58811 0
M  V30 15199 C 1429.56 -2.27935 -2.59113 0
M  V30 15200 C 1428.68 -3.54995 -2.46176 0
M  V30 15201 C 1427.81 -3.78262 -3.72949 0
M  V30 15202 C 1426.85 -4.9877 -3.54817 0
M  V30 15203 N 1425.99 -5.18325 -4.73586 0
M  V30 15204 H 1430.83 -2.834 -0.92134 0
M  V30 15205 H 1428.37 -1.40252 -0.44359 0
M  V30 15206 H 1430.32 -2.45613 -3.37239 0
M  V30 15207 H 1428.95 -1.41705 -2.90034 0
M  V30 15208 H 1428.01 -3.45401 -1.59381 0
M  V30 15209 H 1429.32 -4.43277 -2.28708 0
M  V30 15210 H 1428.47 -3.96144 -4.59516 0
M  V30 15211 H 1427.21 -2.88299 -3.93364 0
M  V30 15212 H 1426.22 -4.80818 -2.66635 0
M  V30 15213 H 1427.44 -5.90237 -3.35854 0
M  V30 15214 H 1425.39 -4.31308 -4.94277 0
M  V30 15215 H 1425.3 -6.00774 -4.58919 0
M  V30 15216 H 1426.57 -5.40659 -5.61523 0
M  V30 15217 N 1430.8 0.469154 -1.50455 0
M  V30 15218 C 1432.05 1.21788 -1.60781 0
M  V30 15219 C 1432.36 1.93054 -0.314576 0
M  V30 15220 O 1433.57 2.69873 -0.296773 0
M  V30 15221 C 1432.02 2.21305 -2.83817 0
M  V30 15222 C 1431.63 1.55833 -4.20024 0
M  V30 15223 C 1433.38 2.96808 -3.03489 0
M  V30 15224 C 1431.28 2.53648 -5.34244 0
M  V30 15225 H 1430.21 0.45827 -0.598752 0
M  V30 15226 H 1432.86 0.488159 -1.76888 0
M  V30 15227 H 1431.25 2.97577 -2.61273 0
M  V30 15228 H 1432.42 0.853371 -4.52829 0
M  V30 15229 H 1430.74 0.926046 -4.05972 0
M  V30 15230 H 1433.33 3.70017 -3.85994 0
M  V30 15231 H 1433.68 3.56307 -2.15293 0
M  V30 15232 H 1434.21 2.27648 -3.26223 0
M  V30 15233 H 1430.95 1.98885 -6.246 0
M  V30 15234 H 1430.47 3.22291 -5.05854 0
M  V30 15235 H 1432.15 3.15438 -5.64897 0
M  V30 15236 N 1432.28 1.40065 0.722464 0
M  V30 15237 C 1433.53 1.37277 1.47776 0
M  V30 15238 C 1433.84 -0.0242852 1.95585 0
M  V30 15239 O 1435.05 -0.174769 2.70937 0
M  V30 15240 C 1433.5 2.41233 2.67085 0
M  V30 15241 C 1433.11 3.86716 2.26174 0
M  V30 15242 C 1434.85 2.47541 3.44853 0
M  V30 15243 C 1432.76 4.82284 3.42281 0
M  V30 15244 H 1431.69 0.510405 0.55498 0
M  V30 15245 H 1434.34 1.6577 0.786928 0
M  V30 15246 H 1432.72 2.0583 3.38305 0
M  V30 15247 H 1433.9 4.31227 1.6242 0
M  V30 15248 H 1432.21 3.83819 1.61468 0
M  V30 15249 H 1434.81 3.16131 4.31237 0
M  V30 15250 H 1435.15 1.50379 3.8819 0
M  V30 15251 H 1435.69 2.81901 2.80672 0
M  V30 15252 H 1432.43 5.80754 3.03982 0
M  V30 15253 H 1431.95 4.42443 4.04975 0
M  V30 15254 H 1433.62 5.0178 4.08443 0
M  V30 15255 N 1433.76 -0.95397 1.25448 0
M  V30 15256 C 1434.98 -1.73863 1.13077 0
M  V30 15257 C 1435.41 -1.85503 -0.311481 0
M  V30 15258 O 1434.77 -1.33596 -1.22564 0
M  V30 15259 C 1434.81 -3.13 1.79062 0
M  V30 15260 O 1433.92 -3.98258 1.07072 0
M  V30 15261 H 1433.26 -0.533921 0.394746 0
M  V30 15262 H 1435.79 -1.19571 1.66024 0
M  V30 15263 H 1435.8 -3.63456 1.85374 0
M  V30 15264 H 1434.47 -3.03844 2.83992 0
M  V30 15265 H 1433.05 -3.56722 1.08645 0
M  V30 15266 N 1435.24 -1.07045 -1.15668 0
M  V30 15267 C 1436.46 -0.812746 -1.90268 0
M  V30 15268 C 1436.88 0.633722 -1.77847 0
M  V30 15269 O 1436.24 1.43444 -1.12828 0
M  V30 15270 C 1436.29 -1.20793 -3.40722 0
M  V30 15271 O 1436.01 -2.59764 -3.52781 0
M  V30 15272 C 1437.51 -0.979074 -4.32353 0
M  V30 15273 H 1434.73 -0.294093 -0.603117 0
M  V30 15274 H 1437.27 -1.42609 -1.46571 0
M  V30 15275 H 1435.43 -0.638975 -3.82094 0
M  V30 15276 H 1435.84 -2.75801 -4.46133 0
M  V30 15277 H 1437.32 -1.30513 -5.36349 0
M  V30 15278 H 1437.79 0.0847752 -4.39118 0
M  V30 15279 H 1438.4 -1.53278 -3.96719 0
M  V30 15280 N 1436.71 1.32449 -0.85411 0
M  V30 15281 C 1437.64 2.31383 -0.313697 0
M  V30 15282 C 1438.62 1.59656 0.586858 0
M  V30 15283 O 1439.81 1.87459 0.507216 0
M  V30 15284 C 1436.94 3.43693 0.499235 0
M  V30 15285 C 1435.89 4.26899 -0.306839 0
M  V30 15286 C 1435.22 5.30966 0.630795 0
M  V30 15287 C 1436.52 4.99318 -1.53229 0
M  V30 15288 H 1438.21 2.76832 -1.14037 0
M  V30 15289 H 1435.76 1.33091 -0.549805 0
M  V30 15290 H 1437.71 4.11944 0.887709 0
M  V30 15291 H 1436.44 2.96971 1.35926 0
M  V30 15292 H 1435.1 3.60294 -0.677061 0
M  V30 15293 H 1434.74 4.80498 1.48765 0
M  V30 15294 H 1434.44 5.87522 0.0954635 0
M  V30 15295 H 1435.97 6.0208 1.01646 0
M  V30 15296 H 1437.38 5.60253 -1.21614 0
M  V30 15297 H 1435.78 5.65596 -2.00552 0
M  V30 15298 H 1436.85 4.27213 -2.29383 0
M  V30 15299 N 1438.19 0.611994 1.45232 0
M  V30 15300 C 1439.6 0.193464 1.85695 0
M  V30 15301 C 1439.95 -1.25069 1.5117 0
M  V30 15302 O 1439.08 -1.94894 0.940497 0
M  V30 15303 C 1439.67 0.344334 3.37046 0
M  V30 15304 C 1438.23 -0.0195378 3.76395 0
M  V30 15305 C 1437.38 0.666714 2.69166 0
M  V30 15306 H 1440.33 0.818395 1.35971 0
M  V30 15307 H 1440.35 -0.422209 3.7815 0
M  V30 15308 H 1439.86 1.3955 3.62143 0
M  V30 15309 H 1437.96 -1.06971 3.56915 0
M  V30 15310 H 1438.08 0.377184 4.77613 0
M  V30 15311 H 1436.44 0.103912 2.54488 0
M  V30 15312 H 1437.22 1.7201 2.97099 0
M  V30 15313 N 1439.67 -1.53632 0.351409 0
M  V30 15314 C 1440.89 -2.0593 -0.246501 0
M  V30 15315 C 1441.32 -1.22419 -1.42812 0
M  V30 15316 O 1440.68 -0.239811 -1.79707 0
M  V30 15317 C 1440.73 -3.55021 -0.631862 0
M  V30 15318 O 1439.83 -3.74317 -1.73092 0
M  V30 15319 H 1439.17 -0.662839 -0.0392424 0
M  V30 15320 H 1441.7 -1.98196 0.507904 0
M  V30 15321 H 1441.71 -3.97795 -0.906831 0
M  V30 15322 H 1440.39 -4.15251 0.232224 0
M  V30 15323 H 1438.96 -3.43444 -1.4526 0
M  V30 15324 N 1441.15 -0.0802183 -1.57396 0
M  V30 15325 C 1442.39 0.581779 -1.94902 0
M  V30 15326 C 1442.75 1.66708 -0.960532 0
M  V30 15327 O 1442.04 1.91593 0.0158677 0
M  V30 15328 C 1442.24 1.19551 -3.36812 0
M  V30 15329 C 1442.06 0.171196 -4.49374 0
M  V30 15330 C 1440.83 -0.247104 -5.04695 0
M  V30 15331 C 1443.03 -0.594852 -5.10848 0
M  V30 15332 N 1441.01 -1.26125 -6.00804 0
M  V30 15333 C 1442.39 -1.46124 -6.02535 0
M  V30 15334 C 1444.44 -0.65 -4.93639 0
M  V30 15335 C 1443.14 -2.37789 -6.78859 0
M  V30 15336 C 1445.17 -1.55419 -5.70613 0
M  V30 15337 C 1444.53 -2.40824 -6.61954 0
M  V30 15338 H 1440.63 0.183663 -0.760126 0
M  V30 15339 H 1443.21 -0.159324 -1.94047 0
M  V30 15340 H 1441.39 1.90651 -3.38389 0
M  V30 15341 H 1443.12 1.81867 -3.61534 0
M  V30 15342 H 1439.87 0.137694 -4.734 0
M  V30 15343 H 1440.3 -1.76608 -6.53558 0
M  V30 15344 H 1444.94 -0.00389787 -4.228 0
M  V30 15345 H 1442.66 -3.03431 -7.4897 0
M  V30 15346 H 1446.24 -1.60181 -5.59315 0
M  V30 15347 H 1445.12 -3.09654 -7.20475 0
M  V30 15348 N 1442.63 1.56409 0.193394 0
M  V30 15349 C 1444.04 1.50032 0.544298 0
M  V30 15350 C 1444.24 0.780546 1.85768 0
M  V30 15351 O 1443.3 0.331769 2.50311 0
M  V30 15352 C 1444.61 2.94705 0.597463 0
M  V30 15353 C 1446.16 3.05386 0.686179 0
M  V30 15354 C 1446.63 4.51473 0.770439 0
M  V30 15355 N 1448.12 4.55631 0.833921 0
M  V30 15356 C 1448.86 5.65982 0.919314 0
M  V30 15357 N 1448.36 6.8602 0.966904 0
M  V30 15358 N 1450.15 5.539 0.956634 0
M  V30 15359 H 1442.3 2.01619 -0.668096 0
M  V30 15360 H 1444.56 0.917589 -0.238191 0
M  V30 15361 H 1444.27 3.50431 -0.298509 0
M  V30 15362 H 1444.14 3.48151 1.45157 0
M  V30 15363 H 1446.53 2.49708 1.57258 0
M  V30 15364 H 1446.61 2.55062 -0.194165 0
M  V30 15365 H 1446.25 5.07777 -0.111619 0
M  V30 15366 H 1446.18 4.99531 1.66661 0
M  V30 15367 H 1448.68 3.69198 0.80632 0
M  V30 15368 H 1448.99 7.6587 1.03262 0
M  V30 15369 H 1447.33 6.88674 0.935552 0
M  V30 15370 H 1450.52 4.59044 0.916304 0
M  V30 15371 H 1450.7 6.39926 1.01972 0
M  V30 15372 N 1444.1 -0.461169 1.50702 0
M  V30 15373 C 1445.05 -1.5579 1.70288 0
M  V30 15374 C 1446.02 -1.5693 0.544251 0
M  V30 15375 O 1447.21 -1.74308 0.77597 0
M  V30 15376 C 1444.35 -2.93694 1.81212 0
M  V30 15377 C 1443.46 -3.02267 3.0864 0
M  V30 15378 C 1442.59 -4.31147 3.103 0
M  V30 15379 C 1441.63 -4.33498 4.32141 0
M  V30 15380 N 1440.77 -5.53864 4.31484 0
M  V30 15381 H 1445.61 -1.38393 2.63915 0
M  V30 15382 H 1443.15 -0.6727 1.30817 0
M  V30 15383 H 1445.1 -3.73679 1.85526 0
M  V30 15384 H 1443.73 -3.09703 0.91015 0
M  V30 15385 H 1442.79 -2.15093 3.1375 0
M  V30 15386 H 1444.1 -2.99864 3.98601 0
M  V30 15387 H 1443.25 -5.19487 3.13398 0
M  V30 15388 H 1441.99 -4.36172 2.18186 0
M  V30 15389 H 1441 -3.43554 4.29245 0
M  V30 15390 H 1442.22 -4.30156 5.25493 0
M  V30 15391 H 1440.17 -5.59657 3.42229 0
M  V30 15392 H 1440.08 -5.53244 5.15225 0
M  V30 15393 H 1441.35 -6.44302 4.38742 0
M  V30 15394 N 1445.58 -1.40446 -0.715026 0
M  V30 15395 C 1446.51 -1.43511 -1.84193 0
M  V30 15396 C 1447.49 -0.295969 -1.67505 0
M  V30 15397 O 1448.68 -0.504667 -1.87528 0
M  V30 15398 C 1445.81 -1.29751 -3.22152 0
M  V30 15399 C 1444.76 -2.41274 -3.53512 0
M  V30 15400 C 1444.09 -2.12591 -4.90621 0
M  V30 15401 C 1445.39 -3.83614 -3.54454 0
M  V30 15402 H 1447.08 -2.37819 -1.81885 0
M  V30 15403 H 1444.63 -1.14469 -0.873655 0
M  V30 15404 H 1446.58 -1.30511 -4.0068 0
M  V30 15405 H 1445.3 -0.319189 -3.25037 0
M  V30 15406 H 1443.96 -2.39764 -2.77324 0
M  V30 15407 H 1443.61 -1.13148 -4.90109 0
M  V30 15408 H 1443.31 -2.87308 -5.1257 0
M  V30 15409 H 1444.84 -2.15034 -5.71483 0
M  V30 15410 H 1446.25 -3.86945 -4.23021 0
M  V30 15411 H 1444.65 -4.57855 -3.87929 0
M  V30 15412 H 1445.72 -4.13159 -2.53827 0
M  V30 15413 N 1447.06 0.947303 -1.25952 0
M  V30 15414 C 1448.01 2.06642 -1.06779 0
M  V30 15415 C 1449 1.694 0.00348362 0
M  V30 15416 O 1450.21 1.79351 -0.152715 0
M  V30 15417 H 1446.58 0.676499 -0.32841 0
M  V30 15418 H 1448.55 2.19968 -2.01635 0
M  V30 15419 C 1447.3 3.40353 -0.711015 0
M  V30 15420 H 1446.63 3.69483 -1.52718 0
M  V30 15421 H 1448.07 4.19493 -0.616606 0
M  V30 15422 C 1446.52 3.3181 0.58344 0
M  V30 15423 O 1447.05 3.67431 1.6235 0
M  V30 15424 N 1445.26 2.84919 0.571797 0
M  V30 15425 H 1444.81 2.56128 -0.274962 0
M  V30 15426 H 1444.77 2.79586 1.43803 0
M  V30 15427 N 1448.54 1.07657 1.15099 0
M  V30 15428 C 1449.79 0.800025 1.85591 0
M  V30 15429 C 1450.11 -0.675973 1.82909 0
M  V30 15430 O 1449.38 -1.48971 1.27218 0
M  V30 15431 H 1447.96 0.292958 0.687157 0
M  V30 15432 H 1450.62 1.36096 1.39513 0
M  V30 15433 H 1449.72 1.13733 2.90639 0
M  V30 15434 N 1450.02 -1.31994 0.861122 0
M  V30 15435 C 1451.43 -1.79271 0.521437 0
M  V30 15436 C 1451.78 -1.71046 -0.96113 0
M  V30 15437 O 1450.9 -1.2729 -1.75003 0
M  V30 15438 C 1451.5 -3.25507 0.939731 0
M  V30 15439 C 1450.06 -3.70713 0.651845 0
M  V30 15440 C 1449.2 -2.52967 1.13592 0
M  V30 15441 H 1452.16 -1.19201 1.0477 0
M  V30 15442 H 1452.18 -3.79619 0.258754 0
M  V30 15443 H 1451.69 -3.3146 2.0188 0
M  V30 15444 H 1449.79 -3.70268 -0.416232 0
M  V30 15445 H 1449.9 -4.63236 1.22267 0
M  V30 15446 H 1448.27 -2.48558 0.555971 0
M  V30 15447 H 1449.05 -2.61671 2.22223 0
M  V30 15448 N 1451.49 -0.619688 -1.44906 0
M  V30 15449 C 1452.44 0.104373 -2.32366 0
M  V30 15450 C 1453.44 0.847423 -1.4668 0
M  V30 15451 O 1454.64 0.761618 -1.63093 0
M  V30 15452 H 1451.02 0.0525126 -0.750164 0
M  V30 15453 H 1452.99 -0.651525 -2.912 0
M  V30 15454 C 1451.74 1.08017 -3.30496 0
M  V30 15455 H 1451.06 0.517831 -3.96432 0
M  V30 15456 H 1452.5 1.5565 -3.94397 0
M  V30 15457 C 1450.96 2.15975 -2.58566 0
M  V30 15458 O 1451.49 3.23895 -2.37603 0
M  V30 15459 N 1449.7 1.91593 -2.18496 0
M  V30 15460 H 1449.24 1.03835 -2.35746 0
M  V30 15461 H 1449.2 2.64028 -1.70694 0
M  V30 15462 N 1452.97 1.53444 -0.359552 0
M  V30 15463 C 1453.9 2.23121 0.524379 0
M  V30 15464 C 1454.92 1.24324 1.05106 0
M  V30 15465 O 1456.11 1.50584 0.958476 0
M  V30 15466 C 1453.21 2.91055 1.7361 0
M  V30 15467 C 1452.38 4.16306 1.34195 0
M  V30 15468 C 1451.44 4.67504 2.41508 0
M  V30 15469 O 1450.46 5.3133 2.04149 0
M  V30 15470 N 1451.67 4.44801 3.73005 0
M  V30 15471 H 1454.43 2.99612 -0.072427 0
M  V30 15472 H 1451.99 1.60846 -0.184438 0
M  V30 15473 H 1453.98 3.22216 2.44865 0
M  V30 15474 H 1452.55 2.18052 2.23991 0
M  V30 15475 H 1451.77 3.91513 0.459501 0
M  V30 15476 H 1453.06 4.97746 1.05483 0
M  V30 15477 H 1452.46 3.9379 4.06136 0
M  V30 15478 H 1451.02 4.80528 4.40382 0
M  V30 15479 N 1454.45 0.0885642 1.57351 0
M  V30 15480 C 1455.38 -0.869946 2.16689 0
M  V30 15481 C 1456.36 -1.29878 1.09844 0
M  V30 15482 O 1457.55 -1.36684 1.37954 0
M  V30 15483 C 1454.68 -2.13148 2.74199 0
M  V30 15484 C 1453.63 -1.84149 3.86359 0
M  V30 15485 C 1452.96 -3.17075 4.30543 0
M  V30 15486 C 1454.26 -1.13357 5.09851 0
M  V30 15487 H 1455.95 -0.375578 2.97035 0
M  V30 15488 H 1453.5 -0.17921 1.42881 0
M  V30 15489 H 1455.45 -2.80634 3.14361 0
M  V30 15490 H 1454.17 -2.64856 1.91098 0
M  V30 15491 H 1452.83 -1.19063 3.46727 0
M  V30 15492 H 1452.48 -3.66658 3.44342 0
M  V30 15493 H 1452.18 -2.98457 5.06159 0
M  V30 15494 H 1453.7 -3.85731 4.73333 0
M  V30 15495 H 1455.12 -1.70941 5.47222 0
M  V30 15496 H 1453.52 -1.0494 5.90853 0
M  V30 15497 H 1454.59 -0.115273 4.84763 0
M  V30 15498 N 1455.93 -1.56509 -0.185096 0
M  V30 15499 C 1456.86 -1.90414 -1.25768 0
M  V30 15500 C 1457.84 -0.765349 -1.43461 0
M  V30 15501 O 1459.02 -1.01733 -1.5869 0
M  V30 15502 C 1456.15 -2.14307 -2.62279 0
M  V30 15503 C 1455.2 -3.37005 -2.61399 0
M  V30 15504 S 1456.03 -4.91816 -2.11843 0
M  V30 15505 C 1457.19 -5.18787 -3.50158 0
M  V30 15506 H 1457.42 -2.81092 -0.968212 0
M  V30 15507 H 1454.95 -1.49418 -0.389046 0
M  V30 15508 H 1456.91 -2.28754 -3.40855 0
M  V30 15509 H 1455.57 -1.24361 -2.88432 0
M  V30 15510 H 1454.76 -3.5088 -3.618 0
M  V30 15511 H 1454.37 -3.21603 -1.90912 0
M  V30 15512 H 1456.66 -5.0992 -4.4608 0
M  V30 15513 H 1457.6 -6.20491 -3.41169 0
M  V30 15514 H 1458.01 -4.46394 -3.45533 0
M  V30 15515 N 1457.41 0.45317 -1.50944 0
M  V30 15516 C 1458.63 1.23136 -1.6689 0
M  V30 15517 C 1459.06 1.84639 -0.359185 0
M  V30 15518 O 1458.41 1.68106 0.678983 0
M  V30 15519 C 1458.46 2.30275 -2.77499 0
M  V30 15520 O 1457.57 3.35371 -2.39999 0
M  V30 15521 H 1456.91 0.361475 -0.556984 0
M  V30 15522 H 1459.44 0.537174 -1.97422 0
M  V30 15523 H 1459.45 2.75309 -3.01113 0
M  V30 15524 H 1458.12 1.84885 -3.72546 0
M  V30 15525 H 1456.7 2.95924 -2.26899 0
M  V30 15526 N 1458.88 1.40823 0.707568 0
M  V30 15527 C 1459.81 1.44485 1.83429 0
M  V30 15528 C 1460.8 0.304848 1.67346 0
M  V30 15529 O 1461.98 0.514605 1.87258 0
M  V30 15530 C 1459.11 1.31458 3.21459 0
M  V30 15531 C 1458.06 2.43145 3.52228 0
M  V30 15532 C 1457.39 2.15189 4.89487 0
M  V30 15533 C 1458.69 3.85489 3.52414 0
M  V30 15534 H 1460.38 2.38781 1.80622 0
M  V30 15535 H 1457.93 1.14931 0.867572 0
M  V30 15536 H 1459.88 1.32635 3.99983 0
M  V30 15537 H 1458.61 0.336422 3.24863 0
M  V30 15538 H 1457.27 2.41231 2.76049 0
M  V30 15539 H 1456.91 1.15745 4.89502 0
M  V30 15540 H 1456.61 2.90022 5.11039 0
M  V30 15541 H 1458.14 2.18062 5.70334 0
M  V30 15542 H 1459.55 3.89183 4.20963 0
M  V30 15543 H 1457.95 4.59906 3.85495 0
M  V30 15544 H 1459.02 4.14499 2.51632 0
M  V30 15545 N 1460.36 -0.94061 1.26453 0
M  V30 15546 C 1461.29 -2.04322 1.03852 0
M  V30 15547 C 1462.31 -1.628 -0.00122618 0
M  V30 15548 O 1463.5 -1.76894 0.238911 0
M  V30 15549 C 1460.6 -3.34394 0.550789 0
M  V30 15550 C 1459.77 -4.0468 1.6599 0
M  V30 15551 C 1458.83 -5.13025 1.17012 0
M  V30 15552 O 1457.85 -5.37699 1.8673 0
M  V30 15553 N 1459.06 -5.80497 0.0188478 0
M  V30 15554 H 1461.82 -2.24276 1.98797 0
M  V30 15555 H 1459.38 -1.11013 1.17846 0
M  V30 15556 H 1461.37 -4.04169 0.207305 0
M  V30 15557 H 1459.94 -3.11108 -0.30509 0
M  V30 15558 H 1459.16 -3.28813 2.17429 0
M  V30 15559 H 1460.45 -4.48392 2.40463 0
M  V30 15560 H 1459.85 -5.62888 -0.563368 0
M  V30 15561 H 1458.41 -6.51259 -0.265556 0
M  V30 15562 N 1461.84 -1.08266 -1.14527 0
M  V30 15563 C 1462.77 -0.669233 -2.19212 0
M  V30 15564 C 1463.79 0.282962 -1.60322 0
M  V30 15565 O 1464.97 0.0708403 -1.78359 0
M  V30 15566 C 1462.07 0.0362509 -3.38881 0
M  V30 15567 C 1461.25 -0.934477 -4.27301 0
M  V30 15568 C 1460.31 -0.264584 -5.25534 0
M  V30 15569 O 1459.33 -0.908543 -5.61902 0
M  V30 15570 N 1460.53 0.98609 -5.72063 0
M  V30 15571 H 1463.3 -1.56982 -2.55297 0
M  V30 15572 H 1460.86 -0.968551 -1.29733 0
M  V30 15573 H 1462.85 0.495309 -4.01658 0
M  V30 15574 H 1461.42 0.838913 -3.01133 0
M  V30 15575 H 1460.64 -1.57241 -3.61481 0
M  V30 15576 H 1461.93 -1.59232 -4.83242 0
M  V30 15577 H 1461.33 1.52904 -5.44644 0
M  V30 15578 H 1459.89 1.38867 -6.36835 0
M  V30 15579 N 1463.32 1.31536 -0.86811 0
M  V30 15580 C 1464.57 1.96775 -0.47812 0
M  V30 15581 C 1464.89 1.68632 0.9692 0
M  V30 15582 O 1464.15 0.974357 1.6972 0
M  V30 15583 C 1464.45 3.50876 -0.679752 0
M  V30 15584 C 1464.11 3.99034 -2.09958 0
M  V30 15585 C 1462.78 4.11896 -2.48787 0
M  V30 15586 C 1465.13 4.24387 -3.02564 0
M  V30 15587 C 1462.46 4.47461 -3.79468 0
M  V30 15588 C 1464.81 4.61415 -4.32757 0
M  V30 15589 C 1463.47 4.72484 -4.71503 0
M  V30 15590 H 1462.74 0.720049 -0.174957 0
M  V30 15591 H 1465.39 1.56703 -1.10074 0
M  V30 15592 H 1463.69 3.91791 0.0260174 0
M  V30 15593 H 1465.39 3.994 -0.357855 0
M  V30 15594 H 1461.98 3.89518 -1.78811 0
M  V30 15595 H 1466.17 4.13947 -2.73791 0
M  V30 15596 H 1461.42 4.54227 -4.09252 0
M  V30 15597 H 1465.6 4.79985 -5.04566 0
M  V30 15598 H 1463.22 4.99798 -5.72806 0
M  V30 15599 N 1464.8 0.627364 1.44575 0
M  V30 15600 C 1466.04 0.130545 2.02379 0
M  V30 15601 C 1466.38 -1.24301 1.49208 0
M  V30 15602 O 1465.65 -1.82425 0.674626 0
M  V30 15603 C 1465.93 0.11311 3.59922 0
M  V30 15604 C 1465.79 1.51874 4.23385 0
M  V30 15605 C 1467.11 -0.564341 4.36467 0
M  V30 15606 H 1464.23 0.0489125 0.735375 0
M  V30 15607 H 1466.87 0.803118 1.72192 0
M  V30 15608 H 1465.02 -0.459621 3.85772 0
M  V30 15609 H 1466.69 2.14007 4.08655 0
M  V30 15610 H 1464.93 2.07371 3.81024 0
M  V30 15611 H 1465.6 1.4586 5.3238 0
M  V30 15612 H 1468.08 -0.0773244 4.16028 0
M  V30 15613 H 1466.96 -0.545715 5.46181 0
M  V30 15614 H 1467.22 -1.63403 4.10794 0
M  V30 15615 N 1466.28 -1.53251 0.367684 0
M  V30 15616 C 1467.51 -2.05407 -0.221725 0
M  V30 15617 C 1467.91 -1.24081 -1.4283 0
M  V30 15618 O 1467.26 -0.275005 -1.8163 0
M  V30 15619 C 1467.32 -3.53063 -0.677281 0
M  V30 15620 C 1466.98 -4.55131 0.412894 0
M  V30 15621 C 1467.98 -5.04315 1.26343 0
M  V30 15622 C 1465.66 -4.99013 0.573739 0
M  V30 15623 C 1467.66 -5.95984 2.26014 0
M  V30 15624 C 1465.35 -5.90487 1.57381 0
M  V30 15625 C 1466.34 -6.38863 2.41544 0
M  V30 15626 O 1466.03 -7.28533 3.39845 0
M  V30 15627 H 1465.76 -0.674679 -0.0422413 0
M  V30 15628 H 1468.32 -1.98577 0.52501 0
M  V30 15629 H 1466.55 -3.57437 -1.47565 0
M  V30 15630 H 1468.24 -3.88066 -1.18993 0
M  V30 15631 H 1469 -4.7116 1.15037 0
M  V30 15632 H 1464.88 -4.60944 -0.0715806 0
M  V30 15633 H 1468.43 -6.33666 2.91742 0
M  V30 15634 H 1464.32 -6.23056 1.68734 0
M  V30 15635 H 1465.09 -7.46536 3.35598 0
M  V30 15636 N 1467.75 -0.0969077 -1.57302 0
M  V30 15637 C 1469.03 0.608737 -1.85886 0
M  V30 15638 C 1469.41 1.86228 -0.994096 0
M  V30 15639 O 1468.76 2.28402 -0.0669975 0
M  V30 15640 C 1468.97 0.922385 -3.3659 0
M  V30 15641 C 1470.32 1.28505 -4.04687 0
M  V30 15642 O 1471.34 1.01334 -3.41482 0
M  V30 15643 O 1470.2 1.794 -5.16215 0
M  V30 15644 H 1467.29 0.304808 -0.768779 0
M  V30 15645 H 1469.84 -0.129742 -1.69203 0
M  V30 15646 H 1468.61 0.0331488 -3.91286 0
M  V30 15647 H 1468.23 1.71678 -3.58626 0
M  V30 15648 N 1469.23 1.56605 0.176793 0
M  V30 15649 C 1470.48 1.81952 0.895627 0
M  V30 15650 C 1470.81 0.673893 1.82133 0
M  V30 15651 O 1470.09 -0.324494 1.91774 0
M  V30 15652 C 1470.37 3.17658 1.69604 0
M  V30 15653 C 1470.22 4.4274 0.793834 0
M  V30 15654 C 1471.54 3.50246 2.66488 0
M  V30 15655 H 1468.66 0.661884 0.324159 0
M  V30 15656 H 1471.3 1.89307 0.162092 0
M  V30 15657 H 1469.45 3.11518 2.3214 0
M  V30 15658 H 1471.12 4.60942 0.181775 0
M  V30 15659 H 1469.37 4.33681 0.101566 0
M  V30 15660 H 1470.04 5.34231 1.38927 0
M  V30 15661 H 1472.51 3.56804 2.1408 0
M  V30 15662 H 1471.39 4.46286 3.19562 0
M  V30 15663 H 1471.65 2.7467 3.46423 0
M  V30 15664 N 1470.71 -0.445159 1.51182 0
M  V30 15665 C 1471.64 -1.55788 1.68115 0
M  V30 15666 C 1472.65 -1.52793 0.561964 0
M  V30 15667 O 1473.84 -1.57711 0.836029 0
M  V30 15668 C 1470.94 -2.94702 1.67344 0
M  V30 15669 C 1470.12 -3.22286 2.9572 0
M  V30 15670 C 1469.18 -4.40884 2.87241 0
M  V30 15671 O 1468.2 -4.3992 3.61191 0
M  V30 15672 N 1469.4 -5.44013 2.02558 0
M  V30 15673 H 1472.17 -1.4167 2.64102 0
M  V30 15674 H 1469.73 -0.633984 1.48971 0
M  V30 15675 H 1471.72 -3.7205 1.5925 0
M  V30 15676 H 1470.29 -3.02457 0.789842 0
M  V30 15677 H 1469.51 -2.33309 3.17743 0
M  V30 15678 H 1470.8 -3.3754 3.80715 0
M  V30 15679 H 1470.2 -5.47629 1.4184 0
M  V30 15680 H 1468.75 -6.20245 2.0035 0
M  V30 15681 N 1472.19 -1.41197 -0.700089 0
M  V30 15682 C 1473.46 -1.30803 -1.4543 0
M  V30 15683 C 1473.84 0.0664987 -2.10995 0
M  V30 15684 O 1473.19 1.08043 -2.01343 0
M  V30 15685 C 1473.4 -2.45815 -2.47742 0
M  V30 15686 C 1474.75 -2.86771 -3.13126 0
M  V30 15687 O 1475.77 -2.45521 -2.58065 0
M  V30 15688 O 1474.63 -3.58086 -4.1284 0
M  V30 15689 H 1471.73 -0.514523 -0.647453 0
M  V30 15690 H 1474.27 -1.53151 -0.73095 0
M  V30 15691 H 1473.05 -3.37557 -1.97917 0
M  V30 15692 H 1472.67 -2.25319 -3.27593 0
M  V30 15693 N 1473.67 0.933891 -1.2695 0
M  V30 15694 C 1474.6 2.03768 -1.04934 0
M  V30 15695 C 1475.61 1.62798 -0.00740752 0
M  V30 15696 O 1476.8 1.76765 -0.248289 0
M  V30 15697 C 1473.9 3.34097 -0.568515 0
M  V30 15698 C 1473.07 4.03794 -1.68133 0
M  V30 15699 C 1472.13 5.12397 -1.19731 0
M  V30 15700 O 1471.16 5.36701 -1.89579 0
M  V30 15701 N 1472.36 5.80479 -0.0496327 0
M  V30 15702 H 1475.12 2.23219 -1.99984 0
M  V30 15703 H 1472.69 1.10386 -1.18433 0
M  V30 15704 H 1474.68 4.04053 -0.228736 0
M  V30 15705 H 1473.25 3.11265 0.288587 0
M  V30 15706 H 1472.47 3.27655 -2.1917 0
M  V30 15707 H 1473.76 4.4711 -2.42837 0
M  V30 15708 H 1473.15 5.63179 0.533509 0
M  V30 15709 H 1471.71 6.5139 0.231014 0
M  V30 15710 N 1475.14 1.08871 1.13951 0
M  V30 15711 C 1476.07 0.744715 2.21306 0
M  V30 15712 C 1477.05 -0.275019 1.67862 0
M  V30 15713 O 1478.24 -0.144339 1.93663 0
M  V30 15714 C 1475.37 0.158336 3.46939 0
M  V30 15715 C 1474.32 1.10695 4.13438 0
M  V30 15716 C 1473.65 0.382552 5.3333 0
M  V30 15717 C 1474.95 2.44704 4.61429 0
M  V30 15718 H 1476.64 1.6423 2.50337 0
M  V30 15719 H 1474.19 0.791088 1.20324 0
M  V30 15720 H 1476.14 -0.0943587 4.21294 0
M  V30 15721 H 1474.87 -0.774413 3.17286 0
M  V30 15722 H 1473.53 1.34482 3.41043 0
M  V30 15723 H 1473.17 -0.554153 4.99938 0
M  V30 15724 H 1472.87 1.01499 5.78767 0
M  V30 15725 H 1474.4 0.138023 6.10444 0
M  V30 15726 H 1475.81 2.25156 5.27236 0
M  V30 15727 H 1474.21 3.03684 5.17586 0
M  V30 15728 H 1475.28 3.05883 3.76249 0
M  V30 15729 N 1476.62 -1.31073 0.875073 0
M  V30 15730 C 1477.57 -2.30335 0.3238 0
M  V30 15731 C 1478.56 -1.5974 -0.563869 0
M  V30 15732 O 1479.77 -1.743 -0.449402 0
M  V30 15733 H 1476.14 -0.747062 0.0860376 0
M  V30 15734 H 1478.12 -2.743 1.17483 0
M  V30 15735 C 1476.86 -3.44705 -0.455348 0
M  V30 15736 H 1476.19 -3.99203 0.218433 0
M  V30 15737 H 1477.63 -4.16262 -0.806329 0
M  V30 15738 C 1476.09 -2.93807 -1.6486 0
M  V30 15739 O 1476.62 -2.93004 -2.74794 0
M  V30 15740 N 1474.82 -2.49944 -1.48244 0
M  V30 15741 H 1474.37 -2.50797 -0.588116 0
M  V30 15742 H 1474.33 -2.16245 -2.28222 0
M  V30 15743 N 1478.1 -0.635022 -1.4424 0
M  V30 15744 C 1479.51 -0.222982 -1.85364 0
M  V30 15745 C 1479.86 1.22648 -1.5314 0
M  V30 15746 O 1478.99 1.93373 -0.971384 0
M  V30 15747 C 1479.58 -0.397912 -3.36455 0
M  V30 15748 C 1478.14 -0.0403458 -3.76378 0
M  V30 15749 C 1477.29 -0.709451 -2.68071 0
M  V30 15750 H 1480.24 -0.839923 -1.34651 0
M  V30 15751 H 1480.26 0.361996 -3.78774 0
M  V30 15752 H 1479.77 -1.45294 -3.59877 0
M  V30 15753 H 1477.87 1.01279 -3.58571 0
M  V30 15754 H 1477.99 -0.453121 -4.76952 0
M  V30 15755 H 1476.35 -0.144386 -2.5429 0
M  V30 15756 H 1477.13 -1.76715 -2.94324 0
M  V30 15757 N 1479.58 1.53054 -0.375806 0
M  V30 15758 C 1480.51 2.28973 0.45754 0
M  V30 15759 C 1481.49 1.31812 1.07516 0
M  V30 15760 O 1482.67 1.60693 1.09048 0
M  V30 15761 C 1479.8 3.08657 1.59212 0
M  V30 15762 C 1478.76 4.1359 1.10123 0
M  V30 15763 C 1478.08 4.81417 2.32684 0
M  V30 15764 C 1479.38 5.21994 0.17872 0
M  V30 15765 H 1481.08 2.98883 -0.175872 0
M  V30 15766 H 1478.62 1.43743 -0.0860253 0
M  V30 15767 H 1480.58 3.6052 2.18182 0
M  V30 15768 H 1479.3 2.36456 2.25291 0
M  V30 15769 H 1477.96 3.62688 0.534151 0
M  V30 15770 H 1477.61 4.05778 2.97243 0
M  V30 15771 H 1477.31 5.52332 2.00506 0
M  V30 15772 H 1478.83 5.36079 2.92322 0
M  V30 15773 H 1480.25 5.69298 0.676204 0
M  V30 15774 H 1478.64 6.00077 -0.0526605 0
M  V30 15775 H 1479.71 4.78646 -0.776246 0
M  V30 15776 N 1481.06 0.105248 1.57248 0
M  V30 15777 C 1482.02 -0.835589 2.13426 0
M  V30 15778 C 1483.02 -1.20398 1.06587 0
M  V30 15779 O 1484.21 -1.13175 1.32428 0
M  V30 15780 C 1481.34 -2.12806 2.6632 0
M  V30 15781 H 1482.53 -0.347606 2.97879 0
M  V30 15782 H 1480.09 -0.143855 1.55637 0
M  V30 15783 H 1480.82 -2.66066 1.85416 0
M  V30 15784 H 1480.61 -1.87352 3.44444 0
M  V30 15785 H 1482.1 -2.80089 3.09741 0
M  V30 15786 N 1482.53 -1.56697 -0.168486 0
M  V30 15787 C 1483.76 -1.86652 -0.904195 0
M  V30 15788 C 1484.18 -0.691906 -1.74912 0
M  V30 15789 O 1483.54 0.358971 -1.77711 0
M  V30 15790 C 1483.59 -3.15043 -1.75442 0
M  V30 15791 O 1482.69 -2.97466 -2.85636 0
M  V30 15792 H 1482.04 -0.613859 -0.253128 0
M  V30 15793 H 1484.57 -2.03927 -0.165773 0
M  V30 15794 H 1484.58 -3.4652 -2.15378 0
M  V30 15795 H 1483.25 -4.00147 -1.13381 0
M  V30 15796 H 1481.83 -2.7735 -2.49262 0
M  V30 15797 N 1484.01 0.437135 -1.51416 0
M  V30 15798 C 1484.92 1.55581 -1.75589 0
M  V30 15799 C 1485.94 1.61797 -0.640132 0
M  V30 15800 O 1487.11 1.79035 -0.922406 0
M  V30 15801 C 1484.18 2.91561 -1.87598 0
M  V30 15802 C 1483.24 2.9546 -3.11451 0
M  V30 15803 C 1482.47 4.24954 -3.22878 0
M  V30 15804 O 1482.7 5.17341 -2.40238 0
M  V30 15805 O 1481.63 4.35141 -4.15856 0
M  V30 15806 H 1485.46 1.38098 -2.70486 0
M  V30 15807 H 1483.04 0.620163 -1.3592 0
M  V30 15808 H 1484.92 3.72262 -1.97481 0
M  V30 15809 H 1483.6 3.09171 -0.958889 0
M  V30 15810 H 1482.51 2.13713 -3.07046 0
M  V30 15811 H 1483.84 2.82794 -4.0285 0
M  V30 15812 N 1485.49 1.41566 0.692592 0
M  V30 15813 C 1486.4 1.46014 1.83622 0
M  V30 15814 C 1487.42 0.350453 1.70434 0
M  V30 15815 O 1488.59 0.598634 1.92298 0
M  V30 15816 C 1485.66 1.34308 3.19628 0
M  V30 15817 C 1484.72 2.55617 3.44904 0
M  V30 15818 C 1483.95 2.4446 4.74421 0
M  V30 15819 O 1484.17 1.47078 5.51112 0
M  V30 15820 O 1483.11 3.34272 5.00546 0
M  V30 15821 H 1486.93 2.42504 1.82826 0
M  V30 15822 H 1484.52 1.23136 0.846039 0
M  V30 15823 H 1486.4 1.30075 4.00822 0
M  V30 15824 H 1485.08 0.409343 3.21101 0
M  V30 15825 H 1483.98 2.65426 2.63628 0
M  V30 15826 H 1485.32 3.47829 3.48247 0
M  V30 15827 N 1486.97 -0.927146 1.27443 0
M  V30 15828 C 1488.25 -1.65322 1.04538 0
M  V30 15829 C 1488.63 -2.06886 -0.419694 0
M  V30 15830 O 1487.97 -1.80352 -1.40304 0
M  V30 15831 C 1488.18 -2.85486 2.00746 0
M  V30 15832 C 1489.53 -3.56816 2.30147 0
M  V30 15833 O 1490.56 -2.95613 1.98724 0
M  V30 15834 O 1489.41 -4.67085 2.83714 0
M  V30 15835 H 1486.51 -0.724627 0.398554 0
M  V30 15836 H 1489.05 -0.977633 1.3871 0
M  V30 15837 H 1487.83 -2.51766 2.99549 0
M  V30 15838 H 1487.45 -3.60763 1.67139 0
M  V30 15839 N 1488.45 -1.09474 -1.13372 0
M  V30 15840 C 1489.38 -0.756441 -2.20908 0
M  V30 15841 C 1490.36 0.266113 -1.68006 0
M  V30 15842 O 1491.54 0.134067 -1.93737 0
M  V30 15843 C 1488.67 -0.176733 -3.4685 0
M  V30 15844 C 1487.63 -1.12886 -4.12845 0
M  V30 15845 C 1486.95 -0.410831 -5.33119 0
M  V30 15846 C 1488.25 -2.47148 -4.60125 0
M  V30 15847 H 1489.95 -1.65555 -2.49463 0
M  V30 15848 H 1487.49 -0.797458 -1.19902 0
M  V30 15849 H 1489.45 0.0720151 -4.21338 0
M  V30 15850 H 1488.17 0.757576 -3.17692 0
M  V30 15851 H 1486.83 -1.36289 -3.40325 0
M  V30 15852 H 1486.48 0.527632 -5.00225 0
M  V30 15853 H 1486.18 -1.04567 -5.78221 0
M  V30 15854 H 1487.7 -0.170394 -6.10362 0
M  V30 15855 H 1489.11 -2.27949 -5.26034 0
M  V30 15856 H 1487.51 -3.06425 -5.15969 0
M  V30 15857 H 1488.58 -3.07874 -3.74622 0
M  V30 15858 N 1489.92 1.30607 -0.882012 0
M  V30 15859 C 1491.34 1.48859 -0.575599 0
M  V30 15860 C 1491.54 1.80908 0.887388 0
M  V30 15861 O 1490.6 1.89492 1.6688 0
M  V30 15862 C 1491.91 2.61405 -1.48619 0
M  V30 15863 C 1493.46 2.75286 -1.48951 0
M  V30 15864 C 1493.93 3.90942 -2.38596 0
M  V30 15865 N 1495.42 3.98248 -2.36543 0
M  V30 15866 C 1496.16 4.87041 -3.0262 0
M  V30 15867 N 1495.65 5.80651 -3.77911 0
M  V30 15868 N 1497.45 4.80385 -2.91867 0
M  V30 15869 H 1489.6 1.08076 -1.82848 0
M  V30 15870 H 1491.86 0.535148 -0.782509 0
M  V30 15871 H 1491.57 2.44535 -2.52775 0
M  V30 15872 H 1491.44 3.57818 -1.19358 0
M  V30 15873 H 1493.83 2.91564 -0.455477 0
M  V30 15874 H 1493.91 1.79504 -1.82242 0
M  V30 15875 H 1493.55 3.75422 -3.42083 0
M  V30 15876 H 1493.48 4.86057 -2.02623 0
M  V30 15877 H 1495.97 3.31282 -1.81827 0
M  V30 15878 H 1496.29 6.45159 -4.25428 0
M  V30 15879 H 1494.63 5.80592 -3.82019 0
M  V30 15880 H 1497.82 4.06234 -2.32576 0
M  V30 15881 H 1498 5.49377 -3.43641 0
M  V30 15882 N 1491.4 0.642663 1.43901 0
M  V30 15883 C 1492.82 0.309286 1.56575 0
M  V30 15884 C 1493.02 -1.18709 1.6282 0
M  V30 15885 O 1492.07 -1.97157 1.57751 0
M  V30 15886 C 1493.39 1.01136 2.83182 0
M  V30 15887 C 1494.94 0.9906 2.96911 0
M  V30 15888 C 1495.41 1.67336 4.26336 0
M  V30 15889 N 1496.9 1.6405 4.33177 0
M  V30 15890 C 1497.64 2.13762 5.32065 0
M  V30 15891 N 1497.13 2.71716 6.37293 0
M  V30 15892 N 1498.93 2.04323 5.23649 0
M  V30 15893 H 1491.08 1.61384 1.38091 0
M  V30 15894 H 1493.34 0.678084 0.6625 0
M  V30 15895 H 1493.05 2.0664 2.84592 0
M  V30 15896 H 1492.92 0.556304 3.73075 0
M  V30 15897 H 1495.31 -0.0559997 2.95047 0
M  V30 15898 H 1495.39 1.48425 2.08335 0
M  V30 15899 H 1495.03 2.71947 4.2896 0
M  V30 15900 H 1494.96 1.15445 5.1379 0
M  V30 15901 H 1497.45 1.21749 3.57751 0
M  V30 15902 H 1497.77 3.07352 7.09052 0
M  V30 15903 H 1496.11 2.75772 6.37946 0
M  V30 15904 H 1499.3 1.5876 4.40355 0
M  V30 15905 H 1499.47 2.43376 6.0056 0
M  V30 15906 N 1492.88 -1.52852 0.383918 0
M  V30 15907 C 1494.13 -2.00694 -0.201206 0
M  V30 15908 C 1494.44 -1.2748 -1.48352 0
M  V30 15909 O 1495.65 -1.66005 -2.14836 0
M  V30 15910 C 1494.11 -3.57567 -0.409117 0
M  V30 15911 C 1493.71 -4.39675 0.859628 0
M  V30 15912 C 1495.46 -4.13713 -0.950899 0
M  V30 15913 C 1493.36 -5.88138 0.620292 0
M  V30 15914 H 1492.29 -0.749854 -0.0789656 0
M  V30 15915 H 1494.95 -1.764 0.505488 0
M  V30 15916 H 1493.33 -3.78088 -1.17753 0
M  V30 15917 H 1494.5 -4.30923 1.63224 0
M  V30 15918 H 1492.82 -3.94724 1.32597 0
M  V30 15919 H 1495.41 -5.22284 -1.14558 0
M  V30 15920 H 1495.76 -3.69463 -1.9184 0
M  V30 15921 H 1496.29 -3.97062 -0.242195 0
M  V30 15922 H 1493.03 -6.367 1.55864 0
M  V30 15923 H 1492.55 -5.99693 -0.113483 0
M  V30 15924 H 1494.23 -6.46506 0.252775 0
M  V30 15925 N 1494.36 -0.113586 -1.5719 0
M  V30 15926 C 1495.32 0.824258 -2.13866 0
M  V30 15927 C 1496.32 1.19831 -1.07224 0
M  V30 15928 O 1497.51 1.12471 -1.33026 0
M  V30 15929 C 1494.64 2.11391 -2.67445 0
M  V30 15930 H 1495.84 0.331803 -2.98059 0
M  V30 15931 H 1493.39 0.135599 -1.55711 0
M  V30 15932 H 1494.13 2.65079 -1.86824 0
M  V30 15933 H 1493.91 1.85523 -3.45433 0
M  V30 15934 H 1495.4 2.78443 -3.11222 0
M  V30 15935 N 1495.84 1.56784 0.160173 0
M  V30 15936 C 1496.77 1.93848 1.22293 0
M  V30 15937 C 1497.78 0.832803 1.39886 0
M  V30 15938 O 1498.97 1.11124 1.39692 0
M  V30 15939 C 1496.07 2.18581 2.58989 0
M  V30 15940 C 1495.24 3.49839 2.62548 0
M  V30 15941 C 1494.3 3.63268 3.80687 0
M  V30 15942 O 1493.33 4.35785 3.6617 0
M  V30 15943 N 1494.53 2.98948 4.97605 0
M  V30 15944 H 1497.3 2.85614 0.908004 0
M  V30 15945 H 1494.86 1.58075 0.349851 0
M  V30 15946 H 1496.85 2.24819 3.36509 0
M  V30 15947 H 1495.42 1.33145 2.82827 0
M  V30 15948 H 1494.64 3.5516 1.7104 0
M  V30 15949 H 1495.93 4.3619 2.61945 0
M  V30 15950 H 1495.33 2.39924 5.12302 0
M  V30 15951 H 1493.88 3.10765 5.72947 0
M  V30 15952 N 1497.32 -0.429099 1.51646 0
M  V30 15953 C 1498.25 -1.53996 1.69758 0
M  V30 15954 C 1499.26 -1.52189 0.578138 0
M  V30 15955 O 1500.45 -1.56816 0.852709 0
M  V30 15956 C 1497.55 -2.9291 1.7046 0
M  V30 15957 C 1496.72 -3.19132 2.99122 0
M  V30 15958 C 1495.78 -4.37813 2.91901 0
M  V30 15959 O 1494.81 -4.36065 3.65836 0
M  V30 15960 N 1496.01 -5.41834 2.08317 0
M  V30 15961 H 1498.77 -1.38861 2.65589 0
M  V30 15962 H 1496.34 -0.618148 1.49635 0
M  V30 15963 H 1498.33 -3.7034 1.63187 0
M  V30 15964 H 1496.9 -3.01602 0.821877 0
M  V30 15965 H 1496.12 -2.29926 3.20199 0
M  V30 15966 H 1497.41 -3.33483 3.84274 0
M  V30 15967 H 1496.8 -5.46094 1.4764 0
M  V30 15968 H 1495.36 -6.18085 2.06917 0
M  V30 15969 N 1498.79 -1.41931 -0.685074 0
M  V30 15970 C 1499.72 -1.47385 -1.81107 0
M  V30 15971 C 1500.7 -0.331433 -1.6684 0
M  V30 15972 O 1501.89 -0.544331 -1.86415 0
M  V30 15973 C 1499.02 -1.36555 -3.19327 0
M  V30 15974 C 1497.97 -2.48718 -3.48315 0
M  V30 15975 C 1497.3 -2.2295 -4.86002 0
M  V30 15976 C 1498.6 -3.91047 -3.46237 0
M  V30 15977 H 1500.29 -2.41624 -1.768 0
M  V30 15978 H 1497.84 -1.16297 -0.849178 0
M  V30 15979 H 1499.79 -1.38981 -3.97822 0
M  V30 15980 H 1498.52 -0.388063 -3.24286 0
M  V30 15981 H 1497.18 -2.45592 -2.72176 0
M  V30 15982 H 1496.82 -1.23518 -4.87598 0
M  V30 15983 H 1496.52 -2.98116 -5.0636 0
M  V30 15984 H 1498.05 -2.27108 -5.66793 0
M  V30 15985 H 1499.46 -3.95831 -4.14718 0
M  V30 15986 H 1497.86 -4.65981 -3.7813 0
M  V30 15987 H 1498.93 -4.1845 -2.45006 0
M  V30 15988 N 1500.27 0.920374 -1.27933 0
M  V30 15989 C 1501.22 2.00832 -1.07937 0
M  V30 15990 C 1502.21 1.60899 -0.005079 0
M  V30 15991 O 1503.4 1.75571 -0.224461 0
M  V30 15992 C 1500.53 3.35311 -0.736301 0
M  V30 15993 C 1499.61 3.81666 -1.8491 0
M  V30 15994 N 1500 4.00458 -3.08977 0
M  V30 15995 C 1498.3 4.10766 -1.73745 0
M  V30 15996 C 1499 4.39178 -3.81441 0
M  V30 15997 N 1497.98 4.47064 -3.09249 0
M  V30 15998 H 1501.78 2.13402 -2.02081 0
M  V30 15999 H 1499.29 1.10774 -1.18755 0
M  V30 16000 H 1501.29 4.12928 -0.574144 0
M  V30 16001 H 1499.95 3.24099 0.197437 0
M  V30 16002 H 1500.96 3.86562 -3.4466 0
M  V30 16003 H 1497.64 4.08227 -0.875042 0
M  V30 16004 H 1499.03 4.61736 -4.88109 0
M  V30 16005 N 1501.75 1.10074 1.1279 0
M  V30 16006 C 1502.97 0.863106 1.88587 0
M  V30 16007 C 1503.4 -0.580595 1.78915 0
M  V30 16008 O 1502.76 -1.40859 1.14142 0
M  V30 16009 C 1502.81 1.31142 3.35908 0
M  V30 16010 O 1501.91 0.474088 4.09666 0
M  V30 16011 H 1501.25 0.312034 0.586115 0
M  V30 16012 H 1503.78 1.46659 1.42662 0
M  V30 16013 H 1503.79 1.29974 3.86744 0
M  V30 16014 H 1502.47 2.36279 3.42265 0
M  V30 16015 H 1501.04 0.550665 3.68812 0
M  V30 16016 N 1503.23 -1.30138 0.888926 0
M  V30 16017 C 1504.46 -2.00143 0.524437 0
M  V30 16018 C 1504.87 -1.66608 -0.888093 0
M  V30 16019 O 1504.23 -0.905326 -1.58462 0
M  V30 16020 C 1504.28 -3.54769 0.694327 0
M  V30 16021 O 1504 -3.87112 2.05125 0
M  V30 16022 C 1505.5 -4.42045 0.333354 0
M  V30 16023 H 1502.72 -0.639775 0.202309 0
M  V30 16024 H 1505.26 -1.65929 1.19531 0
M  V30 16025 H 1503.42 -3.87335 0.0707712 0
M  V30 16026 H 1503.83 -4.81807 2.07275 0
M  V30 16027 H 1505.31 -5.49702 0.503107 0
M  V30 16028 H 1505.78 -4.33109 -0.728893 0
M  V30 16029 H 1506.39 -4.14931 0.933398 0
M  V30 16030 N 1504.71 -0.650285 -1.43559 0
M  V30 16031 C 1505.95 -0.162164 -2.01448 0
M  V30 16032 C 1506.27 1.22717 -1.51544 0
M  V30 16033 O 1505.54 1.81917 -0.726855 0
M  V30 16034 H 1504.12 -0.0569599 -0.744825 0
M  V30 16035 H 1506.79 -0.841294 -1.75807 0
M  V30 16036 H 1505.88 -0.144531 -3.11765 0
M  V30 16037 N 1506.18 1.52647 -0.392018 0
M  V30 16038 C 1507.09 2.30261 0.449093 0
M  V30 16039 C 1508.11 1.37286 1.06905 0
M  V30 16040 O 1509.29 1.70357 1.07427 0
M  V30 16041 C 1506.35 3.09636 1.55969 0
M  V30 16042 C 1505.41 4.18324 0.964566 0
M  V30 16043 C 1504.64 4.93904 2.02224 0
M  V30 16044 O 1504.87 4.69603 3.23773 0
M  V30 16045 O 1503.8 5.79183 1.63802 0
M  V30 16046 H 1507.63 3.03147 -0.183269 0
M  V30 16047 H 1505.21 1.48587 -0.155664 0
M  V30 16048 H 1507.09 3.59118 2.20482 0
M  V30 16049 H 1505.77 2.39561 2.17697 0
M  V30 16050 H 1504.68 3.73031 0.282618 0
M  V30 16051 H 1506.01 4.90641 0.391466 0
M  V30 16052 N 1507.66 0.121921 1.57128 0
M  V30 16053 C 1508.91 -0.535201 1.9447 0
M  V30 16054 C 1509.22 -1.67644 1.00772 0
M  V30 16055 O 1510.43 -2.39651 1.27592 0
M  V30 16056 C 1508.89 -1.00346 3.45628 0
M  V30 16057 C 1508.49 0.109473 4.47866 0
M  V30 16058 C 1510.24 -1.63179 3.91884 0
M  V30 16059 C 1508.15 -0.375651 5.90206 0
M  V30 16060 H 1507.08 -0.203702 0.725962 0
M  V30 16061 H 1509.73 0.202243 1.82382 0
M  V30 16062 H 1508.11 -1.79541 3.5296 0
M  V30 16063 H 1509.28 0.885815 4.52206 0
M  V30 16064 H 1507.6 0.644642 4.1138 0
M  V30 16065 H 1510.19 -2.00594 4.95647 0
M  V30 16066 H 1510.54 -2.5113 3.32023 0
M  V30 16067 H 1511.07 -0.905197 3.87364 0
M  V30 16068 H 1507.81 0.46788 6.53828 0
M  V30 16069 H 1507.33 -1.11841 5.89281 0
M  V30 16070 H 1509.01 -0.835921 6.41577 0
M  V30 16071 N 1509.14 -1.56867 -0.151857 0
M  V30 16072 C 1510.09 -1.98842 -1.20685 0
M  V30 16073 C 1511.08 -0.88007 -1.44745 0
M  V30 16074 O 1512.29 -1.06524 -1.45095 0
M  V30 16075 H 1508.66 -0.632904 -0.406123 0
M  V30 16076 H 1510.63 -2.86737 -0.826095 0
M  V30 16077 C 1509.38 -2.38095 -2.53389 0
M  V30 16078 H 1508.71 -3.2293 -2.35703 0
M  V30 16079 H 1510.15 -2.71292 -3.25847 0
M  V30 16080 C 1508.61 -1.23175 -3.13575 0
M  V30 16081 O 1509.14 -0.529864 -3.9819 0
M  V30 16082 N 1507.34 -0.997255 -2.72953 0
M  V30 16083 H 1506.89 -1.56979 -2.04243 0
M  V30 16084 H 1506.85 -0.23022 -3.13556 0
M  V30 16085 N 1510.62 0.421051 -1.51871 0
M  V30 16086 C 1511.87 1.16611 -1.64574 0
M  V30 16087 C 1512.18 1.91955 -0.375835 0
M  V30 16088 O 1513.39 2.68792 -0.382481 0
M  V30 16089 C 1511.84 2.12164 -2.90714 0
M  V30 16090 C 1511.45 1.42392 -4.24769 0
M  V30 16091 C 1513.19 2.87002 -3.12778 0
M  V30 16092 C 1511.1 2.36523 -5.42043 0
M  V30 16093 H 1510.03 0.438989 -0.613029 0
M  V30 16094 H 1512.68 0.431636 -1.78351 0
M  V30 16095 H 1511.06 2.89114 -2.70608 0
M  V30 16096 H 1512.24 0.708875 -4.55315 0
M  V30 16097 H 1510.55 0.796421 -4.08713 0
M  V30 16098 H 1513.15 3.5755 -3.9757 0
M  V30 16099 H 1513.49 3.49277 -2.2652 0
M  V30 16100 H 1514.03 2.17154 -3.333 0
M  V30 16101 H 1510.77 1.78913 -6.30611 0
M  V30 16102 H 1510.29 3.06034 -5.15852 0
M  V30 16103 H 1511.96 2.97306 -5.74646 0
M  V30 16104 N 1512.1 1.42293 0.677538 0
M  V30 16105 C 1513.03 1.39986 1.8022 0
M  V30 16106 C 1514.01 0.264513 1.60434 0
M  V30 16107 O 1515.19 0.454299 1.82944 0
M  V30 16108 C 1512.32 1.18809 3.17178 0
M  V30 16109 C 1511.36 2.35301 3.55719 0
M  V30 16110 S 1512.2 3.97827 3.5846 0
M  V30 16111 C 1513.35 3.78987 4.98116 0
M  V30 16112 H 1513.59 2.35157 1.81902 0
M  V30 16113 H 1511.12 1.29032 0.847947 0
M  V30 16114 H 1513.08 1.07277 3.96235 0
M  V30 16115 H 1511.74 0.252276 3.13085 0
M  V30 16116 H 1510.93 2.16224 4.55262 0
M  V30 16117 H 1510.53 2.43333 2.84016 0
M  V30 16118 H 1512.83 3.39808 5.8612 0
M  V30 16119 H 1513.77 4.78197 5.22239 0
M  V30 16120 H 1514.18 3.11906 4.70505 0
M  V30 16121 N 1513.57 -0.913576 1.28419 0
M  V30 16122 C 1514.51 -2.02073 1.08163 0
M  V30 16123 C 1515.52 -1.62766 0.0333064 0
M  V30 16124 O 1516.71 -1.76347 0.27638 0
M  V30 16125 C 1513.81 -3.33151 0.621596 0
M  V30 16126 C 1512.98 -4.01068 1.74536 0
M  V30 16127 C 1512.04 -5.10428 1.27868 0
M  V30 16128 O 1511.07 -5.33617 1.98094 0
M  V30 16129 N 1512.27 -5.80326 0.141976 0
M  V30 16130 H 1515.03 -2.20009 2.0351 0
M  V30 16131 H 1512.59 -1.08488 1.20174 0
M  V30 16132 H 1514.59 -4.03638 0.292989 0
M  V30 16133 H 1513.16 -3.11685 -0.239031 0
M  V30 16134 H 1512.38 -3.24127 2.24355 0
M  V30 16135 H 1513.66 -4.4319 2.49919 0
M  V30 16136 H 1513.06 -5.63956 -0.443845 0
M  V30 16137 H 1511.62 -6.51676 -0.127354 0
M  V30 16138 N 1515.05 -1.1067 -1.12204 0
M  V30 16139 C 1516.28 -0.873095 -1.88127 0
M  V30 16140 C 1516.7 0.571099 -1.79221 0
M  V30 16141 O 1516.06 1.40251 -1.14888 0
M  V30 16142 C 1516.11 -1.32922 -3.35208 0
M  V30 16143 O 1515.21 -0.495807 -4.09409 0
M  V30 16144 H 1514.55 -0.315138 -0.584452 0
M  V30 16145 H 1517.08 -1.47413 -1.41882 0
M  V30 16146 H 1517.09 -1.32023 -3.86049 0
M  V30 16147 H 1515.77 -2.38091 -3.41007 0
M  V30 16148 H 1514.35 -0.570216 -3.68515 0
M  V30 16149 N 1516.53 1.29665 -0.895815 0
M  V30 16150 C 1517.44 2.31582 -0.375086 0
M  V30 16151 C 1518.46 1.65789 0.528196 0
M  V30 16152 O 1519.63 1.96999 0.41871 0
M  V30 16153 C 1516.7 3.44472 0.39241 0
M  V30 16154 C 1515.76 4.25866 -0.541926 0
M  V30 16155 C 1514.99 5.33365 0.189037 0
M  V30 16156 O 1515.21 5.52607 1.41355 0
M  V30 16157 O 1514.15 6.0009 -0.466441 0
M  V30 16158 H 1517.97 2.78095 -1.22052 0
M  V30 16159 H 1515.56 1.34031 -0.660007 0
M  V30 16160 H 1517.44 4.13214 0.826565 0
M  V30 16161 H 1516.12 3.00074 1.21397 0
M  V30 16162 H 1515.02 3.59781 -1.02512 0
M  V30 16163 H 1516.36 4.73896 -1.32979 0
M  V30 16164 N 1518.01 0.657889 1.43212 0
M  V30 16165 C 1519.24 0.181072 2.06106 0
M  V30 16166 C 1519.65 -1.15513 1.49339 0
M  V30 16167 O 1519.01 -1.71409 0.626517 0
M  V30 16168 C 1519.06 0.0890244 3.6139 0
M  V30 16169 O 1518.78 1.37241 4.16049 0
M  V30 16170 C 1520.28 -0.413313 4.41369 0
M  V30 16171 H 1517.5 0.0920577 0.664655 0
M  V30 16172 H 1520.05 0.899855 1.83638 0
M  V30 16173 H 1518.2 -0.580345 3.83028 0
M  V30 16174 H 1518.61 1.23467 5.09761 0
M  V30 16175 H 1520.09 -0.426663 5.50349 0
M  V30 16176 H 1520.57 -1.44549 4.14731 0
M  V30 16177 H 1521.17 0.223727 4.24711 0
M  V30 16178 N 1519.49 -1.52437 0.400108 0
M  V30 16179 C 1520.73 -2.0201 -0.17887 0
M  V30 16180 C 1521.07 -1.2856 -1.45554 0
M  V30 16181 O 1520.34 -0.389236 -1.90565 0
M  V30 16182 C 1520.62 -3.57453 -0.435784 0
M  V30 16183 C 1520.48 -4.41562 0.85693 0
M  V30 16184 C 1521.8 -4.228 -1.2218 0
M  V30 16185 H 1518.91 -0.734256 -0.063535 0
M  V30 16186 H 1521.56 -1.82406 0.531801 0
M  V30 16187 H 1519.71 -3.74288 -1.04117 0
M  V30 16188 H 1521.38 -4.36456 1.49344 0
M  V30 16189 H 1519.62 -4.08138 1.46989 0
M  V30 16190 H 1520.29 -5.48374 0.631675 0
M  V30 16191 H 1522.77 -4.10009 -0.709359 0
M  V30 16192 H 1521.64 -5.3152 -1.37031 0
M  V30 16193 H 1521.91 -3.81153 -2.23998 0
M  V30 16194 N 1520.96 -0.130252 -1.57061 0
M  V30 16195 C 1521.9 0.846442 -2.12998 0
M  V30 16196 C 1522.91 1.22229 -1.07536 0
M  V30 16197 O 1524.1 1.16928 -1.34871 0
M  V30 16198 C 1521.2 2.14481 -2.62395 0
M  V30 16199 C 1520.37 1.93892 -3.92077 0
M  V30 16200 C 1519.43 3.07562 -4.26957 0
M  V30 16201 O 1518.46 2.79983 -4.95578 0
M  V30 16202 N 1519.66 4.34297 -3.85184 0
M  V30 16203 H 1522.42 0.368471 -2.97426 0
M  V30 16204 H 1519.98 0.0538355 -1.6181 0
M  V30 16205 H 1521.98 2.8954 -2.82752 0
M  V30 16206 H 1520.55 2.53592 -1.82784 0
M  V30 16207 H 1519.77 1.02962 -3.80516 0
M  V30 16208 H 1521.05 1.77454 -4.76852 0
M  V30 16209 H 1520.45 4.59575 -3.29859 0
M  V30 16210 H 1519.01 5.06191 -4.10626 0
M  V30 16211 N 1522.44 1.56945 0.143535 0
M  V30 16212 C 1523.72 1.74461 0.884454 0
M  V30 16213 C 1524.1 0.699201 1.99184 0
M  V30 16214 O 1523.45 -0.281267 2.26762 0
M  V30 16215 C 1523.66 3.18639 1.42373 0
M  V30 16216 C 1525.01 3.80426 1.88577 0
M  V30 16217 O 1526.03 3.2209 1.52107 0
M  V30 16218 O 1524.89 4.82913 2.55847 0
M  V30 16219 H 1521.98 0.713457 0.41822 0
M  V30 16220 H 1524.53 1.69208 0.12919 0
M  V30 16221 H 1523.3 3.86227 0.628056 0
M  V30 16222 H 1522.92 3.28332 2.2424 0
M  V30 16223 N 1523.92 -0.412991 1.52093 0
M  V30 16224 C 1525.17 -1.16202 1.66208 0
M  V30 16225 C 1525.5 -1.90265 0.388957 0
M  V30 16226 O 1524.78 -1.84605 -0.612477 0
M  V30 16227 C 1525.06 -2.15958 2.88157 0
M  V30 16228 C 1524.91 -1.45817 4.25509 0
M  V30 16229 C 1526.23 -3.16671 3.05626 0
M  V30 16230 H 1523.35 -0.421083 0.604862 0
M  V30 16231 H 1525.99 -0.448212 1.84638 0
M  V30 16232 H 1524.14 -2.76831 2.72574 0
M  V30 16233 H 1525.81 -0.880925 4.52811 0
M  V30 16234 H 1524.06 -0.760175 4.27088 0
M  V30 16235 H 1524.73 -2.18587 5.06877 0
M  V30 16236 H 1527.2 -2.65871 3.20081 0
M  V30 16237 H 1526.08 -3.83739 3.92474 0
M  V30 16238 H 1526.34 -3.84178 2.18769 0
M  V30 16239 N 1525.4 -1.4265 -0.669982 0
M  V30 16240 C 1526.33 -1.49298 -1.79534 0
M  V30 16241 C 1527.31 -0.34911 -1.66479 0
M  V30 16242 O 1528.5 -0.564072 -1.85828 0
M  V30 16243 C 1525.63 -1.39935 -3.17861 0
M  V30 16244 C 1524.58 -2.52398 -3.45657 0
M  V30 16245 C 1523.91 -2.28092 -4.8361 0
M  V30 16246 C 1525.21 -3.94697 -3.4207 0
M  V30 16247 H 1526.9 -2.43486 -1.74227 0
M  V30 16248 H 1524.45 -1.17191 -0.836796 0
M  V30 16249 H 1526.4 -1.43193 -3.96325 0
M  V30 16250 H 1525.12 -0.422436 -3.23857 0
M  V30 16251 H 1523.78 -2.48465 -2.69556 0
M  V30 16252 H 1523.43 -1.28683 -4.86261 0
M  V30 16253 H 1523.13 -3.03469 -5.0317 0
M  V30 16254 H 1524.65 -2.33107 -5.64352 0
M  V30 16255 H 1526.07 -4.00207 -4.10496 0
M  V30 16256 H 1524.46 -4.69965 -3.73166 0
M  V30 16257 H 1525.53 -4.21025 -2.40554 0
M  V30 16258 N 1526.88 0.906753 -1.28902 0
M  V30 16259 C 1527.81 2.02663 -1.15974 0
M  V30 16260 C 1528.79 1.70009 -0.0557202 0
M  V30 16261 O 1529.97 1.92786 -0.233952 0
M  V30 16262 C 1527.1 3.37283 -0.828115 0
M  V30 16263 C 1526.06 3.84123 -1.88767 0
M  V30 16264 C 1525.38 5.15787 -1.40953 0
M  V30 16265 C 1526.68 4.05217 -3.2954 0
M  V30 16266 H 1528.38 2.13738 -2.09658 0
M  V30 16267 H 1525.92 1.02699 -1.0094 0
M  V30 16268 H 1527.88 4.15127 -0.724408 0
M  V30 16269 H 1526.6 3.2628 0.14443 0
M  V30 16270 H 1525.26 3.0849 -1.98065 0
M  V30 16271 H 1524.91 5.01194 -0.425848 0
M  V30 16272 H 1524.61 5.48098 -2.11807 0
M  V30 16273 H 1526.13 5.9618 -1.31918 0
M  V30 16274 H 1527.55 4.73565 -3.23124 0
M  V30 16275 H 1525.94 4.48871 -3.9829 0
M  V30 16276 H 1527.01 3.0979 -3.73039 0
M  V30 16277 N 1528.36 1.11264 1.11616 0
M  V30 16278 C 1529.29 0.79149 2.19676 0
M  V30 16279 C 1530.27 -0.239351 1.68408 0
M  V30 16280 O 1531.45 -0.103228 1.93925 0
M  V30 16281 C 1528.58 0.231891 3.46525 0
M  V30 16282 C 1527.54 1.19439 4.10997 0
M  V30 16283 C 1526.86 0.495593 5.32398 0
M  V30 16284 C 1528.16 2.54437 4.56135 0
M  V30 16285 H 1529.86 1.69503 2.46797 0
M  V30 16286 H 1527.4 0.816433 1.18619 0
M  V30 16287 H 1529.35 -0.00497468 4.214 0
M  V30 16288 H 1528.08 -0.706938 3.18857 0
M  V30 16289 H 1526.74 1.41686 3.38113 0
M  V30 16290 H 1526.39 -0.447984 5.01001 0
M  V30 16291 H 1526.09 1.13753 5.76484 0
M  V30 16292 H 1527.61 0.267476 6.10014 0
M  V30 16293 H 1529.02 2.36289 5.22341 0
M  V30 16294 H 1527.42 3.14595 5.11028 0
M  V30 16295 H 1528.49 3.13795 3.69676 0
M  V30 16296 N 1529.83 -1.29188 0.902679 0
M  V30 16297 C 1531.11 -1.90365 0.449496 0
M  V30 16298 C 1531.49 -1.81911 -1.07105 0
M  V30 16299 O 1530.84 -1.24778 -1.91423 0
M  V30 16300 C 1531.05 -3.35324 0.967418 0
M  V30 16301 C 1532.4 -4.12342 1.0129 0
M  V30 16302 O 1533.42 -3.44239 0.915293 0
M  V30 16303 O 1532.28 -5.34048 1.15994 0
M  V30 16304 H 1529.37 -0.814956 0.140628 0
M  V30 16305 H 1531.92 -1.37633 0.992739 0
M  V30 16306 H 1530.69 -3.35646 2.0114 0
M  V30 16307 H 1530.31 -3.95539 0.404358 0
M  V30 16308 N 1531.31 -0.665475 -1.42861 0
M  V30 16309 C 1532.72 -0.26225 -1.84849 0
M  V30 16310 C 1533.07 1.19372 -1.55707 0
M  V30 16311 O 1532.2 1.91269 -1.01218 0
M  V30 16312 C 1532.79 -0.469189 -3.35535 0
M  V30 16313 C 1531.35 -0.120172 -3.76208 0
M  V30 16314 C 1530.5 -0.766153 -2.66506 0
M  V30 16315 H 1533.45 -0.868296 -1.32839 0
M  V30 16316 H 1533.47 0.281571 -3.79457 0
M  V30 16317 H 1532.98 -1.52894 -3.56714 0
M  V30 16318 H 1531.08 0.936505 -3.60639 0
M  V30 16319 H 1531.2 -0.554188 -4.75884 0
M  V30 16320 H 1529.56 -0.198292 -2.53927 0
M  V30 16321 H 1530.34 -1.82918 -2.9051 0
M  V30 16322 N 1532.79 1.52222 -0.408187 0
M  V30 16323 C 1534.21 1.59491 -0.0590201 0
M  V30 16324 C 1534.41 1.42109 1.42854 0
M  V30 16325 O 1533.46 1.24757 2.19527 0
M  V30 16326 C 1534.77 2.9557 -0.553093 0
M  V30 16327 C 1536.32 3.08801 -0.510986 0
M  V30 16328 C 1536.8 4.47358 -0.981554 0
M  V30 16329 N 1538.29 4.53596 -0.938335 0
M  V30 16330 C 1539.02 5.59076 -1.27364 0
M  V30 16331 N 1538.52 6.72113 -1.68035 0
M  V30 16332 N 1540.31 5.49279 -1.19367 0
M  V30 16333 H 1532.46 1.61768 -1.37641 0
M  V30 16334 H 1534.73 0.760959 -0.565372 0
M  V30 16335 H 1534.43 3.13566 -1.59276 0
M  V30 16336 H 1534.31 3.77181 0.0377629 0
M  V30 16337 H 1536.69 2.90489 0.519637 0
M  V30 16338 H 1536.77 2.29098 -1.13788 0
M  V30 16339 H 1536.42 4.66413 -2.0105 0
M  V30 16340 H 1536.35 5.25556 -0.331478 0
M  V30 16341 H 1538.84 3.72453 -0.639297 0
M  V30 16342 H 1539.15 7.48586 -1.91934 0
M  V30 16343 H 1537.5 6.73396 -1.71938 0
M  V30 16344 H 1540.69 4.59853 -0.8748 0
M  V30 16345 H 1540.86 6.31378 -1.45829 0
M  V30 16346 N 1534.27 0.138579 1.5699 0
M  V30 16347 C 1535.51 -0.509041 1.96927 0
M  V30 16348 C 1535.87 -1.63028 1.02174 0
M  V30 16349 O 1535.16 -1.9152 0.0552519 0
M  V30 16350 C 1535.36 -1.06969 3.41017 0
M  V30 16351 C 1535.18 -0.00429556 4.497 0
M  V30 16352 C 1533.95 0.434248 5.03431 0
M  V30 16353 C 1536.15 0.78404 5.08289 0
M  V30 16354 N 1534.13 1.48336 5.95709 0
M  V30 16355 C 1535.51 1.68386 5.96696 0
M  V30 16356 C 1537.56 0.832763 4.90886 0
M  V30 16357 C 1536.26 2.6282 6.69565 0
M  V30 16358 C 1538.29 1.7649 5.64451 0
M  V30 16359 C 1537.65 2.65226 6.5256 0
M  V30 16360 H 1533.75 -0.155325 0.766419 0
M  V30 16361 H 1536.33 0.231233 1.93322 0
M  V30 16362 H 1534.51 -1.7796 3.45231 0
M  V30 16363 H 1536.24 -1.68323 3.68035 0
M  V30 16364 H 1532.99 0.0380997 4.73585 0
M  V30 16365 H 1533.42 2.00743 6.46553 0
M  V30 16366 H 1538.06 0.160815 4.22494 0
M  V30 16367 H 1535.78 3.31019 7.37192 0
M  V30 16368 H 1539.36 1.80829 5.52985 0
M  V30 16369 H 1538.24 3.3618 7.08486 0
M  V30 16370 N 1535.75 -1.57019 -0.13521 0
M  V30 16371 C 1536.68 -2.02182 -1.16811 0
M  V30 16372 C 1537.66 -0.9034 -1.44127 0
M  V30 16373 O 1538.84 -1.17202 -1.54846 0
M  V30 16374 C 1535.97 -2.41243 -2.49838 0
M  V30 16375 C 1534.93 -3.56379 -2.37018 0
M  V30 16376 C 1534.25 -3.8129 -3.74863 0
M  V30 16377 C 1535.55 -4.88653 -1.84432 0
M  V30 16378 H 1537.25 -2.8872 -0.792529 0
M  V30 16379 H 1534.79 -1.38901 -0.379788 0
M  V30 16380 H 1536.74 -2.7144 -3.22332 0
M  V30 16381 H 1535.47 -1.51656 -2.89254 0
M  V30 16382 H 1534.13 -3.26366 -1.66975 0
M  V30 16383 H 1533.78 -2.88934 -4.11735 0
M  V30 16384 H 1533.48 -4.58781 -3.67143 0
M  V30 16385 H 1535 -4.13924 -4.48887 0
M  V30 16386 H 1536.41 -5.17492 -2.46729 0
M  V30 16387 H 1534.81 -5.70032 -1.87574 0
M  V30 16388 H 1535.88 -4.78242 -0.800759 0
M  V30 16389 N 1537.22 0.404919 -1.52309 0
M  V30 16390 C 1538.46 1.1606 -1.68254 0
M  V30 16391 C 1538.83 1.87663 -0.405788 0
M  V30 16392 O 1540.03 2.65151 -0.441388 0
M  V30 16393 C 1538.3 2.12531 -2.87342 0
M  V30 16394 S 1539.86 2.9615 -3.23791 0
M  V30 16395 H 1536.68 0.393113 -0.592438 0
M  V30 16396 H 1539.28 0.4473 -1.90314 0
M  V30 16397 H 1537.98 1.58623 -3.78506 0
M  V30 16398 H 1537.51 2.88395 -2.67567 0
M  V30 16399 H 1539.53 4.14521 -2.7274 0
M  V30 16400 N 1538.7 1.43003 0.662408 0
M  V30 16401 C 1539.93 1.47555 1.45035 0
M  V30 16402 C 1540.35 0.0906083 1.88582 0
M  V30 16403 O 1539.7 -0.897271 1.58919 0
M  V30 16404 C 1539.75 2.41345 2.69137 0
M  V30 16405 O 1539.47 3.74453 2.27413 0
M  V30 16406 C 1540.98 2.55045 3.62584 0
M  V30 16407 H 1538.2 0.501448 0.44586 0
M  V30 16408 H 1540.74 1.8765 0.812879 0
M  V30 16409 H 1538.89 2.0447 3.29045 0
M  V30 16410 H 1539.31 4.24801 3.07643 0
M  V30 16411 H 1540.78 3.24766 4.46353 0
M  V30 16412 H 1541.26 1.59235 4.09318 0
M  V30 16413 H 1541.87 2.92693 3.08563 0
M  V30 16414 N 1540.18 -0.899904 1.29381 0
M  V30 16415 C 1541.13 -2.02537 1.14375 0
M  V30 16416 C 1542.12 -1.69296 0.0593904 0
M  V30 16417 O 1543.33 -1.78661 0.219174 0
M  V30 16418 H 1539.7 -0.663844 0.353291 0
M  V30 16419 H 1541.67 -2.12332 2.0966 0
M  V30 16420 C 1540.42 -3.37479 0.836845 0
M  V30 16421 H 1539.75 -3.6356 1.66326 0
M  V30 16422 H 1541.19 -4.16915 0.771873 0
M  V30 16423 C 1539.65 -3.33746 -0.459889 0
M  V30 16424 O 1540.18 -3.73203 -1.48601 0
M  V30 16425 N 1538.38 -2.86845 -0.465657 0
M  V30 16426 H 1537.93 -2.54931 0.369833 0
M  V30 16427 H 1537.89 -2.8473 -1.33327 0
M  V30 16428 N 1541.66 -1.11854 -1.11024 0
M  V30 16429 C 1542.9 -0.871362 -1.83126 0
M  V30 16430 C 1543.24 0.601437 -1.84652 0
M  V30 16431 O 1542.51 1.44427 -1.30273 0
M  V30 16432 C 1542.8 -1.4391 -3.30094 0
M  V30 16433 C 1542.65 -2.97983 -3.36937 0
M  V30 16434 C 1543.97 -1.09361 -4.26296 0
M  V30 16435 H 1541.09 -0.317994 -0.664867 0
M  V30 16436 H 1543.73 -1.38414 -1.3016 0
M  V30 16437 H 1541.88 -1.00297 -3.7533 0
M  V30 16438 H 1543.55 -3.50231 -3.00227 0
M  V30 16439 H 1541.79 -3.33827 -2.77023 0
M  V30 16440 H 1542.46 -3.32797 -4.40398 0
M  V30 16441 H 1544.94 -1.47018 -3.89262 0
M  V30 16442 H 1543.82 -1.51756 -5.27505 0
M  V30 16443 H 1544.08 -0.0049637 -4.421 0
M  V30 16444 N 1543.14 1.28707 -0.909517 0
M  V30 16445 C 1544.07 2.29845 -0.411552 0
M  V30 16446 C 1545.05 1.62001 0.518615 0
M  V30 16447 O 1546.23 1.89442 0.427252 0
M  V30 16448 C 1543.36 3.45501 0.353013 0
M  V30 16449 C 1542.32 4.25213 -0.487625 0
M  V30 16450 C 1541.64 5.33164 0.405026 0
M  V30 16451 C 1542.94 4.9237 -1.74268 0
M  V30 16452 H 1544.64 2.71746 -1.25676 0
M  V30 16453 H 1542.18 1.30639 -0.605759 0
M  V30 16454 H 1544.14 4.15338 0.712191 0
M  V30 16455 H 1542.86 3.02469 1.23209 0
M  V30 16456 H 1541.52 3.57098 -0.829265 0
M  V30 16457 H 1541.17 4.86375 1.28252 0
M  V30 16458 H 1540.87 5.87399 -0.153811 0
M  V30 16459 H 1542.39 6.0585 0.760179 0
M  V30 16460 H 1543.8 5.5459 -1.45266 0
M  V30 16461 H 1542.2 5.56581 -2.2436 0
M  V30 16462 H 1543.27 4.171 -2.47297 0
M  V30 16463 N 1544.61 0.673042 1.42506 0
M  V30 16464 C 1545.86 0.194192 2.01165 0
M  V30 16465 C 1546.18 -1.2029 1.53477 0
M  V30 16466 O 1545.45 -1.80737 0.755704 0
M  V30 16467 H 1544.03 0.0688022 0.743825 0
M  V30 16468 H 1546.7 0.869157 1.74447 0
M  V30 16469 H 1545.79 0.194111 3.11496 0
M  V30 16470 N 1546.09 -1.52004 0.416254 0
M  V30 16471 C 1547.04 -2.27206 -0.405723 0
M  V30 16472 C 1548.01 -1.29913 -1.03498 0
M  V30 16473 O 1549.19 -1.58786 -1.0579 0
M  V30 16474 C 1546.33 -3.10186 -1.51258 0
M  V30 16475 C 1545.45 -4.22445 -0.903539 0
M  V30 16476 C 1544.58 -4.92771 -1.98368 0
M  V30 16477 C 1543.62 -5.96983 -1.35196 0
M  V30 16478 N 1542.76 -6.60798 -2.37255 0
M  V30 16479 H 1547.6 -2.97016 0.241983 0
M  V30 16480 H 1545.14 -1.46514 0.131174 0
M  V30 16481 H 1547.09 -3.56606 -2.16537 0
M  V30 16482 H 1545.72 -2.42532 -2.13021 0
M  V30 16483 H 1544.78 -3.80144 -0.139607 0
M  V30 16484 H 1546.09 -4.97176 -0.402136 0
M  V30 16485 H 1545.24 -5.42633 -2.71357 0
M  V30 16486 H 1543.98 -4.17624 -2.51876 0
M  V30 16487 H 1542.99 -5.46434 -0.607431 0
M  V30 16488 H 1544.21 -6.74076 -0.824482 0
M  V30 16489 H 1542.16 -5.88476 -2.89882 0
M  V30 16490 H 1542.07 -7.31227 -1.91947 0
M  V30 16491 H 1543.34 -7.15296 -3.09792 0
M  V30 16492 N 1547.57 -0.146903 -1.56914 0
M  V30 16493 C 1548.5 0.788924 -2.19769 0
M  V30 16494 C 1549.48 1.25712 -1.14589 0
M  V30 16495 O 1550.67 1.3147 -1.42931 0
M  V30 16496 C 1547.8 2.02824 -2.81921 0
M  V30 16497 C 1546.75 1.69683 -3.92927 0
M  V30 16498 C 1546.08 3.00877 -4.42015 0
M  V30 16499 C 1547.38 0.943559 -5.13706 0
M  V30 16500 H 1549.07 0.265076 -2.98224 0
M  V30 16501 H 1546.62 0.126057 -1.43447 0
M  V30 16502 H 1548.57 2.68773 -3.2456 0
M  V30 16503 H 1547.29 2.57581 -2.00797 0
M  V30 16504 H 1545.95 1.06112 -3.50907 0
M  V30 16505 H 1545.6 3.53625 -3.57713 0
M  V30 16506 H 1545.3 2.79466 -5.16888 0
M  V30 16507 H 1546.82 3.67897 -4.87323 0
M  V30 16508 H 1548.24 1.50513 -5.5319 0
M  V30 16509 H 1546.64 0.829387 -5.94341 0
M  V30 16510 H 1547.71 -0.0647228 -4.84857 0
M  V30 16511 N 1549.05 1.57088 0.126881 0
M  V30 16512 C 1549.98 2.02799 1.15737 0
M  V30 16513 C 1550.96 0.911031 1.43646 0
M  V30 16514 O 1552.14 1.18021 1.54223 0
M  V30 16515 C 1549.27 2.42565 2.48555 0
M  V30 16516 C 1548.23 3.57631 2.35125 0
M  V30 16517 C 1547.55 3.83272 3.72836 0
M  V30 16518 C 1548.85 4.89625 1.81838 0
M  V30 16519 H 1550.55 2.89136 0.777207 0
M  V30 16520 H 1548.09 1.39101 0.372416 0
M  V30 16521 H 1550.05 2.73146 3.20888 0
M  V30 16522 H 1548.77 1.53188 2.88446 0
M  V30 16523 H 1547.43 3.27247 1.65242 0
M  V30 16524 H 1547.08 2.91114 4.10197 0
M  V30 16525 H 1546.78 4.60721 3.64705 0
M  V30 16526 H 1548.3 4.16298 4.46686 0
M  V30 16527 H 1549.72 5.18793 2.43981 0
M  V30 16528 H 1548.11 5.71018 1.84548 0
M  V30 16529 H 1549.18 4.7866 0.775385 0
M  V30 16530 N 1550.53 -0.396836 1.52522 0
M  V30 16531 C 1551.75 -1.16857 1.71345 0
M  V30 16532 C 1552.18 -1.83178 0.427465 0
M  V30 16533 O 1551.53 -1.7051 -0.616123 0
M  V30 16534 C 1551.58 -2.19817 2.85855 0
M  V30 16535 O 1550.69 -3.26233 2.52281 0
M  V30 16536 H 1550.03 -0.340554 0.570017 0
M  V30 16537 H 1552.56 -0.463532 1.9928 0
M  V30 16538 H 1552.57 -2.63944 3.11123 0
M  V30 16539 H 1551.24 -1.70931 3.79151 0
M  V30 16540 H 1549.82 -2.87299 2.37726 0
M  V30 16541 N 1552.01 -1.43353 -0.654814 0
M  V30 16542 C 1553.25 -1.451 -1.41682 0
M  V30 16543 C 1553.58 -0.0743864 -1.94057 0
M  V30 16544 O 1552.86 0.904515 -1.72188 0
M  V30 16545 C 1553.14 -2.49204 -2.59941 0
M  V30 16546 C 1553 -3.96134 -2.13069 0
M  V30 16547 C 1554.31 -2.50064 -3.62155 0
M  V30 16548 H 1551.43 -0.528339 -0.513836 0
M  V30 16549 H 1554.08 -1.74892 -0.742489 0
M  V30 16550 H 1552.23 -2.2393 -3.1747 0
M  V30 16551 H 1553.9 -4.32459 -1.60552 0
M  V30 16552 H 1552.14 -4.09042 -1.44455 0
M  V30 16553 H 1552.81 -4.64585 -2.98101 0
M  V30 16554 H 1555.29 -2.72587 -3.14382 0
M  V30 16555 H 1554.16 -3.24849 -4.42452 0
M  V30 16556 H 1554.42 -1.53385 -4.14639 0
M  V30 16557 N 1553.48 0.89303 -1.29857 0
M  V30 16558 C 1554.39 2.03079 -1.17457 0
M  V30 16559 C 1555.41 1.73733 -0.0962941 0
M  V30 16560 O 1556.59 1.99005 -0.309667 0
M  V30 16561 C 1553.65 3.3589 -0.858991 0
M  V30 16562 C 1552.71 3.78711 -2.0218 0
M  V30 16563 C 1551.94 5.05184 -1.72118 0
M  V30 16564 O 1552.17 5.66738 -0.645276 0
M  V30 16565 O 1551.1 5.44218 -2.57119 0
M  V30 16566 H 1554.93 2.16465 -2.13017 0
M  V30 16567 H 1552.51 1.01774 -1.09373 0
M  V30 16568 H 1554.39 4.15582 -0.697852 0
M  V30 16569 H 1553.07 3.23631 0.0667756 0
M  V30 16570 H 1551.98 2.99758 -2.23822 0
M  V30 16571 H 1553.31 3.95563 -2.929 0
M  V30 16572 N 1554.96 1.12442 1.10429 0
M  V30 16573 C 1556.19 0.902599 1.86174 0
M  V30 16574 C 1556.6 -0.548147 1.80668 0
M  V30 16575 O 1555.96 -1.37898 1.19543 0
M  V30 16576 C 1556.01 1.36912 3.34571 0
M  V30 16577 O 1555.73 2.763 3.39985 0
M  V30 16578 C 1557.23 1.18424 4.27189 0
M  V30 16579 H 1554.45 0.322534 0.588399 0
M  V30 16580 H 1557 1.49439 1.396 0
M  V30 16581 H 1555.15 0.82055 3.7861 0
M  V30 16582 H 1555.57 2.96772 4.32466 0
M  V30 16583 H 1557.04 1.55954 5.29511 0
M  V30 16584 H 1557.52 0.12483 4.39023 0
M  V30 16585 H 1558.12 1.72032 3.88954 0
M  V30 16586 N 1556.44 -1.28223 0.91633 0
M  V30 16587 C 1557.85 -1.76898 0.597003 0
M  V30 16588 C 1558.2 -1.74969 -0.887719 0
M  V30 16589 O 1557.33 -1.34598 -1.69447 0
M  V30 16590 C 1557.92 -3.21228 1.07694 0
M  V30 16591 C 1556.48 -3.67614 0.80849 0
M  V30 16592 C 1555.63 -2.47921 1.24219 0
M  V30 16593 H 1558.58 -1.1465 1.09732 0
M  V30 16594 H 1558.6 -3.7818 0.419531 0
M  V30 16595 H 1558.11 -3.226 2.15757 0
M  V30 16596 H 1556.21 -3.717 -0.258814 0
M  V30 16597 H 1556.33 -4.57633 1.41804 0
M  V30 16598 H 1554.69 -2.45976 0.660892 0
M  V30 16599 H 1555.47 -2.5201 2.33122 0
M  V30 16600 N 1557.92 -0.68059 -1.42147 0
M  V30 16601 C 1559.33 -0.350691 -1.55699 0
M  V30 16602 C 1559.53 1.1435 -1.6591 0
M  V30 16603 O 1558.59 1.92905 -1.62923 0
M  V30 16604 C 1559.9 -1.08608 -2.80401 0
M  V30 16605 C 1561.45 -1.06897 -2.9418 0
M  V30 16606 C 1561.93 -1.78581 -4.2175 0
M  V30 16607 N 1563.42 -1.75477 -4.28675 0
M  V30 16608 C 1564.15 -2.27794 -5.26211 0
M  V30 16609 N 1563.65 -2.88518 -6.29865 0
M  V30 16610 N 1565.44 -2.18135 -5.18048 0
M  V30 16611 H 1557.59 -1.64988 -1.33763 0
M  V30 16612 H 1559.85 -0.695411 -0.644289 0
M  V30 16613 H 1559.56 -2.14113 -2.79014 0
M  V30 16614 H 1559.43 -0.655022 -3.71469 0
M  V30 16615 H 1561.82 -0.0222464 -2.95092 0
M  V30 16616 H 1561.9 -1.53897 -2.04327 0
M  V30 16617 H 1561.55 -2.83225 -4.21599 0
M  V30 16618 H 1561.48 -1.29027 -5.10548 0
M  V30 16619 H 1563.97 -1.31191 -3.54397 0
M  V30 16620 H 1564.28 -3.26043 -7.00654 0
M  V30 16621 H 1562.63 -2.92589 -6.3041 0
M  V30 16622 H 1565.82 -1.7038 -4.35991 0
M  V30 16623 H 1565.99 -2.59213 -5.93896 0
M  V30 16624 N 1559.4 1.51781 -0.424309 0
M  V30 16625 C 1560.36 2.25996 0.381903 0
M  V30 16626 C 1561.36 1.28938 0.960813 0
M  V30 16627 O 1562.55 1.52757 0.837306 0
M  V30 16628 C 1559.68 3.04181 1.53904 0
M  V30 16629 H 1560.87 2.98697 -0.268336 0
M  V30 16630 H 1558.43 1.55293 -0.177167 0
M  V30 16631 H 1559.16 2.35866 2.22571 0
M  V30 16632 H 1558.95 3.75457 1.13025 0
M  V30 16633 H 1560.44 3.60434 2.10896 0
M  V30 16634 N 1560.87 0.155222 1.56834 0
M  V30 16635 C 1561.8 -0.777258 2.20184 0
M  V30 16636 C 1562.78 -1.25102 1.15254 0
M  V30 16637 O 1563.97 -1.3071 1.43627 0
M  V30 16638 C 1561.1 -2.01326 2.82993 0
M  V30 16639 C 1560.05 -1.67596 3.93822 0
M  V30 16640 C 1559.38 -2.98529 4.43604 0
M  V30 16641 C 1560.68 -0.916302 5.142 0
M  V30 16642 H 1562.37 -0.249257 2.98361 0
M  V30 16643 H 1559.92 -0.118448 1.43512 0
M  V30 16644 H 1561.87 -2.67048 3.2598 0
M  V30 16645 H 1560.6 -2.56513 2.0216 0
M  V30 16646 H 1559.26 -1.0425 3.51465 0
M  V30 16647 H 1558.9 -3.51723 3.59583 0
M  V30 16648 H 1558.6 -2.76721 5.18362 0
M  V30 16649 H 1560.13 -3.65308 4.89267 0
M  V30 16650 H 1561.54 -1.47577 5.5398 0
M  V30 16651 H 1559.94 -0.797856 5.94772 0
M  V30 16652 H 1561.01 0.0904351 4.84816 0
M  V30 16653 N 1562.35 -1.57153 -0.118549 0
M  V30 16654 C 1563.3 -1.96802 -1.15122 0
M  V30 16655 C 1564.29 -0.843066 -1.37045 0
M  V30 16656 O 1565.48 -1.10676 -1.38129 0
M  V30 16657 C 1562.61 -2.37625 -2.47768 0
M  V30 16658 C 1561.69 -3.56754 -2.29319 0
M  V30 16659 N 1562.08 -4.72427 -1.80683 0
M  V30 16660 C 1560.38 -3.62395 -2.59973 0
M  V30 16661 C 1561.08 -5.54451 -1.75952 0
M  V30 16662 N 1560.06 -4.96954 -2.20314 0
M  V30 16663 H 1563.86 -2.83695 -0.767744 0
M  V30 16664 H 1561.37 -1.59088 -0.326287 0
M  V30 16665 H 1563.37 -2.64247 -3.22458 0
M  V30 16666 H 1562.03 -1.52097 -2.86874 0
M  V30 16667 H 1563.04 -4.95634 -1.50223 0
M  V30 16668 H 1559.72 -2.87475 -3.02762 0
M  V30 16669 H 1561.11 -6.57238 -1.39599 0
M  V30 16670 N 1563.83 0.388742 -1.5273 0
M  V30 16671 C 1564.78 1.47445 -1.73908 0
M  V30 16672 C 1565.76 1.49567 -0.593164 0
M  V30 16673 O 1566.96 1.552 -0.851006 0
M  V30 16674 C 1564.08 2.85155 -1.91159 0
M  V30 16675 C 1563.17 2.87601 -3.11683 0
M  V30 16676 N 1563.56 2.59718 -4.34028 0
M  V30 16677 C 1561.86 3.18769 -3.11933 0
M  V30 16678 C 1562.56 2.69254 -5.15633 0
M  V30 16679 N 1561.54 3.02996 -4.51325 0
M  V30 16680 H 1565.34 1.24714 -2.66127 0
M  V30 16681 H 1562.85 0.596694 -1.51041 0
M  V30 16682 H 1564.85 3.63325 -2.04452 0
M  V30 16683 H 1563.51 3.08868 -1.00153 0
M  V30 16684 H 1564.52 2.33735 -4.62156 0
M  V30 16685 H 1561.2 3.47946 -2.30738 0
M  V30 16686 H 1562.59 2.51239 -6.2316 0
M  V30 16687 N 1565.31 1.43698 0.647203 0
M  V30 16688 C 1566.54 1.48869 1.43254 0
M  V30 16689 C 1566.95 0.107061 1.88897 0
M  V30 16690 O 1566.29 -0.894189 1.60468 0
M  V30 16691 C 1566.35 2.37755 2.69653 0
M  V30 16692 C 1566.01 3.85197 2.45911 0
M  V30 16693 C 1567.01 4.7615 2.08752 0
M  V30 16694 C 1564.7 4.29744 2.60049 0
M  V30 16695 C 1566.69 6.09647 1.86037 0
M  V30 16696 C 1564.38 5.63293 2.36949 0
M  V30 16697 C 1565.38 6.53061 1.99999 0
M  V30 16698 O 1565.06 7.8414 1.77144 0
M  V30 16699 H 1564.8 0.507694 0.446343 0
M  V30 16700 H 1567.35 1.89172 0.800205 0
M  V30 16701 H 1565.58 1.9235 3.35467 0
M  V30 16702 H 1567.27 2.3406 3.31618 0
M  V30 16703 H 1568.03 4.4301 1.974 0
M  V30 16704 H 1563.91 3.60142 2.87782 0
M  V30 16705 H 1567.46 6.79676 1.57121 0
M  V30 16706 H 1563.35 5.95998 2.47905 0
M  V30 16707 H 1564.12 7.95778 1.91521 0
M  V30 16708 N 1566.79 -0.886131 1.30328 0
M  V30 16709 C 1568.2 -1.16922 1.08634 0
M  V30 16710 C 1568.4 -2.00913 -0.15365 0
M  V30 16711 O 1567.46 -2.37849 -0.847592 0
M  V30 16712 C 1568.77 -1.87701 2.34923 0
M  V30 16713 C 1570.32 -2.0047 2.40376 0
M  V30 16714 C 1570.79 -2.74662 3.66504 0
M  V30 16715 N 1572.29 -2.82208 3.67305 0
M  V30 16716 C 1573.02 -3.40185 4.61586 0
M  V30 16717 N 1572.52 -3.99221 5.66211 0
M  V30 16718 N 1574.31 -3.37989 4.49132 0
M  V30 16719 H 1566.46 -0.326064 2.09882 0
M  V30 16720 H 1568.72 -0.206996 0.925125 0
M  V30 16721 H 1568.43 -1.33427 3.25408 0
M  V30 16722 H 1568.3 -2.88092 2.43481 0
M  V30 16723 H 1570.69 -2.53914 1.50371 0
M  V30 16724 H 1570.77 -0.991709 2.35794 0
M  V30 16725 H 1570.42 -2.2189 4.56867 0
M  V30 16726 H 1570.35 -3.76335 3.68347 0
M  V30 16727 H 1572.84 -2.40292 2.91665 0
M  V30 16728 H 1573.15 -4.41522 6.34254 0
M  V30 16729 H 1571.49 -3.97643 5.70004 0
M  V30 16730 H 1574.69 -2.91096 3.6658 0
M  V30 16731 H 1574.86 -3.82877 5.2279 0
M  V30 16732 N 1568.26 -1.13026 -1.09832 0
M  V30 16733 C 1569.51 -0.887662 -1.81563 0
M  V30 16734 C 1569.83 0.587935 -1.85926 0
M  V30 16735 O 1569.1 1.42732 -1.3418 0
M  V30 16736 H 1567.68 -0.32541 -0.672397 0
M  V30 16737 H 1570.35 -1.42597 -1.32861 0
M  V30 16738 H 1569.44 -1.2747 -2.84882 0
M  V30 16739 N 1569.74 1.27735 -0.923117 0
M  V30 16740 C 1571.16 1.46952 -0.622666 0
M  V30 16741 C 1571.36 1.8364 0.829384 0
M  V30 16742 O 1570.41 1.94705 1.60767 0
M  V30 16743 C 1571.73 2.56545 -1.56861 0
M  V30 16744 C 1573.28 2.70408 -1.57634 0
M  V30 16745 C 1573.75 3.83154 -2.50913 0
M  V30 16746 N 1575.24 3.90521 -2.49093 0
M  V30 16747 C 1575.98 4.77167 -3.17962 0
M  V30 16748 N 1575.47 5.68334 -3.96193 0
M  V30 16749 N 1577.27 4.70857 -3.07002 0
M  V30 16750 H 1569.42 1.02205 -1.86193 0
M  V30 16751 H 1571.68 0.509982 -0.799138 0
M  V30 16752 H 1571.39 2.3637 -2.60427 0
M  V30 16753 H 1571.26 3.53839 -1.30681 0
M  V30 16754 H 1573.65 2.89967 -0.548005 0
M  V30 16755 H 1573.73 1.73615 -1.8786 0
M  V30 16756 H 1573.37 3.64349 -3.53853 0
M  V30 16757 H 1573.3 4.79365 -2.17984 0
M  V30 16758 H 1575.79 3.25329 -1.92274 0
M  V30 16759 H 1576.11 6.31298 -4.45738 0
M  V30 16760 H 1574.45 5.68144 -4.00297 0
M  V30 16761 H 1577.64 3.98629 -2.45382 0
M  V30 16762 H 1577.81 5.38166 -3.60945 0
M  V30 16763 N 1571.22 0.688118 1.41784 0
M  V30 16764 C 1572.45 0.224424 2.05377 0
M  V30 16765 C 1572.86 -1.12862 1.51852 0
M  V30 16766 O 1572.2 -1.71491 0.658526 0
M  V30 16767 C 1572.26 0.0964852 3.5937 0
M  V30 16768 C 1571.93 1.38037 4.35655 0
M  V30 16769 C 1572.92 2.31666 4.65432 0
M  V30 16770 C 1570.61 1.63167 4.7506 0
M  V30 16771 C 1572.6 3.48693 5.33565 0
M  V30 16772 C 1570.29 2.8048 5.42931 0
M  V30 16773 C 1571.29 3.73067 5.7211 0
M  V30 16774 O 1570.98 4.88326 6.38587 0
M  V30 16775 H 1570.71 0.103587 0.668016 0
M  V30 16776 H 1573.26 0.939084 1.82676 0
M  V30 16777 H 1571.49 -0.673878 3.80783 0
M  V30 16778 H 1573.18 -0.329059 4.04564 0
M  V30 16779 H 1573.95 2.13506 4.35477 0
M  V30 16780 H 1569.83 0.919669 4.51733 0
M  V30 16781 H 1573.37 4.20979 5.56258 0
M  V30 16782 H 1569.27 2.9856 5.72304 0
M  V30 16783 H 1570.04 4.88044 6.57081 0
M  V30 16784 N 1572.7 -1.51554 0.432352 0
M  V30 16785 C 1573.93 -2.06462 -0.1346 0
M  V30 16786 C 1574.34 -1.30027 -1.36889 0
M  V30 16787 O 1573.7 -0.358447 -1.78945 0
M  V30 16788 C 1573.75 -3.58538 -0.461822 0
M  V30 16789 O 1573.47 -4.32085 0.723471 0
M  V30 16790 C 1574.97 -4.29943 -1.07999 0
M  V30 16791 H 1572.19 -0.670923 -0.0101329 0
M  V30 16792 H 1574.74 -1.9519 0.609999 0
M  V30 16793 H 1572.89 -3.6974 -1.15632 0
M  V30 16794 H 1573.3 -5.22611 0.444757 0
M  V30 16795 H 1574.78 -5.37451 -1.25898 0
M  V30 16796 H 1575.26 -3.87912 -2.05963 0
M  V30 16797 H 1575.86 -4.23171 -0.425022 0
M  V30 16798 N 1574.18 -0.163538 -1.56749 0
M  V30 16799 C 1575.42 0.48412 -1.96937 0
M  V30 16800 C 1575.76 1.63418 -1.04919 0
M  V30 16801 O 1575.03 1.94269 -0.094783 0
M  V30 16802 C 1575.31 0.974532 -3.46663 0
M  V30 16803 C 1575.17 -0.175173 -4.49459 0
M  V30 16804 C 1576.49 1.85082 -3.9929 0
M  V30 16805 H 1573.6 0.174503 -0.716043 0
M  V30 16806 H 1576.25 -0.248103 -1.88373 0
M  V30 16807 H 1574.4 1.59849 -3.54091 0
M  V30 16808 H 1576.07 -0.812038 -4.54096 0
M  V30 16809 H 1574.31 -0.831853 -4.2575 0
M  V30 16810 H 1574.98 0.20996 -5.51601 0
M  V30 16811 H 1577.46 1.32488 -3.94444 0
M  V30 16812 H 1576.33 2.163 -5.04485 0
M  V30 16813 H 1576.6 2.79378 -3.42638 0
M  V30 16814 N 1575.65 1.57214 0.110213 0
M  V30 16815 C 1576.56 2.04287 1.15342 0
M  V30 16816 C 1577.58 0.964895 1.44796 0
M  V30 16817 O 1578.76 1.27702 1.55737 0
M  V30 16818 C 1575.82 2.44518 2.45788 0
M  V30 16819 C 1574.88 3.66439 2.23653 0
M  V30 16820 C 1574.12 4.04742 3.47879 0
M  V30 16821 O 1574.34 3.43291 4.5553 0
M  V30 16822 O 1573.27 4.97791 3.38361 0
M  V30 16823 H 1577.1 2.93415 0.783656 0
M  V30 16824 H 1574.68 1.45897 0.321644 0
M  V30 16825 H 1576.57 2.71089 3.22628 0
M  V30 16826 H 1575.24 1.58533 2.82221 0
M  V30 16827 H 1574.15 3.45006 1.44643 0
M  V30 16828 H 1575.48 4.53156 1.9212 0
M  V30 16829 N 1577.13 -0.380637 1.52934 0
M  V30 16830 C 1578.41 -1.13958 1.58975 0
M  V30 16831 C 1578.79 -2.07503 0.388028 0
M  V30 16832 O 1578.14 -2.19844 -0.622984 0
M  V30 16833 C 1578.35 -1.89192 2.9327 0
M  V30 16834 C 1579.7 -2.44259 3.47308 0
M  V30 16835 O 1580.72 -1.99338 2.95199 0
M  V30 16836 O 1579.58 -3.26338 4.38367 0
M  V30 16837 H 1576.67 -0.521896 0.641525 0
M  V30 16838 H 1579.22 -0.385114 1.65272 0
M  V30 16839 H 1577.99 -1.20834 3.72176 0
M  V30 16840 H 1577.61 -2.71581 2.90395 0
M  V30 16841 N 1578.61 -1.44039 -0.639573 0
M  V30 16842 C 1579.86 -1.4566 -1.39521 0
M  V30 16843 C 1580.17 -0.0897878 -1.95394 0
M  V30 16844 O 1581.38 0.0165074 -2.71495 0
M  V30 16845 C 1579.83 -2.56395 -2.52566 0
M  V30 16846 C 1579.44 -3.99245 -2.03243 0
M  V30 16847 C 1581.19 -2.67226 -3.29834 0
M  V30 16848 C 1579.09 -5.01419 -3.1358 0
M  V30 16849 H 1578.02 -0.541894 -0.524277 0
M  V30 16850 H 1580.67 -1.70076 -0.688941 0
M  V30 16851 H 1579.06 -2.25204 -3.25729 0
M  V30 16852 H 1580.23 -4.39963 -1.37002 0
M  V30 16853 H 1578.55 -3.9258 -1.38816 0
M  V30 16854 H 1581.14 -3.40736 -4.12072 0
M  V30 16855 H 1581.49 -1.72756 -3.78763 0
M  V30 16856 H 1582.02 -2.97786 -2.63758 0
M  V30 16857 H 1578.76 -5.97489 -2.69605 0
M  V30 16858 H 1578.28 -4.65301 -3.7849 0
M  V30 16859 H 1579.96 -5.2474 -3.78493 0
M  V30 16860 N 1580.09 0.879207 -1.30796 0
M  V30 16861 C 1581.02 1.99134 -1.13482 0
M  V30 16862 C 1582.03 1.6262 -0.0764492 0
M  V30 16863 O 1583.22 1.75553 -0.323038 0
M  V30 16864 C 1580.32 3.31386 -0.709706 0
M  V30 16865 C 1579.5 3.963 -1.85108 0
M  V30 16866 C 1578.55 5.06858 -1.41356 0
M  V30 16867 O 1577.58 5.28178 -2.12172 0
M  V30 16868 N 1578.78 5.79746 -0.295789 0
M  V30 16869 H 1581.55 2.14536 -2.09271 0
M  V30 16870 H 1579.11 1.05264 -1.23009 0
M  V30 16871 H 1581.1 4.02719 -0.399903 0
M  V30 16872 H 1579.67 3.12209 0.156309 0
M  V30 16873 H 1578.89 3.18065 -2.3287 0
M  V30 16874 H 1580.18 4.36408 -2.61582 0
M  V30 16875 H 1579.58 5.64935 0.294166 0
M  V30 16876 H 1578.13 6.51784 -0.0454707 0
M  V30 16877 N 1581.57 1.13606 1.09231 0
M  V30 16878 C 1582.98 0.87469 1.33497 0
M  V30 16879 C 1583.18 -0.488687 1.95484 0
M  V30 16880 O 1582.24 -1.23478 2.20249 0
M  V30 16881 C 1583.55 2.00086 2.24468 0
M  V30 16882 C 1585.1 2.03319 2.37972 0
M  V30 16883 C 1585.58 3.15205 3.3228 0
M  V30 16884 N 1587.07 3.14728 3.39854 0
M  V30 16885 C 1587.8 3.97941 4.12833 0
M  V30 16886 N 1587.3 4.91172 4.88591 0
M  V30 16887 N 1589.09 3.86032 4.08578 0
M  V30 16888 H 1581.24 2.01432 0.673709 0
M  V30 16889 H 1583.5 0.877259 0.359334 0
M  V30 16890 H 1583.21 2.98397 1.86151 0
M  V30 16891 H 1583.08 1.91673 3.24871 0
M  V30 16892 H 1585.47 1.0562 2.75551 0
M  V30 16893 H 1585.55 2.15804 1.3734 0
M  V30 16894 H 1585.2 4.13143 2.95423 0
M  V30 16895 H 1585.13 2.99957 4.3282 0
M  V30 16896 H 1587.62 2.47196 2.85837 0
M  V30 16897 H 1587.93 5.5115 5.41714 0
M  V30 16898 H 1586.28 4.95177 4.87673 0
M  V30 16899 H 1589.47 3.12522 3.48494 0
M  V30 16900 H 1589.64 4.51111 4.65191 0
M  V30 16901 N 1583.05 -1.27244 0.929878 0
M  V30 16902 C 1583.98 -2.29161 0.448066 0
M  V30 16903 C 1584.96 -1.62806 -0.492776 0
M  V30 16904 O 1586.14 -1.90098 -0.39706 0
M  V30 16905 C 1583.27 -3.46019 -0.298002 0
M  V30 16906 C 1582.23 -4.24384 0.555211 0
M  V30 16907 C 1581.55 -5.33741 -0.320153 0
M  V30 16908 C 1582.85 -4.89535 1.8208 0
M  V30 16909 H 1584.55 -2.69712 1.29983 0
M  V30 16910 H 1582.09 -1.29659 0.626466 0
M  V30 16911 H 1584.04 -4.16419 -0.646024 0
M  V30 16912 H 1582.77 -3.0439 -1.18381 0
M  V30 16913 H 1581.43 -3.55733 0.885971 0
M  V30 16914 H 1581.08 -4.88354 -1.20498 0
M  V30 16915 H 1580.78 -5.8708 0.247241 0
M  V30 16916 H 1582.3 -6.06982 -0.663697 0
M  V30 16917 H 1583.71 -5.52209 1.54071 0
M  V30 16918 H 1582.11 -5.52941 2.33186 0
M  V30 16919 H 1583.18 -4.13113 2.53901 0
M  V30 16920 N 1584.52 -0.695628 -1.41417 0
M  V30 16921 C 1585.77 -0.226954 -2.01526 0
M  V30 16922 C 1586.1 1.1704 -1.54968 0
M  V30 16923 O 1585.38 1.78999 -0.760895 0
M  V30 16924 C 1585.66 -0.284704 -3.58973 0
M  V30 16925 C 1585.51 -1.71901 -4.15656 0
M  V30 16926 C 1586.83 0.355454 -4.38662 0
M  V30 16927 H 1583.95 -0.0839425 -0.732204 0
M  V30 16928 H 1586.59 -0.884359 -1.68164 0
M  V30 16929 H 1584.74 0.275041 -3.87525 0
M  V30 16930 H 1586.42 -2.3326 -3.97979 0
M  V30 16931 H 1584.66 -2.25314 -3.70696 0
M  V30 16932 H 1585.33 -1.71095 -5.24815 0
M  V30 16933 H 1587.81 -0.121256 -4.15923 0
M  V30 16934 H 1586.68 0.284503 -5.48162 0
M  V30 16935 H 1586.94 1.43617 -4.18123 0
M  V30 16936 N 1586 1.51322 -0.440383 0
M  V30 16937 C 1587.41 1.86687 0.0220272 0
M  V30 16938 C 1587.76 1.35734 1.41671 0
M  V30 16939 O 1586.89 0.709408 2.04442 0
M  V30 16940 C 1587.48 3.38768 0.0467477 0
M  V30 16941 C 1586.04 3.73657 0.45358 0
M  V30 16942 C 1585.19 2.7506 -0.351779 0
M  V30 16943 H 1588.14 1.44503 -0.65609 0
M  V30 16944 H 1588.16 3.70756 0.855589 0
M  V30 16945 H 1587.67 3.75823 -0.968451 0
M  V30 16946 H 1585.77 3.42193 1.47427 0
M  V30 16947 H 1585.89 4.78776 0.176262 0
M  V30 16948 H 1584.25 2.53988 0.190334 0
M  V30 16949 H 1585.03 3.14957 -1.36591 0
M  V30 16950 N 1587.48 0.171848 1.5666 0
M  V30 16951 C 1588.76 -0.519355 1.88579 0
M  V30 16952 C 1589.14 -1.81273 1.08182 0
M  V30 16953 O 1588.48 -2.27822 0.175895 0
M  V30 16954 C 1588.69 -0.760743 3.40608 0
M  V30 16955 C 1590.04 -1.09051 4.10357 0
M  V30 16956 O 1591.07 -0.849264 3.45928 0
M  V30 16957 O 1589.93 -1.54566 5.24187 0
M  V30 16958 H 1587.02 -0.267782 0.782446 0
M  V30 16959 H 1589.57 0.210323 1.68392 0
M  V30 16960 H 1588.34 0.153577 3.90999 0
M  V30 16961 H 1587.96 -1.54372 3.66408 0
M  V30 16962 N 1588.96 -1.5727 -0.101874 0
M  V30 16963 C 1590.18 -1.90319 -0.824215 0
M  V30 16964 C 1590.61 -0.765469 -1.7182 0
M  V30 16965 O 1589.97 0.283275 -1.79073 0
M  V30 16966 C 1590.01 -3.22201 -1.61922 0
M  V30 16967 O 1589.12 -3.09313 -2.72762 0
M  V30 16968 H 1588.46 -0.624042 -0.226864 0
M  V30 16969 H 1590.99 -2.04447 -0.0791314 0
M  V30 16970 H 1591 -3.55343 -2.00487 0
M  V30 16971 H 1589.67 -4.04596 -0.963078 0
M  V30 16972 H 1588.25 -2.87672 -2.37274 0
M  V30 16973 N 1590.44 0.372521 -1.53134 0
M  V30 16974 C 1591.71 1.13113 -1.59577 0
M  V30 16975 C 1592.09 2.07294 -0.399027 0
M  V30 16976 O 1591.44 2.20171 0.611316 0
M  V30 16977 C 1591.65 1.87635 -2.94269 0
M  V30 16978 C 1593 2.42414 -3.48598 0
M  V30 16979 O 1594.02 1.9777 -2.96252 0
M  V30 16980 O 1592.88 3.24008 -4.40092 0
M  V30 16981 H 1589.98 0.518486 -0.644284 0
M  V30 16982 H 1592.52 0.376344 -1.65474 0
M  V30 16983 H 1591.29 1.18859 -3.72811 0
M  V30 16984 H 1590.92 2.70037 -2.91831 0
M  V30 16985 N 1591.91 1.44376 0.631925 0
M  V30 16986 C 1593.16 1.47335 1.39356 0
M  V30 16987 C 1593.49 0.10525 1.93915 0
M  V30 16988 O 1592.77 -0.877006 1.73605 0
M  V30 16989 C 1593.05 2.53308 2.55943 0
M  V30 16990 C 1592.9 3.99473 2.06739 0
M  V30 16991 C 1594.22 2.55794 3.58131 0
M  V30 16992 H 1591.34 0.536447 0.505365 0
M  V30 16993 H 1593.98 1.76051 0.714572 0
M  V30 16994 H 1592.13 2.28953 3.13868 0
M  V30 16995 H 1593.81 4.34958 1.53652 0
M  V30 16996 H 1592.05 4.11288 1.37929 0
M  V30 16997 H 1592.72 4.69269 2.90672 0
M  V30 16998 H 1595.2 2.77554 3.10005 0
M  V30 16999 H 1594.07 3.31847 4.37228 0
M  V30 17000 H 1594.33 1.59962 4.12146 0
M  V30 17001 N 1593.39 -0.872258 1.31261 0
M  V30 17002 C 1594.3 -2.01185 1.20673 0
M  V30 17003 C 1595.32 -1.73558 0.123921 0
M  V30 17004 O 1596.49 -1.98487 0.341288 0
M  V30 17005 C 1593.56 -3.34481 0.91232 0
M  V30 17006 C 1592.62 -3.75446 2.08179 0
M  V30 17007 C 1591.85 -5.02382 1.80134 0
M  V30 17008 O 1592.08 -5.6564 0.735358 0
M  V30 17009 O 1591.01 -5.40059 2.65744 0
M  V30 17010 H 1594.84 -2.13049 2.16434 0
M  V30 17011 H 1592.42 -1.00021 1.10978 0
M  V30 17012 H 1594.3 -4.14419 0.763879 0
M  V30 17013 H 1592.98 -3.23696 -0.0152802 0
M  V30 17014 H 1591.88 -2.96159 2.28562 0
M  V30 17015 H 1593.22 -3.90853 2.99156 0
M  V30 17016 N 1594.87 -1.14184 -1.08627 0
M  V30 17017 C 1595.78 -0.84033 -2.19033 0
M  V30 17018 C 1596.8 0.178322 -1.73084 0
M  V30 17019 O 1597.97 0.00737963 -2.01399 0
M  V30 17020 C 1595.04 -0.319674 -3.45223 0
M  V30 17021 C 1594.1 -1.4006 -4.0581 0
M  V30 17022 C 1593.33 -0.904693 -5.25976 0
M  V30 17023 O 1593.55 0.25468 -5.69831 0
M  V30 17024 O 1592.49 -1.68267 -5.77901 0
M  V30 17025 H 1596.31 -1.76296 -2.47292 0
M  V30 17026 H 1593.9 -0.919929 -1.17719 0
M  V30 17027 H 1595.78 -0.0351268 -4.21385 0
M  V30 17028 H 1594.46 0.575264 -3.18547 0
M  V30 17029 H 1593.36 -1.73858 -3.31247 0
M  V30 17030 H 1594.7 -2.26998 -4.3673 0
M  V30 17031 N 1596.35 1.26749 -0.936613 0
M  V30 17032 C 1597.28 2.2892 -0.460213 0
M  V30 17033 C 1598.26 1.63065 0.484135 0
M  V30 17034 O 1599.44 1.90305 0.386973 0
M  V30 17035 C 1596.57 3.46172 0.279648 0
M  V30 17036 C 1595.53 4.24083 -0.57771 0
M  V30 17037 C 1594.85 5.33903 0.291843 0
M  V30 17038 C 1596.15 4.88562 -1.84673 0
M  V30 17039 H 1597.85 2.69019 -1.31412 0
M  V30 17040 H 1595.39 1.29325 -0.633333 0
M  V30 17041 H 1597.35 4.16755 0.623931 0
M  V30 17042 H 1596.07 3.05014 1.16765 0
M  V30 17043 H 1594.73 3.55258 -0.904824 0
M  V30 17044 H 1594.38 4.88986 1.17906 0
M  V30 17045 H 1594.08 5.8694 -0.278372 0
M  V30 17046 H 1595.6 6.07326 0.631498 0
M  V30 17047 H 1597.02 5.51384 -1.56997 0
M  V30 17048 H 1595.41 5.51697 -2.36115 0
M  V30 17049 H 1596.48 4.11761 -2.56088 0
M  V30 17050 N 1597.83 0.703118 1.41046 0
M  V30 17051 C 1598.76 0.0570815 2.3343 0
M  V30 17052 C 1599.74 -0.759042 1.52225 0
M  V30 17053 O 1600.92 -0.710491 1.80736 0
M  V30 17054 C 1598.05 -0.874541 3.36109 0
M  V30 17055 C 1597.01 -0.16496 4.27682 0
M  V30 17056 C 1596.33 -1.21145 5.20795 0
M  V30 17057 C 1597.63 0.97332 5.13151 0
M  V30 17058 H 1599.33 0.828699 2.87703 0
M  V30 17059 H 1596.87 0.399956 1.38334 0
M  V30 17060 H 1598.83 -1.33579 3.99668 0
M  V30 17061 H 1597.55 -1.67791 2.80203 0
M  V30 17062 H 1596.21 0.276332 3.65557 0
M  V30 17063 H 1595.86 -2.00755 4.61201 0
M  V30 17064 H 1595.56 -0.741633 5.82901 0
M  V30 17065 H 1597.08 -1.67305 5.87232 0
M  V30 17066 H 1598.49 0.592013 5.70235 0
M  V30 17067 H 1596.89 1.37071 5.84236 0
M  V30 17068 H 1597.96 1.80961 4.49868 0
M  V30 17069 N 1599.3 -1.51086 0.448402 0
M  V30 17070 C 1600.24 -2.25799 -0.393401 0
M  V30 17071 C 1601.25 -1.30241 -0.976792 0
M  V30 17072 O 1602.44 -1.55916 -0.869051 0
M  V30 17073 C 1599.54 -3.00682 -1.56345 0
M  V30 17074 C 1598.71 -4.23421 -1.09695 0
M  V30 17075 C 1597.77 -4.8079 -2.1384 0
M  V30 17076 O 1596.8 -5.42329 -1.72823 0
M  V30 17077 N 1598 -4.65792 -3.46437 0
M  V30 17078 H 1600.76 -2.98681 0.246986 0
M  V30 17079 H 1598.32 -1.59497 0.277902 0
M  V30 17080 H 1600.32 -3.35945 -2.25662 0
M  V30 17081 H 1598.89 -2.30741 -2.10897 0
M  V30 17082 H 1598.11 -3.93526 -0.230457 0
M  V30 17083 H 1599.39 -5.03049 -0.762832 0
M  V30 17084 H 1598.79 -4.16799 -3.82486 0
M  V30 17085 H 1597.35 -5.05386 -4.11616 0
M  V30 17086 N 1600.78 -0.180154 -1.56567 0
M  V30 17087 C 1602.03 0.462656 -1.96322 0
M  V30 17088 C 1602.34 1.63788 -1.06925 0
M  V30 17089 O 1603.55 2.34751 -1.36398 0
M  V30 17090 C 1602.01 0.874492 -3.49114 0
M  V30 17091 C 1601.61 -0.27562 -4.47151 0
M  V30 17092 C 1603.36 1.48522 -3.9767 0
M  V30 17093 C 1601.27 0.156341 -5.91193 0
M  V30 17094 H 1600.2 0.176619 -0.733022 0
M  V30 17095 H 1602.85 -0.269793 -1.81506 0
M  V30 17096 H 1601.23 1.66318 -3.59381 0
M  V30 17097 H 1602.4 -1.05304 -4.48606 0
M  V30 17098 H 1600.72 -0.796878 -4.08704 0
M  V30 17099 H 1603.31 1.8206 -5.02751 0
M  V30 17100 H 1603.66 2.38634 -3.41115 0
M  V30 17101 H 1604.19 0.760806 -3.90457 0
M  V30 17102 H 1600.93 -0.710221 -6.51641 0
M  V30 17103 H 1600.45 0.898933 -5.93025 0
M  V30 17104 H 1602.13 0.597228 -6.44238 0
M  V30 17105 N 1602.26 1.57322 0.0935319 0
M  V30 17106 C 1603.19 2.05208 1.11409 0
M  V30 17107 C 1604.17 0.941295 1.41681 0
M  V30 17108 O 1605.36 1.21266 1.51684 0
M  V30 17109 C 1602.49 2.47782 2.43354 0
M  V30 17110 C 1601.44 3.62538 2.27486 0
M  V30 17111 C 1600.77 3.91095 3.64622 0
M  V30 17112 C 1602.07 4.93371 1.71412 0
M  V30 17113 H 1603.76 2.9072 0.715702 0
M  V30 17114 H 1601.31 1.3986 0.342827 0
M  V30 17115 H 1603.26 2.79891 3.15022 0
M  V30 17116 H 1601.98 1.59272 2.85132 0
M  V30 17117 H 1600.64 3.30679 1.58263 0
M  V30 17118 H 1600.29 2.99749 4.0393 0
M  V30 17119 H 1599.99 4.68353 3.5485 0
M  V30 17120 H 1601.51 4.25679 4.37755 0
M  V30 17121 H 1602.93 5.23851 2.32922 0
M  V30 17122 H 1601.33 5.74804 1.72395 0
M  V30 17123 H 1602.4 4.80197 0.67368 0
M  V30 17124 N 1603.74 -0.364395 1.53329 0
M  V30 17125 C 1605.02 -1.12265 1.60174 0
M  V30 17126 C 1605.4 -2.0708 0.410015 0
M  V30 17127 O 1604.74 -2.20492 -0.599631 0
M  V30 17128 C 1604.95 -1.86071 2.9526 0
M  V30 17129 C 1606.3 -2.40562 3.49879 0
M  V30 17130 O 1607.33 -1.96196 2.97297 0
M  V30 17131 O 1606.18 -3.2167 4.41804 0
M  V30 17132 H 1603.28 -0.515062 0.647024 0
M  V30 17133 H 1605.82 -0.367563 1.65672 0
M  V30 17134 H 1604.6 -1.1688 3.73436 0
M  V30 17135 H 1604.22 -2.68486 2.93259 0
M  V30 17136 N 1605.22 -1.44709 -0.62426 0
M  V30 17137 C 1606.18 -1.51738 -1.7178 0
M  V30 17138 C 1607.18 -0.398646 -1.5578 0
M  V30 17139 O 1608.37 -0.661525 -1.61151 0
M  V30 17140 C 1605.5 -1.39792 -3.1092 0
M  V30 17141 H 1606.69 -2.49154 -1.6692 0
M  V30 17142 H 1604.25 -1.31903 -0.838531 0
M  V30 17143 H 1604.98 -0.434955 -3.2137 0
M  V30 17144 H 1604.77 -2.20919 -3.2394 0
M  V30 17145 H 1606.26 -1.47706 -3.90606 0
M  V30 17146 N 1606.69 0.865285 -1.31722 0
M  V30 17147 C 1607.63 1.97629 -1.14097 0
M  V30 17148 C 1608.61 1.62543 -0.0432185 0
M  V30 17149 O 1609.79 1.8743 -0.200528 0
M  V30 17150 C 1606.92 3.30419 -0.744374 0
M  V30 17151 C 1605.96 3.84488 -1.84584 0
M  V30 17152 S 1606.8 4.09372 -3.45217 0
M  V30 17153 C 1607.95 5.45153 -3.07505 0
M  V30 17154 H 1608.18 2.12276 -2.08149 0
M  V30 17155 H 1605.72 1.01601 -1.1626 0
M  V30 17156 H 1607.68 4.07164 -0.522308 0
M  V30 17157 H 1606.34 3.136 0.177113 0
M  V30 17158 H 1605.53 4.80499 -1.52108 0
M  V30 17159 H 1605.13 3.14551 -2.02321 0
M  V30 17160 H 1607.42 6.2699 -2.56689 0
M  V30 17161 H 1608.37 5.82582 -4.02497 0
M  V30 17162 H 1608.77 5.0865 -2.44817 0
M  V30 17163 N 1608.17 1.14759 1.0802 0
M  V30 17164 C 1609.45 0.828957 1.77166 0
M  V30 17165 C 1609.83 -0.676783 1.99957 0
M  V30 17166 O 1609.18 -1.61891 1.61256 0
M  V30 17167 C 1609.39 1.63213 3.08484 0
M  V30 17168 C 1610.74 1.834 3.82948 0
M  V30 17169 O 1611.76 1.59932 3.18277 0
M  V30 17170 O 1610.62 2.22661 4.99083 0
M  V30 17171 H 1607.71 0.304168 0.769032 0
M  V30 17172 H 1610.26 1.253 1.14446 0
M  V30 17173 H 1609.03 2.65474 2.8747 0
M  V30 17174 H 1608.65 1.20397 3.78933 0
M  V30 17175 N 1609.65 -1.26251 0.943322 0
M  V30 17176 C 1610.9 -1.92946 0.587764 0
M  V30 17177 C 1611.21 -1.74805 -0.877647 0
M  V30 17178 O 1612.42 -2.35976 -1.34267 0
M  V30 17179 C 1610.87 -3.45715 1.00047 0
M  V30 17180 C 1610.48 -3.72586 2.48764 0
M  V30 17181 C 1612.23 -4.18403 0.716905 0
M  V30 17182 C 1610.13 -5.18805 2.83893 0
M  V30 17183 H 1609.06 -0.722366 0.21611 0
M  V30 17184 H 1611.71 -1.43295 1.14625 0
M  V30 17185 H 1610.1 -3.94263 0.370491 0
M  V30 17186 H 1611.27 -3.34735 3.16684 0
M  V30 17187 H 1609.59 -3.13136 2.74472 0
M  V30 17188 H 1612.18 -5.2609 0.955669 0
M  V30 17189 H 1612.53 -4.14856 -0.346396 0
M  V30 17190 H 1613.06 -3.75726 1.3067 0
M  V30 17191 H 1609.8 -5.27454 3.89195 0
M  V30 17192 H 1609.32 -5.57745 2.20636 0
M  V30 17193 H 1611 -5.86828 2.72474 0
M  V30 17194 N 1611.13 -0.710588 -1.40671 0
M  V30 17195 C 1612.37 -0.252303 -2.02837 0
M  V30 17196 C 1612.73 1.13154 -1.55113 0
M  V30 17197 O 1613.93 1.68653 -2.09307 0
M  V30 17198 C 1612.21 -0.323902 -3.55929 0
M  V30 17199 S 1613.76 0.0581316 -4.38761 0
M  V30 17200 H 1610.58 -0.100448 -0.703869 0
M  V30 17201 H 1613.18 -0.931699 -1.71871 0
M  V30 17202 H 1611.89 -1.33279 -3.88156 0
M  V30 17203 H 1611.42 0.37414 -3.91617 0
M  V30 17204 H 1613.43 1.28162 -4.79363 0
M  V30 17205 N 1612.61 1.50847 -0.456408 0
M  V30 17206 C 1613.57 2.26755 0.33388 0
M  V30 17207 C 1614.57 1.30947 0.933247 0
M  V30 17208 O 1615.76 1.54499 0.804716 0
M  V30 17209 C 1612.89 3.07378 1.47417 0
M  V30 17210 H 1614.09 2.98061 -0.331634 0
M  V30 17211 H 1611.64 1.54882 -0.210067 0
M  V30 17212 H 1612.37 2.40534 2.17518 0
M  V30 17213 H 1612.16 3.7777 1.05036 0
M  V30 17214 H 1613.65 3.64826 2.03204 0
M  V30 17215 N 1614.09 0.188454 1.56469 0
M  V30 17216 C 1615.5 -0.167487 1.58719 0
M  V30 17217 C 1615.7 -1.61543 1.20442 0
M  V30 17218 O 1614.76 -2.34985 0.924041 0
M  V30 17219 C 1616.07 0.128854 3.00424 0
M  V30 17220 C 1617.62 0.0684301 3.12925 0
M  V30 17221 C 1618.09 0.337991 4.56751 0
M  V30 17222 N 1619.58 0.286373 4.62314 0
M  V30 17223 C 1620.32 0.468886 5.7148 0
M  V30 17224 N 1619.82 0.711388 6.89138 0
M  V30 17225 N 1621.61 0.403602 5.60649 0
M  V30 17226 H 1613.76 1.13339 1.79633 0
M  V30 17227 H 1616.02 0.451885 0.833369 0
M  V30 17228 H 1615.73 1.13255 3.32966 0
M  V30 17229 H 1615.6 -0.571644 3.72843 0
M  V30 17230 H 1617.99 -0.925864 2.802 0
M  V30 17231 H 1618.07 0.801903 2.42906 0
M  V30 17232 H 1617.71 1.32957 4.90189 0
M  V30 17233 H 1617.64 -0.416293 5.24952 0
M  V30 17234 H 1620.14 0.105286 3.77753 0
M  V30 17235 H 1620.45 0.839643 7.68225 0
M  V30 17236 H 1618.79 0.748205 6.90961 0
M  V30 17237 H 1621.98 0.214616 4.67608 0
M  V30 17238 H 1622.16 0.549261 6.45668 0
M  V30 17239 N 1615.56 -1.5737 -0.0851874 0
M  V30 17240 C 1616.84 -1.77624 -0.819094 0
M  V30 17241 C 1617.22 -0.772645 -1.96452 0
M  V30 17242 O 1616.57 0.196912 -2.2765 0
M  V30 17243 C 1616.78 -3.23704 -1.30449 0
M  V30 17244 C 1618.13 -3.87163 -1.74328 0
M  V30 17245 O 1619.15 -3.27513 -1.40048 0
M  V30 17246 O 1618.01 -4.92075 -2.37748 0
M  V30 17247 H 1615.1 -0.728487 -0.391453 0
M  V30 17248 H 1617.65 -1.6957 -0.0663006 0
M  V30 17249 H 1616.42 -3.88292 -0.484277 0
M  V30 17250 H 1616.04 -3.36429 -2.119 0
M  V30 17251 N 1617.04 0.356258 -1.53521 0
M  V30 17252 C 1617.97 1.44271 -1.83598 0
M  V30 17253 C 1618.95 1.5547 -0.690141 0
M  V30 17254 O 1620.14 1.69886 -0.940868 0
M  V30 17255 C 1617.27 2.8149 -2.03422 0
M  V30 17256 C 1616.22 2.85108 -3.19213 0
M  V30 17257 C 1615.55 4.25091 -3.24348 0
M  V30 17258 C 1616.85 2.51788 -4.57602 0
M  V30 17259 H 1618.54 1.1935 -2.74583 0
M  V30 17260 H 1616.09 0.572707 -1.32121 0
M  V30 17261 H 1618.04 3.57531 -2.23046 0
M  V30 17262 H 1616.76 3.07819 -1.09155 0
M  V30 17263 H 1615.42 2.1152 -2.99424 0
M  V30 17264 H 1615.07 4.4851 -2.277 0
M  V30 17265 H 1614.77 4.28426 -4.0215 0
M  V30 17266 H 1616.3 5.02992 -3.46167 0
M  V30 17267 H 1617.71 3.17542 -4.77326 0
M  V30 17268 H 1616.11 2.66426 -5.37715 0
M  V30 17269 H 1617.18 1.4701 -4.62078 0
M  V30 17270 N 1618.52 1.45038 0.616577 0
M  V30 17271 C 1619.74 1.52321 1.40759 0
M  V30 17272 C 1620.17 0.15375 1.87471 0
M  V30 17273 O 1619.53 -0.859908 1.5961 0
M  V30 17274 C 1619.58 2.50464 2.59423 0
M  V30 17275 O 1618.68 2.01623 3.59753 0
M  V30 17276 H 1618.02 0.513808 0.420592 0
M  V30 17277 H 1620.55 1.90309 0.751234 0
M  V30 17278 H 1620.56 2.68977 3.06783 0
M  V30 17279 H 1619.24 3.4993 2.24771 0
M  V30 17280 H 1617.81 1.92945 3.19103 0
M  V30 17281 N 1620 -0.858287 1.32179 0
M  V30 17282 C 1621.22 -1.64997 1.25662 0
M  V30 17283 C 1621.65 -1.87303 -0.173021 0
M  V30 17284 O 1621.01 -1.42319 -1.12317 0
M  V30 17285 C 1621.05 -2.98855 2.01787 0
M  V30 17286 O 1620.16 -3.89218 1.36319 0
M  V30 17287 H 1619.5 -0.503169 0.433264 0
M  V30 17288 H 1622.03 -1.06926 1.74436 0
M  V30 17289 H 1622.04 -3.48704 2.11824 0
M  V30 17290 H 1620.71 -2.81941 3.05748 0
M  V30 17291 H 1619.29 -3.4768 1.34807 0
M  V30 17292 N 1621.48 -1.1533 -1.07409 0
M  V30 17293 C 1622.72 -0.925974 -1.79639 0
M  V30 17294 C 1623.04 0.548365 -1.87131 0
M  V30 17295 O 1622.31 1.39854 -1.37178 0
M  V30 17296 H 1620.89 -0.339599 -0.665343 0
M  V30 17297 H 1623.56 -1.45383 -1.29806 0
M  V30 17298 H 1622.65 -1.33484 -2.82114 0
M  V30 17299 N 1622.95 1.25748 -0.950004 0
M  V30 17300 C 1624.18 1.97413 -0.61933 0
M  V30 17301 C 1624.6 1.70656 0.807591 0
M  V30 17302 O 1623.95 0.979899 1.53962 0
M  V30 17303 C 1624 3.51053 -0.862801 0
M  V30 17304 O 1623.73 3.76884 -2.23361 0
M  V30 17305 C 1625.23 4.39951 -0.543879 0
M  V30 17306 H 1622.45 0.629394 -0.232603 0
M  V30 17307 H 1624.99 1.60037 -1.27312 0
M  V30 17308 H 1623.15 3.86557 -0.255493 0
M  V30 17309 H 1623.56 4.71368 -2.30026 0
M  V30 17310 H 1625.03 5.46676 -0.764804 0
M  V30 17311 H 1625.51 4.36094 0.521421 0
M  V30 17312 H 1626.12 4.10005 -1.1303 0
M  V30 17313 N 1624.43 0.718038 1.40292 0
M  V30 17314 C 1625.36 0.0160994 2.28194 0
M  V30 17315 C 1626.34 -0.765159 1.43472 0
M  V30 17316 O 1627.53 -0.751283 1.72881 0
M  V30 17317 C 1624.65 -0.984558 3.24074 0
M  V30 17318 C 1623.7 -0.293817 4.25487 0
M  V30 17319 S 1624.53 0.980059 5.26455 0
M  V30 17320 C 1625.69 -0.0184326 6.25897 0
M  V30 17321 H 1625.92 0.761585 2.8738 0
M  V30 17322 H 1623.45 0.509158 1.45763 0
M  V30 17323 H 1625.41 -1.55667 3.7984 0
M  V30 17324 H 1624.07 -1.70276 2.63941 0
M  V30 17325 H 1623.27 -1.05037 4.92933 0
M  V30 17326 H 1622.87 0.205802 3.73433 0
M  V30 17327 H 1625.16 -0.864464 6.71962 0
M  V30 17328 H 1626.1 0.622712 7.05357 0
M  V30 17329 H 1626.51 -0.383254 5.63197 0
M  V30 17330 N 1625.91 -1.50602 0.464402 0
M  V30 17331 C 1627.16 -2.02587 -0.0930295 0
M  V30 17332 C 1627.49 -1.34618 -1.3997 0
M  V30 17333 O 1626.76 -0.469711 -1.88743 0
M  V30 17334 C 1627.05 -3.5898 -0.283783 0
M  V30 17335 C 1626.9 -4.3753 1.04344 0
M  V30 17336 C 1628.22 -4.27602 -1.04138 0
M  V30 17337 H 1625.34 -0.73629 -0.0323356 0
M  V30 17338 H 1627.98 -1.79986 0.608687 0
M  V30 17339 H 1626.13 -3.78368 -0.881488 0
M  V30 17340 H 1627.8 -4.29729 1.67721 0
M  V30 17341 H 1626.05 -4.01536 1.64168 0
M  V30 17342 H 1626.72 -5.45201 0.863691 0
M  V30 17343 H 1629.19 -4.12649 -0.534822 0
M  V30 17344 H 1628.07 -5.36854 -1.14364 0
M  V30 17345 H 1628.33 -3.9031 -2.0763 0
M  V30 17346 N 1627.39 -0.19675 -1.56367 0
M  V30 17347 C 1628.67 0.489288 -1.89381 0
M  V30 17348 C 1629.05 1.79529 -1.11052 0
M  V30 17349 O 1628.39 2.27513 -0.212117 0
M  V30 17350 C 1628.6 0.706459 -3.41775 0
M  V30 17351 C 1629.95 1.02508 -4.1204 0
M  V30 17352 O 1630.98 0.794123 -3.47235 0
M  V30 17353 O 1629.83 1.46207 -5.26579 0
M  V30 17354 H 1626.93 0.2553 -0.786607 0
M  V30 17355 H 1629.47 -0.237086 -1.68036 0
M  V30 17356 H 1628.25 -0.215762 -3.90705 0
M  V30 17357 H 1627.87 1.48523 -3.68818 0
M  V30 17358 N 1628.87 1.57413 0.0768405 0
M  V30 17359 C 1630.11 1.87279 0.778099 0
M  V30 17360 C 1630.45 0.788359 1.77478 0
M  V30 17361 O 1629.72 -0.201876 1.9345 0
M  V30 17362 C 1630 3.27801 1.49059 0
M  V30 17363 C 1629.86 4.46892 0.510661 0
M  V30 17364 C 1631.18 3.66485 2.43674 0
M  V30 17365 H 1628.29 0.681159 0.281409 0
M  V30 17366 H 1630.94 1.89955 0.0413711 0
M  V30 17367 H 1629.09 3.2565 2.11859 0
M  V30 17368 H 1630.76 4.61165 -0.111734 0
M  V30 17369 H 1629 4.33449 -0.174445 0
M  V30 17370 H 1629.67 5.41985 1.04671 0
M  V30 17371 H 1632.15 3.69696 1.90955 0
M  V30 17372 H 1631.02 4.65706 2.90533 0
M  V30 17373 H 1631.29 2.96145 3.28254 0
M  V30 17374 N 1630.34 -0.348112 1.53707 0
M  V30 17375 C 1631.76 -0.923978 1.62233 0
M  V30 17376 C 1632.11 -1.89702 0.500744 0
M  V30 17377 O 1631.23 -2.1321 -0.370212 0
M  V30 17378 C 1631.83 -1.68261 2.94064 0
M  V30 17379 C 1630.39 -2.20755 3.04867 0
M  V30 17380 C 1629.53 -1.02526 2.5765 0
M  V30 17381 H 1632.48 -0.126381 1.58196 0
M  V30 17382 H 1632.5 -2.54514 2.82848 0
M  V30 17383 H 1632.02 -0.974155 3.75675 0
M  V30 17384 H 1630.12 -2.9479 2.27881 0
M  V30 17385 H 1630.23 -2.47439 4.10257 0
M  V30 17386 H 1628.59 -1.39735 2.12947 0
M  V30 17387 H 1629.38 -0.331521 3.41696 0
M  V30 17388 N 1631.82 -1.45363 -0.608876 0
M  V30 17389 C 1632.79 -1.53551 -1.70161 0
M  V30 17390 C 1633.79 -0.415146 -1.55349 0
M  V30 17391 O 1634.98 -0.67858 -1.6044 0
M  V30 17392 C 1632.11 -1.43081 -3.0942 0
M  V30 17393 H 1633.3 -2.5091 -1.64268 0
M  V30 17394 H 1630.85 -1.32785 -0.824493 0
M  V30 17395 H 1631.59 -0.469016 -3.20891 0
M  V30 17396 H 1631.37 -2.24343 -3.21579 0
M  V30 17397 H 1632.86 -1.51841 -3.89017 0
M  V30 17398 N 1633.3 0.851265 -1.32632 0
M  V30 17399 C 1634.23 1.97562 -1.24465 0
M  V30 17400 C 1635.21 1.69619 -0.127777 0
M  V30 17401 O 1636.4 1.9162 -0.315509 0
M  V30 17402 C 1633.53 3.33467 -0.970423 0
M  V30 17403 C 1632.48 3.75772 -2.0489 0
M  V30 17404 C 1631.81 5.09345 -1.62702 0
M  V30 17405 C 1633.11 3.90876 -3.4643 0
M  V30 17406 H 1634.8 2.04653 -2.18535 0
M  V30 17407 H 1632.35 0.983252 -1.05205 0
M  V30 17408 H 1634.3 4.11681 -0.899825 0
M  V30 17409 H 1633.02 3.26599 0.00591373 0
M  V30 17410 H 1631.68 2.99812 -2.1097 0
M  V30 17411 H 1631.33 4.98937 -0.638039 0
M  V30 17412 H 1631.03 5.38621 -2.34864 0
M  V30 17413 H 1632.55 5.90048 -1.57085 0
M  V30 17414 H 1633.97 4.59434 -3.42919 0
M  V30 17415 H 1632.37 4.31574 -4.1697 0
M  V30 17416 H 1633.44 2.93689 -3.85843 0
M  V30 17417 N 1634.78 1.15898 1.06796 0
M  V30 17418 C 1636.03 0.931848 1.78884 0
M  V30 17419 C 1636.34 -0.54197 1.87942 0
M  V30 17420 O 1637.55 -0.886848 2.56607 0
M  V30 17421 C 1636 1.61788 3.21485 0
M  V30 17422 C 1635.61 3.12911 3.2061 0
M  V30 17423 C 1637.35 1.47252 3.98142 0
M  V30 17424 C 1635.26 3.74275 4.579 0
M  V30 17425 H 1634.19 0.344998 0.670442 0
M  V30 17426 H 1636.84 1.38974 1.19827 0
M  V30 17427 H 1635.22 1.08769 3.80769 0
M  V30 17428 H 1636.4 3.72732 2.70938 0
M  V30 17429 H 1634.71 3.27273 2.57451 0
M  V30 17430 H 1637.31 1.90484 4.9962 0
M  V30 17431 H 1637.65 0.420766 4.14168 0
M  V30 17432 H 1638.19 1.97398 3.45367 0
M  V30 17433 H 1634.93 4.79376 4.47078 0
M  V30 17434 H 1634.45 3.19238 5.07786 0
M  V30 17435 H 1636.12 3.75532 5.26863 0
M  V30 17436 N 1636.26 -1.25243 0.956659 0
M  V30 17437 C 1637.2 -2.25811 0.477292 0
M  V30 17438 C 1638.17 -1.59273 -0.471301 0
M  V30 17439 O 1639.36 -1.86894 -0.384105 0
M  V30 17440 C 1636.5 -3.44286 -0.236891 0
M  V30 17441 C 1635.61 -4.25454 0.749177 0
M  V30 17442 C 1634.75 -5.31199 0.012228 0
M  V30 17443 C 1633.79 -6.04056 0.989094 0
M  V30 17444 N 1632.92 -7.0153 0.282883 0
M  V30 17445 H 1637.76 -2.66185 1.33977 0
M  V30 17446 H 1635.3 -1.30862 0.671832 0
M  V30 17447 H 1637.26 -4.11825 -0.66755 0
M  V30 17448 H 1635.89 -3.04781 -1.06339 0
M  V30 17449 H 1634.94 -3.57558 1.29831 0
M  V30 17450 H 1636.25 -4.75883 1.49454 0
M  V30 17451 H 1635.41 -6.04822 -0.476968 0
M  V30 17452 H 1634.14 -4.81648 -0.76591 0
M  V30 17453 H 1633.15 -5.29245 1.48927 0
M  V30 17454 H 1634.37 -6.55695 1.76749 0
M  V30 17455 H 1632.32 -6.54267 -0.476479 0
M  V30 17456 H 1632.24 -7.49786 0.967304 0
M  V30 17457 H 1633.51 -7.79281 -0.184709 0
M  V30 17458 N 1637.73 -0.725468 -1.3991 0
M  V30 17459 C 1638.96 -0.279202 -2.05007 0
M  V30 17460 C 1639.38 1.08257 -1.5468 0
M  V30 17461 O 1638.73 1.68224 -0.707585 0
M  V30 17462 C 1638.79 -0.261347 -3.60554 0
M  V30 17463 O 1638.51 -1.56935 -4.09027 0
M  V30 17464 C 1640.01 0.202259 -4.42838 0
M  V30 17465 H 1637.23 -0.123664 -0.659506 0
M  V30 17466 H 1639.77 -0.986447 -1.79135 0
M  V30 17467 H 1637.93 0.396936 -3.85361 0
M  V30 17468 H 1638.34 -1.47647 -5.0329 0
M  V30 17469 H 1639.81 0.163598 -5.51758 0
M  V30 17470 H 1640.29 1.24597 -4.21156 0
M  V30 17471 H 1640.9 -0.426108 -4.2316 0
M  V30 17472 N 1639.21 1.50354 -0.472382 0
M  V30 17473 C 1640.49 1.95071 0.143803 0
M  V30 17474 C 1640.87 1.41281 1.56853 0
M  V30 17475 O 1640.22 0.614349 2.20086 0
M  V30 17476 C 1640.43 3.48895 0.0857944 0
M  V30 17477 C 1641.78 4.23715 0.274039 0
M  V30 17478 O 1642.8 3.5583 0.162319 0
M  V30 17479 O 1641.66 5.4421 0.499815 0
M  V30 17480 H 1638.75 0.819521 0.110966 0
M  V30 17481 H 1641.3 1.61116 -0.532876 0
M  V30 17482 H 1640.07 3.80598 -0.908887 0
M  V30 17483 H 1639.69 3.89389 0.803875 0
M  V30 17484 N 1640.69 0.205039 1.56261 0
M  V30 17485 C 1641.64 -0.728433 2.209 0
M  V30 17486 C 1642.63 -1.21228 1.18322 0
M  V30 17487 O 1643.84 -1.17402 1.36443 0
M  V30 17488 H 1640.21 -0.253283 0.708062 0
M  V30 17489 H 1642.19 -0.159654 2.97973 0
M  V30 17490 C 1640.93 -1.93311 2.89009 0
M  V30 17491 H 1640.26 -1.56988 3.67688 0
M  V30 17492 H 1641.7 -2.5644 3.3766 0
M  V30 17493 C 1640.16 -2.77814 1.9058 0
M  V30 17494 O 1640.69 -3.76053 1.41233 0
M  V30 17495 N 1638.89 -2.4351 1.58591 0
M  V30 17496 H 1638.44 -1.6368 1.98914 0
M  V30 17497 H 1638.4 -3.00333 0.929918 0
M  V30 17498 N 1642.17 -1.57451 -0.0684915 0
M  V30 17499 C 1643.1 -2.06954 -1.0813 0
M  V30 17500 C 1644.08 -0.963716 -1.40166 0
M  V30 17501 O 1645.27 -1.23664 -1.49736 0
M  V30 17502 C 1642.4 -2.51622 -2.39381 0
M  V30 17503 C 1641.35 -3.66111 -2.2169 0
M  V30 17504 C 1640.68 -3.96846 -3.58354 0
M  V30 17505 C 1641.98 -4.96036 -1.63541 0
M  V30 17506 H 1643.67 -2.91822 -0.66936 0
M  V30 17507 H 1641.22 -1.40387 -0.320533 0
M  V30 17508 H 1643.17 -2.84867 -3.1053 0
M  V30 17509 H 1641.89 -1.63788 -2.82562 0
M  V30 17510 H 1640.55 -3.33155 -1.52982 0
M  V30 17511 H 1640.2 -3.06137 -3.9911 0
M  V30 17512 H 1639.9 -4.73939 -3.47354 0
M  V30 17513 H 1641.42 -4.3259 -4.30927 0
M  V30 17514 H 1642.84 -5.27491 -2.24559 0
M  V30 17515 H 1641.23 -5.77474 -1.63228 0
M  V30 17516 H 1642.3 -4.81208 -0.597199 0
M  V30 17517 N 1643.65 0.339955 -1.5389 0
M  V30 17518 C 1644.6 1.41838 -1.78511 0
M  V30 17519 C 1645.58 1.47604 -0.640447 0
M  V30 17520 O 1646.77 1.52414 -0.899951 0
M  V30 17521 C 1643.9 2.78929 -2.00134 0
M  V30 17522 C 1642.99 2.7754 -3.20675 0
M  V30 17523 N 1643.38 2.45779 -4.42071 0
M  V30 17524 C 1641.68 3.08684 -3.21917 0
M  V30 17525 C 1642.38 2.52714 -5.23938 0
M  V30 17526 N 1641.35 2.88484 -4.60736 0
M  V30 17527 H 1645.16 1.16185 -2.6996 0
M  V30 17528 H 1642.67 0.548339 -1.52863 0
M  V30 17529 H 1644.67 3.56637 -2.15907 0
M  V30 17530 H 1643.33 3.05525 -1.09929 0
M  V30 17531 H 1644.34 2.18913 -4.69358 0
M  V30 17532 H 1641.02 3.40429 -2.41691 0
M  V30 17533 H 1642.41 2.31287 -6.30838 0
M  V30 17534 N 1645.13 1.45684 0.601159 0
M  V30 17535 C 1646.54 1.30232 0.922598 0
M  V30 17536 C 1646.74 0.260086 1.99814 0
M  V30 17537 O 1645.8 -0.343753 2.50149 0
M  V30 17538 C 1647.11 2.68318 1.35743 0
M  V30 17539 C 1648.66 2.76264 1.47129 0
M  V30 17540 C 1649.13 4.1489 1.93986 0
M  V30 17541 N 1650.62 4.17216 2.01209 0
M  V30 17542 C 1651.36 5.21354 2.387 0
M  V30 17543 N 1650.86 6.35833 2.75114 0
M  V30 17544 N 1652.65 5.08714 2.39095 0
M  V30 17545 H 1644.8 2.12117 -0.109634 0
M  V30 17546 H 1647.06 0.947902 0.0136129 0
M  V30 17547 H 1646.77 3.45804 0.64127 0
M  V30 17548 H 1646.64 2.97206 2.32268 0
M  V30 17549 H 1649.03 1.99077 2.17835 0
M  V30 17550 H 1649.11 2.51082 0.489028 0
M  V30 17551 H 1648.75 4.92565 1.23864 0
M  V30 17552 H 1648.68 4.37468 2.93137 0
M  V30 17553 H 1651.18 3.34607 1.75632 0
M  V30 17554 H 1651.49 7.11084 3.02622 0
M  V30 17555 H 1649.83 6.39224 2.72795 0
M  V30 17556 H 1653.02 4.18322 2.10057 0
M  V30 17557 H 1653.2 5.89989 2.67987 0
M  V30 17558 N 1646.6 -0.84422 1.33082 0
M  V30 17559 C 1647.83 -1.63654 1.27405 0
M  V30 17560 C 1648.25 -1.87476 -0.153146 0
M  V30 17561 O 1647.61 -1.43502 -1.10801 0
M  V30 17562 C 1647.66 -2.96698 2.04945 0
M  V30 17563 O 1646.76 -3.87751 1.40439 0
M  V30 17564 H 1646.1 -0.498545 0.438576 0
M  V30 17565 H 1648.63 -1.0507 1.7556 0
M  V30 17566 H 1648.64 -3.46438 2.1551 0
M  V30 17567 H 1647.32 -2.78682 3.08722 0
M  V30 17568 H 1645.9 -3.46231 1.38487 0
M  V30 17569 N 1648.08 -1.16463 -1.0618 0
M  V30 17570 C 1649.33 -0.958238 -1.79414 0
M  V30 17571 C 1649.68 0.508463 -1.8556 0
M  V30 17572 O 1648.98 1.37239 -1.33702 0
M  V30 17573 C 1649.17 -1.52085 -3.23427 0
M  V30 17574 C 1649 -3.04073 -3.31315 0
M  V30 17575 C 1647.77 -3.72723 -3.41183 0
M  V30 17576 C 1649.97 -4.01759 -3.21082 0
M  V30 17577 N 1647.95 -5.12409 -3.38098 0
M  V30 17578 C 1649.32 -5.27836 -3.25253 0
M  V30 17579 C 1651.37 -3.93567 -3.04975 0
M  V30 17580 C 1650.08 -6.46672 -3.14972 0
M  V30 17581 C 1652.1 -5.11976 -2.96032 0
M  V30 17582 C 1651.47 -6.36932 -3.00827 0
M  V30 17583 H 1647.56 -0.404432 -0.669297 0
M  V30 17584 H 1650.15 -1.47875 -1.26653 0
M  V30 17585 H 1648.32 -1.02681 -3.74581 0
M  V30 17586 H 1650.05 -1.25209 -3.84844 0
M  V30 17587 H 1646.81 -3.2336 -3.46027 0
M  V30 17588 H 1647.23 -5.85401 -3.40052 0
M  V30 17589 H 1651.87 -2.97812 -3.00113 0
M  V30 17590 H 1649.59 -7.42648 -3.1859 0
M  V30 17591 H 1653.18 -5.07408 -2.84655 0
M  V30 17592 H 1652.06 -7.27017 -2.93966 0
M  V30 17593 N 1649.56 1.24734 -0.963288 0
M  V30 17594 C 1650.52 2.23795 -0.494824 0
M  V30 17595 C 1651.52 1.55584 0.406225 0
M  V30 17596 O 1652.71 1.73021 0.202302 0
M  V30 17597 C 1649.84 3.39715 0.283963 0
M  V30 17598 H 1651.04 2.66753 -1.37051 0
M  V30 17599 H 1648.59 1.37271 -0.747428 0
M  V30 17600 H 1649.33 3.0219 1.17693 0
M  V30 17601 H 1649.11 3.9042 -0.362586 0
M  V30 17602 H 1650.6 4.13254 0.600899 0
M  V30 17603 N 1651.04 0.732878 1.39523 0
M  V30 17604 C 1652.31 0.20629 1.94509 0
M  V30 17605 C 1652.69 -1.29152 1.66982 0
M  V30 17606 O 1652.04 -2.05607 0.996895 0
M  V30 17607 C 1652.25 0.537619 3.44834 0
M  V30 17608 C 1653.6 0.485787 4.21812 0
M  V30 17609 O 1654.62 0.474686 3.53023 0
M  V30 17610 O 1653.48 0.478457 5.44402 0
M  V30 17611 H 1650.58 0.0369228 0.826175 0
M  V30 17612 H 1653.12 0.811591 1.49035 0
M  V30 17613 H 1651.9 1.57289 3.58296 0
M  V30 17614 H 1651.52 -0.0967601 3.97482 0
M  V30 17615 N 1652.52 -1.50101 0.480349 0
M  V30 17616 C 1653.43 -2.32488 -0.31408 0
M  V30 17617 C 1654.44 -1.43285 -0.987186 0
M  V30 17618 O 1655.62 -1.7633 -0.973123 0
M  V30 17619 C 1652.68 -3.18203 -1.37651 0
M  V30 17620 C 1651.74 -4.23236 -0.71903 0
M  V30 17621 C 1650.98 -5.04854 -1.73084 0
M  V30 17622 O 1651.2 -4.87681 -2.95843 0
M  V30 17623 O 1650.13 -5.87748 -1.29755 0
M  V30 17624 H 1653.96 -3.01562 0.3597 0
M  V30 17625 H 1651.54 -1.47427 0.242029 0
M  V30 17626 H 1653.43 -3.71362 -1.9917 0
M  V30 17627 H 1652.1 -2.51846 -2.0336 0
M  V30 17628 H 1651.01 -3.74044 -0.0646492 0
M  V30 17629 H 1652.34 -4.92089 -0.104743 0
M  V30 17630 N 1653.99 -0.213323 -1.5615 0
M  V30 17631 C 1654.9 0.711703 -2.23544 0
M  V30 17632 C 1655.92 1.22027 -1.24038 0
M  V30 17633 O 1657.1 1.26361 -1.56828 0
M  V30 17634 C 1654.16 1.90645 -2.89578 0
M  V30 17635 C 1653.22 1.44066 -4.04405 0
M  V30 17636 C 1652.45 2.57846 -4.6728 0
M  V30 17637 O 1652.68 3.75781 -4.29121 0
M  V30 17638 O 1651.61 2.29518 -5.56422 0
M  V30 17639 H 1655.44 0.167635 -3.03237 0
M  V30 17640 H 1653.02 0.016771 -1.49391 0
M  V30 17641 H 1654.9 2.60435 -3.31288 0
M  V30 17642 H 1653.58 2.43877 -2.12851 0
M  V30 17643 H 1652.49 0.711024 -3.67281 0
M  V30 17644 H 1653.82 0.954809 -4.8285 0
M  V30 17645 N 1655.47 1.57485 0.0601405 0
M  V30 17646 C 1656.75 1.78904 0.790732 0
M  V30 17647 C 1657.13 0.803802 1.95198 0
M  V30 17648 O 1656.48 -0.16067 2.27934 0
M  V30 17649 C 1656.69 3.25738 1.25282 0
M  V30 17650 C 1658.04 3.89887 1.68147 0
M  V30 17651 O 1659.06 3.297 1.3482 0
M  V30 17652 O 1657.92 4.95796 2.29889 0
M  V30 17653 H 1655.01 0.734623 0.379814 0
M  V30 17654 H 1657.56 1.69654 0.0393151 0
M  V30 17655 H 1656.33 3.89013 0.422442 0
M  V30 17656 H 1655.95 3.39757 2.06521 0
M  V30 17657 N 1656.95 -0.331789 1.54068 0
M  V30 17658 C 1657.86 -1.43116 1.8589 0
M  V30 17659 C 1658.88 -1.57003 0.75007 0
M  V30 17660 O 1660.05 -1.72256 1.04355 0
M  V30 17661 C 1657.12 -2.77945 2.07238 0
M  V30 17662 C 1656.18 -2.73303 3.31065 0
M  V30 17663 C 1655.41 -4.01702 3.51385 0
M  V30 17664 O 1655.63 -4.99562 2.75306 0
M  V30 17665 O 1654.57 -4.0546 4.44844 0
M  V30 17666 H 1658.39 -1.19137 2.79357 0
M  V30 17667 H 1655.98 -0.525057 1.3987 0
M  V30 17668 H 1657.86 -3.57774 2.22656 0
M  V30 17669 H 1656.54 -3.01831 1.16959 0
M  V30 17670 H 1655.44 -1.92054 3.21039 0
M  V30 17671 H 1656.78 -2.54371 4.21374 0
M  V30 17672 N 1658.43 -1.46001 -0.593424 0
M  V30 17673 C 1659.67 -1.50978 -1.35401 0
M  V30 17674 C 1660.01 -0.156626 -1.93567 0
M  V30 17675 O 1659.28 0.83067 -1.7587 0
M  V30 17676 C 1659.57 -2.60005 -2.49137 0
M  V30 17677 C 1659.42 -4.04814 -1.96075 0
M  V30 17678 C 1660.74 -2.65199 -3.51223 0
M  V30 17679 H 1657.86 -0.549657 -0.490965 0
M  V30 17680 H 1660.5 -1.77883 -0.667644 0
M  V30 17681 H 1658.65 -2.37194 -3.07687 0
M  V30 17682 H 1660.32 -4.38879 -1.42066 0
M  V30 17683 H 1658.56 -4.148 -1.26976 0
M  V30 17684 H 1659.23 -4.76811 -2.78128 0
M  V30 17685 H 1661.71 -2.85675 -3.02537 0
M  V30 17686 H 1660.59 -3.43323 -4.28276 0
M  V30 17687 H 1660.85 -1.70833 -4.0776 0
M  V30 17688 N 1659.91 0.83715 -1.33527 0
M  V30 17689 C 1660.84 1.95164 -1.18263 0
M  V30 17690 C 1661.82 1.62414 -0.0776864 0
M  V30 17691 O 1663 1.86963 -0.24024 0
M  V30 17692 C 1660.13 3.28766 -0.814294 0
M  V30 17693 C 1659.17 3.80486 -1.92698 0
M  V30 17694 S 1660.01 4.01957 -3.53823 0
M  V30 17695 C 1661.16 5.38507 -3.19 0
M  V30 17696 H 1661.4 2.07813 -2.12605 0
M  V30 17697 H 1658.93 0.991125 -1.18389 0
M  V30 17698 H 1660.89 4.05964 -0.608556 0
M  V30 17699 H 1659.55 3.13905 0.110553 0
M  V30 17700 H 1658.74 4.77164 -1.62266 0
M  V30 17701 H 1658.34 3.10189 -2.08947 0
M  V30 17702 H 1660.64 6.21404 -2.69931 0
M  V30 17703 H 1661.58 5.73913 -4.14764 0
M  V30 17704 H 1661.99 5.03342 -2.55552 0
M  V30 17705 N 1661.38 1.17024 1.05561 0
M  V30 17706 C 1662.63 0.957742 1.7876 0
M  V30 17707 C 1662.96 -0.512652 1.87311 0
M  V30 17708 O 1662.24 -1.38047 1.37016 0
M  V30 17709 C 1662.52 1.59495 3.22852 0
M  V30 17710 C 1662.37 3.13719 3.22336 0
M  V30 17711 C 1663.69 1.29576 4.20593 0
M  V30 17712 H 1660.81 0.349354 0.648938 0
M  V30 17713 H 1663.45 1.44467 1.23408 0
M  V30 17714 H 1661.6 1.18091 3.70117 0
M  V30 17715 H 1663.28 3.64156 2.83175 0
M  V30 17716 H 1661.52 3.46664 2.60781 0
M  V30 17717 H 1662.19 3.5343 4.24018 0
M  V30 17718 H 1664.67 1.65423 3.81804 0
M  V30 17719 H 1663.54 1.76751 5.19663 0
M  V30 17720 H 1663.8 0.21589 4.41573 0
M  V30 17721 N 1662.86 -1.24221 0.969889 0
M  V30 17722 C 1664.09 -1.96118 0.649715 0
M  V30 17723 C 1664.5 -1.72127 -0.785436 0
M  V30 17724 O 1663.84 -1.00319 -1.53889 0
M  V30 17725 C 1663.91 -3.49374 0.847236 0
M  V30 17726 C 1663.57 -3.97067 2.26244 0
M  V30 17727 C 1664.57 -4.06568 3.24034 0
M  V30 17728 C 1662.25 -4.30333 2.59072 0
M  V30 17729 C 1664.25 -4.48672 4.52738 0
M  V30 17730 C 1661.93 -4.72121 3.88001 0
M  V30 17731 C 1662.93 -4.81256 4.84646 0
M  V30 17732 O 1662.62 -5.22109 6.11275 0
M  V30 17733 H 1662.35 -0.63149 0.24124 0
M  V30 17734 H 1664.9 -1.58948 1.30095 0
M  V30 17735 H 1663.13 -3.86451 0.138828 0
M  V30 17736 H 1664.82 -4.0248 0.525817 0
M  V30 17737 H 1665.59 -3.81083 3.00002 0
M  V30 17738 H 1661.47 -4.22441 1.84565 0
M  V30 17739 H 1665.01 -4.55717 5.28174 0
M  V30 17740 H 1660.91 -4.97054 4.11834 0
M  V30 17741 H 1661.68 -5.40252 6.14874 0
M  V30 17742 N 1664.34 -0.740267 -1.39132 0
M  V30 17743 C 1665.59 -0.289949 -2.00009 0
M  V30 17744 C 1665.91 1.12831 -1.59042 0
M  V30 17745 O 1665.18 1.76926 -0.841076 0
M  V30 17746 H 1663.76 -0.104213 -0.739695 0
M  V30 17747 H 1666.42 -0.951398 -1.70101 0
M  V30 17748 H 1665.52 -0.342509 -3.10215 0
M  V30 17749 N 1665.82 1.49844 -0.488302 0
M  V30 17750 C 1667.07 2.02009 0.0605782 0
M  V30 17751 C 1667.39 1.37114 1.38653 0
M  V30 17752 O 1666.66 0.522182 1.88812 0
M  V30 17753 H 1665.24 0.746569 0.0253773 0
M  V30 17754 H 1667.9 1.84 -0.64265 0
M  V30 17755 H 1667 3.11461 0.199542 0
M  V30 17756 N 1667.3 0.221601 1.56034 0
M  V30 17757 C 1668.54 -0.410695 1.98598 0
M  V30 17758 C 1668.88 -1.59412 1.10912 0
M  V30 17759 O 1668.15 -1.93783 0.166819 0
M  V30 17760 C 1668.43 -0.845199 3.50041 0
M  V30 17761 C 1668.29 0.341866 4.48499 0
M  V30 17762 C 1669.61 -1.70135 4.05884 0
M  V30 17763 H 1666.72 -0.147808 0.722026 0
M  V30 17764 H 1669.37 0.317846 1.87323 0
M  V30 17765 H 1667.52 -1.46597 3.5978 0
M  V30 17766 H 1669.19 0.980014 4.5077 0
M  V30 17767 H 1667.43 0.989294 4.22369 0
M  V30 17768 H 1668.1 -0.00509234 5.52 0
M  V30 17769 H 1670.58 -1.17757 3.9909 0
M  V30 17770 H 1669.45 -1.97427 5.12166 0
M  V30 17771 H 1669.72 -2.66469 3.5277 0
M  V30 17772 N 1668.77 -1.57515 -0.0517878 0
M  V30 17773 C 1670.19 -1.54323 -0.407009 0
M  V30 17774 C 1670.39 -0.944629 -1.77986 0
M  V30 17775 O 1669.45 -0.555785 -2.46307 0
M  V30 17776 C 1670.76 -2.98887 -0.329703 0
M  V30 17777 C 1672.31 -3.10324 -0.408443 0
M  V30 17778 C 1672.78 -4.56576 -0.360833 0
M  V30 17779 N 1674.27 -4.61289 -0.420313 0
M  V30 17780 C 1675.01 -5.71961 -0.406007 0
M  V30 17781 N 1674.5 -6.91939 -0.34533 0
M  V30 17782 N 1676.3 -5.60263 -0.454054 0
M  V30 17783 H 1668.45 -1.94785 0.846907 0
M  V30 17784 H 1670.71 -0.892417 0.319838 0
M  V30 17785 H 1670.42 -3.4632 0.612802 0
M  V30 17786 H 1670.29 -3.59806 -1.13222 0
M  V30 17787 H 1672.68 -2.62852 -1.34138 0
M  V30 17788 H 1672.76 -2.52278 0.423018 0
M  V30 17789 H 1672.4 -5.0471 0.568335 0
M  V30 17790 H 1672.33 -5.12508 -1.2101 0
M  V30 17791 H 1674.82 -3.74958 -0.470644 0
M  V30 17792 H 1675.14 -7.72057 -0.338889 0
M  V30 17793 H 1673.48 -6.94301 -0.311715 0
M  V30 17794 H 1676.67 -4.6543 -0.499289 0
M  V30 17795 H 1676.85 -6.46508 -0.439435 0
M  V30 17796 N 1670.25 0.323614 -1.54242 0
M  V30 17797 C 1671.5 1.05909 -1.71657 0
M  V30 17798 C 1671.82 1.89177 -0.497151 0
M  V30 17799 O 1673.02 2.65816 -0.552649 0
M  V30 17800 C 1671.48 1.93246 -3.03618 0
M  V30 17801 C 1671.09 1.1509 -4.32965 0
M  V30 17802 C 1672.83 2.6653 -3.30397 0
M  V30 17803 C 1670.74 2.01573 -5.55988 0
M  V30 17804 H 1669.67 0.399114 -0.639706 0
M  V30 17805 H 1672.32 0.317338 -1.80735 0
M  V30 17806 H 1670.7 2.71319 -2.88447 0
M  V30 17807 H 1671.87 0.417877 -4.58901 0
M  V30 17808 H 1670.19 0.534882 -4.1295 0
M  V30 17809 H 1672.79 3.31542 -4.19504 0
M  V30 17810 H 1673.13 3.34164 -2.48274 0
M  V30 17811 H 1673.66 1.95518 -3.46435 0
M  V30 17812 H 1670.4 1.38446 -6.40713 0
M  V30 17813 H 1669.92 2.72609 -5.3427 0
M  V30 17814 H 1671.6 2.60159 -5.9239 0
M  V30 17815 N 1671.73 1.46313 0.585673 0
M  V30 17816 C 1672.98 1.51694 1.34598 0
M  V30 17817 C 1673.31 0.166889 1.93482 0
M  V30 17818 O 1672.59 -0.821331 1.76308 0
M  V30 17819 C 1672.87 2.61322 2.47755 0
M  V30 17820 C 1672.72 4.05848 1.93926 0
M  V30 17821 C 1674.04 2.67058 3.49812 0
M  V30 17822 H 1671.16 0.552253 0.488043 0
M  V30 17823 H 1673.8 1.78235 0.658201 0
M  V30 17824 H 1671.95 2.38822 3.06425 0
M  V30 17825 H 1673.62 4.39626 1.39736 0
M  V30 17826 H 1671.87 4.15468 1.24775 0
M  V30 17827 H 1672.54 4.78279 2.75596 0
M  V30 17828 H 1675.01 2.87276 3.01018 0
M  V30 17829 H 1673.89 3.45589 4.2645 0
M  V30 17830 H 1674.15 1.72993 4.06849 0
M  V30 17831 N 1673.21 -0.830057 1.33969 0
M  V30 17832 C 1674.62 -1.40227 1.23261 0
M  V30 17833 C 1674.97 -1.95664 -0.144862 0
M  V30 17834 O 1674.1 -1.89503 -1.04488 0
M  V30 17835 C 1674.69 -2.54913 2.2317 0
M  V30 17836 C 1673.25 -3.08062 2.16274 0
M  V30 17837 C 1672.4 -1.809 2.10168 0
M  V30 17838 H 1675.35 -0.635062 1.4544 0
M  V30 17839 H 1675.37 -3.32801 1.84455 0
M  V30 17840 H 1674.88 -2.14534 3.23414 0
M  V30 17841 H 1672.98 -3.52964 1.19362 0
M  V30 17842 H 1673.1 -3.67637 3.07213 0
M  V30 17843 H 1671.46 -2.01508 1.55778 0
M  V30 17844 H 1672.24 -1.42705 3.12234 0
M  V30 17845 N 1674.69 -1.17582 -1.04939 0
M  V30 17846 C 1675.93 -0.967208 -1.7825 0
M  V30 17847 C 1676.27 0.502711 -1.87581 0
M  V30 17848 O 1675.54 1.37318 -1.37746 0
M  V30 17849 C 1675.82 -1.61205 -3.22001 0
M  V30 17850 C 1675.68 -3.15424 -3.20667 0
M  V30 17851 C 1677 -1.31804 -4.199 0
M  V30 17852 H 1674.12 -0.35279 -0.647077 0
M  V30 17853 H 1676.76 -1.45119 -1.2264 0
M  V30 17854 H 1674.91 -1.20052 -3.69486 0
M  V30 17855 H 1676.58 -3.65653 -2.8124 0
M  V30 17856 H 1674.82 -3.48042 -2.58938 0
M  V30 17857 H 1675.49 -3.55674 -4.22138 0
M  V30 17858 H 1677.97 -1.67446 -3.80921 0
M  V30 17859 H 1676.85 -1.79505 -5.18719 0
M  V30 17860 H 1677.11 -0.239304 -4.41452 0
M  V30 17861 N 1676.17 1.23705 -0.976463 0
M  V30 17862 C 1677.08 2.28728 -0.521605 0
M  V30 17863 C 1678.09 1.68813 0.421691 0
M  V30 17864 O 1679.27 1.99263 0.292579 0
M  V30 17865 C 1676.33 3.4627 0.172545 0
M  V30 17866 C 1675.39 4.21557 -0.811664 0
M  V30 17867 C 1674.63 5.33488 -0.150546 0
M  V30 17868 O 1674.85 5.60478 1.05926 0
M  V30 17869 O 1673.78 5.95909 -0.847132 0
M  V30 17870 H 1677.61 2.6977 -1.39491 0
M  V30 17871 H 1675.19 1.29562 -0.743909 0
M  V30 17872 H 1677.08 4.17634 0.562103 0
M  V30 17873 H 1675.75 3.07187 1.02067 0
M  V30 17874 H 1674.66 3.52533 -1.25185 0
M  V30 17875 H 1675.99 4.6448 -1.62848 0
M  V30 17876 N 1677.64 0.747635 1.38738 0
M  V30 17877 C 1678.59 0.0917864 2.27815 0
M  V30 17878 C 1679.58 -0.699471 1.44901 0
M  V30 17879 O 1680.77 -0.566404 1.67693 0
M  V30 17880 C 1677.9 -0.805131 3.33725 0
M  V30 17881 C 1676.98 -0.00734503 4.24099 0
M  V30 17882 N 1677.38 1.02602 4.95284 0
M  V30 17883 C 1675.67 -0.235075 4.4538 0
M  V30 17884 C 1676.37 1.50818 5.61808 0
M  V30 17885 N 1675.35 0.824534 5.3731 0
M  V30 17886 H 1679.15 0.883313 2.80312 0
M  V30 17887 H 1676.67 0.583125 1.5157 0
M  V30 17888 H 1678.66 -1.29056 3.96422 0
M  V30 17889 H 1677.32 -1.59568 2.82787 0
M  V30 17890 H 1678.33 1.40768 4.98402 0
M  V30 17891 H 1675.01 -0.99943 4.05361 0
M  V30 17892 H 1676.4 2.36862 6.28766 0
M  V30 17893 N 1679.12 -1.49583 0.496242 0
M  V30 17894 C 1680.05 -2.31885 -0.274139 0
M  V30 17895 C 1681.03 -1.39939 -0.96701 0
M  V30 17896 O 1682.22 -1.6885 -0.959333 0
M  V30 17897 C 1679.35 -3.20332 -1.34181 0
M  V30 17898 C 1678.3 -4.21033 -0.769091 0
M  V30 17899 C 1677.63 -4.98385 -1.93693 0
M  V30 17900 C 1678.93 -5.21764 0.236648 0
M  V30 17901 H 1680.62 -2.9654 0.412824 0
M  V30 17902 H 1678.17 -1.42605 0.199979 0
M  V30 17903 H 1680.12 -3.76718 -1.88843 0
M  V30 17904 H 1678.84 -2.53611 -2.05789 0
M  V30 17905 H 1677.5 -3.65785 -0.244252 0
M  V30 17906 H 1677.15 -4.28115 -2.64058 0
M  V30 17907 H 1676.85 -5.66519 -1.55981 0
M  V30 17908 H 1678.38 -5.57613 -2.48798 0
M  V30 17909 H 1679.79 -5.72871 -0.221672 0
M  V30 17910 H 1678.19 -5.97761 0.529346 0
M  V30 17911 H 1679.26 -4.70964 1.15415 0
M  V30 17912 N 1680.6 -0.229873 -1.55915 0
M  V30 17913 C 1681.83 0.404189 -2.02914 0
M  V30 17914 C 1682.24 1.52758 -1.10952 0
M  V30 17915 O 1681.6 1.82101 -0.120685 0
M  V30 17916 C 1681.65 0.928016 -3.49385 0
M  V30 17917 O 1681.37 -0.150592 -4.37841 0
M  V30 17918 C 1682.87 1.63448 -4.12067 0
M  V30 17919 H 1680.09 0.0980294 -0.663801 0
M  V30 17920 H 1682.64 -0.34876 -2.01504 0
M  V30 17921 H 1680.79 1.63121 -3.51384 0
M  V30 17922 H 1681.21 0.244429 -5.2393 0
M  V30 17923 H 1682.68 1.95292 -5.16299 0
M  V30 17924 H 1683.16 2.55055 -3.57553 0
M  V30 17925 H 1683.76 0.976292 -4.13943 0
M  V30 17926 N 1682.08 1.5754 0.0434337 0
M  V30 17927 C 1683.49 1.77071 0.591836 0
M  V30 17928 C 1683.84 0.85911 1.76391 0
M  V30 17929 O 1682.96 0.0502725 2.16342 0
M  V30 17930 C 1683.56 3.21111 1.08041 0
M  V30 17931 C 1682.12 3.41889 1.57445 0
M  V30 17932 C 1681.27 2.72641 0.506166 0
M  V30 17933 H 1684.22 1.57644 -0.182792 0
M  V30 17934 H 1684.24 3.26834 1.94833 0
M  V30 17935 H 1683.75 3.87435 0.227153 0
M  V30 17936 H 1681.85 2.80721 2.45003 0
M  V30 17937 H 1681.96 4.50452 1.63185 0
M  V30 17938 H 1680.33 2.36002 0.957878 0
M  V30 17939 H 1681.11 3.41638 -0.337389 0
M  V30 17940 N 1683.56 -0.31543 1.54411 0
M  V30 17941 C 1684.8 -1.0524 1.73005 0
M  V30 17942 C 1685.13 -1.87747 0.50808 0
M  V30 17943 O 1684.39 -1.88935 -0.51012 0
M  V30 17944 C 1684.68 -1.99884 2.96279 0
M  V30 17945 C 1684.35 -1.33468 4.30694 0
M  V30 17946 C 1683.01 -1.15087 4.67235 0
M  V30 17947 C 1685.36 -0.858688 5.14078 0
M  V30 17948 C 1682.69 -0.47767 5.84752 0
M  V30 17949 C 1685.04 -0.199278 6.32286 0
M  V30 17950 C 1683.71 -0.00338158 6.675 0
M  V30 17951 H 1682.98 -0.385102 0.63307 0
M  V30 17952 H 1685.63 -0.328714 1.88658 0
M  V30 17953 H 1683.93 -2.78732 2.75347 0
M  V30 17954 H 1685.63 -2.56951 3.07859 0
M  V30 17955 H 1682.22 -1.48779 4.01949 0
M  V30 17956 H 1686.4 -0.98846 4.86357 0
M  V30 17957 H 1681.66 -0.314772 6.10589 0
M  V30 17958 H 1685.83 0.177517 6.96174 0
M  V30 17959 H 1683.46 0.52028 7.58418 0
M  V30 17960 N 1685.03 -1.46622 -0.577906 0
M  V30 17961 C 1686.45 -1.46287 -1.16004 0
M  V30 17962 C 1686.8 -0.206307 -1.95112 0
M  V30 17963 O 1685.92 0.690275 -2.05096 0
M  V30 17964 C 1686.52 -2.65042 -2.1104 0
M  V30 17965 C 1685.08 -2.67733 -2.64567 0
M  V30 17966 C 1684.22 -2.39053 -1.40531 0
M  V30 17967 H 1687.17 -1.54432 -0.365585 0
M  V30 17968 H 1687.19 -2.40834 -2.94583 0
M  V30 17969 H 1686.71 -3.56481 -1.53436 0
M  V30 17970 H 1684.81 -1.80379 -3.26028 0
M  V30 17971 H 1684.92 -3.67836 -3.06974 0
M  V30 17972 H 1683.28 -1.89209 -1.70506 0
M  V30 17973 H 1684.07 -3.32674 -0.847509 0
M  V30 17974 N 1686.51 0.822941 -1.34408 0
M  V30 17975 C 1687.75 1.59269 -1.28112 0
M  V30 17976 C 1688.12 1.91437 0.146924 0
M  V30 17977 O 1689.32 2.66716 0.334053 0
M  V30 17978 C 1687.59 2.85727 -2.14698 0
M  V30 17979 S 1689.15 3.76272 -2.25754 0
M  V30 17980 H 1685.97 0.545903 -0.455534 0
M  V30 17981 H 1688.57 0.972069 -1.6962 0
M  V30 17982 H 1687.27 2.60092 -3.17459 0
M  V30 17983 H 1686.8 3.52786 -1.74086 0
M  V30 17984 H 1688.82 4.75138 -1.43031 0
M  V30 17985 N 1687.99 1.18137 1.04314 0
M  V30 17986 C 1689.24 0.973277 1.77121 0
M  V30 17987 C 1689.56 -0.498558 1.88519 0
M  V30 17988 O 1688.83 -1.36168 1.40837 0
M  V30 17989 H 1687.41 0.35712 0.656105 0
M  V30 17990 H 1690.07 1.48774 1.25906 0
M  V30 17991 H 1689.17 1.40917 2.78476 0
M  V30 17992 N 1689.47 -1.23186 0.98301 0
M  V30 17993 C 1690.72 -1.90979 0.648851 0
M  V30 17994 C 1691.03 -1.77508 -0.82159 0
M  V30 17995 O 1692.24 -2.40128 -1.26692 0
M  V30 17996 C 1690.69 -3.42357 1.10995 0
M  V30 17997 C 1690.3 -3.64483 2.60492 0
M  V30 17998 C 1692.04 -4.1591 0.849653 0
M  V30 17999 C 1689.95 -5.09511 3.00255 0
M  V30 18000 H 1688.88 -0.715125 0.238983 0
M  V30 18001 H 1691.53 -1.39575 1.19126 0
M  V30 18002 H 1689.91 -3.92885 0.495735 0
M  V30 18003 H 1691.09 -3.24491 3.27173 0
M  V30 18004 H 1689.4 -3.04245 2.84296 0
M  V30 18005 H 1692 -5.22784 1.12256 0
M  V30 18006 H 1692.34 -4.15748 -0.214237 0
M  V30 18007 H 1692.88 -3.71379 1.42557 0
M  V30 18008 H 1689.62 -5.14805 4.05778 0
M  V30 18009 H 1689.14 -5.50443 2.38269 0
M  V30 18010 H 1690.81 -5.77862 2.91005 0
M  V30 18011 N 1690.95 -0.754982 -1.38339 0
M  V30 18012 C 1692.19 -0.311762 -2.00086 0
M  V30 18013 C 1692.52 1.10693 -1.59929 0
M  V30 18014 O 1691.78 1.77279 -0.8289 0
M  V30 18015 C 1692.08 -0.383719 -3.55334 0
M  V30 18016 C 1691.74 -1.75826 -4.15206 0
M  V30 18017 C 1690.4 -2.13443 -4.31272 0
M  V30 18018 C 1692.76 -2.65985 -4.4822 0
M  V30 18019 C 1690.08 -3.40689 -4.77649 0
M  V30 18020 C 1692.44 -3.92623 -4.96014 0
M  V30 18021 C 1691.1 -4.30307 -5.10286 0
M  V30 18022 H 1690.37 -0.114082 -0.732166 0
M  V30 18023 H 1693.02 -0.965735 -1.65366 0
M  V30 18024 H 1691.32 0.353817 -3.90199 0
M  V30 18025 H 1693.02 -0.022341 -4.00994 0
M  V30 18026 H 1689.61 -1.45585 -4.03117 0
M  V30 18027 H 1693.79 -2.38188 -4.35408 0
M  V30 18028 H 1689.05 -3.69802 -4.86884 0
M  V30 18029 H 1693.22 -4.62626 -5.20529 0
M  V30 18030 H 1690.85 -5.28968 -5.45982 0
M  V30 18031 N 1692.42 1.49318 -0.504168 0
M  V30 18032 C 1693.37 2.26124 0.291886 0
M  V30 18033 C 1694.36 1.31105 0.932753 0
M  V30 18034 O 1695.55 1.55807 0.839828 0
M  V30 18035 C 1692.68 3.15477 1.35384 0
M  V30 18036 C 1691.77 4.1796 0.719059 0
M  V30 18037 N 1692.16 5.05479 -0.180167 0
M  V30 18038 C 1690.45 4.35116 0.979276 0
M  V30 18039 C 1691.16 5.79152 -0.543837 0
M  V30 18040 N 1690.13 5.43527 0.0889959 0
M  V30 18041 H 1693.93 2.91161 -0.400301 0
M  V30 18042 H 1691.45 1.59207 -0.320454 0
M  V30 18043 H 1693.44 3.69137 1.93762 0
M  V30 18044 H 1692.1 2.51993 2.04767 0
M  V30 18045 H 1693.12 5.14959 -0.551179 0
M  V30 18046 H 1689.79 3.82836 1.66562 0
M  V30 18047 H 1691.18 6.59601 -1.27968 0
M  V30 18048 N 1693.9 0.238138 1.5579 0
M  V30 18049 C 1694.85 -0.665098 2.21009 0
M  V30 18050 C 1695.82 -1.17793 1.17107 0
M  V30 18051 O 1697 -1.234 1.45523 0
M  V30 18052 C 1694.14 -1.86028 2.90667 0
M  V30 18053 C 1693.26 -1.3848 4.09203 0
M  V30 18054 C 1692.39 -2.53885 4.666 0
M  V30 18055 C 1691.43 -2.03155 5.77403 0
M  V30 18056 N 1690.57 -3.11895 6.2902 0
M  V30 18057 H 1695.41 -0.102242 2.97825 0
M  V30 18058 H 1692.95 -0.0387064 1.47049 0
M  V30 18059 H 1694.9 -2.56226 3.29248 0
M  V30 18060 H 1693.53 -2.39575 2.16341 0
M  V30 18061 H 1692.59 -0.577172 3.75996 0
M  V30 18062 H 1693.9 -0.972946 4.89219 0
M  V30 18063 H 1693.05 -3.32139 5.07709 0
M  V30 18064 H 1691.79 -2.98368 3.85782 0
M  V30 18065 H 1690.8 -1.23369 5.3578 0
M  V30 18066 H 1692.02 -1.59653 6.60067 0
M  V30 18067 H 1689.97 -3.55828 5.5111 0
M  V30 18068 H 1689.88 -2.75013 7.04204 0
M  V30 18069 H 1691.15 -3.90234 6.74787 0
M  V30 18070 N 1695.38 -1.57561 -0.0350783 0
M  V30 18071 C 1696.63 -1.89276 -0.728172 0
M  V30 18072 C 1696.96 -0.835137 -1.75326 0
M  V30 18073 O 1696.23 0.150516 -1.93917 0
M  V30 18074 C 1696.52 -3.31638 -1.40316 0
M  V30 18075 C 1696.37 -4.48089 -0.391996 0
M  V30 18076 C 1697.69 -3.72816 -2.33872 0
M  V30 18077 H 1694.81 -0.688381 -0.26325 0
M  V30 18078 H 1697.45 -1.89998 0.00900661 0
M  V30 18079 H 1695.6 -3.31153 -2.0315 0
M  V30 18080 H 1697.27 -4.60706 0.233965 0
M  V30 18081 H 1695.52 -4.32834 0.289305 0
M  V30 18082 H 1696.19 -5.4457 -0.902641 0
M  V30 18083 H 1698.66 -3.74629 -1.81086 0
M  V30 18084 H 1697.54 -4.73245 -2.78084 0
M  V30 18085 H 1697.8 -3.04744 -3.20287 0
M  V30 18086 N 1696.86 0.307236 -1.54576 0
M  V30 18087 C 1697.79 1.40019 -1.81459 0
M  V30 18088 C 1698.8 1.47113 -0.697246 0
M  V30 18089 O 1699.99 1.49544 -0.974626 0
M  V30 18090 C 1697.09 2.78439 -1.93197 0
M  V30 18091 C 1696.27 2.94353 -3.23536 0
M  V30 18092 C 1695.32 4.13232 -3.25769 0
M  V30 18093 O 1694.35 4.05614 -3.99331 0
M  V30 18094 N 1695.55 5.23567 -2.50715 0
M  V30 18095 H 1698.32 1.17317 -2.75784 0
M  V30 18096 H 1695.88 0.497286 -1.54074 0
M  V30 18097 H 1697.87 3.56202 -1.921 0
M  V30 18098 H 1696.44 2.94117 -1.05895 0
M  V30 18099 H 1695.66 2.03754 -3.37458 0
M  V30 18100 H 1696.95 3.01892 -4.09559 0
M  V30 18101 H 1696.35 5.32635 -1.90569 0
M  V30 18102 H 1694.9 5.99687 -2.55379 0
M  V30 18103 N 1698.34 1.46926 0.570122 0
M  V30 18104 C 1699.58 1.53113 1.32982 0
M  V30 18105 C 1699.92 0.187401 1.93294 0
M  V30 18106 O 1699.19 -0.802585 1.77169 0
M  V30 18107 C 1699.47 2.63936 2.44969 0
M  V30 18108 C 1699.33 4.07882 1.8961 0
M  V30 18109 C 1700.65 2.70753 3.46959 0
M  V30 18110 H 1697.76 0.557398 0.482158 0
M  V30 18111 H 1700.41 1.78923 0.639259 0
M  V30 18112 H 1698.56 2.42059 3.03874 0
M  V30 18113 H 1700.23 4.41084 1.35066 0
M  V30 18114 H 1698.47 4.16768 1.20361 0
M  V30 18115 H 1699.14 4.81175 2.70508 0
M  V30 18116 H 1701.62 2.90452 2.97954 0
M  V30 18117 H 1700.49 3.50093 4.2276 0
M  V30 18118 H 1700.76 1.77299 4.04991 0
M  V30 18119 N 1699.82 -0.815801 1.34842 0
M  V30 18120 C 1700.76 -1.94853 1.27024 0
M  V30 18121 C 1701.76 -1.68575 0.166936 0
M  V30 18122 O 1702.96 -1.76905 0.332352 0
M  V30 18123 H 1699.34 -0.640033 0.394794 0
M  V30 18124 H 1701.31 -1.98569 2.2274 0
M  V30 18125 C 1700.06 -3.31474 1.04977 0
M  V30 18126 H 1699.38 -3.52246 1.8911 0
M  V30 18127 H 1700.82 -4.11162 1.03545 0
M  V30 18128 C 1699.28 -3.35995 -0.246708 0
M  V30 18129 O 1699.81 -3.81898 -1.24566 0
M  V30 18130 N 1698.02 -2.89226 -0.282292 0
M  V30 18131 H 1697.56 -2.52063 0.531211 0
M  V30 18132 H 1697.52 -2.92633 -1.1495 0
M  V30 18133 N 1701.29 -1.18689 -1.03686 0
M  V30 18134 C 1702.22 -0.94094 -2.13702 0
M  V30 18135 C 1703.2 0.12277 -1.69656 0
M  V30 18136 O 1704.39 -0.0306085 -1.94176 0
M  V30 18137 C 1701.52 -0.470054 -3.44104 0
M  V30 18138 C 1700.47 -1.47468 -4.01792 0
M  V30 18139 C 1699.8 -0.861174 -5.2772 0
M  V30 18140 C 1701.1 -2.85254 -4.37524 0
M  V30 18141 H 1702.79 -1.86102 -2.34534 0
M  V30 18142 H 1700.34 -0.896207 -1.12713 0
M  V30 18143 H 1702.29 -0.28533 -4.20433 0
M  V30 18144 H 1701.02 0.485604 -3.2297 0
M  V30 18145 H 1699.68 -1.64641 -3.2755 0
M  V30 18146 H 1699.32 0.10179 -5.02897 0
M  V30 18147 H 1699.02 -1.53196 -5.67278 0
M  V30 18148 H 1700.55 -0.687066 -6.06722 0
M  V30 18149 H 1701.96 -2.71711 -5.04823 0
M  V30 18150 H 1700.36 -3.49051 -4.88143 0
M  V30 18151 H 1701.43 -3.38516 -3.47181 0
M  V30 18152 N 1702.77 1.22662 -0.989529 0
M  V30 18153 C 1704.01 1.9305 -0.671653 0
M  V30 18154 C 1704.38 1.75377 0.781465 0
M  V30 18155 O 1705.58 2.39996 1.2106 0
M  V30 18156 C 1703.85 3.41245 -1.0624 0
M  V30 18157 S 1705.41 4.30242 -0.862376 0
M  V30 18158 H 1702.22 0.667204 -0.245682 0
M  V30 18159 H 1704.83 1.48537 -1.2711 0
M  V30 18160 H 1703.53 3.51619 -2.11641 0
M  V30 18161 H 1703.06 3.90764 -0.454611 0
M  V30 18162 H 1705.08 4.95575 0.248897 0
M  V30 18163 N 1704.25 0.762308 1.37937 0
M  V30 18164 C 1705.67 0.440871 1.5339 0
M  V30 18165 C 1705.87 -1.04483 1.72295 0
M  V30 18166 O 1704.92 -1.83078 1.73892 0
M  V30 18167 C 1706.23 1.24772 2.73592 0
M  V30 18168 C 1707.78 1.23867 2.87447 0
M  V30 18169 C 1708.26 2.02866 4.10621 0
M  V30 18170 N 1709.75 2.00171 4.17715 0
M  V30 18171 C 1710.48 2.58086 5.12034 0
M  V30 18172 N 1709.98 3.2475 6.11972 0
M  V30 18173 N 1711.77 2.47968 5.04449 0
M  V30 18174 H 1703.92 1.72506 1.23916 0
M  V30 18175 H 1706.19 0.731791 0.602649 0
M  V30 18176 H 1705.89 2.30016 2.66056 0
M  V30 18177 H 1705.77 0.870485 3.67018 0
M  V30 18178 H 1708.15 0.194255 2.9446 0
M  V30 18179 H 1708.23 1.65548 1.95007 0
M  V30 18180 H 1707.88 3.07323 4.04369 0
M  V30 18181 H 1707.81 1.58574 5.02157 0
M  V30 18182 H 1710.3 1.5163 3.46146 0
M  V30 18183 H 1710.61 3.66339 6.80453 0
M  V30 18184 H 1708.96 3.28846 6.12279 0
M  V30 18185 H 1712.15 1.95509 4.25316 0
M  V30 18186 H 1712.32 2.93398 5.77773 0
M  V30 18187 N 1705.73 -1.49049 0.51208 0
M  V30 18188 C 1706.97 -2.0339 -0.0204801 0
M  V30 18189 C 1707.33 -1.38384 -1.33669 0
M  V30 18190 O 1706.62 -0.514246 -1.8457 0
M  V30 18191 C 1706.82 -3.56734 -0.218125 0
M  V30 18192 C 1706.64 -4.36603 1.07738 0
M  V30 18193 C 1705.41 -4.7821 1.63228 0
M  V30 18194 C 1707.61 -4.74513 1.98349 0
M  V30 18195 N 1705.59 -5.42548 2.87253 0
M  V30 18196 C 1706.97 -5.38684 3.06952 0
M  V30 18197 C 1709.02 -4.56449 1.98893 0
M  V30 18198 C 1707.72 -5.86703 4.1614 0
M  V30 18199 C 1709.75 -5.05437 3.07063 0
M  V30 18200 C 1709.11 -5.69618 4.14385 0
M  V30 18201 H 1705.21 -0.781279 0.0335617 0
M  V30 18202 H 1707.79 -1.82086 0.689395 0
M  V30 18203 H 1705.97 -3.77898 -0.897067 0
M  V30 18204 H 1707.7 -3.97714 -0.748684 0
M  V30 18205 H 1704.45 -4.58768 1.17598 0
M  V30 18206 H 1704.88 -5.79296 3.5035 0
M  V30 18207 H 1709.52 -4.06225 1.17221 0
M  V30 18208 H 1707.24 -6.35942 4.98602 0
M  V30 18209 H 1710.82 -4.93263 3.08517 0
M  V30 18210 H 1709.7 -6.06837 4.96707 0
M  V30 18211 N 1707.21 -0.246397 -1.55662 0
M  V30 18212 C 1708.45 0.378973 -1.98108 0
M  V30 18213 C 1708.77 1.59106 -1.13775 0
M  V30 18214 O 1709.97 2.28754 -1.46232 0
M  V30 18215 C 1708.43 0.725634 -3.52509 0
M  V30 18216 C 1708.04 -0.465024 -4.4558 0
M  V30 18217 C 1709.78 1.31522 -4.03611 0
M  V30 18218 C 1707.69 -0.0945447 -5.91324 0
M  V30 18219 H 1706.62 0.14537 -0.739854 0
M  V30 18220 H 1709.27 -0.346533 -1.80198 0
M  V30 18221 H 1707.65 1.50925 -3.66111 0
M  V30 18222 H 1708.83 -1.24236 -4.43736 0
M  V30 18223 H 1707.14 -0.969507 -4.04956 0
M  V30 18224 H 1709.74 1.60573 -5.1002 0
M  V30 18225 H 1710.08 2.23952 -3.50929 0
M  V30 18226 H 1710.61 0.594515 -3.93332 0
M  V30 18227 H 1707.35 -0.985965 -6.48042 0
M  V30 18228 H 1706.87 0.646601 -5.96305 0
M  V30 18229 H 1708.55 0.323447 -6.46191 0
M  V30 18230 N 1708.68 1.57577 0.026722 0
M  V30 18231 C 1709.63 2.03179 1.03452 0
M  V30 18232 C 1710.62 0.921533 1.31896 0
M  V30 18233 O 1711.81 1.18542 1.31442 0
M  V30 18234 C 1708.94 2.51666 2.33493 0
M  V30 18235 C 1708.02 3.69517 2.08129 0
M  V30 18236 N 1708.42 4.82158 1.52832 0
M  V30 18237 C 1706.71 3.76936 2.38402 0
M  V30 18238 C 1707.41 5.63766 1.43327 0
M  V30 18239 N 1706.39 5.08953 1.90965 0
M  V30 18240 H 1710.19 2.87689 0.601036 0
M  V30 18241 H 1707.71 1.6072 0.232979 0
M  V30 18242 H 1709.7 2.82597 3.06503 0
M  V30 18243 H 1708.36 1.68564 2.77518 0
M  V30 18244 H 1709.37 5.0355 1.21071 0
M  V30 18245 H 1706.05 3.04637 2.85486 0
M  V30 18246 H 1707.44 6.64259 1.01043 0
M  V30 18247 N 1710.16 -0.299034 1.54737 0
M  V30 18248 C 1711.09 -1.39055 1.82199 0
M  V30 18249 C 1712.11 -1.46741 0.705038 0
M  V30 18250 O 1713.3 -1.49025 0.982543 0
M  V30 18251 C 1710.4 -2.7741 1.94671 0
M  V30 18252 C 1709.57 -2.92633 3.25092 0
M  V30 18253 C 1708.63 -4.11499 3.27956 0
M  V30 18254 O 1707.65 -4.03491 4.01477 0
M  V30 18255 N 1708.86 -5.2223 2.53488 0
M  V30 18256 H 1711.62 -1.15852 2.76402 0
M  V30 18257 H 1709.18 -0.489108 1.54335 0
M  V30 18258 H 1711.17 -3.55178 1.93987 0
M  V30 18259 H 1709.74 -2.93552 1.07453 0
M  V30 18260 H 1708.96 -2.01962 3.38534 0
M  V30 18261 H 1710.25 -2.99716 4.11154 0
M  V30 18262 H 1709.65 -5.31617 1.93391 0
M  V30 18263 H 1708.21 -5.98325 2.58555 0
M  V30 18264 N 1711.64 -1.47227 -0.562322 0
M  V30 18265 C 1712.57 -1.55383 -1.6849 0
M  V30 18266 C 1713.58 -0.440437 -1.56729 0
M  V30 18267 O 1714.77 -0.709803 -1.63781 0
M  V30 18268 C 1711.87 -1.43723 -3.06915 0
M  V30 18269 C 1711.05 -2.69541 -3.4448 0
M  V30 18270 C 1710.11 -2.5179 -4.62048 0
M  V30 18271 O 1709.13 -3.25587 -4.66885 0
M  V30 18272 N 1710.33 -1.59282 -5.5822 0
M  V30 18273 H 1713.1 -2.52181 -1.61941 0
M  V30 18274 H 1710.66 -1.43541 -0.748832 0
M  V30 18275 H 1712.65 -1.2959 -3.83391 0
M  V30 18276 H 1711.22 -0.550272 -3.07719 0
M  V30 18277 H 1710.44 -2.98472 -2.57504 0
M  V30 18278 H 1711.73 -3.53079 -3.66351 0
M  V30 18279 H 1711.13 -0.984666 -5.57064 0
M  V30 18280 H 1709.68 -1.51103 -6.34043 0
M  V30 18281 N 1713.12 0.808639 -1.35273 0
M  V30 18282 C 1714.34 1.60219 -1.31699 0
M  V30 18283 C 1714.77 1.87816 0.103386 0
M  V30 18284 O 1714.13 1.46389 1.06957 0
M  V30 18285 C 1714.17 2.9116 -2.12739 0
M  V30 18286 O 1713.28 3.83891 -1.5067 0
M  V30 18287 H 1712.62 0.486742 -0.45164 0
M  V30 18288 H 1715.15 1.00378 -1.78284 0
M  V30 18289 H 1715.16 3.40602 -2.2462 0
M  V30 18290 H 1713.83 2.70399 -3.16002 0
M  V30 18291 H 1712.41 3.42437 -1.47618 0
M  V30 18292 N 1714.6 1.19237 1.03055 0
M  V30 18293 C 1715.82 1.01917 1.80057 0
M  V30 18294 C 1716.24 -0.43214 1.83788 0
M  V30 18295 O 1715.6 -1.30016 1.28071 0
M  V30 18296 C 1715.65 1.57912 3.25186 0
M  V30 18297 O 1715.37 2.97362 3.21725 0
M  V30 18298 C 1716.87 1.45352 4.18793 0
M  V30 18299 H 1714.09 0.359301 0.566696 0
M  V30 18300 H 1716.63 1.58015 1.29814 0
M  V30 18301 H 1714.79 1.05967 3.72625 0
M  V30 18302 H 1715.2 3.23674 4.12717 0
M  V30 18303 H 1716.68 1.89313 5.18521 0
M  V30 18304 H 1717.15 0.40378 4.3734 0
M  V30 18305 H 1717.76 1.96419 3.77226 0
M  V30 18306 N 1716.07 -1.22136 0.99602 0
M  V30 18307 C 1716.98 -2.27869 0.557927 0
M  V30 18308 C 1718 -1.69462 -0.394781 0
M  V30 18309 O 1719.18 -1.99704 -0.26084 0
M  V30 18310 C 1716.24 -3.46501 -0.117434 0
M  V30 18311 C 1715.3 -4.20213 0.878627 0
M  V30 18312 C 1714.54 -5.33181 0.2354 0
M  V30 18313 O 1714.76 -5.62093 -0.969954 0
M  V30 18314 O 1713.69 -5.94486 0.941828 0
M  V30 18315 H 1717.52 -2.67517 1.43765 0
M  V30 18316 H 1715.1 -1.28362 0.764428 0
M  V30 18317 H 1716.99 -4.18476 -0.49559 0
M  V30 18318 H 1715.66 -3.08772 -0.971674 0
M  V30 18319 H 1714.57 -3.50497 1.30777 0
M  V30 18320 H 1715.9 -4.6183 1.70217 0
M  V30 18321 N 1717.55 -0.769612 -1.37531 0
M  V30 18322 C 1718.8 -0.332309 -1.99349 0
M  V30 18323 C 1719.12 1.09432 -1.61399 0
M  V30 18324 O 1718.39 1.75102 -0.878415 0
M  V30 18325 H 1716.97 -0.119879 -0.737318 0
M  V30 18326 H 1719.63 -0.987265 -1.68045 0
M  V30 18327 H 1718.73 -0.408233 -3.09419 0
M  V30 18328 N 1719.03 1.48775 -0.519977 0
M  V30 18329 C 1720.31 1.95429 0.0816701 0
M  V30 18330 C 1720.69 1.46199 1.52279 0
M  V30 18331 O 1720.04 0.684057 2.1802 0
M  V30 18332 C 1720.25 3.48991 -0.0252472 0
M  V30 18333 C 1721.59 4.24372 0.139099 0
M  V30 18334 O 1722.62 3.56166 0.0490322 0
M  V30 18335 O 1721.48 5.45524 0.326426 0
M  V30 18336 H 1718.57 0.822637 0.0848378 0
M  V30 18337 H 1721.12 1.5934 -0.583865 0
M  V30 18338 H 1719.89 3.77514 -1.02951 0
M  V30 18339 H 1719.51 3.91749 0.679588 0
M  V30 18340 N 1720.51 0.254649 1.55529 0
M  V30 18341 C 1721.47 -0.62836 2.20418 0
M  V30 18342 C 1722.47 -1.09691 1.17578 0
M  V30 18343 O 1723.66 -1.00037 1.42612 0
M  V30 18344 C 1720.79 -1.86453 2.85391 0
M  V30 18345 H 1721.99 -0.0621032 2.99836 0
M  V30 18346 H 1719.54 0.00514311 1.56299 0
M  V30 18347 H 1720.27 -2.47182 2.09932 0
M  V30 18348 H 1720.06 -1.53669 3.60733 0
M  V30 18349 H 1721.55 -2.49291 3.35028 0
M  V30 18350 N 1721.99 -1.57589 -0.0183649 0
M  V30 18351 C 1723.26 -1.80938 -0.743021 0
M  V30 18352 C 1723.64 -0.855272 -1.92998 0
M  V30 18353 O 1722.99 0.100181 -2.2828 0
M  V30 18354 C 1723.2 -3.28945 -1.16602 0
M  V30 18355 C 1724.55 -3.94208 -1.5775 0
M  V30 18356 O 1725.57 -3.33159 -1.26031 0
M  V30 18357 O 1724.43 -5.01716 -2.16663 0
M  V30 18358 H 1721.53 -0.744435 -0.360203 0
M  V30 18359 H 1724.07 -1.69699 0.00567963 0
M  V30 18360 H 1722.84 -3.89996 -0.319154 0
M  V30 18361 H 1722.47 -3.45113 -1.9744 0
M  V30 18362 N 1723.46 0.290824 -1.54893 0
M  V30 18363 C 1724.71 1.02244 -1.73865 0
M  V30 18364 C 1725.03 1.88079 -0.537166 0
M  V30 18365 O 1726.23 2.64584 -0.608908 0
M  V30 18366 C 1724.69 1.86762 -3.07649 0
M  V30 18367 C 1724.3 1.0588 -4.35308 0
M  V30 18368 C 1726.04 2.59461 -3.35976 0
M  V30 18369 C 1723.95 1.89734 -5.60138 0
M  V30 18370 H 1722.88 0.385455 -0.648028 0
M  V30 18371 H 1725.53 0.27893 -1.81368 0
M  V30 18372 H 1723.91 2.6514 -2.94137 0
M  V30 18373 H 1725.08 0.320443 -4.59684 0
M  V30 18374 H 1723.4 0.447169 -4.13992 0
M  V30 18375 H 1726 3.22569 -4.26442 0
M  V30 18376 H 1726.34 3.28823 -2.55306 0
M  V30 18377 H 1726.87 1.88126 -3.50505 0
M  V30 18378 H 1723.61 1.24825 -6.43505 0
M  V30 18379 H 1723.13 2.61215 -5.39932 0
M  V30 18380 H 1724.81 2.47535 -5.97775 0
M  V30 18381 N 1724.94 1.47523 0.554506 0
M  V30 18382 C 1726.36 1.33101 0.880699 0
M  V30 18383 C 1726.56 0.323524 1.98886 0
M  V30 18384 O 1725.61 -0.263996 2.51116 0
M  V30 18385 C 1726.93 2.725 1.27138 0
M  V30 18386 C 1728.48 2.80805 1.38266 0
M  V30 18387 C 1728.95 4.20851 1.80688 0
M  V30 18388 N 1730.44 4.23406 1.87834 0
M  V30 18389 C 1731.18 5.28684 2.21993 0
M  V30 18390 N 1730.67 6.44264 2.54746 0
M  V30 18391 N 1732.47 5.16063 2.2279 0
M  V30 18392 H 1724.62 2.11661 -0.177062 0
M  V30 18393 H 1726.88 0.947856 -0.0165508 0
M  V30 18394 H 1726.59 3.47669 0.53093 0
M  V30 18395 H 1726.46 3.04445 2.22695 0
M  V30 18396 H 1728.85 2.05907 2.11391 0
M  V30 18397 H 1728.93 2.52511 0.408901 0
M  V30 18398 H 1728.57 4.96256 1.08131 0
M  V30 18399 H 1728.5 4.46572 2.79071 0
M  V30 18400 H 1730.99 3.40025 1.64897 0
M  V30 18401 H 1731.31 7.20351 2.79846 0
M  V30 18402 H 1729.65 6.4758 2.52321 0
M  V30 18403 H 1732.84 4.24793 1.96642 0
M  V30 18404 H 1733.01 5.98216 2.49081 0
M  V30 18405 N 1726.42 -0.801453 1.357 0
M  V30 18406 C 1727.35 -1.92807 1.31711 0
M  V30 18407 C 1728.33 -1.69028 0.190642 0
M  V30 18408 O 1729.52 -1.90317 0.38641 0
M  V30 18409 C 1726.65 -3.29635 1.09352 0
M  V30 18410 C 1725.6 -3.67908 2.18695 0
M  V30 18411 C 1724.93 -5.02955 1.81494 0
M  V30 18412 C 1726.23 -3.77749 3.60698 0
M  V30 18413 H 1727.92 -1.96401 2.2598 0
M  V30 18414 H 1725.47 -0.943528 1.08782 0
M  V30 18415 H 1727.42 -4.08058 1.052 0
M  V30 18416 H 1726.14 -3.26396 0.115306 0
M  V30 18417 H 1724.8 -2.91775 2.21952 0
M  V30 18418 H 1724.45 -4.96225 0.822776 0
M  V30 18419 H 1724.15 -5.29533 2.54692 0
M  V30 18420 H 1725.67 -5.83811 1.78876 0
M  V30 18421 H 1727.09 -4.4639 3.59734 0
M  V30 18422 H 1725.49 -4.15801 4.327 0
M  V30 18423 H 1726.56 -2.79167 3.96477 0
M  V30 18424 N 1727.9 -1.19782 -1.02421 0
M  V30 18425 C 1729.14 -1.01483 -1.76275 0
M  V30 18426 C 1729.5 0.449171 -1.87083 0
M  V30 18427 O 1728.79 1.32915 -1.38 0
M  V30 18428 C 1728.99 -1.62297 -3.18425 0
M  V30 18429 C 1728.82 -3.14459 -3.21474 0
M  V30 18430 C 1727.59 -3.83389 -3.29152 0
M  V30 18431 C 1729.78 -4.11771 -3.08138 0
M  V30 18432 N 1727.77 -5.22906 -3.21625 0
M  V30 18433 C 1729.14 -5.37916 -3.08296 0
M  V30 18434 C 1731.19 -4.0307 -2.92299 0
M  V30 18435 C 1729.89 -6.56365 -2.9424 0
M  V30 18436 C 1731.92 -5.21134 -2.79594 0
M  V30 18437 C 1731.28 -6.4618 -2.80411 0
M  V30 18438 H 1727.38 -0.425521 -0.656092 0
M  V30 18439 H 1729.97 -1.5183 -1.21884 0
M  V30 18440 H 1728.14 -1.14546 -3.71125 0
M  V30 18441 H 1729.87 -1.37389 -3.80666 0
M  V30 18442 H 1726.62 -3.34205 -3.35565 0
M  V30 18443 H 1727.05 -5.95923 -3.21256 0
M  V30 18444 H 1731.69 -3.07209 -2.90487 0
M  V30 18445 H 1729.41 -7.52408 -2.94802 0
M  V30 18446 H 1732.99 -5.16207 -2.68368 0
M  V30 18447 H 1731.87 -7.36001 -2.70688 0
M  V30 18448 N 1729.38 1.21606 -1.00248 0
M  V30 18449 C 1730.62 1.9089 -0.684765 0
M  V30 18450 C 1730.96 1.77749 0.78224 0
M  V30 18451 O 1730.23 1.15251 1.56676 0
M  V30 18452 C 1730.51 3.42778 -1.1034 0
M  V30 18453 C 1730.37 3.64923 -2.62967 0
M  V30 18454 C 1731.69 4.35064 -0.663877 0
M  V30 18455 H 1728.81 0.693217 -0.250239 0
M  V30 18456 H 1731.45 1.4329 -1.24772 0
M  V30 18457 H 1729.6 3.83449 -0.624415 0
M  V30 18458 H 1731.27 3.33595 -3.18609 0
M  V30 18459 H 1729.51 3.08874 -3.04596 0
M  V30 18460 H 1730.18 4.71335 -2.87311 0
M  V30 18461 H 1732.66 4.01962 -1.07544 0
M  V30 18462 H 1731.54 5.3999 -0.984987 0
M  V30 18463 H 1731.8 4.39954 0.435095 0
M  V30 18464 N 1730.86 0.776895 1.37121 0
M  V30 18465 C 1731.8 0.154521 2.32086 0
M  V30 18466 C 1732.8 -0.679155 1.5519 0
M  V30 18467 O 1734 -0.575641 1.70547 0
M  V30 18468 H 1730.38 0.0311849 0.751353 0
M  V30 18469 H 1732.35 0.971125 2.82156 0
M  V30 18470 C 1731.1 -0.706165 3.40454 0
M  V30 18471 H 1730.42 -0.0740341 3.99731 0
M  V30 18472 H 1731.86 -1.10853 4.09253 0
M  V30 18473 C 1730.32 -1.85901 2.80967 0
M  V30 18474 O 1730.85 -2.95482 2.72128 0
M  V30 18475 N 1729.06 -1.66122 2.38436 0
M  V30 18476 H 1728.6 -0.769915 2.45825 0
M  V30 18477 H 1728.56 -2.43422 1.9898 0
M  V30 18478 N 1732.33 -1.48497 0.527859 0
M  V30 18479 C 1733.58 -2.02099 -0.00699772 0
M  V30 18480 C 1733.9 -1.40742 -1.34969 0
M  V30 18481 O 1733.17 -0.572059 -1.87361 0
M  V30 18482 H 1731.75 -0.746979 -0.00557445 0
M  V30 18483 H 1734.41 -1.82231 0.691209 0
M  V30 18484 H 1733.51 -3.11881 -0.116893 0
M  V30 18485 N 1733.81 -0.262893 -1.55392 0
M  V30 18486 C 1735.05 0.358707 -2.01228 0
M  V30 18487 C 1735.42 1.53958 -1.14722 0
M  V30 18488 O 1736.62 2.22999 -1.50083 0
M  V30 18489 C 1734.89 0.74296 -3.49592 0
M  V30 18490 S 1736.45 1.35282 -4.17426 0
M  V30 18491 H 1733.26 0.112156 -0.702098 0
M  V30 18492 H 1735.87 -0.38187 -1.91734 0
M  V30 18493 H 1734.57 -0.125537 -4.10208 0
M  V30 18494 H 1734.1 1.51531 -3.63045 0
M  V30 18495 H 1736.12 2.64166 -4.20037 0
M  V30 18496 N 1735.29 1.57597 0.0100073 0
M  V30 18497 C 1736.24 2.07788 1.00463 0
M  V30 18498 C 1737.21 0.971101 1.34755 0
M  V30 18499 O 1738.39 1.2429 1.44764 0
M  V30 18500 C 1735.53 2.57769 2.29454 0
M  V30 18501 C 1734.64 3.8231 2.01153 0
M  V30 18502 C 1733.78 4.2083 3.24154 0
M  V30 18503 C 1732.82 5.38236 2.91494 0
M  V30 18504 N 1731.96 5.72096 4.07001 0
M  V30 18505 H 1736.8 2.92504 0.569675 0
M  V30 18506 H 1734.33 1.44607 0.269645 0
M  V30 18507 H 1736.29 2.84821 3.04849 0
M  V30 18508 H 1734.92 1.75942 2.70637 0
M  V30 18509 H 1733.97 3.62227 1.16171 0
M  V30 18510 H 1735.28 4.67811 1.73074 0
M  V30 18511 H 1734.44 4.49111 4.07902 0
M  V30 18512 H 1733.18 3.34019 3.55363 0
M  V30 18513 H 1732.18 5.09688 2.06151 0
M  V30 18514 H 1733.41 6.26716 2.61543 0
M  V30 18515 H 1731.35 4.88243 4.38126 0
M  V30 18516 H 1731.27 6.52148 3.82411 0
M  V30 18517 H 1732.54 6.04964 4.91567 0
M  V30 18518 N 1736.77 -0.282606 1.55045 0
M  V30 18519 C 1737.7 -1.35347 1.90272 0
M  V30 18520 C 1738.68 -1.52001 0.763532 0
M  V30 18521 O 1739.86 -1.65204 1.02085 0
M  V30 18522 C 1736.99 -2.71464 2.16621 0
M  V30 18523 C 1735.95 -2.69554 3.32453 0
M  V30 18524 C 1735.27 -4.09132 3.4426 0
M  V30 18525 C 1736.57 -2.29669 4.69094 0
M  V30 18526 H 1738.27 -1.06113 2.79965 0
M  V30 18527 H 1735.81 -0.509018 1.34703 0
M  V30 18528 H 1737.77 -3.46482 2.39851 0
M  V30 18529 H 1736.49 -3.02261 1.23717 0
M  V30 18530 H 1735.15 -1.96993 3.09175 0
M  V30 18531 H 1734.8 -4.37136 2.4884 0
M  V30 18532 H 1734.5 -4.08751 4.22133 0
M  V30 18533 H 1736.02 -4.85903 3.69771 0
M  V30 18534 H 1737.44 -2.94407 4.91932 0
M  V30 18535 H 1735.83 -2.40467 5.49814 0
M  V30 18536 H 1736.9 -1.24796 4.68566 0
M  V30 18537 N 1738.25 -1.47815 -0.546675 0
M  V30 18538 C 1739.21 -1.6063 -1.63495 0
M  V30 18539 C 1740.21 -0.480661 -1.53448 0
M  V30 18540 O 1741.4 -0.746017 -1.57417 0
M  V30 18541 C 1738.53 -1.56076 -3.03073 0
M  V30 18542 H 1739.72 -2.57652 -1.53478 0
M  V30 18543 H 1737.28 -1.36162 -0.767433 0
M  V30 18544 H 1738.01 -0.604694 -3.18613 0
M  V30 18545 H 1737.8 -2.3778 -3.11774 0
M  V30 18546 H 1739.29 -1.68204 -3.82227 0
M  V30 18547 N 1739.72 0.794246 -1.36123 0
M  V30 18548 C 1740.67 1.92808 -1.30108 0
M  V30 18549 C 1741.67 1.68289 -0.193734 0
M  V30 18550 O 1742.87 1.76354 -0.360454 0
M  V30 18551 H 1739.25 0.633671 -0.404926 0
M  V30 18552 H 1741.22 1.95 -2.2587 0
M  V30 18553 C 1739.97 3.29762 -1.10238 0
M  V30 18554 H 1739.29 3.49193 -1.9469 0
M  V30 18555 H 1740.73 4.09463 -1.10073 0
M  V30 18556 C 1739.19 3.36345 0.193222 0
M  V30 18557 O 1739.72 3.83832 1.18474 0
M  V30 18558 N 1737.92 2.89638 0.236243 0
M  V30 18559 H 1737.47 2.51186 -0.571245 0
M  V30 18560 H 1737.43 2.94424 1.1028 0
M  V30 18561 N 1741.2 1.20323 1.01785 0
M  V30 18562 C 1742.62 0.957818 1.27664 0
M  V30 18563 C 1742.82 -0.363377 1.98196 0
M  V30 18564 O 1741.87 -1.09221 2.27656 0
M  V30 18565 C 1743.19 2.13957 2.11289 0
M  V30 18566 C 1744.73 2.18041 2.2456 0
M  V30 18567 C 1745.21 3.35698 3.11562 0
M  V30 18568 N 1746.7 3.35704 3.1915 0
M  V30 18569 C 1747.44 4.2339 3.86689 0
M  V30 18570 N 1746.93 5.21251 4.56366 0
M  V30 18571 N 1748.72 4.11235 3.832 0
M  V30 18572 H 1740.88 2.05309 0.544242 0
M  V30 18573 H 1743.14 0.898335 0.302817 0
M  V30 18574 H 1742.84 3.09631 1.66798 0
M  V30 18575 H 1742.72 2.11946 3.12024 0
M  V30 18576 H 1745.11 1.22931 2.68276 0
M  V30 18577 H 1745.19 2.24101 1.23338 0
M  V30 18578 H 1744.83 4.31095 2.68551 0
M  V30 18579 H 1744.76 3.26876 4.12868 0
M  V30 18580 H 1747.25 2.64874 2.69537 0
M  V30 18581 H 1747.56 5.84485 5.05566 0
M  V30 18582 H 1745.91 5.25189 4.55195 0
M  V30 18583 H 1749.1 3.34052 3.27913 0
M  V30 18584 H 1749.27 4.79782 4.35561 0
M  V30 18585 N 1742.68 -1.21073 1.00892 0
M  V30 18586 C 1743.93 -1.89866 0.69248 0
M  V30 18587 C 1744.25 -1.7874 -0.779562 0
M  V30 18588 O 1743.52 -1.18482 -1.56009 0
M  V30 18589 H 1742.1 -0.702799 0.253145 0
M  V30 18590 H 1744.76 -1.47075 1.27887 0
M  V30 18591 H 1743.86 -2.96673 0.969098 0
M  V30 18592 N 1744.16 -0.784156 -1.36707 0
M  V30 18593 C 1745.12 -0.184957 -2.28453 0
M  V30 18594 C 1746.12 0.614637 -1.4859 0
M  V30 18595 O 1747.31 0.436403 -1.68645 0
M  V30 18596 C 1744.44 0.744662 -3.32667 0
M  V30 18597 H 1745.64 -0.993861 -2.82953 0
M  V30 18598 H 1743.19 -0.553214 -1.46182 0
M  V30 18599 H 1743.92 1.57811 -2.83313 0
M  V30 18600 H 1743.71 0.173313 -3.91717 0
M  V30 18601 H 1745.2 1.15894 -4.01196 0
M  V30 18602 N 1745.64 1.48215 -0.535727 0
M  V30 18603 C 1746.55 2.33494 0.227577 0
M  V30 18604 C 1747.56 1.4685 0.933327 0
M  V30 18605 O 1748.74 1.7982 0.907008 0
M  V30 18606 C 1745.8 3.23092 1.25747 0
M  V30 18607 C 1744.86 4.25613 0.561454 0
M  V30 18608 C 1744.1 5.1093 1.54228 0
M  V30 18609 O 1744.32 4.98325 2.77539 0
M  V30 18610 O 1743.25 5.92158 1.07852 0
M  V30 18611 H 1747.08 3.0002 -0.471375 0
M  V30 18612 H 1744.67 1.46427 -0.296579 0
M  V30 18613 H 1746.55 3.78498 1.8525 0
M  V30 18614 H 1745.22 2.5922 1.93872 0
M  V30 18615 H 1744.13 3.74026 -0.0742194 0
M  V30 18616 H 1745.46 4.92138 -0.0779649 0
M  V30 18617 N 1747.11 0.27113 1.5525 0
M  V30 18618 C 1748.04 -0.61179 2.25343 0
M  V30 18619 C 1749.03 -1.16208 1.24216 0
M  V30 18620 O 1750.21 -1.19696 1.52927 0
M  V30 18621 C 1747.34 -1.7978 2.97147 0
M  V30 18622 C 1746.29 -1.37922 4.05169 0
M  V30 18623 C 1745.62 -2.64801 4.64526 0
M  V30 18624 C 1746.92 -0.532357 5.1958 0
M  V30 18625 H 1748.61 -0.0272538 2.99388 0
M  V30 18626 H 1746.16 -0.0116681 1.43995 0
M  V30 18627 H 1748.11 -2.42132 3.44891 0
M  V30 18628 H 1746.84 -2.40811 2.20631 0
M  V30 18629 H 1745.5 -0.778918 3.5823 0
M  V30 18630 H 1745.14 -3.24081 3.84682 0
M  V30 18631 H 1744.84 -2.37507 5.37461 0
M  V30 18632 H 1746.37 -3.28009 5.15017 0
M  V30 18633 H 1747.78 -1.06078 5.63401 0
M  V30 18634 H 1746.18 -0.35447 5.99052 0
M  V30 18635 H 1747.25 0.44981 4.82809 0
M  V30 18636 N 1748.59 -1.576 -0.00164943 0
M  V30 18637 C 1749.52 -2.11354 -0.992554 0
M  V30 18638 C 1750.5 -1.0223 -1.35952 0
M  V30 18639 O 1751.69 -1.29904 -1.44356 0
M  V30 18640 C 1748.82 -2.61549 -2.28494 0
M  V30 18641 C 1747.77 -3.75185 -2.05962 0
M  V30 18642 C 1747.1 -4.11688 -3.412 0
M  V30 18643 C 1748.4 -5.02526 -1.42355 0
M  V30 18644 H 1750.09 -2.94398 -0.544986 0
M  V30 18645 H 1747.64 -1.4162 -0.260702 0
M  V30 18646 H 1749.59 -2.97782 -2.98168 0
M  V30 18647 H 1748.32 -1.75625 -2.75361 0
M  V30 18648 H 1746.97 -3.39343 -1.38714 0
M  V30 18649 H 1746.62 -3.22789 -3.85767 0
M  V30 18650 H 1746.32 -4.88246 -3.2694 0
M  V30 18651 H 1747.85 -4.50478 -4.12192 0
M  V30 18652 H 1749.26 -5.3654 -2.01984 0
M  V30 18653 H 1747.66 -5.83878 -1.38589 0
M  V30 18654 H 1748.73 -4.83308 -0.392565 0
M  V30 18655 N 1750.07 0.274379 -1.55193 0
M  V30 18656 C 1751.32 1.00766 -1.75995 0
M  V30 18657 C 1751.65 1.8599 -0.558679 0
M  V30 18658 O 1750.92 1.8937 0.443784 0
M  V30 18659 C 1751.21 1.89137 -3.0643 0
M  V30 18660 C 1751.06 1.06914 -4.36909 0
M  V30 18661 C 1752.38 2.87869 -3.32896 0
M  V30 18662 H 1749.5 0.364915 -0.640317 0
M  V30 18663 H 1752.14 0.280156 -1.87923 0
M  V30 18664 H 1750.29 2.51166 -2.96391 0
M  V30 18665 H 1751.96 0.469666 -4.58903 0
M  V30 18666 H 1750.21 0.372566 -4.32197 0
M  V30 18667 H 1750.88 1.72063 -5.24498 0
M  V30 18668 H 1753.35 2.35974 -3.42718 0
M  V30 18669 H 1752.23 3.46845 -4.25429 0
M  V30 18670 H 1752.49 3.62921 -2.52469 0
M  V30 18671 N 1751.55 1.48103 0.538828 0
M  V30 18672 C 1752.48 1.64856 1.65363 0
M  V30 18673 C 1753.46 0.497579 1.6266 0
M  V30 18674 O 1754.64 0.729088 1.79994 0
M  V30 18675 C 1751.77 1.67984 3.03971 0
M  V30 18676 C 1750.73 2.82494 3.21529 0
M  V30 18677 C 1750.05 2.70706 4.6111 0
M  V30 18678 C 1751.35 4.23892 3.05145 0
M  V30 18679 H 1753.05 2.58183 1.51598 0
M  V30 18680 H 1750.59 1.24249 0.727886 0
M  V30 18681 H 1752.55 1.78294 3.81824 0
M  V30 18682 H 1751.27 0.712299 3.18738 0
M  V30 18683 H 1749.93 2.71725 2.46091 0
M  V30 18684 H 1749.58 1.7194 4.727 0
M  V30 18685 H 1749.28 3.47539 4.73804 0
M  V30 18686 H 1750.8 2.82971 5.41073 0
M  V30 18687 H 1752.22 4.3554 3.72797 0
M  V30 18688 H 1750.61 5.01654 3.29338 0
M  V30 18689 H 1751.68 4.40973 2.01671 0
M  V30 18690 N 1753.03 -0.787016 1.36542 0
M  V30 18691 C 1753.96 -1.91399 1.33749 0
M  V30 18692 C 1754.94 -1.68817 0.208559 0
M  V30 18693 O 1756.12 -1.89896 0.406574 0
M  V30 18694 C 1753.25 -3.28457 1.12842 0
M  V30 18695 C 1752.21 -3.65568 2.22585 0
M  V30 18696 C 1751.53 -5.01002 1.86818 0
M  V30 18697 C 1752.83 -3.73902 3.64684 0
M  V30 18698 H 1754.53 -1.93993 2.2805 0
M  V30 18699 H 1752.07 -0.931937 1.09777 0
M  V30 18700 H 1754.03 -4.06919 1.09522 0
M  V30 18701 H 1752.75 -3.26256 0.149918 0
M  V30 18702 H 1751.41 -2.89405 2.25035 0
M  V30 18703 H 1751.06 -4.95325 0.875361 0
M  V30 18704 H 1750.76 -5.26802 2.60294 0
M  V30 18705 H 1752.28 -5.81881 1.85058 0
M  V30 18706 H 1753.69 -4.4255 3.64448 0
M  V30 18707 H 1752.09 -4.11188 4.37086 0
M  V30 18708 H 1753.16 -2.74946 3.99416 0
M  V30 18709 N 1754.5 -1.20861 -1.01145 0
M  V30 18710 C 1755.75 -1.02343 -1.75082 0
M  V30 18711 C 1756.08 0.44278 -1.89085 0
M  V30 18712 O 1755.36 1.32867 -1.42045 0
M  V30 18713 C 1755.64 -1.71368 -3.1671 0
M  V30 18714 C 1755.49 -3.25466 -3.1047 0
M  V30 18715 C 1756.81 -1.45097 -4.15494 0
M  V30 18716 H 1753.93 -0.373198 -0.635525 0
M  V30 18717 H 1756.57 -1.48947 -1.17961 0
M  V30 18718 H 1754.72 -1.31746 -3.6548 0
M  V30 18719 H 1756.4 -3.74415 -2.69464 0
M  V30 18720 H 1754.64 -3.56104 -2.47735 0
M  V30 18721 H 1755.31 -3.68924 -4.10608 0
M  V30 18722 H 1757.79 -1.7948 -3.75401 0
M  V30 18723 H 1756.66 -1.95917 -5.12745 0
M  V30 18724 H 1756.92 -0.379628 -4.40467 0
M  V30 18725 N 1755.98 1.20536 -1.01532 0
M  V30 18726 C 1756.93 2.2531 -0.577786 0
M  V30 18727 C 1757.92 1.65017 0.382843 0
M  V30 18728 O 1759.13 1.78214 0.252904 0
M  V30 18729 H 1755.51 0.732872 -0.168532 0
M  V30 18730 H 1757.48 2.59544 -1.4724 0
M  V30 18731 C 1756.23 3.47631 0.0694263 0
M  V30 18732 H 1755.55 3.94302 -0.660748 0
M  V30 18733 H 1756.99 4.22645 0.338706 0
M  V30 18734 C 1755.45 3.1031 1.31185 0
M  V30 18735 O 1755.98 3.21729 2.40527 0
M  V30 18736 N 1754.18 2.64871 1.19547 0
M  V30 18737 H 1753.73 2.55779 0.305741 0
M  V30 18738 H 1753.69 2.4027 2.02775 0
M  V30 18739 N 1757.46 0.791395 1.36289 0
M  V30 18740 C 1758.41 0.164218 2.27408 0
M  V30 18741 C 1759.39 -0.653018 1.47053 0
M  V30 18742 O 1760.59 -0.512767 1.6941 0
M  V30 18743 C 1757.72 -0.698551 3.36118 0
M  V30 18744 C 1756.8 0.127583 4.23908 0
M  V30 18745 N 1757.19 1.18307 4.91769 0
M  V30 18746 C 1755.49 -0.0932621 4.45902 0
M  V30 18747 C 1756.19 1.68616 5.56726 0
M  V30 18748 N 1755.17 0.995058 5.34415 0
M  V30 18749 H 1758.97 0.972045 2.7736 0
M  V30 18750 H 1756.48 0.63105 1.49638 0
M  V30 18751 H 1758.48 -1.16379 4.00327 0
M  V30 18752 H 1757.14 -1.5049 2.8772 0
M  V30 18753 H 1758.15 1.56553 4.93672 0
M  V30 18754 H 1754.83 -0.869962 4.08336 0
M  V30 18755 H 1756.22 2.56745 6.20912 0
M  V30 18756 N 1758.94 -1.47929 0.54358 0
M  V30 18757 C 1760.19 -2.02095 0.0144379 0
M  V30 18758 C 1760.51 -1.42166 -1.33469 0
M  V30 18759 O 1759.78 -0.591899 -1.86744 0
M  V30 18760 H 1758.36 -0.746996 0.00234858 0
M  V30 18761 H 1761.02 -1.81488 0.710498 0
M  V30 18762 H 1760.12 -3.11987 -0.0838074 0
M  V30 18763 N 1760.42 -0.27936 -1.55104 0
M  V30 18764 C 1761.35 0.639572 -2.20096 0
M  V30 18765 C 1762.36 1.11423 -1.18696 0
M  V30 18766 O 1763.55 1.0354 -1.45402 0
M  V30 18767 C 1760.65 1.88494 -2.81644 0
M  V30 18768 C 1759.82 1.55639 -4.08773 0
M  V30 18769 C 1758.88 2.65466 -4.54328 0
M  V30 18770 O 1757.91 2.31473 -5.20008 0
M  V30 18771 N 1759.11 3.95606 -4.24825 0
M  V30 18772 H 1761.88 0.0833048 -2.99584 0
M  V30 18773 H 1759.44 -0.100637 -1.61587 0
M  V30 18774 H 1761.43 2.61272 -3.09062 0
M  V30 18775 H 1760 2.35015 -2.06123 0
M  V30 18776 H 1759.22 0.662253 -3.88597 0
M  V30 18777 H 1760.51 1.31196 -4.91594 0
M  V30 18778 H 1759.91 4.26043 -3.72161 0
M  V30 18779 H 1758.46 4.64748 -4.57004 0
M  V30 18780 N 1761.9 1.57599 -0.0067085 0
M  V30 18781 C 1763.14 1.90481 0.675393 0
M  V30 18782 C 1763.46 0.881481 1.73939 0
M  V30 18783 O 1762.73 -0.0801928 1.95736 0
M  V30 18784 H 1761.31 0.703048 0.252452 0
M  V30 18785 H 1763.98 1.94838 -0.04922 0
M  V30 18786 H 1763.07 2.90441 1.14239 0
M  V30 18787 N 1763.37 -0.266145 1.55336 0
M  V30 18788 C 1764.62 -0.994648 1.7547 0
M  V30 18789 C 1764.94 -1.87201 0.56702 0
M  V30 18790 O 1766.14 -2.63582 0.650924 0
M  V30 18791 C 1764.6 -1.81844 3.10581 0
M  V30 18792 C 1764.21 -0.989413 4.36938 0
M  V30 18793 C 1765.95 -2.54084 3.40061 0
M  V30 18794 C 1763.86 -1.80799 5.63086 0
M  V30 18795 H 1762.79 -0.375097 0.654078 0
M  V30 18796 H 1765.44 -0.25004 1.81788 0
M  V30 18797 H 1763.82 -2.60427 2.98318 0
M  V30 18798 H 1764.99 -0.247271 4.60136 0
M  V30 18799 H 1763.31 -0.38125 4.14651 0
M  V30 18800 H 1765.91 -3.15744 4.3152 0
M  V30 18801 H 1766.25 -3.2472 2.60505 0
M  V30 18802 H 1766.78 -1.82526 3.53453 0
M  V30 18803 H 1763.52 -1.14571 6.4541 0
M  V30 18804 H 1763.04 -2.52592 5.4402 0
M  V30 18805 H 1764.72 -2.37994 6.01638 0
M  V30 18806 N 1764.85 -1.48386 -0.530967 0
M  V30 18807 C 1765.76 -1.65516 -1.66257 0
M  V30 18808 C 1766.78 -0.5377 -1.65483 0
M  V30 18809 O 1767.95 -0.808642 -1.84453 0
M  V30 18810 C 1765.02 -1.68999 -3.02722 0
M  V30 18811 C 1764.08 -2.92365 -3.14358 0
M  V30 18812 C 1763.31 -2.95672 -4.44313 0
M  V30 18813 O 1763.54 -2.07417 -5.31352 0
M  V30 18814 O 1762.47 -3.87831 -4.60294 0
M  V30 18815 H 1766.3 -2.61321 -1.54742 0
M  V30 18816 H 1763.88 -1.31776 -0.703946 0
M  V30 18817 H 1765.76 -1.73816 -3.83883 0
M  V30 18818 H 1764.44 -0.763675 -3.14563 0
M  V30 18819 H 1763.34 -2.93081 -2.32496 0
M  V30 18820 H 1764.68 -3.84378 -3.07433 0
M  V30 18821 N 1766.33 0.779763 -1.36958 0
M  V30 18822 C 1767.58 1.54031 -1.31918 0
M  V30 18823 C 1767.91 1.9395 0.0985685 0
M  V30 18824 O 1767.18 1.63458 1.05413 0
M  V30 18825 C 1767.47 2.81083 -2.25088 0
M  V30 18826 C 1767.32 2.47469 -3.75605 0
M  V30 18827 C 1768.64 3.82968 -2.1685 0
M  V30 18828 H 1765.76 0.558806 -0.480526 0
M  V30 18829 H 1768.4 0.895152 -1.67592 0
M  V30 18830 H 1766.55 3.36135 -1.94796 0
M  V30 18831 H 1768.22 1.98393 -4.16459 0
M  V30 18832 H 1766.46 1.80276 -3.94567 0
M  V30 18833 H 1767.14 3.38255 -4.3622 0
M  V30 18834 H 1769.61 3.37388 -2.43534 0
M  V30 18835 H 1768.49 4.69601 -2.84194 0
M  V30 18836 H 1768.75 4.26642 -1.15885 0
M  V30 18837 N 1767.81 1.21396 1.00503 0
M  V30 18838 C 1768.74 0.930982 2.09441 0
M  V30 18839 C 1769.75 -0.0857912 1.62574 0
M  V30 18840 O 1770.94 0.146701 1.77896 0
M  V30 18841 C 1768.04 0.376344 3.36804 0
M  V30 18842 C 1767.21 1.44744 4.12756 0
M  V30 18843 C 1766.27 0.902051 5.18411 0
M  V30 18844 O 1765.3 1.58548 5.46673 0
M  V30 18845 N 1766.5 -0.282718 5.79811 0
M  V30 18846 H 1769.27 1.86879 2.343 0
M  V30 18847 H 1766.83 1.1192 1.16985 0
M  V30 18848 H 1768.82 -0.00292068 4.047 0
M  V30 18849 H 1767.39 -0.466283 3.09103 0
M  V30 18850 H 1766.61 2.00056 3.39664 0
M  V30 18851 H 1767.9 2.16846 4.60277 0
M  V30 18852 H 1767.3 -0.855 5.59201 0
M  V30 18853 H 1765.85 -0.603494 6.49 0
M  V30 18854 N 1769.29 -1.19996 1.0217 0
M  V30 18855 C 1770.53 -1.89776 0.715047 0
M  V30 18856 C 1770.86 -1.78971 -0.753862 0
M  V30 18857 O 1770.14 -1.17729 -1.54823 0
M  V30 18858 C 1770.42 -3.4098 1.15779 0
M  V30 18859 C 1770.28 -3.60693 2.68739 0
M  V30 18860 C 1771.59 -4.33953 0.733008 0
M  V30 18861 H 1768.71 -0.689148 0.261236 0
M  V30 18862 H 1771.36 -1.41287 1.27035 0
M  V30 18863 H 1769.51 -3.82407 0.68534 0
M  V30 18864 H 1771.18 -3.28484 3.23876 0
M  V30 18865 H 1769.42 -3.0399 3.09472 0
M  V30 18866 H 1770.09 -4.66704 2.94773 0
M  V30 18867 H 1772.57 -4.002 1.13925 0
M  V30 18868 H 1771.44 -5.38355 1.07077 0
M  V30 18869 H 1771.7 -4.4059 -0.365047 0
M  V30 18870 N 1770.76 -0.798611 -1.35867 0
M  V30 18871 C 1772.18 -0.481385 -1.52167 0
M  V30 18872 C 1772.38 0.99878 -1.75005 0
M  V30 18873 O 1771.44 1.78404 -1.78685 0
M  V30 18874 C 1772.75 -1.31982 -2.70188 0
M  V30 18875 C 1774.3 -1.31445 -2.84062 0
M  V30 18876 C 1774.77 -2.13682 -4.05098 0
M  V30 18877 N 1776.26 -2.11176 -4.12261 0
M  V30 18878 C 1777 -2.71571 -5.05012 0
M  V30 18879 N 1776.49 -3.40861 -6.03147 0
M  V30 18880 N 1778.29 -2.61255 -4.97697 0
M  V30 18881 H 1770.44 -1.75731 -1.19299 0
M  V30 18882 H 1772.7 -0.747512 -0.583034 0
M  V30 18883 H 1772.41 -2.36989 -2.59864 0
M  V30 18884 H 1772.28 -0.967488 -3.64581 0
M  V30 18885 H 1774.67 -0.272258 -2.93841 0
M  V30 18886 H 1774.75 -1.7066 -1.90549 0
M  V30 18887 H 1774.39 -3.17937 -3.96079 0
M  V30 18888 H 1774.32 -1.71832 -4.97776 0
M  V30 18889 H 1776.81 -1.60754 -3.42004 0
M  V30 18890 H 1777.13 -3.84251 -6.705 0
M  V30 18891 H 1775.47 -3.44964 -6.03345 0
M  V30 18892 H 1778.66 -2.06717 -4.19983 0
M  V30 18893 H 1778.84 -3.08613 -5.69791 0
M  V30 18894 N 1772.24 1.47639 -0.551417 0
M  V30 18895 C 1773.49 2.02084 -0.0251553 0
M  V30 18896 C 1773.81 1.42872 1.32713 0
M  V30 18897 O 1773.08 0.601794 1.86428 0
M  V30 18898 H 1771.66 0.746973 -0.00631005 0
M  V30 18899 H 1774.32 1.81109 -0.720113 0
M  V30 18900 H 1773.42 3.12028 0.0672608 0
M  V30 18901 N 1773.72 0.287581 1.54954 0
M  V30 18902 C 1774.65 -0.587855 2.25979 0
M  V30 18903 C 1775.63 -1.14884 1.25442 0
M  V30 18904 O 1776.82 -1.18067 1.54188 0
M  V30 18905 C 1773.95 -1.76618 2.99037 0
M  V30 18906 C 1772.9 -1.33617 4.06609 0
M  V30 18907 C 1772.23 -2.59859 4.67309 0
M  V30 18908 C 1773.53 -0.477219 5.20115 0
M  V30 18909 H 1775.22 0.00450183 2.994 0
M  V30 18910 H 1772.77 0.00360521 1.44 0
M  V30 18911 H 1774.72 -2.38461 3.4744 0
M  V30 18912 H 1773.44 -2.38457 2.23172 0
M  V30 18913 H 1772.1 -0.74088 3.59036 0
M  V30 18914 H 1771.75 -3.19983 3.88098 0
M  V30 18915 H 1771.45 -2.31793 5.3995 0
M  V30 18916 H 1772.97 -3.22528 5.18467 0
M  V30 18917 H 1774.39 -1.00096 5.64494 0
M  V30 18918 H 1772.79 -0.290913 5.99394 0
M  V30 18919 H 1773.86 0.500993 4.82305 0
M  V30 18920 N 1775.2 -1.57593 0.0150662 0
M  V30 18921 C 1776.11 -2.12807 -0.987437 0
M  V30 18922 C 1777.12 -1.07691 -1.3667 0
M  V30 18923 O 1778.3 -1.39674 -1.45097 0
M  V30 18924 C 1775.37 -2.63276 -2.2558 0
M  V30 18925 C 1774.43 -3.83053 -1.93827 0
M  V30 18926 C 1773.66 -4.31106 -3.14616 0
M  V30 18927 O 1773.88 -3.78405 -4.26809 0
M  V30 18928 O 1772.82 -5.23104 -2.97734 0
M  V30 18929 H 1776.64 -2.98715 -0.548015 0
M  V30 18930 H 1774.23 -1.47991 -0.20469 0
M  V30 18931 H 1776.11 -2.95869 -3.00066 0
M  V30 18932 H 1774.78 -1.80459 -2.68731 0
M  V30 18933 H 1773.69 -3.55409 -1.1677 0
M  V30 18934 H 1775.02 -4.6699 -1.55502 0
M  V30 18935 N 1776.68 0.257904 -1.55475 0
M  V30 18936 C 1777.9 1.00531 -1.80834 0
M  V30 18937 C 1778.32 1.79369 -0.589263 0
M  V30 18938 O 1777.68 1.77068 0.441935 0
M  V30 18939 C 1777.73 1.95194 -3.04272 0
M  V30 18940 O 1777.45 1.19548 -4.21473 0
M  V30 18941 C 1778.95 2.81624 -3.42349 0
M  V30 18942 H 1776.17 0.296315 -0.602029 0
M  V30 18943 H 1778.71 0.284118 -2.02517 0
M  V30 18944 H 1776.87 2.62756 -2.84672 0
M  V30 18945 H 1777.28 1.83483 -4.9136 0
M  V30 18946 H 1778.76 3.43815 -4.31851 0
M  V30 18947 H 1779.23 3.52172 -2.62434 0
M  V30 18948 H 1779.84 2.19531 -3.64261 0
M  V30 18949 N 1778.15 1.48666 0.52309 0
M  V30 18950 C 1779.06 1.66396 1.65377 0
M  V30 18951 C 1780.08 0.546469 1.65196 0
M  V30 18952 O 1781.26 0.818413 1.84022 0
M  V30 18953 C 1778.32 1.70602 3.01821 0
M  V30 18954 C 1777.38 2.94028 3.12803 0
M  V30 18955 C 1776.62 2.98024 4.42739 0
M  V30 18956 O 1776.84 2.10232 5.30244 0
M  V30 18957 O 1775.77 3.90266 4.58231 0
M  V30 18958 H 1779.6 2.62138 1.53354 0
M  V30 18959 H 1777.18 1.32148 0.696948 0
M  V30 18960 H 1779.07 1.75849 3.82956 0
M  V30 18961 H 1777.74 0.780346 3.14153 0
M  V30 18962 H 1776.65 2.9431 2.30938 0
M  V30 18963 H 1777.98 3.86003 3.0539 0
M  V30 18964 N 1779.63 -0.772489 1.37369 0
M  V30 18965 C 1780.58 -1.88575 1.33073 0
M  V30 18966 C 1781.55 -1.64935 0.19641 0
M  V30 18967 O 1782.73 -1.86862 0.385651 0
M  V30 18968 C 1779.87 -3.25628 1.14281 0
M  V30 18969 C 1778.99 -3.61227 2.36936 0
M  V30 18970 C 1778.12 -4.87486 2.11023 0
M  V30 18971 C 1777.16 -5.15814 3.29548 0
M  V30 18972 N 1776.3 -6.33261 3.03191 0
M  V30 18973 H 1781.14 -1.91583 2.28255 0
M  V30 18974 H 1778.68 -0.936654 1.13425 0
M  V30 18975 H 1780.63 -4.04688 1.01407 0
M  V30 18976 H 1779.26 -3.21998 0.227467 0
M  V30 18977 H 1778.32 -2.77158 2.60552 0
M  V30 18978 H 1779.63 -3.781 3.25333 0
M  V30 18979 H 1778.78 -5.74449 1.95176 0
M  V30 18980 H 1777.52 -4.72716 1.19962 0
M  V30 18981 H 1776.53 -4.27328 3.45935 0
M  V30 18982 H 1777.75 -5.32493 4.21459 0
M  V30 18983 H 1775.7 -6.19851 2.14759 0
M  V30 18984 H 1775.61 -6.50546 3.85131 0
M  V30 18985 H 1776.88 -7.23162 2.9096 0
M  V30 18986 N 1781.11 -1.21927 -0.998575 0
M  V30 18987 C 1782.36 -1.03456 -1.73147 0
M  V30 18988 C 1782.67 0.431472 -1.90782 0
M  V30 18989 O 1783.88 0.73573 -2.61341 0
M  V30 18990 C 1782.33 -1.80256 -3.11506 0
M  V30 18991 C 1781.94 -3.31071 -3.01821 0
M  V30 18992 C 1783.69 -1.70214 -3.8888 0
M  V30 18993 C 1781.59 -4.00335 -4.35299 0
M  V30 18994 H 1780.52 -0.3835 -0.649187 0
M  V30 18995 H 1783.17 -1.45724 -1.11521 0
M  V30 18996 H 1781.56 -1.30784 -3.7378 0
M  V30 18997 H 1782.73 -3.87895 -2.48746 0
M  V30 18998 H 1781.05 -3.41727 -2.37932 0
M  V30 18999 H 1783.64 -2.19289 -4.87664 0
M  V30 19000 H 1783.99 -0.661522 -4.1101 0
M  V30 19001 H 1784.52 -2.17199 -3.33271 0
M  V30 19002 H 1781.26 -5.04626 -4.18369 0
M  V30 19003 H 1780.78 -3.48301 -4.8831 0
M  V30 19004 H 1782.46 -4.05611 -5.04072 0
M  V30 19005 N 1782.59 1.19452 -1.02805 0
M  V30 19006 C 1783.54 2.22644 -0.608134 0
M  V30 19007 C 1784.51 1.6175 0.377639 0
M  V30 19008 O 1785.69 1.88815 0.274487 0
M  V30 19009 C 1782.83 3.45081 0.0357589 0
M  V30 19010 C 1781.94 4.20363 -0.995955 0
M  V30 19011 C 1781.08 5.30224 -0.321911 0
M  V30 19012 C 1780.12 5.97261 -1.33959 0
M  V30 19013 N 1779.25 6.98687 -0.691414 0
M  V30 19014 H 1784.09 2.57921 -1.49268 0
M  V30 19015 H 1781.63 1.26722 -0.746985 0
M  V30 19016 H 1783.59 4.15016 0.426309 0
M  V30 19017 H 1782.22 3.10463 0.883889 0
M  V30 19018 H 1781.27 3.49381 -1.50457 0
M  V30 19019 H 1782.58 4.6636 -1.76945 0
M  V30 19020 H 1781.74 6.06574 0.123528 0
M  V30 19021 H 1780.48 4.85294 0.483792 0
M  V30 19022 H 1779.48 5.19662 -1.7953 0
M  V30 19023 H 1780.71 6.44275 -2.14678 0
M  V30 19024 H 1778.65 6.55932 0.0942121 0
M  V30 19025 H 1778.57 7.42871 -1.40281 0
M  V30 19026 H 1779.84 7.79032 -0.269948 0
M  V30 19027 N 1784.07 0.805805 1.35442 0
M  V30 19028 C 1785.31 0.391434 2.00617 0
M  V30 19029 C 1785.67 -1.022 1.6254 0
M  V30 19030 O 1786.87 -1.53834 2.20428 0
M  V30 19031 C 1785.14 0.568324 3.52852 0
M  V30 19032 S 1786.7 0.24426 4.3812 0
M  V30 19033 H 1783.52 0.148698 0.695277 0
M  V30 19034 H 1786.12 1.04788 1.65044 0
M  V30 19035 H 1784.83 1.59702 3.78052 0
M  V30 19036 H 1784.36 -0.103475 3.93264 0
M  V30 19037 H 1786.37 -0.948351 4.87053 0
M  V30 19038 N 1785.54 -1.47344 0.559239 0
M  V30 19039 C 1786.78 -2.04364 0.0383239 0
M  V30 19040 C 1787.15 -1.42399 -1.28788 0
M  V30 19041 O 1788.35 -1.90478 -1.89661 0
M  V30 19042 C 1786.62 -3.57364 -0.0509258 0
M  V30 19043 S 1788.18 -4.35736 -0.51767 0
M  V30 19044 H 1785 -0.71052 0.0261238 0
M  V30 19045 H 1787.6 -1.80689 0.746433 0
M  V30 19046 H 1786.3 -3.99987 0.918631 0
M  V30 19047 H 1785.83 -3.85539 -0.782527 0
M  V30 19048 H 1787.85 -4.63291 -1.77697 0
M  V30 19049 N 1787.02 -0.295795 -1.54799 0
M  V30 19050 C 1787.95 0.575863 -2.26288 0
M  V30 19051 C 1788.93 1.14217 -1.26049 0
M  V30 19052 O 1790.12 1.17248 -1.54812 0
M  V30 19053 C 1787.25 1.7503 -2.9997 0
M  V30 19054 C 1786.2 1.31459 -4.07311 0
M  V30 19055 C 1785.53 2.57377 -4.6868 0
M  V30 19056 C 1786.83 0.449629 -5.20361 0
M  V30 19057 H 1788.52 -0.0203797 -2.99393 0
M  V30 19058 H 1786.07 -0.0112418 -1.43996 0
M  V30 19059 H 1788.02 2.36615 -3.487 0
M  V30 19060 H 1786.75 2.3727 -2.24434 0
M  V30 19061 H 1785.4 0.721829 -3.59423 0
M  V30 19062 H 1785.05 3.1792 -3.89789 0
M  V30 19063 H 1784.75 2.28927 -5.41171 0
M  V30 19064 H 1786.28 3.19774 -5.2017 0
M  V30 19065 H 1787.69 0.971014 -5.65017 0
M  V30 19066 H 1786.09 0.259121 -5.9954 0
M  V30 19067 H 1787.16 -0.526564 -4.82032 0
M  V30 19068 N 1788.5 1.57583 -0.0234236 0
M  V30 19069 C 1789.43 2.12907 0.958804 0
M  V30 19070 C 1790.41 1.0438 1.34309 0
M  V30 19071 O 1791.6 1.32184 1.42271 0
M  V30 19072 C 1788.73 2.65151 2.24304 0
M  V30 19073 C 1787.68 3.78414 1.99967 0
M  V30 19074 C 1787.01 4.17064 3.34607 0
M  V30 19075 C 1788.31 5.04727 1.34342 0
M  V30 19076 H 1790 2.95228 0.498081 0
M  V30 19077 H 1787.55 1.42017 0.238138 0
M  V30 19078 H 1789.5 3.02487 2.93393 0
M  V30 19079 H 1788.22 1.79983 2.72532 0
M  V30 19080 H 1786.88 3.41507 1.33298 0
M  V30 19081 H 1786.53 3.28886 3.80583 0
M  V30 19082 H 1786.23 4.93385 3.19132 0
M  V30 19083 H 1787.76 4.56978 4.04973 0
M  V30 19084 H 1789.17 5.39686 1.93422 0
M  V30 19085 H 1787.57 5.86009 1.29282 0
M  V30 19086 H 1788.64 4.83872 0.315625 0
M  V30 19087 N 1789.98 -0.249655 1.5561 0
M  V30 19088 C 1790.91 -1.31281 1.931 0
M  V30 19089 C 1791.89 -1.50347 0.795601 0
M  V30 19090 O 1793.08 -1.63001 1.05566 0
M  V30 19091 C 1790.21 -2.66808 2.2233 0
M  V30 19092 C 1789.16 -2.62441 3.38096 0
M  V30 19093 C 1788.49 -4.01738 3.52861 0
M  V30 19094 C 1789.79 -2.19667 4.7386 0
M  V30 19095 H 1791.48 -1.00151 2.82153 0
M  V30 19096 H 1789.03 -0.480331 1.35753 0
M  V30 19097 H 1790.98 -3.41316 2.47146 0
M  V30 19098 H 1789.7 -2.99569 1.30101 0
M  V30 19099 H 1788.36 -1.90391 3.13284 0
M  V30 19100 H 1788.01 -4.31759 2.58056 0
M  V30 19101 H 1787.71 -3.99705 4.30708 0
M  V30 19102 H 1789.23 -4.7795 3.79995 0
M  V30 19103 H 1790.65 -2.83906 4.98067 0
M  V30 19104 H 1789.04 -2.28751 5.54791 0
M  V30 19105 H 1790.11 -1.14829 4.71108 0
M  V30 19106 N 1791.46 -1.48941 -0.515198 0
M  V30 19107 C 1792.73 -1.48205 -1.27651 0
M  V30 19108 C 1793.11 -0.201866 -2.10133 0
M  V30 19109 O 1792.46 0.816115 -2.13429 0
M  V30 19110 C 1792.67 -2.75274 -2.14535 0
M  V30 19111 C 1794.02 -3.24198 -2.74192 0
M  V30 19112 O 1795.04 -2.76293 -2.24813 0
M  V30 19113 O 1793.9 -4.07593 -3.64047 0
M  V30 19114 H 1791 -0.592546 -0.576904 0
M  V30 19115 H 1793.54 -1.6119 -0.530636 0
M  V30 19116 H 1792.32 -3.59949 -1.53469 0
M  V30 19117 H 1791.94 -2.6508 -2.96342 0
M  V30 19118 N 1792.94 0.765193 -1.37777 0
M  V30 19119 C 1794.16 1.55948 -1.3673 0
M  V30 19120 C 1794.59 1.8805 0.0435817 0
M  V30 19121 O 1793.94 1.49718 1.02246 0
M  V30 19122 C 1793.99 2.84245 -2.21895 0
M  V30 19123 O 1793.1 3.78903 -1.62807 0
M  V30 19124 H 1792.44 0.472127 -0.466897 0
M  V30 19125 H 1794.97 0.946556 -1.81388 0
M  V30 19126 H 1794.98 3.33284 -2.35342 0
M  V30 19127 H 1793.65 2.60209 -3.24444 0
M  V30 19128 H 1792.23 3.37568 -1.58437 0
M  V30 19129 N 1794.41 1.22455 0.992094 0
M  V30 19130 C 1795.66 1.05115 1.73432 0
M  V30 19131 C 1795.99 -0.412642 1.89765 0
M  V30 19132 O 1795.27 -1.3059 1.44141 0
M  V30 19133 C 1795.55 1.76385 3.13943 0
M  V30 19134 C 1795.4 3.30364 3.05253 0
M  V30 19135 C 1796.72 1.51688 4.13133 0
M  V30 19136 H 1793.84 0.383261 0.629508 0
M  V30 19137 H 1796.48 1.50805 1.15576 0
M  V30 19138 H 1794.63 1.37544 3.63337 0
M  V30 19139 H 1796.31 3.78655 2.63474 0
M  V30 19140 H 1794.55 3.6 2.42038 0
M  V30 19141 H 1795.22 3.75409 4.04687 0
M  V30 19142 H 1797.7 1.85429 3.72499 0
M  V30 19143 H 1796.57 2.04049 5.09564 0
M  V30 19144 H 1796.83 0.449654 4.39807 0
M  V30 19145 N 1795.89 -1.18905 1.03437 0
M  V30 19146 C 1797.13 -1.90424 0.74284 0
M  V30 19147 C 1797.5 -1.78157 -0.715837 0
M  V30 19148 O 1798.7 -2.44323 -1.12069 0
M  V30 19149 C 1796.97 -3.37067 1.18831 0
M  V30 19150 S 1798.53 -4.26745 1.02146 0
M  V30 19151 H 1795.34 -0.657626 0.270275 0
M  V30 19152 H 1797.95 -1.43717 1.32535 0
M  V30 19153 H 1796.65 -3.43522 2.24545 0
M  V30 19154 H 1796.18 -3.88808 0.599328 0
M  V30 19155 H 1798.2 -4.96158 -0.0647961 0
M  V30 19156 N 1797.37 -0.812977 -1.35013 0
M  V30 19157 C 1798.59 -0.407969 -2.03348 0
M  V30 19158 C 1799.02 0.975148 -1.60849 0
M  V30 19159 O 1798.38 1.63267 -0.788256 0
M  V30 19160 C 1798.43 -0.506754 -3.57022 0
M  V30 19161 O 1797.53 0.477322 -4.09628 0
M  V30 19162 H 1796.87 -0.169416 -0.642023 0
M  V30 19163 H 1799.4 -1.10064 -1.72474 0
M  V30 19164 H 1799.41 -0.378883 -4.06237 0
M  V30 19165 H 1798.09 -1.51557 -3.87302 0
M  V30 19166 H 1796.66 0.309161 -3.71616 0
M  V30 19167 N 1798.85 1.47045 -0.567045 0
M  V30 19168 C 1800.08 2.06835 -0.0518309 0
M  V30 19169 C 1800.49 1.41823 1.24626 0
M  V30 19170 O 1799.85 0.518102 1.74991 0
M  V30 19171 C 1799.9 3.6124 0.137142 0
M  V30 19172 O 1799.62 4.23817 -1.10955 0
M  V30 19173 C 1801.12 4.37921 0.688511 0
M  V30 19174 H 1798.34 0.669111 -0.0503138 0
M  V30 19175 H 1800.88 1.88906 -0.783258 0
M  V30 19176 H 1799.04 3.7865 0.818733 0
M  V30 19177 H 1799.45 5.16484 -0.913475 0
M  V30 19178 H 1800.93 5.46603 0.769984 0
M  V30 19179 H 1801.4 4.0488 1.70201 0
M  V30 19180 H 1802.01 4.25279 0.0423004 0
M  V30 19181 N 1800.33 0.304 1.5464 0
M  V30 19182 C 1801.57 -0.305185 1.99378 0
M  V30 19183 C 1801.89 -1.54773 1.19602 0
M  V30 19184 O 1803.09 -2.23169 1.54621 0
M  V30 19185 C 1801.55 -0.594303 3.54959 0
M  V30 19186 C 1801.16 0.630078 4.43547 0
M  V30 19187 C 1802.9 -1.16452 4.08215 0
M  V30 19188 C 1800.81 0.313946 5.90566 0
M  V30 19189 H 1799.74 -0.11781 0.744739 0
M  V30 19190 H 1802.39 0.413174 1.78788 0
M  V30 19191 H 1800.77 -1.37233 3.71461 0
M  V30 19192 H 1801.95 1.40619 4.3882 0
M  V30 19193 H 1800.26 1.11914 4.01079 0
M  V30 19194 H 1802.86 -1.41534 5.15628 0
M  V30 19195 H 1803.2 -2.10773 3.58999 0
M  V30 19196 H 1803.73 -0.448123 3.95268 0
M  V30 19197 H 1800.47 1.2258 6.43937 0
M  V30 19198 H 1799.99 -0.424841 5.98294 0
M  V30 19199 H 1801.67 -0.083395 6.46946 0
M  V30 19200 N 1801.8 -1.57568 0.0317802 0
M  V30 19201 C 1802.71 -2.13842 -0.964811 0
M  V30 19202 C 1803.73 -1.09134 -1.3552 0
M  V30 19203 O 1804.91 -1.41205 -1.43608 0
M  V30 19204 C 1801.97 -2.65654 -2.22775 0
M  V30 19205 C 1801.03 -3.85087 -1.89753 0
M  V30 19206 C 1800.26 -4.34419 -3.10026 0
M  V30 19207 O 1800.49 -3.8291 -4.22772 0
M  V30 19208 O 1799.42 -5.26233 -2.92169 0
M  V30 19209 H 1803.25 -2.99279 -0.516302 0
M  V30 19210 H 1800.83 -1.482 -0.188982 0
M  V30 19211 H 1802.71 -2.99035 -2.96911 0
M  V30 19212 H 1801.39 -1.83299 -2.66802 0
M  V30 19213 H 1800.3 -3.56628 -1.12994 0
M  V30 19214 H 1801.63 -4.68613 -1.50541 0
M  V30 19215 N 1803.28 0.241399 -1.5574 0
M  V30 19216 C 1804.23 1.31868 -1.91608 0
M  V30 19217 C 1805.22 1.49545 -0.795774 0
M  V30 19218 O 1806.43 1.50955 -0.980442 0
M  V30 19219 H 1802.81 0.441685 -0.60862 0
M  V30 19220 H 1804.78 0.98887 -2.81538 0
M  V30 19221 C 1803.53 2.66602 -2.23201 0
M  V30 19222 H 1802.85 2.53802 -3.08909 0
M  V30 19223 H 1804.29 3.40842 -2.52196 0
M  V30 19224 C 1802.75 3.20112 -1.05024 0
M  V30 19225 O 1803.28 4.0057 -0.301069 0
M  V30 19226 N 1801.48 2.78214 -0.839381 0
M  V30 19227 H 1801.03 2.12894 -1.4503 0
M  V30 19228 H 1800.99 3.1436 -0.050362 0
M  V30 19229 N 1804.76 1.49212 0.507292 0
M  V30 19230 C 1806.01 1.58616 1.26368 0
M  V30 19231 C 1806.34 0.269215 1.92325 0
M  V30 19232 O 1805.61 -0.72672 1.80414 0
M  V30 19233 C 1805.9 2.74088 2.33555 0
M  V30 19234 C 1805.75 4.15557 1.7214 0
M  V30 19235 C 1807.07 2.85225 3.35164 0
M  V30 19236 H 1804.19 0.577347 0.458083 0
M  V30 19237 H 1806.83 1.81473 0.562797 0
M  V30 19238 H 1804.98 2.5473 2.93335 0
M  V30 19239 H 1806.65 4.46416 1.16236 0
M  V30 19240 H 1804.9 4.21498 1.02576 0
M  V30 19241 H 1805.57 4.92215 2.49856 0
M  V30 19242 H 1808.04 3.02828 2.85367 0
M  V30 19243 H 1806.92 3.67709 4.07531 0
M  V30 19244 H 1807.18 1.94316 3.97107 0
M  V30 19245 N 1806.24 -0.757876 1.38181 0
M  V30 19246 C 1807.17 -1.87937 1.29441 0
M  V30 19247 C 1808.15 -1.61685 0.172246 0
M  V30 19248 O 1809.33 -1.85244 0.348836 0
M  V30 19249 C 1806.46 -3.23459 1.00459 0
M  V30 19250 C 1805.51 -3.68604 2.14554 0
M  V30 19251 S 1806.34 -3.80645 3.76656 0
M  V30 19252 C 1807.5 -5.18993 3.49853 0
M  V30 19253 H 1807.73 -1.95064 2.2436 0
M  V30 19254 H 1805.26 -0.920415 1.23967 0
M  V30 19255 H 1807.22 -4.01725 0.844209 0
M  V30 19256 H 1805.88 -3.14016 0.0726505 0
M  V30 19257 H 1805.07 -4.66892 1.8981 0
M  V30 19258 H 1804.68 -2.97479 2.26677 0
M  V30 19259 H 1806.97 -6.0461 3.05701 0
M  V30 19260 H 1807.91 -5.48755 4.47519 0
M  V30 19261 H 1808.32 -4.87587 2.84463 0
M  V30 19262 N 1807.72 -1.22979 -0.985586 0
M  V30 19263 C 1808.68 -1.00763 -2.05862 0
M  V30 19264 C 1809.68 0.02864 -1.60774 0
M  V30 19265 O 1810.87 -0.210593 -1.72922 0
M  V30 19266 C 1808 -0.523547 -3.36856 0
M  V30 19267 H 1809.19 -1.95982 -2.27004 0
M  V30 19268 H 1806.75 -1.0495 -1.15824 0
M  V30 19269 H 1807.48 0.432658 -3.21401 0
M  V30 19270 H 1807.27 -1.27127 -3.70919 0
M  V30 19271 H 1808.76 -0.388591 -4.15788 0
M  V30 19272 N 1809.19 1.18355 -1.04066 0
M  V30 19273 C 1810.42 1.92275 -0.76406 0
M  V30 19274 C 1810.84 1.76176 0.678777 0
M  V30 19275 O 1810.19 1.0914 1.46269 0
M  V30 19276 C 1810.25 3.43686 -1.12083 0
M  V30 19277 O 1809.97 3.59277 -2.50702 0
M  V30 19278 C 1811.47 4.34705 -0.868726 0
M  V30 19279 H 1808.69 0.610406 -0.278649 0
M  V30 19280 H 1811.23 1.50153 -1.38832 0
M  V30 19281 H 1809.39 3.83596 -0.541528 0
M  V30 19282 H 1809.8 4.53007 -2.64357 0
M  V30 19283 H 1811.27 5.39497 -1.16821 0
M  V30 19284 H 1811.75 4.3876 0.196501 0
M  V30 19285 H 1812.36 4.00491 -1.43132 0
M  V30 19286 N 1810.67 0.820125 1.3458 0
M  V30 19287 C 1811.9 0.419764 2.02597 0
M  V30 19288 C 1812.32 -0.973439 1.6177 0
M  V30 19289 O 1811.67 -1.6295 0.821791 0
M  V30 19290 C 1811.72 0.509104 3.57897 0
M  V30 19291 O 1811.44 1.84739 3.97244 0
M  V30 19292 C 1812.95 0.103283 4.4318 0
M  V30 19293 H 1810.17 0.168803 0.64942 0
M  V30 19294 H 1812.71 1.10751 1.71914 0
M  V30 19295 H 1810.86 -0.130526 3.8718 0
M  V30 19296 H 1811.28 1.81967 4.91923 0
M  V30 19297 H 1812.75 0.216884 5.51574 0
M  V30 19298 H 1813.23 -0.952888 4.28738 0
M  V30 19299 H 1813.84 0.716601 4.19219 0
M  V30 19300 N 1812.15 -1.46743 0.574835 0
M  V30 19301 C 1813.08 -2.33012 -0.150836 0
M  V30 19302 C 1814.06 -1.44868 -0.891472 0
M  V30 19303 O 1815.25 -1.73698 -0.868481 0
M  V30 19304 C 1812.38 -3.26995 -1.17012 0
M  V30 19305 C 1811.33 -4.24518 -0.544829 0
M  V30 19306 C 1810.66 -5.07951 -1.67002 0
M  V30 19307 C 1811.96 -5.19776 0.512891 0
M  V30 19308 H 1813.65 -2.93935 0.569433 0
M  V30 19309 H 1811.2 -1.41344 0.275289 0
M  V30 19310 H 1813.15 -3.86198 -1.68609 0
M  V30 19311 H 1811.87 -2.64163 -1.92056 0
M  V30 19312 H 1810.53 -3.66566 -0.0500133 0
M  V30 19313 H 1810.18 -4.4151 -2.40993 0
M  V30 19314 H 1809.88 -5.73991 -1.25732 0
M  V30 19315 H 1811.4 -5.70017 -2.1889 0
M  V30 19316 H 1812.82 -5.73241 0.0823064 0
M  V30 19317 H 1811.22 -5.94114 0.845462 0
M  V30 19318 H 1812.29 -4.64184 1.40217 0
M  V30 19319 N 1813.63 -0.312197 -1.54477 0
M  V30 19320 C 1815.04 0.178189 -1.85848 0
M  V30 19321 C 1815.39 1.52534 -1.23401 0
M  V30 19322 O 1814.52 2.09661 -0.535822 0
M  V30 19323 C 1815.11 0.330099 -3.37188 0
M  V30 19324 C 1813.67 0.764703 -3.6855 0
M  V30 19325 C 1812.82 -0.120348 -2.77039 0
M  V30 19326 H 1815.77 -0.532853 -1.49487 0
M  V30 19327 H 1815.79 1.16287 -3.62295 0
M  V30 19328 H 1815.3 -0.650527 -3.82609 0
M  V30 19329 H 1813.4 1.75548 -3.28654 0
M  V30 19330 H 1813.51 0.576331 -4.75621 0
M  V30 19331 H 1811.88 0.402229 -2.51504 0
M  V30 19332 H 1812.66 -1.09753 -3.25283 0
M  V30 19333 N 1815.11 1.57549 -0.040136 0
M  V30 19334 C 1816.35 1.9187 0.634838 0
M  V30 19335 C 1816.68 0.918178 1.7203 0
M  V30 19336 O 1815.95 -0.0386563 1.95862 0
M  V30 19337 H 1814.53 0.708245 0.237483 0
M  V30 19338 H 1817.19 1.9469 -0.0905369 0
M  V30 19339 H 1816.28 2.92799 1.08053 0
M  V30 19340 N 1816.58 -0.233136 1.55866 0
M  V30 19341 C 1817.51 -1.29225 1.94482 0
M  V30 19342 C 1818.5 -1.49495 0.811503 0
M  V30 19343 O 1819.68 -1.61872 1.07289 0
M  V30 19344 C 1816.81 -2.64435 2.25147 0
M  V30 19345 C 1815.76 -2.5884 3.4086 0
M  V30 19346 C 1815.09 -3.97973 3.57102 0
M  V30 19347 C 1816.39 -2.14629 4.76164 0
M  V30 19348 H 1818.08 -0.971527 2.83199 0
M  V30 19349 H 1815.63 -0.465905 1.36255 0
M  V30 19350 H 1817.58 -3.38676 2.50752 0
M  V30 19351 H 1816.31 -2.98172 1.33271 0
M  V30 19352 H 1814.97 -1.87057 3.15286 0
M  V30 19353 H 1814.61 -4.28998 2.62621 0
M  V30 19354 H 1814.31 -3.95114 4.34924 0
M  V30 19355 H 1815.84 -4.73893 3.85043 0
M  V30 19356 H 1817.25 -2.78607 5.0105 0
M  V30 19357 H 1815.65 -2.22853 5.57186 0
M  V30 19358 H 1816.72 -1.09826 4.72299 0
M  V30 19359 N 1818.06 -1.49479 -0.499372 0
M  V30 19360 C 1818.99 -1.69182 -1.60934 0
M  V30 19361 C 1819.97 -0.54053 -1.61283 0
M  V30 19362 O 1821.16 -0.776554 -1.77998 0
M  V30 19363 C 1818.29 -1.75985 -2.99411 0
M  V30 19364 C 1817.24 -2.9092 -3.13926 0
M  V30 19365 C 1816.57 -2.82837 -4.5377 0
M  V30 19366 C 1817.87 -4.31833 -2.93799 0
M  V30 19367 H 1819.56 -2.62112 -1.44699 0
M  V30 19368 H 1817.11 -1.26135 -0.694688 0
M  V30 19369 H 1819.06 -1.88354 -3.76962 0
M  V30 19370 H 1817.79 -0.796557 -3.16737 0
M  V30 19371 H 1816.45 -2.78155 -2.388 0
M  V30 19372 H 1816.09 -1.84412 -4.67976 0
M  V30 19373 H 1815.79 -3.59979 -4.64423 0
M  V30 19374 H 1817.32 -2.97217 -5.3338 0
M  V30 19375 H 1818.73 -4.45271 -3.61119 0
M  V30 19376 H 1817.13 -5.10209 -3.15922 0
M  V30 19377 H 1818.2 -4.46165 -1.89908 0
M  V30 19378 N 1819.54 0.750537 -1.38581 0
M  V30 19379 C 1820.77 1.53978 -1.38196 0
M  V30 19380 C 1821.18 1.8878 0.0274976 0
M  V30 19381 O 1820.54 1.52997 0.994894 0
M  V30 19382 C 1820.59 2.83702 -2.24043 0
M  V30 19383 O 1820.31 2.50384 -3.59499 0
M  V30 19384 C 1821.81 3.77823 -2.31872 0
M  V30 19385 H 1819.03 0.476345 -0.472585 0
M  V30 19386 H 1821.58 0.928634 -1.82199 0
M  V30 19387 H 1819.73 3.41187 -1.83494 0
M  V30 19388 H 1820.15 3.33605 -4.04732 0
M  V30 19389 H 1821.62 4.65788 -2.96218 0
M  V30 19390 H 1822.1 4.18474 -1.33327 0
M  V30 19391 H 1822.7 3.26262 -2.72824 0
M  V30 19392 N 1821.02 1.235 0.979051 0
M  V30 19393 C 1822.27 1.06949 1.72307 0
M  V30 19394 C 1822.6 -0.392491 1.90192 0
M  V30 19395 O 1821.87 -1.29054 1.45518 0
M  V30 19396 C 1822.16 1.79705 3.12055 0
M  V30 19397 C 1822.01 3.33583 3.01732 0
M  V30 19398 C 1823.33 1.56062 4.11501 0
M  V30 19399 H 1820.45 0.389917 0.625407 0
M  V30 19400 H 1823.09 1.52022 1.1397 0
M  V30 19401 H 1821.24 1.4139 3.61858 0
M  V30 19402 H 1822.91 3.81428 2.59443 0
M  V30 19403 H 1821.15 3.62547 2.38206 0
M  V30 19404 H 1821.83 3.79681 4.00683 0
M  V30 19405 H 1824.3 1.8937 3.70511 0
M  V30 19406 H 1823.18 2.09442 5.07371 0
M  V30 19407 H 1823.44 0.496276 4.39306 0
M  V30 19408 N 1822.5 -1.17802 1.04693 0
M  V30 19409 C 1823.44 -2.21648 0.643478 0
M  V30 19410 C 1824.41 -1.6233 -0.351858 0
M  V30 19411 O 1825.6 -1.89228 -0.244414 0
M  V30 19412 C 1822.74 -3.45095 0.019145 0
M  V30 19413 C 1821.85 -4.18725 1.06271 0
M  V30 19414 C 1820.99 -5.29644 0.406224 0
M  V30 19415 C 1820.03 -5.95055 1.43444 0
M  V30 19416 N 1819.16 -6.97499 0.802482 0
M  V30 19417 H 1824 -2.55513 1.53352 0
M  V30 19418 H 1821.54 -1.25518 0.767051 0
M  V30 19419 H 1823.5 -4.15642 -0.36023 0
M  V30 19420 H 1822.13 -3.1183 -0.834386 0
M  V30 19421 H 1821.18 -3.46943 1.55996 0
M  V30 19422 H 1822.49 -4.63486 1.84342 0
M  V30 19423 H 1821.65 -6.06694 -0.027012 0
M  V30 19424 H 1820.39 -4.86003 -0.406525 0
M  V30 19425 H 1819.39 -5.1674 1.87775 0
M  V30 19426 H 1820.62 -6.40778 2.249 0
M  V30 19427 H 1818.56 -6.55999 0.010153 0
M  V30 19428 H 1818.48 -7.40545 1.52081 0
M  V30 19429 H 1819.75 -7.78504 0.393852 0
M  V30 19430 N 1823.98 -0.827251 -1.34143 0
M  V30 19431 C 1824.93 -0.224453 -2.26893 0
M  V30 19432 C 1825.91 0.6138 -1.48732 0
M  V30 19433 O 1827.1 0.467671 -1.7071 0
M  V30 19434 C 1824.23 0.60919 -3.37852 0
M  V30 19435 C 1823.32 -0.23993 -4.23421 0
M  V30 19436 N 1823.71 -1.31304 -4.8846 0
M  V30 19437 C 1822.01 -0.0249939 -4.45993 0
M  V30 19438 C 1822.71 -1.83317 -5.5206 0
M  V30 19439 N 1821.68 -1.1364 -5.31589 0
M  V30 19440 H 1825.48 -1.04524 -2.74685 0
M  V30 19441 H 1823 -0.670503 -1.47912 0
M  V30 19442 H 1825 1.05724 -4.03272 0
M  V30 19443 H 1823.66 1.42809 -2.91609 0
M  V30 19444 H 1824.67 -1.69587 -4.89347 0
M  V30 19445 H 1821.34 0.761393 -4.10499 0
M  V30 19446 H 1822.73 -2.73118 -6.13886 0
M  V30 19447 N 1825.45 1.46436 -0.582609 0
M  V30 19448 C 1826.68 2.06469 -0.0736587 0
M  V30 19449 C 1827.09 1.43193 1.23662 0
M  V30 19450 O 1826.43 0.531376 1.75847 0
M  V30 19451 C 1826.5 3.59114 0.166531 0
M  V30 19452 C 1826.16 4.44581 -1.05814 0
M  V30 19453 C 1827.16 4.81125 -1.97016 0
M  V30 19454 C 1824.84 4.85718 -1.27996 0
M  V30 19455 C 1826.84 5.57632 -3.08747 0
M  V30 19456 C 1824.52 5.61986 -2.40032 0
M  V30 19457 C 1825.52 5.97856 -3.30237 0
M  V30 19458 O 1825.21 6.72582 -4.40328 0
M  V30 19459 H 1824.94 0.673802 -0.0544673 0
M  V30 19460 H 1827.5 1.89053 -0.803005 0
M  V30 19461 H 1825.73 3.74837 0.950489 0
M  V30 19462 H 1827.41 4.01075 0.62398 0
M  V30 19463 H 1828.18 4.49922 -1.81094 0
M  V30 19464 H 1824.06 4.57249 -0.586917 0
M  V30 19465 H 1827.6 5.85549 -3.7918 0
M  V30 19466 H 1823.5 5.92602 -2.55917 0
M  V30 19467 H 1824.27 6.91006 -4.38694 0
M  V30 19468 N 1826.93 0.320385 1.54309 0
M  V30 19469 C 1827.86 -0.539789 2.27175 0
M  V30 19470 C 1828.84 -1.12198 1.2785 0
M  V30 19471 O 1830.03 -1.1477 1.56657 0
M  V30 19472 C 1827.16 -1.70236 3.02716 0
M  V30 19473 C 1826.11 -1.24962 4.09351 0
M  V30 19474 C 1825.44 -2.49888 4.72715 0
M  V30 19475 C 1826.74 -0.366788 5.21011 0
M  V30 19476 H 1828.43 0.0680079 2.99323 0
M  V30 19477 H 1825.98 0.0341488 1.4396 0
M  V30 19478 H 1827.93 -2.31037 3.5242 0
M  V30 19479 H 1826.65 -2.33669 2.2818 0
M  V30 19480 H 1825.31 -0.664556 3.60526 0
M  V30 19481 H 1824.96 -3.11679 3.94798 0
M  V30 19482 H 1824.66 -2.20288 5.44745 0
M  V30 19483 H 1826.19 -3.11458 5.25192 0
M  V30 19484 H 1827.6 -0.881001 5.6649 0
M  V30 19485 H 1826 -0.163707 5.99877 0
M  V30 19486 H 1827.07 0.603185 4.81134 0
M  V30 19487 N 1828.41 -1.57525 0.0484906 0
M  V30 19488 C 1829.63 -1.97309 -0.639062 0
M  V30 19489 C 1830.06 -0.925753 -1.63742 0
M  V30 19490 O 1829.42 0.111304 -1.80958 0
M  V30 19491 C 1829.47 -3.36168 -1.30475 0
M  V30 19492 O 1828.57 -3.33903 -2.42038 0
M  V30 19493 H 1827.91 -0.642824 -0.166351 0
M  V30 19494 H 1830.44 -2.0427 0.116095 0
M  V30 19495 H 1830.45 -3.72835 -1.65705 0
M  V30 19496 H 1829.13 -4.11933 -0.573057 0
M  V30 19497 H 1827.7 -3.08978 -2.08775 0
M  V30 19498 N 1829.89 0.224867 -1.55988 0
M  V30 19499 C 1831.3 0.792138 -1.69062 0
M  V30 19500 C 1831.65 1.85123 -0.649908 0
M  V30 19501 O 1830.77 2.15477 0.199614 0
M  V30 19502 C 1831.37 1.44361 -3.06505 0
M  V30 19503 C 1829.93 1.95831 -3.21446 0
M  V30 19504 C 1829.08 0.81728 -2.64983 0
M  V30 19505 H 1832.03 0.000270833 -1.587 0
M  V30 19506 H 1832.05 2.31233 -3.02178 0
M  V30 19507 H 1831.56 0.672544 -3.82228 0
M  V30 19508 H 1829.66 2.75749 -2.50586 0
M  V30 19509 H 1829.77 2.14056 -4.28622 0
M  V30 19510 H 1828.14 1.22371 -2.23377 0
M  V30 19511 H 1828.92 0.058944 -3.43249 0
M  V30 19512 N 1831.37 1.49742 0.491438 0
M  V30 19513 C 1832.3 1.63245 1.60884 0
M  V30 19514 C 1833.31 0.514713 1.54449 0
M  V30 19515 O 1834.5 0.787136 1.60207 0
M  V30 19516 C 1831.6 1.58202 2.99709 0
M  V30 19517 C 1830.77 2.8567 3.31227 0
M  V30 19518 C 1829.83 2.73548 4.49509 0
M  V30 19519 O 1828.86 3.47492 4.50819 0
M  V30 19520 N 1830.06 1.85734 5.49985 0
M  V30 19521 H 1832.82 2.5962 1.49724 0
M  V30 19522 H 1830.39 1.46951 0.679494 0
M  V30 19523 H 1832.38 1.47734 3.76771 0
M  V30 19524 H 1830.95 0.696461 3.04743 0
M  V30 19525 H 1830.17 3.10418 2.4297 0
M  V30 19526 H 1831.46 3.70156 3.49088 0
M  V30 19527 H 1830.85 1.24933 5.51732 0
M  V30 19528 H 1829.41 1.81182 6.26112 0
M  V30 19529 N 1832.84 -0.743177 1.38977 0
M  V30 19530 C 1833.78 -1.86709 1.32938 0
M  V30 19531 C 1834.79 -1.61027 0.239644 0
M  V30 19532 O 1835.98 -1.71413 0.497991 0
M  V30 19533 C 1833.08 -3.22566 1.03945 0
M  V30 19534 C 1832.25 -3.75669 2.24034 0
M  V30 19535 C 1831.31 -4.90068 1.91625 0
M  V30 19536 O 1830.34 -5.04156 2.64226 0
M  V30 19537 N 1831.54 -5.7383 0.877465 0
M  V30 19538 H 1834.3 -1.92397 2.2979 0
M  V30 19539 H 1831.86 -0.923564 1.32973 0
M  V30 19540 H 1833.86 -3.96654 0.802977 0
M  V30 19541 H 1832.43 -3.12198 0.15854 0
M  V30 19542 H 1831.65 -2.93027 2.63683 0
M  V30 19543 H 1832.93 -4.07882 3.04154 0
M  V30 19544 H 1832.33 -5.65028 0.275604 0
M  V30 19545 H 1830.89 -6.48021 0.700881 0
M  V30 19546 N 1834.32 -1.24018 -0.972487 0
M  V30 19547 C 1835.25 -1.0529 -2.08414 0
M  V30 19548 C 1836.23 0.0326663 -1.70069 0
M  V30 19549 O 1837.42 -0.133494 -1.93741 0
M  V30 19550 C 1834.55 -0.651796 -3.41129 0
M  V30 19551 C 1833.5 -1.68559 -3.9341 0
M  V30 19552 C 1832.83 -1.1397 -5.22413 0
M  V30 19553 C 1834.13 -3.08046 -4.21788 0
M  V30 19554 H 1835.82 -1.98272 -2.2434 0
M  V30 19555 H 1833.37 -0.954694 -1.07804 0
M  V30 19556 H 1835.32 -0.507792 -4.18329 0
M  V30 19557 H 1834.05 0.313722 -3.2509 0
M  V30 19558 H 1832.7 -1.81773 -3.18362 0
M  V30 19559 H 1832.35 -0.164928 -5.0273 0
M  V30 19560 H 1832.05 -1.83051 -5.5836 0
M  V30 19561 H 1833.58 -1.00771 -6.02227 0
M  V30 19562 H 1834.99 -2.98088 -4.8971 0
M  V30 19563 H 1833.39 -3.74436 -4.68954 0
M  V30 19564 H 1834.46 -3.56444 -3.28749 0
M  V30 19565 N 1835.8 1.17245 -1.05316 0
M  V30 19566 C 1837.22 1.39535 -0.774741 0
M  V30 19567 C 1837.42 1.91388 0.63031 0
M  V30 19568 O 1836.47 2.10631 1.39251 0
M  V30 19569 C 1837.79 2.38497 -1.83139 0
M  V30 19570 C 1839.33 2.52201 -1.85375 0
M  V30 19571 C 1839.81 3.54437 -2.90066 0
M  V30 19572 N 1841.3 3.61956 -2.89037 0
M  V30 19573 C 1842.03 4.40824 -3.66691 0
M  V30 19574 N 1841.53 5.23196 -4.54134 0
M  V30 19575 N 1843.32 4.35709 -3.55125 0
M  V30 19576 H 1835.47 0.819186 -1.95967 0
M  V30 19577 H 1837.74 0.422515 -0.848637 0
M  V30 19578 H 1837.44 2.07471 -2.83987 0
M  V30 19579 H 1837.32 3.38016 -1.67407 0
M  V30 19580 H 1839.7 2.82536 -0.851904 0
M  V30 19581 H 1839.79 1.52751 -2.05184 0
M  V30 19582 H 1839.43 3.2484 -3.90437 0
M  V30 19583 H 1839.36 4.53593 -2.67508 0
M  V30 19584 H 1841.85 3.03146 -2.25635 0
M  V30 19585 H 1842.16 5.80562 -5.10067 0
M  V30 19586 H 1840.51 5.22573 -4.58194 0
M  V30 19587 H 1843.7 3.70411 -2.86205 0
M  V30 19588 H 1843.87 4.9693 -4.1589 0
M  V30 19589 N 1837.28 0.834353 1.33702 0
M  V30 19590 C 1838.19 0.266649 2.3308 0
M  V30 19591 C 1839.2 -0.604958 1.63145 0
M  V30 19592 O 1840.38 -0.510151 1.94832 0
M  V30 19593 C 1837.45 -0.552673 3.42267 0
M  V30 19594 C 1836.51 0.342677 4.2793 0
M  V30 19595 C 1835.74 -0.437637 5.31903 0
M  V30 19596 O 1835.96 -1.6698 5.45412 0
M  V30 19597 O 1834.9 0.186001 6.01613 0
M  V30 19598 H 1838.72 1.08946 2.83486 0
M  V30 19599 H 1836.31 0.596765 1.36964 0
M  V30 19600 H 1838.19 -1.01842 4.08908 0
M  V30 19601 H 1836.86 -1.35263 2.94085 0
M  V30 19602 H 1835.77 0.856168 3.64171 0
M  V30 19603 H 1837.1 1.10728 4.79583 0
M  V30 19604 N 1838.76 -1.46125 0.590367 0
M  V30 19605 C 1839.71 -2.27441 -0.159552 0
M  V30 19606 C 1840.69 -1.3632 -0.854728 0
M  V30 19607 O 1841.88 -1.60439 -0.74756 0
M  V30 19608 C 1839.01 -3.22834 -1.16761 0
M  V30 19609 C 1838.1 -4.21441 -0.474153 0
M  V30 19610 N 1838.49 -5.03569 0.474569 0
M  V30 19611 C 1836.79 -4.40086 -0.723925 0
M  V30 19612 C 1837.49 -5.74996 0.880574 0
M  V30 19613 N 1836.46 -5.43121 0.228047 0
M  V30 19614 H 1840.27 -2.88332 0.569375 0
M  V30 19615 H 1837.78 -1.57068 0.412732 0
M  V30 19616 H 1839.78 -3.79806 -1.7191 0
M  V30 19617 H 1838.44 -2.63503 -1.89727 0
M  V30 19618 H 1839.45 -5.10869 0.850477 0
M  V30 19619 H 1836.12 -3.91896 -1.43958 0
M  V30 19620 H 1837.51 -6.51018 1.66207 0
M  V30 19621 N 1840.23 -0.328564 -1.54137 0
M  V30 19622 C 1841.18 0.550772 -2.21248 0
M  V30 19623 C 1842.17 1.07776 -1.19471 0
M  V30 19624 O 1843.36 1.01395 -1.4508 0
M  V30 19625 C 1840.49 1.70871 -2.97755 0
M  V30 19626 C 1839.58 1.19638 -4.06875 0
M  V30 19627 N 1839.97 0.404108 -5.04183 0
M  V30 19628 C 1838.26 1.47465 -4.20916 0
M  V30 19629 C 1838.97 0.127848 -5.81559 0
M  V30 19630 N 1837.94 0.715362 -5.38872 0
M  V30 19631 H 1841.74 -0.0617731 -2.93835 0
M  V30 19632 H 1839.26 -0.13467 -1.61841 0
M  V30 19633 H 1841.25 2.35048 -3.44322 0
M  V30 19634 H 1839.91 2.32468 -2.26691 0
M  V30 19635 H 1840.93 0.046507 -5.17879 0
M  V30 19636 H 1837.6 2.0961 -3.61067 0
M  V30 19637 H 1838.99 -0.510286 -6.69959 0
M  V30 19638 N 1841.71 1.57497 -0.0568439 0
M  V30 19639 C 1842.62 2.1535 0.930668 0
M  V30 19640 C 1843.64 1.11276 1.33767 0
M  V30 19641 O 1844.81 1.43472 1.41343 0
M  V30 19642 C 1841.88 2.69165 2.18521 0
M  V30 19643 C 1840.94 3.88057 1.83603 0
M  V30 19644 C 1840.17 4.39296 3.03076 0
M  V30 19645 O 1840.4 3.89588 4.16627 0
M  V30 19646 O 1839.33 5.30814 2.8376 0
M  V30 19647 H 1843.16 3.00063 0.468623 0
M  V30 19648 H 1840.74 1.48482 0.16538 0
M  V30 19649 H 1842.62 3.03721 2.92116 0
M  V30 19650 H 1841.3 1.8752 2.63852 0
M  V30 19651 H 1840.21 3.5838 1.07306 0
M  V30 19652 H 1841.54 4.70949 1.43066 0
M  V30 19653 N 1843.19 -0.216591 1.56105 0
M  V30 19654 C 1844.6 -0.783161 1.6948 0
M  V30 19655 C 1844.95 -1.84776 0.659716 0
M  V30 19656 O 1844.08 -2.1558 -0.188184 0
M  V30 19657 C 1844.67 -1.42733 3.07267 0
M  V30 19658 C 1843.23 -1.94123 3.2248 0
M  V30 19659 C 1842.38 -0.803216 2.65412 0
M  V30 19660 H 1845.33 0.00814542 1.58698 0
M  V30 19661 H 1845.35 -2.29627 3.034 0
M  V30 19662 H 1844.86 -0.652264 3.8258 0
M  V30 19663 H 1842.96 -2.74416 2.52045 0
M  V30 19664 H 1843.08 -2.1178 4.29751 0
M  V30 19665 H 1841.44 -1.21185 2.24023 0
M  V30 19666 H 1842.22 -0.0407398 3.43276 0
M  V30 19667 N 1844.67 -1.5 -0.48349 0
M  V30 19668 C 1845.91 -1.60606 -1.23829 0
M  V30 19669 C 1846.25 -0.299778 -1.91872 0
M  V30 19670 O 1845.52 0.697925 -1.81547 0
M  V30 19671 C 1845.81 -2.77769 -2.29165 0
M  V30 19672 C 1845.66 -4.18243 -1.65507 0
M  V30 19673 C 1846.98 -2.90521 -3.30584 0
M  V30 19674 H 1844.1 -0.584561 -0.44884 0
M  V30 19675 H 1846.74 -1.82346 -0.533855 0
M  V30 19676 H 1844.89 -2.59364 -2.89245 0
M  V30 19677 H 1846.56 -4.48208 -1.09119 0
M  V30 19678 H 1844.8 -4.23077 -0.958577 0
M  V30 19679 H 1845.47 -4.96128 -2.41994 0
M  V30 19680 H 1847.95 -3.0733 -2.80513 0
M  V30 19681 H 1846.83 -3.74146 -4.0163 0
M  V30 19682 H 1847.09 -2.00609 -3.93965 0
M  V30 19683 N 1846.15 0.735796 -1.39369 0
M  V30 19684 C 1847.08 1.85854 -1.32414 0
M  V30 19685 C 1848.06 1.61391 -0.197947 0
M  V30 19686 O 1849.24 1.84666 -0.378263 0
M  V30 19687 C 1846.37 3.2182 -1.05592 0
M  V30 19688 C 1845.41 3.65144 -2.20391 0
M  V30 19689 S 1846.25 3.74604 -3.82664 0
M  V30 19690 C 1847.4 5.13361 -3.58066 0
M  V30 19691 H 1847.64 1.9147 -2.27435 0
M  V30 19692 H 1845.17 0.900577 -1.25415 0
M  V30 19693 H 1847.13 4.00332 -0.908013 0
M  V30 19694 H 1845.79 3.13861 -0.122598 0
M  V30 19695 H 1844.98 4.63813 -1.97214 0
M  V30 19696 H 1844.58 2.93835 -2.3138 0
M  V30 19697 H 1846.88 5.9967 -3.15282 0
M  V30 19698 H 1847.82 5.41566 -4.56193 0
M  V30 19699 H 1848.23 4.83 -2.92184 0
M  V30 19700 N 1847.63 1.24532 0.965897 0
M  V30 19701 C 1848.87 1.0801 1.70343 0
M  V30 19702 C 1849.19 -0.380738 1.91859 0
M  V30 19703 O 1850.39 -0.666181 2.632 0
M  V30 19704 C 1848.85 1.88452 3.06617 0
M  V30 19705 C 1848.46 3.38957 2.92937 0
M  V30 19706 C 1850.2 1.80465 3.8423 0
M  V30 19707 C 1848.11 4.11736 4.24532 0
M  V30 19708 H 1847.04 0.400577 0.638791 0
M  V30 19709 H 1849.69 1.48629 1.07618 0
M  V30 19710 H 1848.07 1.40648 3.70181 0
M  V30 19711 H 1849.25 3.94353 2.38374 0
M  V30 19712 H 1847.56 3.47915 2.28788 0
M  V30 19713 H 1850.16 2.32142 4.81679 0
M  V30 19714 H 1850.5 0.770262 4.09112 0
M  V30 19715 H 1851.03 2.25958 3.27395 0
M  V30 19716 H 1847.77 5.15541 4.04842 0
M  V30 19717 H 1847.29 3.61125 4.78904 0
M  V30 19718 H 1848.97 4.18833 4.93141 0
M  V30 19719 N 1849.1 -1.16685 1.05936 0
M  V30 19720 C 1850.33 -1.90758 0.793401 0
M  V30 19721 C 1850.74 -1.77479 -0.655593 0
M  V30 19722 O 1850.08 -1.11458 -1.46023 0
M  V30 19723 C 1850.15 -3.42127 1.10406 0
M  V30 19724 C 1849.81 -3.79191 2.55074 0
M  V30 19725 C 1850.81 -3.81412 3.533 0
M  V30 19726 C 1848.49 -4.09931 2.9028 0
M  V30 19727 C 1850.49 -4.13853 4.84772 0
M  V30 19728 C 1848.17 -4.42039 4.21953 0
M  V30 19729 C 1849.17 -4.4398 5.19009 0
M  V30 19730 O 1848.86 -4.75328 6.4832 0
M  V30 19731 H 1848.59 -0.611855 0.287418 0
M  V30 19732 H 1851.15 -1.48859 1.41527 0
M  V30 19733 H 1849.38 -3.84356 0.425106 0
M  V30 19734 H 1851.06 -3.97471 0.822918 0
M  V30 19735 H 1851.83 -3.5778 3.27443 0
M  V30 19736 H 1847.71 -4.07587 2.15393 0
M  V30 19737 H 1851.25 -4.15283 5.60523 0
M  V30 19738 H 1847.15 -4.65136 4.4757 0
M  V30 19739 H 1847.92 -4.93154 6.53254 0
M  V30 19740 N 1850.58 -0.841432 -1.33258 0
M  V30 19741 C 1851.51 -0.233859 -2.28004 0
M  V30 19742 C 1852.53 0.586872 -1.51854 0
M  V30 19743 O 1853.72 0.413523 -1.73644 0
M  V30 19744 C 1850.82 0.68919 -3.31818 0
M  V30 19745 C 1849.99 -0.0927681 -4.37302 0
M  V30 19746 C 1849.05 0.754015 -5.2077 0
M  V30 19747 O 1848.07 0.192293 -5.68875 0
M  V30 19748 N 1849.28 2.07095 -5.42302 0
M  V30 19749 H 1852.04 -1.04794 -2.80782 0
M  V30 19750 H 1849.6 -0.70014 -1.45978 0
M  V30 19751 H 1851.59 1.26071 -3.84562 0
M  V30 19752 H 1850.16 1.40397 -2.79298 0
M  V30 19753 H 1849.38 -0.845677 -3.85022 0
M  V30 19754 H 1850.67 -0.63036 -5.0488 0
M  V30 19755 H 1850.07 2.55082 -5.04925 0
M  V30 19756 H 1848.63 2.5909 -5.98093 0
M  V30 19757 N 1852.06 1.4581 -0.598108 0
M  V30 19758 C 1853.47 1.85871 -0.175736 0
M  V30 19759 C 1853.82 1.49969 1.26505 0
M  V30 19760 O 1852.95 0.921857 1.95782 0
M  V30 19761 C 1853.54 3.37359 -0.312157 0
M  V30 19762 C 1852.1 3.76359 0.0554534 0
M  V30 19763 C 1851.25 2.6979 -0.640999 0
M  V30 19764 H 1854.2 1.36745 -0.805383 0
M  V30 19765 H 1854.22 3.7773 0.458274 0
M  V30 19766 H 1853.73 3.63458 -1.36088 0
M  V30 19767 H 1851.83 3.55878 1.10372 0
M  V30 19768 H 1851.95 4.77951 -0.331592 0
M  V30 19769 H 1850.31 2.54576 -0.0796238 0
M  V30 19770 H 1851.09 2.98726 -1.69167 0
M  V30 19771 N 1853.54 0.336733 1.53961 0
M  V30 19772 C 1854.95 -0.0154439 1.59593 0
M  V30 19773 C 1855.15 -1.49328 1.35291 0
M  V30 19774 O 1854.21 -2.25107 1.14381 0
M  V30 19775 C 1855.52 0.414613 2.97828 0
M  V30 19776 C 1857.07 0.36638 3.10848 0
M  V30 19777 C 1857.55 0.7718 4.5145 0
M  V30 19778 N 1859.04 0.725719 4.5748 0
M  V30 19779 C 1859.77 1.01145 5.64409 0
M  V30 19780 N 1859.27 1.36499 6.7922 0
M  V30 19781 N 1861.06 0.936141 5.5425 0
M  V30 19782 H 1853.21 1.29944 1.68012 0
M  V30 19783 H 1855.47 0.529259 0.786504 0
M  V30 19784 H 1855.18 1.44476 3.20655 0
M  V30 19785 H 1855.05 -0.21367 3.76594 0
M  V30 19786 H 1857.44 -0.65458 2.87749 0
M  V30 19787 H 1857.52 1.02978 2.34157 0
M  V30 19788 H 1857.17 1.79074 4.75284 0
M  V30 19789 H 1857.1 0.0859543 5.2653 0
M  V30 19790 H 1859.59 0.464858 3.7503 0
M  V30 19791 H 1859.9 1.56805 7.56725 0
M  V30 19792 H 1858.25 1.40338 6.80684 0
M  V30 19793 H 1861.44 0.659334 4.63433 0
M  V30 19794 H 1861.61 1.16217 6.37493 0
M  V30 19795 N 1855.02 -1.57465 0.0651956 0
M  V30 19796 C 1856.29 -1.84622 -0.646065 0
M  V30 19797 C 1856.67 -0.956374 -1.88193 0
M  V30 19798 O 1856.02 -0.0209666 -2.2849 0
M  V30 19799 C 1856.23 -3.34664 -0.990013 0
M  V30 19800 C 1857.58 -4.02016 -1.36632 0
M  V30 19801 O 1858.6 -3.39371 -1.08194 0
M  V30 19802 O 1857.46 -5.12496 -1.89764 0
M  V30 19803 H 1854.56 -0.762482 -0.320236 0
M  V30 19804 H 1857.1 -1.6943 0.0956254 0
M  V30 19805 H 1855.87 -3.9114 -0.111977 0
M  V30 19806 H 1855.5 -3.55094 -1.78869 0
M  V30 19807 N 1856.49 0.20831 -1.56217 0
M  V30 19808 C 1857.74 0.930725 -1.79844 0
M  V30 19809 C 1858.07 1.83801 -0.636208 0
M  V30 19810 O 1857.32 1.92 0.378755 0
M  V30 19811 C 1857.62 1.78999 -3.09345 0
M  V30 19812 C 1857.29 1.03482 -4.38865 0
M  V30 19813 C 1855.95 0.826263 -4.74053 0
M  V30 19814 C 1858.3 0.50251 -5.18772 0
M  V30 19815 C 1855.63 0.0737118 -5.86654 0
M  V30 19816 C 1857.98 -0.236764 -6.32157 0
M  V30 19817 C 1856.65 -0.456453 -6.65938 0
M  V30 19818 H 1855.92 0.340576 -0.658095 0
M  V30 19819 H 1858.56 0.197971 -1.90474 0
M  V30 19820 H 1856.87 2.59101 -2.93894 0
M  V30 19821 H 1858.57 2.35132 -3.24829 0
M  V30 19822 H 1855.16 1.20736 -4.11243 0
M  V30 19823 H 1859.34 0.651071 -4.92011 0
M  V30 19824 H 1854.6 -0.106598 -6.11307 0
M  V30 19825 H 1858.77 -0.656674 -6.93297 0
M  V30 19826 H 1856.4 -1.0415 -7.53032 0
M  V30 19827 N 1857.97 1.50255 0.475528 0
M  V30 19828 C 1859.22 1.61022 1.22793 0
M  V30 19829 C 1859.55 0.308508 1.92038 0
M  V30 19830 O 1858.8 -0.70533 1.82547 0
M  V30 19831 C 1859.1 2.73698 2.29835 0
M  V30 19832 C 1858.77 4.14333 1.77873 0
M  V30 19833 C 1857.43 4.526 1.63423 0
M  V30 19834 C 1859.78 5.02247 1.39275 0
M  V30 19835 C 1857.11 5.76525 1.08791 0
M  V30 19836 C 1859.46 6.26715 0.860869 0
M  V30 19837 C 1858.12 6.63788 0.702959 0
M  V30 19838 H 1857.39 0.589221 0.449332 0
M  V30 19839 H 1860.04 1.84173 0.524633 0
M  V30 19840 H 1858.35 2.44617 3.06055 0
M  V30 19841 H 1860.04 2.79233 2.87802 0
M  V30 19842 H 1856.63 3.84142 1.90087 0
M  V30 19843 H 1860.82 4.73319 1.49276 0
M  V30 19844 H 1856.07 6.03927 0.952987 0
M  V30 19845 H 1860.25 6.942 0.553109 0
M  V30 19846 H 1857.87 7.59693 0.277471 0
M  V30 19847 N 1859.45 -0.728395 1.39758 0
M  V30 19848 C 1860.87 -1.03481 1.21506 0
M  V30 19849 C 1861.07 -2.01336 0.0812728 0
M  V30 19850 O 1860.12 -2.46099 -0.564956 0
M  V30 19851 C 1861.43 -1.59078 2.55176 0
M  V30 19852 C 1862.98 -1.71126 2.62078 0
M  V30 19853 C 1863.46 -2.30131 3.95985 0
M  V30 19854 N 1864.95 -2.37532 3.97659 0
M  V30 19855 C 1865.68 -2.8414 4.98048 0
M  V30 19856 N 1865.18 -3.30595 6.08834 0
M  V30 19857 N 1866.97 -2.83409 4.85423 0
M  V30 19858 H 1859.12 -0.0795283 2.12251 0
M  V30 19859 H 1861.39 -0.0978972 0.942932 0
M  V30 19860 H 1861.09 -0.946401 3.38727 0
M  V30 19861 H 1860.97 -2.5779 2.75362 0
M  V30 19862 H 1863.35 -2.34684 1.78906 0
M  V30 19863 H 1863.43 -0.710485 2.45735 0
M  V30 19864 H 1863.08 -1.67198 4.79591 0
M  V30 19865 H 1863.01 -3.30898 4.09651 0
M  V30 19866 H 1865.5 -2.04706 3.17654 0
M  V30 19867 H 1865.81 -3.64689 6.81338 0
M  V30 19868 H 1864.16 -3.28587 6.12418 0
M  V30 19869 H 1867.35 -2.46444 3.97974 0
M  V30 19870 H 1867.52 -3.19417 5.63806 0
M  V30 19871 N 1860.93 -1.25042 -0.959279 0
M  V30 19872 C 1861.89 -1.05107 -2.03679 0
M  V30 19873 C 1862.89 -0.0054691 -1.60799 0
M  V30 19874 O 1864.08 -0.247225 -1.72437 0
M  V30 19875 C 1861.21 -0.594881 -3.35669 0
M  V30 19876 H 1862.41 -2.00753 -2.22796 0
M  V30 19877 H 1859.96 -1.07384 -1.13571 0
M  V30 19878 H 1860.69 0.364387 -3.22246 0
M  V30 19879 H 1860.48 -1.34966 -3.68139 0
M  V30 19880 H 1861.97 -0.476698 -4.1487 0
M  V30 19881 N 1862.41 1.16121 -1.06553 0
M  V30 19882 C 1863.34 2.20181 -0.636617 0
M  V30 19883 C 1864.35 1.59884 0.306731 0
M  V30 19884 O 1865.54 1.78235 0.0973101 0
M  V30 19885 C 1862.64 3.38789 0.0865541 0
M  V30 19886 C 1861.81 4.28641 -0.870941 0
M  V30 19887 C 1860.87 5.25869 -0.186538 0
M  V30 19888 O 1859.9 5.63189 -0.825028 0
M  V30 19889 N 1861.1 5.70536 1.0709 0
M  V30 19890 H 1863.87 2.576 -1.53175 0
M  V30 19891 H 1861.43 1.31157 -0.949185 0
M  V30 19892 H 1863.42 4.00878 0.554881 0
M  V30 19893 H 1861.99 2.99854 0.883524 0
M  V30 19894 H 1861.21 3.63776 -1.51858 0
M  V30 19895 H 1862.5 4.85552 -1.5204 0
M  V30 19896 H 1861.89 5.42314 1.60973 0
M  V30 19897 H 1860.45 6.34704 1.48305 0
M  V30 19898 N 1863.88 0.848487 1.3281 0
M  V30 19899 C 1865.11 0.462643 2.01661 0
M  V30 19900 C 1865.53 -0.938906 1.63799 0
M  V30 19901 O 1864.88 -1.61171 0.85617 0
M  V30 19902 C 1864.94 0.584905 3.56737 0
M  V30 19903 O 1864.66 1.93124 3.93236 0
M  V30 19904 C 1866.16 0.197265 4.42861 0
M  V30 19905 H 1863.38 0.18254 0.645694 0
M  V30 19906 H 1865.92 1.14372 1.69527 0
M  V30 19907 H 1864.08 -0.0483701 3.8737 0
M  V30 19908 H 1864.49 1.92361 4.87952 0
M  V30 19909 H 1865.96 0.333833 5.5099 0
M  V30 19910 H 1866.44 -0.861732 4.30663 0
M  V30 19911 H 1867.05 0.805363 4.17605 0
M  V30 19912 N 1865.36 -1.4549 0.605832 0
M  V30 19913 C 1866.29 -2.3328 -0.101377 0
M  V30 19914 C 1867.27 -1.46727 -0.860543 0
M  V30 19915 O 1868.46 -1.75501 -0.831441 0
M  V30 19916 C 1865.59 -3.29403 -1.1005 0
M  V30 19917 C 1864.54 -4.25578 -0.45466 0
M  V30 19918 C 1863.87 -5.11379 -1.5619 0
M  V30 19919 C 1865.17 -5.18571 0.623028 0
M  V30 19920 H 1866.86 -2.92661 0.631653 0
M  V30 19921 H 1864.41 -1.40728 0.305208 0
M  V30 19922 H 1866.36 -3.89688 -1.60379 0
M  V30 19923 H 1865.09 -2.68177 -1.8641 0
M  V30 19924 H 1863.74 -3.66589 0.027752 0
M  V30 19925 H 1863.39 -4.46523 -2.31574 0
M  V30 19926 H 1863.09 -5.76528 -1.13529 0
M  V30 19927 H 1864.62 -5.74532 -2.0675 0
M  V30 19928 H 1866.03 -5.72937 0.203881 0
M  V30 19929 H 1864.43 -5.92187 0.971292 0
M  V30 19930 H 1865.5 -4.61106 1.50032 0
M  V30 19931 N 1866.84 -0.344893 -1.5378 0
M  V30 19932 C 1867.79 0.511269 -2.25066 0
M  V30 19933 C 1868.76 1.09446 -1.24944 0
M  V30 19934 O 1869.94 1.13082 -1.53679 0
M  V30 19935 C 1867.08 1.65563 -3.02792 0
M  V30 19936 C 1866.2 1.09962 -4.17771 0
M  V30 19937 C 1865.33 2.21139 -4.82981 0
M  V30 19938 C 1864.37 1.62897 -5.90026 0
M  V30 19939 N 1863.51 2.67822 -6.49011 0
M  V30 19940 H 1868.35 -0.103166 -2.97821 0
M  V30 19941 H 1865.88 -0.0626846 -1.46966 0
M  V30 19942 H 1867.84 2.32936 -3.46117 0
M  V30 19943 H 1866.47 2.24103 -2.32331 0
M  V30 19944 H 1865.52 0.316786 -3.79079 0
M  V30 19945 H 1866.84 0.633622 -4.94759 0
M  V30 19946 H 1865.99 2.96375 -5.29383 0
M  V30 19947 H 1864.73 2.71083 -4.0542 0
M  V30 19948 H 1863.73 0.861672 -5.43006 0
M  V30 19949 H 1864.96 1.13803 -6.69497 0
M  V30 19950 H 1862.9 3.17018 -5.74313 0
M  V30 19951 H 1862.82 2.25848 -7.21477 0
M  V30 19952 H 1864.09 3.42822 -7.00066 0
M  V30 19953 N 1868.32 1.57428 -0.0735454 0
M  V30 19954 C 1869.23 2.16325 0.907775 0
M  V30 19955 C 1870.24 1.12689 1.32579 0
M  V30 19956 O 1871.42 1.44963 1.39813 0
M  V30 19957 C 1868.49 2.71467 2.15654 0
M  V30 19958 C 1867.55 3.89983 1.79476 0
M  V30 19959 C 1866.78 4.42486 2.98399 0
M  V30 19960 O 1867 3.93985 4.12471 0
M  V30 19961 O 1865.94 5.33794 2.78114 0
M  V30 19962 H 1869.76 3.00543 0.436771 0
M  V30 19963 H 1867.35 1.48649 0.149623 0
M  V30 19964 H 1869.23 3.06802 2.88878 0
M  V30 19965 H 1867.9 1.90308 2.61848 0
M  V30 19966 H 1866.81 3.59498 1.03499 0
M  V30 19967 H 1868.14 4.7244 1.38063 0
M  V30 19968 N 1869.8 -0.200022 1.56326 0
M  V30 19969 C 1871.02 -0.937503 1.84441 0
M  V30 19970 C 1871.44 -1.77058 0.655428 0
M  V30 19971 O 1870.8 -1.78587 -0.375913 0
M  V30 19972 C 1870.85 -1.83766 3.11307 0
M  V30 19973 O 1870.57 -1.03823 4.2562 0
M  V30 19974 C 1872.07 -2.68724 3.52565 0
M  V30 19975 H 1869.29 -0.273767 0.612611 0
M  V30 19976 H 1871.83 -0.208759 2.03432 0
M  V30 19977 H 1869.99 -2.52009 2.94228 0
M  V30 19978 H 1870.4 -1.6512 4.97831 0
M  V30 19979 H 1871.88 -3.2755 4.44314 0
M  V30 19980 H 1872.35 -3.4219 2.75323 0
M  V30 19981 H 1872.96 -2.0586 3.72158 0
M  V30 19982 N 1871.27 -1.50505 -0.467553 0
M  V30 19983 C 1872.5 -1.65708 -1.24722 0
M  V30 19984 C 1872.92 -0.34155 -1.84973 0
M  V30 19985 O 1872.28 0.694993 -1.6745 0
M  V30 19986 C 1872.33 -2.75289 -2.32912 0
M  V30 19987 O 1871.43 -2.36788 -3.37646 0
M  V30 19988 H 1870.78 -0.55351 -0.366774 0
M  V30 19989 H 1873.31 -1.96901 -0.555988 0
M  V30 19990 H 1873.32 -2.98472 -2.7817 0
M  V30 19991 H 1871.99 -3.70765 -1.88431 0
M  V30 19992 H 1870.57 -2.24065 -2.98076 0
M  V30 19993 N 1872.75 0.720973 -1.40142 0
M  V30 19994 C 1873.68 1.84799 -1.42729 0
M  V30 19995 C 1874.66 1.67629 -0.288866 0
M  V30 19996 O 1875.85 1.8774 -0.496713 0
M  V30 19997 C 1872.98 3.22699 -1.28385 0
M  V30 19998 C 1871.93 3.54532 -2.39773 0
M  V30 19999 C 1871.26 4.91518 -2.10509 0
M  V30 20000 C 1872.56 3.56077 -3.82108 0
M  V30 20001 H 1874.25 1.82892 -2.37046 0
M  V30 20002 H 1871.8 0.8785 -1.14098 0
M  V30 20003 H 1873.75 4.0123 -1.28812 0
M  V30 20004 H 1872.48 3.25169 -0.305408 0
M  V30 20005 H 1871.13 2.78338 -2.38586 0
M  V30 20006 H 1870.78 4.90584 -1.11069 0
M  V30 20007 H 1870.48 5.13783 -2.85132 0
M  V30 20008 H 1872.01 5.72389 -2.1261 0
M  V30 20009 H 1873.42 4.24657 -3.85148 0
M  V30 20010 H 1871.82 3.89866 -4.56207 0
M  V30 20011 H 1872.89 2.55576 -4.12079 0
M  V30 20012 N 1874.23 1.25549 0.952634 0
M  V30 20013 C 1875.46 1.13162 1.73211 0
M  V30 20014 C 1875.87 -0.314383 1.86164 0
M  V30 20015 O 1875.23 -1.21608 1.3608 0
M  V30 20016 C 1875.28 1.78273 3.14485 0
M  V30 20017 O 1875 3.17221 3.02163 0
M  V30 20018 C 1876.5 1.71691 4.08702 0
M  V30 20019 H 1873.72 0.394613 0.542698 0
M  V30 20020 H 1876.27 1.65951 1.19502 0
M  V30 20021 H 1874.42 1.2945 3.65132 0
M  V30 20022 H 1874.84 3.49266 3.91297 0
M  V30 20023 H 1876.31 2.21906 5.05432 0
M  V30 20024 H 1876.79 0.681094 4.33887 0
M  V30 20025 H 1877.39 2.20012 3.63971 0
M  V30 20026 N 1875.71 -1.15554 1.07168 0
M  V30 20027 C 1876.66 -2.22296 0.684626 0
M  V30 20028 C 1877.65 -1.66656 -0.303675 0
M  V30 20029 O 1878.86 -1.79218 -0.167588 0
M  V30 20030 H 1875.23 -0.723996 0.203306 0
M  V30 20031 H 1877.2 -2.52223 1.59456 0
M  V30 20032 C 1875.95 -3.47566 0.0965118 0
M  V30 20033 H 1875.27 -3.90701 0.848122 0
M  V30 20034 H 1876.71 -4.2378 -0.136671 0
M  V30 20035 C 1875.17 -3.16215 -1.16231 0
M  V30 20036 O 1875.7 -3.32838 -2.24903 0
M  V30 20037 N 1873.91 -2.70273 -1.06774 0
M  V30 20038 H 1873.46 -2.56947 -0.183357 0
M  V30 20039 H 1873.41 -2.49671 -1.9108 0
M  V30 20040 N 1877.19 -0.855519 -1.32358 0
M  V30 20041 C 1878.42 -0.473331 -2.01413 0
M  V30 20042 C 1878.83 0.930206 -1.64294 0
M  V30 20043 O 1878.19 1.60714 -0.864705 0
M  V30 20044 C 1878.24 -0.603815 -3.56422 0
M  V30 20045 O 1877.96 -1.95207 -3.92207 0
M  V30 20046 C 1879.46 -0.220748 -4.4275 0
M  V30 20047 H 1876.68 -0.185962 -0.644716 0
M  V30 20048 H 1879.22 -1.1527 -1.68918 0
M  V30 20049 H 1877.38 0.0278263 -3.8739 0
M  V30 20050 H 1877.79 -1.94946 -4.86925 0
M  V30 20051 H 1879.27 -0.363048 -5.50805 0
M  V30 20052 H 1879.74 0.838881 -4.31114 0
M  V30 20053 H 1880.35 -0.827498 -4.17172 0
M  V30 20054 N 1878.67 1.45167 -0.61354 0
M  V30 20055 C 1879.6 2.27701 0.150791 0
M  V30 20056 C 1880.58 1.37493 0.868012 0
M  V30 20057 O 1881.76 1.66926 0.875677 0
M  V30 20058 C 1878.89 3.16008 1.21887 0
M  V30 20059 C 1877.93 4.222 0.604131 0
M  V30 20060 S 1878.77 5.32212 -0.592512 0
M  V30 20061 C 1879.92 6.24087 0.476016 0
M  V30 20062 H 1880.16 2.92179 -0.549425 0
M  V30 20063 H 1877.69 1.49096 -0.401218 0
M  V30 20064 H 1879.65 3.67441 1.83022 0
M  V30 20065 H 1878.31 2.50784 1.89119 0
M  V30 20066 H 1877.5 4.83934 1.40797 0
M  V30 20067 H 1877.1 3.73939 0.0677896 0
M  V30 20068 H 1879.39 6.63843 1.35346 0
M  V30 20069 H 1880.34 7.08022 -0.105315 0
M  V30 20070 H 1880.75 5.58888 0.794018 0
M  V30 20071 N 1880.14 0.353044 1.53595 0
M  V30 20072 C 1881.39 -0.240073 2.00669 0
M  V30 20073 C 1881.71 -1.50303 1.24234 0
M  V30 20074 O 1880.98 -1.92709 0.352118 0
M  V30 20075 H 1879.56 -0.0917016 0.74135 0
M  V30 20076 H 1882.22 0.47639 1.88988 0
M  V30 20077 H 1881.32 -0.475869 3.08451 0
M  V30 20078 N 1881.62 -1.57387 0.0818932 0
M  V30 20079 C 1882.87 -1.93486 -0.583744 0
M  V30 20080 C 1883.19 -0.963466 -1.69536 0
M  V30 20081 O 1882.46 -0.0132866 -1.95895 0
M  V30 20082 H 1881.04 -0.714292 -0.218622 0
M  V30 20083 H 1883.7 -1.94381 0.142124 0
M  V30 20084 H 1882.8 -2.9556 -1.00252 0
M  V30 20085 N 1883.1 0.191729 -1.56429 0
M  V30 20086 C 1884.33 0.926363 -1.84667 0
M  V30 20087 C 1884.74 1.77215 -0.662674 0
M  V30 20088 O 1884.08 1.79772 0.377839 0
M  V30 20089 C 1884.14 1.86973 -3.07053 0
M  V30 20090 C 1883.81 1.20556 -4.40812 0
M  V30 20091 C 1884.8 0.580852 -5.16645 0
M  V30 20092 C 1882.49 1.20841 -4.87548 0
M  V30 20093 C 1884.48 -0.0321402 -6.37392 0
M  V30 20094 C 1882.17 0.59158 -6.0823 0
M  V30 20095 C 1883.17 -0.0276096 -6.82994 0
M  V30 20096 O 1882.86 -0.634761 -8.0139 0
M  V30 20097 H 1882.59 0.27562 -0.61726 0
M  V30 20098 H 1885.14 0.202927 -2.04395 0
M  V30 20099 H 1883.37 2.63295 -2.83219 0
M  V30 20100 H 1885.06 2.47244 -3.21909 0
M  V30 20101 H 1885.83 0.570769 -4.8163 0
M  V30 20102 H 1881.71 1.67975 -4.29308 0
M  V30 20103 H 1885.25 -0.516048 -6.95689 0
M  V30 20104 H 1881.15 0.599177 -6.42713 0
M  V30 20105 H 1881.91 -0.531997 -8.16769 0
M  V30 20106 N 1884.58 1.50751 0.459565 0
M  V30 20107 C 1885.52 1.70454 1.55609 0
M  V30 20108 C 1886.49 0.545921 1.56872 0
M  V30 20109 O 1887.68 0.777824 1.74226 0
M  V30 20110 C 1884.82 1.81524 2.93501 0
M  V30 20111 C 1883.93 3.08962 3.01938 0
M  V30 20112 C 1883.07 3.10758 4.30816 0
M  V30 20113 C 1882.11 4.32602 4.33038 0
M  V30 20114 N 1881.24 4.32073 5.53405 0
M  V30 20115 H 1886.08 2.64062 1.38112 0
M  V30 20116 H 1883.62 1.30889 0.671307 0
M  V30 20117 H 1885.58 1.85923 3.73481 0
M  V30 20118 H 1884.21 0.913445 3.09606 0
M  V30 20119 H 1883.26 3.13979 2.14759 0
M  V30 20120 H 1884.57 3.9892 2.9944 0
M  V30 20121 H 1883.73 3.13951 5.19153 0
M  V30 20122 H 1882.47 2.1865 4.3594 0
M  V30 20123 H 1881.47 4.2961 3.43097 0
M  V30 20124 H 1882.7 5.2595 4.29596 0
M  V30 20125 H 1880.64 3.42824 5.59292 0
M  V30 20126 H 1880.56 5.15814 5.52695 0
M  V30 20127 H 1881.83 4.39428 6.43835 0
M  V30 20128 N 1886.06 -0.713531 1.40522 0
M  V30 20129 C 1886.97 -1.8577 1.43272 0
M  V30 20130 C 1887.98 -1.70936 0.325113 0
M  V30 20131 O 1889.16 -1.93165 0.570022 0
M  V30 20132 C 1886.22 -3.21587 1.29548 0
M  V30 20133 C 1885.28 -3.4866 2.50469 0
M  V30 20134 C 1884.52 -4.77998 2.3739 0
M  V30 20135 O 1884.74 -5.53234 1.38881 0
M  V30 20136 O 1883.67 -5.05453 3.26804 0
M  V30 20137 H 1887.5 -1.86406 2.39763 0
M  V30 20138 H 1885.08 -0.864226 1.21867 0
M  V30 20139 H 1886.97 -4.02709 1.2411 0
M  V30 20140 H 1885.64 -3.21674 0.36163 0
M  V30 20141 H 1884.55 -2.67539 2.61483 0
M  V30 20142 H 1885.88 -3.53372 3.42621 0
M  V30 20143 N 1887.53 -1.26053 -0.945962 0
M  V30 20144 C 1888.76 -1.14181 -1.7314 0
M  V30 20145 C 1889.18 0.299663 -1.85698 0
M  V30 20146 O 1888.54 1.21711 -1.34373 0
M  V30 20147 C 1888.59 -1.81052 -3.11854 0
M  V30 20148 O 1887.69 -1.09606 -3.97568 0
M  V30 20149 H 1887.03 -0.398138 -0.531397 0
M  V30 20150 H 1889.56 -1.66782 -1.18511 0
M  V30 20151 H 1889.57 -1.87685 -3.62269 0
M  V30 20152 H 1888.25 -2.85921 -3.0203 0
M  V30 20153 H 1886.83 -1.10915 -3.56023 0
M  V30 20154 N 1889.01 1.14984 -1.07779 0
M  V30 20155 C 1890.26 1.85873 -0.803587 0
M  V30 20156 C 1890.59 1.82579 0.670472 0
M  V30 20157 O 1889.84 1.247 1.50826 0
M  V30 20158 C 1890.14 3.34355 -1.26259 0
M  V30 20159 C 1889.81 3.57842 -2.74335 0
M  V30 20160 C 1888.47 3.63961 -3.14779 0
M  V30 20161 C 1890.82 3.67191 -3.69893 0
M  V30 20162 C 1888.15 3.76944 -4.49589 0
M  V30 20163 C 1890.5 3.81698 -5.04469 0
M  V30 20164 C 1889.16 3.86064 -5.44528 0
M  V30 20165 H 1888.43 0.680157 -0.294053 0
M  V30 20166 H 1891.08 1.35862 -1.34959 0
M  V30 20167 H 1889.39 3.86603 -0.636057 0
M  V30 20168 H 1891.08 3.87619 -1.02727 0
M  V30 20169 H 1887.67 3.53723 -2.42028 0
M  V30 20170 H 1891.86 3.61759 -3.3977 0
M  V30 20171 H 1887.11 3.78583 -4.80088 0
M  V30 20172 H 1891.29 3.87873 -5.78383 0
M  V30 20173 H 1888.91 3.95876 -6.48989 0
M  V30 20174 N 1890.49 0.862526 1.31902 0
M  V30 20175 C 1891.71 0.483159 2.01694 0
M  V30 20176 C 1892.14 -0.914778 1.64358 0
M  V30 20177 O 1891.5 -1.60229 0.848308 0
M  V30 20178 C 1891.55 0.638911 3.54895 0
M  V30 20179 O 1890.65 -0.324962 4.11118 0
M  V30 20180 H 1889.99 0.193128 0.635293 0
M  V30 20181 H 1892.52 1.16389 1.6827 0
M  V30 20182 H 1892.53 0.529394 4.04551 0
M  V30 20183 H 1891.21 1.65828 3.81411 0
M  V30 20184 H 1889.78 -0.171025 3.72508 0
M  V30 20185 N 1891.97 -1.4484 0.62123 0
M  V30 20186 C 1893.19 -2.07012 0.126801 0
M  V30 20187 C 1893.62 -1.46046 -1.18542 0
M  V30 20188 O 1892.98 -0.558202 -1.72493 0
M  V30 20189 C 1893.02 -3.60597 0.0150611 0
M  V30 20190 O 1892.13 -3.9929 -1.03157 0
M  V30 20191 H 1891.47 -0.659131 0.0802646 0
M  V30 20192 H 1894 -1.85874 0.855105 0
M  V30 20193 H 1894.01 -4.07608 -0.178742 0
M  V30 20194 H 1892.68 -4.04354 0.973153 0
M  V30 20195 H 1891.26 -3.63927 -0.813135 0
M  V30 20196 N 1893.45 -0.361184 -1.53405 0
M  V30 20197 C 1894.7 0.230977 -2.00373 0
M  V30 20198 C 1895.01 1.50228 -1.25264 0
M  V30 20199 O 1896.21 2.17277 -1.62798 0
M  V30 20200 C 1894.67 0.462153 -3.5692 0
M  V30 20201 C 1894.28 -0.794263 -4.40903 0
M  V30 20202 C 1896.02 1.01221 -4.12255 0
M  V30 20203 C 1893.93 -0.532914 -5.88994 0
M  V30 20204 H 1892.86 0.0900886 -0.748599 0
M  V30 20205 H 1895.51 -0.479245 -1.77131 0
M  V30 20206 H 1893.89 1.23352 -3.76298 0
M  V30 20207 H 1895.07 -1.56809 -4.33298 0
M  V30 20208 H 1893.38 -1.26722 -3.96649 0
M  V30 20209 H 1895.98 1.22299 -5.20526 0
M  V30 20210 H 1896.32 1.97304 -3.66575 0
M  V30 20211 H 1896.85 0.301113 -3.96659 0
M  V30 20212 H 1893.59 -1.46395 -6.38943 0
M  V30 20213 H 1893.11 0.202496 -5.99458 0
M  V30 20214 H 1894.79 -0.156772 -6.4681 0
M  V30 20215 N 1894.92 1.57341 -0.0902386 0
M  V30 20216 C 1895.86 2.09404 0.906927 0
M  V30 20217 C 1896.84 1.00345 1.27944 0
M  V30 20218 O 1898.02 1.2781 1.38553 0
M  V30 20219 C 1895.15 2.567 2.20959 0
M  V30 20220 C 1894.19 3.77371 1.98729 0
M  V30 20221 S 1895.03 5.21189 1.22974 0
M  V30 20222 C 1896.18 5.71831 2.5448 0
M  V30 20223 H 1896.41 2.93657 0.463996 0
M  V30 20224 H 1893.95 1.5391 0.122943 0
M  V30 20225 H 1895.91 2.84608 2.95819 0
M  V30 20226 H 1894.57 1.72682 2.62373 0
M  V30 20227 H 1893.76 4.08516 2.95179 0
M  V30 20228 H 1893.36 3.49932 1.31999 0
M  V30 20229 H 1895.65 5.79801 3.50481 0
M  V30 20230 H 1896.6 6.70416 2.27921 0
M  V30 20231 H 1897 4.99738 2.6253 0
M  V30 20232 N 1896.4 -0.183431 1.56529 0
M  V30 20233 C 1897.64 -0.908628 1.83094 0
M  V30 20234 C 1898.01 -1.79952 0.669429 0
M  V30 20235 O 1899.21 -2.56139 0.81524 0
M  V30 20236 C 1897.48 -1.69353 3.14729 0
M  V30 20237 S 1899.04 -2.46915 3.62737 0
M  V30 20238 H 1895.86 -0.304549 0.642472 0
M  V30 20239 H 1898.46 -0.171145 1.94749 0
M  V30 20240 H 1897.16 -1.02987 3.97268 0
M  V30 20241 H 1896.69 -2.47261 3.05983 0
M  V30 20242 H 1898.71 -3.71359 3.29101 0
M  V30 20243 N 1897.88 -1.50992 -0.451564 0
M  V30 20244 C 1899.13 -1.62955 -1.20216 0
M  V30 20245 C 1899.46 -0.33902 -1.91523 0
M  V30 20246 O 1898.71 0.676199 -1.83647 0
M  V30 20247 C 1899.01 -2.7732 -2.25452 0
M  V30 20248 C 1898.68 -4.1711 -1.71259 0
M  V30 20249 C 1897.34 -4.55142 -1.56202 0
M  V30 20250 C 1899.69 -5.04399 -1.31268 0
M  V30 20251 C 1897.02 -5.78183 -0.996051 0
M  V30 20252 C 1899.37 -6.28005 -0.761055 0
M  V30 20253 C 1898.03 -6.64823 -0.597267 0
M  V30 20254 H 1897.3 -0.596295 -0.439901 0
M  V30 20255 H 1899.95 -1.84985 -0.495266 0
M  V30 20256 H 1898.26 -2.49455 -3.02125 0
M  V30 20257 H 1899.95 -2.83777 -2.83323 0
M  V30 20258 H 1896.54 -3.87117 -1.83952 0
M  V30 20259 H 1900.73 -4.75633 -1.41727 0
M  V30 20260 H 1895.98 -6.05367 -0.856787 0
M  V30 20261 H 1900.16 -6.94992 -0.442598 0
M  V30 20262 H 1897.78 -7.60039 -0.156575 0
M  V30 20263 N 1899.36 0.706069 -1.40899 0
M  V30 20264 C 1900.61 1.46315 -1.39415 0
M  V30 20265 C 1900.93 1.95 -0.000496593 0
M  V30 20266 O 1900.2 1.70995 0.955904 0
M  V30 20267 H 1898.78 0.542863 -0.513136 0
M  V30 20268 H 1901.44 0.836396 -1.76041 0
M  V30 20269 H 1900.54 2.33139 -2.07491 0
M  V30 20270 N 1900.84 1.26553 0.939264 0
M  V30 20271 C 1902.08 1.13433 1.70036 0
M  V30 20272 C 1902.44 -0.316669 1.89371 0
M  V30 20273 O 1903.64 -0.570035 2.62686 0
M  V30 20274 C 1901.91 1.88424 3.03696 0
M  V30 20275 S 1903.47 1.91381 3.94866 0
M  V30 20276 H 1900.29 0.405156 0.584268 0
M  V30 20277 H 1902.89 1.60299 1.11913 0
M  V30 20278 H 1901.6 2.93059 2.87306 0
M  V30 20279 H 1901.13 1.42007 3.66876 0
M  V30 20280 H 1903.14 1.00189 4.8598 0
M  V30 20281 N 1902.31 -1.14411 1.08387 0
M  V30 20282 C 1903.26 -2.1752 0.683292 0
M  V30 20283 C 1904.25 -1.58136 -0.296971 0
M  V30 20284 O 1905.44 -1.76664 -0.109021 0
M  V30 20285 C 1902.57 -3.43171 0.0939403 0
M  V30 20286 C 1901.66 -4.09587 1.09998 0
M  V30 20287 N 1902.05 -4.51329 2.28333 0
M  V30 20288 C 1900.34 -4.36074 0.935695 0
M  V30 20289 C 1901.05 -5.0296 2.92244 0
M  V30 20290 N 1900.02 -4.97157 2.19854 0
M  V30 20291 H 1903.82 -2.47535 1.58441 0
M  V30 20292 H 1901.34 -1.31093 0.958564 0
M  V30 20293 H 1903.33 -4.16366 -0.210997 0
M  V30 20294 H 1901.99 -3.14635 -0.802165 0
M  V30 20295 H 1903.01 -4.44376 2.6599 0
M  V30 20296 H 1899.68 -4.17396 0.0933758 0
M  V30 20297 H 1901.07 -5.45135 3.92782 0
M  V30 20298 N 1903.79 -0.869509 -1.31443 0
M  V30 20299 C 1905.07 -0.400903 -1.91447 0
M  V30 20300 C 1905.45 1.117 -1.79127 0
M  V30 20301 O 1904.8 1.94536 -1.19866 0
M  V30 20302 C 1905.01 -0.881767 -3.37677 0
M  V30 20303 C 1906.36 -0.90763 -4.14786 0
M  V30 20304 O 1907.38 -0.82739 -3.46457 0
M  V30 20305 O 1906.24 -1.02365 -5.36827 0
M  V30 20306 H 1903.33 -0.119842 -0.818271 0
M  V30 20307 H 1905.88 -0.957391 -1.40115 0
M  V30 20308 H 1904.65 -1.92533 -3.40657 0
M  V30 20309 H 1904.27 -0.303565 -3.96439 0
M  V30 20310 N 1905.27 1.44508 -0.628902 0
M  V30 20311 C 1906.52 2.02365 -0.132699 0
M  V30 20312 C 1906.85 1.4934 1.24142 0
M  V30 20313 O 1906.12 0.676567 1.82354 0
M  V30 20314 C 1906.41 3.5991 -0.11694 0
M  V30 20315 C 1906.26 4.23223 -1.52324 0
M  V30 20316 C 1907.58 4.36527 0.559696 0
M  V30 20317 H 1904.7 0.735323 -0.049695 0
M  V30 20318 H 1907.34 1.72106 -0.80495 0
M  V30 20319 H 1905.49 3.8582 0.455515 0
M  V30 20320 H 1907.16 4.08427 -2.14441 0
M  V30 20321 H 1905.41 3.80803 -2.07777 0
M  V30 20322 H 1906.08 5.32225 -1.46427 0
M  V30 20323 H 1908.55 4.16036 0.0728971 0
M  V30 20324 H 1907.43 5.46238 0.539902 0
M  V30 20325 H 1907.69 4.10968 1.62965 0
M  V30 20326 N 1906.75 0.369315 1.53212 0
M  V30 20327 C 1907.98 -0.219539 2.0543 0
M  V30 20328 C 1908.39 -1.42698 1.24233 0
M  V30 20329 O 1907.73 -1.81601 0.276938 0
M  V30 20330 C 1907.79 -0.673523 3.53134 0
M  V30 20331 C 1907.46 0.417737 4.55087 0
M  V30 20332 C 1908.45 1.2688 5.0418 0
M  V30 20333 C 1906.14 0.579049 4.98951 0
M  V30 20334 C 1908.13 2.26648 5.95743 0
M  V30 20335 C 1905.82 1.58009 5.90319 0
M  V30 20336 C 1906.82 2.42224 6.38605 0
M  V30 20337 O 1906.51 3.4062 7.28171 0
M  V30 20338 H 1906.24 -0.0415233 0.674724 0
M  V30 20339 H 1908.79 0.527123 1.98521 0
M  V30 20340 H 1907.02 -1.47185 3.57594 0
M  V30 20341 H 1908.71 -1.1858 3.88193 0
M  V30 20342 H 1909.48 1.15538 4.71037 0
M  V30 20343 H 1905.36 -0.0666753 4.60952 0
M  V30 20344 H 1908.9 2.92416 6.33355 0
M  V30 20345 H 1904.8 1.69397 6.22876 0
M  V30 20346 H 1905.56 3.36393 7.46178 0
M  V30 20347 N 1908.23 -1.57291 0.0985816 0
M  V30 20348 C 1909.45 -1.99242 -0.575966 0
M  V30 20349 C 1909.88 -0.977378 -1.60714 0
M  V30 20350 O 1909.24 0.053677 -1.81221 0
M  V30 20351 C 1909.28 -3.40148 -1.19714 0
M  V30 20352 O 1908.39 -3.41434 -2.31293 0
M  V30 20353 H 1907.73 -0.647791 -0.145816 0
M  V30 20354 H 1910.26 -2.03798 0.181023 0
M  V30 20355 H 1910.27 -3.77918 -1.5376 0
M  V30 20356 H 1908.94 -4.13548 -0.441714 0
M  V30 20357 H 1907.52 -3.15464 -1.98839 0
M  V30 20358 N 1909.71 0.175127 -1.56624 0
M  V30 20359 C 1910.64 1.24137 -1.92672 0
M  V30 20360 C 1911.65 1.40675 -0.819417 0
M  V30 20361 O 1912.84 1.40746 -1.09786 0
M  V30 20362 C 1909.94 2.61063 -2.161 0
M  V30 20363 C 1909.11 2.65874 -3.47318 0
M  V30 20364 C 1908.17 3.84136 -3.59619 0
M  V30 20365 O 1907.2 3.70311 -4.32271 0
M  V30 20366 N 1908.4 5.00435 -2.94186 0
M  V30 20367 H 1911.16 0.935217 -2.84735 0
M  V30 20368 H 1908.73 0.364919 -1.57734 0
M  V30 20369 H 1910.72 3.38639 -2.21597 0
M  V30 20370 H 1909.29 2.84085 -1.3044 0
M  V30 20371 H 1908.51 1.74422 -3.53512 0
M  V30 20372 H 1909.8 2.66096 -4.33671 0
M  V30 20373 H 1909.19 5.14568 -2.35024 0
M  V30 20374 H 1907.75 5.75886 -3.05284 0
M  V30 20375 N 1911.18 1.5123 0.44355 0
M  V30 20376 C 1912.15 1.71511 1.52041 0
M  V30 20377 C 1913.15 0.585226 1.49772 0
M  V30 20378 O 1914.34 0.852687 1.51904 0
M  V30 20379 C 1911.47 1.76583 2.91601 0
M  V30 20380 H 1912.66 2.67613 1.35364 0
M  V30 20381 H 1910.21 1.41125 0.671811 0
M  V30 20382 H 1910.95 0.822743 3.1369 0
M  V30 20383 H 1910.73 2.58693 2.94653 0
M  V30 20384 H 1912.22 1.94135 3.69732 0
M  V30 20385 N 1912.66 -0.698586 1.41271 0
M  V30 20386 C 1913.89 -1.49247 1.44014 0
M  V30 20387 C 1914.31 -1.88043 0.0461888 0
M  V30 20388 O 1913.67 -1.54426 -0.94986 0
M  V30 20389 C 1913.72 -2.73334 2.35204 0
M  V30 20390 O 1912.82 -3.70704 1.807 0
M  V30 20391 H 1912.16 -0.449313 0.488891 0
M  V30 20392 H 1914.69 -0.858936 1.85697 0
M  V30 20393 H 1914.7 -3.21676 2.50975 0
M  V30 20394 H 1913.38 -2.44433 3.3649 0
M  V30 20395 H 1911.95 -3.29624 1.74363 0
M  V30 20396 N 1914.14 -1.27049 -0.93254 0
M  V30 20397 C 1915.07 -1.11867 -2.04959 0
M  V30 20398 C 1916.05 -0.0214563 -1.70086 0
M  V30 20399 O 1917.24 -0.195063 -1.93218 0
M  V30 20400 C 1914.37 -0.759993 -3.38883 0
M  V30 20401 C 1913.32 -1.8099 -3.87849 0
M  V30 20402 C 1912.65 -1.30532 -5.18522 0
M  V30 20403 C 1913.95 -3.21309 -4.11774 0
M  V30 20404 H 1915.64 -2.05309 -2.17918 0
M  V30 20405 H 1913.19 -0.988507 -1.04712 0
M  V30 20406 H 1915.14 -0.640623 -4.16502 0
M  V30 20407 H 1913.86 0.210139 -3.25923 0
M  V30 20408 H 1912.52 -1.91809 -3.12418 0
M  V30 20409 H 1912.17 -0.324784 -5.0195 0
M  V30 20410 H 1911.87 -2.00722 -5.52254 0
M  V30 20411 H 1913.39 -1.19879 -5.98716 0
M  V30 20412 H 1914.81 -3.13517 -4.79979 0
M  V30 20413 H 1913.2 -3.89166 -4.56804 0
M  V30 20414 H 1914.27 -3.66722 -3.17243 0
M  V30 20415 N 1915.62 1.13835 -1.08993 0
M  V30 20416 C 1916.87 1.84645 -0.82163 0
M  V30 20417 C 1917.19 1.83685 0.65458 0
M  V30 20418 O 1916.46 1.28948 1.47477 0
M  V30 20419 H 1915.04 0.683691 -0.300958 0
M  V30 20420 H 1917.7 1.37915 -1.37715 0
M  V30 20421 H 1916.79 2.89292 -1.17117 0
M  V30 20422 N 1917.1 0.876467 1.3098 0
M  V30 20423 C 1918.03 0.281625 2.26456 0
M  V30 20424 C 1919.01 -0.592945 1.51403 0
M  V30 20425 O 1920.19 -0.544929 1.80452 0
M  V30 20426 C 1917.32 -0.600618 3.33332 0
M  V30 20427 C 1916.36 0.203478 4.26014 0
M  V30 20428 S 1917.2 1.58623 5.11468 0
M  V30 20429 C 1918.35 0.710283 6.21857 0
M  V30 20430 H 1918.59 1.09094 2.76561 0
M  V30 20431 H 1916.12 0.675375 1.38845 0
M  V30 20432 H 1918.08 -1.10392 3.95378 0
M  V30 20433 H 1916.74 -1.38394 2.81968 0
M  V30 20434 H 1915.93 -0.469415 5.01809 0
M  V30 20435 H 1915.53 0.639107 3.68499 0
M  V30 20436 H 1917.82 -0.0763736 6.77457 0
M  V30 20437 H 1918.77 1.43957 6.93312 0
M  V30 20438 H 1919.18 0.274955 5.6383 0
M  V30 20439 N 1918.57 -1.44173 0.636557 0
M  V30 20440 C 1919.85 -1.9546 0.0738864 0
M  V30 20441 C 1920.23 -1.57838 -1.4018 0
M  V30 20442 O 1919.58 -0.855144 -2.11895 0
M  V30 20443 C 1919.79 -3.47687 0.302493 0
M  V30 20444 C 1921.14 -4.24135 0.198569 0
M  V30 20445 O 1922.16 -3.5543 0.234151 0
M  V30 20446 O 1921.02 -5.46393 0.108108 0
M  V30 20447 H 1918.11 -0.826777 -0.0191985 0
M  V30 20448 H 1920.66 -1.54196 0.708638 0
M  V30 20449 H 1919.43 -3.68139 1.32625 0
M  V30 20450 H 1919.05 -3.95911 -0.366134 0
M  V30 20451 N 1920.05 -0.377435 -1.53014 0
M  V30 20452 C 1921.3 0.209712 -2.00607 0
M  V30 20453 C 1921.61 1.48891 -1.2685 0
M  V30 20454 O 1922.82 2.15538 -1.65093 0
M  V30 20455 C 1921.28 0.424271 -3.5739 0
M  V30 20456 C 1920.88 -0.840982 -4.40036 0
M  V30 20457 C 1922.63 0.968428 -4.13306 0
M  V30 20458 C 1920.53 -0.595355 -5.88396 0
M  V30 20459 H 1919.46 0.0821436 -0.749512 0
M  V30 20460 H 1922.12 -0.498005 -1.76613 0
M  V30 20461 H 1920.5 1.19354 -3.77585 0
M  V30 20462 H 1921.67 -1.61396 -4.31611 0
M  V30 20463 H 1919.99 -1.30922 -3.95283 0
M  V30 20464 H 1922.58 1.16771 -5.21794 0
M  V30 20465 H 1922.93 1.93405 -3.68647 0
M  V30 20466 H 1923.46 0.259025 -3.96956 0
M  V30 20467 H 1920.2 -1.53164 -6.37355 0
M  V30 20468 H 1919.72 0.138904 -5.99639 0
M  V30 20469 H 1921.4 -0.225366 -6.46607 0
M  V30 20470 N 1921.53 1.57237 -0.106922 0
M  V30 20471 C 1922.48 2.11215 0.858607 0
M  V30 20472 C 1923.46 1.03 1.23612 0
M  V30 20473 O 1924.66 1.29255 1.20922 0
M  V30 20474 C 1921.79 2.7055 2.11324 0
M  V30 20475 C 1920.87 3.85827 1.76064 0
M  V30 20476 N 1921.26 4.93376 1.11419 0
M  V30 20477 C 1919.56 3.95784 2.05599 0
M  V30 20478 C 1920.26 5.73885 0.950315 0
M  V30 20479 N 1919.24 5.23306 1.47144 0
M  V30 20480 H 1923.04 2.91747 0.355056 0
M  V30 20481 H 1920.55 1.62116 0.0959292 0
M  V30 20482 H 1922.55 3.07557 2.8145 0
M  V30 20483 H 1921.21 1.91477 2.62234 0
M  V30 20484 H 1922.22 5.11999 0.779594 0
M  V30 20485 H 1918.9 3.27736 2.58641 0
M  V30 20486 H 1920.29 6.70433 0.44383 0
M  V30 20487 N 1923.01 -0.166818 1.56715 0
M  V30 20488 C 1923.97 -1.19027 1.95871 0
M  V30 20489 C 1924.97 -1.36939 0.842877 0
M  V30 20490 O 1926.16 -1.34268 1.10985 0
M  V30 20491 C 1923.29 -2.55446 2.25743 0
M  V30 20492 H 1924.49 -0.854834 2.87459 0
M  V30 20493 H 1922.04 -0.409436 1.50842 0
M  V30 20494 H 1922.77 -2.93996 1.36884 0
M  V30 20495 H 1922.56 -2.4381 3.07081 0
M  V30 20496 H 1924.05 -3.29196 2.56943 0
M  V30 20497 N 1924.49 -1.51463 -0.435524 0
M  V30 20498 C 1925.71 -1.68316 -1.21179 0
M  V30 20499 C 1926.14 -0.380709 -1.84207 0
M  V30 20500 O 1925.49 0.659318 -1.68887 0
M  V30 20501 C 1925.54 -2.80168 -2.27021 0
M  V30 20502 O 1924.65 -2.43897 -3.32548 0
M  V30 20503 H 1923.99 -0.561165 -0.35495 0
M  V30 20504 H 1926.52 -1.98036 -0.514097 0
M  V30 20505 H 1926.53 -3.04305 -2.71776 0
M  V30 20506 H 1925.2 -3.74678 -1.80524 0
M  V30 20507 H 1923.78 -2.30337 -2.93256 0
M  V30 20508 N 1925.96 0.691085 -1.4164 0
M  V30 20509 C 1927.24 1.44595 -1.31726 0
M  V30 20510 C 1927.62 2.11033 0.0530624 0
M  V30 20511 O 1926.97 2.02027 1.06759 0
M  V30 20512 C 1927.18 2.46172 -2.47387 0
M  V30 20513 C 1928.53 3.11293 -2.88759 0
M  V30 20514 O 1929.55 2.56497 -2.47159 0
M  V30 20515 O 1928.41 4.10551 -3.60707 0
M  V30 20516 H 1925.5 0.644163 -0.518635 0
M  V30 20517 H 1928.05 0.721184 -1.53613 0
M  V30 20518 H 1926.82 1.95764 -3.3881 0
M  V30 20519 H 1926.45 3.26151 -2.27401 0
M  V30 20520 N 1927.44 1.27542 0.925789 0
M  V30 20521 C 1928.37 1.12952 2.04363 0
M  V30 20522 C 1929.35 0.0304761 1.70073 0
M  V30 20523 O 1930.54 0.205307 1.93112 0
M  V30 20524 C 1927.67 0.777954 3.38475 0
M  V30 20525 C 1926.62 1.83044 3.86883 0
M  V30 20526 C 1925.95 1.3328 5.17823 0
M  V30 20527 C 1927.25 3.23488 4.10065 0
M  V30 20528 H 1928.94 2.06462 2.16827 0
M  V30 20529 H 1926.49 0.994046 1.04186 0
M  V30 20530 H 1928.44 0.662702 4.16156 0
M  V30 20531 H 1927.17 -0.192851 3.2603 0
M  V30 20532 H 1925.82 1.93463 3.11396 0
M  V30 20533 H 1925.47 0.351399 5.01771 0
M  V30 20534 H 1925.17 2.03648 5.51182 0
M  V30 20535 H 1926.7 1.23053 5.98072 0
M  V30 20536 H 1928.11 3.16058 4.7831 0
M  V30 20537 H 1926.51 3.91583 4.54734 0
M  V30 20538 H 1927.58 3.68399 3.15293 0
M  V30 20539 N 1928.92 -1.13255 1.09595 0
M  V30 20540 C 1929.87 -2.20794 0.731624 0
M  V30 20541 C 1930.86 -1.67263 -0.268256 0
M  V30 20542 O 1932.07 -1.79533 -0.129535 0
M  V30 20543 H 1928.44 -0.719521 0.218618 0
M  V30 20544 H 1930.41 -2.48784 1.6477 0
M  V30 20545 C 1929.16 -3.47283 0.170214 0
M  V30 20546 H 1928.49 -3.88814 0.930805 0
M  V30 20547 H 1929.93 -4.23974 -0.0467499 0
M  V30 20548 C 1928.39 -3.18609 -1.09497 0
M  V30 20549 O 1928.92 -3.37534 -2.17793 0
M  V30 20550 N 1927.12 -2.72477 -1.01017 0
M  V30 20551 H 1926.67 -2.57278 -0.128814 0
M  V30 20552 H 1926.63 -2.53668 -1.85741 0
M  V30 20553 N 1930.4 -0.883401 -1.30514 0
M  V30 20554 C 1931.33 -0.36516 -2.30627 0
M  V30 20555 C 1932.31 0.551149 -1.60923 0
M  V30 20556 O 1933.49 0.465333 -1.88543 0
M  V30 20557 C 1930.62 0.422552 -3.4472 0
M  V30 20558 C 1929.58 -0.401856 -4.26109 0
M  V30 20559 C 1928.9 0.512363 -5.3224 0
M  V30 20560 C 1930.2 -1.64313 -4.95781 0
M  V30 20561 H 1931.9 -1.20175 -2.74223 0
M  V30 20562 H 1929.44 -0.579315 -1.31833 0
M  V30 20563 H 1931.4 0.795726 -4.13819 0
M  V30 20564 H 1930.12 1.29278 -2.99925 0
M  V30 20565 H 1928.78 -0.75715 -3.58696 0
M  V30 20566 H 1928.43 1.38025 -4.83692 0
M  V30 20567 H 1928.13 -0.0354331 -5.87589 0
M  V30 20568 H 1929.65 0.882088 -6.04195 0
M  V30 20569 H 1931.07 -1.34063 -5.57405 0
M  V30 20570 H 1929.46 -2.13101 -5.60989 0
M  V30 20571 H 1930.53 -2.38843 -4.21998 0
M  V30 20572 N 1931.88 1.43833 -0.644194 0
M  V30 20573 C 1932.81 2.33467 0.0394911 0
M  V30 20574 C 1933.79 1.48957 0.821339 0
M  V30 20575 O 1934.97 1.77644 0.784618 0
M  V30 20576 C 1932.1 3.32205 1.01277 0
M  V30 20577 C 1931.06 4.26634 0.341666 0
M  V30 20578 C 1930.38 5.15341 1.42577 0
M  V30 20579 C 1931.68 5.16737 -0.760299 0
M  V30 20580 H 1933.38 2.90883 -0.709025 0
M  V30 20581 H 1930.92 1.3987 -0.342413 0
M  V30 20582 H 1932.88 3.93803 1.49991 0
M  V30 20583 H 1931.6 2.73025 1.79234 0
M  V30 20584 H 1930.26 3.66387 -0.124937 0
M  V30 20585 H 1929.91 4.52505 2.19654 0
M  V30 20586 H 1929.61 5.79336 0.98203 0
M  V30 20587 H 1931.13 5.79811 1.91444 0
M  V30 20588 H 1932.54 5.72195 -0.355713 0
M  V30 20589 H 1930.94 5.89404 -1.12796 0
M  V30 20590 H 1932.01 4.56966 -1.62204 0
M  V30 20591 N 1933.35 0.385544 1.52811 0
M  V30 20592 C 1934.58 -0.198025 2.0595 0
M  V30 20593 C 1935 -1.40822 1.25756 0
M  V30 20594 O 1934.35 -1.79963 0.303251 0
M  V30 20595 C 1934.41 -0.571856 3.56948 0
M  V30 20596 O 1934.13 0.59026 4.34105 0
M  V30 20597 C 1935.63 -1.21169 4.26419 0
M  V30 20598 H 1932.85 -0.0307594 0.670295 0
M  V30 20599 H 1935.39 0.549688 1.96974 0
M  V30 20600 H 1933.55 -1.26947 3.6601 0
M  V30 20601 H 1933.96 0.28384 5.23731 0
M  V30 20602 H 1935.43 -1.42366 5.33325 0
M  V30 20603 H 1935.91 -2.17794 3.81395 0
M  V30 20604 H 1936.52 -0.554949 4.21664 0
M  V30 20605 N 1934.83 -1.57178 0.115259 0
M  V30 20606 C 1936.25 -1.57765 -0.241345 0
M  V30 20607 C 1936.45 -1.12775 -1.66985 0
M  V30 20608 O 1935.5 -0.813419 -2.39039 0
M  V30 20609 C 1936.82 -3.00698 -0.0114291 0
M  V30 20610 C 1938.37 -3.12904 -0.0776187 0
M  V30 20611 C 1938.84 -4.57831 0.124557 0
M  V30 20612 N 1940.33 -4.63146 0.0703998 0
M  V30 20613 C 1941.07 -5.73045 0.20179 0
M  V30 20614 N 1940.56 -6.91706 0.389143 0
M  V30 20615 N 1942.36 -5.61922 0.141629 0
M  V30 20616 H 1934.51 -1.84725 1.04836 0
M  V30 20617 H 1936.77 -0.853542 0.412517 0
M  V30 20618 H 1936.48 -3.37886 0.975995 0
M  V30 20619 H 1936.35 -3.69771 -0.744947 0
M  V30 20620 H 1938.74 -2.75575 -1.05556 0
M  V30 20621 H 1938.82 -2.46382 0.687719 0
M  V30 20622 H 1938.46 -4.95857 1.09946 0
M  V30 20623 H 1938.39 -5.22439 -0.660721 0
M  V30 20624 H 1940.88 -3.77833 -0.0710442 0
M  V30 20625 H 1941.2 -7.71306 0.480365 0
M  V30 20626 H 1939.54 -6.93699 0.425069 0
M  V30 20627 H 1942.73 -4.681 -0.00374873 0
M  V30 20628 H 1942.9 -6.47527 0.24747 0
M  V30 20629 N 1936.31 0.158505 -1.56801 0
M  V30 20630 C 1937.73 0.510743 -1.51207 0
M  V30 20631 C 1937.93 1.83983 -0.821733 0
M  V30 20632 O 1936.98 2.4951 -0.387444 0
M  V30 20633 C 1938.3 0.531668 -2.95962 0
M  V30 20634 C 1939.84 0.617983 -3.06839 0
M  V30 20635 C 1940.32 0.66968 -4.53078 0
M  V30 20636 N 1941.81 0.73222 -4.57376 0
M  V30 20637 C 1942.55 0.793011 -5.6789 0
M  V30 20638 N 1942.04 0.81385 -6.88003 0
M  V30 20639 N 1943.83 0.833013 -5.55893 0
M  V30 20640 H 1935.99 -0.712841 -2.00081 0
M  V30 20641 H 1938.25 -0.258572 -0.912055 0
M  V30 20642 H 1937.95 -0.376495 -3.49679 0
M  V30 20643 H 1937.83 1.37366 -3.51298 0
M  V30 20644 H 1940.22 1.51657 -2.53149 0
M  V30 20645 H 1940.3 -0.250933 -2.54566 0
M  V30 20646 H 1939.94 -0.2247 -5.07403 0
M  V30 20647 H 1939.87 1.55492 -5.0312 0
M  V30 20648 H 1942.36 0.72388 -3.70902 0
M  V30 20649 H 1942.67 0.861766 -7.6798 0
M  V30 20650 H 1941.02 0.781915 -6.90587 0
M  V30 20651 H 1944.21 0.813822 -4.60971 0
M  V30 20652 H 1944.38 0.876926 -6.42039 0
M  V30 20653 N 1937.79 1.51692 0.427485 0
M  V30 20654 C 1938.74 1.73716 1.51958 0
M  V30 20655 C 1939.71 0.579073 1.55679 0
M  V30 20656 O 1940.89 0.814605 1.72536 0
M  V30 20657 C 1938.03 1.87709 2.89585 0
M  V30 20658 C 1937.14 3.15297 2.95317 0
M  V30 20659 C 1936.28 3.19827 4.24128 0
M  V30 20660 C 1935.32 4.4169 4.23764 0
M  V30 20661 N 1934.46 4.43715 5.44116 0
M  V30 20662 H 1939.3 2.66933 1.3248 0
M  V30 20663 H 1936.83 1.32283 0.643393 0
M  V30 20664 H 1938.79 1.93804 3.69454 0
M  V30 20665 H 1937.42 0.978912 3.07599 0
M  V30 20666 H 1936.47 3.18464 2.08051 0
M  V30 20667 H 1937.78 4.05182 2.90911 0
M  V30 20668 H 1936.94 3.24892 5.12377 0
M  V30 20669 H 1935.68 2.27848 4.31204 0
M  V30 20670 H 1934.68 4.36791 3.33907 0
M  V30 20671 H 1935.91 5.34944 4.18343 0
M  V30 20672 H 1933.85 3.5461 5.51894 0
M  V30 20673 H 1933.77 5.27421 5.4163 0
M  V30 20674 H 1935.04 4.52986 6.34369 0
M  V30 20675 N 1939.27 -0.683564 1.42004 0
M  V30 20676 C 1940.2 -1.8095 1.47578 0
M  V30 20677 C 1941.18 -1.66804 0.333208 0
M  V30 20678 O 1942.36 -1.86357 0.546314 0
M  V30 20679 C 1939.49 -3.19182 1.36895 0
M  V30 20680 C 1938.45 -3.4805 2.49089 0
M  V30 20681 C 1937.77 -4.85764 2.23467 0
M  V30 20682 C 1939.07 -3.4582 3.91415 0
M  V30 20683 H 1940.77 -1.76543 2.41812 0
M  V30 20684 H 1938.31 -0.84794 1.16387 0
M  V30 20685 H 1940.27 -3.97674 1.39404 0
M  V30 20686 H 1938.99 -3.24245 0.391513 0
M  V30 20687 H 1937.65 -2.71915 2.45882 0
M  V30 20688 H 1937.3 -4.87467 1.24037 0
M  V30 20689 H 1937 -5.06043 2.98654 0
M  V30 20690 H 1938.52 -5.66551 2.27711 0
M  V30 20691 H 1939.94 -4.14297 3.96272 0
M  V30 20692 H 1938.33 -3.77633 4.66383 0
M  V30 20693 H 1939.4 -2.4456 4.1871 0
M  V30 20694 N 1940.75 -1.28031 -0.919012 0
M  V30 20695 C 1941.97 -1.17828 -1.70679 0
M  V30 20696 C 1942.4 0.260207 -1.86292 0
M  V30 20697 O 1941.75 1.18833 -1.36925 0
M  V30 20698 C 1941.8 -1.87626 -3.07943 0
M  V30 20699 O 1940.91 -1.18014 -3.95154 0
M  V30 20700 H 1940.25 -0.40932 -0.522832 0
M  V30 20701 H 1942.78 -1.69258 -1.14947 0
M  V30 20702 H 1942.79 -1.95327 -3.58206 0
M  V30 20703 H 1941.46 -2.92263 -2.95897 0
M  V30 20704 H 1940.04 -1.18441 -3.5359 0
M  V30 20705 N 1942.22 1.12672 -1.10194 0
M  V30 20706 C 1943.64 1.36123 -0.833225 0
M  V30 20707 C 1943.84 1.93889 0.548569 0
M  V30 20708 O 1942.9 2.16347 1.30192 0
M  V30 20709 C 1944.21 2.30515 -1.93089 0
M  V30 20710 C 1945.76 2.44111 -1.95905 0
M  V30 20711 C 1946.23 3.41816 -3.04838 0
M  V30 20712 N 1947.72 3.49371 -3.04128 0
M  V30 20713 C 1948.46 4.24874 -3.85058 0
M  V30 20714 N 1947.95 5.03464 -4.75916 0
M  V30 20715 N 1949.75 4.20255 -3.73285 0
M  V30 20716 H 1941.9 0.735332 -1.99265 0
M  V30 20717 H 1944.16 0.386141 -0.865794 0
M  V30 20718 H 1943.87 1.95239 -2.92531 0
M  V30 20719 H 1943.74 3.30611 -1.81593 0
M  V30 20720 H 1946.13 2.78669 -0.97097 0
M  V30 20721 H 1946.21 1.43911 -2.11479 0
M  V30 20722 H 1945.85 3.07988 -4.03864 0
M  V30 20723 H 1945.78 4.41839 -2.86506 0
M  V30 20724 H 1948.27 2.93303 -2.38289 0
M  V30 20725 H 1948.59 5.58406 -5.34231 0
M  V30 20726 H 1946.93 5.02669 -4.79946 0
M  V30 20727 H 1950.12 3.57939 -3.01658 0
M  V30 20728 H 1950.3 4.78843 -4.36593 0
M  V30 20729 N 1943.7 0.89031 1.30043 0
M  V30 20730 C 1944.63 0.377386 2.3043 0
M  V30 20731 C 1945.61 -0.542607 1.61213 0
M  V30 20732 O 1946.8 -0.455328 1.88787 0
M  V30 20733 C 1943.93 -0.404264 3.44939 0
M  V30 20734 C 1942.88 0.424448 4.2589 0
M  V30 20735 C 1942.21 -0.48413 5.32504 0
M  V30 20736 C 1943.51 1.6694 4.94902 0
M  V30 20737 H 1945.2 1.21628 2.73582 0
M  V30 20738 H 1942.75 0.586299 1.31524 0
M  V30 20739 H 1944.7 -0.773769 4.14235 0
M  V30 20740 H 1943.42 -1.27685 3.00606 0
M  V30 20741 H 1942.08 0.776162 3.58289 0
M  V30 20742 H 1941.73 -1.35458 4.84417 0
M  V30 20743 H 1941.43 0.0665939 5.87562 0
M  V30 20744 H 1942.96 -0.850034 6.04654 0
M  V30 20745 H 1944.37 1.37017 5.56686 0
M  V30 20746 H 1942.77 2.16073 5.59851 0
M  V30 20747 H 1943.84 2.41077 4.20725 0
M  V30 20748 N 1945.18 -1.43489 0.651812 0
M  V30 20749 C 1946.11 -2.33484 -0.0271093 0
M  V30 20750 C 1947.09 -1.4939 -0.813427 0
M  V30 20751 O 1948.28 -1.78058 -0.775186 0
M  V30 20752 C 1945.41 -3.32737 -0.995143 0
M  V30 20753 C 1944.36 -4.26809 -0.319036 0
M  V30 20754 C 1943.69 -5.1609 -1.39842 0
M  V30 20755 C 1944.99 -5.16326 0.787692 0
M  V30 20756 H 1946.68 -2.90503 0.724441 0
M  V30 20757 H 1944.23 -1.39686 0.349826 0
M  V30 20758 H 1946.18 -3.94593 -1.479 0
M  V30 20759 H 1944.9 -2.73972 -1.77784 0
M  V30 20760 H 1943.56 -3.66316 0.144366 0
M  V30 20761 H 1943.21 -4.53664 -2.17251 0
M  V30 20762 H 1942.91 -5.79848 -0.951292 0
M  V30 20763 H 1944.43 -5.80819 -1.88367 0
M  V30 20764 H 1945.85 -5.71999 0.386053 0
M  V30 20765 H 1944.24 -5.88798 1.1592 0
M  V30 20766 H 1945.31 -4.56099 1.64626 0
M  V30 20767 N 1946.66 -0.393643 -1.52605 0
M  V30 20768 C 1947.93 0.244939 -1.9406 0
M  V30 20769 C 1948.31 1.63981 -1.32942 0
M  V30 20770 O 1947.66 2.2298 -0.499195 0
M  V30 20771 C 1947.87 0.266912 -3.47978 0
M  V30 20772 C 1949.22 0.493768 -4.21719 0
M  V30 20773 O 1950.24 0.346936 -3.54506 0
M  V30 20774 O 1949.1 0.78183 -5.40879 0
M  V30 20775 H 1946.2 0.153387 -0.812651 0
M  V30 20776 H 1948.74 -0.448465 -1.63667 0
M  V30 20777 H 1947.52 -0.709958 -3.84806 0
M  V30 20778 H 1947.14 1.00506 -3.84687 0
M  V30 20779 N 1948.14 1.57115 -0.123593 0
M  V30 20780 C 1949.55 1.82342 0.401051 0
M  V30 20781 C 1949.9 1.04102 1.66304 0
M  V30 20782 O 1949.02 0.279024 2.14594 0
M  V30 20783 C 1949.62 3.30745 0.734394 0
M  V30 20784 C 1948.18 3.56636 1.20365 0
M  V30 20785 C 1947.32 2.76468 0.214686 0
M  V30 20786 H 1950.27 1.54823 -0.348657 0
M  V30 20787 H 1950.3 3.45624 1.59137 0
M  V30 20788 H 1949.81 3.87662 -0.184288 0
M  V30 20789 H 1947.91 3.05081 2.13908 0
M  V30 20790 H 1948.02 4.65197 1.1458 0
M  V30 20791 H 1946.39 2.44816 0.702648 0
M  V30 20792 H 1947.17 3.36146 -0.697174 0
M  V30 20793 N 1949.61 -0.150187 1.56883 0
M  V30 20794 C 1951.02 -0.710574 1.72649 0
M  V30 20795 C 1951.38 -1.81812 0.737493 0
M  V30 20796 O 1950.5 -2.16184 -0.0965795 0
M  V30 20797 C 1951.1 -1.29572 3.13044 0
M  V30 20798 C 1949.65 -1.80271 3.30423 0
M  V30 20799 C 1948.8 -0.689923 2.6858 0
M  V30 20800 H 1951.75 0.0754473 1.58521 0
M  V30 20801 H 1951.77 -2.16552 3.12867 0
M  V30 20802 H 1951.29 -0.489412 3.85002 0
M  V30 20803 H 1949.39 -2.63479 2.63457 0
M  V30 20804 H 1949.5 -1.93362 4.38347 0
M  V30 20805 H 1947.86 -1.11574 2.28961 0
M  V30 20806 H 1948.65 0.104892 3.4314 0
M  V30 20807 N 1951.09 -1.51916 -0.419434 0
M  V30 20808 C 1952.37 -1.56023 -1.17967 0
M  V30 20809 C 1952.75 -0.335094 -2.08423 0
M  V30 20810 O 1952.1 0.678731 -2.18187 0
M  V30 20811 C 1952.31 -2.8836 -1.96595 0
M  V30 20812 C 1953.66 -3.40979 -2.53019 0
M  V30 20813 O 1954.68 -2.90031 -2.06786 0
M  V30 20814 O 1953.54 -4.2992 -3.37388 0
M  V30 20815 H 1950.63 -0.628035 -0.538053 0
M  V30 20816 H 1953.18 -1.64239 -0.42705 0
M  V30 20817 H 1951.95 -3.6898 -1.30267 0
M  V30 20818 H 1951.57 -2.83389 -2.78884 0
M  V30 20819 N 1952.57 0.676023 -1.42365 0
M  V30 20820 C 1953.98 1.25659 -1.38082 0
M  V30 20821 C 1954.33 1.96062 -0.0734945 0
M  V30 20822 O 1953.46 1.99941 0.827793 0
M  V30 20823 C 1954.05 2.28531 -2.50118 0
M  V30 20824 C 1952.61 2.82117 -2.49172 0
M  V30 20825 C 1951.76 1.56422 -2.28971 0
M  V30 20826 H 1954.71 0.469489 -1.51596 0
M  V30 20827 H 1954.73 3.1024 -2.20299 0
M  V30 20828 H 1954.24 1.77261 -3.45254 0
M  V30 20829 H 1952.34 3.37511 -1.57851 0
M  V30 20830 H 1952.46 3.31216 -3.46168 0
M  V30 20831 H 1950.82 1.82946 -1.77208 0
M  V30 20832 H 1951.6 1.0712 -3.2616 0
M  V30 20833 N 1954.05 1.28517 0.912209 0
M  V30 20834 C 1954.98 1.15113 2.03153 0
M  V30 20835 C 1955.96 0.0485128 1.70031 0
M  V30 20836 O 1957.14 0.225778 1.92883 0
M  V30 20837 C 1954.27 0.81381 3.37631 0
M  V30 20838 C 1953.23 1.87137 3.8492 0
M  V30 20839 C 1952.55 1.38765 5.1638 0
M  V30 20840 C 1953.85 3.27819 4.06611 0
M  V30 20841 H 1955.55 2.0875 2.14625 0
M  V30 20842 H 1953.09 1.00504 1.03126 0
M  V30 20843 H 1955.05 0.706804 4.1543 0
M  V30 20844 H 1953.77 -0.15826 3.26216 0
M  V30 20845 H 1952.43 1.96755 3.09327 0
M  V30 20846 H 1952.08 0.404598 5.0137 0
M  V30 20847 H 1951.78 2.09482 5.48991 0
M  V30 20848 H 1953.3 1.29389 5.96733 0
M  V30 20849 H 1954.72 3.21114 4.7493 0
M  V30 20850 H 1953.11 3.96384 4.50555 0
M  V30 20851 H 1954.18 3.71723 3.11368 0
M  V30 20852 N 1955.53 -1.12086 1.1079 0
M  V30 20853 C 1956.77 -1.83314 0.850901 0
M  V30 20854 C 1957.1 -1.84703 -0.625275 0
M  V30 20855 O 1956.37 -1.31277 -1.45406 0
M  V30 20856 H 1954.95 -0.678817 0.311797 0
M  V30 20857 H 1957.61 -1.35707 1.39891 0
M  V30 20858 H 1956.7 -2.87393 1.21704 0
M  V30 20859 N 1957 -0.897194 -1.29569 0
M  V30 20860 C 1957.95 -0.371435 -2.27792 0
M  V30 20861 C 1958.92 0.545087 -1.56901 0
M  V30 20862 O 1960.11 0.47087 -1.84899 0
M  V30 20863 C 1957.25 0.397236 -3.42806 0
M  V30 20864 C 1956.36 -0.549895 -4.28486 0
M  V30 20865 C 1955.49 0.23558 -5.30677 0
M  V30 20866 C 1954.53 -0.706236 -6.08012 0
M  V30 20867 N 1953.67 0.0446763 -7.02086 0
M  V30 20868 H 1958.51 -1.21414 -2.72145 0
M  V30 20869 H 1956.05 -0.610055 -1.33853 0
M  V30 20870 H 1958.01 0.858933 -4.08262 0
M  V30 20871 H 1956.64 1.20441 -2.99489 0
M  V30 20872 H 1955.69 -1.13011 -3.63226 0
M  V30 20873 H 1957 -1.27092 -4.82337 0
M  V30 20874 H 1956.15 0.758588 -6.01939 0
M  V30 20875 H 1954.89 0.989757 -4.77551 0
M  V30 20876 H 1953.9 -1.24077 -5.35617 0
M  V30 20877 H 1955.12 -1.4597 -6.63227 0
M  V30 20878 H 1953.07 0.781165 -6.51332 0
M  V30 20879 H 1952.99 -0.616488 -7.53482 0
M  V30 20880 H 1954.25 0.548029 -7.77571 0
M  V30 20881 N 1958.48 1.43142 -0.659413 0
M  V30 20882 C 1959.76 1.95318 -0.104973 0
M  V30 20883 C 1960.14 1.60048 1.37651 0
M  V30 20884 O 1959.49 0.888746 2.10508 0
M  V30 20885 C 1959.7 3.47161 -0.357769 0
M  V30 20886 C 1961.05 4.23766 -0.26602 0
M  V30 20887 O 1962.07 3.55012 -0.290667 0
M  V30 20888 O 1960.93 5.46152 -0.195021 0
M  V30 20889 H 1958.02 0.826978 0.0060428 0
M  V30 20890 H 1960.57 1.53049 -0.733079 0
M  V30 20891 H 1959.34 3.65983 -1.38465 0
M  V30 20892 H 1958.96 3.96443 0.303102 0
M  V30 20893 N 1959.96 0.40173 1.52394 0
M  V30 20894 C 1961.21 -0.169136 2.02696 0
M  V30 20895 C 1961.56 -1.4343 1.28241 0
M  V30 20896 O 1960.85 -1.87836 0.377919 0
M  V30 20897 C 1961.05 -0.478372 3.54184 0
M  V30 20898 C 1960.88 0.755269 4.43312 0
M  V30 20899 C 1959.65 1.27826 4.88865 0
M  V30 20900 C 1961.85 1.63123 4.87745 0
M  V30 20901 N 1959.83 2.46816 5.62099 0
M  V30 20902 C 1961.2 2.66744 5.59685 0
M  V30 20903 C 1963.25 1.64986 4.6977 0
M  V30 20904 C 1961.96 3.72129 6.15559 0
M  V30 20905 C 1963.98 2.69286 5.26535 0
M  V30 20906 C 1963.34 3.71627 5.98392 0
M  V30 20907 H 1959.44 -0.0236524 0.781642 0
M  V30 20908 H 1962.03 0.554415 1.8664 0
M  V30 20909 H 1960.2 -1.17097 3.70328 0
M  V30 20910 H 1961.93 -1.03747 3.91176 0
M  V30 20911 H 1958.69 0.837395 4.66138 0
M  V30 20912 H 1959.11 3.07056 6.03362 0
M  V30 20913 H 1963.75 0.87206 4.13709 0
M  V30 20914 H 1961.47 4.50769 6.70696 0
M  V30 20915 H 1965.06 2.71626 5.145 0
M  V30 20916 H 1963.94 4.51008 6.4153 0
M  V30 20917 N 1961.44 -1.57047 0.131923 0
M  V30 20918 C 1962.68 -1.9752 -0.525856 0
M  V30 20919 C 1963.04 -1.01434 -1.63019 0
M  V30 20920 O 1964.24 -1.30894 -2.34777 0
M  V30 20921 C 1962.51 -3.42148 -1.03293 0
M  V30 20922 S 1964.07 -4.04639 -1.69742 0
M  V30 20923 H 1960.89 -0.690249 -0.170522 0
M  V30 20924 H 1963.49 -1.94257 0.220068 0
M  V30 20925 H 1962.2 -4.09819 -0.218206 0
M  V30 20926 H 1961.73 -3.4909 -1.81383 0
M  V30 20927 H 1963.74 -3.96455 -2.98392 0
M  V30 20928 N 1962.92 0.141865 -1.5696 0
M  V30 20929 C 1963.85 1.17667 -2.01685 0
M  V30 20930 C 1964.83 1.44509 -0.897282 0
M  V30 20931 O 1966.01 1.55342 -1.16544 0
M  V30 20932 C 1963.14 2.50859 -2.40182 0
M  V30 20933 C 1962.1 2.38527 -3.55371 0
M  V30 20934 C 1961.42 3.76476 -3.79697 0
M  V30 20935 C 1962.72 1.86502 -4.87867 0
M  V30 20936 H 1964.42 0.804761 -2.88382 0
M  V30 20937 H 1961.96 0.385672 -1.38739 0
M  V30 20938 H 1963.92 3.2348 -2.70071 0
M  V30 20939 H 1962.64 2.89895 -1.50428 0
M  V30 20940 H 1961.3 1.68357 -3.25656 0
M  V30 20941 H 1960.95 4.12957 -2.87186 0
M  V30 20942 H 1960.65 3.69085 -4.5722 0
M  V30 20943 H 1962.17 4.50638 -4.12017 0
M  V30 20944 H 1963.58 2.48921 -5.16441 0
M  V30 20945 H 1961.98 1.89989 -5.69231 0
M  V30 20946 H 1963.05 0.821025 -4.77899 0
M  V30 20947 N 1964.39 1.52136 0.411372 0
M  V30 20948 C 1965.32 1.78277 1.50796 0
M  V30 20949 C 1966.31 0.633643 1.57857 0
M  V30 20950 O 1967.49 0.879011 1.73168 0
M  V30 20951 C 1964.62 1.93142 2.88641 0
M  V30 20952 C 1963.57 3.08727 2.96431 0
M  V30 20953 C 1962.9 3.08812 4.36508 0
M  V30 20954 C 1964.2 4.48228 2.68122 0
M  V30 20955 H 1965.89 2.70102 1.29171 0
M  V30 20956 H 1963.44 1.29971 0.619965 0
M  V30 20957 H 1965.39 2.10012 3.65339 0
M  V30 20958 H 1964.12 0.979869 3.11554 0
M  V30 20959 H 1962.78 2.91604 2.22177 0
M  V30 20960 H 1962.42 2.11383 4.56428 0
M  V30 20961 H 1962.12 3.86444 4.42645 0
M  V30 20962 H 1963.65 3.27809 5.15144 0
M  V30 20963 H 1965.06 4.65568 3.34544 0
M  V30 20964 H 1963.46 5.27761 2.85638 0
M  V30 20965 H 1964.53 4.56478 1.63572 0
M  V30 20966 N 1965.87 -0.668464 1.42721 0
M  V30 20967 C 1966.84 -1.76365 1.46384 0
M  V30 20968 C 1967.84 -1.56932 0.350554 0
M  V30 20969 O 1969.03 -1.63109 0.611658 0
M  V30 20970 C 1966.16 -3.15071 1.30164 0
M  V30 20971 H 1967.35 -1.74503 2.43903 0
M  V30 20972 H 1964.9 -0.878695 1.29262 0
M  V30 20973 H 1965.64 -3.22555 0.335926 0
M  V30 20974 H 1965.42 -3.3058 2.10853 0
M  V30 20975 H 1966.91 -3.94963 1.35625 0
M  V30 20976 N 1967.35 -1.28999 -0.905381 0
M  V30 20977 C 1968.28 -1.07966 -2.01044 0
M  V30 20978 C 1969.26 0.00678474 -1.62599 0
M  V30 20979 O 1970.45 -0.142798 -1.87958 0
M  V30 20980 C 1967.57 -0.642417 -3.32552 0
M  V30 20981 C 1966.62 -1.72673 -3.89982 0
M  V30 20982 S 1967.45 -3.32466 -4.19794 0
M  V30 20983 C 1968.61 -2.90596 -5.54351 0
M  V30 20984 H 1968.84 -2.01523 -2.18576 0
M  V30 20985 H 1966.37 -1.13081 -1.05128 0
M  V30 20986 H 1968.33 -0.396855 -4.08577 0
M  V30 20987 H 1966.99 0.273463 -3.12907 0
M  V30 20988 H 1966.19 -1.37261 -4.84949 0
M  V30 20989 H 1965.79 -1.92552 -3.20624 0
M  V30 20990 H 1968.08 -2.37288 -6.34587 0
M  V30 20991 H 1969.02 -3.84392 -5.94683 0
M  V30 20992 H 1969.43 -2.2906 -5.15938 0
M  V30 20993 N 1968.83 1.11497 -1.11383 0
M  V30 20994 C 1969.78 2.19602 -0.766658 0
M  V30 20995 C 1970.77 1.67668 0.241612 0
M  V30 20996 O 1971.98 1.79717 0.100956 0
M  V30 20997 H 1968.35 0.715952 -0.230037 0
M  V30 20998 H 1970.32 2.46131 -1.68707 0
M  V30 20999 C 1969.07 3.46968 -0.225442 0
M  V30 21000 H 1968.4 3.87284 -0.992544 0
M  V30 21001 H 1969.84 4.23995 -0.0207066 0
M  V30 21002 C 1968.29 3.20311 1.04414 0
M  V30 21003 O 1968.82 3.40956 2.12395 0
M  V30 21004 N 1967.03 2.7405 0.966692 0
M  V30 21005 H 1966.58 2.5745 0.0878667 0
M  V30 21006 H 1966.54 2.56591 1.81682 0
M  V30 21007 N 1970.31 0.904053 1.29092 0
M  V30 21008 C 1971.24 0.401805 2.30017 0
M  V30 21009 C 1972.22 -0.525477 1.6178 0
M  V30 21010 O 1973.4 -0.435279 1.89259 0
M  V30 21011 C 1970.53 -0.367656 3.45348 0
M  V30 21012 C 1969.49 0.469596 4.25416 0
M  V30 21013 C 1968.81 -0.427624 5.32987 0
M  V30 21014 C 1970.11 1.7218 4.93104 0
M  V30 21015 H 1971.81 1.24523 2.72276 0
M  V30 21016 H 1969.35 0.600215 1.30895 0
M  V30 21017 H 1971.31 -0.729791 4.15033 0
M  V30 21018 H 1970.03 -1.2449 3.01944 0
M  V30 21019 H 1968.69 0.814119 3.57446 0
M  V30 21020 H 1968.34 -1.30313 4.85827 0
M  V30 21021 H 1968.04 0.128909 5.87459 0
M  V30 21022 H 1969.56 -0.785855 6.05522 0
M  V30 21023 H 1970.98 1.42914 5.55201 0
M  V30 21024 H 1969.37 2.21999 5.57527 0
M  V30 21025 H 1970.44 2.45526 4.18145 0
M  V30 21026 N 1971.79 -1.4279 0.666995 0
M  V30 21027 C 1973.03 -2.01245 0.185662 0
M  V30 21028 C 1973.35 -1.52966 -1.2094 0
M  V30 21029 O 1972.62 -0.748036 -1.81056 0
M  V30 21030 H 1971.2 -0.74411 0.0656484 0
M  V30 21031 H 1973.87 -1.74814 0.861754 0
M  V30 21032 H 1972.96 -3.11575 0.180905 0
M  V30 21033 N 1973.26 -0.409806 -1.52179 0
M  V30 21034 C 1974.19 0.406421 -2.29936 0
M  V30 21035 C 1975.17 1.04553 -1.34174 0
M  V30 21036 O 1976.36 1.05441 -1.63082 0
M  V30 21037 C 1973.49 1.52297 -3.12127 0
M  V30 21038 C 1972.44 1.00883 -4.15941 0
M  V30 21039 C 1971.77 2.21903 -4.8648 0
M  V30 21040 C 1973.07 0.0623996 -5.22263 0
M  V30 21041 H 1974.76 -0.242406 -2.98417 0
M  V30 21042 H 1972.31 -0.118023 -1.43516 0
M  V30 21043 H 1974.26 2.10097 -3.65291 0
M  V30 21044 H 1972.99 2.19968 -2.41416 0
M  V30 21045 H 1971.65 0.453228 -3.63788 0
M  V30 21046 H 1971.29 2.88131 -4.12298 0
M  V30 21047 H 1970.99 1.88153 -5.56662 0
M  V30 21048 H 1972.52 2.80308 -5.42457 0
M  V30 21049 H 1973.93 0.549223 -5.70663 0
M  V30 21050 H 1972.33 -0.186317 -5.99811 0
M  V30 21051 H 1973.4 -0.882673 -4.76799 0
M  V30 21052 N 1974.74 1.56975 -0.14025 0
M  V30 21053 C 1976.15 1.82757 0.381688 0
M  V30 21054 C 1976.5 1.0586 1.65191 0
M  V30 21055 O 1975.63 0.301768 2.14286 0
M  V30 21056 C 1976.22 3.31505 0.699272 0
M  V30 21057 C 1974.78 3.57892 1.16576 0
M  V30 21058 C 1973.93 2.7668 0.185351 0
M  V30 21059 H 1976.88 1.54444 -0.365058 0
M  V30 21060 H 1976.9 3.47292 1.55462 0
M  V30 21061 H 1976.41 3.87445 -0.225394 0
M  V30 21062 H 1974.51 3.07332 2.1066 0
M  V30 21063 H 1974.63 4.66386 1.0964 0
M  V30 21064 H 1972.99 2.45548 0.676642 0
M  V30 21065 H 1973.77 3.35388 -0.732787 0
M  V30 21066 N 1976.22 -0.133539 1.57033 0
M  V30 21067 C 1977.5 -0.873327 1.75021 0
M  V30 21068 C 1977.88 -1.98735 0.71187 0
M  V30 21069 O 1977.22 -2.26937 -0.266823 0
M  V30 21070 C 1977.43 -1.40341 3.19539 0
M  V30 21071 C 1978.78 -1.86151 3.81619 0
M  V30 21072 O 1979.81 -1.50053 3.23052 0
M  V30 21073 O 1978.67 -2.52767 4.84532 0
M  V30 21074 H 1975.76 -0.413669 0.716105 0
M  V30 21075 H 1978.31 -0.118413 1.69286 0
M  V30 21076 H 1977.08 -0.60345 3.86619 0
M  V30 21077 H 1976.7 -2.22145 3.29754 0
M  V30 21078 N 1977.7 -1.52352 -0.403298 0
M  V30 21079 C 1978.63 -1.79074 -1.49849 0
M  V30 21080 C 1979.61 -0.642006 -1.57519 0
M  V30 21081 O 1980.79 -0.888182 -1.72699 0
M  V30 21082 C 1977.92 -1.9467 -2.87612 0
M  V30 21083 C 1976.88 -3.10295 -2.9479 0
M  V30 21084 C 1976.2 -3.11122 -4.34864 0
M  V30 21085 C 1977.5 -4.49643 -2.65741 0
M  V30 21086 H 1979.2 -2.70783 -1.27737 0
M  V30 21087 H 1976.74 -1.30298 -0.613064 0
M  V30 21088 H 1978.7 -2.11947 -3.64221 0
M  V30 21089 H 1977.42 -0.996377 -3.1103 0
M  V30 21090 H 1976.08 -2.92778 -2.20627 0
M  V30 21091 H 1975.73 -2.13801 -4.553 0
M  V30 21092 H 1975.43 -3.88786 -4.4059 0
M  V30 21093 H 1976.95 -3.30536 -5.13399 0
M  V30 21094 H 1978.37 -4.67335 -3.3207 0
M  V30 21095 H 1976.76 -5.29268 -2.82835 0
M  V30 21096 H 1977.83 -4.57339 -1.61149 0
M  V30 21097 N 1979.18 0.660885 -1.43074 0
M  V30 21098 C 1980.42 1.42296 -1.44498 0
M  V30 21099 C 1980.75 1.94087 -0.0661594 0
M  V30 21100 O 1980.03 1.71803 0.911806 0
M  V30 21101 C 1980.31 2.60995 -2.481 0
M  V30 21102 C 1980.17 2.14746 -3.95227 0
M  V30 21103 C 1981.48 3.63212 -2.48526 0
M  V30 21104 H 1978.6 0.516071 -0.526156 0
M  V30 21105 H 1981.25 0.749896 -1.74575 0
M  V30 21106 H 1979.4 3.18417 -2.22583 0
M  V30 21107 H 1981.07 1.62384 -4.31774 0
M  V30 21108 H 1979.31 1.46188 -4.08426 0
M  V30 21109 H 1979.98 3.00068 -4.63318 0
M  V30 21110 H 1982.46 3.15534 -2.71251 0
M  V30 21111 H 1981.33 4.43825 -3.22971 0
M  V30 21112 H 1981.59 4.15285 -1.51626 0
M  V30 21113 N 1980.65 1.29477 0.898527 0
M  V30 21114 C 1981.62 1.14706 1.98432 0
M  V30 21115 C 1982.62 0.0821822 1.6059 0
M  V30 21116 O 1983.81 0.329216 1.71061 0
M  V30 21117 C 1980.94 0.754356 3.32449 0
M  V30 21118 H 1982.13 2.11154 2.12964 0
M  V30 21119 H 1979.69 1.1268 1.08319 0
M  V30 21120 H 1980.42 -0.210224 3.23618 0
M  V30 21121 H 1980.21 1.52377 3.61281 0
M  V30 21122 H 1981.7 0.674095 4.12123 0
M  V30 21123 N 1982.13 -1.10905 1.11972 0
M  V30 21124 C 1983.08 -2.17107 0.783135 0
M  V30 21125 C 1984.05 -1.6424 -0.24791 0
M  V30 21126 O 1985.23 -1.90399 -0.123577 0
M  V30 21127 C 1982.37 -3.44274 0.238574 0
M  V30 21128 C 1981.49 -4.11119 1.32685 0
M  V30 21129 C 1980.62 -5.25989 0.742236 0
M  V30 21130 C 1979.66 -5.84728 1.80997 0
M  V30 21131 N 1978.8 -6.90983 1.24444 0
M  V30 21132 H 1983.64 -2.45243 1.69292 0
M  V30 21133 H 1981.18 -1.20386 0.845323 0
M  V30 21134 H 1983.13 -4.17091 -0.0951679 0
M  V30 21135 H 1981.76 -3.16505 -0.634384 0
M  V30 21136 H 1980.82 -3.3632 1.77745 0
M  V30 21137 H 1982.13 -4.50824 2.13445 0
M  V30 21138 H 1981.28 -6.05638 0.358877 0
M  V30 21139 H 1980.02 -4.87604 -0.096622 0
M  V30 21140 H 1979.03 -5.03753 2.20258 0
M  V30 21141 H 1980.25 -6.25178 2.65196 0
M  V30 21142 H 1978.2 -6.54607 0.427323 0
M  V30 21143 H 1978.11 -7.29374 1.98869 0
M  V30 21144 H 1979.38 -7.74424 0.888154 0
M  V30 21145 N 1983.61 -0.910886 -1.2861 0
M  V30 21146 C 1984.84 -0.557522 -1.98935 0
M  V30 21147 C 1985.25 0.864875 -1.68275 0
M  V30 21148 O 1984.59 1.58401 -0.930312 0
M  V30 21149 C 1984.65 -0.683336 -3.52946 0
M  V30 21150 C 1984.32 -2.07475 -4.07189 0
M  V30 21151 C 1985.31 -3.04716 -4.21241 0
M  V30 21152 C 1983 -2.38716 -4.4195 0
M  V30 21153 C 1984.99 -4.31315 -4.69303 0
M  V30 21154 C 1982.68 -3.65555 -4.89707 0
M  V30 21155 C 1983.68 -4.61669 -5.0334 0
M  V30 21156 O 1983.37 -5.86254 -5.50056 0
M  V30 21157 H 1983.1 -0.211519 -0.642056 0
M  V30 21158 H 1985.65 -1.22539 -1.64843 0
M  V30 21159 H 1983.88 0.0415955 -3.86678 0
M  V30 21160 H 1985.57 -0.337494 -4.04494 0
M  V30 21161 H 1986.34 -2.81898 -3.94662 0
M  V30 21162 H 1982.22 -1.64658 -4.30591 0
M  V30 21163 H 1985.76 -5.0634 -4.79859 0
M  V30 21164 H 1981.66 -3.88199 -5.15724 0
M  V30 21165 H 1982.43 -5.89002 -5.68347 0
M  V30 21166 N 1985.09 1.42434 -0.674558 0
M  V30 21167 C 1986.04 2.32595 0.0155851 0
M  V30 21168 C 1987.03 1.49809 0.790806 0
M  V30 21169 O 1988.24 1.65882 0.698798 0
M  V30 21170 H 1984.61 0.751622 0.0238347 0
M  V30 21171 H 1986.58 2.88501 -0.762224 0
M  V30 21172 C 1985.33 3.34379 0.953202 0
M  V30 21173 H 1984.65 3.9812 0.366105 0
M  V30 21174 H 1986.09 4.00052 1.40479 0
M  V30 21175 C 1984.55 2.66623 2.05946 0
M  V30 21176 O 1985.08 2.49795 3.14588 0
M  V30 21177 N 1983.29 2.25652 1.83111 0
M  V30 21178 H 1982.84 2.39538 0.947593 0
M  V30 21179 H 1982.79 1.80649 2.57319 0
M  V30 21180 N 1986.57 0.417871 1.51959 0
M  V30 21181 C 1987.79 -0.154295 2.06324 0
M  V30 21182 C 1988.21 -1.38123 1.28714 0
M  V30 21183 O 1987.57 -1.79279 0.341355 0
M  V30 21184 C 1987.62 -0.496014 3.58081 0
M  V30 21185 O 1987.34 0.682208 4.32756 0
M  V30 21186 C 1988.84 -1.12097 4.28893 0
M  V30 21187 H 1986.06 -0.0165345 0.670796 0
M  V30 21188 H 1988.6 0.591345 1.95764 0
M  V30 21189 H 1986.76 -1.19155 3.6862 0
M  V30 21190 H 1987.17 0.394868 5.23012 0
M  V30 21191 H 1988.65 -1.31021 5.36225 0
M  V30 21192 H 1989.12 -2.09655 3.85929 0
M  V30 21193 H 1989.73 -0.465383 4.22746 0
M  V30 21194 N 1988.04 -1.56898 0.148573 0
M  V30 21195 C 1989.27 -2.00974 -0.512287 0
M  V30 21196 C 1989.69 -1.02801 -1.57523 0
M  V30 21197 O 1989.05 -0.00400411 -1.813 0
M  V30 21198 C 1989.1 -3.43785 -1.08832 0
M  V30 21199 O 1988.2 -3.4862 -2.20313 0
M  V30 21200 H 1987.55 -0.652102 -0.125133 0
M  V30 21201 H 1990.08 -2.03119 0.245769 0
M  V30 21202 H 1990.09 -3.82618 -1.41659 0
M  V30 21203 H 1988.76 -4.14744 -0.309923 0
M  V30 21204 H 1987.34 -3.2163 -1.88702 0
M  V30 21205 N 1989.52 0.125209 -1.57102 0
M  V30 21206 C 1990.47 1.17292 -2.00861 0
M  V30 21207 C 1991.46 1.4323 -0.904511 0
M  V30 21208 O 1992.67 1.43266 -1.08972 0
M  V30 21209 H 1989.05 0.395322 -0.639706 0
M  V30 21210 H 1991.02 0.777307 -2.88098 0
M  V30 21211 C 1989.77 2.49311 -2.42362 0
M  V30 21212 H 1989.09 2.30188 -3.26884 0
M  V30 21213 H 1990.53 3.21196 -2.76784 0
M  V30 21214 C 1988.99 3.1144 -1.2848 0
M  V30 21215 O 1989.52 3.97233 -0.597373 0
M  V30 21216 N 1987.72 2.71221 -1.04344 0
M  V30 21217 H 1987.27 2.0155 -1.60423 0
M  V30 21218 H 1987.23 3.1312 -0.283408 0
M  V30 21219 N 1991 1.52564 0.395213 0
M  V30 21220 C 1992.25 1.66974 1.1386 0
M  V30 21221 C 1992.57 0.409016 1.90662 0
M  V30 21222 O 1991.84 -0.576451 1.87227 0
M  V30 21223 H 1990.42 0.61548 0.423313 0
M  V30 21224 H 1993.08 1.89657 0.449024 0
M  V30 21225 H 1992.18 2.5173 1.84496 0
M  V30 21226 N 1992.48 -0.653289 1.43422 0
M  V30 21227 C 1993.44 -1.74802 1.48246 0
M  V30 21228 C 1994.44 -1.56552 0.367179 0
M  V30 21229 O 1995.63 -1.62451 0.628923 0
M  V30 21230 C 1992.76 -3.13673 1.33499 0
M  V30 21231 H 1993.96 -1.71906 2.4574 0
M  V30 21232 H 1991.51 -0.864936 1.30187 0
M  V30 21233 H 1992.24 -3.22181 0.370118 0
M  V30 21234 H 1992.03 -3.28325 2.14348 0
M  V30 21235 H 1993.52 -3.93502 1.39806 0
M  V30 21236 N 1993.96 -1.29952 -0.891648 0
M  V30 21237 C 1995.37 -1.16586 -1.45824 0
M  V30 21238 C 1995.72 0.235978 -1.94776 0
M  V30 21239 O 1994.84 1.13214 -1.84422 0
M  V30 21240 C 1995.44 -2.11036 -2.65046 0
M  V30 21241 C 1994 -2.01668 -3.17816 0
M  V30 21242 C 1993.14 -2.015 -1.90507 0
M  V30 21243 H 1996.1 -1.42319 -0.702216 0
M  V30 21244 H 1996.12 -1.68729 -3.41044 0
M  V30 21245 H 1995.63 -3.13054 -2.29387 0
M  V30 21246 H 1993.73 -1.02767 -3.58147 0
M  V30 21247 H 1993.84 -2.89729 -3.81568 0
M  V30 21248 H 1992.21 -1.46209 -2.08555 0
M  V30 21249 H 1992.99 -3.05237 -1.57115 0
M  V30 21250 N 1995.44 1.1031 -1.12559 0
M  V30 21251 C 1996.38 2.16689 -0.794638 0
M  V30 21252 C 1997.35 1.64369 0.239196 0
M  V30 21253 O 1998.54 1.90462 0.113478 0
M  V30 21254 C 1995.68 3.44143 -0.256828 0
M  V30 21255 C 1994.79 4.10409 -1.34863 0
M  V30 21256 C 1993.93 5.25588 -0.77012 0
M  V30 21257 C 1992.96 5.8376 -1.84096 0
M  V30 21258 N 1992.1 6.90314 -1.28107 0
M  V30 21259 H 1996.94 2.44342 -1.7059 0
M  V30 21260 H 1994.48 1.19936 -0.851695 0
M  V30 21261 H 1996.44 4.17136 0.0730472 0
M  V30 21262 H 1995.07 3.16837 0.61759 0
M  V30 21263 H 1994.12 3.35372 -1.79526 0
M  V30 21264 H 1995.43 4.49686 -2.15833 0
M  V30 21265 H 1994.58 6.05439 -0.390991 0
M  V30 21266 H 1993.32 4.87649 0.0707618 0
M  V30 21267 H 1992.33 5.02577 -2.22926 0
M  V30 21268 H 1993.55 6.23763 -2.68508 0
M  V30 21269 H 1991.5 6.54371 -0.462033 0
M  V30 21270 H 1991.42 7.28309 -2.02735 0
M  V30 21271 H 1992.68 7.73942 -0.929211 0
M  V30 21272 N 1996.91 0.917694 1.28125 0
M  V30 21273 C 1998.19 0.471682 1.89828 0
M  V30 21274 C 1998.57 -1.04974 1.83149 0
M  V30 21275 O 1997.92 -1.89953 1.27004 0
M  V30 21276 C 1998.13 1.00649 3.34172 0
M  V30 21277 C 1999.48 1.06095 4.11131 0
M  V30 21278 O 2000.5 0.955405 3.43148 0
M  V30 21279 O 1999.36 1.22219 5.32658 0
M  V30 21280 H 1996.45 0.150129 0.813259 0
M  V30 21281 H 1999 1.00873 1.36465 0
M  V30 21282 H 1997.77 2.05043 3.33276 0
M  V30 21283 H 1997.39 0.450491 3.9504 0
M  V30 21284 N 1998.39 -1.42074 0.682102 0
M  V30 21285 C 1999.64 -2.01435 0.207406 0
M  V30 21286 C 1999.97 -1.53963 -1.18851 0
M  V30 21287 O 1999.22 -0.735693 -1.81345 0
M  V30 21288 C 1999.52 -3.56848 0.198622 0
M  V30 21289 C 1999.19 -4.23779 1.54021 0
M  V30 21290 C 1997.85 -4.41777 1.90752 0
M  V30 21291 C 2000.2 -4.61432 2.42343 0
M  V30 21292 C 1997.53 -4.94701 3.15417 0
M  V30 21293 C 1999.88 -5.15739 3.66328 0
M  V30 21294 C 1998.54 -5.3195 4.03219 0
M  V30 21295 H 1997.81 -0.737103 0.0758954 0
M  V30 21296 H 2000.46 -1.70159 0.878532 0
M  V30 21297 H 1998.77 -3.87834 -0.556029 0
M  V30 21298 H 2000.46 -4.00568 -0.185986 0
M  V30 21299 H 1997.05 -4.10135 1.24448 0
M  V30 21300 H 2001.24 -4.47193 2.15249 0
M  V30 21301 H 1996.49 -5.05436 3.44012 0
M  V30 21302 H 2000.67 -5.43857 4.34963 0
M  V30 21303 H 1998.29 -5.72723 4.99893 0
M  V30 21304 N 1999.87 -0.425924 -1.51735 0
M  V30 21305 C 2000.8 0.382011 -2.30354 0
M  V30 21306 C 2001.78 1.03124 -1.35276 0
M  V30 21307 O 2002.97 1.03705 -1.64191 0
M  V30 21308 C 2000.1 1.48978 -3.13724 0
M  V30 21309 C 1999.05 0.964659 -4.16987 0
M  V30 21310 C 1998.38 2.1673 -4.88807 0
M  V30 21311 C 1999.68 0.00700314 -5.223 0
M  V30 21312 H 2001.37 -0.274043 -2.98143 0
M  V30 21313 H 1998.92 -0.133238 -1.43382 0
M  V30 21314 H 2000.87 2.06211 -3.67498 0
M  V30 21315 H 1999.59 2.17396 -2.43735 0
M  V30 21316 H 1998.25 0.414618 -3.64248 0
M  V30 21317 H 1997.9 2.83741 -4.15331 0
M  V30 21318 H 1997.6 1.82239 -5.58626 0
M  V30 21319 H 1999.12 2.74538 -5.454 0
M  V30 21320 H 2000.54 0.488665 -5.71214 0
M  V30 21321 H 1998.93 -0.249924 -5.99579 0
M  V30 21322 H 2000 -0.933195 -4.75836 0
M  V30 21323 N 2001.35 1.56817 -0.156891 0
M  V30 21324 C 2002.76 1.83151 0.362283 0
M  V30 21325 C 2003.11 1.07606 1.64059 0
M  V30 21326 O 2002.23 0.324479 2.13953 0
M  V30 21327 C 2002.83 3.32228 0.664072 0
M  V30 21328 C 2001.39 3.59109 1.12773 0
M  V30 21329 C 2000.54 2.76861 0.155995 0
M  V30 21330 H 2003.49 1.54048 -0.381419 0
M  V30 21331 H 2003.51 3.48921 1.5177 0
M  V30 21332 H 2003.02 3.87184 -0.266475 0
M  V30 21333 H 2001.12 3.0955 2.07388 0
M  V30 21334 H 2001.23 4.67523 1.04687 0
M  V30 21335 H 1999.6 2.46251 0.650561 0
M  V30 21336 H 2000.38 3.34592 -0.768318 0
M  V30 21337 N 2002.83 -0.116876 1.57166 0
M  V30 21338 C 2004.05 -0.842338 1.89524 0
M  V30 21339 C 2004.48 -1.72543 0.749039 0
M  V30 21340 O 2003.83 -1.78795 -0.30035 0
M  V30 21341 C 2003.88 -1.64989 3.20641 0
M  V30 21342 O 2002.99 -2.75701 3.06696 0
M  V30 21343 H 2002.33 -0.232809 0.621849 0
M  V30 21344 H 2004.86 -0.0986366 2.04362 0
M  V30 21345 H 2004.87 -2.03869 3.53414 0
M  V30 21346 H 2003.54 -1.00164 4.03658 0
M  V30 21347 H 2002.12 -2.40009 2.85395 0
M  V30 21348 N 2004.3 -1.52772 -0.387116 0
M  V30 21349 C 2005.71 -1.59829 -0.964966 0
M  V30 21350 C 2006.07 -0.452304 -1.90915 0
M  V30 21351 O 2005.19 0.424353 -2.12199 0
M  V30 21352 C 2005.79 -2.89687 -1.7569 0
M  V30 21353 C 2004.34 -2.99151 -2.28442 0
M  V30 21354 C 2003.49 -2.54957 -1.0905 0
M  V30 21355 H 2006.44 -1.57823 -0.1666 0
M  V30 21356 H 2006.46 -2.76279 -2.6163 0
M  V30 21357 H 2005.98 -3.73074 -1.06945 0
M  V30 21358 H 2004.08 -2.20305 -3.00494 0
M  V30 21359 H 2004.19 -4.03827 -2.578 0
M  V30 21360 H 2002.55 -2.09321 -1.45109 0
M  V30 21361 H 2003.34 -3.40741 -0.418373 0
M  V30 21362 N 2005.78 0.645673 -1.43767 0
M  V30 21363 C 2006.71 1.76974 -1.52324 0
M  V30 21364 C 2007.69 1.65862 -0.377316 0
M  V30 21365 O 2008.88 1.84843 -0.595532 0
M  V30 21366 C 2006.01 3.1544 -1.4531 0
M  V30 21367 C 2004.96 3.41324 -2.58229 0
M  V30 21368 C 2004.29 4.79669 -2.36267 0
M  V30 21369 C 2005.59 3.35321 -4.00446 0
M  V30 21370 H 2007.28 1.70069 -2.46408 0
M  V30 21371 H 2004.83 0.816784 -1.18594 0
M  V30 21372 H 2006.78 3.93838 -1.49899 0
M  V30 21373 H 2005.5 3.23093 -0.477344 0
M  V30 21374 H 2004.16 2.653 -2.53005 0
M  V30 21375 H 2003.81 4.84007 -1.36918 0
M  V30 21376 H 2003.51 4.97947 -3.11966 0
M  V30 21377 H 2005.04 5.60315 -2.42652 0
M  V30 21378 H 2006.45 4.03644 -4.07117 0
M  V30 21379 H 2004.85 3.65135 -4.76231 0
M  V30 21380 H 2005.92 2.33373 -4.25047 0
M  V30 21381 N 2007.26 1.30423 0.884744 0
M  V30 21382 C 2008.21 1.13434 1.97779 0
M  V30 21383 C 2009.19 0.0494483 1.60824 0
M  V30 21384 O 2010.39 0.272793 1.74885 0
M  V30 21385 C 2007.51 0.828489 3.33153 0
M  V30 21386 C 2006.6 1.95365 3.76422 0
M  V30 21387 N 2006.99 3.19903 3.91785 0
M  V30 21388 C 2005.29 1.85007 4.05818 0
M  V30 21389 C 2005.99 3.93408 4.28492 0
M  V30 21390 N 2004.97 3.2146 4.38366 0
M  V30 21391 H 2008.77 2.07889 2.07748 0
M  V30 21392 H 2006.28 1.21765 1.07457 0
M  V30 21393 H 2008.28 0.687799 4.11187 0
M  V30 21394 H 2006.94 -0.107985 3.2452 0
M  V30 21395 H 2007.95 3.55189 3.7691 0
M  V30 21396 H 2004.63 0.987286 4.05659 0
M  V30 21397 H 2006.02 5.00656 4.48099 0
M  V30 21398 N 2008.74 -1.09711 1.13142 0
M  V30 21399 C 2009.7 -2.14443 0.809114 0
M  V30 21400 C 2010.7 -1.59789 -0.18005 0
M  V30 21401 O 2011.89 -1.74137 0.0466686 0
M  V30 21402 C 2009.02 -3.40291 0.203714 0
M  V30 21403 H 2010.22 -2.44466 1.73713 0
M  V30 21404 H 2007.77 -1.252 0.935663 0
M  V30 21405 H 2008.5 -3.15892 -0.733667 0
M  V30 21406 H 2008.29 -3.8125 0.916003 0
M  V30 21407 H 2009.78 -4.176 -0.00503851 0
M  V30 21408 N 2010.22 -0.924476 -1.27637 0
M  V30 21409 C 2011.15 -0.438348 -2.29349 0
M  V30 21410 C 2012.13 0.499673 -1.62595 0
M  V30 21411 O 2013.31 0.405114 -1.89928 0
M  V30 21412 C 2010.44 0.312668 -3.4589 0
M  V30 21413 C 2009.4 -0.537216 -4.24615 0
M  V30 21414 C 2008.72 0.342776 -5.336 0
M  V30 21415 C 2010.02 -1.80003 -4.90302 0
M  V30 21416 H 2011.72 -1.28838 -2.70261 0
M  V30 21417 H 2009.26 -0.620964 -1.29923 0
M  V30 21418 H 2011.22 0.66367 -4.16141 0
M  V30 21419 H 2009.94 1.1967 -3.03886 0
M  V30 21420 H 2008.6 -0.870883 -3.56106 0
M  V30 21421 H 2008.25 1.22567 -4.87838 0
M  V30 21422 H 2007.95 -0.222352 -5.87179 0
M  V30 21423 H 2009.47 0.689422 -6.06695 0
M  V30 21424 H 2010.88 -1.51729 -5.52857 0
M  V30 21425 H 2009.28 -2.3084 -5.53925 0
M  V30 21426 H 2010.35 -2.52148 -4.14186 0
M  V30 21427 N 2011.69 1.41711 -0.689627 0
M  V30 21428 C 2012.62 2.33474 -0.0348045 0
M  V30 21429 C 2013.61 1.51494 0.773533 0
M  V30 21430 O 2014.79 1.8005 0.727705 0
M  V30 21431 C 2011.92 3.35259 0.906573 0
M  V30 21432 C 2010.87 4.27505 0.205762 0
M  V30 21433 C 2010.2 5.19616 1.26109 0
M  V30 21434 C 2011.5 5.14056 -0.92431 0
M  V30 21435 H 2013.19 2.88481 -0.801208 0
M  V30 21436 H 2010.74 1.3871 -0.386738 0
M  V30 21437 H 2012.69 3.98375 1.37386 0
M  V30 21438 H 2011.42 2.78589 1.70457 0
M  V30 21439 H 2010.08 3.65804 -0.241437 0
M  V30 21440 H 2009.72 4.59264 2.05147 0
M  V30 21441 H 2009.42 5.82167 0.797221 0
M  V30 21442 H 2010.95 5.85609 1.72901 0
M  V30 21443 H 2012.36 5.70774 -0.537573 0
M  V30 21444 H 2010.76 5.85517 -1.3149 0
M  V30 21445 H 2011.83 4.51574 -1.7666 0
M  V30 21446 N 2013.17 0.433965 1.51507 0
M  V30 21447 C 2014.59 0.0860823 1.59368 0
M  V30 21448 C 2014.79 -1.40421 1.44513 0
M  V30 21449 O 2013.84 -2.17377 1.28465 0
M  V30 21450 C 2015.16 0.603181 2.94588 0
M  V30 21451 C 2016.71 0.563326 3.07889 0
M  V30 21452 C 2017.18 1.05734 4.45628 0
M  V30 21453 N 2018.67 1.01519 4.51938 0
M  V30 21454 C 2019.41 1.36835 5.56834 0
M  V30 21455 N 2018.9 1.79419 6.69164 0
M  V30 21456 N 2020.7 1.28673 5.47174 0
M  V30 21457 H 2012.85 1.40366 1.59408 0
M  V30 21458 H 2015.11 0.578206 0.751253 0
M  V30 21459 H 2014.82 1.64576 3.10818 0
M  V30 21460 H 2014.69 0.0262621 3.77191 0
M  V30 21461 H 2017.08 -0.470257 2.91329 0
M  V30 21462 H 2017.16 1.17661 2.27134 0
M  V30 21463 H 2016.8 2.08938 4.62934 0
M  V30 21464 H 2016.73 0.420634 5.24917 0
M  V30 21465 H 2019.22 0.702422 3.71314 0
M  V30 21466 H 2019.54 2.04612 7.45221 0
M  V30 21467 H 2017.88 1.83343 6.70381 0
M  V30 21468 H 2021.07 0.952726 4.58302 0
M  V30 21469 H 2021.24 1.56524 6.28812 0
M  V30 21470 N 2014.65 -1.56732 0.165206 0
M  V30 21471 C 2015.56 -2.2125 -0.780107 0
M  V30 21472 C 2016.58 -1.20227 -1.25784 0
M  V30 21473 O 2017.75 -1.52868 -1.31124 0
M  V30 21474 C 2014.82 -2.83579 -1.99459 0
M  V30 21475 C 2013.88 -3.99784 -1.56434 0
M  V30 21476 C 2013.11 -4.5913 -2.72094 0
M  V30 21477 O 2013.33 -4.17363 -3.88799 0
M  V30 21478 O 2012.27 -5.49101 -2.46519 0
M  V30 21479 H 2016.09 -3.02578 -0.260803 0
M  V30 21480 H 2013.68 -1.49268 -0.0627015 0
M  V30 21481 H 2015.56 -3.23123 -2.70499 0
M  V30 21482 H 2014.24 -2.05251 -2.50307 0
M  V30 21483 H 2013.14 -3.64921 -0.823629 0
M  V30 21484 H 2014.48 -4.79686 -1.10284 0
M  V30 21485 N 2016.13 0.10854 -1.57226 0
M  V30 21486 C 2017.37 0.810631 -1.86548 0
M  V30 21487 C 2017.73 1.76996 -0.754326 0
M  V30 21488 O 2017.02 1.90029 0.244823 0
M  V30 21489 C 2017.22 1.58963 -3.20102 0
M  V30 21490 C 2017.05 0.70724 -4.44104 0
M  V30 21491 C 2015.82 0.358083 -5.0403 0
M  V30 21492 C 2018.01 0.0201857 -5.14296 0
M  V30 21493 N 2016 -0.533879 -6.11574 0
M  V30 21494 C 2017.37 -0.730366 -6.15683 0
M  V30 21495 C 2019.42 -0.0551418 -4.97869 0
M  V30 21496 C 2018.12 -1.54919 -7.02419 0
M  V30 21497 C 2020.15 -0.860819 -5.85102 0
M  V30 21498 C 2019.51 -1.59953 -6.85999 0
M  V30 21499 H 2015.61 0.273227 -0.732715 0
M  V30 21500 H 2018.2 0.0738221 -1.9456 0
M  V30 21501 H 2016.37 2.29741 -3.13167 0
M  V30 21502 H 2018.1 2.23787 -3.37196 0
M  V30 21503 H 2014.85 0.702704 -4.68358 0
M  V30 21504 H 2015.28 -0.972017 -6.69986 0
M  V30 21505 H 2019.92 0.50163 -4.19814 0
M  V30 21506 H 2017.64 -2.11707 -7.79875 0
M  V30 21507 H 2021.22 -0.921601 -5.74454 0
M  V30 21508 H 2020.1 -2.21293 -7.52329 0
M  V30 21509 N 2017.61 1.52975 0.379009 0
M  V30 21510 C 2018.83 1.72396 1.144 0
M  V30 21511 C 2019.25 0.446816 1.83437 0
M  V30 21512 O 2018.61 -0.579403 1.73058 0
M  V30 21513 C 2018.66 2.88032 2.18449 0
M  V30 21514 O 2018.38 4.10803 1.52225 0
M  V30 21515 C 2019.88 3.19215 3.07599 0
M  V30 21516 H 2017.1 0.576943 0.342605 0
M  V30 21517 H 2019.64 1.99666 0.442025 0
M  V30 21518 H 2017.8 2.63195 2.84266 0
M  V30 21519 H 2018.21 4.75461 2.21443 0
M  V30 21520 H 2019.69 4.03565 3.76615 0
M  V30 21521 H 2020.16 2.34014 3.71664 0
M  V30 21522 H 2020.77 3.45928 2.47415 0
M  V30 21523 N 2019.08 -0.63804 1.44107 0
M  V30 21524 C 2020.31 -1.4251 1.49995 0
M  V30 21525 C 2020.73 -1.88401 0.122604 0
M  V30 21526 O 2020.08 -1.60419 -0.870168 0
M  V30 21527 C 2020.14 -2.65002 2.45879 0
M  V30 21528 O 2019.86 -2.21025 3.78259 0
M  V30 21529 C 2021.36 -3.58203 2.61162 0
M  V30 21530 H 2018.58 -0.437285 0.508943 0
M  V30 21531 H 2021.12 -0.780912 1.89003 0
M  V30 21532 H 2019.28 -3.25527 2.10026 0
M  V30 21533 H 2019.69 -3.00388 4.29962 0
M  V30 21534 H 2021.16 -4.40776 3.32295 0
M  V30 21535 H 2021.64 -4.06556 1.6616 0
M  V30 21536 H 2022.25 -3.0355 2.97888 0
M  V30 21537 N 2020.56 -1.3089 -0.877815 0
M  V30 21538 C 2021.79 -1.2289 -1.66077 0
M  V30 21539 C 2022.2 0.209505 -1.88036 0
M  V30 21540 O 2021.54 1.14931 -1.43306 0
M  V30 21541 C 2021.61 -1.89448 -3.05532 0
M  V30 21542 C 2021.27 -3.38785 -3.06715 0
M  V30 21543 C 2022.27 -4.34661 -2.85246 0
M  V30 21544 C 2019.95 -3.8035 -3.28084 0
M  V30 21545 C 2021.95 -5.70077 -2.85116 0
M  V30 21546 C 2019.63 -5.15881 -3.27583 0
M  V30 21547 C 2020.63 -6.10555 -3.06124 0
M  V30 21548 O 2020.32 -7.43609 -3.05452 0
M  V30 21549 H 2020.05 -0.426136 -0.524771 0
M  V30 21550 H 2022.6 -1.73175 -1.10452 0
M  V30 21551 H 2020.83 -1.33702 -3.62851 0
M  V30 21552 H 2022.52 -1.7547 -3.66012 0
M  V30 21553 H 2023.29 -4.03879 -2.68526 0
M  V30 21554 H 2019.17 -3.07097 -3.4382 0
M  V30 21555 H 2022.71 -6.43948 -2.68285 0
M  V30 21556 H 2018.61 -5.463 -3.4384 0
M  V30 21557 H 2019.38 -7.52686 -3.21568 0
M  V30 21558 N 2022.04 1.0911 -1.13723 0
M  V30 21559 C 2023.45 1.62841 -0.913213 0
M  V30 21560 C 2023.8 1.88346 0.549566 0
M  V30 21561 O 2022.93 1.63558 1.41696 0
M  V30 21562 C 2023.52 2.95835 -1.65127 0
M  V30 21563 C 2022.08 3.46379 -1.47304 0
M  V30 21564 C 2021.23 2.20738 -1.6784 0
M  V30 21565 H 2024.18 0.924297 -1.29006 0
M  V30 21566 H 2024.2 3.63942 -1.11026 0
M  V30 21567 H 2023.71 2.77241 -2.71587 0
M  V30 21568 H 2021.81 3.70092 -0.431605 0
M  V30 21569 H 2021.93 4.23603 -2.23825 0
M  V30 21570 H 2020.29 2.29554 -1.10349 0
M  V30 21571 H 2021.07 2.04659 -2.75626 0
M  V30 21572 N 2023.52 0.931232 1.27145 0
M  V30 21573 C 2024.43 0.438807 2.3046 0
M  V30 21574 C 2025.44 -0.482275 1.67183 0
M  V30 21575 O 2026.62 -0.364225 1.98079 0
M  V30 21576 C 2023.69 -0.297266 3.45423 0
M  V30 21577 C 2022.75 0.659161 4.24209 0
M  V30 21578 C 2021.98 -0.0418787 5.33684 0
M  V30 21579 O 2022.2 -1.26062 5.56295 0
M  V30 21580 O 2021.14 0.631751 5.98575 0
M  V30 21581 H 2024.96 1.29675 2.74624 0
M  V30 21582 H 2022.55 0.696718 1.3216 0
M  V30 21583 H 2024.43 -0.712299 4.15336 0
M  V30 21584 H 2023.1 -1.13075 3.03308 0
M  V30 21585 H 2022.01 1.12394 3.56817 0
M  V30 21586 H 2023.34 1.45997 4.70049 0
M  V30 21587 N 2025 -1.41343 0.697132 0
M  V30 21588 C 2026.22 -2.06049 0.236356 0
M  V30 21589 C 2026.65 -1.52124 -1.10634 0
M  V30 21590 O 2026.01 -0.648852 -1.69291 0
M  V30 21591 C 2026.05 -3.6001 0.206185 0
M  V30 21592 O 2025.16 -4.04197 -0.818466 0
M  V30 21593 H 2024.5 -0.65395 0.115091 0
M  V30 21594 H 2027.03 -1.8108 0.952431 0
M  V30 21595 H 2027.04 -4.07983 0.0375737 0
M  V30 21596 H 2025.71 -3.98628 1.18612 0
M  V30 21597 H 2024.29 -3.67725 -0.619082 0
M  V30 21598 N 2026.48 -0.441993 -1.51275 0
M  V30 21599 C 2027.7 0.121451 -2.06543 0
M  V30 21600 C 2028.12 1.36058 -1.30896 0
M  V30 21601 O 2027.48 1.78713 -0.369834 0
M  V30 21602 C 2027.53 0.438983 -3.58825 0
M  V30 21603 O 2027.25 -0.750969 -4.31616 0
M  V30 21604 C 2028.75 1.05259 -4.30622 0
M  V30 21605 H 2025.97 0.00586064 -0.670974 0
M  V30 21606 H 2028.51 -0.622415 -1.94798 0
M  V30 21607 H 2026.67 1.13275 -3.70469 0
M  V30 21608 H 2027.08 -0.478024 -5.22317 0
M  V30 21609 H 2028.56 1.22474 -5.38242 0
M  V30 21610 H 2029.03 2.03489 -3.89216 0
M  V30 21611 H 2029.64 0.398068 -4.23433 0
M  V30 21612 N 2027.95 1.56642 -0.173515 0
M  V30 21613 C 2029.2 1.97241 0.47157 0
M  V30 21614 C 2029.53 1.05958 1.62747 0
M  V30 21615 O 2028.81 0.107151 1.94205 0
M  V30 21616 C 2029.09 3.47276 0.952439 0
M  V30 21617 C 2028.94 4.49338 -0.203789 0
M  V30 21618 C 2030.26 4.00461 1.82535 0
M  V30 21619 H 2027.38 0.71714 0.169941 0
M  V30 21620 H 2030.02 1.88211 -0.260093 0
M  V30 21621 H 2028.17 3.55102 1.57591 0
M  V30 21622 H 2029.85 4.5357 -0.840936 0
M  V30 21623 H 2028.09 4.25211 -0.858945 0
M  V30 21624 H 2028.76 5.51723 0.174833 0
M  V30 21625 H 2031.24 3.9528 1.29974 0
M  V30 21626 H 2030.11 5.05853 2.13083 0
M  V30 21627 H 2030.37 3.44409 2.7719 0
M  V30 21628 N 2029.43 -0.1002 1.57281 0
M  V30 21629 C 2030.68 -0.803034 1.85461 0
M  V30 21630 C 2031 -1.79518 0.761475 0
M  V30 21631 O 2030.27 -1.94741 -0.212768 0
M  V30 21632 H 2028.85 -0.299556 0.684306 0
M  V30 21633 H 2031.51 -0.0830444 1.94723 0
M  V30 21634 H 2030.61 -1.33676 2.82024 0
M  V30 21635 N 2030.91 -1.53174 -0.370891 0
M  V30 21636 C 2032.14 -1.73 -1.13484 0
M  V30 21637 C 2032.55 -0.456538 -1.83197 0
M  V30 21638 O 2031.91 0.570218 -1.73363 0
M  V30 21639 C 2031.96 -2.89186 -2.16919 0
M  V30 21640 O 2031.68 -4.11604 -1.50045 0
M  V30 21641 C 2033.18 -3.20841 -3.05901 0
M  V30 21642 H 2030.4 -0.578752 -0.33954 0
M  V30 21643 H 2032.95 -1.99897 -0.43143 0
M  V30 21644 H 2031.1 -2.64699 -2.82866 0
M  V30 21645 H 2031.52 -4.76629 -2.18918 0
M  V30 21646 H 2032.99 -4.05557 -3.7447 0
M  V30 21647 H 2033.47 -2.35982 -3.70418 0
M  V30 21648 H 2034.07 -3.47235 -2.45577 0
M  V30 21649 N 2032.39 0.630389 -1.44443 0
M  V30 21650 C 2033.32 1.75348 -1.54192 0
M  V30 21651 C 2034.3 1.65453 -0.394887 0
M  V30 21652 O 2035.48 1.84201 -0.615103 0
M  V30 21653 C 2032.61 3.13881 -1.48647 0
M  V30 21654 C 2031.57 3.38566 -2.61835 0
M  V30 21655 C 2030.89 4.77136 -2.41341 0
M  V30 21656 C 2032.19 3.31055 -4.0398 0
M  V30 21657 H 2033.89 1.67446 -2.48198 0
M  V30 21658 H 2031.43 0.804159 -1.19454 0
M  V30 21659 H 2033.39 3.92226 -1.54068 0
M  V30 21660 H 2032.11 3.22568 -0.511585 0
M  V30 21661 H 2030.77 2.62602 -2.55805 0
M  V30 21662 H 2030.42 4.82527 -1.42043 0
M  V30 21663 H 2030.12 4.9461 -3.1723 0
M  V30 21664 H 2031.64 5.57709 -2.48581 0
M  V30 21665 H 2033.06 3.99304 -4.11375 0
M  V30 21666 H 2031.45 3.60064 -4.80077 0
M  V30 21667 H 2032.52 2.28852 -4.27498 0
M  V30 21668 N 2033.87 1.31354 0.870861 0
M  V30 21669 C 2034.8 1.13258 1.98111 0
M  V30 21670 C 2035.78 0.0363278 1.62559 0
M  V30 21671 O 2036.96 0.192581 1.87514 0
M  V30 21672 C 2034.09 0.730361 3.30732 0
M  V30 21673 C 2033.13 1.82952 3.85267 0
M  V30 21674 S 2033.97 3.43479 4.10832 0
M  V30 21675 C 2035.12 3.05192 5.46451 0
M  V30 21676 H 2035.36 2.07248 2.13157 0
M  V30 21677 H 2032.89 1.15829 1.02093 0
M  V30 21678 H 2034.85 0.505043 4.07381 0
M  V30 21679 H 2033.51 -0.190405 3.13522 0
M  V30 21680 H 2032.7 1.5007 4.81139 0
M  V30 21681 H 2032.3 2.00985 3.15406 0
M  V30 21682 H 2034.59 2.54029 6.28073 0
M  V30 21683 H 2035.54 4.00024 5.84283 0
M  V30 21684 H 2035.95 2.42659 5.09683 0
M  V30 21685 N 2035.34 -1.08505 1.143 0
M  V30 21686 C 2036.57 -1.85155 0.934475 0
M  V30 21687 C 2036.99 -1.81002 -0.511866 0
M  V30 21688 O 2036.35 -1.19437 -1.36398 0
M  V30 21689 C 2036.4 -3.30656 1.43871 0
M  V30 21690 O 2035.5 -4.07557 0.630143 0
M  V30 21691 H 2034.84 -0.573775 0.334183 0
M  V30 21692 H 2037.37 -1.36959 1.51998 0
M  V30 21693 H 2037.38 -3.815 1.44644 0
M  V30 21694 H 2036.06 -3.32995 2.49173 0
M  V30 21695 H 2034.64 -3.66441 0.691067 0
M  V30 21696 N 2036.82 -0.937962 -1.26649 0
M  V30 21697 C 2037.77 -0.443717 -2.26495 0
M  V30 21698 C 2038.74 0.494894 -1.58556 0
M  V30 21699 O 2039.92 0.411807 -1.86303 0
M  V30 21700 C 2037.06 0.287974 -3.43896 0
M  V30 21701 C 2036.18 -0.685936 -4.2652 0
M  V30 21702 C 2035.31 0.0666303 -5.31158 0
M  V30 21703 C 2034.35 -0.899313 -6.05457 0
M  V30 21704 N 2033.49 -0.17871 -7.01873 0
M  V30 21705 H 2038.33 -1.3001 -2.68144 0
M  V30 21706 H 2035.86 -0.652331 -1.31845 0
M  V30 21707 H 2037.82 0.728613 -4.10788 0
M  V30 21708 H 2036.45 1.10852 -3.03169 0
M  V30 21709 H 2035.5 -1.24509 -3.59446 0
M  V30 21710 H 2036.82 -1.42373 -4.7805 0
M  V30 21711 H 2035.97 0.566702 -6.04047 0
M  V30 21712 H 2034.71 0.837326 -4.80458 0
M  V30 21713 H 2033.71 -1.41054 -5.31398 0
M  V30 21714 H 2034.94 -1.66996 -6.58247 0
M  V30 21715 H 2032.89 0.573553 -6.53488 0
M  V30 21716 H 2032.8 -0.855891 -7.51139 0
M  V30 21717 H 2034.07 0.300374 -7.78921 0
M  V30 21718 N 2038.3 1.40971 -0.704618 0
M  V30 21719 C 2039.23 2.33424 -0.0595656 0
M  V30 21720 C 2040.21 1.52306 0.757422 0
M  V30 21721 O 2041.4 1.80812 0.708567 0
M  V30 21722 C 2038.53 3.36202 0.870964 0
M  V30 21723 C 2037.48 4.27699 0.160408 0
M  V30 21724 C 2036.81 5.20924 1.20591 0
M  V30 21725 C 2038.11 5.13047 -0.97878 0
M  V30 21726 H 2039.8 2.87615 -0.83176 0
M  V30 21727 H 2037.35 1.38292 -0.401428 0
M  V30 21728 H 2039.3 3.9981 1.33153 0
M  V30 21729 H 2038.02 2.80381 1.67493 0
M  V30 21730 H 2036.68 3.65527 -0.280222 0
M  V30 21731 H 2036.33 4.61414 2.00264 0
M  V30 21732 H 2036.03 5.8298 0.73543 0
M  V30 21733 H 2037.55 5.8741 1.6668 0
M  V30 21734 H 2038.97 5.70172 -0.598081 0
M  V30 21735 H 2037.36 5.8409 -1.37693 0
M  V30 21736 H 2038.43 4.49675 -1.8144 0
M  V30 21737 N 2039.78 0.45001 1.51039 0
M  V30 21738 C 2041.19 0.10298 1.59267 0
M  V30 21739 C 2041.39 -1.38881 1.45995 0
M  V30 21740 O 2040.45 -2.16003 1.30763 0
M  V30 21741 C 2041.76 0.634392 2.93932 0
M  V30 21742 C 2043.31 0.59595 3.07274 0
M  V30 21743 C 2043.79 1.10455 4.44481 0
M  V30 21744 N 2045.28 1.06307 4.50836 0
M  V30 21745 C 2046.01 1.42733 5.55351 0
M  V30 21746 N 2045.51 1.86506 6.67224 0
M  V30 21747 N 2047.3 1.34469 5.45779 0
M  V30 21748 H 2039.45 1.42049 1.57911 0
M  V30 21749 H 2041.72 0.586142 0.745078 0
M  V30 21750 H 2041.42 1.67863 3.09055 0
M  V30 21751 H 2041.3 0.0662668 3.77142 0
M  V30 21752 H 2043.68 -0.439332 2.91811 0
M  V30 21753 H 2043.76 1.20063 2.25873 0
M  V30 21754 H 2043.41 2.13836 4.60692 0
M  V30 21755 H 2043.34 0.476284 5.24442 0
M  V30 21756 H 2045.83 0.741765 3.70549 0
M  V30 21757 H 2046.14 2.12505 7.43009 0
M  V30 21758 H 2044.49 1.90443 6.68398 0
M  V30 21759 H 2047.68 1.00128 4.57266 0
M  V30 21760 H 2047.85 1.63185 6.27116 0
M  V30 21761 N 2041.26 -1.56548 0.18182 0
M  V30 21762 C 2042.17 -2.22065 -0.756597 0
M  V30 21763 C 2043.18 -1.21554 -1.24501 0
M  V30 21764 O 2044.36 -1.5425 -1.29495 0
M  V30 21765 C 2041.42 -2.85678 -1.9644 0
M  V30 21766 C 2040.48 -4.0142 -1.52185 0
M  V30 21767 C 2039.72 -4.61991 -2.67209 0
M  V30 21768 O 2039.94 -4.21463 -3.8435 0
M  V30 21769 O 2038.87 -5.51685 -2.40682 0
M  V30 21770 H 2042.7 -3.02838 -0.228696 0
M  V30 21771 H 2040.29 -1.49326 -0.0468661 0
M  V30 21772 H 2042.17 -3.25973 -2.67057 0
M  V30 21773 H 2040.84 -2.07894 -2.48116 0
M  V30 21774 H 2039.75 -3.65774 -0.784878 0
M  V30 21775 H 2041.08 -4.80828 -1.0519 0
M  V30 21776 N 2042.73 0.0918577 -1.57332 0
M  V30 21777 C 2043.66 1.11191 -2.05326 0
M  V30 21778 C 2044.65 1.41581 -0.942802 0
M  V30 21779 O 2045.83 1.51555 -1.21428 0
M  V30 21780 C 2042.96 2.4309 -2.48041 0
M  V30 21781 C 2041.91 2.271 -3.6278 0
M  V30 21782 C 2041.24 3.64205 -3.91482 0
M  V30 21783 C 2042.54 1.70886 -4.93554 0
M  V30 21784 H 2044.23 0.712608 -2.90796 0
M  V30 21785 H 2041.78 0.341338 -1.39896 0
M  V30 21786 H 2043.73 3.14724 -2.80226 0
M  V30 21787 H 2042.46 2.84962 -1.59575 0
M  V30 21788 H 2041.12 1.57911 -3.30847 0
M  V30 21789 H 2040.76 4.03611 -3.00179 0
M  V30 21790 H 2040.46 3.54352 -4.68731 0
M  V30 21791 H 2041.99 4.37302 -4.26145 0
M  V30 21792 H 2043.4 2.32364 -5.24099 0
M  V30 21793 H 2041.8 1.71783 -5.74987 0
M  V30 21794 H 2042.87 0.668569 -4.80269 0
M  V30 21795 N 2044.21 1.53368 0.362763 0
M  V30 21796 C 2045.46 1.69352 1.10292 0
M  V30 21797 C 2045.78 0.449366 1.89752 0
M  V30 21798 O 2045.05 -0.536608 1.88407 0
M  V30 21799 H 2043.63 0.62432 0.410162 0
M  V30 21800 H 2046.29 1.90567 0.408694 0
M  V30 21801 H 2045.39 2.55586 1.79115 0
M  V30 21802 N 2045.69 -0.62272 1.44776 0
M  V30 21803 C 2047.11 -0.941829 1.28848 0
M  V30 21804 C 2047.31 -2.00178 0.230395 0
M  V30 21805 O 2046.36 -2.49611 -0.38085 0
M  V30 21806 C 2047.68 -1.39711 2.66273 0
M  V30 21807 C 2049.22 -1.51214 2.7405 0
M  V30 21808 C 2049.7 -2.00123 4.11964 0
M  V30 21809 N 2051.19 -2.07381 4.14183 0
M  V30 21810 C 2051.92 -2.46413 5.17753 0
M  V30 21811 N 2051.42 -2.84523 6.31679 0
M  V30 21812 N 2053.21 -2.46621 5.05109 0
M  V30 21813 H 2045.36 0.0781334 2.12256 0
M  V30 21814 H 2047.63 -0.0276831 0.947596 0
M  V30 21815 H 2047.33 -0.692534 3.44814 0
M  V30 21816 H 2047.21 -2.36654 2.93726 0
M  V30 21817 H 2049.59 -2.20767 1.95822 0
M  V30 21818 H 2049.68 -0.526248 2.50328 0
M  V30 21819 H 2049.32 -1.31163 4.90672 0
M  V30 21820 H 2049.25 -2.99599 4.33068 0
M  V30 21821 H 2051.74 -1.8058 3.31963 0
M  V30 21822 H 2052.05 -3.13144 7.06513 0
M  V30 21823 H 2050.4 -2.82254 6.35104 0
M  V30 21824 H 2053.59 -2.16244 4.15158 0
M  V30 21825 H 2053.76 -2.76715 5.85946 0
M  V30 21826 N 2047.17 -1.31814 -0.863883 0
M  V30 21827 C 2048.58 -1.10603 -1.15061 0
M  V30 21828 C 2048.78 0.119526 -2.01145 0
M  V30 21829 O 2047.84 0.807099 -2.39253 0
M  V30 21830 C 2049.15 -2.38075 -1.83686 0
M  V30 21831 C 2050.7 -2.43744 -1.96361 0
M  V30 21832 C 2051.18 -3.71113 -2.68401 0
M  V30 21833 N 2052.67 -3.72042 -2.75933 0
M  V30 21834 C 2053.4 -4.67294 -3.32301 0
M  V30 21835 N 2052.9 -5.72905 -3.89553 0
M  V30 21836 N 2054.69 -4.54804 -3.30317 0
M  V30 21837 H 2046.84 -2.10406 -0.290393 0
M  V30 21838 H 2049.11 -0.928505 -0.191264 0
M  V30 21839 H 2048.81 -3.27625 -1.27885 0
M  V30 21840 H 2048.69 -2.48336 -2.83917 0
M  V30 21841 H 2051.07 -1.54659 -2.51326 0
M  V30 21842 H 2051.15 -2.37443 -0.951544 0
M  V30 21843 H 2050.8 -4.60567 -2.14103 0
M  V30 21844 H 2050.73 -3.74682 -3.70028 0
M  V30 21845 H 2053.22 -2.95701 -2.35307 0
M  V30 21846 H 2053.53 -6.41656 -4.30694 0
M  V30 21847 H 2051.88 -5.76671 -3.87911 0
M  V30 21848 H 2055.07 -3.71468 -2.84832 0
M  V30 21849 H 2055.24 -5.29213 -3.73948 0
M  V30 21850 N 2048.65 1.07897 -1.14873 0
M  V30 21851 C 2049.92 1.77077 -0.830842 0
M  V30 21852 C 2050.3 2.00029 0.674654 0
M  V30 21853 O 2049.65 1.61429 1.61719 0
M  V30 21854 C 2049.86 3.08311 -1.63541 0
M  V30 21855 C 2051.21 3.82753 -1.83808 0
M  V30 21856 O 2052.23 3.18107 -1.6027 0
M  V30 21857 O 2051.09 4.98846 -2.23192 0
M  V30 21858 H 2048.19 0.768708 -0.304987 0
M  V30 21859 H 2050.73 1.14313 -1.25422 0
M  V30 21860 H 2049.5 2.87188 -2.6578 0
M  V30 21861 H 2049.13 3.78805 -1.208 0
M  V30 21862 N 2050.12 0.944665 1.2615 0
M  V30 21863 C 2051.09 0.461547 2.24505 0
M  V30 21864 C 2052.09 -0.429277 1.54964 0
M  V30 21865 O 2053.28 -0.227965 1.72702 0
M  V30 21866 C 2050.41 -0.334363 3.39256 0
M  V30 21867 H 2051.6 1.33075 2.68758 0
M  V30 21868 H 2049.16 0.726968 1.38365 0
M  V30 21869 H 2049.89 -1.22167 3.00409 0
M  V30 21870 H 2049.68 0.304588 3.90915 0
M  V30 21871 H 2051.17 -0.662181 4.12317 0
M  V30 21872 N 2051.6 -1.40596 0.712085 0
M  V30 21873 C 2052.57 -2.29105 0.0660369 0
M  V30 21874 C 2053.57 -1.45196 -0.690992 0
M  V30 21875 O 2054.76 -1.66151 -0.523417 0
M  V30 21876 C 2051.89 -3.2835 -0.916461 0
M  V30 21877 H 2053.08 -2.87734 0.845539 0
M  V30 21878 H 2050.63 -1.48859 0.476533 0
M  V30 21879 H 2051.37 -2.74733 -1.72314 0
M  V30 21880 H 2051.15 -3.90288 -0.376557 0
M  V30 21881 H 2052.64 -3.94634 -1.36578 0
M  V30 21882 N 2053.08 -0.458013 -1.50798 0
M  V30 21883 C 2054.36 0.162411 -1.94925 0
M  V30 21884 C 2054.74 1.58194 -1.39777 0
M  V30 21885 O 2054.09 2.20663 -0.59332 0
M  V30 21886 C 2054.3 0.119083 -3.48797 0
M  V30 21887 C 2055.64 0.314458 -4.23434 0
M  V30 21888 O 2056.67 0.196266 -3.55659 0
M  V30 21889 O 2055.53 0.551722 -5.43708 0
M  V30 21890 H 2052.62 0.118781 -0.818425 0
M  V30 21891 H 2055.17 -0.517478 -1.61618 0
M  V30 21892 H 2053.94 -0.872528 -3.81448 0
M  V30 21893 H 2053.56 0.840995 -3.88604 0
M  V30 21894 N 2054.56 1.56449 -0.190119 0
M  V30 21895 C 2055.81 1.97438 0.449957 0
M  V30 21896 C 2056.13 1.07682 1.61972 0
M  V30 21897 O 2055.39 0.114859 1.95363 0
M  V30 21898 C 2055.69 3.44349 0.956988 0
M  V30 21899 C 2055.35 4.50792 -0.098868 0
M  V30 21900 C 2054.02 4.79625 -0.389003 0
M  V30 21901 C 2056.37 5.14795 -0.814559 0
M  V30 21902 C 2053.7 5.69754 -1.39989 0
M  V30 21903 C 2056.05 6.06017 -1.81456 0
M  V30 21904 C 2054.71 6.33209 -2.11195 0
M  V30 21905 H 2053.98 0.722476 0.164651 0
M  V30 21906 H 2056.63 1.89352 -0.286039 0
M  V30 21907 H 2054.93 3.49481 1.77116 0
M  V30 21908 H 2056.63 3.73416 1.46155 0
M  V30 21909 H 2053.22 4.2838 0.137435 0
M  V30 21910 H 2057.41 4.92615 -0.603633 0
M  V30 21911 H 2052.66 5.89098 -1.63627 0
M  V30 21912 H 2056.84 6.54672 -2.37438 0
M  V30 21913 H 2054.46 7.02847 -2.89672 0
M  V30 21914 N 2056.04 -0.0835127 1.57379 0
M  V30 21915 C 2056.97 -1.101 2.05913 0
M  V30 21916 C 2057.95 -1.41079 0.950298 0
M  V30 21917 O 2059.13 -1.50909 1.2223 0
M  V30 21918 C 2056.26 -2.41772 2.49327 0
M  V30 21919 C 2055.22 -2.25173 3.63979 0
M  V30 21920 C 2054.54 -3.62124 3.93408 0
M  V30 21921 C 2055.84 -1.68267 4.94453 0
M  V30 21922 H 2057.54 -0.697176 2.9117 0
M  V30 21923 H 2055.08 -0.333914 1.40075 0
M  V30 21924 H 2057.04 -3.13234 2.81891 0
M  V30 21925 H 2055.76 -2.84112 1.61084 0
M  V30 21926 H 2054.42 -1.56154 3.3168 0
M  V30 21927 H 2054.07 -4.02013 3.02315 0
M  V30 21928 H 2053.77 -3.51861 4.70603 0
M  V30 21929 H 2055.29 -4.35036 4.28458 0
M  V30 21930 H 2056.71 -2.29582 5.25324 0
M  V30 21931 H 2055.1 -1.68731 5.7589 0
M  V30 21932 H 2056.17 -0.64309 4.80617 0
M  V30 21933 N 2057.52 -1.53558 -0.354624 0
M  V30 21934 C 2058.45 -1.83751 -1.44076 0
M  V30 21935 C 2059.43 -0.691795 -1.55397 0
M  V30 21936 O 2060.61 -0.942676 -1.69786 0
M  V30 21937 C 2057.74 -2.03721 -2.81274 0
M  V30 21938 C 2056.7 -3.19517 -2.84769 0
M  V30 21939 C 2056.02 -3.248 -4.24746 0
M  V30 21940 C 2057.32 -4.5787 -2.51301 0
M  V30 21941 H 2059.02 -2.7471 -1.19058 0
M  V30 21942 H 2056.56 -1.32182 -0.5713 0
M  V30 21943 H 2058.51 -2.23427 -3.57293 0
M  V30 21944 H 2057.24 -1.09482 -3.07703 0
M  V30 21945 H 2055.9 -2.99649 -2.11201 0
M  V30 21946 H 2055.55 -2.28177 -4.48268 0
M  V30 21947 H 2055.25 -4.02606 -4.27998 0
M  V30 21948 H 2056.77 -3.46702 -5.02623 0
M  V30 21949 H 2058.18 -4.77663 -3.17034 0
M  V30 21950 H 2056.58 -5.37998 -2.65853 0
M  V30 21951 H 2057.65 -4.62234 -1.46518 0
M  V30 21952 N 2058.99 0.615033 -1.45104 0
M  V30 21953 C 2059.94 1.72617 -1.53206 0
M  V30 21954 C 2060.91 1.6173 -0.378499 0
M  V30 21955 O 2062.1 1.81418 -0.590937 0
M  V30 21956 C 2059.24 3.1091 -1.49763 0
M  V30 21957 C 2058.35 3.32657 -2.75615 0
M  V30 21958 C 2057.48 4.61014 -2.63894 0
M  V30 21959 C 2056.52 4.75993 -3.84834 0
M  V30 21960 N 2055.66 5.95642 -3.71692 0
M  V30 21961 H 2060.5 1.65028 -2.48133 0
M  V30 21962 H 2058.04 0.804792 -1.23132 0
M  V30 21963 H 2059.99 3.90911 -1.45755 0
M  V30 21964 H 2058.62 3.17475 -0.583921 0
M  V30 21965 H 2057.68 2.46484 -2.89741 0
M  V30 21966 H 2058.99 3.39601 -3.65339 0
M  V30 21967 H 2058.14 5.49198 -2.5781 0
M  V30 21968 H 2056.88 4.56455 -1.71756 0
M  V30 21969 H 2055.89 3.86234 -3.91284 0
M  V30 21970 H 2057.11 4.82354 -4.78028 0
M  V30 21971 H 2055.06 5.92143 -2.82318 0
M  V30 21972 H 2054.97 6.03713 -4.55046 0
M  V30 21973 H 2056.24 6.86345 -3.69528 0
M  V30 21974 N 2060.47 1.3227 0.85688 0
M  V30 21975 C 2061.43 1.2096 1.94682 0
M  V30 21976 C 2062.43 0.133231 1.60247 0
M  V30 21977 O 2063.62 0.383471 1.69927 0
M  V30 21978 C 2060.76 0.85974 3.29881 0
M  V30 21979 H 2061.95 2.17823 2.06139 0
M  V30 21980 H 2059.5 1.16069 1.04679 0
M  V30 21981 H 2060.24 -0.107161 3.24123 0
M  V30 21982 H 2060.02 1.63794 3.5625 0
M  V30 21983 H 2061.51 0.804868 4.0977 0
M  V30 21984 N 2061.95 -1.07287 1.15444 0
M  V30 21985 C 2063.17 -1.84153 0.954061 0
M  V30 21986 C 2063.6 -1.81534 -0.492639 0
M  V30 21987 O 2062.96 -1.20877 -1.35124 0
M  V30 21988 C 2063.01 -3.29112 1.4737 0
M  V30 21989 O 2062.11 -4.06866 0.673335 0
M  V30 21990 H 2061.45 -0.570198 0.34025 0
M  V30 21991 H 2063.98 -1.35339 1.53442 0
M  V30 21992 H 2063.99 -3.79944 1.48682 0
M  V30 21993 H 2062.67 -3.30333 2.52691 0
M  V30 21994 H 2061.24 -3.65687 0.729894 0
M  V30 21995 N 2063.43 -0.951342 -1.25647 0
M  V30 21996 C 2064.65 -0.620954 -1.97886 0
M  V30 21997 C 2065.08 0.799383 -1.70269 0
M  V30 21998 O 2064.44 1.54005 -0.956672 0
M  V30 21999 C 2064.48 -0.881873 -3.4965 0
M  V30 22000 O 2063.59 0.0409801 -4.1238 0
M  V30 22001 H 2062.93 -0.236433 -0.62048 0
M  V30 22002 H 2065.46 -1.27704 -1.59852 0
M  V30 22003 H 2065.47 -0.806823 -3.99943 0
M  V30 22004 H 2064.14 -1.91708 -3.69081 0
M  V30 22005 H 2062.72 -0.0859938 -3.72801 0
M  V30 22006 N 2064.91 1.40216 -0.719531 0
M  V30 22007 C 2066.15 2.01112 -0.261127 0
M  V30 22008 C 2066.48 1.56933 1.14393 0
M  V30 22009 O 2065.76 0.791168 1.77682 0
M  V30 22010 C 2066.04 3.58438 -0.345592 0
M  V30 22011 C 2065.9 4.12679 -1.78931 0
M  V30 22012 C 2067.21 4.39202 0.280948 0
M  V30 22013 H 2064.33 0.730674 -0.0963582 0
M  V30 22014 H 2066.98 1.66639 -0.912774 0
M  V30 22015 H 2065.13 3.87936 0.209226 0
M  V30 22016 H 2066.8 3.93963 -2.39982 0
M  V30 22017 H 2065.04 3.66819 -2.31574 0
M  V30 22018 H 2065.71 5.21835 -1.79978 0
M  V30 22019 H 2068.19 4.15658 -0.191834 0
M  V30 22020 H 2067.06 5.48566 0.191422 0
M  V30 22021 H 2067.32 4.205 1.36499 0
M  V30 22022 N 2066.38 0.466004 1.50553 0
M  V30 22023 C 2067.63 -0.0907392 2.02297 0
M  V30 22024 C 2067.96 -1.40178 1.34835 0
M  V30 22025 O 2067.21 -1.90185 0.461328 0
M  V30 22026 C 2067.51 -0.32772 3.55894 0
M  V30 22027 C 2067.18 0.900994 4.41806 0
M  V30 22028 C 2065.84 1.23789 4.65005 0
M  V30 22029 C 2068.19 1.71933 4.92025 0
M  V30 22030 C 2065.52 2.39327 5.35667 0
M  V30 22031 C 2067.87 2.86595 5.63956 0
M  V30 22032 C 2066.54 3.20705 5.8541 0
M  V30 22033 H 2065.81 -0.0332038 0.740256 0
M  V30 22034 H 2068.45 0.619048 1.81218 0
M  V30 22035 H 2066.76 -1.1197 3.7546 0
M  V30 22036 H 2068.46 -0.772379 3.93491 0
M  V30 22037 H 2065.05 0.628519 4.23966 0
M  V30 22038 H 2069.23 1.47224 4.73961 0
M  V30 22039 H 2064.49 2.66035 5.50487 0
M  V30 22040 H 2068.66 3.50355 6.01851 0
M  V30 22041 H 2066.29 4.10341 6.39941 0
M  V30 22042 N 2067.86 -1.56346 0.198413 0
M  V30 22043 C 2068.81 -2.19245 -0.721128 0
M  V30 22044 C 2069.78 -1.14072 -1.20735 0
M  V30 22045 O 2070.96 -1.42336 -1.27063 0
M  V30 22046 C 2068.1 -2.85839 -1.93365 0
M  V30 22047 C 2067.22 -4.05546 -1.48849 0
M  V30 22048 C 2066.35 -4.59988 -2.65678 0
M  V30 22049 C 2065.39 -5.72046 -2.17784 0
M  V30 22050 N 2064.53 -6.20879 -3.27802 0
M  V30 22051 H 2069.37 -2.97468 -0.178003 0
M  V30 22052 H 2066.9 -1.46903 -0.076117 0
M  V30 22053 H 2068.86 -3.2262 -2.64522 0
M  V30 22054 H 2067.49 -2.10174 -2.45004 0
M  V30 22055 H 2066.54 -3.74405 -0.672674 0
M  V30 22056 H 2067.86 -4.86584 -1.09713 0
M  V30 22057 H 2067.01 -4.99092 -3.44952 0
M  V30 22058 H 2065.75 -3.78064 -3.08089 0
M  V30 22059 H 2064.75 -5.32467 -1.36964 0
M  V30 22060 H 2065.98 -6.5579 -1.76399 0
M  V30 22061 H 2063.93 -5.41876 -3.69738 0
M  V30 22062 H 2063.84 -6.96977 -2.92845 0
M  V30 22063 H 2065.11 -6.64637 -4.07281 0
M  V30 22064 N 2069.34 0.0751653 -1.57421 0
M  V30 22065 C 2070.59 0.773759 -1.86268 0
M  V30 22066 C 2070.9 1.78911 -0.79058 0
M  V30 22067 O 2072.11 2.53703 -0.966795 0
M  V30 22068 C 2070.56 1.42704 -3.30399 0
M  V30 22069 C 2070.17 0.450427 -4.4573 0
M  V30 22070 C 2071.92 2.10819 -3.6845 0
M  V30 22071 C 2069.82 1.10943 -5.80901 0
M  V30 22072 H 2068.75 0.292727 -0.694858 0
M  V30 22073 H 2071.4 0.0269952 -1.8348 0
M  V30 22074 H 2069.79 2.22195 -3.27789 0
M  V30 22075 H 2070.96 -0.314427 -4.59726 0
M  V30 22076 H 2069.28 -0.126101 -4.16209 0
M  V30 22077 H 2071.87 2.60894 -4.66732 0
M  V30 22078 H 2072.22 2.90611 -2.98079 0
M  V30 22079 H 2072.75 1.38164 -3.73036 0
M  V30 22080 H 2069.49 0.351912 -6.54555 0
M  V30 22081 H 2069.01 1.84523 -5.70711 0
M  V30 22082 H 2070.69 1.63022 -6.26125 0
M  V30 22083 N 2070.82 1.53744 0.346476 0
M  V30 22084 C 2071.77 1.82222 1.44561 0
M  V30 22085 C 2072.76 0.69251 1.54598 0
M  V30 22086 O 2073.97 0.875797 1.57257 0
M  V30 22087 H 2070.34 0.577261 0.481948 0
M  V30 22088 H 2072.31 2.74183 1.17755 0
M  V30 22089 C 2071.06 2.04604 2.81127 0
M  V30 22090 H 2070.38 2.90983 2.74169 0
M  V30 22091 H 2071.82 2.28497 3.57162 0
M  V30 22092 C 2070.28 0.830699 3.26498 0
M  V30 22093 O 2070.81 0.0286844 4.0169 0
M  V30 22094 N 2069.02 0.648746 2.83266 0
M  V30 22095 H 2068.57 1.30257 2.22241 0
M  V30 22096 H 2068.52 -0.162972 3.13977 0
M  V30 22097 N 2072.3 -0.607329 1.45428 0
M  V30 22098 C 2073.23 -1.72873 1.56962 0
M  V30 22099 C 2074.21 -1.64804 0.421159 0
M  V30 22100 O 2075.39 -1.83199 0.64433 0
M  V30 22101 C 2072.52 -3.11476 1.53622 0
M  V30 22102 C 2071.48 -3.34357 2.67188 0
M  V30 22103 C 2070.8 -4.73236 2.48902 0
M  V30 22104 C 2072.1 -3.24586 4.09196 0
M  V30 22105 H 2073.8 -1.63477 2.5083 0
M  V30 22106 H 2071.34 -0.785054 1.20718 0
M  V30 22107 H 2073.3 -3.89725 1.60288 0
M  V30 22108 H 2072.02 -3.21714 0.562838 0
M  V30 22109 H 2070.68 -2.58499 2.5995 0
M  V30 22110 H 2070.33 -4.80206 1.49702 0
M  V30 22111 H 2070.03 -4.895 3.25059 0
M  V30 22112 H 2071.55 -5.53684 2.57422 0
M  V30 22113 H 2072.96 -3.92709 4.17676 0
M  V30 22114 H 2071.36 -3.52381 4.85745 0
M  V30 22115 H 2072.43 -2.22022 4.31085 0
M  V30 22116 N 2073.77 -1.32722 -0.849853 0
M  V30 22117 C 2075.05 -1.14168 -1.58824 0
M  V30 22118 C 2075.43 0.296136 -2.09013 0
M  V30 22119 O 2074.78 1.2935 -1.88364 0
M  V30 22120 C 2074.99 -2.1734 -2.73065 0
M  V30 22121 C 2076.34 -2.50923 -3.42524 0
M  V30 22122 O 2077.36 -2.15923 -2.83295 0
M  V30 22123 O 2076.22 -3.10942 -4.49419 0
M  V30 22124 H 2073.31 -0.440869 -0.699688 0
M  V30 22125 H 2075.86 -1.44269 -0.893563 0
M  V30 22126 H 2074.63 -3.13967 -2.33539 0
M  V30 22127 H 2074.26 -1.88261 -3.50205 0
M  V30 22128 N 2075.25 1.06673 -1.16011 0
M  V30 22129 C 2076.5 1.79046 -0.937394 0
M  V30 22130 C 2076.82 1.87476 0.536438 0
M  V30 22131 O 2076.09 1.38065 1.38977 0
M  V30 22132 H 2074.67 0.663167 -0.343829 0
M  V30 22133 H 2077.33 1.28878 -1.46207 0
M  V30 22134 H 2076.43 2.81259 -1.35278 0
M  V30 22135 N 2076.73 0.957992 1.25141 0
M  V30 22136 C 2077.68 0.472054 2.2776 0
M  V30 22137 C 2078.67 -0.459404 1.63052 0
M  V30 22138 O 2079.88 -0.335763 1.76841 0
M  V30 22139 H 2076.25 0.134161 0.739936 0
M  V30 22140 H 2078.22 1.34973 2.6613 0
M  V30 22141 C 2076.97 -0.231515 3.46928 0
M  V30 22142 H 2076.3 0.476093 3.96955 0
M  V30 22143 H 2077.74 -0.535494 4.20605 0
M  V30 22144 C 2076.2 -1.45518 3.03852 0
M  V30 22145 O 2076.73 -2.55274 3.10159 0
M  V30 22146 N 2074.93 -1.31773 2.59006 0
M  V30 22147 H 2074.48 -0.424725 2.54074 0
M  V30 22148 H 2074.44 -2.13762 2.30549 0
M  V30 22149 N 2078.21 -1.39832 0.726957 0
M  V30 22150 C 2079.46 -2.00277 0.27085 0
M  V30 22151 C 2079.78 -1.57958 -1.14343 0
M  V30 22152 O 2079.05 -0.824155 -1.7772 0
M  V30 22153 H 2077.63 -0.740656 0.0971496 0
M  V30 22154 H 2080.29 -1.71001 0.935123 0
M  V30 22155 H 2079.39 -3.10528 0.312892 0
M  V30 22156 N 2079.69 -0.473982 -1.50304 0
M  V30 22157 C 2080.62 0.355019 -2.26434 0
M  V30 22158 C 2081.63 0.954546 -1.3188 0
M  V30 22159 O 2082.82 0.842462 -1.57368 0
M  V30 22160 C 2079.92 1.51219 -3.03292 0
M  V30 22161 C 2079.09 1.02492 -4.25222 0
M  V30 22162 C 2078.15 2.05649 -4.8435 0
M  V30 22163 O 2077.18 1.63594 -5.45184 0
M  V30 22164 N 2078.38 3.38481 -4.71605 0
M  V30 22165 H 2081.15 -0.297646 -2.98218 0
M  V30 22166 H 2078.71 -0.304934 -1.59002 0
M  V30 22167 H 2080.7 2.19927 -3.39726 0
M  V30 22168 H 2079.27 2.0695 -2.34287 0
M  V30 22169 H 2078.49 0.16363 -3.9386 0
M  V30 22170 H 2079.78 0.677339 -5.04271 0
M  V30 22171 H 2079.17 3.75356 -4.23231 0
M  V30 22172 H 2077.73 4.02979 -5.123 0
M  V30 22173 N 2081.16 1.56239 -0.206702 0
M  V30 22174 C 2082.07 2.2324 0.721172 0
M  V30 22175 C 2083.09 1.2352 1.22552 0
M  V30 22176 O 2084.27 1.56291 1.27025 0
M  V30 22177 C 2081.33 2.88767 1.91871 0
M  V30 22178 C 2080.39 4.03791 1.45779 0
M  V30 22179 C 2079.63 4.66183 2.59825 0
M  V30 22180 O 2079.85 4.27524 3.77597 0
M  V30 22181 O 2078.78 5.55444 2.31874 0
M  V30 22182 H 2082.61 3.03163 0.180488 0
M  V30 22183 H 2080.19 1.49382 0.0231036 0
M  V30 22184 H 2082.08 3.30181 2.61837 0
M  V30 22185 H 2080.75 2.11815 2.44777 0
M  V30 22186 H 2079.66 3.66976 0.726587 0
M  V30 22187 H 2080.99 4.82441 0.975269 0
M  V30 22188 N 2082.64 -0.0668159 1.57458 0
M  V30 22189 C 2083.61 -1.06329 2.03044 0
M  V30 22190 C 2084.61 -1.31301 0.928259 0
M  V30 22191 O 2085.8 -1.26938 1.193 0
M  V30 22192 C 2082.93 -2.40573 2.41532 0
M  V30 22193 H 2084.12 -0.67029 2.92313 0
M  V30 22194 H 2081.67 -0.312678 1.53141 0
M  V30 22195 H 2082.41 -2.84695 1.55303 0
M  V30 22196 H 2082.19 -2.23788 3.21965 0
M  V30 22197 H 2083.68 -3.12189 2.77359 0
M  V30 22198 N 2084.12 -1.53926 -0.338317 0
M  V30 22199 C 2085.35 -1.75114 -1.0963 0
M  V30 22200 C 2085.76 -0.492691 -1.82672 0
M  V30 22201 O 2085.1 0.545601 -1.75411 0
M  V30 22202 C 2085.16 -2.88063 -2.15081 0
M  V30 22203 C 2084.83 -4.27487 -1.61568 0
M  V30 22204 C 2085.83 -5.0887 -1.06523 0
M  V30 22205 C 2083.51 -4.73988 -1.66256 0
M  V30 22206 C 2085.5 -6.34857 -0.568774 0
M  V30 22207 C 2083.19 -5.99946 -1.16223 0
M  V30 22208 C 2084.19 -6.80214 -0.616267 0
M  V30 22209 O 2083.88 -8.03805 -0.123412 0
M  V30 22210 H 2083.61 -0.588533 -0.332572 0
M  V30 22211 H 2086.16 -2.01572 -0.394676 0
M  V30 22212 H 2084.39 -2.57141 -2.88817 0
M  V30 22213 H 2086.08 -2.97172 -2.76485 0
M  V30 22214 H 2086.85 -4.74106 -1.02219 0
M  V30 22215 H 2082.73 -4.11564 -2.07692 0
M  V30 22216 H 2086.27 -6.97456 -0.141967 0
M  V30 22217 H 2082.17 -6.34204 -1.2023 0
M  V30 22218 H 2082.94 -8.18147 -0.240214 0
M  V30 22219 N 2085.6 0.599608 -1.45748 0
M  V30 22220 C 2086.56 1.6918 -1.54631 0
M  V30 22221 C 2087.56 1.55081 -0.425029 0
M  V30 22222 O 2088.75 1.60004 -0.688782 0
M  V30 22223 C 2085.88 3.08502 -1.45049 0
M  V30 22224 H 2087.08 1.62667 -2.51951 0
M  V30 22225 H 2084.63 0.816022 -1.33307 0
M  V30 22226 H 2085.37 3.20585 -0.489439 0
M  V30 22227 H 2085.15 3.20144 -2.26386 0
M  V30 22228 H 2086.64 3.88042 -1.54315 0
M  V30 22229 N 2087.08 1.33171 0.842803 0
M  V30 22230 C 2088.3 1.27579 1.63519 0
M  V30 22231 C 2088.73 -0.151151 1.87492 0
M  V30 22232 O 2088.09 -1.10648 1.4362 0
M  V30 22233 C 2088.13 2.05261 2.9648 0
M  V30 22234 O 2087.24 1.40852 3.87601 0
M  V30 22235 H 2086.58 0.439106 0.498078 0
M  V30 22236 H 2089.11 1.75672 1.04883 0
M  V30 22237 H 2089.12 2.15879 3.46209 0
M  V30 22238 H 2087.79 3.09018 2.78354 0
M  V30 22239 H 2086.37 1.38855 3.46083 0
M  V30 22240 N 2088.56 -1.06056 1.16576 0
M  V30 22241 C 2089.78 -1.83131 0.973539 0
M  V30 22242 C 2090.21 -1.82047 -0.473358 0
M  V30 22243 O 2089.56 -1.22303 -1.33834 0
M  V30 22244 C 2089.61 -3.2753 1.50852 0
M  V30 22245 O 2088.72 -4.06129 0.716451 0
M  V30 22246 H 2088.06 -0.566557 0.346279 0
M  V30 22247 H 2090.59 -1.33704 1.54869 0
M  V30 22248 H 2090.6 -3.78346 1.52704 0
M  V30 22249 H 2089.27 -3.27634 2.56181 0
M  V30 22250 H 2087.85 -3.64892 0.768639 0
M  V30 22251 N 2090.03 -0.964615 -1.24631 0
M  V30 22252 C 2091.27 -0.632622 -1.94364 0
M  V30 22253 C 2091.64 0.816641 -1.73767 0
M  V30 22254 O 2092.84 1.25871 -2.37508 0
M  V30 22255 C 2091.11 -0.993428 -3.43316 0
M  V30 22256 S 2092.67 -0.775518 -4.31893 0
M  V30 22257 H 2089.49 -0.232189 -0.672019 0
M  V30 22258 H 2092.09 -1.24091 -1.51068 0
M  V30 22259 H 2090.79 -2.04514 -3.55812 0
M  V30 22260 H 2090.32 -0.37579 -3.91601 0
M  V30 22261 H 2092.34 0.348693 -4.94973 0
M  V30 22262 N 2091.51 1.39445 -0.734362 0
M  V30 22263 C 2092.46 2.32452 -0.0830804 0
M  V30 22264 C 2093.45 1.53028 0.726556 0
M  V30 22265 O 2094.66 1.68697 0.627813 0
M  V30 22266 H 2091.03 0.751957 -0.00806559 0
M  V30 22267 H 2093.01 2.85008 -0.883901 0
M  V30 22268 C 2091.75 3.38121 0.810522 0
M  V30 22269 H 2091.08 3.99315 0.196919 0
M  V30 22270 H 2092.52 4.0565 1.23385 0
M  V30 22271 C 2090.98 2.75118 1.94453 0
M  V30 22272 O 2091.51 2.62913 3.0371 0
M  V30 22273 N 2089.71 2.33215 1.73376 0
M  V30 22274 H 2089.26 2.43341 0.845144 0
M  V30 22275 H 2089.22 1.914 2.49426 0
M  V30 22276 N 2092.99 0.481946 1.5005 0
M  V30 22277 C 2094.21 -0.0688814 2.07286 0
M  V30 22278 C 2094.64 -1.3178 1.34222 0
M  V30 22279 O 2094 -1.76986 0.393135 0
M  V30 22280 C 2094.05 -0.324885 3.59133 0
M  V30 22281 O 2093.15 -1.40333 3.87789 0
M  V30 22282 H 2092.49 0.0177812 0.663762 0
M  V30 22283 H 2095.02 0.676104 1.93106 0
M  V30 22284 H 2095.03 -0.562135 4.04109 0
M  V30 22285 H 2093.71 0.587698 4.11727 0
M  V30 22286 H 2092.28 -1.15253 3.54642 0
M  V30 22287 N 2094.47 -1.56127 0.214985 0
M  V30 22288 C 2095.72 -1.97737 -0.417663 0
M  V30 22289 C 2096.04 -1.10368 -1.6076 0
M  V30 22290 O 2095.31 -0.179261 -1.95078 0
M  V30 22291 H 2093.89 -0.730251 -0.157298 0
M  V30 22292 H 2096.55 -1.92477 0.306351 0
M  V30 22293 H 2095.64 -3.02994 -0.748421 0
M  V30 22294 N 2095.95 0.0584645 -1.57492 0
M  V30 22295 C 2097.17 0.767637 -1.92133 0
M  V30 22296 C 2097.59 1.70438 -0.812178 0
M  V30 22297 O 2096.95 1.81246 0.213598 0
M  V30 22298 C 2097 1.54992 -3.26588 0
M  V30 22299 O 2096.72 0.650813 -4.33239 0
M  V30 22300 C 2098.22 2.3589 -3.75328 0
M  V30 22301 H 2095.44 0.2175 -0.634772 0
M  V30 22302 H 2097.98 0.0247547 -2.04485 0
M  V30 22303 H 2096.14 2.24495 -3.15722 0
M  V30 22304 H 2096.55 1.19628 -5.10675 0
M  V30 22305 H 2098.03 2.86216 -4.72 0
M  V30 22306 H 2098.5 3.16011 -3.05014 0
M  V30 22307 H 2099.11 1.71518 -3.89181 0
M  V30 22308 N 2097.42 1.54103 0.330149 0
M  V30 22309 C 2098.65 1.76264 1.09297 0
M  V30 22310 C 2099.07 0.5067 1.81147 0
M  V30 22311 O 2098.43 -0.541409 1.73027 0
M  V30 22312 C 2098.48 2.95141 2.07181 0
M  V30 22313 O 2097.58 2.66226 3.14956 0
M  V30 22314 H 2096.92 0.584284 0.31545 0
M  V30 22315 H 2099.45 2.01107 0.376453 0
M  V30 22316 H 2099.46 3.22305 2.50167 0
M  V30 22317 H 2098.14 3.86224 1.54285 0
M  V30 22318 H 2096.72 2.49992 2.76692 0
M  V30 22319 N 2098.9 -0.59187 1.46064 0
M  V30 22320 C 2100.13 -1.37466 1.54229 0
M  V30 22321 C 2100.54 -1.8835 0.1791 0
M  V30 22322 O 2099.88 -1.63765 -0.832274 0
M  V30 22323 C 2099.95 -2.60379 2.47877 0
M  V30 22324 C 2099.61 -2.31026 3.94305 0
M  V30 22325 C 2100.61 -1.90422 4.83772 0
M  V30 22326 C 2098.29 -2.43453 4.39359 0
M  V30 22327 C 2100.29 -1.62626 6.16305 0
M  V30 22328 C 2097.97 -2.15271 5.71928 0
M  V30 22329 C 2098.97 -1.74921 6.60221 0
M  V30 22330 O 2098.66 -1.47079 7.90331 0
M  V30 22331 H 2098.39 -0.426635 0.524365 0
M  V30 22332 H 2100.94 -0.7274 1.92089 0
M  V30 22333 H 2099.17 -3.27879 2.05018 0
M  V30 22334 H 2100.86 -3.2244 2.4655 0
M  V30 22335 H 2101.63 -1.80343 4.50224 0
M  V30 22336 H 2097.51 -2.73823 3.70866 0
M  V30 22337 H 2101.05 -1.31058 6.85179 0
M  V30 22338 H 2096.95 -2.2497 6.05028 0
M  V30 22339 H 2097.72 -1.61 8.02509 0
M  V30 22340 N 2100.38 -1.33616 -0.835729 0
M  V30 22341 C 2101.33 -1.24117 -1.96717 0
M  V30 22342 C 2102.32 -0.141892 -1.68805 0
M  V30 22343 O 2103.53 -0.306054 -1.77379 0
M  V30 22344 H 2099.9 -0.385249 -0.645823 0
M  V30 22345 H 2101.87 -2.19767 -2.01854 0
M  V30 22346 C 2100.62 -1.00045 -3.32996 0
M  V30 22347 H 2099.95 -1.8386 -3.55015 0
M  V30 22348 H 2101.39 -0.974302 -4.12654 0
M  V30 22349 C 2099.85 0.296559 -3.35592 0
M  V30 22350 O 2100.38 1.30221 -3.80007 0
M  V30 22351 N 2098.58 0.325196 -2.88775 0
M  V30 22352 H 2098.13 -0.493733 -2.52824 0
M  V30 22353 H 2098.09 1.19281 -2.90894 0
M  V30 22354 N 2101.86 1.05436 -1.17136 0
M  V30 22355 C 2103.08 1.82612 -0.983237 0
M  V30 22356 C 2103.51 1.82295 0.463697 0
M  V30 22357 O 2102.87 1.23011 1.33184 0
M  V30 22358 C 2102.91 3.26726 -1.52587 0
M  V30 22359 O 2102.02 4.05743 -0.737979 0
M  V30 22360 H 2101.36 0.564713 -0.349279 0
M  V30 22361 H 2103.89 1.3288 -1.55576 0
M  V30 22362 H 2103.9 3.77531 -1.54708 0
M  V30 22363 H 2102.57 3.26271 -2.57915 0
M  V30 22364 H 2101.15 3.64479 -0.78798 0
M  V30 22365 N 2103.34 0.971211 1.24118 0
M  V30 22366 C 2104.59 0.630598 1.91589 0
M  V30 22367 C 2104.9 -0.838491 1.76716 0
M  V30 22368 O 2106.1 -1.28978 2.38908 0
M  V30 22369 C 2104.56 1.07723 3.434 0
M  V30 22370 C 2104.17 2.57002 3.66953 0
M  V30 22371 C 2105.91 0.809928 4.16702 0
M  V30 22372 C 2103.82 2.95379 5.12352 0
M  V30 22373 H 2102.75 0.232148 0.717373 0
M  V30 22374 H 2105.4 1.17789 1.40706 0
M  V30 22375 H 2103.78 0.458223 3.9334 0
M  V30 22376 H 2104.96 3.24062 3.27598 0
M  V30 22377 H 2103.27 2.8138 3.06944 0
M  V30 22378 H 2105.87 1.07262 5.23831 0
M  V30 22379 H 2106.21 -0.253899 4.15525 0
M  V30 22380 H 2106.74 1.39007 3.72722 0
M  V30 22381 H 2103.48 4.00847 5.18654 0
M  V30 22382 H 2103 2.33005 5.52692 0
M  V30 22383 H 2104.68 2.85478 5.80613 0
M  V30 22384 N 2104.81 -1.39054 0.741747 0
M  V30 22385 C 2106.04 -2.05193 0.301789 0
M  V30 22386 C 2106.46 -1.55567 -1.05739 0
M  V30 22387 O 2105.82 -0.702382 -1.67141 0
M  V30 22388 C 2105.87 -3.59172 0.320615 0
M  V30 22389 O 2104.97 -4.06596 -0.68946 0
M  V30 22390 H 2104.32 -0.649957 0.135837 0
M  V30 22391 H 2106.85 -1.77958 1.00956 0
M  V30 22392 H 2106.86 -4.07657 0.167351 0
M  V30 22393 H 2105.53 -3.94652 1.31234 0
M  V30 22394 H 2104.11 -3.69509 -0.50178 0
M  V30 22395 N 2106.29 -0.489897 -1.49792 0
M  V30 22396 C 2107.52 0.0578875 -2.07319 0
M  V30 22397 C 2107.94 1.31067 -1.34919 0
M  V30 22398 O 2107.3 1.76775 -0.402515 0
M  V30 22399 C 2107.35 0.305835 -3.59301 0
M  V30 22400 O 2106.45 1.38274 -3.88528 0
M  V30 22401 H 2105.79 -0.021301 -0.663658 0
M  V30 22402 H 2108.32 -0.686335 -1.92745 0
M  V30 22403 H 2108.33 0.540697 -4.04401 0
M  V30 22404 H 2107.01 -0.609525 -4.11409 0
M  V30 22405 H 2105.59 1.13371 -3.55248 0
M  V30 22406 N 2107.77 1.56011 -0.223262 0
M  V30 22407 C 2109.02 1.98642 0.408581 0
M  V30 22408 C 2109.35 1.11082 1.59294 0
M  V30 22409 O 2108.62 0.168881 1.93765 0
M  V30 22410 C 2108.91 3.5013 0.841473 0
M  V30 22411 C 2108.76 4.48462 -0.346639 0
M  V30 22412 C 2110.08 4.06065 1.69703 0
M  V30 22413 H 2107.2 0.722183 0.147039 0
M  V30 22414 H 2109.84 1.87289 -0.319839 0
M  V30 22415 H 2107.99 3.59936 1.46214 0
M  V30 22416 H 2109.66 4.50665 -0.98481 0
M  V30 22417 H 2107.91 4.22263 -0.993788 0
M  V30 22418 H 2108.58 5.52 -0.00078187 0
M  V30 22419 H 2111.05 3.99215 1.17332 0
M  V30 22420 H 2109.93 5.12376 1.96882 0
M  V30 22421 H 2110.19 3.53054 2.66093 0
M  V30 22422 N 2109.25 -0.0501116 1.5752 0
M  V30 22423 C 2110.49 -0.7462 1.88573 0
M  V30 22424 C 2110.83 -1.76115 0.818369 0
M  V30 22425 O 2110.1 -1.93764 -0.169013 0
M  V30 22426 C 2110.39 -1.43474 3.30284 0
M  V30 22427 C 2110.24 -0.434736 4.47694 0
M  V30 22428 C 2111.56 -2.37419 3.70568 0
M  V30 22429 H 2108.68 -0.269807 0.685838 0
M  V30 22430 H 2111.32 -0.00912382 1.89998 0
M  V30 22431 H 2109.47 -2.06301 3.29199 0
M  V30 22432 H 2111.14 0.189992 4.60909 0
M  V30 22433 H 2109.38 0.24799 4.33091 0
M  V30 22434 H 2110.05 -0.954564 5.43684 0
M  V30 22435 H 2112.53 -1.84653 3.72884 0
M  V30 22436 H 2111.41 -2.82587 4.7057 0
M  V30 22437 H 2111.67 -3.2318 3.01674 0
M  V30 22438 N 2110.73 -1.54276 -0.321972 0
M  V30 22439 C 2111.95 -1.76841 -1.0836 0
M  V30 22440 C 2112.38 -0.5163 -1.80876 0
M  V30 22441 O 2111.73 0.532225 -1.73312 0
M  V30 22442 C 2111.78 -2.96236 -2.05613 0
M  V30 22443 O 2110.89 -2.67893 -3.1354 0
M  V30 22444 H 2110.23 -0.585948 -0.312347 0
M  V30 22445 H 2112.76 -2.01304 -0.365783 0
M  V30 22446 H 2112.77 -3.23627 -2.48455 0
M  V30 22447 H 2111.44 -3.87037 -1.52234 0
M  V30 22448 H 2110.02 -2.51456 -2.75362 0
M  V30 22449 N 2112.2 0.584116 -1.46376 0
M  V30 22450 C 2113.62 0.907336 -1.313 0
M  V30 22451 C 2113.82 1.99497 -0.283388 0
M  V30 22452 O 2112.88 2.50533 0.314536 0
M  V30 22453 C 2114.19 1.32602 -2.69883 0
M  V30 22454 C 2115.74 1.43895 -2.77963 0
M  V30 22455 C 2116.21 1.89131 -4.17125 0
M  V30 22456 N 2117.7 1.96326 -4.19536 0
M  V30 22457 C 2118.44 2.32599 -5.24104 0
M  V30 22458 N 2117.93 2.67675 -6.39001 0
M  V30 22459 N 2119.73 2.33142 -5.1147 0
M  V30 22460 H 2111.88 -0.134382 -2.11974 0
M  V30 22461 H 2114.14 0.00254953 -0.947997 0
M  V30 22462 H 2113.85 0.600869 -3.46529 0
M  V30 22463 H 2113.72 2.28783 -2.99897 0
M  V30 22464 H 2116.11 2.15497 -2.01606 0
M  V30 22465 H 2116.19 0.459692 -2.51636 0
M  V30 22466 H 2115.83 1.18108 -4.93977 0
M  V30 22467 H 2115.76 2.88012 -4.40859 0
M  V30 22468 H 2118.25 1.71715 -3.36634 0
M  V30 22469 H 2118.57 2.94302 -7.14567 0
M  V30 22470 H 2116.91 2.65317 -6.42364 0
M  V30 22471 H 2120.1 2.05161 -4.20745 0
M  V30 22472 H 2120.28 2.61083 -5.93077 0
M  V30 22473 O 2113.72 1.44142 0.728376 0
M  V30 22474 H 2114.41 1.36074 1.37853 0
M  V30 END ATOM
M  V30 BEGIN BOND
M  V30 END BOND
M  V30 END CTAB
M  END
$$$$
