drugbank_target|P53396 ATP-citrate synthase (DB11936)
 OpenBabel12092121223D

  0  0  0     0  0            999 V3000
M  V30 BEGIN CTAB
M  V30 COUNTS 17038 17226 0 0 0
M  V30 BEGIN ATOM
M  V30 1 H -0.908 1.98254 -0.117106 0
M  V30 2 N 0 1.576 0 0
M  V30 3 C 0.933 2.03868 1.02534 0
M  V30 4 C 1.911 0.928543 1.3348 0
M  V30 5 O 3.095 1.19667 1.45644 0
M  V30 6 C 0.222 2.43627 2.35294 0
M  V30 7 C -0.732 3.65373 2.2001 0
M  V30 8 S 0.101 5.13292 1.52614 0
M  V30 9 C 1.257 5.56322 2.86805 0
M  V30 10 H 1.49 2.90518 0.631377 0
M  V30 11 H -0.977 1.52953 0.210867 0
M  V30 12 H 0.981 2.67203 3.11629 0
M  V30 13 H -0.358 1.57376 2.7183 0
M  V30 14 H -1.165 3.90944 3.18086 0
M  V30 15 H -1.563 3.418 1.51819 0
M  V30 16 H 0.729 5.58782 3.83104 0
M  V30 17 H 1.672 6.56266 2.65933 0
M  V30 18 H 2.08 4.83886 2.90714 0
M  V30 19 N 1.4781 -0.272755 1.55222 0
M  V30 20 C 2.7031 -1.02683 1.80197 0
M  V30 21 C 3.1281 -1.79142 0.573551 0
M  V30 22 O 2.4861 -1.74917 -0.476849 0
M  V30 23 C 2.5341 -1.9609 3.02624 0
M  V30 24 O 1.6381 -3.04863 2.77727 0
M  V30 25 H 0.9791 -0.293557 0.595584 0
M  V30 26 H 3.5091 -0.30159 2.02365 0
M  V30 27 H 3.5191 -2.38039 3.31363 0
M  V30 28 H 2.1941 -1.39851 3.91682 0
M  V30 29 H 0.7711 -2.67228 2.60084 0
M  V30 30 N 2.9562 -1.48159 -0.537278 0
M  V30 31 C 3.9192 -1.61665 -1.62472 0
M  V30 32 C 4.9192 -0.490395 -1.5314 0
M  V30 33 O 6.1092 -0.755998 -1.5694 0
M  V30 34 C 3.2412 -1.57997 -3.02076 0
M  V30 35 H 4.4342 -2.58621 -1.51839 0
M  V30 36 H 1.9872 -1.36647 -0.758771 0
M  V30 37 H 2.7222 -0.624913 -3.18222 0
M  V30 38 H 2.5072 -2.39755 -3.10258 0
M  V30 39 H 3.9972 -1.70627 -3.81151 0
M  V30 40 N 4.4343 0.785586 -1.36625 0
M  V30 41 C 5.3813 1.89838 -1.31264 0
M  V30 42 C 6.3513 1.65115 -0.180633 0
M  V30 43 O 7.5363 1.87222 -0.36777 0
M  V30 44 C 4.6763 3.26706 -1.11163 0
M  V30 45 C 3.7893 3.63476 -2.33472 0
M  V30 46 C 2.9243 4.89481 -2.06353 0
M  V30 47 C 1.9633 5.18941 -3.24602 0
M  V30 48 N 1.1003 6.36131 -2.97123 0
M  V30 49 H 5.9403 1.93756 -2.26413 0
M  V30 50 H 3.4773 0.947454 -1.12524 0
M  V30 51 H 5.4353 4.05639 -0.975337 0
M  V30 52 H 4.0653 3.222 -0.196674 0
M  V30 53 H 3.1173 2.79636 -2.57891 0
M  V30 54 H 4.4293 3.81193 -3.21704 0
M  V30 55 H 3.5833 5.76288 -1.89675 0
M  V30 56 H 2.3223 4.73841 -1.15437 0
M  V30 57 H 1.3273 4.30615 -3.41834 0
M  V30 58 H 2.5523 5.36498 -4.16349 0
M  V30 59 H 0.4983 6.21875 -2.08823 0
M  V30 60 H 0.4153 6.54198 -3.78894 0
M  V30 61 H 1.6833 7.2591 -2.84033 0
M  V30 62 N 5.9124 1.20967 1.01018 0
M  V30 63 C 6.8754 0.965918 2.07853 0
M  V30 64 C 7.8754 -0.0610545 1.60684 0
M  V30 65 O 9.0654 0.175681 1.73312 0
M  V30 66 C 6.1974 0.455513 3.37843 0
M  V30 67 H 7.3904 1.91365 2.3091 0
M  V30 68 H 4.9434 1.02594 1.17916 0
M  V30 69 H 5.6784 -0.497381 3.20463 0
M  V30 70 H 5.4634 1.19622 3.73407 0
M  V30 71 H 6.9534 0.304667 4.16487 0
M  V30 72 N 7.3905 -1.2043 1.01659 0
M  V30 73 C 8.6395 -1.89118 0.701237 0
M  V30 74 C 8.9525 -1.79705 -0.772358 0
M  V30 75 O 10.1585 -2.43528 -1.20026 0
M  V30 76 C 8.6145 -3.39168 1.20388 0
M  V30 77 C 8.2225 -3.57166 2.70438 0
M  V30 78 C 9.9665 -4.1341 0.963953 0
M  V30 79 C 7.8735 -5.01042 3.14183 0
M  V30 80 H 6.8035 -0.708267 0.2586 0
M  V30 81 H 9.4545 -1.36239 1.22927 0
M  V30 82 H 7.8365 -3.91369 0.603824 0
M  V30 83 H 9.0105 -3.15351 3.35992 0
M  V30 84 H 7.3255 -2.96294 2.92572 0
M  V30 85 H 9.9225 -5.19491 1.26621 0
M  V30 86 H 10.2655 -4.16181 -0.099578 0
M  V30 87 H 10.7985 -3.67309 1.52738 0
M  V30 88 H 7.5375 -5.03426 4.19812 0
M  V30 89 H 7.0575 -5.43668 2.53348 0
M  V30 90 H 8.7365 -5.69623 3.0682 0
M  V30 91 N 8.8686 -0.792821 -1.36206 0
M  V30 92 C 10.0936 -0.377701 -2.03932 0
M  V30 93 C 10.5186 0.998947 -1.59382 0
M  V30 94 O 9.8766 1.64421 -0.763903 0
M  V30 95 C 9.9246 -0.453635 -3.57735 0
M  V30 96 O 9.0286 0.538151 -4.08874 0
M  V30 97 H 8.3696 -0.159855 -0.644471 0
M  V30 98 H 10.8996 -1.07488 -1.7409 0
M  V30 99 H 10.9096 -0.318464 -4.06755 0
M  V30 100 H 9.5846 -1.45784 -3.89512 0
M  V30 101 H 8.1616 0.364359 -3.71116 0
M  V30 102 N 10.3467 1.47872 -0.545128 0
M  V30 103 C 11.2567 2.33633 0.212746 0
M  V30 104 C 12.2727 1.4744 0.923983 0
M  V30 105 O 13.4487 1.80393 0.895572 0
M  V30 106 C 10.5137 3.23884 1.23693 0
M  V30 107 C 9.5747 4.25961 0.534417 0
M  V30 108 C 8.8077 5.11899 1.5098 0
M  V30 109 O 9.0307 5.00077 2.7437 0
M  V30 110 O 7.9647 5.92831 1.0409 0
M  V30 111 H 11.7907 2.99714 -0.490416 0
M  V30 112 H 9.3757 1.46235 -0.305871 0
M  V30 113 H 11.2577 3.79666 1.82843 0
M  V30 114 H 9.9327 2.60446 1.92222 0
M  V30 115 H 8.8397 3.73972 -0.0979679 0
M  V30 116 H 10.1727 4.92079 -0.109213 0
M  V30 117 N 11.8248 0.280983 1.55075 0
M  V30 118 C 12.7568 -0.637268 2.20163 0
M  V30 119 C 13.7698 -1.11298 1.18813 0
M  V30 120 O 14.9588 -1.03388 1.4551 0
M  V30 121 C 12.0588 -1.88199 2.81841 0
M  V30 122 C 11.2318 -1.55211 4.08936 0
M  V30 123 C 10.2908 -2.64991 4.54606 0
M  V30 124 O 9.3168 -2.30929 5.2025 0
M  V30 125 N 10.5188 -3.95161 4.25238 0
M  V30 126 H 13.2838 -0.0801694 2.99593 0
M  V30 127 H 10.8448 0.102329 1.61576 0
M  V30 128 H 12.8368 -2.60948 3.09335 0
M  V30 129 H 11.4068 -2.34799 2.06369 0
M  V30 130 H 10.6268 -0.658185 3.88666 0
M  V30 131 H 11.9148 -1.30681 4.91732 0
M  V30 132 H 11.3128 -4.25653 3.72607 0
M  V30 133 H 9.8698 -4.6427 4.5749 0
M  V30 134 N 13.3029 -1.57598 0.00835791 0
M  V30 135 C 14.5309 -1.95214 -0.68549 0
M  V30 136 C 14.9459 -0.883706 -1.66841 0
M  V30 137 O 14.3029 0.136565 -1.81988 0
M  V30 138 C 14.3539 -3.32865 -1.41007 0
M  V30 139 O 14.0749 -4.35609 -0.466552 0
M  V30 140 C 15.5759 -3.84991 -2.19765 0
M  V30 141 H 12.7959 -0.643422 -0.190392 0
M  V30 142 H 15.3399 -2.04406 0.0619607 0
M  V30 143 H 13.4949 -3.24956 -2.10908 0
M  V30 144 H 13.9089 -5.15288 -0.978699 0
M  V30 145 H 15.3829 -4.8371 -2.65948 0
M  V30 146 H 15.8599 -3.18137 -3.02796 0
M  V30 147 H 16.4659 -3.96103 -1.54864 0
M  V30 148 N 14.781 0.264519 -1.55364 0
M  V30 149 C 16.029 0.993021 -1.76021 0
M  V30 150 C 16.35 1.86511 -0.569099 0
M  V30 151 O 15.62 1.91438 0.415735 0
M  V30 152 H 14.2 0.369639 -0.649135 0
M  V30 153 H 16.862 0.286707 -1.9278 0
M  V30 154 H 15.958 1.62502 -2.66457 0
M  V30 155 N 16.2591 1.48442 0.529413 0
M  V30 156 C 17.2061 1.63007 1.63394 0
M  V30 157 C 18.1761 0.47212 1.59249 0
M  V30 158 O 19.3611 0.695673 1.77666 0
M  V30 159 C 16.5011 1.6763 3.01653 0
M  V30 160 C 15.6141 2.94535 3.16027 0
M  V30 161 C 14.7491 2.90316 4.44849 0
M  V30 162 C 13.7881 4.11923 4.52754 0
M  V30 163 N 12.9251 4.05777 5.72965 0
M  V30 164 H 17.7651 2.5733 1.50285 0
M  V30 165 H 15.3021 1.27613 0.731656 0
M  V30 166 H 17.2601 1.68292 3.81751 0
M  V30 167 H 15.8901 0.76797 3.13532 0
M  V30 168 H 14.9421 3.03615 2.29177 0
M  V30 169 H 16.2541 3.84512 3.17729 0
M  V30 170 H 15.4081 2.89382 5.33238 0
M  V30 171 H 14.1471 1.98068 4.45668 0
M  V30 172 H 13.1521 4.13131 3.62771 0
M  V30 173 H 14.3771 5.0533 4.53672 0
M  V30 174 H 12.3231 3.16351 5.74681 0
M  V30 175 H 12.2401 4.8946 5.76164 0
M  V30 176 H 13.5081 4.08904 6.6364 0
M  V30 177 N 17.7372 -0.778329 1.37039 0
M  V30 178 C 18.6472 -1.92253 1.34446 0
M  V30 179 C 19.6632 -1.72267 0.244991 0
M  V30 180 O 20.8392 -1.95615 0.479258 0
M  V30 181 C 17.9042 -3.27282 1.144 0
M  V30 182 C 16.9652 -3.59969 2.33925 0
M  V30 183 C 16.1982 -4.88555 2.14825 0
M  V30 184 O 16.4212 -5.59113 1.12912 0
M  V30 185 O 15.3552 -5.20153 3.02861 0
M  V30 186 H 19.1812 -1.97392 2.30803 0
M  V30 187 H 16.7662 -0.920154 1.17701 0
M  V30 188 H 18.6482 -4.08062 1.05182 0
M  V30 189 H 17.3232 -3.23011 0.211124 0
M  V30 190 H 16.2302 -2.7945 2.48714 0
M  V30 191 H 17.5632 -3.68976 3.25757 0
M  V30 192 N 19.2153 -1.21501 -1.00376 0
M  V30 193 C 20.1453 -0.999478 -2.11028 0
M  V30 194 C 21.1263 0.0759671 -1.6993 0
M  V30 195 O 22.3113 -0.0841106 -1.94018 0
M  V30 196 C 19.4413 -0.564709 -3.42678 0
M  V30 197 C 18.3953 -1.58486 -3.97576 0
M  V30 198 C 17.7213 -1.00628 -5.25146 0
M  V30 199 C 19.0213 -2.97204 -4.29496 0
M  V30 200 H 20.7153 -1.92495 -2.29317 0
M  V30 201 H 18.2613 -0.92693 -1.102 0
M  V30 202 H 20.2143 -0.401091 -4.19487 0
M  V30 203 H 18.9383 0.396411 -3.24185 0
M  V30 204 H 17.5973 -1.73606 -3.22888 0
M  V30 205 H 17.2453 -0.0368439 -5.02987 0
M  V30 206 H 16.9453 -1.68771 -5.62841 0
M  V30 207 H 18.4693 -0.854015 -6.04598 0
M  V30 208 H 19.8833 -2.8552 -4.97143 0
M  V30 209 H 18.2803 -3.62372 -4.78338 0
M  V30 210 H 19.3503 -3.47956 -3.3772 0
M  V30 211 N 20.6934 1.19889 -1.02296 0
M  V30 212 C 21.6234 2.25141 -0.619174 0
M  V30 213 C 22.6044 1.66051 0.368915 0
M  V30 214 O 23.7894 1.92546 0.252941 0
M  V30 215 C 20.9194 3.4728 0.0368783 0
M  V30 216 C 19.8734 4.19005 -0.872865 0
M  V30 217 C 19.1994 5.34637 -0.0822402 0
M  V30 218 C 20.4994 4.74452 -2.18387 0
M  V30 219 H 22.1934 2.59171 -1.49903 0
M  V30 220 H 19.7394 1.24579 -0.722222 0
M  V30 221 H 21.6924 4.20098 0.330958 0
M  V30 222 H 20.4164 3.12433 0.95149 0
M  V30 223 H 19.0754 3.48061 -1.15105 0
M  V30 224 H 18.7234 4.96034 0.83422 0
M  V30 225 H 18.4234 5.83557 -0.688149 0
M  V30 226 H 19.9474 6.10255 0.205238 0
M  V30 227 H 21.3614 5.39055 -1.95172 0
M  V30 228 H 19.7584 5.33834 -2.74119 0
M  V30 229 H 20.8284 3.92844 -2.84257 0
M  V30 230 N 22.1715 0.800033 1.35784 0
M  V30 231 C 23.4015 0.389041 2.02904 0
M  V30 232 C 23.8095 -1.0027 1.60445 0
M  V30 233 O 23.1525 -1.65633 0.794453 0
M  V30 234 C 23.2145 0.385495 3.57427 0
M  V30 235 C 22.8785 1.72662 4.23127 0
M  V30 236 C 23.8755 2.68385 4.4527 0
M  V30 237 C 21.5605 2.00883 4.60381 0
M  V30 238 C 23.5545 3.90517 5.03761 0
M  V30 239 C 21.2415 3.2328 5.18588 0
M  V30 240 C 22.2395 4.17915 5.40218 0
M  V30 241 O 21.9275 5.38153 5.97199 0
M  V30 242 H 21.6595 0.157032 0.657508 0
M  V30 243 H 24.2135 1.08311 1.74522 0
M  V30 244 H 22.4435 -0.365128 3.84972 0
M  V30 245 H 24.1325 -0.00228296 4.059 0
M  V30 246 H 24.8985 2.47872 4.16874 0
M  V30 247 H 20.7775 1.28037 4.42863 0
M  V30 248 H 24.3215 4.64395 5.2056 0
M  V30 249 H 20.2185 3.43667 5.4641 0
M  V30 250 H 20.9865 5.3936 6.15656 0
M  V30 251 N 23.6496 -1.47581 0.552962 0
M  V30 252 C 24.5966 -2.29957 -0.197108 0
M  V30 253 C 25.5666 -1.38799 -0.912359 0
M  V30 254 O 26.7516 -1.67761 -0.908888 0
M  V30 255 C 23.8916 -3.22672 -1.22379 0
M  V30 256 C 23.0046 -4.28919 -0.515038 0
M  V30 257 C 22.1396 -5.0879 -1.52664 0
M  V30 258 C 21.1786 -6.06815 -0.802631 0
M  V30 259 N 20.3156 -6.7966 -1.76086 0
M  V30 260 H 25.1556 -2.93578 0.511486 0
M  V30 261 H 22.6926 -1.4471 0.264067 0
M  V30 262 H 24.6506 -3.74845 -1.83159 0
M  V30 263 H 23.2806 -2.60925 -1.90047 0
M  V30 264 H 22.3326 -3.79835 0.207192 0
M  V30 265 H 23.6446 -4.98773 0.0523425 0
M  V30 266 H 22.7986 -5.65091 -2.20809 0
M  V30 267 H 21.5376 -4.38828 -2.12794 0
M  V30 268 H 20.5426 -5.49695 -0.107238 0
M  V30 269 H 21.7676 -6.78784 -0.207135 0
M  V30 270 H 19.7136 -6.12432 -2.35081 0
M  V30 271 H 19.6306 -7.45669 -1.24552 0
M  V30 272 H 20.8986 -7.40538 -2.43359 0
M  V30 273 N 25.1277 -0.289203 -1.54924 0
M  V30 274 C 26.3747 0.323519 -1.99899 0
M  V30 275 C 26.7027 1.54797 -1.17762 0
M  V30 276 O 25.9577 1.94237 -0.238835 0
M  V30 277 C 26.2567 0.736119 -3.49737 0
M  V30 278 C 25.9227 -0.385276 -4.49251 0
M  V30 279 C 24.5847 -0.693156 -4.76181 0
M  V30 280 C 26.9367 -1.14021 -5.08575 0
M  V30 281 C 24.2647 -1.7593 -5.59701 0
M  V30 282 C 26.6167 -2.19619 -5.93254 0
M  V30 283 C 25.2807 -2.51026 -6.185 0
M  V30 284 H 24.5507 0.118384 -0.731482 0
M  V30 285 H 27.1977 -0.405847 -1.8715 0
M  V30 286 H 25.5027 1.54539 -3.60035 0
M  V30 287 H 27.1997 1.22118 -3.81953 0
M  V30 288 H 23.7897 -0.135202 -4.28387 0
M  V30 289 H 27.9737 -0.915611 -4.87781 0
M  V30 290 H 23.2297 -2.0075 -5.77503 0
M  V30 291 H 27.4037 -2.78581 -6.38252 0
M  V30 292 H 25.0307 -3.33772 -6.83008 0
M  V30 293 N 26.6058 1.57591 -0.0167156 0
M  V30 294 C 27.8548 1.90461 0.663877 0
M  V30 295 C 28.1678 0.893515 1.73999 0
M  V30 296 O 29.3738 1.11302 2.47637 0
M  V30 297 C 27.8298 3.38155 1.23204 0
M  V30 298 C 27.4378 4.47597 0.189866 0
M  V30 299 C 29.1818 3.80111 1.88986 0
M  V30 300 C 27.0888 5.86379 0.768964 0
M  V30 301 H 26.0188 0.710738 0.251729 0
M  V30 302 H 28.6698 1.83326 -0.0799926 0
M  V30 303 H 27.0518 3.40182 2.02712 0
M  V30 304 H 28.2258 4.57112 -0.581846 0
M  V30 305 H 26.5408 4.14766 -0.368475 0
M  V30 306 H 29.1378 4.81145 2.33247 0
M  V30 307 H 29.4808 3.14511 2.72743 0
M  V30 308 H 30.0138 3.80454 1.16187 0
M  V30 309 H 26.7528 6.55493 -0.0301957 0
M  V30 310 H 26.2728 5.80496 1.50945 0
M  V30 311 H 27.9518 6.34563 1.26251 0
M  V30 312 N 28.0839 -0.256276 1.55502 0
M  V30 313 C 29.3239 -0.993081 1.78654 0
M  V30 314 C 29.6879 -1.8288 0.584724 0
M  V30 315 O 30.8889 -2.59665 0.694822 0
M  V30 316 C 29.1599 -1.83856 3.06483 0
M  V30 317 S 30.7189 -2.63573 3.5082 0
M  V30 318 H 27.5369 -0.334199 0.62756 0
M  V30 319 H 30.1389 -0.26184 1.93739 0
M  V30 320 H 28.8429 -1.21414 3.92029 0
M  V30 321 H 28.3739 -2.61271 2.94111 0
M  V30 322 H 30.3889 -3.86312 3.11412 0
M  V30 323 N 29.562 -1.4872 -0.521534 0
M  V30 324 C 30.79 -1.60843 -1.30142 0
M  V30 325 C 31.205 -0.271897 -1.86832 0
M  V30 326 O 30.562 0.739969 -1.66825 0
M  V30 327 C 30.613 -2.66155 -2.4463 0
M  V30 328 O 30.334 -3.94623 -1.90275 0
M  V30 329 C 31.835 -2.88795 -3.36322 0
M  V30 330 H 29.055 -0.542075 -0.395468 0
M  V30 331 H 31.599 -1.94609 -0.628285 0
M  V30 332 H 29.754 -2.35224 -3.07812 0
M  V30 333 H 30.168 -4.52468 -2.65279 0
M  V30 334 H 31.642 -3.66264 -4.12983 0
M  V30 335 H 32.119 -1.97934 -3.9207 0
M  V30 336 H 32.725 -3.21063 -2.78924 0
M  V30 337 N 31.0401 0.771051 -1.3745 0
M  V30 338 C 32.2681 1.56015 -1.35893 0
M  V30 339 C 32.6831 1.88718 0.0555523 0
M  V30 340 O 32.0401 1.51502 1.01752 0
M  V30 341 C 32.0911 2.87001 -2.19801 0
M  V30 342 O 31.8121 2.557 -3.55738 0
M  V30 343 C 33.3131 3.81228 -2.26231 0
M  V30 344 H 30.5331 0.483317 -0.465453 0
M  V30 345 H 33.0771 0.955611 -1.80799 0
M  V30 346 H 31.2321 3.43877 -1.78402 0
M  V30 347 H 31.6461 3.39584 -3.99729 0
M  V30 348 H 33.1201 4.70139 -2.89263 0
M  V30 349 H 33.5971 4.20409 -1.27093 0
M  V30 350 H 34.2031 3.30281 -2.67945 0
M  V30 351 N 32.5182 1.22032 0.997298 0
M  V30 352 C 33.7432 1.06921 1.77715 0
M  V30 353 C 34.1682 -0.376226 1.84299 0
M  V30 354 O 33.5262 -1.27165 1.29223 0
M  V30 355 C 33.5742 1.67996 3.19076 0
M  V30 356 O 32.6782 0.930653 4.01762 0
M  V30 357 H 32.0192 0.375814 0.547412 0
M  V30 358 H 34.5492 1.61737 1.25309 0
M  V30 359 H 34.5592 1.72538 3.69723 0
M  V30 360 H 33.2342 2.73182 3.13599 0
M  V30 361 H 31.8112 0.960917 3.60307 0
M  V30 362 N 33.9963 -1.19345 1.0293 0
M  V30 363 C 34.9593 -2.20793 0.615069 0
M  V30 364 C 35.9593 -1.57553 -0.321533 0
M  V30 365 O 37.1493 -1.73862 -0.108483 0
M  V30 366 C 34.2813 -3.40754 -0.0999222 0
M  V30 367 H 35.4743 -2.58955 1.51269 0
M  V30 368 H 33.0273 -1.3303 0.820534 0
M  V30 369 H 33.7623 -3.0811 -1.01187 0
M  V30 370 H 33.5473 -3.87889 0.57309 0
M  V30 371 H 35.0373 -4.15898 -0.376645 0
M  V30 372 N 35.4744 -0.807222 -1.35358 0
M  V30 373 C 36.7234 -0.384376 -1.98004 0
M  V30 374 C 37.0364 1.0543 -1.64754 0
M  V30 375 O 38.2424 1.58029 -2.20769 0
M  V30 376 C 36.6984 -0.636326 -3.5423 0
M  V30 377 C 36.3064 -2.08759 -3.96388 0
M  V30 378 C 38.0504 -0.278869 -4.23583 0
M  V30 379 C 35.9574 -2.28525 -5.45463 0
M  V30 380 H 34.8874 -0.139986 -0.740891 0
M  V30 381 H 37.5384 -0.991369 -1.54415 0
M  V30 382 H 35.9204 0.0406256 -3.95979 0
M  V30 383 H 37.0944 -2.8024 -3.6579 0
M  V30 384 H 35.4094 -2.40497 -3.39926 0
M  V30 385 H 38.0064 -0.404599 -5.33167 0
M  V30 386 H 38.3494 0.775012 -4.09022 0
M  V30 387 H 38.8824 -0.909764 -3.87257 0
M  V30 388 H 35.6214 -3.32361 -5.64992 0
M  V30 389 H 35.1414 -1.61569 -5.77629 0
M  V30 390 H 36.8204 -2.10109 -6.11934 0
M  V30 391 N 36.9525 1.47285 -0.560781 0
M  V30 392 C 37.8845 2.28118 0.222438 0
M  V30 393 C 38.8975 1.37219 0.876056 0
M  V30 394 O 40.0865 1.62011 0.749307 0
M  V30 395 C 37.1865 3.1159 1.33285 0
M  V30 396 C 36.3595 4.30473 0.77534 0
M  V30 397 C 35.4185 4.95513 1.77069 0
M  V30 398 O 34.4445 5.53792 1.31539 0
M  V30 399 N 35.6465 4.90531 3.10418 0
M  V30 400 H 38.4115 2.95976 -0.470958 0
M  V30 401 H 35.9725 1.56955 -0.39709 0
M  V30 402 H 37.9645 3.51967 1.99752 0
M  V30 403 H 36.5345 2.45951 1.92943 0
M  V30 404 H 35.7545 3.94144 -0.0662113 0
M  V30 405 H 37.0425 5.07362 0.382272 0
M  V30 406 H 36.4405 4.44389 3.5005 0
M  V30 407 H 34.9975 5.34917 3.72434 0
M  V30 408 N 38.4306 0.297415 1.54768 0
M  V30 409 C 39.3786 -0.596051 2.24833 0
M  V30 410 C 40.3726 -1.13992 1.25308 0
M  V30 411 O 41.5786 -1.09098 1.4317 0
M  V30 412 H 37.9536 -0.210814 0.721846 0
M  V30 413 H 39.9246 0.0174667 2.98395 0
M  V30 414 C 38.6736 -1.75818 2.99972 0
M  V30 415 H 37.9966 -1.3489 3.76357 0
M  V30 416 H 39.4366 -2.35949 3.52284 0
M  V30 417 C 37.8956 -2.66014 2.06732 0
M  V30 418 O 38.4256 -3.67009 1.63302 0
M  V30 419 N 36.6316 -2.33669 1.72763 0
M  V30 420 H 36.1786 -1.51586 2.08277 0
M  V30 421 H 36.1366 -2.94285 1.10652 0
M  V30 422 N 39.9087 -1.5758 0.0250728 0
M  V30 423 C 41.3247 -1.56124 -0.331282 0
M  V30 424 C 41.5247 -1.03029 -1.73169 0
M  V30 425 O 40.5807 -0.675215 -2.43305 0
M  V30 426 C 41.8937 -3.00139 -0.183584 0
M  V30 427 C 43.4417 -3.11946 -0.256654 0
M  V30 428 C 43.9167 -4.57793 -0.137792 0
M  V30 429 N 45.4077 -4.6279 -0.194904 0
M  V30 430 C 46.1427 -5.7326 -0.126655 0
M  V30 431 N 45.6387 -6.928 -0.00755288 0
M  V30 432 N 47.4317 -5.61811 -0.180348 0
M  V30 433 H 39.5827 -1.90424 0.94087 0
M  V30 434 H 41.8457 -0.875761 0.362968 0
M  V30 435 H 41.5517 -3.4292 0.780927 0
M  V30 436 H 41.4257 -3.64899 -0.955448 0
M  V30 437 H 43.8127 -2.69079 -1.21162 0
M  V30 438 H 43.8937 -2.49915 0.545517 0
M  V30 439 H 43.5377 -5.01339 0.813739 0
M  V30 440 H 43.4677 -5.17798 -0.958775 0
M  V30 441 H 45.9587 -3.76807 -0.287267 0
M  V30 442 H 46.2717 -7.72791 0.0379428 0
M  V30 443 H 44.6167 -6.94995 0.0271731 0
M  V30 444 H 47.8077 -4.6731 -0.271767 0
M  V30 445 H 47.9807 -6.47882 -0.123697 0
M  V30 446 N 41.3868 0.248026 -1.55636 0
M  V30 447 C 42.6338 0.976224 -1.77415 0
M  V30 448 C 42.9618 1.85361 -0.589193 0
M  V30 449 O 42.2168 1.90973 0.427529 0
M  V30 450 C 42.5158 1.86819 -3.04686 0
M  V30 451 C 42.1818 1.14625 -4.36087 0
M  V30 452 C 40.8438 0.946723 -4.71795 0
M  V30 453 C 43.1958 0.634463 -5.17324 0
M  V30 454 C 40.5238 0.223091 -5.86276 0
M  V30 455 C 42.8758 -0.0756959 -6.32555 0
M  V30 456 C 41.5398 -0.286711 -6.66884 0
M  V30 457 H 40.8098 0.357226 -0.649208 0
M  V30 458 H 43.4568 0.246415 -1.89908 0
M  V30 459 H 41.7618 2.66502 -2.872 0
M  V30 460 H 43.4588 2.43329 -3.18735 0
M  V30 461 H 40.0488 1.3117 -4.08035 0
M  V30 462 H 44.2328 0.77616 -4.90193 0
M  V30 463 H 39.4888 0.0491185 -6.1138 0
M  V30 464 H 43.6628 -0.479899 -6.94745 0
M  V30 465 H 41.2898 -0.849389 -7.5544 0
M  V30 466 N 42.8649 1.48995 0.513639 0
M  V30 467 C 43.8119 1.6473 1.61656 0
M  V30 468 C 44.7819 0.488984 1.58739 0
M  V30 469 O 45.9669 0.714478 1.76918 0
M  V30 470 C 43.1069 1.7082 2.99858 0
M  V30 471 C 42.2199 2.9787 3.12885 0
M  V30 472 C 41.3549 2.95017 4.41744 0
M  V30 473 C 40.3939 4.16702 4.48359 0
M  V30 474 N 39.5309 4.11832 5.68629 0
M  V30 475 H 44.3709 2.58909 1.47547 0
M  V30 476 H 41.9079 1.28382 0.71808 0
M  V30 477 H 43.8659 1.72331 3.79944 0
M  V30 478 H 42.4959 0.801181 3.12699 0
M  V30 479 H 41.5479 3.06029 2.25944 0
M  V30 480 H 42.8599 3.8786 3.13633 0
M  V30 481 H 42.0139 2.95021 5.30139 0
M  V30 482 H 40.7529 2.02784 4.43542 0
M  V30 483 H 39.7579 4.16955 3.58369 0
M  V30 484 H 40.9829 5.10113 4.48287 0
M  V30 485 H 38.9289 3.22428 5.71293 0
M  V30 486 H 38.8459 4.95543 5.7094 0
M  V30 487 H 40.1139 4.1592 6.59266 0
M  V30 488 N 44.343 -0.763751 1.37857 0
M  V30 489 C 45.573 -1.55067 1.3652 0
M  V30 490 C 45.981 -1.89135 -0.0494227 0
M  V30 491 O 45.324 -1.52529 -1.02375 0
M  V30 492 C 45.386 -2.8838 2.14656 0
M  V30 493 C 45.05 -2.76905 3.63555 0
M  V30 494 C 46.047 -2.4739 4.57268 0
M  V30 495 C 43.732 -2.94676 4.06781 0
M  V30 496 C 45.726 -2.35786 5.92186 0
M  V30 497 C 43.413 -2.82692 5.41782 0
M  V30 498 C 44.411 -2.53289 6.34298 0
M  V30 499 O 44.099 -2.41345 7.66817 0
M  V30 500 H 43.831 -0.486776 0.469069 0
M  V30 501 H 46.385 -0.953812 1.81911 0
M  V30 502 H 44.615 -3.50217 1.63967 0
M  V30 503 H 46.304 -3.49828 2.05852 0
M  V30 504 H 47.07 -2.33339 4.2518 0
M  V30 505 H 42.949 -3.16563 3.35126 0
M  V30 506 H 46.493 -2.12757 6.64365 0
M  V30 507 H 42.39 -2.96314 5.7347 0
M  V30 508 H 43.158 -2.56634 7.77226 0
M  V30 509 N 45.8211 -1.22559 -0.990812 0
M  V30 510 C 46.7841 -0.998863 -2.0629 0
M  V30 511 C 47.7841 0.0354834 -1.60761 0
M  V30 512 O 48.9741 -0.203231 -1.7301 0
M  V30 513 C 46.1061 -0.509203 -3.37076 0
M  V30 514 H 47.2991 -1.95014 -2.27837 0
M  V30 515 H 44.8521 -1.04456 -1.16269 0
M  V30 516 H 45.5871 0.446335 -3.21214 0
M  V30 517 H 45.3721 -1.25547 -3.71457 0
M  V30 518 H 46.8621 -0.370888 -4.1595 0
M  V30 519 N 47.2992 1.18797 -1.03562 0
M  V30 520 C 48.7152 1.40671 -0.753917 0
M  V30 521 C 48.9152 1.9043 0.658686 0
M  V30 522 O 47.9712 2.08538 1.42366 0
M  V30 523 C 49.2842 2.41192 -1.79574 0
M  V30 524 C 50.8322 2.54928 -1.81606 0
M  V30 525 C 51.3072 3.58709 -2.84766 0
M  V30 526 N 52.7982 3.66212 -2.83625 0
M  V30 527 C 53.5332 4.46225 -3.60098 0
M  V30 528 N 53.0292 5.29888 -4.46308 0
M  V30 529 N 54.8222 4.40939 -3.4861 0
M  V30 530 H 46.9732 0.848221 -1.94728 0
M  V30 531 H 49.2362 0.435081 -0.842264 0
M  V30 532 H 48.9422 2.11669 -2.80872 0
M  V30 533 H 48.8162 3.40467 -1.62365 0
M  V30 534 H 51.2032 2.83771 -0.809817 0
M  V30 535 H 51.2842 1.55784 -2.02891 0
M  V30 536 H 50.9282 3.30607 -3.85566 0
M  V30 537 H 50.8582 4.57519 -2.60737 0
M  V30 538 H 53.3492 3.06466 -2.21105 0
M  V30 539 H 53.6622 5.88078 -5.01382 0
M  V30 540 H 52.0072 5.29326 -4.50377 0
M  V30 541 H 55.1982 3.74624 -2.80668 0
M  V30 542 H 55.3712 5.03056 -4.08459 0
M  V30 543 N 48.7773 0.814389 1.34928 0
M  V30 544 C 50.0233 0.399013 1.98836 0
M  V30 545 C 50.3563 -1.03314 1.64438 0
M  V30 546 O 49.6313 -1.71811 0.911659 0
M  V30 547 C 49.9143 0.591629 3.55207 0
M  V30 548 C 49.7673 2.06928 3.99376 0
M  V30 549 C 51.0863 0.022199 4.40094 0
M  V30 550 H 48.2053 0.146451 0.722303 0
M  V30 551 H 50.8473 1.02537 1.59957 0
M  V30 552 H 48.9973 0.0584441 3.88456 0
M  V30 553 H 50.6693 2.66544 3.76499 0
M  V30 554 H 48.9123 2.56287 3.49999 0
M  V30 555 H 49.5833 2.1549 5.08201 0
M  V30 556 H 52.0593 0.477643 4.13349 0
M  V30 557 H 50.9353 0.186832 5.48582 0
M  V30 558 H 51.1963 -1.07215 4.28902 0
M  V30 559 N 50.2554 -1.46986 0.568584 0
M  V30 560 C 51.4834 -2.0683 0.0539956 0
M  V30 561 C 51.8984 -1.41953 -1.24478 0
M  V30 562 O 51.2554 -0.519933 -1.74937 0
M  V30 563 C 51.3064 -3.61254 -0.133362 0
M  V30 564 O 51.0274 -4.237 1.11399 0
M  V30 565 C 52.5284 -4.37992 -0.683927 0
M  V30 566 H 49.7484 -0.669058 0.0510141 0
M  V30 567 H 52.2924 -1.88824 0.785234 0
M  V30 568 H 50.4474 -3.78735 -0.81477 0
M  V30 569 H 50.8614 -5.16388 0.91888 0
M  V30 570 H 52.3354 -5.46684 -0.764263 0
M  V30 571 H 52.8124 -4.05058 -1.69778 0
M  V30 572 H 53.4184 -4.25283 -0.0378494 0
M  V30 573 N 51.7335 -0.305618 -1.54608 0
M  V30 574 C 53.1445 0.186098 -1.8577 0
M  V30 575 C 53.4955 1.53058 -1.22751 0
M  V30 576 O 52.6205 2.09888 -0.526893 0
M  V30 577 C 53.2155 0.344449 -3.37044 0
M  V30 578 C 51.7745 0.780384 -3.68221 0
M  V30 579 C 50.9215 -0.108554 -2.77087 0
M  V30 580 H 53.8725 -0.526485 -1.49712 0
M  V30 581 H 53.8935 1.17828 -3.61796 0
M  V30 582 H 53.4055 -0.634235 -3.82883 0
M  V30 583 H 51.5065 1.76945 -3.27904 0
M  V30 584 H 51.6195 0.596572 -4.75371 0
M  V30 585 H 49.9835 0.412931 -2.5133 0
M  V30 586 H 50.7665 -1.08368 -3.25747 0
M  V30 587 N 53.2116 1.57565 -0.0334293 0
M  V30 588 C 54.4886 1.83282 0.683163 0
M  V30 589 C 54.8686 0.91823 1.90084 0
M  V30 590 O 54.2166 -0.025113 2.28486 0
M  V30 591 C 54.4266 3.32599 1.0573 0
M  V30 592 C 55.7746 3.99179 1.44711 0
M  V30 593 O 56.7986 3.3712 1.15015 0
M  V30 594 O 55.6576 5.08565 2.0006 0
M  V30 595 H 52.7516 0.755869 0.335546 0
M  V30 596 H 55.2976 1.69589 -0.0614402 0
M  V30 597 H 54.0696 3.90834 0.190828 0
M  V30 598 H 53.6926 3.51415 1.85993 0
M  V30 599 N 54.6897 -0.239769 1.55765 0
M  V30 600 C 55.9177 -0.98417 1.81994 0
M  V30 601 C 56.3327 -1.7867 0.610124 0
M  V30 602 O 55.6897 -1.77571 -0.421271 0
M  V30 603 C 55.7407 -1.91635 3.06526 0
M  V30 604 O 55.4617 -1.14629 4.22838 0
M  V30 605 C 56.9627 -2.77616 3.45607 0
M  V30 606 H 54.1827 -0.28928 0.605441 0
M  V30 607 H 56.7267 -0.260499 2.02834 0
M  V30 608 H 54.8817 -2.5942 2.87715 0
M  V30 609 H 55.2957 -1.77745 4.93464 0
M  V30 610 H 56.7697 -3.38759 4.35828 0
M  V30 611 H 57.2467 -3.4909 2.6652 0
M  V30 612 H 57.8527 -2.15271 3.66795 0
M  V30 613 N 56.1678 -1.49265 -0.50573 0
M  V30 614 C 57.4448 -1.49012 -1.26707 0
M  V30 615 C 57.8248 -0.215205 -2.1 0
M  V30 616 O 57.1728 0.802547 -2.13943 0
M  V30 617 C 57.3828 -2.7663 -2.12783 0
M  V30 618 C 58.7308 -3.25932 -2.72127 0
M  V30 619 O 59.7548 -2.77715 -2.23054 0
M  V30 620 O 58.6138 -4.09897 -3.61451 0
M  V30 621 H 55.7078 -0.596197 -0.57313 0
M  V30 622 H 58.2538 -1.61524 -0.52039 0
M  V30 623 H 57.0258 -3.60916 -1.5118 0
M  V30 624 H 56.6488 -2.66956 -2.94653 0
M  V30 625 N 57.6459 0.756429 -1.3826 0
M  V30 626 C 58.8919 1.5168 -1.35517 0
M  V30 627 C 59.2469 1.9232 0.0554451 0
M  V30 628 O 58.5399 1.62352 1.01746 0
M  V30 629 C 58.7339 2.78313 -2.24224 0
M  V30 630 C 58.5629 2.50053 -3.7377 0
M  V30 631 C 57.3329 2.43414 -4.42807 0
M  V30 632 C 59.5309 2.1702 -4.66269 0
M  V30 633 N 57.5129 2.07398 -5.77805 0
M  V30 634 C 58.8839 1.91271 -5.89759 0
M  V30 635 C 60.9389 2.03305 -4.54501 0
M  V30 636 C 59.6419 1.53192 -7.02798 0
M  V30 637 C 61.6679 1.66627 -5.67441 0
M  V30 638 C 61.0299 1.4175 -6.8999 0
M  V30 639 H 57.1289 0.554735 -0.551174 0
M  V30 640 H 59.7129 0.881106 -1.73622 0
M  V30 641 H 57.8839 3.39696 -1.88311 0
M  V30 642 H 59.6159 3.44343 -2.12627 0
M  V30 643 H 56.3709 2.59789 -3.95988 0
M  V30 644 H 56.7949 1.92044 -6.4919 0
M  V30 645 H 61.4369 2.21215 -3.60311 0
M  V30 646 H 59.1549 1.34022 -7.96909 0
M  V30 647 H 62.7409 1.56652 -5.60314 0
M  V30 648 H 61.6209 1.1379 -7.759 0
M  V30 649 N 59.124 1.23083 0.984299 0
M  V30 650 C 60.087 1.00979 2.05757 0
M  V30 651 C 61.087 -0.0269573 1.60777 0
M  V30 652 O 62.277 0.212403 1.729 0
M  V30 653 C 59.409 0.527072 3.36801 0
M  V30 654 H 60.602 1.9622 2.26799 0
M  V30 655 H 58.155 1.05072 1.15714 0
M  V30 656 H 58.89 -0.429294 3.21446 0
M  V30 657 H 58.675 1.27515 3.70786 0
M  V30 658 H 60.165 0.392942 4.15747 0
M  V30 659 N 60.6021 -1.18246 1.0419 0
M  V30 660 C 62.0181 -1.40269 0.761366 0
M  V30 661 C 62.2181 -1.90777 -0.648578 0
M  V30 662 O 61.2741 -2.0929 -1.41258 0
M  V30 663 C 62.5871 -2.40237 1.8085 0
M  V30 664 C 64.1351 -2.53961 1.82955 0
M  V30 665 C 64.6101 -3.57194 2.86664 0
M  V30 666 N 66.1011 -3.64702 2.85563 0
M  V30 667 C 66.8361 -4.44309 3.6246 0
M  V30 668 N 66.3321 -5.27514 4.49111 0
M  V30 669 N 68.1251 -4.39084 3.50944 0
M  V30 670 H 60.2761 -0.837882 1.95175 0
M  V30 671 H 62.5391 -0.430608 0.84456 0
M  V30 672 H 62.2451 -2.10176 2.81991 0
M  V30 673 H 62.1191 -3.39601 1.64168 0
M  V30 674 H 64.5061 -2.83338 0.824855 0
M  V30 675 H 64.5871 -1.54706 2.03715 0
M  V30 676 H 64.2311 -3.28558 3.87314 0
M  V30 677 H 64.1611 -4.5613 2.6316 0
M  V30 678 H 66.6521 -3.05289 2.22727 0
M  V30 679 H 66.9651 -5.85411 5.04493 0
M  V30 680 H 65.3101 -5.2693 4.53178 0
M  V30 681 H 68.5011 -3.7313 2.82651 0
M  V30 682 H 68.6741 -5.00883 4.11121 0
M  V30 683 N 62.0802 -0.821533 -1.34494 0
M  V30 684 C 63.0102 -0.257138 -2.3208 0
M  V30 685 C 63.9912 0.625645 -1.58176 0
M  V30 686 O 65.1762 0.552811 -1.86166 0
M  V30 687 C 62.3062 0.582958 -3.42372 0
M  V30 688 C 61.2602 -0.202571 -4.2752 0
M  V30 689 C 60.5862 0.760179 -5.29269 0
M  V30 690 C 61.8862 -1.40998 -5.02908 0
M  V30 691 H 63.5802 -1.07247 -2.79532 0
M  V30 692 H 61.1262 -0.517163 -1.34393 0
M  V30 693 H 63.0792 0.987972 -4.09655 0
M  V30 694 H 61.8032 1.43133 -2.93565 0
M  V30 695 H 60.4622 -0.588936 -3.61838 0
M  V30 696 H 60.1102 1.60447 -4.76724 0
M  V30 697 H 59.8102 0.238809 -5.87115 0
M  V30 698 H 61.3342 1.16308 -5.9942 0
M  V30 699 H 62.7482 -1.07905 -5.63054 0
M  V30 700 H 61.1452 -1.86689 -5.70322 0
M  V30 701 H 62.2152 -2.1889 -4.32684 0
M  V30 702 N 63.5583 1.46682 -0.576371 0
M  V30 703 C 64.4883 2.33028 0.148397 0
M  V30 704 C 65.4693 1.44961 0.889956 0
M  V30 705 O 66.6543 1.73789 0.866662 0
M  V30 706 C 63.7843 3.27117 1.1667 0
M  V30 707 C 62.7383 4.24575 0.540386 0
M  V30 708 C 62.0643 5.08126 1.6647 0
M  V30 709 C 63.3643 5.19722 -0.518331 0
M  V30 710 H 65.0583 2.93875 -0.572509 0
M  V30 711 H 62.6043 1.41315 -0.276768 0
M  V30 712 H 64.5573 3.86374 1.68204 0
M  V30 713 H 63.2813 2.64364 1.9178 0
M  V30 714 H 61.9403 3.66571 0.0461769 0
M  V30 715 H 61.5883 4.41762 2.40531 0
M  V30 716 H 61.2883 5.74122 1.25131 0
M  V30 717 H 62.8123 5.70246 2.18293 0
M  V30 718 H 64.2263 5.73232 -0.0883058 0
M  V30 719 H 62.6233 5.94026 -0.851679 0
M  V30 720 H 63.6933 4.64037 -1.40703 0
M  V30 721 N 65.0364 0.313813 1.54444 0
M  V30 722 C 65.9684 -0.590425 2.21465 0
M  V30 723 C 66.9814 -1.08753 1.21147 0
M  V30 724 O 68.1704 -1.00278 1.4767 0
M  V30 725 C 65.2704 -1.82179 2.85769 0
M  V30 726 C 64.4434 -1.46502 4.12136 0
M  V30 727 C 63.5024 -2.55288 4.60124 0
M  V30 728 O 62.5284 -2.19842 5.25032 0
M  V30 729 N 63.7304 -3.86053 4.33525 0
M  V30 730 H 66.4954 -0.0166033 2.99695 0
M  V30 731 H 64.0564 0.136578 1.61323 0
M  V30 732 H 66.0484 -2.54328 3.14801 0
M  V30 733 H 64.6184 -2.30369 2.11303 0
M  V30 734 H 63.8384 -0.575595 3.89975 0
M  V30 735 H 65.1264 -1.20221 4.94393 0
M  V30 736 H 64.5244 -4.17654 3.81552 0
M  V30 737 H 63.0814 -4.54461 4.67235 0
M  V30 738 N 66.5145 -1.57545 0.0417849 0
M  V30 739 C 67.7915 -1.83642 -0.673433 0
M  V30 740 C 68.1715 -0.928298 -1.89594 0
M  V30 741 O 67.5195 0.0129955 -2.28496 0
M  V30 742 C 67.7295 -3.33155 -1.03964 0
M  V30 743 C 69.0775 -3.99941 -1.42592 0
M  V30 744 O 70.1015 -3.37725 -1.13226 0
M  V30 745 O 68.9605 -5.09619 -1.9736 0
M  V30 746 H 66.0545 -0.757638 -0.331533 0
M  V30 747 H 68.6005 -1.69554 0.070433 0
M  V30 748 H 67.3725 -3.9093 -0.170098 0
M  V30 749 H 66.9955 -3.52396 -1.84126 0
M  V30 750 N 67.9926 0.231505 -1.5589 0
M  V30 751 C 68.9426 1.29007 -1.87993 0
M  V30 752 C 69.9266 1.42764 -0.742102 0
M  V30 753 O 71.1186 1.45747 -1.00433 0
M  V30 754 C 68.2476 2.6425 -2.1915 0
M  V30 755 C 67.3336 2.54435 -3.39299 0
M  V30 756 N 67.7246 2.14262 -4.58176 0
M  V30 757 C 66.0226 2.85416 -3.42715 0
M  V30 758 C 66.7236 2.15455 -5.40328 0
M  V30 759 N 65.6996 2.55558 -4.79783 0
M  V30 760 H 69.5016 0.970213 -2.77424 0
M  V30 761 H 67.0156 0.440097 -1.56323 0
M  V30 762 H 69.0126 3.40665 -2.40319 0
M  V30 763 H 67.6726 2.9709 -1.31025 0
M  V30 764 H 68.6836 1.85554 -4.83518 0
M  V30 765 H 65.3606 3.22693 -2.64906 0
M  V30 766 H 66.7506 1.86605 -6.45467 0
M  V30 767 N 69.4707 1.49531 0.497807 0
M  V30 768 C 70.8817 1.52344 1.07927 0
M  V30 769 C 71.2327 0.311469 1.93712 0
M  V30 770 O 70.3577 -0.578405 2.08527 0
M  V30 771 C 70.9527 2.76062 1.96405 0
M  V30 772 C 69.5117 2.81643 2.49709 0
M  V30 773 C 68.6587 2.46299 1.27404 0
M  V30 774 H 71.6097 1.56182 0.281576 0
M  V30 775 H 71.6307 2.56405 2.81135 0
M  V30 776 H 71.1427 3.64254 1.33943 0
M  V30 777 H 69.2437 1.97739 3.15801 0
M  V30 778 H 69.3567 3.83891 2.86643 0
M  V30 779 H 67.7207 1.98148 1.60029 0
M  V30 780 H 68.5037 3.36769 0.66645 0
M  V30 781 N 70.9488 -0.749086 1.3866 0
M  V30 782 C 72.1948 -1.50959 1.36319 0
M  V30 783 C 72.5498 -1.92347 -0.0452451 0
M  V30 784 O 71.8428 -1.6289 -1.00884 0
M  V30 785 C 72.0368 -2.7712 2.25697 0
M  V30 786 C 71.8658 -2.48067 3.7509 0
M  V30 787 C 70.6358 -2.41062 4.44091 0
M  V30 788 C 72.8338 -2.14544 4.67414 0
M  V30 789 N 70.8158 -2.04331 5.78897 0
M  V30 790 C 72.1868 -1.88141 5.90765 0
M  V30 791 C 74.2418 -2.00892 4.55573 0
M  V30 792 C 72.9448 -1.49463 7.036 0
M  V30 793 C 74.9708 -1.63616 5.68317 0
M  V30 794 C 74.3328 -1.38088 6.90732 0
M  V30 795 H 70.4318 -0.551804 0.554108 0
M  V30 796 H 73.0158 -0.871886 1.74087 0
M  V30 797 H 71.1868 -3.38693 1.9011 0
M  V30 798 H 72.9188 -3.4321 2.1445 0
M  V30 799 H 69.6738 -2.57685 3.9736 0
M  V30 800 H 70.0978 -1.88598 6.502 0
M  V30 801 H 74.7398 -2.19301 3.61479 0
M  V30 802 H 72.4578 -1.29794 7.97608 0
M  V30 803 H 76.0438 -1.53678 5.61137 0
M  V30 804 H 74.9238 -1.09674 7.76493 0
M  V30 805 N 72.4269 -1.23603 -0.977757 0
M  V30 806 C 73.3569 -1.04401 -2.0886 0
M  V30 807 C 74.3379 0.0399052 -1.70053 0
M  V30 808 O 75.5229 -0.125246 -1.93796 0
M  V30 809 C 72.6529 -0.637269 -3.41403 0
M  V30 810 C 71.6069 -1.66883 -3.94124 0
M  V30 811 C 70.9329 -1.11745 -5.22893 0
M  V30 812 C 72.2329 -3.06247 -4.23096 0
M  V30 813 H 73.9269 -1.97316 -2.25182 0
M  V30 814 H 71.4729 -0.950096 -1.08209 0
M  V30 815 H 73.4259 -0.48998 -4.18542 0
M  V30 816 H 72.1499 0.327557 -3.24953 0
M  V30 817 H 70.8089 -1.80416 -3.19133 0
M  V30 818 H 70.4569 -0.143527 -5.02795 0
M  V30 819 H 70.1569 -1.80672 -5.59134 0
M  V30 820 H 71.6809 -0.982067 -6.02651 0
M  V30 821 H 73.0949 -2.96001 -4.90975 0
M  V30 822 H 71.4919 -3.72436 -4.70544 0
M  V30 823 H 72.5619 -3.55041 -3.30263 0
M  V30 824 N 73.905 1.17692 -1.04816 0
M  V30 825 C 74.835 2.23777 -0.666791 0
M  V30 826 C 75.816 1.66796 0.33361 0
M  V30 827 O 77.001 1.93039 0.212042 0
M  V30 828 C 74.131 3.47281 -0.0367933 0
M  V30 829 C 73.085 4.17059 -0.961546 0
M  V30 830 C 72.411 5.34342 -0.195626 0
M  V30 831 C 73.711 4.69713 -2.28402 0
M  V30 832 H 75.405 2.55933 -1.55367 0
M  V30 833 H 72.951 1.23019 -0.748484 0
M  V30 834 H 74.904 4.20706 0.241775 0
M  V30 835 H 73.628 3.14381 0.885004 0
M  V30 836 H 72.287 3.45541 -1.22462 0
M  V30 837 H 71.935 4.97692 0.728816 0
M  V30 838 H 71.635 5.81966 -0.811775 0
M  V30 839 H 73.159 6.10553 0.0757473 0
M  V30 840 H 74.573 5.34794 -2.06563 0
M  V30 841 H 72.97 5.279 -2.8538 0
M  V30 842 H 74.04 3.86726 -2.92525 0
M  V30 843 N 75.3831 0.828654 1.34056 0
M  V30 844 C 76.6081 0.431637 2.02859 0
M  V30 845 C 77.0331 -0.956339 1.61975 0
M  V30 846 O 76.3911 -1.62338 0.807228 0
M  V30 847 C 76.4391 0.548323 3.56407 0
M  V30 848 O 75.5431 -0.429556 4.10157 0
M  V30 849 H 74.8841 0.176886 0.640006 0
M  V30 850 H 77.4141 1.12066 1.71179 0
M  V30 851 H 77.4241 0.426196 4.05768 0
M  V30 852 H 76.0991 1.5606 3.8551 0
M  V30 853 H 74.6761 -0.265836 3.71951 0
M  V30 854 N 76.8612 -1.46375 0.584142 0
M  V30 855 C 77.7932 -2.28443 -0.186119 0
M  V30 856 C 78.8062 -1.38596 -0.854115 0
M  V30 857 O 79.9952 -1.63183 -0.723438 0
M  V30 858 C 77.0952 -3.13671 -1.28311 0
M  V30 859 C 76.2682 -4.31652 -0.706758 0
M  V30 860 C 75.3272 -4.98267 -1.69163 0
M  V30 861 O 74.3532 -5.55815 -1.22712 0
M  V30 862 N 75.5552 -4.95408 -3.02575 0
M  V30 863 H 78.3202 -2.9519 0.517986 0
M  V30 864 H 75.8812 -1.56303 0.42201 0
M  V30 865 H 77.8732 -3.55101 -1.94128 0
M  V30 866 H 76.4432 -2.48989 -1.89005 0
M  V30 867 H 75.6632 -3.93989 0.128908 0
M  V30 868 H 76.9512 -5.07906 -0.301506 0
M  V30 869 H 76.3492 -4.49902 -3.42936 0
M  V30 870 H 74.9062 -5.40774 -3.63877 0
M  V30 871 N 78.3393 -0.321999 -1.54275 0
M  V30 872 C 79.2873 0.560206 -2.25753 0
M  V30 873 C 80.2813 1.11984 -1.27106 0
M  V30 874 O 81.4873 1.06806 -1.44888 0
M  V30 875 H 77.8623 0.199304 -0.725108 0
M  V30 876 H 79.8333 -0.0649365 -2.98329 0
M  V30 877 C 78.5823 1.71023 -3.02731 0
M  V30 878 H 77.9053 1.28885 -3.78456 0
M  V30 879 H 79.3453 2.30314 -3.55993 0
M  V30 880 C 77.8043 2.62692 -2.10938 0
M  V30 881 O 78.3343 3.64364 -1.6912 0
M  V30 882 N 76.5403 2.30891 -1.76459 0
M  V30 883 H 76.0873 1.48253 -2.10663 0
M  V30 884 H 76.0453 2.92487 -1.1532 0
M  V30 885 N 79.8174 1.5752 -0.0501392 0
M  V30 886 C 80.7474 2.14502 0.922566 0
M  V30 887 C 81.7284 1.06642 1.3252 0
M  V30 888 O 82.9134 1.34577 1.4001 0
M  V30 889 C 80.0434 2.68916 2.19776 0
M  V30 890 C 78.9974 3.8175 1.93523 0
M  V30 891 C 78.3234 4.22677 3.27487 0
M  V30 892 C 79.6234 5.06932 1.25765 0
M  V30 893 H 81.3174 2.9603 0.447952 0
M  V30 894 H 78.8634 1.42401 0.214024 0
M  V30 895 H 80.8164 3.07419 2.88222 0
M  V30 896 H 79.5404 1.84578 2.69441 0
M  V30 897 H 78.1994 3.43718 1.27489 0
M  V30 898 H 77.8474 3.35291 3.74952 0
M  V30 899 H 77.5474 4.98725 3.1072 0
M  V30 900 H 79.0714 4.63779 3.97166 0
M  V30 901 H 80.4854 5.42888 1.84244 0
M  V30 902 H 78.8824 5.88116 1.19328 0
M  V30 903 H 79.9524 4.84337 0.233536 0
M  V30 904 N 81.2955 -0.223234 1.56011 0
M  V30 905 C 82.5415 -0.949279 1.79211 0
M  V30 906 C 82.8745 -1.84054 0.619494 0
M  V30 907 O 82.1495 -1.90726 -0.381317 0
M  V30 908 C 82.4325 -1.78965 3.12479 0
M  V30 909 C 82.2855 -0.924997 4.40186 0
M  V30 910 C 83.6045 -2.76774 3.42175 0
M  V30 911 H 80.7235 -0.343676 0.651963 0
M  V30 912 H 83.3655 -0.218253 1.88742 0
M  V30 913 H 81.5155 -2.41291 3.04485 0
M  V30 914 H 83.1875 -0.318615 4.60198 0
M  V30 915 H 81.4305 -0.230344 4.33188 0
M  V30 916 H 82.1015 -1.54735 5.29869 0
M  V30 917 H 84.5775 -2.24584 3.50287 0
M  V30 918 H 83.4535 -3.32678 4.36597 0
M  V30 919 H 83.7145 -3.54429 2.64258 0
M  V30 920 N 82.7736 -1.49793 -0.48987 0
M  V30 921 C 84.0196 -1.60078 -1.24511 0
M  V30 922 C 84.3526 -0.291608 -1.91998 0
M  V30 923 O 83.6276 0.705647 -1.81248 0
M  V30 924 C 83.9106 -2.76791 -2.30345 0
M  V30 925 C 83.7636 -4.17535 -1.67286 0
M  V30 926 C 85.0826 -2.89111 -3.31817 0
M  V30 927 H 82.2016 -0.582645 -0.451324 0
M  V30 928 H 84.8436 -1.82117 -0.541612 0
M  V30 929 H 82.9936 -2.5813 -2.90346 0
M  V30 930 H 84.6656 -4.4774 -1.11026 0
M  V30 931 H 82.9086 -4.22665 -0.976577 0
M  V30 932 H 83.5796 -4.95094 -2.44103 0
M  V30 933 H 86.0556 -3.06133 -2.81819 0
M  V30 934 H 84.9316 -3.72433 -4.03219 0
M  V30 935 H 85.1926 -1.9893 -3.94815 0
M  V30 936 N 84.2517 0.741722 -1.39055 0
M  V30 937 C 85.1987 1.85566 -1.37237 0
M  V30 938 C 86.1687 1.64457 -0.233072 0
M  V30 939 O 87.3537 1.85957 -0.427147 0
M  V30 940 C 84.4937 3.23004 -1.215 0
M  V30 941 C 83.6067 3.55864 -2.44918 0
M  V30 942 C 82.7417 4.82669 -2.21821 0
M  V30 943 C 81.7807 5.08351 -3.40948 0
M  V30 944 N 80.9177 6.26356 -3.17211 0
M  V30 945 H 85.7577 1.86455 -2.32462 0
M  V30 946 H 83.2947 0.911176 -1.15482 0
M  V30 947 H 85.2527 4.02331 -1.10389 0
M  V30 948 H 83.8827 3.21411 -0.29908 0
M  V30 949 H 82.9347 2.7129 -2.66657 0
M  V30 950 H 84.2467 3.70765 -3.33668 0
M  V30 951 H 83.4007 5.69962 -2.07914 0
M  V30 952 H 82.1397 4.69929 -1.30454 0
M  V30 953 H 81.1447 4.19522 -3.55361 0
M  V30 954 H 82.3697 5.22981 -4.33207 0
M  V30 955 H 80.3157 6.14917 -2.28502 0
M  V30 956 H 80.2327 6.41813 -3.99515 0
M  V30 957 H 81.5007 7.16506 -3.06984 0
M  V30 958 N 85.7298 1.2412 0.971189 0
M  V30 959 C 87.1408 1.07236 1.52831 0
M  V30 960 C 87.4918 -0.357352 1.92918 0
M  V30 961 O 86.6168 -1.24528 1.76979 0
M  V30 962 C 87.2118 1.94043 2.77728 0
M  V30 963 C 85.7708 1.81394 3.29808 0
M  V30 964 C 84.9178 1.89189 2.02738 0
M  V30 965 H 87.8688 1.37648 0.789864 0
M  V30 966 H 87.8898 1.47066 3.5093 0
M  V30 967 H 87.4018 2.98093 2.4852 0
M  V30 968 H 85.5028 0.801634 3.63874 0
M  V30 969 H 85.6158 2.65294 3.98944 0
M  V30 970 H 83.9798 1.32877 2.17292 0
M  V30 971 H 84.7628 2.94812 1.759 0
M  V30 972 N 87.2079 -1.17134 1.05439 0
M  V30 973 C 88.4849 -1.83411 0.679699 0
M  V30 974 C 88.8649 -1.9368 -0.839726 0
M  V30 975 O 88.2129 -1.47325 -1.74664 0
M  V30 976 C 88.4229 -3.20918 1.37159 0
M  V30 977 C 89.7709 -3.96796 1.51123 0
M  V30 978 O 90.7949 -3.30406 1.3308 0
M  V30 979 O 89.6539 -5.15778 1.80651 0
M  V30 980 H 86.7479 -0.79154 0.239569 0
M  V30 981 H 89.2939 -1.24411 1.15413 0
M  V30 982 H 88.0659 -3.08428 2.40807 0
M  V30 983 H 87.6889 -3.87587 0.886674 0
M  V30 984 N 88.686 -0.835752 -1.33615 0
M  V30 985 C 89.618 -0.224151 -2.28101 0
M  V30 986 C 90.631 0.593331 -1.51603 0
M  V30 987 O 91.82 0.420911 -1.73466 0
M  V30 988 C 88.92 0.703309 -3.31522 0
M  V30 989 C 88.093 -0.0741528 -4.37337 0
M  V30 990 C 87.152 0.776176 -5.20444 0
M  V30 991 O 86.178 0.216506 -5.68788 0
M  V30 992 N 87.38 2.09401 -5.41416 0
M  V30 993 H 90.145 -1.03598 -2.81225 0
M  V30 994 H 87.706 -0.69392 -1.46275 0
M  V30 995 H 89.698 1.27707 -3.84022 0
M  V30 996 H 88.268 1.41585 -2.78698 0
M  V30 997 H 87.488 -0.82928 -3.85378 0
M  V30 998 H 88.776 -0.608863 -5.05144 0
M  V30 999 H 88.174 2.57229 -5.03835 0
M  V30 1000 H 86.731 2.61633 -5.96985 0
M  V30 1001 N 90.1641 1.46063 -0.591896 0
M  V30 1002 C 91.0941 2.33172 0.123673 0
M  V30 1003 C 92.0751 1.45897 0.87453 0
M  V30 1004 O 93.2601 1.74698 0.848181 0
M  V30 1005 C 90.3901 3.28336 1.13194 0
M  V30 1006 C 89.3441 4.25124 0.495324 0
M  V30 1007 C 88.6701 5.09863 1.61071 0
M  V30 1008 C 89.9701 5.19143 -0.573425 0
M  V30 1009 H 91.6641 2.93252 -0.603646 0
M  V30 1010 H 89.2101 1.41014 -0.291741 0
M  V30 1011 H 91.1631 3.88137 1.64097 0
M  V30 1012 H 89.8871 2.66383 1.88965 0
M  V30 1013 H 88.5461 3.66599 0.00729452 0
M  V30 1014 H 88.1941 4.44288 2.35832 0
M  V30 1015 H 87.8941 5.75417 1.19035 0
M  V30 1016 H 89.4181 5.72529 2.12233 0
M  V30 1017 H 90.8321 5.73106 -0.1491 0
M  V30 1018 H 89.2291 5.93089 -0.914636 0
M  V30 1019 H 90.2991 4.62519 -1.45617 0
M  V30 1020 N 91.6422 0.330177 1.54103 0
M  V30 1021 C 92.8912 -0.271336 1.99867 0
M  V30 1022 C 93.2042 -1.52723 1.22209 0
M  V30 1023 O 94.4102 -2.20515 1.58383 0
M  V30 1024 C 92.8662 -0.534032 3.55916 0
M  V30 1025 C 92.4742 0.705193 4.42415 0
M  V30 1026 C 94.2182 -1.09514 4.1013 0
M  V30 1027 C 92.1252 0.414035 5.89949 0
M  V30 1028 H 91.0552 -0.105166 0.74663 0
M  V30 1029 H 93.7062 0.443429 1.78062 0
M  V30 1030 H 92.0882 -1.30915 3.73734 0
M  V30 1031 H 93.2622 1.4804 4.36372 0
M  V30 1032 H 91.5772 1.18698 3.99124 0
M  V30 1033 H 94.1742 -1.3277 5.17954 0
M  V30 1034 H 94.5172 -2.04656 3.62521 0
M  V30 1035 H 95.0502 -0.381038 3.95971 0
M  V30 1036 H 91.7892 1.33481 6.41766 0
M  V30 1037 H 91.3092 -0.323336 5.98928 0
M  V30 1038 H 92.9882 0.0263105 6.46995 0
M  V30 1039 N 93.1203 -1.57491 0.0584922 0
M  V30 1040 C 94.0673 -2.11958 -0.913376 0
M  V30 1041 C 95.0373 -1.02875 -1.30407 0
M  V30 1042 O 96.2223 -1.30464 -1.39226 0
M  V30 1043 C 93.3623 -2.67497 -2.18035 0
M  V30 1044 C 92.4753 -3.90691 -1.84349 0
M  V30 1045 C 91.6103 -4.3452 -3.05559 0
M  V30 1046 C 90.6493 -5.50395 -2.67827 0
M  V30 1047 N 89.7863 -5.89244 -3.81754 0
M  V30 1048 H 94.6263 -2.94704 -0.442017 0
M  V30 1049 H 92.1633 -1.45643 -0.206545 0
M  V30 1050 H 94.1213 -2.978 -2.92183 0
M  V30 1051 H 92.7513 -1.87537 -2.62735 0
M  V30 1052 H 91.8033 -3.66934 -1.00319 0
M  V30 1053 H 93.1153 -4.7489 -1.5258 0
M  V30 1054 H 92.2693 -4.66414 -3.87998 0
M  V30 1055 H 91.0083 -3.49147 -3.40511 0
M  V30 1056 H 90.0133 -5.18165 -1.83806 0
M  V30 1057 H 91.2383 -6.3749 -2.34059 0
M  V30 1058 H 89.1843 -5.06823 -4.16493 0
M  V30 1059 H 89.1013 -6.68151 -3.53708 0
M  V30 1060 H 90.3693 -6.25756 -4.64811 0
M  V30 1061 N 94.5984 0.214957 -1.56127 0
M  V30 1062 C 96.0144 0.564948 -1.49267 0
M  V30 1063 C 96.2144 1.86827 -0.754838 0
M  V30 1064 O 95.2704 2.50745 -0.297198 0
M  V30 1065 C 96.5834 0.638071 -2.93852 0
M  V30 1066 C 98.1314 0.728253 -3.0441 0
M  V30 1067 C 98.6064 0.832663 -4.50367 0
M  V30 1068 N 100.097 0.896712 -4.54437 0
M  V30 1069 C 100.832 0.997324 -5.6466 0
M  V30 1070 N 100.328 1.06147 -6.8462 0
M  V30 1071 N 102.121 1.03297 -5.52527 0
M  V30 1072 H 94.2724 -0.640211 -2.02522 0
M  V30 1073 H 96.5354 -0.225507 -0.920788 0
M  V30 1074 H 96.2414 -0.250126 -3.50809 0
M  V30 1075 H 96.1154 1.49947 -3.46115 0
M  V30 1076 H 98.5024 1.60689 -2.47514 0
M  V30 1077 H 98.5834 -0.158952 -2.55306 0
M  V30 1078 H 98.2274 -0.0415417 -5.07883 0
M  V30 1079 H 98.1574 1.73538 -4.97184 0
M  V30 1080 H 100.648 0.857188 -3.6805 0
M  V30 1081 H 100.961 1.1382 -7.64372 0
M  V30 1082 H 99.3064 1.03049 -6.87318 0
M  V30 1083 H 102.497 0.979558 -4.57736 0
M  V30 1084 H 102.67 1.10793 -6.38458 0
M  V30 1085 N 96.0765 1.50051 0.48192 0
M  V30 1086 C 97.4925 1.37237 0.814756 0
M  V30 1087 C 97.6925 0.420109 1.97072 0
M  V30 1088 O 96.7485 -0.141246 2.52105 0
M  V30 1089 C 98.0615 2.78375 1.13701 0
M  V30 1090 C 99.6095 2.87213 1.2441 0
M  V30 1091 C 100.084 4.29161 1.59954 0
M  V30 1092 N 101.575 4.32061 1.66967 0
M  V30 1093 C 102.31 5.38879 1.95952 0
M  V30 1094 N 101.806 6.55918 2.23031 0
M  V30 1095 N 103.599 5.26312 1.97363 0
M  V30 1096 H 95.7505 2.10546 -0.28005 0
M  V30 1097 H 98.0135 0.945921 -0.0627454 0
M  V30 1098 H 97.7195 3.49845 0.360787 0
M  V30 1099 H 97.5935 3.14941 2.07586 0
M  V30 1100 H 99.9805 2.15969 2.01101 0
M  V30 1101 H 100.061 2.54204 0.285299 0
M  V30 1102 H 99.7055 5.00938 0.838067 0
M  V30 1103 H 99.6355 4.59648 2.56966 0
M  V30 1104 H 102.126 3.47661 1.48123 0
M  V30 1105 H 102.439 7.33139 2.44391 0
M  V30 1106 H 100.784 6.59112 2.20447 0
M  V30 1107 H 103.975 4.33876 1.75697 0
M  V30 1108 H 104.148 6.09649 2.19618 0
M  V30 1109 N 97.5546 -0.734337 1.39446 0
M  V30 1110 C 98.8026 -1.49096 1.36436 0
M  V30 1111 C 99.1236 -1.94961 -0.0388255 0
M  V30 1112 O 98.3936 -1.69033 -0.990191 0
M  V30 1113 H 96.9736 -0.5531 0.502085 0
M  V30 1114 H 99.6356 -0.871725 1.74319 0
M  V30 1115 H 98.7316 -2.37276 2.02747 0
M  V30 1116 N 99.0327 -1.24633 -0.964593 0
M  V30 1117 C 99.9797 -1.04144 -2.05968 0
M  V30 1118 C 100.95 0.046262 -1.66036 0
M  V30 1119 O 102.135 -0.108972 -1.90489 0
M  V30 1120 C 99.2747 -0.65563 -3.38815 0
M  V30 1121 C 98.3877 -1.81714 -3.91923 0
M  V30 1122 C 97.5227 -1.37662 -5.13052 0
M  V30 1123 C 96.5617 -2.50788 -5.58365 0
M  V30 1124 N 95.6987 -2.07582 -6.70712 0
M  V30 1125 H 100.539 -1.9787 -2.22827 0
M  V30 1126 H 98.0757 -0.9855 -1.09208 0
M  V30 1127 H 100.034 -0.412954 -4.15151 0
M  V30 1128 H 98.6637 0.244627 -3.21872 0
M  V30 1129 H 97.7157 -2.1734 -3.12198 0
M  V30 1130 H 99.0277 -2.66705 -4.21509 0
M  V30 1131 H 98.1817 -1.093 -5.96773 0
M  V30 1132 H 96.9207 -0.497293 -4.85158 0
M  V30 1133 H 95.9257 -2.79906 -4.73215 0
M  V30 1134 H 97.1507 -3.39283 -5.88272 0
M  V30 1135 H 95.0967 -1.22051 -6.44546 0
M  V30 1136 H 95.0137 -2.86125 -6.99763 0
M  V30 1137 H 96.2817 -1.82369 -7.57867 0
M  V30 1138 N 100.511 1.16574 -1.06058 0
M  V30 1139 C 101.441 2.23057 -0.690488 0
M  V30 1140 C 102.422 1.67141 0.315901 0
M  V30 1141 O 103.607 1.93253 0.191556 0
M  V30 1142 C 100.737 3.47222 -0.073625 0
M  V30 1143 C 99.6908 4.16016 -1.00573 0
M  V30 1144 C 99.0168 5.34104 -0.252289 0
M  V30 1145 C 100.317 4.67264 -2.33371 0
M  V30 1146 H 102.011 2.54271 -1.58072 0
M  V30 1147 H 99.5568 1.22218 -0.76149 0
M  V30 1148 H 101.51 4.20939 0.19714 0
M  V30 1149 H 100.234 3.15302 0.85161 0
M  V30 1150 H 98.8928 3.44223 -1.2612 0
M  V30 1151 H 98.5408 4.98437 0.675988 0
M  V30 1152 H 98.2408 5.81072 -0.873455 0
M  V30 1153 H 99.7648 6.10599 0.0109857 0
M  V30 1154 H 101.179 5.32573 -2.12223 0
M  V30 1155 H 99.5758 5.24843 -2.90963 0
M  V30 1156 H 100.646 3.83602 -2.96611 0
M  V30 1157 N 101.989 0.842826 1.3317 0
M  V30 1158 C 103.237 0.439577 1.97262 0
M  V30 1159 C 103.558 -1.00548 1.67078 0
M  V30 1160 O 102.828 -1.70098 0.971779 0
M  V30 1161 H 101.408 0.159558 0.72976 0
M  V30 1162 H 104.07 1.07665 1.62463 0
M  V30 1163 H 103.166 0.574886 3.0676 0
M  V30 1164 N 103.467 -1.45747 0.599634 0
M  V30 1165 C 104.397 -2.33235 -0.111306 0
M  V30 1166 C 105.378 -1.46359 -0.866781 0
M  V30 1167 O 106.563 -1.75146 -0.838904 0
M  V30 1168 C 103.693 -3.28932 -1.11451 0
M  V30 1169 C 102.647 -4.25381 -0.472772 0
M  V30 1170 C 101.973 -5.1071 -1.58365 0
M  V30 1171 C 103.273 -5.18831 0.600948 0
M  V30 1172 H 104.967 -2.92927 0.61919 0
M  V30 1173 H 102.513 -1.40857 0.299215 0
M  V30 1174 H 104.466 -3.89002 -1.62036 0
M  V30 1175 H 103.19 -2.67381 -1.8755 0
M  V30 1176 H 101.849 -3.66598 0.0121472 0
M  V30 1177 H 101.497 -4.45533 -2.33473 0
M  V30 1178 H 101.197 -5.7604 -1.15982 0
M  V30 1179 H 102.721 -5.73647 -2.09194 0
M  V30 1180 H 104.135 -5.73019 0.179491 0
M  V30 1181 H 102.532 -5.92595 0.946076 0
M  V30 1182 H 103.602 -4.6174 1.48068 0
M  V30 1183 N 104.945 -0.338344 -1.53925 0
M  V30 1184 C 106.191 0.260143 -2.01125 0
M  V30 1185 C 106.524 1.50617 -1.22589 0
M  V30 1186 O 105.799 1.91979 -0.312113 0
M  V30 1187 C 106.082 0.579499 -3.55407 0
M  V30 1188 C 105.935 -0.678264 -4.44657 0
M  V30 1189 C 107.254 1.39122 -4.17532 0
M  V30 1190 H 104.373 0.0930772 -0.731099 0
M  V30 1191 H 107.015 -0.457852 -1.84401 0
M  V30 1192 H 105.165 1.19118 -3.69788 0
M  V30 1193 H 106.837 -1.31631 -4.42121 0
M  V30 1194 H 105.08 -1.3042 -4.13731 0
M  V30 1195 H 105.751 -0.410143 -5.50474 0
M  V30 1196 H 108.227 0.874035 -4.06817 0
M  V30 1197 H 107.103 1.58342 -5.25565 0
M  V30 1198 H 107.364 2.39178 -3.71815 0
M  V30 1199 N 106.423 1.57458 -0.0668435 0
M  V30 1200 C 107.671 1.92919 0.602214 0
M  V30 1201 C 107.992 0.947215 1.70449 0
M  V30 1202 O 107.262 -0.00544117 1.95899 0
M  V30 1203 H 105.842 0.71217 0.22544 0
M  V30 1204 H 108.504 1.94508 -0.123535 0
M  V30 1205 H 107.6 2.94589 1.03073 0
M  V30 1206 N 107.901 -0.206675 1.56239 0
M  V30 1207 C 109.147 -0.930218 1.80208 0
M  V30 1208 C 109.48 -1.83387 0.638981 0
M  V30 1209 O 108.755 -1.91119 -0.361066 0
M  V30 1210 C 109.038 -1.75641 3.1436 0
M  V30 1211 C 108.891 -0.878257 4.41142 0
M  V30 1212 C 110.21 -2.73129 3.45092 0
M  V30 1213 H 107.329 -0.336742 0.655571 0
M  V30 1214 H 109.971 -0.198222 1.88963 0
M  V30 1215 H 108.121 -2.38048 3.07027 0
M  V30 1216 H 109.793 -0.269787 4.6051 0
M  V30 1217 H 108.036 -0.184385 4.33408 0
M  V30 1218 H 108.707 -1.49106 5.3148 0
M  V30 1219 H 111.183 -2.20856 3.52649 0
M  V30 1220 H 110.059 -3.28028 4.40101 0
M  V30 1221 H 110.32 -3.51606 2.68003 0
M  V30 1222 N 109.379 -1.50304 -0.473955 0
M  V30 1223 C 110.327 -1.69482 -1.59307 0
M  V30 1224 C 111.321 -0.560669 -1.59853 0
M  V30 1225 O 112.527 -0.741087 -1.64036 0
M  V30 1226 H 108.902 -0.534892 -0.528578 0
M  V30 1227 H 110.873 -2.63364 -1.40293 0
M  V30 1228 C 109.622 -1.80354 -2.97267 0
M  V30 1229 H 108.945 -2.67012 -2.97564 0
M  V30 1230 H 110.385 -1.97798 -3.75036 0
M  V30 1231 C 108.844 -0.55448 -3.32306 0
M  V30 1232 O 109.374 0.307661 -4.0052 0
M  V30 1233 N 107.58 -0.409354 -2.87702 0
M  V30 1234 H 107.127 -1.11196 -2.32364 0
M  V30 1235 H 107.085 0.425223 -3.11511 0
M  V30 1236 N 110.857 0.726932 -1.39834 0
M  V30 1237 C 111.787 1.85405 -1.41941 0
M  V30 1238 C 112.768 1.67751 -0.281728 0
M  V30 1239 O 113.953 1.8795 -0.488717 0
M  V30 1240 C 111.083 3.23243 -1.2701 0
M  V30 1241 C 110.037 3.55549 -2.38262 0
M  V30 1242 C 109.363 4.9241 -2.08415 0
M  V30 1243 C 110.663 3.577 -3.80589 0
M  V30 1244 H 112.357 1.83899 -2.36266 0
M  V30 1245 H 109.903 0.883349 -1.13723 0
M  V30 1246 H 111.856 4.01775 -1.27103 0
M  V30 1247 H 110.58 3.25296 -0.291564 0
M  V30 1248 H 109.239 2.79351 -2.37399 0
M  V30 1249 H 108.887 4.91052 -1.0898 0
M  V30 1250 H 108.587 5.14992 -2.82943 0
M  V30 1251 H 110.111 5.73289 -2.10171 0
M  V30 1252 H 111.525 4.26293 -3.83337 0
M  V30 1253 H 109.922 3.91804 -4.54543 0
M  V30 1254 H 110.992 2.57328 -4.10987 0
M  V30 1255 N 112.336 1.25143 0.95797 0
M  V30 1256 C 113.564 1.12424 1.73691 0
M  V30 1257 C 113.979 -0.322304 1.86029 0
M  V30 1258 O 113.336 -1.22186 1.35561 0
M  V30 1259 C 113.387 1.76933 3.15241 0
M  V30 1260 O 113.108 3.15932 3.03511 0
M  V30 1261 C 114.609 1.6995 4.09429 0
M  V30 1262 H 111.829 0.3923 0.544373 0
M  V30 1263 H 114.373 1.6544 1.20207 0
M  V30 1264 H 112.528 1.27895 3.6568 0
M  V30 1265 H 112.942 3.47598 3.9278 0
M  V30 1266 H 114.416 2.19753 5.06372 0
M  V30 1267 H 114.893 0.662619 4.34173 0
M  V30 1268 H 115.499 2.18461 3.64904 0
M  V30 1269 N 113.814 -1.1601 1.06675 0
M  V30 1270 C 114.744 -2.22688 0.702307 0
M  V30 1271 C 115.725 -1.67306 -0.307032 0
M  V30 1272 O 116.91 -1.93352 -0.181305 0
M  V30 1273 C 114.04 -3.47178 0.092038 0
M  V30 1274 C 112.994 -4.15477 1.02777 0
M  V30 1275 C 112.32 -5.33963 0.28061 0
M  V30 1276 C 113.62 -4.66019 2.35846 0
M  V30 1277 H 115.314 -2.53429 1.59419 0
M  V30 1278 H 112.86 -1.21813 0.767961 0
M  V30 1279 H 114.813 -4.21037 -0.174814 0
M  V30 1280 H 113.537 -3.15749 -0.834877 0
M  V30 1281 H 112.196 -3.43549 1.27944 0
M  V30 1282 H 111.844 -4.98788 -0.649545 0
M  V30 1283 H 111.544 -5.806 0.904258 0
M  V30 1284 H 113.068 -6.10596 0.021396 0
M  V30 1285 H 114.482 -5.3144 2.15045 0
M  V30 1286 H 112.879 -5.23293 2.93743 0
M  V30 1287 H 113.949 -3.82023 2.98641 0
M  V30 1288 N 115.292 -0.849877 -1.32721 0
M  V30 1289 C 116.569 -0.372405 -1.92022 0
M  V30 1290 C 116.949 1.1435 -1.77447 0
M  V30 1291 O 116.297 1.96296 -1.16962 0
M  V30 1292 C 116.507 -0.831482 -3.3895 0
M  V30 1293 C 117.855 -0.845882 -4.16089 0
M  V30 1294 O 118.879 -0.775806 -3.47649 0
M  V30 1295 O 117.738 -0.943753 -5.38289 0
M  V30 1296 H 114.832 -0.107667 -0.819961 0
M  V30 1297 H 117.378 -0.93646 -1.41522 0
M  V30 1298 H 116.15 -1.87448 -3.4348 0
M  V30 1299 H 115.773 -0.24461 -3.96847 0
M  V30 1300 N 116.77 1.45427 -0.607355 0
M  V30 1301 C 118.018 2.01841 -0.102253 0
M  V30 1302 C 118.339 1.47832 1.27164 0
M  V30 1303 O 117.609 0.672497 1.83995 0
M  V30 1304 H 116.189 0.746188 -0.0348101 0
M  V30 1305 H 118.851 1.78229 -0.7887 0
M  V30 1306 H 117.947 3.12057 -0.0518585 0
M  V30 1307 N 118.248 0.346503 1.53744 0
M  V30 1308 C 119.494 -0.249473 2.0126 0
M  V30 1309 C 119.827 -1.49965 1.23386 0
M  V30 1310 O 119.102 -1.91811 0.32229 0
M  V30 1311 C 119.385 -0.560643 3.55709 0
M  V30 1312 C 119.238 0.701836 4.44291 0
M  V30 1313 C 120.557 -1.36905 4.18264 0
M  V30 1314 H 117.676 -0.0891987 0.731582 0
M  V30 1315 H 120.318 0.467624 1.84156 0
M  V30 1316 H 118.468 -1.17156 3.70414 0
M  V30 1317 H 120.14 1.33974 4.41417 0
M  V30 1318 H 118.383 1.32612 4.13033 0
M  V30 1319 H 119.054 0.43933 5.50249 0
M  V30 1320 H 121.53 -0.852448 4.07275 0
M  V30 1321 H 120.406 -1.55553 5.26398 0
M  V30 1322 H 120.667 -2.37203 3.73078 0
M  V30 1323 N 119.726 -1.57421 0.075193 0
M  V30 1324 C 120.673 -2.12915 -0.890843 0
M  V30 1325 C 121.643 -1.04252 -1.29309 0
M  V30 1326 O 122.828 -1.31933 -1.37834 0
M  V30 1327 C 119.968 -2.69795 -2.15186 0
M  V30 1328 C 119.081 -3.92624 -1.80194 0
M  V30 1329 C 118.216 -4.37736 -3.00933 0
M  V30 1330 C 117.255 -5.53205 -2.61974 0
M  V30 1331 N 116.392 -5.9326 -3.75483 0
M  V30 1332 H 121.232 -2.95156 -0.410735 0
M  V30 1333 H 118.769 -1.45854 -0.191086 0
M  V30 1334 H 120.727 -3.00883 -2.89008 0
M  V30 1335 H 119.357 -1.90313 -2.60731 0
M  V30 1336 H 118.409 -3.67977 -0.964218 0
M  V30 1337 H 119.721 -4.76482 -1.47534 0
M  V30 1338 H 118.875 -4.70503 -3.8303 0
M  V30 1339 H 117.614 -3.52739 -3.36789 0
M  V30 1340 H 116.619 -5.20086 -1.783 0
M  V30 1341 H 117.844 -6.39936 -2.27284 0
M  V30 1342 H 115.79 -5.11212 -4.11094 0
M  V30 1343 H 115.707 -6.71865 -3.46602 0
M  V30 1344 H 116.975 -6.30651 -4.58148 0
M  V30 1345 N 121.204 0.198386 -1.56346 0
M  V30 1346 C 122.429 0.939682 -1.84891 0
M  V30 1347 C 122.854 1.76202 -0.658369 0
M  V30 1348 O 122.212 1.76993 0.392851 0
M  V30 1349 C 122.26 1.81428 -3.11635 0
M  V30 1350 O 121.364 2.91265 -2.91956 0
M  V30 1351 H 120.705 0.264807 -0.608912 0
M  V30 1352 H 123.235 0.204695 -2.03573 0
M  V30 1353 H 123.245 2.21958 -3.42343 0
M  V30 1354 H 121.92 1.21004 -3.97908 0
M  V30 1355 H 120.497 2.54514 -2.72538 0
M  V30 1356 N 122.682 1.50554 0.465978 0
M  V30 1357 C 123.928 1.63006 1.21658 0
M  V30 1358 C 124.283 0.328613 1.89573 0
M  V30 1359 O 123.576 -0.673813 1.79361 0
M  V30 1360 C 123.77 2.75152 2.28093 0
M  V30 1361 C 123.599 4.16075 1.7062 0
M  V30 1362 C 122.369 4.82408 1.50368 0
M  V30 1363 C 124.567 5.00145 1.1983 0
M  V30 1364 N 122.549 6.07532 0.881924 0
M  V30 1365 C 123.92 6.16035 0.700083 0
M  V30 1366 C 125.975 4.85882 1.08733 0
M  V30 1367 C 124.678 7.19228 0.101835 0
M  V30 1368 C 126.704 5.89257 0.503016 0
M  V30 1369 C 126.066 7.04398 0.0152005 0
M  V30 1370 H 122.165 0.650596 0.433877 0
M  V30 1371 H 124.749 1.8769 0.517746 0
M  V30 1372 H 122.92 2.52181 2.95397 0
M  V30 1373 H 124.652 2.76935 2.95109 0
M  V30 1374 H 121.407 4.39788 1.75737 0
M  V30 1375 H 121.831 6.7443 0.589312 0
M  V30 1376 H 126.473 3.97144 1.4504 0
M  V30 1377 H 124.191 8.07637 -0.273426 0
M  V30 1378 H 127.777 5.80286 0.419451 0
M  V30 1379 H 126.657 7.83021 -0.429856 0
M  V30 1380 N 124.16 -0.719506 1.40217 0
M  V30 1381 C 125.09 -1.8465 1.42922 0
M  V30 1382 C 126.071 -1.67599 0.29062 0
M  V30 1383 O 127.256 -1.87688 0.498677 0
M  V30 1384 C 124.386 -3.22565 1.28722 0
M  V30 1385 C 123.34 -3.54281 2.40144 0
M  V30 1386 C 122.666 -4.91298 2.11023 0
M  V30 1387 C 123.966 -3.55676 3.82481 0
M  V30 1388 H 125.66 -1.82644 2.37237 0
M  V30 1389 H 123.206 -0.877305 1.1419 0
M  V30 1390 H 125.159 -4.01095 1.29232 0
M  V30 1391 H 123.883 -3.25137 0.308811 0
M  V30 1392 H 122.542 -2.78088 2.38877 0
M  V30 1393 H 122.19 -4.90468 1.11582 0
M  V30 1394 H 121.89 -5.13485 2.8567 0
M  V30 1395 H 123.414 -5.72166 2.13209 0
M  V30 1396 H 124.828 -4.24254 3.85592 0
M  V30 1397 H 123.225 -3.89388 4.56614 0
M  V30 1398 H 124.295 -2.55144 4.12346 0
M  V30 1399 N 125.638 -1.25649 -0.95132 0
M  V30 1400 C 126.585 -1.06323 -2.04851 0
M  V30 1401 C 127.555 0.0286491 -1.66075 0
M  V30 1402 O 128.74 -0.12917 -1.90362 0
M  V30 1403 C 125.88 -0.691529 -3.381 0
M  V30 1404 C 124.993 -1.85861 -3.89974 0
M  V30 1405 C 124.128 -1.43096 -5.11563 0
M  V30 1406 C 123.167 -2.56696 -5.55674 0
M  V30 1407 N 122.304 -2.14684 -6.68472 0
M  V30 1408 H 127.144 -2.00222 -2.20715 0
M  V30 1409 H 124.681 -0.997027 -1.08156 0
M  V30 1410 H 126.639 -0.456963 -4.1469 0
M  V30 1411 H 125.269 0.210474 -3.22113 0
M  V30 1412 H 124.321 -2.20639 -3.09875 0
M  V30 1413 H 125.633 -2.71161 -4.18657 0
M  V30 1414 H 124.787 -1.15624 -5.9558 0
M  V30 1415 H 123.526 -0.548722 -4.84603 0
M  V30 1416 H 122.531 -2.84909 -4.7022 0
M  V30 1417 H 123.756 -3.45503 -5.8464 0
M  V30 1418 H 121.702 -1.28881 -6.43215 0
M  V30 1419 H 121.619 -2.9353 -6.96689 0
M  V30 1420 H 122.887 -1.90397 -7.5589 0
M  V30 1421 N 127.117 1.15442 -1.07289 0
M  V30 1422 C 128.528 1.67803 -0.818475 0
M  V30 1423 C 128.879 1.8489 0.656507 0
M  V30 1424 O 128.004 1.55176 1.50829 0
M  V30 1425 C 128.599 3.04805 -1.47917 0
M  V30 1426 C 127.158 3.54245 -1.27229 0
M  V30 1427 C 126.305 2.29986 -1.54925 0
M  V30 1428 H 129.256 0.996646 -1.23502 0
M  V30 1429 H 129.277 3.69702 -0.90005 0
M  V30 1430 H 128.789 2.92336 -2.55267 0
M  V30 1431 H 126.89 3.71956 -0.21899 0
M  V30 1432 H 127.003 4.35723 -1.99203 0
M  V30 1433 H 125.367 2.35496 -0.970242 0
M  V30 1434 H 126.15 2.20105 -2.63455 0
M  V30 1435 N 128.595 0.856903 1.32268 0
M  V30 1436 C 130.011 0.547061 1.49931 0
M  V30 1437 C 130.211 -0.921781 1.7918 0
M  V30 1438 O 129.267 -1.70469 1.8627 0
M  V30 1439 C 130.58 1.43599 2.64196 0
M  V30 1440 C 132.128 1.43665 2.78081 0
M  V30 1441 C 132.603 2.31085 3.95428 0
M  V30 1442 N 134.094 2.28893 4.02694 0
M  V30 1443 C 134.829 2.93262 4.92732 0
M  V30 1444 N 134.325 3.66751 5.87763 0
M  V30 1445 N 136.118 2.82638 4.85873 0
M  V30 1446 H 128.269 1.8075 1.11549 0
M  V30 1447 H 130.532 0.772144 0.549997 0
M  V30 1448 H 130.238 2.48058 2.49319 0
M  V30 1449 H 130.112 1.12502 3.60032 0
M  V30 1450 H 132.499 0.399701 2.92381 0
M  V30 1451 H 132.58 1.7878 1.82952 0
M  V30 1452 H 132.224 3.34849 3.81888 0
M  V30 1453 H 132.154 1.93302 4.89839 0
M  V30 1454 H 134.645 1.75466 3.34694 0
M  V30 1455 H 134.958 4.13027 6.53168 0
M  V30 1456 H 133.303 3.70859 5.87783 0
M  V30 1457 H 136.494 2.24774 4.10602 0
M  V30 1458 H 136.667 3.33084 5.55841 0
M  V30 1459 N 130.073 -1.45103 0.615059 0
M  V30 1460 C 131.003 -2.33339 -0.0865619 0
M  V30 1461 C 131.984 -1.4727 -0.851209 0
M  V30 1462 O 133.169 -1.76026 -0.820281 0
M  V30 1463 C 130.299 -3.30095 -1.07956 0
M  V30 1464 C 129.253 -4.25858 -0.427628 0
M  V30 1465 C 128.579 -5.12361 -1.5294 0
M  V30 1466 C 129.879 -5.18165 0.655944 0
M  V30 1467 H 131.573 -2.92254 0.650224 0
M  V30 1468 H 129.119 -1.40532 0.314138 0
M  V30 1469 H 131.072 -3.90698 -1.57901 0
M  V30 1470 H 129.796 -2.69355 -1.84703 0
M  V30 1471 H 128.455 -3.66564 0.0510292 0
M  V30 1472 H 128.103 -4.47984 -2.28734 0
M  V30 1473 H 127.803 -5.77238 -1.09865 0
M  V30 1474 H 129.327 -5.75833 -2.03098 0
M  V30 1475 H 130.741 -5.72796 0.240257 0
M  V30 1476 H 129.138 -5.91559 1.00888 0
M  V30 1477 H 130.208 -4.60144 1.52957 0
M  V30 1478 N 131.551 -0.354651 -1.53558 0
M  V30 1479 C 132.799 0.237972 -2.00694 0
M  V30 1480 C 133.12 1.50173 -1.24391 0
M  V30 1481 O 132.39 1.92673 -0.354135 0
M  V30 1482 H 130.97 0.0909256 -0.741446 0
M  V30 1483 H 133.632 -0.478368 -1.88938 0
M  V30 1484 H 132.728 0.47264 -3.085 0
M  V30 1485 N 133.029 1.57378 -0.0835403 0
M  V30 1486 C 133.961 2.10389 0.909338 0
M  V30 1487 C 134.974 1.03858 1.25369 0
M  V30 1488 O 136.163 1.31338 1.20882 0
M  V30 1489 C 133.263 2.55908 2.2218 0
M  V30 1490 C 132.436 3.86145 2.05453 0
M  V30 1491 C 131.495 4.17633 3.20108 0
M  V30 1492 O 130.521 4.87043 2.94581 0
M  V30 1493 N 131.723 3.72113 4.45547 0
M  V30 1494 H 134.488 2.962 0.456657 0
M  V30 1495 H 132.049 1.61579 0.101877 0
M  V30 1496 H 134.041 2.74027 2.97811 0
M  V30 1497 H 132.611 1.75171 2.58909 0
M  V30 1498 H 131.831 3.7729 1.1422 0
M  V30 1499 H 133.119 4.7137 1.91541 0
M  V30 1500 H 132.517 3.16062 4.69171 0
M  V30 1501 H 131.074 3.95409 5.18165 0
M  V30 1502 N 134.507 -0.190092 1.56449 0
M  V30 1503 C 135.417 -1.25591 1.98152 0
M  V30 1504 C 136.433 -1.49519 0.889944 0
M  V30 1505 O 137.609 -1.62036 1.19609 0
M  V30 1506 C 134.674 -2.57916 2.3169 0
M  V30 1507 C 133.735 -2.42015 3.5458 0
M  V30 1508 C 132.968 -3.6803 3.8651 0
M  V30 1509 O 133.191 -4.72413 3.1966 0
M  V30 1510 O 132.125 -3.6326 4.79923 0
M  V30 1511 H 135.951 -0.931988 2.89046 0
M  V30 1512 H 133.536 -0.395488 1.4407 0
M  V30 1513 H 135.418 -3.36008 2.54316 0
M  V30 1514 H 134.093 -2.89925 1.43963 0
M  V30 1515 H 133 -1.62017 3.37196 0
M  V30 1516 H 134.333 -2.14937 4.4279 0
M  V30 1517 N 135.985 -1.50799 -0.457987 0
M  V30 1518 C 136.948 -1.7005 -1.53674 0
M  V30 1519 C 137.948 -0.570881 -1.50325 0
M  V30 1520 O 139.138 -0.838126 -1.52712 0
M  V30 1521 C 136.27 -1.73788 -2.93276 0
M  V30 1522 H 137.463 -2.66306 -1.37917 0
M  V30 1523 H 135.016 -1.40477 -0.685271 0
M  V30 1524 H 135.751 -0.792717 -3.14462 0
M  V30 1525 H 135.536 -2.55864 -2.97113 0
M  V30 1526 H 137.026 -1.90591 -3.71571 0
M  V30 1527 N 137.463 0.71206 -1.40597 0
M  V30 1528 C 138.691 1.50111 -1.42388 0
M  V30 1529 C 139.106 1.88784 -0.0245395 0
M  V30 1530 O 138.463 1.55681 0.952351 0
M  V30 1531 C 138.514 2.7742 -2.31776 0
M  V30 1532 O 138.235 2.40382 -3.66262 0
M  V30 1533 C 139.736 3.7129 -2.42196 0
M  V30 1534 H 136.956 0.46314 -0.485533 0
M  V30 1535 H 139.5 0.878068 -1.8469 0
M  V30 1536 H 137.655 3.36001 -1.92827 0
M  V30 1537 H 138.069 3.22324 -4.13772 0
M  V30 1538 H 139.543 4.57448 -3.08943 0
M  V30 1539 H 140.02 4.14641 -1.44809 0
M  V30 1540 H 140.626 3.18619 -2.81712 0
M  V30 1541 N 138.941 1.26152 0.944643 0
M  V30 1542 C 140.187 1.11657 1.69294 0
M  V30 1543 C 140.52 -0.339926 1.91202 0
M  V30 1544 O 139.795 -1.24994 1.49019 0
M  V30 1545 C 140.078 1.88236 3.06984 0
M  V30 1546 C 139.931 3.41772 2.92424 0
M  V30 1547 C 141.25 1.67343 4.07043 0
M  V30 1548 H 138.369 0.407004 0.614424 0
M  V30 1549 H 141.011 1.55106 1.09737 0
M  V30 1550 H 139.161 1.51308 3.57824 0
M  V30 1551 H 140.833 3.88433 2.48832 0
M  V30 1552 H 139.076 3.68974 2.28124 0
M  V30 1553 H 139.747 3.90579 3.90067 0
M  V30 1554 H 142.223 1.99509 3.65151 0
M  V30 1555 H 141.099 2.23346 5.01406 0
M  V30 1556 H 141.36 0.617158 4.37771 0
M  V30 1557 N 140.419 -1.14872 1.07899 0
M  V30 1558 C 141.667 -1.85422 0.803941 0
M  V30 1559 C 141.988 -1.83051 -0.67211 0
M  V30 1560 O 141.258 -1.27532 -1.48703 0
M  V30 1561 H 139.838 -0.686537 0.294408 0
M  V30 1562 H 142.5 -1.39226 1.3639 0
M  V30 1563 H 141.596 -2.90399 1.14346 0
M  V30 1564 N 141.898 -0.863906 -1.31812 0
M  V30 1565 C 142.845 -0.313303 -2.28664 0
M  V30 1566 C 143.815 0.584868 -1.55462 0
M  V30 1567 O 145 0.517805 -1.83639 0
M  V30 1568 C 142.14 0.48441 -3.41683 0
M  V30 1569 C 141.253 -0.440594 -4.29747 0
M  V30 1570 C 140.388 0.370652 -5.29905 0
M  V30 1571 C 139.427 -0.551164 -6.09613 0
M  V30 1572 N 138.564 0.223462 -7.01744 0
M  V30 1573 H 143.404 -1.14444 -2.75148 0
M  V30 1574 H 140.941 -0.575769 -1.35364 0
M  V30 1575 H 142.899 0.962627 -4.05943 0
M  V30 1576 H 141.529 1.28029 -2.96325 0
M  V30 1577 H 140.581 -1.03724 -3.65986 0
M  V30 1578 H 141.893 -1.14767 -4.85417 0
M  V30 1579 H 141.047 0.911638 -5.99812 0
M  V30 1580 H 139.786 1.11105 -4.74876 0
M  V30 1581 H 138.791 -1.10396 -5.38603 0
M  V30 1582 H 140.016 -1.29032 -6.66729 0
M  V30 1583 H 137.962 0.946787 -6.49132 0
M  V30 1584 H 137.879 -0.424399 -7.54808 0
M  V30 1585 H 139.147 0.745876 -7.75923 0
M  V30 1586 N 143.376 1.44774 -0.622745 0
M  V30 1587 C 144.339 2.29069 0.0774015 0
M  V30 1588 C 145.339 1.4059 0.780461 0
M  V30 1589 O 146.529 1.62551 0.626322 0
M  V30 1590 C 143.661 3.21974 1.12006 0
M  V30 1591 H 144.854 2.92459 -0.663901 0
M  V30 1592 H 142.407 1.51548 -0.382486 0
M  V30 1593 H 143.142 2.63417 1.89162 0
M  V30 1594 H 142.927 3.87168 0.619951 0
M  V30 1595 H 144.417 3.85318 1.60995 0
M  V30 1596 N 144.854 0.36279 1.53368 0
M  V30 1597 C 146.082 -0.228613 2.05633 0
M  V30 1598 C 146.497 -1.42676 1.23649 0
M  V30 1599 O 145.854 -1.80394 0.27647 0
M  V30 1600 C 145.905 -0.624845 3.56059 0
M  V30 1601 O 145.626 0.525675 4.34935 0
M  V30 1602 C 147.127 -1.27493 4.24571 0
M  V30 1603 H 144.347 -0.0407183 0.669763 0
M  V30 1604 H 146.891 0.520352 1.97769 0
M  V30 1605 H 145.046 -1.32373 3.64083 0
M  V30 1606 H 145.46 0.205969 5.24095 0
M  V30 1607 H 146.934 -1.50277 5.31151 0
M  V30 1608 H 147.411 -2.23439 3.78116 0
M  V30 1609 H 148.017 -0.617558 4.20792 0
M  V30 1610 N 146.332 -1.57332 0.0918853 0
M  V30 1611 C 147.58 -1.93853 -0.571446 0
M  V30 1612 C 147.901 -0.974212 -1.6892 0
M  V30 1613 O 147.171 -0.0257254 -1.95883 0
M  V30 1614 H 145.751 -0.715666 -0.214082 0
M  V30 1615 H 148.413 -1.94287 0.154464 0
M  V30 1616 H 147.509 -2.96191 -0.983729 0
M  V30 1617 N 147.81 0.181792 -1.56548 0
M  V30 1618 C 149.057 0.900097 -1.81396 0
M  V30 1619 C 149.385 1.82695 -0.667281 0
M  V30 1620 O 148.64 1.92614 0.346146 0
M  V30 1621 C 148.939 1.73728 -3.12335 0
M  V30 1622 C 148.605 0.960255 -4.40556 0
M  V30 1623 C 147.267 0.745766 -4.75386 0
M  V30 1624 C 149.619 0.414477 -5.19549 0
M  V30 1625 C 146.947 -0.0257694 -5.86694 0
M  V30 1626 C 149.299 -0.343916 -6.31664 0
M  V30 1627 C 147.963 -0.569301 -6.65068 0
M  V30 1628 H 147.233 0.329369 -0.663775 0
M  V30 1629 H 149.88 0.165647 -1.90782 0
M  V30 1630 H 148.185 2.54081 -2.98245 0
M  V30 1631 H 149.882 2.29591 -3.28769 0
M  V30 1632 H 146.472 1.13746 -4.13231 0
M  V30 1633 H 150.656 0.567554 -4.93044 0
M  V30 1634 H 145.912 -0.210233 -6.11038 0
M  V30 1635 H 150.086 -0.774133 -6.92084 0
M  V30 1636 H 147.713 -1.16903 -7.51158 0
M  V30 1637 N 149.288 1.51039 0.449983 0
M  V30 1638 C 150.218 1.74379 1.55288 0
M  V30 1639 C 151.199 0.593236 1.5942 0
M  V30 1640 O 152.384 0.834625 1.7535 0
M  V30 1641 C 149.514 1.85728 2.93466 0
M  V30 1642 C 148.468 3.01078 3.04197 0
M  V30 1643 C 147.794 2.97595 4.44231 0
M  V30 1644 C 149.094 4.41254 2.7945 0
M  V30 1645 H 150.788 2.66725 1.36008 0
M  V30 1646 H 148.334 1.2835 0.652864 0
M  V30 1647 H 150.287 2.0064 3.70569 0
M  V30 1648 H 149.011 0.900207 3.13949 0
M  V30 1649 H 147.67 2.85851 2.29531 0
M  V30 1650 H 147.318 1.99691 4.61663 0
M  V30 1651 H 147.018 3.75046 4.52343 0
M  V30 1652 H 148.542 3.14583 5.23326 0
M  V30 1653 H 149.956 4.56897 3.46292 0
M  V30 1654 H 148.353 5.20315 2.98985 0
M  V30 1655 H 149.423 4.52164 1.75144 0
M  V30 1656 N 150.766 -0.704594 1.40972 0
M  V30 1657 C 151.713 -1.81862 1.42109 0
M  V30 1658 C 152.683 -1.63781 0.276593 0
M  V30 1659 O 153.868 -1.84759 0.4763 0
M  V30 1660 C 151.008 -3.19669 1.30022 0
M  V30 1661 C 150.121 -3.49246 2.54267 0
M  V30 1662 C 149.256 -4.76618 2.3454 0
M  V30 1663 C 148.295 -4.99133 3.54306 0
M  V30 1664 N 147.432 -6.17726 3.33706 0
M  V30 1665 H 152.272 -1.80226 2.37324 0
M  V30 1666 H 149.809 -0.880238 1.17857 0
M  V30 1667 H 151.767 -3.99263 1.21018 0
M  V30 1668 H 150.397 -3.20506 0.384192 0
M  V30 1669 H 149.449 -2.64125 2.73756 0
M  V30 1670 H 150.761 -3.61788 3.43381 0
M  V30 1671 H 149.915 -5.64249 2.22952 0
M  V30 1672 H 148.654 -4.66305 1.42867 0
M  V30 1673 H 147.659 -4.09953 3.66359 0
M  V30 1674 H 148.884 -5.11311 4.4692 0
M  V30 1675 H 146.83 -6.08642 2.44725 0
M  V30 1676 H 146.747 -6.30995 4.16391 0
M  V30 1677 H 148.015 -7.08115 3.25873 0
M  V30 1678 N 152.244 -1.26651 -0.937939 0
M  V30 1679 C 153.192 -1.08308 -2.05845 0
M  V30 1680 C 154.186 -0.0090757 -1.69398 0
M  V30 1681 O 155.392 -0.166007 -1.79233 0
M  V30 1682 H 151.767 -0.333416 -0.674046 0
M  V30 1683 H 153.738 -2.03261 -2.18467 0
M  V30 1684 C 152.487 -0.736229 -3.39816 0
M  V30 1685 H 151.81 -1.55453 -3.6834 0
M  V30 1686 H 153.25 -0.64769 -4.19024 0
M  V30 1687 C 151.709 0.558824 -3.32233 0
M  V30 1688 O 152.239 1.59621 -3.68624 0
M  V30 1689 N 150.445 0.550657 -2.85335 0
M  V30 1690 H 149.992 -0.293943 -2.55917 0
M  V30 1691 H 149.95 1.41726 -2.80644 0
M  V30 1692 N 153.722 1.14298 -1.08507 0
M  V30 1693 C 154.969 1.85359 -0.815373 0
M  V30 1694 C 155.297 1.83001 0.658865 0
M  V30 1695 O 154.552 1.25655 1.50031 0
M  V30 1696 C 154.851 3.33547 -1.28379 0
M  V30 1697 C 154.517 3.56093 -2.76602 0
M  V30 1698 C 153.179 3.61955 -3.17084 0
M  V30 1699 C 155.531 3.64834 -3.72217 0
M  V30 1700 C 152.859 3.74082 -4.51973 0
M  V30 1701 C 155.211 3.78487 -5.06883 0
M  V30 1702 C 153.875 3.82598 -5.46969 0
M  V30 1703 H 153.145 0.678276 -0.298366 0
M  V30 1704 H 155.792 1.35002 -1.35819 0
M  V30 1705 H 154.097 3.86191 -0.660593 0
M  V30 1706 H 155.794 3.86959 -1.05186 0
M  V30 1707 H 152.384 3.52179 -2.4427 0
M  V30 1708 H 156.568 3.59595 -3.42061 0
M  V30 1709 H 151.824 3.75527 -4.82483 0
M  V30 1710 H 155.998 3.84193 -5.80834 0
M  V30 1711 H 153.625 3.91747 -6.51489 0
M  V30 1712 N 155.201 0.870884 1.31352 0
M  V30 1713 C 156.131 0.343096 2.30966 0
M  V30 1714 C 157.112 -0.566507 1.60389 0
M  V30 1715 O 158.297 -0.483336 1.88089 0
M  V30 1716 C 155.427 -0.455487 3.443 0
M  V30 1717 C 154.381 0.361103 4.26474 0
M  V30 1718 C 153.707 -0.563221 5.31725 0
M  V30 1719 C 155.007 1.59566 4.97329 0
M  V30 1720 H 156.701 1.17548 2.75359 0
M  V30 1721 H 154.247 0.566686 1.32381 0
M  V30 1722 H 156.2 -0.83525 4.13039 0
M  V30 1723 H 154.924 -1.32139 2.98675 0
M  V30 1724 H 153.583 0.722825 3.59403 0
M  V30 1725 H 153.231 -1.42643 4.82351 0
M  V30 1726 H 152.931 -0.0207409 5.87596 0
M  V30 1727 H 154.455 -0.939808 6.03324 0
M  V30 1728 H 155.869 1.28728 5.58661 0
M  V30 1729 H 154.266 2.07728 5.63 0
M  V30 1730 H 155.336 2.34798 4.24262 0
M  V30 1731 N 156.679 -1.44442 0.630414 0
M  V30 1732 C 157.928 -2.01267 0.132073 0
M  V30 1733 C 158.241 -1.50172 -1.25331 0
M  V30 1734 O 159.447 -1.9912 -1.84562 0
M  V30 1735 C 157.903 -3.59422 0.185362 0
M  V30 1736 C 157.511 -4.19514 1.57201 0
M  V30 1737 C 159.255 -4.23724 -0.256553 0
M  V30 1738 C 157.162 -5.69891 1.58045 0
M  V30 1739 H 156.092 -0.752619 0.0456092 0
M  V30 1740 H 158.743 -1.65666 0.789106 0
M  V30 1741 H 157.125 -3.92318 -0.538759 0
M  V30 1742 H 158.299 -3.98156 2.31966 0
M  V30 1743 H 156.614 -3.67496 1.95795 0
M  V30 1744 H 159.211 -5.34019 -0.269767 0
M  V30 1745 H 159.554 -3.96013 -1.28372 0
M  V30 1746 H 160.087 -3.95629 0.41505 0
M  V30 1747 H 156.826 -6.02336 2.58597 0
M  V30 1748 H 156.346 -5.93373 0.875725 0
M  V30 1749 H 158.025 -6.33515 1.31408 0
M  V30 1750 N 158.157 -0.370918 -1.53173 0
M  V30 1751 C 159.067 0.480823 -2.2962 0
M  V30 1752 C 160.083 1.08789 -1.35798 0
M  V30 1753 O 161.259 1.09768 -1.68858 0
M  V30 1754 C 158.324 1.60227 -3.07454 0
M  V30 1755 C 157.385 1.0222 -4.16953 0
M  V30 1756 C 156.618 2.0902 -4.91066 0
M  V30 1757 O 156.841 3.30222 -4.65091 0
M  V30 1758 O 155.775 1.71778 -5.76867 0
M  V30 1759 H 159.601 -0.141421 -3.03371 0
M  V30 1760 H 157.186 -0.135146 -1.48787 0
M  V30 1761 H 159.068 2.25417 -3.56041 0
M  V30 1762 H 157.743 2.20982 -2.36535 0
M  V30 1763 H 156.65 0.334064 -3.72605 0
M  V30 1764 H 157.983 0.459131 -4.90054 0
M  V30 1765 N 159.635 1.57281 -0.100228 0
M  V30 1766 C 161.046 1.81725 0.428107 0
M  V30 1767 C 161.397 1.01619 1.67833 0
M  V30 1768 O 160.522 0.247098 2.14985 0
M  V30 1769 C 161.117 3.29617 0.78347 0
M  V30 1770 C 159.676 3.54808 1.25653 0
M  V30 1771 C 158.823 2.76118 0.255752 0
M  V30 1772 H 161.774 1.55324 -0.325608 0
M  V30 1773 H 161.795 3.4322 1.64256 0
M  V30 1774 H 161.307 3.87893 -0.12665 0
M  V30 1775 H 159.408 3.01868 2.18418 0
M  V30 1776 H 159.521 4.63443 1.21482 0
M  V30 1777 H 157.885 2.43745 0.738956 0
M  V30 1778 H 158.668 3.37145 -0.647136 0
M  V30 1779 N 161.113 -0.173488 1.56642 0
M  V30 1780 C 162.36 -0.890465 1.81871 0
M  V30 1781 C 162.688 -1.82339 0.67696 0
M  V30 1782 O 161.943 -1.92795 -0.335926 0
M  V30 1783 C 162.242 -1.72069 3.13252 0
M  V30 1784 C 161.908 -0.936878 4.41059 0
M  V30 1785 C 160.57 -0.720545 4.75775 0
M  V30 1786 C 162.922 -0.386919 5.19762 0
M  V30 1787 C 160.25 0.0568829 5.86672 0
M  V30 1788 C 162.602 0.37741 6.31473 0
M  V30 1789 C 161.266 0.604563 6.64757 0
M  V30 1790 H 160.536 -0.325844 0.665512 0
M  V30 1791 H 163.183 -0.155527 1.90867 0
M  V30 1792 H 161.488 -2.52496 2.99588 0
M  V30 1793 H 163.185 -2.27844 3.29982 0
M  V30 1794 H 159.775 -1.11553 4.13828 0
M  V30 1795 H 163.959 -0.541398 4.93338 0
M  V30 1796 H 159.215 0.242635 6.10918 0
M  V30 1797 H 163.389 0.810825 6.91664 0
M  V30 1798 H 161.016 1.20885 7.50527 0
M  V30 1799 N 162.591 -1.51276 -0.441967 0
M  V30 1800 C 163.837 -1.63958 -1.19355 0
M  V30 1801 C 164.17 -0.352543 -1.90973 0
M  V30 1802 O 163.445 0.647627 -1.83401 0
M  V30 1803 C 163.728 -2.83979 -2.21422 0
M  V30 1804 C 163.581 -4.22646 -1.53918 0
M  V30 1805 C 164.9 -2.99521 -3.22451 0
M  V30 1806 H 162.019 -0.596709 -0.432559 0
M  V30 1807 H 164.661 -1.83748 -0.483398 0
M  V30 1808 H 162.811 -2.67237 -2.81987 0
M  V30 1809 H 164.483 -4.51045 -0.967256 0
M  V30 1810 H 162.726 -4.25558 -0.841615 0
M  V30 1811 H 163.397 -5.02609 -2.28229 0
M  V30 1812 H 165.873 -3.14944 -2.71937 0
M  V30 1813 H 164.749 -3.85072 -3.91166 0
M  V30 1814 H 165.01 -2.11391 -3.88287 0
M  V30 1815 N 164.069 0.697108 -1.41344 0
M  V30 1816 C 165.48 1.27697 -1.36199 0
M  V30 1817 C 165.831 1.9615 -0.0443463 0
M  V30 1818 O 164.956 1.98689 0.857419 0
M  V30 1819 C 165.551 2.32223 -2.46694 0
M  V30 1820 C 164.11 2.8579 -2.44952 0
M  V30 1821 C 163.257 1.59807 -2.26621 0
M  V30 1822 H 166.208 0.491968 -1.50882 0
M  V30 1823 H 166.229 3.1348 -2.15664 0
M  V30 1824 H 165.741 1.82373 -3.42581 0
M  V30 1825 H 163.842 3.3982 -1.52817 0
M  V30 1826 H 163.955 3.36325 -3.41207 0
M  V30 1827 H 162.319 1.8556 -1.7447 0
M  V30 1828 H 163.102 1.11956 -3.24532 0
M  V30 1829 N 165.547 1.27147 0.931209 0
M  V30 1830 C 166.497 1.06227 2.01742 0
M  V30 1831 C 167.481 -0.00859065 1.60898 0
M  V30 1832 O 168.673 0.209537 1.75755 0
M  V30 1833 C 165.802 0.707787 3.35924 0
M  V30 1834 C 164.888 1.81661 3.83223 0
M  V30 1835 N 165.279 3.05564 4.03069 0
M  V30 1836 C 163.577 1.70249 4.12227 0
M  V30 1837 C 164.278 3.77697 4.42403 0
M  V30 1838 N 163.254 3.0544 4.49675 0
M  V30 1839 H 167.056 2.00261 2.15111 0
M  V30 1840 H 164.57 1.1781 1.11779 0
M  V30 1841 H 166.567 0.539043 4.134 0
M  V30 1842 H 165.227 -0.224964 3.2392 0
M  V30 1843 H 166.238 3.41363 3.89476 0
M  V30 1844 H 162.915 0.840329 4.08956 0
M  V30 1845 H 164.305 4.84168 4.65866 0
M  V30 1846 N 167.025 -1.13721 1.09112 0
M  V30 1847 C 168.25 -1.89314 0.847053 0
M  V30 1848 C 168.675 -1.78416 -0.595774 0
M  V30 1849 O 168.033 -1.12942 -1.41823 0
M  V30 1850 C 168.081 -3.3701 1.28284 0
M  V30 1851 O 167.185 -4.10054 0.439267 0
M  V30 1852 H 166.526 -0.588745 0.307044 0
M  V30 1853 H 169.056 -1.43902 1.45442 0
M  V30 1854 H 169.066 -3.87834 1.26683 0
M  V30 1855 H 167.741 -3.4426 2.33363 0
M  V30 1856 H 166.318 -3.69266 0.519312 0
M  V30 1857 N 168.503 -0.877838 -1.30888 0
M  V30 1858 C 169.435 -0.296607 -2.27273 0
M  V30 1859 C 170.448 0.544799 -1.53414 0
M  V30 1860 O 171.637 0.365511 -1.74718 0
M  V30 1861 C 168.737 0.597481 -3.33592 0
M  V30 1862 C 167.91 -0.213251 -4.3688 0
M  V30 1863 C 166.969 0.610208 -5.2265 0
M  V30 1864 O 165.995 0.035441 -5.69189 0
M  V30 1865 N 167.197 1.92071 -5.47804 0
M  V30 1866 H 169.962 -1.12492 -2.77787 0
M  V30 1867 H 167.523 -0.740105 -1.43993 0
M  V30 1868 H 169.515 1.15425 -3.87891 0
M  V30 1869 H 168.085 1.32647 -2.83061 0
M  V30 1870 H 167.305 -0.951466 -3.82545 0
M  V30 1871 H 168.593 -0.769262 -5.02951 0
M  V30 1872 H 167.991 2.4107 -5.11763 0
M  V30 1873 H 166.548 2.42508 -6.05007 0
M  V30 1874 N 169.982 1.44106 -0.638065 0
M  V30 1875 C 170.945 2.29138 0.0531013 0
M  V30 1876 C 171.945 1.41409 0.765506 0
M  V30 1877 O 173.135 1.63206 0.609046 0
M  V30 1878 C 170.267 3.23144 1.08584 0
M  V30 1879 H 171.46 2.91739 -0.694883 0
M  V30 1880 H 169.013 1.51134 -0.398538 0
M  V30 1881 H 169.748 2.65408 1.86357 0
M  V30 1882 H 169.533 3.87804 0.578852 0
M  V30 1883 H 171.023 3.87004 1.56899 0
M  V30 1884 N 171.46 0.379036 1.52974 0
M  V30 1885 C 172.37 -0.468639 2.29872 0
M  V30 1886 C 173.386 -1.08067 1.36373 0
M  V30 1887 O 174.562 -1.08871 1.69438 0
M  V30 1888 C 171.627 -1.58594 3.083 0
M  V30 1889 C 170.688 -1.00007 4.17489 0
M  V30 1890 C 169.921 -2.06413 4.92168 0
M  V30 1891 O 170.144 -3.27751 4.66835 0
M  V30 1892 O 169.078 -1.68717 5.7777 0
M  V30 1893 H 172.904 0.157508 3.03291 0
M  V30 1894 H 170.489 0.143035 1.48714 0
M  V30 1895 H 172.371 -2.23525 3.57232 0
M  V30 1896 H 171.046 -2.19724 2.37703 0
M  V30 1897 H 169.953 -0.314299 3.72777 0
M  V30 1898 H 171.286 -0.433135 4.90291 0
M  V30 1899 N 172.938 -1.57226 0.108567 0
M  V30 1900 C 173.848 -2.18292 -0.859401 0
M  V30 1901 C 174.864 -1.15612 -1.30038 0
M  V30 1902 O 176.04 -1.48039 -1.36552 0
M  V30 1903 C 173.105 -2.762 -2.09558 0
M  V30 1904 C 172.166 -3.93881 -1.70752 0
M  V30 1905 C 171.399 -4.49018 -2.88477 0
M  V30 1906 O 171.622 -4.03068 -4.036 0
M  V30 1907 O 170.556 -5.39852 -2.66164 0
M  V30 1908 H 174.382 -3.01441 -0.369769 0
M  V30 1909 H 171.967 -1.48945 -0.1165 0
M  V30 1910 H 173.849 -3.13156 -2.81978 0
M  V30 1911 H 172.524 -1.96089 -2.57548 0
M  V30 1912 H 171.431 -3.61713 -0.954714 0
M  V30 1913 H 172.764 -4.75396 -1.27513 0
M  V30 1914 N 174.416 0.165178 -1.56732 0
M  V30 1915 C 175.663 0.880807 -1.8234 0
M  V30 1916 C 175.991 1.81977 -0.686621 0
M  V30 1917 O 175.246 1.92971 0.325697 0
M  V30 1918 C 175.545 1.70405 -3.1416 0
M  V30 1919 C 175.211 0.913475 -4.4155 0
M  V30 1920 C 173.873 0.695303 -4.7615 0
M  V30 1921 C 176.225 0.359349 -5.1996 0
M  V30 1922 C 173.553 -0.0879947 -5.86634 0
M  V30 1923 C 175.905 -0.410893 -6.31264 0
M  V30 1924 C 174.569 -0.639808 -6.64427 0
M  V30 1925 H 173.839 0.32231 -0.667231 0
M  V30 1926 H 176.486 0.145402 -1.90947 0
M  V30 1927 H 174.791 2.50903 -3.00923 0
M  V30 1928 H 176.488 2.26091 -3.31186 0
M  V30 1929 H 173.078 1.09357 -4.14414 0
M  V30 1930 H 177.262 0.515228 -4.93618 0
M  V30 1931 H 172.518 -0.27503 -6.10781 0
M  V30 1932 H 176.692 -0.847494 -6.91224 0
M  V30 1933 H 174.319 -1.24864 -7.49875 0
M  V30 1934 N 175.894 1.51508 0.433938 0
M  V30 1935 C 177.124 1.67914 1.20369 0
M  V30 1936 C 177.532 0.377461 1.85397 0
M  V30 1937 O 176.875 -0.654255 1.71654 0
M  V30 1938 C 176.937 2.74045 2.32679 0
M  V30 1939 C 176.601 4.16543 1.87991 0
M  V30 1940 C 177.598 5.01211 1.38145 0
M  V30 1941 C 175.283 4.6266 1.95579 0
M  V30 1942 C 177.277 6.30056 0.964774 0
M  V30 1943 C 174.964 5.91501 1.53523 0
M  V30 1944 C 175.962 6.75027 1.04055 0
M  V30 1945 O 175.65 8.01459 0.625964 0
M  V30 1946 H 175.382 0.566578 0.368735 0
M  V30 1947 H 177.936 1.98709 0.51999 0
M  V30 1948 H 176.166 2.38572 3.04336 0
M  V30 1949 H 177.855 2.79295 2.94532 0
M  V30 1950 H 178.621 4.66783 1.31675 0
M  V30 1951 H 174.5 3.97767 2.33029 0
M  V30 1952 H 178.044 6.95202 0.57796 0
M  V30 1953 H 173.941 6.25442 1.59665 0
M  V30 1954 H 174.709 8.15043 0.751509 0
M  V30 1955 N 177.372 -0.689602 1.41712 0
M  V30 1956 C 178.618 -1.45181 1.41599 0
M  V30 1957 C 178.951 -1.94181 0.0270081 0
M  V30 1958 O 178.226 -1.6993 -0.946265 0
M  V30 1959 C 178.509 -2.65945 2.42787 0
M  V30 1960 C 178.362 -2.22672 3.90816 0
M  V30 1961 C 179.681 -3.68149 2.41151 0
M  V30 1962 H 176.8 -0.526576 0.515642 0
M  V30 1963 H 179.442 -0.784947 1.73028 0
M  V30 1964 H 177.592 -3.2284 2.16116 0
M  V30 1965 H 179.264 -1.71058 4.28412 0
M  V30 1966 H 177.507 -1.54394 4.05395 0
M  V30 1967 H 178.178 -3.0935 4.57172 0
M  V30 1968 H 180.654 -3.2094 2.64834 0
M  V30 1969 H 179.53 -4.50248 3.13955 0
M  V30 1970 H 179.791 -4.18259 1.43221 0
M  V30 1971 N 178.85 -1.27639 -0.924453 0
M  V30 1972 C 180.09 -1.15407 -1.68703 0
M  V30 1973 C 180.454 0.294581 -1.89727 0
M  V30 1974 O 181.655 0.539385 -2.63333 0
M  V30 1975 C 179.926 -1.9195 -3.0148 0
M  V30 1976 S 181.485 -1.95969 -3.92609 0
M  V30 1977 H 178.303 -0.411937 -0.579507 0
M  V30 1978 H 180.905 -1.61592 -1.10038 0
M  V30 1979 H 179.609 -2.96387 -2.83871 0
M  V30 1980 H 179.14 -1.46272 -3.65196 0
M  V30 1981 H 181.155 -1.05846 -4.84779 0
M  V30 1982 N 180.328 1.1314 -1.09713 0
M  V30 1983 C 181.577 1.83838 -0.829851 0
M  V30 1984 C 181.89 1.84599 0.646728 0
M  V30 1985 O 183.096 2.51218 1.02965 0
M  V30 1986 C 181.552 3.30069 -1.43466 0
M  V30 1987 C 181.16 3.37688 -2.94399 0
M  V30 1988 C 182.904 4.05788 -1.24645 0
M  V30 1989 C 180.811 4.78209 -3.47952 0
M  V30 1990 H 179.741 0.68877 -0.306777 0
M  V30 1991 H 182.392 1.27448 -1.3202 0
M  V30 1992 H 180.774 3.8628 -0.871996 0
M  V30 1993 H 181.948 2.91456 -3.56918 0
M  V30 1994 H 180.263 2.75436 -3.12289 0
M  V30 1995 H 182.86 5.09535 -1.62107 0
M  V30 1996 H 183.203 4.15878 -0.187357 0
M  V30 1997 H 183.736 3.55915 -1.77678 0
M  V30 1998 H 180.475 4.73311 -4.53495 0
M  V30 1999 H 179.995 5.24924 -2.90198 0
M  V30 2000 H 181.674 5.47133 -3.45332 0
M  V30 2001 N 181.806 0.884767 1.30421 0
M  V30 2002 C 183.036 0.517293 2.00019 0
M  V30 2003 C 183.444 -0.898632 1.66497 0
M  V30 2004 O 182.787 -1.60245 0.898181 0
M  V30 2005 C 182.849 0.612025 3.54252 0
M  V30 2006 C 182.513 1.99222 4.1129 0
M  V30 2007 C 183.51 2.9616 4.273 0
M  V30 2008 C 181.195 2.29755 4.46674 0
M  V30 2009 C 183.189 4.21764 4.77906 0
M  V30 2010 C 180.876 3.55606 4.96979 0
M  V30 2011 C 181.874 4.51425 5.12547 0
M  V30 2012 O 181.562 5.75043 5.61766 0
M  V30 2013 H 181.294 0.198529 0.64619 0
M  V30 2014 H 183.848 1.1919 1.67281 0
M  V30 2015 H 182.078 -0.119561 3.86515 0
M  V30 2016 H 183.767 0.255859 4.05093 0
M  V30 2017 H 184.533 2.73882 4.00267 0
M  V30 2018 H 180.412 1.55942 4.33824 0
M  V30 2019 H 183.956 4.96561 4.89972 0
M  V30 2020 H 179.853 3.7772 5.23448 0
M  V30 2021 H 180.621 5.77422 5.80109 0
M  V30 2022 N 183.284 -1.43765 0.645699 0
M  V30 2023 C 184.247 -2.29163 -0.0409488 0
M  V30 2024 C 185.247 -1.41813 -0.757996 0
M  V30 2025 O 186.437 -1.63527 -0.600382 0
M  V30 2026 C 183.569 -3.23716 -1.06869 0
M  V30 2027 H 184.762 -2.91366 0.710345 0
M  V30 2028 H 182.315 -1.5092 0.406547 0
M  V30 2029 H 183.05 -2.66393 -1.84947 0
M  V30 2030 H 182.835 -3.88105 -0.558277 0
M  V30 2031 H 184.325 -3.87831 -1.54845 0
M  V30 2032 N 184.763 -0.387143 -1.52771 0
M  V30 2033 C 185.991 0.195869 -2.05971 0
M  V30 2034 C 186.406 1.40691 -1.25903 0
M  V30 2035 O 185.763 1.79931 -0.305134 0
M  V30 2036 C 185.814 0.56812 -3.57008 0
M  V30 2037 O 185.535 -0.594803 -4.34043 0
M  V30 2038 C 187.036 1.20723 -4.26545 0
M  V30 2039 H 184.256 0.0300578 -0.670326 0
M  V30 2040 H 186.8 -0.551749 -1.96916 0
M  V30 2041 H 184.955 1.26564 -3.66143 0
M  V30 2042 H 185.369 -0.289322 -5.23701 0
M  V30 2043 H 186.843 1.41807 -5.33474 0
M  V30 2044 H 187.32 2.17395 -3.81623 0
M  V30 2045 H 187.926 0.550535 -4.21722 0
M  V30 2046 N 186.241 1.57166 -0.116904 0
M  V30 2047 C 187.657 1.5779 0.239693 0
M  V30 2048 C 187.857 1.1295 1.66867 0
M  V30 2049 O 186.913 0.81592 2.38954 0
M  V30 2050 C 188.226 3.00699 0.00828202 0
M  V30 2051 C 189.774 3.12912 0.0743438 0
M  V30 2052 C 190.249 4.57817 -0.129348 0
M  V30 2053 N 191.74 4.63139 -0.075247 0
M  V30 2054 C 192.475 5.73023 -0.207788 0
M  V30 2055 N 191.971 6.91665 -0.396382 0
M  V30 2056 N 193.764 5.61906 -0.14751 0
M  V30 2057 H 185.915 1.84615 -1.05029 0
M  V30 2058 H 188.178 0.85311 -0.41341 0
M  V30 2059 H 187.884 3.37784 -0.979531 0
M  V30 2060 H 187.758 3.69848 0.741077 0
M  V30 2061 H 190.145 2.75686 1.05268 0
M  V30 2062 H 190.226 2.4631 -0.690297 0
M  V30 2063 H 189.87 4.95742 -1.10465 0
M  V30 2064 H 189.8 5.22507 0.655253 0
M  V30 2065 H 192.291 3.7784 0.0670898 0
M  V30 2066 H 192.604 7.71255 -0.488437 0
M  V30 2067 H 190.949 6.93654 -0.432329 0
M  V30 2068 H 194.14 4.681 -0.00115036 0
M  V30 2069 H 194.313 6.47501 -0.254247 0
M  V30 2070 N 187.719 -0.156864 1.56817 0
M  V30 2071 C 188.629 -1.2136 2.00771 0
M  V30 2072 C 189.645 -1.47598 0.921459 0
M  V30 2073 O 190.821 -1.59462 1.2302 0
M  V30 2074 C 187.886 -2.52943 2.37109 0
M  V30 2075 C 186.947 -2.34439 3.59634 0
M  V30 2076 C 186.18 -3.59748 3.94229 0
M  V30 2077 O 186.403 -4.65526 3.29609 0
M  V30 2078 O 185.337 -3.52998 4.8752 0
M  V30 2079 H 189.163 -0.870468 2.90958 0
M  V30 2080 H 186.748 -0.36484 1.44877 0
M  V30 2081 H 188.63 -3.30538 2.61386 0
M  V30 2082 H 187.305 -2.86806 1.5008 0
M  V30 2083 H 186.212 -1.54828 3.40557 0
M  V30 2084 H 187.545 -2.05496 4.4725 0
M  V30 2085 N 189.197 -1.51736 -0.425897 0
M  V30 2086 C 190.445 -1.64644 -1.17204 0
M  V30 2087 C 190.766 -0.370486 -1.91448 0
M  V30 2088 O 190.036 0.614088 -1.86026 0
M  V30 2089 H 188.616 -0.606819 -0.435638 0
M  V30 2090 H 191.278 -1.88713 -0.487177 0
M  V30 2091 H 190.374 -2.47958 -1.89534 0
M  V30 2092 N 190.675 0.682077 -1.42076 0
M  V30 2093 C 191.952 1.43755 -1.32642 0
M  V30 2094 C 192.332 2.11063 0.0396611 0
M  V30 2095 O 191.68 2.02701 1.05474 0
M  V30 2096 C 191.89 2.44596 -2.48946 0
M  V30 2097 C 193.238 3.09454 -2.9073 0
M  V30 2098 O 194.262 2.54922 -2.48783 0
M  V30 2099 O 193.121 4.08253 -3.63307 0
M  V30 2100 H 190.215 0.640857 -0.522715 0
M  V30 2101 H 192.761 0.711415 -1.54068 0
M  V30 2102 H 191.533 1.93609 -3.40046 0
M  V30 2103 H 191.156 3.24701 -2.29467 0
M  V30 2104 N 192.153 1.28127 0.917671 0
M  V30 2105 C 193.383 1.17722 1.6978 0
M  V30 2106 C 193.791 -0.267261 1.87303 0
M  V30 2107 O 193.134 -1.19286 1.39702 0
M  V30 2108 C 193.196 1.79958 3.11216 0
M  V30 2109 C 192.86 3.29187 3.16993 0
M  V30 2110 C 193.857 4.25679 2.98485 0
M  V30 2111 C 191.542 3.70075 3.39632 0
M  V30 2112 C 193.536 5.61035 3.02521 0
M  V30 2113 C 191.223 5.05557 3.433 0
M  V30 2114 C 192.221 6.00847 3.24764 0
M  V30 2115 O 191.909 7.33859 3.28187 0
M  V30 2116 H 191.641 0.409788 0.537634 0
M  V30 2117 H 194.195 1.69694 1.15728 0
M  V30 2118 H 192.425 1.22475 3.66793 0
M  V30 2119 H 194.114 1.64125 3.71238 0
M  V30 2120 H 194.88 3.95426 2.80826 0
M  V30 2121 H 190.759 2.96373 3.53106 0
M  V30 2122 H 194.303 6.35388 2.87971 0
M  V30 2123 H 190.2 5.35462 3.60486 0
M  V30 2124 H 190.968 7.42436 3.44575 0
M  V30 2125 N 193.631 -1.12557 1.10312 0
M  V30 2126 C 194.877 -1.84311 0.846011 0
M  V30 2127 C 195.21 -1.83805 -0.626859 0
M  V30 2128 O 194.485 -1.28268 -1.46211 0
M  V30 2129 C 194.768 -3.32048 1.39341 0
M  V30 2130 C 194.621 -3.41016 2.93305 0
M  V30 2131 C 195.94 -4.27764 1.03468 0
M  V30 2132 H 193.059 -0.669192 0.30879 0
M  V30 2133 H 195.701 -1.32057 1.36605 0
M  V30 2134 H 193.851 -3.76678 0.951087 0
M  V30 2135 H 195.523 -3.05031 3.46055 0
M  V30 2136 H 193.766 -2.81603 3.29973 0
M  V30 2137 H 194.437 -4.44948 3.26689 0
M  V30 2138 H 196.913 -3.91253 1.41633 0
M  V30 2139 H 195.789 -5.29549 1.44463 0
M  V30 2140 H 196.05 -4.42064 -0.0560404 0
M  V30 2141 N 195.109 -0.891671 -1.2995 0
M  V30 2142 C 196.039 -0.379797 -2.30391 0
M  V30 2143 C 197.02 0.540919 -1.6127 0
M  V30 2144 O 198.205 0.453352 -1.88834 0
M  V30 2145 C 195.335 0.400654 -3.44981 0
M  V30 2146 C 194.289 -0.428905 -4.25846 0
M  V30 2147 C 193.615 0.478557 -5.32554 0
M  V30 2148 C 194.915 -1.67458 -4.94727 0
M  V30 2149 H 196.609 -1.21914 -2.73454 0
M  V30 2150 H 194.155 -0.587675 -1.31462 0
M  V30 2151 H 196.108 0.769434 -4.14316 0
M  V30 2152 H 194.832 1.27371 -3.0074 0
M  V30 2153 H 193.491 -0.779911 -3.58208 0
M  V30 2154 H 193.139 1.34951 -4.84559 0
M  V30 2155 H 192.839 -0.0727433 -5.87555 0
M  V30 2156 H 194.363 0.843705 -6.04743 0
M  V30 2157 H 195.777 -1.376 -5.56542 0
M  V30 2158 H 194.174 -2.16659 -5.59624 0
M  V30 2159 H 195.244 -2.41518 -4.20473 0
M  V30 2160 N 196.587 1.43421 -0.653314 0
M  V30 2161 C 197.834 2.01812 -0.166745 0
M  V30 2162 C 198.162 1.51535 1.21931 0
M  V30 2163 O 197.417 0.698975 1.82792 0
M  V30 2164 C 197.716 3.57176 -0.126623 0
M  V30 2165 C 197.382 4.26798 -1.45444 0
M  V30 2166 C 196.044 4.45534 -1.81805 0
M  V30 2167 C 198.396 4.66225 -2.32989 0
M  V30 2168 C 195.724 5.00961 -3.05377 0
M  V30 2169 C 198.076 5.23021 -3.55853 0
M  V30 2170 C 196.74 5.39973 -3.9241 0
M  V30 2171 H 196.01 0.738484 -0.0610162 0
M  V30 2172 H 198.657 1.71896 -0.84404 0
M  V30 2173 H 196.962 3.86634 0.634123 0
M  V30 2174 H 198.659 4.00112 0.266723 0
M  V30 2175 H 195.249 4.12561 -1.16153 0
M  V30 2176 H 199.433 4.51443 -2.06187 0
M  V30 2177 H 194.689 5.12271 -3.3375 0
M  V30 2178 H 198.863 5.52518 -4.23907 0
M  V30 2179 H 196.49 5.82687 -4.88242 0
M  V30 2180 N 198.065 0.39524 1.52563 0
M  V30 2181 C 199.015 -0.4541 2.23432 0
M  V30 2182 C 199.999 -1.02482 1.24042 0
M  V30 2183 O 201.191 -0.949938 1.49349 0
M  V30 2184 C 198.32 -1.57769 3.049 0
M  V30 2185 C 197.406 -1.01842 4.1169 0
M  V30 2186 N 197.797 -0.184613 5.05463 0
M  V30 2187 C 196.095 -1.29033 4.26927 0
M  V30 2188 C 196.796 0.125013 5.81566 0
M  V30 2189 N 195.772 -0.480498 5.41472 0
M  V30 2190 H 199.574 0.189413 2.93289 0
M  V30 2191 H 197.088 0.204877 1.61102 0
M  V30 2192 H 199.085 -2.19862 3.54212 0
M  V30 2193 H 197.745 -2.22397 2.36579 0
M  V30 2194 H 198.756 0.178602 5.17592 0
M  V30 2195 H 195.433 -1.93721 3.69836 0
M  V30 2196 H 196.823 0.800962 6.67109 0
M  V30 2197 N 199.544 -1.57102 0.125237 0
M  V30 2198 C 200.494 -2.12202 -0.833936 0
M  V30 2199 C 201.478 -1.04433 -1.22403 0
M  V30 2200 O 202.67 -1.30655 -1.19408 0
M  V30 2201 C 199.799 -2.72994 -2.08157 0
M  V30 2202 C 198.885 -3.87852 -1.71556 0
M  V30 2203 N 199.276 -4.9464 -1.05662 0
M  V30 2204 C 197.574 -3.98153 -2.00973 0
M  V30 2205 C 198.275 -5.74953 -0.883376 0
M  V30 2206 N 197.251 -5.24985 -1.41036 0
M  V30 2207 H 201.053 -2.92141 -0.321035 0
M  V30 2208 H 198.567 -1.62217 -0.0770315 0
M  V30 2209 H 200.564 -3.10816 -2.77847 0
M  V30 2210 H 199.224 -1.9452 -2.59985 0
M  V30 2211 H 200.235 -5.12872 -0.719878 0
M  V30 2212 H 196.912 -3.30728 -2.54804 0
M  V30 2213 H 198.302 -6.70904 -0.365675 0
M  V30 2214 N 201.022 0.148545 -1.56898 0
M  V30 2215 C 201.932 1.20293 -2.01412 0
M  V30 2216 C 202.948 1.47107 -0.929273 0
M  V30 2217 O 204.124 1.58807 -1.23863 0
M  V30 2218 C 201.189 2.51682 -2.38447 0
M  V30 2219 C 200.25 2.32529 -3.60872 0
M  V30 2220 C 199.483 3.57653 -3.96132 0
M  V30 2221 O 199.706 4.63771 -3.32073 0
M  V30 2222 O 198.64 3.50408 -4.89385 0
M  V30 2223 H 202.466 0.855025 -2.91416 0
M  V30 2224 H 200.051 0.357151 -1.45068 0
M  V30 2225 H 201.933 3.29147 -2.63135 0
M  V30 2226 H 200.608 2.86006 -1.51599 0
M  V30 2227 H 199.515 1.53019 -3.41373 0
M  V30 2228 H 200.848 2.03121 -4.48333 0
M  V30 2229 N 202.5 1.5196 0.417844 0
M  V30 2230 C 203.748 1.65263 1.16329 0
M  V30 2231 C 204.069 0.380634 1.91249 0
M  V30 2232 O 203.339 -0.604214 1.86349 0
M  V30 2233 H 201.919 0.60912 0.432414 0
M  V30 2234 H 204.581 1.88969 0.477162 0
M  V30 2235 H 203.677 2.4896 1.88217 0
M  V30 2236 N 203.978 -0.674533 1.42435 0
M  V30 2237 C 205.226 -1.43175 1.42637 0
M  V30 2238 C 205.547 -1.94951 0.0438992 0
M  V30 2239 O 204.817 -1.7308 -0.917607 0
M  V30 2240 H 203.397 -0.531307 0.525092 0
M  V30 2241 H 206.059 -0.797006 1.77859 0
M  V30 2242 H 205.155 -2.28463 2.12629 0
M  V30 2243 N 205.456 -1.28612 -0.910864 0
M  V30 2244 C 206.702 -1.16106 -1.66274 0
M  V30 2245 C 207.035 0.289113 -1.92036 0
M  V30 2246 O 206.31 1.21 -1.52281 0
M  V30 2247 C 206.593 -1.96309 -3.01885 0
M  V30 2248 C 206.446 -3.49405 -2.8326 0
M  V30 2249 C 207.765 -1.78076 -4.02463 0
M  V30 2250 H 204.884 -0.423152 -0.603417 0
M  V30 2251 H 207.526 -1.57961 -1.05586 0
M  V30 2252 H 205.676 -1.60742 -3.53687 0
M  V30 2253 H 207.348 -3.94894 -2.38446 0
M  V30 2254 H 205.591 -3.74893 -2.18261 0
M  V30 2255 H 206.262 -4.00784 -3.79574 0
M  V30 2256 H 208.738 -2.0912 -3.59733 0
M  V30 2257 H 207.614 -2.36561 -4.95308 0
M  V30 2258 H 207.875 -0.733008 -4.35981 0
M  V30 2259 N 206.934 1.1197 -1.10907 0
M  V30 2260 C 208.211 1.79959 -0.766432 0
M  V30 2261 C 208.591 1.97466 0.746363 0
M  V30 2262 O 207.939 1.55491 1.67436 0
M  V30 2263 C 208.149 3.14009 -1.52314 0
M  V30 2264 C 209.497 3.89134 -1.69883 0
M  V30 2265 O 210.521 3.2368 -1.48692 0
M  V30 2266 O 209.38 5.06572 -2.05054 0
M  V30 2267 H 206.474 0.779208 -0.277062 0
M  V30 2268 H 209.02 1.18762 -1.21217 0
M  V30 2269 H 207.792 2.96587 -2.55249 0
M  V30 2270 H 207.415 3.82915 -1.07059 0
M  V30 2271 N 208.412 0.89855 1.29475 0
M  V30 2272 C 209.658 0.524658 1.95896 0
M  V30 2273 C 209.991 -0.926468 1.70676 0
M  V30 2274 O 209.266 -1.65665 1.01908 0
M  V30 2275 C 209.549 0.81633 3.50725 0
M  V30 2276 C 209.402 2.31907 3.85408 0
M  V30 2277 C 210.721 0.302038 4.39062 0
M  V30 2278 H 207.84 0.19209 0.711527 0
M  V30 2279 H 210.482 1.12502 1.53112 0
M  V30 2280 H 208.632 0.305369 3.87298 0
M  V30 2281 H 210.304 2.89949 3.58786 0
M  V30 2282 H 208.547 2.78027 3.32992 0
M  V30 2283 H 209.218 2.47373 4.93468 0
M  V30 2284 H 211.694 0.739551 4.09475 0
M  V30 2285 H 210.57 0.535331 5.46283 0
M  V30 2286 H 210.831 -0.797216 4.34853 0
M  V30 2287 N 209.89 -1.43072 0.660911 0
M  V30 2288 C 211.138 -2.01323 0.177094 0
M  V30 2289 C 211.459 -1.5245 -1.2159 0
M  V30 2290 O 210.729 -0.740322 -1.81373 0
M  V30 2291 H 209.309 -0.744382 0.0624804 0
M  V30 2292 H 211.971 -1.75179 0.854305 0
M  V30 2293 H 211.067 -3.11649 0.167641 0
M  V30 2294 N 211.368 -0.403325 -1.52352 0
M  V30 2295 C 212.645 0.232611 -1.94212 0
M  V30 2296 C 213.025 1.63133 -1.33981 0
M  V30 2297 O 212.373 2.22659 -0.513344 0
M  V30 2298 C 212.583 0.244811 -3.4814 0
M  V30 2299 C 213.931 0.46698 -4.22024 0
M  V30 2300 O 214.955 0.324419 -3.5472 0
M  V30 2301 O 213.814 0.74747 -5.41364 0
M  V30 2302 H 210.908 0.148223 -0.813609 0
M  V30 2303 H 213.454 -0.458848 -1.63379 0
M  V30 2304 H 212.226 -0.734378 -3.84347 0
M  V30 2305 H 211.849 0.980611 -3.85318 0
M  V30 2306 N 212.846 1.57033 -0.133567 0
M  V30 2307 C 214.092 1.95976 0.521649 0
M  V30 2308 C 214.425 1.01779 1.65393 0
M  V30 2309 O 213.7 0.0576581 1.94415 0
M  V30 2310 C 213.983 3.44738 1.04057 0
M  V30 2311 C 213.836 4.49711 -0.0892897 0
M  V30 2312 C 215.155 3.95682 1.92675 0
M  V30 2313 H 212.274 0.712579 0.188149 0
M  V30 2314 H 214.916 1.88813 -0.212076 0
M  V30 2315 H 213.066 3.50973 1.66583 0
M  V30 2316 H 214.738 4.55565 -0.725152 0
M  V30 2317 H 212.981 4.27261 -0.750378 0
M  V30 2318 H 213.652 5.51099 0.315284 0
M  V30 2319 H 216.128 3.91841 1.39998 0
M  V30 2320 H 215.004 5.00262 2.25897 0
M  V30 2321 H 215.265 3.37239 2.85872 0
M  V30 2322 N 214.325 -0.140222 1.56975 0
M  V30 2323 C 215.602 -0.880769 1.74648 0
M  V30 2324 C 215.982 -1.99036 0.703404 0
M  V30 2325 O 215.33 -2.26821 -0.27648 0
M  V30 2326 C 215.54 -1.417 3.18939 0
M  V30 2327 C 216.888 -1.87774 3.80823 0
M  V30 2328 O 217.912 -1.51427 3.2241 0
M  V30 2329 O 216.771 -2.54827 4.83452 0
M  V30 2330 H 213.865 -0.416713 0.714338 0
M  V30 2331 H 216.411 -0.125618 1.69234 0
M  V30 2332 H 215.183 -0.619902 3.86359 0
M  V30 2333 H 214.806 -2.23546 3.28805 0
M  V30 2334 N 215.803 -1.52179 -0.40978 0
M  V30 2335 C 216.766 -1.74853 -1.48186 0
M  V30 2336 C 217.766 -0.618417 -1.48433 0
M  V30 2337 O 218.956 -0.886286 -1.49969 0
M  V30 2338 C 216.088 -1.8303 -2.87598 0
M  V30 2339 H 217.281 -2.70559 -1.29374 0
M  V30 2340 H 214.834 -1.42586 -0.640233 0
M  V30 2341 H 215.569 -0.89236 -3.11781 0
M  V30 2342 H 215.354 -2.65187 -2.88822 0
M  V30 2343 H 216.844 -2.02316 -3.65319 0
M  V30 2344 N 217.281 0.66697 -1.42791 0
M  V30 2345 C 218.228 1.7803 -1.4688 0
M  V30 2346 C 219.198 1.6299 -0.319919 0
M  V30 2347 O 220.383 1.83432 -0.525118 0
M  V30 2348 C 217.523 3.1611 -1.38451 0
M  V30 2349 C 216.636 3.42381 -2.63437 0
M  V30 2350 C 215.771 4.70232 -2.47094 0
M  V30 2351 C 214.81 4.89564 -3.67415 0
M  V30 2352 N 213.947 6.08661 -3.49966 0
M  V30 2353 H 218.787 1.7387 -2.42019 0
M  V30 2354 H 216.324 0.84868 -1.20149 0
M  V30 2355 H 218.282 3.95914 -1.31561 0
M  V30 2356 H 216.912 3.19374 -0.469033 0
M  V30 2357 H 215.964 2.56774 -2.80662 0
M  V30 2358 H 217.276 3.52557 -3.52853 0
M  V30 2359 H 216.43 5.5814 -2.37834 0
M  V30 2360 H 215.169 4.62353 -1.5518 0
M  V30 2361 H 214.174 4.00096 -3.77099 0
M  V30 2362 H 215.399 4.99282 -4.6032 0
M  V30 2363 H 213.345 6.0194 -2.60776 0
M  V30 2364 H 213.262 6.19733 -4.32975 0
M  V30 2365 H 214.53 6.99226 -3.44532 0
M  V30 2366 N 218.759 1.29093 0.90403 0
M  V30 2367 C 219.722 1.1386 1.98919 0
M  V30 2368 C 220.722 0.0753457 1.60623 0
M  V30 2369 O 221.912 0.321931 1.71199 0
M  V30 2370 C 219.044 0.740198 3.32767 0
M  V30 2371 H 220.237 2.10246 2.13861 0
M  V30 2372 H 217.79 1.12218 1.08797 0
M  V30 2373 H 218.525 -0.223997 3.23525 0
M  V30 2374 H 218.31 1.50838 3.61926 0
M  V30 2375 H 219.8 0.656546 4.12407 0
M  V30 2376 N 220.237 -1.11381 1.11499 0
M  V30 2377 C 221.169 -2.17207 0.731704 0
M  V30 2378 C 222.182 -1.61066 -0.236957 0
M  V30 2379 O 223.371 -1.78489 -0.0197591 0
M  V30 2380 C 220.471 -3.38846 0.0607624 0
M  V30 2381 C 219.644 -4.24451 1.0564 0
M  V30 2382 C 218.703 -5.24562 0.4149 0
M  V30 2383 O 217.729 -5.59071 1.069 0
M  V30 2384 N 218.931 -5.74651 -0.821943 0
M  V30 2385 H 221.696 -2.50699 1.64225 0
M  V30 2386 H 219.257 -1.26908 1.00529 0
M  V30 2387 H 221.249 -4.02911 -0.380139 0
M  V30 2388 H 219.819 -3.03411 -0.752376 0
M  V30 2389 H 219.039 -3.56833 1.67524 0
M  V30 2390 H 220.327 -4.78486 1.72998 0
M  V30 2391 H 219.725 -5.48797 -1.37252 0
M  V30 2392 H 218.282 -6.40549 -1.20582 0
M  V30 2393 N 221.715 -0.905404 -1.28997 0
M  V30 2394 C 222.662 -0.385892 -2.27551 0
M  V30 2395 C 223.632 0.535113 -1.57244 0
M  V30 2396 O 224.817 0.459119 -1.85194 0
M  V30 2397 C 221.957 0.375461 -3.43051 0
M  V30 2398 C 221.07 -0.577092 -4.28128 0
M  V30 2399 C 220.205 0.201879 -5.30816 0
M  V30 2400 C 219.244 -0.744829 -6.07551 0
M  V30 2401 N 218.381 9.42587e-05 -7.021 0
M  V30 2402 H 223.221 -1.23139 -2.71368 0
M  V30 2403 H 220.758 -0.618542 -1.33463 0
M  V30 2404 H 222.716 0.832992 -4.088 0
M  V30 2405 H 221.346 1.18537 -3.00248 0
M  V30 2406 H 220.398 -1.15315 -3.62501 0
M  V30 2407 H 221.71 -1.30152 -4.8152 0
M  V30 2408 H 220.864 0.720351 -6.02408 0
M  V30 2409 H 219.603 0.959413 -4.7817 0
M  V30 2410 H 218.608 -1.27475 -5.34818 0
M  V30 2411 H 219.833 -1.50178 -6.62286 0
M  V30 2412 H 217.779 0.739791 -6.51815 0
M  V30 2413 H 217.696 -0.664321 -7.53076 0
M  V30 2414 H 218.964 0.498644 -7.77903 0
M  V30 2415 N 223.193 1.4272 -0.668489 0
M  V30 2416 C 224.123 2.335 -0.000100175 0
M  V30 2417 C 225.104 1.50328 0.795964 0
M  V30 2418 O 226.289 1.78949 0.754385 0
M  V30 2419 C 223.419 3.33874 0.956302 0
M  V30 2420 C 222.373 4.27152 0.269278 0
M  V30 2421 C 221.699 5.17684 1.33818 0
M  V30 2422 C 222.999 5.15373 -0.847805 0
M  V30 2423 H 224.693 2.89639 -0.758244 0
M  V30 2424 H 222.239 1.39269 -0.366079 0
M  V30 2425 H 224.192 3.9629 1.43292 0
M  V30 2426 H 222.916 2.76025 1.74579 0
M  V30 2427 H 221.575 3.66123 -0.187042 0
M  V30 2428 H 221.223 4.56165 2.1195 0
M  V30 2429 H 220.923 5.80918 0.883659 0
M  V30 2430 H 222.447 5.82974 1.81586 0
M  V30 2431 H 223.861 5.7151 -0.452681 0
M  V30 2432 H 222.258 5.87407 -1.22773 0
M  V30 2433 H 223.328 4.5415 -1.69929 0
M  V30 2434 N 224.671 0.411399 1.52136 0
M  V30 2435 C 225.601 -0.404015 2.29978 0
M  V30 2436 C 226.582 -1.04412 1.34284 0
M  V30 2437 O 227.767 -1.0527 1.63192 0
M  V30 2438 C 224.897 -1.5197 3.12286 0
M  V30 2439 C 223.851 -1.00448 4.16046 0
M  V30 2440 C 223.177 -2.21393 4.86712 0
M  V30 2441 C 224.477 -0.0569336 5.22269 0
M  V30 2442 H 226.171 0.245529 2.98392 0
M  V30 2443 H 223.717 0.119525 1.43503 0
M  V30 2444 H 225.67 -2.09715 3.6551 0
M  V30 2445 H 224.394 -2.19716 2.41646 0
M  V30 2446 H 223.053 -0.449421 3.63835 0
M  V30 2447 H 222.701 -2.87699 4.12599 0
M  V30 2448 H 222.401 -1.87571 5.56858 0
M  V30 2449 H 223.925 -2.7974 5.4275 0
M  V30 2450 H 225.339 -0.54325 5.7072 0
M  V30 2451 H 223.736 0.192594 5.99791 0
M  V30 2452 H 224.806 0.887663 4.76706 0
M  V30 2453 N 226.149 -1.5696 0.141893 0
M  V30 2454 C 227.395 -1.9625 -0.511248 0
M  V30 2455 C 227.728 -1.02654 -1.64851 0
M  V30 2456 O 227.003 -0.0679676 -1.94381 0
M  V30 2457 C 227.286 -3.45285 -1.02227 0
M  V30 2458 C 227.139 -4.49658 0.113138 0
M  V30 2459 C 228.458 -3.96698 -1.90574 0
M  V30 2460 H 225.577 -0.713567 -0.184367 0
M  V30 2461 H 228.219 -1.88698 0.222087 0
M  V30 2462 H 226.369 -3.51852 -1.64719 0
M  V30 2463 H 228.041 -4.55174 0.749302 0
M  V30 2464 H 226.284 -4.26857 0.773026 0
M  V30 2465 H 226.955 -5.51258 -0.286053 0
M  V30 2466 H 229.431 -3.92578 -1.37918 0
M  V30 2467 H 228.307 -5.01453 -2.2324 0
M  V30 2468 H 228.568 -3.3875 -2.84079 0
M  V30 2469 N 227.627 0.131896 -1.57047 0
M  V30 2470 C 228.875 0.840269 -1.83804 0
M  V30 2471 C 229.196 1.81017 -0.72512 0
M  V30 2472 O 228.466 1.94272 0.251995 0
M  V30 2473 H 227.046 0.313294 -0.678127 0
M  V30 2474 H 229.708 0.122294 -1.94516 0
M  V30 2475 H 228.804 1.39335 -2.79271 0
M  V30 2476 N 229.106 1.52395 0.401703 0
M  V30 2477 C 230.352 1.67065 1.14966 0
M  V30 2478 C 230.685 0.403052 1.89971 0
M  V30 2479 O 229.96 -0.598774 1.85054 0
M  V30 2480 C 230.243 2.8975 2.13815 0
M  V30 2481 C 230.096 4.26578 1.42658 0
M  V30 2482 C 231.415 3.07965 3.14397 0
M  V30 2483 H 228.534 0.607968 0.416587 0
M  V30 2484 H 231.176 1.84965 0.434511 0
M  V30 2485 H 229.326 2.74619 2.74803 0
M  V30 2486 H 230.998 4.53451 0.847329 0
M  V30 2487 H 229.241 4.27639 0.72849 0
M  V30 2488 H 229.912 5.08483 2.14823 0
M  V30 2489 H 232.388 3.22043 2.63491 0
M  V30 2490 H 231.264 3.95308 3.80819 0
M  V30 2491 H 231.525 2.21611 3.82545 0
M  V30 2492 N 230.584 -0.659388 1.43143 0
M  V30 2493 C 231.861 -1.41627 1.34912 0
M  V30 2494 C 232.241 -2.11099 -0.00607785 0
M  V30 2495 O 231.589 -2.04353 -1.02236 0
M  V30 2496 C 231.799 -2.40604 2.52805 0
M  V30 2497 C 233.147 -3.04789 2.95616 0
M  V30 2498 O 234.171 -2.50932 2.52807 0
M  V30 2499 O 233.03 -4.02421 3.69756 0
M  V30 2500 H 230.124 -0.63246 0.532844 0
M  V30 2501 H 232.67 -0.686814 1.5518 0
M  V30 2502 H 231.442 -1.88174 3.43083 0
M  V30 2503 H 231.065 -3.21009 2.34604 0
M  V30 2504 N 232.062 -1.29571 -0.897171 0
M  V30 2505 C 232.972 -1.16808 -2.03453 0
M  V30 2506 C 233.988 -0.0907471 -1.73763 0
M  V30 2507 O 235.164 -0.303312 -1.99103 0
M  V30 2508 C 232.229 -0.848264 -3.36163 0
M  V30 2509 C 231.29 -2.0097 -3.79354 0
M  V30 2510 C 230.523 -1.70505 -5.05731 0
M  V30 2511 O 230.746 -0.62718 -5.66941 0
M  V30 2512 O 229.68 -2.5538 -5.45036 0
M  V30 2513 H 233.506 -2.12325 -2.17144 0
M  V30 2514 H 231.091 -1.09047 -1.02123 0
M  V30 2515 H 232.973 -0.684581 -4.15802 0
M  V30 2516 H 231.648 0.0771071 -3.23608 0
M  V30 2517 H 230.555 -2.22863 -3.00471 0
M  V30 2518 H 231.888 -2.91636 -3.96496 0
M  V30 2519 N 233.54 1.10788 -1.12088 0
M  V30 2520 C 234.487 2.17025 -0.785407 0
M  V30 2521 C 235.457 1.64265 0.246191 0
M  V30 2522 O 236.642 1.90412 0.121584 0
M  V30 2523 C 233.782 3.44249 -0.242177 0
M  V30 2524 C 232.895 4.1098 -1.33115 0
M  V30 2525 C 232.03 5.25911 -0.747741 0
M  V30 2526 C 231.069 5.84538 -1.81609 0
M  V30 2527 N 230.206 6.90853 -1.25167 0
M  V30 2528 H 235.046 2.45066 -1.69548 0
M  V30 2529 H 232.583 1.20297 -0.846582 0
M  V30 2530 H 234.541 4.17101 0.0908026 0
M  V30 2531 H 233.171 3.16571 0.631072 0
M  V30 2532 H 232.223 3.36133 -1.78097 0
M  V30 2533 H 233.535 4.50601 -2.13917 0
M  V30 2534 H 232.689 6.056 -0.365216 0
M  V30 2535 H 231.428 4.87614 0.0915188 0
M  V30 2536 H 230.433 5.03522 -2.20785 0
M  V30 2537 H 231.658 6.249 -2.6585 0
M  V30 2538 H 229.604 6.54562 -0.434174 0
M  V30 2539 H 229.521 7.29166 -1.99633 0
M  V30 2540 H 230.789 7.7433 -0.896259 0
M  V30 2541 N 235.018 0.912232 1.28515 0
M  V30 2542 C 235.948 0.416403 2.29757 0
M  V30 2543 C 236.929 -0.515194 1.6211 0
M  V30 2544 O 238.114 -0.423253 1.89532 0
M  V30 2545 C 235.244 -0.34572 3.45575 0
M  V30 2546 C 234.198 0.496599 4.25109 0
M  V30 2547 C 233.524 -0.393771 5.33248 0
M  V30 2548 C 234.824 1.75307 4.92001 0
M  V30 2549 H 236.518 1.26249 2.7148 0
M  V30 2550 H 234.064 0.608515 1.30511 0
M  V30 2551 H 236.017 -0.703422 4.15488 0
M  V30 2552 H 234.741 -1.2257 3.02728 0
M  V30 2553 H 233.4 0.8368 3.56922 0
M  V30 2554 H 233.048 -1.27225 4.86644 0
M  V30 2555 H 232.748 0.166209 5.87365 0
M  V30 2556 H 234.272 -0.747389 6.06009 0
M  V30 2557 H 235.686 1.46437 5.54283 0
M  V30 2558 H 234.083 2.25534 5.56106 0
M  V30 2559 H 235.153 2.48176 4.16577 0
M  V30 2560 N 236.496 -1.42363 0.676048 0
M  V30 2561 C 237.444 -2.32596 -0.0131507 0
M  V30 2562 C 238.438 -1.49891 -0.789238 0
M  V30 2563 O 239.644 -1.65955 -0.697061 0
M  V30 2564 H 236.019 -0.751647 -0.0230481 0
M  V30 2565 H 237.99 -2.88421 0.765243 0
M  V30 2566 C 236.739 -3.34479 -0.949702 0
M  V30 2567 H 236.062 -3.98158 -0.361938 0
M  V30 2568 H 237.502 -4.00199 -1.4006 0
M  V30 2569 C 235.961 -2.66838 -2.05667 0
M  V30 2570 O 236.491 -2.50124 -3.14326 0
M  V30 2571 N 234.697 -2.25843 -1.82875 0
M  V30 2572 H 234.244 -2.39637 -0.945085 0
M  V30 2573 H 234.202 -1.80918 -2.5713 0
M  V30 2574 N 237.974 -0.419461 -1.51915 0
M  V30 2575 C 239.385 0.0477853 -1.86639 0
M  V30 2576 C 239.736 1.43531 -1.33766 0
M  V30 2577 O 238.861 2.05401 -0.68113 0
M  V30 2578 C 239.456 0.0934885 -3.38671 0
M  V30 2579 C 238.015 0.505097 -3.72996 0
M  V30 2580 C 237.162 -0.313792 -2.75519 0
M  V30 2581 H 240.113 -0.636088 -1.45395 0
M  V30 2582 H 240.134 0.906667 -3.6954 0
M  V30 2583 H 239.646 -0.916501 -3.77123 0
M  V30 2584 H 237.747 1.52135 -3.40126 0
M  V30 2585 H 237.86 0.242309 -4.78487 0
M  V30 2586 H 236.224 0.225363 -2.53701 0
M  V30 2587 H 237.007 -1.32232 -3.16812 0
M  V30 2588 N 239.452 1.56882 -0.150215 0
M  V30 2589 C 240.362 2.20494 0.801222 0
M  V30 2590 C 241.378 1.19019 1.26927 0
M  V30 2591 O 242.554 1.51607 1.32579 0
M  V30 2592 C 239.619 2.81659 2.02161 0
M  V30 2593 C 238.68 3.9827 1.60249 0
M  V30 2594 C 237.913 4.56508 2.7647 0
M  V30 2595 O 238.136 4.13627 3.92771 0
M  V30 2596 O 237.07 5.46719 2.51757 0
M  V30 2597 H 240.896 3.02315 0.289717 0
M  V30 2598 H 238.481 1.49202 0.0769684 0
M  V30 2599 H 240.363 3.20522 2.73576 0
M  V30 2600 H 239.038 2.02849 2.52258 0
M  V30 2601 H 237.945 3.64117 0.858477 0
M  V30 2602 H 239.278 4.78609 1.14864 0
M  V30 2603 N 240.93 -0.123565 1.57115 0
M  V30 2604 C 242.207 -0.862196 1.75572 0
M  V30 2605 C 242.587 -1.98279 0.724475 0
M  V30 2606 O 241.935 -2.27102 -0.252407 0
M  V30 2607 C 242.145 -1.38309 3.20424 0
M  V30 2608 C 243.493 -1.83724 3.82793 0
M  V30 2609 O 244.517 -1.47999 3.23998 0
M  V30 2610 O 243.376 -2.49685 4.86127 0
M  V30 2611 H 240.47 -0.409113 0.718718 0
M  V30 2612 H 243.016 -0.107661 1.69358 0
M  V30 2613 H 241.788 -0.578889 3.86994 0
M  V30 2614 H 241.411 -2.20046 3.31158 0
M  V30 2615 N 242.408 -1.52605 -0.393616 0
M  V30 2616 C 243.657 -1.66649 -1.13627 0
M  V30 2617 C 243.97 -0.410364 -1.91247 0
M  V30 2618 O 245.176 -0.430854 -2.68059 0
M  V30 2619 C 243.632 -2.9449 -2.06891 0
M  V30 2620 C 243.24 -4.27266 -1.34714 0
M  V30 2621 C 244.984 -3.17899 -2.81319 0
M  V30 2622 C 242.891 -5.46217 -2.26717 0
M  V30 2623 H 241.821 -0.62084 -0.427871 0
M  V30 2624 H 244.472 -1.791 -0.399428 0
M  V30 2625 H 242.854 -2.75774 -2.84191 0
M  V30 2626 H 244.028 -4.56518 -0.626714 0
M  V30 2627 H 242.343 -4.10081 -0.722643 0
M  V30 2628 H 244.94 -4.03949 -3.50328 0
M  V30 2629 H 245.283 -2.32777 -3.45139 0
M  V30 2630 H 245.816 -3.37159 -2.11113 0
M  V30 2631 H 242.555 -6.33733 -1.67521 0
M  V30 2632 H 242.075 -5.21283 -2.96689 0
M  V30 2633 H 243.754 -5.7991 -2.86903 0
M  V30 2634 N 243.887 0.651787 -1.4349 0
M  V30 2635 C 244.834 1.76462 -1.4876 0
M  V30 2636 C 245.804 1.62641 -0.337189 0
M  V30 2637 O 246.989 1.82864 -0.544544 0
M  V30 2638 C 244.129 3.14623 -1.41796 0
M  V30 2639 C 243.242 3.39568 -2.67053 0
M  V30 2640 C 242.377 4.67585 -2.52068 0
M  V30 2641 C 241.416 4.85639 -3.72587 0
M  V30 2642 N 240.553 6.04915 -3.56402 0
M  V30 2643 H 245.393 1.71293 -2.43849 0
M  V30 2644 H 242.93 0.835889 -1.21043 0
M  V30 2645 H 244.888 3.94496 -1.35753 0
M  V30 2646 H 243.518 3.18859 -0.50288 0
M  V30 2647 H 242.57 2.53783 -2.8337 0
M  V30 2648 H 243.882 3.48795 -3.56572 0
M  V30 2649 H 243.036 5.55586 -2.4374 0
M  V30 2650 H 241.775 4.60681 -1.60075 0
M  V30 2651 H 240.78 3.96073 -3.81321 0
M  V30 2652 H 242.005 4.94372 -4.65589 0
M  V30 2653 H 239.951 5.9914 -2.67146 0
M  V30 2654 H 239.868 6.15106 -4.39524 0
M  V30 2655 H 241.136 6.95533 -3.51929 0
M  V30 2656 N 245.365 1.30045 0.890287 0
M  V30 2657 C 246.312 1.15976 1.99545 0
M  V30 2658 C 247.282 0.0506202 1.66023 0
M  V30 2659 O 248.467 0.219847 1.89529 0
M  V30 2660 C 245.607 0.852054 3.34416 0
M  V30 2661 C 244.72 2.04255 3.80662 0
M  V30 2662 C 243.855 1.6734 5.04154 0
M  V30 2663 C 242.894 2.82916 5.42794 0
M  V30 2664 N 242.031 2.46333 6.57468 0
M  V30 2665 H 246.871 2.10524 2.10911 0
M  V30 2666 H 244.408 1.04749 1.03276 0
M  V30 2667 H 246.366 0.654296 4.12037 0
M  V30 2668 H 244.996 -0.0565502 3.2275 0
M  V30 2669 H 244.048 2.35172 2.98995 0
M  V30 2670 H 245.36 2.90826 4.05242 0
M  V30 2671 H 244.514 1.43908 5.89386 0
M  V30 2672 H 243.253 0.779308 4.81433 0
M  V30 2673 H 242.258 3.0702 4.56091 0
M  V30 2674 H 243.483 3.73004 5.6749 0
M  V30 2675 H 241.429 1.59423 6.36334 0
M  V30 2676 H 241.346 3.26436 6.81891 0
M  V30 2677 H 242.614 2.26244 7.45945 0
M  V30 2678 N 246.843 -1.10192 1.12674 0
M  V30 2679 C 247.793 -2.14754 0.765801 0
M  V30 2680 C 248.777 -1.59154 -0.236409 0
M  V30 2681 O 249.969 -1.76951 -0.0415261 0
M  V30 2682 C 247.098 -3.42563 0.224827 0
M  V30 2683 C 246.184 -4.05091 1.25548 0
M  V30 2684 N 246.575 -4.42287 2.4539 0
M  V30 2685 C 244.873 -4.32186 1.10142 0
M  V30 2686 C 245.574 -4.91441 3.11224 0
M  V30 2687 N 244.55 -4.88405 2.38666 0
M  V30 2688 H 248.352 -2.41309 1.67772 0
M  V30 2689 H 245.866 -1.27339 1.00789 0
M  V30 2690 H 247.863 -4.16868 -0.0519578 0
M  V30 2691 H 246.523 -3.17467 -0.681515 0
M  V30 2692 H 247.534 -4.33902 2.82754 0
M  V30 2693 H 244.211 -4.16735 0.252587 0
M  V30 2694 H 245.601 -5.29749 4.13298 0
M  V30 2695 N 248.321 -0.919034 -1.28029 0
M  V30 2696 C 249.251 -0.428581 -2.29533 0
M  V30 2697 C 250.232 0.50659 -1.62381 0
M  V30 2698 O 251.417 0.413195 -1.89753 0
M  V30 2699 C 248.547 0.327388 -3.45753 0
M  V30 2700 C 247.501 -0.519137 -4.2484 0
M  V30 2701 C 246.827 0.365486 -5.33449 0
M  V30 2702 C 248.127 -1.77914 -4.91064 0
M  V30 2703 H 249.821 -1.27687 -2.70807 0
M  V30 2704 H 247.367 -0.615428 -1.30186 0
M  V30 2705 H 249.32 0.681378 -4.15855 0
M  V30 2706 H 248.044 1.20963 -3.03374 0
M  V30 2707 H 246.703 -0.855717 -3.56473 0
M  V30 2708 H 246.351 1.24642 -4.87312 0
M  V30 2709 H 246.051 -0.197356 -5.87268 0
M  V30 2710 H 247.575 0.715241 -6.06396 0
M  V30 2711 H 248.989 -1.49374 -5.53498 0
M  V30 2712 H 247.386 -2.2848 -5.54903 0
M  V30 2713 H 248.456 -2.50382 -4.15255 0
M  V30 2714 N 249.799 1.42003 -0.683588 0
M  V30 2715 C 250.729 2.33487 -0.024866 0
M  V30 2716 C 251.71 1.51163 0.779975 0
M  V30 2717 O 252.895 1.79739 0.735362 0
M  V30 2718 C 250.025 3.3487 0.920836 0
M  V30 2719 C 248.979 4.27414 0.223958 0
M  V30 2720 C 248.305 5.19074 1.2832 0
M  V30 2721 C 249.605 5.14445 -0.90242 0
M  V30 2722 H 251.299 2.88819 -0.788921 0
M  V30 2723 H 248.845 1.38873 -0.38083 0
M  V30 2724 H 250.798 3.97787 1.39081 0
M  V30 2725 H 249.522 2.77861 1.71642 0
M  V30 2726 H 248.181 3.65904 -0.225864 0
M  V30 2727 H 247.829 4.58387 2.071 0
M  V30 2728 H 247.529 5.81822 0.821995 0
M  V30 2729 H 249.053 5.84867 1.75392 0
M  V30 2730 H 250.467 5.70998 -0.513272 0
M  V30 2731 H 248.864 5.86072 -1.28997 0
M  V30 2732 H 249.934 4.52322 -1.74737 0
M  V30 2733 N 251.277 0.427512 1.51691 0
M  V30 2734 C 252.523 -0.142439 2.02299 0
M  V30 2735 C 252.856 -1.43214 1.31162 0
M  V30 2736 O 252.131 -1.89833 0.423511 0
M  V30 2737 C 252.414 -0.371301 3.58181 0
M  V30 2738 C 252.267 0.936358 4.39946 0
M  V30 2739 C 253.586 -1.14542 4.24933 0
M  V30 2740 H 250.705 -0.0502937 0.735282 0
M  V30 2741 H 253.347 0.564584 1.81418 0
M  V30 2742 H 251.497 -0.973559 3.76104 0
M  V30 2743 H 253.169 1.57184 4.33694 0
M  V30 2744 H 251.412 1.5432 4.05423 0
M  V30 2745 H 252.083 0.730388 5.47147 0
M  V30 2746 H 254.559 -0.635362 4.11221 0
M  V30 2747 H 253.435 -1.27431 5.33903 0
M  V30 2748 H 253.696 -2.17093 3.85127 0
M  V30 2749 N 252.755 -1.56801 0.158532 0
M  V30 2750 C 253.705 -2.13923 -0.788738 0
M  V30 2751 C 254.689 -1.07006 -1.2016 0
M  V30 2752 O 255.881 -1.33159 -1.1661 0
M  V30 2753 C 253.01 -2.77348 -2.02319 0
M  V30 2754 C 252.096 -3.91404 -1.6329 0
M  V30 2755 N 252.487 -4.9677 -0.951463 0
M  V30 2756 C 250.785 -4.02326 -1.92482 0
M  V30 2757 C 251.486 -5.76698 -0.761221 0
M  V30 2758 N 250.462 -5.27859 -1.29869 0
M  V30 2759 H 254.264 -2.92757 -0.258995 0
M  V30 2760 H 251.778 -1.62344 -0.0426055 0
M  V30 2761 H 253.775 -3.16639 -2.71192 0
M  V30 2762 H 252.435 -1.99991 -2.558 0
M  V30 2763 H 253.446 -5.14284 -0.610928 0
M  V30 2764 H 250.123 -3.36059 -2.47732 0
M  V30 2765 H 251.513 -6.71529 -0.223284 0
M  V30 2766 N 254.233 0.115231 -1.57178 0
M  V30 2767 C 255.196 1.12526 -1.99676 0
M  V30 2768 C 256.196 1.34095 -0.88742 0
M  V30 2769 O 257.386 1.30548 -1.15337 0
M  V30 2770 C 254.518 2.4789 -2.34015 0
M  V30 2771 H 255.711 0.759912 -2.90113 0
M  V30 2772 H 253.264 0.359648 -1.52106 0
M  V30 2773 H 253.999 2.89339 -1.4647 0
M  V30 2774 H 253.784 2.33588 -3.14927 0
M  V30 2775 H 255.274 3.20575 -2.67622 0
M  V30 2776 N 255.711 1.52812 0.385517 0
M  V30 2777 C 257.122 1.5993 0.963293 0
M  V30 2778 C 257.473 0.454302 1.90868 0
M  V30 2779 O 256.598 -0.422132 2.12243 0
M  V30 2780 C 257.193 2.89871 1.75387 0
M  V30 2781 C 255.752 2.99389 2.28129 0
M  V30 2782 C 254.899 2.55071 1.08783 0
M  V30 2783 H 257.85 1.5784 0.164948 0
M  V30 2784 H 257.871 2.76553 2.61341 0
M  V30 2785 H 257.383 3.73186 1.06554 0
M  V30 2786 H 255.484 2.20619 3.00263 0
M  V30 2787 H 255.597 4.04096 2.57377 0
M  V30 2788 H 253.961 2.09473 1.4489 0
M  V30 2789 H 254.744 3.40785 0.414807 0
M  V30 2790 N 257.189 -0.644168 1.43834 0
M  V30 2791 C 258.099 -1.78563 1.52159 0
M  V30 2792 C 259.115 -1.69147 0.408069 0
M  V30 2793 O 260.291 -1.90156 0.663524 0
M  V30 2794 C 257.356 -3.14888 1.45073 0
M  V30 2795 C 256.417 -3.36034 2.6717 0
M  V30 2796 C 255.65 -4.65855 2.60413 0
M  V30 2797 O 255.873 -5.45805 1.65689 0
M  V30 2798 O 254.807 -4.88918 3.5106 0
M  V30 2799 H 258.633 -1.74494 2.48567 0
M  V30 2800 H 256.218 -0.80378 1.25935 0
M  V30 2801 H 258.1 -3.96179 1.43597 0
M  V30 2802 H 256.775 -3.19528 0.518037 0
M  V30 2803 H 255.682 -2.54472 2.74217 0
M  V30 2804 H 257.015 -3.36247 3.59442 0
M  V30 2805 N 258.668 -1.30515 -0.883378 0
M  V30 2806 C 259.945 -1.10086 -1.6168 0
M  V30 2807 C 260.325 0.349269 -2.08191 0
M  V30 2808 O 259.673 1.34105 -1.85008 0
M  V30 2809 C 259.883 -2.10315 -2.78511 0
M  V30 2810 C 261.231 -2.42119 -3.48803 0
M  V30 2811 O 262.255 -2.08638 -2.88702 0
M  V30 2812 O 261.114 -2.99396 -4.57192 0
M  V30 2813 H 258.208 -0.422907 -0.710689 0
M  V30 2814 H 260.754 -1.41947 -0.930015 0
M  V30 2815 H 259.526 -3.07917 -2.41459 0
M  V30 2816 H 259.149 -1.79282 -3.54886 0
M  V30 2817 N 260.146 1.09593 -1.13257 0
M  V30 2818 C 261.093 2.1618 -0.808381 0
M  V30 2819 C 262.063 1.64517 0.228754 0
M  V30 2820 O 263.248 1.9053 0.101381 0
M  V30 2821 C 260.388 3.43973 -0.278675 0
M  V30 2822 C 259.501 4.09545 -1.37466 0
M  V30 2823 C 258.636 5.25088 -0.803479 0
M  V30 2824 C 257.675 5.82579 -1.87799 0
M  V30 2825 N 256.812 6.89486 -1.32488 0
M  V30 2826 H 261.652 2.43254 -1.72138 0
M  V30 2827 H 259.189 1.19392 -0.859294 0
M  V30 2828 H 261.147 4.17174 0.0465583 0
M  V30 2829 H 259.777 3.17223 0.597459 0
M  V30 2830 H 258.829 3.34226 -1.81652 0
M  V30 2831 H 260.141 4.48307 -2.18684 0
M  V30 2832 H 259.295 6.05178 -0.429427 0
M  V30 2833 H 258.034 4.87684 0.0397956 0
M  V30 2834 H 257.039 5.01152 -2.26113 0
M  V30 2835 H 258.264 6.22045 -2.72463 0
M  V30 2836 H 256.21 6.54064 -0.503575 0
M  V30 2837 H 256.127 7.27007 -2.07355 0
M  V30 2838 H 257.395 7.73336 -0.978336 0
M  V30 2839 N 261.624 0.925811 1.2754 0
M  V30 2840 C 262.571 0.422045 2.26908 0
M  V30 2841 C 263.541 -0.510029 1.58076 0
M  V30 2842 O 264.726 -0.429599 1.85901 0
M  V30 2843 C 261.866 -0.320837 3.43605 0
M  V30 2844 C 260.979 0.64513 4.27156 0
M  V30 2845 C 260.114 -0.117405 5.3107 0
M  V30 2846 C 259.153 0.841391 6.0629 0
M  V30 2847 N 258.29 0.111604 7.02011 0
M  V30 2848 H 263.13 1.27441 2.69375 0
M  V30 2849 H 260.667 0.639697 1.32462 0
M  V30 2850 H 262.625 -0.76785 4.10073 0
M  V30 2851 H 261.255 -1.13745 3.02096 0
M  V30 2852 H 260.307 1.21067 3.6062 0
M  V30 2853 H 261.619 1.37797 4.79389 0
M  V30 2854 H 260.773 -0.624422 6.03478 0
M  V30 2855 H 259.512 -0.883219 4.79636 0
M  V30 2856 H 258.517 1.35967 5.32722 0
M  V30 2857 H 259.742 1.60696 6.59813 0
M  V30 2858 H 257.688 -0.635999 6.5291 0
M  V30 2859 H 257.605 0.784044 7.51923 0
M  V30 2860 H 258.873 -0.374823 7.78598 0
M  V30 2861 N 263.102 -1.41638 0.69111 0
M  V30 2862 C 264.012 -2.34588 0.0233487 0
M  V30 2863 C 265.028 -1.55987 -0.770984 0
M  V30 2864 O 266.204 -1.88486 -0.709569 0
M  V30 2865 C 263.269 -3.34684 -0.904851 0
M  V30 2866 C 262.33 -4.29176 -0.103225 0
M  V30 2867 C 261.563 -5.2449 -0.987216 0
M  V30 2868 O 261.786 -5.2514 -2.22674 0
M  V30 2869 O 260.72 -6.00295 -0.439281 0
M  V30 2870 H 264.546 -2.93261 0.789416 0
M  V30 2871 H 262.131 -1.42417 0.45142 0
M  V30 2872 H 264.013 -3.96133 -1.43724 0
M  V30 2873 H 262.688 -2.78461 -1.65049 0
M  V30 2874 H 261.595 -3.71089 0.473655 0
M  V30 2875 H 262.928 -4.88484 0.60365 0
M  V30 2876 N 264.58 -0.43555 -1.51462 0
M  V30 2877 C 265.829 0.133007 -2.01261 0
M  V30 2878 C 266.142 1.43942 -1.32439 0
M  V30 2879 O 267.348 2.09081 -1.73198 0
M  V30 2880 C 265.804 0.287581 -3.58749 0
M  V30 2881 C 265.412 -1.00829 -4.36506 0
M  V30 2882 C 267.156 0.810004 -4.167 0
M  V30 2883 C 265.063 -0.819454 -5.85695 0
M  V30 2884 H 263.993 0.0534822 -0.752101 0
M  V30 2885 H 266.644 -0.565038 -1.74584 0
M  V30 2886 H 265.026 1.04859 -3.81865 0
M  V30 2887 H 266.2 -1.77749 -4.25138 0
M  V30 2888 H 264.515 -1.45911 -3.89999 0
M  V30 2889 H 267.112 0.967743 -5.2587 0
M  V30 2890 H 267.455 1.79196 -3.75758 0
M  V30 2891 H 267.988 0.107357 -3.97655 0
M  V30 2892 H 264.727 -1.77374 -6.31046 0
M  V30 2893 H 264.247 -0.0900208 -5.99732 0
M  V30 2894 H 265.926 -0.471949 -6.45276 0
M  V30 2895 N 266.058 1.56714 -0.166846 0
M  V30 2896 C 266.988 2.20754 0.760913 0
M  V30 2897 C 267.969 1.16178 1.24244 0
M  V30 2898 O 269.154 1.44592 1.29641 0
M  V30 2899 C 266.284 2.84478 1.99223 0
M  V30 2900 C 265.238 3.95053 1.64672 0
M  V30 2901 C 264.564 4.45805 2.95232 0
M  V30 2902 C 265.864 5.14865 0.878155 0
M  V30 2903 H 267.558 2.98537 0.22713 0
M  V30 2904 H 265.104 1.43596 0.107805 0
M  V30 2905 H 267.057 3.27951 2.64624 0
M  V30 2906 H 265.781 2.04056 2.55007 0
M  V30 2907 H 264.44 3.52228 1.01641 0
M  V30 2908 H 264.088 3.62181 3.49047 0
M  V30 2909 H 263.788 5.204 2.7287 0
M  V30 2910 H 265.312 4.91962 3.6167 0
M  V30 2911 H 266.726 5.55059 1.43466 0
M  V30 2912 H 265.123 5.95348 0.753738 0
M  V30 2913 H 266.193 4.84735 -0.126377 0
M  V30 2914 N 267.536 -0.106894 1.57237 0
M  V30 2915 C 268.499 -1.11466 2.0027 0
M  V30 2916 C 269.499 -1.33623 0.894519 0
M  V30 2917 O 270.689 -1.29935 1.16028 0
M  V30 2918 C 267.821 -2.46646 2.35327 0
M  V30 2919 H 269.014 -0.744516 2.90512 0
M  V30 2920 H 266.567 -0.351576 1.52295 0
M  V30 2921 H 267.302 -2.88558 1.48003 0
M  V30 2922 H 267.087 -2.31915 3.16161 0
M  V30 2923 H 268.577 -3.19151 2.69318 0
M  V30 2924 N 269.014 -1.53014 -0.377408 0
M  V30 2925 C 270.239 -1.72818 -1.14668 0
M  V30 2926 C 270.664 -0.450725 -1.8262 0
M  V30 2927 O 270.022 0.59439 -1.7128 0
M  V30 2928 C 270.07 -2.88627 -2.16164 0
M  V30 2929 O 269.174 -2.56409 -3.22998 0
M  V30 2930 H 268.515 -0.574301 -0.333278 0
M  V30 2931 H 271.045 -1.99853 -0.438152 0
M  V30 2932 H 271.055 -3.14455 -2.59966 0
M  V30 2933 H 269.73 -3.81294 -1.66095 0
M  V30 2934 H 268.307 -2.4136 -2.84253 0
M  V30 2935 N 270.492 0.636531 -1.44174 0
M  V30 2936 C 271.739 1.39619 -1.46672 0
M  V30 2937 C 272.067 1.94257 -0.0972691 0
M  V30 2938 O 271.322 1.73768 0.900175 0
M  V30 2939 C 271.621 2.58309 -2.47005 0
M  V30 2940 C 271.287 2.21992 -3.92467 0
M  V30 2941 C 269.949 2.118 -4.32081 0
M  V30 2942 C 272.301 1.9321 -4.84065 0
M  V30 2943 C 269.629 1.71007 -5.61225 0
M  V30 2944 C 271.981 1.53911 -6.13591 0
M  V30 2945 C 270.645 1.42257 -6.52165 0
M  V30 2946 H 269.915 0.510902 -0.536712 0
M  V30 2947 H 272.562 0.722328 -1.77355 0
M  V30 2948 H 270.867 3.30903 -2.09786 0
M  V30 2949 H 272.564 3.16533 -2.46186 0
M  V30 2950 H 269.154 2.30841 -3.61124 0
M  V30 2951 H 273.338 1.99997 -4.54219 0
M  V30 2952 H 268.594 1.60583 -5.89935 0
M  V30 2953 H 272.768 1.30677 -6.8403 0
M  V30 2954 H 270.395 1.10419 -7.52138 0
M  V30 2955 N 271.97 1.30982 0.876444 0
M  V30 2956 C 273.219 1.19658 1.62373 0
M  V30 2957 C 273.532 -0.245636 1.94052 0
M  V30 2958 O 274.738 -0.48049 2.67214 0
M  V30 2959 C 273.194 2.09433 2.92687 0
M  V30 2960 C 272.802 3.58613 2.68516 0
M  V30 2961 C 274.546 2.06893 3.70669 0
M  V30 2962 C 272.453 4.40416 3.94699 0
M  V30 2963 H 271.383 0.444268 0.609214 0
M  V30 2964 H 274.034 1.55791 0.969605 0
M  V30 2965 H 272.416 1.66191 3.59439 0
M  V30 2966 H 273.59 4.10058 2.10212 0
M  V30 2967 H 271.905 3.63063 2.03898 0
M  V30 2968 H 274.502 2.65258 4.64265 0
M  V30 2969 H 274.845 1.05448 4.02724 0
M  V30 2970 H 275.378 2.48301 3.10792 0
M  V30 2971 H 272.117 5.42591 3.67798 0
M  V30 2972 H 271.637 3.93731 4.52477 0
M  V30 2973 H 273.316 4.52294 4.62644 0
M  V30 2974 N 273.449 -1.08991 1.13837 0
M  V30 2975 C 274.674 -1.85551 0.926585 0
M  V30 2976 C 275.099 -1.80782 -0.519566 0
M  V30 2977 O 274.457 -1.18855 -1.36906 0
M  V30 2978 C 274.505 -3.31266 1.42462 0
M  V30 2979 O 273.609 -4.07822 0.612789 0
M  V30 2980 H 272.95 -0.575192 0.331738 0
M  V30 2981 H 275.48 -1.37604 1.51414 0
M  V30 2982 H 275.49 -3.82112 1.43019 0
M  V30 2983 H 274.165 -3.34052 2.47754 0
M  V30 2984 H 272.742 -3.66731 0.675463 0
M  V30 2985 N 274.927 -0.932562 -1.27047 0
M  V30 2986 C 276.175 -0.574422 -1.93765 0
M  V30 2987 C 276.496 0.887993 -1.73608 0
M  V30 2988 O 275.766 1.62999 -1.08665 0
M  V30 2989 H 274.346 -0.209451 -0.717035 0
M  V30 2990 H 277.008 -1.18601 -1.5466 0
M  V30 2991 H 276.104 -0.784841 -3.02071 0
M  V30 2992 N 276.405 1.4127 -0.698611 0
M  V30 2993 C 277.335 2.33447 -0.049629 0
M  V30 2994 C 278.316 1.51982 0.763898 0
M  V30 2995 O 279.501 1.80509 0.716257 0
M  V30 2996 C 276.631 3.35828 0.885267 0
M  V30 2997 C 275.585 4.27627 0.178613 0
M  V30 2998 C 274.911 5.20406 1.22807 0
M  V30 2999 C 276.211 5.13459 -0.956933 0
M  V30 3000 H 277.905 2.87966 -0.81951 0
M  V30 3001 H 275.451 1.38461 -0.395538 0
M  V30 3002 H 277.404 3.9924 1.34854 0
M  V30 3003 H 276.128 2.79666 1.68685 0
M  V30 3004 H 274.787 3.65643 -0.26466 0
M  V30 3005 H 274.435 4.60558 2.02226 0
M  V30 3006 H 274.135 5.82661 0.760239 0
M  V30 3007 H 275.659 5.86695 1.69179 0
M  V30 3008 H 277.073 5.70421 -0.573805 0
M  V30 3009 H 275.47 5.8467 -1.35205 0
M  V30 3010 H 276.54 4.50443 -1.79524 0
M  V30 3011 N 277.883 0.443576 1.51229 0
M  V30 3012 C 279.13 -0.120796 2.02139 0
M  V30 3013 C 279.458 -1.42166 1.32736 0
M  V30 3014 O 278.713 -1.90849 0.43301 0
M  V30 3015 C 279.012 -0.380579 3.55368 0
M  V30 3016 C 278.678 0.83523 4.43097 0
M  V30 3017 C 277.34 1.16864 4.66794 0
M  V30 3018 C 279.692 1.64601 4.94526 0
M  V30 3019 C 277.02 2.31339 5.39165 0
M  V30 3020 C 279.372 2.78181 5.68153 0
M  V30 3021 C 278.036 3.11969 5.90112 0
M  V30 3022 H 277.306 -0.0442023 0.73968 0
M  V30 3023 H 279.953 0.592046 1.82118 0
M  V30 3024 H 278.258 -1.17538 3.73754 0
M  V30 3025 H 279.955 -0.830777 3.923 0
M  V30 3026 H 276.545 0.565437 4.24854 0
M  V30 3027 H 280.729 1.40163 4.76097 0
M  V30 3028 H 275.985 2.57823 5.5438 0
M  V30 3029 H 280.159 3.41371 6.06992 0
M  V30 3030 H 277.786 4.00784 6.45969 0
M  V30 3031 N 279.361 -1.56624 0.175154 0
M  V30 3032 C 280.309 -2.19468 -0.770495 0
M  V30 3033 C 281.303 -1.15985 -1.23466 0
M  V30 3034 O 282.509 -1.34176 -1.19987 0
M  V30 3035 H 278.884 -0.703095 -0.266761 0
M  V30 3036 H 280.855 -2.97613 -0.216542 0
M  V30 3037 C 279.604 -2.85264 -1.98796 0
M  V30 3038 H 278.927 -3.64623 -1.63983 0
M  V30 3039 H 280.367 -3.327 -2.62843 0
M  V30 3040 C 278.826 -1.85239 -2.81404 0
M  V30 3041 O 279.356 -1.34024 -3.78682 0
M  V30 3042 N 277.562 -1.53911 -2.46495 0
M  V30 3043 H 277.109 -1.95751 -1.67449 0
M  V30 3044 H 277.067 -0.872382 -3.02054 0
M  V30 3045 N 280.839 0.0985539 -1.57292 0
M  V30 3046 C 282.086 0.802678 -1.85912 0
M  V30 3047 C 282.414 1.78901 -0.763186 0
M  V30 3048 O 281.669 1.94178 0.243559 0
M  V30 3049 C 281.968 1.56927 -3.21105 0
M  V30 3050 C 281.634 0.725376 -4.45027 0
M  V30 3051 C 280.296 0.492726 -4.78671 0
M  V30 3052 C 282.648 0.138493 -5.21016 0
M  V30 3053 C 279.976 -0.336727 -5.85733 0
M  V30 3054 C 282.328 -0.678264 -6.28953 0
M  V30 3055 C 280.992 -0.921039 -6.61115 0
M  V30 3056 H 280.262 0.293721 -0.680301 0
M  V30 3057 H 282.909 0.0642841 -1.91392 0
M  V30 3058 H 281.214 2.37914 -3.11294 0
M  V30 3059 H 282.911 2.11841 -3.40477 0
M  V30 3060 H 279.501 0.916815 -4.18679 0
M  V30 3061 H 283.685 0.305404 -4.95359 0
M  V30 3062 H 278.941 -0.533836 -6.09065 0
M  V30 3063 H 283.115 -1.1399 -6.87007 0
M  V30 3064 H 280.742 -1.56556 -7.43905 0
M  V30 3065 N 282.317 1.53212 0.369288 0
M  V30 3066 C 283.547 1.72868 1.13139 0
M  V30 3067 C 283.955 0.455754 1.83629 0
M  V30 3068 O 283.298 -0.580861 1.74275 0
M  V30 3069 C 283.36 2.83667 2.20847 0
M  V30 3070 C 283.024 4.24142 1.70155 0
M  V30 3071 C 284.021 5.06619 1.16763 0
M  V30 3072 C 281.706 4.70539 1.7578 0
M  V30 3073 C 283.7 6.33581 0.696678 0
M  V30 3074 C 281.387 5.97481 1.28297 0
M  V30 3075 C 282.385 6.78833 0.753307 0
M  V30 3076 O 282.073 8.03393 0.285475 0
M  V30 3077 H 281.805 0.581707 0.344373 0
M  V30 3078 H 284.359 2.00736 0.435243 0
M  V30 3079 H 282.589 2.51265 2.93944 0
M  V30 3080 H 284.278 2.91536 2.82421 0
M  V30 3081 H 285.044 4.71948 1.11758 0
M  V30 3082 H 280.923 4.07293 2.15949 0
M  V30 3083 H 284.467 6.97027 0.282581 0
M  V30 3084 H 280.364 6.31651 1.32994 0
M  V30 3085 H 281.132 8.17497 0.405145 0
M  V30 3086 N 283.795 -0.628877 1.44509 0
M  V30 3087 C 284.705 -1.7694 1.54044 0
M  V30 3088 C 285.721 -1.68705 0.425987 0
M  V30 3089 O 286.897 -1.89442 0.683656 0
M  V30 3090 C 283.962 -3.13332 1.48405 0
M  V30 3091 C 283.023 -3.33181 2.70719 0
M  V30 3092 C 282.256 -4.63067 2.6534 0
M  V30 3093 O 282.479 -5.44017 1.71469 0
M  V30 3094 O 281.413 -4.85167 3.56226 0
M  V30 3095 H 285.239 -1.71848 2.50403 0
M  V30 3096 H 282.824 -0.790378 1.26781 0
M  V30 3097 H 284.706 -3.94634 1.47791 0
M  V30 3098 H 283.381 -3.1896 0.551898 0
M  V30 3099 H 282.288 -2.51549 2.769 0
M  V30 3100 H 283.621 -3.32416 3.62988 0
M  V30 3101 N 285.273 -1.31445 -0.869486 0
M  V30 3102 C 286.55 -1.11795 -1.60503 0
M  V30 3103 C 286.93 0.327168 -2.08549 0
M  V30 3104 O 286.278 1.32135 -1.8642 0
M  V30 3105 C 286.488 -2.13258 -2.76265 0
M  V30 3106 C 287.836 -2.45805 -3.46215 0
M  V30 3107 O 288.86 -2.11688 -2.86473 0
M  V30 3108 O 287.719 -3.04228 -4.5399 0
M  V30 3109 H 284.813 -0.430421 -0.706163 0
M  V30 3110 H 287.359 -1.42925 -0.914907 0
M  V30 3111 H 286.131 -3.10461 -2.3818 0
M  V30 3112 H 285.754 -1.83035 -3.52964 0
M  V30 3113 N 286.751 1.08385 -1.14413 0
M  V30 3114 C 287.681 2.17321 -0.854044 0
M  V30 3115 C 288.662 1.69024 0.191049 0
M  V30 3116 O 289.847 1.94141 0.0476779 0
M  V30 3117 C 286.977 3.45719 -0.330983 0
M  V30 3118 C 285.931 4.07409 -1.31155 0
M  V30 3119 C 285.257 5.30762 -0.64778 0
M  V30 3120 C 286.557 4.48665 -2.67388 0
M  V30 3121 H 288.251 2.41845 -1.76498 0
M  V30 3122 H 285.797 1.16233 -0.850051 0
M  V30 3123 H 287.75 4.21241 -0.115645 0
M  V30 3124 H 286.474 3.2075 0.615381 0
M  V30 3125 H 285.133 3.33919 -1.51306 0
M  V30 3126 H 284.781 5.02078 0.304398 0
M  V30 3127 H 284.481 5.72992 -1.30207 0
M  V30 3128 H 286.005 6.08998 -0.441972 0
M  V30 3129 H 287.419 5.15364 -2.51143 0
M  V30 3130 H 285.816 5.01814 -3.29093 0
M  V30 3131 H 286.886 3.60543 -3.24248 0
M  V30 3132 N 288.23 0.939286 1.26551 0
M  V30 3133 C 289.46 0.601663 1.97645 0
M  V30 3134 C 289.868 -0.827206 1.70159 0
M  V30 3135 O 289.211 -1.56291 0.965338 0
M  V30 3136 C 289.273 0.761725 3.51337 0
M  V30 3137 C 288.937 2.16487 4.0247 0
M  V30 3138 C 289.934 3.14016 4.14355 0
M  V30 3139 C 287.619 2.48494 4.36527 0
M  V30 3140 C 289.613 4.41654 4.59587 0
M  V30 3141 C 287.3 3.76364 4.81449 0
M  V30 3142 C 288.298 4.72758 4.92939 0
M  V30 3143 O 287.986 5.98352 5.36871 0
M  V30 3144 H 287.718 0.225758 0.637189 0
M  V30 3145 H 290.272 1.26178 1.62075 0
M  V30 3146 H 288.502 0.0444808 3.86674 0
M  V30 3147 H 290.191 0.427442 4.03643 0
M  V30 3148 H 290.957 2.90613 3.8829 0
M  V30 3149 H 286.836 1.74202 4.26819 0
M  V30 3150 H 290.38 5.16896 4.68471 0
M  V30 3151 H 286.277 3.99582 5.06956 0
M  V30 3152 H 287.045 6.01507 5.55096 0
M  V30 3153 N 289.708 -1.40897 0.706093 0
M  V30 3154 C 290.955 -2.01054 0.241531 0
M  V30 3155 C 291.283 -1.55956 -1.16223 0
M  V30 3156 O 290.538 -0.766336 -1.80072 0
M  V30 3157 C 290.837 -3.5646 0.259099 0
M  V30 3158 C 290.503 -4.21106 1.61184 0
M  V30 3159 C 289.165 -4.38479 1.98216 0
M  V30 3160 C 291.517 -4.57256 2.50132 0
M  V30 3161 C 288.845 -4.89282 3.2376 0
M  V30 3162 C 291.197 -5.09454 3.7502 0
M  V30 3163 C 289.861 -5.25037 4.12181 0
M  V30 3164 H 289.131 -0.73571 0.0883825 0
M  V30 3165 H 291.778 -1.68645 0.907257 0
M  V30 3166 H 290.083 -3.88721 -0.490189 0
M  V30 3167 H 291.78 -4.00826 -0.11804 0
M  V30 3168 H 288.37 -4.07966 1.31384 0
M  V30 3169 H 292.554 -4.43479 2.228 0
M  V30 3170 H 287.81 -4.99531 3.52532 0
M  V30 3171 H 291.984 -5.36404 4.44121 0
M  V30 3172 H 289.611 -5.64164 5.09532 0
M  V30 3173 N 291.186 -0.45159 -1.50991 0
M  V30 3174 C 292.414 0.108334 -2.06616 0
M  V30 3175 C 292.829 1.35224 -1.31757 0
M  V30 3176 O 292.186 1.78475 -0.381174 0
M  V30 3177 C 292.237 0.41619 -3.59096 0
M  V30 3178 O 291.958 -0.778361 -4.3113 0
M  V30 3179 C 293.459 1.02523 -4.31282 0
M  V30 3180 H 290.679 0.00159995 -0.670998 0
M  V30 3181 H 293.223 -0.634771 -1.94399 0
M  V30 3182 H 291.378 1.10921 -3.71181 0
M  V30 3183 H 291.792 -0.511181 -5.22003 0
M  V30 3184 H 293.266 1.19053 -5.39009 0
M  V30 3185 H 293.743 2.01013 -3.905 0
M  V30 3186 H 294.349 0.371173 -4.23677 0
M  V30 3187 N 292.664 1.56529 -0.183458 0
M  V30 3188 C 293.894 2.01331 0.463612 0
M  V30 3189 C 294.302 1.06278 1.5653 0
M  V30 3190 O 293.645 0.0577976 1.83609 0
M  V30 3191 C 293.707 3.42547 1.09096 0
M  V30 3192 C 293.371 4.56817 0.129442 0
M  V30 3193 C 294.368 5.15734 -0.656807 0
M  V30 3194 C 292.053 5.02295 0.02174 0
M  V30 3195 C 294.047 6.1857 -1.53784 0
M  V30 3196 C 291.734 6.04978 -0.862864 0
M  V30 3197 C 292.732 6.62988 -1.64123 0
M  V30 3198 O 292.42 7.63677 -2.51103 0
M  V30 3199 H 292.152 0.664917 0.121907 0
M  V30 3200 H 294.706 2.034 -0.285954 0
M  V30 3201 H 292.936 3.37428 1.88889 0
M  V30 3202 H 294.625 3.71228 1.64148 0
M  V30 3203 H 295.391 4.81473 -0.583839 0
M  V30 3204 H 291.27 4.56847 0.617392 0
M  V30 3205 H 294.814 6.63777 -2.14583 0
M  V30 3206 H 290.711 6.38663 -0.93699 0
M  V30 3207 H 291.479 7.81049 -2.44753 0
M  V30 3208 N 294.142 -0.090211 1.57342 0
M  V30 3209 C 295.072 -1.10976 2.05443 0
M  V30 3210 C 296.053 -1.41482 0.944284 0
M  V30 3211 O 297.238 -1.51428 1.21586 0
M  V30 3212 C 294.368 -2.42831 2.48295 0
M  V30 3213 C 293.322 -2.26721 3.63018 0
M  V30 3214 C 292.648 -3.63796 3.91863 0
M  V30 3215 C 293.948 -1.7037 4.93732 0
M  V30 3216 H 295.642 -0.709564 2.9087 0
M  V30 3217 H 293.188 -0.339874 1.39932 0
M  V30 3218 H 295.141 -3.14431 2.80555 0
M  V30 3219 H 293.865 -2.84795 1.59873 0
M  V30 3220 H 292.524 -1.57565 3.31012 0
M  V30 3221 H 292.172 -4.03297 3.00601 0
M  V30 3222 H 291.872 -3.53861 4.69101 0
M  V30 3223 H 293.396 -4.36855 4.26603 0
M  V30 3224 H 294.81 -2.31816 5.24342 0
M  V30 3225 H 293.207 -1.71181 5.75167 0
M  V30 3226 H 294.277 -0.663542 4.80339 0
M  V30 3227 N 295.62 -1.53406 -0.361157 0
M  V30 3228 C 296.53 -1.83122 -1.4664 0
M  V30 3229 C 297.546 -0.719943 -1.58407 0
M  V30 3230 O 298.722 -1.01046 -1.74218 0
M  V30 3231 C 295.787 -2.01891 -2.81853 0
M  V30 3232 C 294.848 -3.25784 -2.79577 0
M  V30 3233 C 294.081 -3.43648 -4.0834 0
M  V30 3234 O 294.304 -2.65714 -5.0473 0
M  V30 3235 O 293.238 -4.37018 -4.13883 0
M  V30 3236 H 297.064 -2.7703 -1.24451 0
M  V30 3237 H 294.649 -1.38841 -0.551678 0
M  V30 3238 H 296.531 -2.15782 -3.61962 0
M  V30 3239 H 295.206 -1.11173 -3.0401 0
M  V30 3240 H 294.113 -3.17312 -1.98151 0
M  V30 3241 H 295.446 -4.16439 -2.62373 0
M  V30 3242 N 297.098 0.621204 -1.44841 0
M  V30 3243 C 298.347 1.37658 -1.47422 0
M  V30 3244 C 298.66 1.95264 -0.114629 0
M  V30 3245 O 299.866 2.71494 -0.0180199 0
M  V30 3246 C 298.322 2.49285 -2.59586 0
M  V30 3247 C 297.93 1.98149 -4.01797 0
M  V30 3248 C 299.674 3.26409 -2.71399 0
M  V30 3249 C 297.581 3.07178 -5.05367 0
M  V30 3250 H 296.511 0.517344 -0.548517 0
M  V30 3251 H 299.162 0.667257 -1.70938 0
M  V30 3252 H 297.544 3.22839 -2.29328 0
M  V30 3253 H 298.718 1.31395 -4.41669 0
M  V30 3254 H 297.033 1.33812 -3.94314 0
M  V30 3255 H 299.63 4.07706 -3.45948 0
M  V30 3256 H 299.973 3.76535 -1.77559 0
M  V30 3257 H 300.506 2.5995 -3.01116 0
M  V30 3258 H 297.245 2.61985 -6.00869 0
M  V30 3259 H 296.765 3.72542 -4.70077 0
M  V30 3260 H 298.444 3.71789 -5.29511 0
M  V30 3261 N 298.576 1.31904 0.862503 0
M  V30 3262 C 299.524 1.20125 1.9918 0
M  V30 3263 C 300.518 0.107824 1.69056 0
M  V30 3264 O 301.724 0.270223 1.7796 0
M  V30 3265 H 298.099 0.372148 0.65346 0
M  V30 3266 H 300.07 2.15652 2.06244 0
M  V30 3267 C 298.819 0.933099 3.34946 0
M  V30 3268 H 298.142 1.76664 3.5865 0
M  V30 3269 H 299.582 0.890892 4.14535 0
M  V30 3270 C 298.041 -0.364172 3.34926 0
M  V30 3271 O 298.571 -1.37858 3.77304 0
M  V30 3272 N 296.777 -0.383362 2.8806 0
M  V30 3273 H 296.324 0.442651 2.53768 0
M  V30 3274 H 296.282 -1.25123 2.8843 0
M  V30 3275 N 300.054 -1.07777 1.14986 0
M  V30 3276 C 301.465 -1.61766 0.932127 0
M  V30 3277 C 301.816 -1.88974 -0.527581 0
M  V30 3278 O 300.941 -1.65198 -1.39781 0
M  V30 3279 C 301.536 -2.93891 1.68563 0
M  V30 3280 C 300.095 -3.44639 1.5133 0
M  V30 3281 C 299.242 -2.18767 1.704 0
M  V30 3282 H 302.193 -0.909201 1.30074 0
M  V30 3283 H 302.214 -3.62623 1.15259 0
M  V30 3284 H 301.726 -2.74057 2.74799 0
M  V30 3285 H 299.827 -3.69564 0.474702 0
M  V30 3286 H 299.94 -4.20966 2.28746 0
M  V30 3287 H 298.304 -2.28253 1.13016 0
M  V30 3288 H 299.087 -2.01433 2.77992 0
M  V30 3289 N 301.532 -0.945985 -1.26051 0
M  V30 3290 C 302.462 -0.477172 -2.28572 0
M  V30 3291 C 303.443 0.472032 -1.63419 0
M  V30 3292 O 304.628 0.372853 -1.90587 0
M  V30 3293 C 301.758 0.253975 -3.4637 0
M  V30 3294 C 300.712 -0.609135 -4.23643 0
M  V30 3295 C 300.038 0.252252 -5.34105 0
M  V30 3296 C 301.338 -1.8829 -4.8718 0
M  V30 3297 H 303.032 -1.33402 -2.68038 0
M  V30 3298 H 300.578 -0.642904 -1.28852 0
M  V30 3299 H 302.531 0.593016 -4.17207 0
M  V30 3300 H 301.255 1.145 -3.05871 0
M  V30 3301 H 299.914 -0.931138 -3.54578 0
M  V30 3302 H 299.562 1.14278 -4.89846 0
M  V30 3303 H 299.262 -0.32188 -5.86718 0
M  V30 3304 H 300.786 0.586454 -6.07777 0
M  V30 3305 H 302.2 -1.61081 -5.50205 0
M  V30 3306 H 300.597 -2.40199 -5.49931 0
M  V30 3307 H 301.667 -2.59134 -4.09851 0
M  V30 3308 N 303.011 1.40521 -0.713556 0
M  V30 3309 C 304.257 2.01221 -0.252564 0
M  V30 3310 C 304.59 1.56444 1.1506 0
M  V30 3311 O 303.865 0.783597 1.78017 0
M  V30 3312 C 304.148 3.58582 -0.330332 0
M  V30 3313 C 304.001 4.13437 -1.77173 0
M  V30 3314 C 305.32 4.39079 0.299641 0
M  V30 3315 H 302.439 0.731077 -0.0932471 0
M  V30 3316 H 305.081 1.67026 -0.905673 0
M  V30 3317 H 303.231 3.87844 0.225737 0
M  V30 3318 H 304.903 3.9498 -2.38303 0
M  V30 3319 H 303.146 3.67801 -2.3001 0
M  V30 3320 H 303.817 5.22597 -1.77755 0
M  V30 3321 H 306.293 4.15735 -0.174139 0
M  V30 3322 H 305.169 5.4848 0.214771 0
M  V30 3323 H 305.43 4.19915 1.38288 0
M  V30 3324 N 304.489 0.459591 1.5075 0
M  V30 3325 C 305.735 -0.0994966 2.02556 0
M  V30 3326 C 306.068 -1.40399 1.3417 0
M  V30 3327 O 305.343 -1.88892 0.463683 0
M  V30 3328 C 305.626 -0.295242 3.58888 0
M  V30 3329 C 305.479 1.02947 4.37861 0
M  V30 3330 C 306.798 -1.05502 4.27267 0
M  V30 3331 H 303.917 -0.034686 0.736183 0
M  V30 3332 H 306.559 0.602938 1.8018 0
M  V30 3333 H 304.709 -0.893563 3.78084 0
M  V30 3334 H 306.381 1.66348 4.30263 0
M  V30 3335 H 304.624 1.62885 4.02058 0
M  V30 3336 H 305.295 0.846281 5.45474 0
M  V30 3337 H 307.771 -0.547993 4.12476 0
M  V30 3338 H 306.647 -1.16077 5.36486 0
M  V30 3339 H 306.908 -2.08875 3.89645 0
M  V30 3340 N 305.967 -1.56429 0.191757 0
M  V30 3341 C 307.195 -2.01867 -0.453586 0
M  V30 3342 C 307.61 -1.07191 -1.5542 0
M  V30 3343 O 306.967 -0.0762108 -1.82341 0
M  V30 3344 C 307.018 -3.47017 -1.013 0
M  V30 3345 O 306.739 -4.38078 0.0437005 0
M  V30 3346 C 308.24 -4.07956 -1.73456 0
M  V30 3347 H 305.46 -0.661211 -0.114199 0
M  V30 3348 H 308.004 -2.02295 0.299483 0
M  V30 3349 H 306.159 -3.47298 -1.71647 0
M  V30 3350 H 306.573 -5.23178 -0.372212 0
M  V30 3351 H 308.047 -5.1138 -2.07833 0
M  V30 3352 H 308.524 -3.51222 -2.63704 0
M  V30 3353 H 309.13 -4.11437 -1.07702 0
M  V30 3354 N 307.445 0.0818655 -1.57387 0
M  V30 3355 C 308.392 1.09834 -2.0299 0
M  V30 3356 C 309.362 1.39043 -0.908639 0
M  V30 3357 O 310.547 1.50282 -1.17559 0
M  V30 3358 C 307.687 2.40971 -2.47037 0
M  V30 3359 C 306.8 2.18379 -3.7274 0
M  V30 3360 C 305.935 3.43008 -4.0561 0
M  V30 3361 C 304.974 3.15736 -5.24383 0
M  V30 3362 N 304.111 4.32667 -5.52941 0
M  V30 3363 H 308.951 0.702472 -2.89602 0
M  V30 3364 H 306.488 0.33531 -1.43227 0
M  V30 3365 H 308.446 3.1752 -2.70623 0
M  V30 3366 H 307.076 2.78379 -1.63417 0
M  V30 3367 H 306.128 1.32569 -3.56552 0
M  V30 3368 H 307.44 1.94227 -4.59431 0
M  V30 3369 H 306.594 4.27958 -4.30043 0
M  V30 3370 H 305.333 3.70225 -3.17466 0
M  V30 3371 H 304.338 2.2918 -4.99757 0
M  V30 3372 H 305.563 2.8985 -6.14136 0
M  V30 3373 H 303.509 4.59935 -4.67756 0
M  V30 3374 H 303.426 4.11753 -6.34031 0
M  V30 3375 H 304.694 5.18644 -5.81918 0
M  V30 3376 N 308.923 1.53595 0.353017 0
M  V30 3377 C 310.2 1.61002 1.11075 0
M  V30 3378 C 310.58 0.425356 2.0677 0
M  V30 3379 O 309.928 -0.583267 2.2093 0
M  V30 3380 C 310.138 2.96631 1.83877 0
M  V30 3381 C 311.486 3.51653 2.37961 0
M  V30 3382 O 312.51 2.98743 1.93987 0
M  V30 3383 O 311.369 4.44177 3.18386 0
M  V30 3384 H 308.463 0.650825 0.510251 0
M  V30 3385 H 311.009 1.6594 0.35527 0
M  V30 3386 H 309.781 3.74293 1.14108 0
M  V30 3387 H 309.404 2.95242 2.66304 0
M  V30 3388 N 310.401 -0.613514 1.45168 0
M  V30 3389 C 311.649 -1.36997 1.48581 0
M  V30 3390 C 311.97 -1.94589 0.126545 0
M  V30 3391 O 311.24 -1.76816 -0.843372 0
M  V30 3392 H 309.82 -0.508558 0.547154 0
M  V30 3393 H 312.482 -0.720853 1.81079 0
M  V30 3394 H 311.578 -2.1924 2.22127 0
M  V30 3395 N 311.879 -1.3236 -0.855495 0
M  V30 3396 C 313.125 -1.23054 -1.612 0
M  V30 3397 C 313.458 0.207404 -1.93089 0
M  V30 3398 O 312.733 1.14432 -1.57275 0
M  V30 3399 C 313.016 -2.08937 -2.93287 0
M  V30 3400 C 312.869 -3.61105 -2.68185 0
M  V30 3401 C 314.188 -1.94986 -3.94549 0
M  V30 3402 H 311.307 -0.448364 -0.584926 0
M  V30 3403 H 313.949 -1.62297 -0.987917 0
M  V30 3404 H 312.099 -1.75599 -3.46551 0
M  V30 3405 H 313.771 -4.04652 -2.21483 0
M  V30 3406 H 312.014 -3.83813 -2.02164 0
M  V30 3407 H 312.685 -4.16522 -3.62234 0
M  V30 3408 H 315.161 -2.24189 -3.5054 0
M  V30 3409 H 314.037 -2.57356 -4.84829 0
M  V30 3410 H 314.298 -0.917263 -4.3248 0
M  V30 3411 N 313.357 1.07166 -1.15556 0
M  V30 3412 C 314.587 1.83248 -0.954133 0
M  V30 3413 C 314.995 1.82449 0.500911 0
M  V30 3414 O 314.338 1.23575 1.35923 0
M  V30 3415 C 314.4 3.31393 -1.39351 0
M  V30 3416 C 314.064 3.5591 -2.86666 0
M  V30 3417 C 315.061 3.49695 -3.8472 0
M  V30 3418 C 312.746 3.83515 -3.24379 0
M  V30 3419 C 314.74 3.70737 -5.18491 0
M  V30 3420 C 312.427 4.04209 -4.58321 0
M  V30 3421 C 313.425 3.97815 -5.55186 0
M  V30 3422 O 313.113 4.17954 -6.86709 0
M  V30 3423 H 312.845 0.584941 -0.338851 0
M  V30 3424 H 315.399 1.36169 -1.53777 0
M  V30 3425 H 313.629 3.79292 -0.75329 0
M  V30 3426 H 315.318 3.88945 -1.16089 0
M  V30 3427 H 316.084 3.28368 -3.56931 0
M  V30 3428 H 311.963 3.87605 -2.49567 0
M  V30 3429 H 315.507 3.65663 -5.94085 0
M  V30 3430 H 311.404 4.25023 -4.85825 0
M  V30 3431 H 312.172 4.35291 -6.93155 0
M  V30 3432 N 314.835 0.952656 1.25548 0
M  V30 3433 C 316.081 0.607272 1.93494 0
M  V30 3434 C 316.414 -0.853245 1.74452 0
M  V30 3435 O 315.689 -1.61194 1.08843 0
M  V30 3436 C 315.972 0.96435 3.46947 0
M  V30 3437 C 315.825 2.48045 3.75225 0
M  V30 3438 C 317.144 0.487987 4.37386 0
M  V30 3439 H 314.263 0.222096 0.702739 0
M  V30 3440 H 316.905 1.18895 1.48203 0
M  V30 3441 H 315.055 0.469361 3.85654 0
M  V30 3442 H 316.727 3.04905 3.46166 0
M  V30 3443 H 314.97 2.919 3.209 0
M  V30 3444 H 315.641 2.6808 4.82532 0
M  V30 3445 H 318.117 0.912558 4.0597 0
M  V30 3446 H 316.993 0.766547 5.43521 0
M  V30 3447 H 317.254 -0.612063 4.37843 0
M  V30 3448 N 316.313 -1.40141 0.720998 0
M  V30 3449 C 317.243 -2.33339 0.0867621 0
M  V30 3450 C 318.224 -1.53178 -0.739622 0
M  V30 3451 O 319.409 -1.81625 -0.687449 0
M  V30 3452 C 316.539 -3.37194 -0.831728 0
M  V30 3453 C 315.493 -4.27857 -0.110558 0
M  V30 3454 C 314.819 -5.22294 -1.14513 0
M  V30 3455 C 316.119 -5.11872 1.0385 0
M  V30 3456 H 317.813 -2.86626 0.865219 0
M  V30 3457 H 315.359 -1.37814 0.417516 0
M  V30 3458 H 317.312 -4.01335 -1.28485 0
M  V30 3459 H 316.036 -2.82314 -1.64214 0
M  V30 3460 H 314.695 -3.65176 0.322797 0
M  V30 3461 H 314.343 -4.63717 -1.94874 0
M  V30 3462 H 314.043 -5.83797 -0.667446 0
M  V30 3463 H 315.567 -5.89312 -1.59824 0
M  V30 3464 H 316.981 -5.69436 0.664482 0
M  V30 3465 H 315.378 -5.82445 1.4449 0
M  V30 3466 H 316.448 -4.4753 1.86668 0
M  V30 3467 N 317.792 -0.46758 -1.50504 0
M  V30 3468 C 319.069 0.15003 -1.95024 0
M  V30 3469 C 319.449 1.57304 -1.40779 0
M  V30 3470 O 318.797 2.20281 -0.607319 0
M  V30 3471 C 319.007 0.0969324 -3.48865 0
M  V30 3472 C 320.355 0.287565 -4.23625 0
M  V30 3473 O 321.379 0.173678 -3.55776 0
M  V30 3474 O 320.238 0.517186 -5.44047 0
M  V30 3475 H 317.332 0.113582 -0.819163 0
M  V30 3476 H 319.878 -0.52773 -1.61286 0
M  V30 3477 H 318.65 -0.896732 -3.80886 0
M  V30 3478 H 318.273 0.816303 -3.8913 0
M  V30 3479 N 319.27 1.56325 -0.20005 0
M  V30 3480 C 320.2 2.22318 0.713916 0
M  V30 3481 C 321.181 1.18788 1.21752 0
M  V30 3482 O 322.366 1.47309 1.26545 0
M  V30 3483 C 319.496 2.88639 1.93144 0
M  V30 3484 C 318.45 3.98457 1.56255 0
M  V30 3485 C 317.776 4.51967 2.85709 0
M  V30 3486 C 319.076 5.16612 0.768747 0
M  V30 3487 H 320.77 2.98952 0.163755 0
M  V30 3488 H 318.316 1.43792 0.0773219 0
M  V30 3489 H 320.269 3.33491 2.57608 0
M  V30 3490 H 318.993 2.09419 2.50621 0
M  V30 3491 H 317.652 3.54305 0.941471 0
M  V30 3492 H 317.3 3.69503 3.41287 0
M  V30 3493 H 317 5.26071 2.6177 0
M  V30 3494 H 318.524 4.99523 3.51154 0
M  V30 3495 H 319.938 5.57977 1.3166 0
M  V30 3496 H 318.335 5.96812 0.627286 0
M  V30 3497 H 319.405 4.84358 -0.229168 0
M  V30 3498 N 320.748 -0.0735177 1.57428 0
M  V30 3499 C 321.711 -1.07192 2.02589 0
M  V30 3500 C 322.711 -1.31695 0.922661 0
M  V30 3501 O 323.901 -1.27445 1.18758 0
M  V30 3502 C 321.033 -2.41599 2.40506 0
M  V30 3503 H 322.226 -0.682727 2.92025 0
M  V30 3504 H 319.779 -0.319193 1.53006 0
M  V30 3505 H 320.514 -2.85354 1.5409 0
M  V30 3506 H 320.299 -2.25156 3.21009 0
M  V30 3507 H 321.789 -3.13367 2.76027 0
M  V30 3508 N 322.226 -1.5378 -0.344866 0
M  V30 3509 C 323.189 -1.80981 -1.40637 0
M  V30 3510 C 324.189 -0.680816 -1.45676 0
M  V30 3511 O 325.379 -0.949095 -1.46075 0
M  V30 3512 C 322.511 -1.95063 -2.79577 0
M  V30 3513 H 323.704 -2.75803 -1.17783 0
M  V30 3514 H 321.257 -1.45173 -0.579181 0
M  V30 3515 H 321.992 -1.02379 -3.07716 0
M  V30 3516 H 321.777 -2.77198 -2.77315 0
M  V30 3517 H 323.267 -2.17629 -3.56409 0
M  V30 3518 N 323.704 0.605807 -1.45491 0
M  V30 3519 C 324.651 1.7164 -1.54299 0
M  V30 3520 C 325.621 1.61486 -0.388761 0
M  V30 3521 O 326.806 1.81039 -0.602445 0
M  V30 3522 C 323.946 3.09953 -1.51734 0
M  V30 3523 C 323.059 3.309 -2.77721 0
M  V30 3524 C 322.194 4.59329 -2.66816 0
M  V30 3525 C 321.233 4.7354 -3.87848 0
M  V30 3526 N 320.37 5.9327 -3.75467 0
M  V30 3527 H 325.21 1.63449 -2.49176 0
M  V30 3528 H 322.747 0.796957 -1.23641 0
M  V30 3529 H 324.705 3.89977 -1.48235 0
M  V30 3530 H 323.335 3.17098 -0.604068 0
M  V30 3531 H 322.387 2.44639 -2.913 0
M  V30 3532 H 323.699 3.37274 -3.67488 0
M  V30 3533 H 322.853 5.4755 -2.61292 0
M  V30 3534 H 321.592 4.55355 -1.74651 0
M  V30 3535 H 320.597 3.83741 -3.93729 0
M  V30 3536 H 321.822 4.79309 -4.81082 0
M  V30 3537 H 319.768 5.90338 -2.86072 0
M  V30 3538 H 319.685 6.00811 -4.5887 0
M  V30 3539 H 320.953 6.83984 -3.73879 0
M  V30 3540 N 325.182 1.32811 0.848464 0
M  V30 3541 C 326.428 1.23907 1.60546 0
M  V30 3542 C 326.761 -0.197161 1.93197 0
M  V30 3543 O 326.036 -1.13596 1.5788 0
M  V30 3544 C 326.319 2.10489 2.92175 0
M  V30 3545 C 326.172 3.62522 2.66266 0
M  V30 3546 C 327.491 1.97075 3.93509 0
M  V30 3547 H 324.61 0.451459 0.58254 0
M  V30 3548 H 327.252 1.62818 0.979296 0
M  V30 3549 H 325.402 1.77434 3.45614 0
M  V30 3550 H 327.074 4.05821 2.19334 0
M  V30 3551 H 325.317 3.84879 2.00126 0
M  V30 3552 H 325.988 4.18437 3.6002 0
M  V30 3553 H 328.464 2.26045 3.49346 0
M  V30 3554 H 327.34 2.59923 4.83457 0
M  V30 3555 H 327.601 0.940186 4.31987 0
M  V30 3556 N 326.66 -1.06551 1.16123 0
M  V30 3557 C 327.937 -1.76097 0.85142 0
M  V30 3558 C 328.317 -2.00802 -0.6513 0
M  V30 3559 O 327.665 -1.63302 -1.59827 0
M  V30 3560 C 327.875 -3.06384 1.67122 0
M  V30 3561 C 329.223 -3.80585 1.88255 0
M  V30 3562 O 330.247 -3.16218 1.63966 0
M  V30 3563 O 329.106 -4.96212 2.2899 0
M  V30 3564 H 326.2 -0.765102 0.313923 0
M  V30 3565 H 328.746 -1.12844 1.26745 0
M  V30 3566 H 327.518 -2.84071 2.69108 0
M  V30 3567 H 327.141 -3.77371 1.25206 0
M  V30 3568 N 328.138 -0.959301 -1.25041 0
M  V30 3569 C 329.101 -0.487677 -2.23952 0
M  V30 3570 C 330.101 0.41119 -1.55454 0
M  V30 3571 O 331.291 0.207825 -1.72956 0
M  V30 3572 C 328.423 0.294807 -3.39623 0
M  V30 3573 H 329.616 -1.36198 -2.67189 0
M  V30 3574 H 327.169 -0.743042 -1.37508 0
M  V30 3575 H 327.904 1.18658 -3.01813 0
M  V30 3576 H 327.689 -0.35012 -3.90534 0
M  V30 3577 H 329.179 0.614089 -4.1306 0
M  V30 3578 N 329.616 1.39756 -0.72842 0
M  V30 3579 C 330.844 2.04948 -0.283528 0
M  V30 3580 C 331.259 1.54908 1.0793 0
M  V30 3581 O 330.616 0.711135 1.68075 0
M  V30 3582 C 330.667 3.60498 -0.268957 0
M  V30 3583 O 330.388 4.08695 -1.57798 0
M  V30 3584 C 331.889 4.4288 0.192912 0
M  V30 3585 H 329.109 0.659243 -0.125056 0
M  V30 3586 H 331.653 1.78927 -0.990226 0
M  V30 3587 H 329.808 3.85444 0.388801 0
M  V30 3588 H 330.222 5.02977 -1.48709 0
M  V30 3589 H 331.696 5.51791 0.151952 0
M  V30 3590 H 332.173 4.21418 1.23708 0
M  V30 3591 H 332.779 4.23069 -0.435039 0
M  V30 3592 N 331.094 0.475555 1.50254 0
M  V30 3593 C 332.057 -0.305016 2.27161 0
M  V30 3594 C 333.057 -0.916519 1.32123 0
M  V30 3595 O 334.247 -0.785003 1.5551 0
M  V30 3596 C 331.379 -1.43496 3.09227 0
M  V30 3597 H 332.572 0.369511 2.97615 0
M  V30 3598 H 330.125 0.229747 1.54602 0
M  V30 3599 H 330.86 -2.14441 2.43281 0
M  V30 3600 H 330.645 -1.00223 3.79075 0
M  V30 3601 H 332.135 -1.98548 3.67381 0
M  V30 3602 N 332.573 -1.56217 0.208337 0
M  V30 3603 C 333.85 -1.89739 -0.475234 0
M  V30 3604 C 334.23 -1.1238 -1.78701 0
M  V30 3605 O 333.578 -0.228979 -2.2735 0
M  V30 3606 C 333.788 -3.42289 -0.681101 0
M  V30 3607 C 335.136 -4.12789 -0.994507 0
M  V30 3608 O 336.16 -3.47814 -0.768357 0
M  V30 3609 O 335.019 -5.27649 -1.42299 0
M  V30 3610 H 332.113 -0.788478 -0.249461 0
M  V30 3611 H 334.659 -1.67855 0.249538 0
M  V30 3612 H 333.431 -3.90534 0.244722 0
M  V30 3613 H 333.054 -3.69909 -1.45785 0
M  V30 3614 N 334.051 0.0651679 -1.57465 0
M  V30 3615 C 335.281 0.774683 -1.91526 0
M  V30 3616 C 335.689 1.71305 -0.803196 0
M  V30 3617 O 335.032 1.82231 0.231881 0
M  V30 3618 C 335.094 1.61645 -3.21109 0
M  V30 3619 C 334.758 0.846753 -4.49087 0
M  V30 3620 C 335.755 0.163024 -5.19644 0
M  V30 3621 C 333.44 0.811966 -4.95694 0
M  V30 3622 C 335.434 -0.54519 -6.35064 0
M  V30 3623 C 333.121 0.0999836 -6.11018 0
M  V30 3624 C 334.119 -0.577388 -6.80555 0
M  V30 3625 O 333.807 -1.27789 -7.93678 0
M  V30 3626 H 333.539 0.225031 -0.637446 0
M  V30 3627 H 336.093 0.0377134 -2.05365 0
M  V30 3628 H 334.323 2.39638 -3.03497 0
M  V30 3629 H 336.012 2.20525 -3.40769 0
M  V30 3630 H 336.778 0.181163 -4.84662 0
M  V30 3631 H 332.657 1.32867 -4.41438 0
M  V30 3632 H 336.201 -1.07446 -6.89276 0
M  V30 3633 H 332.098 0.0797945 -6.45451 0
M  V30 3634 H 332.866 -1.18784 -8.09835 0
M  V30 3635 N 335.529 1.53961 0.336706 0
M  V30 3636 C 336.778 1.70751 1.07363 0
M  V30 3637 C 337.091 0.481061 1.89592 0
M  V30 3638 O 338.297 0.530046 2.66276 0
M  V30 3639 C 336.753 3.01965 1.95818 0
M  V30 3640 C 336.361 4.31971 1.18764 0
M  V30 3641 C 338.105 3.28121 2.69327 0
M  V30 3642 C 336.012 5.54255 2.06289 0
M  V30 3643 H 334.942 0.636292 0.404535 0
M  V30 3644 H 337.593 1.80459 0.332681 0
M  V30 3645 H 335.975 2.86132 2.7376 0
M  V30 3646 H 337.149 4.5853 0.456849 0
M  V30 3647 H 335.464 4.12481 0.569946 0
M  V30 3648 H 338.061 4.16673 3.35094 0
M  V30 3649 H 338.404 2.45426 3.36261 0
M  V30 3650 H 338.937 3.44762 1.98454 0
M  V30 3651 H 335.676 6.39513 1.43885 0
M  V30 3652 H 335.196 5.31935 2.77138 0
M  V30 3653 H 336.875 5.90159 2.65182 0
M  V30 3654 N 337.007 -0.598083 1.45811 0
M  V30 3655 C 338.247 -1.36802 1.5187 0
M  V30 3656 C 338.611 -1.9133 0.160224 0
M  V30 3657 O 339.812 -2.6863 0.0955302 0
M  V30 3658 C 338.083 -2.47835 2.57513 0
M  V30 3659 S 339.642 -3.35458 2.82866 0
M  V30 3660 H 336.46 -0.466278 0.536755 0
M  V30 3661 H 339.062 -0.689152 1.82951 0
M  V30 3662 H 337.766 -2.06141 3.54872 0
M  V30 3663 H 337.297 -3.20512 2.28114 0
M  V30 3664 H 339.312 -4.46251 2.16967 0
M  V30 3665 N 338.485 -1.33259 -0.841409 0
M  V30 3666 C 339.432 -1.23302 -1.95103 0
M  V30 3667 C 340.402 -0.112204 -1.65721 0
M  V30 3668 O 341.587 -0.290038 -1.88583 0
M  V30 3669 C 338.727 -0.975583 -3.31023 0
M  V30 3670 C 337.84 -2.18243 -3.72819 0
M  V30 3671 C 336.975 -1.85936 -4.97595 0
M  V30 3672 C 336.014 -3.02866 -5.3192 0
M  V30 3673 N 335.151 -2.70565 -6.47873 0
M  V30 3674 H 339.991 -2.18207 -2.02952 0
M  V30 3675 H 337.528 -1.0851 -0.993173 0
M  V30 3676 H 339.486 -0.80677 -4.09325 0
M  V30 3677 H 338.116 -0.0632755 -3.22738 0
M  V30 3678 H 337.168 -2.46107 -2.90061 0
M  V30 3679 H 338.48 -3.05666 -3.94169 0
M  V30 3680 H 337.634 -1.65684 -5.83638 0
M  V30 3681 H 336.373 -0.957452 -4.78209 0
M  V30 3682 H 335.378 -3.23736 -4.44382 0
M  V30 3683 H 336.603 -3.93809 -5.53255 0
M  V30 3684 H 334.549 -1.8293 -6.29978 0
M  V30 3685 H 334.466 -3.51519 -6.69306 0
M  V30 3686 H 335.734 -2.53774 -7.37034 0
M  V30 3687 N 339.963 1.05934 -1.16686 0
M  V30 3688 C 341.209 1.79065 -0.95203 0
M  V30 3689 C 341.542 1.87147 0.518629 0
M  V30 3690 O 340.817 1.36574 1.38484 0
M  V30 3691 C 341.1 3.23359 -1.58464 0
M  V30 3692 C 340.953 3.23336 -3.12689 0
M  V30 3693 C 342.272 4.21004 -1.28232 0
M  V30 3694 H 339.391 0.65005 -0.34728 0
M  V30 3695 H 342.033 1.23868 -1.44072 0
M  V30 3696 H 340.183 3.70493 -1.16908 0
M  V30 3697 H 341.855 2.84336 -3.6325 0
M  V30 3698 H 340.098 2.61886 -3.4583 0
M  V30 3699 H 340.769 4.25144 -3.52075 0
M  V30 3700 H 343.245 3.8233 -1.64203 0
M  V30 3701 H 342.121 5.20225 -1.75092 0
M  V30 3702 H 342.382 4.41639 -0.201791 0
M  V30 3703 N 341.441 0.965919 1.2453 0
M  V30 3704 C 342.388 0.49402 2.25451 0
M  V30 3705 C 343.358 -0.45948 1.59618 0
M  V30 3706 O 344.543 -0.370238 1.87173 0
M  V30 3707 C 341.683 -0.211359 3.44452 0
M  V30 3708 C 340.796 0.7807 4.24887 0
M  V30 3709 C 339.931 0.0516105 5.31175 0
M  V30 3710 C 338.97 1.03385 6.03306 0
M  V30 3711 N 338.107 0.334887 7.01301 0
M  V30 3712 H 342.947 1.35946 2.65184 0
M  V30 3713 H 340.484 0.681515 1.3036 0
M  V30 3714 H 342.442 -0.637 4.12308 0
M  V30 3715 H 341.072 -1.04077 3.05562 0
M  V30 3716 H 340.124 1.32479 3.56586 0
M  V30 3717 H 341.436 1.52978 4.74762 0
M  V30 3718 H 340.59 -0.432114 6.05159 0
M  V30 3719 H 339.329 -0.730179 4.82203 0
M  V30 3720 H 338.334 1.52847 5.28127 0
M  V30 3721 H 339.559 1.81606 6.54367 0
M  V30 3722 H 337.505 -0.427959 6.54603 0
M  V30 3723 H 337.422 1.02287 7.49048 0
M  V30 3724 H 338.69 -0.126928 7.79397 0
M  V30 3725 N 342.919 -1.39368 0.735821 0
M  V30 3726 C 344.165 -2.01272 0.293439 0
M  V30 3727 C 344.52 -1.57344 -1.10728 0
M  V30 3728 O 343.813 -0.792744 -1.74431 0
M  V30 3729 C 344.007 -3.5583 0.334651 0
M  V30 3730 C 343.836 -4.14764 1.73784 0
M  V30 3731 C 342.606 -4.47315 2.35026 0
M  V30 3732 C 344.804 -4.38246 2.69157 0
M  V30 3733 N 342.786 -4.91756 3.6749 0
M  V30 3734 C 344.157 -4.849 3.86357 0
M  V30 3735 C 346.212 -4.20315 2.66908 0
M  V30 3736 C 344.915 -5.15505 5.01645 0
M  V30 3737 C 346.941 -4.52033 3.8134 0
M  V30 3738 C 346.303 -4.98895 4.97276 0
M  V30 3739 H 342.402 -0.766756 0.153652 0
M  V30 3740 H 344.986 -1.69276 0.961967 0
M  V30 3741 H 343.157 -3.87212 -0.303527 0
M  V30 3742 H 344.889 -4.04503 -0.126358 0
M  V30 3743 H 341.644 -4.35143 1.86943 0
M  V30 3744 H 342.068 -5.18333 4.35499 0
M  V30 3745 H 346.71 -3.83287 1.78468 0
M  V30 3746 H 344.428 -5.51437 5.90713 0
M  V30 3747 H 348.014 -4.39781 3.80899 0
M  V30 3748 H 346.894 -5.22973 5.84353 0
M  V30 3749 N 344.397 -0.483516 -1.5 0
M  V30 3750 C 345.645 0.067027 -2.01989 0
M  V30 3751 C 345.966 1.3909 -1.36671 0
M  V30 3752 O 345.236 1.88978 -0.516152 0
M  V30 3753 H 343.816 0.0277606 -0.746484 0
M  V30 3754 H 346.478 -0.636773 -1.84204 0
M  V30 3755 H 345.574 0.209484 -3.11396 0
M  V30 3756 N 345.875 1.56104 -0.216619 0
M  V30 3757 C 347.152 1.89988 0.465165 0
M  V30 3758 C 347.532 1.13326 1.78102 0
M  V30 3759 O 346.88 0.241033 2.27225 0
M  V30 3760 C 347.09 3.42646 0.662939 0
M  V30 3761 C 348.438 4.13311 0.972602 0
M  V30 3762 O 349.462 3.48217 0.749901 0
M  V30 3763 O 348.321 5.28396 1.39499 0
M  V30 3764 H 345.415 0.78979 0.245276 0
M  V30 3765 H 347.961 1.67721 -0.258436 0
M  V30 3766 H 346.733 3.90399 -0.26543 0
M  V30 3767 H 346.356 3.70677 1.43821 0
M  V30 3768 N 347.353 -0.0568162 1.57498 0
M  V30 3769 C 348.602 -0.752001 1.87157 0
M  V30 3770 C 348.915 -1.77978 0.811375 0
M  V30 3771 O 350.121 -2.52559 0.996293 0
M  V30 3772 C 348.577 -1.38844 3.3204 0
M  V30 3773 C 348.185 -0.398456 4.46225 0
M  V30 3774 C 349.929 -2.06512 3.70882 0
M  V30 3775 C 347.836 -1.04166 5.82154 0
M  V30 3776 H 346.766 -0.28461 0.698222 0
M  V30 3777 H 349.417 -0.00561272 1.83499 0
M  V30 3778 H 347.799 -2.1836 3.30356 0
M  V30 3779 H 348.973 0.367977 4.59328 0
M  V30 3780 H 347.288 0.174592 4.16034 0
M  V30 3781 H 349.885 -2.55437 4.6974 0
M  V30 3782 H 350.228 -2.87117 3.01445 0
M  V30 3783 H 350.761 -1.33808 3.7462 0
M  V30 3784 H 347.5 -0.275614 6.5492 0
M  V30 3785 H 347.02 -1.7786 5.72823 0
M  V30 3786 H 348.699 -1.55715 6.27982 0
M  V30 3787 N 348.832 -1.54138 -0.328536 0
M  V30 3788 C 349.742 -1.86192 -1.42723 0
M  V30 3789 C 350.758 -0.753382 -1.56844 0
M  V30 3790 O 351.934 -1.04718 -1.72035 0
M  V30 3791 C 348.999 -2.07824 -2.77507 0
M  V30 3792 C 348.06 -3.31641 -2.72603 0
M  V30 3793 C 347.293 -3.52232 -4.00959 0
M  V30 3794 O 347.516 -2.7636 -4.9898 0
M  V30 3795 O 346.45 -4.45699 -4.0452 0
M  V30 3796 H 350.276 -2.79608 -1.18547 0
M  V30 3797 H 347.861 -1.3998 -0.522104 0
M  V30 3798 H 349.743 -2.23411 -3.57303 0
M  V30 3799 H 348.418 -1.17596 -3.01584 0
M  V30 3800 H 347.325 -3.21444 -1.91376 0
M  V30 3801 H 348.658 -4.2191 -2.53481 0
M  V30 3802 N 350.31 0.590341 -1.46126 0
M  V30 3803 C 351.557 1.34882 -1.5104 0
M  V30 3804 C 351.885 1.93849 -0.159021 0
M  V30 3805 O 351.14 1.76544 0.844436 0
M  V30 3806 C 351.439 2.5032 -2.55097 0
M  V30 3807 C 351.105 2.09394 -3.99331 0
M  V30 3808 C 349.767 1.97947 -4.38601 0
M  V30 3809 C 352.119 1.77712 -4.89967 0
M  V30 3810 C 349.447 1.53065 -5.66381 0
M  V30 3811 C 351.799 1.34312 -6.18177 0
M  V30 3812 C 350.463 1.21436 -6.56361 0
M  V30 3813 H 349.733 0.493568 -0.552695 0
M  V30 3814 H 352.38 0.665539 -1.79563 0
M  V30 3815 H 350.685 3.24062 -2.20207 0
M  V30 3816 H 352.382 3.08541 -2.56132 0
M  V30 3817 H 348.972 2.19235 -3.68285 0
M  V30 3818 H 353.156 1.85445 -4.60352 0
M  V30 3819 H 348.412 1.41733 -5.94745 0
M  V30 3820 H 352.586 1.08849 -6.87841 0
M  V30 3821 H 350.213 0.864345 -7.5527 0
M  V30 3822 N 351.788 1.33704 0.83433 0
M  V30 3823 C 353.199 1.22813 1.4062 0
M  V30 3824 C 353.55 -0.151107 1.95617 0
M  V30 3825 O 352.675 -1.05092 1.89168 0
M  V30 3826 C 353.27 2.22355 2.55624 0
M  V30 3827 C 351.829 2.1529 3.08751 0
M  V30 3828 C 350.976 2.09589 1.8157 0
M  V30 3829 H 353.927 1.45236 0.639702 0
M  V30 3830 H 353.948 1.83391 3.33389 0
M  V30 3831 H 353.46 3.22728 2.15566 0
M  V30 3832 H 351.561 1.18235 3.53343 0
M  V30 3833 H 351.674 3.06038 3.68616 0
M  V30 3834 H 350.038 1.55134 2.02004 0
M  V30 3835 H 350.821 3.11777 1.43701 0
M  V30 3836 N 353.266 -1.05314 1.17247 0
M  V30 3837 C 354.677 -1.59753 0.96623 0
M  V30 3838 C 355.028 -1.9005 -0.487378 0
M  V30 3839 O 354.153 -1.68126 -1.36245 0
M  V30 3840 C 354.748 -2.90249 1.74759 0
M  V30 3841 C 353.307 -3.41352 1.58606 0
M  V30 3842 C 352.454 -2.15103 1.75002 0
M  V30 3843 H 355.405 -0.881406 1.31973 0
M  V30 3844 H 355.426 -3.60097 1.22925 0
M  V30 3845 H 354.938 -2.68166 2.8055 0
M  V30 3846 H 353.039 -3.68474 0.552985 0
M  V30 3847 H 353.152 -4.16019 2.37624 0
M  V30 3848 H 351.516 -2.25804 1.17833 0
M  V30 3849 H 352.299 -1.95491 2.82202 0
M  V30 3850 N 354.744 -0.972509 -1.24016 0
M  V30 3851 C 356.155 -0.67517 -1.74064 0
M  V30 3852 C 356.506 0.808939 -1.78747 0
M  V30 3853 O 355.631 1.63286 -1.42009 0
M  V30 3854 C 356.226 -1.21889 -3.16115 0
M  V30 3855 C 354.785 -0.971358 -3.6365 0
M  V30 3856 C 353.932 -1.35134 -2.42145 0
M  V30 3857 H 356.883 -1.14727 -1.09651 0
M  V30 3858 H 356.904 -0.587489 -3.75937 0
M  V30 3859 H 356.416 -2.29906 -3.12674 0
M  V30 3860 H 354.517 0.0930686 -3.72484 0
M  V30 3861 H 354.63 -1.62039 -4.50866 0
M  V30 3862 H 352.994 -0.769751 -2.4279 0
M  V30 3863 H 353.777 -2.4411 -2.41381 0
M  V30 3864 N 356.222 1.38976 -0.743202 0
M  V30 3865 C 357.469 2.00343 -0.294752 0
M  V30 3866 C 357.797 1.58983 1.12047 0
M  V30 3867 O 357.052 0.813809 1.77977 0
M  V30 3868 C 357.351 3.55647 -0.353517 0
M  V30 3869 C 357.017 4.16685 -1.72292 0
M  V30 3870 C 355.679 4.3307 -2.09771 0
M  V30 3871 C 358.031 4.50464 -2.62168 0
M  V30 3872 C 355.359 4.80526 -3.36618 0
M  V30 3873 C 357.711 4.99332 -3.88395 0
M  V30 3874 C 356.375 5.13924 -4.25956 0
M  V30 3875 H 355.645 0.733108 -0.107857 0
M  V30 3876 H 358.292 1.6618 -0.951651 0
M  V30 3877 H 356.597 3.89884 0.386954 0
M  V30 3878 H 358.294 4.00998 0.0117269 0
M  V30 3879 H 354.884 4.04339 -1.42155 0
M  V30 3880 H 359.068 4.37416 -2.3448 0
M  V30 3881 H 354.324 4.90008 -3.65653 0
M  V30 3882 H 358.498 5.2444 -4.58187 0
M  V30 3883 H 356.125 5.50457 -5.2431 0
M  V30 3884 N 357.7 0.491464 1.49741 0
M  V30 3885 C 358.948 -0.0563141 2.02022 0
M  V30 3886 C 359.269 -1.38363 1.37407 0
M  V30 3887 O 358.539 -1.88702 0.526166 0
M  V30 3888 H 357.119 -0.0238014 0.746621 0
M  V30 3889 H 359.781 0.646533 1.83864 0
M  V30 3890 H 358.877 -0.192967 3.11503 0
M  V30 3891 N 359.178 -1.55987 0.224894 0
M  V30 3892 C 360.594 -1.59066 -0.130426 0
M  V30 3893 C 360.794 -1.24176 -1.5869 0
M  V30 3894 O 359.85 -0.978592 -2.32766 0
M  V30 3895 C 361.163 -3.00042 0.198883 0
M  V30 3896 C 362.711 -3.1268 0.141391 0
M  V30 3897 C 363.186 -4.55839 0.444422 0
M  V30 3898 N 364.677 -4.6152 0.394115 0
M  V30 3899 C 365.412 -5.70231 0.602038 0
M  V30 3900 N 364.908 -6.87291 0.871914 0
M  V30 3901 N 366.701 -5.59555 0.534245 0
M  V30 3902 H 358.852 -1.76941 1.17497 0
M  V30 3903 H 361.115 -0.822604 0.471197 0
M  V30 3904 H 360.821 -3.30234 1.2099 0
M  V30 3905 H 360.695 -3.74075 -0.484535 0
M  V30 3906 H 363.082 -2.82283 -0.860265 0
M  V30 3907 H 363.163 -2.40969 0.858335 0
M  V30 3908 H 362.807 -4.86954 1.44353 0
M  V30 3909 H 362.737 -5.2578 -0.293752 0
M  V30 3910 H 365.228 -3.77405 0.193356 0
M  V30 3911 H 365.541 -7.66058 1.01858 0
M  V30 3912 H 363.886 -6.89028 0.909145 0
M  V30 3913 H 367.077 -4.6698 0.323612 0
M  V30 3914 H 367.25 -6.44211 0.699693 0
M  V30 3915 N 360.656 0.0484629 -1.57525 0
M  V30 3916 C 361.566 1.07241 -2.08654 0
M  V30 3917 C 362.582 1.409 -1.02095 0
M  V30 3918 O 363.758 1.50609 -1.33712 0
M  V30 3919 C 360.823 2.36008 -2.5397 0
M  V30 3920 C 359.884 2.09108 -3.7493 0
M  V30 3921 C 359.117 3.31736 -4.18075 0
M  V30 3922 O 359.34 4.41714 -3.60895 0
M  V30 3923 O 358.274 3.18576 -5.10679 0
M  V30 3924 H 362.1 0.667965 -2.96263 0
M  V30 3925 H 359.685 0.26417 -1.47046 0
M  V30 3926 H 361.567 3.11747 -2.83535 0
M  V30 3927 H 360.242 2.75786 -1.69481 0
M  V30 3928 H 359.149 1.31 -3.50414 0
M  V30 3929 H 360.482 1.74198 -4.60343 0
M  V30 3930 N 362.134 1.5431 0.320358 0
M  V30 3931 C 363.097 1.83195 1.3774 0
M  V30 3932 C 364.097 0.703906 1.44575 0
M  V30 3933 O 365.287 0.972214 1.44546 0
M  V30 3934 C 362.419 1.99487 2.76438 0
M  V30 3935 H 363.612 2.77642 1.1338 0
M  V30 3936 H 361.165 1.46076 0.556012 0
M  V30 3937 H 361.9 1.07262 3.06048 0
M  V30 3938 H 361.685 2.81575 2.7287 0
M  V30 3939 H 363.175 2.23271 3.52902 0
M  V30 3940 N 363.613 -0.582584 1.46437 0
M  V30 3941 C 364.843 -1.36484 1.55099 0
M  V30 3942 C 365.251 -1.88233 0.191056 0
M  V30 3943 O 364.594 -1.6429 -0.821858 0
M  V30 3944 C 364.656 -2.588 2.49525 0
M  V30 3945 C 364.32 -2.28517 3.95764 0
M  V30 3946 C 365.317 -1.87346 4.84972 0
M  V30 3947 C 363.002 -2.40658 4.40896 0
M  V30 3948 C 364.996 -1.5871 6.17325 0
M  V30 3949 C 362.683 -2.11635 5.73284 0
M  V30 3950 C 363.681 -1.70725 6.61318 0
M  V30 3951 O 363.369 -1.42057 7.91249 0
M  V30 3952 H 363.101 -0.423297 0.527063 0
M  V30 3953 H 365.655 -0.715188 1.92547 0
M  V30 3954 H 363.885 -3.26571 2.07095 0
M  V30 3955 H 365.574 -3.20868 2.48593 0
M  V30 3956 H 366.34 -1.77481 4.5136 0
M  V30 3957 H 362.219 -2.71463 3.72598 0
M  V30 3958 H 365.763 -1.26704 6.85997 0
M  V30 3959 H 361.66 -2.21124 6.06444 0
M  V30 3960 H 362.428 -1.55901 8.03515 0
M  V30 3961 N 365.091 -1.34144 -0.827227 0
M  V30 3962 C 366.502 -1.23557 -1.39966 0
M  V30 3963 C 366.853 0.140731 -1.95695 0
M  V30 3964 O 365.978 1.04087 -1.89723 0
M  V30 3965 C 366.573 -2.23708 -2.54441 0
M  V30 3966 C 365.132 -2.16924 -3.07605 0
M  V30 3967 C 364.279 -2.10549 -1.80456 0
M  V30 3968 H 367.23 -1.45573 -0.631991 0
M  V30 3969 H 367.251 -1.85157 -3.32411 0
M  V30 3970 H 366.763 -3.23866 -2.13851 0
M  V30 3971 H 364.864 -1.20107 -3.52711 0
M  V30 3972 H 364.977 -3.07988 -3.66988 0
M  V30 3973 H 363.341 -1.56203 -2.01178 0
M  V30 3974 H 364.124 -3.12535 -1.42046 0
M  V30 3975 N 366.569 1.04691 -1.17803 0
M  V30 3976 C 367.479 2.16057 -0.914151 0
M  V30 3977 C 368.495 1.73589 0.119503 0
M  V30 3978 O 369.671 2.01308 -0.0609468 0
M  V30 3979 C 366.736 3.4394 -0.436603 0
M  V30 3980 C 365.797 4.00825 -1.53746 0
M  V30 3981 C 365.03 5.22604 -1.0826 0
M  V30 3982 O 365.253 5.70367 0.0612244 0
M  V30 3983 O 364.187 5.7186 -1.87775 0
M  V30 3984 H 368.013 2.41169 -1.84584 0
M  V30 3985 H 365.598 1.1453 -0.959334 0
M  V30 3986 H 367.48 4.21024 -0.178057 0
M  V30 3987 H 366.155 3.20316 0.466869 0
M  V30 3988 H 365.062 3.25158 -1.84995 0
M  V30 3989 H 366.395 4.28778 -2.41683 0
M  V30 3990 N 368.047 0.979072 1.23499 0
M  V30 3991 C 368.957 0.526431 2.28617 0
M  V30 3992 C 369.973 -0.418126 1.68901 0
M  V30 3993 O 371.149 -0.288372 1.99325 0
M  V30 3994 C 368.214 -0.165235 3.46306 0
M  V30 3995 C 367.275 0.82056 4.21385 0
M  V30 3996 C 366.508 0.161807 5.33455 0
M  V30 3997 O 366.731 -1.04742 5.60701 0
M  V30 3998 O 365.665 0.859708 5.95729 0
M  V30 3999 H 369.491 1.4006 2.69475 0
M  V30 4000 H 367.076 0.746643 1.29405 0
M  V30 4001 H 368.958 -0.553287 4.17752 0
M  V30 4002 H 367.633 -1.01419 3.07402 0
M  V30 4003 H 366.54 1.25929 3.52268 0
M  V30 4004 H 367.873 1.63828 4.64135 0
M  V30 4005 N 369.525 -1.3858 0.750561 0
M  V30 4006 C 370.488 -2.28836 0.129152 0
M  V30 4007 C 371.488 -1.47045 -0.650714 0
M  V30 4008 O 372.678 -1.6753 -0.477428 0
M  V30 4009 C 369.81 -3.30751 -0.825622 0
M  V30 4010 H 371.003 -2.85294 0.924516 0
M  V30 4011 H 368.556 -1.47489 0.517376 0
M  V30 4012 H 369.291 -2.79378 -1.64677 0
M  V30 4013 H 369.076 -3.91177 -0.268852 0
M  V30 4014 H 370.566 -3.98249 -1.2565 0
M  V30 4015 N 371.003 -0.499398 -1.49478 0
M  V30 4016 C 372.233 0.0424839 -2.06556 0
M  V30 4017 C 372.641 1.31514 -1.36018 0
M  V30 4018 O 371.984 1.78555 -0.431718 0
M  V30 4019 C 372.046 0.368074 -3.57611 0
M  V30 4020 C 371.71 -0.806631 -4.49825 0
M  V30 4021 C 372.707 -1.69667 -4.91436 0
M  V30 4022 C 370.392 -1.00498 -4.92144 0
M  V30 4023 C 372.386 -2.76923 -5.74101 0
M  V30 4024 C 370.073 -2.08072 -5.74586 0
M  V30 4025 C 371.071 -2.96119 -6.15469 0
M  V30 4026 O 370.759 -4.01836 -6.96264 0
M  V30 4027 H 370.491 -0.0165165 -0.675798 0
M  V30 4028 H 373.045 -0.695497 -1.93267 0
M  V30 4029 H 371.275 1.15963 -3.68903 0
M  V30 4030 H 372.964 0.848381 -3.96935 0
M  V30 4031 H 373.73 -1.55524 -4.59388 0
M  V30 4032 H 369.609 -0.329036 -4.59824 0
M  V30 4033 H 373.153 -3.45676 -6.05932 0
M  V30 4034 H 369.05 -2.22211 -6.06047 0
M  V30 4035 H 369.818 -3.9917 -7.14567 0
M  V30 4036 N 372.481 1.55866 -0.233164 0
M  V30 4037 C 373.73 1.97779 0.39579 0
M  V30 4038 C 374.043 1.12419 1.60066 0
M  V30 4039 O 375.249 1.44283 2.29988 0
M  V30 4040 C 373.705 3.5188 0.755556 0
M  V30 4041 C 373.313 4.45959 -0.427152 0
M  V30 4042 C 375.057 4.02479 1.34946 0
M  V30 4043 C 372.964 5.91383 -0.0443043 0
M  V30 4044 H 371.894 0.738592 0.15165 0
M  V30 4045 H 374.545 1.80486 -0.331212 0
M  V30 4046 H 372.927 3.64816 1.5403 0
M  V30 4047 H 374.101 4.44776 -1.20462 0
M  V30 4048 H 372.416 4.05765 -0.935068 0
M  V30 4049 H 375.013 5.08637 1.649 0
M  V30 4050 H 375.356 3.49014 2.26925 0
M  V30 4051 H 375.889 3.92813 0.62791 0
M  V30 4052 H 372.628 6.48857 -0.930874 0
M  V30 4053 H 372.148 5.95734 0.697238 0
M  V30 4054 H 373.827 6.45893 0.378334 0
M  V30 4055 N 373.959 -0.0401083 1.57549 0
M  V30 4056 C 374.922 -1.02871 2.04817 0
M  V30 4057 C 375.922 -1.29708 0.950388 0
M  V30 4058 O 377.112 -1.24897 1.21435 0
M  V30 4059 C 374.244 -2.36443 2.45576 0
M  V30 4060 H 375.437 -0.620631 2.93408 0
M  V30 4061 H 372.99 -0.286667 1.53649 0
M  V30 4062 H 373.725 -2.82021 1.60108 0
M  V30 4063 H 373.51 -2.18296 3.25713 0
M  V30 4064 H 375 -3.07441 2.82612 0
M  V30 4065 N 375.437 -1.54477 -0.31217 0
M  V30 4066 C 376.714 -1.63891 -1.06767 0
M  V30 4067 C 377.094 -0.480028 -2.0557 0
M  V30 4068 O 376.442 0.524487 -2.22399 0
M  V30 4069 C 376.652 -3.01402 -1.75948 0
M  V30 4070 C 378 -3.57838 -2.28554 0
M  V30 4071 O 379.024 -3.03782 -1.85998 0
M  V30 4072 O 377.883 -4.52462 -3.06497 0
M  V30 4073 H 374.977 -0.664125 -0.492816 0
M  V30 4074 H 377.523 -1.66823 -0.311149 0
M  V30 4075 H 376.295 -3.77187 -1.04144 0
M  V30 4076 H 375.918 -3.02199 -2.58383 0
M  V30 4077 N 376.915 0.57481 -1.46744 0
M  V30 4078 C 377.845 1.69337 -1.60771 0
M  V30 4079 C 378.826 1.63825 -0.457736 0
M  V30 4080 O 380.011 1.8172 -0.684947 0
M  V30 4081 C 377.141 3.0798 -1.60517 0
M  V30 4082 C 376.095 3.28327 -2.74564 0
M  V30 4083 C 375.421 4.67578 -2.59373 0
M  V30 4084 C 376.721 3.15398 -4.16319 0
M  V30 4085 H 378.415 1.57853 -2.54407 0
M  V30 4086 H 375.961 0.75799 -1.22436 0
M  V30 4087 H 377.914 3.86061 -1.68923 0
M  V30 4088 H 376.638 3.20381 -0.634305 0
M  V30 4089 H 375.297 2.52649 -2.65639 0
M  V30 4090 H 374.945 4.76755 -1.60353 0
M  V30 4091 H 374.645 4.82144 -3.35873 0
M  V30 4092 H 376.169 5.47817 -2.69682 0
M  V30 4093 H 377.583 3.83315 -4.26313 0
M  V30 4094 H 375.98 3.41482 -4.93468 0
M  V30 4095 H 377.05 2.12372 -4.3592 0
M  V30 4096 N 378.394 1.34581 0.820102 0
M  V30 4097 C 379.671 1.17675 1.56244 0
M  V30 4098 C 380.051 -0.249541 2.0962 0
M  V30 4099 O 379.399 -1.25125 1.91196 0
M  V30 4100 C 379.609 2.23364 2.6816 0
M  V30 4101 C 380.957 2.58485 3.36854 0
M  V30 4102 O 381.981 2.22175 2.78418 0
M  V30 4103 O 380.84 3.20868 4.42386 0
M  V30 4104 H 377.934 0.456333 0.689702 0
M  V30 4105 H 380.48 1.46222 0.861231 0
M  V30 4106 H 379.252 3.19087 2.26493 0
M  V30 4107 H 378.875 1.96009 3.45928 0
M  V30 4108 N 379.872 -1.04064 1.18357 0
M  V30 4109 C 380.835 -2.10243 0.912707 0
M  V30 4110 C 381.835 -1.60477 -0.101928 0
M  V30 4111 O 383.025 -1.73703 0.131517 0
M  V30 4112 C 380.157 -3.38893 0.369387 0
M  V30 4113 H 381.35 -2.35706 1.85426 0
M  V30 4114 H 378.903 -1.20489 0.995594 0
M  V30 4115 H 379.638 -3.19094 -0.578776 0
M  V30 4116 H 379.423 -3.76331 1.1008 0
M  V30 4117 H 380.913 -4.17128 0.198575 0
M  V30 4118 N 381.35 -0.985608 -1.22978 0
M  V30 4119 C 382.297 -0.529825 -2.24636 0
M  V30 4120 C 383.267 0.434028 -1.60329 0
M  V30 4121 O 384.452 0.340414 -1.87739 0
M  V30 4122 C 381.592 0.156533 -3.44745 0
M  V30 4123 C 380.705 -0.848197 -4.23591 0
M  V30 4124 C 379.84 -0.136109 -5.31026 0
M  V30 4125 C 378.879 -1.1297 -6.01585 0
M  V30 4126 N 378.016 -0.446415 -7.00679 0
M  V30 4127 H 382.856 -1.40148 -2.62988 0
M  V30 4128 H 380.393 -0.702168 -1.29259 0
M  V30 4129 H 382.351 0.571324 -4.1327 0
M  V30 4130 H 380.981 0.992025 -3.07179 0
M  V30 4131 H 380.033 -1.38135 -3.54433 0
M  V30 4132 H 381.345 -1.60512 -4.72268 0
M  V30 4133 H 380.499 0.335784 -6.0577 0
M  V30 4134 H 379.238 0.653373 -4.83304 0
M  V30 4135 H 378.243 -1.6123 -5.25628 0
M  V30 4136 H 379.468 -1.91993 -6.51395 0
M  V30 4137 H 377.414 0.323763 -6.55201 0
M  V30 4138 H 377.331 -1.1419 -7.47326 0
M  V30 4139 H 378.599 0.00291697 -7.795 0
M  V30 4140 N 382.828 1.3818 -0.7579 0
M  V30 4141 C 384.053 2.04827 -0.325679 0
M  V30 4142 C 384.478 1.56788 1.03919 0
M  V30 4143 O 383.836 0.721811 1.66312 0
M  V30 4144 C 383.884 3.58774 -0.362447 0
M  V30 4145 O 382.988 4.07372 0.642033 0
M  V30 4146 H 382.329 0.64833 -0.143402 0
M  V30 4147 H 384.859 1.7677 -1.03023 0
M  V30 4148 H 384.869 4.07434 -0.214844 0
M  V30 4149 H 383.544 3.93096 -1.35824 0
M  V30 4150 H 382.121 3.70068 0.458688 0
M  V30 4151 N 384.306 0.507319 1.49211 0
M  V30 4152 C 385.554 -0.0348839 2.0207 0
M  V30 4153 C 385.875 -1.36898 1.38866 0
M  V30 4154 O 385.145 -1.88133 0.546151 0
M  V30 4155 H 383.725 -0.0158812 0.746831 0
M  V30 4156 H 386.387 0.665998 1.83168 0
M  V30 4157 H 385.483 -0.159917 3.1169 0
M  V30 4158 N 385.784 -1.5574 0.241426 0
M  V30 4159 C 386.747 -2.19877 -0.647063 0
M  V30 4160 C 387.747 -1.16642 -1.10686 0
M  V30 4161 O 388.937 -1.41757 -1.01245 0
M  V30 4162 C 386.069 -2.83797 -1.88871 0
M  V30 4163 H 387.262 -2.99772 -0.087574 0
M  V30 4164 H 384.815 -1.56298 -0.00813574 0
M  V30 4165 H 385.55 -2.07824 -2.48957 0
M  V30 4166 H 385.335 -3.59414 -1.56728 0
M  V30 4167 H 386.825 -3.32898 -2.52129 0
M  V30 4168 N 387.262 0.0317525 -1.57568 0
M  V30 4169 C 388.487 0.738664 -1.938 0
M  V30 4170 C 388.912 1.68242 -0.841208 0
M  V30 4171 O 388.27 1.80157 0.203267 0
M  V30 4172 C 388.318 1.47417 -3.29091 0
M  V30 4173 O 387.422 2.5872 -3.2115 0
M  V30 4174 H 386.763 0.198856 -0.633524 0
M  V30 4175 H 389.293 -0.0119713 -2.04596 0
M  V30 4176 H 389.303 1.84468 -3.63917 0
M  V30 4177 H 387.978 0.781988 -4.08482 0
M  V30 4178 H 386.555 2.24231 -2.97951 0
M  V30 4179 N 388.74 1.54641 0.303973 0
M  V30 4180 C 389.67 1.88386 1.3796 0
M  V30 4181 C 390.651 0.742485 1.5304 0
M  V30 4182 O 391.836 0.997959 1.66597 0
M  V30 4183 C 388.966 2.12854 2.74427 0
M  V30 4184 C 387.92 3.28702 2.74115 0
M  V30 4185 C 387.246 3.38582 4.13844 0
M  V30 4186 C 388.546 4.65881 2.3612 0
M  V30 4187 H 390.24 2.78474 1.09966 0
M  V30 4188 H 387.786 1.33988 0.527556 0
M  V30 4189 H 389.739 2.35047 3.49758 0
M  V30 4190 H 388.463 1.19535 3.03939 0
M  V30 4191 H 387.122 3.06428 2.0124 0
M  V30 4192 H 386.77 2.42784 4.40528 0
M  V30 4193 H 386.47 4.16453 4.14537 0
M  V30 4194 H 387.994 3.63031 4.90959 0
M  V30 4195 H 389.408 4.87823 3.01167 0
M  V30 4196 H 387.805 5.46444 2.48031 0
M  V30 4197 H 388.875 4.66799 1.3125 0
M  V30 4198 N 390.218 -0.567019 1.47046 0
M  V30 4199 C 391.165 -1.67489 1.58796 0
M  V30 4200 C 392.135 -1.60399 0.43144 0
M  V30 4201 O 393.32 -1.79378 0.650233 0
M  V30 4202 C 390.46 -3.05821 1.59899 0
M  V30 4203 C 389.573 -3.2342 2.86397 0
M  V30 4204 C 388.708 -4.52093 2.789 0
M  V30 4205 C 387.747 -4.6309 4.00267 0
M  V30 4206 N 386.884 -5.83106 3.91064 0
M  V30 4207 H 391.724 -1.56785 2.53422 0
M  V30 4208 H 389.261 -0.763896 1.2571 0
M  V30 4209 H 391.219 -3.8591 1.58522 0
M  V30 4210 H 389.849 -3.15384 0.687929 0
M  V30 4211 H 388.901 -2.3683 2.97684 0
M  V30 4212 H 390.213 -3.27412 3.76301 0
M  V30 4213 H 389.367 -5.4043 2.75718 0
M  V30 4214 H 388.106 -4.50565 1.86662 0
M  V30 4215 H 387.111 -3.73168 4.03765 0
M  V30 4216 H 388.336 -4.66386 4.93621 0
M  V30 4217 H 386.282 -5.82546 3.01623 0
M  V30 4218 H 386.199 -5.88434 4.74638 0
M  V30 4219 H 387.467 -6.73831 3.91882 0
M  V30 4220 N 391.696 -1.35014 -0.812953 0
M  V30 4221 C 392.626 -1.30069 -1.93919 0
M  V30 4222 C 393.607 -0.176275 -1.69184 0
M  V30 4223 O 394.792 -0.370227 -1.90638 0
M  V30 4224 C 391.922 -1.06547 -3.30552 0
M  V30 4225 C 390.876 -2.15561 -3.69753 0
M  V30 4226 C 390.202 -1.77214 -5.04479 0
M  V30 4227 C 391.502 -3.57476 -3.808 0
M  V30 4228 H 393.196 -2.24303 -1.98314 0
M  V30 4229 H 390.742 -1.07977 -0.952736 0
M  V30 4230 H 392.695 -1.01729 -4.08937 0
M  V30 4231 H 391.419 -0.0875719 -3.26483 0
M  V30 4232 H 390.078 -2.19466 -2.9365 0
M  V30 4233 H 389.726 -0.780589 -4.96906 0
M  V30 4234 H 389.426 -2.50184 -5.31678 0
M  V30 4235 H 390.95 -1.7391 -5.8531 0
M  V30 4236 H 392.364 -3.55929 -4.4943 0
M  V30 4237 H 390.761 -4.29152 -4.19462 0
M  V30 4238 H 391.831 -3.94091 -2.82525 0
M  V30 4239 N 393.175 1.03435 -1.18907 0
M  V30 4240 C 394.403 1.80381 -1.01342 0
M  V30 4241 C 394.818 1.83649 0.438005 0
M  V30 4242 O 394.175 1.27655 1.30424 0
M  V30 4243 C 394.226 3.25689 -1.56873 0
M  V30 4244 O 393.947 3.22673 -2.96334 0
M  V30 4245 C 395.448 4.19255 -1.44014 0
M  V30 4246 H 392.668 0.56784 -0.35749 0
M  V30 4247 H 395.212 1.30317 -1.576 0
M  V30 4248 H 393.367 3.72962 -1.04777 0
M  V30 4249 H 393.781 4.13748 -3.22355 0
M  V30 4250 H 395.255 5.19123 -1.87657 0
M  V30 4251 H 395.732 4.37467 -0.389815 0
M  V30 4252 H 396.338 3.77851 -1.95214 0
M  V30 4253 N 394.653 0.992116 1.22453 0
M  V30 4254 C 395.583 0.561677 2.26644 0
M  V30 4255 C 396.564 -0.411055 1.65059 0
M  V30 4256 O 397.749 -0.301861 1.9184 0
M  V30 4257 C 394.879 -0.125247 3.47074 0
M  V30 4258 C 393.833 0.765948 4.21091 0
M  V30 4259 C 393.159 -0.0538484 5.34673 0
M  V30 4260 C 394.459 2.06242 4.79856 0
M  V30 4261 H 396.153 1.43259 2.62902 0
M  V30 4262 H 393.699 0.690283 1.26377 0
M  V30 4263 H 395.652 -0.437764 4.1912 0
M  V30 4264 H 394.376 -1.03069 3.0991 0
M  V30 4265 H 393.035 1.0621 3.50878 0
M  V30 4266 H 392.683 -0.960188 4.9375 0
M  V30 4267 H 392.383 0.539415 5.85119 0
M  V30 4268 H 393.907 -0.360477 6.09535 0
M  V30 4269 H 395.321 1.8139 5.43848 0
M  V30 4270 H 393.718 2.60444 5.40638 0
M  V30 4271 H 394.788 2.74167 3.99951 0
M  V30 4272 N 396.131 -1.37776 0.765217 0
M  V30 4273 C 397.061 -2.32945 0.160953 0
M  V30 4274 C 398.042 -1.55454 -0.690516 0
M  V30 4275 O 399.227 -1.83721 -0.629318 0
M  V30 4276 C 396.357 -3.39669 -0.724031 0
M  V30 4277 C 395.311 -4.27992 0.0256173 0
M  V30 4278 C 394.637 -5.25673 -0.978383 0
M  V30 4279 C 395.937 -5.08309 1.20082 0
M  V30 4280 H 397.631 -2.83728 0.955969 0
M  V30 4281 H 395.177 -1.36416 0.461149 0
M  V30 4282 H 397.13 -4.05219 -1.15652 0
M  V30 4283 H 395.854 -2.87396 -1.5515 0
M  V30 4284 H 394.513 -3.63964 0.438812 0
M  V30 4285 H 394.161 -4.69682 -1.80022 0
M  V30 4286 H 393.861 -5.85625 -0.481378 0
M  V30 4287 H 395.385 -5.94098 -1.40995 0
M  V30 4288 H 396.799 -5.67034 0.845307 0
M  V30 4289 H 395.196 -5.77554 1.62947 0
M  V30 4290 H 396.266 -4.41365 2.00811 0
M  V30 4291 N 397.609 -0.515225 -1.4894 0
M  V30 4292 C 398.557 0.269115 -2.31038 0
M  V30 4293 C 399.551 0.949443 -1.40292 0
M  V30 4294 O 400.757 0.87551 -1.57273 0
M  V30 4295 H 397.132 0.10565 -0.744542 0
M  V30 4296 H 399.103 -0.443096 -2.95092 0
M  V30 4297 C 397.852 1.31213 -3.21991 0
M  V30 4298 H 397.175 0.798034 -3.91754 0
M  V30 4299 H 398.615 1.83263 -3.82349 0
M  V30 4300 C 397.074 2.33791 -2.42576 0
M  V30 4301 O 397.604 3.3995 -2.14003 0
M  V30 4302 N 395.81 2.06625 -2.0434 0
M  V30 4303 H 395.357 1.20314 -2.27777 0
M  V30 4304 H 395.315 2.75483 -1.51514 0
M  V30 4305 N 399.087 1.5561 -0.249682 0
M  V30 4306 C 400.498 1.84979 0.252949 0
M  V30 4307 C 400.849 1.17153 1.57384 0
M  V30 4308 O 399.974 0.450884 2.11651 0
M  V30 4309 C 400.569 3.35584 0.465732 0
M  V30 4310 C 399.128 3.65169 0.912624 0
M  V30 4311 C 398.275 2.77299 -0.00859085 0
M  V30 4312 H 401.226 1.51513 -0.47217 0
M  V30 4313 H 401.247 3.57313 1.30795 0
M  V30 4314 H 400.759 3.8492 -0.49579 0
M  V30 4315 H 398.86 3.21312 1.88652 0
M  V30 4316 H 398.973 4.72912 0.767559 0
M  V30 4317 H 397.337 2.49678 0.50327 0
M  V30 4318 H 398.12 3.29442 -0.965537 0
M  V30 4319 N 400.565 -0.0233959 1.57583 0
M  V30 4320 C 401.512 -1.02224 2.06927 0
M  V30 4321 C 402.482 -1.35575 0.959617 0
M  V30 4322 O 403.667 -1.45815 1.23055 0
M  V30 4323 C 400.807 -2.31636 2.5581 0
M  V30 4324 C 399.92 -2.04394 3.80588 0
M  V30 4325 C 399.055 -3.27717 4.18061 0
M  V30 4326 C 398.094 -2.96056 5.3574 0
M  V30 4327 N 397.231 -4.11847 5.68618 0
M  V30 4328 H 402.071 -0.594504 2.9201 0
M  V30 4329 H 399.608 -0.281921 1.44373 0
M  V30 4330 H 401.566 -3.07258 2.82221 0
M  V30 4331 H 400.196 -2.72122 1.73636 0
M  V30 4332 H 399.248 -1.19244 3.61227 0
M  V30 4333 H 400.56 -1.77042 4.66323 0
M  V30 4334 H 399.714 -4.11702 4.4563 0
M  V30 4335 H 398.453 -3.58188 3.30988 0
M  V30 4336 H 397.458 -2.10474 5.07918 0
M  V30 4337 H 398.683 -2.66857 6.24471 0
M  V30 4338 H 396.629 -4.42258 4.84504 0
M  V30 4339 H 396.546 -3.87938 6.48876 0
M  V30 4340 H 397.814 -4.96689 6.00766 0
M  V30 4341 N 402.043 -1.548 -0.295768 0
M  V30 4342 C 403.291 -1.73985 -1.02828 0
M  V30 4343 C 403.612 -0.531406 -1.87619 0
M  V30 4344 O 402.882 0.454221 -1.90561 0
M  V30 4345 H 401.462 -0.641556 -0.382642 0
M  V30 4346 H 404.124 -1.92163 -0.325489 0
M  V30 4347 H 403.22 -2.63129 -1.67838 0
M  V30 4348 N 403.521 0.559213 -1.47345 0
M  V30 4349 C 404.937 0.884943 -1.32819 0
M  V30 4350 C 405.137 1.98988 -0.317173 0
M  V30 4351 O 404.193 2.51031 0.272011 0
M  V30 4352 C 405.506 1.28007 -2.72093 0
M  V30 4353 C 407.054 1.39161 -2.80363 0
M  V30 4354 C 407.529 1.82031 -4.20272 0
M  V30 4355 N 409.02 1.89185 -4.22804 0
M  V30 4356 C 409.755 2.2368 -5.27973 0
M  V30 4357 N 409.251 2.56802 -6.43447 0
M  V30 4358 N 411.044 2.24436 -5.15349 0
M  V30 4359 H 403.195 -0.170304 -2.11716 0
M  V30 4360 H 405.458 -0.0135247 -0.947904 0
M  V30 4361 H 405.164 0.542027 -3.47498 0
M  V30 4362 H 405.038 2.23665 -3.03733 0
M  V30 4363 H 407.425 2.12048 -2.05231 0
M  V30 4364 H 407.506 0.41696 -2.52379 0
M  V30 4365 H 407.15 1.09715 -4.95908 0
M  V30 4366 H 407.08 2.80495 -4.45679 0
M  V30 4367 H 409.571 1.65982 -3.39497 0
M  V30 4368 H 409.884 2.82144 -7.19454 0
M  V30 4369 H 408.229 2.54387 -6.46771 0
M  V30 4370 H 411.42 1.97998 -4.24163 0
M  V30 4371 H 411.593 2.50989 -5.97418 0
M  V30 4372 N 404.999 1.35443 0.805782 0
M  V30 4373 C 406.248 1.28097 1.55801 0
M  V30 4374 C 406.561 -0.142428 1.95081 0
M  V30 4375 O 407.767 -0.33817 2.69386 0
M  V30 4376 C 406.223 2.24653 2.81174 0
M  V30 4377 C 405.831 3.72342 2.49129 0
M  V30 4378 C 407.575 2.2625 3.59181 0
M  V30 4379 C 405.482 4.60719 3.70799 0
M  V30 4380 H 404.412 0.475937 0.584808 0
M  V30 4381 H 407.063 1.60712 0.885661 0
M  V30 4382 H 405.445 1.85011 3.50124 0
M  V30 4383 H 406.619 4.20624 1.88181 0
M  V30 4384 H 404.934 3.73361 1.84366 0
M  V30 4385 H 407.531 2.89495 4.49552 0
M  V30 4386 H 407.874 1.26647 3.96568 0
M  V30 4387 H 408.407 2.64426 2.97193 0
M  V30 4388 H 405.146 5.61324 3.3852 0
M  V30 4389 H 404.666 4.17163 4.3097 0
M  V30 4390 H 406.345 4.76182 4.38018 0
M  V30 4391 N 406.477 -1.02803 1.19454 0
M  V30 4392 C 407.723 -1.76598 1.0092 0
M  V30 4393 C 408.078 -1.86939 -0.455142 0
M  V30 4394 O 407.371 -1.37575 -1.33355 0
M  V30 4395 C 407.565 -3.18941 1.6128 0
M  V30 4396 C 407.394 -3.22476 3.13431 0
M  V30 4397 C 406.164 -3.30375 3.82336 0
M  V30 4398 C 408.362 -3.09451 4.10785 0
M  V30 4399 N 406.344 -3.23292 5.21877 0
M  V30 4400 C 407.715 -3.10012 5.36929 0
M  V30 4401 C 409.77 -2.93585 4.02135 0
M  V30 4402 C 408.473 -2.96334 6.55423 0
M  V30 4403 C 410.499 -2.81256 5.20239 0
M  V30 4404 C 409.861 -2.82472 6.45282 0
M  V30 4405 H 405.96 -0.657447 0.423424 0
M  V30 4406 H 408.544 -1.22369 1.5144 0
M  V30 4407 H 406.715 -3.71489 1.1336 0
M  V30 4408 H 408.447 -3.81102 1.36173 0
M  V30 4409 H 405.202 -3.3663 3.33132 0
M  V30 4410 H 405.626 -3.23156 5.94894 0
M  V30 4411 H 410.268 -2.91466 3.0628 0
M  V30 4412 H 407.986 -2.97203 7.51463 0
M  V30 4413 H 411.572 -2.70014 5.15348 0
M  V30 4414 H 410.452 -2.73036 7.35133 0
M  V30 4415 N 407.956 -0.998596 -1.21925 0
M  V30 4416 C 409.184 -0.696286 -1.94832 0
M  V30 4417 C 409.599 0.740032 -1.73692 0
M  V30 4418 O 408.956 1.5 -1.03953 0
M  V30 4419 C 409.007 -0.999833 -3.47398 0
M  V30 4420 O 408.728 -2.37972 -3.67833 0
M  V30 4421 C 410.229 -0.716025 -4.37479 0
M  V30 4422 H 407.449 -0.257111 -0.619786 0
M  V30 4423 H 409.993 -1.33491 -1.54921 0
M  V30 4424 H 408.148 -0.406918 -3.85257 0
M  V30 4425 H 408.562 -2.48338 -4.61983 0
M  V30 4426 H 410.036 -0.978642 -5.43256 0
M  V30 4427 H 410.513 0.349968 -4.37803 0
M  V30 4428 H 411.119 -1.29025 -4.05256 0
M  V30 4429 N 409.434 1.37368 -0.772513 0
M  V30 4430 C 410.367 2.27956 -0.105593 0
M  V30 4431 C 411.345 1.46362 0.708295 0
M  V30 4432 O 412.529 1.75695 0.682895 0
M  V30 4433 C 409.656 3.27687 0.856686 0
M  V30 4434 C 408.702 4.26312 0.1267 0
M  V30 4435 S 409.535 5.22206 -1.1858 0
M  V30 4436 C 410.691 6.25488 -0.227081 0
M  V30 4437 H 410.924 2.84171 -0.87372 0
M  V30 4438 H 408.457 1.43654 -0.565939 0
M  V30 4439 H 410.415 3.85653 1.40648 0
M  V30 4440 H 409.076 2.70417 1.59793 0
M  V30 4441 H 408.269 4.96674 0.856212 0
M  V30 4442 H 407.871 3.72339 -0.352117 0
M  V30 4443 H 410.163 6.74836 0.600231 0
M  V30 4444 H 411.106 7.02371 -0.898899 0
M  V30 4445 H 411.514 5.64267 0.162053 0
M  V30 4446 N 410.912 0.523116 1.48665 0
M  V30 4447 C 412.158 -0.0134963 2.02796 0
M  V30 4448 C 412.491 -1.34582 1.40004 0
M  V30 4449 O 411.766 -1.86756 0.543381 0
M  V30 4450 C 412.049 -0.14276 3.59817 0
M  V30 4451 C 411.902 1.21425 4.331 0
M  V30 4452 C 413.221 -0.872856 4.31357 0
M  V30 4453 H 410.34 -0.00343074 0.736992 0
M  V30 4454 H 412.982 0.678816 1.7746 0
M  V30 4455 H 411.132 -0.732401 3.81534 0
M  V30 4456 H 412.804 1.84447 4.2282 0
M  V30 4457 H 411.047 1.79791 3.94788 0
M  V30 4458 H 411.718 1.07687 5.41394 0
M  V30 4459 H 414.194 -0.372555 4.14429 0
M  V30 4460 H 413.07 -0.932185 5.40927 0
M  V30 4461 H 413.331 -1.92161 3.98154 0
M  V30 4462 N 412.39 -1.55475 0.257931 0
M  V30 4463 C 413.353 -2.20551 -0.623706 0
M  V30 4464 C 414.353 -1.17809 -1.09443 0
M  V30 4465 O 415.543 -1.42823 -0.997362 0
M  V30 4466 C 412.675 -2.85784 -1.8585 0
M  V30 4467 H 413.868 -2.99848 -0.0557743 0
M  V30 4468 H 411.421 -1.56298 0.0084422 0
M  V30 4469 H 412.156 -2.10453 -2.46739 0
M  V30 4470 H 411.941 -3.61057 -1.52907 0
M  V30 4471 H 413.431 -3.35553 -2.48584 0
M  V30 4472 N 413.868 0.0150385 -1.57593 0
M  V30 4473 C 415.116 0.701613 -1.8953 0
M  V30 4474 C 415.437 1.75139 -0.857396 0
M  V30 4475 O 414.707 1.95607 0.107194 0
M  V30 4476 H 413.287 0.26213 -0.699498 0
M  V30 4477 H 415.949 -0.0223304 -1.94887 0
M  V30 4478 H 415.045 1.18236 -2.88837 0
M  V30 4479 N 415.346 1.54954 0.287554 0
M  V30 4480 C 416.594 1.74528 1.01904 0
M  V30 4481 C 416.915 0.541349 1.87335 0
M  V30 4482 O 416.185 -0.444108 1.908 0
M  V30 4483 H 414.765 0.643576 0.379235 0
M  V30 4484 H 417.427 1.92333 0.315294 0
M  V30 4485 H 416.523 2.64015 1.6644 0
M  V30 4486 N 416.824 -0.551391 1.4764 0
M  V30 4487 C 418.072 -1.30572 1.54258 0
M  V30 4488 C 418.393 -1.93877 0.208963 0
M  V30 4489 O 417.663 -1.80234 -0.767619 0
M  V30 4490 H 416.243 -0.484894 0.568231 0
M  V30 4491 H 418.905 -0.643402 1.83974 0
M  V30 4492 H 418.001 -2.09621 2.31226 0
M  V30 4493 N 418.302 -1.35869 -0.798587 0
M  V30 4494 C 419.265 -1.29307 -1.89242 0
M  V30 4495 C 420.265 -0.202747 -1.59517 0
M  V30 4496 O 421.455 -0.456957 -1.681 0
M  V30 4497 C 418.587 -1.00229 -3.25833 0
M  V30 4498 H 419.78 -2.26576 -1.96478 0
M  V30 4499 H 417.333 -1.20509 -0.995358 0
M  V30 4500 H 418.068 -0.033801 -3.24282 0
M  V30 4501 H 417.853 -1.79121 -3.48795 0
M  V30 4502 H 419.343 -0.98219 -4.05885 0
M  V30 4503 N 419.78 1.02168 -1.19998 0
M  V30 4504 C 421.005 1.79833 -1.03319 0
M  V30 4505 C 421.43 1.83504 0.413281 0
M  V30 4506 O 420.788 1.26635 1.29743 0
M  V30 4507 C 420.836 3.22396 -1.61533 0
M  V30 4508 O 419.94 4.03555 -0.849519 0
M  V30 4509 H 419.281 0.554872 -0.364709 0
M  V30 4510 H 421.811 1.28542 -1.59179 0
M  V30 4511 H 421.821 3.73124 -1.65054 0
M  V30 4512 H 420.496 3.19039 -2.66809 0
M  V30 4513 H 419.073 3.62169 -0.888129 0
M  V30 4514 N 421.258 1.00505 1.21394 0
M  V30 4515 C 422.504 0.688793 1.90745 0
M  V30 4516 C 422.837 -0.778486 1.77914 0
M  V30 4517 O 422.112 -1.56433 1.15581 0
M  V30 4518 C 422.395 1.11063 3.42545 0
M  V30 4519 C 422.248 2.63737 3.64367 0
M  V30 4520 C 423.567 0.673059 4.34923 0
M  V30 4521 H 420.686 0.251702 0.692687 0
M  V30 4522 H 423.328 1.25074 1.43026 0
M  V30 4523 H 421.478 0.632508 3.83317 0
M  V30 4524 H 423.15 3.19313 3.32922 0
M  V30 4525 H 421.393 3.05248 3.08231 0
M  V30 4526 H 422.064 2.88305 4.70727 0
M  V30 4527 H 424.54 1.08392 4.01734 0
M  V30 4528 H 423.416 0.996383 5.39781 0
M  V30 4529 H 423.677 -0.425808 4.40045 0
M  V30 4530 N 422.737 -1.36956 0.779787 0
M  V30 4531 C 423.983 -1.99787 0.348281 0
M  V30 4532 C 424.316 -1.61756 -1.07465 0
M  V30 4533 O 423.591 -0.867639 -1.74075 0
M  V30 4534 C 423.874 -3.56597 0.50104 0
M  V30 4535 C 423.727 -4.04513 1.96697 0
M  V30 4536 C 425.046 -4.40008 -0.0898097 0
M  V30 4537 H 422.165 -0.725796 0.128022 0
M  V30 4538 H 424.807 -1.62514 0.984331 0
M  V30 4539 H 422.957 -3.88479 -0.0404347 0
M  V30 4540 H 424.629 -3.83161 2.56876 0
M  V30 4541 H 422.872 -3.56408 2.47297 0
M  V30 4542 H 423.543 -5.1352 2.02486 0
M  V30 4543 H 426.019 -4.14431 0.372293 0
M  V30 4544 H 424.895 -5.4888 0.0471605 0
M  V30 4545 H 425.156 -4.26035 -1.18096 0
M  V30 4546 N 424.215 -0.530993 -1.48385 0
M  V30 4547 C 425.445 -0.00133928 -2.066 0
M  V30 4548 C 425.853 1.28599 -1.38777 0
M  V30 4549 O 425.196 1.77599 -0.469495 0
M  V30 4550 C 425.258 0.292137 -3.58311 0
M  V30 4551 C 424.922 -0.901864 -4.48013 0
M  V30 4552 C 425.919 -1.80053 -4.87726 0
M  V30 4553 C 423.604 -1.10915 -4.89901 0
M  V30 4554 C 425.598 -2.89038 -5.68098 0
M  V30 4555 C 423.285 -2.20213 -5.70043 0
M  V30 4556 C 424.283 -3.09107 -6.0905 0
M  V30 4557 O 423.971 -4.16514 -6.87583 0
M  V30 4558 H 423.703 -0.0308475 -0.675296 0
M  V30 4559 H 426.257 -0.736335 -1.91748 0
M  V30 4560 H 424.487 1.08112 -3.7128 0
M  V30 4561 H 426.176 0.763994 -3.98645 0
M  V30 4562 H 426.942 -1.65234 -4.55986 0
M  V30 4563 H 422.821 -0.426498 -4.59023 0
M  V30 4564 H 426.365 -3.58451 -5.98464 0
M  V30 4565 H 422.262 -2.35016 -6.01197 0
M  V30 4566 H 423.03 -4.14237 -7.05939 0
M  V30 4567 N 425.693 1.55336 -0.266172 0
M  V30 4568 C 426.918 2.04258 0.359661 0
M  V30 4569 C 427.343 1.14359 1.49344 0
M  V30 4570 O 426.701 0.140369 1.80756 0
M  V30 4571 C 426.749 3.50997 0.826635 0
M  V30 4572 O 425.853 3.64204 1.93466 0
M  V30 4573 H 425.194 0.659668 0.075727 0
M  V30 4574 H 427.724 2.00694 -0.39786 0
M  V30 4575 H 427.734 3.9219 1.12477 0
M  V30 4576 H 426.409 4.159 -0.00293032 0
M  V30 4577 H 424.986 3.34913 1.63974 0
M  V30 4578 N 427.171 -0.0066808 1.57599 0
M  V30 4579 C 428.448 -0.729586 1.81484 0
M  V30 4580 C 428.828 -1.92359 0.869558 0
M  V30 4581 O 428.176 -2.28348 -0.0832533 0
M  V30 4582 C 428.386 -1.1416 3.29801 0
M  V30 4583 C 429.734 -1.54823 3.95367 0
M  V30 4584 O 430.758 -1.23558 3.34084 0
M  V30 4585 O 429.617 -2.12937 5.03309 0
M  V30 4586 H 426.711 -0.354674 0.747085 0
M  V30 4587 H 429.257 0.0182609 1.6969 0
M  V30 4588 H 428.029 -0.290231 3.90222 0
M  V30 4589 H 427.652 -1.94876 3.46568 0
M  V30 4590 N 428.649 -1.55105 -0.279332 0
M  V30 4591 C 429.877 -1.7943 -1.03017 0
M  V30 4592 C 430.292 -0.564456 -1.80165 0
M  V30 4593 O 429.649 0.466326 -1.76442 0
M  V30 4594 C 429.7 -3.0155 -1.99374 0
M  V30 4595 O 429.421 -4.19784 -1.25352 0
M  V30 4596 C 430.922 -3.3843 -2.86321 0
M  V30 4597 H 428.142 -0.597882 -0.304594 0
M  V30 4598 H 430.686 -2.02105 -0.312035 0
M  V30 4599 H 428.841 -2.81019 -2.66659 0
M  V30 4600 H 429.255 -4.88781 -1.90246 0
M  V30 4601 H 430.729 -4.27066 -3.49741 0
M  V30 4602 H 431.206 -2.57549 -3.5576 0
M  V30 4603 H 431.812 -3.61197 -2.24536 0
M  V30 4604 N 430.127 0.543554 -1.4793 0
M  V30 4605 C 431.376 1.29649 -1.54512 0
M  V30 4606 C 431.689 1.94382 -0.217973 0
M  V30 4607 O 432.895 2.71017 -0.161908 0
M  V30 4608 C 431.351 2.35175 -2.72435 0
M  V30 4609 C 430.959 1.76572 -4.11736 0
M  V30 4610 C 432.703 3.11564 -2.8832 0
M  V30 4611 C 430.61 2.79958 -5.20939 0
M  V30 4612 H 429.54 0.487541 -0.57517 0
M  V30 4613 H 432.191 0.575708 -1.74235 0
M  V30 4614 H 430.573 3.10229 -2.46118 0
M  V30 4615 H 431.747 1.07799 -4.48013 0
M  V30 4616 H 430.062 1.12722 -4.00852 0
M  V30 4617 H 432.659 3.88794 -3.67074 0
M  V30 4618 H 433.002 3.66594 -1.97268 0
M  V30 4619 H 433.535 2.43623 -3.14472 0
M  V30 4620 H 430.274 2.29766 -6.13912 0
M  V30 4621 H 429.794 3.47101 -4.89164 0
M  V30 4622 H 431.473 3.43198 -5.48474 0
M  V30 4623 N 431.605 1.3629 0.791371 0
M  V30 4624 C 432.845 1.31792 1.56238 0
M  V30 4625 C 433.209 -0.102237 1.91728 0
M  V30 4626 O 434.41 -0.271759 2.67423 0
M  V30 4627 C 432.681 2.21303 2.80642 0
M  V30 4628 S 434.24 2.34468 3.70904 0
M  V30 4629 H 431.058 0.468141 0.535131 0
M  V30 4630 H 433.66 1.71841 0.932246 0
M  V30 4631 H 432.364 3.23439 2.52617 0
M  V30 4632 H 431.895 1.82266 3.4863 0
M  V30 4633 H 433.91 1.54074 4.71673 0
M  V30 4634 N 433.083 -1.0153 1.20538 0
M  V30 4635 C 434.36 -1.72327 0.925343 0
M  V30 4636 C 434.74 -2.03383 -0.565547 0
M  V30 4637 O 434.088 -1.69934 -1.52757 0
M  V30 4638 C 434.298 -2.9902 1.79967 0
M  V30 4639 C 435.646 -3.72258 2.04228 0
M  V30 4640 O 436.67 -3.08979 1.77231 0
M  V30 4641 O 435.529 -4.86053 2.4983 0
M  V30 4642 H 432.623 -0.751099 0.346092 0
M  V30 4643 H 435.169 -1.07366 1.31417 0
M  V30 4644 H 433.941 -2.72402 2.80915 0
M  V30 4645 H 433.564 -3.71721 1.41099 0
M  V30 4646 N 434.561 -1.01147 -1.20859 0
M  V30 4647 C 435.491 -0.597663 -2.25722 0
M  V30 4648 C 436.472 0.384744 -1.65692 0
M  V30 4649 O 437.657 0.271303 -1.92296 0
M  V30 4650 C 434.787 0.0700149 -3.47229 0
M  V30 4651 C 433.741 -0.832843 -4.19819 0
M  V30 4652 C 433.067 -0.0312202 -5.34691 0
M  V30 4653 C 434.367 -2.1385 -4.76514 0
M  V30 4654 H 436.061 -1.47423 -2.60589 0
M  V30 4655 H 433.607 -0.710301 -1.25263 0
M  V30 4656 H 435.56 0.37103 -4.19763 0
M  V30 4657 H 434.284 0.981259 -3.11511 0
M  V30 4658 H 432.943 -1.11778 -3.49144 0
M  V30 4659 H 432.591 0.881515 -4.95215 0
M  V30 4660 H 432.291 -0.632434 -5.84187 0
M  V30 4661 H 433.815 0.26346 -6.10031 0
M  V30 4662 H 435.229 -1.9002 -5.40893 0
M  V30 4663 H 433.626 -2.69012 -5.36426 0
M  V30 4664 H 434.696 -2.80495 -3.95538 0
M  V30 4665 N 436.039 1.36541 -0.78704 0
M  V30 4666 C 437.287 1.98911 -0.357633 0
M  V30 4667 C 437.608 1.62778 1.07371 0
M  V30 4668 O 436.878 0.900612 1.73971 0
M  V30 4669 H 435.458 0.735734 -0.129246 0
M  V30 4670 H 438.12 1.66776 -1.00855 0
M  V30 4671 H 437.216 3.08874 -0.447549 0
M  V30 4672 N 437.518 0.538854 1.48102 0
M  V30 4673 C 438.766 0.00798599 2.02098 0
M  V30 4674 C 439.087 -1.33922 1.41739 0
M  V30 4675 O 438.357 -1.86932 0.585934 0
M  V30 4676 H 436.937 -3.62179e-05 0.747 0
M  V30 4677 H 439.599 0.7047 1.81714 0
M  V30 4678 H 438.695 -0.0937672 3.11959 0
M  V30 4679 N 438.996 -1.55193 0.274407 0
M  V30 4680 C 440.242 -1.99877 -0.343086 0
M  V30 4681 C 440.575 -1.16256 -1.55558 0
M  V30 4682 O 439.85 -0.232462 -1.93106 0
M  V30 4683 C 440.133 -3.52706 -0.725965 0
M  V30 4684 C 439.986 -4.47081 0.493818 0
M  V30 4685 C 441.305 -4.11422 -1.56268 0
M  V30 4686 H 438.424 -0.726625 -0.123229 0
M  V30 4687 H 441.066 -1.86136 0.38121 0
M  V30 4688 H 439.216 -3.64546 -1.34307 0
M  V30 4689 H 440.888 -4.47186 1.13237 0
M  V30 4690 H 439.131 -4.1877 1.13201 0
M  V30 4691 H 439.802 -5.51699 0.18217 0
M  V30 4692 H 442.278 -4.02855 -1.04151 0
M  V30 4693 H 441.154 -5.18568 -1.79939 0
M  V30 4694 H 441.415 -3.61607 -2.54348 0
M  V30 4695 N 440.474 -0.00167713 -1.576 0
M  V30 4696 C 441.422 1.0074 -2.09652 0
M  V30 4697 C 442.416 1.35483 -1.01689 0
M  V30 4698 O 443.622 1.34028 -1.20152 0
M  V30 4699 H 439.997 0.342537 -0.669457 0
M  V30 4700 H 441.968 0.542841 -2.93421 0
M  V30 4701 C 440.717 2.2899 -2.61647 0
M  V30 4702 H 440.04 2.03124 -3.44355 0
M  V30 4703 H 441.48 2.9787 -3.01744 0
M  V30 4704 C 439.939 3.00085 -1.53136 0
M  V30 4705 O 440.469 3.91135 -0.91524 0
M  V30 4706 N 438.675 2.6194 -1.25841 0
M  V30 4707 H 438.222 1.8798 -1.76129 0
M  V30 4708 H 438.18 3.09822 -0.534576 0
M  V30 4709 N 441.952 1.55251 0.271103 0
M  V30 4710 C 442.862 1.9136 1.35714 0
M  V30 4711 C 443.878 0.811075 1.5394 0
M  V30 4712 O 445.054 1.11031 1.6803 0
M  V30 4713 C 442.119 2.1798 2.69603 0
M  V30 4714 C 441.18 3.4153 2.60107 0
M  V30 4715 C 440.413 3.66871 3.8761 0
M  V30 4716 O 440.636 2.94689 4.8838 0
M  V30 4717 O 439.57 4.60405 3.87699 0
M  V30 4718 H 443.396 2.83815 1.08088 0
M  V30 4719 H 440.981 1.41821 0.469792 0
M  V30 4720 H 442.863 2.36518 3.48765 0
M  V30 4721 H 441.538 1.28708 2.97012 0
M  V30 4722 H 440.445 3.28325 1.79314 0
M  V30 4723 H 441.778 4.31027 2.37647 0
M  V30 4724 N 443.43 -0.535701 1.48216 0
M  V30 4725 C 444.36 -1.65014 1.65204 0
M  V30 4726 C 445.341 -1.62554 0.501011 0
M  V30 4727 O 446.526 -1.7984 0.732886 0
M  V30 4728 C 443.656 -3.03616 1.68626 0
M  V30 4729 C 442.61 -3.20932 2.83172 0
M  V30 4730 C 441.936 -4.60537 2.71679 0
M  V30 4731 C 443.236 -3.04249 4.24535 0
M  V30 4732 H 444.93 -1.51053 2.58502 0
M  V30 4733 H 442.476 -0.725262 1.24402 0
M  V30 4734 H 444.429 -3.81446 1.79099 0
M  V30 4735 H 443.153 -3.18587 0.719026 0
M  V30 4736 H 441.812 -2.45517 2.72244 0
M  V30 4737 H 441.46 -4.72336 1.72937 0
M  V30 4738 H 441.16 -4.73069 3.48538 0
M  V30 4739 H 442.684 -5.40475 2.84112 0
M  V30 4740 H 444.098 -3.71877 4.36326 0
M  V30 4741 H 442.495 -3.28278 5.02348 0
M  V30 4742 H 443.565 -2.00739 4.41397 0
M  V30 4743 N 444.908 -1.36708 -0.784132 0
M  V30 4744 C 445.871 -1.31307 -1.87859 0
M  V30 4745 C 446.871 -0.219654 -1.59293 0
M  V30 4746 O 448.061 -0.47476 -1.67606 0
M  V30 4747 C 445.193 -1.03679 -3.24751 0
M  V30 4748 H 446.386 -2.28647 -1.94064 0
M  V30 4749 H 443.939 -1.21558 -0.98252 0
M  V30 4750 H 444.674 -0.0681936 -3.24228 0
M  V30 4751 H 444.459 -1.82811 -3.46876 0
M  V30 4752 H 445.949 -1.02518 -4.04821 0
M  V30 4753 N 446.386 1.0089 -1.21074 0
M  V30 4754 C 447.334 2.11707 -0.963476 0
M  V30 4755 C 448.328 1.69172 0.0879032 0
M  V30 4756 O 449.534 1.79889 -0.0631415 0
M  V30 4757 H 445.909 0.692026 -0.294287 0
M  V30 4758 H 447.88 2.29743 -1.90422 0
M  V30 4759 C 446.629 3.43473 -0.540509 0
M  V30 4760 H 445.952 3.76634 -1.34114 0
M  V30 4761 H 447.392 4.22044 -0.406777 0
M  V30 4762 C 445.851 3.2849 0.748079 0
M  V30 4763 O 446.381 3.58883 1.8046 0
M  V30 4764 N 444.587 2.81715 0.713081 0
M  V30 4765 H 444.134 2.5718 -0.146973 0
M  V30 4766 H 444.092 2.72071 1.57558 0
M  V30 4767 N 447.864 1.01787 1.20321 0
M  V30 4768 C 449.094 0.72614 1.93419 0
M  V30 4769 C 449.502 -0.717317 1.75075 0
M  V30 4770 O 448.845 -1.49836 1.06278 0
M  V30 4771 C 448.907 0.983621 3.45782 0
M  V30 4772 C 448.571 2.41645 3.87888 0
M  V30 4773 C 449.568 3.39732 3.93545 0
M  V30 4774 C 447.253 2.75752 4.19841 0
M  V30 4775 C 449.247 4.69988 4.30569 0
M  V30 4776 C 446.934 4.06221 4.56539 0
M  V30 4777 C 447.932 5.0315 4.61876 0
M  V30 4778 O 447.62 6.31284 4.97731 0
M  V30 4779 H 447.352 0.265824 0.621541 0
M  V30 4780 H 449.906 1.3623 1.53722 0
M  V30 4781 H 448.136 0.290301 3.85609 0
M  V30 4782 H 449.825 0.683279 4.00108 0
M  V30 4783 H 450.591 3.14718 3.69022 0
M  V30 4784 H 446.47 2.00993 4.14877 0
M  V30 4785 H 450.014 5.45642 4.3465 0
M  V30 4786 H 445.911 4.31013 4.80518 0
M  V30 4787 H 446.679 6.35591 5.15719 0
M  V30 4788 N 449.342 -1.36122 0.79427 0
M  V30 4789 C 450.59 -1.98718 0.368177 0
M  V30 4790 C 450.911 -1.63345 -1.06506 0
M  V30 4791 O 450.181 -0.909825 -1.73491 0
M  V30 4792 H 448.761 -0.735038 0.133146 0
M  V30 4793 H 451.423 -1.66239 1.01739 0
M  V30 4794 H 450.519 -3.08633 0.463923 0
M  V30 4795 N 450.82 -0.546701 -1.47814 0
M  V30 4796 C 451.73 0.21026 -2.33656 0
M  V30 4797 C 452.746 0.922413 -1.47538 0
M  V30 4798 O 453.922 0.893652 -1.80488 0
M  V30 4799 C 450.987 1.23348 -3.24016 0
M  V30 4800 C 450.048 0.529883 -4.26017 0
M  V30 4801 C 449.281 1.50435 -5.12059 0
M  V30 4802 O 449.504 2.73837 -5.00369 0
M  V30 4803 O 448.438 1.03459 -5.92942 0
M  V30 4804 H 452.264 -0.493605 -2.99662 0
M  V30 4805 H 449.849 -0.307427 -1.46203 0
M  V30 4806 H 451.731 1.82438 -3.79861 0
M  V30 4807 H 450.406 1.91945 -2.60651 0
M  V30 4808 H 449.313 -0.101948 -3.73961 0
M  V30 4809 H 450.646 -0.11445 -4.92067 0
M  V30 4810 N 452.299 1.55045 -0.282633 0
M  V30 4811 C 453.529 2.03872 0.334635 0
M  V30 4812 C 453.937 1.16018 1.49454 0
M  V30 4813 O 453.28 0.174449 1.8287 0
M  V30 4814 C 453.342 3.48791 0.870905 0
M  V30 4815 C 453.006 4.56715 -0.161338 0
M  V30 4816 C 454.003 5.10513 -0.983466 0
M  V30 4817 C 451.688 5.01417 -0.297745 0
M  V30 4818 C 453.682 6.07538 -1.92811 0
M  V30 4819 C 451.369 5.98265 -1.24586 0
M  V30 4820 C 452.367 6.51208 -2.05954 0
M  V30 4821 O 452.055 7.46162 -2.99162 0
M  V30 4822 H 451.787 0.671324 0.0793742 0
M  V30 4823 H 454.341 2.01169 -0.41473 0
M  V30 4824 H 452.571 3.48758 1.67047 0
M  V30 4825 H 454.26 3.80916 1.40207 0
M  V30 4826 H 455.026 4.76785 -0.888856 0
M  V30 4827 H 450.905 4.59849 0.325604 0
M  V30 4828 H 454.449 6.48787 -2.56363 0
M  V30 4829 H 450.346 6.31412 -1.34126 0
M  V30 4830 H 451.114 7.63903 -2.93929 0
M  V30 4831 N 453.777 0.010035 1.57597 0
M  V30 4832 C 455.002 -0.687021 1.95691 0
M  V30 4833 C 455.427 -1.65952 0.885519 0
M  V30 4834 O 454.785 -1.80633 -0.15543 0
M  V30 4835 C 454.833 -1.3864 3.32884 0
M  V30 4836 O 453.937 -2.50115 3.27897 0
M  V30 4837 H 453.278 -0.181989 0.638573 0
M  V30 4838 H 455.808 0.0662122 2.04493 0
M  V30 4839 H 455.818 -1.74754 3.6868 0
M  V30 4840 H 454.493 -0.673411 4.10412 0
M  V30 4841 H 453.07 -2.16253 3.03791 0
M  V30 4842 N 455.255 -1.55392 -0.262866 0
M  V30 4843 C 456.503 -1.76127 -0.991147 0
M  V30 4844 C 456.824 -0.571083 -1.8645 0
M  V30 4845 O 456.094 0.413698 -1.91482 0
M  V30 4846 H 454.674 -0.649528 -0.368948 0
M  V30 4847 H 457.336 -1.9281 -0.284655 0
M  V30 4848 H 456.432 -2.6663 -1.62219 0
M  V30 4849 N 456.733 0.527833 -1.48498 0
M  V30 4850 C 457.696 1.61439 -1.62696 0
M  V30 4851 C 458.696 1.52824 -0.500136 0
M  V30 4852 O 459.886 1.56456 -0.765976 0
M  V30 4853 C 457.018 3.01063 -1.59918 0
M  V30 4854 H 458.211 1.50189 -2.59583 0
M  V30 4855 H 455.764 0.750055 -1.37127 0
M  V30 4856 H 456.499 3.17818 -0.645163 0
M  V30 4857 H 456.284 3.08725 -2.41726 0
M  V30 4858 H 457.774 3.80057 -1.73051 0
M  V30 4859 N 458.211 1.37122 0.776871 0
M  V30 4860 C 459.622 1.28667 1.35284 0
M  V30 4861 C 459.973 -0.0680035 1.96082 0
M  V30 4862 O 459.098 -0.969743 1.93455 0
M  V30 4863 C 459.693 2.32997 2.45963 0
M  V30 4864 C 458.252 2.28191 2.99342 0
M  V30 4865 C 457.399 2.17101 1.72517 0
M  V30 4866 H 460.35 1.47819 0.577527 0
M  V30 4867 H 460.371 1.97366 3.2531 0
M  V30 4868 H 459.883 3.3158 2.01684 0
M  V30 4869 H 457.984 1.33115 3.4801 0
M  V30 4870 H 458.097 3.21397 3.55304 0
M  V30 4871 H 456.461 1.63562 1.95242 0
M  V30 4872 H 457.244 3.17591 1.30348 0
M  V30 4873 N 459.689 -1.00246 1.21608 0
M  V30 4874 C 460.914 -1.78167 1.06167 0
M  V30 4875 C 461.339 -1.84138 -0.384035 0
M  V30 4876 O 460.697 -1.28683 -1.27712 0
M  V30 4877 C 460.745 -3.19786 1.66642 0
M  V30 4878 O 459.849 -4.02153 0.913613 0
M  V30 4879 H 459.19 -0.549 0.37349 0
M  V30 4880 H 461.72 -1.25994 1.61204 0
M  V30 4881 H 461.73 -3.70451 1.70969 0
M  V30 4882 H 460.405 -3.14754 2.7185 0
M  V30 4883 H 458.982 -3.60711 0.945635 0
M  V30 4884 N 461.167 -1.02423 -1.1978 0
M  V30 4885 C 462.077 -0.610919 -2.26506 0
M  V30 4886 C 463.093 0.355152 -1.70337 0
M  V30 4887 O 464.269 0.214195 -2.00258 0
M  V30 4888 C 461.334 0.0365921 -3.46681 0
M  V30 4889 C 460.395 -0.976389 -4.18049 0
M  V30 4890 C 459.628 -0.359683 -5.32487 0
M  V30 4891 O 459.851 0.838601 -5.64202 0
M  V30 4892 O 458.785 -1.08022 -5.92127 0
M  V30 4893 H 462.611 -1.49965 -2.64091 0
M  V30 4894 H 460.196 -0.794156 -1.26545 0
M  V30 4895 H 462.078 0.39786 -4.19518 0
M  V30 4896 H 460.753 0.899398 -3.10954 0
M  V30 4897 H 459.66 -1.38916 -3.47352 0
M  V30 4898 H 460.993 -1.80941 -4.57735 0
M  V30 4899 N 462.645 1.35699 -0.801477 0
M  V30 4900 C 463.577 2.28598 -0.166028 0
M  V30 4901 C 464.59 1.50044 0.631721 0
M  V30 4902 O 465.779 1.72339 0.464921 0
M  V30 4903 C 462.879 3.29625 0.787451 0
M  V30 4904 C 462.052 4.37384 0.037171 0
M  V30 4905 C 461.111 5.183 0.908375 0
M  V30 4906 O 460.137 5.68053 0.361189 0
M  V30 4907 N 461.339 5.35912 2.23112 0
M  V30 4908 H 464.104 2.83771 -0.964071 0
M  V30 4909 H 461.665 1.47994 -0.656469 0
M  V30 4910 H 463.657 3.80648 1.37439 0
M  V30 4911 H 462.227 2.75004 1.48632 0
M  V30 4912 H 461.447 3.87364 -0.730935 0
M  V30 4913 H 462.735 5.0653 -0.480109 0
M  V30 4914 H 462.133 4.97125 2.69968 0
M  V30 4915 H 460.69 5.90133 2.76741 0
M  V30 4916 N 464.123 0.554532 1.47522 0
M  V30 4917 C 465.055 -0.232106 2.28022 0
M  V30 4918 C 466.068 -0.881865 1.36847 0
M  V30 4919 O 467.257 -0.756168 1.61692 0
M  V30 4920 C 464.357 -1.34604 3.11022 0
M  V30 4921 C 463.53 -0.793582 4.30141 0
M  V30 4922 C 462.589 -1.79168 4.94758 0
M  V30 4923 O 461.615 -1.33886 5.5323 0
M  V30 4924 N 462.817 -3.12495 4.89211 0
M  V30 4925 H 465.582 0.458407 2.96173 0
M  V30 4926 H 463.143 0.390433 1.57122 0
M  V30 4927 H 465.135 -2.01243 3.51118 0
M  V30 4928 H 463.705 -1.93983 2.45131 0
M  V30 4929 H 462.925 0.0495025 3.94169 0
M  V30 4930 H 464.213 -0.403776 5.07195 0
M  V30 4931 H 463.611 -3.51931 4.42901 0
M  V30 4932 H 462.168 -3.74698 5.33333 0
M  V30 4933 N 465.601 -1.54893 0.290851 0
M  V30 4934 C 466.829 -2.04343 -0.324288 0
M  V30 4935 C 467.244 -1.16859 -1.48289 0
M  V30 4936 O 466.601 -0.192018 -1.81487 0
M  V30 4937 C 466.652 -3.52756 -0.79026 0
M  V30 4938 O 466.373 -4.36913 0.322213 0
M  V30 4939 C 467.874 -4.18161 -1.4716 0
M  V30 4940 H 465.094 -0.667135 -0.0719173 0
M  V30 4941 H 467.638 -1.99981 0.427529 0
M  V30 4942 H 465.793 -3.57511 -1.49213 0
M  V30 4943 H 466.207 -5.24486 -0.0387372 0
M  V30 4944 H 467.681 -5.23562 -1.7489 0
M  V30 4945 H 468.158 -3.67282 -2.40834 0
M  V30 4946 H 468.764 -4.17454 -0.813178 0
M  V30 4947 N 467.08 -0.0183926 -1.57589 0
M  V30 4948 C 468.31 0.67207 -1.95363 0
M  V30 4949 C 468.718 1.66807 -0.892872 0
M  V30 4950 O 468.061 1.83204 0.134958 0
M  V30 4951 C 468.123 1.44397 -3.29226 0
M  V30 4952 C 467.787 0.607511 -4.52944 0
M  V30 4953 C 468.784 -0.112657 -5.19778 0
M  V30 4954 C 466.469 0.548068 -4.99301 0
M  V30 4955 C 468.463 -0.881057 -6.31281 0
M  V30 4956 C 466.15 -0.224044 -6.10689 0
M  V30 4957 C 467.148 -0.937323 -6.76538 0
M  V30 4958 O 466.836 -1.6968 -7.85789 0
M  V30 4959 H 466.568 0.190925 -0.648478 0
M  V30 4960 H 469.122 -0.0711994 -2.05277 0
M  V30 4961 H 467.352 2.23214 -3.15773 0
M  V30 4962 H 469.041 2.02152 -3.51979 0
M  V30 4963 H 469.807 -0.0759998 -4.8494 0
M  V30 4964 H 465.686 1.09281 -4.4786 0
M  V30 4965 H 469.23 -1.43832 -6.82611 0
M  V30 4966 H 465.127 -0.262457 -6.44966 0
M  V30 4967 H 465.895 -1.61544 -8.024 0
M  V30 4968 N 468.558 1.5553 0.254621 0
M  V30 4969 C 469.835 1.6774 1.00611 0
M  V30 4970 C 470.215 0.555993 2.03647 0
M  V30 4971 O 469.563 -0.441583 2.24193 0
M  V30 4972 C 469.773 3.07725 1.6464 0
M  V30 4973 C 471.121 3.66074 2.15116 0
M  V30 4974 O 472.145 3.10476 1.74595 0
M  V30 4975 O 471.004 4.63526 2.89493 0
M  V30 4976 H 468.098 0.681958 0.467828 0
M  V30 4977 H 470.644 1.67863 0.24902 0
M  V30 4978 H 469.416 3.80792 0.900734 0
M  V30 4979 H 469.039 3.1158 2.46989 0
M  V30 4980 N 470.036 -0.519951 1.48776 0
M  V30 4981 C 471.266 -1.29783 1.60748 0
M  V30 4982 C 471.674 -1.87253 0.27072 0
M  V30 4983 O 471.017 -1.67628 -0.751438 0
M  V30 4984 C 471.079 -2.47984 2.60277 0
M  V30 4985 C 470.743 -2.11526 4.051 0
M  V30 4986 C 471.74 -1.66608 4.92481 0
M  V30 4987 C 469.425 -2.21742 4.50706 0
M  V30 4988 C 471.419 -1.32384 6.23501 0
M  V30 4989 C 469.106 -1.87129 5.81744 0
M  V30 4990 C 470.104 -1.42523 6.67964 0
M  V30 4991 O 469.792 -1.0837 7.96562 0
M  V30 4992 H 469.524 -0.400562 0.544542 0
M  V30 4993 H 472.078 -0.632879 1.95407 0
M  V30 4994 H 470.308 -3.17493 2.2076 0
M  V30 4995 H 471.997 -3.10036 2.61978 0
M  V30 4996 H 472.763 -1.58178 4.58481 0
M  V30 4997 H 468.642 -2.55415 3.83776 0
M  V30 4998 H 472.186 -0.974949 6.90754 0
M  V30 4999 H 468.083 -1.95204 6.15277 0
M  V30 5000 H 468.851 -1.21681 8.09405 0
M  V30 5001 N 471.514 -1.37532 -0.769588 0
M  V30 5002 C 472.477 -1.33292 -1.86456 0
M  V30 5003 C 473.477 -0.236537 -1.59051 0
M  V30 5004 O 474.667 -0.492511 -1.67093 0
M  V30 5005 C 471.799 -1.07118 -3.23633 0
M  V30 5006 H 472.992 -2.30692 -1.91628 0
M  V30 5007 H 470.545 -1.22593 -0.969572 0
M  V30 5008 H 471.28 -0.102578 -3.24138 0
M  V30 5009 H 471.065 -1.86479 -3.44917 0
M  V30 5010 H 472.555 -1.06806 -4.03711 0
M  V30 5011 N 472.992 0.995999 -1.22138 0
M  V30 5012 C 473.939 2.08551 -0.988687 0
M  V30 5013 C 474.909 1.65864 0.0885021 0
M  V30 5014 O 476.094 1.90704 -0.0604589 0
M  V30 5015 C 473.234 3.40374 -0.569191 0
M  V30 5016 C 472.347 3.96421 -1.71681 0
M  V30 5017 C 471.482 5.1639 -1.2456 0
M  V30 5018 C 470.521 5.64567 -2.36497 0
M  V30 5019 N 469.658 6.75777 -1.90445 0
M  V30 5020 H 474.498 2.2779 -1.92135 0
M  V30 5021 H 472.035 1.1168 -0.957388 0
M  V30 5022 H 473.993 4.16068 -0.307166 0
M  V30 5023 H 472.623 3.21145 0.326462 0
M  V30 5024 H 471.675 3.17628 -2.09324 0
M  V30 5025 H 472.987 4.2816 -2.55891 0
M  V30 5026 H 472.141 5.99362 -0.940774 0
M  V30 5027 H 470.88 4.86266 -0.373662 0
M  V30 5028 H 469.885 4.80185 -2.67772 0
M  V30 5029 H 471.11 5.96716 -3.24202 0
M  V30 5030 H 469.056 6.47443 -1.05609 0
M  V30 5031 H 468.973 7.06818 -2.68223 0
M  V30 5032 H 470.241 7.62262 -1.63022 0
M  V30 5033 N 474.47 1.03057 1.19235 0
M  V30 5034 C 475.698 0.747697 1.92917 0
M  V30 5035 C 476.113 -0.69372 1.75593 0
M  V30 5036 O 475.47 -1.47191 1.07894 0
M  V30 5037 C 475.521 1.09159 3.44625 0
M  V30 5038 O 475.242 2.47641 3.61394 0
M  V30 5039 C 476.743 0.831763 4.35427 0
M  V30 5040 H 473.963 0.273453 0.612751 0
M  V30 5041 H 476.507 1.37552 1.51327 0
M  V30 5042 H 474.662 0.508919 3.84043 0
M  V30 5043 H 475.076 2.60499 4.55237 0
M  V30 5044 H 476.55 1.12233 5.4047 0
M  V30 5045 H 477.027 -0.233769 4.38577 0
M  V30 5046 H 477.633 1.39725 4.01693 0
M  V30 5047 N 475.948 -1.35272 0.808662 0
M  V30 5048 C 477.197 -1.97963 0.386483 0
M  V30 5049 C 477.51 -1.64866 -1.05255 0
M  V30 5050 O 478.716 -2.20937 -1.57794 0
M  V30 5051 C 477.172 -3.54162 0.640096 0
M  V30 5052 C 476.78 -3.96166 2.0918 0
M  V30 5053 C 478.524 -4.23553 0.283376 0
M  V30 5054 C 476.431 -5.4522 2.29106 0
M  V30 5055 H 475.361 -0.740742 0.140774 0
M  V30 5056 H 478.012 -1.5431 0.993012 0
M  V30 5057 H 476.394 -3.95983 -0.0364117 0
M  V30 5058 H 477.568 -3.65491 2.80629 0
M  V30 5059 H 475.883 -3.3967 2.40859 0
M  V30 5060 H 478.48 -5.33124 0.410273 0
M  V30 5061 H 478.823 -4.09105 -0.770659 0
M  V30 5062 H 479.356 -3.8716 0.913884 0
M  V30 5063 H 476.095 -5.64638 3.32962 0
M  V30 5064 H 475.615 -5.77457 1.62184 0
M  V30 5065 H 477.294 -6.1171 2.1076 0
M  V30 5066 N 477.426 -0.562348 -1.47226 0
M  V30 5067 C 478.356 0.170627 -2.32876 0
M  V30 5068 C 479.337 0.903748 -1.44106 0
M  V30 5069 O 480.522 0.883206 -1.72954 0
M  V30 5070 C 477.652 1.19786 -3.25989 0
M  V30 5071 C 476.606 0.580875 -4.2404 0
M  V30 5072 C 475.932 1.71311 -5.06514 0
M  V30 5073 C 477.232 -0.468714 -5.20193 0
M  V30 5074 H 478.926 -0.544441 -2.94408 0
M  V30 5075 H 476.472 -0.263271 -1.41573 0
M  V30 5076 H 478.425 1.71884 -3.84752 0
M  V30 5077 H 477.149 1.94294 -2.62521 0
M  V30 5078 H 475.808 0.0811538 -3.6651 0
M  V30 5079 H 475.456 2.44736 -4.39447 0
M  V30 5080 H 475.156 1.30604 -5.72902 0
M  V30 5081 H 476.68 2.23725 -5.68137 0
M  V30 5082 H 478.094 -0.0336028 -5.7329 0
M  V30 5083 H 476.491 -0.794957 -5.94811 0
M  V30 5084 H 477.561 -1.36269 -4.65359 0
M  V30 5085 N 478.904 1.54736 -0.299062 0
M  V30 5086 C 480.129 2.04975 0.316254 0
M  V30 5087 C 480.554 1.17501 1.46885 0
M  V30 5088 O 479.912 0.178678 1.80417 0
M  V30 5089 C 479.96 3.52672 0.751997 0
M  V30 5090 O 479.064 3.68226 1.85697 0
M  V30 5091 H 478.405 0.661126 0.0617175 0
M  V30 5092 H 480.935 1.99805 -0.440341 0
M  V30 5093 H 480.945 3.94488 1.04133 0
M  V30 5094 H 479.62 4.158 -0.0911482 0
M  V30 5095 H 478.197 3.38316 1.56834 0
M  V30 5096 N 480.382 0.0267497 1.57577 0
M  V30 5097 C 481.312 -0.954308 2.13108 0
M  V30 5098 C 482.293 -1.34088 1.04663 0
M  V30 5099 O 483.478 -1.41992 1.32484 0
M  V30 5100 C 480.608 -2.23744 2.65624 0
M  V30 5101 C 479.562 -1.99168 3.78835 0
M  V30 5102 C 478.888 -3.33726 4.17769 0
M  V30 5103 C 480.188 -1.33277 5.0501 0
M  V30 5104 H 481.882 -0.491848 2.95332 0
M  V30 5105 H 479.428 -0.23514 1.42067 0
M  V30 5106 H 481.381 -2.92754 3.03106 0
M  V30 5107 H 480.105 -2.72151 1.80558 0
M  V30 5108 H 478.764 -1.32577 3.41788 0
M  V30 5109 H 478.412 -3.79888 3.29688 0
M  V30 5110 H 478.112 -3.18089 4.94058 0
M  V30 5111 H 479.636 -4.04008 4.57832 0
M  V30 5112 H 481.05 -1.92283 5.40093 0
M  V30 5113 H 479.447 -1.28045 5.8628 0
M  V30 5114 H 480.517 -0.305411 4.83937 0
M  V30 5115 N 481.861 -1.55662 -0.24637 0
M  V30 5116 C 482.794 -1.85332 -1.33143 0
M  V30 5117 C 483.772 -0.708464 -1.46354 0
M  V30 5118 O 484.956 -0.954274 -1.6256 0
M  V30 5119 C 482.083 -2.0385 -2.70487 0
M  V30 5120 C 481.129 -3.26488 -2.74423 0
M  V30 5121 S 481.962 -4.83124 -2.30979 0
M  V30 5122 C 483.118 -5.04647 -3.70246 0
M  V30 5123 H 483.351 -2.77077 -1.07777 0
M  V30 5124 H 480.884 -1.47776 -0.44738 0
M  V30 5125 H 482.842 -2.15202 -3.49569 0
M  V30 5126 H 481.503 -1.12947 -2.9309 0
M  V30 5127 H 480.696 -3.36413 -3.7529 0
M  V30 5128 H 480.298 -3.13864 -2.03385 0
M  V30 5129 H 482.59 -4.92023 -4.65746 0
M  V30 5130 H 483.533 -6.06625 -3.65255 0
M  V30 5131 H 483.941 -4.32491 -3.62784 0
M  V30 5132 N 483.339 0.512053 -1.4905 0
M  V30 5133 C 484.567 1.29116 -1.61669 0
M  V30 5134 C 484.982 1.86655 -0.283787 0
M  V30 5135 O 484.339 1.67293 0.729331 0
M  V30 5136 C 484.39 2.4293 -2.67707 0
M  V30 5137 O 484.111 1.87758 -3.95826 0
M  V30 5138 C 485.612 3.34476 -2.90931 0
M  V30 5139 H 482.832 0.392009 -0.544583 0
M  V30 5140 H 485.376 0.615881 -1.95006 0
M  V30 5141 H 483.531 3.06308 -2.37179 0
M  V30 5142 H 483.945 2.62393 -4.54148 0
M  V30 5143 H 485.419 4.10642 -3.68886 0
M  V30 5144 H 485.896 3.90801 -2.00427 0
M  V30 5145 H 486.502 2.76874 -3.22832 0
M  V30 5146 N 484.817 1.37938 0.762283 0
M  V30 5147 C 486.233 1.18945 1.06415 0
M  V30 5148 C 486.433 0.0321163 2.01474 0
M  V30 5149 O 485.489 -0.624844 2.44647 0
M  V30 5150 C 486.802 2.51218 1.65258 0
M  V30 5151 C 488.35 2.57824 1.7747 0
M  V30 5152 C 488.825 3.90251 2.39725 0
M  V30 5153 N 490.316 3.91744 2.47166 0
M  V30 5154 C 491.051 4.90966 2.96209 0
M  V30 5155 N 490.547 6.00585 3.45354 0
M  V30 5156 N 492.34 4.78363 2.9517 0
M  V30 5157 H 484.491 2.11994 0.131301 0
M  V30 5158 H 486.754 0.940262 0.120879 0
M  V30 5159 H 486.46 3.36317 1.02878 0
M  V30 5160 H 486.334 2.68989 2.64433 0
M  V30 5161 H 488.721 1.73126 2.3898 0
M  V30 5162 H 488.802 2.43928 0.770241 0
M  V30 5163 H 488.446 4.75368 1.78852 0
M  V30 5164 H 488.376 4.01454 3.40796 0
M  V30 5165 H 490.867 3.12563 2.12397 0
M  V30 5166 H 491.18 6.72236 3.81207 0
M  V30 5167 H 489.525 6.04217 3.43434 0
M  V30 5168 H 492.716 3.91841 2.56082 0
M  V30 5169 H 492.889 5.55843 3.33081 0
M  V30 5170 N 486.295 -0.989507 1.22664 0
M  V30 5171 C 487.205 -2.11449 1.01619 0
M  V30 5172 C 488.221 -1.73962 -0.036545 0
M  V30 5173 O 489.397 -2.00788 0.156924 0
M  V30 5174 C 486.462 -3.41465 0.600204 0
M  V30 5175 C 485.523 -3.93033 1.72695 0
M  V30 5176 C 484.756 -5.16844 1.33071 0
M  V30 5177 O 484.979 -5.7001 0.210975 0
M  V30 5178 O 483.913 -5.6225 2.14845 0
M  V30 5179 H 487.739 -2.32088 1.9588 0
M  V30 5180 H 485.324 -1.09823 1.01289 0
M  V30 5181 H 487.206 -4.19695 0.37873 0
M  V30 5182 H 485.881 -3.22178 -0.313511 0
M  V30 5183 H 484.788 -3.15961 2.00298 0
M  V30 5184 H 486.121 -4.16758 2.61865 0
M  V30 5185 N 487.773 -1.03688 -1.18687 0
M  V30 5186 C 488.72 -0.624624 -2.22187 0
M  V30 5187 C 489.69 0.365636 -1.62026 0
M  V30 5188 O 490.875 0.260481 -1.89014 0
M  V30 5189 C 488.015 0.0101738 -3.45099 0
M  V30 5190 C 487.128 -1.02709 -4.19613 0
M  V30 5191 C 486.263 -0.361213 -5.2997 0
M  V30 5192 C 485.302 -1.38384 -5.96252 0
M  V30 5193 N 484.439 -0.743196 -6.98155 0
M  V30 5194 H 489.279 -1.51176 -2.56807 0
M  V30 5195 H 486.816 -0.75636 -1.26165 0
M  V30 5196 H 488.774 0.395528 -4.15321 0
M  V30 5197 H 487.404 0.860848 -3.1111 0
M  V30 5198 H 486.456 -1.53043 -3.48256 0
M  V30 5199 H 487.768 -1.80398 -4.65036 0
M  V30 5200 H 486.922 0.0785537 -6.06649 0
M  V30 5201 H 485.661 0.447799 -4.8564 0
M  V30 5202 H 484.666 -1.83378 -5.18317 0
M  V30 5203 H 485.891 -2.19448 -6.42666 0
M  V30 5204 H 483.837 0.0455789 -6.55984 0
M  V30 5205 H 483.754 -1.45784 -7.41811 0
M  V30 5206 H 485.022 -0.327698 -7.78811 0
M  V30 5207 N 489.251 1.34841 -0.815825 0
M  V30 5208 C 490.201 2.27075 -0.205169 0
M  V30 5209 C 491.185 1.48205 0.626414 0
M  V30 5210 O 492.377 1.70306 0.482157 0
M  V30 5211 C 489.506 3.37322 0.637871 0
M  V30 5212 C 488.592 4.23609 -0.203948 0
M  V30 5213 N 488.983 4.89558 -1.27149 0
M  V30 5214 C 487.281 4.45998 0.0128971 0
M  V30 5215 C 487.982 5.53597 -1.7862 0
M  V30 5216 N 486.958 5.32535 -1.0912 0
M  V30 5217 H 490.76 2.75563 -1.02187 0
M  V30 5218 H 488.274 1.48477 -0.657912 0
M  V30 5219 H 490.271 4.02359 1.09146 0
M  V30 5220 H 488.931 2.90385 1.45281 0
M  V30 5221 H 489.942 4.9077 -1.65423 0
M  V30 5222 H 486.619 4.09837 0.79624 0
M  V30 5223 H 488.009 6.16184 -2.67892 0
M  V30 5224 N 490.729 0.570148 1.46925 0
M  V30 5225 C 492.14 0.1402 1.86173 0
M  V30 5226 C 492.491 -1.29347 1.47526 0
M  V30 5227 O 491.616 -1.97508 0.884292 0
M  V30 5228 C 492.211 0.247661 3.37894 0
M  V30 5229 C 490.77 -0.127332 3.76185 0
M  V30 5230 C 489.917 0.589349 2.70965 0
M  V30 5231 H 492.868 0.779117 1.38259 0
M  V30 5232 H 492.889 -0.530341 3.76786 0
M  V30 5233 H 492.401 1.29121 3.65991 0
M  V30 5234 H 490.502 -1.17149 3.53704 0
M  V30 5235 H 490.615 0.240238 4.78497 0
M  V30 5236 H 488.979 0.0309824 2.54681 0
M  V30 5237 H 489.762 1.6343 3.01903 0
M  V30 5238 N 492.207 -1.54576 0.307264 0
M  V30 5239 C 493.484 -1.92377 -0.353605 0
M  V30 5240 C 493.864 -1.23517 -1.71192 0
M  V30 5241 O 493.212 -0.373101 -2.25433 0
M  V30 5242 C 493.422 -3.45928 -0.462039 0
M  V30 5243 C 494.77 -4.18278 -0.729975 0
M  V30 5244 O 495.794 -3.51997 -0.545605 0
M  V30 5245 O 494.653 -5.3563 -1.08454 0
M  V30 5246 H 491.747 -0.802747 -0.198812 0
M  V30 5247 H 494.293 -1.65929 0.355783 0
M  V30 5248 H 493.065 -3.88187 0.492592 0
M  V30 5249 H 492.688 -3.78431 -1.21965 0
M  V30 5250 N 493.685 -0.035106 -1.57561 0
M  V30 5251 C 494.933 0.64096 -1.91667 0
M  V30 5252 C 495.254 1.72323 -0.912681 0
M  V30 5253 O 494.524 1.95849 0.0449089 0
M  V30 5254 H 493.104 0.239743 -0.707483 0
M  V30 5255 H 495.766 -0.084321 -1.94718 0
M  V30 5256 H 494.862 1.08987 -2.92452 0
M  V30 5257 N 495.163 1.55791 0.238111 0
M  V30 5258 C 496.11 1.9105 1.29493 0
M  V30 5259 C 497.08 0.765733 1.47397 0
M  V30 5260 O 498.265 1.02017 1.61236 0
M  V30 5261 C 495.405 2.21826 2.64362 0
M  V30 5262 C 494.518 3.49153 2.54394 0
M  V30 5263 C 493.653 3.69455 3.81676 0
M  V30 5264 C 492.692 4.90353 3.66361 0
M  V30 5265 N 491.829 5.07131 4.85554 0
M  V30 5266 H 496.669 2.81172 0.987233 0
M  V30 5267 H 494.206 1.39179 0.476203 0
M  V30 5268 H 496.164 2.37675 3.4288 0
M  V30 5269 H 494.794 1.34897 2.93262 0
M  V30 5270 H 493.846 3.41587 1.67399 0
M  V30 5271 H 495.158 4.37818 2.38991 0
M  V30 5272 H 494.312 3.85311 4.68636 0
M  V30 5273 H 493.051 2.7904 3.99985 0
M  V30 5274 H 492.056 4.74464 2.77784 0
M  V30 5275 H 493.281 5.82237 3.49538 0
M  V30 5276 H 491.227 4.19654 5.04209 0
M  V30 5277 H 491.144 5.89899 4.72816 0
M  V30 5278 H 492.412 5.27407 5.73988 0
M  V30 5279 N 496.642 -0.504142 1.49319 0
M  V30 5280 C 497.891 -1.25507 1.57895 0
M  V30 5281 C 498.204 -1.93735 0.269433 0
M  V30 5282 O 499.41 -2.70492 0.233706 0
M  V30 5283 C 497.866 -2.27869 2.78574 0
M  V30 5284 C 497.474 -1.65594 4.16272 0
M  V30 5285 C 499.218 -3.0381 2.96479 0
M  V30 5286 C 497.125 -2.66048 5.28178 0
M  V30 5287 H 496.055 -0.47212 0.587894 0
M  V30 5288 H 498.706 -0.52931 1.757 0
M  V30 5289 H 497.088 -3.03594 2.54257 0
M  V30 5290 H 498.262 -0.958826 4.50714 0
M  V30 5291 H 496.577 -1.02055 4.037 0
M  V30 5292 H 499.174 -3.78925 3.77253 0
M  V30 5293 H 499.517 -3.61235 2.06918 0
M  V30 5294 H 500.05 -2.352 3.20821 0
M  V30 5295 H 496.789 -2.13408 6.19788 0
M  V30 5296 H 496.309 -3.34009 4.98195 0
M  V30 5297 H 497.988 -3.28536 5.57381 0
M  V30 5298 N 498.12 -1.38341 -0.754957 0
M  V30 5299 C 499.05 -1.38176 -1.88227 0
M  V30 5300 C 500.031 -0.247873 -1.68284 0
M  V30 5301 O 501.216 -0.45075 -1.88896 0
M  V30 5302 C 498.346 -1.20471 -3.25736 0
M  V30 5303 C 497.3 -2.3105 -3.60278 0
M  V30 5304 C 496.626 -1.98452 -4.96509 0
M  V30 5305 C 497.926 -3.73305 -3.65295 0
M  V30 5306 H 499.62 -2.32512 -1.88622 0
M  V30 5307 H 497.166 -1.1192 -0.906082 0
M  V30 5308 H 499.119 -1.18982 -4.04254 0
M  V30 5309 H 497.843 -0.225965 -3.25817 0
M  V30 5310 H 496.502 -2.31723 -2.84078 0
M  V30 5311 H 496.15 -0.990641 -4.93148 0
M  V30 5312 H 495.85 -2.7251 -5.20588 0
M  V30 5313 H 497.374 -1.98578 -5.77407 0
M  V30 5314 H 498.788 -3.7467 -4.3393 0
M  V30 5315 H 497.185 -4.46557 -4.00883 0
M  V30 5316 H 498.255 -4.05719 -2.65556 0
M  V30 5317 N 499.598 0.982988 -1.23187 0
M  V30 5318 C 500.847 1.71817 -1.05649 0
M  V30 5319 C 501.16 1.91315 0.407176 0
M  V30 5320 O 502.366 2.62256 0.702436 0
M  V30 5321 C 500.822 3.09188 -1.84203 0
M  V30 5322 C 500.43 2.97586 -3.34882 0
M  V30 5323 C 502.174 3.86684 -1.75146 0
M  V30 5324 C 500.081 4.30173 -4.05839 0
M  V30 5325 H 499.011 0.644258 -0.391724 0
M  V30 5326 H 501.662 1.09659 -1.4713 0
M  V30 5327 H 500.044 3.72087 -1.35527 0
M  V30 5328 H 501.218 2.43793 -3.91026 0
M  V30 5329 H 499.533 2.33567 -3.44725 0
M  V30 5330 H 502.13 4.84836 -2.25473 0
M  V30 5331 H 502.473 4.10136 -0.713737 0
M  V30 5332 H 503.006 3.30482 -2.21419 0
M  V30 5333 H 499.745 4.11918 -5.09906 0
M  V30 5334 H 499.265 4.83841 -3.54482 0
M  V30 5335 H 500.944 4.98873 -4.11989 0
M  V30 5336 N 501.076 1.04316 1.18135 0
M  V30 5337 C 502.325 0.74319 1.87509 0
M  V30 5338 C 502.638 -0.732136 1.81381 0
M  V30 5339 O 503.844 -1.14572 2.46141 0
M  V30 5340 C 502.3 1.27913 3.36402 0
M  V30 5341 C 501.908 2.78326 3.51053 0
M  V30 5342 C 503.652 1.0558 4.11161 0
M  V30 5343 C 501.559 3.25266 4.93919 0
M  V30 5344 H 500.489 0.274313 0.702331 0
M  V30 5345 H 503.14 1.25931 1.33467 0
M  V30 5346 H 501.522 0.690853 3.89927 0
M  V30 5347 H 502.696 3.42933 3.07788 0
M  V30 5348 H 501.011 2.991 2.89704 0
M  V30 5349 H 503.608 1.38161 5.16542 0
M  V30 5350 H 503.951 -0.00684729 4.16299 0
M  V30 5351 H 504.484 1.60882 3.63816 0
M  V30 5352 H 501.223 4.30922 4.9395 0
M  V30 5353 H 500.743 2.65396 5.3789 0
M  V30 5354 H 502.422 3.19433 5.62647 0
M  V30 5355 N 502.554 -1.34406 0.822964 0
M  V30 5356 C 503.802 -1.97892 0.410245 0
M  V30 5357 C 504.123 -1.65567 -1.03017 0
M  V30 5358 O 503.393 -0.94642 -1.71522 0
M  V30 5359 H 501.973 -0.732049 0.148707 0
M  V30 5360 H 504.635 -1.64043 1.05242 0
M  V30 5361 H 503.731 -3.07579 0.529284 0
M  V30 5362 N 504.032 -0.577932 -1.46621 0
M  V30 5363 C 505.28 -0.061566 -2.02006 0
M  V30 5364 C 505.601 1.30117 -1.4524 0
M  V30 5365 O 504.871 1.85313 -0.63529 0
M  V30 5366 H 503.451 -0.0197692 -0.746738 0
M  V30 5367 H 506.113 -0.752631 -1.79782 0
M  V30 5368 H 505.209 0.0110238 -3.12098 0
M  V30 5369 N 505.51 1.54411 -0.315457 0
M  V30 5370 C 506.735 2.05299 0.294496 0
M  V30 5371 C 507.16 1.19052 1.4563 0
M  V30 5372 O 506.518 0.197804 1.80218 0
M  V30 5373 C 506.566 3.5345 0.714549 0
M  V30 5374 O 505.67 3.70175 1.81781 0
M  V30 5375 H 505.011 0.661743 0.0547019 0
M  V30 5376 H 507.541 1.99327 -0.461508 0
M  V30 5377 H 507.551 3.9557 0.999426 0
M  V30 5378 H 506.226 4.1568 -0.135244 0
M  V30 5379 H 504.803 3.3996 1.53236 0
M  V30 5380 N 506.988 0.0434614 1.5754 0
M  V30 5381 C 508.237 -0.631454 1.91561 0
M  V30 5382 C 508.55 -1.72457 0.92292 0
M  V30 5383 O 509.756 -2.45712 1.15489 0
M  V30 5384 C 508.212 -1.17447 3.40197 0
M  V30 5385 C 507.82 -0.113867 4.47855 0
M  V30 5386 C 509.564 -1.82507 3.83264 0
M  V30 5387 C 507.471 -0.669326 5.876 0
M  V30 5388 H 506.401 -0.239629 0.714908 0
M  V30 5389 H 509.052 0.111097 1.83163 0
M  V30 5390 H 507.434 -1.96909 3.43574 0
M  V30 5391 H 508.608 0.659348 4.56058 0
M  V30 5392 H 506.923 0.438821 4.14081 0
M  V30 5393 H 509.52 -2.25047 4.85034 0
M  V30 5394 H 509.863 -2.67365 3.19095 0
M  V30 5395 H 510.396 -1.09712 3.82372 0
M  V30 5396 H 507.135 0.141449 6.55347 0
M  V30 5397 H 506.655 -1.4107 5.82974 0
M  V30 5398 H 508.334 -1.15463 6.36614 0
M  V30 5399 N 508.466 -1.55915 -0.229846 0
M  V30 5400 C 509.429 -1.90914 -1.26824 0
M  V30 5401 C 510.429 -0.786999 -1.40225 0
M  V30 5402 O 511.619 -1.05484 -1.38632 0
M  V30 5403 C 508.751 -2.15264 -2.64337 0
M  V30 5404 H 509.944 -2.8378 -0.969998 0
M  V30 5405 H 507.497 -1.49069 -0.4699 0
M  V30 5406 H 508.232 -1.24923 -2.99274 0
M  V30 5407 H 508.017 -2.97005 -2.55989 0
M  V30 5408 H 509.507 -2.43467 -3.39284 0
M  V30 5409 N 509.944 0.496216 -1.49584 0
M  V30 5410 C 510.892 1.61805 -1.67098 0
M  V30 5411 C 511.886 1.60667 -0.536877 0
M  V30 5412 O 513.092 1.65118 -0.716654 0
M  V30 5413 H 509.467 0.53646 -0.526986 0
M  V30 5414 H 511.438 1.44187 -2.61252 0
M  V30 5415 C 510.187 2.99912 -1.75921 0
M  V30 5416 H 509.51 3.01496 -2.62565 0
M  V30 5417 H 510.95 3.77931 -1.92209 0
M  V30 5418 C 509.409 3.33092 -0.505088 0
M  V30 5419 O 509.939 4.00019 0.367085 0
M  V30 5420 N 508.145 2.88278 -0.366599 0
M  V30 5421 H 507.692 2.33989 -1.07735 0
M  V30 5422 H 507.65 3.10846 0.47142 0
M  V30 5423 N 511.423 1.38739 0.74761 0
M  V30 5424 C 512.67 1.35274 1.50689 0
M  V30 5425 C 512.998 -0.0553359 1.94421 0
M  V30 5426 O 512.253 -1.03365 1.66175 0
M  V30 5427 C 512.552 2.25992 2.7688 0
M  V30 5428 C 512.218 3.73854 2.5208 0
M  V30 5429 C 510.88 4.14145 2.45025 0
M  V30 5430 C 513.232 4.67427 2.30568 0
M  V30 5431 C 510.56 5.4609 2.14483 0
M  V30 5432 C 512.912 5.99635 2.01545 0
M  V30 5433 C 511.576 6.39004 1.92951 0
M  V30 5434 H 510.846 0.495003 0.55141 0
M  V30 5435 H 513.493 1.71145 0.859158 0
M  V30 5436 H 511.798 1.83196 3.46333 0
M  V30 5437 H 513.495 2.20611 3.34861 0
M  V30 5438 H 510.085 3.41913 2.58444 0
M  V30 5439 H 514.269 4.3714 2.34994 0
M  V30 5440 H 509.525 5.75528 2.06342 0
M  V30 5441 H 513.699 6.71678 1.83906 0
M  V30 5442 H 511.326 7.41165 1.6905 0
M  V30 5443 N 512.901 -0.976442 1.23707 0
M  V30 5444 C 514.129 -1.75341 1.09833 0
M  V30 5445 C 514.544 -1.8553 -0.349885 0
M  V30 5446 O 513.901 -1.33732 -1.24185 0
M  V30 5447 C 513.952 -3.17833 1.72233 0
M  V30 5448 O 513.673 -3.08167 3.11391 0
M  V30 5449 C 515.174 -4.11906 1.63853 0
M  V30 5450 H 512.394 -0.550137 0.384175 0
M  V30 5451 H 514.938 -1.2265 1.63638 0
M  V30 5452 H 513.093 -3.67538 1.22452 0
M  V30 5453 H 513.507 -3.97897 3.41729 0
M  V30 5454 H 514.981 -5.09579 2.12211 0
M  V30 5455 H 515.458 -4.35109 0.598092 0
M  V30 5456 H 516.064 -3.68107 2.13019 0
M  V30 5457 N 514.379 -1.04941 -1.1758 0
M  V30 5458 C 515.327 -0.64204 -2.23563 0
M  V30 5459 C 516.321 0.335453 -1.66045 0
M  V30 5460 O 517.527 0.20179 -1.78865 0
M  V30 5461 H 513.902 -0.18944 -0.727748 0
M  V30 5462 H 515.873 -1.54609 -2.55223 0
M  V30 5463 C 514.622 -0.0301051 -3.47687 0
M  V30 5464 H 513.945 -0.773339 -3.92249 0
M  V30 5465 H 515.385 0.217592 -4.23441 0
M  V30 5466 C 513.844 1.2225 -3.13937 0
M  V30 5467 O 514.374 2.3122 -3.28482 0
M  V30 5468 N 512.58 1.11917 -2.68185 0
M  V30 5469 H 512.127 0.232403 -2.5655 0
M  V30 5470 H 512.085 1.95814 -2.45976 0
M  V30 5471 N 515.857 1.33968 -0.830081 0
M  V30 5472 C 517.103 1.98357 -0.422191 0
M  V30 5473 C 517.436 1.65633 1.01387 0
M  V30 5474 O 516.711 0.931648 1.70735 0
M  V30 5475 C 516.994 3.54492 -0.633043 0
M  V30 5476 C 516.847 3.96934 -2.11574 0
M  V30 5477 C 518.166 4.40039 -0.0735584 0
M  V30 5478 H 515.285 0.720544 -0.154871 0
M  V30 5479 H 517.927 1.58749 -1.04397 0
M  V30 5480 H 516.077 3.88361 -0.103775 0
M  V30 5481 H 517.749 3.73363 -2.7092 0
M  V30 5482 H 515.992 3.46984 -2.60354 0
M  V30 5483 H 516.663 5.05651 -2.21406 0
M  V30 5484 H 519.139 4.12764 -0.52585 0
M  V30 5485 H 518.015 5.48327 -0.250841 0
M  V30 5486 H 518.276 4.30124 1.02202 0
M  V30 5487 N 517.335 0.585699 1.46312 0
M  V30 5488 C 518.298 -0.135673 2.28798 0
M  V30 5489 C 519.298 -0.815988 1.38558 0
M  V30 5490 O 520.488 -0.667487 1.60904 0
M  V30 5491 C 517.62 -1.20163 3.1902 0
M  V30 5492 H 518.813 0.589257 2.94054 0
M  V30 5493 H 516.366 0.343794 1.52472 0
M  V30 5494 H 517.101 -1.95804 2.58517 0
M  V30 5495 H 516.886 -0.718282 3.85465 0
M  V30 5496 H 518.376 -1.70749 3.81096 0
M  V30 5497 N 518.813 -1.54241 0.323641 0
M  V30 5498 C 519.776 -2.22997 -0.529602 0
M  V30 5499 C 520.776 -1.22345 -1.04347 0
M  V30 5500 O 521.966 -1.46924 -0.935889 0
M  V30 5501 C 519.098 -2.93409 -1.73562 0
M  V30 5502 H 520.291 -2.99815 0.0714518 0
M  V30 5503 H 517.844 -1.56121 0.0747258 0
M  V30 5504 H 518.579 -2.20729 -2.37591 0
M  V30 5505 H 518.364 -3.67217 -1.37456 0
M  V30 5506 H 519.854 -3.45794 -2.34128 0
M  V30 5507 N 520.291 -0.0518155 -1.57515 0
M  V30 5508 C 521.519 0.631395 -1.9703 0
M  V30 5509 C 521.934 1.64341 -0.92938 0
M  V30 5510 O 521.291 1.82296 0.0863266 0
M  V30 5511 C 521.342 1.31774 -3.36627 0
M  V30 5512 O 521.063 0.346247 -4.3673 0
M  V30 5513 C 522.564 2.09065 -3.90905 0
M  V30 5514 H 519.784 0.172576 -0.648428 0
M  V30 5515 H 522.328 -0.118306 -2.04158 0
M  V30 5516 H 520.483 2.01867 -3.30649 0
M  V30 5517 H 520.897 0.836226 -5.17791 0
M  V30 5518 H 522.371 2.52508 -4.9086 0
M  V30 5519 H 522.848 2.93908 -3.26366 0
M  V30 5520 H 523.454 1.43882 -4.00223 0
M  V30 5521 N 521.769 1.56035 0.221574 0
M  V30 5522 C 523.016 1.79047 0.94597 0
M  V30 5523 C 523.344 0.62057 1.84334 0
M  V30 5524 O 522.599 -0.395053 1.91671 0
M  V30 5525 C 522.898 3.07813 1.8162 0
M  V30 5526 C 522.564 4.3797 1.07206 0
M  V30 5527 C 521.226 4.73334 0.866508 0
M  V30 5528 C 523.578 5.18326 0.546565 0
M  V30 5529 C 520.906 5.8657 0.123549 0
M  V30 5530 C 523.258 6.32335 -0.18305 0
M  V30 5531 C 521.922 6.66301 -0.399861 0
M  V30 5532 H 521.192 0.655178 0.346155 0
M  V30 5533 H 523.839 1.90299 0.214146 0
M  V30 5534 H 522.144 2.91682 2.61589 0
M  V30 5535 H 523.841 3.2282 2.37884 0
M  V30 5536 H 520.431 4.10202 1.24226 0
M  V30 5537 H 524.615 4.9144 0.692847 0
M  V30 5538 H 519.871 6.11376 -0.0546591 0
M  V30 5539 H 524.045 6.9383 -0.59775 0
M  V30 5540 H 521.672 7.53889 -0.977489 0
M  V30 5541 N 523.247 -0.488276 1.49845 0
M  V30 5542 C 524.194 -1.58836 1.67451 0
M  V30 5543 C 525.164 -1.57886 0.515857 0
M  V30 5544 O 526.349 -1.75679 0.744403 0
M  V30 5545 C 523.489 -2.96915 1.75885 0
M  V30 5546 C 522.602 -3.07784 3.03138 0
M  V30 5547 C 521.737 -4.36673 3.02473 0
M  V30 5548 C 520.776 -4.41222 4.24252 0
M  V30 5549 N 519.913 -5.61557 4.21424 0
M  V30 5550 H 524.753 -1.43131 2.61376 0
M  V30 5551 H 522.29 -0.696186 1.29583 0
M  V30 5552 H 524.248 -3.76965 1.78755 0
M  V30 5553 H 522.878 -3.11295 0.85414 0
M  V30 5554 H 521.93 -2.20717 3.09819 0
M  V30 5555 H 523.242 -3.07005 3.93128 0
M  V30 5556 H 522.396 -5.25055 3.03977 0
M  V30 5557 H 521.135 -4.40037 2.10283 0
M  V30 5558 H 520.14 -3.5124 4.22978 0
M  V30 5559 H 521.365 -4.39564 5.17649 0
M  V30 5560 H 519.311 -5.65738 3.32078 0
M  V30 5561 H 519.228 -5.62447 5.05163 0
M  V30 5562 H 520.496 -6.52111 4.2705 0
M  V30 5563 N 524.725 -1.39134 -0.740242 0
M  V30 5564 C 525.973 -1.35803 -1.49673 0
M  V30 5565 C 526.294 0.0470897 -1.94943 0
M  V30 5566 O 525.564 0.997347 -1.68611 0
M  V30 5567 H 524.144 -0.499736 -0.555224 0
M  V30 5568 H 526.806 -1.73947 -0.879107 0
M  V30 5569 H 525.902 -2.0174 -2.38133 0
M  V30 5570 N 526.204 0.969867 -1.24223 0
M  V30 5571 C 527.453 1.70687 -1.07466 0
M  V30 5572 C 527.766 1.91736 0.386861 0
M  V30 5573 O 528.972 2.62986 0.674581 0
M  V30 5574 C 527.428 3.07217 -1.87472 0
M  V30 5575 C 527.036 2.94018 -3.3802 0
M  V30 5576 C 528.78 3.84804 -1.79237 0
M  V30 5577 C 526.687 4.25844 -4.10379 0
M  V30 5578 H 525.617 0.640067 -0.398536 0
M  V30 5579 H 528.268 1.08092 -1.48285 0
M  V30 5580 H 526.65 3.70628 -1.39466 0
M  V30 5581 H 527.824 2.39632 -3.9359 0
M  V30 5582 H 526.139 2.29898 -3.47183 0
M  V30 5583 H 528.736 4.82417 -2.30603 0
M  V30 5584 H 529.079 4.09356 -0.757197 0
M  V30 5585 H 529.612 3.28115 -2.24912 0
M  V30 5586 H 526.351 4.06486 -5.14246 0
M  V30 5587 H 525.871 4.80054 -3.59594 0
M  V30 5588 H 527.55 4.94475 -4.17257 0
M  V30 5589 N 527.682 1.05563 1.17022 0
M  V30 5590 C 528.928 0.769074 1.87652 0
M  V30 5591 C 529.261 -0.702326 1.81055 0
M  V30 5592 O 528.536 -1.5139 1.22112 0
M  V30 5593 C 528.819 1.25492 3.37526 0
M  V30 5594 C 528.672 2.78953 3.52853 0
M  V30 5595 C 529.991 0.856919 4.31677 0
M  V30 5596 H 527.11 0.280854 0.681388 0
M  V30 5597 H 529.752 1.31027 1.37593 0
M  V30 5598 H 527.902 0.794516 3.80289 0
M  V30 5599 H 529.574 3.33146 3.19079 0
M  V30 5600 H 527.817 3.18046 2.95007 0
M  V30 5601 H 528.488 3.08011 4.58076 0
M  V30 5602 H 530.964 1.25334 3.96775 0
M  V30 5603 H 529.84 1.22443 5.35069 0
M  V30 5604 H 530.101 -0.238787 4.41455 0
M  V30 5605 N 529.16 -1.33526 0.837174 0
M  V30 5606 C 530.576 -1.50727 0.524743 0
M  V30 5607 C 530.776 -1.77792 -0.948279 0
M  V30 5608 O 529.832 -1.83719 -1.73216 0
M  V30 5609 C 531.145 -2.66299 1.39661 0
M  V30 5610 C 532.693 -2.80183 1.39521 0
M  V30 5611 C 533.168 -3.98815 2.25189 0
M  V30 5612 N 534.659 -4.06047 2.2289 0
M  V30 5613 C 535.394 -4.97032 2.85915 0
M  V30 5614 N 534.89 -5.93143 3.57985 0
M  V30 5615 N 536.683 -4.90015 2.75394 0
M  V30 5616 H 528.834 -1.1422 1.79074 0
M  V30 5617 H 531.097 -0.561399 0.763894 0
M  V30 5618 H 530.803 -2.52974 2.4433 0
M  V30 5619 H 530.677 -3.61663 1.07145 0
M  V30 5620 H 533.064 -2.92942 0.356253 0
M  V30 5621 H 533.145 -1.85586 1.76044 0
M  V30 5622 H 532.789 -3.86817 3.29143 0
M  V30 5623 H 532.719 -4.92654 1.86009 0
M  V30 5624 H 535.21 -3.37262 1.70478 0
M  V30 5625 H 535.523 -6.59227 4.03286 0
M  V30 5626 H 533.868 -5.93223 3.62093 0
M  V30 5627 H 537.059 -4.13894 2.18654 0
M  V30 5628 H 537.232 -5.60724 3.24796 0
M  V30 5629 N 530.638 -0.59345 -1.46 0
M  V30 5630 C 531.601 0.123538 -2.28867 0
M  V30 5631 C 532.601 0.808628 -1.38989 0
M  V30 5632 O 533.791 0.658945 -1.61256 0
M  V30 5633 C 530.923 1.1847 -3.19653 0
M  V30 5634 H 532.116 -0.604843 -2.93737 0
M  V30 5635 H 529.669 -0.351875 -1.52288 0
M  V30 5636 H 530.404 1.94431 -2.59552 0
M  V30 5637 H 530.189 0.69783 -3.8584 0
M  V30 5638 H 531.679 1.68726 -3.81997 0
M  V30 5639 N 532.116 1.54067 -0.331816 0
M  V30 5640 C 533.365 1.99895 0.269209 0
M  V30 5641 C 533.678 1.22371 1.52593 0
M  V30 5642 O 534.884 1.58618 2.20347 0
M  V30 5643 C 533.34 3.55972 0.530244 0
M  V30 5644 C 532.948 4.4234 -0.709901 0
M  V30 5645 C 534.692 4.10247 1.09077 0
M  V30 5646 C 532.599 5.89905 -0.420312 0
M  V30 5647 H 531.529 0.746741 0.104371 0
M  V30 5648 H 534.18 1.78014 -0.445324 0
M  V30 5649 H 532.562 3.73873 1.30518 0
M  V30 5650 H 533.736 4.36215 -1.48504 0
M  V30 5651 H 532.051 3.98997 -1.19123 0
M  V30 5652 H 534.648 5.18095 1.32219 0
M  V30 5653 H 534.991 3.62739 2.0427 0
M  V30 5654 H 535.524 3.96011 0.376824 0
M  V30 5655 H 532.263 6.41623 -1.34164 0
M  V30 5656 H 531.783 5.98962 0.316962 0
M  V30 5657 H 533.462 6.46991 -0.0331956 0
M  V30 5658 N 533.594 0.0601682 1.57485 0
M  V30 5659 C 535.01 -0.296422 1.56823 0
M  V30 5660 C 535.21 -1.70831 1.0686 0
M  V30 5661 O 534.266 -2.4174 0.729245 0
M  V30 5662 C 535.579 -0.116681 3.00474 0
M  V30 5663 C 537.127 -0.187103 3.1244 0
M  V30 5664 C 537.602 -0.035783 4.57986 0
M  V30 5665 N 539.093 -0.0917676 4.63109 0
M  V30 5666 C 539.828 0.00107251 5.734 0
M  V30 5667 N 539.324 0.146773 6.92645 0
M  V30 5668 N 541.117 -0.0551577 5.62073 0
M  V30 5669 H 533.268 0.983055 1.88281 0
M  V30 5670 H 535.531 0.382386 0.867459 0
M  V30 5671 H 535.237 0.85712 3.41096 0
M  V30 5672 H 535.111 -0.873929 3.66936 0
M  V30 5673 H 537.498 -1.15138 2.71712 0
M  V30 5674 H 537.579 0.601052 2.48638 0
M  V30 5675 H 537.223 0.925212 4.99402 0
M  V30 5676 H 537.153 -0.843196 5.19806 0
M  V30 5677 H 539.644 -0.203261 3.77353 0
M  V30 5678 H 539.957 0.210076 7.72514 0
M  V30 5679 H 538.302 0.181979 6.94762 0
M  V30 5680 H 541.493 -0.167605 4.678 0
M  V30 5681 H 541.666 0.020652 6.47997 0
M  V30 5682 N 535.072 -1.5615 -0.213296 0
M  V30 5683 C 536.349 -1.70349 -0.961281 0
M  V30 5684 C 536.729 -0.609791 -2.02101 0
M  V30 5685 O 536.077 0.381987 -2.25285 0
M  V30 5686 C 536.287 -3.11982 -1.56424 0
M  V30 5687 C 537.635 -3.71649 -2.05334 0
M  V30 5688 O 538.659 -3.14995 -1.66302 0
M  V30 5689 O 537.518 -4.71038 -2.77102 0
M  V30 5690 H 534.612 -0.694121 -0.449582 0
M  V30 5691 H 537.158 -1.68464 -0.204426 0
M  V30 5692 H 535.93 -3.83046 -0.799457 0
M  V30 5693 H 535.553 -3.18019 -2.38641 0
M  V30 5694 N 536.55 0.480323 -1.50102 0
M  V30 5695 C 537.78 1.25475 -1.64133 0
M  V30 5696 C 538.188 1.8647 -0.320272 0
M  V30 5697 O 537.531 1.69561 0.70673 0
M  V30 5698 C 537.593 2.40996 -2.6676 0
M  V30 5699 C 537.257 2.00711 -4.10565 0
M  V30 5700 C 538.254 1.53492 -4.96725 0
M  V30 5701 C 535.939 2.09714 -4.56427 0
M  V30 5702 C 537.933 1.15806 -6.26792 0
M  V30 5703 C 535.62 1.7164 -5.86501 0
M  V30 5704 C 536.618 1.24763 -6.71508 0
M  V30 5705 O 536.306 0.872122 -7.99155 0
M  V30 5706 H 536.038 0.385983 -0.554971 0
M  V30 5707 H 538.592 0.580848 -1.97016 0
M  V30 5708 H 536.822 3.11528 -2.291 0
M  V30 5709 H 538.511 3.02981 -2.70106 0
M  V30 5710 H 539.277 1.45966 -4.62514 0
M  V30 5711 H 535.156 2.4515 -3.90413 0
M  V30 5712 H 538.7 0.791465 -6.93096 0
M  V30 5713 H 534.597 1.78822 -6.20236 0
M  V30 5714 H 535.365 1.00178 -8.12346 0
M  V30 5715 N 538.028 1.39524 0.732853 0
M  V30 5716 C 538.96 1.34318 1.85718 0
M  V30 5717 C 539.973 0.251576 1.60844 0
M  V30 5718 O 541.162 0.510685 1.71039 0
M  V30 5719 C 538.262 1.06334 3.21786 0
M  V30 5720 C 537.435 2.26813 3.73998 0
M  V30 5721 C 536.494 1.95253 4.88634 0
M  V30 5722 O 535.52 2.67957 5.02183 0
M  V30 5723 N 536.722 0.919984 5.73164 0
M  V30 5724 H 539.487 2.3121 1.90688 0
M  V30 5725 H 537.048 1.33654 0.91368 0
M  V30 5726 H 539.04 0.832363 3.96048 0
M  V30 5727 H 537.61 0.181682 3.12072 0
M  V30 5728 H 536.83 2.65849 2.91064 0
M  V30 5729 H 538.118 3.0717 4.05616 0
M  V30 5730 H 537.516 0.317487 5.64808 0
M  V30 5731 H 536.073 0.748905 6.47483 0
M  V30 5732 N 539.506 -0.963266 1.24736 0
M  V30 5733 C 540.754 -1.70343 1.08755 0
M  V30 5734 C 541.075 -1.91387 -0.373619 0
M  V30 5735 O 540.345 -1.4948 -1.2662 0
M  V30 5736 H 538.925 -0.631224 0.399456 0
M  V30 5737 H 541.587 -1.15859 1.56725 0
M  V30 5738 H 540.683 -2.68616 1.58909 0
M  V30 5739 N 540.985 -1.06182 -1.16461 0
M  V30 5740 C 542.396 -0.802426 -1.68576 0
M  V30 5741 C 542.747 0.67412 -1.84255 0
M  V30 5742 O 541.872 1.52303 -1.5373 0
M  V30 5743 C 542.467 -1.45002 -3.06202 0
M  V30 5744 C 541.026 -1.23843 -3.55443 0
M  V30 5745 C 540.173 -1.52724 -2.31454 0
M  V30 5746 H 543.124 -1.22545 -1.00839 0
M  V30 5747 H 543.145 -0.864731 -3.70544 0
M  V30 5748 H 542.657 -2.52466 -2.94759 0
M  V30 5749 H 540.758 -0.183487 -3.72148 0
M  V30 5750 H 540.871 -1.95036 -4.37604 0
M  V30 5751 H 539.235 -0.947726 -2.36411 0
M  V30 5752 H 540.018 -2.61343 -2.22609 0
M  V30 5753 N 542.463 1.3308 -0.844243 0
M  V30 5754 C 543.393 2.3161 -0.296493 0
M  V30 5755 C 544.374 1.59215 0.598707 0
M  V30 5756 O 545.559 1.87077 0.521134 0
M  V30 5757 C 542.689 3.43313 0.524762 0
M  V30 5758 C 541.643 4.27115 -0.275106 0
M  V30 5759 C 540.969 5.30483 0.670236 0
M  V30 5760 C 542.269 5.00443 -1.49514 0
M  V30 5761 H 543.963 2.77672 -1.11976 0
M  V30 5762 H 541.509 1.33496 -0.539899 0
M  V30 5763 H 543.462 4.11273 0.918298 0
M  V30 5764 H 542.186 2.95952 1.3813 0
M  V30 5765 H 540.845 3.60787 -0.650267 0
M  V30 5766 H 540.493 4.79379 1.52332 0
M  V30 5767 H 540.193 5.87435 0.139123 0
M  V30 5768 H 541.717 6.01308 1.06117 0
M  V30 5769 H 543.131 5.61141 -1.17447 0
M  V30 5770 H 541.528 5.67071 -1.96343 0
M  V30 5771 H 542.598 4.28906 -2.26202 0
M  V30 5772 N 543.941 0.601185 1.45683 0
M  V30 5773 C 544.888 -0.121396 2.30481 0
M  V30 5774 C 545.858 -0.866232 1.41724 0
M  V30 5775 O 547.043 -0.85324 1.70659 0
M  V30 5776 C 544.183 -1.11704 3.26521 0
M  V30 5777 C 543.296 -0.373741 4.3038 0
M  V30 5778 C 542.431 -1.35854 5.13534 0
M  V30 5779 C 541.47 -0.602689 6.09126 0
M  V30 5780 N 540.607 -1.53645 6.85082 0
M  V30 5781 H 545.447 0.607732 2.91737 0
M  V30 5782 H 542.984 0.311502 1.43764 0
M  V30 5783 H 544.942 -1.70735 3.80664 0
M  V30 5784 H 543.572 -1.81366 2.67032 0
M  V30 5785 H 542.624 0.331962 3.78949 0
M  V30 5786 H 543.936 0.2163 4.98331 0
M  V30 5787 H 543.09 -2.02111 5.72046 0
M  V30 5788 H 541.829 -1.98251 4.45587 0
M  V30 5789 H 540.834 0.0735482 5.49751 0
M  V30 5790 H 542.059 0.0161467 6.79098 0
M  V30 5791 H 540.005 -2.14819 6.1983 0
M  V30 5792 H 539.922 -0.999688 7.49361 0
M  V30 5793 H 541.19 -2.1888 7.48139 0
M  V30 5794 N 545.419 -1.53889 0.339982 0
M  V30 5795 C 546.329 -2.28604 -0.526988 0
M  V30 5796 C 547.345 -1.33578 -1.11503 0
M  V30 5797 O 548.521 -1.66612 -1.13148 0
M  V30 5798 C 545.586 -3.04164 -1.66389 0
M  V30 5799 C 544.647 -4.14809 -1.10599 0
M  V30 5800 C 543.88 -4.86756 -2.18871 0
M  V30 5801 O 544.103 -4.58343 -3.39526 0
M  V30 5802 O 543.037 -5.73289 -1.83366 0
M  V30 5803 H 546.863 -3.03594 0.0802707 0
M  V30 5804 H 544.448 -1.4903 0.105141 0
M  V30 5805 H 546.33 -3.51427 -2.32544 0
M  V30 5806 H 545.005 -2.32035 -2.25703 0
M  V30 5807 H 543.912 -3.71857 -0.409067 0
M  V30 5808 H 545.245 -4.89029 -0.557771 0
M  V30 5809 N 546.897 -0.0685191 -1.57451 0
M  V30 5810 C 547.847 0.909895 -2.09057 0
M  V30 5811 C 548.831 1.26088 -0.999528 0
M  V30 5812 O 550.023 1.24041 -1.26265 0
M  V30 5813 C 547.152 2.17863 -2.65312 0
M  V30 5814 C 546.238 1.85427 -3.81415 0
M  V30 5815 N 546.629 1.23426 -4.9051 0
M  V30 5816 C 544.927 2.15196 -3.90649 0
M  V30 5817 C 545.628 1.09008 -5.71395 0
M  V30 5818 N 544.604 1.59871 -5.1956 0
M  V30 5819 H 548.406 0.426145 -2.90794 0
M  V30 5820 H 545.92 0.135462 -1.61834 0
M  V30 5821 H 547.917 2.88872 -3.00597 0
M  V30 5822 H 546.577 2.66829 -1.85021 0
M  V30 5823 H 547.588 0.904305 -5.09944 0
M  V30 5824 H 544.265 2.66562 -3.21327 0
M  V30 5825 H 545.655 0.607305 -6.6915 0
M  V30 5826 N 548.375 1.56261 0.205012 0
M  V30 5827 C 549.285 1.96944 1.27476 0
M  V30 5828 C 550.301 0.875636 1.50362 0
M  V30 5829 O 551.477 1.18058 1.6317 0
M  V30 5830 C 548.542 2.29219 2.60115 0
M  V30 5831 C 547.603 3.52255 2.45387 0
M  V30 5832 C 546.836 3.8298 3.71701 0
M  V30 5833 O 547.059 3.15138 4.75441 0
M  V30 5834 O 545.993 4.76435 3.67823 0
M  V30 5835 H 549.819 2.88144 0.959527 0
M  V30 5836 H 547.404 1.43686 0.409217 0
M  V30 5837 H 549.286 2.51098 3.3842 0
M  V30 5838 H 547.961 1.4119 2.91285 0
M  V30 5839 H 546.868 3.35635 1.65227 0
M  V30 5840 H 548.201 4.40719 2.19152 0
M  V30 5841 N 549.853 -0.472356 1.50355 0
M  V30 5842 C 551.099 -1.22634 1.6152 0
M  V30 5843 C 551.432 -1.91645 0.313995 0
M  V30 5844 O 550.707 -1.82059 -0.684446 0
M  V30 5845 C 550.99 -2.27099 2.7946 0
M  V30 5846 C 550.843 -1.62402 4.19459 0
M  V30 5847 C 552.162 -3.28421 2.92964 0
M  V30 5848 H 549.281 -0.444494 0.587873 0
M  V30 5849 H 551.923 -0.520321 1.82737 0
M  V30 5850 H 550.073 -2.87314 2.61501 0
M  V30 5851 H 551.745 -1.05793 4.49005 0
M  V30 5852 H 549.988 -0.927184 4.23776 0
M  V30 5853 H 550.659 -2.38309 4.97909 0
M  V30 5854 H 553.135 -2.78227 3.09401 0
M  V30 5855 H 552.011 -3.98845 3.77113 0
M  V30 5856 H 552.272 -3.92467 2.03525 0
M  V30 5857 N 551.331 -1.39911 -0.725443 0
M  V30 5858 C 552.559 -1.40949 -1.51463 0
M  V30 5859 C 552.974 -0.0065242 -1.88799 0
M  V30 5860 O 552.331 0.967163 -1.54765 0
M  V30 5861 C 552.382 -2.29119 -2.79619 0
M  V30 5862 O 552.103 -3.63952 -2.43866 0
M  V30 5863 C 553.604 -2.38642 -3.73584 0
M  V30 5864 H 550.824 -0.481091 -0.467752 0
M  V30 5865 H 553.368 -1.83843 -0.895651 0
M  V30 5866 H 551.523 -1.89612 -3.37826 0
M  V30 5867 H 551.937 -4.10677 -3.26258 0
M  V30 5868 H 553.411 -3.04563 -4.60375 0
M  V30 5869 H 553.888 -1.40846 -4.16004 0
M  V30 5870 H 554.494 -2.78659 -3.21293 0
M  V30 5871 N 552.809 0.956637 -1.25245 0
M  V30 5872 C 554.058 1.69537 -1.0927 0
M  V30 5873 C 554.371 1.92136 0.366503 0
M  V30 5874 O 555.577 2.63687 0.64665 0
M  V30 5875 C 554.033 3.05211 -1.9072 0
M  V30 5876 C 553.641 2.90416 -3.41119 0
M  V30 5877 C 555.385 3.82882 -1.83308 0
M  V30 5878 C 553.292 4.21468 -4.14872 0
M  V30 5879 H 552.222 0.635804 -0.405302 0
M  V30 5880 H 554.873 1.06513 -1.49423 0
M  V30 5881 H 553.255 3.69128 -1.43389 0
M  V30 5882 H 554.429 2.35444 -3.9611 0
M  V30 5883 H 552.744 2.26203 -3.49602 0
M  V30 5884 H 555.341 4.79944 -2.35706 0
M  V30 5885 H 555.684 4.0853 -0.800572 0
M  V30 5886 H 556.217 3.25711 -2.28379 0
M  V30 5887 H 552.956 4.01009 -5.18529 0
M  V30 5888 H 552.476 4.76213 -3.64665 0
M  V30 5889 H 554.155 4.90022 -4.22478 0
M  V30 5890 N 554.287 1.06798 1.15896 0
M  V30 5891 C 555.534 0.787767 1.86549 0
M  V30 5892 C 555.862 -0.685959 1.82002 0
M  V30 5893 O 555.117 -1.5188 1.23414 0
M  V30 5894 C 555.416 1.23414 3.35416 0
M  V30 5895 C 555.082 2.71285 3.6016 0
M  V30 5896 C 553.744 3.11676 3.66622 0
M  V30 5897 C 556.096 3.6676 3.7032 0
M  V30 5898 C 553.424 4.4637 3.8075 0
M  V30 5899 C 555.776 5.01209 3.8597 0
M  V30 5900 C 554.44 5.41229 3.90676 0
M  V30 5901 H 553.71 0.288264 0.682631 0
M  V30 5902 H 556.357 1.338 1.37003 0
M  V30 5903 H 554.662 0.60319 3.87129 0
M  V30 5904 H 556.359 0.994298 3.88477 0
M  V30 5905 H 552.949 2.39015 3.55767 0
M  V30 5906 H 557.133 3.36685 3.64633 0
M  V30 5907 H 552.389 4.76855 3.82648 0
M  V30 5908 H 556.563 5.75067 3.92773 0
M  V30 5909 H 554.19 6.45602 4.01375 0
M  V30 5910 N 555.766 -1.3263 0.851289 0
M  V30 5911 C 557.012 -1.9766 0.453694 0
M  V30 5912 C 557.345 -1.67225 -0.987396 0
M  V30 5913 O 556.62 -0.958693 -1.69232 0
M  V30 5914 C 556.903 -3.5344 0.68936 0
M  V30 5915 C 556.756 -3.93517 2.17862 0
M  V30 5916 C 558.075 -4.39866 0.143555 0
M  V30 5917 H 555.194 -0.717989 0.166314 0
M  V30 5918 H 557.836 -1.57068 1.06909 0
M  V30 5919 H 555.986 -3.88147 0.165546 0
M  V30 5920 H 557.658 -3.69006 2.76826 0
M  V30 5921 H 555.901 -3.42798 2.65841 0
M  V30 5922 H 556.572 -5.02065 2.29422 0
M  V30 5923 H 559.048 -4.11875 0.591451 0
M  V30 5924 H 557.924 -5.47858 0.338043 0
M  V30 5925 H 558.185 -4.31696 -0.953466 0
M  V30 5926 N 557.244 -0.608902 -1.45362 0
M  V30 5927 C 558.66 -0.272659 -1.57254 0
M  V30 5928 C 558.86 1.22477 -1.60005 0
M  V30 5929 O 557.916 2.00785 -1.53106 0
M  V30 5930 C 559.229 -0.944991 -2.85465 0
M  V30 5931 C 560.777 -0.921033 -2.99142 0
M  V30 5932 C 561.252 -1.5734 -4.30126 0
M  V30 5933 N 562.743 -1.53895 -4.36887 0
M  V30 5934 C 563.478 -2.01286 -5.36909 0
M  V30 5935 N 562.974 -2.56768 -6.43461 0
M  V30 5936 N 564.767 -1.92046 -5.28275 0
M  V30 5937 H 556.918 -1.58117 -1.4182 0
M  V30 5938 H 559.181 -0.662437 -0.678146 0
M  V30 5939 H 558.887 -1.99941 -2.89338 0
M  V30 5940 H 558.761 -0.469079 -3.74272 0
M  V30 5941 H 561.148 0.124846 -2.94836 0
M  V30 5942 H 561.229 -1.43522 -2.11743 0
M  V30 5943 H 560.873 -2.61862 -4.35191 0
M  V30 5944 H 560.803 -1.03422 -5.16344 0
M  V30 5945 H 563.294 -1.13366 -3.60495 0
M  V30 5946 H 563.607 -2.9072 -7.16032 0
M  V30 5947 H 561.952 -2.60808 -6.44208 0
M  V30 5948 H 565.143 -1.48439 -4.43941 0
M  V30 5949 H 565.316 -2.29293 -6.06077 0
M  V30 5950 N 558.722 1.53707 -0.348139 0
M  V30 5951 C 560.138 1.596 0.00361134 0
M  V30 5952 C 560.338 1.36394 1.4832 0
M  V30 5953 O 559.394 1.16046 2.24253 0
M  V30 5954 C 560.707 2.97512 -0.436682 0
M  V30 5955 C 562.255 3.10568 -0.389416 0
M  V30 5956 C 562.73 4.50866 -0.805249 0
M  V30 5957 N 564.221 4.56929 -0.759616 0
M  V30 5958 C 564.956 5.63643 -1.05327 0
M  V30 5959 N 564.452 6.78189 -1.41531 0
M  V30 5960 N 566.245 5.5354 -0.977207 0
M  V30 5961 H 558.396 1.67044 -1.31187 0
M  V30 5962 H 560.659 0.782559 -0.535075 0
M  V30 5963 H 560.365 3.19575 -1.46849 0
M  V30 5964 H 560.239 3.76742 0.185744 0
M  V30 5965 H 562.626 2.88226 0.633228 0
M  V30 5966 H 562.707 2.33387 -1.04711 0
M  V30 5967 H 562.351 4.73943 -1.82593 0
M  V30 5968 H 562.281 5.26452 -0.124989 0
M  V30 5969 H 564.772 3.74675 -0.49265 0
M  V30 5970 H 565.085 7.55541 -1.62411 0
M  V30 5971 H 563.43 6.79624 -1.45381 0
M  V30 5972 H 566.621 4.62932 -0.693675 0
M  V30 5973 H 566.794 6.36614 -1.2094 0
M  V30 5974 N 560.2 0.0768682 1.57412 0
M  V30 5975 C 561.448 -0.589918 1.93299 0
M  V30 5976 C 561.769 -1.69842 0.958049 0
M  V30 5977 O 561.039 -1.95899 0.00703261 0
M  V30 5978 H 559.619 -0.220901 0.713591 0
M  V30 5979 H 562.281 0.135917 1.94425 0
M  V30 5980 H 561.377 -1.01195 2.95239 0
M  V30 5981 N 561.678 -1.56367 -0.196722 0
M  V30 5982 C 562.926 -1.80172 -0.915554 0
M  V30 5983 C 563.247 -0.649649 -1.8386 0
M  V30 5984 O 562.517 0.332111 -1.93064 0
M  V30 5985 H 561.097 -0.664592 -0.341067 0
M  V30 5986 H 563.759 -1.93844 -0.202622 0
M  V30 5987 H 562.855 -2.7327 -1.50764 0
M  V30 5988 N 563.156 0.464375 -1.50603 0
M  V30 5989 C 564.567 1.04507 -1.5471 0
M  V30 5990 C 564.918 1.9297 -0.354542 0
M  V30 5991 O 564.043 2.09763 0.531812 0
M  V30 5992 C 564.638 1.90207 -2.80369 0
M  V30 5993 C 563.197 2.43373 -2.87135 0
M  V30 5994 C 562.344 1.21886 -2.49076 0
M  V30 5995 H 565.295 0.246716 -1.56771 0
M  V30 5996 H 565.316 2.75353 -2.62604 0
M  V30 5997 H 564.828 1.25796 -3.67147 0
M  V30 5998 H 562.929 3.11318 -2.04724 0
M  V30 5999 H 563.042 2.7802 -3.90181 0
M  V30 6000 H 561.406 1.55575 -2.01664 0
M  V30 6001 H 562.189 0.591268 -3.3817 0
M  V30 6002 N 564.634 1.40294 0.718013 0
M  V30 6003 C 565.582 1.40536 1.85344 0
M  V30 6004 C 566.576 0.286192 1.66965 0
M  V30 6005 O 567.782 0.457105 1.74099 0
M  V30 6006 H 564.157 0.439236 0.61039 0
M  V30 6007 H 566.128 2.36275 1.82255 0
M  V30 6008 C 564.877 1.28245 3.23185 0
M  V30 6009 H 564.2 2.1364 3.37932 0
M  V30 6010 H 565.64 1.32474 4.02774 0
M  V30 6011 C 564.099 -0.0075503 3.36899 0
M  V30 6012 O 564.629 -0.971391 3.89778 0
M  V30 6013 N 562.835 -0.0762479 2.905 0
M  V30 6014 H 562.382 0.708819 2.47656 0
M  V30 6015 H 562.34 -0.938846 3.00055 0
M  V30 6016 N 566.112 -0.949982 1.2575 0
M  V30 6017 C 567.342 -1.72721 1.13363 0
M  V30 6018 C 567.75 -1.86562 -0.314842 0
M  V30 6019 O 567.093 -1.36621 -1.22803 0
M  V30 6020 C 567.155 -3.15695 1.7198 0
M  V30 6021 C 566.819 -3.25268 3.21014 0
M  V30 6022 C 567.816 -3.09222 4.17945 0
M  V30 6023 C 565.501 -3.4894 3.61312 0
M  V30 6024 C 567.495 -3.16701 5.53154 0
M  V30 6025 C 565.182 -3.56055 4.96657 0
M  V30 6026 C 566.18 -3.3995 5.92387 0
M  V30 6027 O 565.868 -3.46757 7.25269 0
M  V30 6028 H 565.6 -0.547888 0.395973 0
M  V30 6029 H 568.154 -1.20009 1.66694 0
M  V30 6030 H 566.384 -3.69791 1.13101 0
M  V30 6031 H 568.073 -3.75295 1.54624 0
M  V30 6032 H 568.839 -2.90798 3.88151 0
M  V30 6033 H 564.718 -3.60534 2.87291 0
M  V30 6034 H 568.262 -3.04048 6.27854 0
M  V30 6035 H 564.159 -3.73997 5.26115 0
M  V30 6036 H 564.927 -3.63358 7.33426 0
M  V30 6037 N 567.59 -1.07411 -1.15328 0
M  V30 6038 C 568.522 -0.652924 -2.19703 0
M  V30 6039 C 569.535 0.294869 -1.60107 0
M  V30 6040 O 570.724 0.0840932 -1.78302 0
M  V30 6041 C 567.824 0.061434 -3.38844 0
M  V30 6042 C 566.997 -0.902696 -4.27984 0
M  V30 6043 C 566.056 -0.225521 -5.25717 0
M  V30 6044 O 565.082 -0.86676 -5.62562 0
M  V30 6045 N 566.284 1.02858 -5.71315 0
M  V30 6046 H 569.049 -1.55081 -2.56457 0
M  V30 6047 H 566.61 -0.958883 -1.30449 0
M  V30 6048 H 568.602 0.525145 -4.01278 0
M  V30 6049 H 567.172 0.861269 -3.00501 0
M  V30 6050 H 566.392 -1.54551 -3.6264 0
M  V30 6051 H 567.68 -1.55636 -4.84412 0
M  V30 6052 H 567.078 1.56948 -5.43492 0
M  V30 6053 H 565.635 1.43596 -6.35786 0
M  V30 6054 N 569.068 1.32177 -0.85831 0
M  V30 6055 C 569.978 2.32561 -0.308606 0
M  V30 6056 C 570.994 1.64209 0.575462 0
M  V30 6057 O 572.17 1.95719 0.474961 0
M  V30 6058 C 569.235 3.43207 0.490909 0
M  V30 6059 C 568.296 4.27243 -0.419733 0
M  V30 6060 C 567.529 5.32605 0.341719 0
M  V30 6061 O 567.752 5.48332 1.57125 0
M  V30 6062 O 566.686 6.0118 -0.294379 0
M  V30 6063 H 570.512 2.81477 -1.14037 0
M  V30 6064 H 568.097 1.35866 -0.621349 0
M  V30 6065 H 569.979 4.10677 0.944574 0
M  V30 6066 H 568.654 2.96474 1.29941 0
M  V30 6067 H 567.561 3.62569 -0.921652 0
M  V30 6068 H 568.894 4.7751 -1.19352 0
M  V30 6069 N 570.547 0.616602 1.45037 0
M  V30 6070 C 571.795 0.115103 2.01772 0
M  V30 6071 C 572.116 -1.2622 1.48639 0
M  V30 6072 O 571.386 -1.83563 0.684199 0
M  V30 6073 H 569.966 0.0395607 0.745952 0
M  V30 6074 H 572.628 0.800032 1.77723 0
M  V30 6075 H 571.724 0.0717274 3.12018 0
M  V30 6076 N 572.025 -1.5352 0.356285 0
M  V30 6077 C 572.955 -2.28372 -0.486661 0
M  V30 6078 C 573.936 -1.30432 -1.09185 0
M  V30 6079 O 575.121 -1.59291 -1.11085 0
M  V30 6080 C 572.251 -3.06604 -1.63129 0
M  V30 6081 C 571.205 -4.12154 -1.15381 0
M  V30 6082 C 570.531 -4.78415 -2.38796 0
M  V30 6083 C 571.831 -5.21724 -0.245179 0
M  V30 6084 H 573.525 -2.99083 0.137797 0
M  V30 6085 H 571.071 -1.43841 0.0677134 0
M  V30 6086 H 573.024 -3.57712 -2.22755 0
M  V30 6087 H 571.748 -2.33568 -2.28284 0
M  V30 6088 H 570.407 -3.61978 -0.580294 0
M  V30 6089 H 570.055 -4.01959 -3.02387 0
M  V30 6090 H 569.755 -5.49734 -2.07524 0
M  V30 6091 H 571.279 -5.32313 -2.99125 0
M  V30 6092 H 572.693 -5.68391 -0.748646 0
M  V30 6093 H 571.09 -6.00095 -0.0237608 0
M  V30 6094 H 572.16 -4.79596 0.715229 0
M  V30 6095 N 573.503 -0.0852151 -1.57369 0
M  V30 6096 C 574.919 0.271436 -1.57275 0
M  V30 6097 C 575.119 1.69109 -1.09565 0
M  V30 6098 O 574.175 2.40549 -0.767611 0
M  V30 6099 C 575.488 0.0688638 -3.00621 0
M  V30 6100 C 577.036 0.137373 -3.12698 0
M  V30 6101 C 577.511 -0.0370832 -4.57985 0
M  V30 6102 N 579.002 0.0180794 -4.63196 0
M  V30 6103 C 579.737 -0.0922953 -5.73326 0
M  V30 6104 N 579.233 -0.256948 -6.92323 0
M  V30 6105 N 581.026 -0.0342702 -5.6209 0
M  V30 6106 H 573.177 -1.01288 -1.86693 0
M  V30 6107 H 575.44 -0.396138 -0.861266 0
M  V30 6108 H 575.146 -0.911277 -3.39689 0
M  V30 6109 H 575.02 0.815442 -3.6828 0
M  V30 6110 H 577.407 1.10801 -2.73509 0
M  V30 6111 H 577.488 -0.640532 -2.47651 0
M  V30 6112 H 577.132 -1.00455 -4.97867 0
M  V30 6113 H 577.062 0.760392 -5.21081 0
M  V30 6114 H 579.553 0.143202 -3.77629 0
M  V30 6115 H 579.866 -0.332949 -7.72082 0
M  V30 6116 H 578.211 -0.292487 -6.94384 0
M  V30 6117 H 581.402 0.0931605 -4.68007 0
M  V30 6118 H 581.575 -0.12374 -6.47882 0
M  V30 6119 N 574.981 1.5647 0.188427 0
M  V30 6120 C 576.227 1.81281 0.909124 0
M  V30 6121 C 576.56 0.66034 1.82628 0
M  V30 6122 O 575.835 -0.338737 1.91528 0
M  V30 6123 C 576.118 3.16388 1.7196 0
M  V30 6124 C 575.971 4.42137 0.826714 0
M  V30 6125 C 577.29 3.48256 2.69083 0
M  V30 6126 H 574.409 0.659457 0.329068 0
M  V30 6127 H 577.051 1.89182 0.176156 0
M  V30 6128 H 575.201 3.09784 2.34448 0
M  V30 6129 H 576.873 4.60794 0.216025 0
M  V30 6130 H 575.116 4.33594 0.133792 0
M  V30 6131 H 575.787 5.33184 1.42893 0
M  V30 6132 H 578.263 3.55203 2.16726 0
M  V30 6133 H 577.139 4.43899 3.2287 0
M  V30 6134 H 577.4 2.72088 3.48455 0
M  V30 6135 N 576.459 -0.456382 1.50847 0
M  V30 6136 C 577.392 -1.57177 1.65441 0
M  V30 6137 C 578.37 -1.54649 0.502224 0
M  V30 6138 O 579.554 -1.74057 0.723633 0
M  V30 6139 C 576.681 -2.95763 1.65052 0
M  V30 6140 C 575.727 -3.16389 2.86007 0
M  V30 6141 S 576.56 -2.94716 4.47105 0
M  V30 6142 C 577.716 -4.35617 4.49432 0
M  V30 6143 H 577.949 -1.44561 2.59787 0
M  V30 6144 H 575.482 -0.644758 1.40293 0
M  V30 6145 H 577.44 -3.75654 1.65512 0
M  V30 6146 H 576.101 -3.05756 0.719153 0
M  V30 6147 H 575.294 -4.17667 2.82081 0
M  V30 6148 H 574.896 -2.44293 2.8319 0
M  V30 6149 H 577.188 -5.28503 4.239 0
M  V30 6150 H 578.131 -4.44582 5.51137 0
M  V30 6151 H 578.539 -4.18382 3.78967 0
M  V30 6152 N 577.937 -1.40673 -0.710563 0
M  V30 6153 C 579.185 -1.38947 -1.46759 0
M  V30 6154 C 579.506 0.00572879 -1.94999 0
M  V30 6155 O 578.776 0.961358 -1.70689 0
M  V30 6156 H 577.356 -0.5114 -0.544499 0
M  V30 6157 H 580.018 -1.75773 -0.842012 0
M  V30 6158 H 579.114 -2.06745 -2.33801 0
M  V30 6159 N 579.415 0.9433 -1.26252 0
M  V30 6160 C 580.325 2.07532 -1.09397 0
M  V30 6161 C 581.341 1.73977 -0.0280449 0
M  V30 6162 O 582.517 2.00067 -0.231337 0
M  V30 6163 C 579.582 3.39002 -0.726523 0
M  V30 6164 C 578.643 3.86353 -1.87163 0
M  V30 6165 C 577.876 5.11549 -1.52162 0
M  V30 6166 O 578.099 5.68834 -0.422385 0
M  V30 6167 O 577.033 5.53889 -2.35565 0
M  V30 6168 H 580.859 2.24658 -2.04359 0
M  V30 6169 H 578.444 1.05988 -1.05295 0
M  V30 6170 H 580.326 4.18 -0.534236 0
M  V30 6171 H 579.001 3.2312 0.193721 0
M  V30 6172 H 577.908 3.0831 -2.11886 0
M  V30 6173 H 579.241 4.06752 -2.77152 0
M  V30 6174 N 580.893 1.08022 1.14757 0
M  V30 6175 C 582.139 0.808705 1.85978 0
M  V30 6176 C 582.472 -0.663764 1.82504 0
M  V30 6177 O 581.747 -1.48765 1.25296 0
M  V30 6178 C 582.03 1.32623 3.34788 0
M  V30 6179 C 581.883 2.86375 3.46856 0
M  V30 6180 C 583.202 0.948291 4.29762 0
M  V30 6181 H 580.321 0.295244 0.675278 0
M  V30 6182 H 582.963 1.33917 1.34783 0
M  V30 6183 H 581.113 0.875002 3.78518 0
M  V30 6184 H 582.785 3.39839 3.11941 0
M  V30 6185 H 581.028 3.24232 2.88194 0
M  V30 6186 H 581.699 3.17658 4.51439 0
M  V30 6187 H 584.175 1.33722 3.94028 0
M  V30 6188 H 583.051 1.33765 5.32352 0
M  V30 6189 H 583.312 -0.145094 4.41862 0
M  V30 6190 N 582.371 -1.3172 0.865308 0
M  V30 6191 C 583.619 -1.96487 0.472995 0
M  V30 6192 C 583.94 -1.68761 -0.976975 0
M  V30 6193 O 583.21 -1.00051 -1.68424 0
M  V30 6194 H 581.79 -0.726947 0.171922 0
M  V30 6195 H 584.452 -1.60612 1.10407 0
M  V30 6196 H 583.548 -3.0574 0.62687 0
M  V30 6197 N 583.85 -0.624285 -1.44708 0
M  V30 6198 C 584.797 0.0847135 -2.30644 0
M  V30 6199 C 585.767 0.843575 -1.43084 0
M  V30 6200 O 586.952 0.825982 -1.71995 0
M  V30 6201 C 584.091 1.06495 -3.28257 0
M  V30 6202 C 583.205 0.305224 -4.3092 0
M  V30 6203 C 582.34 1.27667 -5.1563 0
M  V30 6204 C 581.379 0.505706 -6.10007 0
M  V30 6205 N 580.516 1.42727 -6.8744 0
M  V30 6206 H 585.356 -0.654068 -2.90733 0
M  V30 6207 H 582.893 -0.334334 -1.4325 0
M  V30 6208 H 584.851 1.64658 -3.83332 0
M  V30 6209 H 583.481 1.77094 -2.69884 0
M  V30 6210 H 582.533 -0.392207 -3.78373 0
M  V30 6211 H 583.845 -0.295553 -4.97924 0
M  V30 6212 H 582.999 1.92984 -5.75189 0
M  V30 6213 H 581.738 1.91137 -4.48685 0
M  V30 6214 H 580.743 -0.160999 -5.49564 0
M  V30 6215 H 581.968 -0.124183 -6.78986 0
M  V30 6216 H 579.913 2.04931 -6.23169 0
M  V30 6217 H 579.831 0.880345 -7.50857 0
M  V30 6218 H 581.099 2.0695 -7.51526 0
M  V30 6219 N 585.328 1.53329 -0.364422 0
M  V30 6220 C 586.556 2.05657 0.226424 0
M  V30 6221 C 586.971 1.23801 1.42544 0
M  V30 6222 O 586.328 0.27839 1.80364 0
M  V30 6223 C 586.379 3.56125 0.621056 0
M  V30 6224 O 586.1 4.34879 -0.530304 0
M  V30 6225 C 587.601 4.24706 1.27041 0
M  V30 6226 H 584.821 0.669806 0.0400056 0
M  V30 6227 H 587.365 1.97714 -0.522456 0
M  V30 6228 H 585.52 3.64223 1.31985 0
M  V30 6229 H 585.934 5.24073 -0.211546 0
M  V30 6230 H 587.408 5.3131 1.49711 0
M  V30 6231 H 587.885 3.78354 2.23036 0
M  V30 6232 H 588.491 4.20858 0.613079 0
M  V30 6233 N 586.806 0.0935595 1.57322 0
M  V30 6234 C 588.034 -0.578934 1.98635 0
M  V30 6235 C 588.449 -1.61819 0.972626 0
M  V30 6236 O 587.806 -1.82461 -0.0379638 0
M  V30 6237 C 587.857 -1.22802 3.40003 0
M  V30 6238 O 587.578 -0.230334 4.37494 0
M  V30 6239 C 589.079 -1.98627 3.96311 0
M  V30 6240 H 586.299 -0.155324 0.652775 0
M  V30 6241 H 588.843 0.172393 2.03772 0
M  V30 6242 H 586.998 -1.93029 3.35885 0
M  V30 6243 H 587.412 -0.698649 5.19826 0
M  V30 6244 H 588.886 -2.39405 4.97382 0
M  V30 6245 H 589.363 -2.85151 3.34044 0
M  V30 6246 H 589.969 -1.3322 4.03897 0
M  V30 6247 N 588.284 -1.56567 -0.180126 0
M  V30 6248 C 589.532 -1.81133 -0.896392 0
M  V30 6249 C 589.853 -0.669114 -1.83161 0
M  V30 6250 O 589.123 0.311616 -1.93406 0
M  V30 6251 H 587.703 -0.668172 -0.333999 0
M  V30 6252 H 590.365 -1.94048 -0.182051 0
M  V30 6253 H 589.461 -2.74854 -1.47857 0
M  V30 6254 N 589.762 0.448376 -1.51087 0
M  V30 6255 C 591.011 1.19561 -1.62444 0
M  V30 6256 C 591.324 1.92602 -0.341151 0
M  V30 6257 O 592.53 2.69439 -0.333936 0
M  V30 6258 C 590.986 2.17373 -2.8684 0
M  V30 6259 C 590.594 1.5003 -4.22131 0
M  V30 6260 C 592.338 2.92597 -3.0755 0
M  V30 6261 C 590.245 2.46262 -5.37689 0
M  V30 6262 H 589.175 0.449975 -0.605011 0
M  V30 6263 H 591.826 0.463735 -1.77544 0
M  V30 6264 H 590.208 2.93948 -2.65349 0
M  V30 6265 H 591.382 0.790886 -4.53962 0
M  V30 6266 H 589.697 0.870011 -4.0721 0
M  V30 6267 H 592.294 3.64663 -3.91056 0
M  V30 6268 H 592.637 3.53306 -2.20183 0
M  V30 6269 H 593.17 2.23131 -3.29329 0
M  V30 6270 H 589.909 1.90258 -6.27281 0
M  V30 6271 H 589.429 3.15289 -5.10248 0
M  V30 6272 H 591.108 3.07623 -5.6919 0
M  V30 6273 N 591.24 1.41047 0.703093 0
M  V30 6274 C 592.651 1.35657 1.28274 0
M  V30 6275 C 593.002 0.0360309 1.96167 0
M  V30 6276 O 592.127 -0.865833 1.98324 0
M  V30 6277 C 592.722 2.45707 2.33267 0
M  V30 6278 C 591.281 2.43738 2.86825 0
M  V30 6279 C 590.428 2.25941 1.60767 0
M  V30 6280 H 593.379 1.50672 0.49836 0
M  V30 6281 H 593.4 2.14333 3.14391 0
M  V30 6282 H 592.912 3.41805 1.83824 0
M  V30 6283 H 591.013 1.51375 3.40465 0
M  V30 6284 H 591.126 3.39779 3.37768 0
M  V30 6285 H 589.49 1.73681 1.86298 0
M  V30 6286 H 590.273 3.24054 1.1333 0
M  V30 6287 N 592.718 -0.936591 1.26751 0
M  V30 6288 C 593.967 -1.67778 1.11953 0
M  V30 6289 C 594.28 -1.92694 -0.33589 0
M  V30 6290 O 595.486 -2.64682 -0.604618 0
M  V30 6291 C 593.942 -3.02138 1.95551 0
M  V30 6292 C 593.55 -2.84953 3.45696 0
M  V30 6293 C 595.294 -3.79917 1.89377 0
M  V30 6294 C 593.201 -4.14814 4.21525 0
M  V30 6295 H 592.131 -0.629275 0.415366 0
M  V30 6296 H 594.782 -1.04122 1.51099 0
M  V30 6297 H 593.164 -3.668 1.49243 0
M  V30 6298 H 594.338 -2.29112 3.99805 0
M  V30 6299 H 592.653 -2.20612 3.53156 0
M  V30 6300 H 595.25 -4.76134 2.43312 0
M  V30 6301 H 595.593 -4.07204 0.865464 0
M  V30 6302 H 596.126 -3.22037 2.33532 0
M  V30 6303 H 592.865 -3.92709 5.24843 0
M  V30 6304 H 592.385 -4.70352 3.72195 0
M  V30 6305 H 594.064 -4.83239 4.3022 0
M  V30 6306 N 594.196 -1.08629 -1.14182 0
M  V30 6307 C 595.146 -0.687882 -2.17376 0
M  V30 6308 C 596.13 0.293632 -1.58198 0
M  V30 6309 O 597.322 0.105292 -1.76687 0
M  V30 6310 C 594.451 -0.101184 -3.43151 0
M  V30 6311 C 593.537 -1.10862 -4.09354 0
M  V30 6312 N 593.928 -2.29285 -4.50846 0
M  V30 6313 C 592.226 -0.944897 -4.35876 0
M  V30 6314 C 592.927 -2.93305 -5.02342 0
M  V30 6315 N 591.903 -2.20903 -4.96692 0
M  V30 6316 H 595.705 -1.58963 -2.472 0
M  V30 6317 H 593.219 -0.961329 -1.3089 0
M  V30 6318 H 595.216 0.202209 -4.16409 0
M  V30 6319 H 593.876 0.795522 -3.14804 0
M  V30 6320 H 594.887 -2.66927 -4.43813 0
M  V30 6321 H 591.564 -0.102186 -4.17375 0
M  V30 6322 H 592.954 -3.93932 -5.44304 0
M  V30 6323 N 595.674 1.31259 -0.872281 0
M  V30 6324 C 596.92 1.96913 -0.485083 0
M  V30 6325 C 597.253 1.68774 0.960667 0
M  V30 6326 O 596.528 0.985495 1.67685 0
M  V30 6327 C 596.811 3.52299 -0.745502 0
M  V30 6328 C 596.664 3.90002 -2.24095 0
M  V30 6329 C 597.983 4.39582 -0.213516 0
M  V30 6330 H 595.102 0.715252 -0.177716 0
M  V30 6331 H 597.744 1.55347 -1.09395 0
M  V30 6332 H 595.894 3.87835 -0.227276 0
M  V30 6333 H 597.566 3.64555 -2.82661 0
M  V30 6334 H 595.809 3.38526 -2.71261 0
M  V30 6335 H 596.48 4.98352 -2.37381 0
M  V30 6336 H 598.956 4.10882 -0.656902 0
M  V30 6337 H 597.832 5.47251 -0.42516 0
M  V30 6338 H 598.093 4.33158 0.884666 0
M  V30 6339 N 597.152 0.631951 1.44375 0
M  V30 6340 C 598.399 0.136767 2.02038 0
M  V30 6341 C 598.727 -1.24168 1.49709 0
M  V30 6342 O 597.982 -1.83809 0.671763 0
M  V30 6343 C 598.281 0.0735861 3.57324 0
M  V30 6344 C 597.947 1.39092 4.28911 0
M  V30 6345 C 596.609 1.75171 4.48184 0
M  V30 6346 C 598.961 2.26042 4.69632 0
M  V30 6347 C 596.289 2.97907 5.05439 0
M  V30 6348 C 598.641 3.4805 5.28246 0
M  V30 6349 C 597.305 3.84351 5.45738 0
M  V30 6350 H 596.575 0.0500466 0.739308 0
M  V30 6351 H 599.222 0.818429 1.7313 0
M  V30 6352 H 597.527 -0.691449 3.8565 0
M  V30 6353 H 599.224 -0.326091 3.99672 0
M  V30 6354 H 595.814 1.10015 4.1424 0
M  V30 6355 H 599.998 1.99463 4.54454 0
M  V30 6356 H 595.254 3.26108 5.17169 0
M  V30 6357 H 599.428 4.15658 5.5875 0
M  V30 6358 H 597.055 4.79538 5.8987 0
M  V30 6359 N 598.631 -1.53133 0.372548 0
M  V30 6360 C 599.879 -2.00958 -0.214534 0
M  V30 6361 C 600.2 -1.26135 -1.48711 0
M  V30 6362 O 599.47 -0.376597 -1.92246 0
M  V30 6363 H 598.05 -0.742456 -0.0822664 0
M  V30 6364 H 600.712 -1.88367 0.500385 0
M  V30 6365 H 599.808 -3.09031 -0.436605 0
M  V30 6366 N 600.109 -0.101901 -1.5727 0
M  V30 6367 C 601.337 0.568392 -1.98939 0
M  V30 6368 C 601.752 1.61301 -0.981194 0
M  V30 6369 O 601.109 1.82478 0.0282869 0
M  V30 6370 C 601.16 1.20997 -3.40649 0
M  V30 6371 O 600.881 0.207129 -4.3761 0
M  V30 6372 C 602.382 1.96523 -3.97358 0
M  V30 6373 H 599.602 0.15186 -0.65359 0
M  V30 6374 H 602.146 -0.183198 -2.03678 0
M  V30 6375 H 600.301 1.91245 -3.36904 0
M  V30 6376 H 600.715 0.671071 -5.20189 0
M  V30 6377 H 602.189 2.36764 -4.98645 0
M  V30 6378 H 602.666 2.83376 -3.35552 0
M  V30 6379 H 603.272 1.31076 -4.04598 0
M  V30 6380 N 601.587 1.56661 0.17182 0
M  V30 6381 C 602.497 1.99604 1.2327 0
M  V30 6382 C 603.513 0.907333 1.4847 0
M  V30 6383 O 604.689 1.21492 1.60629 0
M  V30 6384 C 601.754 2.34685 2.55194 0
M  V30 6385 C 600.815 3.57381 2.3786 0
M  V30 6386 C 600.048 3.90779 3.63494 0
M  V30 6387 O 600.271 3.25152 4.6865 0
M  V30 6388 O 599.205 4.84129 3.57634 0
M  V30 6389 H 603.031 2.90114 0.898192 0
M  V30 6390 H 600.616 1.44522 0.378647 0
M  V30 6391 H 602.498 2.5822 3.33017 0
M  V30 6392 H 601.173 1.47336 2.88225 0
M  V30 6393 H 600.08 3.39064 1.5807 0
M  V30 6394 H 601.413 4.45268 2.09754 0
M  V30 6395 N 603.065 -0.440357 1.51323 0
M  V30 6396 C 604.293 -1.21255 1.67645 0
M  V30 6397 C 604.708 -1.85088 0.37252 0
M  V30 6398 O 604.065 -1.70582 -0.648683 0
M  V30 6399 C 604.116 -2.29881 2.78993 0
M  V30 6400 O 603.837 -1.68659 4.04334 0
M  V30 6401 C 605.338 -3.20214 3.06558 0
M  V30 6402 H 602.558 -0.36558 0.562666 0
M  V30 6403 H 605.102 -0.52214 1.97722 0
M  V30 6404 H 603.257 -2.94643 2.51524 0
M  V30 6405 H 603.671 -2.40426 4.6615 0
M  V30 6406 H 605.145 -3.92575 3.88058 0
M  V30 6407 H 605.622 -3.80794 2.18844 0
M  V30 6408 H 606.228 -2.61156 3.35675 0
M  V30 6409 N 604.543 -1.41418 -0.695603 0
M  V30 6410 C 605.493 -1.39731 -1.80165 0
M  V30 6411 C 606.477 -0.271689 -1.5859 0
M  V30 6412 O 607.669 -0.512354 -1.69422 0
M  V30 6413 C 604.798 -1.28187 -3.1847 0
M  V30 6414 C 603.884 -2.45612 -3.45739 0
M  V30 6415 N 604.275 -3.71077 -3.43708 0
M  V30 6416 C 602.573 -2.39424 -3.76288 0
M  V30 6417 C 603.274 -4.48957 -3.69882 0
M  V30 6418 N 602.25 -3.7907 -3.89624 0
M  V30 6419 H 606.052 -2.34656 -1.76957 0
M  V30 6420 H 603.566 -1.35473 -0.89559 0
M  V30 6421 H 605.563 -1.2506 -3.977 0
M  V30 6422 H 604.223 -0.342468 -3.22889 0
M  V30 6423 H 605.234 -4.03963 -3.2409 0
M  V30 6424 H 601.911 -1.53955 -3.88077 0
M  V30 6425 H 603.301 -5.57887 -3.74448 0
M  V30 6426 N 606.021 0.929856 -1.27246 0
M  V30 6427 C 606.954 2.03069 -1.04106 0
M  V30 6428 C 607.932 1.62556 0.0378417 0
M  V30 6429 O 609.116 1.88197 -0.106869 0
M  V30 6430 C 606.243 3.33718 -0.578778 0
M  V30 6431 C 605.289 3.93209 -1.65193 0
M  V30 6432 S 606.122 4.26068 -3.24386 0
M  V30 6433 C 607.278 5.598 -2.79954 0
M  V30 6434 H 607.511 2.22386 -1.97311 0
M  V30 6435 H 605.044 1.07269 -1.11053 0
M  V30 6436 H 607.002 4.09261 -0.31874 0
M  V30 6437 H 605.663 3.12328 0.333182 0
M  V30 6438 H 604.856 4.87482 -1.27973 0
M  V30 6439 H 604.458 3.24243 -1.86393 0
M  V30 6440 H 606.75 6.39004 -2.25123 0
M  V30 6441 H 607.693 6.01917 -3.72963 0
M  V30 6442 H 608.101 5.20219 -2.19164 0
M  V30 6443 N 607.499 1.09233 1.13605 0
M  V30 6444 C 608.727 0.848908 1.88683 0
M  V30 6445 C 609.142 -0.599667 1.79024 0
M  V30 6446 O 608.499 -1.41265 1.15544 0
M  V30 6447 C 608.55 1.27273 3.38355 0
M  V30 6448 O 608.271 2.66449 3.47759 0
M  V30 6449 C 609.772 1.0614 4.30406 0
M  V30 6450 H 606.992 0.305549 0.597395 0
M  V30 6451 H 609.536 1.4538 1.43823 0
M  V30 6452 H 607.691 0.711776 3.80805 0
M  V30 6453 H 608.105 2.84264 4.40788 0
M  V30 6454 H 609.579 1.40725 5.33761 0
M  V30 6455 H 610.056 -0.000960332 4.392 0
M  V30 6456 H 610.662 1.60821 3.93722 0
M  V30 6457 N 608.977 -1.30795 0.87923 0
M  V30 6458 C 609.94 -2.26563 0.346676 0
M  V30 6459 C 610.94 -1.52578 -0.507597 0
M  V30 6460 O 612.13 -1.71318 -0.315575 0
M  V30 6461 C 609.262 -3.37115 -0.506611 0
M  V30 6462 H 610.455 -2.75183 1.19223 0
M  V30 6463 H 608.008 -1.41886 0.655598 0
M  V30 6464 H 608.743 -2.93802 -1.37299 0
M  V30 6465 H 608.528 -3.91959 0.105218 0
M  V30 6466 H 610.018 -4.08412 -0.871192 0
M  V30 6467 N 610.455 -0.639598 -1.44038 0
M  V30 6468 C 611.704 -0.144885 -2.01179 0
M  V30 6469 C 612.017 1.24372 -1.50967 0
M  V30 6470 O 613.223 1.83291 -2.00292 0
M  V30 6471 C 611.679 -0.208244 -3.59297 0
M  V30 6472 C 611.287 -1.59869 -4.18504 0
M  V30 6473 C 613.031 0.229568 -4.23879 0
M  V30 6474 C 610.938 -1.61671 -5.68873 0
M  V30 6475 H 609.868 -0.0504005 -0.752314 0
M  V30 6476 H 612.519 -0.799639 -1.65161 0
M  V30 6477 H 610.901 0.513767 -3.92653 0
M  V30 6478 H 612.075 -2.34496 -3.96671 0
M  V30 6479 H 610.39 -1.98131 -3.66242 0
M  V30 6480 H 612.987 0.235758 -5.3418 0
M  V30 6481 H 613.33 1.25848 -3.96822 0
M  V30 6482 H 613.863 -0.440233 -3.95357 0
M  V30 6483 H 610.602 -2.62427 -6.00677 0
M  V30 6484 H 610.122 -0.913489 -5.92803 0
M  V30 6485 H 611.801 -1.35439 -6.32665 0
M  V30 6486 N 611.933 1.52934 -0.380664 0
M  V30 6487 C 613.179 2.01765 0.20458 0
M  V30 6488 C 613.512 1.26696 1.47179 0
M  V30 6489 O 612.787 0.364936 1.91046 0
M  V30 6490 C 613.07 3.56869 0.481269 0
M  V30 6491 C 612.923 4.42617 -0.800629 0
M  V30 6492 C 614.242 4.2121 1.27554 0
M  V30 6493 H 611.361 0.733388 0.0728803 0
M  V30 6494 H 614.003 1.83068 -0.50853 0
M  V30 6495 H 612.153 3.72932 1.08875 0
M  V30 6496 H 613.825 4.38323 -1.43773 0
M  V30 6497 H 612.068 4.09977 -1.4178 0
M  V30 6498 H 612.739 5.49134 -0.561791 0
M  V30 6499 H 615.215 4.09072 0.761514 0
M  V30 6500 H 614.091 5.29732 1.43788 0
M  V30 6501 H 614.352 3.78269 2.28833 0
M  V30 6502 N 613.412 0.11024 1.57214 0
M  V30 6503 C 614.66 -0.548783 1.94506 0
M  V30 6504 C 614.981 -1.67772 0.99386 0
M  V30 6505 O 614.251 -1.9584 0.0485841 0
M  V30 6506 H 612.831 -0.205715 0.718116 0
M  V30 6507 H 615.493 0.177127 1.94093 0
M  V30 6508 H 614.589 -0.949096 2.97319 0
M  V30 6509 N 614.89 -1.56749 -0.16351 0
M  V30 6510 C 615.823 -1.9213 -1.23132 0
M  V30 6511 C 616.801 -0.785047 -1.42393 0
M  V30 6512 O 617.985 -1.0391 -1.57273 0
M  V30 6513 C 615.112 -2.17901 -2.59301 0
M  V30 6514 C 614.158 -3.40576 -2.5673 0
M  V30 6515 S 614.991 -4.94689 -2.05045 0
M  V30 6516 C 616.147 -5.23564 -3.42975 0
M  V30 6517 H 616.38 -2.824 -0.929383 0
M  V30 6518 H 613.913 -1.4994 -0.368418 0
M  V30 6519 H 615.871 -2.33429 -3.3767 0
M  V30 6520 H 614.532 -1.28324 -2.86691 0
M  V30 6521 H 613.725 -3.55833 -3.5693 0
M  V30 6522 H 613.327 -3.24204 -1.86462 0
M  V30 6523 H 615.619 -5.16019 -4.3901 0
M  V30 6524 H 616.562 -6.25134 -3.32586 0
M  V30 6525 H 616.97 -4.51113 -3.39348 0
M  V30 6526 N 616.368 0.432326 -1.51554 0
M  V30 6527 C 617.331 1.50765 -1.72634 0
M  V30 6528 C 618.331 1.49334 -0.596314 0
M  V30 6529 O 619.521 1.51268 -0.863925 0
M  V30 6530 C 616.653 2.90284 -1.7874 0
M  V30 6531 H 617.846 1.33377 -2.68609 0
M  V30 6532 H 615.399 0.661329 -1.4162 0
M  V30 6533 H 616.134 3.13071 -0.845977 0
M  V30 6534 H 615.919 2.92727 -2.6087 0
M  V30 6535 H 617.409 3.68282 -1.96871 0
M  V30 6536 N 617.846 1.41785 0.688094 0
M  V30 6537 C 618.776 1.47 1.8142 0
M  V30 6538 C 619.757 0.327881 1.6691 0
M  V30 6539 O 620.942 0.540362 1.86531 0
M  V30 6540 C 618.072 1.35876 3.19617 0
M  V30 6541 C 617.026 2.47976 3.48844 0
M  V30 6542 C 616.352 2.21915 4.86475 0
M  V30 6543 C 617.652 3.90309 3.47068 0
M  V30 6544 H 619.346 2.41247 1.77314 0
M  V30 6545 H 616.892 1.16116 0.851651 0
M  V30 6546 H 618.845 1.38134 3.98117 0
M  V30 6547 H 617.569 0.38116 3.24368 0
M  V30 6548 H 616.228 2.45013 2.72698 0
M  V30 6549 H 615.876 1.2248 4.8786 0
M  V30 6550 H 615.576 2.97037 5.06994 0
M  V30 6551 H 617.1 2.25901 5.67275 0
M  V30 6552 H 618.514 3.94947 4.1556 0
M  V30 6553 H 616.911 4.65175 3.7912 0
M  V30 6554 H 617.981 4.17927 2.45896 0
M  V30 6555 N 619.324 -0.923095 1.27737 0
M  V30 6556 C 620.572 -1.66797 1.14119 0
M  V30 6557 C 620.893 -1.92479 -0.312541 0
M  V30 6558 O 620.163 -1.53432 -1.218 0
M  V30 6559 H 618.743 -0.618196 0.419336 0
M  V30 6560 H 621.405 -1.10815 1.60331 0
M  V30 6561 H 620.501 -2.63424 1.67374 0
M  V30 6562 N 620.802 -1.09834 -1.13024 0
M  V30 6563 C 621.752 -0.710899 -2.16634 0
M  V30 6564 C 622.736 0.276836 -1.58501 0
M  V30 6565 O 623.928 0.0865457 -1.76788 0
M  V30 6566 C 621.057 -0.137574 -3.43024 0
M  V30 6567 C 620.143 -1.15198 -4.08155 0
M  V30 6568 N 620.534 -2.34054 -4.48388 0
M  V30 6569 C 618.832 -0.991074 -4.34849 0
M  V30 6570 C 619.533 -2.98616 -4.99203 0
M  V30 6571 N 618.509 -2.26159 -4.94321 0
M  V30 6572 H 622.311 -1.61576 -2.455 0
M  V30 6573 H 619.825 -0.975158 -1.29863 0
M  V30 6574 H 621.822 0.158031 -4.166 0
M  V30 6575 H 620.482 0.762088 -3.1563 0
M  V30 6576 H 621.493 -2.7162 -4.40957 0
M  V30 6577 H 618.17 -0.146448 -4.17243 0
M  V30 6578 H 619.56 -3.99683 -5.40096 0
M  V30 6579 N 622.28 1.30327 -0.886154 0
M  V30 6580 C 623.696 1.48676 -0.580323 0
M  V30 6581 C 623.896 1.81189 0.881639 0
M  V30 6582 O 622.952 1.90021 1.66278 0
M  V30 6583 C 624.265 2.60932 -1.49449 0
M  V30 6584 C 625.813 2.74812 -1.49824 0
M  V30 6585 C 626.288 3.90183 -2.39836 0
M  V30 6586 N 627.779 3.97495 -2.37806 0
M  V30 6587 C 628.514 4.86078 -3.04165 0
M  V30 6588 N 628.01 5.79448 -3.79753 0
M  V30 6589 N 629.803 4.79456 -2.93391 0
M  V30 6590 H 621.954 1.07495 -1.8319 0
M  V30 6591 H 624.217 0.532661 -0.784204 0
M  V30 6592 H 623.923 2.43731 -2.5355 0
M  V30 6593 H 623.797 3.57437 -1.20494 0
M  V30 6594 H 626.184 2.91418 -0.464731 0
M  V30 6595 H 626.265 1.78924 -1.82811 0
M  V30 6596 H 625.909 3.74334 -3.43273 0
M  V30 6597 H 625.839 4.85411 -2.04166 0
M  V30 6598 H 628.33 3.30703 -1.82877 0
M  V30 6599 H 628.643 6.43805 -4.27475 0
M  V30 6600 H 626.988 5.79376 -3.8386 0
M  V30 6601 H 630.179 4.05494 -2.33864 0
M  V30 6602 H 630.352 5.48283 -3.45383 0
M  V30 6603 N 623.758 0.647228 1.43697 0
M  V30 6604 C 625.169 0.238689 1.85168 0
M  V30 6605 C 625.52 -1.21345 1.54175 0
M  V30 6606 O 624.645 -1.92542 0.987743 0
M  V30 6607 C 625.24 0.426422 3.36106 0
M  V30 6608 C 623.799 0.0722541 3.76331 0
M  V30 6609 C 622.946 0.732153 2.6746 0
M  V30 6610 H 625.897 0.851309 1.33934 0
M  V30 6611 H 625.918 -0.32987 3.79067 0
M  V30 6612 H 625.43 1.48339 3.58632 0
M  V30 6613 H 623.531 -0.982355 3.59417 0
M  V30 6614 H 623.644 0.493541 4.76551 0
M  V30 6615 H 622.008 0.16594 2.54159 0
M  V30 6616 H 622.791 1.79204 2.92816 0
M  V30 6617 N 625.236 -1.5273 0.388769 0
M  V30 6618 C 626.485 -2.00757 -0.194833 0
M  V30 6619 C 626.798 -1.27951 -1.47946 0
M  V30 6620 O 628.004 -1.66686 -2.14308 0
M  V30 6621 C 626.46 -3.57695 -0.397762 0
M  V30 6622 C 626.068 -4.394 0.873583 0
M  V30 6623 C 627.812 -4.14012 -0.937759 0
M  V30 6624 C 625.719 -5.87938 0.638962 0
M  V30 6625 H 624.649 -0.750101 -0.0765845 0
M  V30 6626 H 627.3 -1.76239 0.511086 0
M  V30 6627 H 625.682 -3.7846 -1.16552 0
M  V30 6628 H 626.856 -4.30403 1.64591 0
M  V30 6629 H 625.171 -3.94301 1.33849 0
M  V30 6630 H 627.768 -5.22645 -1.12899 0
M  V30 6631 H 628.111 -3.7007 -1.90666 0
M  V30 6632 H 628.644 -3.97137 -0.229588 0
M  V30 6633 H 625.383 -6.36202 1.57885 0
M  V30 6634 H 624.903 -5.99726 -0.094443 0
M  V30 6635 H 626.582 -6.46423 0.273299 0
M  V30 6636 N 626.714 -0.118576 -1.57153 0
M  V30 6637 C 628.125 0.40687 -1.82213 0
M  V30 6638 C 628.476 1.66636 -1.03571 0
M  V30 6639 O 627.601 2.14682 -0.272171 0
M  V30 6640 C 628.196 0.744949 -3.30509 0
M  V30 6641 C 626.755 1.21503 -3.5625 0
M  V30 6642 C 625.902 0.223511 -2.76398 0
M  V30 6643 H 628.853 -0.343712 -1.54933 0
M  V30 6644 H 628.874 1.6024 -3.45114 0
M  V30 6645 H 628.386 -0.171911 -3.87719 0
M  V30 6646 H 626.487 2.1488 -3.04396 0
M  V30 6647 H 626.6 1.16065 -4.64829 0
M  V30 6648 H 624.964 0.71046 -2.44591 0
M  V30 6649 H 625.747 -0.686439 -3.36367 0
M  V30 6650 N 628.193 1.56834 0.155195 0
M  V30 6651 C 629.141 1.98584 1.21107 0
M  V30 6652 C 630.135 0.876987 1.44932 0
M  V30 6653 O 631.341 1.06215 1.45322 0
M  V30 6654 H 627.716 0.632039 0.407469 0
M  V30 6655 H 629.687 2.86561 0.832195 0
M  V30 6656 C 628.436 2.37555 2.53895 0
M  V30 6657 H 627.759 3.22428 2.3639 0
M  V30 6658 H 629.199 2.70598 3.26424 0
M  V30 6659 C 627.658 1.22507 3.13837 0
M  V30 6660 O 628.188 0.521388 3.98302 0
M  V30 6661 N 626.394 0.991444 2.73164 0
M  V30 6662 H 625.941 1.56544 2.04577 0
M  V30 6663 H 625.899 0.223546 3.13604 0
M  V30 6664 N 629.671 -0.424282 1.51781 0
M  V30 6665 C 630.603 -1.53457 1.70246 0
M  V30 6666 C 631.616 -1.52004 0.582967 0
M  V30 6667 O 632.805 -1.56544 0.857683 0
M  V30 6668 C 629.905 -2.92368 1.71389 0
M  V30 6669 C 629.078 -3.1818 3.00133 0
M  V30 6670 C 628.137 -4.36884 2.9329 0
M  V30 6671 O 627.163 -4.34901 3.67219 0
M  V30 6672 N 628.365 -5.4117 2.10036 0
M  V30 6673 H 631.13 -1.38017 2.66029 0
M  V30 6674 H 628.691 -0.613394 1.4983 0
M  V30 6675 H 630.683 -3.6982 1.64362 0
M  V30 6676 H 629.253 -3.0134 0.831449 0
M  V30 6677 H 628.473 -2.28908 3.20928 0
M  V30 6678 H 629.761 -3.32261 3.85331 0
M  V30 6679 H 629.159 -5.45623 1.49373 0
M  V30 6680 H 627.716 -6.17425 2.08878 0
M  V30 6681 N 631.149 -1.42148 -0.680565 0
M  V30 6682 C 632.56 -1.3768 -1.26099 0
M  V30 6683 C 632.911 -0.0672348 -1.96085 0
M  V30 6684 O 632.036 0.834172 -1.99676 0
M  V30 6685 C 632.631 -2.49387 -2.29328 0
M  V30 6686 C 631.19 -2.4827 -2.82911 0
M  V30 6687 C 630.337 -2.2847 -1.57152 0
M  V30 6688 H 633.288 -1.51446 -0.474326 0
M  V30 6689 H 633.309 -2.19307 -3.10941 0
M  V30 6690 H 632.821 -3.44686 -1.78363 0
M  V30 6691 H 630.922 -1.56773 -3.38013 0
M  V30 6692 H 631.035 -3.45109 -3.3232 0
M  V30 6693 H 629.399 -1.76623 -1.83511 0
M  V30 6694 H 630.182 -3.25816 -1.0816 0
M  V30 6695 N 632.627 0.916307 -1.28225 0
M  V30 6696 C 634.038 1.48024 -1.13779 0
M  V30 6697 C 634.389 1.94289 0.273139 0
M  V30 6698 O 633.514 1.82226 1.16716 0
M  V30 6699 C 634.109 2.69029 -2.05935 0
M  V30 6700 C 632.668 3.2161 -1.95561 0
M  V30 6701 C 631.815 1.94321 -1.97825 0
M  V30 6702 H 634.766 0.729272 -1.40951 0
M  V30 6703 H 634.787 3.44204 -1.62184 0
M  V30 6704 H 634.299 2.35325 -3.08616 0
M  V30 6705 H 632.4 3.60045 -0.959076 0
M  V30 6706 H 632.513 3.87032 -2.82388 0
M  V30 6707 H 630.877 2.1131 -1.42198 0
M  V30 6708 H 631.66 1.62917 -3.0218 0
M  V30 6709 N 634.105 1.10431 1.1244 0
M  V30 6710 C 635.333 0.868872 1.87772 0
M  V30 6711 C 635.748 -0.580645 1.7965 0
M  V30 6712 O 635.105 -1.40031 1.17036 0
M  V30 6713 C 635.156 1.30855 3.36986 0
M  V30 6714 O 634.877 2.70123 3.44914 0
M  V30 6715 C 636.378 1.107 4.29256 0
M  V30 6716 H 633.598 0.311868 0.59412 0
M  V30 6717 H 636.142 1.46897 1.42273 0
M  V30 6718 H 634.297 0.752126 3.80029 0
M  V30 6719 H 634.711 2.88923 4.37748 0
M  V30 6720 H 636.185 1.46378 5.32238 0
M  V30 6721 H 636.662 0.0456228 4.39176 0
M  V30 6722 H 637.268 1.64988 3.91994 0
M  V30 6723 N 635.583 -1.29855 0.893053 0
M  V30 6724 C 636.546 -2.26183 0.370687 0
M  V30 6725 C 637.546 -1.53108 -0.491385 0
M  V30 6726 O 638.736 -1.71643 -0.297386 0
M  V30 6727 C 635.868 -3.37633 -0.470827 0
M  V30 6728 H 637.061 -2.73903 1.22135 0
M  V30 6729 H 634.614 -1.41183 0.67061 0
M  V30 6730 H 635.349 -2.95241 -1.34175 0
M  V30 6731 H 635.134 -3.91825 0.146784 0
M  V30 6732 H 636.624 -4.09313 -0.827825 0
M  V30 6733 N 637.061 -0.65484 -1.43351 0
M  V30 6734 C 638.024 0.0263562 -2.29185 0
M  V30 6735 C 639.024 0.748951 -1.42293 0
M  V30 6736 O 640.214 0.589957 -1.63906 0
M  V30 6737 C 637.346 1.04806 -3.2439 0
M  V30 6738 H 638.539 -0.728883 -2.90908 0
M  V30 6739 H 636.092 -0.416149 -1.50658 0
M  V30 6740 H 636.827 1.83247 -2.67565 0
M  V30 6741 H 636.612 0.533554 -3.88453 0
M  V30 6742 H 638.102 1.52372 -3.88809 0
M  V30 6743 N 638.539 1.52521 -0.396863 0
M  V30 6744 C 639.489 2.2348 0.451722 0
M  V30 6745 C 640.473 1.2415 1.0235 0
M  V30 6746 O 641.665 1.4945 0.948348 0
M  V30 6747 C 638.794 3.05067 1.57445 0
M  V30 6748 C 637.88 4.11799 1.01404 0
M  V30 6749 N 638.271 5.05482 0.179234 0
M  V30 6750 C 636.569 4.27064 1.28578 0
M  V30 6751 C 637.27 5.81552 -0.131202 0
M  V30 6752 N 636.246 5.41523 0.474735 0
M  V30 6753 H 640.048 2.93269 -0.192534 0
M  V30 6754 H 637.562 1.61081 -0.206591 0
M  V30 6755 H 639.559 3.54446 2.19485 0
M  V30 6756 H 638.219 2.36816 2.22145 0
M  V30 6757 H 639.23 5.17573 -0.18411 0
M  V30 6758 H 635.907 3.70042 1.93327 0
M  V30 6759 H 637.297 6.67023 -0.808061 0
M  V30 6760 N 640.017 0.126909 1.57088 0
M  V30 6761 C 641.245 -0.53667 1.99819 0
M  V30 6762 C 641.66 -1.5972 1.00673 0
M  V30 6763 O 641.017 -1.825 0.000747365 0
M  V30 6764 C 641.068 -1.15563 3.42531 0
M  V30 6765 O 640.789 -0.137483 4.37884 0
M  V30 6766 C 642.29 -1.90176 4.00435 0
M  V30 6767 H 639.51 -0.141443 0.655923 0
M  V30 6768 H 642.054 0.215578 2.03361 0
M  V30 6769 H 640.209 -1.85861 3.39904 0
M  V30 6770 H 640.623 -0.588229 5.21191 0
M  V30 6771 H 642.097 -2.28801 5.02349 0
M  V30 6772 H 642.574 -2.78002 3.40017 0
M  V30 6773 H 643.18 -1.24623 4.06632 0
M  V30 6774 N 641.495 -1.56914 -0.146875 0
M  V30 6775 C 642.458 -1.97368 -1.16526 0
M  V30 6776 C 643.458 -0.860223 -1.35856 0
M  V30 6777 O 644.648 -1.12684 -1.32846 0
M  V30 6778 C 641.78 -2.28974 -2.52555 0
M  V30 6779 H 642.973 -2.88523 -0.818209 0
M  V30 6780 H 640.526 -1.5135 -0.390221 0
M  V30 6781 H 641.261 -1.40611 -2.92231 0
M  V30 6782 H 641.046 -3.10157 -2.39886 0
M  V30 6783 H 642.536 -2.61109 -3.25902 0
M  V30 6784 N 642.974 0.416227 -1.52004 0
M  V30 6785 C 643.922 1.5272 -1.7544 0
M  V30 6786 C 644.916 1.57596 -0.621289 0
M  V30 6787 O 646.122 1.61087 -0.803172 0
M  V30 6788 H 642.497 0.507772 -0.554682 0
M  V30 6789 H 644.468 1.30136 -2.68528 0
M  V30 6790 C 643.217 2.90165 -1.91571 0
M  V30 6791 H 642.54 2.87154 -2.78178 0
M  V30 6792 H 643.98 3.67211 -2.11972 0
M  V30 6793 C 642.439 3.29947 -0.680942 0
M  V30 6794 O 642.969 4.01403 0.154527 0
M  V30 6795 N 641.175 2.8593 -0.518894 0
M  V30 6796 H 640.722 2.2795 -1.19986 0
M  V30 6797 H 640.68 3.12907 0.305985 0
M  V30 6798 N 644.452 1.42507 0.673017 0
M  V30 6799 C 645.699 1.43072 1.43306 0
M  V30 6800 C 646.027 0.0478004 1.94441 0
M  V30 6801 O 645.282 -0.944106 1.71421 0
M  V30 6802 C 645.581 2.40351 2.64511 0
M  V30 6803 C 645.247 3.8669 2.31908 0
M  V30 6804 C 643.909 4.26551 2.22728 0
M  V30 6805 C 646.261 4.78991 2.05467 0
M  V30 6806 C 643.589 5.56691 1.85234 0
M  V30 6807 C 645.941 6.09476 1.69477 0
M  V30 6808 C 644.605 6.48334 1.58808 0
M  V30 6809 H 643.875 0.523536 0.524395 0
M  V30 6810 H 646.522 1.75459 0.76723 0
M  V30 6811 H 644.827 2.01297 3.36135 0
M  V30 6812 H 646.524 2.38051 3.22696 0
M  V30 6813 H 643.114 3.55132 2.39956 0
M  V30 6814 H 647.298 4.48982 2.11492 0
M  V30 6815 H 642.554 5.85657 1.75545 0
M  V30 6816 H 646.728 6.80482 1.48043 0
M  V30 6817 H 644.355 7.49084 1.29525 0
M  V30 6818 N 645.93 -0.909495 1.28709 0
M  V30 6819 C 646.86 -2.0291 1.15542 0
M  V30 6820 C 647.841 -1.7002 0.0521017 0
M  V30 6821 O 649.026 -1.92835 0.229849 0
M  V30 6822 C 646.156 -3.37458 0.820935 0
M  V30 6823 C 645.11 -3.84524 1.87949 0
M  V30 6824 C 644.436 -5.16086 1.39854 0
M  V30 6825 C 645.736 -4.05918 3.28676 0
M  V30 6826 H 647.43 -2.14183 2.09203 0
M  V30 6827 H 644.976 -1.02913 1.00722 0
M  V30 6828 H 646.929 -4.1528 0.715571 0
M  V30 6829 H 645.653 -3.26249 -0.151374 0
M  V30 6830 H 644.312 -3.08911 1.97408 0
M  V30 6831 H 643.96 -5.01284 0.41518 0
M  V30 6832 H 643.66 -5.48547 2.1064 0
M  V30 6833 H 645.184 -5.96459 1.30649 0
M  V30 6834 H 646.598 -4.74252 3.22115 0
M  V30 6835 H 644.995 -4.49717 3.97334 0
M  V30 6836 H 646.065 -3.10583 3.72379 0
M  V30 6837 N 647.408 -1.11026 -1.11852 0
M  V30 6838 C 648.338 -0.786812 -2.19844 0
M  V30 6839 C 649.319 0.242935 -1.68356 0
M  V30 6840 O 650.504 0.107355 -1.93903 0
M  V30 6841 C 647.634 -0.224516 -3.46574 0
M  V30 6842 C 646.588 -1.18564 -4.1125 0
M  V30 6843 C 645.914 -0.484261 -5.32503 0
M  V30 6844 C 647.214 -2.53465 -4.56676 0
M  V30 6845 H 648.908 -1.68978 -2.47158 0
M  V30 6846 H 646.454 -0.813906 -1.18792 0
M  V30 6847 H 648.407 0.0139435 -4.21398 0
M  V30 6848 H 647.131 0.713722 -3.18706 0
M  V30 6849 H 645.79 -1.40966 -3.38414 0
M  V30 6850 H 645.438 0.458646 -5.00905 0
M  V30 6851 H 645.138 -1.12526 -5.76725 0
M  V30 6852 H 646.662 -0.254492 -6.10069 0
M  V30 6853 H 648.076 -2.35177 -5.22843 0
M  V30 6854 H 646.473 -3.13507 -5.11697 0
M  V30 6855 H 647.543 -3.13008 -3.70343 0
M  V30 6856 N 648.886 1.2938 -0.899927 0
M  V30 6857 C 649.834 2.29675 -0.367698 0
M  V30 6858 C 650.828 1.60787 0.533282 0
M  V30 6859 O 652.034 1.75126 0.416058 0
M  V30 6860 H 648.409 0.745284 -0.100279 0
M  V30 6861 H 650.38 2.72008 -1.22696 0
M  V30 6862 C 649.129 3.45512 0.389483 0
M  V30 6863 H 648.452 3.98713 -0.294575 0
M  V30 6864 H 649.892 4.17725 0.726744 0
M  V30 6865 C 648.351 2.969 1.59223 0
M  V30 6866 O 648.881 2.98195 2.69152 0
M  V30 6867 N 647.087 2.52728 1.43447 0
M  V30 6868 H 646.634 2.51873 0.540148 0
M  V30 6869 H 646.592 2.20561 2.24054 0
M  V30 6870 N 650.364 0.662433 1.43002 0
M  V30 6871 C 651.327 -0.0142016 2.29196 0
M  V30 6872 C 652.327 -0.741394 1.42688 0
M  V30 6873 O 653.517 -0.581257 1.64216 0
M  V30 6874 C 650.649 -1.03084 3.24941 0
M  V30 6875 H 651.842 0.7443 2.90517 0
M  V30 6876 H 649.395 0.424133 1.50435 0
M  V30 6877 H 650.13 -1.81826 2.68533 0
M  V30 6878 H 649.915 -0.512946 3.8873 0
M  V30 6879 H 651.405 -1.50308 3.89612 0
M  V30 6880 N 651.842 -1.52309 0.404946 0
M  V30 6881 C 653.067 -2.06666 -0.1743 0
M  V30 6882 C 653.492 -1.27341 -1.38441 0
M  V30 6883 O 652.85 -0.302539 -1.78758 0
M  V30 6884 C 652.898 -3.57014 -0.507262 0
M  V30 6885 O 652.002 -3.80144 -1.59889 0
M  V30 6886 H 651.343 -0.663807 -0.0160273 0
M  V30 6887 H 653.873 -1.96297 0.576937 0
M  V30 6888 H 653.883 -4.00724 -0.767098 0
M  V30 6889 H 652.558 -4.14184 0.377368 0
M  V30 6890 H 651.135 -3.48316 -1.33155 0
M  V30 6891 N 653.32 -0.135238 -1.57019 0
M  V30 6892 C 654.568 0.51777 -1.95355 0
M  V30 6893 C 654.889 1.6617 -1.02042 0
M  V30 6894 O 654.159 1.95738 -0.0797343 0
M  V30 6895 H 652.739 0.194264 -0.721298 0
M  V30 6896 H 655.401 -0.207983 -1.93787 0
M  V30 6897 H 654.497 0.901675 -2.98791 0
M  V30 6898 N 654.798 1.5699 0.138552 0
M  V30 6899 C 656.023 1.88344 0.86841 0
M  V30 6900 C 656.448 0.725159 1.7356 0
M  V30 6901 O 655.806 -0.324992 1.78363 0
M  V30 6902 C 655.854 3.18334 1.69398 0
M  V30 6903 O 654.958 3.02863 2.79907 0
M  V30 6904 H 654.299 0.618577 0.241367 0
M  V30 6905 H 656.829 2.04207 0.126826 0
M  V30 6906 H 656.839 3.50567 2.08726 0
M  V30 6907 H 655.514 4.02238 1.05725 0
M  V30 6908 H 654.091 2.82056 2.43924 0
M  V30 6909 N 656.276 -0.40816 1.52223 0
M  V30 6910 C 657.504 -1.17672 1.70179 0
M  V30 6911 C 657.919 -1.84257 0.411696 0
M  V30 6912 O 657.276 -1.7192 -0.612354 0
M  V30 6913 C 657.327 -2.23911 2.83806 0
M  V30 6914 O 657.048 -1.60044 4.0782 0
M  V30 6915 C 658.549 -3.1364 3.13281 0
M  V30 6916 H 655.769 -0.353562 0.570293 0
M  V30 6917 H 658.313 -0.480083 1.98785 0
M  V30 6918 H 656.468 -2.89242 2.57717 0
M  V30 6919 H 656.882 -2.30484 4.71145 0
M  V30 6920 H 658.356 -3.84255 3.96298 0
M  V30 6921 H 658.833 -3.76066 2.26872 0
M  V30 6922 H 659.439 -2.53977 3.41139 0
M  V30 6923 N 657.755 -1.42862 -0.66545 0
M  V30 6924 C 658.98 -1.47456 -1.45848 0
M  V30 6925 C 659.405 -0.0900312 -1.87884 0
M  V30 6926 O 658.763 0.913587 -1.56599 0
M  V30 6927 C 658.811 -2.41514 -2.67774 0
M  V30 6928 O 657.915 -1.89296 -3.66389 0
M  V30 6929 H 657.256 -0.499236 -0.437789 0
M  V30 6930 H 659.786 -1.8765 -0.815394 0
M  V30 6931 H 659.796 -2.58409 -3.15735 0
M  V30 6932 H 658.471 -3.42099 -2.36519 0
M  V30 6933 H 657.048 -1.82003 -3.25468 0
M  V30 6934 N 659.233 0.902656 -1.29189 0
M  V30 6935 C 660.461 1.68639 -1.19869 0
M  V30 6936 C 660.876 1.87254 0.241121 0
M  V30 6937 O 660.233 1.40745 1.16177 0
M  V30 6938 C 660.284 3.07251 -1.90471 0
M  V30 6939 O 660.005 2.89488 -3.28829 0
M  V30 6940 C 661.506 4.01653 -1.8759 0
M  V30 6941 H 658.726 0.526802 -0.415596 0
M  V30 6942 H 661.27 1.12901 -1.7051 0
M  V30 6943 H 659.425 3.59774 -1.43672 0
M  V30 6944 H 659.839 3.77296 -3.64346 0
M  V30 6945 H 661.313 4.96339 -2.4156 0
M  V30 6946 H 661.79 4.30881 -0.850756 0
M  V30 6947 H 662.396 3.55061 -2.34119 0
M  V30 6948 N 660.711 1.11618 1.11262 0
M  V30 6949 C 662.122 0.881942 1.64556 0
M  V30 6950 C 662.473 -0.585442 1.87262 0
M  V30 6951 O 661.598 -1.44795 1.60821 0
M  V30 6952 C 662.193 1.59446 2.98935 0
M  V30 6953 C 660.752 1.40661 3.4913 0
M  V30 6954 C 659.899 1.63593 2.23903 0
M  V30 6955 H 662.85 1.27217 0.94877 0
M  V30 6956 H 662.871 1.04054 3.65996 0
M  V30 6957 H 662.383 2.66241 2.82378 0
M  V30 6958 H 660.484 0.360835 3.70849 0
M  V30 6959 H 660.597 2.15693 4.27801 0
M  V30 6960 H 658.961 1.05944 2.3162 0
M  V30 6961 H 659.744 2.71666 2.09886 0
M  V30 6962 N 662.189 -1.289 0.906776 0
M  V30 6963 C 663.152 -2.25777 0.394656 0
M  V30 6964 C 664.152 -1.53621 -0.475119 0
M  V30 6965 O 665.342 -1.71949 -0.279165 0
M  V30 6966 C 662.474 -3.38113 -0.43499 0
M  V30 6967 H 663.667 -2.72592 1.25033 0
M  V30 6968 H 661.22 -1.40463 0.685547 0
M  V30 6969 H 661.955 -2.96648 -1.31036 0
M  V30 6970 H 661.74 -3.91647 0.188334 0
M  V30 6971 H 663.23 -4.10168 -0.784365 0
M  V30 6972 N 663.667 -0.670007 -1.42649 0
M  V30 6973 C 665.078 -0.268118 -1.84765 0
M  V30 6974 C 665.429 1.18877 -1.56086 0
M  V30 6975 O 664.554 1.90947 -1.01825 0
M  V30 6976 C 665.149 -0.47984 -3.35385 0
M  V30 6977 C 663.708 -0.132116 -3.76168 0
M  V30 6978 C 662.855 -0.774611 -2.66261 0
M  V30 6979 H 665.806 -0.872509 -1.32563 0
M  V30 6980 H 665.827 0.269522 -3.79544 0
M  V30 6981 H 665.339 -1.54026 -3.56227 0
M  V30 6982 H 663.44 0.92505 -3.60934 0
M  V30 6983 H 663.553 -0.569294 -4.75706 0
M  V30 6984 H 661.917 -0.206353 -2.53863 0
M  V30 6985 H 662.7 -1.83839 -2.89928 0
M  V30 6986 N 665.145 1.52092 -0.413018 0
M  V30 6987 C 666.37 2.06756 0.163338 0
M  V30 6988 C 666.795 1.28073 1.37764 0
M  V30 6989 O 666.153 0.312015 1.78595 0
M  V30 6990 C 666.201 3.57278 0.488322 0
M  V30 6991 O 665.305 3.80986 1.57871 0
M  V30 6992 H 664.646 0.663882 0.0125068 0
M  V30 6993 H 667.176 1.95988 -0.587339 0
M  V30 6994 H 667.186 4.01125 0.745836 0
M  V30 6995 H 665.861 4.13978 -0.399327 0
M  V30 6996 H 664.438 3.49017 1.31306 0
M  V30 6997 N 666.623 0.143563 1.56945 0
M  V30 6998 C 668.039 -0.212877 1.58174 0
M  V30 6999 C 668.239 -1.64926 1.15766 0
M  V30 7000 O 667.295 -2.37535 0.856361 0
M  V30 7001 C 668.608 0.0427573 3.0067 0
M  V30 7002 C 670.156 -0.0212221 3.12993 0
M  V30 7003 C 670.631 0.207036 4.57532 0
M  V30 7004 N 672.122 0.153845 4.62944 0
M  V30 7005 C 672.857 0.305018 5.72588 0
M  V30 7006 N 672.353 0.513722 6.90893 0
M  V30 7007 N 674.146 0.242862 5.61575 0
M  V30 7008 H 666.297 1.08148 1.82805 0
M  V30 7009 H 668.56 0.427831 0.84597 0
M  V30 7010 H 668.266 1.03672 3.36073 0
M  V30 7011 H 668.14 -0.678195 3.71053 0
M  V30 7012 H 670.527 -1.00574 2.77433 0
M  V30 7013 H 670.608 0.732004 2.45103 0
M  V30 7014 H 670.252 1.18863 4.93795 0
M  V30 7015 H 670.182 -0.566473 5.23544 0
M  V30 7016 H 672.673 -0.00294866 3.779 0
M  V30 7017 H 672.986 0.619273 7.70315 0
M  V30 7018 H 671.331 0.550001 6.9282 0
M  V30 7019 H 674.522 0.0806015 4.68031 0
M  V30 7020 H 674.695 0.364112 6.46976 0
M  V30 7021 N 668.101 -1.57061 -0.130224 0
M  V30 7022 C 669.329 -1.88432 -0.854456 0
M  V30 7023 C 669.744 -0.733608 -1.73964 0
M  V30 7024 O 669.101 0.296029 -1.80083 0
M  V30 7025 C 669.152 -3.1918 -1.69724 0
M  V30 7026 O 668.873 -4.2982 -0.847705 0
M  V30 7027 C 670.374 -3.6418 -2.5276 0
M  V30 7028 H 667.594 -0.624193 -0.246221 0
M  V30 7029 H 670.138 -2.04159 -0.11798 0
M  V30 7030 H 668.293 -3.05156 -2.3866 0
M  V30 7031 H 668.707 -5.04689 -1.42792 0
M  V30 7032 H 670.181 -4.58457 -3.07443 0
M  V30 7033 H 670.658 -2.90285 -3.29592 0
M  V30 7034 H 671.264 -3.80954 -1.89087 0
M  V30 7035 N 669.579 0.400081 -1.52437 0
M  V30 7036 C 670.542 1.4707 -1.75793 0
M  V30 7037 C 671.542 1.48036 -0.627856 0
M  V30 7038 O 672.732 1.49401 -0.895817 0
M  V30 7039 C 669.864 2.86427 -1.84858 0
M  V30 7040 H 671.057 1.27649 -2.71377 0
M  V30 7041 H 668.61 0.631141 -1.42991 0
M  V30 7042 H 669.345 3.11207 -0.912194 0
M  V30 7043 H 669.13 2.87128 -2.6702 0
M  V30 7044 H 670.62 3.64023 -2.04638 0
M  V30 7045 N 671.057 1.43213 0.657864 0
M  V30 7046 C 672.282 1.48227 1.45064 0
M  V30 7047 C 672.707 0.0999939 1.87834 0
M  V30 7048 O 672.065 -0.905269 1.57081 0
M  V30 7049 C 672.113 2.42931 2.6649 0
M  V30 7050 O 671.217 1.91237 3.6538 0
M  V30 7051 H 670.558 0.501551 0.435135 0
M  V30 7052 H 673.088 1.8808 0.805431 0
M  V30 7053 H 673.098 2.6008 3.1436 0
M  V30 7054 H 671.773 3.43348 2.34701 0
M  V30 7055 H 670.35 1.83726 3.24498 0
M  V30 7056 N 672.536 -0.895792 1.29666 0
M  V30 7057 C 673.783 -1.64664 1.17864 0
M  V30 7058 C 674.111 -1.92631 -0.26902 0
M  V30 7059 O 673.366 -1.53787 -1.21029 0
M  V30 7060 C 673.665 -3.00075 1.94139 0
M  V30 7061 C 673.331 -2.91702 3.43833 0
M  V30 7062 C 671.993 -2.89126 3.84656 0
M  V30 7063 C 674.345 -2.80622 4.39205 0
M  V30 7064 C 671.673 -2.73293 5.1916 0
M  V30 7065 C 674.025 -2.66329 5.73805 0
M  V30 7066 C 672.689 -2.62121 6.1388 0
M  V30 7067 H 671.959 -0.602549 0.431295 0
M  V30 7068 H 674.606 -1.04234 1.60648 0
M  V30 7069 H 672.911 -3.64394 1.43958 0
M  V30 7070 H 674.608 -3.57111 1.82408 0
M  V30 7071 H 671.198 -2.94511 3.11386 0
M  V30 7072 H 675.382 -2.81686 4.08615 0
M  V30 7073 H 670.638 -2.68443 5.49316 0
M  V30 7074 H 674.812 -2.56727 6.47352 0
M  V30 7075 H 672.439 -2.49611 7.18052 0
M  V30 7076 N 674.014 -1.12206 -1.10668 0
M  V30 7077 C 675.239 -0.898938 -1.86906 0
M  V30 7078 C 675.664 0.546346 -1.79991 0
M  V30 7079 O 675.022 1.38655 -1.1681 0
M  V30 7080 C 675.07 -1.37529 -3.33344 0
M  V30 7081 O 674.174 -0.55218 -4.08687 0
M  V30 7082 H 673.515 -0.323163 -0.580053 0
M  V30 7083 H 676.045 -1.49355 -1.39837 0
M  V30 7084 H 676.055 -1.3733 -3.84193 0
M  V30 7085 H 674.73 -2.42767 -3.37693 0
M  V30 7086 H 673.307 -0.620947 -3.67694 0
M  V30 7087 N 675.492 1.28418 -0.913599 0
M  V30 7088 C 676.402 2.31043 -0.406965 0
M  V30 7089 C 677.418 1.66501 0.505298 0
M  V30 7090 O 678.594 1.97558 0.391522 0
M  V30 7091 C 675.659 3.4498 0.344901 0
M  V30 7092 C 674.72 4.25078 -0.600563 0
M  V30 7093 C 673.953 5.33575 0.115516 0
M  V30 7094 O 674.176 5.54503 1.33727 0
M  V30 7095 O 673.11 5.9939 -0.549095 0
M  V30 7096 H 676.936 2.76387 -1.25873 0
M  V30 7097 H 674.521 1.33109 -0.678415 0
M  V30 7098 H 676.403 4.14314 0.769542 0
M  V30 7099 H 675.078 3.01719 1.1725 0
M  V30 7100 H 673.985 3.58334 -1.0746 0
M  V30 7101 H 675.318 4.72018 -1.39497 0
M  V30 7102 N 676.97 0.677563 1.42291 0
M  V30 7103 C 678.195 0.207901 2.06355 0
M  V30 7104 C 678.62 -1.12723 1.50583 0
M  V30 7105 O 677.978 -1.70171 0.62543 0
M  V30 7106 C 678.026 0.156489 3.6026 0
M  V30 7107 O 677.13 -0.874162 4.03029 0
M  V30 7108 H 676.471 0.106056 0.655475 0
M  V30 7109 H 679.001 0.927354 1.82377 0
M  V30 7110 H 679.011 -0.0187258 4.07996 0
M  V30 7111 H 677.686 1.13101 4.00226 0
M  V30 7112 H 676.263 -0.669764 3.66836 0
M  V30 7113 N 678.448 -1.51871 0.421078 0
M  V30 7114 C 679.864 -1.59435 0.0725398 0
M  V30 7115 C 680.064 -1.43315 -1.41644 0
M  V30 7116 O 679.12 -1.26614 -2.18461 0
M  V30 7117 C 680.433 -2.9509 0.578132 0
M  V30 7118 C 681.981 -3.08356 0.537149 0
M  V30 7119 C 682.456 -4.4651 1.01945 0
M  V30 7120 N 683.947 -4.52784 0.976758 0
M  V30 7121 C 684.682 -5.57976 1.32099 0
M  V30 7122 N 684.178 -6.70664 1.73727 0
M  V30 7123 N 685.971 -5.48248 1.2402 0
M  V30 7124 H 678.122 -1.60595 1.39007 0
M  V30 7125 H 680.385 -0.756138 0.571803 0
M  V30 7126 H 680.091 -3.12205 1.61929 0
M  V30 7127 H 679.965 -3.772 -0.00578374 0
M  V30 7128 H 682.352 -2.90919 -0.494991 0
M  V30 7129 H 682.433 -2.28125 1.15727 0
M  V30 7130 H 682.077 -4.64692 2.04997 0
M  V30 7131 H 682.007 -5.25256 0.376023 0
M  V30 7132 H 684.498 -3.71898 0.670851 0
M  V30 7133 H 684.811 -7.46932 1.98274 0
M  V30 7134 H 683.156 -6.71914 1.77641 0
M  V30 7135 H 686.347 -4.59095 0.913756 0
M  V30 7136 H 686.52 -6.30119 1.51176 0
M  V30 7137 N 679.926 -0.151884 -1.56866 0
M  V30 7138 C 680.889 0.771861 -2.15812 0
M  V30 7139 C 681.889 1.17181 -1.10115 0
M  V30 7140 O 683.079 1.09194 -1.35729 0
M  V30 7141 C 680.211 2.04806 -2.7252 0
M  V30 7142 H 681.404 0.259021 -2.98779 0
M  V30 7143 H 678.957 0.097588 -1.55995 0
M  V30 7144 H 679.692 2.60445 -1.93233 0
M  V30 7145 H 679.477 1.77044 -3.49854 0
M  V30 7146 H 680.967 2.70771 -3.1792 0
M  V30 7147 N 681.404 1.57128 0.121893 0
M  V30 7148 C 682.681 1.75664 0.860327 0
M  V30 7149 C 683.061 0.726585 1.98202 0
M  V30 7150 O 682.409 -0.24999 2.27128 0
M  V30 7151 C 682.619 3.20571 1.37968 0
M  V30 7152 C 683.967 3.82988 1.83317 0
M  V30 7153 O 684.991 3.24156 1.47654 0
M  V30 7154 O 683.85 4.86393 2.49168 0
M  V30 7155 H 680.944 0.719153 0.408348 0
M  V30 7156 H 683.49 1.6937 0.105859 0
M  V30 7157 H 682.262 3.87056 0.57477 0
M  V30 7158 H 681.885 3.31392 2.19694 0
M  V30 7159 N 682.882 -0.391992 1.52647 0
M  V30 7160 C 683.792 -1.503 1.80131 0
M  V30 7161 C 684.808 -1.59825 0.687882 0
M  V30 7162 O 685.984 -1.76218 0.975149 0
M  V30 7163 C 683.049 -2.85863 1.96171 0
M  V30 7164 C 682.11 -2.86084 3.20085 0
M  V30 7165 C 681.343 -4.15181 3.35351 0
M  V30 7166 O 681.566 -5.09981 2.55491 0
M  V30 7167 O 680.5 -4.22603 4.28591 0
M  V30 7168 H 684.326 -1.30007 2.74466 0
M  V30 7169 H 681.911 -0.579539 1.37701 0
M  V30 7170 H 683.793 -3.66236 2.08445 0
M  V30 7171 H 682.468 -3.06189 1.05025 0
M  V30 7172 H 681.375 -2.04504 3.13256 0
M  V30 7173 H 682.708 -2.7071 4.11068 0
M  V30 7174 N 684.36 -1.4356 -0.65026 0
M  V30 7175 C 685.606 -1.45549 -1.41221 0
M  V30 7176 C 685.939 -0.0805472 -1.94033 0
M  V30 7177 O 685.214 0.899043 -1.72475 0
M  V30 7178 C 685.497 -2.50028 -2.59148 0
M  V30 7179 C 685.35 -3.96808 -2.1181 0
M  V30 7180 C 686.669 -2.51212 -3.61359 0
M  V30 7181 H 683.788 -0.529967 -0.512156 0
M  V30 7182 H 686.43 -1.75127 -0.736933 0
M  V30 7183 H 684.58 -2.24937 -3.16758 0
M  V30 7184 H 686.252 -4.32966 -1.59178 0
M  V30 7185 H 684.495 -4.09498 -1.43156 0
M  V30 7186 H 685.166 -4.6553 -2.96625 0
M  V30 7187 H 687.642 -2.73583 -3.13515 0
M  V30 7188 H 686.518 -3.26252 -4.41419 0
M  V30 7189 H 686.779 -1.54701 -4.1415 0
M  V30 7190 N 685.838 0.888903 -1.30139 0
M  V30 7191 C 686.801 1.97576 -1.16174 0
M  V30 7192 C 687.801 1.60525 -0.094086 0
M  V30 7193 O 688.991 1.70812 -0.341889 0
M  V30 7194 C 686.123 3.3188 -0.778983 0
M  V30 7195 H 687.316 2.11393 -2.12728 0
M  V30 7196 H 684.869 1.0748 -1.1348 0
M  V30 7197 H 685.604 3.23765 0.186225 0
M  V30 7198 H 685.389 3.60141 -1.55051 0
M  V30 7199 H 686.879 4.11612 -0.704631 0
M  V30 7200 N 687.317 1.12792 1.10072 0
M  V30 7201 C 688.728 0.899346 1.63611 0
M  V30 7202 C 689.079 -0.565547 1.87872 0
M  V30 7203 O 688.204 -1.43081 1.62348 0
M  V30 7204 C 688.799 1.62608 2.97227 0
M  V30 7205 C 687.358 1.44356 3.47618 0
M  V30 7206 C 686.505 1.65958 2.22156 0
M  V30 7207 H 689.456 1.28216 0.935223 0
M  V30 7208 H 689.477 1.0793 3.64872 0
M  V30 7209 H 688.989 2.69221 2.79538 0
M  V30 7210 H 687.09 0.400148 3.70445 0
M  V30 7211 H 687.203 2.20218 4.25489 0
M  V30 7212 H 685.567 1.08395 2.30484 0
M  V30 7213 H 686.35 2.73877 2.06993 0
M  V30 7214 N 688.795 -1.27931 0.920396 0
M  V30 7215 C 689.758 -2.25345 0.41858 0
M  V30 7216 C 690.758 -1.54116 -0.458798 0
M  V30 7217 O 691.948 -1.72235 -0.260912 0
M  V30 7218 C 689.08 -3.38556 -0.399104 0
M  V30 7219 H 690.273 -2.71251 1.27918 0
M  V30 7220 H 687.826 -1.39728 0.700406 0
M  V30 7221 H 688.561 -2.98021 -1.27882 0
M  V30 7222 H 688.346 -3.91426 0.229863 0
M  V30 7223 H 689.836 -4.10976 -0.740817 0
M  V30 7224 N 690.273 -0.685099 -1.4193 0
M  V30 7225 C 691.22 -0.0131869 -2.30796 0
M  V30 7226 C 692.19 0.782129 -1.46533 0
M  V30 7227 O 693.375 0.75229 -1.75343 0
M  V30 7228 C 690.515 0.924768 -3.32479 0
M  V30 7229 C 689.628 0.122181 -4.31827 0
M  V30 7230 C 688.763 1.05682 -5.20581 0
M  V30 7231 C 687.802 0.246526 -6.11603 0
M  V30 7232 N 686.939 1.13442 -6.92875 0
M  V30 7233 H 691.779 -0.776789 -2.87698 0
M  V30 7234 H 689.316 -0.394791 -1.41703 0
M  V30 7235 H 691.274 1.48251 -3.89971 0
M  V30 7236 H 689.904 1.65488 -2.77152 0
M  V30 7237 H 688.956 -0.552335 -3.76369 0
M  V30 7238 H 690.268 -0.506473 -4.96222 0
M  V30 7239 H 689.422 1.68415 -5.82856 0
M  V30 7240 H 688.161 1.71935 -4.56388 0
M  V30 7241 H 687.166 -0.393944 -5.48387 0
M  V30 7242 H 688.391 -0.412053 -6.77849 0
M  V30 7243 H 686.337 1.78316 -6.313 0
M  V30 7244 H 686.254 0.561089 -7.53915 0
M  V30 7245 H 687.522 1.74889 -7.59628 0
M  V30 7246 N 691.751 1.51645 -0.429126 0
M  V30 7247 C 692.698 2.27542 0.386446 0
M  V30 7248 C 693.668 1.30786 1.02393 0
M  V30 7249 O 694.853 1.59678 1.0444 0
M  V30 7250 C 691.993 3.11457 1.48623 0
M  V30 7251 C 691.106 4.23196 0.867691 0
M  V30 7252 C 690.241 4.94435 1.94183 0
M  V30 7253 C 689.28 5.98108 1.30129 0
M  V30 7254 N 688.417 6.62786 2.31644 0
M  V30 7255 H 693.257 2.968 -0.267155 0
M  V30 7256 H 690.794 1.46397 -0.143591 0
M  V30 7257 H 692.752 3.58429 2.13506 0
M  V30 7258 H 691.382 2.44329 2.10957 0
M  V30 7259 H 690.434 3.80248 0.107373 0
M  V30 7260 H 691.746 4.97499 0.35997 0
M  V30 7261 H 690.9 5.44914 2.66747 0
M  V30 7262 H 689.639 4.19744 2.48326 0
M  V30 7263 H 688.644 5.4693 0.561082 0
M  V30 7264 H 689.869 6.74751 0.767303 0
M  V30 7265 H 687.815 5.90913 2.84883 0
M  V30 7266 H 687.732 7.32828 1.85741 0
M  V30 7267 H 689 7.17897 3.03717 0
M  V30 7268 N 693.229 0.160201 1.56784 0
M  V30 7269 C 694.192 -0.760405 2.16219 0
M  V30 7270 C 695.192 -1.16595 1.10735 0
M  V30 7271 O 696.382 -1.08472 1.36306 0
M  V30 7272 C 693.514 -2.03358 2.73603 0
M  V30 7273 H 694.707 -0.243173 2.98912 0
M  V30 7274 H 692.26 -0.0893139 1.56045 0
M  V30 7275 H 692.995 -2.59416 1.94612 0
M  V30 7276 H 692.78 -1.75186 3.50788 0
M  V30 7277 H 694.27 -2.69081 3.19351 0
M  V30 7278 N 694.707 -1.5719 -0.113559 0
M  V30 7279 C 695.654 -2.00736 -1.13901 0
M  V30 7280 C 696.624 -0.88044 -1.40846 0
M  V30 7281 O 697.809 -1.14507 -1.5262 0
M  V30 7282 C 694.949 -2.42132 -2.45899 0
M  V30 7283 C 694.062 -3.68264 -2.25844 0
M  V30 7284 C 693.197 -3.98617 -3.5111 0
M  V30 7285 C 692.236 -5.17915 -3.26236 0
M  V30 7286 N 691.373 -5.44111 -4.4372 0
M  V30 7287 H 696.213 -2.88128 -0.760677 0
M  V30 7288 H 693.75 -1.42523 -0.364099 0
M  V30 7289 H 695.708 -2.6417 -3.22908 0
M  V30 7290 H 694.338 -1.57775 -2.81615 0
M  V30 7291 H 693.39 -3.53809 -1.39726 0
M  V30 7292 H 694.702 -4.55425 -2.03444 0
M  V30 7293 H 693.856 -4.21333 -4.36536 0
M  V30 7294 H 692.595 -3.09942 -3.76546 0
M  V30 7295 H 691.6 -4.95038 -2.39202 0
M  V30 7296 H 692.825 -6.08172 -3.02165 0
M  V30 7297 H 690.771 -4.58394 -4.69266 0
M  V30 7298 H 690.688 -6.25606 -4.24444 0
M  V30 7299 H 691.956 -5.71351 -5.30263 0
M  V30 7300 N 696.185 0.383891 -1.52853 0
M  V30 7301 C 697.596 0.961591 -1.60032 0
M  V30 7302 C 697.947 1.90819 -0.456333 0
M  V30 7303 O 697.072 2.12288 0.419873 0
M  V30 7304 C 697.667 1.75078 -2.90057 0
M  V30 7305 C 696.226 2.2781 -2.99632 0
M  V30 7306 C 695.373 1.08512 -2.55187 0
M  V30 7307 H 698.324 0.163269 -1.57858 0
M  V30 7308 H 698.345 2.61046 -2.7683 0
M  V30 7309 H 697.857 1.06157 -3.73299 0
M  V30 7310 H 695.958 3.00028 -2.20939 0
M  V30 7311 H 696.071 2.56947 -4.0437 0
M  V30 7312 H 694.435 1.44667 -2.09627 0
M  V30 7313 H 695.218 0.41118 -3.40829 0
M  V30 7314 N 697.663 1.43903 0.642637 0
M  V30 7315 C 698.626 1.49538 1.73698 0
M  V30 7316 C 699.626 0.378776 1.56275 0
M  V30 7317 O 700.816 0.64095 1.6198 0
M  V30 7318 C 697.948 1.35821 3.12675 0
M  V30 7319 H 699.141 2.47008 1.70079 0
M  V30 7320 H 696.694 1.30824 0.85526 0
M  V30 7321 H 697.429 0.393994 3.21898 0
M  V30 7322 H 697.214 2.16776 3.26727 0
M  V30 7323 H 698.704 1.4272 3.92455 0
M  V30 7324 N 699.141 -0.881989 1.30609 0
M  V30 7325 C 700.074 -1.99066 1.11571 0
M  V30 7326 C 701.052 -1.62584 0.022516 0
M  V30 7327 O 702.236 -1.87671 0.176644 0
M  V30 7328 C 699.363 -3.3134 0.702237 0
M  V30 7329 C 698.409 -3.86807 1.79673 0
M  V30 7330 S 699.242 -4.13735 3.39976 0
M  V30 7331 C 700.398 -5.49024 3.00538 0
M  V30 7332 H 700.631 -2.1491 2.05429 0
M  V30 7333 H 698.164 -1.03074 1.14957 0
M  V30 7334 H 700.122 -4.07796 0.470415 0
M  V30 7335 H 698.783 -3.13349 -0.217034 0
M  V30 7336 H 697.976 -4.82397 1.45977 0
M  V30 7337 H 697.578 -3.17102 1.98298 0
M  V30 7338 H 699.87 -6.30208 2.48684 0
M  V30 7339 H 700.813 -5.8766 3.95046 0
M  V30 7340 H 701.221 -5.11726 2.3832 0
M  V30 7341 N 700.619 -1.13374 -1.09472 0
M  V30 7342 C 702.03 -0.90801 -1.63132 0
M  V30 7343 C 702.381 0.555576 -1.8817 0
M  V30 7344 O 701.506 1.42218 -1.63104 0
M  V30 7345 C 702.101 -1.64182 -2.96361 0
M  V30 7346 C 700.66 -1.46197 -3.46848 0
M  V30 7347 C 699.807 -1.67134 -2.21273 0
M  V30 7348 H 702.758 -1.2871 -0.928411 0
M  V30 7349 H 702.779 -1.09863 -3.64294 0
M  V30 7350 H 702.291 -2.707 -2.78106 0
M  V30 7351 H 700.392 -0.419788 -3.70228 0
M  V30 7352 H 700.505 -2.22472 -4.24315 0
M  V30 7353 H 698.869 -1.09616 -2.29905 0
M  V30 7354 H 699.652 -2.74971 -2.05538 0
M  V30 7355 N 702.098 1.27442 -0.927168 0
M  V30 7356 C 703.03 2.25975 -0.383158 0
M  V30 7357 C 704.043 1.55382 0.485832 0
M  V30 7358 O 705.232 1.75986 0.298541 0
M  V30 7359 C 702.332 3.35629 0.469688 0
M  V30 7360 C 701.505 4.35747 -0.379886 0
M  V30 7361 C 700.564 5.24598 0.410227 0
M  V30 7362 O 699.59 5.68909 -0.181888 0
M  V30 7363 N 700.792 5.54737 1.71017 0
M  V30 7364 H 703.557 2.7329 -1.23015 0
M  V30 7365 H 701.118 1.41063 -0.794539 0
M  V30 7366 H 703.11 3.92015 1.00532 0
M  V30 7367 H 701.68 2.87919 1.21744 0
M  V30 7368 H 700.9 3.78634 -1.09682 0
M  V30 7369 H 702.188 4.99648 -0.960717 0
M  V30 7370 H 701.586 5.20594 2.21356 0
M  V30 7371 H 700.143 6.13824 2.19234 0
M  V30 7372 N 703.576 0.692616 1.41565 0
M  V30 7373 C 704.853 0.150496 1.9502 0
M  V30 7374 C 705.233 -1.33881 1.63215 0
M  V30 7375 O 704.581 -2.08378 0.937598 0
M  V30 7376 C 704.791 0.438636 3.46233 0
M  V30 7377 C 706.139 0.364777 4.2303 0
M  V30 7378 O 707.163 0.373383 3.54238 0
M  V30 7379 O 706.022 0.32234 5.45549 0
M  V30 7380 H 703.116 0.0132454 0.826894 0
M  V30 7381 H 705.662 0.768574 1.51298 0
M  V30 7382 H 704.434 1.46962 3.62654 0
M  V30 7383 H 704.057 -0.210562 3.97042 0
M  V30 7384 N 705.054 -1.51416 0.437162 0
M  V30 7385 C 706.279 -2.0699 -0.130424 0
M  V30 7386 C 706.704 -1.30249 -1.35709 0
M  V30 7387 O 706.062 -0.340388 -1.78076 0
M  V30 7388 C 706.11 -3.5801 -0.43142 0
M  V30 7389 O 705.214 -3.8345 -1.5179 0
M  V30 7390 H 704.555 -0.663997 -0.00194339 0
M  V30 7391 H 707.085 -1.95029 0.618445 0
M  V30 7392 H 707.095 -4.02261 -0.681926 0
M  V30 7393 H 705.77 -4.13291 0.465137 0
M  V30 7394 H 704.347 -3.51062 -1.25737 0
M  V30 7395 N 706.532 -0.168513 -1.56696 0
M  V30 7396 C 707.778 0.477865 -1.9709 0
M  V30 7397 C 708.111 1.63084 -1.05438 0
M  V30 7398 O 707.386 1.94238 -0.10095 0
M  V30 7399 C 707.669 0.963521 -3.4697 0
M  V30 7400 C 707.522 -0.189443 -4.49401 0
M  V30 7401 C 708.841 1.83813 -3.99876 0
M  V30 7402 H 705.96 0.172229 -0.716593 0
M  V30 7403 H 708.602 -0.254083 -1.88293 0
M  V30 7404 H 706.752 1.58724 -3.54597 0
M  V30 7405 H 708.424 -0.826451 -4.53836 0
M  V30 7406 H 706.667 -0.845366 -4.25483 0
M  V30 7407 H 707.338 0.192446 -5.51664 0
M  V30 7408 H 709.814 1.31235 -3.94863 0
M  V30 7409 H 708.69 2.14697 -5.0517 0
M  V30 7410 H 708.951 2.78289 -3.43523 0
M  V30 7411 N 708.01 1.57248 0.105221 0
M  V30 7412 C 709.421 1.74612 0.660865 0
M  V30 7413 C 709.772 0.789231 1.79626 0
M  V30 7414 O 708.897 -0.0346611 2.16372 0
M  V30 7415 C 709.492 3.16624 1.20559 0
M  V30 7416 C 708.051 3.35447 1.7074 0
M  V30 7417 C 707.198 2.70445 0.612764 0
M  V30 7418 H 710.149 1.5824 -0.12079 0
M  V30 7419 H 710.17 3.18937 2.07508 0
M  V30 7420 H 709.682 3.86245 0.379012 0
M  V30 7421 H 707.783 2.7089 2.5583 0
M  V30 7422 H 707.896 4.43702 1.80736 0
M  V30 7423 H 706.26 2.32061 1.04975 0
M  V30 7424 H 707.043 3.42699 -0.203066 0
M  V30 7425 N 709.488 -0.375779 1.53054 0
M  V30 7426 C 710.713 -1.14484 1.7294 0
M  V30 7427 C 711.138 -1.82572 0.452668 0
M  V30 7428 O 710.496 -1.71343 -0.592567 0
M  V30 7429 C 710.544 -2.15857 2.88857 0
M  V30 7430 O 709.648 -3.22725 2.56753 0
M  V30 7431 H 708.989 -0.332666 0.574656 0
M  V30 7432 H 711.519 -0.436025 1.999 0
M  V30 7433 H 711.529 -2.59631 3.14731 0
M  V30 7434 H 710.204 -1.65689 3.81471 0
M  V30 7435 H 708.781 -2.83996 2.41663 0
M  V30 7436 N 710.966 -1.44241 -0.634997 0
M  V30 7437 C 712.377 -1.41622 -1.21655 0
M  V30 7438 C 712.728 -0.129584 -1.95772 0
M  V30 7439 O 711.853 0.770225 -2.02229 0
M  V30 7440 C 712.448 -2.56557 -2.21278 0
M  V30 7441 C 711.007 -2.57145 -2.7487 0
M  V30 7442 C 710.154 -2.33354 -1.49804 0
M  V30 7443 H 713.105 -1.52878 -0.425905 0
M  V30 7444 H 713.126 -2.29089 -3.03807 0
M  V30 7445 H 712.638 -3.50186 -1.67306 0
M  V30 7446 H 710.739 -1.67447 -3.32855 0
M  V30 7447 H 710.852 -3.55507 -3.21172 0
M  V30 7448 H 709.216 -1.82372 -1.77799 0
M  V30 7449 H 709.999 -3.29092 -0.977402 0
M  V30 7450 N 712.444 0.87505 -1.31075 0
M  V30 7451 C 713.86 1.15997 -1.09622 0
M  V30 7452 C 714.06 2.01036 0.136611 0
M  V30 7453 O 713.116 2.38559 0.827397 0
M  V30 7454 C 714.429 1.85702 -2.36506 0
M  V30 7455 C 715.977 1.98425 -2.42067 0
M  V30 7456 C 716.452 2.71544 -3.68819 0
M  V30 7457 N 717.943 2.79084 -3.69684 0
M  V30 7458 C 718.678 3.36259 -4.64454 0
M  V30 7459 N 718.174 3.94406 -5.69575 0
M  V30 7460 N 719.967 3.34169 -4.51982 0
M  V30 7461 H 712.118 0.308258 -2.10151 0
M  V30 7462 H 714.381 0.199145 -0.926847 0
M  V30 7463 H 714.087 1.30663 -3.26527 0
M  V30 7464 H 713.961 2.86017 -2.45915 0
M  V30 7465 H 716.348 2.5263 -1.52518 0
M  V30 7466 H 716.429 0.971682 -2.36626 0
M  V30 7467 H 716.073 2.18008 -4.58732 0
M  V30 7468 H 716.003 3.73198 -3.71525 0
M  V30 7469 H 718.494 2.3781 -2.93691 0
M  V30 7470 H 718.807 4.36129 -6.37974 0
M  V30 7471 H 717.152 3.92797 -5.73355 0
M  V30 7472 H 720.343 2.87977 -3.69035 0
M  V30 7473 H 720.516 3.78431 -5.26017 0
M  V30 7474 N 713.922 1.13953 1.08869 0
M  V30 7475 C 715.147 0.928559 1.85452 0
M  V30 7476 C 715.572 -0.517642 1.80837 0
M  V30 7477 O 714.93 -1.36779 1.19001 0
M  V30 7478 C 714.978 1.42814 3.31114 0
M  V30 7479 O 714.082 0.617129 4.07756 0
M  V30 7480 H 713.423 0.33235 0.574839 0
M  V30 7481 H 715.953 1.5156 1.37443 0
M  V30 7482 H 715.963 1.43425 3.8196 0
M  V30 7483 H 714.638 2.48109 3.33788 0
M  V30 7484 H 713.215 0.679365 3.66659 0
M  V30 7485 N 715.4 -1.26948 0.933913 0
M  V30 7486 C 716.33 -2.29017 0.45534 0
M  V30 7487 C 717.311 -1.62961 -0.487605 0
M  V30 7488 O 718.496 -1.90223 -0.391022 0
M  V30 7489 C 715.626 -3.46112 -0.287015 0
M  V30 7490 C 714.58 -4.24205 0.568682 0
M  V30 7491 C 713.906 -5.3384 -0.303206 0
M  V30 7492 C 715.206 -4.88954 1.83633 0
M  V30 7493 H 716.9 -2.69298 1.30839 0
M  V30 7494 H 714.446 -1.29459 0.630579 0
M  V30 7495 H 716.399 -4.16622 -0.6328 0
M  V30 7496 H 715.123 -3.04765 -1.17414 0
M  V30 7497 H 713.782 -3.5545 0.897261 0
M  V30 7498 H 713.43 -4.88734 -1.18947 0
M  V30 7499 H 713.13 -5.86998 0.265879 0
M  V30 7500 H 714.654 -6.0719 -0.644423 0
M  V30 7501 H 716.068 -5.51717 1.55823 0
M  V30 7502 H 714.465 -5.52198 2.34941 0
M  V30 7503 H 715.535 -4.12305 2.55211 0
M  V30 7504 N 716.879 -0.700114 -1.41195 0
M  V30 7505 C 717.811 0.00155823 -2.292 0
M  V30 7506 C 718.824 0.739736 -1.45023 0
M  V30 7507 O 720.013 0.589684 -1.68478 0
M  V30 7508 C 717.113 1.02635 -3.22985 0
M  V30 7509 C 716.286 0.356871 -4.35942 0
M  V30 7510 C 715.345 1.28491 -5.10271 0
M  V30 7511 O 714.371 0.775562 -5.63892 0
M  V30 7512 N 715.573 2.61699 -5.18164 0
M  V30 7513 H 718.338 -0.754008 -2.9006 0
M  V30 7514 H 715.899 -0.546504 -1.52397 0
M  V30 7515 H 717.891 1.64902 -3.6958 0
M  V30 7516 H 716.461 1.68341 -2.63401 0
M  V30 7517 H 715.681 -0.445753 -3.91672 0
M  V30 7518 H 716.969 -0.108469 -5.08684 0
M  V30 7519 H 716.367 3.05594 -4.76056 0
M  V30 7520 H 714.924 3.19149 -5.6832 0
M  V30 7521 N 718.357 1.51182 -0.445186 0
M  V30 7522 C 719.605 2.01753 0.11841 0
M  V30 7523 C 719.926 1.33087 1.42523 0
M  V30 7524 O 719.196 0.467891 1.9023 0
M  V30 7525 H 717.776 0.745536 0.0467492 0
M  V30 7526 H 720.438 1.85765 -0.589688 0
M  V30 7527 H 719.534 3.10762 0.288665 0
M  V30 7528 N 719.835 0.176821 1.56605 0
M  V30 7529 C 720.782 -0.751312 2.18229 0
M  V30 7530 C 721.752 -1.22297 1.12395 0
M  V30 7531 O 722.937 -1.29015 1.40569 0
M  V30 7532 C 720.077 -1.97291 2.83143 0
M  V30 7533 C 719.19 -1.54431 4.03454 0
M  V30 7534 C 718.325 -2.72 4.56278 0
M  V30 7535 C 717.364 -2.25657 5.68986 0
M  V30 7536 N 716.501 -3.36338 6.16296 0
M  V30 7537 H 721.341 -0.219033 2.97194 0
M  V30 7538 H 718.878 -0.0963803 1.46784 0
M  V30 7539 H 720.836 -2.68949 3.1894 0
M  V30 7540 H 719.466 -2.4788 2.06773 0
M  V30 7541 H 718.518 -0.724273 3.73441 0
M  V30 7542 H 719.83 -1.16417 4.85024 0
M  V30 7543 H 718.984 -3.51806 4.94285 0
M  V30 7544 H 717.723 -3.13277 3.73777 0
M  V30 7545 H 716.728 -1.44299 5.30526 0
M  V30 7546 H 717.953 -1.85432 6.53293 0
M  V30 7547 H 715.899 -3.7718 5.36723 0
M  V30 7548 H 715.816 -3.02435 6.9287 0
M  V30 7549 H 717.084 -4.16413 6.58954 0
M  V30 7550 N 721.313 -1.57302 -0.09688 0
M  V30 7551 C 722.538 -1.9058 -0.818169 0
M  V30 7552 C 722.963 -0.770921 -1.71576 0
M  V30 7553 O 722.321 0.277588 -1.79162 0
M  V30 7554 C 722.369 -3.22714 -1.60898 0
M  V30 7555 O 721.473 -3.10178 -2.71779 0
M  V30 7556 H 720.814 -0.624759 -0.224882 0
M  V30 7557 H 723.344 -2.04471 -0.07264 0
M  V30 7558 H 723.354 -3.55978 -1.99358 0
M  V30 7559 H 722.029 -4.04899 -0.950227 0
M  V30 7560 H 720.606 -2.88424 -2.3636 0
M  V30 7561 N 722.791 0.367657 -1.53252 0
M  V30 7562 C 724.019 1.13119 -1.73239 0
M  V30 7563 C 724.434 1.831 -0.460404 0
M  V30 7564 O 723.791 1.73483 0.566557 0
M  V30 7565 C 723.842 2.16308 -2.89643 0
M  V30 7566 O 723.563 1.49175 -4.1192 0
M  V30 7567 C 725.064 3.05224 -3.21486 0
M  V30 7568 H 722.284 0.338318 -0.579467 0
M  V30 7569 H 724.828 0.42721 -1.99988 0
M  V30 7570 H 722.983 2.82307 -2.65295 0
M  V30 7571 H 723.397 2.17912 -4.7709 0
M  V30 7572 H 724.871 3.73613 -4.06346 0
M  V30 7573 H 725.348 3.69919 -2.36763 0
M  V30 7574 H 725.954 2.44843 -3.47753 0
M  V30 7575 N 724.269 1.44576 0.627338 0
M  V30 7576 C 725.497 1.51048 1.41394 0
M  V30 7577 C 725.912 0.136568 1.88305 0
M  V30 7578 O 725.269 -0.858251 1.6106 0
M  V30 7579 C 725.32 2.47837 2.63172 0
M  V30 7580 O 725.041 3.79887 2.18215 0
M  V30 7581 C 726.542 2.63811 3.56257 0
M  V30 7582 H 723.762 0.512171 0.4335 0
M  V30 7583 H 726.306 1.89576 0.766878 0
M  V30 7584 H 724.461 2.12433 3.23961 0
M  V30 7585 H 724.875 4.32177 2.97192 0
M  V30 7586 H 726.349 3.35554 4.38301 0
M  V30 7587 H 726.826 1.69169 4.05313 0
M  V30 7588 H 727.432 3.0013 3.01333 0
M  V30 7589 N 725.747 -0.868086 1.31537 0
M  V30 7590 C 726.677 -1.99131 1.21939 0
M  V30 7591 C 727.658 -1.69768 0.106166 0
M  V30 7592 O 728.843 -1.92006 0.291081 0
M  V30 7593 C 725.973 -3.34676 0.927879 0
M  V30 7594 C 724.927 -3.7835 2.00088 0
M  V30 7595 C 724.253 -5.11375 1.56203 0
M  V30 7596 C 725.553 -3.95256 3.41424 0
M  V30 7597 H 727.247 -2.07419 2.15911 0
M  V30 7598 H 724.793 -0.996569 1.03945 0
M  V30 7599 H 726.746 -4.12793 0.847327 0
M  V30 7600 H 725.47 -3.26565 -0.0475042 0
M  V30 7601 H 724.129 -3.02474 2.07135 0
M  V30 7602 H 723.777 -4.99709 0.57445 0
M  V30 7603 H 723.477 -5.41568 2.27985 0
M  V30 7604 H 725.001 -5.92001 1.49558 0
M  V30 7605 H 726.415 -4.63764 3.3704 0
M  V30 7606 H 724.812 -4.36849 4.1144 0
M  V30 7607 H 725.882 -2.98579 3.82072 0
M  V30 7608 N 727.225 -1.14528 -1.08264 0
M  V30 7609 C 728.472 -0.914405 -1.80679 0
M  V30 7610 C 728.8 0.558952 -1.86295 0
M  V30 7611 O 728.055 1.43017 -1.33584 0
M  V30 7612 C 728.354 -1.46226 -3.26117 0
M  V30 7613 C 728.02 -2.95451 -3.40616 0
M  V30 7614 C 726.682 -3.36191 -3.4428 0
M  V30 7615 C 729.034 -3.91399 -3.44175 0
M  V30 7616 C 726.362 -4.71539 -3.49096 0
M  V30 7617 C 728.714 -5.26606 -3.50526 0
M  V30 7618 C 727.378 -5.66856 -3.52464 0
M  V30 7619 H 726.648 -0.334604 -0.661151 0
M  V30 7620 H 729.295 -1.4292 -1.27461 0
M  V30 7621 H 727.6 -0.868442 -3.82054 0
M  V30 7622 H 729.297 -1.25955 -3.80705 0
M  V30 7623 H 725.887 -2.62955 -3.38456 0
M  V30 7624 H 730.071 -3.61004 -3.40573 0
M  V30 7625 H 725.327 -5.02082 -3.4889 0
M  V30 7626 H 729.501 -6.00758 -3.52225 0
M  V30 7627 H 727.128 -6.71718 -3.55948 0
M  V30 7628 N 728.703 1.26451 -0.940633 0
M  V30 7629 C 729.928 1.98407 -0.60412 0
M  V30 7630 C 730.353 1.69584 0.81382 0
M  V30 7631 O 729.711 0.943553 1.54812 0
M  V30 7632 C 729.759 3.50387 -0.852136 0
M  V30 7633 O 728.863 4.1233 0.076013 0
M  V30 7634 H 728.204 0.622466 -0.231153 0
M  V30 7635 H 730.734 1.60932 -1.26342 0
M  V30 7636 H 730.744 4.00614 -0.772816 0
M  V30 7637 H 729.419 3.70696 -1.88566 0
M  V30 7638 H 727.996 3.7286 -0.0543187 0
M  V30 7639 N 730.181 0.707592 1.40822 0
M  V30 7640 C 731.597 0.38034 1.55002 0
M  V30 7641 C 731.797 -1.11163 1.68062 0
M  V30 7642 O 730.853 -1.89761 1.66574 0
M  V30 7643 C 732.166 1.1394 2.78277 0
M  V30 7644 C 733.714 1.12492 2.92087 0
M  V30 7645 C 734.189 1.86597 4.18265 0
M  V30 7646 N 735.68 1.83626 4.25248 0
M  V30 7647 C 736.415 2.37794 5.21768 0
M  V30 7648 N 735.911 3.00485 6.24244 0
M  V30 7649 N 737.704 2.27982 5.13791 0
M  V30 7650 H 729.855 1.67511 1.3059 0
M  V30 7651 H 732.118 0.707579 0.630901 0
M  V30 7652 H 731.824 2.19398 2.74877 0
M  V30 7653 H 731.698 0.725793 3.70151 0
M  V30 7654 H 734.085 0.0785564 2.94995 0
M  V30 7655 H 734.166 1.57768 2.01353 0
M  V30 7656 H 733.81 2.91219 4.16118 0
M  V30 7657 H 733.74 1.38746 5.07993 0
M  V30 7658 H 736.231 1.3793 3.51829 0
M  V30 7659 H 736.544 3.39355 6.94304 0
M  V30 7660 H 734.889 3.04567 6.24711 0
M  V30 7661 H 738.08 1.78669 4.3266 0
M  V30 7662 H 738.253 2.70499 5.88841 0
M  V30 7663 N 731.66 -1.50943 0.453197 0
M  V30 7664 C 732.61 -2.25003 -0.368467 0
M  V30 7665 C 733.594 -1.27864 -0.976714 0
M  V30 7666 O 734.786 -1.52867 -0.892228 0
M  V30 7667 C 731.915 -3.10701 -1.46014 0
M  V30 7668 C 731.001 -4.15278 -0.860506 0
M  V30 7669 N 731.392 -5.05799 0.00849611 0
M  V30 7670 C 729.69 -4.31542 -1.1264 0
M  V30 7671 C 730.391 -5.80664 0.346951 0
M  V30 7672 N 729.367 -5.42912 -0.273426 0
M  V30 7673 H 733.169 -2.92352 0.301246 0
M  V30 7674 H 730.683 -1.60203 0.266233 0
M  V30 7675 H 732.68 -3.62348 -2.06179 0
M  V30 7676 H 731.34 -2.44898 -2.13202 0
M  V30 7677 H 732.351 -5.16533 0.376077 0
M  V30 7678 H 729.028 -3.76962 -1.7946 0
M  V30 7679 H 730.418 -6.63565 1.05507 0
M  V30 7680 N 733.138 -0.185124 -1.56509 0
M  V30 7681 C 734.366 0.462139 -2.01673 0
M  V30 7682 C 734.781 1.55873 -1.06532 0
M  V30 7683 O 734.138 1.82371 -0.0684805 0
M  V30 7684 C 734.189 1.0277 -3.46584 0
M  V30 7685 O 733.91 -0.0251296 -4.38093 0
M  V30 7686 C 735.411 1.75183 -4.07217 0
M  V30 7687 H 732.631 0.117001 -0.660721 0
M  V30 7688 H 735.175 -0.290905 -2.0242 0
M  V30 7689 H 733.33 1.73118 -3.46568 0
M  V30 7690 H 733.744 0.394387 -5.23015 0
M  V30 7691 H 735.218 2.09999 -5.10494 0
M  V30 7692 H 735.695 2.6519 -3.50101 0
M  V30 7693 H 736.301 1.09445 -4.10977 0
M  V30 7694 N 734.616 1.57351 0.0885366 0
M  V30 7695 C 735.563 2.02523 1.10693 0
M  V30 7696 C 736.533 0.902736 1.39427 0
M  V30 7697 O 737.718 1.16921 1.50779 0
M  V30 7698 C 734.858 2.46013 2.42016 0
M  V30 7699 C 733.971 3.7181 2.19957 0
M  V30 7700 C 733.106 4.04152 3.44724 0
M  V30 7701 C 732.145 5.2304 3.17956 0
M  V30 7702 N 731.282 5.51102 4.35007 0
M  V30 7703 H 736.122 2.89302 0.714742 0
M  V30 7704 H 733.659 1.43084 0.341378 0
M  V30 7705 H 735.617 2.69274 3.18665 0
M  V30 7706 H 734.247 1.62235 2.79069 0
M  V30 7707 H 733.299 3.55987 1.34079 0
M  V30 7708 H 734.611 4.58604 1.96173 0
M  V30 7709 H 733.765 4.28225 4.29777 0
M  V30 7710 H 732.504 3.15893 3.71568 0
M  V30 7711 H 731.509 4.98781 2.31296 0
M  V30 7712 H 732.734 6.12902 2.92451 0
M  V30 7713 H 730.68 4.65802 4.61914 0
M  V30 7714 H 730.597 6.3228 4.14437 0
M  V30 7715 H 731.865 5.79714 5.21106 0
M  V30 7716 N 736.094 -0.359525 1.53444 0
M  V30 7717 C 737.057 -1.42357 1.7963 0
M  V30 7718 C 738.057 -1.46319 0.666884 0
M  V30 7719 O 739.247 -1.46974 0.935113 0
M  V30 7720 C 736.379 -2.81425 1.92387 0
M  V30 7721 H 737.572 -1.20409 2.74666 0
M  V30 7722 H 735.125 -0.593007 1.44614 0
M  V30 7723 H 735.86 -3.08679 0.994384 0
M  V30 7724 H 735.645 -2.79947 2.74539 0
M  V30 7725 H 737.135 -3.5847 2.14218 0
M  V30 7726 N 737.572 -1.44907 -0.619662 0
M  V30 7727 C 738.821 -1.47569 -1.37501 0
M  V30 7728 C 739.134 -0.116707 -1.95252 0
M  V30 7729 O 740.34 -0.020909 -2.71492 0
M  V30 7730 C 738.796 -2.59851 -2.49009 0
M  V30 7731 C 738.404 -4.02008 -1.97722 0
M  V30 7732 C 740.148 -2.71746 -3.2612 0
M  V30 7733 C 738.055 -5.05693 -3.0664 0
M  V30 7734 H 736.985 -0.549068 -0.51676 0
M  V30 7735 H 739.636 -1.71009 -0.665437 0
M  V30 7736 H 738.018 -2.29671 -3.22594 0
M  V30 7737 H 739.192 -4.41809 -1.30925 0
M  V30 7738 H 737.507 -3.94456 -1.33392 0
M  V30 7739 H 740.104 -3.46382 -4.07337 0
M  V30 7740 H 740.447 -1.77959 -3.76346 0
M  V30 7741 H 740.98 -3.01392 -2.5963 0
M  V30 7742 H 737.719 -6.01148 -2.61345 0
M  V30 7743 H 737.239 -4.70473 -3.72042 0
M  V30 7744 H 738.918 -5.29906 -3.71226 0
M  V30 7745 N 739.05 0.861098 -1.31996 0
M  V30 7746 C 740.296 1.61721 -1.22369 0
M  V30 7747 C 740.629 1.93 0.215587 0
M  V30 7748 O 739.904 1.56789 1.15098 0
M  V30 7749 C 740.187 2.9417 -2.07691 0
M  V30 7750 C 740.04 2.69714 -3.59965 0
M  V30 7751 C 741.359 3.95372 -1.93312 0
M  V30 7752 H 738.478 0.586822 -0.44588 0
M  V30 7753 H 741.12 0.994788 -1.61876 0
M  V30 7754 H 739.27 3.47292 -1.74128 0
M  V30 7755 H 740.942 2.23196 -4.03709 0
M  V30 7756 H 739.185 2.03789 -3.82952 0
M  V30 7757 H 739.856 3.63996 -4.14983 0
M  V30 7758 H 742.332 3.51487 -2.22701 0
M  V30 7759 H 741.208 4.85916 -2.55298 0
M  V30 7760 H 741.469 4.32865 -0.898922 0
M  V30 7761 N 740.528 1.15101 1.07655 0
M  V30 7762 C 741.774 0.935313 1.8062 0
M  V30 7763 C 742.129 -0.532052 1.84897 0
M  V30 7764 O 741.422 -1.3893 1.31943 0
M  V30 7765 C 741.616 1.47954 3.25337 0
M  V30 7766 C 741.445 2.99829 3.35161 0
M  V30 7767 C 740.215 3.68348 3.45902 0
M  V30 7768 C 742.413 3.97638 3.26173 0
M  V30 7769 N 740.395 5.08062 3.44596 0
M  V30 7770 C 741.766 5.23651 3.31949 0
M  V30 7771 C 743.821 3.89651 3.09962 0
M  V30 7772 C 742.524 6.42609 3.23182 0
M  V30 7773 C 744.55 5.08164 3.02528 0
M  V30 7774 C 743.912 6.3305 3.08913 0
M  V30 7775 H 740.011 0.395876 0.674393 0
M  V30 7776 H 742.595 1.4625 1.28526 0
M  V30 7777 H 740.766 0.979022 3.75859 0
M  V30 7778 H 742.498 1.20298 3.86407 0
M  V30 7779 H 739.253 3.18928 3.50117 0
M  V30 7780 H 739.677 5.81023 3.47479 0
M  V30 7781 H 744.319 2.93966 3.03881 0
M  V30 7782 H 742.037 7.38531 3.28022 0
M  V30 7783 H 745.623 5.03742 2.91093 0
M  V30 7784 H 744.503 7.23214 3.03201 0
M  V30 7785 N 742.006 -1.2595 0.947325 0
M  V30 7786 C 743.254 -1.93081 0.596996 0
M  V30 7787 C 743.575 -1.74632 -0.867672 0
M  V30 7788 O 742.845 -1.1056 -1.6172 0
M  V30 7789 H 741.425 -0.714542 0.217805 0
M  V30 7790 H 744.087 -1.53265 1.20398 0
M  V30 7791 H 743.183 -3.01134 0.82004 0
M  V30 7792 N 743.484 -0.715051 -1.40445 0
M  V30 7793 C 744.417 -0.0112426 -2.28197 0
M  V30 7794 C 745.395 0.768211 -1.43308 0
M  V30 7795 O 746.579 0.754961 -1.72721 0
M  V30 7796 C 743.706 0.991453 -3.23864 0
M  V30 7797 C 742.752 0.302873 -4.25423 0
M  V30 7798 S 743.585 -0.968852 -5.26663 0
M  V30 7799 C 744.741 0.0317538 -6.25892 0
M  V30 7800 H 744.974 -0.755467 -2.87541 0
M  V30 7801 H 742.507 -0.506054 -1.45871 0
M  V30 7802 H 744.465 1.56475 -3.79507 0
M  V30 7803 H 743.126 1.70838 -2.63578 0
M  V30 7804 H 742.319 1.06086 -4.92709 0
M  V30 7805 H 741.921 -0.197853 -3.73476 0
M  V30 7806 H 744.213 0.878764 -6.71777 0
M  V30 7807 H 745.156 -0.607698 -7.05488 0
M  V30 7808 H 745.564 0.39524 -5.63115 0
M  V30 7809 N 744.962 1.50701 -0.461195 0
M  V30 7810 C 745.894 2.26124 0.374244 0
M  V30 7811 C 746.907 1.31064 0.965715 0
M  V30 7812 O 748.096 1.56647 0.855801 0
M  V30 7813 C 745.196 3.01996 1.5379 0
M  V30 7814 C 744.369 4.24336 1.06101 0
M  V30 7815 C 743.428 4.82585 2.09756 0
M  V30 7816 O 742.454 5.43775 1.68219 0
M  V30 7817 N 743.656 4.68712 3.42475 0
M  V30 7818 H 746.421 2.9846 -0.2723 0
M  V30 7819 H 743.982 1.59256 -0.291415 0
M  V30 7820 H 745.974 3.37846 2.22806 0
M  V30 7821 H 744.544 2.32521 2.08933 0
M  V30 7822 H 743.764 3.93707 0.197085 0
M  V30 7823 H 745.052 5.03678 0.720156 0
M  V30 7824 H 744.45 4.20026 3.78938 0
M  V30 7825 H 743.007 5.08858 4.07317 0
M  V30 7826 N 746.441 0.193421 1.56409 0
M  V30 7827 C 747.669 -0.451438 2.01915 0
M  V30 7828 C 748.084 -1.55306 1.07357 0
M  V30 7829 O 747.441 -1.82333 0.0781512 0
M  V30 7830 C 747.492 -1.00931 3.47124 0
M  V30 7831 O 747.213 0.0483623 4.38073 0
M  V30 7832 C 748.714 -1.73021 4.0814 0
M  V30 7833 H 745.934 -0.113495 0.661332 0
M  V30 7834 H 748.478 0.301636 2.02263 0
M  V30 7835 H 746.633 -1.71277 3.47481 0
M  V30 7836 H 747.047 -0.366644 5.23217 0
M  V30 7837 H 748.521 -2.07289 5.11601 0
M  V30 7838 H 748.998 -2.6333 3.51502 0
M  V30 7839 H 749.604 -1.07264 4.11551 0
M  V30 7840 N 747.919 -1.57396 -0.0801906 0
M  V30 7841 C 749.335 -1.53564 -0.434778 0
M  V30 7842 C 749.535 -0.912372 -1.79661 0
M  V30 7843 O 748.591 -0.511268 -2.4727 0
M  V30 7844 C 749.904 -2.98244 -0.383561 0
M  V30 7845 C 751.452 -3.09536 -0.46435 0
M  V30 7846 C 751.927 -4.55851 -0.443128 0
M  V30 7847 N 753.418 -4.60456 -0.503448 0
M  V30 7848 C 754.153 -5.71135 -0.509106 0
M  V30 7849 N 753.649 -6.91203 -0.47008 0
M  V30 7850 N 755.442 -5.59353 -0.555035 0
M  V30 7851 H 747.593 -1.96281 0.811635 0
M  V30 7852 H 749.856 -0.898041 0.303689 0
M  V30 7853 H 749.562 -3.47369 0.550236 0
M  V30 7854 H 749.436 -3.57705 -1.19694 0
M  V30 7855 H 751.823 -2.6039 -1.38857 0
M  V30 7856 H 751.904 -2.53 0.377445 0
M  V30 7857 H 751.548 -5.05653 0.477207 0
M  V30 7858 H 751.478 -5.10242 -1.30234 0
M  V30 7859 H 753.969 -3.74048 -0.538199 0
M  V30 7860 H 754.282 -7.7132 -0.478091 0
M  V30 7861 H 752.627 -6.93625 -0.436897 0
M  V30 7862 H 755.818 -4.64453 -0.583158 0
M  V30 7863 H 755.991 -6.4561 -0.555976 0
M  V30 7864 N 749.397 0.351382 -1.53633 0
M  V30 7865 C 750.36 1.41403 -1.80383 0
M  V30 7866 C 751.36 1.45963 -0.674635 0
M  V30 7867 O 752.55 1.46476 -0.942895 0
M  V30 7868 C 749.682 2.80401 -1.93876 0
M  V30 7869 H 750.875 1.18951 -2.75301 0
M  V30 7870 H 748.428 0.58533 -1.44926 0
M  V30 7871 H 749.163 3.08147 -1.01074 0
M  V30 7872 H 748.948 2.78488 -2.7602 0
M  V30 7873 H 750.438 3.57329 -2.16116 0
M  V30 7874 N 750.875 1.45233 0.611969 0
M  V30 7875 C 752.121 1.49242 1.37312 0
M  V30 7876 C 752.454 0.131963 1.93751 0
M  V30 7877 O 751.729 -0.852999 1.74798 0
M  V30 7878 C 752.012 2.56811 2.52428 0
M  V30 7879 C 751.865 4.02284 2.01215 0
M  V30 7880 C 753.184 2.60705 3.54572 0
M  V30 7881 H 750.303 0.54336 0.497925 0
M  V30 7882 H 752.945 1.77019 0.690242 0
M  V30 7883 H 751.095 2.33256 3.10683 0
M  V30 7884 H 752.767 4.37035 1.47643 0
M  V30 7885 H 751.01 4.1315 1.32248 0
M  V30 7886 H 751.681 4.7323 2.84178 0
M  V30 7887 H 754.157 2.81799 3.06151 0
M  V30 7888 H 753.033 3.37841 4.32614 0
M  V30 7889 H 753.294 1.65627 4.09903 0
M  V30 7890 N 752.353 -0.854086 1.3245 0
M  V30 7891 C 753.285 -1.96932 1.17262 0
M  V30 7892 C 754.298 -1.62445 0.107469 0
M  V30 7893 O 755.487 -1.74904 0.356481 0
M  V30 7894 C 752.587 -3.29971 0.772817 0
M  V30 7895 C 751.76 -3.92695 1.92638 0
M  V30 7896 C 750.819 -5.04068 1.51003 0
M  V30 7897 O 749.845 -5.24032 2.22213 0
M  V30 7898 N 751.047 -5.79076 0.406371 0
M  V30 7899 H 753.812 -2.10503 2.13327 0
M  V30 7900 H 751.373 -1.02897 1.24995 0
M  V30 7901 H 753.365 -4.01883 0.476684 0
M  V30 7902 H 751.935 -3.1245 -0.0967 0
M  V30 7903 H 751.155 -3.13563 2.38897 0
M  V30 7904 H 752.443 -4.31337 2.69863 0
M  V30 7905 H 751.841 -5.65393 -0.186302 0
M  V30 7906 H 750.398 -6.51579 0.169846 0
M  V30 7907 N 753.831 -1.1567 -1.07043 0
M  V30 7908 C 755.079 -0.931673 -1.79344 0
M  V30 7909 C 755.4 0.542421 -1.87304 0
M  V30 7910 O 754.67 1.39418 -1.37621 0
M  V30 7911 H 753.25 -0.34171 -0.664262 0
M  V30 7912 H 755.912 -1.45795 -1.29344 0
M  V30 7913 H 755.008 -1.34379 -2.81689 0
M  V30 7914 N 755.309 1.25446 -0.953992 0
M  V30 7915 C 756.242 2.24341 -0.417912 0
M  V30 7916 C 757.22 1.54709 0.5004 0
M  V30 7917 O 758.404 1.83414 0.434923 0
M  V30 7918 C 755.531 3.36352 0.398155 0
M  V30 7919 C 754.577 4.24007 -0.460461 0
M  V30 7920 S 755.41 5.00951 -1.89231 0
M  V30 7921 C 756.566 6.1643 -1.08465 0
M  V30 7922 H 756.799 2.69465 -1.25602 0
M  V30 7923 H 754.332 1.34512 -0.758018 0
M  V30 7924 H 756.29 4.01325 0.863059 0
M  V30 7925 H 754.951 2.89813 1.21108 0
M  V30 7926 H 754.144 5.03728 0.165415 0
M  V30 7927 H 753.746 3.63965 -0.860549 0
M  V30 7928 H 756.038 6.76681 -0.333017 0
M  V30 7929 H 756.981 6.8335 -1.85577 0
M  V30 7930 H 757.389 5.61139 -0.615062 0
M  V30 7931 N 756.787 0.722489 1.40064 0
M  V30 7932 C 757.717 0.0892452 2.33329 0
M  V30 7933 C 758.698 -0.737992 1.53257 0
M  V30 7934 O 759.883 -0.685516 1.81698 0
M  V30 7935 C 757.013 -0.828139 3.37282 0
M  V30 7936 C 755.967 -0.106005 4.27869 0
M  V30 7937 C 755.293 -1.13957 5.22415 0
M  V30 7938 C 756.593 1.04395 5.11761 0
M  V30 7939 H 758.287 0.868269 2.86534 0
M  V30 7940 H 755.833 0.418982 1.3777 0
M  V30 7941 H 757.786 -1.28058 4.01471 0
M  V30 7942 H 756.51 -1.63914 2.82489 0
M  V30 7943 H 755.169 0.326683 3.65142 0
M  V30 7944 H 754.817 -1.9438 4.63924 0
M  V30 7945 H 754.517 -0.661233 5.83868 0
M  V30 7946 H 756.041 -1.59197 5.89482 0
M  V30 7947 H 757.455 0.670541 5.69365 0
M  V30 7948 H 755.852 1.4511 5.82291 0
M  V30 7949 H 756.922 1.87144 4.47331 0
M  V30 7950 N 758.265 -1.50454 0.469181 0
M  V30 7951 C 759.542 -1.9504 -0.147955 0
M  V30 7952 C 759.922 -1.40946 -1.57154 0
M  V30 7953 O 759.27 -0.609663 -2.20217 0
M  V30 7954 C 759.48 -3.48875 -0.0932198 0
M  V30 7955 C 760.828 -4.23655 -0.283056 0
M  V30 7956 O 761.852 -3.55795 -0.169892 0
M  V30 7957 O 760.711 -5.44102 -0.511396 0
M  V30 7958 H 757.805 -0.819283 -0.11271 0
M  V30 7959 H 760.351 -1.6123 0.529446 0
M  V30 7960 H 759.123 -3.80791 0.900784 0
M  V30 7961 H 758.746 -3.89217 -0.812161 0
M  V30 7962 N 759.743 -0.201713 -1.56304 0
M  V30 7963 C 760.99 0.435307 -1.97766 0
M  V30 7964 C 761.318 1.61169 -1.0888 0
M  V30 7965 O 760.573 1.95272 -0.12934 0
M  V30 7966 C 760.872 0.931432 -3.45049 0
M  V30 7967 C 760.538 -0.132287 -4.50706 0
M  V30 7968 C 759.2 -0.424552 -4.79323 0
M  V30 7969 C 761.552 -0.852703 -5.14177 0
M  V30 7970 C 758.88 -1.4421 -5.68701 0
M  V30 7971 C 761.232 -1.85944 -6.04655 0
M  V30 7972 C 759.896 -2.15884 -6.31625 0
M  V30 7973 H 759.166 0.15929 -0.723676 0
M  V30 7974 H 761.813 -0.300069 -1.89134 0
M  V30 7975 H 760.118 1.7452 -3.50785 0
M  V30 7976 H 761.815 1.43383 -3.74489 0
M  V30 7977 H 758.405 0.105671 -4.2847 0
M  V30 7978 H 762.589 -0.640139 -4.92154 0
M  V30 7979 H 757.845 -1.6799 -5.87869 0
M  V30 7980 H 762.019 -2.42286 -6.52894 0
M  V30 7981 H 759.646 -2.94875 -7.0068 0
M  V30 7982 N 761.222 1.57436 0.0718424 0
M  V30 7983 C 762.499 1.78312 0.804006 0
M  V30 7984 C 762.879 0.789273 1.9579 0
M  V30 7985 O 762.227 -0.177605 2.27809 0
M  V30 7986 C 762.437 3.24798 1.277 0
M  V30 7987 C 763.785 3.88627 1.71039 0
M  V30 7988 O 764.809 3.28689 1.37266 0
M  V30 7989 O 763.668 4.94073 2.33567 0
M  V30 7990 H 760.762 0.73178 0.385262 0
M  V30 7991 H 763.308 1.69621 0.0519219 0
M  V30 7992 H 762.08 3.88688 0.45134 0
M  V30 7993 H 761.703 3.38213 2.0904 0
M  V30 7994 N 762.7 -0.34323 1.53817 0
M  V30 7995 C 763.93 -1.10188 1.74763 0
M  V30 7996 C 764.338 -1.82829 0.486856 0
M  V30 7997 O 763.681 -1.75236 -0.551198 0
M  V30 7998 C 763.743 -2.16 2.87375 0
M  V30 7999 C 763.407 -1.62931 4.26969 0
M  V30 8000 C 764.404 -1.08147 5.08528 0
M  V30 8001 C 762.089 -1.67769 4.73454 0
M  V30 8002 C 764.083 -0.589039 6.34672 0
M  V30 8003 C 761.77 -1.18138 5.99572 0
M  V30 8004 C 762.768 -0.637979 6.80014 0
M  V30 8005 O 762.456 -0.149073 8.03762 0
M  V30 8006 H 762.188 -0.33445 0.587469 0
M  V30 8007 H 764.742 -0.401109 2.01445 0
M  V30 8008 H 762.972 -2.89637 2.56218 0
M  V30 8009 H 764.661 -2.77432 2.96287 0
M  V30 8010 H 765.427 -1.03732 4.73777 0
M  V30 8011 H 761.306 -2.09004 4.10899 0
M  V30 8012 H 764.85 -0.164233 6.97407 0
M  V30 8013 H 760.747 -1.22254 6.33817 0
M  V30 8014 H 761.515 -0.266332 8.18067 0
M  V30 8015 N 764.178 -1.45556 -0.604258 0
M  V30 8016 C 765.424 -1.49968 -1.36519 0
M  V30 8017 C 765.757 -0.142236 -1.93678 0
M  V30 8018 O 765.032 0.843717 -1.75247 0
M  V30 8019 C 765.315 -2.58146 -2.51063 0
M  V30 8020 C 765.168 -4.03346 -1.99078 0
M  V30 8021 C 766.487 -2.62581 -3.53184 0
M  V30 8022 H 763.606 -0.545993 -0.495036 0
M  V30 8023 H 766.248 -1.77382 -0.680845 0
M  V30 8024 H 764.398 -2.34901 -3.09441 0
M  V30 8025 H 766.07 -4.37811 -1.45323 0
M  V30 8026 H 764.313 -4.13845 -1.30055 0
M  V30 8027 H 764.984 -4.74731 -2.81664 0
M  V30 8028 H 767.46 -2.83419 -3.04652 0
M  V30 8029 H 766.336 -3.40131 -4.30816 0
M  V30 8030 H 766.597 -1.67798 -4.09019 0
M  V30 8031 N 765.656 0.84705 -1.32902 0
M  V30 8032 C 766.896 1.61554 -1.25218 0
M  V30 8033 C 767.26 1.91141 0.18143 0
M  V30 8034 O 768.461 2.6607 0.382106 0
M  V30 8035 C 766.732 2.89553 -2.09509 0
M  V30 8036 S 768.291 3.80283 -2.18931 0
M  V30 8037 H 765.109 0.554031 -0.445613 0
M  V30 8038 H 767.711 1.00251 -1.67839 0
M  V30 8039 H 766.415 2.65776 -3.12716 0
M  V30 8040 H 765.946 3.55868 -1.67694 0
M  V30 8041 H 767.961 4.77641 -1.34438 0
M  V30 8042 N 767.134 1.16236 1.06428 0
M  V30 8043 C 768.359 0.967688 1.83441 0
M  V30 8044 C 768.784 -0.479167 1.81894 0
M  V30 8045 O 768.142 -1.34224 1.21875 0
M  V30 8046 C 768.19 1.49806 3.2801 0
M  V30 8047 O 767.294 0.703481 4.06356 0
M  V30 8048 H 766.635 0.344468 0.56766 0
M  V30 8049 H 769.165 1.54442 1.34197 0
M  V30 8050 H 769.175 1.51495 3.78831 0
M  V30 8051 H 767.85 2.55133 3.2845 0
M  V30 8052 H 766.427 0.756986 3.65136 0
M  V30 8053 N 768.612 -1.24939 0.960631 0
M  V30 8054 C 770.028 -1.45039 0.666018 0
M  V30 8055 C 770.228 -1.86021 -0.774501 0
M  V30 8056 O 769.284 -1.99392 -1.54916 0
M  V30 8057 C 770.597 -2.51775 1.64408 0
M  V30 8058 C 772.145 -2.6561 1.65592 0
M  V30 8059 C 772.62 -3.75536 2.62177 0
M  V30 8060 N 774.111 -3.82954 2.60577 0
M  V30 8061 C 774.846 -4.67517 3.31987 0
M  V30 8062 N 774.342 -5.56321 4.1289 0
M  V30 8063 N 776.135 -4.61535 3.20845 0
M  V30 8064 H 768.286 -0.96632 1.89145 0
M  V30 8065 H 770.549 -0.486034 0.813926 0
M  V30 8066 H 770.255 -2.28534 2.67329 0
M  V30 8067 H 770.129 -3.49804 1.41128 0
M  V30 8068 H 772.516 -2.88212 0.633846 0
M  V30 8069 H 772.597 -1.67962 1.92931 0
M  V30 8070 H 772.241 -3.53684 3.64514 0
M  V30 8071 H 772.171 -4.72682 2.32119 0
M  V30 8072 H 774.662 -3.19478 2.01847 0
M  V30 8073 H 774.975 -6.17787 4.64283 0
M  V30 8074 H 773.32 -5.5601 4.16987 0
M  V30 8075 H 776.511 -3.91169 2.57108 0
M  V30 8076 H 776.684 -5.27214 3.76762 0
M  V30 8077 N 770.09 -0.729906 -1.39679 0
M  V30 8078 C 771.367 -0.202149 -1.94553 0
M  V30 8079 C 771.747 1.29507 -1.66707 0
M  V30 8080 O 771.095 2.05819 -0.992517 0
M  V30 8081 C 771.305 -0.530279 -3.44948 0
M  V30 8082 C 772.653 -0.476808 -4.21914 0
M  V30 8083 O 773.677 -0.467171 -3.53123 0
M  V30 8084 O 772.536 -0.466869 -5.44502 0
M  V30 8085 H 769.63 -0.0351644 -0.826252 0
M  V30 8086 H 772.176 -0.808417 -1.49207 0
M  V30 8087 H 770.948 -1.56526 -3.5863 0
M  V30 8088 H 770.571 0.10522 -3.97461 0
M  V30 8089 N 771.568 1.50203 -0.477153 0
M  V30 8090 C 772.478 2.32421 0.319027 0
M  V30 8091 C 773.494 1.43075 0.990233 0
M  V30 8092 O 774.67 1.76123 0.976873 0
M  V30 8093 C 771.735 3.17909 1.38328 0
M  V30 8094 C 770.796 4.23082 0.728036 0
M  V30 8095 C 770.029 5.04484 1.74158 0
M  V30 8096 O 770.252 4.8705 2.96881 0
M  V30 8097 O 769.186 5.8747 1.31006 0
M  V30 8098 H 773.012 3.01638 -0.353281 0
M  V30 8099 H 770.597 1.47478 -0.238891 0
M  V30 8100 H 772.479 3.70937 1.9996 0
M  V30 8101 H 771.154 2.51413 2.03895 0
M  V30 8102 H 770.061 3.7403 0.07261 0
M  V30 8103 H 771.394 4.92065 0.115216 0
M  V30 8104 N 773.046 0.209999 1.56195 0
M  V30 8105 C 774.457 -0.299943 1.84275 0
M  V30 8106 C 774.808 -1.60314 1.1311 0
M  V30 8107 O 773.933 -2.1273 0.396874 0
M  V30 8108 C 774.528 -0.550986 3.3429 0
M  V30 8109 C 773.087 -1.00526 3.62728 0
M  V30 8110 C 772.234 -0.0619828 2.77231 0
M  V30 8111 H 775.185 0.433458 1.52666 0
M  V30 8112 H 775.206 -1.39846 3.53869 0
M  V30 8113 H 774.718 0.397669 3.86057 0
M  V30 8114 H 772.819 -1.96768 3.16407 0
M  V30 8115 H 772.932 -0.887664 4.70805 0
M  V30 8116 H 771.296 -0.566648 2.48317 0
M  V30 8117 H 772.079 0.881383 3.31793 0
M  V30 8118 N 774.524 -1.57472 -0.0634922 0
M  V30 8119 C 775.749 -1.92273 -0.77756 0
M  V30 8120 C 776.174 -0.807141 -1.69902 0
M  V30 8121 O 775.532 0.239523 -1.79711 0
M  V30 8122 C 775.58 -3.26054 -1.54017 0
M  V30 8123 O 774.684 -3.15873 -2.65138 0
M  V30 8124 H 774.025 -0.629389 -0.211579 0
M  V30 8125 H 776.555 -2.04579 -0.0292523 0
M  V30 8126 H 776.565 -3.60127 -1.91763 0
M  V30 8127 H 775.24 -4.06824 -0.864128 0
M  V30 8128 H 773.817 -2.93373 -2.30189 0
M  V30 8129 N 776.003 0.335068 -1.53997 0
M  V30 8130 C 777.249 1.07594 -1.71905 0
M  V30 8131 C 777.582 1.88039 -0.485264 0
M  V30 8132 O 776.857 1.87482 0.517752 0
M  V30 8133 C 777.14 2.01016 -2.98772 0
M  V30 8134 C 776.993 1.23977 -4.32377 0
M  V30 8135 C 778.312 3.0071 -3.21343 0
M  V30 8136 H 775.431 0.38976 -0.625505 0
M  V30 8137 H 778.073 0.353684 -1.86679 0
M  V30 8138 H 776.223 2.62603 -2.86307 0
M  V30 8139 H 777.895 0.649383 -4.56706 0
M  V30 8140 H 776.138 0.541878 -4.30402 0
M  V30 8141 H 776.809 1.92512 -5.17342 0
M  V30 8142 H 779.285 2.4924 -3.33194 0
M  V30 8143 H 778.161 3.63272 -4.11491 0
M  V30 8144 H 778.422 3.72549 -2.38033 0
M  V30 8145 N 777.481 1.45874 0.596531 0
M  V30 8146 C 778.444 1.54988 1.68853 0
M  V30 8147 C 779.444 0.428302 1.54991 0
M  V30 8148 O 780.634 0.692158 1.59859 0
M  V30 8149 C 777.766 1.457 3.08195 0
M  V30 8150 H 778.959 2.52294 1.62135 0
M  V30 8151 H 776.512 1.33479 0.813206 0
M  V30 8152 H 777.247 0.496204 3.20481 0
M  V30 8153 H 777.032 2.27061 3.19665 0
M  V30 8154 H 778.522 1.55133 3.87716 0
M  V30 8155 N 778.959 -0.83999 1.33349 0
M  V30 8156 C 779.922 -1.93128 1.23426 0
M  V30 8157 C 780.922 -1.60065 0.153599 0
M  V30 8158 O 782.112 -1.69425 0.405049 0
M  V30 8159 C 779.244 -3.28761 0.901622 0
M  V30 8160 H 780.437 -2.03352 2.20427 0
M  V30 8161 H 777.99 -1.03194 1.17391 0
M  V30 8162 H 778.725 -3.24233 -0.0659337 0
M  V30 8163 H 778.51 -3.54138 1.68311 0
M  V30 8164 H 780 -4.08714 0.856913 0
M  V30 8165 N 780.437 -1.16799 -1.0581 0
M  V30 8166 C 781.37 -0.822491 -2.12862 0
M  V30 8167 C 782.348 0.208006 -1.61264 0
M  V30 8168 O 783.532 0.0909652 -1.8828 0
M  V30 8169 C 780.659 -0.225826 -3.37946 0
M  V30 8170 C 779.705 -1.23071 -4.08357 0
M  V30 8171 S 780.538 -2.77944 -4.5772 0
M  V30 8172 C 781.694 -2.19741 -5.86059 0
M  V30 8173 H 781.927 -1.72917 -2.41841 0
M  V30 8174 H 779.46 -0.991982 -1.18318 0
M  V30 8175 H 781.418 0.111955 -4.10347 0
M  V30 8176 H 780.079 0.658692 -3.07116 0
M  V30 8177 H 779.272 -0.761758 -4.9821 0
M  V30 8178 H 778.874 -1.51383 -3.41993 0
M  V30 8179 H 781.166 -1.5691 -6.59079 0
M  V30 8180 H 782.109 -3.07823 -6.37692 0
M  V30 8181 H 782.517 -1.63433 -5.40324 0
M  V30 8182 N 781.915 1.24427 -0.967243 0
M  V30 8183 C 783.161 1.92772 -0.629812 0
M  V30 8184 C 783.494 1.75436 0.832827 0
M  V30 8185 O 782.769 1.10716 1.59913 0
M  V30 8186 C 783.052 3.45798 -1.00477 0
M  V30 8187 C 782.905 3.72304 -2.52407 0
M  V30 8188 C 784.224 4.36787 -0.538999 0
M  V30 8189 H 781.343 0.700099 -0.230282 0
M  V30 8190 H 783.985 1.46805 -1.20616 0
M  V30 8191 H 782.135 3.8508 -0.514336 0
M  V30 8192 H 783.807 3.42584 -3.08924 0
M  V30 8193 H 782.05 3.17472 -2.95625 0
M  V30 8194 H 782.721 4.7937 -2.73693 0
M  V30 8195 H 785.197 4.04877 -0.959874 0
M  V30 8196 H 784.073 5.4259 -0.829926 0
M  V30 8197 H 784.334 4.38527 0.560923 0
M  V30 8198 N 783.393 0.737304 1.3929 0
M  V30 8199 C 784.623 0.296143 2.04467 0
M  V30 8200 C 785.031 -1.0748 1.55707 0
M  V30 8201 O 784.374 -1.69082 0.718123 0
M  V30 8202 C 784.436 0.222161 3.58813 0
M  V30 8203 C 784.1 1.53195 4.30558 0
M  V30 8204 C 785.097 2.47809 4.57041 0
M  V30 8205 C 782.782 1.79688 4.6906 0
M  V30 8206 C 784.776 3.67147 5.21039 0
M  V30 8207 C 782.463 2.99304 5.32785 0
M  V30 8208 C 783.461 3.92855 5.58708 0
M  V30 8209 O 783.149 5.1037 6.2111 0
M  V30 8210 H 782.881 0.126896 0.663983 0
M  V30 8211 H 785.435 1.00242 1.79278 0
M  V30 8212 H 783.665 -0.540239 3.82908 0
M  V30 8213 H 785.354 -0.187311 4.05468 0
M  V30 8214 H 786.12 2.28611 4.2774 0
M  V30 8215 H 781.999 1.07716 4.48239 0
M  V30 8216 H 785.543 4.40183 5.41188 0
M  V30 8217 H 781.44 3.18401 5.61508 0
M  V30 8218 H 782.208 5.10735 6.39603 0
M  V30 8219 N 784.871 -1.49948 0.485112 0
M  V30 8220 C 786.282 -1.8667 0.0334041 0
M  V30 8221 C 786.633 -1.3988 -1.37579 0
M  V30 8222 O 785.758 -0.769788 -2.02245 0
M  V30 8223 C 786.353 -3.38757 0.0538426 0
M  V30 8224 C 784.912 -3.74839 -0.342453 0
M  V30 8225 C 784.059 -2.73894 0.433281 0
M  V30 8226 H 787.01 -1.42492 0.698699 0
M  V30 8227 H 787.031 -3.73132 -0.745146 0
M  V30 8228 H 786.543 -3.72782 1.07959 0
M  V30 8229 H 784.644 -3.46419 -1.37203 0
M  V30 8230 H 784.757 -4.79088 -0.0340503 0
M  V30 8231 H 783.121 -2.54441 -0.114849 0
M  V30 8232 H 783.904 -3.10763 1.45881 0
M  V30 8233 N 786.349 -0.21828 -1.56081 0
M  V30 8234 C 787.596 0.414307 -1.98216 0
M  V30 8235 C 787.924 1.60005 -1.10584 0
M  V30 8236 O 787.179 1.95124 -0.150043 0
M  V30 8237 C 787.478 0.894782 -3.46018 0
M  V30 8238 C 787.144 -0.180083 -4.5054 0
M  V30 8239 C 785.806 -0.475367 -4.78846 0
M  V30 8240 C 788.158 -0.907191 -5.13244 0
M  V30 8241 C 785.486 -1.50233 -5.67139 0
M  V30 8242 C 787.838 -1.92347 -6.02649 0
M  V30 8243 C 786.502 -2.22571 -6.293 0
M  V30 8244 H 785.772 0.151606 -0.725325 0
M  V30 8245 H 788.419 -0.320113 -1.88806 0
M  V30 8246 H 786.724 1.7079 -3.52616 0
M  V30 8247 H 788.421 1.39403 -3.75989 0
M  V30 8248 H 785.011 0.06022 -4.28558 0
M  V30 8249 H 789.195 -0.692303 -4.91448 0
M  V30 8250 H 784.451 -1.74215 -5.86054 0
M  V30 8251 H 788.625 -2.49197 -6.50288 0
M  V30 8252 H 786.252 -3.0229 -6.97513 0
M  V30 8253 N 787.827 1.57504 0.0551401 0
M  V30 8254 C 789.055 1.92294 0.76358 0
M  V30 8255 C 789.47 0.815774 1.70266 0
M  V30 8256 O 788.827 -0.209772 1.8129 0
M  V30 8257 C 788.878 3.26914 1.54302 0
M  V30 8258 O 788.599 4.33375 0.641666 0
M  V30 8259 C 790.1 3.75825 2.35097 0
M  V30 8260 H 787.32 0.635229 0.216159 0
M  V30 8261 H 789.864 2.0449 0.0204385 0
M  V30 8262 H 788.019 3.16196 2.23828 0
M  V30 8263 H 788.433 5.10927 1.1855 0
M  V30 8264 H 789.907 4.72603 2.8522 0
M  V30 8265 H 790.384 3.0568 3.15367 0
M  V30 8266 H 790.99 3.89542 1.70696 0
M  V30 8267 N 789.305 -0.326896 1.54172 0
M  V30 8268 C 790.553 -1.06313 1.71878 0
M  V30 8269 C 790.874 -1.88652 0.493498 0
M  V30 8270 O 790.144 -1.89608 -0.492522 0
M  V30 8271 H 788.724 -0.39549 0.633716 0
M  V30 8272 H 791.386 -0.364139 1.91468 0
M  V30 8273 H 790.482 -1.73105 2.59694 0
M  V30 8274 N 790.784 -1.46188 -0.588786 0
M  V30 8275 C 792.061 -1.41659 -1.34878 0
M  V30 8276 C 792.441 -0.0968913 -2.10878 0
M  V30 8277 O 791.789 0.921468 -2.09096 0
M  V30 8278 C 791.999 -2.6424 -2.27988 0
M  V30 8279 C 793.347 -3.1013 -2.90008 0
M  V30 8280 O 794.371 -2.64745 -2.38303 0
M  V30 8281 O 793.23 -3.88944 -3.83908 0
M  V30 8282 H 790.324 -0.563058 -0.605718 0
M  V30 8283 H 792.87 -1.58346 -0.610309 0
M  V30 8284 H 791.642 -3.51853 -1.71217 0
M  V30 8285 H 791.265 -2.49982 -3.09184 0
M  V30 8286 N 792.262 0.832906 -1.33792 0
M  V30 8287 C 793.212 1.93178 -1.21105 0
M  V30 8288 C 794.196 1.60506 -0.112491 0
M  V30 8289 O 795.388 1.73681 -0.341179 0
M  V30 8290 C 792.517 3.29647 -0.958526 0
M  V30 8291 C 791.603 3.68469 -2.0998 0
M  V30 8292 N 791.994 3.78936 -3.35024 0
M  V30 8293 C 790.292 3.98249 -2.00782 0
M  V30 8294 C 790.993 4.12731 -4.09912 0
M  V30 8295 N 789.969 4.25419 -3.38407 0
M  V30 8296 H 793.771 1.99434 -2.15878 0
M  V30 8297 H 791.285 1.02598 -1.25886 0
M  V30 8298 H 793.282 4.08173 -0.848552 0
M  V30 8299 H 791.942 3.24694 -0.019387 0
M  V30 8300 H 792.953 3.62688 -3.69699 0
M  V30 8301 H 789.63 4.01474 -1.14564 0
M  V30 8302 H 791.02 4.28117 -5.17847 0
M  V30 8303 N 793.74 1.17359 1.05189 0
M  V30 8304 C 794.687 0.890325 2.12936 0
M  V30 8305 C 795.657 -0.165779 1.65271 0
M  V30 8306 O 796.842 -0.0285672 1.90779 0
M  V30 8307 C 793.982 0.409793 3.42658 0
M  V30 8308 C 793.095 1.53002 4.03998 0
M  V30 8309 C 792.23 1.00336 5.21638 0
M  V30 8310 C 791.269 2.09903 5.74984 0
M  V30 8311 N 790.406 1.58714 6.83926 0
M  V30 8312 H 795.246 1.81299 2.36505 0
M  V30 8313 H 792.783 0.904249 1.16025 0
M  V30 8314 H 794.741 0.112743 4.17048 0
M  V30 8315 H 793.371 -0.475915 3.19272 0
M  V30 8316 H 792.423 1.9428 3.27047 0
M  V30 8317 H 793.735 2.3564 4.39631 0
M  V30 8318 H 792.889 0.660158 6.03098 0
M  V30 8319 H 791.628 0.14642 4.8748 0
M  V30 8320 H 790.633 2.45081 4.92154 0
M  V30 8321 H 791.858 2.96013 6.1119 0
M  V30 8322 H 789.804 0.752915 6.51665 0
M  V30 8323 H 789.721 2.34959 7.18561 0
M  V30 8324 H 790.989 1.27287 7.69037 0
M  V30 8325 N 795.218 -1.23913 0.973828 0
M  V30 8326 C 796.15 -2.24397 0.466763 0
M  V30 8327 C 797.163 -1.57078 -0.427828 0
M  V30 8328 O 798.352 -1.76973 -0.233019 0
M  V30 8329 C 795.452 -3.37141 -0.344798 0
M  V30 8330 C 794.625 -4.34037 0.541349 0
M  V30 8331 C 793.684 -5.2576 -0.215243 0
M  V30 8332 O 792.71 -5.67842 0.39291 0
M  V30 8333 N 793.912 -5.60702 -1.5031 0
M  V30 8334 H 796.677 -2.68536 1.33074 0
M  V30 8335 H 794.238 -1.38017 0.846346 0
M  V30 8336 H 796.23 -3.95476 -0.859133 0
M  V30 8337 H 794.8 -2.92239 -1.10974 0
M  V30 8338 H 794.02 -3.74302 1.23659 0
M  V30 8339 H 795.308 -4.95738 1.1455 0
M  V30 8340 H 794.706 -5.28451 -2.01882 0
M  V30 8341 H 793.263 -6.21538 -1.96301 0
M  V30 8342 N 796.696 -0.74468 -1.38897 0
M  V30 8343 C 797.643 -0.111064 -2.30533 0
M  V30 8344 C 798.613 0.719276 -1.49719 0
M  V30 8345 O 799.798 0.677244 -1.78376 0
M  V30 8346 C 796.938 0.78292 -3.36102 0
M  V30 8347 C 796.051 -0.0610817 -4.31957 0
M  V30 8348 C 795.186 0.835075 -5.24595 0
M  V30 8349 C 794.225 -0.0130974 -6.12099 0
M  V30 8350 N 793.362 0.839525 -6.97063 0
M  V30 8351 H 798.202 -0.898113 -2.84144 0
M  V30 8352 H 795.739 -0.454537 -1.39901 0
M  V30 8353 H 797.697 1.31578 -3.95908 0
M  V30 8354 H 796.327 1.53585 -2.83922 0
M  V30 8355 H 795.379 -0.711469 -3.73687 0
M  V30 8356 H 796.691 -0.716482 -4.93627 0
M  V30 8357 H 795.845 1.43542 -5.89475 0
M  V30 8358 H 794.584 1.52423 -4.63269 0
M  V30 8359 H 793.589 -0.626179 -5.46223 0
M  V30 8360 H 794.814 -0.699181 -6.75491 0
M  V30 8361 H 792.76 1.5138 -6.38295 0
M  V30 8362 H 792.677 0.240823 -7.55616 0
M  V30 8363 H 793.945 1.42513 -7.66362 0
M  V30 8364 N 798.174 1.49689 -0.493057 0
M  V30 8365 C 799.421 2.02427 0.0542714 0
M  V30 8366 C 799.749 1.37339 1.37725 0
M  V30 8367 O 799.004 0.495523 1.89323 0
M  V30 8368 C 799.303 3.56427 0.263536 0
M  V30 8369 C 798.969 4.40111 -0.98046 0
M  V30 8370 C 797.631 4.62699 -1.32148 0
M  V30 8371 C 799.983 4.88847 -1.80771 0
M  V30 8372 C 797.311 5.31268 -2.48941 0
M  V30 8373 C 799.663 5.587 -2.96711 0
M  V30 8374 C 798.327 5.79536 -3.31202 0
M  V30 8375 H 797.597 0.740734 0.0198593 0
M  V30 8376 H 800.244 1.80073 -0.651603 0
M  V30 8377 H 798.549 3.77416 1.05186 0
M  V30 8378 H 800.246 3.94819 0.701348 0
M  V30 8379 H 796.836 4.22765 -0.704814 0
M  V30 8380 H 801.02 4.71231 -1.55741 0
M  V30 8381 H 796.276 5.45603 -2.75911 0
M  V30 8382 H 800.45 5.9544 -3.61143 0
M  V30 8383 H 798.077 6.32443 -4.21805 0
M  V30 8384 N 799.652 0.226554 1.55963 0
M  V30 8385 C 800.882 -0.407915 2.02533 0
M  V30 8386 C 801.29 -1.53539 1.10554 0
M  V30 8387 O 800.633 -1.8338 0.108409 0
M  V30 8388 C 800.695 -0.996081 3.45425 0
M  V30 8389 C 800.359 -0.00341651 4.57 0
M  V30 8390 C 801.356 0.798782 5.13727 0
M  V30 8391 C 799.041 0.116786 5.02164 0
M  V30 8392 C 801.035 1.70784 6.14094 0
M  V30 8393 C 798.722 1.02937 6.02368 0
M  V30 8394 C 799.72 1.82344 6.5821 0
M  V30 8395 O 799.408 2.72067 7.56462 0
M  V30 8396 H 799.14 -0.103524 0.668026 0
M  V30 8397 H 801.694 0.341937 2.02534 0
M  V30 8398 H 799.924 -1.79512 3.42509 0
M  V30 8399 H 801.613 -1.53848 3.75614 0
M  V30 8400 H 802.379 0.716393 4.7968 0
M  V30 8401 H 798.258 -0.491172 4.58376 0
M  V30 8402 H 801.802 2.32807 6.57607 0
M  V30 8403 H 797.699 1.11276 6.35836 0
M  V30 8404 H 798.467 2.66199 7.74003 0
M  V30 8405 N 801.13 -1.57531 -0.0467866 0
M  V30 8406 C 802.376 -1.89584 -0.736837 0
M  V30 8407 C 802.731 -0.82317 -1.73901 0
M  V30 8408 O 802.024 0.170098 -1.90843 0
M  V30 8409 C 802.218 -3.26091 -1.46285 0
M  V30 8410 C 802.047 -4.46536 -0.532502 0
M  V30 8411 C 800.817 -5.05046 -0.160109 0
M  V30 8412 C 803.015 -5.13979 0.181555 0
M  V30 8413 N 800.997 -6.09009 0.773349 0
M  V30 8414 C 802.368 -6.12345 0.971297 0
M  V30 8415 C 804.423 -4.9727 0.250382 0
M  V30 8416 C 803.126 -6.95802 1.82351 0
M  V30 8417 C 805.152 -5.81275 1.08965 0
M  V30 8418 C 804.514 -6.79197 1.86737 0
M  V30 8419 H 800.613 -0.742868 -0.244277 0
M  V30 8420 H 803.197 -1.947 0.0025481 0
M  V30 8421 H 801.368 -3.21938 -2.1728 0
M  V30 8422 H 803.1 -3.45715 -2.10389 0
M  V30 8423 H 799.855 -4.70754 -0.518457 0
M  V30 8424 H 800.279 -6.65658 1.23406 0
M  V30 8425 H 804.921 -4.21458 -0.336578 0
M  V30 8426 H 802.639 -7.70971 2.42134 0
M  V30 8427 H 806.225 -5.70397 1.14621 0
M  V30 8428 H 805.105 -7.4307 2.50631 0
M  V30 8429 N 802.608 0.318715 -1.54344 0
M  V30 8430 C 803.856 1.054 -1.72439 0
M  V30 8431 C 804.177 1.88388 -0.503495 0
M  V30 8432 O 803.447 1.89866 0.48246 0
M  V30 8433 H 802.027 0.392124 -0.635805 0
M  V30 8434 H 804.689 0.35398 -1.91659 0
M  V30 8435 H 803.785 1.71726 -2.60608 0
M  V30 8436 N 804.086 1.46499 0.581025 0
M  V30 8437 C 805.036 1.53606 1.68491 0
M  V30 8438 C 806.02 0.396853 1.55929 0
M  V30 8439 O 807.212 0.645366 1.64815 0
M  V30 8440 C 804.341 1.53089 3.07276 0
M  V30 8441 C 803.427 2.72309 3.25128 0
M  V30 8442 N 803.818 3.97216 3.13134 0
M  V30 8443 C 802.116 2.68568 3.56072 0
M  V30 8444 C 802.817 4.7693 3.33036 0
M  V30 8445 N 801.793 4.08833 3.58269 0
M  V30 8446 H 805.595 2.47976 1.5775 0
M  V30 8447 H 803.109 1.42161 0.785104 0
M  V30 8448 H 805.106 1.56268 3.86505 0
M  V30 8449 H 803.766 0.597969 3.19146 0
M  V30 8450 H 804.777 4.28439 2.90964 0
M  V30 8451 H 801.454 1.84307 3.74616 0
M  V30 8452 H 802.844 5.85879 3.28932 0
M  V30 8453 N 805.565 -0.825799 1.34232 0
M  V30 8454 C 806.512 -1.93651 1.2557 0
M  V30 8455 C 807.482 -1.65578 0.131536 0
M  V30 8456 O 808.667 -1.88231 0.312027 0
M  V30 8457 C 805.807 -3.29862 1.01415 0
M  V30 8458 C 804.92 -3.70247 2.22579 0
M  V30 8459 C 804.055 -4.95392 1.91731 0
M  V30 8460 C 803.094 -5.28349 3.09053 0
M  V30 8461 N 802.231 -6.44671 2.78107 0
M  V30 8462 H 807.071 -2.00392 2.20561 0
M  V30 8463 H 804.608 -0.980441 1.09662 0
M  V30 8464 H 806.566 -4.08356 0.854485 0
M  V30 8465 H 805.196 -3.22642 0.100936 0
M  V30 8466 H 804.248 -2.87169 2.49476 0
M  V30 8467 H 805.56 -3.90575 3.10246 0
M  V30 8468 H 804.714 -5.81665 1.72484 0
M  V30 8469 H 803.453 -4.77059 1.0132 0
M  V30 8470 H 802.458 -4.40574 3.289 0
M  V30 8471 H 803.683 -5.48622 4.00239 0
M  V30 8472 H 801.629 -6.278 1.9027 0
M  V30 8473 H 801.546 -6.65158 3.59306 0
M  V30 8474 H 802.814 -7.34022 2.62358 0
M  V30 8475 N 807.043 -1.17915 -1.04565 0
M  V30 8476 C 807.953 -0.916449 -2.15959 0
M  V30 8477 C 808.969 0.117655 -1.73602 0
M  V30 8478 O 810.145 -0.063089 -2.01301 0
M  V30 8479 C 807.21 -0.440262 -3.43893 0
M  V30 8480 C 806.271 -1.54172 -4.00661 0
M  V30 8481 C 805.504 -1.08816 -5.22489 0
M  V30 8482 O 805.727 0.0551547 -5.70373 0
M  V30 8483 O 804.661 -1.88383 -5.7166 0
M  V30 8484 H 808.487 -1.8484 -2.40972 0
M  V30 8485 H 806.072 -0.960552 -1.14428 0
M  V30 8486 H 807.954 -0.182537 -4.21004 0
M  V30 8487 H 806.629 0.46346 -3.20365 0
M  V30 8488 H 805.536 -1.85341 -3.24961 0
M  V30 8489 H 806.869 -2.42139 -4.2852 0
M  V30 8490 N 808.521 1.23394 -0.980386 0
M  V30 8491 C 809.77 1.91116 -0.644785 0
M  V30 8492 C 810.083 1.77333 0.825367 0
M  V30 8493 O 811.289 2.39858 1.27203 0
M  V30 8494 C 809.745 3.42592 -1.10266 0
M  V30 8495 C 809.353 3.65037 -2.59715 0
M  V30 8496 C 811.097 4.1609 -0.8408 0
M  V30 8497 C 809.004 5.10148 -2.9917 0
M  V30 8498 H 807.934 0.715632 -0.23746 0
M  V30 8499 H 810.585 1.39829 -1.18828 0
M  V30 8500 H 808.967 3.92989 -0.487372 0
M  V30 8501 H 810.141 3.25186 -3.26482 0
M  V30 8502 H 808.456 3.04849 -2.83647 0
M  V30 8503 H 811.053 5.23021 -1.11143 0
M  V30 8504 H 811.396 4.15702 0.223085 0
M  V30 8505 H 811.929 3.71681 -1.41767 0
M  V30 8506 H 808.668 5.15668 -4.04682 0
M  V30 8507 H 808.188 5.50949 -2.37097 0
M  V30 8508 H 809.867 5.7848 -2.89775 0
M  V30 8509 N 809.999 0.752036 1.385 0
M  V30 8510 C 810.929 0.138718 2.33088 0
M  V30 8511 C 811.91 -0.705318 1.54788 0
M  V30 8512 O 813.095 -0.646821 1.83112 0
M  V30 8513 C 810.225 -0.75641 3.38963 0
M  V30 8514 C 809.179 -0.0152239 4.27997 0
M  V30 8515 C 808.505 -1.0285 5.24715 0
M  V30 8516 C 809.805 1.15226 5.09431 0
M  V30 8517 H 811.499 0.928852 2.84627 0
M  V30 8518 H 809.045 0.448111 1.3685 0
M  V30 8519 H 810.998 -1.19513 4.04097 0
M  V30 8520 H 809.722 -1.57885 2.85902 0
M  V30 8521 H 808.381 0.404061 3.64366 0
M  V30 8522 H 808.029 -1.84496 4.67943 0
M  V30 8523 H 807.729 -0.537238 5.85139 0
M  V30 8524 H 809.253 -1.46657 5.92726 0
M  V30 8525 H 810.667 0.791161 5.67815 0
M  V30 8526 H 809.064 1.57428 5.79082 0
M  V30 8527 H 810.134 1.9659 4.43261 0
M  V30 8528 N 811.477 -1.49425 0.500989 0
M  V30 8529 C 812.726 -2.01649 -0.04538 0
M  V30 8530 C 813.039 -1.38572 -1.38047 0
M  V30 8531 O 814.245 -1.82124 -2.01353 0
M  V30 8532 C 812.701 -3.5966 -0.131337 0
M  V30 8533 C 812.309 -4.3171 1.19711 0
M  V30 8534 C 814.053 -4.19828 -0.628071 0
M  V30 8535 C 811.96 -5.81579 1.07332 0
M  V30 8536 H 810.89 -0.753715 -0.0207329 0
M  V30 8537 H 813.541 -1.71962 0.640407 0
M  V30 8538 H 811.923 -3.86063 -0.881574 0
M  V30 8539 H 813.097 -4.17008 1.96064 0
M  V30 8540 H 811.412 -3.83286 1.62729 0
M  V30 8541 H 814.009 -5.2958 -0.738198 0
M  V30 8542 H 814.352 -3.83194 -1.6269 0
M  V30 8543 H 814.885 -3.97746 0.0656314 0
M  V30 8544 H 811.624 -6.22738 2.04642 0
M  V30 8545 H 811.144 -5.98774 0.350679 0
M  V30 8546 H 812.823 -6.42614 0.752047 0
M  V30 8547 N 812.955 -0.234822 -1.55841 0
M  V30 8548 C 814.366 0.270588 -1.84729 0
M  V30 8549 C 814.717 1.58494 -1.15646 0
M  V30 8550 O 813.842 2.12071 -0.430667 0
M  V30 8551 C 814.437 0.497733 -3.35124 0
M  V30 8552 C 812.996 0.947428 -3.64281 0
M  V30 8553 C 812.143 0.01787 -2.77294 0
M  V30 8554 H 815.094 -0.457691 -1.51957 0
M  V30 8555 H 815.115 1.34199 -3.56049 0
M  V30 8556 H 814.627 -0.459037 -3.85376 0
M  V30 8557 H 812.728 1.91709 -3.19497 0
M  V30 8558 H 812.841 0.812651 -4.72158 0
M  V30 8559 H 811.205 0.527071 -2.49187 0
M  V30 8560 H 811.988 -0.934056 -3.30349 0
M  V30 8561 N 814.433 1.57553 0.0384317 0
M  V30 8562 C 815.679 1.89121 0.732199 0
M  V30 8563 C 816.012 0.831404 1.75503 0
M  V30 8564 O 815.287 -0.154642 1.93884 0
M  V30 8565 C 815.57 3.31338 1.41021 0
M  V30 8566 C 815.423 4.48004 0.401532 0
M  V30 8567 C 816.742 3.72318 2.34665 0
M  V30 8568 H 813.861 0.687819 0.264715 0
M  V30 8569 H 816.503 1.89999 -0.00496279 0
M  V30 8570 H 814.653 3.3072 2.03854 0
M  V30 8571 H 816.325 4.60755 -0.224159 0
M  V30 8572 H 814.568 4.32895 -0.280092 0
M  V30 8573 H 815.239 5.44377 0.91423 0
M  V30 8574 H 817.715 3.74243 1.81883 0
M  V30 8575 H 816.591 4.72652 2.7909 0
M  V30 8576 H 816.852 3.04062 3.20934 0
M  V30 8577 N 815.911 -0.310526 1.54511 0
M  V30 8578 C 817.158 -1.04691 1.73338 0
M  V30 8579 C 817.486 -1.87584 0.514038 0
M  V30 8580 O 816.741 -1.89096 -0.504119 0
M  V30 8581 C 817.04 -1.98942 2.96912 0
M  V30 8582 C 816.706 -1.321 4.31115 0
M  V30 8583 C 815.368 -1.13603 4.67598 0
M  V30 8584 C 817.72 -0.842362 5.14348 0
M  V30 8585 C 815.048 -0.459102 5.84901 0
M  V30 8586 C 817.4 -0.179202 6.32346 0
M  V30 8587 C 816.064 0.0178111 6.67498 0
M  V30 8588 H 815.334 -0.38309 0.634289 0
M  V30 8589 H 817.981 -0.322723 1.88761 0
M  V30 8590 H 816.286 -2.77856 2.76231 0
M  V30 8591 H 817.983 -2.55972 3.08674 0
M  V30 8592 H 814.573 -1.47502 4.02419 0
M  V30 8593 H 818.757 -0.973013 4.86668 0
M  V30 8594 H 814.013 -0.295385 6.10686 0
M  V30 8595 H 818.187 0.199619 6.96114 0
M  V30 8596 H 815.814 0.544356 7.58249 0
M  V30 8597 N 817.389 -1.46805 -0.573248 0
M  V30 8598 C 818.336 -1.58084 -1.68161 0
M  V30 8599 C 819.306 -0.424636 -1.6058 0
M  V30 8600 O 820.491 -0.642623 -1.79652 0
M  V30 8601 C 817.631 -1.58601 -3.06496 0
M  V30 8602 C 816.744 -2.85023 -3.24632 0
M  V30 8603 C 815.879 -2.76981 -4.53271 0
M  V30 8604 C 814.918 -3.983 -4.64783 0
M  V30 8605 N 814.055 -3.88589 -5.84759 0
M  V30 8606 H 818.895 -2.52755 -1.57858 0
M  V30 8607 H 816.432 -1.25385 -0.769218 0
M  V30 8608 H 818.39 -1.56885 -3.86579 0
M  V30 8609 H 817.02 -0.674553 -3.15673 0
M  V30 8610 H 816.072 -2.96678 -2.38089 0
M  V30 8611 H 817.384 -3.7491 -3.29004 0
M  V30 8612 H 816.538 -2.73424 -5.41594 0
M  V30 8613 H 815.277 -1.84751 -4.51352 0
M  V30 8614 H 814.282 -4.02179 -3.74876 0
M  V30 8615 H 815.507 -4.91639 -4.68474 0
M  V30 8616 H 813.453 -2.99151 -5.83819 0
M  V30 8617 H 813.37 -4.7214 -5.90441 0
M  V30 8618 H 814.638 -3.89022 -6.75486 0
M  V30 8619 N 818.867 0.818669 -1.34668 0
M  V30 8620 C 819.815 1.95123 -1.26609 0
M  V30 8621 C 820.809 1.68611 -0.163348 0
M  V30 8622 O 822.015 1.76975 -0.328586 0
M  V30 8623 H 818.39 0.640871 -0.393431 0
M  V30 8624 H 820.361 1.99043 -2.22316 0
M  V30 8625 C 819.11 3.31697 -1.04272 0
M  V30 8626 H 818.433 3.52648 -1.8836 0
M  V30 8627 H 819.873 4.11382 -1.0267 0
M  V30 8628 C 818.332 3.35942 0.253858 0
M  V30 8629 O 818.862 3.81632 1.25378 0
M  V30 8630 N 817.068 2.89165 0.288447 0
M  V30 8631 H 816.615 2.52176 -0.525845 0
M  V30 8632 H 816.573 2.92387 1.15572 0
M  V30 8633 N 820.346 1.18468 1.03938 0
M  V30 8634 C 821.279 0.856251 2.11527 0
M  V30 8635 C 822.257 -0.182323 1.61575 0
M  V30 8636 O 823.441 -0.061 1.88401 0
M  V30 8637 C 820.568 0.279562 3.37544 0
M  V30 8638 C 819.614 1.29552 4.06348 0
M  V30 8639 S 820.447 2.85191 4.5324 0
M  V30 8640 C 821.603 2.29037 5.82489 0
M  V30 8641 H 821.836 1.76742 2.39059 0
M  V30 8642 H 819.369 1.01068 1.16725 0
M  V30 8643 H 821.327 -0.0466579 4.10473 0
M  V30 8644 H 819.988 -0.60975 3.08125 0
M  V30 8645 H 819.181 0.840922 4.96935 0
M  V30 8646 H 818.783 1.56804 3.39541 0
M  V30 8647 H 821.075 1.67376 6.565 0
M  V30 8648 H 822.018 3.17929 6.32714 0
M  V30 8649 H 822.426 1.72009 5.37655 0
M  V30 8650 N 821.824 -1.22873 0.986916 0
M  V30 8651 C 822.787 -2.2281 0.537442 0
M  V30 8652 C 823.787 -1.56331 -0.37646 0
M  V30 8653 O 824.977 -1.73376 -0.169247 0
M  V30 8654 C 822.109 -3.40195 -0.219082 0
M  V30 8655 H 823.302 -2.64089 1.42116 0
M  V30 8656 H 820.855 -1.35819 0.773488 0
M  V30 8657 H 821.59 -3.04381 -1.11905 0
M  V30 8658 H 821.375 -3.89657 0.437026 0
M  V30 8659 H 822.865 -4.14326 -0.521926 0
M  V30 8660 N 823.302 -0.75937 -1.38099 0
M  V30 8661 C 824.579 -0.243371 -1.9408 0
M  V30 8662 C 824.959 1.25942 -1.69416 0
M  V30 8663 O 824.307 2.03667 -1.03595 0
M  V30 8664 C 824.517 -0.603328 -3.43745 0
M  V30 8665 C 825.865 -0.566195 -4.20808 0
M  V30 8666 O 826.889 -0.541969 -3.52053 0
M  V30 8667 O 825.748 -0.582261 -5.43389 0
M  V30 8668 H 822.842 -0.0526825 -0.82532 0
M  V30 8669 H 825.388 -0.839884 -1.47459 0
M  V30 8670 H 824.16 -1.64098 -3.55229 0
M  V30 8671 H 823.783 0.0208887 -3.97595 0
M  V30 8672 N 824.78 1.49157 -0.508906 0
M  V30 8673 C 825.743 2.27784 0.25434 0
M  V30 8674 C 826.743 1.34132 0.88686 0
M  V30 8675 O 827.933 1.5722 0.750168 0
M  V30 8676 C 825.065 3.12347 1.36573 0
M  V30 8677 H 826.258 2.96718 -0.435714 0
M  V30 8678 H 823.811 1.54052 -0.264128 0
M  V30 8679 H 824.546 2.47997 2.08969 0
M  V30 8680 H 824.331 3.81213 0.917543 0
M  V30 8681 H 825.821 3.71712 1.90315 0
M  V30 8682 N 826.258 0.243083 1.55714 0
M  V30 8683 C 827.191 -0.698623 2.17243 0
M  V30 8684 C 828.169 -1.1756 1.12331 0
M  V30 8685 O 829.353 -1.25444 1.40699 0
M  V30 8686 C 826.48 -1.94901 2.77004 0
M  V30 8687 C 825.526 -1.61022 3.94936 0
M  V30 8688 S 826.359 -0.716173 5.30689 0
M  V30 8689 C 827.515 -1.97565 5.93901 0
M  V30 8690 H 827.748 -0.175724 2.9678 0
M  V30 8691 H 825.281 0.0275727 1.54375 0
M  V30 8692 H 827.239 -2.66687 3.12071 0
M  V30 8693 H 825.9 -2.44304 1.9742 0
M  V30 8694 H 825.093 -2.5398 4.35328 0
M  V30 8695 H 824.695 -0.972829 3.61126 0
M  V30 8696 H 826.987 -2.92333 6.11186 0
M  V30 8697 H 827.93 -1.61528 6.8943 0
M  V30 8698 H 828.338 -2.126 5.22935 0
M  V30 8699 N 827.736 -1.57571 -0.0300757 0
M  V30 8700 C 829.152 -1.54869 -0.385703 0
M  V30 8701 C 829.352 -0.969068 -1.76667 0
M  V30 8702 O 828.408 -0.589676 -2.45518 0
M  V30 8703 C 829.721 -2.99313 -0.288482 0
M  V30 8704 C 831.269 -3.10857 -0.365638 0
M  V30 8705 C 831.744 -4.5703 -0.297878 0
M  V30 8706 N 833.235 -4.61825 -0.356703 0
M  V30 8707 C 833.97 -5.72466 -0.327146 0
M  V30 8708 N 833.466 -6.92349 -0.249941 0
M  V30 8709 N 835.259 -5.60836 -0.376801 0
M  V30 8710 H 827.41 -1.936 0.87367 0
M  V30 8711 H 829.673 -0.887924 0.332106 0
M  V30 8712 H 829.379 -3.45443 0.66047 0
M  V30 8713 H 829.253 -3.61332 -1.08253 0
M  V30 8714 H 831.64 -2.64676 -1.30502 0
M  V30 8715 H 831.721 -2.51671 0.457744 0
M  V30 8716 H 831.365 -5.03879 0.637835 0
M  V30 8717 H 831.295 -5.14127 -1.13935 0
M  V30 8718 H 833.786 -3.75571 -0.418926 0
M  V30 8719 H 834.099 -7.7245 -0.23246 0
M  V30 8720 H 832.444 -6.94664 -0.216004 0
M  V30 8721 H 835.635 -4.66073 -0.435101 0
M  V30 8722 H 835.808 -6.47052 -0.350298 0
M  V30 8723 N 829.214 0.302327 -1.54673 0
M  V30 8724 C 830.161 1.37282 -1.85532 0
M  V30 8725 C 831.131 1.50437 -0.704129 0
M  V30 8726 O 832.316 1.65317 -0.952627 0
M  V30 8727 C 829.456 2.73309 -2.10704 0
M  V30 8728 C 828.569 2.68614 -3.38335 0
M  V30 8729 C 827.704 3.96626 -3.53357 0
M  V30 8730 C 826.743 3.86324 -4.74784 0
M  V30 8731 N 825.88 5.06109 -4.86619 0
M  V30 8732 H 830.72 1.10265 -2.76849 0
M  V30 8733 H 828.257 0.533346 -1.37091 0
M  V30 8734 H 830.215 3.52414 -2.23294 0
M  V30 8735 H 828.845 2.98589 -1.22656 0
M  V30 8736 H 827.897 1.81381 -3.34373 0
M  V30 8737 H 829.209 2.56891 -4.27561 0
M  V30 8738 H 828.363 4.84168 -3.65604 0
M  V30 8739 H 827.102 4.11182 -2.62261 0
M  V30 8740 H 826.107 2.97166 -4.62572 0
M  V30 8741 H 827.332 3.73315 -5.67286 0
M  V30 8742 H 825.278 5.2113 -3.98446 0
M  V30 8743 H 825.195 4.96804 -5.69844 0
M  V30 8744 H 826.463 5.95306 -5.03221 0
M  V30 8745 N 830.692 1.47107 0.565454 0
M  V30 8746 C 831.642 1.55384 1.66852 0
M  V30 8747 C 832.626 0.413369 1.55499 0
M  V30 8748 O 833.818 0.66281 1.64121 0
M  V30 8749 C 830.947 1.5634 3.05635 0
M  V30 8750 C 830.033 2.75742 3.22222 0
M  V30 8751 N 830.424 4.00515 3.08903 0
M  V30 8752 C 828.722 2.7233 3.53203 0
M  V30 8753 C 829.423 4.80435 3.27959 0
M  V30 8754 N 828.399 4.1261 3.53913 0
M  V30 8755 H 832.201 2.49635 1.55111 0
M  V30 8756 H 829.715 1.42986 0.769982 0
M  V30 8757 H 831.712 1.60359 3.84825 0
M  V30 8758 H 830.372 0.631785 3.18494 0
M  V30 8759 H 831.383 4.31501 2.86404 0
M  V30 8760 H 828.06 1.8827 3.7264 0
M  V30 8761 H 829.45 5.89334 3.22699 0
M  V30 8762 N 832.17 -0.811516 1.35101 0
M  V30 8763 C 833.581 -1.38515 1.25182 0
M  V30 8764 C 833.932 -1.95846 -0.117883 0
M  V30 8765 O 833.057 -1.90925 -1.01866 0
M  V30 8766 C 833.652 -2.51813 2.26662 0
M  V30 8767 C 832.211 -3.05052 2.20499 0
M  V30 8768 C 831.358 -1.77987 2.12641 0
M  V30 8769 H 834.309 -0.614959 1.46301 0
M  V30 8770 H 834.33 -3.30228 1.89023 0
M  V30 8771 H 833.842 -2.10057 3.2634 0
M  V30 8772 H 831.943 -3.51285 1.24215 0
M  V30 8773 H 832.056 -3.63368 3.1225 0
M  V30 8774 H 830.42 -1.99342 1.5854 0
M  V30 8775 H 831.203 -1.38389 3.14171 0
M  V30 8776 N 833.648 -1.19017 -1.03309 0
M  V30 8777 C 834.558 -0.939303 -2.14975 0
M  V30 8778 C 835.574 0.0992359 -1.73717 0
M  V30 8779 O 836.75 -0.0844362 -2.01223 0
M  V30 8780 C 833.815 -0.476712 -3.43407 0
M  V30 8781 C 832.876 -1.58413 -3.99003 0
M  V30 8782 C 832.109 -1.14352 -5.21305 0
M  V30 8783 O 832.332 -0.00534408 -5.704 0
M  V30 8784 O 831.266 -1.94436 -5.6963 0
M  V30 8785 H 835.092 -1.87386 -2.38998 0
M  V30 8786 H 832.677 -0.972635 -1.13403 0
M  V30 8787 H 834.559 -0.22718 -4.20787 0
M  V30 8788 H 833.234 0.429455 -3.20839 0
M  V30 8789 H 832.141 -1.88777 -3.22977 0
M  V30 8790 H 833.474 -2.4667 -4.25928 0
M  V30 8791 N 835.127 1.22348 -0.993418 0
M  V30 8792 C 836.373 1.91393 -0.67056 0
M  V30 8793 C 836.706 1.77163 0.795428 0
M  V30 8794 O 835.981 1.14084 1.57528 0
M  V30 8795 C 836.264 3.43589 -1.0779 0
M  V30 8796 C 836.117 3.66867 -2.60248 0
M  V30 8797 C 837.436 4.35545 -0.631527 0
M  V30 8798 H 834.555 0.695057 -0.24508 0
M  V30 8799 H 837.197 1.44213 -1.23703 0
M  V30 8800 H 835.347 3.83903 -0.595902 0
M  V30 8801 H 837.019 3.35954 -3.16121 0
M  V30 8802 H 835.262 3.1113 -3.02293 0
M  V30 8803 H 835.933 4.73457 -2.838 0
M  V30 8804 H 838.409 4.0275 -1.04554 0
M  V30 8805 H 837.285 5.40707 -0.944831 0
M  V30 8806 H 837.546 4.39618 0.467779 0
M  V30 8807 N 836.605 0.766683 1.37694 0
M  V30 8808 C 837.882 0.25366 1.93948 0
M  V30 8809 C 838.262 -1.25041 1.70082 0
M  V30 8810 O 837.61 -2.03115 1.04674 0
M  V30 8811 C 837.82 0.621549 3.43421 0
M  V30 8812 C 839.168 0.588504 4.20502 0
M  V30 8813 O 840.192 0.560632 3.5176 0
M  V30 8814 O 839.051 0.61107 5.43073 0
M  V30 8815 H 836.145 0.0570586 0.825029 0
M  V30 8816 H 838.691 0.847693 1.47011 0
M  V30 8817 H 837.463 1.65979 3.54354 0
M  V30 8818 H 837.086 0.000197027 3.976 0
M  V30 8819 N 838.083 -1.48885 0.516809 0
M  V30 8820 C 839.329 -2.02788 -0.0220928 0
M  V30 8821 C 839.662 -1.39433 -1.35175 0
M  V30 8822 O 838.937 -0.535459 -1.86984 0
M  V30 8823 C 839.22 -3.59753 -0.158012 0
M  V30 8824 C 839.073 -4.33611 1.19588 0
M  V30 8825 C 840.392 -4.30984 -0.891133 0
M  V30 8826 H 837.511 -0.736971 -0.00655488 0
M  V30 8827 H 840.153 -1.77746 0.671287 0
M  V30 8828 H 838.303 -3.8122 -0.748568 0
M  V30 8829 H 839.975 -4.23598 1.82653 0
M  V30 8830 H 838.218 -3.95547 1.78116 0
M  V30 8831 H 838.889 -5.41846 1.05391 0
M  V30 8832 H 841.365 -4.14267 -0.39012 0
M  V30 8833 H 840.241 -5.40527 -0.955107 0
M  V30 8834 H 840.502 -3.97336 -1.93847 0
M  V30 8835 N 839.561 -0.251338 -1.55583 0
M  V30 8836 C 840.491 0.640437 -2.24545 0
M  V30 8837 C 841.472 1.17781 -1.22726 0
M  V30 8838 O 842.657 1.21633 -1.5139 0
M  V30 8839 C 839.787 1.8355 -2.94834 0
M  V30 8840 C 838.741 1.4307 -4.03379 0
M  V30 8841 C 838.067 2.70695 -4.61116 0
M  V30 8842 C 839.367 0.59848 -5.1886 0
M  V30 8843 H 841.061 0.0653772 -2.99329 0
M  V30 8844 H 838.607 0.0300042 -1.43969 0
M  V30 8845 H 840.56 2.46505 -3.4178 0
M  V30 8846 H 839.284 2.43601 -2.17546 0
M  V30 8847 H 837.943 0.824474 -3.57209 0
M  V30 8848 H 837.591 3.28954 -3.80524 0
M  V30 8849 H 837.291 2.44332 -5.34393 0
M  V30 8850 H 838.815 3.34541 -5.10798 0
M  V30 8851 H 840.229 1.13244 -5.62004 0
M  V30 8852 H 838.626 0.430728 -5.98552 0
M  V30 8853 H 839.696 -0.38829 -4.83343 0
M  V30 8854 N 841.039 1.57585 0.0217189 0
M  V30 8855 C 842.288 1.88786 0.710125 0
M  V30 8856 C 842.601 0.850819 1.76126 0
M  V30 8857 O 843.807 1.0523 2.50277 0
M  V30 8858 C 842.263 3.3505 1.31413 0
M  V30 8859 C 841.871 4.47001 0.298959 0
M  V30 8860 C 843.615 3.7539 1.98199 0
M  V30 8861 C 841.522 5.8433 0.911727 0
M  V30 8862 H 840.452 0.704388 0.268986 0
M  V30 8863 H 843.103 1.83466 -0.0352638 0
M  V30 8864 H 841.485 3.35138 2.10947 0
M  V30 8865 H 842.659 4.58395 -0.470203 0
M  V30 8866 H 840.974 4.15542 -0.267222 0
M  V30 8867 H 843.571 4.75314 2.4491 0
M  V30 8868 H 843.914 3.07766 2.80331 0
M  V30 8869 H 844.447 3.77508 1.2543 0
M  V30 8870 H 841.186 6.55372 0.129659 0
M  V30 8871 H 840.706 5.76643 1.65056 0
M  V30 8872 H 842.385 6.31295 1.41688 0
M  V30 8873 N 842.517 -0.29412 1.54831 0
M  V30 8874 C 843.465 -1.38296 1.87021 0
M  V30 8875 C 844.459 -1.5216 0.744557 0
M  V30 8876 O 845.665 -1.54196 0.92864 0
M  V30 8877 H 842.04 -0.462088 0.593278 0
M  V30 8878 H 844.011 -1.08386 2.7802 0
M  V30 8879 C 842.76 -2.74024 2.14023 0
M  V30 8880 H 842.083 -2.6414 3.00117 0
M  V30 8881 H 843.523 -3.49205 2.40482 0
M  V30 8882 C 841.982 -3.23492 0.940982 0
M  V30 8883 O 842.512 -4.01361 0.164937 0
M  V30 8884 N 840.718 -2.80902 0.744467 0
M  V30 8885 H 840.265 -2.17694 1.37721 0
M  V30 8886 H 840.223 -3.14349 -0.0563652 0
M  V30 8887 N 843.995 -1.47404 -0.557645 0
M  V30 8888 C 845.242 -1.54007 -1.31484 0
M  V30 8889 C 845.57 -0.202162 -1.93447 0
M  V30 8890 O 844.825 0.804901 -1.78381 0
M  V30 8891 C 845.124 -2.6061 -2.44575 0
M  V30 8892 C 844.79 -4.03896 -2.00446 0
M  V30 8893 C 843.452 -4.42901 -1.88127 0
M  V30 8894 C 845.804 -4.93804 -1.66754 0
M  V30 8895 C 843.132 -5.6965 -1.40411 0
M  V30 8896 C 845.484 -6.21016 -1.20509 0
M  V30 8897 C 844.148 -6.58903 -1.06786 0
M  V30 8898 H 843.418 -0.563552 -0.481134 0
M  V30 8899 H 846.065 -1.81001 -0.625375 0
M  V30 8900 H 844.37 -2.27371 -3.19076 0
M  V30 8901 H 846.067 -2.62941 -3.02759 0
M  V30 8902 H 842.657 -3.73077 -2.10977 0
M  V30 8903 H 846.841 -4.64369 -1.75144 0
M  V30 8904 H 842.097 -5.97755 -1.2845 0
M  V30 8905 H 846.271 -6.90095 -0.935001 0
M  V30 8906 H 843.898 -7.57008 -0.695891 0
M  V30 8907 N 845.473 0.80434 -1.35529 0
M  V30 8908 C 846.436 1.89788 -1.28503 0
M  V30 8909 C 847.436 1.59601 -0.195983 0
M  V30 8910 O 848.626 1.68292 -0.449827 0
M  V30 8911 C 845.758 3.26255 -0.98847 0
M  V30 8912 H 846.951 1.97436 -2.25741 0
M  V30 8913 H 844.504 1.00046 -1.20086 0
M  V30 8914 H 845.239 3.24294 -0.0200541 0
M  V30 8915 H 845.024 3.49551 -1.77641 0
M  V30 8916 H 846.514 4.06298 -0.964975 0
M  V30 8917 N 846.951 1.19563 1.02676 0
M  V30 8918 C 848.176 1.02556 1.80269 0
M  V30 8919 C 848.601 -0.421056 1.83327 0
M  V30 8920 O 847.959 -1.30279 1.26084 0
M  V30 8921 C 848.007 1.60165 3.23078 0
M  V30 8922 O 847.111 0.832404 4.03912 0
M  V30 8923 H 846.452 0.362354 0.556413 0
M  V30 8924 H 848.982 1.58633 1.29216 0
M  V30 8925 H 848.992 1.6347 3.7382 0
M  V30 8926 H 847.667 2.65454 3.20167 0
M  V30 8927 H 846.244 0.872768 3.62543 0
M  V30 8928 N 848.429 -1.21819 0.999893 0
M  V30 8929 C 849.359 -2.26282 0.576096 0
M  V30 8930 C 850.34 -1.65317 -0.400537 0
M  V30 8931 O 851.525 -1.92028 -0.28964 0
M  V30 8932 C 848.655 -3.47147 -0.103145 0
M  V30 8933 C 847.609 -4.20594 0.792745 0
M  V30 8934 C 846.935 -5.34696 -0.0198026 0
M  V30 8935 C 848.235 -4.78533 2.09293 0
M  V30 8936 H 849.929 -2.61984 1.4493 0
M  V30 8937 H 847.475 -1.25935 0.698316 0
M  V30 8938 H 849.428 -4.1939 -0.411068 0
M  V30 8939 H 848.152 -3.1056 -1.01094 0
M  V30 8940 H 846.811 -3.50194 1.08442 0
M  V30 8941 H 846.459 -4.94352 -0.928729 0
M  V30 8942 H 846.159 -5.84764 0.576661 0
M  V30 8943 H 847.683 -6.09752 -0.321659 0
M  V30 8944 H 849.097 -5.42682 1.8485 0
M  V30 8945 H 847.494 -5.38968 2.63881 0
M  V30 8946 H 848.564 -3.98197 2.76708 0
M  V30 8947 N 849.908 -0.773975 -1.37286 0
M  V30 8948 C 851.324 -0.45386 -1.53011 0
M  V30 8949 C 851.524 1.03018 -1.73175 0
M  V30 8950 O 850.58 1.81597 -1.75438 0
M  V30 8951 C 851.893 -1.27087 -2.72524 0
M  V30 8952 C 853.441 -1.26299 -2.86387 0
M  V30 8953 C 853.916 -2.0634 -4.08886 0
M  V30 8954 N 855.407 -2.03706 -4.16003 0
M  V30 8955 C 856.142 -2.62418 -5.09828 0
M  V30 8956 N 855.638 -3.29926 -6.09197 0
M  V30 8957 N 857.431 -2.52236 -5.02328 0
M  V30 8958 H 849.582 -1.73551 -1.22449 0
M  V30 8959 H 851.845 -0.736874 -0.596423 0
M  V30 8960 H 851.551 -2.32263 -2.64096 0
M  V30 8961 H 851.425 -0.90157 -3.66267 0
M  V30 8962 H 853.812 -0.219213 -2.94285 0
M  V30 8963 H 853.893 -1.67195 -1.93596 0
M  V30 8964 H 853.537 -3.10741 -4.01749 0
M  V30 8965 H 853.467 -1.62825 -5.00795 0
M  V30 8966 H 855.958 -1.54559 -3.44848 0
M  V30 8967 H 856.271 -3.72095 -6.77322 0
M  V30 8968 H 854.616 -3.34026 -6.09469 0
M  V30 8969 H 857.807 -1.99108 -4.23643 0
M  V30 8970 H 857.98 -2.98286 -5.75265 0
M  V30 8971 N 851.386 1.48609 -0.524698 0
M  V30 8972 C 852.611 2.07398 0.00952139 0
M  V30 8973 C 853.036 1.37939 1.27884 0
M  V30 8974 O 852.394 0.443633 1.75788 0
M  V30 8975 C 852.442 3.59916 0.221956 0
M  V30 8976 O 851.546 3.91647 1.29175 0
M  V30 8977 H 850.887 0.662981 -0.0367729 0
M  V30 8978 H 853.417 1.91092 -0.7311 0
M  V30 8979 H 853.427 4.05552 0.446236 0
M  V30 8980 H 852.102 4.09876 -0.705306 0
M  V30 8981 H 850.679 3.57796 1.05055 0
M  V30 8982 N 852.864 0.259585 1.55447 0
M  V30 8983 C 853.827 -0.621359 2.20617 0
M  V30 8984 C 854.827 -1.09317 1.17925 0
M  V30 8985 O 856.017 -0.995842 1.42929 0
M  V30 8986 C 853.149 -1.85546 2.85982 0
M  V30 8987 H 854.342 -0.0525833 2.99854 0
M  V30 8988 H 851.895 0.0101055 1.56297 0
M  V30 8989 H 852.63 -2.46515 2.10715 0
M  V30 8990 H 852.415 -1.52523 3.61219 0
M  V30 8991 H 853.905 -2.48227 3.35817 0
M  V30 8992 N 854.342 -1.57594 -0.0133615 0
M  V30 8993 C 855.572 -1.93969 -0.711295 0
M  V30 8994 C 855.98 -0.859084 -1.68572 0
M  V30 8995 O 855.323 0.171842 -1.82894 0
M  V30 8996 C 855.385 -3.2625 -1.51001 0
M  V30 8997 C 855.049 -4.51628 -0.698645 0
M  V30 8998 C 856.046 -5.19899 0.00791185 0
M  V30 8999 C 853.731 -4.98095 -0.648553 0
M  V30 9000 C 855.725 -6.32928 0.753691 0
M  V30 9001 C 853.412 -6.11017 0.10096 0
M  V30 9002 C 854.41 -6.78289 0.800828 0
M  V30 9003 O 854.098 -7.89048 1.53814 0
M  V30 9004 H 853.83 -0.6445 -0.203951 0
M  V30 9005 H 856.384 -2.05378 0.0298267 0
M  V30 9006 H 854.614 -3.11211 -2.29531 0
M  V30 9007 H 856.303 -3.47835 -2.09202 0
M  V30 9008 H 857.069 -4.84995 -0.0217192 0
M  V30 9009 H 852.948 -4.45568 -1.18282 0
M  V30 9010 H 856.492 -6.85371 1.3005 0
M  V30 9011 H 852.389 -6.45364 0.132459 0
M  V30 9012 H 853.157 -8.05492 1.45345 0
M  V30 9013 N 855.82 0.285905 -1.54985 0
M  V30 9014 C 857.097 1.0397 -1.65679 0
M  V30 9015 C 857.477 2.04725 -0.514851 0
M  V30 9016 O 856.825 2.23257 0.486663 0
M  V30 9017 C 857.035 1.70807 -3.04345 0
M  V30 9018 C 858.383 2.22447 -3.61666 0
M  V30 9019 O 859.407 1.80815 -3.06895 0
M  V30 9020 O 858.266 2.98773 -4.57599 0
M  V30 9021 H 855.36 0.481473 -0.672394 0
M  V30 9022 H 857.906 0.282789 -1.67327 0
M  V30 9023 H 856.678 0.977271 -3.789 0
M  V30 9024 H 856.301 2.53217 -3.06541 0
M  V30 9025 N 857.298 1.47698 0.54982 0
M  V30 9026 C 858.523 1.58579 1.33669 0
M  V30 9027 C 858.948 0.239049 1.86575 0
M  V30 9028 O 858.306 -0.786256 1.63364 0
M  V30 9029 C 858.354 2.62029 2.47736 0
M  V30 9030 O 857.458 2.17813 3.50188 0
M  V30 9031 H 856.799 0.532447 0.396732 0
M  V30 9032 H 859.329 1.93536 0.6637 0
M  V30 9033 H 859.339 2.82682 2.94202 0
M  V30 9034 H 858.014 3.59812 2.08586 0
M  V30 9035 H 856.591 2.07291 3.09976 0
M  V30 9036 N 858.776 -0.797141 1.35954 0
M  V30 9037 C 860.004 -1.5858 1.32891 0
M  V30 9038 C 860.419 -1.88578 -0.0915564 0
M  V30 9039 O 859.776 -1.49532 -1.04625 0
M  V30 9040 C 859.827 -2.91143 2.14284 0
M  V30 9041 O 859.548 -2.62442 3.50793 0
M  V30 9042 C 861.049 -3.85476 2.18914 0
M  V30 9043 H 858.269 -0.492111 0.456144 0
M  V30 9044 H 860.813 -0.98994 1.78943 0
M  V30 9045 H 858.968 -3.47219 1.71807 0
M  V30 9046 H 859.382 -3.4715 3.93175 0
M  V30 9047 H 860.856 -4.75574 2.80238 0
M  V30 9048 H 861.333 -4.22758 1.19047 0
M  V30 9049 H 861.939 -3.35334 2.61593 0
M  V30 9050 N 860.254 -1.20106 -1.0204 0
M  V30 9051 C 861.187 -0.889795 -2.10138 0
M  V30 9052 C 862.165 0.156595 -1.61844 0
M  V30 9053 O 863.349 0.0310192 -1.88474 0
M  V30 9054 C 860.476 -0.333227 -3.37057 0
M  V30 9055 C 859.522 -1.36001 -4.04235 0
M  V30 9056 S 860.355 -2.92366 -4.48645 0
M  V30 9057 C 861.511 -2.38274 -5.78771 0
M  V30 9058 H 861.744 -1.80523 -2.36217 0
M  V30 9059 H 859.277 -1.02912 -1.15102 0
M  V30 9060 H 861.235 -0.0186507 -4.10496 0
M  V30 9061 H 859.896 0.560652 -3.09056 0
M  V30 9062 H 859.089 -0.919874 -4.95534 0
M  V30 9063 H 858.691 -1.62186 -3.37004 0
M  V30 9064 H 860.983 -1.77799 -6.53754 0
M  V30 9065 H 861.926 -3.27955 -6.27576 0
M  V30 9066 H 862.334 -1.8054 -5.34851 0
M  V30 9067 N 861.732 1.21287 -1.00634 0
M  V30 9068 C 862.642 2.27388 -0.577226 0
M  V30 9069 C 863.658 1.69791 0.380399 0
M  V30 9070 O 864.834 1.99918 0.2439 0
M  V30 9071 C 861.899 3.46588 0.0880532 0
M  V30 9072 C 860.96 4.19453 -0.914222 0
M  V30 9073 C 860.193 5.32962 -0.280596 0
M  V30 9074 O 860.416 5.62895 0.922265 0
M  V30 9075 O 859.35 5.93666 -0.992196 0
M  V30 9076 H 863.176 2.66289 -1.46028 0
M  V30 9077 H 860.761 1.2771 -0.775283 0
M  V30 9078 H 862.643 4.18881 0.460094 0
M  V30 9079 H 861.318 3.09585 0.945461 0
M  V30 9080 H 860.225 3.49376 -1.33744 0
M  V30 9081 H 861.558 4.6037 -1.74126 0
M  V30 9082 N 863.21 0.781244 1.36873 0
M  V30 9083 C 864.438 0.361566 2.03716 0
M  V30 9084 C 864.853 -1.01937 1.58916 0
M  V30 9085 O 864.21 -1.65237 0.774783 0
M  V30 9086 C 864.261 0.406391 3.59208 0
M  V30 9087 O 863.982 1.73286 4.02372 0
M  V30 9088 C 865.483 -0.0236894 4.43294 0
M  V30 9089 H 862.703 0.150133 0.653988 0
M  V30 9090 H 865.247 1.05781 1.75016 0
M  V30 9091 H 863.402 -0.241364 3.86647 0
M  V30 9092 H 863.816 1.67804 4.96933 0
M  V30 9093 H 865.29 0.0588205 5.51969 0
M  V30 9094 H 865.767 -1.07529 4.25833 0
M  V30 9095 H 866.373 0.59624 4.211 0
M  V30 9096 N 864.689 -1.48329 0.532571 0
M  V30 9097 C 865.622 -2.26524 -0.2761 0
M  V30 9098 C 866.6 -1.32498 -0.942496 0
M  V30 9099 O 867.784 -1.61844 -0.966376 0
M  V30 9100 C 864.911 -3.08808 -1.39124 0
M  V30 9101 C 863.957 -4.18227 -0.835984 0
M  V30 9102 S 864.79 -5.34669 0.298186 0
M  V30 9103 C 865.946 -6.20514 -0.81937 0
M  V30 9104 H 866.179 -2.94764 0.387502 0
M  V30 9105 H 863.712 -1.51081 0.318407 0
M  V30 9106 H 865.67 -3.56792 -2.03002 0
M  V30 9107 H 864.331 -2.39976 -2.02658 0
M  V30 9108 H 863.524 -4.75435 -1.67264 0
M  V30 9109 H 863.126 -3.72996 -0.27385 0
M  V30 9110 H 865.418 -6.55371 -1.7174 0
M  V30 9111 H 866.361 -7.07525 -0.285199 0
M  V30 9112 H 866.769 -5.5366 -1.10094 0
M  V30 9113 N 866.167 -0.267825 -1.55308 0
M  V30 9114 C 867.115 0.638848 -2.23655 0
M  V30 9115 C 868.109 1.16363 -1.2311 0
M  V30 9116 O 869.315 1.1181 -1.41062 0
M  V30 9117 H 865.69 0.224551 -0.717691 0
M  V30 9118 H 867.661 0.0394809 -2.98374 0
M  V30 9119 C 866.41 1.8151 -2.96562 0
M  V30 9120 H 865.733 1.42048 -3.73715 0
M  V30 9121 H 867.173 2.42629 -3.47717 0
M  V30 9122 C 865.632 2.69911 -2.01618 0
M  V30 9123 O 866.162 3.70058 -1.56268 0
M  V30 9124 N 864.368 2.36924 -1.68272 0
M  V30 9125 H 863.915 1.55533 -2.05347 0
M  V30 9126 H 863.873 2.96343 -1.05016 0
M  V30 9127 N 867.645 1.57599 0.00500368 0
M  V30 9128 C 868.875 1.94344 0.700998 0
M  V30 9129 C 869.283 0.868011 1.68114 0
M  V30 9130 O 868.626 -0.16214 1.82983 0
M  V30 9131 C 868.688 3.27046 1.49268 0
M  V30 9132 C 868.352 4.51992 0.674684 0
M  V30 9133 C 869.349 5.19888 -0.0354833 0
M  V30 9134 C 867.034 4.98432 0.622129 0
M  V30 9135 C 869.028 6.3252 -0.787246 0
M  V30 9136 C 866.715 6.10954 -0.133362 0
M  V30 9137 C 867.713 6.77855 -0.836788 0
M  V30 9138 O 867.401 7.88221 -1.57996 0
M  V30 9139 H 867.133 0.645572 0.20053 0
M  V30 9140 H 869.687 2.0536 -0.040718 0
M  V30 9141 H 867.917 3.12424 2.27877 0
M  V30 9142 H 869.606 3.4894 2.07355 0
M  V30 9143 H 870.372 4.85 -0.00400159 0
M  V30 9144 H 866.251 4.46189 1.15917 0
M  V30 9145 H 869.795 6.84671 -1.33683 0
M  V30 9146 H 865.692 6.45285 -0.166682 0
M  V30 9147 H 866.46 8.0471 -1.49615 0
M  V30 9148 N 869.123 -0.277682 1.55134 0
M  V30 9149 C 870.086 -1.32635 1.86924 0
M  V30 9150 C 871.086 -1.42578 0.743507 0
M  V30 9151 O 872.276 -1.4181 1.01171 0
M  V30 9152 C 869.408 -2.70832 2.07034 0
M  V30 9153 H 870.601 -1.0568 2.80663 0
M  V30 9154 H 868.154 -0.515517 1.47554 0
M  V30 9155 H 868.889 -3.02974 1.15661 0
M  V30 9156 H 868.674 -2.65001 2.88993 0
M  V30 9157 H 870.164 -3.46611 2.32918 0
M  V30 9158 N 870.601 -1.47988 -0.541979 0
M  V30 9159 C 871.533 -1.5769 -1.66332 0
M  V30 9160 C 872.546 -0.461994 -1.56107 0
M  V30 9161 O 873.735 -0.732306 -1.62787 0
M  V30 9162 C 870.835 -1.47939 -3.04905 0
M  V30 9163 C 870.008 -2.74263 -3.40733 0
M  V30 9164 C 869.067 -2.58133 -4.58534 0
M  V30 9165 O 868.093 -3.31991 -4.62354 0
M  V30 9166 N 869.295 -1.6696 -5.55972 0
M  V30 9167 H 872.06 -2.54389 -1.5845 0
M  V30 9168 H 869.621 -1.4456 -0.728979 0
M  V30 9169 H 871.613 -1.34861 -3.81569 0
M  V30 9170 H 870.183 -0.592626 -3.06931 0
M  V30 9171 H 869.403 -3.01992 -2.53366 0
M  V30 9172 H 870.691 -3.58094 -3.6145 0
M  V30 9173 H 870.089 -1.06134 -5.55655 0
M  V30 9174 H 868.646 -1.59826 -6.31901 0
M  V30 9175 N 872.079 0.78992 -1.36375 0
M  V30 9176 C 873.328 1.54296 -1.29906 0
M  V30 9177 C 873.641 1.95234 0.119651 0
M  V30 9178 O 874.847 2.69762 0.306708 0
M  V30 9179 C 873.303 2.78533 -2.27919 0
M  V30 9180 C 872.911 2.44767 -3.75224 0
M  V30 9181 C 874.655 3.56516 -2.30427 0
M  V30 9182 C 872.562 3.65397 -4.65015 0
M  V30 9183 H 871.492 0.579214 -0.482729 0
M  V30 9184 H 874.143 0.866845 -1.61735 0
M  V30 9185 H 872.525 3.47941 -1.89084 0
M  V30 9186 H 873.699 1.83259 -4.22792 0
M  V30 9187 H 872.014 1.79996 -3.75487 0
M  V30 9188 H 874.611 4.46143 -2.94722 0
M  V30 9189 H 874.954 3.95063 -1.31266 0
M  V30 9190 H 875.487 2.94087 -2.67876 0
M  V30 9191 H 872.226 3.31946 -5.65236 0
M  V30 9192 H 871.746 4.26072 -4.22164 0
M  V30 9193 H 873.425 4.32431 -4.81261 0
M  V30 9194 N 873.557 1.20646 1.01402 0
M  V30 9195 C 874.973 0.961866 1.27359 0
M  V30 9196 C 875.173 -0.357083 1.98311 0
M  V30 9197 O 874.229 -1.08498 2.28001 0
M  V30 9198 C 875.542 2.14627 2.10609 0
M  V30 9199 C 877.09 2.18753 2.23866 0
M  V30 9200 C 877.565 3.36686 3.10494 0
M  V30 9201 N 879.056 3.36716 3.18083 0
M  V30 9202 C 879.791 4.24615 3.85343 0
M  V30 9203 N 879.287 5.22697 4.54708 0
M  V30 9204 N 881.08 4.12449 3.81893 0
M  V30 9205 H 873.231 2.05481 0.537721 0
M  V30 9206 H 875.494 0.899292 0.299963 0
M  V30 9207 H 875.2 3.10159 1.65814 0
M  V30 9208 H 875.074 2.12935 3.11349 0
M  V30 9209 H 877.461 1.23782 2.67885 0
M  V30 9210 H 877.542 2.24492 1.22626 0
M  V30 9211 H 877.186 4.31945 2.67181 0
M  V30 9212 H 877.116 3.28185 4.11828 0
M  V30 9213 H 879.607 2.65728 2.68695 0
M  V30 9214 H 879.92 5.86087 5.03708 0
M  V30 9215 H 878.265 5.26631 4.53525 0
M  V30 9216 H 881.456 3.35091 3.26851 0
M  V30 9217 H 881.629 4.81162 4.34035 0
M  V30 9218 N 875.035 -1.20752 1.01276 0
M  V30 9219 C 876.263 -1.94006 0.718976 0
M  V30 9220 C 876.678 -1.74544 -0.719711 0
M  V30 9221 O 876.035 -1.05697 -1.48776 0
M  V30 9222 C 876.086 -3.46208 1.04031 0
M  V30 9223 O 875.807 -3.65031 2.42248 0
M  V30 9224 C 877.308 -4.36614 0.767032 0
M  V30 9225 H 874.528 -0.616743 0.264327 0
M  V30 9226 H 877.072 -1.53352 1.3529 0
M  V30 9227 H 875.227 -3.84756 0.451852 0
M  V30 9228 H 875.641 -4.59054 2.53712 0
M  V30 9229 H 877.115 -5.42076 1.04198 0
M  V30 9230 H 877.592 -4.38182 -0.298851 0
M  V30 9231 H 878.198 -4.03723 1.33746 0
M  V30 9232 N 876.513 -0.788492 -1.36457 0
M  V30 9233 C 877.762 -0.357052 -1.98515 0
M  V30 9234 C 878.075 1.0769 -1.63285 0
M  V30 9235 O 879.281 1.61057 -2.1857 0
M  V30 9236 C 877.737 -0.587449 -3.55073 0
M  V30 9237 C 877.345 -2.03276 -3.99228 0
M  V30 9238 C 879.089 -0.220468 -4.23927 0
M  V30 9239 C 876.996 -2.20987 -5.48561 0
M  V30 9240 H 875.926 -0.129762 -0.74275 0
M  V30 9241 H 878.577 -0.969995 -1.55767 0
M  V30 9242 H 876.959 0.0951918 -3.95886 0
M  V30 9243 H 878.133 -2.75173 -3.69617 0
M  V30 9244 H 876.448 -2.3579 -3.43208 0
M  V30 9245 H 879.045 -0.331085 -5.33674 0
M  V30 9246 H 879.388 0.831306 -4.07915 0
M  V30 9247 H 879.921 -0.856309 -3.88474 0
M  V30 9248 H 876.66 -3.24543 -5.69519 0
M  V30 9249 H 876.18 -1.53594 -5.79801 0
M  V30 9250 H 877.859 -2.01656 -6.14771 0
M  V30 9251 N 877.991 1.48044 -0.54043 0
M  V30 9252 C 878.954 2.28273 0.205966 0
M  V30 9253 C 879.954 1.35983 0.858209 0
M  V30 9254 O 881.144 1.58776 0.716651 0
M  V30 9255 C 878.276 3.15174 1.29917 0
M  V30 9256 H 879.469 2.95727 -0.498555 0
M  V30 9257 H 877.022 1.53457 -0.296745 0
M  V30 9258 H 877.757 2.52374 2.03661 0
M  V30 9259 H 877.542 3.83074 0.836475 0
M  V30 9260 H 879.032 3.75666 1.82387 0
M  V30 9261 N 879.47 0.276058 1.55163 0
M  V30 9262 C 880.719 -0.341098 1.98795 0
M  V30 9263 C 881.032 -1.56905 1.16791 0
M  V30 9264 O 882.238 -2.25922 1.50571 0
M  V30 9265 C 880.694 -0.658231 3.5383 0
M  V30 9266 C 880.302 0.549972 4.44611 0
M  V30 9267 C 882.046 -1.23796 4.06048 0
M  V30 9268 C 879.953 0.207373 5.91036 0
M  V30 9269 H 878.883 -0.131224 0.742493 0
M  V30 9270 H 881.534 0.380858 1.79504 0
M  V30 9271 H 879.916 -1.43911 3.68925 0
M  V30 9272 H 881.09 1.32681 4.41285 0
M  V30 9273 H 879.405 1.04661 4.03032 0
M  V30 9274 H 882.002 -1.50811 5.12991 0
M  V30 9275 H 882.345 -2.17214 3.55139 0
M  V30 9276 H 882.878 -0.519345 3.94395 0
M  V30 9277 H 879.617 1.10946 6.46043 0
M  V30 9278 H 879.137 -0.532687 5.9743 0
M  V30 9279 H 880.816 -0.200072 6.46691 0
M  V30 9280 N 880.948 -1.576 0.00335426 0
M  V30 9281 C 882.197 -1.89892 -0.680001 0
M  V30 9282 C 882.51 -0.878731 -1.7475 0
M  V30 9283 O 883.716 -1.09199 -2.48572 0
M  V30 9284 C 882.172 -3.37098 -1.26066 0
M  V30 9285 C 881.78 -4.4742 -0.227807 0
M  V30 9286 C 883.524 -3.78495 -1.92202 0
M  V30 9287 C 881.431 -5.85706 -0.81865 0
M  V30 9288 H 880.361 -0.708578 -0.257746 0
M  V30 9289 H 883.012 -1.83387 0.0644472 0
M  V30 9290 H 881.394 -3.38451 -2.05589 0
M  V30 9291 H 882.568 -4.57589 0.54307 0
M  V30 9292 H 880.883 -4.15064 0.333297 0
M  V30 9293 H 883.48 -4.7915 -2.37318 0
M  V30 9294 H 883.823 -3.12187 -2.75399 0
M  V30 9295 H 884.356 -3.79456 -1.19408 0
M  V30 9296 H 881.095 -6.55495 -0.0253787 0
M  V30 9297 H 880.615 -5.79196 -1.55861 0
M  V30 9298 H 882.294 -6.33469 -1.31627 0
M  V30 9299 N 882.426 0.269451 -1.5528 0
M  V30 9300 C 883.389 1.31642 -1.87625 0
M  V30 9301 C 884.389 1.42182 -0.751058 0
M  V30 9302 O 885.579 1.41272 -1.01921 0
M  V30 9303 C 882.711 2.6973 -2.08467 0
M  V30 9304 H 883.904 1.0419 -2.81219 0
M  V30 9305 H 881.457 0.507685 -1.47825 0
M  V30 9306 H 882.192 3.02356 -1.17266 0
M  V30 9307 H 881.977 2.63465 -2.90394 0
M  V30 9308 H 883.467 3.4537 -2.34753 0
M  V30 9309 N 883.904 1.48273 0.534124 0
M  V30 9310 C 884.814 1.65162 1.66609 0
M  V30 9311 C 885.83 0.534177 1.65598 0
M  V30 9312 O 887.006 0.804715 1.84625 0
M  V30 9313 C 884.071 1.68354 3.03081 0
M  V30 9314 C 883.132 2.91696 3.1498 0
M  V30 9315 C 882.365 2.94725 4.44941 0
M  V30 9316 O 882.588 2.06285 5.31792 0
M  V30 9317 O 881.522 3.8685 4.61119 0
M  V30 9318 H 885.348 2.60991 1.55298 0
M  V30 9319 H 882.933 1.31626 0.706749 0
M  V30 9320 H 884.815 1.72998 3.84252 0
M  V30 9321 H 883.49 0.756978 3.14725 0
M  V30 9322 H 882.397 2.92586 2.33119 0
M  V30 9323 H 883.73 3.83722 3.0825 0
M  V30 9324 N 885.382 -0.782676 1.36792 0
M  V30 9325 C 886.63 -1.53778 1.31136 0
M  V30 9326 C 886.951 -1.94706 -0.107014 0
M  V30 9327 O 886.221 -1.65465 -1.04872 0
M  V30 9328 H 884.801 -0.570328 0.482426 0
M  V30 9329 H 887.463 -0.932181 1.71162 0
M  V30 9330 H 886.559 -2.44224 1.94321 0
M  V30 9331 N 886.86 -1.21182 -1.00761 0
M  V30 9332 C 888.109 -1.02166 -1.73911 0
M  V30 9333 C 888.422 0.445638 -1.90456 0
M  V30 9334 O 889.628 0.755132 -2.60787 0
M  V30 9335 C 888.084 -1.77936 -3.12837 0
M  V30 9336 C 887.692 -3.28819 -3.04273 0
M  V30 9337 C 889.436 -1.67319 -3.90134 0
M  V30 9338 C 887.343 -3.97089 -4.38262 0
M  V30 9339 H 886.273 -0.378665 -0.652019 0
M  V30 9340 H 888.924 -1.44891 -1.12601 0
M  V30 9341 H 887.306 -1.28003 -3.74742 0
M  V30 9342 H 888.48 -3.86035 -2.51622 0
M  V30 9343 H 886.795 -3.39949 -2.40465 0
M  V30 9344 H 889.392 -2.15659 -4.8928 0
M  V30 9345 H 889.735 -0.630959 -4.11491 0
M  V30 9346 H 890.268 -2.14716 -3.34876 0
M  V30 9347 H 887.007 -5.01503 -4.22107 0
M  V30 9348 H 886.527 -3.44662 -4.90885 0
M  V30 9349 H 888.206 -4.01854 -5.07072 0
M  V30 9350 N 888.338 1.20213 -1.01915 0
M  V30 9351 C 889.749 1.7136 -0.741131 0
M  V30 9352 C 890.1 1.81705 0.740107 0
M  V30 9353 O 889.225 1.48139 1.57746 0
M  V30 9354 C 889.82 3.11231 -1.33869 0
M  V30 9355 C 888.379 3.59677 -1.10948 0
M  V30 9356 C 887.526 2.36809 -1.4428 0
M  V30 9357 H 890.477 1.05191 -1.1883 0
M  V30 9358 H 890.498 3.7342 -0.730585 0
M  V30 9359 H 890.01 3.03669 -2.41675 0
M  V30 9360 H 888.111 3.72568 -0.0492052 0
M  V30 9361 H 888.224 4.44351 -1.79134 0
M  V30 9362 H 886.588 2.39674 -0.861881 0
M  V30 9363 H 887.371 2.31886 -2.53148 0
M  V30 9364 N 889.816 0.795718 1.36037 0
M  V30 9365 C 890.726 0.199784 2.33748 0
M  V30 9366 C 891.742 -0.651436 1.61345 0
M  V30 9367 O 892.918 -0.565743 1.93291 0
M  V30 9368 C 889.983 -0.650475 3.40543 0
M  V30 9369 C 889.044 0.219974 4.28736 0
M  V30 9370 C 888.277 -0.589798 5.30431 0
M  V30 9371 O 888.5 -1.82532 5.40406 0
M  V30 9372 O 887.434 0.0136187 6.01898 0
M  V30 9373 H 891.26 1.00782 2.8649 0
M  V30 9374 H 888.845 0.557293 1.38617 0
M  V30 9375 H 890.727 -1.13512 4.05824 0
M  V30 9376 H 889.402 -1.4363 2.9009 0
M  V30 9377 H 888.309 0.751516 3.66474 0
M  V30 9378 H 889.642 0.969468 4.82558 0
M  V30 9379 N 891.294 -1.47756 0.548274 0
M  V30 9380 C 892.257 -2.28379 -0.193857 0
M  V30 9381 C 893.257 -1.36436 -0.850986 0
M  V30 9382 O 894.447 -1.59154 -0.70822 0
M  V30 9383 C 891.579 -3.15858 -1.28243 0
M  V30 9384 H 892.772 -2.95458 0.514231 0
M  V30 9385 H 890.325 -1.53298 0.304879 0
M  V30 9386 H 891.06 -2.5345 -2.0232 0
M  V30 9387 H 890.845 -3.83512 -0.816148 0
M  V30 9388 H 892.335 -3.76627 -1.80393 0
M  V30 9389 N 892.772 -0.284283 -1.55015 0
M  V30 9390 C 893.702 0.592663 -2.25853 0
M  V30 9391 C 894.683 1.15151 -1.25197 0
M  V30 9392 O 895.868 1.18395 -1.53936 0
M  V30 9393 C 892.998 1.77254 -2.98661 0
M  V30 9394 C 891.952 1.34482 -4.06323 0
M  V30 9395 C 891.278 2.60853 -4.66754 0
M  V30 9396 C 892.578 0.488288 -5.20013 0
M  V30 9397 H 894.272 0.00187041 -2.994 0
M  V30 9398 H 891.818 -0.000540402 -1.44 0
M  V30 9399 H 893.771 2.39199 -3.46932 0
M  V30 9400 H 892.495 2.38931 -2.22664 0
M  V30 9401 H 891.154 0.748519 -3.58877 0
M  V30 9402 H 890.802 3.20808 -3.87416 0
M  V30 9403 H 890.502 2.32942 -5.39455 0
M  V30 9404 H 892.026 3.23631 -5.1778 0
M  V30 9405 H 893.44 1.01298 -5.6428 0
M  V30 9406 H 891.837 0.303669 -5.99331 0
M  V30 9407 H 892.907 -0.490727 -4.8241 0
M  V30 9408 N 894.251 1.57596 -0.0117121 0
M  V30 9409 C 895.479 1.9536 0.681334 0
M  V30 9410 C 895.894 0.887255 1.66653 0
M  V30 9411 O 895.251 -0.132692 1.82017 0
M  V30 9412 C 895.302 3.33165 1.40298 0
M  V30 9413 O 895.023 4.35707 0.45728 0
M  V30 9414 C 896.524 3.85458 2.18946 0
M  V30 9415 H 893.744 0.643826 0.189023 0
M  V30 9416 H 896.288 2.04392 -0.066311 0
M  V30 9417 H 894.443 3.25404 2.10216 0
M  V30 9418 H 894.857 5.15495 0.96773 0
M  V30 9419 H 896.331 4.84275 2.64918 0
M  V30 9420 H 896.808 3.18781 3.02118 0
M  V30 9421 H 897.414 3.96431 1.5402 0
M  V30 9422 N 895.729 -0.261212 1.5542 0
M  V30 9423 C 897.145 -0.609012 1.47524 0
M  V30 9424 C 897.345 -1.88986 0.699042 0
M  V30 9425 O 896.401 -2.51517 0.222628 0
M  V30 9426 C 897.714 -0.725025 2.91828 0
M  V30 9427 C 899.262 -0.818302 3.02114 0
M  V30 9428 C 899.737 -0.965996 4.47697 0
M  V30 9429 N 901.228 -1.03123 4.51575 0
M  V30 9430 C 901.963 -1.16451 5.6145 0
M  V30 9431 N 901.459 -1.26425 6.81167 0
M  V30 9432 N 903.252 -1.19655 5.49217 0
M  V30 9433 H 895.403 0.579807 2.04333 0
M  V30 9434 H 897.666 0.198072 0.927077 0
M  V30 9435 H 897.372 0.145871 3.51397 0
M  V30 9436 H 897.246 -1.60156 3.41511 0
M  V30 9437 H 899.633 -1.67966 2.42634 0
M  V30 9438 H 899.714 0.0830895 2.55665 0
M  V30 9439 H 899.358 -0.109251 5.07782 0
M  V30 9440 H 899.288 -1.88221 4.91813 0
M  V30 9441 H 901.779 -0.966072 3.65343 0
M  V30 9442 H 902.092 -1.36462 7.60656 0
M  V30 9443 H 900.437 -1.23408 6.83956 0
M  V30 9444 H 903.628 -1.11501 4.54626 0
M  V30 9445 H 903.801 -1.29698 6.34888 0
M  V30 9446 N 897.207 -1.48554 -0.526253 0
M  V30 9447 C 898.154 -1.63354 -1.63046 0
M  V30 9448 C 899.124 -0.475509 -1.59148 0
M  V30 9449 O 900.309 -0.699453 -1.77517 0
M  V30 9450 C 897.449 -1.68271 -3.01295 0
M  V30 9451 C 896.562 -2.95207 -3.15399 0
M  V30 9452 C 895.697 -2.91262 -4.4423 0
M  V30 9453 C 894.736 -4.12886 -4.51876 0
M  V30 9454 N 893.873 -4.06996 -5.721 0
M  V30 9455 H 898.713 -2.57649 -1.49737 0
M  V30 9456 H 896.25 -1.27769 -0.728938 0
M  V30 9457 H 898.208 -1.69104 -3.81392 0
M  V30 9458 H 896.838 -0.774641 -3.13367 0
M  V30 9459 H 895.89 -3.04102 -2.2853 0
M  V30 9460 H 897.202 -3.85187 -3.1691 0
M  V30 9461 H 896.356 -2.90516 -5.32621 0
M  V30 9462 H 895.095 -1.99016 -4.45246 0
M  V30 9463 H 894.1 -4.13902 -3.61891 0
M  V30 9464 H 895.325 -5.06294 -4.52596 0
M  V30 9465 H 893.271 -3.17573 -5.74006 0
M  V30 9466 H 893.188 -4.90685 -5.75121 0
M  V30 9467 H 894.456 -4.10315 -6.62768 0
M  V30 9468 N 898.685 0.775411 -1.37205 0
M  V30 9469 C 899.615 1.90258 -1.35367 0
M  V30 9470 C 900.596 1.68634 -0.222864 0
M  V30 9471 O 901.781 1.89545 -0.422659 0
M  V30 9472 C 898.911 3.27488 -1.15623 0
M  V30 9473 C 897.865 3.63668 -2.25676 0
M  V30 9474 C 897.191 4.994 -1.91059 0
M  V30 9475 C 898.491 3.70797 -3.67841 0
M  V30 9476 H 900.185 1.92053 -2.29687 0
M  V30 9477 H 897.731 0.922597 -1.10563 0
M  V30 9478 H 899.684 4.05976 -1.12968 0
M  V30 9479 H 898.408 3.26117 -0.177573 0
M  V30 9480 H 897.067 2.87486 -2.2748 0
M  V30 9481 H 896.715 4.94565 -0.917324 0
M  V30 9482 H 896.415 5.24576 -2.64751 0
M  V30 9483 H 897.939 5.80291 -1.89985 0
M  V30 9484 H 899.353 4.39444 -3.68187 0
M  V30 9485 H 897.75 4.07468 -4.40556 0
M  V30 9486 H 898.82 2.71549 -4.01732 0
M  V30 9487 N 900.163 1.21714 1.00117 0
M  V30 9488 C 901.412 1.03087 1.73367 0
M  V30 9489 C 901.725 -0.435532 1.90689 0
M  V30 9490 O 902.931 -0.741291 2.61184 0
M  V30 9491 C 901.387 1.79593 3.11888 0
M  V30 9492 C 900.995 3.30428 3.02525 0
M  V30 9493 C 902.739 1.69386 3.89241 0
M  V30 9494 C 900.646 3.99408 4.3615 0
M  V30 9495 H 899.576 0.382117 0.650002 0
M  V30 9496 H 902.227 1.45486 1.11831 0
M  V30 9497 H 900.609 1.29988 3.74058 0
M  V30 9498 H 901.783 3.87364 2.49571 0
M  V30 9499 H 900.098 3.4122 2.38659 0
M  V30 9500 H 902.695 2.18251 4.8813 0
M  V30 9501 H 903.038 0.652773 4.1115 0
M  V30 9502 H 903.571 2.16489 3.33733 0
M  V30 9503 H 900.31 5.03735 4.19442 0
M  V30 9504 H 899.83 3.47261 4.8905 0
M  V30 9505 H 901.509 4.04537 5.04934 0
M  V30 9506 N 901.641 -1.19671 1.02551 0
M  V30 9507 C 902.588 -2.22773 0.603394 0
M  V30 9508 C 903.558 -1.61669 -0.381081 0
M  V30 9509 O 904.743 -1.88756 -0.278505 0
M  V30 9510 C 901.883 -3.45073 -0.0431034 0
M  V30 9511 C 900.996 -4.20574 0.987006 0
M  V30 9512 C 900.131 -5.30291 0.310626 0
M  V30 9513 C 899.17 -5.97545 1.32688 0
M  V30 9514 N 898.307 -6.98833 0.676542 0
M  V30 9515 H 903.147 -2.58238 1.48719 0
M  V30 9516 H 900.684 -1.26881 0.744286 0
M  V30 9517 H 902.642 -4.14925 -0.435141 0
M  V30 9518 H 901.272 -3.10274 -0.890495 0
M  V30 9519 H 900.324 -3.497 1.49713 0
M  V30 9520 H 901.636 -4.66736 1.75952 0
M  V30 9521 H 900.79 -6.06547 -0.136438 0
M  V30 9522 H 899.529 -4.8519 -0.49412 0
M  V30 9523 H 898.534 -5.20043 1.78424 0
M  V30 9524 H 899.759 -6.4473 2.13306 0
M  V30 9525 H 897.705 -6.55911 -0.108172 0
M  V30 9526 H 897.622 -7.43168 1.38699 0
M  V30 9527 H 898.89 -7.79088 0.253367 0
M  V30 9528 N 903.119 -0.802921 -1.35613 0
M  V30 9529 C 904.066 -0.20874 -2.29854 0
M  V30 9530 C 905.036 0.655128 -1.52634 0
M  V30 9531 O 906.221 0.600979 -1.81088 0
M  V30 9532 C 903.361 0.639663 -3.3912 0
M  V30 9533 C 902.474 -0.244234 -4.31309 0
M  V30 9534 C 901.609 0.611825 -5.27665 0
M  V30 9535 C 900.648 -0.272698 -6.11492 0
M  V30 9536 N 899.785 0.543122 -6.99996 0
M  V30 9537 H 904.625 -1.01782 -2.80079 0
M  V30 9538 H 902.162 -0.513465 -1.37848 0
M  V30 9539 H 904.12 1.14668 -4.01132 0
M  V30 9540 H 902.75 1.41404 -2.9018 0
M  V30 9541 H 901.802 -0.869322 -3.70334 0
M  V30 9542 H 903.114 -0.925202 -4.90144 0
M  V30 9543 H 902.268 1.18412 -5.95032 0
M  V30 9544 H 901.007 1.32637 -4.69317 0
M  V30 9545 H 900.012 -0.857287 -5.43075 0
M  V30 9546 H 901.237 -0.985051 -6.71918 0
M  V30 9547 H 899.183 1.24171 -6.44141 0
M  V30 9548 H 899.1 -0.0798767 -7.55958 0
M  V30 9549 H 900.368 1.09881 -7.71717 0
M  V30 9550 N 904.597 1.47463 -0.556102 0
M  V30 9551 C 905.56 2.28478 0.181743 0
M  V30 9552 C 906.56 1.36886 0.843738 0
M  V30 9553 O 907.75 1.59527 0.69977 0
M  V30 9554 C 904.882 3.16534 1.26566 0
M  V30 9555 H 906.075 2.95182 -0.529892 0
M  V30 9556 H 903.628 1.53134 -0.313005 0
M  V30 9557 H 904.363 2.5452 2.00973 0
M  V30 9558 H 904.148 3.83939 0.795798 0
M  V30 9559 H 905.638 3.77579 1.78393 0
M  V30 9560 N 906.075 0.2925 1.54862 0
M  V30 9561 C 907.352 -0.371946 1.92031 0
M  V30 9562 C 907.732 -1.72363 1.21878 0
M  V30 9563 O 907.08 -2.25779 0.351573 0
M  V30 9564 C 907.29 -0.495027 3.45471 0
M  V30 9565 C 908.638 -0.769855 4.17562 0
M  V30 9566 O 909.662 -0.579168 3.5146 0
M  V30 9567 O 908.521 -1.13561 5.34571 0
M  V30 9568 H 905.615 -0.206463 0.800813 0
M  V30 9569 H 908.161 0.339933 1.6626 0
M  V30 9570 H 906.933 0.455528 3.88639 0
M  V30 9571 H 906.556 -1.2557 3.7725 0
M  V30 9572 N 907.553 -1.57587 0.0200696 0
M  V30 9573 C 908.485 -2.06555 -0.993359 0
M  V30 9574 C 909.498 -0.987227 -1.29451 0
M  V30 9575 O 910.687 -1.26361 -1.26075 0
M  V30 9576 C 907.787 -2.4675 -2.3231 0
M  V30 9577 C 906.96 -3.77554 -2.20843 0
M  V30 9578 C 906.019 -4.04397 -3.36674 0
M  V30 9579 O 905.045 -4.7478 -3.13963 0
M  V30 9580 N 906.247 -3.53861 -4.60176 0
M  V30 9581 H 909.012 -2.9412 -0.575617 0
M  V30 9582 H 906.573 -1.61038 -0.166889 0
M  V30 9583 H 908.565 -2.61806 -3.08609 0
M  V30 9584 H 907.135 -1.64598 -2.65756 0
M  V30 9585 H 906.355 -3.72382 -1.29327 0
M  V30 9586 H 907.643 -4.63271 -2.10375 0
M  V30 9587 H 907.041 -2.96904 -4.81523 0
M  V30 9588 H 905.598 -3.74213 -5.33674 0
M  V30 9589 N 909.032 0.252966 -1.55557 0
M  V30 9590 C 909.979 1.3131 -1.89806 0
M  V30 9591 C 910.949 1.48121 -0.751633 0
M  V30 9592 O 912.134 1.62202 -1.00474 0
M  V30 9593 C 909.274 2.66467 -2.19293 0
M  V30 9594 C 908.387 2.57714 -3.46709 0
M  V30 9595 C 907.522 3.85184 -3.65796 0
M  V30 9596 C 906.561 3.71023 -4.86835 0
M  V30 9597 N 905.698 4.90371 -5.02474 0
M  V30 9598 H 910.538 1.01402 -2.80217 0
M  V30 9599 H 908.075 0.489462 -1.38718 0
M  V30 9600 H 910.033 3.45132 -2.34392 0
M  V30 9601 H 908.663 2.94536 -1.32093 0
M  V30 9602 H 907.715 1.70651 -3.39974 0
M  V30 9603 H 909.027 2.43158 -4.35517 0
M  V30 9604 H 908.181 4.72292 -3.80822 0
M  V30 9605 H 906.92 4.0263 -2.7521 0
M  V30 9606 H 905.925 2.82299 -4.71792 0
M  V30 9607 H 907.15 3.55078 -5.78875 0
M  V30 9608 H 905.096 5.0819 -4.14824 0
M  V30 9609 H 905.013 4.78423 -5.85361 0
M  V30 9610 H 906.281 5.78995 -5.21905 0
M  V30 9611 N 910.51 1.48831 0.518367 0
M  V30 9612 C 911.758 1.57128 1.27103 0
M  V30 9613 C 912.079 0.252098 1.93364 0
M  V30 9614 O 911.349 -0.727281 1.819 0
M  V30 9615 H 909.929 0.578891 0.472116 0
M  V30 9616 H 912.591 1.85361 0.602262 0
M  V30 9617 H 911.687 2.35838 2.04418 0
M  V30 9618 N 911.988 -0.768124 1.37614 0
M  V30 9619 C 913.234 -1.52907 1.33219 0
M  V30 9620 C 913.567 -1.94026 -0.0821218 0
M  V30 9621 O 912.842 -1.64345 -1.04023 0
M  V30 9622 C 913.125 -2.79164 2.27463 0
M  V30 9623 C 912.978 -2.44276 3.7769 0
M  V30 9624 C 914.297 -3.81115 2.20089 0
M  V30 9625 H 911.416 -0.554712 0.485246 0
M  V30 9626 H 914.058 -0.880911 1.68345 0
M  V30 9627 H 912.208 -3.34472 1.97639 0
M  V30 9628 H 913.88 -1.94855 4.18126 0
M  V30 9629 H 912.123 -1.76925 3.96081 0
M  V30 9630 H 912.794 -3.34544 4.39072 0
M  V30 9631 H 915.27 -3.35311 2.46386 0
M  V30 9632 H 914.146 -4.67174 2.88166 0
M  V30 9633 H 914.407 -4.25644 1.19498 0
M  V30 9634 N 913.466 -1.22244 -0.994698 0
M  V30 9635 C 914.694 -1.07218 -1.76952 0
M  V30 9636 C 915.109 0.377388 -1.8499 0
M  V30 9637 O 914.466 1.26157 -1.31874 0
M  V30 9638 C 914.517 -1.67496 -3.20355 0
M  V30 9639 O 914.238 -3.06782 -3.12756 0
M  V30 9640 C 915.739 -1.57721 -4.14294 0
M  V30 9641 H 912.959 -0.375966 -0.555779 0
M  V30 9642 H 915.503 -1.61799 -1.25065 0
M  V30 9643 H 913.658 -1.16982 -3.69315 0
M  V30 9644 H 914.072 -3.35784 -4.02926 0
M  V30 9645 H 915.546 -2.04623 -5.12673 0
M  V30 9646 H 916.023 -0.533434 -4.35949 0
M  V30 9647 H 916.629 -2.07531 -3.71229 0
M  V30 9648 N 914.944 1.19125 -1.03184 0
M  V30 9649 C 916.193 1.8821 -0.725264 0
M  V30 9650 C 916.506 1.80674 0.749411 0
M  V30 9651 O 917.712 2.45037 1.16915 0
M  V30 9652 C 916.168 3.37607 -1.24697 0
M  V30 9653 C 915.776 3.53693 -2.74964 0
M  V30 9654 C 917.52 4.12149 -1.01652 0
M  V30 9655 C 915.427 4.97001 -3.20538 0
M  V30 9656 H 914.357 0.704916 -0.267599 0
M  V30 9657 H 917.008 1.34663 -1.24652 0
M  V30 9658 H 915.39 3.90569 -0.653614 0
M  V30 9659 H 916.564 3.11046 -3.39981 0
M  V30 9660 H 914.879 2.92544 -2.96322 0
M  V30 9661 H 917.476 5.17837 -1.33226 0
M  V30 9662 H 917.819 4.16274 0.0465712 0
M  V30 9663 H 918.352 3.65334 -1.57403 0
M  V30 9664 H 915.091 4.9804 -4.26189 0
M  V30 9665 H 914.611 5.40398 -2.60251 0
M  V30 9666 H 916.29 5.65669 -3.14049 0
M  V30 9667 N 916.422 0.810101 1.35185 0
M  V30 9668 C 917.671 0.388589 1.97921 0
M  V30 9669 C 917.984 -1.05079 1.64978 0
M  V30 9670 O 919.19 -1.57559 2.21105 0
M  V30 9671 C 917.646 0.643864 3.54094 0
M  V30 9672 C 917.254 2.09602 3.95943 0
M  V30 9673 C 918.998 0.287883 4.23523 0
M  V30 9674 C 916.905 2.29686 5.44976 0
M  V30 9675 H 915.835 0.141562 0.740592 0
M  V30 9676 H 918.486 0.994653 1.54204 0
M  V30 9677 H 916.868 -0.0321978 3.95987 0
M  V30 9678 H 918.042 2.81018 3.65192 0
M  V30 9679 H 916.357 2.4122 3.39414 0
M  V30 9680 H 918.954 0.415946 5.3308 0
M  V30 9681 H 919.297 -0.766305 4.09186 0
M  V30 9682 H 919.83 0.918004 3.87063 0
M  V30 9683 H 916.569 3.33563 5.64284 0
M  V30 9684 H 916.089 1.62798 5.77284 0
M  V30 9685 H 917.768 2.11411 6.11485 0
M  V30 9686 N 917.9 -1.47166 0.563914 0
M  V30 9687 C 919.148 -2.02056 0.0422873 0
M  V30 9688 C 919.469 -1.43992 -1.31497 0
M  V30 9689 O 918.739 -0.617578 -1.85911 0
M  V30 9690 H 917.319 -0.746893 0.0126427 0
M  V30 9691 H 919.981 -1.80492 0.735441 0
M  V30 9692 H 919.077 -3.12073 -0.0408044 0
M  V30 9693 N 919.378 -0.300708 -1.54705 0
M  V30 9694 C 920.789 0.191995 -1.8571 0
M  V30 9695 C 921.14 1.53447 -1.22264 0
M  V30 9696 O 920.265 2.10054 -0.520226 0
M  V30 9697 C 920.86 0.355148 -3.36933 0
M  V30 9698 C 919.419 0.792071 -3.67972 0
M  V30 9699 C 918.566 -0.099756 -2.77121 0
M  V30 9700 H 921.517 -0.521729 -1.49879 0
M  V30 9701 H 921.538 1.18977 -3.61421 0
M  V30 9702 H 921.05 -0.622075 -3.83082 0
M  V30 9703 H 919.151 1.77986 -3.27341 0
M  V30 9704 H 919.264 0.611661 -4.75179 0
M  V30 9705 H 917.628 0.420909 -2.51198 0
M  V30 9706 H 918.411 -1.07333 -3.2609 0
M  V30 9707 N 920.856 1.57574 -0.0284266 0
M  V30 9708 C 921.819 2.09096 0.938691 0
M  V30 9709 C 922.819 1.00588 1.25454 0
M  V30 9710 O 924.009 1.2675 1.19499 0
M  V30 9711 C 921.141 2.55624 2.25542 0
M  V30 9712 H 922.334 2.95829 0.49248 0
M  V30 9713 H 919.887 1.5475 0.219594 0
M  V30 9714 H 920.622 1.72218 2.74793 0
M  V30 9715 H 920.407 3.34896 2.03929 0
M  V30 9716 H 921.897 2.95712 2.94863 0
M  V30 9717 N 922.334 -0.244713 1.55689 0
M  V30 9718 C 923.562 -0.989944 1.8168 0
M  V30 9719 C 923.977 -1.78863 0.604449 0
M  V30 9720 O 923.334 -1.77437 -0.426907 0
M  V30 9721 C 923.385 -1.92607 3.05916 0
M  V30 9722 O 923.106 -1.1597 4.22472 0
M  V30 9723 C 924.607 -2.78711 3.44724 0
M  V30 9724 H 921.827 -0.2912 0.604519 0
M  V30 9725 H 924.371 -0.266938 2.0275 0
M  V30 9726 H 922.526 -2.60333 2.8689 0
M  V30 9727 H 922.94 -1.79311 4.92898 0
M  V30 9728 H 924.414 -3.40141 4.34751 0
M  V30 9729 H 924.891 -3.49935 2.6541 0
M  V30 9730 H 925.497 -2.16435 3.66109 0
M  V30 9731 N 923.813 -1.49104 -0.510467 0
M  V30 9732 C 925.059 -1.58346 -1.26705 0
M  V30 9733 C 925.392 -0.265121 -1.92382 0
M  V30 9734 O 924.667 0.730558 -1.80258 0
M  V30 9735 C 924.95 -2.7359 -2.34137 0
M  V30 9736 C 924.803 -4.1519 -1.73024 0
M  V30 9737 C 926.122 -2.84511 -3.3577 0
M  V30 9738 H 923.241 -0.57637 -0.459311 0
M  V30 9739 H 925.883 -1.81353 -0.566658 0
M  V30 9740 H 924.033 -2.54105 -2.93876 0
M  V30 9741 H 925.705 -4.46167 -1.17186 0
M  V30 9742 H 923.948 -4.21279 -1.03473 0
M  V30 9743 H 924.619 -4.91683 -2.50903 0
M  V30 9744 H 927.095 -3.0222 -2.86011 0
M  V30 9745 H 925.971 -3.6684 -4.08313 0
M  V30 9746 H 926.232 -1.93471 -3.97519 0
M  V30 9747 N 925.291 0.760815 -1.38019 0
M  V30 9748 C 926.539 1.51673 -1.33566 0
M  V30 9749 C 926.86 1.94852 0.076024 0
M  V30 9750 O 926.13 1.67112 1.02227 0
M  V30 9751 H 924.71 0.562581 -0.491438 0
M  V30 9752 H 927.372 0.904832 -1.72623 0
M  V30 9753 H 926.468 2.41102 -1.98182 0
M  V30 9754 N 926.769 1.22769 0.988202 0
M  V30 9755 C 928.017 1.05301 1.725 0
M  V30 9756 C 928.338 -0.412103 1.90596 0
M  V30 9757 O 927.608 -1.29606 1.46898 0
M  V30 9758 H 926.188 0.386658 0.639144 0
M  V30 9759 H 928.85 1.54359 1.18993 0
M  V30 9760 H 927.946 1.53465 2.71763 0
M  V30 9761 N 928.247 -1.18576 1.03814 0
M  V30 9762 C 929.496 -1.87822 0.735235 0
M  V30 9763 C 929.809 -1.81069 -0.739819 0
M  V30 9764 O 931.015 -2.45654 -1.15614 0
M  V30 9765 C 929.471 -3.36941 1.26486 0
M  V30 9766 C 929.079 -3.5223 2.76836 0
M  V30 9767 C 930.823 -4.11604 1.03836 0
M  V30 9768 C 928.73 -4.95294 3.23169 0
M  V30 9769 H 927.66 -0.703487 0.271333 0
M  V30 9770 H 930.311 -1.34 1.25365 0
M  V30 9771 H 928.693 -3.90217 0.674318 0
M  V30 9772 H 929.867 -3.09239 3.41625 0
M  V30 9773 H 928.182 -2.90969 2.97869 0
M  V30 9774 H 930.779 -5.17123 1.3597 0
M  V30 9775 H 931.122 -4.16293 -0.0244945 0
M  V30 9776 H 931.655 -3.64494 1.59338 0
M  V30 9777 H 928.394 -4.95772 4.28824 0
M  V30 9778 H 927.914 -5.3901 2.63113 0
M  V30 9779 H 929.593 -5.63996 3.17045 0
M  V30 9780 N 929.725 -0.817259 -1.34754 0
M  V30 9781 C 930.672 -0.233108 -2.2962 0
M  V30 9782 C 931.642 0.638902 -1.53321 0
M  V30 9783 O 932.827 0.581739 -1.81715 0
M  V30 9784 C 929.967 0.603659 -3.39779 0
M  V30 9785 C 929.08 -0.289967 -4.31026 0
M  V30 9786 C 928.215 0.555825 -5.28284 0
M  V30 9787 C 927.254 -0.337539 -6.11169 0
M  V30 9788 N 926.391 0.468847 -7.00533 0
M  V30 9789 H 931.231 -1.04747 -2.78984 0
M  V30 9790 H 928.768 -0.528056 -1.37295 0
M  V30 9791 H 930.726 1.10407 -4.02326 0
M  V30 9792 H 929.356 1.38319 -2.91664 0
M  V30 9793 H 928.408 -0.908552 -3.69391 0
M  V30 9794 H 929.72 -0.977136 -4.89135 0
M  V30 9795 H 928.874 1.12094 -5.96255 0
M  V30 9796 H 927.613 1.27652 -4.70698 0
M  V30 9797 H 926.618 -0.914839 -5.42135 0
M  V30 9798 H 927.843 -1.05626 -6.70835 0
M  V30 9799 H 925.789 1.17332 -6.45422 0
M  V30 9800 H 925.706 -0.160052 -7.55831 0
M  V30 9801 H 926.974 1.01689 -7.72839 0
M  V30 9802 N 931.203 1.46865 -0.571711 0
M  V30 9803 C 932.614 1.86158 -0.142181 0
M  V30 9804 C 932.965 1.47663 1.2919 0
M  V30 9805 O 932.09 0.886393 1.97413 0
M  V30 9806 C 932.685 3.37867 -0.251256 0
M  V30 9807 C 931.244 3.76198 0.123329 0
M  V30 9808 C 930.391 2.70902 -0.592232 0
M  V30 9809 H 933.342 1.38176 -0.780587 0
M  V30 9810 H 933.363 3.76842 0.526331 0
M  V30 9811 H 932.875 3.65853 -1.2951 0
M  V30 9812 H 930.976 3.53829 1.16773 0
M  V30 9813 H 931.089 4.78471 -0.24533 0
M  V30 9814 H 929.453 2.54678 -0.0336927 0
M  V30 9815 H 930.236 3.01729 -1.63751 0
M  V30 9816 N 932.681 0.308908 1.54543 0
M  V30 9817 C 933.929 -0.297447 1.99899 0
M  V30 9818 C 934.25 -1.53799 1.19878 0
M  V30 9819 O 933.52 -1.93639 0.29678 0
M  V30 9820 H 932.1 -0.112897 0.738419 0
M  V30 9821 H 934.762 0.422067 1.90275 0
M  V30 9822 H 933.858 -0.564016 3.06961 0
M  V30 9823 N 934.159 -1.57557 0.0367827 0
M  V30 9824 C 935.399 -1.93981 -0.644252 0
M  V30 9825 C 935.763 -0.913982 -1.6885 0
M  V30 9826 O 936.964 -1.16468 -2.42257 0
M  V30 9827 C 935.235 -3.35281 -1.23779 0
M  V30 9828 S 936.794 -3.93643 -1.93883 0
M  V30 9829 H 933.612 -0.678683 -0.21192 0
M  V30 9830 H 936.214 -1.95232 0.102281 0
M  V30 9831 H 934.918 -4.07752 -0.465451 0
M  V30 9832 H 934.449 -3.37492 -2.02146 0
M  V30 9833 H 936.464 -3.777 -3.21803 0
M  V30 9834 N 935.637 0.236453 -1.55816 0
M  V30 9835 C 936.884 0.963012 -1.78136 0
M  V30 9836 C 937.212 1.84918 -0.602952 0
M  V30 9837 O 936.467 1.91285 0.413325 0
M  V30 9838 C 936.766 1.84549 -3.06066 0
M  V30 9839 C 936.432 1.11381 -4.36927 0
M  V30 9840 C 935.094 0.911635 -4.72486 0
M  V30 9841 C 937.446 0.596 -5.17781 0
M  V30 9842 C 934.774 0.179515 -5.86425 0
M  V30 9843 C 937.126 -0.122702 -6.32481 0
M  V30 9844 C 935.79 -0.336263 -6.66652 0
M  V30 9845 H 935.06 0.352391 -0.651845 0
M  V30 9846 H 937.707 0.232295 -1.90086 0
M  V30 9847 H 936.012 2.6436 -2.89173 0
M  V30 9848 H 937.709 2.40953 -3.20535 0
M  V30 9849 H 934.299 1.28134 -4.08998 0
M  V30 9850 H 938.483 0.73971 -4.90757 0
M  V30 9851 H 933.739 0.00368224 -6.114 0
M  V30 9852 H 937.913 -0.531516 -6.94369 0
M  V30 9853 H 935.54 -0.905507 -7.54788 0
M  V30 9854 N 937.115 1.49373 0.502552 0
M  V30 9855 C 938.062 1.65927 1.60427 0
M  V30 9856 C 939.032 0.500768 1.58371 0
M  V30 9857 O 940.217 0.727606 1.76382 0
M  V30 9858 C 937.357 1.73043 2.9858 0
M  V30 9859 C 936.47 3.00187 3.10663 0
M  V30 9860 C 935.605 2.98292 4.3954 0
M  V30 9861 C 934.644 4.20022 4.4525 0
M  V30 9862 N 933.781 4.16046 5.65553 0
M  V30 9863 H 938.621 2.59998 1.45619 0
M  V30 9864 H 936.158 1.28912 0.708519 0
M  V30 9865 H 938.116 1.7515 3.78653 0
M  V30 9866 H 936.746 0.824397 3.12095 0
M  V30 9867 H 935.798 3.07699 2.23663 0
M  V30 9868 H 937.11 3.9018 3.10742 0
M  V30 9869 H 936.264 2.98953 5.27932 0
M  V30 9870 H 935.003 2.06075 4.42023 0
M  V30 9871 H 934.008 4.19607 3.5526 0
M  V30 9872 H 935.233 5.13431 4.44484 0
M  V30 9873 H 933.179 3.26665 5.68881 0
M  V30 9874 H 933.096 4.99773 5.67242 0
M  V30 9875 H 934.364 4.20807 6.56156 0
M  V30 9876 N 938.594 -0.753485 1.38421 0
M  V30 9877 C 939.843 -1.50797 1.33952 0
M  V30 9878 C 940.156 -1.95482 -0.0678464 0
M  V30 9879 O 941.362 -2.7048 -0.235078 0
M  V30 9880 C 939.818 -2.72393 2.35224 0
M  V30 9881 C 939.426 -2.34733 3.81582 0
M  V30 9882 C 941.17 -3.50281 2.39798 0
M  V30 9883 C 939.077 -3.52939 4.7454 0
M  V30 9884 H 938.007 -0.566211 0.497916 0
M  V30 9885 H 940.658 -0.823659 1.63976 0
M  V30 9886 H 939.04 -3.42806 1.98243 0
M  V30 9887 H 940.214 -1.71985 4.27502 0
M  V30 9888 H 938.529 -1.69978 3.80127 0
M  V30 9889 H 941.126 -4.38172 3.06447 0
M  V30 9890 H 941.469 -3.91444 1.41695 0
M  V30 9891 H 942.002 -2.86881 2.75579 0
M  V30 9892 H 938.741 -3.16843 5.73839 0
M  V30 9893 H 938.261 -4.1473 4.33312 0
M  V30 9894 H 939.94 -4.19519 4.92557 0
M  V30 9895 N 940.072 -1.23292 -0.981677 0
M  V30 9896 C 941.32 -1.06214 -1.71939 0
M  V30 9897 C 941.641 0.401989 -1.90812 0
M  V30 9898 O 940.911 1.28825 -1.47584 0
M  V30 9899 H 939.491 -0.390042 -0.637084 0
M  V30 9900 H 942.153 -1.54988 -1.18173 0
M  V30 9901 H 941.249 -1.54904 -2.70945 0
M  V30 9902 N 941.55 1.18024 -1.04442 0
M  V30 9903 C 942.498 2.23834 -0.632557 0
M  V30 9904 C 943.492 1.65902 0.342488 0
M  V30 9905 O 944.698 1.78778 0.20937 0
M  V30 9906 H 941.073 0.728544 -0.186353 0
M  V30 9907 H 943.044 2.55876 -1.53526 0
M  V30 9908 C 941.793 3.47697 -0.0153661 0
M  V30 9909 H 941.116 3.92574 -0.756704 0
M  V30 9910 H 942.556 4.23345 0.235541 0
M  V30 9911 C 941.015 3.13416 1.23579 0
M  V30 9912 O 941.545 3.27499 2.3261 0
M  V30 9913 N 939.751 2.67708 1.13053 0
M  V30 9914 H 939.298 2.56449 0.243277 0
M  V30 9915 H 939.256 2.45143 1.96855 0
M  V30 9916 N 943.028 0.824394 1.34319 0
M  V30 9917 C 944.256 0.426194 2.02463 0
M  V30 9918 C 944.671 -0.968298 1.62078 0
M  V30 9919 O 944.028 -1.62689 0.82696 0
M  V30 9920 C 944.079 0.520465 3.57734 0
M  V30 9921 O 943.8 1.86 3.96656 0
M  V30 9922 C 945.301 0.117353 4.43145 0
M  V30 9923 H 942.521 0.170864 0.648881 0
M  V30 9924 H 945.065 1.11296 1.71562 0
M  V30 9925 H 943.22 -0.118233 3.8722 0
M  V30 9926 H 943.634 1.83528 4.91343 0
M  V30 9927 H 945.108 0.234395 5.51502 0
M  V30 9928 H 945.585 -0.939271 4.29039 0
M  V30 9929 H 946.191 0.729908 4.1899 0
M  V30 9930 N 944.506 -1.46559 0.579492 0
M  V30 9931 C 945.754 -2.02 0.0637157 0
M  V30 9932 C 946.075 -1.45378 -1.29962 0
M  V30 9933 O 945.345 -0.637262 -1.85245 0
M  V30 9934 H 943.925 -0.746717 0.0205638 0
M  V30 9935 H 946.587 -1.79702 0.754544 0
M  V30 9936 H 945.683 -3.12099 -0.00770254 0
M  V30 9937 N 945.984 -0.3171 -1.54377 0
M  V30 9938 C 947.232 0.286842 -2.00054 0
M  V30 9939 C 947.553 1.53161 -1.20692 0
M  V30 9940 O 946.823 1.93479 -0.307045 0
M  V30 9941 H 945.403 0.108979 -0.739008 0
M  V30 9942 H 948.065 -0.432152 -1.90049 0
M  V30 9943 H 947.161 0.547729 -3.07256 0
M  V30 9944 N 947.462 1.57535 -0.0451378 0
M  V30 9945 C 948.395 2.06721 0.96653 0
M  V30 9946 C 949.373 0.966392 1.30766 0
M  V30 9947 O 950.557 1.23789 1.42157 0
M  V30 9948 C 947.684 2.50266 2.2822 0
M  V30 9949 C 946.73 3.71525 2.09455 0
M  V30 9950 S 947.563 5.17453 1.37851 0
M  V30 9951 C 948.719 5.64308 2.70753 0
M  V30 9952 H 948.952 2.92207 0.547911 0
M  V30 9953 H 946.485 1.53494 0.166973 0
M  V30 9954 H 948.443 2.76019 3.03849 0
M  V30 9955 H 947.104 1.65097 2.67211 0
M  V30 9956 H 946.297 3.99894 3.06759 0
M  V30 9957 H 945.899 3.46008 1.41967 0
M  V30 9958 H 948.191 5.69525 3.66943 0
M  V30 9959 H 949.134 6.63613 2.47028 0
M  V30 9960 H 949.542 4.92014 2.76736 0
M  V30 9961 N 948.94 -0.228186 1.55939 0
M  V30 9962 C 949.87 -1.28607 1.94891 0
M  V30 9963 C 950.851 -1.49236 0.816245 0
M  V30 9964 O 952.036 -1.61531 1.07803 0
M  V30 9965 C 949.166 -2.63719 2.25986 0
M  V30 9966 C 948.12 -2.57757 3.4168 0
M  V30 9967 C 947.446 -3.96837 3.58364 0
M  V30 9968 C 948.746 -2.13116 4.76843 0
M  V30 9969 H 950.44 -0.962531 2.83506 0
M  V30 9970 H 947.986 -0.461577 1.36402 0
M  V30 9971 H 949.939 -3.37878 2.51826 0
M  V30 9972 H 948.663 -2.97747 1.34217 0
M  V30 9973 H 947.322 -1.86055 3.15878 0
M  V30 9974 H 946.97 -4.28162 2.63982 0
M  V30 9975 H 946.67 -3.93731 4.36176 0
M  V30 9976 H 948.194 -4.72668 3.86545 0
M  V30 9977 H 949.608 -2.77015 5.01932 0
M  V30 9978 H 948.005 -2.21083 5.57891 0
M  V30 9979 H 949.075 -1.08326 4.72645 0
M  V30 9980 N 950.418 -1.49637 -0.494624 0
M  V30 9981 C 951.695 -1.4995 -1.25596 0
M  V30 9982 C 952.075 -0.230805 -2.09834 0
M  V30 9983 O 951.423 0.786625 -2.14533 0
M  V30 9984 C 951.633 -2.78204 -2.10721 0
M  V30 9985 C 952.981 -3.27946 -2.69698 0
M  V30 9986 O 954.005 -2.79365 -2.20984 0
M  V30 9987 O 952.864 -4.12571 -3.58395 0
M  V30 9988 H 949.958 -0.60044 -0.568684 0
M  V30 9989 H 952.504 -1.61906 -0.508371 0
M  V30 9990 H 951.276 -3.62029 -1.48494 0
M  V30 9991 H 950.899 -2.69139 -2.92661 0
M  V30 9992 N 951.896 0.746133 -1.38819 0
M  V30 9993 C 952.844 1.88137 -1.36774 0
M  V30 9994 C 953.838 1.67508 -0.252495 0
M  V30 9995 O 955.044 1.74985 -0.421935 0
M  V30 9996 H 951.419 0.619116 -0.426849 0
M  V30 9997 H 953.39 1.86978 -2.32555 0
M  V30 9998 C 952.139 3.25703 -1.21708 0
M  V30 9999 H 951.462 3.42168 -2.06788 0
M  V30 10000 H 952.902 4.05361 -1.24332 0
M  V30 10001 C 951.361 3.36816 0.0754257 0
M  V30 10002 O 951.891 3.87742 1.04972 0
M  V30 10003 N 950.097 2.90287 0.134761 0
M  V30 10004 H 949.644 2.49034 -0.658779 0
M  V30 10005 H 949.602 2.98103 0.999109 0
M  V30 10006 N 953.375 1.23811 0.975125 0
M  V30 10007 C 954.624 1.06741 1.71141 0
M  V30 10008 C 954.937 -0.394986 1.9157 0
M  V30 10009 O 956.143 -0.685723 2.62698 0
M  V30 10010 C 954.599 1.86168 3.08009 0
M  V30 10011 C 954.207 3.36771 2.95448 0
M  V30 10012 C 955.951 1.77604 3.85561 0
M  V30 10013 C 953.858 4.0857 4.2758 0
M  V30 10014 H 952.788 0.395819 0.64175 0
M  V30 10015 H 955.439 1.47825 1.0872 0
M  V30 10016 H 953.821 1.37893 3.71216 0
M  V30 10017 H 954.995 3.92571 2.41298 0
M  V30 10018 H 953.31 3.46205 2.31368 0
M  V30 10019 H 955.907 2.28556 4.83391 0
M  V30 10020 H 956.25 0.739837 4.09673 0
M  V30 10021 H 956.783 2.23519 3.29065 0
M  V30 10022 H 953.522 5.12518 4.08663 0
M  V30 10023 H 953.042 3.57556 4.81574 0
M  V30 10024 H 954.721 4.15157 4.9624 0
M  V30 10025 N 954.853 -1.17469 1.05066 0
M  V30 10026 C 955.783 -2.23635 0.671552 0
M  V30 10027 C 956.764 -1.66867 -0.33006 0
M  V30 10028 O 957.949 -1.93084 -0.207933 0
M  V30 10029 C 955.079 -3.47272 0.0441845 0
M  V30 10030 C 954.033 -4.16854 0.97042 0
M  V30 10031 C 953.359 -5.34299 0.206998 0
M  V30 10032 C 954.659 -4.69225 2.29401 0
M  V30 10033 H 956.353 -2.55602 1.55911 0
M  V30 10034 H 953.899 -1.2286 0.751101 0
M  V30 10035 H 955.852 -4.20756 -0.23282 0
M  V30 10036 H 954.576 -3.14568 -0.878311 0
M  V30 10037 H 953.235 -3.4528 1.23197 0
M  V30 10038 H 952.883 -4.97846 -0.718222 0
M  V30 10039 H 952.583 -5.81792 0.82416 0
M  V30 10040 H 954.107 -6.10568 -0.0627525 0
M  V30 10041 H 955.521 -5.34353 2.077 0
M  V30 10042 H 953.918 -5.27291 2.86503 0
M  V30 10043 H 954.988 -3.86102 2.93348 0
M  V30 10044 N 956.331 -0.831506 -1.3388 0
M  V30 10045 C 957.294 -0.264773 -2.27666 0
M  V30 10046 C 958.294 0.562273 -1.50649 0
M  V30 10047 O 959.484 0.377131 -1.70069 0
M  V30 10048 C 956.616 0.627814 -3.35069 0
M  V30 10049 H 957.809 -1.09225 -2.79303 0
M  V30 10050 H 955.362 -0.604021 -1.44157 0
M  V30 10051 H 956.097 1.47802 -2.88661 0
M  V30 10052 H 955.882 0.0361552 -3.92083 0
M  V30 10053 H 957.372 1.01786 -4.05005 0
M  V30 10054 N 957.809 1.4625 -0.587256 0
M  V30 10055 C 959.034 2.07252 -0.0784517 0
M  V30 10056 C 959.459 1.43239 1.21919 0
M  V30 10057 O 958.817 0.517791 1.73749 0
M  V30 10058 C 958.865 3.60534 0.0691037 0
M  V30 10059 O 957.969 3.96773 1.12448 0
M  V30 10060 H 957.31 0.660825 -0.064859 0
M  V30 10061 H 959.84 1.87819 -0.811491 0
M  V30 10062 H 959.85 4.0708 0.273826 0
M  V30 10063 H 958.525 4.06516 -0.878514 0
M  V30 10064 H 957.102 3.6193 0.897852 0
M  V30 10065 N 959.287 0.325282 1.54207 0
M  V30 10066 C 960.234 -0.539889 2.24397 0
M  V30 10067 C 961.204 -1.11028 1.2354 0
M  V30 10068 O 962.389 -1.1503 1.52226 0
M  V30 10069 C 959.529 -1.69405 3.00659 0
M  V30 10070 C 958.642 -1.15273 4.16337 0
M  V30 10071 C 957.777 -2.27272 4.80126 0
M  V30 10072 C 956.816 -1.70397 5.87904 0
M  V30 10073 N 955.953 -2.76065 6.45548 0
M  V30 10074 H 960.793 0.0652318 2.97929 0
M  V30 10075 H 958.33 0.043964 1.47034 0
M  V30 10076 H 960.288 -2.37325 3.43122 0
M  V30 10077 H 958.918 -2.27043 2.29458 0
M  V30 10078 H 957.97 -0.365034 3.78645 0
M  V30 10079 H 959.282 -0.696576 4.93912 0
M  V30 10080 H 958.436 -3.03092 5.25566 0
M  V30 10081 H 957.175 -2.76224 4.01935 0
M  V30 10082 H 956.18 -0.930752 5.41864 0
M  V30 10083 H 957.405 -1.22319 6.67993 0
M  V30 10084 H 955.351 -3.24306 5.7023 0
M  V30 10085 H 955.268 -2.35018 7.18542 0
M  V30 10086 H 956.536 -3.5171 6.95644 0
M  V30 10087 N 960.765 -1.57509 0.0534917 0
M  V30 10088 C 961.695 -2.14698 -0.917999 0
M  V30 10089 C 962.676 -1.06924 -1.32292 0
M  V30 10090 O 963.861 -1.34875 -1.39723 0
M  V30 10091 C 960.991 -2.69383 -2.19203 0
M  V30 10092 C 959.945 -3.82161 -1.9271 0
M  V30 10093 C 959.271 -4.23373 -3.26587 0
M  V30 10094 C 960.571 -5.07199 -1.24686 0
M  V30 10095 H 962.265 -2.96125 -0.44165 0
M  V30 10096 H 959.811 -1.42446 -0.210993 0
M  V30 10097 H 961.764 -3.08031 -2.87567 0
M  V30 10098 H 960.488 -1.85151 -2.69048 0
M  V30 10099 H 959.147 -3.43989 -1.26757 0
M  V30 10100 H 958.795 -3.36089 -3.74237 0
M  V30 10101 H 958.495 -4.99385 -3.09658 0
M  V30 10102 H 960.019 -4.64623 -3.96178 0
M  V30 10103 H 961.433 -5.43279 -1.83088 0
M  V30 10104 H 959.83 -5.88369 -1.18076 0
M  V30 10105 H 960.9 -4.84386 -0.223227 0
M  V30 10106 N 962.243 0.219913 -1.56058 0
M  V30 10107 C 963.473 0.959521 -1.82967 0
M  V30 10108 C 963.881 1.78382 -0.630602 0
M  V30 10109 O 963.224 1.79062 0.410203 0
M  V30 10110 C 963.286 1.92481 -3.0363 0
M  V30 10111 C 962.95 1.28487 -4.38566 0
M  V30 10112 C 963.947 0.673946 -5.15513 0
M  V30 10113 C 961.632 1.29615 -4.85289 0
M  V30 10114 C 963.626 0.0828324 -6.37346 0
M  V30 10115 C 961.313 0.701191 -6.07064 0
M  V30 10116 C 962.311 0.0955877 -6.82933 0
M  V30 10117 O 961.999 -0.490109 -8.02405 0
M  V30 10118 H 961.731 0.286709 -0.612188 0
M  V30 10119 H 964.285 0.239761 -2.03996 0
M  V30 10120 H 962.515 2.6836 -2.78424 0
M  V30 10121 H 964.204 2.5301 -3.17397 0
M  V30 10122 H 964.97 0.657548 -4.80522 0
M  V30 10123 H 960.849 1.75691 -4.26208 0
M  V30 10124 H 964.393 -0.390482 -6.96506 0
M  V30 10125 H 960.29 0.715007 -6.41528 0
M  V30 10126 H 961.058 -0.384588 -8.17596 0
M  V30 10127 N 963.721 1.49897 0.486681 0
M  V30 10128 C 965.137 1.36977 0.819109 0
M  V30 10129 C 965.337 0.41385 1.97204 0
M  V30 10130 O 964.393 -0.149249 2.52059 0
M  V30 10131 C 965.706 2.78013 1.14584 0
M  V30 10132 C 967.254 2.86816 1.25321 0
M  V30 10133 C 967.729 4.28651 1.61316 0
M  V30 10134 N 969.22 4.31528 1.68337 0
M  V30 10135 C 969.955 5.38254 1.97662 0
M  V30 10136 N 969.451 6.55207 2.25113 0
M  V30 10137 N 971.244 5.25683 1.99033 0
M  V30 10138 H 963.395 2.10634 -0.273364 0
M  V30 10139 H 965.658 0.946116 -0.0597418 0
M  V30 10140 H 965.364 3.49728 0.371892 0
M  V30 10141 H 965.238 3.1428 2.08585 0
M  V30 10142 H 967.625 2.15329 2.01785 0
M  V30 10143 H 967.706 2.54112 0.293368 0
M  V30 10144 H 967.35 5.00669 0.853968 0
M  V30 10145 H 967.28 4.5883 2.58424 0
M  V30 10146 H 969.771 3.47189 1.49226 0
M  V30 10147 H 970.084 7.32359 2.46717 0
M  V30 10148 H 968.429 6.58408 2.22538 0
M  V30 10149 H 971.62 4.33316 1.77074 0
M  V30 10150 H 971.793 6.08949 2.21552 0
M  V30 10151 N 965.199 -0.738761 1.39212 0
M  V30 10152 C 966.61 -1.31684 1.32348 0
M  V30 10153 C 966.961 -1.96195 -0.0139041 0
M  V30 10154 O 966.086 -1.96056 -0.916025 0
M  V30 10155 C 966.681 -2.39444 2.39691 0
M  V30 10156 C 965.24 -2.92935 2.36359 0
M  V30 10157 C 964.387 -1.66465 2.21776 0
M  V30 10158 H 967.338 -0.536543 1.49355 0
M  V30 10159 H 967.359 -3.19744 2.06262 0
M  V30 10160 H 966.871 -1.92463 3.37016 0
M  V30 10161 H 964.972 -3.44207 1.42662 0
M  V30 10162 H 965.085 -3.46306 3.31073 0
M  V30 10163 H 963.449 -1.90657 1.68884 0
M  V30 10164 H 964.232 -1.21541 3.21065 0
M  V30 10165 N 966.677 -1.24326 -0.968545 0
M  V30 10166 C 967.925 -1.08032 -1.70803 0
M  V30 10167 C 968.246 0.381728 -1.91227 0
M  V30 10168 O 967.516 1.27253 -1.48942 0
M  V30 10169 H 966.096 -0.396777 -0.632912 0
M  V30 10170 H 968.758 -1.56232 -1.16523 0
M  V30 10171 H 967.854 -1.57769 -2.69287 0
M  V30 10172 N 968.156 1.1691 -1.05688 0
M  V30 10173 C 969.381 1.91745 -0.790478 0
M  V30 10174 C 969.806 1.76568 0.648478 0
M  V30 10175 O 969.164 1.08682 1.45114 0
M  V30 10176 C 969.212 3.4067 -1.18222 0
M  V30 10177 O 968.316 4.11177 -0.317341 0
M  V30 10178 H 967.657 0.5976 -0.28943 0
M  V30 10179 H 970.187 1.48157 -1.41105 0
M  V30 10180 H 970.197 3.91424 -1.15114 0
M  V30 10181 H 968.872 3.51036 -2.2304 0
M  V30 10182 H 967.449 3.70645 -0.409459 0
M  V30 10183 N 969.634 0.838594 1.33437 0
M  V30 10184 C 970.88 0.434813 1.98084 0
M  V30 10185 C 971.213 -1.00331 1.66275 0
M  V30 10186 O 970.488 -1.70139 0.942501 0
M  V30 10187 C 970.771 0.655602 3.54082 0
M  V30 10188 C 970.624 2.14097 3.95578 0
M  V30 10189 C 971.943 0.101576 4.39983 0
M  V30 10190 H 969.062 0.159456 0.719544 0
M  V30 10191 H 971.704 1.05406 1.58081 0
M  V30 10192 H 969.854 0.128501 3.88287 0
M  V30 10193 H 971.526 2.73292 3.71631 0
M  V30 10194 H 969.769 2.62558 3.4532 0
M  V30 10195 H 970.44 2.24621 5.04231 0
M  V30 10196 H 972.916 0.552122 4.12421 0
M  V30 10197 H 971.792 0.28575 5.48156 0
M  V30 10198 H 972.053 -0.994616 4.30767 0
M  V30 10199 N 971.112 -1.45937 0.595003 0
M  V30 10200 C 972.075 -2.2888 -0.121102 0
M  V30 10201 C 973.075 -1.39075 -0.807149 0
M  V30 10202 O 974.265 -1.61326 -0.657228 0
M  V30 10203 C 971.397 -3.19778 -1.1813 0
M  V30 10204 H 972.59 -2.93673 0.607968 0
M  V30 10205 H 970.143 -1.5225 0.353495 0
M  V30 10206 H 970.878 -2.59759 -1.94154 0
M  V30 10207 H 970.663 -3.85914 -0.693724 0
M  V30 10208 H 972.153 -3.82176 -1.68319 0
M  V30 10209 N 972.59 -0.333456 -1.54032 0
M  V30 10210 C 973.82 0.267425 -2.04862 0
M  V30 10211 C 974.228 1.45559 -1.20869 0
M  V30 10212 O 973.571 1.82197 -0.234478 0
M  V30 10213 C 973.633 0.755759 -3.51466 0
M  V30 10214 C 973.297 -0.311409 -4.55938 0
M  V30 10215 C 974.294 -1.15078 -5.07004 0
M  V30 10216 C 971.979 -0.462439 -5.00167 0
M  V30 10217 C 973.973 -2.12682 -6.0087 0
M  V30 10218 C 971.66 -1.44188 -5.93846 0
M  V30 10219 C 972.658 -2.27253 -6.44085 0
M  V30 10220 O 972.346 -3.23532 -7.35923 0
M  V30 10221 H 972.078 0.0572596 -0.673571 0
M  V30 10222 H 974.632 -0.480646 -1.99697 0
M  V30 10223 H 972.862 1.55491 -3.54062 0
M  V30 10224 H 974.551 1.27607 -3.8532 0
M  V30 10225 H 975.317 -1.04513 -4.73605 0
M  V30 10226 H 971.196 0.17424 -4.60671 0
M  V30 10227 H 974.74 -2.77555 -6.40007 0
M  V30 10228 H 970.637 -1.54813 -6.2666 0
M  V30 10229 H 971.405 -3.18886 -7.53826 0
M  V30 10230 N 974.068 1.57479 -0.061844 0
M  V30 10231 C 975.314 1.93395 0.610443 0
M  V30 10232 C 975.647 0.941334 1.6986 0
M  V30 10233 O 974.922 -0.0310262 1.94475 0
M  V30 10234 C 975.205 3.39636 1.19664 0
M  V30 10235 C 975.058 4.49651 0.115805 0
M  V30 10236 C 976.377 3.86488 2.10512 0
M  V30 10237 H 973.496 0.703262 0.220436 0
M  V30 10238 H 976.138 1.89583 -0.125785 0
M  V30 10239 H 974.288 3.43015 1.82409 0
M  V30 10240 H 975.96 4.58397 -0.516728 0
M  V30 10241 H 974.203 4.30237 -0.55483 0
M  V30 10242 H 974.874 5.49089 0.566176 0
M  V30 10243 H 977.35 3.85052 1.57715 0
M  V30 10244 H 976.226 4.89444 2.48466 0
M  V30 10245 H 976.487 3.23856 3.00948 0
M  V30 10246 N 975.546 -0.211634 1.56173 0
M  V30 10247 C 976.771 -0.955324 1.84088 0
M  V30 10248 C 977.196 -1.76754 0.643407 0
M  V30 10249 O 976.554 -1.76653 -0.407842 0
M  V30 10250 C 976.602 -1.84063 3.10085 0
M  V30 10251 O 975.706 -2.9373 2.89476 0
M  V30 10252 H 975.047 -0.26996 0.606645 0
M  V30 10253 H 977.577 -0.221947 2.03393 0
M  V30 10254 H 977.587 -2.24852 3.40449 0
M  V30 10255 H 976.262 -1.24373 3.96868 0
M  V30 10256 H 974.839 -2.56816 2.7037 0
M  V30 10257 N 977.024 -1.50153 -0.478725 0
M  V30 10258 C 978.44 -1.3741 -0.811833 0
M  V30 10259 C 978.64 -0.424303 -1.96982 0
M  V30 10260 O 977.696 0.13588 -2.52134 0
M  V30 10261 C 979.009 -2.78616 -1.13108 0
M  V30 10262 C 980.557 -2.87477 -1.23798 0
M  V30 10263 C 981.032 -4.295 -1.5904 0
M  V30 10264 N 982.523 -4.32415 -1.66047 0
M  V30 10265 C 983.258 -5.39295 -1.94805 0
M  V30 10266 N 982.754 -6.56392 -2.21635 0
M  V30 10267 N 984.547 -5.26731 -1.96243 0
M  V30 10268 H 976.698 -2.10486 0.284531 0
M  V30 10269 H 978.961 -0.945786 0.0647585 0
M  V30 10270 H 978.667 -3.49921 -0.35334 0
M  V30 10271 H 978.541 -3.15382 -2.06915 0
M  V30 10272 H 980.928 -2.16396 -2.00641 0
M  V30 10273 H 981.009 -2.54264 -0.279888 0
M  V30 10274 H 980.653 -5.01115 -0.827404 0
M  V30 10275 H 980.583 -4.60194 -2.55987 0
M  V30 10276 H 983.074 -3.47975 -1.47383 0
M  V30 10277 H 983.387 -7.33658 -2.4283 0
M  V30 10278 H 981.732 -6.59579 -2.19043 0
M  V30 10279 H 984.923 -4.34249 -1.74773 0
M  V30 10280 H 985.096 -6.10115 -2.1832 0
M  V30 10281 N 978.502 0.731368 -1.39602 0
M  V30 10282 C 979.727 1.52567 -1.40492 0
M  V30 10283 C 980.152 1.881 -0.00228828 0
M  V30 10284 O 979.51 1.52167 0.985643 0
M  V30 10285 C 979.558 2.78749 -2.2876 0
M  V30 10286 O 978.662 3.7482 -1.71999 0
M  V30 10287 H 978.003 0.460601 -0.478271 0
M  V30 10288 H 980.533 0.902042 -1.83642 0
M  V30 10289 H 980.543 3.27446 -2.43399 0
M  V30 10290 H 979.218 2.5222 -3.30693 0
M  V30 10291 H 977.795 3.33604 -1.66622 0
M  V30 10292 N 979.98 1.24838 0.961938 0
M  V30 10293 C 981.228 1.08936 1.70227 0
M  V30 10294 C 981.549 -0.371582 1.91427 0
M  V30 10295 O 980.819 -1.26461 1.49614 0
M  V30 10296 H 979.399 0.400128 0.630799 0
M  V30 10297 H 982.061 1.56848 1.15692 0
M  V30 10298 H 981.157 1.59195 2.68446 0
M  V30 10299 N 981.458 -1.16348 1.06306 0
M  V30 10300 C 982.706 -1.86512 0.778311 0
M  V30 10301 C 983.027 -1.82107 -0.697273 0
M  V30 10302 O 982.297 -1.2547 -1.50446 0
M  V30 10303 H 980.877 -0.690529 0.284919 0
M  V30 10304 H 983.539 -1.41092 1.34458 0
M  V30 10305 H 982.635 -2.91947 1.10333 0
M  V30 10306 N 982.937 -0.845659 -1.3299 0
M  V30 10307 C 983.87 -0.228695 -2.27051 0
M  V30 10308 C 984.848 0.62812 -1.49978 0
M  V30 10309 O 986.032 0.586897 -1.79131 0
M  V30 10310 C 983.159 0.678251 -3.31839 0
M  V30 10311 C 982.205 -0.103994 -4.26373 0
M  V30 10312 S 983.038 -1.46642 -5.1503 0
M  V30 10313 C 984.194 -0.564953 -6.23345 0
M  V30 10314 H 984.427 -1.02609 -2.79032 0
M  V30 10315 H 981.96 -0.642786 -1.40384 0
M  V30 10316 H 983.918 1.1959 -3.92694 0
M  V30 10317 H 982.579 1.44937 -2.78661 0
M  V30 10318 H 981.772 0.586406 -5.00577 0
M  V30 10319 H 981.374 -0.552927 -3.6989 0
M  V30 10320 H 983.666 0.234466 -6.77094 0
M  V30 10321 H 984.609 -1.27736 -6.96483 0
M  V30 10322 H 985.017 -0.143286 -5.64318 0
M  V30 10323 N 984.415 1.45619 -0.602734 0
M  V30 10324 C 985.64 2.07157 -0.100429 0
M  V30 10325 C 986.065 1.44524 1.20393 0
M  V30 10326 O 985.423 0.536191 1.7319 0
M  V30 10327 C 985.471 3.60587 0.0308604 0
M  V30 10328 O 984.575 3.97944 1.08234 0
M  V30 10329 H 983.916 0.6601 -0.0718643 0
M  V30 10330 H 986.446 1.86948 -0.831366 0
M  V30 10331 H 986.456 4.07348 0.230634 0
M  V30 10332 H 985.131 4.05561 -0.921581 0
M  V30 10333 H 983.708 3.62862 0.859414 0
M  V30 10334 N 985.893 0.34162 1.53853 0
M  V30 10335 C 986.841 -0.531412 2.26448 0
M  V30 10336 C 987.835 -1.10357 1.28521 0
M  V30 10337 O 989.041 -1.04953 1.46236 0
M  V30 10338 H 985.416 -0.190054 0.727588 0
M  V30 10339 H 987.387 0.102922 2.98222 0
M  V30 10340 C 986.136 -1.67154 3.04885 0
M  V30 10341 H 985.459 -1.24055 3.80066 0
M  V30 10342 H 986.899 -2.25762 3.58898 0
M  V30 10343 C 985.358 -2.59984 2.14266 0
M  V30 10344 O 985.888 -3.62181 1.73746 0
M  V30 10345 N 984.094 -2.28625 1.79385 0
M  V30 10346 H 983.641 -1.45559 2.12533 0
M  V30 10347 H 983.599 -2.90995 1.19035 0
M  V30 10348 N 987.371 -1.57444 0.0701946 0
M  V30 10349 C 988.281 -2.16132 -0.912377 0
M  V30 10350 C 989.297 -1.12406 -1.32819 0
M  V30 10351 O 990.473 -1.44665 -1.40121 0
M  V30 10352 C 987.538 -2.71008 -2.16231 0
M  V30 10353 C 986.599 -3.896 -1.80306 0
M  V30 10354 C 985.832 -4.4185 -2.9934 0
M  V30 10355 O 986.055 -3.93106 -4.13309 0
M  V30 10356 O 984.989 -5.33201 -2.7925 0
M  V30 10357 H 988.815 -3.00449 -0.443167 0
M  V30 10358 H 986.4 -1.48617 -0.152786 0
M  V30 10359 H 988.282 -3.06186 -2.8953 0
M  V30 10360 H 986.957 -1.8975 -2.62253 0
M  V30 10361 H 985.864 -3.59277 -1.04264 0
M  V30 10362 H 987.197 -4.72145 -1.39068 0
M  V30 10363 N 988.849 0.203349 -1.56283 0
M  V30 10364 C 989.779 1.2549 -1.96912 0
M  V30 10365 C 990.76 1.47919 -0.839884 0
M  V30 10366 O 991.945 1.59795 -1.10359 0
M  V30 10367 C 989.075 2.6009 -2.30153 0
M  V30 10368 C 988.029 2.52289 -3.45738 0
M  V30 10369 C 987.355 3.91086 -3.64632 0
M  V30 10370 C 988.655 2.05503 -4.80173 0
M  V30 10371 H 990.349 0.917306 -2.85002 0
M  V30 10372 H 987.895 0.439818 -1.37119 0
M  V30 10373 H 989.848 3.33829 -2.5717 0
M  V30 10374 H 988.572 2.95574 -1.38937 0
M  V30 10375 H 987.231 1.81006 -3.18798 0
M  V30 10376 H 986.879 4.23908 -2.7076 0
M  V30 10377 H 986.579 3.86742 -4.42385 0
M  V30 10378 H 988.103 4.66459 -3.94016 0
M  V30 10379 H 989.517 2.68995 -5.06275 0
M  V30 10380 H 987.914 2.1218 -5.61337 0
M  V30 10381 H 988.984 1.00793 -4.74309 0
M  V30 10382 N 990.327 1.50405 0.470755 0
M  V30 10383 C 991.275 1.6982 1.58946 0
M  V30 10384 C 992.269 0.56407 1.59733 0
M  V30 10385 O 993.475 0.744576 1.63878 0
M  V30 10386 H 989.85 0.536016 0.527438 0
M  V30 10387 H 991.821 2.63662 1.39732 0
M  V30 10388 C 990.57 1.80986 2.96883 0
M  V30 10389 H 989.893 2.67645 2.96996 0
M  V30 10390 H 991.333 1.98596 3.74614 0
M  V30 10391 C 989.792 0.561551 3.32187 0
M  V30 10392 O 990.322 -0.299136 4.00585 0
M  V30 10393 N 988.528 0.415476 2.87615 0
M  V30 10394 H 988.075 1.11691 2.32127 0
M  V30 10395 H 988.033 -0.418592 3.11601 0
M  V30 10396 N 991.805 -0.723954 1.39988 0
M  V30 10397 C 992.753 -1.85938 1.39749 0
M  V30 10398 C 993.747 -1.67085 0.279112 0
M  V30 10399 O 994.953 -1.74291 0.44972 0
M  V30 10400 H 991.328 -0.612246 0.436644 0
M  V30 10401 H 993.299 -1.83255 2.355 0
M  V30 10402 C 992.048 -3.23726 1.26874 0
M  V30 10403 H 991.371 -3.38835 2.12206 0
M  V30 10404 H 992.811 -4.03332 1.30765 0
M  V30 10405 C 991.27 -3.36893 -0.0218317 0
M  V30 10406 O 991.8 -3.89363 -0.987905 0
M  V30 10407 N 990.006 -2.90465 -0.0885618 0
M  V30 10408 H 989.553 -2.47954 0.698314 0
M  V30 10409 H 989.511 -2.99654 -0.951557 0
M  V30 10410 N 993.283 -1.25346 -0.955304 0
M  V30 10411 C 994.532 -1.0945 -1.69421 0
M  V30 10412 C 994.845 0.364459 -1.92175 0
M  V30 10413 O 996.051 0.643843 -2.63755 0
M  V30 10414 C 994.507 -1.91045 -3.05008 0
M  V30 10415 C 994.115 -3.41428 -2.90053 0
M  V30 10416 C 995.859 -1.83716 -3.82686 0
M  V30 10417 C 993.766 -4.1532 -4.21026 0
M  V30 10418 H 992.696 -0.405978 -0.635372 0
M  V30 10419 H 995.347 -1.49536 -1.06354 0
M  V30 10420 H 993.729 -1.43781 -3.68975 0
M  V30 10421 H 994.903 -3.9636 -2.35022 0
M  V30 10422 H 993.218 -3.49842 -2.25831 0
M  V30 10423 H 995.815 -2.36217 -4.79693 0
M  V30 10424 H 996.158 -0.804919 -4.08444 0
M  V30 10425 H 996.691 -2.28726 -3.25468 0
M  V30 10426 H 993.43 -5.18955 -4.00457 0
M  V30 10427 H 992.95 -3.65172 -4.75825 0
M  V30 10428 H 994.629 -4.22999 -4.89572 0
M  V30 10429 N 994.761 1.15782 -1.06922 0
M  V30 10430 C 996.01 1.85807 -0.784774 0
M  V30 10431 C 996.323 1.82967 0.691551 0
M  V30 10432 O 997.529 2.48632 1.0906 0
M  V30 10433 C 995.985 3.33469 -1.35375 0
M  V30 10434 C 995.593 3.44766 -2.86077 0
M  V30 10435 C 997.337 4.08707 -1.14713 0
M  V30 10436 C 995.244 4.86551 -3.36187 0
M  V30 10437 H 994.174 0.696046 -0.28989 0
M  V30 10438 H 996.825 1.30629 -1.28873 0
M  V30 10439 H 995.207 3.88292 -0.77754 0
M  V30 10440 H 996.381 3.00073 -3.49704 0
M  V30 10441 H 994.696 2.82969 -3.05479 0
M  V30 10442 H 997.293 5.13336 -1.49633 0
M  V30 10443 H 997.636 4.16211 -0.0858868 0
M  V30 10444 H 998.169 3.60142 -1.68946 0
M  V30 10445 H 994.908 4.84229 -4.41818 0
M  V30 10446 H 994.428 5.31844 -2.77312 0
M  V30 10447 H 996.107 5.55392 -3.31887 0
M  V30 10448 N 996.239 0.8527 1.3254 0
M  V30 10449 C 997.464 0.468157 2.02047 0
M  V30 10450 C 997.889 -0.926967 1.63673 0
M  V30 10451 O 997.247 -1.60855 0.836378 0
M  V30 10452 C 997.295 0.612519 3.5536 0
M  V30 10453 O 996.399 -0.355506 4.10865 0
M  V30 10454 H 995.74 0.188401 0.636711 0
M  V30 10455 H 998.27 1.15135 1.6913 0
M  V30 10456 H 998.28 0.499315 4.04933 0
M  V30 10457 H 996.955 1.62988 3.82632 0
M  V30 10458 H 995.532 -0.198703 3.7237 0
M  V30 10459 N 997.718 -1.45297 0.610449 0
M  V30 10460 C 999.134 -1.57225 0.274332 0
M  V30 10461 C 999.334 -1.60136 -1.22306 0
M  V30 10462 O 998.39 -1.5332 -2.00622 0
M  V30 10463 C 999.703 -2.85365 0.948028 0
M  V30 10464 C 1001.25 -2.99044 0.924216 0
M  V30 10465 C 1001.73 -4.29958 1.57798 0
M  V30 10466 N 1003.22 -4.36723 1.5436 0
M  V30 10467 C 1003.95 -5.36695 2.01857 0
M  V30 10468 N 1003.45 -6.43187 2.57453 0
M  V30 10469 N 1005.24 -5.28071 1.92608 0
M  V30 10470 H 997.392 -1.41651 1.58268 0
M  V30 10471 H 999.655 -0.67744 0.663158 0
M  V30 10472 H 999.361 -2.89125 2.00249 0
M  V30 10473 H 999.235 -3.74222 0.473062 0
M  V30 10474 H 1001.62 -2.94849 -0.121709 0
M  V30 10475 H 1001.7 -2.1159 1.43748 0
M  V30 10476 H 1001.35 -4.34912 2.62325 0
M  V30 10477 H 1001.28 -5.16234 1.03972 0
M  V30 10478 H 1003.77 -3.60374 1.13749 0
M  V30 10479 H 1004.08 -7.15722 2.91482 0
M  V30 10480 H 1002.43 -6.4393 2.61493 0
M  V30 10481 H 1005.62 -4.43783 1.48912 0
M  V30 10482 H 1005.79 -6.05832 2.29938 0
M  V30 10483 N 999.196 -0.349774 -1.5367 0
M  V30 10484 C 1000.42 0.246038 -2.05432 0
M  V30 10485 C 1000.84 1.43719 -1.22435 0
M  V30 10486 O 1000.2 1.80622 -0.261166 0
M  V30 10487 C 1000.25 0.65501 -3.55516 0
M  V30 10488 O 999.968 -0.488782 -4.35365 0
M  V30 10489 C 1001.47 1.31088 -4.23475 0
M  V30 10490 H 998.689 0.0463952 -0.669394 0
M  V30 10491 H 1001.23 -0.503566 -1.98203 0
M  V30 10492 H 999.388 1.35455 -3.62947 0
M  V30 10493 H 999.802 -0.161528 -5.24251 0
M  V30 10494 H 1001.28 1.54774 -5.29857 0
M  V30 10495 H 1001.75 2.26636 -3.76208 0
M  V30 10496 H 1002.36 0.653211 -4.20254 0
M  V30 10497 N 1000.67 1.57404 -0.0785433 0
M  V30 10498 C 1001.9 1.98074 0.597862 0
M  V30 10499 C 1002.32 0.95714 1.6274 0
M  V30 10500 O 1001.67 -0.0553728 1.82416 0
M  V30 10501 C 1001.72 3.38815 1.26041 0
M  V30 10502 O 1001.45 4.37254 0.27207 0
M  V30 10503 C 1002.95 3.94397 2.024 0
M  V30 10504 H 1000.17 0.651263 0.161546 0
M  V30 10505 H 1002.71 2.03927 -0.152941 0
M  V30 10506 H 1000.87 3.34028 1.96225 0
M  V30 10507 H 1001.28 5.19136 0.74822 0
M  V30 10508 H 1002.75 4.95075 2.4414 0
M  V30 10509 H 1003.23 3.31308 2.88326 0
M  V30 10510 H 1003.84 4.02607 1.37068 0
M  V30 10511 N 1002.15 -0.195058 1.56388 0
M  V30 10512 C 1003.43 -0.941335 1.71459 0
M  V30 10513 C 1003.81 -2.01375 0.633336 0
M  V30 10514 O 1003.16 -2.25715 -0.35567 0
M  V30 10515 C 1003.37 -1.52772 3.13786 0
M  V30 10516 C 1004.71 -2.00983 3.7402 0
M  V30 10517 O 1005.74 -1.62614 3.16915 0
M  V30 10518 O 1004.6 -2.71586 4.7424 0
M  V30 10519 H 1001.69 -0.441451 0.699321 0
M  V30 10520 H 1004.24 -0.184752 1.68691 0
M  V30 10521 H 1003.01 -0.754699 3.83953 0
M  V30 10522 H 1002.63 -2.34914 3.20782 0
M  V30 10523 N 1003.63 -1.50653 -0.462772 0
M  V30 10524 C 1004.88 -1.61737 -1.21184 0
M  V30 10525 C 1005.2 -0.32369 -1.92295 0
M  V30 10526 O 1004.47 0.659269 -1.84473 0
M  V30 10527 H 1003.05 -0.596015 -0.450306 0
M  V30 10528 H 1005.71 -1.87469 -0.533051 0
M  V30 10529 H 1004.81 -2.43262 -1.95525 0
M  V30 10530 N 1005.11 0.71652 -1.4037 0
M  V30 10531 C 1006.35 1.47857 -1.38803 0
M  V30 10532 C 1006.69 1.94197 0.0100536 0
M  V30 10533 O 1005.96 1.68093 0.978521 0
M  V30 10534 C 1006.25 2.7053 -2.37667 0
M  V30 10535 C 1006.1 2.3009 -3.86496 0
M  V30 10536 C 1007.42 3.72684 -2.34082 0
M  V30 10537 H 1004.54 0.53632 -0.505499 0
M  V30 10538 H 1007.18 0.817824 -1.71498 0
M  V30 10539 H 1005.33 3.26906 -2.09916 0
M  V30 10540 H 1007 1.79202 -4.2507 0
M  V30 10541 H 1005.24 1.62102 -4.02375 0
M  V30 10542 H 1005.91 3.18018 -4.51186 0
M  V30 10543 H 1008.39 3.25935 -2.58661 0
M  V30 10544 H 1007.27 4.56157 -3.05306 0
M  V30 10545 H 1007.53 4.20916 -1.35213 0
M  V30 10546 N 1006.59 1.25851 0.948643 0
M  V30 10547 C 1007.82 1.13546 1.726 0
M  V30 10548 C 1008.22 -0.312857 1.86595 0
M  V30 10549 O 1007.57 -1.22657 1.36751 0
M  V30 10550 C 1007.63 1.72315 3.15512 0
M  V30 10551 C 1007.29 3.2136 3.24926 0
M  V30 10552 C 1008.29 4.18274 3.08777 0
M  V30 10553 C 1005.98 3.61683 3.48555 0
M  V30 10554 C 1007.97 5.53491 3.16112 0
M  V30 10555 C 1005.66 4.97035 3.55526 0
M  V30 10556 C 1006.65 5.92749 3.3932 0
M  V30 10557 O 1006.34 7.25637 3.45985 0
M  V30 10558 H 1006.07 0.396555 0.547467 0
M  V30 10559 H 1008.63 1.66822 1.19832 0
M  V30 10560 H 1006.86 1.13494 3.6967 0
M  V30 10561 H 1008.55 1.55024 3.7513 0
M  V30 10562 H 1009.31 3.88461 2.90385 0
M  V30 10563 H 1005.19 2.87674 3.60229 0
M  V30 10564 H 1008.74 6.28177 3.0338 0
M  V30 10565 H 1004.63 5.26512 3.73437 0
M  V30 10566 H 1005.4 7.33812 3.62577 0
M  V30 10567 N 1008.06 -1.15214 1.07534 0
M  V30 10568 C 1008.97 -2.23636 0.708818 0
M  V30 10569 C 1009.99 -1.7172 -0.280759 0
M  V30 10570 O 1011.17 -2.01 -0.126927 0
M  V30 10571 C 1008.23 -3.46512 0.114167 0
M  V30 10572 C 1007.29 -4.13409 1.15722 0
M  V30 10573 C 1006.53 -5.30419 0.59085 0
M  V30 10574 O 1006.75 -5.67314 -0.592512 0
M  V30 10575 O 1005.68 -5.86871 1.33663 0
M  V30 10576 H 1009.51 -2.57322 1.61305 0
M  V30 10577 H 1007.09 -1.22972 0.848422 0
M  V30 10578 H 1008.98 -4.20851 -0.215091 0
M  V30 10579 H 1007.65 -3.1457 -0.763356 0
M  V30 10580 H 1006.56 -3.40984 1.53886 0
M  V30 10581 H 1007.89 -4.49435 2.00671 0
M  V30 10582 N 1009.54 -0.859717 -1.32086 0
M  V30 10583 C 1010.79 -0.464662 -1.96686 0
M  V30 10584 C 1011.11 0.98412 -1.68345 0
M  V30 10585 O 1010.38 1.68847 -0.993361 0
M  V30 10586 H 1008.96 -0.168838 -0.727669 0
M  V30 10587 H 1011.62 -1.09726 -1.61079 0
M  V30 10588 H 1010.72 -0.613904 -3.06003 0
M  V30 10589 N 1011.02 1.44971 -0.618145 0
M  V30 10590 C 1012.27 2.02458 -0.117656 0
M  V30 10591 C 1012.6 1.48413 1.25248 0
M  V30 10592 O 1011.87 0.662997 1.82851 0
M  V30 10593 C 1012.16 3.59987 -0.0901897 0
M  V30 10594 C 1012.01 4.24343 -1.49175 0
M  V30 10595 C 1013.33 4.36099 0.592121 0
M  V30 10596 H 1010.45 0.735672 -0.0442291 0
M  V30 10597 H 1013.09 1.727 -0.792138 0
M  V30 10598 H 1011.24 3.85471 0.484175 0
M  V30 10599 H 1012.91 4.10009 -2.114 0
M  V30 10600 H 1011.16 3.82337 -2.04941 0
M  V30 10601 H 1011.83 5.33298 -1.42468 0
M  V30 10602 H 1014.3 4.1597 0.103813 0
M  V30 10603 H 1013.18 5.45822 0.580481 0
M  V30 10604 H 1013.44 4.09746 1.66015 0
M  V30 10605 N 1012.5 0.357919 1.53482 0
M  V30 10606 C 1013.46 -0.479797 2.24122 0
M  V30 10607 C 1014.46 -1.01596 1.24639 0
M  V30 10608 O 1015.65 -0.902928 1.48973 0
M  V30 10609 C 1012.78 -1.66983 2.97203 0
M  V30 10610 H 1013.98 0.138219 2.99581 0
M  V30 10611 H 1011.53 0.109484 1.55916 0
M  V30 10612 H 1012.26 -2.32615 2.25966 0
M  V30 10613 H 1012.05 -1.29242 3.70188 0
M  V30 10614 H 1013.54 -2.26367 3.50924 0
M  V30 10615 N 1013.98 -1.5736 0.0868897 0
M  V30 10616 C 1015.23 -1.93229 -0.578387 0
M  V30 10617 C 1015.54 -0.970127 -1.69847 0
M  V30 10618 O 1016.74 -1.22222 -2.42434 0
M  V30 10619 C 1015.2 -3.43307 -1.0802 0
M  V30 10620 C 1014.81 -4.47999 0.00968135 0
M  V30 10621 C 1016.55 -3.88151 -1.71868 0
M  V30 10622 C 1014.46 -5.89223 -0.507029 0
M  V30 10623 H 1013.39 -0.721245 -0.219823 0
M  V30 10624 H 1016.04 -1.82787 0.161566 0
M  V30 10625 H 1014.42 -3.48873 -1.87359 0
M  V30 10626 H 1015.6 -4.54067 0.784865 0
M  V30 10627 H 1013.91 -4.12714 0.552845 0
M  V30 10628 H 1016.51 -4.91056 -2.11585 0
M  V30 10629 H 1016.85 -3.26347 -2.58464 0
M  V30 10630 H 1017.38 -3.85252 -0.991259 0
M  V30 10631 H 1014.12 -6.54708 0.322121 0
M  V30 10632 H 1013.64 -5.86643 -1.2494 0
M  V30 10633 H 1015.32 -6.39556 -0.978628 0
M  V30 10634 N 1015.45 0.186762 -1.56489 0
M  V30 10635 C 1016.7 0.904063 -1.80752 0
M  V30 10636 C 1017.02 1.83443 -0.661343 0
M  V30 10637 O 1016.29 1.93272 0.319811 0
M  V30 10638 H 1014.87 0.336828 -0.66675 0
M  V30 10639 H 1017.54 0.190275 -1.93969 0
M  V30 10640 H 1016.63 1.49021 -2.74225 0
M  V30 10641 N 1016.93 1.50896 0.454776 0
M  V30 10642 C 1018.18 1.62378 1.20324 0
M  V30 10643 C 1018.5 0.333883 1.9212 0
M  V30 10644 O 1017.77 -0.649477 1.8482 0
M  V30 10645 H 1016.35 0.598395 0.447139 0
M  V30 10646 H 1019.01 1.87749 0.523102 0
M  V30 10647 H 1018.11 2.44296 1.94232 0
M  V30 10648 N 1018.41 -0.709066 1.40748 0
M  V30 10649 C 1019.69 -1.4626 1.29874 0
M  V30 10650 C 1020.07 -2.10949 -0.0799322 0
M  V30 10651 O 1019.42 -2.00651 -1.09323 0
M  V30 10652 C 1019.63 -2.49302 2.44232 0
M  V30 10653 C 1020.97 -3.14945 2.84771 0
M  V30 10654 O 1022 -2.59623 2.43873 0
M  V30 10655 O 1020.86 -4.15111 3.5545 0
M  V30 10656 H 1017.95 -0.650716 0.51039 0
M  V30 10657 H 1020.5 -0.740687 1.52682 0
M  V30 10658 H 1019.27 -2.00063 3.36289 0
M  V30 10659 H 1018.89 -3.29021 2.23229 0
M  V30 10660 N 1019.89 -1.26353 -0.941956 0
M  V30 10661 C 1021.31 -1.03448 -1.21534 0
M  V30 10662 C 1021.51 0.240855 -2.00055 0
M  V30 10663 O 1020.56 0.950199 -2.33939 0
M  V30 10664 C 1021.87 -2.2654 -1.97737 0
M  V30 10665 C 1023.42 -2.31433 -2.10731 0
M  V30 10666 C 1023.9 -3.54216 -2.90336 0
M  V30 10667 N 1025.39 -3.54688 -2.9791 0
M  V30 10668 C 1026.12 -4.4636 -3.59931 0
M  V30 10669 N 1025.62 -5.48319 -4.2346 0
M  V30 10670 N 1027.41 -4.34013 -3.57196 0
M  V30 10671 H 1019.56 -2.08266 -0.417005 0
M  V30 10672 H 1021.83 -0.915251 -0.247021 0
M  V30 10673 H 1021.53 -3.19299 -1.47449 0
M  V30 10674 H 1021.41 -2.30726 -2.98405 0
M  V30 10675 H 1023.79 -1.3919 -2.60212 0
M  V30 10676 H 1023.87 -2.31259 -1.09329 0
M  V30 10677 H 1023.52 -4.46788 -2.41543 0
M  V30 10678 H 1023.45 -3.51637 -3.91993 0
M  V30 10679 H 1025.94 -2.80942 -2.52745 0
M  V30 10680 H 1026.25 -6.14458 -4.6868 0
M  V30 10681 H 1024.6 -5.52177 -4.22049 0
M  V30 10682 H 1027.79 -3.53578 -3.06758 0
M  V30 10683 H 1027.96 -5.0565 -4.05244 0
M  V30 10684 N 1021.37 1.14642 -1.08144 0
M  V30 10685 C 1022.6 1.89209 -0.82966 0
M  V30 10686 C 1023.01 1.78697 0.621604 0
M  V30 10687 O 1022.35 1.14224 1.4387 0
M  V30 10688 C 1022.41 3.39958 -1.16915 0
M  V30 10689 C 1022.07 3.74254 -2.62264 0
M  V30 10690 C 1023.07 3.746 -3.60514 0
M  V30 10691 C 1020.76 4.04316 -2.9805 0
M  V30 10692 C 1022.75 4.04527 -4.92582 0
M  V30 10693 C 1020.44 4.33906 -4.30312 0
M  V30 10694 C 1021.44 4.33995 -5.27388 0
M  V30 10695 O 1021.12 4.62869 -6.57273 0
M  V30 10696 H 1020.86 0.606259 -0.299042 0
M  V30 10697 H 1023.41 1.46132 -1.44342 0
M  V30 10698 H 1021.64 3.83475 -0.498377 0
M  V30 10699 H 1023.33 3.95828 -0.89862 0
M  V30 10700 H 1024.09 3.51466 -3.34211 0
M  V30 10701 H 1019.97 4.03402 -2.23132 0
M  V30 10702 H 1023.52 4.04511 -5.68346 0
M  V30 10703 H 1019.41 4.5651 -4.56365 0
M  V30 10704 H 1020.18 4.80598 -6.62546 0
M  V30 10705 N 1022.85 0.866709 1.31628 0
M  V30 10706 C 1024.26 0.529032 1.79048 0
M  V30 10707 C 1024.61 -0.953871 1.71452 0
M  V30 10708 O 1023.73 -1.74462 1.28031 0
M  V30 10709 C 1024.33 0.953522 3.25105 0
M  V30 10710 C 1022.89 0.667554 3.70433 0
M  V30 10711 C 1022.03 1.14664 2.52483 0
M  V30 10712 H 1024.98 1.05275 1.18756 0
M  V30 10713 H 1025.01 0.274844 3.79506 0
M  V30 10714 H 1024.52 2.03283 3.30602 0
M  V30 10715 H 1022.62 -0.400532 3.70441 0
M  V30 10716 H 1022.73 1.2423 4.62714 0
M  V30 10717 H 1021.1 0.566502 2.4832 0
M  V30 10718 H 1021.88 2.2333 2.60727 0
M  V30 10719 N 1024.32 -1.44642 0.625825 0
M  V30 10720 C 1025.57 -2.01695 0.127948 0
M  V30 10721 C 1025.89 -1.49439 -1.25271 0
M  V30 10722 O 1025.16 -0.695873 -1.83124 0
M  V30 10723 H 1023.74 -0.745685 0.0443096 0
M  V30 10724 H 1026.4 -1.7721 0.811332 0
M  V30 10725 H 1025.5 -3.11966 0.0915933 0
M  V30 10726 N 1025.8 -0.366053 -1.5329 0
M  V30 10727 C 1027.03 0.226839 -2.06156 0
M  V30 10728 C 1027.45 1.41637 -1.23776 0
M  V30 10729 O 1026.81 1.7947 -0.256948 0
M  V30 10730 C 1026.86 0.597956 -3.55608 0
M  V30 10731 O 1025.96 1.69512 -3.75951 0
M  V30 10732 H 1025.3 0.0329156 -0.663184 0
M  V30 10733 H 1027.83 -0.526793 -1.97702 0
M  V30 10734 H 1027.84 0.868831 -3.98642 0
M  V30 10735 H 1026.52 -0.271838 -4.15011 0
M  V30 10736 H 1025.09 1.41976 -3.44815 0
M  V30 10737 N 1027.28 1.57312 -0.0952337 0
M  V30 10738 C 1028.51 1.98697 0.57682 0
M  V30 10739 C 1028.92 0.974347 1.61716 0
M  V30 10740 O 1028.28 -0.036022 1.82464 0
M  V30 10741 C 1028.33 3.40133 1.2244 0
M  V30 10742 O 1028.05 4.37518 0.225678 0
M  V30 10743 C 1029.55 3.96522 1.98205 0
M  V30 10744 H 1026.77 0.65294 0.154629 0
M  V30 10745 H 1029.32 2.03754 -0.174562 0
M  V30 10746 H 1027.47 3.3609 1.92671 0
M  V30 10747 H 1027.89 5.199 0.693116 0
M  V30 10748 H 1029.36 4.97637 2.38875 0
M  V30 10749 H 1029.84 3.34347 2.84796 0
M  V30 10750 H 1030.44 4.04038 1.3279 0
M  V30 10751 N 1028.76 -0.17846 1.56586 0
M  V30 10752 C 1030 -0.896235 1.81587 0
M  V30 10753 C 1030.33 -1.82553 0.671168 0
M  V30 10754 O 1029.59 -1.92688 -0.342046 0
M  V30 10755 C 1029.89 -1.73063 3.12704 0
M  V30 10756 C 1029.55 -0.950877 4.4076 0
M  V30 10757 C 1028.21 -0.735647 4.75544 0
M  V30 10758 C 1030.57 -0.403419 5.19636 0
M  V30 10759 C 1027.89 0.0382562 5.86688 0
M  V30 10760 C 1030.25 0.357359 6.3159 0
M  V30 10761 C 1028.91 0.583455 6.64945 0
M  V30 10762 H 1028.18 -0.327956 0.664474 0
M  V30 10763 H 1030.83 -0.161586 1.90817 0
M  V30 10764 H 1029.13 -2.53446 2.98785 0
M  V30 10765 H 1030.83 -2.28891 3.29257 0
M  V30 10766 H 1027.42 -1.12866 4.13472 0
M  V30 10767 H 1031.6 -0.557059 4.93164 0
M  V30 10768 H 1026.86 0.223237 6.10992 0
M  V30 10769 H 1031.03 0.788861 6.91918 0
M  V30 10770 H 1028.66 1.18502 7.50907 0
M  V30 10771 N 1030.24 -1.51135 -0.446768 0
M  V30 10772 C 1031.17 -1.66438 -1.56121 0
M  V30 10773 C 1032.15 -0.512061 -1.54327 0
M  V30 10774 O 1033.33 -0.734702 -1.73593 0
M  V30 10775 C 1030.46 -1.66932 -2.94706 0
M  V30 10776 C 1029.5 -2.88016 -3.14562 0
M  V30 10777 S 1030.34 -4.48973 -2.91863 0
M  V30 10778 C 1031.49 -4.52196 -4.32746 0
M  V30 10779 H 1031.73 -2.60702 -1.42904 0
M  V30 10780 H 1029.26 -1.40701 -0.635812 0
M  V30 10781 H 1031.22 -1.679 -3.74593 0
M  V30 10782 H 1029.88 -0.738607 -3.05292 0
M  V30 10783 H 1029.07 -2.84735 -4.15863 0
M  V30 10784 H 1028.67 -2.8474 -2.42485 0
M  V30 10785 H 1030.96 -4.27256 -5.25793 0
M  V30 10786 H 1031.91 -5.53957 -4.41064 0
M  V30 10787 H 1032.32 -3.81624 -4.15961 0
M  V30 10788 N 1031.71 0.701592 -1.41122 0
M  V30 10789 C 1032.99 1.45569 -1.30648 0
M  V30 10790 C 1033.37 2.10988 0.068744 0
M  V30 10791 O 1032.72 2.01228 1.08257 0
M  V30 10792 C 1032.93 2.48003 -2.45551 0
M  V30 10793 C 1034.28 3.13431 -2.86437 0
M  V30 10794 O 1035.3 2.58327 -2.45247 0
M  V30 10795 O 1034.16 4.13221 -3.57646 0
M  V30 10796 H 1031.25 0.648 -0.513834 0
M  V30 10797 H 1033.8 0.73258 -1.53073 0
M  V30 10798 H 1032.57 1.98276 -3.37346 0
M  V30 10799 H 1032.19 3.27832 -2.24971 0
M  V30 10800 N 1033.19 1.2685 0.935242 0
M  V30 10801 C 1034.14 1.05586 2.02078 0
M  V30 10802 C 1035.13 -0.013699 1.60894 0
M  V30 10803 O 1036.32 0.203956 1.75821 0
M  V30 10804 C 1033.45 0.697118 3.36148 0
M  V30 10805 C 1032.53 1.80444 3.83798 0
M  V30 10806 N 1032.92 3.04283 4.04037 0
M  V30 10807 C 1031.22 1.68939 4.12766 0
M  V30 10808 C 1031.92 3.7629 4.436 0
M  V30 10809 N 1030.9 3.04011 4.50642 0
M  V30 10810 H 1034.7 1.99577 2.15746 0
M  V30 10811 H 1032.21 1.17455 1.12153 0
M  V30 10812 H 1034.21 0.525915 4.1357 0
M  V30 10813 H 1032.87 -0.235247 3.23847 0
M  V30 10814 H 1033.88 3.40125 3.90558 0
M  V30 10815 H 1030.56 0.827341 4.0922 0
M  V30 10816 H 1031.95 4.82687 4.67401 0
M  V30 10817 N 1034.67 -1.14067 1.0875 0
M  V30 10818 C 1035.92 -1.85459 0.82053 0
M  V30 10819 C 1036.25 -1.82923 -0.65213 0
M  V30 10820 O 1035.52 -1.26241 -1.47965 0
M  V30 10821 C 1035.81 -3.33937 1.34752 0
M  V30 10822 C 1035.66 -3.45026 2.88578 0
M  V30 10823 C 1036.98 -4.2915 0.975636 0
M  V30 10824 H 1034.1 -0.673384 0.299538 0
M  V30 10825 H 1036.74 -1.33927 1.34772 0
M  V30 10826 H 1034.89 -3.77953 0.899086 0
M  V30 10827 H 1036.56 -3.09771 3.41818 0
M  V30 10828 H 1034.81 -2.86124 3.26061 0
M  V30 10829 H 1035.48 -4.49408 3.20526 0
M  V30 10830 H 1037.95 -3.93168 1.36228 0
M  V30 10831 H 1036.83 -5.31489 1.37152 0
M  V30 10832 H 1037.09 -4.41945 -0.116956 0
M  V30 10833 N 1036.15 -0.873678 -1.31166 0
M  V30 10834 C 1037.08 -0.348011 -2.30892 0
M  V30 10835 C 1038.06 0.563092 -1.60509 0
M  V30 10836 O 1039.24 0.479332 -1.88192 0
M  V30 10837 C 1036.37 0.448158 -3.44396 0
M  V30 10838 C 1035.33 -0.370179 -4.26396 0
M  V30 10839 C 1034.65 0.551903 -5.31844 0
M  V30 10840 C 1035.95 -1.60624 -4.96988 0
M  V30 10841 H 1037.65 -1.18134 -2.75109 0
M  V30 10842 H 1035.19 -0.569502 -1.3226 0
M  V30 10843 H 1037.15 0.826458 -4.13216 0
M  V30 10844 H 1035.87 1.31503 -2.98956 0
M  V30 10845 H 1034.53 -0.730472 -3.59249 0
M  V30 10846 H 1034.18 1.41616 -4.82653 0
M  V30 10847 H 1033.88 0.00823478 -5.87599 0
M  V30 10848 H 1035.4 0.926965 -6.03523 0
M  V30 10849 H 1036.82 -1.29917 -5.58386 0
M  V30 10850 H 1035.21 -2.08926 -5.62557 0
M  V30 10851 H 1036.28 -2.357 -4.23761 0
M  V30 10852 N 1037.63 1.44308 -0.633487 0
M  V30 10853 C 1039.04 1.56768 -0.29931 0
M  V30 10854 C 1039.24 1.62061 1.19743 0
M  V30 10855 O 1038.3 1.56492 1.98158 0
M  V30 10856 C 1039.61 2.8382 -0.993307 0
M  V30 10857 C 1041.16 2.97536 -0.971674 0
M  V30 10858 C 1041.63 4.27393 -1.64618 0
M  V30 10859 N 1043.13 4.34212 -1.61288 0
M  V30 10860 C 1043.86 5.33415 -2.1037 0
M  V30 10861 N 1043.36 6.3901 -2.67653 0
M  V30 10862 N 1045.15 5.24939 -2.00985 0
M  V30 10863 H 1037.3 1.39115 -1.60501 0
M  V30 10864 H 1039.56 0.666804 -0.673852 0
M  V30 10865 H 1039.27 2.85902 -2.04823 0
M  V30 10866 H 1039.14 3.73422 -0.532537 0
M  V30 10867 H 1041.53 2.95005 0.0747854 0
M  V30 10868 H 1041.61 2.09276 -1.47096 0
M  V30 10869 H 1041.26 4.30683 -2.6921 0
M  V30 10870 H 1041.19 5.14515 -1.12171 0
M  V30 10871 H 1043.68 3.58519 -1.19468 0
M  V30 10872 H 1043.99 7.10994 -3.02831 0
M  V30 10873 H 1042.33 6.39689 -2.71705 0
M  V30 10874 H 1045.53 4.41357 -1.55953 0
M  V30 10875 H 1045.7 6.02097 -2.39547 0
M  V30 10876 N 1039.1 0.374177 1.53094 0
M  V30 10877 C 1040.33 -0.213015 2.05499 0
M  V30 10878 C 1040.74 -1.42303 1.24686 0
M  V30 10879 O 1040.09 -1.81512 0.282702 0
M  V30 10880 C 1040.15 -0.662308 3.53346 0
M  V30 10881 C 1039.81 0.432183 4.54952 0
M  V30 10882 C 1040.81 1.2848 5.03775 0
M  V30 10883 C 1038.49 0.594887 4.98765 0
M  V30 10884 C 1040.49 2.28538 5.9502 0
M  V30 10885 C 1038.17 1.59882 5.89814 0
M  V30 10886 C 1039.17 2.4425 6.37833 0
M  V30 10887 O 1038.86 3.4293 7.27086 0
M  V30 10888 H 1038.59 -0.0393809 0.674852 0
M  V30 10889 H 1041.15 0.533423 1.98353 0
M  V30 10890 H 1039.38 -1.46049 3.5806 0
M  V30 10891 H 1041.07 -1.17347 3.88567 0
M  V30 10892 H 1041.83 1.17033 4.70668 0
M  V30 10893 H 1037.71 -0.0520401 4.60971 0
M  V30 10894 H 1041.25 2.94426 6.32423 0
M  V30 10895 H 1037.15 1.71373 6.22335 0
M  V30 10896 H 1037.92 3.3876 7.45107 0
M  V30 10897 N 1040.58 -1.57259 0.103575 0
M  V30 10898 C 1041.51 -2.1153 -0.882472 0
M  V30 10899 C 1042.53 -1.05446 -1.24036 0
M  V30 10900 O 1043.72 -1.32867 -1.192 0
M  V30 10901 C 1040.82 -2.58717 -2.18903 0
M  V30 10902 C 1039.99 -3.8873 -2.00519 0
M  V30 10903 C 1039.05 -4.21675 -3.14764 0
M  V30 10904 O 1038.07 -4.90755 -2.88355 0
M  V30 10905 N 1039.28 -3.77757 -4.40772 0
M  V30 10906 H 1042.04 -2.96758 -0.418901 0
M  V30 10907 H 1039.6 -1.61696 -0.0812921 0
M  V30 10908 H 1041.59 -2.77797 -2.94297 0
M  V30 10909 H 1040.16 -1.78454 -2.56657 0
M  V30 10910 H 1039.38 -3.78714 -1.09406 0
M  V30 10911 H 1040.67 -4.73771 -1.85522 0
M  V30 10912 H 1040.07 -3.22011 -4.65108 0
M  V30 10913 H 1038.63 -4.01975 -5.13088 0
M  V30 10914 N 1042.06 0.170153 -1.56679 0
M  V30 10915 C 1043.34 0.913938 -1.72935 0
M  V30 10916 C 1043.72 2.00342 -0.665293 0
M  V30 10917 O 1043.07 2.26252 0.319715 0
M  V30 10918 C 1043.28 1.47761 -3.16177 0
M  V30 10919 C 1044.62 1.95007 -3.7717 0
M  V30 10920 O 1045.65 1.57552 -3.19462 0
M  V30 10921 O 1044.51 2.64007 -4.78501 0
M  V30 10922 H 1041.6 0.43027 -0.706256 0
M  V30 10923 H 1044.15 0.157891 -1.68964 0
M  V30 10924 H 1042.92 0.69352 -3.85105 0
M  V30 10925 H 1042.54 2.2978 -3.24479 0
M  V30 10926 N 1043.54 1.5137 0.438746 0
M  V30 10927 C 1044.77 1.67774 1.21077 0
M  V30 10928 C 1045.18 0.374489 1.85049 0
M  V30 10929 O 1044.54 -0.646867 1.70651 0
M  V30 10930 C 1044.59 2.79238 2.29584 0
M  V30 10931 O 1044.31 4.04513 1.68228 0
M  V30 10932 C 1045.81 3.06898 3.19888 0
M  V30 10933 H 1043.03 0.563054 0.364981 0
M  V30 10934 H 1045.58 1.97777 0.520035 0
M  V30 10935 H 1043.73 2.51837 2.94375 0
M  V30 10936 H 1044.14 4.66405 2.3993 0
M  V30 10937 H 1045.62 3.88476 3.92162 0
M  V30 10938 H 1046.1 2.19249 3.80561 0
M  V30 10939 H 1046.7 3.35952 2.60799 0
M  V30 10940 N 1045.02 -0.694098 1.41492 0
M  V30 10941 C 1046.43 -1.27407 1.36471 0
M  V30 10942 C 1046.78 -1.9614 0.0485209 0
M  V30 10943 O 1045.9 -1.98871 -0.853188 0
M  V30 10944 C 1046.5 -2.31698 2.47188 0
M  V30 10945 C 1045.06 -2.85268 2.45559 0
M  V30 10946 C 1044.2 -1.59325 2.2696 0
M  V30 10947 H 1047.16 -0.488756 1.50986 0
M  V30 10948 H 1047.18 -3.1302 2.1633 0
M  V30 10949 H 1046.69 -1.81644 3.42968 0
M  V30 10950 H 1044.79 -3.39494 1.5354 0
M  V30 10951 H 1044.9 -3.35598 3.41922 0
M  V30 10952 H 1043.27 -1.85188 1.74864 0
M  V30 10953 H 1044.05 -1.11265 3.24769 0
M  V30 10954 N 1046.49 -1.27344 -0.928501 0
M  V30 10955 C 1047.74 -1.13411 -1.67279 0
M  V30 10956 C 1048.06 0.320698 -1.92345 0
M  V30 10957 O 1047.33 1.2245 -1.52915 0
M  V30 10958 H 1045.91 -0.416712 -0.619968 0
M  V30 10959 H 1048.58 -1.5986 -1.11493 0
M  V30 10960 H 1047.67 -1.66256 -2.64131 0
M  V30 10961 N 1047.97 1.13488 -1.09353 0
M  V30 10962 C 1049.22 1.85022 -0.830354 0
M  V30 10963 C 1049.55 1.83266 0.64242 0
M  V30 10964 O 1048.83 1.27024 1.47293 0
M  V30 10965 C 1049.11 3.33218 -1.36521 0
M  V30 10966 C 1048.96 3.43491 -2.90404 0
M  V30 10967 C 1050.28 4.28626 -0.998381 0
M  V30 10968 H 1047.4 0.671786 -0.303105 0
M  V30 10969 H 1050.04 1.33211 -1.3548 0
M  V30 10970 H 1048.19 3.77471 -0.919117 0
M  V30 10971 H 1049.86 3.07954 -3.43456 0
M  V30 10972 H 1048.11 2.84391 -3.27573 0
M  V30 10973 H 1048.78 4.47702 -3.22905 0
M  V30 10974 H 1051.25 3.9244 -1.38311 0
M  V30 10975 H 1050.13 5.30754 -1.39968 0
M  V30 10976 H 1050.39 4.42001 0.093517 0
M  V30 10977 N 1049.45 0.880621 1.30701 0
M  V30 10978 C 1050.4 0.342397 2.28246 0
M  V30 10979 C 1051.37 -0.565023 1.56194 0
M  V30 10980 O 1052.55 -0.494377 1.84284 0
M  V30 10981 C 1049.69 -0.440859 3.42272 0
M  V30 10982 C 1048.81 0.495284 4.29151 0
M  V30 10983 C 1047.94 -0.303141 5.30334 0
M  V30 10984 C 1046.98 0.628751 6.08862 0
M  V30 10985 N 1046.12 -0.13408 7.01972 0
M  V30 10986 H 1050.96 1.17938 2.73669 0
M  V30 10987 H 1048.49 0.59296 1.34619 0
M  V30 10988 H 1050.45 -0.910854 4.07135 0
M  V30 10989 H 1049.08 -1.24245 2.97931 0
M  V30 10990 H 1048.13 1.08376 3.64635 0
M  V30 10991 H 1049.45 1.2094 4.83916 0
M  V30 10992 H 1048.6 -0.835181 6.00924 0
M  V30 10993 H 1047.34 -1.05049 4.76252 0
M  V30 10994 H 1046.34 1.17246 5.37153 0
M  V30 10995 H 1047.57 1.37512 6.65032 0
M  V30 10996 H 1045.52 -0.864046 6.50285 0
M  V30 10997 H 1045.43 0.520486 7.54206 0
M  V30 10998 H 1046.7 -0.647005 7.7681 0
M  V30 10999 N 1050.93 -1.4397 0.641131 0
M  V30 11000 C 1051.86 -2.27948 -0.10731 0
M  V30 11001 C 1052.84 -1.39124 -0.841615 0
M  V30 11002 O 1054.02 -1.68566 -0.843662 0
M  V30 11003 C 1051.15 -3.18277 -1.15835 0
M  V30 11004 C 1050.2 -4.23276 -0.52345 0
M  V30 11005 S 1051.03 -5.30984 0.693969 0
M  V30 11006 C 1052.19 -6.24882 -0.356831 0
M  V30 11007 H 1052.42 -2.91077 0.605083 0
M  V30 11008 H 1049.95 -1.48303 0.429598 0
M  V30 11009 H 1051.91 -3.70867 -1.75977 0
M  V30 11010 H 1050.57 -2.54348 -1.84299 0
M  V30 11011 H 1049.76 -4.86533 -1.31536 0
M  V30 11012 H 1049.37 -3.74 0.00358355 0
M  V30 11013 H 1051.66 -6.66305 -1.22653 0
M  V30 11014 H 1052.6 -7.07692 0.240412 0
M  V30 11015 H 1053.01 -5.60301 -0.687217 0
M  V30 11016 N 1052.41 -0.382291 -1.52893 0
M  V30 11017 C 1053.66 0.203342 -2.00672 0
M  V30 11018 C 1053.97 1.48487 -1.27322 0
M  V30 11019 O 1055.18 2.15013 -1.65776 0
M  V30 11020 C 1053.63 0.412922 -3.57523 0
M  V30 11021 C 1053.24 -0.854949 -4.39767 0
M  V30 11022 C 1054.98 0.955301 -4.13611 0
M  V30 11023 C 1052.89 -0.614033 -5.88204 0
M  V30 11024 H 1051.82 0.0797635 -0.749769 0
M  V30 11025 H 1054.47 -0.50361 -1.76454 0
M  V30 11026 H 1052.85 1.18155 -3.77962 0
M  V30 11027 H 1054.03 -1.62765 -4.31096 0
M  V30 11028 H 1052.34 -1.32176 -3.94865 0
M  V30 11029 H 1054.94 1.15114 -5.22162 0
M  V30 11030 H 1055.28 1.92233 -3.69259 0
M  V30 11031 H 1055.82 0.24642 -3.97036 0
M  V30 11032 H 1052.55 -1.55187 -6.36865 0
M  V30 11033 H 1052.07 0.119865 -5.9968 0
M  V30 11034 H 1053.75 -0.245895 -6.46533 0
M  V30 11035 N 1053.89 1.57202 -0.111913 0
M  V30 11036 C 1055.13 1.95239 0.548607 0
M  V30 11037 C 1055.46 0.994897 1.6678 0
M  V30 11038 O 1054.74 0.0308603 1.94476 0
M  V30 11039 C 1055.02 3.43271 1.08798 0
M  V30 11040 C 1054.88 4.49792 -0.0273064 0
M  V30 11041 C 1056.19 3.92989 1.98109 0
M  V30 11042 H 1053.31 0.709919 0.197951 0
M  V30 11043 H 1055.96 1.89087 -0.186036 0
M  V30 11044 H 1054.11 3.48644 1.71404 0
M  V30 11045 H 1055.78 4.56521 -0.662302 0
M  V30 11046 H 1054.02 4.28254 -0.691426 0
M  V30 11047 H 1054.69 5.50612 0.391201 0
M  V30 11048 H 1057.17 3.89875 1.45385 0
M  V30 11049 H 1056.04 4.97101 2.32769 0
M  V30 11050 H 1056.3 3.33267 2.90492 0
M  V30 11051 N 1055.36 -0.161842 1.56767 0
M  V30 11052 C 1056.61 -0.878224 1.82798 0
M  V30 11053 C 1056.94 -1.81481 0.691242 0
M  V30 11054 O 1056.22 -1.92075 -0.30618 0
M  V30 11055 C 1056.5 -1.66565 3.19262 0
M  V30 11056 C 1056.35 -0.751551 4.43477 0
M  V30 11057 C 1057.67 -2.63134 3.52773 0
M  V30 11058 H 1054.79 -0.317828 0.664947 0
M  V30 11059 H 1057.43 -0.14402 1.89453 0
M  V30 11060 H 1055.58 -2.29157 3.13719 0
M  V30 11061 H 1057.26 -0.137783 4.61094 0
M  V30 11062 H 1055.5 -0.0601785 4.33758 0
M  V30 11063 H 1056.17 -1.33823 5.35533 0
M  V30 11064 H 1058.65 -2.10666 3.5883 0
M  V30 11065 H 1057.52 -3.15289 4.49315 0
M  V30 11066 H 1057.78 -3.43786 2.77963 0
M  V30 11067 N 1056.84 -1.516 -0.430713 0
M  V30 11068 C 1057.77 -1.76342 -1.53054 0
M  V30 11069 C 1058.75 -0.61349 -1.58652 0
M  V30 11070 O 1059.94 -0.856888 -1.74273 0
M  V30 11071 C 1057.07 -1.8945 -2.91077 0
M  V30 11072 C 1056.02 -3.04928 -3.00339 0
M  V30 11073 C 1055.35 -3.03228 -4.40405 0
M  V30 11074 C 1056.65 -4.44777 -2.73808 0
M  V30 11075 H 1058.34 -2.68435 -1.326 0
M  V30 11076 H 1055.89 -1.29171 -0.636466 0
M  V30 11077 H 1057.84 -2.05343 -3.67984 0
M  V30 11078 H 1056.56 -0.940114 -3.12777 0
M  V30 11079 H 1055.22 -2.88751 -2.25872 0
M  V30 11080 H 1054.87 -2.05553 -4.59083 0
M  V30 11081 H 1054.57 -3.80776 -4.47531 0
M  V30 11082 H 1056.1 -3.21222 -5.19277 0
M  V30 11083 H 1057.51 -4.6127 -3.40445 0
M  V30 11084 H 1055.91 -5.2408 -2.92335 0
M  V30 11085 H 1056.98 -4.54358 -1.69372 0
M  V30 11086 N 1058.32 0.686584 -1.41858 0
M  V30 11087 C 1059.57 1.44379 -1.41418 0
M  V30 11088 C 1059.89 1.94981 -0.0273696 0
M  V30 11089 O 1059.16 1.72296 0.932248 0
M  V30 11090 H 1057.74 0.53574 -0.520568 0
M  V30 11091 H 1060.4 0.812056 -1.77177 0
M  V30 11092 H 1059.5 2.30258 -2.10684 0
M  V30 11093 N 1059.8 1.27835 0.921735 0
M  V30 11094 C 1060.71 1.12904 2.05645 0
M  V30 11095 C 1061.72 0.0575704 1.73905 0
M  V30 11096 O 1062.9 0.265261 1.99645 0
M  V30 11097 C 1059.96 0.783957 3.3772 0
M  V30 11098 C 1059.03 1.93694 3.8312 0
M  V30 11099 C 1058.26 1.60823 5.08893 0
M  V30 11100 O 1058.48 0.518873 5.68035 0
M  V30 11101 O 1057.42 2.44932 5.49811 0
M  V30 11102 H 1061.24 2.08143 2.21157 0
M  V30 11103 H 1058.83 1.07078 1.04185 0
M  V30 11104 H 1060.71 0.605107 4.17033 0
M  V30 11105 H 1059.38 -0.138849 3.23402 0
M  V30 11106 H 1058.29 2.17089 3.04669 0
M  V30 11107 H 1059.62 2.84016 4.0199 0
M  V30 11108 N 1061.28 -1.12907 1.09954 0
M  V30 11109 C 1062.52 -1.83661 0.833761 0
M  V30 11110 C 1062.84 -1.84736 -0.642798 0
M  V30 11111 O 1064.04 -2.51437 -1.0243 0
M  V30 11112 C 1062.5 -3.29763 1.44168 0
M  V30 11113 C 1062.11 -3.3706 2.95118 0
M  V30 11114 C 1063.85 -4.05522 1.25509 0
M  V30 11115 C 1061.76 -4.77467 3.48969 0
M  V30 11116 H 1060.69 -0.688115 0.308242 0
M  V30 11117 H 1063.34 -1.27166 1.32291 0
M  V30 11118 H 1061.72 -3.86094 0.880215 0
M  V30 11119 H 1062.9 -2.90695 3.57537 0
M  V30 11120 H 1061.21 -2.7477 3.12874 0
M  V30 11121 H 1063.81 -5.09188 1.63191 0
M  V30 11122 H 1064.15 -4.15837 0.196208 0
M  V30 11123 H 1064.68 -3.55536 1.78435 0
M  V30 11124 H 1061.42 -4.72344 4.54501 0
M  V30 11125 H 1060.94 -5.24305 2.91315 0
M  V30 11126 H 1062.62 -5.46397 3.46495 0
M  V30 11127 N 1062.75 -0.88754 -1.30232 0
M  V30 11128 C 1064 -0.506277 -1.95656 0
M  V30 11129 C 1064.32 0.948191 -1.70395 0
M  V30 11130 O 1063.59 1.66701 -1.02895 0
M  V30 11131 H 1062.17 -0.184235 -0.723924 0
M  V30 11132 H 1064.83 -1.13118 -1.58715 0
M  V30 11133 H 1063.93 -0.678673 -3.04632 0
M  V30 11134 N 1064.23 1.43628 -0.648757 0
M  V30 11135 C 1065.48 2.01465 -0.16002 0
M  V30 11136 C 1065.8 1.51413 1.22878 0
M  V30 11137 O 1065.07 0.724919 1.81994 0
M  V30 11138 H 1063.65 0.744885 -0.0561672 0
M  V30 11139 H 1066.31 1.75897 -0.839422 0
M  V30 11140 H 1065.41 3.1178 -0.141213 0
M  V30 11141 N 1065.71 0.390394 1.52688 0
M  V30 11142 C 1066.94 -0.191485 2.06012 0
M  V30 11143 C 1067.35 -1.40422 1.26202 0
M  V30 11144 O 1066.71 -1.79866 0.308963 0
M  V30 11145 C 1066.76 -0.560521 3.57128 0
M  V30 11146 O 1066.48 0.60404 4.33916 0
M  V30 11147 C 1067.98 -1.19814 4.26801 0
M  V30 11148 H 1065.2 -0.0286311 0.670389 0
M  V30 11149 H 1067.75 0.555939 1.96798 0
M  V30 11150 H 1065.9 -1.25784 3.66411 0
M  V30 11151 H 1066.32 0.300467 5.23639 0
M  V30 11152 H 1067.79 -1.40672 5.33775 0
M  V30 11153 H 1068.27 -2.16582 3.82085 0
M  V30 11154 H 1068.87 -0.541558 4.21838 0
M  V30 11155 N 1067.19 -1.57141 0.120249 0
M  V30 11156 C 1068.1 -2.18925 -0.843155 0
M  V30 11157 C 1069.11 -1.16575 -1.29175 0
M  V30 11158 O 1070.29 -1.4905 -1.35448 0
M  V30 11159 C 1067.36 -2.7775 -2.075 0
M  V30 11160 C 1066.42 -3.95139 -1.6782 0
M  V30 11161 C 1065.65 -4.51149 -2.85132 0
M  V30 11162 O 1065.87 -4.06056 -4.00593 0
M  V30 11163 O 1064.81 -5.41815 -2.62145 0
M  V30 11164 H 1068.63 -3.01707 -0.347357 0
M  V30 11165 H 1066.22 -1.49028 -0.105427 0
M  V30 11166 H 1068.1 -3.15243 -2.79643 0
M  V30 11167 H 1066.77 -1.97998 -2.56083 0
M  V30 11168 H 1065.68 -3.62412 -0.927807 0
M  V30 11169 H 1067.01 -4.7633 -1.23977 0
M  V30 11170 N 1068.67 0.153526 -1.5685 0
M  V30 11171 C 1069.58 1.20932 -2.01029 0
M  V30 11172 C 1070.59 1.47401 -0.924598 0
M  V30 11173 O 1071.77 1.592 -1.23359 0
M  V30 11174 C 1068.83 2.52438 -2.37647 0
M  V30 11175 C 1067.89 2.33673 -3.60132 0
M  V30 11176 C 1067.13 3.58909 -3.94994 0
M  V30 11177 O 1067.35 4.64823 -3.30599 0
M  V30 11178 O 1066.28 3.5196 -4.8827 0
M  V30 11179 H 1070.11 0.864273 -2.91143 0
M  V30 11180 H 1067.7 0.361755 -1.44954 0
M  V30 11181 H 1069.58 3.29981 -2.62088 0
M  V30 11182 H 1068.25 2.86486 -1.5069 0
M  V30 11183 H 1067.16 1.54102 -3.40886 0
M  V30 11184 H 1068.49 2.04544 -4.47686 0
M  V30 11185 N 1070.14 1.51827 0.422667 0
M  V30 11186 C 1071.37 1.68803 1.19117 0
M  V30 11187 C 1071.78 0.391228 1.85111 0
M  V30 11188 O 1071.13 -0.64148 1.72136 0
M  V30 11189 C 1071.19 2.75767 2.30636 0
M  V30 11190 C 1070.85 4.17929 1.8489 0
M  V30 11191 C 1071.85 5.02223 1.34416 0
M  V30 11192 C 1069.53 4.641 1.92136 0
M  V30 11193 C 1071.53 6.30756 0.917925 0
M  V30 11194 C 1069.21 5.92626 1.49123 0
M  V30 11195 C 1070.21 6.75782 0.990352 0
M  V30 11196 O 1069.9 8.01902 0.566386 0
M  V30 11197 H 1069.63 0.569303 0.364514 0
M  V30 11198 H 1072.19 1.9909 0.505208 0
M  V30 11199 H 1070.42 2.40827 3.02555 0
M  V30 11200 H 1072.11 2.81476 2.92448 0
M  V30 11201 H 1072.87 4.67749 1.28202 0
M  V30 11202 H 1068.75 3.99488 2.30066 0
M  V30 11203 H 1072.29 6.95612 0.52628 0
M  V30 11204 H 1068.19 6.26611 1.55012 0
M  V30 11205 H 1068.96 8.15579 0.690918 0
M  V30 11206 N 1071.62 -0.679052 1.4222 0
M  V30 11207 C 1072.57 -1.79269 1.45366 0
M  V30 11208 C 1073.54 -1.63255 0.306089 0
M  V30 11209 O 1074.72 -1.8387 0.509548 0
M  V30 11210 C 1071.86 -3.17272 1.35766 0
M  V30 11211 C 1070.98 -3.44603 2.60525 0
M  V30 11212 C 1070.11 -4.7231 2.43098 0
M  V30 11213 C 1069.15 -4.92661 3.63251 0
M  V30 11214 N 1068.29 -6.11606 3.44794 0
M  V30 11215 H 1073.13 -1.75916 2.40536 0
M  V30 11216 H 1070.67 -0.858836 1.19425 0
M  V30 11217 H 1072.62 -3.97015 1.282 0
M  V30 11218 H 1071.25 -3.1976 0.441939 0
M  V30 11219 H 1070.31 -2.59144 2.78475 0
M  V30 11220 H 1071.62 -3.55536 3.49851 0
M  V30 11221 H 1070.77 -5.60136 2.33093 0
M  V30 11222 H 1069.51 -4.63652 1.51255 0
M  V30 11223 H 1068.52 -4.03278 3.73693 0
M  V30 11224 H 1069.74 -5.03167 4.5607 0
M  V30 11225 H 1067.69 -6.04129 2.55663 0
M  V30 11226 H 1067.6 -6.23381 4.27705 0
M  V30 11227 H 1068.87 -7.02122 3.38592 0
M  V30 11228 N 1073.1 -1.28322 -0.914942 0
M  V30 11229 C 1074.35 -1.14785 -1.65853 0
M  V30 11230 C 1074.66 0.303135 -1.93237 0
M  V30 11231 O 1075.87 0.559606 -2.6567 0
M  V30 11232 C 1074.32 -2.00652 -2.98776 0
M  V30 11233 C 1073.93 -3.50483 -2.79044 0
M  V30 11234 C 1075.68 -1.95798 -3.76648 0
M  V30 11235 C 1073.58 -4.28505 -4.076 0
M  V30 11236 H 1072.51 -0.425987 -0.622135 0
M  V30 11237 H 1075.16 -1.52844 -1.01543 0
M  V30 11238 H 1073.55 -1.55447 -3.64214 0
M  V30 11239 H 1074.72 -4.03636 -2.22293 0
M  V30 11240 H 1073.04 -3.5685 -2.14586 0
M  V30 11241 H 1075.63 -2.51359 -4.71935 0
M  V30 11242 H 1075.98 -0.934455 -4.05677 0
M  V30 11243 H 1076.51 -2.38965 -3.18026 0
M  V30 11244 H 1073.25 -5.31433 -3.83744 0
M  V30 11245 H 1072.77 -3.80125 -4.63966 0
M  V30 11246 H 1074.45 -4.3836 -4.75867 0
M  V30 11247 N 1074.58 1.12322 -1.10551 0
M  V30 11248 C 1075.82 1.85497 -0.858492 0
M  V30 11249 C 1076.18 1.8222 0.604966 0
M  V30 11250 O 1077.38 2.5075 0.968382 0
M  V30 11251 C 1075.65 3.29124 -1.39327 0
M  V30 11252 S 1077.21 4.19659 -1.28186 0
M  V30 11253 H 1074.03 0.639768 -0.31019 0
M  V30 11254 H 1076.63 1.35298 -1.41119 0
M  V30 11255 H 1075.34 3.29069 -2.45238 0
M  V30 11256 H 1074.87 3.84388 -0.837203 0
M  V30 11257 H 1076.88 4.95618 -0.240325 0
M  V30 11258 N 1076.06 0.894434 1.2976 0
M  V30 11259 C 1077.47 0.589778 1.48303 0
M  V30 11260 C 1077.67 -0.870085 1.81746 0
M  V30 11261 O 1076.73 -1.65065 1.91076 0
M  V30 11262 C 1078.04 1.51107 2.59975 0
M  V30 11263 C 1079.59 1.51571 2.73853 0
M  V30 11264 C 1080.06 2.42316 3.88648 0
M  V30 11265 N 1081.56 2.40333 3.95973 0
M  V30 11266 C 1082.29 3.07254 4.84131 0
M  V30 11267 N 1081.79 3.83435 5.77018 0
M  V30 11268 N 1083.58 2.96438 4.77578 0
M  V30 11269 H 1075.73 1.83871 1.06327 0
M  V30 11270 H 1077.99 0.78758 0.527657 0
M  V30 11271 H 1077.7 2.55097 2.42112 0
M  V30 11272 H 1077.57 1.22767 3.56662 0
M  V30 11273 H 1079.96 0.483277 2.91116 0
M  V30 11274 H 1080.04 1.83946 1.77757 0
M  V30 11275 H 1079.69 3.4565 3.72141 0
M  V30 11276 H 1079.62 2.07252 4.84101 0
M  V30 11277 H 1082.11 1.84979 3.29532 0
M  V30 11278 H 1082.42 4.31565 6.4107 0
M  V30 11279 H 1080.76 3.87542 5.7692 0
M  V30 11280 H 1083.96 2.36442 4.03996 0
M  V30 11281 H 1084.13 3.48867 5.46073 0
M  V30 11282 N 1077.53 -1.43282 0.656365 0
M  V30 11283 C 1078.78 -2.01378 0.170702 0
M  V30 11284 C 1079.1 -1.52063 -1.22073 0
M  V30 11285 O 1078.37 -0.73456 -1.81607 0
M  V30 11286 H 1076.95 -0.744577 0.0601168 0
M  V30 11287 H 1079.62 -1.75449 0.848739 0
M  V30 11288 H 1078.71 -3.11701 0.157745 0
M  V30 11289 N 1079.01 -0.398486 -1.52479 0
M  V30 11290 C 1080.26 0.182046 -2.00877 0
M  V30 11291 C 1080.58 1.47128 -1.2889 0
M  V30 11292 O 1081.78 2.13242 -1.68048 0
M  V30 11293 C 1080.24 0.374978 -3.57941 0
M  V30 11294 C 1079.85 -0.901544 -4.38835 0
M  V30 11295 C 1081.59 0.911378 -4.14601 0
M  V30 11296 C 1079.5 -0.676385 -5.87519 0
M  V30 11297 H 1078.43 0.0718068 -0.750573 0
M  V30 11298 H 1081.08 -0.522297 -1.7591 0
M  V30 11299 H 1079.46 1.14139 -3.79194 0
M  V30 11300 H 1080.63 -1.67329 -4.29346 0
M  V30 11301 H 1078.95 -1.36357 -3.93441 0
M  V30 11302 H 1081.55 1.09569 -5.23353 0
M  V30 11303 H 1081.89 1.88306 -3.71277 0
M  V30 11304 H 1082.42 0.204296 -3.97275 0
M  V30 11305 H 1079.16 -1.61933 -6.35184 0
M  V30 11306 H 1078.68 0.0562542 -5.99774 0
M  V30 11307 H 1080.36 -0.314454 -6.46235 0
M  V30 11308 N 1080.49 1.57075 -0.12858 0
M  V30 11309 C 1081.44 2.15816 0.818064 0
M  V30 11310 C 1082.41 1.08581 1.25696 0
M  V30 11311 O 1083.59 1.36535 1.33277 0
M  V30 11312 C 1080.73 2.76943 2.05905 0
M  V30 11313 C 1079.85 3.98514 1.66764 0
M  V30 11314 C 1078.98 4.47698 2.85902 0
M  V30 11315 C 1078.02 5.61778 2.43047 0
M  V30 11316 N 1077.16 6.05662 3.5513 0
M  V30 11317 H 1082 2.9638 0.310318 0
M  V30 11318 H 1079.53 1.46418 0.141472 0
M  V30 11319 H 1081.49 3.10519 2.78629 0
M  V30 11320 H 1080.12 1.99053 2.54122 0
M  V30 11321 H 1079.17 3.71038 0.838766 0
M  V30 11322 H 1080.49 4.81215 1.31277 0
M  V30 11323 H 1079.64 4.83233 3.66839 0
M  V30 11324 H 1078.38 3.63967 3.24622 0
M  V30 11325 H 1077.38 5.25838 1.60544 0
M  V30 11326 H 1078.61 6.47282 2.05433 0
M  V30 11327 H 1076.56 5.2487 3.93506 0
M  V30 11328 H 1076.47 6.83242 3.23598 0
M  V30 11329 H 1077.74 6.45838 4.36479 0
M  V30 11330 N 1081.97 -0.145205 1.5693 0
M  V30 11331 C 1082.88 -1.19864 2.01667 0
M  V30 11332 C 1083.9 -1.46909 0.932402 0
M  V30 11333 O 1085.07 -1.58543 1.24201 0
M  V30 11334 C 1082.14 -2.51174 2.38982 0
M  V30 11335 C 1081.2 -2.3176 3.61366 0
M  V30 11336 C 1080.43 -3.56809 3.96892 0
M  V30 11337 O 1080.65 -4.63063 3.33059 0
M  V30 11338 O 1079.59 -3.49366 4.9013 0
M  V30 11339 H 1083.41 -0.848821 2.91597 0
M  V30 11340 H 1081 -0.354063 1.45144 0
M  V30 11341 H 1082.88 -3.28587 2.63835 0
M  V30 11342 H 1081.56 -2.85683 1.52207 0
M  V30 11343 H 1080.46 -1.52293 3.41698 0
M  V30 11344 H 1081.8 -2.02167 4.48764 0
M  V30 11345 N 1083.45 -1.52049 -0.414609 0
M  V30 11346 C 1084.7 -1.65511 -1.15977 0
M  V30 11347 C 1085.02 -0.384703 -1.91168 0
M  V30 11348 O 1084.29 0.600247 -1.86477 0
M  V30 11349 H 1082.87 -0.610039 -0.431116 0
M  V30 11350 H 1085.53 -1.8907 -0.473139 0
M  V30 11351 H 1084.62 -2.4936 -1.87686 0
M  V30 11352 N 1084.93 0.6715 -1.42579 0
M  V30 11353 C 1086.34 0.985019 -1.25577 0
M  V30 11354 C 1086.54 2.00845 -0.162319 0
M  V30 11355 O 1085.6 2.48175 0.465352 0
M  V30 11356 C 1086.91 1.48668 -2.61377 0
M  V30 11357 C 1088.46 1.60429 -2.68759 0
M  V30 11358 C 1088.93 2.13991 -4.04935 0
M  V30 11359 N 1090.42 2.21319 -4.06906 0
M  V30 11360 C 1091.16 2.63845 -5.09091 0
M  V30 11361 N 1090.66 3.05799 -6.21658 0
M  V30 11362 N 1092.45 2.63623 -4.96447 0
M  V30 11363 H 1084.6 -0.00604561 -2.12399 0
M  V30 11364 H 1086.86 0.0598299 -0.94611 0
M  V30 11365 H 1086.57 0.80917 -3.42265 0
M  V30 11366 H 1086.44 2.46487 -2.85524 0
M  V30 11367 H 1088.83 2.27286 -1.88216 0
M  V30 11368 H 1088.91 0.610909 -2.48398 0
M  V30 11369 H 1088.55 1.47741 -4.85937 0
M  V30 11370 H 1088.48 3.14126 -4.2265 0
M  V30 11371 H 1090.98 1.91743 -3.25643 0
M  V30 11372 H 1091.29 3.36944 -6.95477 0
M  V30 11373 H 1089.63 3.03648 -6.25158 0
M  V30 11374 H 1092.82 2.30211 -4.07579 0
M  V30 11375 H 1093 2.96444 -5.76216 0
M  V30 11376 N 1086.4 1.28806 0.908124 0
M  V30 11377 C 1087.33 1.15758 2.02787 0
M  V30 11378 C 1088.31 0.053911 1.70015 0
M  V30 11379 O 1089.5 0.231901 1.9281 0
M  V30 11380 C 1086.63 0.824526 3.37371 0
M  V30 11381 C 1085.58 1.88359 3.84324 0
M  V30 11382 C 1084.91 1.40404 5.15937 0
M  V30 11383 C 1086.21 3.29108 4.05568 0
M  V30 11384 H 1087.9 2.09431 2.13961 0
M  V30 11385 H 1085.45 1.00831 1.02806 0
M  V30 11386 H 1087.4 0.71999 4.15204 0
M  V30 11387 H 1086.13 -0.147902 3.26265 0
M  V30 11388 H 1084.79 1.97736 3.087 0
M  V30 11389 H 1084.43 0.420515 5.01239 0
M  V30 11390 H 1084.13 2.11224 5.48323 0
M  V30 11391 H 1085.66 1.31283 5.9632 0
M  V30 11392 H 1087.07 3.2262 4.73909 0
M  V30 11393 H 1085.47 3.97812 4.49294 0
M  V30 11394 H 1086.54 3.72709 3.10187 0
M  V30 11395 N 1087.88 -1.11734 1.11145 0
M  V30 11396 C 1089.11 -1.87215 0.880811 0
M  V30 11397 C 1089.52 -1.80016 -0.569195 0
M  V30 11398 O 1088.88 -1.17926 -1.39283 0
M  V30 11399 C 1088.93 -3.36146 1.32998 0
M  V30 11400 O 1088.65 -3.43187 2.72313 0
M  V30 11401 C 1090.15 -4.28542 1.1343 0
M  V30 11402 H 1087.37 -0.592123 0.315645 0
M  V30 11403 H 1089.92 -1.41335 1.478 0
M  V30 11404 H 1088.07 -3.79542 0.776308 0
M  V30 11405 H 1088.49 -4.359 2.91705 0
M  V30 11406 H 1089.96 -5.31295 1.49764 0
M  V30 11407 H 1090.44 -4.39138 0.0735859 0
M  V30 11408 H 1091.04 -3.90935 1.67481 0
M  V30 11409 N 1089.36 -0.901303 -1.29284 0
M  V30 11410 C 1090.31 -0.378666 -2.27672 0
M  V30 11411 C 1091.28 0.540102 -1.57074 0
M  V30 11412 O 1092.46 0.464997 -1.85047 0
M  V30 11413 C 1089.6 0.38635 -3.42931 0
M  V30 11414 C 1088.71 -0.563496 -4.28309 0
M  V30 11415 C 1087.85 0.218731 -5.30749 0
M  V30 11416 C 1086.89 -0.725536 -6.07785 0
M  V30 11417 N 1086.03 0.0223854 -7.02096 0
M  V30 11418 H 1090.87 -1.22277 -2.71758 0
M  V30 11419 H 1088.4 -0.614302 -1.33659 0
M  V30 11420 H 1090.36 0.845967 -4.08533 0
M  V30 11421 H 1088.99 1.1949 -2.9987 0
M  V30 11422 H 1088.04 -1.14163 -3.62865 0
M  V30 11423 H 1089.35 -1.28623 -4.81931 0
M  V30 11424 H 1088.51 0.739473 -6.02177 0
M  V30 11425 H 1087.25 0.97459 -4.77863 0
M  V30 11426 H 1086.25 -1.25776 -5.3522 0
M  V30 11427 H 1087.48 -1.48075 -6.6276 0
M  V30 11428 H 1085.42 0.760482 -6.51577 0
M  V30 11429 H 1085.34 -0.640408 -7.53283 0
M  V30 11430 H 1086.61 0.523339 -7.77741 0
M  V30 11431 N 1090.84 1.42931 -0.663954 0
M  V30 11432 C 1092.25 1.84877 -0.260283 0
M  V30 11433 C 1092.6 1.5558 1.19538 0
M  V30 11434 O 1091.72 1.01015 1.91377 0
M  V30 11435 C 1092.32 3.35585 -0.465618 0
M  V30 11436 C 1090.88 3.76221 -0.116169 0
M  V30 11437 C 1090.03 2.66587 -0.763317 0
M  V30 11438 H 1092.98 1.32932 -0.866882 0
M  V30 11439 H 1093 3.79427 0.285608 0
M  V30 11440 H 1092.51 3.56877 -1.52515 0
M  V30 11441 H 1090.61 3.60539 0.940342 0
M  V30 11442 H 1090.72 4.75943 -0.549123 0
M  V30 11443 H 1089.09 2.53948 -0.19559 0
M  V30 11444 H 1089.87 2.90704 -1.82609 0
M  V30 11445 N 1092.32 0.406567 1.52266 0
M  V30 11446 C 1093.56 -0.171391 2.00971 0
M  V30 11447 C 1093.88 -1.46443 1.29668 0
M  V30 11448 O 1095.08 -2.12348 1.69176 0
M  V30 11449 C 1093.54 -0.35599 3.58135 0
M  V30 11450 C 1093.15 0.924803 4.38351 0
M  V30 11451 C 1094.89 -0.889378 4.15079 0
M  V30 11452 C 1092.8 0.707534 5.87152 0
M  V30 11453 H 1091.73 -0.0678253 0.750943 0
M  V30 11454 H 1094.38 0.531619 1.7563 0
M  V30 11455 H 1092.76 -1.12127 3.79794 0
M  V30 11456 H 1093.94 1.69603 4.28452 0
M  V30 11457 H 1092.25 1.38442 3.92712 0
M  V30 11458 H 1094.85 -1.06792 5.23927 0
M  V30 11459 H 1095.19 -1.86334 3.7227 0
M  V30 11460 H 1095.72 -0.183224 3.97378 0
M  V30 11461 H 1092.46 1.65299 6.34316 0
M  V30 11462 H 1091.98 -0.024446 5.99795 0
M  V30 11463 H 1093.66 0.348721 6.4606 0
M  V30 11464 N 1093.79 -1.57004 0.136909 0
M  V30 11465 C 1095.04 -1.96087 -0.517477 0
M  V30 11466 C 1095.37 -1.0213 -1.65176 0
M  V30 11467 O 1094.65 -0.0617958 -1.94402 0
M  V30 11468 C 1094.93 -3.44958 -1.03323 0
M  V30 11469 C 1094.78 -4.49691 0.0988609 0
M  V30 11470 C 1096.1 -3.96091 -1.91832 0
M  V30 11471 H 1093.22 -0.712978 -0.186632 0
M  V30 11472 H 1095.86 -1.88767 0.216095 0
M  V30 11473 H 1094.01 -3.51327 -1.65836 0
M  V30 11474 H 1095.69 -4.55409 0.734847 0
M  V30 11475 H 1093.93 -4.271 0.75947 0
M  V30 11476 H 1094.6 -5.51165 -0.303554 0
M  V30 11477 H 1097.08 -3.92139 -1.39164 0
M  V30 11478 H 1095.95 -5.00742 -2.24831 0
M  V30 11479 H 1096.21 -3.37846 -2.85153 0
M  V30 11480 N 1095.27 0.136881 -1.57004 0
M  V30 11481 C 1096.51 0.853873 -1.8571 0
M  V30 11482 C 1096.88 1.77885 -0.722556 0
M  V30 11483 O 1098.08 2.53606 -0.89092 0
M  V30 11484 C 1096.35 1.59935 -3.19618 0
M  V30 11485 S 1097.91 2.36038 -3.69908 0
M  V30 11486 H 1094.73 0.285342 -0.65123 0
M  V30 11487 H 1097.33 0.113254 -1.95172 0
M  V30 11488 H 1096.03 0.91148 -4.0015 0
M  V30 11489 H 1095.56 2.38069 -3.13188 0
M  V30 11490 H 1097.58 3.61425 -3.3998 0
M  V30 11491 N 1096.75 1.52266 0.40654 0
M  V30 11492 C 1098 1.67654 1.15168 0
M  V30 11493 C 1098.35 0.402751 1.88137 0
M  V30 11494 O 1097.64 -0.60291 1.81867 0
M  V30 11495 C 1097.84 2.8389 2.1712 0
M  V30 11496 C 1097.67 4.2245 1.54162 0
M  V30 11497 C 1096.44 4.87937 1.31322 0
M  V30 11498 C 1098.64 5.04462 1.00112 0
M  V30 11499 N 1096.62 6.10525 0.642842 0
M  V30 11500 C 1097.99 6.18307 0.457805 0
M  V30 11501 C 1100.04 4.89775 0.89583 0
M  V30 11502 C 1098.75 7.19074 -0.180477 0
M  V30 11503 C 1100.77 5.90777 0.271397 0
M  V30 11504 C 1100.13 7.03915 -0.261225 0
M  V30 11505 H 1096.23 0.667121 0.408012 0
M  V30 11506 H 1098.82 1.89577 0.443695 0
M  V30 11507 H 1096.99 2.63578 2.85274 0
M  V30 11508 H 1098.72 2.88302 2.84014 0
M  V30 11509 H 1095.48 4.46345 1.58344 0
M  V30 11510 H 1095.9 6.76223 0.324204 0
M  V30 11511 H 1100.54 4.0253 1.29344 0
M  V30 11512 H 1098.26 8.05942 -0.590141 0
M  V30 11513 H 1101.85 5.81485 0.191417 0
M  V30 11514 H 1100.73 7.80731 -0.736791 0
M  V30 11515 N 1098.23 -0.663929 1.42933 0
M  V30 11516 C 1099.47 -1.43583 1.45476 0
M  V30 11517 C 1099.83 -1.91862 0.0728387 0
M  V30 11518 O 1101.03 -2.68786 -0.0270249 0
M  V30 11519 C 1099.3 -2.59316 2.45947 0
M  V30 11520 S 1100.86 -3.48004 2.6728 0
M  V30 11521 H 1097.68 -0.490261 0.514942 0
M  V30 11522 H 1100.28 -0.771834 1.79619 0
M  V30 11523 H 1098.99 -2.22104 3.45106 0
M  V30 11524 H 1098.52 -3.30577 2.13266 0
M  V30 11525 H 1100.53 -4.55677 1.96399 0
M  V30 11526 N 1099.71 -1.29285 -0.901281 0
M  V30 11527 C 1100.96 -1.16538 -1.64626 0
M  V30 11528 C 1101.27 0.282623 -1.93547 0
M  V30 11529 O 1102.47 0.531396 -2.66249 0
M  V30 11530 C 1100.93 -2.03809 -2.96631 0
M  V30 11531 C 1100.54 -3.53423 -2.75311 0
M  V30 11532 C 1102.28 -1.99782 -3.7455 0
M  V30 11533 C 1100.19 -4.32804 -4.03032 0
M  V30 11534 H 1099.12 -0.432561 -0.617581 0
M  V30 11535 H 1101.77 -1.53912 -0.999159 0
M  V30 11536 H 1100.15 -1.59302 -3.62545 0
M  V30 11537 H 1101.33 -4.05971 -2.18 0
M  V30 11538 H 1099.64 -3.59106 -2.10789 0
M  V30 11539 H 1102.24 -2.5635 -4.69243 0
M  V30 11540 H 1102.58 -0.97743 -4.04663 0
M  V30 11541 H 1103.11 -2.42324 -3.15474 0
M  V30 11542 H 1099.85 -5.35473 -3.78086 0
M  V30 11543 H 1099.37 -3.85025 -4.59909 0
M  V30 11544 H 1101.05 -4.43383 -4.71191 0
M  V30 11545 N 1101.18 1.11143 -1.11736 0
M  V30 11546 C 1102.43 1.82586 -0.866412 0
M  V30 11547 C 1102.75 1.85227 0.609593 0
M  V30 11548 O 1102.02 1.32505 1.44288 0
M  V30 11549 H 1100.6 0.676149 -0.31754 0
M  V30 11550 H 1103.27 1.34516 -1.41037 0
M  V30 11551 H 1102.36 2.8635 -1.24136 0
M  V30 11552 N 1102.66 0.908147 1.28804 0
M  V30 11553 C 1103.89 0.55409 1.99343 0
M  V30 11554 C 1104.31 -0.863262 1.67908 0
M  V30 11555 O 1103.66 -1.571 0.92875 0
M  V30 11556 C 1103.71 0.746916 3.537 0
M  V30 11557 O 1103.43 2.10849 3.84024 0
M  V30 11558 C 1104.94 0.398939 4.41501 0
M  V30 11559 H 1102.16 0.211784 0.636701 0
M  V30 11560 H 1104.7 1.21981 1.64137 0
M  V30 11561 H 1102.85 0.128264 3.87188 0
M  V30 11562 H 1103.27 2.14404 4.78676 0
M  V30 11563 H 1104.74 0.584656 5.48895 0
M  V30 11564 H 1105.22 -0.664517 4.34144 0
M  V30 11565 H 1105.83 0.994892 4.135 0
M  V30 11566 N 1104.14 -1.42577 0.671525 0
M  V30 11567 C 1105.38 -2.03455 0.196271 0
M  V30 11568 C 1105.74 -1.51934 -1.17389 0
M  V30 11569 O 1106.95 -2.04577 -1.74361 0
M  V30 11570 C 1105.22 -3.56687 0.225624 0
M  V30 11571 S 1106.78 -4.38434 -0.179107 0
M  V30 11572 H 1103.59 -0.706371 0.0809995 0
M  V30 11573 H 1106.2 -1.74375 0.883948 0
M  V30 11574 H 1104.9 -3.91684 1.22524 0
M  V30 11575 H 1104.43 -3.90436 -0.481994 0
M  V30 11576 H 1106.45 -4.75646 -1.41332 0
M  V30 11577 N 1105.62 -0.414636 -1.52048 0
M  V30 11578 C 1106.58 0.396285 -2.25748 0
M  V30 11579 C 1107.58 0.969003 -1.28324 0
M  V30 11580 O 1108.77 0.847016 -1.52221 0
M  V30 11581 C 1105.9 1.55838 -3.03195 0
M  V30 11582 H 1107.1 -0.249311 -2.98862 0
M  V30 11583 H 1104.65 -0.167276 -1.55402 0
M  V30 11584 H 1105.38 2.24068 -2.34444 0
M  V30 11585 H 1105.17 1.15414 -3.74729 0
M  V30 11586 H 1106.66 2.13187 -3.59084 0
M  V30 11587 N 1107.1 1.56929 -0.145233 0
M  V30 11588 C 1108.32 2.00431 0.513314 0
M  V30 11589 C 1108.74 1.0253 1.58534 0
M  V30 11590 O 1108.1 0.0220459 1.82487 0
M  V30 11591 C 1108.15 3.43856 1.11557 0
M  V30 11592 O 1107.87 4.38015 0.0863707 0
M  V30 11593 C 1109.37 4.02627 1.8549 0
M  V30 11594 H 1106.59 0.657529 0.133778 0
M  V30 11595 H 1109.13 2.03095 -0.239296 0
M  V30 11596 H 1107.29 3.4205 1.81881 0
M  V30 11597 H 1107.7 5.21842 0.527363 0
M  V30 11598 H 1109.18 5.04985 2.22923 0
M  V30 11599 H 1109.65 3.43239 2.74014 0
M  V30 11600 H 1110.26 4.08058 1.19869 0
M  V30 11601 N 1108.58 -0.128553 1.57075 0
M  V30 11602 C 1109.51 -1.18822 1.94825 0
M  V30 11603 C 1110.49 -1.40609 0.816571 0
M  V30 11604 O 1111.67 -1.5492 1.07388 0
M  V30 11605 C 1108.8 -2.54383 2.23623 0
M  V30 11606 C 1107.84 -2.4908 3.4621 0
M  V30 11607 S 1108.68 -1.93974 4.99133 0
M  V30 11608 C 1109.83 -3.31228 5.31074 0
M  V30 11609 H 1110.07 -0.866246 2.844 0
M  V30 11610 H 1107.6 -0.334927 1.50724 0
M  V30 11611 H 1109.56 -3.32386 2.40893 0
M  V30 11612 H 1108.22 -2.83761 1.34678 0
M  V30 11613 H 1107.41 -3.48915 3.63695 0
M  V30 11614 H 1107.01 -1.79193 3.28277 0
M  V30 11615 H 1109.3 -4.27407 5.25671 0
M  V30 11616 H 1110.25 -3.18578 6.32387 0
M  V30 11617 H 1110.66 -3.29215 4.5856 0
M  V30 11618 N 1110.05 -1.5248 -0.398459 0
M  V30 11619 C 1111.3 -1.67061 -1.14441 0
M  V30 11620 C 1111.63 -0.405821 -1.90219 0
M  V30 11621 O 1110.88 0.611532 -1.859 0
M  V30 11622 C 1111.18 -2.85038 -2.15611 0
M  V30 11623 C 1110.85 -4.22847 -1.56561 0
M  V30 11624 C 1109.51 -4.60329 -1.40182 0
M  V30 11625 C 1111.86 -5.08683 -1.1354 0
M  V30 11626 C 1109.19 -5.81314 -0.793149 0
M  V30 11627 C 1111.54 -6.30284 -0.540866 0
M  V30 11628 C 1110.21 -6.66505 -0.364297 0
M  V30 11629 H 1109.48 -0.611321 -0.418769 0
M  V30 11630 H 1112.12 -1.86604 -0.430241 0
M  V30 11631 H 1110.43 -2.59873 -2.93212 0
M  V30 11632 H 1112.13 -2.93516 -2.73221 0
M  V30 11633 H 1108.72 -3.93316 -1.70295 0
M  V30 11634 H 1112.9 -4.80301 -1.24999 0
M  V30 11635 H 1108.16 -6.07994 -0.64446 0
M  V30 11636 H 1112.33 -6.96115 -0.199167 0
M  V30 11637 H 1109.96 -7.60121 0.109439 0
M  V30 11638 N 1111.53 0.65634 -1.43283 0
M  V30 11639 C 1112.76 1.44906 -1.48382 0
M  V30 11640 C 1113.18 1.87823 -0.101993 0
M  V30 11641 O 1112.54 1.57178 0.903597 0
M  V30 11642 C 1112.59 2.66231 -2.43215 0
M  V30 11643 O 1111.69 3.65176 -1.91625 0
M  V30 11644 H 1111.03 0.434601 -0.502014 0
M  V30 11645 H 1113.56 0.803429 -1.88165 0
M  V30 11646 H 1113.57 3.14083 -2.60414 0
M  V30 11647 H 1112.25 2.34336 -3.43598 0
M  V30 11648 H 1110.82 3.24302 -1.84072 0
M  V30 11649 N 1113.01 1.29761 0.894412 0
M  V30 11650 C 1114.23 1.21064 1.68399 0
M  V30 11651 C 1114.66 -0.224608 1.86754 0
M  V30 11652 O 1114.02 -1.16199 1.39167 0
M  V30 11653 C 1114.07 1.93468 3.04306 0
M  V30 11654 O 1113.17 1.25533 3.9283 0
M  V30 11655 H 1112.51 0.419223 0.514925 0
M  V30 11656 H 1115.04 1.71421 1.11696 0
M  V30 11657 H 1115.05 2.02127 3.54413 0
M  V30 11658 H 1113.73 2.97857 2.90265 0
M  V30 11659 H 1112.3 1.25168 3.51266 0
M  V30 11660 N 1114.49 -1.10549 1.12324 0
M  V30 11661 C 1115.4 -2.20428 0.803032 0
M  V30 11662 C 1116.41 -1.72756 -0.207674 0
M  V30 11663 O 1117.59 -2.01357 -0.0415623 0
M  V30 11664 C 1114.65 -3.45716 0.261032 0
M  V30 11665 C 1113.72 -4.08129 1.33152 0
M  V30 11666 C 1112.95 -5.27436 0.815288 0
M  V30 11667 O 1113.17 -5.69317 -0.351361 0
M  V30 11668 O 1112.11 -5.80674 1.58434 0
M  V30 11669 H 1115.93 -2.50249 1.72073 0
M  V30 11670 H 1113.52 -1.19263 0.899815 0
M  V30 11671 H 1115.4 -4.21384 -0.0364007 0
M  V30 11672 H 1114.07 -3.17525 -0.629249 0
M  V30 11673 H 1112.98 -3.3415 1.6821 0
M  V30 11674 H 1114.31 -4.4052 2.19552 0
M  V30 11675 N 1115.97 -0.914965 -1.28321 0
M  V30 11676 C 1117.21 -0.549562 -1.95212 0
M  V30 11677 C 1117.54 0.904658 -1.71842 0
M  V30 11678 O 1116.82 1.64354 -1.04009 0
M  V30 11679 C 1117.1 -0.860927 -3.49657 0
M  V30 11680 C 1116.96 -2.36797 -3.82423 0
M  V30 11681 C 1118.27 -0.357926 -4.38642 0
M  V30 11682 H 1115.39 -0.201136 -0.709023 0
M  V30 11683 H 1118.04 -1.14443 -1.51667 0
M  V30 11684 H 1116.19 -0.354665 -3.86878 0
M  V30 11685 H 1117.86 -2.94494 -3.55065 0
M  V30 11686 H 1116.1 -2.82245 -3.29424 0
M  V30 11687 H 1116.77 -2.53637 -4.90278 0
M  V30 11688 H 1119.25 -0.791636 -4.085 0
M  V30 11689 H 1118.12 -0.604855 -5.45557 0
M  V30 11690 H 1118.38 0.741775 -4.35833 0
M  V30 11691 N 1117.44 1.42219 -0.679077 0
M  V30 11692 C 1118.38 2.29172 0.035583 0
M  V30 11693 C 1119.39 1.43909 0.761183 0
M  V30 11694 O 1120.58 1.67584 0.61463 0
M  V30 11695 C 1117.68 3.21426 1.07419 0
M  V30 11696 C 1116.85 4.35364 0.421547 0
M  V30 11697 C 1115.91 5.08307 1.36051 0
M  V30 11698 O 1114.94 5.62678 0.859186 0
M  V30 11699 N 1116.14 5.14222 2.69362 0
M  V30 11700 H 1118.9 2.91147 -0.710865 0
M  V30 11701 H 1116.46 1.53192 -0.523821 0
M  V30 11702 H 1118.46 3.67091 1.70371 0
M  V30 11703 H 1117.03 2.60873 1.72233 0
M  V30 11704 H 1116.25 3.9229 -0.387559 0
M  V30 11705 H 1117.53 5.08789 -0.0329421 0
M  V30 11706 H 1116.93 4.71467 3.12627 0
M  V30 11707 H 1115.49 5.63519 3.27551 0
M  V30 11708 N 1118.92 0.422693 1.51826 0
M  V30 11709 C 1120.17 -0.148641 2.01954 0
M  V30 11710 C 1120.5 -1.43982 1.30765 0
M  V30 11711 O 1119.75 -1.91428 0.406668 0
M  V30 11712 C 1120.05 -0.429516 3.5481 0
M  V30 11713 C 1119.72 0.774088 4.44206 0
M  V30 11714 C 1118.38 1.1042 4.6836 0
M  V30 11715 C 1120.73 1.5777 4.96747 0
M  V30 11716 C 1118.06 2.23887 5.42302 0
M  V30 11717 C 1120.41 2.70325 5.71933 0
M  V30 11718 C 1119.07 3.03807 5.94355 0
M  V30 11719 H 1118.34 -0.0543917 0.739001 0
M  V30 11720 H 1120.99 0.566892 1.82917 0
M  V30 11721 H 1119.3 -1.22678 3.72099 0
M  V30 11722 H 1120.99 -0.884761 3.91118 0
M  V30 11723 H 1117.58 0.506834 4.25593 0
M  V30 11724 H 1121.77 1.33589 4.77983 0
M  V30 11725 H 1117.02 2.50159 5.5788 0
M  V30 11726 H 1121.2 3.32974 6.11638 0
M  V30 11727 H 1118.82 3.91844 6.51431 0
M  V30 11728 N 1120.4 -1.5685 0.153553 0
M  V30 11729 C 1121.65 -1.95946 -0.494936 0
M  V30 11730 C 1121.97 -1.03975 -1.64967 0
M  V30 11731 O 1121.24 -0.102572 -1.95631 0
M  V30 11732 H 1119.82 -0.723516 -0.185833 0
M  V30 11733 H 1122.48 -1.93531 0.230585 0
M  V30 11734 H 1121.58 -2.99823 -0.866743 0
M  V30 11735 N 1121.88 0.120221 -1.57141 0
M  V30 11736 C 1122.83 1.15332 -1.96679 0
M  V30 11737 C 1123.81 1.37134 -0.841607 0
M  V30 11738 O 1125 1.38247 -1.10529 0
M  V30 11739 C 1122.13 2.48021 -2.37361 0
M  V30 11740 C 1121.22 2.29699 -3.5651 0
M  V30 11741 N 1121.61 1.81186 -4.72234 0
M  V30 11742 C 1119.91 2.60359 -3.62118 0
M  V30 11743 C 1120.61 1.76542 -5.54263 0
M  V30 11744 N 1119.58 2.20843 -4.96719 0
M  V30 11745 H 1123.39 0.770763 -2.83613 0
M  V30 11746 H 1120.9 0.327979 -1.59054 0
M  V30 11747 H 1122.9 3.22739 -2.63903 0
M  V30 11748 H 1121.56 2.87036 -1.51791 0
M  V30 11749 H 1122.57 1.50751 -4.95474 0
M  V30 11750 H 1119.25 3.03067 -2.87152 0
M  V30 11751 H 1120.64 1.40298 -6.57089 0
M  V30 11752 N 1123.36 1.52689 0.390367 0
M  V30 11753 C 1124.32 1.76726 1.45947 0
M  V30 11754 C 1125.32 0.637269 1.47633 0
M  V30 11755 O 1126.51 0.905312 1.48828 0
M  V30 11756 C 1123.64 1.86678 2.85244 0
M  V30 11757 H 1124.83 2.72185 1.25918 0
M  V30 11758 H 1122.39 1.4339 0.622023 0
M  V30 11759 H 1123.12 0.931991 3.10619 0
M  V30 11760 H 1122.91 2.68843 2.85422 0
M  V30 11761 H 1124.4 2.06952 3.62713 0
M  V30 11762 N 1124.83 -0.648732 1.43629 0
M  V30 11763 C 1126.08 -1.40579 1.45196 0
M  V30 11764 C 1126.4 -1.9484 0.0790556 0
M  V30 11765 O 1125.67 -1.74707 -0.886239 0
M  V30 11766 H 1124.25 -0.52175 0.53459 0
M  V30 11767 H 1126.92 -0.764796 1.79268 0
M  V30 11768 H 1126.01 -2.24591 2.16715 0
M  V30 11769 N 1126.31 -1.30234 -0.887518 0
M  V30 11770 C 1127.28 -1.16384 -1.97452 0
M  V30 11771 C 1128.28 -0.0957942 -1.60514 0
M  V30 11772 O 1129.47 -0.343706 -1.70776 0
M  V30 11773 C 1126.6 -0.782514 -3.31797 0
M  V30 11774 H 1127.79 -2.12952 -2.11167 0
M  V30 11775 H 1125.34 -1.13594 -1.07359 0
M  V30 11776 H 1126.08 0.18278 -3.23785 0
M  V30 11777 H 1125.86 -1.55434 -3.59976 0
M  V30 11778 H 1127.35 -0.709011 -4.11537 0
M  V30 11779 N 1127.79 1.09952 -1.12909 0
M  V30 11780 C 1129.03 1.83635 -0.897646 0
M  V30 11781 C 1129.39 1.83462 0.566179 0
M  V30 11782 O 1130.6 2.52748 0.914977 0
M  V30 11783 C 1128.87 3.26095 -1.46277 0
M  V30 11784 S 1130.43 4.16846 -1.37059 0
M  V30 11785 H 1127.24 0.633045 -0.32369 0
M  V30 11786 H 1129.85 1.32275 -1.43957 0
M  V30 11787 H 1128.55 3.23793 -2.52163 0
M  V30 11788 H 1128.08 3.82526 -0.918549 0
M  V30 11789 H 1130.1 4.94996 -0.345399 0
M  V30 11790 N 1129.27 0.921757 1.27833 0
M  V30 11791 C 1130.23 0.420978 2.25301 0
M  V30 11792 C 1131.23 -0.457158 1.54165 0
M  V30 11793 O 1132.42 -0.259079 1.72263 0
M  V30 11794 C 1129.55 -0.395501 3.38598 0
M  V30 11795 H 1130.75 1.28206 2.71115 0
M  V30 11796 H 1128.3 0.701893 1.39654 0
M  V30 11797 H 1129.03 -1.27565 2.98157 0
M  V30 11798 H 1128.82 0.234029 3.91401 0
M  V30 11799 H 1130.31 -0.736444 4.11055 0
M  V30 11800 N 1130.75 -1.41857 0.686609 0
M  V30 11801 C 1131.69 -2.326 0.0041351 0
M  V30 11802 C 1132.69 -1.50474 -0.778077 0
M  V30 11803 O 1133.89 -1.66468 -0.684709 0
M  V30 11804 H 1130.27 -0.751797 -0.0174615 0
M  V30 11805 H 1132.24 -2.87844 0.786656 0
M  V30 11806 C 1130.99 -3.35175 -0.924819 0
M  V30 11807 H 1130.31 -3.98416 -0.332339 0
M  V30 11808 H 1131.75 -4.01229 -1.37082 0
M  V30 11809 C 1130.21 -2.68359 -2.03679 0
M  V30 11810 O 1130.74 -2.52453 -3.12459 0
M  V30 11811 N 1128.95 -2.27196 -1.81192 0
M  V30 11812 H 1128.49 -2.40333 -0.92725 0
M  V30 11813 H 1128.45 -1.82824 -2.55778 0
M  V30 11814 N 1132.22 -0.430739 -1.51599 0
M  V30 11815 C 1133.16 0.419726 -2.25324 0
M  V30 11816 C 1134.17 0.991925 -1.29092 0
M  V30 11817 O 1135.36 0.887188 -1.54891 0
M  V30 11818 C 1132.46 1.59844 -2.98836 0
M  V30 11819 C 1131.63 1.14629 -4.22112 0
M  V30 11820 C 1130.69 2.19437 -4.78261 0
M  V30 11821 O 1129.72 1.79141 -5.40275 0
M  V30 11822 N 1130.92 3.51849 -4.61717 0
M  V30 11823 H 1133.68 -0.212112 -2.98948 0
M  V30 11824 H 1131.24 -0.259269 -1.59811 0
M  V30 11825 H 1133.24 2.29567 -3.33288 0
M  V30 11826 H 1131.81 2.13575 -2.28264 0
M  V30 11827 H 1131.03 0.276367 -3.9323 0
M  V30 11828 H 1132.31 0.821488 -5.02124 0
M  V30 11829 H 1131.71 3.87324 -4.12306 0
M  V30 11830 H 1130.27 4.17486 -5.00548 0
M  V30 11831 N 1133.7 1.56767 -0.161869 0
M  V30 11832 C 1134.67 2.16299 0.758104 0
M  V30 11833 C 1135.67 1.10859 1.16478 0
M  V30 11834 O 1136.86 1.36422 1.08327 0
M  V30 11835 C 1133.99 2.73819 2.03067 0
M  V30 11836 H 1135.18 2.98938 0.239992 0
M  V30 11837 H 1132.73 1.56054 0.0876532 0
M  V30 11838 H 1133.47 1.94887 2.59209 0
M  V30 11839 H 1133.25 3.50974 1.74813 0
M  V30 11840 H 1134.74 3.19638 2.68741 0
M  V30 11841 N 1135.18 -0.111886 1.57202 0
M  V30 11842 C 1136.41 -0.836317 1.89791 0
M  V30 11843 C 1136.83 -1.72304 0.754513 0
M  V30 11844 O 1136.19 -1.78889 -0.294672 0
M  V30 11845 C 1136.24 -1.63971 3.21164 0
M  V30 11846 O 1135.34 -2.74726 3.0757 0
M  V30 11847 H 1134.68 -0.230833 0.622585 0
M  V30 11848 H 1137.21 -0.0921478 2.04392 0
M  V30 11849 H 1137.22 -2.02746 3.54059 0
M  V30 11850 H 1135.9 -0.98882 4.03974 0
M  V30 11851 H 1134.47 -2.39101 2.86156 0
M  V30 11852 N 1136.66 -1.52894 -0.382264 0
M  V30 11853 C 1137.57 -1.81084 -1.4915 0
M  V30 11854 C 1138.58 -0.698045 -1.59384 0
M  V30 11855 O 1139.76 -0.98635 -1.75594 0
M  V30 11856 C 1136.83 -1.97987 -2.84608 0
M  V30 11857 C 1135.89 -3.219 -2.8404 0
M  V30 11858 C 1135.12 -3.37988 -4.13037 0
M  V30 11859 O 1135.34 -2.58733 -5.08344 0
M  V30 11860 O 1134.28 -4.31273 -4.19866 0
M  V30 11861 H 1138.1 -2.75289 -1.28257 0
M  V30 11862 H 1135.69 -1.38068 -0.57076 0
M  V30 11863 H 1137.57 -2.10773 -3.64901 0
M  V30 11864 H 1136.24 -1.06972 -3.05514 0
M  V30 11865 H 1135.15 -3.14551 -2.02505 0
M  V30 11866 H 1136.48 -4.12783 -2.68087 0
M  V30 11867 N 1138.14 0.641106 -1.43971 0
M  V30 11868 C 1139.37 1.42829 -1.49692 0
M  V30 11869 C 1139.78 1.88427 -0.118594 0
M  V30 11870 O 1139.14 1.60234 0.873581 0
M  V30 11871 C 1139.19 2.65524 -2.45314 0
M  V30 11872 O 1138.91 2.2183 -3.77787 0
M  V30 11873 C 1140.41 3.58758 -2.60399 0
M  V30 11874 H 1137.63 0.438367 -0.508011 0
M  V30 11875 H 1140.17 0.784933 -1.88836 0
M  V30 11876 H 1138.33 3.25973 -2.09332 0
M  V30 11877 H 1138.74 3.01303 -4.29321 0
M  V30 11878 H 1140.22 4.41483 -3.31357 0
M  V30 11879 H 1140.69 4.06909 -1.65294 0
M  V30 11880 H 1141.3 3.04184 -2.97241 0
M  V30 11881 N 1139.62 1.30703 0.880598 0
M  V30 11882 C 1140.58 1.17429 1.96832 0
M  V30 11883 C 1141.58 0.104305 1.60461 0
M  V30 11884 O 1142.77 0.352758 1.70591 0
M  V30 11885 C 1139.9 0.800099 3.31378 0
M  V30 11886 H 1141.09 2.14069 2.10034 0
M  V30 11887 H 1138.65 1.14162 1.06755 0
M  V30 11888 H 1139.38 -0.165606 3.23877 0
M  V30 11889 H 1139.17 1.57341 3.59146 0
M  V30 11890 H 1140.66 0.730826 4.11155 0
M  V30 11891 N 1141.09 -1.09351 1.1349 0
M  V30 11892 C 1142.34 -1.81812 0.898452 0
M  V30 11893 C 1142.67 -1.85525 -0.573959 0
M  V30 11894 O 1141.95 -1.32403 -1.42477 0
M  V30 11895 C 1142.23 -3.27921 1.48794 0
M  V30 11896 C 1142.08 -3.32476 3.02952 0
M  V30 11897 C 1143.4 -4.24625 1.15678 0
M  V30 11898 H 1140.52 -0.660074 0.327829 0
M  V30 11899 H 1143.16 -1.28091 1.40331 0
M  V30 11900 H 1141.31 -3.738 1.05858 0
M  V30 11901 H 1142.99 -2.94994 3.54649 0
M  V30 11902 H 1141.23 -2.72037 3.37903 0
M  V30 11903 H 1141.9 -4.35409 3.39298 0
M  V30 11904 H 1144.38 -3.87036 1.52781 0
M  V30 11905 H 1143.25 -5.25194 1.59571 0
M  V30 11906 H 1143.51 -4.42044 0.0705933 0
M  V30 11907 N 1142.57 -0.928524 -1.27343 0
M  V30 11908 C 1143.53 -0.43292 -2.25074 0
M  V30 11909 C 1144.53 0.448976 -1.54405 0
M  V30 11910 O 1145.72 0.249939 -1.72398 0
M  V30 11911 C 1142.86 0.377539 -3.38803 0
M  V30 11912 H 1144.05 -1.29642 -2.70431 0
M  V30 11913 H 1141.6 -0.709289 -1.3928 0
M  V30 11914 H 1142.34 1.25982 -2.98829 0
M  V30 11915 H 1142.12 -0.254782 -3.91271 0
M  V30 11916 H 1143.61 0.714634 -4.1144 0
M  V30 11917 N 1144.05 1.41491 -0.694123 0
M  V30 11918 C 1145 2.30783 -0.0278824 0
M  V30 11919 C 1145.97 1.47028 0.772783 0
M  V30 11920 O 1147.15 1.75819 0.74111 0
M  V30 11921 C 1144.29 3.33061 0.903579 0
M  V30 11922 C 1143.4 4.31896 0.0946823 0
M  V30 11923 C 1142.54 5.21243 1.02365 0
M  V30 11924 C 1141.58 6.11748 0.207578 0
M  V30 11925 N 1140.72 6.93583 1.09028 0
M  V30 11926 H 1145.56 2.87197 -0.795092 0
M  V30 11927 H 1143.09 1.41449 -0.403806 0
M  V30 11928 H 1145.05 3.90907 1.45765 0
M  V30 11929 H 1143.68 2.782 1.6372 0
M  V30 11930 H 1142.73 3.76009 -0.576289 0
M  V30 11931 H 1144.04 4.95889 -0.538059 0
M  V30 11932 H 1143.2 5.83917 1.647 0
M  V30 11933 H 1141.94 4.57473 1.69025 0
M  V30 11934 H 1140.94 5.48125 -0.428854 0
M  V30 11935 H 1142.17 6.77573 -0.455206 0
M  V30 11936 H 1140.11 6.32422 1.74292 0
M  V30 11937 H 1140.03 7.54257 0.513073 0
M  V30 11938 H 1141.3 7.60726 1.70048 0
M  V30 11939 N 1145.53 0.438773 1.51369 0
M  V30 11940 C 1146.48 -0.386324 2.29369 0
M  V30 11941 C 1147.47 -1.0196 1.3528 0
M  V30 11942 O 1148.68 -0.9544 1.52615 0
M  V30 11943 H 1145.05 -0.143397 0.738201 0
M  V30 11944 H 1147.02 0.292372 2.96964 0
M  V30 11945 C 1145.77 -1.47426 3.14898 0
M  V30 11946 H 1145.09 -0.996335 3.87186 0
M  V30 11947 H 1146.53 -2.02481 3.72529 0
M  V30 11948 C 1144.99 -2.45831 2.30366 0
M  V30 11949 O 1145.52 -3.50398 1.96428 0
M  V30 11950 N 1143.73 -2.16754 1.93561 0
M  V30 11951 H 1143.28 -1.31748 2.2136 0
M  V30 11952 H 1143.23 -2.82836 1.373 0
M  V30 11953 N 1147.01 -1.56678 0.170181 0
M  V30 11954 C 1147.94 -2.15083 -0.791961 0
M  V30 11955 C 1148.95 -1.10612 -1.19452 0
M  V30 11956 O 1150.14 -1.37803 -1.13457 0
M  V30 11957 C 1147.24 -2.67769 -2.07733 0
M  V30 11958 C 1146.41 -3.96885 -1.83851 0
M  V30 11959 C 1145.47 -4.34646 -2.96596 0
M  V30 11960 O 1144.5 -5.02543 -2.67281 0
M  V30 11961 N 1145.7 -3.96112 -4.24353 0
M  V30 11962 H 1148.46 -2.98268 -0.292658 0
M  V30 11963 H 1146.03 -1.61895 -0.0126383 0
M  V30 11964 H 1148.02 -2.90029 -2.8225 0
M  V30 11965 H 1146.59 -1.89179 -2.48858 0
M  V30 11966 H 1145.81 -3.83013 -0.932452 0
M  V30 11967 H 1147.1 -4.81213 -1.65261 0
M  V30 11968 H 1146.49 -3.41448 -4.51032 0
M  V30 11969 H 1145.05 -4.23375 -4.95577 0
M  V30 11970 N 1148.48 0.103547 -1.57259 0
M  V30 11971 C 1149.45 1.11039 -2.00507 0
M  V30 11972 C 1150.45 1.33432 -0.897361 0
M  V30 11973 O 1151.64 1.29688 -1.16304 0
M  V30 11974 C 1148.77 2.46144 -2.35851 0
M  V30 11975 H 1149.96 0.738332 -2.90669 0
M  V30 11976 H 1147.51 0.348334 -1.52369 0
M  V30 11977 H 1148.25 2.88242 -1.48617 0
M  V30 11978 H 1148.03 2.31241 -3.16654 0
M  V30 11979 H 1149.52 3.18577 -2.69997 0
M  V30 11980 N 1149.96 1.53094 0.37415 0
M  V30 11981 C 1150.89 1.81901 1.46404 0
M  V30 11982 C 1151.87 0.671949 1.56265 0
M  V30 11983 O 1153.06 0.920978 1.70973 0
M  V30 11984 C 1150.19 2.00123 2.83845 0
M  V30 11985 C 1149.14 3.15864 2.88814 0
M  V30 11986 C 1148.47 3.19364 4.28848 0
M  V30 11987 C 1149.77 4.54633 2.57112 0
M  V30 11988 H 1151.46 2.73172 1.22546 0
M  V30 11989 H 1149.01 1.31444 0.588087 0
M  V30 11990 H 1150.96 2.18859 3.6011 0
M  V30 11991 H 1149.68 1.05555 3.09072 0
M  V30 11992 H 1148.34 2.96935 2.15 0
M  V30 11993 H 1147.99 2.2245 4.51137 0
M  V30 11994 H 1147.69 3.97123 4.3309 0
M  V30 11995 H 1149.22 3.40273 5.06997 0
M  V30 11996 H 1150.63 4.73587 3.23091 0
M  V30 11997 H 1149.03 5.34569 2.72683 0
M  V30 11998 H 1150.1 4.60331 1.52392 0
M  V30 11999 N 1151.44 -0.633461 1.44309 0
M  V30 12000 C 1152.39 -1.74554 1.50995 0
M  V30 12001 C 1153.36 -1.62199 0.357873 0
M  V30 12002 O 1154.54 -1.82156 0.567787 0
M  V30 12003 C 1151.68 -3.12792 1.45791 0
M  V30 12004 C 1150.79 -3.3614 2.71356 0
M  V30 12005 C 1149.93 -4.64337 2.58002 0
M  V30 12006 C 1148.97 -4.80855 3.78741 0
M  V30 12007 N 1148.11 -6.00327 3.64077 0
M  V30 12008 H 1152.95 -1.68174 2.46011 0
M  V30 12009 H 1150.48 -0.820407 1.22097 0
M  V30 12010 H 1152.44 -3.92735 1.40765 0
M  V30 12011 H 1151.07 -3.18193 0.543445 0
M  V30 12012 H 1150.12 -2.50154 2.86579 0
M  V30 12013 H 1151.43 -3.44226 3.60985 0
M  V30 12014 H 1150.59 -5.52437 2.50795 0
M  V30 12015 H 1149.33 -4.58605 1.65929 0
M  V30 12016 H 1148.33 -3.91185 3.86334 0
M  V30 12017 H 1149.56 -4.88403 4.71847 0
M  V30 12018 H 1147.5 -5.9569 2.74754 0
M  V30 12019 H 1147.42 -6.09459 4.47321 0
M  V30 12020 H 1148.69 -6.90995 3.60758 0
M  V30 12021 N 1152.92 -1.31168 -0.873655 0
M  V30 12022 C 1153.83 -1.20458 -2.01313 0
M  V30 12023 C 1154.84 -0.122074 -1.73571 0
M  V30 12024 O 1156.02 -0.339176 -1.98523 0
M  V30 12025 C 1153.09 -0.90876 -3.34578 0
M  V30 12026 C 1152.15 -2.07779 -3.75668 0
M  V30 12027 C 1151.38 -1.79599 -5.02573 0
M  V30 12028 O 1151.6 -0.729338 -5.65718 0
M  V30 12029 O 1150.54 -2.65169 -5.40341 0
M  V30 12030 H 1154.36 -2.16207 -2.13279 0
M  V30 12031 H 1151.95 -1.10871 -1.00139 0
M  V30 12032 H 1153.83 -0.759469 -4.145 0
M  V30 12033 H 1152.5 0.0187249 -3.23695 0
M  V30 12034 H 1151.41 -2.28247 -2.96402 0
M  V30 12035 H 1152.74 -2.9874 -3.91172 0
M  V30 12036 N 1154.4 1.08748 -1.14068 0
M  V30 12037 C 1155.36 2.1375 -0.827266 0
M  V30 12038 C 1156.36 1.59936 0.166496 0
M  V30 12039 O 1157.55 1.74092 -0.0614305 0
M  V30 12040 C 1154.68 3.40106 -0.232557 0
M  V30 12041 H 1155.87 2.42985 -1.7578 0
M  V30 12042 H 1153.43 1.24402 -0.946244 0
M  V30 12043 H 1154.16 3.16503 0.706859 0
M  V30 12044 H 1153.95 3.8046 -0.948293 0
M  V30 12045 H 1155.44 4.17589 -0.0303662 0
M  V30 12046 N 1155.87 0.935264 1.26849 0
M  V30 12047 C 1157.12 0.578545 1.93642 0
M  V30 12048 C 1157.44 -0.884296 1.73796 0
M  V30 12049 O 1156.71 -1.62768 1.09011 0
M  V30 12050 H 1155.29 0.210976 0.716588 0
M  V30 12051 H 1157.96 1.1893 1.54407 0
M  V30 12052 H 1157.05 0.791268 3.01903 0
M  V30 12053 N 1157.35 -1.41121 0.701616 0
M  V30 12054 C 1158.6 -2.01428 0.235495 0
M  V30 12055 C 1158.93 -1.55463 -1.16382 0
M  V30 12056 O 1158.21 -0.768477 -1.78675 0
M  V30 12057 C 1158.49 -3.58849 0.299919 0
M  V30 12058 C 1158.34 -4.14924 1.73661 0
M  V30 12059 C 1159.66 -4.38809 -0.336856 0
M  V30 12060 H 1156.78 -0.731842 0.0870456 0
M  V30 12061 H 1159.42 -1.67787 0.891479 0
M  V30 12062 H 1157.57 -3.87638 -0.258611 0
M  V30 12063 H 1159.24 -3.96987 2.34945 0
M  V30 12064 H 1157.49 -3.69738 2.26884 0
M  V30 12065 H 1158.16 -5.24085 1.73318 0
M  V30 12066 H 1160.63 -4.15868 0.138886 0
M  V30 12067 H 1159.51 -5.48278 -0.261264 0
M  V30 12068 H 1159.77 -4.18728 -1.41843 0
M  V30 12069 N 1158.83 -0.446794 -1.51134 0
M  V30 12070 C 1160.08 0.116493 -2.02165 0
M  V30 12071 C 1160.41 1.41884 -1.33039 0
M  V30 12072 O 1159.66 1.90757 -0.437071 0
M  V30 12073 C 1159.96 0.373015 -3.55448 0
M  V30 12074 C 1159.63 -0.844659 -4.42918 0
M  V30 12075 C 1158.29 -1.17857 -4.66544 0
M  V30 12076 C 1160.64 -1.65653 -4.94174 0
M  V30 12077 C 1157.97 -2.32486 -5.38672 0
M  V30 12078 C 1160.32 -2.7939 -5.6756 0
M  V30 12079 C 1158.98 -3.13224 -5.89446 0
M  V30 12080 H 1158.25 0.0426279 -0.739773 0
M  V30 12081 H 1160.9 -0.595921 -1.81992 0
M  V30 12082 H 1159.21 1.16742 -3.74003 0
M  V30 12083 H 1160.9 0.822425 -3.92476 0
M  V30 12084 H 1157.49 -0.574478 -4.24733 0
M  V30 12085 H 1161.68 -1.41176 -4.75797 0
M  V30 12086 H 1156.93 -2.59003 -5.5383 0
M  V30 12087 H 1161.11 -3.42662 -6.06264 0
M  V30 12088 H 1158.73 -4.02158 -6.45115 0
M  V30 12089 N 1160.31 1.56586 -0.178487 0
M  V30 12090 C 1161.55 1.9739 0.465306 0
M  V30 12091 C 1161.89 1.06474 1.6241 0
M  V30 12092 O 1161.16 0.113316 1.9417 0
M  V30 12093 C 1161.45 3.47577 0.941408 0
M  V30 12094 C 1161.3 4.49271 -0.218054 0
M  V30 12095 C 1162.62 4.01038 1.81263 0
M  V30 12096 H 1159.74 0.717676 0.167663 0
M  V30 12097 H 1162.38 1.88128 -0.266067 0
M  V30 12098 H 1160.53 3.556 1.56463 0
M  V30 12099 H 1162.2 4.53301 -0.855332 0
M  V30 12100 H 1160.44 4.24936 -0.872441 0
M  V30 12101 H 1161.11 5.51776 0.157315 0
M  V30 12102 H 1163.59 3.9569 1.28718 0
M  V30 12103 H 1162.47 5.06526 2.11476 0
M  V30 12104 H 1162.73 3.45288 2.76096 0
M  V30 12105 N 1161.79 -0.095206 1.57312 0
M  V30 12106 C 1163.2 -0.649733 1.7503 0
M  V30 12107 C 1163.55 -1.7912 0.800652 0
M  V30 12108 O 1162.67 -2.1639 -0.0208831 0
M  V30 12109 C 1163.27 -1.18541 3.17386 0
M  V30 12110 C 1161.83 -1.686 3.36528 0
M  V30 12111 C 1160.97 -0.595531 2.7083 0
M  V30 12112 H 1163.93 0.130863 1.5816 0
M  V30 12113 H 1163.95 -2.05473 3.20252 0
M  V30 12114 H 1163.46 -0.35441 3.86478 0
M  V30 12115 H 1161.56 -2.541 2.72514 0
M  V30 12116 H 1161.67 -1.77907 4.44844 0
M  V30 12117 H 1160.04 -1.03495 2.32725 0
M  V30 12118 H 1160.82 0.224883 3.42563 0
M  V30 12119 N 1163.26 -1.53291 -0.366026 0
M  V30 12120 C 1164.68 -1.43053 -0.707669 0
M  V30 12121 C 1164.88 -0.56925 -1.93292 0
M  V30 12122 O 1163.94 -0.0515214 -2.52447 0
M  V30 12123 C 1165.25 -2.86239 -0.921292 0
M  V30 12124 C 1166.8 -2.95868 -1.02133 0
M  V30 12125 C 1167.27 -4.40114 -1.26743 0
M  V30 12126 N 1168.76 -4.43541 -1.33514 0
M  V30 12127 C 1169.5 -5.52259 -1.54264 0
M  V30 12128 N 1168.99 -6.71024 -1.72335 0
M  V30 12129 N 1170.79 -5.39836 -1.5663 0
M  V30 12130 H 1162.94 -2.07795 0.43988 0
M  V30 12131 H 1165.2 -0.938376 0.134736 0
M  V30 12132 H 1164.91 -3.51578 -0.0928042 0
M  V30 12133 H 1164.78 -3.29862 -1.82951 0
M  V30 12134 H 1167.17 -2.30683 -1.84036 0
M  V30 12135 H 1167.25 -2.5564 -0.0905097 0
M  V30 12136 H 1166.89 -5.05872 -0.453409 0
M  V30 12137 H 1166.82 -4.77914 -2.21146 0
M  V30 12138 H 1169.31 -3.57949 -1.21165 0
M  V30 12139 H 1169.63 -7.49649 -1.8774 0
M  V30 12140 H 1167.97 -6.7401 -1.69514 0
M  V30 12141 H 1171.16 -4.46017 -1.4208 0
M  V30 12142 H 1171.34 -6.24629 -1.72461 0
M  V30 12143 N 1164.74 0.6258 -1.44643 0
M  V30 12144 C 1165.97 1.41726 -1.51422 0
M  V30 12145 C 1166.39 1.87565 -0.14181 0
M  V30 12146 O 1165.75 1.59059 0.870054 0
M  V30 12147 C 1165.8 2.61012 -2.48807 0
M  V30 12148 O 1164.9 3.61029 -1.99328 0
M  V30 12149 H 1164.24 0.423855 -0.511119 0
M  V30 12150 H 1166.77 0.763336 -1.89827 0
M  V30 12151 H 1166.78 3.08489 -2.67018 0
M  V30 12152 H 1165.46 2.26995 -3.48491 0
M  V30 12153 H 1164.04 3.20325 -1.90909 0
M  V30 12154 N 1166.22 1.31629 0.866686 0
M  V30 12155 C 1167.47 1.21503 1.61998 0
M  V30 12156 C 1167.8 -0.226044 1.93182 0
M  V30 12157 O 1167.05 -1.17573 1.56445 0
M  V30 12158 C 1167.35 2.00775 2.95676 0
M  V30 12159 C 1167.02 3.50245 2.83971 0
M  V30 12160 C 1165.68 3.91 2.80485 0
M  V30 12161 C 1168.03 4.45347 2.70769 0
M  V30 12162 C 1165.36 5.25119 2.61661 0
M  V30 12163 C 1167.71 5.79595 2.53481 0
M  V30 12164 C 1166.37 6.19567 2.48381 0
M  V30 12165 H 1165.64 0.44461 0.592792 0
M  V30 12166 H 1168.29 1.62929 1.00629 0
M  V30 12167 H 1166.6 1.52039 3.61097 0
M  V30 12168 H 1168.29 1.90318 3.52959 0
M  V30 12169 H 1164.88 3.17869 2.87502 0
M  V30 12170 H 1169.07 4.14789 2.72514 0
M  V30 12171 H 1164.32 5.5516 2.5614 0
M  V30 12172 H 1168.5 6.5291 2.42243 0
M  V30 12173 H 1166.12 7.23434 2.33554 0
M  V30 12174 N 1167.7 -1.08142 1.14644 0
M  V30 12175 C 1168.98 -1.77254 0.827071 0
M  V30 12176 C 1169.36 -1.99885 -0.67891 0
M  V30 12177 O 1168.7 -1.61084 -1.62062 0
M  V30 12178 C 1168.91 -3.08658 1.62884 0
M  V30 12179 C 1170.26 -3.83143 1.82993 0
M  V30 12180 O 1171.29 -3.18447 1.59593 0
M  V30 12181 O 1170.15 -4.9932 2.2213 0
M  V30 12182 H 1167.24 -0.769356 0.30335 0
M  V30 12183 H 1169.79 -1.1458 1.25178 0
M  V30 12184 H 1168.56 -2.87753 2.65168 0
M  V30 12185 H 1168.18 -3.79061 1.19994 0
M  V30 12186 N 1169.18 -0.941978 -1.26351 0
M  V30 12187 C 1170.09 -0.45833 -2.30079 0
M  V30 12188 C 1171.1 0.468084 -1.67586 0
M  V30 12189 O 1172.28 0.347418 -1.98381 0
M  V30 12190 C 1169.34 0.26797 -3.45663 0
M  V30 12191 C 1168.41 -0.695102 -4.23635 0
M  V30 12192 C 1167.64 -0.003369 -5.337 0
M  V30 12193 O 1167.86 1.21342 -5.57344 0
M  V30 12194 O 1166.8 -0.682476 -5.98018 0
M  V30 12195 H 1170.62 -1.31998 -2.73514 0
M  V30 12196 H 1168.21 -0.707897 -1.31564 0
M  V30 12197 H 1170.09 0.677061 -4.15925 0
M  V30 12198 H 1168.76 1.105 -3.04256 0
M  V30 12199 H 1167.67 -1.15415 -3.55851 0
M  V30 12200 H 1169 -1.49977 -4.68794 0
M  V30 12201 N 1170.66 1.40747 -0.709091 0
M  V30 12202 C 1171.59 2.33404 -0.0669763 0
M  V30 12203 C 1172.57 1.52546 0.752582 0
M  V30 12204 O 1173.75 1.81036 0.702823 0
M  V30 12205 C 1170.88 3.36476 0.860285 0
M  V30 12206 C 1169.84 4.27748 0.146828 0
M  V30 12207 C 1169.16 5.21304 1.18937 0
M  V30 12208 C 1170.46 5.12734 -0.995064 0
M  V30 12209 H 1172.16 2.87349 -0.840888 0
M  V30 12210 H 1169.7 1.38163 -0.405817 0
M  V30 12211 H 1171.65 4.00231 1.31883 0
M  V30 12212 H 1170.38 2.80912 1.66602 0
M  V30 12213 H 1169.04 3.65437 -0.291826 0
M  V30 12214 H 1168.69 4.62048 1.98798 0
M  V30 12215 H 1168.39 5.8321 0.716917 0
M  V30 12216 H 1169.91 5.87936 1.64815 0
M  V30 12217 H 1171.32 5.69979 -0.61618 0
M  V30 12218 H 1169.72 5.83649 -1.39547 0
M  V30 12219 H 1170.79 4.49097 -1.82867 0
M  V30 12220 N 1172.13 0.454803 1.50895 0
M  V30 12221 C 1173.38 -0.105562 2.01824 0
M  V30 12222 C 1173.7 -1.41673 1.33992 0
M  V30 12223 O 1172.97 -1.89929 0.479994 0
M  V30 12224 H 1171.55 -0.0420011 0.745818 0
M  V30 12225 H 1174.21 0.601504 1.85386 0
M  V30 12226 H 1173.31 -0.268872 3.1094 0
M  V30 12227 N 1173.61 -1.56489 0.186789 0
M  V30 12228 C 1174.52 -2.22304 -0.749543 0
M  V30 12229 C 1175.54 -1.21949 -1.24115 0
M  V30 12230 O 1176.71 -1.5466 -1.29005 0
M  V30 12231 C 1173.78 -2.863 -1.95533 0
M  V30 12232 C 1172.84 -4.01901 -1.5091 0
M  V30 12233 C 1172.07 -4.62837 -2.6574 0
M  V30 12234 O 1172.3 -4.22681 -3.8301 0
M  V30 12235 O 1171.23 -5.52446 -2.38929 0
M  V30 12236 H 1175.06 -3.02909 -0.21908 0
M  V30 12237 H 1172.64 -1.49341 -0.0421249 0
M  V30 12238 H 1174.52 -3.2682 -2.6602 0
M  V30 12239 H 1173.2 -2.08681 -2.47455 0
M  V30 12240 H 1172.1 -3.66021 -0.773261 0
M  V30 12241 H 1173.44 -4.8116 -1.03663 0
M  V30 12242 N 1175.09 0.086862 -1.5736 0
M  V30 12243 C 1176.34 0.787581 -1.85688 0
M  V30 12244 C 1176.65 1.79494 -0.777263 0
M  V30 12245 O 1177.86 2.54415 -0.947914 0
M  V30 12246 C 1176.31 1.45155 -3.2933 0
M  V30 12247 C 1175.92 0.483539 -4.45383 0
M  V30 12248 C 1177.67 2.13552 -3.66873 0
M  V30 12249 C 1175.57 1.15257 -5.8006 0
M  V30 12250 H 1174.5 0.297882 -0.692663 0
M  V30 12251 H 1177.15 0.0406299 -1.83455 0
M  V30 12252 H 1175.54 2.24625 -3.26128 0
M  V30 12253 H 1176.71 -0.280254 -4.59947 0
M  V30 12254 H 1175.02 -0.0951664 -4.16291 0
M  V30 12255 H 1177.62 2.64355 -4.6478 0
M  V30 12256 H 1177.96 2.92818 -2.95911 0
M  V30 12257 H 1178.5 1.40932 -3.71999 0
M  V30 12258 H 1175.24 0.400546 -6.54275 0
M  V30 12259 H 1174.76 1.88759 -5.69324 0
M  V30 12260 H 1176.44 1.67671 -6.24896 0
M  V30 12261 N 1176.57 1.53483 0.357892 0
M  V30 12262 C 1177.82 1.69256 1.09706 0
M  V30 12263 C 1178.13 0.454888 1.90237 0
M  V30 12264 O 1179.34 0.4933 2.66981 0
M  V30 12265 C 1177.79 2.99238 1.99961 0
M  V30 12266 C 1177.4 4.30293 1.24706 0
M  V30 12267 C 1179.14 3.24378 2.73823 0
M  V30 12268 C 1177.05 5.5136 2.13907 0
M  V30 12269 H 1175.98 0.630657 0.413265 0
M  V30 12270 H 1178.63 1.79983 0.357518 0
M  V30 12271 H 1177.01 2.82332 2.77677 0
M  V30 12272 H 1178.19 4.57857 0.519995 0
M  V30 12273 H 1176.5 4.11656 0.626736 0
M  V30 12274 H 1179.1 4.12015 3.40805 0
M  V30 12275 H 1179.44 2.40769 3.39612 0
M  V30 12276 H 1179.98 3.41994 2.03187 0
M  V30 12277 H 1176.71 6.3747 1.52684 0
M  V30 12278 H 1176.23 5.28065 2.84442 0
M  V30 12279 H 1177.91 5.86448 2.7329 0
M  V30 12280 N 1178.05 -0.61812 1.44973 0
M  V30 12281 C 1178.98 -1.74299 1.48837 0
M  V30 12282 C 1179.99 -1.58296 0.38028 0
M  V30 12283 O 1181.18 -1.66371 0.646757 0
M  V30 12284 C 1178.28 -3.12179 1.31901 0
M  V30 12285 C 1177.45 -3.54519 2.56193 0
M  V30 12286 C 1176.51 -4.71324 2.33966 0
M  V30 12287 O 1175.54 -4.78975 3.07525 0
M  V30 12288 N 1176.74 -5.63894 1.37854 0
M  V30 12289 H 1179.5 -1.7145 2.45815 0
M  V30 12290 H 1177.07 -0.803087 1.40578 0
M  V30 12291 H 1179.06 -3.88059 1.14858 0
M  V30 12292 H 1177.63 -3.09595 0.43239 0
M  V30 12293 H 1176.85 -2.68711 2.88423 0
M  V30 12294 H 1178.14 -3.79563 3.38835 0
M  V30 12295 H 1177.53 -5.60418 0.771273 0
M  V30 12296 H 1176.09 -6.3935 1.26787 0
M  V30 12297 N 1179.52 -1.32087 -0.859693 0
M  V30 12298 C 1180.75 -1.25486 -1.6513 0
M  V30 12299 C 1181.17 0.175015 -1.87284 0
M  V30 12300 O 1180.53 1.12468 -1.42199 0
M  V30 12301 C 1180.58 -2.01469 -2.9907 0
M  V30 12302 O 1179.68 -1.35904 -3.89363 0
M  V30 12303 H 1179.02 -0.432728 -0.503629 0
M  V30 12304 H 1181.55 -1.74322 -1.07112 0
M  V30 12305 H 1181.56 -2.11452 -3.4893 0
M  V30 12306 H 1180.24 -3.05448 -2.82266 0
M  V30 12307 H 1178.82 -1.34437 -3.47823 0
M  V30 12308 N 1181 1.07532 -1.15215 0
M  V30 12309 C 1182.25 1.8036 -0.927263 0
M  V30 12310 C 1182.58 1.86414 0.544371 0
M  V30 12311 O 1181.86 1.34653 1.40353 0
M  V30 12312 C 1182.14 3.25512 -1.53992 0
M  V30 12313 C 1181.99 3.27614 -3.08203 0
M  V30 12314 C 1183.31 4.22731 -1.22418 0
M  V30 12315 H 1180.43 0.654775 -0.338289 0
M  V30 12316 H 1183.07 1.25842 -1.42351 0
M  V30 12317 H 1181.22 3.72068 -1.11791 0
M  V30 12318 H 1182.89 2.89315 -3.59297 0
M  V30 12319 H 1181.14 2.66627 -3.42188 0
M  V30 12320 H 1181.81 4.29956 -3.46182 0
M  V30 12321 H 1184.28 3.84557 -1.58919 0
M  V30 12322 H 1183.16 5.22589 -1.67906 0
M  V30 12323 H 1183.42 4.41875 -0.14091 0
M  V30 12324 N 1182.48 0.948665 1.2585 0
M  V30 12325 C 1183.71 0.616334 1.97193 0
M  V30 12326 C 1184.12 -0.814538 1.70769 0
M  V30 12327 O 1183.46 -1.55569 0.976926 0
M  V30 12328 C 1183.52 0.787814 3.50762 0
M  V30 12329 C 1183.19 2.19472 4.0085 0
M  V30 12330 C 1184.18 3.17087 4.12009 0
M  V30 12331 C 1181.87 2.51731 4.34669 0
M  V30 12332 C 1183.86 4.45058 4.56292 0
M  V30 12333 C 1181.55 3.79932 4.78639 0
M  V30 12334 C 1182.55 4.76408 4.89412 0
M  V30 12335 O 1182.24 6.02325 5.32409 0
M  V30 12336 H 1181.97 0.230487 0.635493 0
M  V30 12337 H 1184.52 1.27379 1.61133 0
M  V30 12338 H 1182.75 0.0732154 3.86631 0
M  V30 12339 H 1184.44 0.457427 4.03314 0
M  V30 12340 H 1185.21 2.9349 3.8612 0
M  V30 12341 H 1181.09 1.77369 4.25513 0
M  V30 12342 H 1184.63 5.20363 4.64616 0
M  V30 12343 H 1180.53 4.03338 5.03973 0
M  V30 12344 H 1181.3 6.05615 5.50611 0
M  V30 12345 N 1183.96 -1.40369 0.716545 0
M  V30 12346 C 1184.87 -2.34508 0.065658 0
M  V30 12347 C 1185.88 -1.57352 -0.742723 0
M  V30 12348 O 1187.06 -1.89735 -0.675456 0
M  V30 12349 C 1184.13 -3.36262 -0.844337 0
M  V30 12350 C 1183.19 -4.29292 -0.0257971 0
M  V30 12351 C 1182.42 -5.26185 -0.892452 0
M  V30 12352 O 1182.64 -5.29071 -2.13166 0
M  V30 12353 O 1181.58 -6.0099 -0.330933 0
M  V30 12354 H 1185.4 -2.91789 0.842184 0
M  V30 12355 H 1182.99 -1.41579 0.477034 0
M  V30 12356 H 1184.87 -3.98661 -1.36555 0
M  V30 12357 H 1183.54 -2.81393 -1.59999 0
M  V30 12358 H 1182.45 -3.70175 0.540512 0
M  V30 12359 H 1183.78 -4.87316 0.69166 0
M  V30 12360 N 1185.44 -0.462799 -1.50652 0
M  V30 12361 C 1186.71 0.156221 -1.94975 0
M  V30 12362 C 1187.09 1.5775 -1.40279 0
M  V30 12363 O 1186.44 2.20473 -0.600323 0
M  V30 12364 C 1186.65 0.108008 -3.48833 0
M  V30 12365 C 1188 0.301013 -4.23532 0
M  V30 12366 O 1189.02 0.184973 -3.55719 0
M  V30 12367 O 1187.88 0.534457 -5.4388 0
M  V30 12368 H 1184.98 0.116182 -0.818798 0
M  V30 12369 H 1187.52 -0.522607 -1.61453 0
M  V30 12370 H 1186.29 -0.884634 -3.81169 0
M  V30 12371 H 1185.92 0.828653 -3.88869 0
M  V30 12372 N 1186.91 1.56388 -0.195085 0
M  V30 12373 C 1187.84 2.22091 0.720971 0
M  V30 12374 C 1188.83 1.184 1.22128 0
M  V30 12375 O 1190.01 1.46907 1.27012 0
M  V30 12376 C 1187.14 2.88025 1.94059 0
M  V30 12377 C 1186.09 3.97959 1.5752 0
M  V30 12378 C 1185.42 4.51058 2.87143 0
M  V30 12379 C 1186.72 5.16365 0.785145 0
M  V30 12380 H 1188.41 2.98898 0.173245 0
M  V30 12381 H 1185.96 1.43767 0.0818868 0
M  V30 12382 H 1187.91 3.32671 2.58666 0
M  V30 12383 H 1186.64 2.08623 2.51285 0
M  V30 12384 H 1185.3 3.54004 0.952715 0
M  V30 12385 H 1184.94 3.68418 3.42458 0
M  V30 12386 H 1184.64 5.25237 2.63439 0
M  V30 12387 H 1186.17 4.98406 3.52738 0
M  V30 12388 H 1187.58 5.57556 1.33431 0
M  V30 12389 H 1185.98 5.9661 0.646231 0
M  V30 12390 H 1187.05 4.84428 -0.213789 0
M  V30 12391 N 1188.39 -0.0785156 1.57404 0
M  V30 12392 C 1189.64 -0.780092 1.87196 0
M  V30 12393 C 1189.97 -1.77562 0.78647 0
M  V30 12394 O 1189.25 -1.93428 -0.203935 0
M  V30 12395 C 1189.53 -1.49408 3.27642 0
M  V30 12396 C 1189.38 -0.515416 4.46837 0
M  V30 12397 C 1190.7 -2.44064 3.66225 0
M  V30 12398 H 1187.82 -0.282134 0.680859 0
M  V30 12399 H 1190.46 -0.0433926 1.8995 0
M  V30 12400 H 1188.61 -2.12205 3.25425 0
M  V30 12401 H 1190.28 0.106827 4.61176 0
M  V30 12402 H 1188.53 0.169832 4.33467 0
M  V30 12403 H 1189.2 -1.05247 5.41874 0
M  V30 12404 H 1191.67 -1.91349 3.69493 0
M  V30 12405 H 1190.55 -2.91029 4.65396 0
M  V30 12406 H 1190.81 -3.28569 2.95796 0
M  V30 12407 N 1189.87 -1.5367 -0.349747 0
M  V30 12408 C 1190.83 -1.80533 -1.41211 0
M  V30 12409 C 1191.83 -0.676188 -1.45892 0
M  V30 12410 O 1193.02 -0.944453 -1.46375 0
M  V30 12411 C 1190.16 -1.94175 -2.80195 0
M  V30 12412 H 1191.35 -2.75428 -1.18658 0
M  V30 12413 H 1188.9 -1.44988 -0.583787 0
M  V30 12414 H 1189.64 -1.01402 -3.08039 0
M  V30 12415 H 1189.42 -2.76316 -2.78194 0
M  V30 12416 H 1190.91 -2.16496 -3.57098 0
M  V30 12417 N 1191.35 0.610423 -1.45298 0
M  V30 12418 C 1192.3 1.74245 -1.54083 0
M  V30 12419 C 1193.29 1.64338 -0.411003 0
M  V30 12420 O 1194.5 1.70167 -0.586799 0
M  V30 12421 H 1190.87 0.575612 -0.483916 0
M  V30 12422 H 1192.84 1.63961 -2.49318 0
M  V30 12423 C 1191.59 3.1262 -1.52198 0
M  V30 12424 H 1190.91 3.209 -2.3846 0
M  V30 12425 H 1192.35 3.91665 -1.62403 0
M  V30 12426 C 1190.81 3.36001 -0.24595 0
M  V30 12427 O 1191.34 3.95982 0.675374 0
M  V30 12428 N 1189.55 2.9025 -0.142537 0
M  V30 12429 H 1189.1 2.41621 -0.893143 0
M  V30 12430 H 1189.05 3.06268 0.710427 0
M  V30 12431 N 1192.83 1.32541 0.852676 0
M  V30 12432 C 1194.07 1.22971 1.60383 0
M  V30 12433 C 1194.4 -0.208009 1.93887 0
M  V30 12434 O 1193.67 -1.13326 1.59794 0
M  V30 12435 H 1192.25 0.452149 0.594618 0
M  V30 12436 H 1194.91 1.66089 1.01983 0
M  V30 12437 H 1194 1.81373 2.53989 0
M  V30 12438 N 1194.3 -1.0692 1.15784 0
M  V30 12439 C 1195.55 -1.79866 0.936815 0
M  V30 12440 C 1195.88 -1.867 -0.534477 0
M  V30 12441 O 1195.16 -1.35395 -1.39637 0
M  V30 12442 C 1195.44 -3.24691 1.55717 0
M  V30 12443 C 1195.29 -3.25975 3.09936 0
M  V30 12444 C 1196.61 -4.22076 1.24658 0
M  V30 12445 H 1193.73 -0.652971 0.341756 0
M  V30 12446 H 1196.37 -1.25085 1.43016 0
M  V30 12447 H 1194.52 -3.7147 1.13763 0
M  V30 12448 H 1196.2 -2.87405 3.60827 0
M  V30 12449 H 1194.44 -2.64808 3.43597 0
M  V30 12450 H 1195.11 -4.28114 3.48458 0
M  V30 12451 H 1197.59 -3.83709 1.60956 0
M  V30 12452 H 1196.46 -5.21691 1.70675 0
M  V30 12453 H 1196.72 -4.41794 0.164341 0
M  V30 12454 N 1195.78 -0.955326 -1.25345 0
M  V30 12455 C 1197.03 -0.606149 -1.92377 0
M  V30 12456 C 1197.34 0.860927 -1.75634 0
M  V30 12457 O 1198.55 1.3201 -2.37246 0
M  V30 12458 C 1197.01 -1.03341 -3.44744 0
M  V30 12459 C 1196.61 -2.52308 -3.70196 0
M  V30 12460 C 1198.36 -0.756797 -4.17699 0
M  V30 12461 C 1196.27 -2.88831 -5.16072 0
M  V30 12462 H 1195.2 -0.222994 -0.720271 0
M  V30 12463 H 1197.85 -1.15987 -1.42194 0
M  V30 12464 H 1196.23 -0.408096 -3.93892 0
M  V30 12465 H 1197.4 -3.19864 -3.31698 0
M  V30 12466 H 1195.72 -2.77448 -3.10502 0
M  V30 12467 H 1198.31 -1.00583 -5.25154 0
M  V30 12468 H 1198.66 0.306794 -4.15168 0
M  V30 12469 H 1199.19 -1.34249 -3.74462 0
M  V30 12470 H 1195.93 -3.9421 -5.23716 0
M  V30 12471 H 1195.45 -2.25948 -5.55614 0
M  V30 12472 H 1197.13 -2.78061 -5.84201 0
M  V30 12473 N 1197.26 1.39987 -0.723979 0
M  V30 12474 C 1198.51 2.01028 -0.267511 0
M  V30 12475 C 1198.84 1.57295 1.13894 0
M  V30 12476 O 1198.12 0.796805 1.7743 0
M  V30 12477 C 1198.4 3.58326 -0.356971 0
M  V30 12478 C 1198.25 4.12109 -1.8024 0
M  V30 12479 C 1199.57 4.39289 0.267003 0
M  V30 12480 H 1196.69 0.730364 -0.0986775 0
M  V30 12481 H 1199.33 1.66348 -0.91806 0
M  V30 12482 H 1197.48 3.88001 0.196908 0
M  V30 12483 H 1199.15 3.93199 -2.41231 0
M  V30 12484 H 1197.4 3.66082 -2.32737 0
M  V30 12485 H 1198.07 5.21261 -1.81634 0
M  V30 12486 H 1200.54 4.15595 -0.20503 0
M  V30 12487 H 1199.42 5.48624 0.174004 0
M  V30 12488 H 1199.68 4.20931 1.35164 0
M  V30 12489 N 1198.74 0.470782 1.50404 0
M  V30 12490 C 1200.15 0.0155901 1.86693 0
M  V30 12491 C 1200.5 -1.38908 1.38561 0
M  V30 12492 O 1199.63 -2.02971 0.750454 0
M  V30 12493 C 1200.22 0.0215152 3.38793 0
M  V30 12494 C 1198.78 -0.378206 3.74495 0
M  V30 12495 C 1197.93 0.407126 2.74295 0
M  V30 12496 H 1200.88 0.68507 1.43152 0
M  V30 12497 H 1200.9 -0.780717 3.72404 0
M  V30 12498 H 1200.41 1.04397 3.73795 0
M  V30 12499 H 1198.51 -1.40503 3.45094 0
M  V30 12500 H 1198.63 -0.0797643 4.79034 0
M  V30 12501 H 1196.99 -0.139123 2.5432 0
M  V30 12502 H 1197.77 1.42909 3.12141 0
M  V30 12503 N 1200.22 -1.56282 0.203376 0
M  V30 12504 C 1201.18 -2.18233 -0.700489 0
M  V30 12505 C 1202.18 -1.13908 -1.13497 0
M  V30 12506 O 1203.37 -1.39246 -1.04672 0
M  V30 12507 C 1200.5 -2.79107 -1.95735 0
M  V30 12508 H 1201.7 -2.99469 -0.160649 0
M  V30 12509 H 1199.25 -1.56232 -0.0462475 0
M  V30 12510 H 1199.98 -2.01691 -2.53951 0
M  V30 12511 H 1199.77 -3.55486 -1.65446 0
M  V30 12512 H 1201.26 -3.2665 -2.60172 0
M  V30 12513 N 1201.7 0.070167 -1.57444 0
M  V30 12514 C 1202.63 1.10996 -2.0053 0
M  V30 12515 C 1203.64 1.3489 -0.91151 0
M  V30 12516 O 1204.83 1.33102 -1.18938 0
M  V30 12517 C 1201.93 2.46053 -2.33048 0
M  V30 12518 C 1201.1 2.42092 -3.64294 0
M  V30 12519 C 1200.16 3.5927 -3.84463 0
M  V30 12520 O 1199.19 3.40625 -4.5603 0
M  V30 12521 N 1200.39 4.79677 -3.26941 0
M  V30 12522 H 1203.15 0.743029 -2.90343 0
M  V30 12523 H 1200.72 0.258794 -1.59818 0
M  V30 12524 H 1202.71 3.23089 -2.43712 0
M  V30 12525 H 1201.28 2.74742 -1.49116 0
M  V30 12526 H 1200.5 1.5043 -3.64368 0
M  V30 12527 H 1201.79 2.36548 -4.50469 0
M  V30 12528 H 1201.18 4.97729 -2.68855 0
M  V30 12529 H 1199.74 5.54219 -3.43051 0
M  V30 12530 N 1203.17 1.53854 0.341593 0
M  V30 12531 C 1204.08 1.84975 1.44297 0
M  V30 12532 C 1205.1 0.740057 1.57477 0
M  V30 12533 O 1206.28 1.03256 1.72917 0
M  V30 12534 C 1203.34 2.05464 2.79259 0
M  V30 12535 C 1202.4 3.29318 2.75405 0
M  V30 12536 C 1201.63 3.4882 4.03931 0
M  V30 12537 O 1201.86 2.7212 5.01305 0
M  V30 12538 O 1200.79 4.42253 4.08284 0
M  V30 12539 H 1204.62 2.78592 1.20913 0
M  V30 12540 H 1202.2 1.39532 0.533953 0
M  V30 12541 H 1204.08 2.20374 3.59184 0
M  V30 12542 H 1202.76 1.15035 3.0257 0
M  V30 12543 H 1201.67 3.1981 1.94094 0
M  V30 12544 H 1203 4.19746 2.57049 0
M  V30 12545 N 1204.65 -0.602709 1.4562 0
M  V30 12546 C 1205.9 -1.36359 1.50113 0
M  V30 12547 C 1206.23 -1.93663 0.144297 0
M  V30 12548 O 1205.51 -1.75337 -0.841851 0
M  V30 12549 C 1205.79 -2.50788 2.58413 0
M  V30 12550 C 1205.64 -1.98649 4.03557 0
M  V30 12551 C 1206.96 -3.52905 2.62957 0
M  V30 12552 H 1204.08 -0.494455 0.54652 0
M  V30 12553 H 1206.72 -0.678957 1.77455 0
M  V30 12554 H 1204.87 -3.09191 2.3523 0
M  V30 12555 H 1206.54 -1.44857 4.37966 0
M  V30 12556 H 1204.79 -1.29615 4.13984 0
M  V30 12557 H 1205.46 -2.81159 4.7503 0
M  V30 12558 H 1207.93 -3.0435 2.83743 0
M  V30 12559 H 1206.81 -4.30454 3.40589 0
M  V30 12560 H 1207.07 -4.0884 1.68233 0
M  V30 12561 N 1206.13 -1.32992 -0.845635 0
M  V30 12562 C 1207.54 -1.21616 -1.41656 0
M  V30 12563 C 1207.89 0.167687 -1.95482 0
M  V30 12564 O 1207.02 1.06692 -1.8827 0
M  V30 12565 C 1207.61 -2.2018 -2.575 0
M  V30 12566 C 1206.17 -2.12664 -3.10565 0
M  V30 12567 C 1205.32 -2.08042 -1.83341 0
M  V30 12568 H 1208.27 -1.44688 -0.651993 0
M  V30 12569 H 1208.29 -1.80558 -3.34931 0
M  V30 12570 H 1207.8 -3.20888 -2.18294 0
M  V30 12571 H 1205.9 -1.15235 -3.54333 0
M  V30 12572 H 1206.02 -3.02902 -3.71197 0
M  V30 12573 H 1204.38 -1.53416 -2.03312 0
M  V30 12574 H 1205.16 -3.10547 -1.46339 0
M  V30 12575 N 1207.61 1.06304 -1.1635 0
M  V30 12576 C 1209.02 1.60566 -0.952652 0
M  V30 12577 C 1209.37 1.8963 0.503473 0
M  V30 12578 O 1208.49 1.66964 1.37666 0
M  V30 12579 C 1209.09 2.9172 -1.72292 0
M  V30 12580 C 1207.65 3.42684 -1.55707 0
M  V30 12581 C 1206.8 2.16579 -1.73172 0
M  V30 12582 H 1209.75 0.892563 -1.31221 0
M  V30 12583 H 1209.77 3.61126 -1.19868 0
M  V30 12584 H 1209.28 2.70535 -2.78267 0
M  V30 12585 H 1207.38 3.68929 -0.521726 0
M  V30 12586 H 1207.49 4.18018 -2.34088 0
M  V30 12587 H 1205.86 2.26795 -1.15914 0
M  V30 12588 H 1206.64 1.97877 -2.80535 0
M  V30 12589 N 1209.09 0.96196 1.24836 0
M  V30 12590 C 1210.5 0.660388 1.7463 0
M  V30 12591 C 1210.85 -0.824064 1.78055 0
M  V30 12592 O 1209.97 -1.64485 1.40619 0
M  V30 12593 C 1210.57 1.19205 3.17137 0
M  V30 12594 C 1209.13 0.940493 3.64461 0
M  V30 12595 C 1208.27 1.33076 2.43282 0
M  V30 12596 H 1211.22 1.13794 1.1062 0
M  V30 12597 H 1211.25 0.555595 3.76422 0
M  V30 12598 H 1210.76 2.27247 3.14612 0
M  V30 12599 H 1208.86 -0.124645 3.72391 0
M  V30 12600 H 1208.97 1.5821 4.52224 0
M  V30 12601 H 1207.34 0.749139 2.43434 0
M  V30 12602 H 1208.12 2.42055 2.43442 0
M  V30 12603 N 1210.56 -1.39601 0.731392 0
M  V30 12604 C 1211.79 -2.04887 0.28789 0
M  V30 12605 C 1212.21 -1.55138 -1.076 0
M  V30 12606 O 1211.56 -0.71471 -1.67923 0
M  V30 12607 C 1211.61 -3.6044 0.276629 0
M  V30 12608 O 1211.34 -4.08358 1.58668 0
M  V30 12609 C 1212.84 -4.4292 -0.183485 0
M  V30 12610 H 1210.06 -0.658976 0.126459 0
M  V30 12611 H 1212.6 -1.78716 0.994031 0
M  V30 12612 H 1210.76 -3.85526 -0.380597 0
M  V30 12613 H 1211.17 -5.02659 1.4978 0
M  V30 12614 H 1212.64 -5.51822 -0.140207 0
M  V30 12615 H 1213.12 -4.2168 -1.22811 0
M  V30 12616 H 1213.73 -4.22976 0.444042 0
M  V30 12617 N 1212.04 -0.478751 -1.50152 0
M  V30 12618 C 1213.29 0.073694 -2.02666 0
M  V30 12619 C 1213.62 1.38679 -1.35947 0
M  V30 12620 O 1212.9 1.88286 -0.4877 0
M  V30 12621 C 1213.18 0.249516 -3.59235 0
M  V30 12622 C 1213.03 -1.08514 -4.36514 0
M  V30 12623 C 1214.35 1.00053 -4.28576 0
M  V30 12624 H 1211.47 0.0253082 -0.736565 0
M  V30 12625 H 1214.11 -0.625834 -1.79397 0
M  V30 12626 H 1212.26 0.845343 -3.79192 0
M  V30 12627 H 1213.93 -1.71814 -4.28109 0
M  V30 12628 H 1212.18 -1.67992 -3.99952 0
M  V30 12629 H 1212.85 -0.915676 -5.44352 0
M  V30 12630 H 1215.32 0.495422 -4.1314 0
M  V30 12631 H 1214.2 1.09236 -5.37921 0
M  V30 12632 H 1214.46 2.03896 -3.92274 0
M  V30 12633 N 1213.52 1.56172 -0.211661 0
M  V30 12634 C 1214.93 1.84307 0.297982 0
M  V30 12635 C 1215.28 1.1328 1.60194 0
M  V30 12636 O 1214.41 0.399137 2.12687 0
M  V30 12637 C 1215 3.34348 0.547428 0
M  V30 12638 C 1213.56 3.62835 1.0014 0
M  V30 12639 C 1212.71 2.77237 0.0590326 0
M  V30 12640 H 1215.66 1.5262 -0.435083 0
M  V30 12641 H 1215.68 3.54018 1.39469 0
M  V30 12642 H 1215.19 3.86015 -0.401778 0
M  V30 12643 H 1213.29 3.16616 1.96431 0
M  V30 12644 H 1213.41 4.70899 0.882653 0
M  V30 12645 H 1211.77 2.48377 0.564005 0
M  V30 12646 H 1212.55 3.31699 -0.884913 0
M  V30 12647 N 1215 -0.0618163 1.57479 0
M  V30 12648 C 1215.93 -1.10452 1.99689 0
M  V30 12649 C 1216.91 -1.37019 0.875473 0
M  V30 12650 O 1218.09 -1.50226 1.13862 0
M  V30 12651 C 1215.22 -2.44669 2.34211 0
M  V30 12652 C 1214.27 -2.34172 3.56463 0
M  V30 12653 S 1215.1 -1.7263 5.06911 0
M  V30 12654 C 1216.26 -3.08405 5.44644 0
M  V30 12655 H 1216.49 -0.744843 2.87818 0
M  V30 12656 H 1214.02 -0.270698 1.52008 0
M  V30 12657 H 1215.98 -3.2187 2.54774 0
M  V30 12658 H 1214.64 -2.77794 1.46592 0
M  V30 12659 H 1213.83 -3.33175 3.78167 0
M  V30 12660 H 1213.44 -1.65109 3.35582 0
M  V30 12661 H 1215.73 -4.04727 5.43325 0
M  V30 12662 H 1216.67 -2.9147 6.4533 0
M  V30 12663 H 1217.08 -3.0947 4.72111 0
M  V30 12664 N 1216.48 -1.54033 -0.333429 0
M  V30 12665 C 1217.75 -1.62404 -1.09015 0
M  V30 12666 C 1218.13 -0.451653 -2.06212 0
M  V30 12667 O 1217.48 0.555086 -2.21655 0
M  V30 12668 C 1217.69 -2.98949 -1.80085 0
M  V30 12669 C 1219.04 -3.54655 -2.33464 0
M  V30 12670 O 1220.06 -3.0119 -1.90166 0
M  V30 12671 O 1218.92 -4.48195 -3.12703 0
M  V30 12672 H 1216.02 -0.65727 -0.501921 0
M  V30 12673 H 1218.56 -1.66378 -0.33411 0
M  V30 12674 H 1217.33 -3.75716 -1.09332 0
M  V30 12675 H 1216.96 -2.98609 -2.62523 0
M  V30 12676 N 1217.95 0.594978 -1.45938 0
M  V30 12677 C 1219.18 1.37794 -1.53936 0
M  V30 12678 C 1219.59 1.88388 -0.175091 0
M  V30 12679 O 1218.94 1.63587 0.835757 0
M  V30 12680 C 1219 2.60906 -2.47322 0
M  V30 12681 C 1218.66 2.31865 -3.93812 0
M  V30 12682 C 1219.66 1.91451 -4.83366 0
M  V30 12683 C 1217.34 2.44387 -4.3884 0
M  V30 12684 C 1219.34 1.63938 -6.15957 0
M  V30 12685 C 1217.02 2.16487 -5.71469 0
M  V30 12686 C 1218.02 1.76326 -6.59847 0
M  V30 12687 O 1217.71 1.4876 -7.90016 0
M  V30 12688 H 1217.44 0.42775 -0.523456 0
M  V30 12689 H 1220 0.731487 -1.91933 0
M  V30 12690 H 1218.23 3.28315 -2.04319 0
M  V30 12691 H 1219.92 3.22964 -2.45863 0
M  V30 12692 H 1220.68 1.81301 -4.49839 0
M  V30 12693 H 1216.56 2.74612 -3.70283 0
M  V30 12694 H 1220.1 1.32516 -6.84898 0
M  V30 12695 H 1216 2.26257 -6.04548 0
M  V30 12696 H 1216.77 1.62708 -8.02165 0
M  V30 12697 N 1219.43 1.33438 0.838571 0
M  V30 12698 C 1220.66 1.28097 1.63113 0
M  V30 12699 C 1221.08 -0.145197 1.87539 0
M  V30 12700 O 1220.44 -1.10191 1.43971 0
M  V30 12701 C 1220.49 2.06201 2.95827 0
M  V30 12702 O 1219.59 1.42082 3.87152 0
M  V30 12703 H 1218.93 0.440685 0.496681 0
M  V30 12704 H 1221.46 1.76004 1.04325 0
M  V30 12705 H 1221.47 2.16977 3.45521 0
M  V30 12706 H 1220.15 3.099 2.77371 0
M  V30 12707 H 1218.73 1.39953 3.45641 0
M  V30 12708 N 1220.91 -1.05686 1.16912 0
M  V30 12709 C 1222.16 -1.79006 0.965835 0
M  V30 12710 C 1222.51 -1.85774 -0.500593 0
M  V30 12711 O 1221.8 -1.34282 -1.3667 0
M  V30 12712 C 1222 -3.22779 1.53455 0
M  V30 12713 C 1221.83 -3.30023 3.05474 0
M  V30 12714 C 1220.6 -3.396 3.74166 0
M  V30 12715 C 1222.8 -3.19376 4.03117 0
M  V30 12716 N 1220.78 -3.35923 5.13838 0
M  V30 12717 C 1222.15 -3.23013 5.2921 0
M  V30 12718 C 1224.2 -3.03304 3.94856 0
M  V30 12719 C 1222.91 -3.12228 6.48002 0
M  V30 12720 C 1224.93 -2.93859 5.13226 0
M  V30 12721 C 1224.29 -2.98124 6.38202 0
M  V30 12722 H 1220.39 -0.667577 0.407266 0
M  V30 12723 H 1222.98 -1.26025 1.48411 0
M  V30 12724 H 1221.15 -3.74143 1.04268 0
M  V30 12725 H 1222.88 -3.8431 1.26839 0
M  V30 12726 H 1219.64 -3.44654 3.24824 0
M  V30 12727 H 1220.06 -3.37567 5.86837 0
M  V30 12728 H 1224.7 -2.98848 2.99081 0
M  V30 12729 H 1222.42 -3.15439 7.43992 0
M  V30 12730 H 1226.01 -2.82501 5.0861 0
M  V30 12731 H 1224.89 -2.90882 7.28256 0
M  V30 12732 N 1222.39 -0.968567 -1.24324 0
M  V30 12733 C 1223.35 -0.504307 -2.23583 0
M  V30 12734 C 1224.35 0.399626 -1.55755 0
M  V30 12735 O 1225.54 0.194966 -1.73106 0
M  V30 12736 C 1222.67 0.26956 -3.39833 0
M  V30 12737 H 1223.87 -1.3818 -2.6617 0
M  V30 12738 H 1221.42 -0.753241 -1.36952 0
M  V30 12739 H 1222.15 1.16411 -3.02686 0
M  V30 12740 H 1221.94 -0.379133 -3.90263 0
M  V30 12741 H 1223.43 0.583376 -4.13505 0
M  V30 12742 N 1223.87 1.39211 -0.738786 0
M  V30 12743 C 1225.28 1.54116 -0.414773 0
M  V30 12744 C 1225.48 1.70497 1.07392 0
M  V30 12745 O 1224.54 1.7076 1.86003 0
M  V30 12746 C 1225.85 2.7567 -1.2011 0
M  V30 12747 C 1227.4 2.89508 -1.1897 0
M  V30 12748 C 1227.87 4.14005 -1.95868 0
M  V30 12749 N 1229.37 4.21052 -1.93053 0
M  V30 12750 C 1230.1 5.16341 -2.49358 0
M  V30 12751 N 1229.6 6.17396 -3.14316 0
M  V30 12752 N 1231.39 5.08585 -2.3937 0
M  V30 12753 H 1223.54 1.26827 -1.70378 0
M  V30 12754 H 1225.8 0.614983 -0.721457 0
M  V30 12755 H 1225.51 2.69922 -2.25467 0
M  V30 12756 H 1225.38 3.68443 -0.808065 0
M  V30 12757 H 1227.77 2.94747 -0.144248 0
M  V30 12758 H 1227.85 1.97788 -1.62214 0
M  V30 12759 H 1227.5 4.09527 -3.00416 0
M  V30 12760 H 1227.43 5.04776 -1.50028 0
M  V30 12761 H 1229.92 3.48669 -1.45733 0
M  V30 12762 H 1230.23 6.86572 -3.54737 0
M  V30 12763 H 1228.57 6.17772 -3.18407 0
M  V30 12764 H 1231.77 4.28573 -1.88262 0
M  V30 12765 H 1231.94 5.8267 -2.83549 0
M  V30 12766 N 1225.34 0.486708 1.49896 0
M  V30 12767 C 1226.25 -0.304222 2.32619 0
M  V30 12768 C 1227.27 -0.981103 1.43702 0
M  V30 12769 O 1228.45 -0.965639 1.76741 0
M  V30 12770 C 1225.51 -1.36301 3.18783 0
M  V30 12771 C 1224.57 -0.701082 4.23537 0
M  V30 12772 C 1223.81 -1.70943 5.05583 0
M  V30 12773 O 1224.03 -2.93773 4.88931 0
M  V30 12774 O 1222.96 -1.27263 5.88292 0
M  V30 12775 H 1226.79 0.37248 3.01407 0
M  V30 12776 H 1224.37 0.248277 1.47323 0
M  V30 12777 H 1226.26 -1.97594 3.72202 0
M  V30 12778 H 1224.93 -2.0229 2.52706 0
M  V30 12779 H 1223.84 -0.0487926 3.74068 0
M  V30 12780 H 1225.17 -0.0838817 4.92129 0
M  V30 12781 N 1226.82 -1.56058 0.219941 0
M  V30 12782 C 1227.75 -2.2321 -0.685547 0
M  V30 12783 C 1228.73 -1.20328 -1.20229 0
M  V30 12784 O 1229.92 -1.48909 -1.24659 0
M  V30 12785 C 1227.05 -2.91076 -1.89452 0
M  V30 12786 C 1226 -4.00415 -1.51169 0
M  V30 12787 C 1225.33 -4.55569 -2.79931 0
M  V30 12788 C 1226.63 -5.17549 -0.702896 0
M  V30 12789 H 1228.32 -2.99136 -0.125671 0
M  V30 12790 H 1225.87 -1.43879 -0.0590043 0
M  V30 12791 H 1227.82 -3.36744 -2.53341 0
M  V30 12792 H 1226.55 -2.12594 -2.47934 0
M  V30 12793 H 1225.21 -3.55475 -0.896275 0
M  V30 12794 H 1224.85 -3.73819 -3.36553 0
M  V30 12795 H 1224.55 -5.29361 -2.55049 0
M  V30 12796 H 1226.08 -5.03955 -3.44764 0
M  V30 12797 H 1227.49 -5.59608 -1.24544 0
M  V30 12798 H 1225.89 -5.97563 -0.551234 0
M  V30 12799 H 1226.96 -4.84027 0.29083 0
M  V30 12800 N 1228.3 0.053464 -1.57509 0
M  V30 12801 C 1229.55 0.747622 -1.87763 0
M  V30 12802 C 1229.87 1.77178 -0.814433 0
M  V30 12803 O 1229.14 1.95287 0.154862 0
M  V30 12804 H 1227.72 0.279109 -0.692898 0
M  V30 12805 H 1230.38 0.0252006 -1.94884 0
M  V30 12806 H 1229.48 1.25244 -2.85868 0
M  V30 12807 N 1229.78 1.54207 0.325255 0
M  V30 12808 C 1230.71 1.86467 1.40543 0
M  V30 12809 C 1231.69 0.721324 1.54048 0
M  V30 12810 O 1232.88 0.974905 1.67956 0
M  V30 12811 C 1230.01 2.09052 2.77335 0
M  V30 12812 C 1228.96 3.24893 2.78619 0
M  V30 12813 C 1228.29 3.32846 4.1847 0
M  V30 12814 C 1229.59 4.62582 2.42518 0
M  V30 12815 H 1231.28 2.76932 1.13794 0
M  V30 12816 H 1228.83 1.33248 0.545971 0
M  V30 12817 H 1230.78 2.30204 3.52964 0
M  V30 12818 H 1229.5 1.15335 3.05558 0
M  V30 12819 H 1228.16 3.03625 2.05444 0
M  V30 12820 H 1227.81 2.3669 4.43832 0
M  V30 12821 H 1227.51 4.10701 4.20237 0
M  V30 12822 H 1229.03 3.56231 4.95915 0
M  V30 12823 H 1230.45 4.83627 3.07861 0
M  V30 12824 H 1228.84 5.42974 2.55538 0
M  V30 12825 H 1229.91 4.64946 1.3767 0
M  V30 12826 N 1231.26 -0.58723 1.46251 0
M  V30 12827 C 1232.51 -1.34179 1.50595 0
M  V30 12828 C 1232.82 -1.94943 0.160171 0
M  V30 12829 O 1234.03 -2.71378 0.0813797 0
M  V30 12830 C 1232.48 -2.43159 2.65333 0
M  V30 12831 C 1232.09 -1.88718 4.06312 0
M  V30 12832 C 1233.83 -3.19986 2.78943 0
M  V30 12833 C 1231.74 -2.953 5.12398 0
M  V30 12834 H 1230.67 -0.504401 0.560442 0
M  V30 12835 H 1233.32 -0.627179 1.72449 0
M  V30 12836 H 1231.7 -3.17398 2.368 0
M  V30 12837 H 1232.88 -1.21051 4.44616 0
M  V30 12838 H 1231.19 -1.24572 3.97329 0
M  V30 12839 H 1233.79 -3.9952 3.5537 0
M  V30 12840 H 1234.13 -3.72288 1.86298 0
M  V30 12841 H 1234.67 -2.52852 3.07101 0
M  V30 12842 H 1231.4 -2.4789 6.0682 0
M  V30 12843 H 1230.92 -3.61469 4.78644 0
M  V30 12844 H 1232.6 -3.5933 5.38044 0
M  V30 12845 N 1232.74 -1.33881 -0.831482 0
M  V30 12846 C 1234.15 -1.13376 -1.1233 0
M  V30 12847 C 1234.35 0.0704402 -2.01377 0
M  V30 12848 O 1233.41 0.748516 -2.4115 0
M  V30 12849 C 1234.72 -2.42484 -1.77826 0
M  V30 12850 C 1236.27 -2.4846 -1.90359 0
M  V30 12851 C 1236.74 -3.77548 -2.59272 0
M  V30 12852 N 1238.23 -3.7866 -2.66778 0
M  V30 12853 C 1238.97 -4.75258 -3.20807 0
M  V30 12854 N 1238.47 -5.82234 -3.75466 0
M  V30 12855 N 1240.26 -4.62724 -3.19128 0
M  V30 12856 H 1232.41 -2.11051 -0.238998 0
M  V30 12857 H 1234.67 -0.932893 -0.168565 0
M  V30 12858 H 1234.38 -3.30647 -1.19857 0
M  V30 12859 H 1234.25 -2.55186 -2.77777 0
M  V30 12860 H 1236.64 -1.60742 -2.47479 0
M  V30 12861 H 1236.72 -2.39693 -0.893359 0
M  V30 12862 H 1236.36 -4.65651 -2.02808 0
M  V30 12863 H 1236.29 -3.83594 -3.60781 0
M  V30 12864 H 1238.79 -3.01351 -2.28026 0
M  V30 12865 H 1239.1 -6.51968 -4.14918 0
M  V30 12866 H 1237.44 -5.85959 -3.73733 0
M  V30 12867 H 1240.63 -3.78303 -2.75688 0
M  V30 12868 H 1240.81 -5.38175 -3.60932 0
M  V30 12869 N 1234.21 1.05064 -1.1747 0
M  V30 12870 C 1235.16 2.12841 -0.89259 0
M  V30 12871 C 1236.13 1.65288 0.16402 0
M  V30 12872 O 1237.32 1.90782 0.026537 0
M  V30 12873 C 1234.46 3.42614 -0.41344 0
M  V30 12874 C 1233.57 4.03835 -1.53432 0
M  V30 12875 C 1232.7 5.21531 -1.00891 0
M  V30 12876 C 1231.74 5.74761 -2.10515 0
M  V30 12877 N 1230.88 6.83756 -1.59442 0
M  V30 12878 H 1235.72 2.36312 -1.81551 0
M  V30 12879 H 1233.26 1.15929 -0.905483 0
M  V30 12880 H 1235.21 4.17035 -0.117181 0
M  V30 12881 H 1233.84 3.19323 0.472517 0
M  V30 12882 H 1232.9 3.2684 -1.94627 0
M  V30 12883 H 1234.21 4.3938 -2.36108 0
M  V30 12884 H 1233.36 6.03027 -0.666575 0
M  V30 12885 H 1232.1 4.87464 -0.151608 0
M  V30 12886 H 1231.11 4.91893 -2.45604 0
M  V30 12887 H 1232.33 6.10875 -2.96663 0
M  V30 12888 H 1230.28 6.51584 -0.759849 0
M  V30 12889 H 1230.19 7.18311 -2.35724 0
M  V30 12890 H 1231.46 7.68901 -1.28105 0
M  V30 12891 N 1235.69 0.975146 1.23809 0
M  V30 12892 C 1237.1 0.678873 1.7392 0
M  V30 12893 C 1237.45 -0.805133 1.78919 0
M  V30 12894 O 1236.58 -1.62984 1.42356 0
M  V30 12895 C 1237.17 1.22562 3.15854 0
M  V30 12896 C 1235.73 0.979096 3.63443 0
M  V30 12897 C 1234.88 1.35649 2.41857 0
M  V30 12898 H 1237.83 1.14961 1.09406 0
M  V30 12899 H 1237.85 0.595489 3.75811 0
M  V30 12900 H 1237.36 2.30571 3.12184 0
M  V30 12901 H 1235.46 -0.0851407 3.72503 0
M  V30 12902 H 1235.58 1.62998 4.5052 0
M  V30 12903 H 1233.94 0.774916 2.42626 0
M  V30 12904 H 1234.72 2.44624 2.40861 0
M  V30 12905 N 1237.17 -1.38817 0.746158 0
M  V30 12906 C 1238.13 -2.28876 0.121886 0
M  V30 12907 C 1239.13 -1.46838 -0.655379 0
M  V30 12908 O 1240.32 -1.67377 -0.482744 0
M  V30 12909 C 1237.45 -3.30487 -0.836118 0
M  V30 12910 H 1238.65 -2.85586 0.915453 0
M  V30 12911 H 1236.2 -1.47652 0.512691 0
M  V30 12912 H 1236.94 -2.78853 -1.65563 0
M  V30 12913 H 1236.72 -3.9109 -0.281271 0
M  V30 12914 H 1238.21 -3.97848 -1.26914 0
M  V30 12915 N 1238.65 -0.49465 -1.49636 0
M  V30 12916 C 1239.87 0.051305 -2.07337 0
M  V30 12917 C 1240.3 1.30637 -1.35335 0
M  V30 12918 O 1239.66 1.76647 -0.408126 0
M  V30 12919 C 1239.7 0.294425 -3.59396 0
M  V30 12920 O 1238.81 1.3704 -3.88965 0
M  V30 12921 H 1238.15 -0.023408 -0.663587 0
M  V30 12922 H 1240.68 -0.692451 -1.92526 0
M  V30 12923 H 1240.69 0.527854 -4.04571 0
M  V30 12924 H 1239.36 -0.622583 -4.11214 0
M  V30 12925 H 1237.94 1.12242 -3.55607 0
M  V30 12926 N 1240.13 1.55939 -0.228214 0
M  V30 12927 C 1241.37 1.98476 0.401677 0
M  V30 12928 C 1241.7 1.116 1.59297 0
M  V30 12929 O 1240.96 0.162465 1.95024 0
M  V30 12930 C 1241.25 3.46581 0.872732 0
M  V30 12931 C 1240.92 4.50416 -0.208767 0
M  V30 12932 C 1239.58 4.78534 -0.505847 0
M  V30 12933 C 1241.93 5.12656 -0.939852 0
M  V30 12934 C 1239.26 5.66171 -1.53841 0
M  V30 12935 C 1241.61 6.01412 -1.9618 0
M  V30 12936 C 1240.28 6.2787 -2.26573 0
M  V30 12937 H 1239.55 0.726276 0.146984 0
M  V30 12938 H 1242.2 1.88598 -0.332128 0
M  V30 12939 H 1240.5 3.53696 1.68541 0
M  V30 12940 H 1242.2 3.76869 1.37006 0
M  V30 12941 H 1238.79 4.28587 0.0329308 0
M  V30 12942 H 1242.97 4.90997 -0.723581 0
M  V30 12943 H 1238.23 5.84933 -1.77944 0
M  V30 12944 H 1242.4 6.48688 -2.53332 0
M  V30 12945 H 1240.03 6.95574 -3.06725 0
M  V30 12946 N 1241.6 -0.0451101 1.57535 0
M  V30 12947 C 1242.54 -1.08327 2.00849 0
M  V30 12948 C 1243.52 -1.36083 0.889957 0
M  V30 12949 O 1244.7 -1.49009 1.15449 0
M  V30 12950 C 1241.83 -2.42171 2.36793 0
M  V30 12951 C 1240.87 -2.30378 3.58926 0
M  V30 12952 S 1241.71 -1.67244 5.08714 0
M  V30 12953 C 1242.86 -3.02611 5.47885 0
M  V30 12954 H 1243.09 -0.714274 2.88592 0
M  V30 12955 H 1240.63 -0.254561 1.52287 0
M  V30 12956 H 1242.59 -3.1915 2.58174 0
M  V30 12957 H 1241.25 -2.76224 1.49531 0
M  V30 12958 H 1240.44 -3.29146 3.81679 0
M  V30 12959 H 1240.04 -1.6154 3.37314 0
M  V30 12960 H 1242.33 -3.98941 5.47587 0
M  V30 12961 H 1243.28 -2.84609 6.48385 0
M  V30 12962 H 1243.68 -3.04445 4.75367 0
M  V30 12963 N 1243.08 -1.54377 -0.317073 0
M  V30 12964 C 1244.31 -1.76865 -1.07362 0
M  V30 12965 C 1244.73 -0.520354 -1.81488 0
M  V30 12966 O 1244.08 0.509213 -1.75252 0
M  V30 12967 C 1244.13 -2.96598 -2.06668 0
M  V30 12968 O 1243.85 -4.16602 -1.35552 0
M  V30 12969 C 1245.36 -3.31348 -2.94489 0
M  V30 12970 H 1242.58 -0.590277 -0.319083 0
M  V30 12971 H 1245.12 -2.01284 -0.361227 0
M  V30 12972 H 1243.27 -2.74433 -2.73432 0
M  V30 12973 H 1243.69 -4.83996 -2.02108 0
M  V30 12974 H 1245.16 -4.1841 -3.60051 0
M  V30 12975 H 1245.64 -2.48797 -3.61935 0
M  V30 12976 H 1246.25 -3.55614 -2.33278 0
M  V30 12977 N 1244.56 0.579466 -1.4656 0
M  V30 12978 C 1245.79 1.36837 -1.55854 0
M  V30 12979 C 1246.21 1.87019 -0.20141 0
M  V30 12980 O 1245.57 1.61746 0.81901 0
M  V30 12981 C 1245.62 2.52965 -2.56985 0
M  V30 12982 O 1244.72 3.54505 -2.10713 0
M  V30 12983 H 1244.06 0.407379 -0.524345 0
M  V30 12984 H 1246.59 0.702558 -1.9216 0
M  V30 12985 H 1246.6 2.99838 -2.76697 0
M  V30 12986 H 1245.28 2.15793 -3.55536 0
M  V30 12987 H 1243.85 3.14089 -2.01003 0
M  V30 12988 N 1246.04 1.3432 0.824371 0
M  V30 12989 C 1247.29 1.25938 1.57552 0
M  V30 12990 C 1247.6 -0.169298 1.94866 0
M  V30 12991 O 1248.81 -0.375262 2.68894 0
M  V30 12992 C 1247.26 2.20757 2.84244 0
M  V30 12993 C 1246.87 3.68873 2.54237 0
M  V30 12994 C 1248.61 2.21279 3.62265 0
M  V30 12995 C 1246.52 4.55566 3.77113 0
M  V30 12996 H 1245.45 0.467832 0.591311 0
M  V30 12997 H 1248.1 1.59476 0.907724 0
M  V30 12998 H 1246.48 1.80168 3.52641 0
M  V30 12999 H 1247.66 4.17991 1.93959 0
M  V30 13000 H 1245.97 3.70784 1.89494 0
M  V30 13001 H 1248.57 2.83272 4.53499 0
M  V30 13002 H 1248.91 1.2117 3.98276 0
M  V30 13003 H 1249.45 2.60305 3.00809 0
M  V30 13004 H 1246.19 5.56605 3.46223 0
M  V30 13005 H 1245.71 4.11184 4.36678 0
M  V30 13006 H 1247.38 4.701 4.44539 0
M  V30 13007 N 1247.52 -1.0444 1.18026 0
M  V30 13008 C 1248.76 -1.79143 0.984238 0
M  V30 13009 C 1249.12 -1.85955 -0.478002 0
M  V30 13010 O 1250.32 -2.56826 -0.793345 0
M  V30 13011 C 1248.59 -3.18744 1.61669 0
M  V30 13012 S 1250.15 -4.09832 1.56791 0
M  V30 13013 H 1246.97 -0.61688 0.353525 0
M  V30 13014 H 1249.57 -1.25256 1.50104 0
M  V30 13015 H 1248.28 -3.11394 2.67324 0
M  V30 13016 H 1247.81 -3.77708 1.10001 0
M  V30 13017 H 1249.82 -4.92785 0.581175 0
M  V30 13018 N 1248.99 -0.981699 -1.2329 0
M  V30 13019 C 1250.27 -0.567659 -1.87182 0
M  V30 13020 C 1250.65 0.955194 -1.88253 0
M  V30 13021 O 1250 1.83245 -1.36504 0
M  V30 13022 C 1250.21 -1.17522 -3.28618 0
M  V30 13023 C 1251.56 -1.26877 -4.052 0
M  V30 13024 O 1252.58 -1.12877 -3.37842 0
M  V30 13025 O 1251.44 -1.49163 -5.2575 0
M  V30 13026 H 1248.53 -0.191315 -0.804567 0
M  V30 13027 H 1251.08 -1.07686 -1.31155 0
M  V30 13028 H 1249.85 -2.21735 -3.22411 0
M  V30 13029 H 1249.48 -0.650913 -3.92236 0
M  V30 13030 N 1250.47 1.3842 -0.753509 0
M  V30 13031 C 1251.38 2.34252 -0.127811 0
M  V30 13032 C 1252.4 1.59266 0.700743 0
M  V30 13033 O 1253.57 1.9146 0.624914 0
M  V30 13034 C 1250.64 3.38382 0.754886 0
M  V30 13035 C 1249.7 4.2921 -0.0880312 0
M  V30 13036 C 1248.93 5.28367 0.75263 0
M  V30 13037 O 1249.16 5.34537 1.99064 0
M  V30 13038 O 1248.09 6.01656 0.171475 0
M  V30 13039 H 1251.92 2.89454 -0.91925 0
M  V30 13040 H 1249.5 1.40265 -0.514404 0
M  V30 13041 H 1251.38 4.02141 1.25938 0
M  V30 13042 H 1250.06 2.85536 1.52482 0
M  V30 13043 H 1248.97 3.68611 -0.638468 0
M  V30 13044 H 1250.3 4.85311 -0.82062 0
M  V30 13045 N 1251.95 0.502579 1.49372 0
M  V30 13046 C 1253.37 0.158641 1.5881 0
M  V30 13047 C 1253.57 -1.33688 1.50764 0
M  V30 13048 O 1252.62 -2.11295 1.38241 0
M  V30 13049 C 1253.94 0.736843 2.91532 0
M  V30 13050 C 1255.48 0.703093 3.05001 0
M  V30 13051 C 1255.96 1.25938 4.40345 0
M  V30 13052 N 1257.45 1.22015 4.46841 0
M  V30 13053 C 1258.18 1.62076 5.50017 0
M  V30 13054 N 1257.68 2.09736 6.6029 0
M  V30 13055 N 1259.47 1.53482 5.4074 0
M  V30 13056 H 1251.62 1.47487 1.52844 0
M  V30 13057 H 1253.89 0.611851 0.724115 0
M  V30 13058 H 1253.59 1.78573 3.02992 0
M  V30 13059 H 1253.47 0.198178 3.76679 0
M  V30 13060 H 1255.85 -0.336965 2.9317 0
M  V30 13061 H 1255.94 1.27892 2.21534 0
M  V30 13062 H 1255.58 2.29823 4.52928 0
M  V30 13063 H 1255.51 0.659481 5.22454 0
M  V30 13064 H 1258 0.870957 3.67726 0
M  V30 13065 H 1258.31 2.3837 7.35119 0
M  V30 13066 H 1256.66 2.13712 6.61326 0
M  V30 13067 H 1259.85 1.16065 4.53483 0
M  V30 13068 H 1260.02 1.85026 6.21023 0
M  V30 13069 N 1253.43 -1.55816 0.23648 0
M  V30 13070 C 1254.68 -1.98294 -0.390373 0
M  V30 13071 C 1255 -1.12573 -1.59224 0
M  V30 13072 O 1254.27 -0.206128 -1.94813 0
M  V30 13073 H 1252.85 -0.732349 -0.14722 0
M  V30 13074 H 1255.51 -1.92037 0.332848 0
M  V30 13075 H 1254.61 -3.03996 -0.706595 0
M  V30 13076 N 1254.91 0.036755 -1.57557 0
M  V30 13077 C 1255.84 1.06718 -2.0284 0
M  V30 13078 C 1256.85 1.32926 -0.939917 0
M  V30 13079 O 1258.04 1.30549 -1.21734 0
M  V30 13080 C 1255.14 2.41054 -2.38214 0
M  V30 13081 C 1254.31 2.3431 -3.69347 0
M  V30 13082 C 1253.37 3.51034 -3.91997 0
M  V30 13083 O 1252.4 3.30875 -4.63152 0
M  V30 13084 N 1253.6 4.72634 -3.37042 0
M  V30 13085 H 1256.37 0.681275 -2.91854 0
M  V30 13086 H 1253.93 0.224836 -1.60331 0
M  V30 13087 H 1255.92 3.17847 -2.5051 0
M  V30 13088 H 1254.49 2.71517 -1.5491 0
M  V30 13089 H 1253.71 1.42668 -3.67477 0
M  V30 13090 H 1255 2.2694 -4.55385 0
M  V30 13091 H 1254.39 4.91914 -2.79352 0
M  V30 13092 H 1252.95 5.46818 -3.5473 0
M  V30 13093 N 1256.39 1.54543 0.308881 0
M  V30 13094 C 1257.3 1.87994 1.4034 0
M  V30 13095 C 1258.31 0.773294 1.55872 0
M  V30 13096 O 1259.49 1.069 1.70688 0
M  V30 13097 C 1256.55 2.11341 2.74838 0
M  V30 13098 C 1255.61 3.35086 2.68358 0
M  V30 13099 C 1254.85 3.5731 3.96441 0
M  V30 13100 O 1255.07 2.82692 4.9542 0
M  V30 13101 O 1254 4.50814 3.98811 0
M  V30 13102 H 1257.83 2.81094 1.14976 0
M  V30 13103 H 1255.41 1.40634 0.504236 0
M  V30 13104 H 1257.3 2.27943 3.54429 0
M  V30 13105 H 1255.97 1.21427 3.00062 0
M  V30 13106 H 1254.88 3.23855 1.87267 0
M  V30 13107 H 1256.21 4.25104 2.48087 0
M  V30 13108 N 1257.86 -0.571685 1.46866 0
M  V30 13109 C 1258.79 -1.68994 1.61131 0
M  V30 13110 C 1259.77 -1.63728 0.461222 0
M  V30 13111 O 1260.96 -1.81574 0.688813 0
M  V30 13112 C 1258.09 -3.07638 1.61172 0
M  V30 13113 C 1257.04 -3.27742 2.75262 0
M  V30 13114 C 1256.37 -4.67025 2.60368 0
M  V30 13115 C 1257.67 -3.14511 4.16989 0
M  V30 13116 H 1259.36 -1.57311 2.54742 0
M  V30 13117 H 1256.91 -0.755382 1.22597 0
M  V30 13118 H 1258.86 -3.857 1.69744 0
M  V30 13119 H 1257.59 -3.20245 0.641122 0
M  V30 13120 H 1256.25 -2.52083 2.66176 0
M  V30 13121 H 1255.89 -4.76413 1.61368 0
M  V30 13122 H 1255.59 -4.81428 3.36899 0
M  V30 13123 H 1257.12 -5.47242 2.70848 0
M  V30 13124 H 1258.53 -3.82407 4.27128 0
M  V30 13125 H 1256.93 -3.40431 4.94193 0
M  V30 13126 H 1258 -2.11443 4.36371 0
M  V30 13127 N 1259.34 -1.34755 -0.817236 0
M  V30 13128 C 1260.59 -1.26771 -1.56882 0
M  V30 13129 C 1260.9 0.158962 -1.94953 0
M  V30 13130 O 1262.11 0.360996 -2.69089 0
M  V30 13131 C 1260.57 -2.22261 -2.83069 0
M  V30 13132 C 1260.17 -3.70216 -2.52277 0
M  V30 13133 C 1261.92 -2.23197 -3.61086 0
M  V30 13134 C 1259.82 -4.57559 -3.74691 0
M  V30 13135 H 1258.75 -0.470961 -0.588822 0
M  V30 13136 H 1261.41 -1.59955 -0.899254 0
M  V30 13137 H 1259.79 -1.82036 -3.5168 0
M  V30 13138 H 1260.96 -4.19014 -1.9174 0
M  V30 13139 H 1259.28 -3.71784 -1.87525 0
M  V30 13140 H 1261.87 -2.85673 -4.5199 0
M  V30 13141 H 1262.22 -1.2328 -3.97628 0
M  V30 13142 H 1262.75 -2.61897 -2.99424 0
M  V30 13143 H 1259.49 -5.58434 -3.43267 0
M  V30 13144 H 1259.01 -4.13494 -4.34491 0
M  V30 13145 H 1260.69 -4.72451 -4.42039 0
M  V30 13146 N 1260.82 1.03812 -1.18578 0
M  V30 13147 C 1262.05 1.8044 -1.00623 0
M  V30 13148 C 1262.46 1.83808 0.448451 0
M  V30 13149 O 1261.8 1.27417 1.32328 0
M  V30 13150 C 1261.86 3.27266 -1.48785 0
M  V30 13151 C 1261.53 3.47553 -2.96742 0
M  V30 13152 C 1262.52 3.38533 -3.94578 0
M  V30 13153 C 1260.21 3.74067 -3.3523 0
M  V30 13154 C 1262.2 3.55735 -5.28896 0
M  V30 13155 C 1259.89 3.90916 -4.6971 0
M  V30 13156 C 1260.89 3.81751 -5.66352 0
M  V30 13157 O 1260.58 3.98115 -6.98398 0
M  V30 13158 H 1260.31 0.574996 -0.355465 0
M  V30 13159 H 1262.86 1.31708 -1.57614 0
M  V30 13160 H 1261.09 3.76979 -0.861613 0
M  V30 13161 H 1262.78 3.85461 -1.27181 0
M  V30 13162 H 1263.55 3.18011 -3.66189 0
M  V30 13163 H 1259.43 3.80298 -2.60566 0
M  V30 13164 H 1262.97 3.48498 -6.04314 0
M  V30 13165 H 1258.87 4.10934 -4.97799 0
M  V30 13166 H 1259.63 4.1526 -7.05338 0
M  V30 13167 N 1262.3 0.988223 1.22768 0
M  V30 13168 C 1263.26 0.539813 2.22752 0
M  V30 13169 C 1264.26 -0.374796 1.56371 0
M  V30 13170 O 1265.45 -0.167402 1.73394 0
M  V30 13171 C 1262.58 -0.215461 3.40218 0
M  V30 13172 H 1263.78 1.42397 2.63938 0
M  V30 13173 H 1261.33 0.774933 1.35737 0
M  V30 13174 H 1262.06 -1.11581 3.045 0
M  V30 13175 H 1261.85 0.441173 3.8961 0
M  V30 13176 H 1263.34 -0.517517 4.14381 0
M  V30 13177 N 1263.78 -1.38018 0.760839 0
M  V30 13178 C 1265.02 -1.99557 0.319609 0
M  V30 13179 C 1265.34 -1.60699 -1.10457 0
M  V30 13180 O 1264.61 -0.867248 -1.75658 0
M  V30 13181 H 1263.19 -0.738066 0.115182 0
M  V30 13182 H 1265.86 -1.6867 0.976544 0
M  V30 13183 H 1264.95 -3.09672 0.388523 0
M  V30 13184 N 1265.25 -0.510493 -1.49103 0
M  V30 13185 C 1266.19 0.309697 -2.26089 0
M  V30 13186 C 1267.16 0.962061 -1.31084 0
M  V30 13187 O 1268.35 0.990296 -1.60391 0
M  V30 13188 C 1265.48 1.43693 -3.06708 0
M  V30 13189 C 1264.52 0.897978 -4.1694 0
M  V30 13190 S 1265.35 -0.218781 -5.35053 0
M  V30 13191 C 1266.51 0.911396 -6.19229 0
M  V30 13192 H 1266.74 -0.343702 -2.95307 0
M  V30 13193 H 1264.28 -0.295944 -1.51537 0
M  V30 13194 H 1266.23 2.08277 -3.53739 0
M  V30 13195 H 1264.9 2.06198 -2.36941 0
M  V30 13196 H 1264.09 1.74303 -4.729 0
M  V30 13197 H 1263.69 0.329192 -3.72548 0
M  V30 13198 H 1265.98 1.8145 -6.5275 0
M  V30 13199 H 1266.93 0.390201 -7.07024 0
M  V30 13200 H 1267.33 1.18301 -5.51965 0
M  V30 13201 N 1266.73 1.55688 -0.24474 0
M  V30 13202 C 1268.14 1.84897 0.25882 0
M  V30 13203 C 1268.49 1.16653 1.57755 0
M  V30 13204 O 1267.62 0.444162 2.11793 0
M  V30 13205 C 1268.21 3.35434 0.476385 0
M  V30 13206 C 1266.77 3.64877 0.924213 0
M  V30 13207 C 1265.92 2.773 0.00021322 0
M  V30 13208 H 1268.87 1.51662 -0.467358 0
M  V30 13209 H 1268.89 3.56896 1.31929 0
M  V30 13210 H 1268.4 3.85076 -0.483567 0
M  V30 13211 H 1266.5 3.20711 1.89671 0
M  V30 13212 H 1266.62 4.72665 0.78257 0
M  V30 13213 H 1264.98 2.49517 0.511194 0
M  V30 13214 H 1265.76 3.29747 -0.955072 0
M  V30 13215 N 1268.21 -0.0283989 1.57574 0
M  V30 13216 C 1269.46 -0.718121 1.88483 0
M  V30 13217 C 1269.77 -1.76485 0.843345 0
M  V30 13218 O 1270.98 -2.50721 1.04169 0
M  V30 13219 C 1269.43 -1.32832 3.3449 0
M  V30 13220 C 1269.04 -0.317905 4.46871 0
M  V30 13221 C 1270.79 -1.99788 3.74546 0
M  V30 13222 C 1268.69 -0.936489 5.83938 0
M  V30 13223 H 1267.62 -0.271969 0.703242 0
M  V30 13224 H 1270.27 0.0274862 1.83479 0
M  V30 13225 H 1268.66 -2.12366 3.34241 0
M  V30 13226 H 1269.83 0.450767 4.5859 0
M  V30 13227 H 1268.14 0.249605 4.15651 0
M  V30 13228 H 1270.74 -2.46923 4.74271 0
M  V30 13229 H 1271.08 -2.81633 3.06575 0
M  V30 13230 H 1271.62 -1.27029 3.76973 0
M  V30 13231 H 1268.36 -0.15744 6.55311 0
M  V30 13232 H 1267.88 -1.67499 5.75938 0
M  V30 13233 H 1269.56 -1.44363 6.30689 0
M  V30 13234 N 1269.69 -1.54705 -0.300681 0
M  V30 13235 C 1270.92 -1.77993 -1.0548 0
M  V30 13236 C 1271.33 -0.539574 -1.80926 0
M  V30 13237 O 1270.69 0.490597 -1.75782 0
M  V30 13238 C 1270.74 -2.98774 -2.0351 0
M  V30 13239 O 1270.46 -4.18016 -1.31126 0
M  V30 13240 C 1271.96 -3.34452 -2.90958 0
M  V30 13241 H 1269.18 -0.593628 -0.312805 0
M  V30 13242 H 1271.72 -2.01656 -0.339858 0
M  V30 13243 H 1269.88 -2.77318 -2.70506 0
M  V30 13244 H 1270.29 -4.86113 -1.96963 0
M  V30 13245 H 1271.77 -4.22206 -3.55593 0
M  V30 13246 H 1272.24 -2.52622 -3.59275 0
M  V30 13247 H 1272.85 -3.58069 -2.29493 0
M  V30 13248 N 1271.17 0.563888 -1.47167 0
M  V30 13249 C 1272.08 1.69903 -1.61772 0
M  V30 13250 C 1273.09 1.6664 -0.500705 0
M  V30 13251 O 1274.27 1.86209 -0.767354 0
M  V30 13252 C 1271.33 3.06411 -1.62213 0
M  V30 13253 C 1270.39 3.20793 -2.8529 0
M  V30 13254 C 1269.63 4.50789 -2.85701 0
M  V30 13255 O 1269.85 5.3584 -1.95529 0
M  V30 13256 O 1268.78 4.68819 -3.77481 0
M  V30 13257 H 1272.61 1.60525 -2.57809 0
M  V30 13258 H 1270.2 0.733125 -1.30175 0
M  V30 13259 H 1272.08 3.87659 -1.65221 0
M  V30 13260 H 1270.75 3.16186 -0.693415 0
M  V30 13261 H 1269.66 2.38967 -2.87829 0
M  V30 13262 H 1270.99 3.15918 -3.77434 0
M  V30 13263 N 1272.64 1.35187 0.810078 0
M  V30 13264 C 1273.89 1.28454 1.56931 0
M  V30 13265 C 1274.22 -0.141747 1.93682 0
M  V30 13266 O 1273.5 -1.09028 1.61069 0
M  V30 13267 C 1273.78 2.18771 2.86027 0
M  V30 13268 C 1273.63 3.69999 2.55774 0
M  V30 13269 C 1274.95 2.08265 3.87703 0
M  V30 13270 H 1272.07 0.467959 0.569371 0
M  V30 13271 H 1274.71 1.65556 0.932262 0
M  V30 13272 H 1272.86 1.8726 3.40391 0
M  V30 13273 H 1274.54 4.11936 2.07621 0
M  V30 13274 H 1272.78 3.90453 1.89021 0
M  V30 13275 H 1273.45 4.28577 3.47888 0
M  V30 13276 H 1275.93 2.35958 3.42729 0
M  V30 13277 H 1274.8 2.73663 4.75815 0
M  V30 13278 H 1275.06 1.06352 4.29117 0
M  V30 13279 N 1274.12 -1.03182 1.19127 0
M  V30 13280 C 1275.37 -1.76533 0.992093 0
M  V30 13281 C 1275.7 -1.88549 -0.477429 0
M  V30 13282 O 1274.95 -1.39675 -1.37074 0
M  V30 13283 C 1275.25 -3.19452 1.60267 0
M  V30 13284 C 1274.92 -3.27449 3.09981 0
M  V30 13285 C 1273.58 -3.29338 3.50841 0
M  V30 13286 C 1275.93 -3.26833 4.05992 0
M  V30 13287 C 1273.26 -3.28265 4.86271 0
M  V30 13288 C 1275.61 -3.27299 5.41348 0
M  V30 13289 C 1274.28 -3.27485 5.81644 0
M  V30 13290 H 1273.55 -0.645979 0.363033 0
M  V30 13291 H 1276.19 -1.21127 1.48326 0
M  V30 13292 H 1274.5 -3.77917 1.03372 0
M  V30 13293 H 1276.19 -3.74869 1.42388 0
M  V30 13294 H 1272.78 -3.26704 2.77421 0
M  V30 13295 H 1276.97 -3.24556 3.75469 0
M  V30 13296 H 1272.22 -3.26731 5.16775 0
M  V30 13297 H 1276.4 -3.25773 6.15504 0
M  V30 13298 H 1274.03 -3.26407 6.86558 0
M  V30 13299 N 1275.6 -0.99472 -1.22242 0
M  V30 13300 C 1276.55 -0.546504 -2.24236 0
M  V30 13301 C 1277.52 0.422101 -1.60647 0
M  V30 13302 O 1278.7 0.326452 -1.87987 0
M  V30 13303 C 1275.84 0.130909 -3.44852 0
M  V30 13304 C 1274.96 -0.879653 -4.22949 0
M  V30 13305 C 1274.09 -0.175569 -5.3091 0
M  V30 13306 C 1273.13 -1.17438 -6.00729 0
M  V30 13307 N 1272.27 -0.498474 -7.00328 0
M  V30 13308 H 1277.11 -1.42099 -2.61939 0
M  V30 13309 H 1274.64 -0.711755 -1.28734 0
M  V30 13310 H 1276.6 0.540596 -4.13683 0
M  V30 13311 H 1275.23 0.96917 -3.07907 0
M  V30 13312 H 1274.28 -1.40765 -3.53397 0
M  V30 13313 H 1275.6 -1.64017 -4.71062 0
M  V30 13314 H 1274.75 0.290756 -6.06003 0
M  V30 13315 H 1273.49 0.617438 -4.83776 0
M  V30 13316 H 1272.49 -1.65131 -5.24416 0
M  V30 13317 H 1273.72 -1.96829 -6.4995 0
M  V30 13318 H 1271.66 0.275063 -6.55423 0
M  V30 13319 H 1271.58 -1.19741 -7.46457 0
M  V30 13320 H 1272.85 -0.0550119 -7.79481 0
M  V30 13321 N 1277.08 1.37613 -0.768148 0
M  V30 13322 C 1277.99 2.34103 -0.152649 0
M  V30 13323 C 1279 1.6 0.683811 0
M  V30 13324 O 1280.18 1.92112 0.604572 0
M  V30 13325 C 1277.25 3.39164 0.718954 0
M  V30 13326 C 1276.31 4.29092 -0.13355 0
M  V30 13327 C 1275.54 5.29135 0.696547 0
M  V30 13328 O 1275.76 5.36618 1.93383 0
M  V30 13329 O 1274.7 6.01804 0.107652 0
M  V30 13330 H 1278.52 2.88462 -0.949899 0
M  V30 13331 H 1276.11 1.39711 -0.529252 0
M  V30 13332 H 1277.99 4.03454 1.21665 0
M  V30 13333 H 1276.66 2.87137 1.49445 0
M  V30 13334 H 1275.57 3.67914 -0.677528 0
M  V30 13335 H 1276.9 4.84413 -0.872048 0
M  V30 13336 N 1278.56 0.518393 1.4883 0
M  V30 13337 C 1279.47 -0.254811 2.33212 0
M  V30 13338 C 1280.48 -0.950401 1.45751 0
M  V30 13339 O 1281.66 -0.927932 1.78749 0
M  V30 13340 C 1278.72 -1.29509 3.21603 0
M  V30 13341 C 1277.78 -0.611086 4.24928 0
M  V30 13342 C 1277.02 -1.6018 5.09095 0
M  V30 13343 O 1277.24 -2.83336 4.95052 0
M  V30 13344 O 1276.17 -1.14756 5.90859 0
M  V30 13345 H 1280 0.436329 3.00549 0
M  V30 13346 H 1277.59 0.27947 1.46763 0
M  V30 13347 H 1279.47 -1.89654 3.7631 0
M  V30 13348 H 1278.14 -1.96884 2.5694 0
M  V30 13349 H 1277.05 0.0305638 3.74088 0
M  V30 13350 H 1278.38 0.0205249 4.92196 0
M  V30 13351 N 1280.03 -1.55556 0.252993 0
M  V30 13352 C 1280.97 -2.17683 -0.684776 0
M  V30 13353 C 1281.95 -1.13077 -1.16843 0
M  V30 13354 O 1283.13 -1.41495 -1.24545 0
M  V30 13355 C 1280.26 -2.78239 -1.93134 0
M  V30 13356 C 1279.3 -3.95953 -1.58504 0
M  V30 13357 S 1280.14 -5.31135 -0.682367 0
M  V30 13358 C 1281.29 -5.95147 -1.93779 0
M  V30 13359 H 1281.52 -2.96886 -0.156823 0
M  V30 13360 H 1279.06 -1.54355 0.0374019 0
M  V30 13361 H 1281.02 -3.13763 -2.64694 0
M  V30 13362 H 1279.68 -1.98971 -2.43042 0
M  V30 13363 H 1278.87 -4.36936 -2.51203 0
M  V30 13364 H 1278.47 -3.61738 -0.949815 0
M  V30 13365 H 1280.76 -6.13035 -2.88435 0
M  V30 13366 H 1281.71 -6.90445 -1.57135 0
M  V30 13367 H 1282.11 -5.24279 -2.09266 0
M  V30 13368 N 1281.51 0.0200419 -1.57587 0
M  V30 13369 C 1282.76 0.707627 -1.89307 0
M  V30 13370 C 1283.08 1.7541 -0.851831 0
M  V30 13371 O 1282.35 1.95571 0.113404 0
M  V30 13372 H 1280.93 0.264349 -0.698662 0
M  V30 13373 H 1283.59 -0.0161428 -1.94893 0
M  V30 13374 H 1282.69 1.19152 -2.8846 0
M  V30 13375 N 1282.99 1.54862 0.292472 0
M  V30 13376 C 1284.24 1.73756 1.02429 0
M  V30 13377 C 1284.55 0.535164 1.88137 0
M  V30 13378 O 1285.76 0.606092 2.64648 0
M  V30 13379 C 1284.21 3.0745 1.8709 0
M  V30 13380 C 1283.82 4.35195 1.06343 0
M  V30 13381 C 1285.57 3.357 2.59819 0
M  V30 13382 C 1283.47 5.59936 1.9033 0
M  V30 13383 H 1282.4 0.647617 0.386145 0
M  V30 13384 H 1285.05 1.81338 0.28086 0
M  V30 13385 H 1283.44 2.93855 2.65453 0
M  V30 13386 H 1284.61 4.5965 0.325335 0
M  V30 13387 H 1282.93 4.13944 0.451574 0
M  V30 13388 H 1285.52 4.26099 3.23023 0
M  V30 13389 H 1285.87 2.54956 3.29094 0
M  V30 13390 H 1286.4 3.50304 1.88499 0
M  V30 13391 H 1283.14 6.43372 1.25509 0
M  V30 13392 H 1282.66 5.39654 2.61789 0
M  V30 13393 H 1284.34 5.97512 2.48171 0
M  V30 13394 N 1284.47 -0.556076 1.47464 0
M  V30 13395 C 1285.72 -1.31061 1.53842 0
M  V30 13396 C 1286.04 -1.93943 0.202806 0
M  V30 13397 O 1285.31 -1.7999 -0.773338 0
M  V30 13398 H 1283.89 -0.486696 0.566689 0
M  V30 13399 H 1286.55 -0.64924 1.83769 0
M  V30 13400 H 1285.65 -2.10354 2.30559 0
M  V30 13401 N 1285.95 -1.35615 -0.802897 0
M  V30 13402 C 1287.2 -1.28839 -1.55708 0
M  V30 13403 C 1287.52 0.135906 -1.94526 0
M  V30 13404 O 1286.79 1.07317 -1.6389 0
M  V30 13405 H 1285.37 -0.473906 -0.577427 0
M  V30 13406 H 1288.03 -1.69759 -0.957487 0
M  V30 13407 H 1287.12 -1.90675 -2.47082 0
M  V30 13408 N 1287.43 1.02549 -1.19673 0
M  V30 13409 C 1288.67 1.76265 -1.00293 0
M  V30 13410 C 1289 1.88555 0.464816 0
M  V30 13411 O 1288.28 1.40484 1.34515 0
M  V30 13412 C 1288.56 3.18688 -1.6766 0
M  V30 13413 C 1288.42 3.14247 -3.21821 0
M  V30 13414 C 1289.73 4.17159 -1.40238 0
M  V30 13415 H 1286.85 0.639837 -0.365756 0
M  V30 13416 H 1289.5 1.19691 -1.4756 0
M  V30 13417 H 1287.65 3.66992 -1.27472 0
M  V30 13418 H 1289.32 2.73815 -3.71245 0
M  V30 13419 H 1287.56 2.51874 -3.53188 0
M  V30 13420 H 1288.23 4.14886 -3.64107 0
M  V30 13421 H 1290.71 3.77471 -1.75086 0
M  V30 13422 H 1289.58 5.14997 -1.89919 0
M  V30 13423 H 1289.84 4.4088 -0.328197 0
M  V30 13424 N 1288.9 1.00119 1.21713 0
M  V30 13425 C 1289.83 0.578504 2.2622 0
M  V30 13426 C 1290.81 -0.398777 1.6536 0
M  V30 13427 O 1292 -0.287596 1.92059 0
M  V30 13428 C 1289.13 -0.0994508 3.47158 0
M  V30 13429 C 1288.08 0.79722 4.2051 0
M  V30 13430 C 1287.41 -0.0141125 5.34698 0
M  V30 13431 C 1288.71 2.09802 4.7831 0
M  V30 13432 H 1290.4 1.45208 2.6183 0
M  V30 13433 H 1287.95 0.699656 1.2586 0
M  V30 13434 H 1289.9 -0.406605 4.19434 0
M  V30 13435 H 1288.63 -1.00763 3.10667 0
M  V30 13436 H 1287.29 1.08814 3.50079 0
M  V30 13437 H 1286.93 -0.923468 4.9445 0
M  V30 13438 H 1286.63 0.582883 5.84702 0
M  V30 13439 H 1288.16 -0.31517 6.09786 0
M  V30 13440 H 1289.57 1.85427 5.42485 0
M  V30 13441 H 1287.97 2.64455 5.38687 0
M  V30 13442 H 1289.04 2.77132 3.97902 0
M  V30 13443 N 1290.38 -1.37203 0.775435 0
M  V30 13444 C 1291.63 -1.99207 0.340756 0
M  V30 13445 C 1291.95 -1.61861 -1.08747 0
M  V30 13446 O 1291.22 -0.88583 -1.74728 0
M  V30 13447 H 1289.8 -0.736803 0.123004 0
M  V30 13448 H 1292.46 -1.67625 0.994379 0
M  V30 13449 H 1291.56 -3.09243 0.421346 0
M  V30 13450 N 1291.86 -0.526279 -1.48553 0
M  V30 13451 C 1292.79 0.227364 -2.3239 0
M  V30 13452 C 1293.77 0.93862 -1.41859 0
M  V30 13453 O 1294.96 0.925119 -1.70749 0
M  V30 13454 C 1292.09 1.277 -3.22971 0
M  V30 13455 C 1291.04 0.684107 -4.22497 0
M  V30 13456 C 1290.37 1.83612 -5.02186 0
M  V30 13457 C 1291.67 -0.341723 -5.21181 0
M  V30 13458 H 1293.36 -0.472486 -2.95648 0
M  V30 13459 H 1290.91 -0.228669 -1.42173 0
M  V30 13460 H 1292.86 1.81215 -3.80446 0
M  V30 13461 H 1291.58 2.00638 -2.57705 0
M  V30 13462 H 1290.24 0.170505 -3.66203 0
M  V30 13463 H 1289.89 2.55379 -4.33348 0
M  V30 13464 H 1289.59 1.44536 -5.69547 0
M  V30 13465 H 1291.11 2.37513 -5.62512 0
M  V30 13466 H 1292.53 0.106207 -5.73202 0
M  V30 13467 H 1290.92 -0.649673 -5.96573 0
M  V30 13468 H 1291.99 -1.2488 -4.68543 0
M  V30 13469 N 1293.34 1.5542 -0.261239 0
M  V30 13470 C 1294.27 2.24949 0.626126 0
M  V30 13471 C 1295.25 1.23474 1.16997 0
M  V30 13472 O 1296.43 1.52161 1.20667 0
M  V30 13473 C 1293.56 2.95996 1.81669 0
M  V30 13474 C 1292.52 4.04282 1.40499 0
M  V30 13475 C 1291.84 4.62831 2.67753 0
M  V30 13476 C 1293.14 5.1923 0.56543 0
M  V30 13477 H 1294.84 2.99364 0.0463164 0
M  V30 13478 H 1292.38 1.43985 0.0208366 0
M  V30 13479 H 1294.34 3.43343 2.44323 0
M  V30 13480 H 1293.06 2.19093 2.42211 0
M  V30 13481 H 1291.72 3.57726 0.801712 0
M  V30 13482 H 1291.37 3.82611 3.26524 0
M  V30 13483 H 1291.07 5.35938 2.40925 0
M  V30 13484 H 1292.59 5.12918 3.31281 0
M  V30 13485 H 1294.01 5.62714 1.09663 0
M  V30 13486 H 1292.4 5.98814 0.392607 0
M  V30 13487 H 1293.47 4.83086 -0.419059 0
M  V30 13488 N 1294.82 -0.0116844 1.57596 0
M  V30 13489 C 1296.06 -0.694423 1.91179 0
M  V30 13490 C 1296.42 -1.72025 0.861703 0
M  V30 13491 O 1295.71 -1.91175 -0.127545 0
M  V30 13492 C 1295.9 -1.38985 3.29269 0
M  V30 13493 C 1295.73 -0.432902 4.47611 0
M  V30 13494 C 1294.5 -0.0475684 5.05278 0
M  V30 13495 C 1296.7 0.296001 5.13447 0
M  V30 13496 N 1294.68 0.908817 6.07136 0
M  V30 13497 C 1296.05 1.10746 6.10029 0
M  V30 13498 C 1298.11 0.361088 4.96589 0
M  V30 13499 C 1296.81 1.97805 6.91568 0
M  V30 13500 C 1298.84 1.21887 5.78703 0
M  V30 13501 C 1298.2 2.0182 6.74869 0
M  V30 13502 H 1294.3 -0.227668 0.748125 0
M  V30 13503 H 1296.88 0.0459176 1.94646 0
M  V30 13504 H 1295.05 -2.10055 3.26698 0
M  V30 13505 H 1296.79 -2.02636 3.50315 0
M  V30 13506 H 1293.54 -0.413466 4.71792 0
M  V30 13507 H 1293.96 1.38203 6.62743 0
M  V30 13508 H 1298.61 -0.242613 4.22103 0
M  V30 13509 H 1296.32 2.59248 7.65386 0
M  V30 13510 H 1299.91 1.27299 5.67703 0
M  V30 13511 H 1298.79 2.67121 7.37303 0
M  V30 13512 N 1296.29 -1.55015 -0.284256 0
M  V30 13513 C 1297.54 -1.7509 -1.01733 0
M  V30 13514 C 1297.87 -0.545803 -1.86685 0
M  V30 13515 O 1297.12 0.471951 -1.89924 0
M  V30 13516 C 1297.42 -3.00246 -1.93874 0
M  V30 13517 C 1297.09 -4.33295 -1.24764 0
M  V30 13518 C 1295.75 -4.69459 -1.0565 0
M  V30 13519 C 1298.1 -5.15704 -0.754939 0
M  V30 13520 C 1295.43 -5.85596 -0.35976 0
M  V30 13521 C 1297.78 -6.32559 -0.0718473 0
M  V30 13522 C 1296.45 -6.67371 0.131104 0
M  V30 13523 H 1295.72 -0.6407 -0.372269 0
M  V30 13524 H 1298.36 -1.89282 -0.290638 0
M  V30 13525 H 1296.67 -2.80907 -2.73127 0
M  V30 13526 H 1298.37 -3.12974 -2.50696 0
M  V30 13527 H 1294.96 -4.04865 -1.4065 0
M  V30 13528 H 1299.14 -4.8825 -0.89027 0
M  V30 13529 H 1294.4 -6.11099 -0.19169 0
M  V30 13530 H 1298.57 -6.95675 0.317743 0
M  V30 13531 H 1296.2 -7.57215 0.672977 0
M  V30 13532 N 1297.77 0.548248 -1.47757 0
M  V30 13533 C 1298.7 1.66999 -1.56984 0
M  V30 13534 C 1299.72 1.56302 -0.455372 0
M  V30 13535 O 1300.91 1.63096 -0.725399 0
M  V30 13536 C 1298.01 3.0553 -1.46645 0
M  V30 13537 C 1297.18 3.41892 -2.72816 0
M  V30 13538 C 1296.24 4.59624 -2.56187 0
M  V30 13539 O 1295.26 4.63757 -3.30028 0
M  V30 13540 N 1296.47 5.56675 -1.64601 0
M  V30 13541 H 1299.23 1.59527 -2.53715 0
M  V30 13542 H 1296.79 0.735101 -1.44249 0
M  V30 13543 H 1298.78 3.82137 -1.33242 0
M  V30 13544 H 1297.35 3.0718 -0.57961 0
M  V30 13545 H 1296.57 2.54644 -3.00916 0
M  V30 13546 H 1297.86 3.62965 -3.56559 0
M  V30 13547 H 1297.26 5.561 -1.03778 0
M  V30 13548 H 1295.82 6.32573 -1.57146 0
M  V30 13549 N 1299.25 1.36039 0.795694 0
M  V30 13550 C 1300.2 1.29853 1.90806 0
M  V30 13551 C 1301.17 0.168387 1.65244 0
M  V30 13552 O 1302.35 0.353879 1.8749 0
M  V30 13553 C 1299.49 1.08737 3.27521 0
M  V30 13554 C 1298.6 2.30771 3.65197 0
M  V30 13555 C 1297.74 2.02718 4.90998 0
M  V30 13556 C 1296.78 3.20746 5.21333 0
M  V30 13557 N 1295.92 2.92399 6.38316 0
M  V30 13558 H 1300.76 2.2497 1.95429 0
M  V30 13559 H 1298.29 1.11819 0.955771 0
M  V30 13560 H 1300.25 0.945236 4.06351 0
M  V30 13561 H 1298.88 0.172781 3.22337 0
M  V30 13562 H 1297.93 2.5581 2.81541 0
M  V30 13563 H 1299.24 3.18869 3.83568 0
M  V30 13564 H 1298.4 1.85398 5.77679 0
M  V30 13565 H 1297.14 1.11921 4.74684 0
M  V30 13566 H 1296.14 3.38632 4.33138 0
M  V30 13567 H 1297.37 4.1236 5.3957 0
M  V30 13568 H 1295.31 2.04207 6.23406 0
M  V30 13569 H 1295.23 3.74034 6.56989 0
M  V30 13570 H 1296.5 2.78643 7.27996 0
M  V30 13571 N 1300.73 -1.01913 1.20215 0
M  V30 13572 C 1302.14 -1.27766 0.956459 0
M  V30 13573 C 1302.34 -1.98158 -0.365486 0
M  V30 13574 O 1301.4 -2.27539 -1.09463 0
M  V30 13575 C 1302.71 -2.11516 2.13732 0
M  V30 13576 C 1304.26 -2.24792 2.17802 0
M  V30 13577 C 1304.74 -3.11919 3.35367 0
M  V30 13578 N 1306.23 -3.19507 3.35364 0
M  V30 13579 C 1306.96 -3.8714 4.22978 0
M  V30 13580 N 1306.46 -4.5692 5.20765 0
M  V30 13581 N 1308.25 -3.83638 4.10827 0
M  V30 13582 H 1300.4 -0.546426 2.05251 0
M  V30 13583 H 1302.67 -0.303772 0.898012 0
M  V30 13584 H 1302.37 -1.67127 3.09453 0
M  V30 13585 H 1302.25 -3.12249 2.11614 0
M  V30 13586 H 1304.63 -2.68407 1.22645 0
M  V30 13587 H 1304.71 -1.23576 2.2397 0
M  V30 13588 H 1304.36 -2.6901 4.30809 0
M  V30 13589 H 1304.29 -4.13215 3.26436 0
M  V30 13590 H 1306.78 -2.69819 2.64587 0
M  V30 13591 H 1307.09 -5.06188 5.83947 0
M  V30 13592 H 1305.44 -4.55753 5.24704 0
M  V30 13593 H 1308.63 -3.28268 3.33703 0
M  V30 13594 H 1308.8 -4.36071 4.79318 0
M  V30 13595 N 1302.21 -1.00763 -1.2118 0
M  V30 13596 C 1303.14 -0.590493 -2.2591 0
M  V30 13597 C 1304.12 0.390002 -1.65569 0
M  V30 13598 O 1305.3 0.277406 -1.92208 0
M  V30 13599 C 1302.43 0.0810388 -3.47205 0
M  V30 13600 C 1301.39 -0.81951 -4.20081 0
M  V30 13601 C 1300.71 -0.014244 -5.34698 0
M  V30 13602 C 1302.01 -2.12336 -4.7719 0
M  V30 13603 H 1303.71 -1.46595 -2.61056 0
M  V30 13604 H 1301.25 -0.706321 -1.25487 0
M  V30 13605 H 1303.21 0.384355 -4.19644 0
M  V30 13606 H 1301.93 0.991145 -3.11197 0
M  V30 13607 H 1300.59 -1.10669 -3.49497 0
M  V30 13608 H 1300.24 0.897233 -4.94933 0
M  V30 13609 H 1299.94 -0.613883 -5.84384 0
M  V30 13610 H 1301.46 0.282827 -6.09945 0
M  V30 13611 H 1302.87 -1.88301 -5.41494 0
M  V30 13612 H 1301.27 -2.67308 -5.37277 0
M  V30 13613 H 1302.34 -2.79238 -3.96427 0
M  V30 13614 N 1303.68 1.3679 -0.7827 0
M  V30 13615 C 1305.1 1.82006 -0.41603 0
M  V30 13616 C 1305.45 1.65151 1.05922 0
M  V30 13617 O 1304.57 1.1687 1.82127 0
M  V30 13618 C 1305.17 3.30432 -0.748353 0
M  V30 13619 C 1303.73 3.73883 -0.4346 0
M  V30 13620 C 1302.87 2.59159 -0.986505 0
M  V30 13621 H 1305.82 1.25107 -0.976423 0
M  V30 13622 H 1305.84 3.80482 -0.036985 0
M  V30 13623 H 1305.36 3.42667 -1.82212 0
M  V30 13624 H 1303.46 3.67211 0.631401 0
M  V30 13625 H 1303.57 4.69577 -0.950511 0
M  V30 13626 H 1301.93 2.51377 -0.410108 0
M  V30 13627 H 1302.72 2.74182 -2.06589 0
M  V30 13628 N 1305.16 0.53415 1.48272 0
M  V30 13629 C 1306.11 -0.226335 2.29688 0
M  V30 13630 C 1307.08 -0.929937 1.37628 0
M  V30 13631 O 1308.26 -0.930149 1.66592 0
M  V30 13632 C 1305.4 -1.26472 3.2109 0
M  V30 13633 C 1304.52 -0.569542 4.28229 0
M  V30 13634 C 1303.65 -1.59122 5.06807 0
M  V30 13635 C 1302.69 -0.879734 6.05745 0
M  V30 13636 N 1301.83 -1.84715 6.77366 0
M  V30 13637 H 1306.67 0.474111 2.94204 0
M  V30 13638 H 1304.21 0.245643 1.45034 0
M  V30 13639 H 1306.16 -1.87911 3.72485 0
M  V30 13640 H 1304.79 -1.9335 2.58487 0
M  V30 13641 H 1303.85 0.158872 3.80068 0
M  V30 13642 H 1305.16 -0.0110904 4.98799 0
M  V30 13643 H 1304.31 -2.27977 5.62238 0
M  V30 13644 H 1303.05 -2.18357 4.36086 0
M  V30 13645 H 1302.06 -0.177134 5.49515 0
M  V30 13646 H 1303.28 -0.293439 6.78466 0
M  V30 13647 H 1301.23 -2.42851 6.09393 0
M  V30 13648 H 1301.14 -1.34025 7.44025 0
M  V30 13649 H 1302.41 -2.52756 7.37384 0
M  V30 13650 N 1306.64 -1.55279 0.269478 0
M  V30 13651 C 1307.87 -2.03581 -0.351907 0
M  V30 13652 C 1308.28 -1.14747 -1.50432 0
M  V30 13653 O 1307.62 -0.158939 -1.83011 0
M  V30 13654 C 1307.68 -3.48041 -0.900444 0
M  V30 13655 C 1307.35 -4.56835 0.122612 0
M  V30 13656 C 1308.34 -5.11329 0.940149 0
M  V30 13657 C 1306.03 -5.01651 0.255224 0
M  V30 13658 C 1308.02 -6.09151 1.87654 0
M  V30 13659 C 1305.71 -5.993 1.19509 0
M  V30 13660 C 1306.71 -6.52931 2.00426 0
M  V30 13661 O 1306.4 -7.48671 2.92825 0
M  V30 13662 H 1306.13 -0.670627 -0.0850629 0
M  V30 13663 H 1308.68 -2.01514 0.39766 0
M  V30 13664 H 1306.91 -3.47329 -1.69998 0
M  V30 13665 H 1308.6 -3.79713 -1.43431 0
M  V30 13666 H 1309.37 -4.77522 0.848402 0
M  V30 13667 H 1305.25 -4.59556 -0.364579 0
M  V30 13668 H 1308.79 -6.50937 2.50853 0
M  V30 13669 H 1304.69 -6.32526 1.28768 0
M  V30 13670 H 1305.46 -7.66368 2.87442 0
M  V30 13671 N 1308.12 0.00332656 -1.576 0
M  V30 13672 C 1309.34 0.703587 -1.95101 0
M  V30 13673 C 1309.77 1.66697 -0.871418 0
M  V30 13674 O 1309.13 1.80494 0.170739 0
M  V30 13675 C 1309.17 1.41457 -3.31696 0
M  V30 13676 O 1308.28 2.52885 -3.25765 0
M  V30 13677 H 1307.62 0.187396 -0.637008 0
M  V30 13678 H 1310.15 -0.0488727 -2.04542 0
M  V30 13679 H 1310.16 1.77874 -3.67185 0
M  V30 13680 H 1308.83 0.708182 -4.09826 0
M  V30 13681 H 1307.41 2.18821 -3.01947 0
M  V30 13682 N 1309.6 1.55164 0.276031 0
M  V30 13683 C 1310.84 1.77377 1.01572 0
M  V30 13684 C 1311.2 0.56142 1.83608 0
M  V30 13685 O 1312.4 0.661745 2.60527 0
M  V30 13686 C 1310.67 3.0412 1.87738 0
M  V30 13687 S 1312.23 3.4744 2.68013 0
M  V30 13688 H 1309.05 0.62326 0.342153 0
M  V30 13689 H 1311.65 1.9339 0.286456 0
M  V30 13690 H 1310.36 3.90453 1.26389 0
M  V30 13691 H 1309.89 2.90764 2.6499 0
M  V30 13692 H 1311.9 3.06474 3.90241 0
M  V30 13693 N 1311.07 -0.540404 1.48045 0
M  V30 13694 C 1312.01 -1.66164 1.57867 0
M  V30 13695 C 1313.02 -1.56058 0.463655 0
M  V30 13696 O 1314.21 -1.62709 0.734038 0
M  V30 13697 C 1311.31 -3.04748 1.48263 0
M  V30 13698 C 1310.48 -3.40441 2.74625 0
M  V30 13699 C 1309.54 -4.58259 2.58621 0
M  V30 13700 O 1308.57 -4.62 3.32482 0
M  V30 13701 N 1309.77 -5.55794 1.67551 0
M  V30 13702 H 1312.53 -1.58179 2.54557 0
M  V30 13703 H 1310.09 -0.727441 1.44637 0
M  V30 13704 H 1312.09 -3.81425 1.35267 0
M  V30 13705 H 1310.66 -3.06868 0.595892 0
M  V30 13706 H 1309.88 -2.53044 3.02262 0
M  V30 13707 H 1311.16 -3.61069 3.58478 0
M  V30 13708 H 1310.56 -5.55541 1.06725 0
M  V30 13709 H 1309.12 -6.3173 1.60499 0
M  V30 13710 N 1312.55 -1.36459 -0.788468 0
M  V30 13711 C 1313.8 -1.30741 -1.54638 0
M  V30 13712 C 1314.13 0.113029 -1.94171 0
M  V30 13713 O 1313.38 1.08252 -1.63034 0
M  V30 13714 C 1313.68 -2.17672 -2.83467 0
M  V30 13715 C 1313.35 -3.66205 -2.63067 0
M  V30 13716 C 1312.01 -4.06688 -2.57212 0
M  V30 13717 C 1314.36 -4.60376 -2.44343 0
M  V30 13718 C 1311.69 -5.39482 -2.306 0
M  V30 13719 C 1314.04 -5.93388 -2.19258 0
M  V30 13720 C 1312.71 -6.32994 -2.11836 0
M  V30 13721 H 1311.98 -0.478416 -0.565862 0
M  V30 13722 H 1314.62 -1.68519 -0.909588 0
M  V30 13723 H 1312.93 -1.72834 -3.51619 0
M  V30 13724 H 1314.62 -2.10573 -3.41263 0
M  V30 13725 H 1311.21 -3.3409 -2.6848 0
M  V30 13726 H 1315.4 -4.29971 -2.47868 0
M  V30 13727 H 1310.65 -5.69149 -2.23337 0
M  V30 13728 H 1314.83 -6.65923 -2.03765 0
M  V30 13729 H 1312.46 -7.3582 -1.90978 0
M  V30 13730 N 1314.03 1.01274 -1.20754 0
M  V30 13731 C 1315.28 1.74342 -1.01428 0
M  V30 13732 C 1315.59 1.90265 0.453708 0
M  V30 13733 O 1316.8 2.60465 0.76618 0
M  V30 13734 C 1315.25 3.13588 -1.76609 0
M  V30 13735 C 1314.86 3.05664 -3.27526 0
M  V30 13736 C 1316.61 3.9084 -1.65664 0
M  V30 13737 C 1314.51 4.39942 -3.95228 0
M  V30 13738 H 1313.44 0.653619 -0.375897 0
M  V30 13739 H 1316.09 1.13214 -1.44412 0
M  V30 13740 H 1314.48 3.75281 -1.26413 0
M  V30 13741 H 1315.65 2.53256 -3.84965 0
M  V30 13742 H 1313.97 2.41904 -3.38927 0
M  V30 13743 H 1316.56 4.9019 -2.13583 0
M  V30 13744 H 1316.91 4.11754 -0.61351 0
M  V30 13745 H 1317.44 3.35783 -2.13294 0
M  V30 13746 H 1314.18 4.24229 -4.9971 0
M  V30 13747 H 1313.7 4.92342 -3.42578 0
M  V30 13748 H 1315.38 5.08771 -3.99701 0
M  V30 13749 N 1315.51 1.01404 1.20644 0
M  V30 13750 C 1316.42 0.591693 2.27016 0
M  V30 13751 C 1317.44 -0.36958 1.7003 0
M  V30 13752 O 1318.61 -0.231165 2.00069 0
M  V30 13753 C 1315.68 -0.0659827 3.46637 0
M  V30 13754 C 1314.74 0.940911 4.18862 0
M  V30 13755 C 1313.97 0.314526 5.32772 0
M  V30 13756 O 1314.19 -0.886404 5.63471 0
M  V30 13757 O 1313.13 1.02998 5.93022 0
M  V30 13758 H 1316.95 1.4772 2.65353 0
M  V30 13759 H 1314.54 0.783399 1.27213 0
M  V30 13760 H 1316.42 -0.433412 4.19165 0
M  V30 13761 H 1315.1 -0.925729 3.10181 0
M  V30 13762 H 1314 1.35966 3.48517 0
M  V30 13763 H 1315.34 1.77054 4.59252 0
M  V30 13764 N 1316.99 -1.36373 0.789944 0
M  V30 13765 C 1317.92 -2.27803 0.134613 0
M  V30 13766 C 1318.9 -1.47252 -0.689599 0
M  V30 13767 O 1320.08 -1.76551 -0.660466 0
M  V30 13768 C 1317.21 -3.28751 -0.814888 0
M  V30 13769 C 1316.26 -4.26439 -0.0724012 0
M  V30 13770 S 1317.09 -5.20654 1.2522 0
M  V30 13771 C 1318.24 -6.25148 0.306715 0
M  V30 13772 H 1318.48 -2.83036 0.909837 0
M  V30 13773 H 1316.01 -1.42922 0.584187 0
M  V30 13774 H 1317.97 -3.87413 -1.35726 0
M  V30 13775 H 1316.63 -2.72429 -1.56336 0
M  V30 13776 H 1315.82 -4.97724 -0.792894 0
M  V30 13777 H 1315.42 -3.7186 0.399504 0
M  V30 13778 H 1317.72 -6.75546 -0.514246 0
M  V30 13779 H 1318.66 -7.0117 0.98827 0
M  V30 13780 H 1319.07 -5.64428 -0.0901834 0
M  V30 13781 N 1318.47 -0.542005 -1.47987 0
M  V30 13782 C 1319.71 -0.0144711 -2.04395 0
M  V30 13783 C 1320.07 1.30441 -1.40887 0
M  V30 13784 O 1321.27 1.91872 -1.88252 0
M  V30 13785 C 1319.54 0.0926282 -3.5728 0
M  V30 13786 S 1321.1 0.568487 -4.35102 0
M  V30 13787 H 1317.92 -0.0178299 -0.710776 0
M  V30 13788 H 1320.52 -0.725294 -1.81548 0
M  V30 13789 H 1319.22 -0.871888 -4.01032 0
M  V30 13790 H 1318.76 0.827468 -3.84599 0
M  V30 13791 H 1320.77 1.83092 -4.61185 0
M  V30 13792 N 1319.94 1.55134 -0.277709 0
M  V30 13793 C 1320.87 2.256 0.602232 0
M  V30 13794 C 1321.85 1.24708 1.15681 0
M  V30 13795 O 1323.04 1.53433 1.19046 0
M  V30 13796 C 1320.17 2.97907 1.78519 0
M  V30 13797 C 1319.12 4.0575 1.36203 0
M  V30 13798 C 1318.45 4.65644 2.62829 0
M  V30 13799 C 1319.75 5.19801 0.510327 0
M  V30 13800 H 1321.44 2.99396 0.0145622 0
M  V30 13801 H 1318.99 1.43999 0.00556389 0
M  V30 13802 H 1320.94 3.45915 2.40668 0
M  V30 13803 H 1319.67 2.21649 2.39873 0
M  V30 13804 H 1318.33 3.58557 0.763726 0
M  V30 13805 H 1317.97 3.86053 3.22447 0
M  V30 13806 H 1317.67 5.38463 2.35227 0
M  V30 13807 H 1319.2 5.16403 3.25823 0
M  V30 13808 H 1320.61 5.63845 1.03689 0
M  V30 13809 H 1319.01 5.99197 0.329073 0
M  V30 13810 H 1320.08 4.82614 -0.470273 0
M  V30 13811 N 1321.42 0.00503138 1.57599 0
M  V30 13812 C 1322.35 -1.01883 2.04194 0
M  V30 13813 C 1323.33 -1.33183 0.9328 0
M  V30 13814 O 1324.52 -1.45261 1.20131 0
M  V30 13815 C 1321.64 -2.34515 2.44377 0
M  V30 13816 C 1320.69 -2.18843 3.66074 0
M  V30 13817 S 1321.52 -1.50975 5.13777 0
M  V30 13818 C 1322.68 -2.85027 5.57235 0
M  V30 13819 H 1322.91 -0.622099 2.90718 0
M  V30 13820 H 1320.44 -0.205983 1.5302 0
M  V30 13821 H 1322.4 -3.10775 2.68196 0
M  V30 13822 H 1321.06 -2.71327 1.58243 0
M  V30 13823 H 1320.26 -3.16836 3.91958 0
M  V30 13824 H 1319.86 -1.50727 3.42283 0
M  V30 13825 H 1322.15 -3.81318 5.60002 0
M  V30 13826 H 1323.09 -2.63837 6.57112 0
M  V30 13827 H 1323.5 -2.89168 4.84812 0
M  V30 13828 N 1322.9 -1.55308 -0.267798 0
M  V30 13829 C 1324.15 -1.7642 -1.00019 0
M  V30 13830 C 1324.48 -0.566559 -1.85752 0
M  V30 13831 O 1323.75 0.435752 -1.89556 0
M  V30 13832 C 1324.04 -3.07229 -1.87836 0
M  V30 13833 C 1323.89 -4.37358 -1.05061 0
M  V30 13834 C 1325.21 -3.34113 -2.86455 0
M  V30 13835 H 1322.33 -0.641859 -0.362197 0
M  V30 13836 H 1324.97 -1.8804 -0.272188 0
M  V30 13837 H 1323.12 -2.97454 -2.49907 0
M  V30 13838 H 1324.79 -4.59098 -0.450208 0
M  V30 13839 H 1323.03 -4.32351 -0.354242 0
M  V30 13840 H 1323.71 -5.25223 -1.69838 0
M  V30 13841 H 1326.18 -3.43715 -2.34519 0
M  V30 13842 H 1325.06 -4.26896 -3.45038 0
M  V30 13843 H 1325.32 -2.54005 -3.61848 0
M  V30 13844 N 1324.38 0.532545 -1.4833 0
M  V30 13845 C 1325.61 1.31331 -1.59874 0
M  V30 13846 C 1326.02 1.87028 -0.258037 0
M  V30 13847 O 1325.38 1.66272 0.752317 0
M  V30 13848 C 1325.43 2.46596 -2.64334 0
M  V30 13849 O 1325.15 1.93195 -3.93201 0
M  V30 13850 C 1326.65 3.38454 -2.86294 0
M  V30 13851 H 1323.87 0.399476 -0.539129 0
M  V30 13852 H 1326.41 0.642696 -1.94138 0
M  V30 13853 H 1324.57 3.09548 -2.32936 0
M  V30 13854 H 1324.98 2.68627 -4.50489 0
M  V30 13855 H 1326.46 4.15687 -3.63192 0
M  V30 13856 H 1326.93 3.93526 -1.95022 0
M  V30 13857 H 1327.54 2.81297 -3.18986 0
M  V30 13858 N 1325.86 1.36875 0.78122 0
M  V30 13859 C 1326.82 1.31706 1.8758 0
M  V30 13860 C 1327.82 0.223044 1.59246 0
M  V30 13861 O 1329.01 0.478327 1.67504 0
M  V30 13862 C 1326.14 1.0437 3.2453 0
M  V30 13863 H 1327.33 2.29059 1.93576 0
M  V30 13864 H 1324.89 1.21766 0.979931 0
M  V30 13865 H 1325.62 0.0750941 3.24213 0
M  V30 13866 H 1325.41 1.83548 3.46486 0
M  V30 13867 H 1326.9 1.0338 4.04602 0
M  V30 13868 N 1327.33 -1.00632 1.21289 0
M  V30 13869 C 1328.61 -1.71635 0.938124 0
M  V30 13870 C 1328.99 -2.03798 -0.550416 0
M  V30 13871 O 1328.34 -1.71065 -1.5149 0
M  V30 13872 C 1328.55 -2.97674 1.82184 0
M  V30 13873 C 1329.9 -3.7073 2.06989 0
M  V30 13874 O 1330.92 -3.07653 1.79522 0
M  V30 13875 O 1329.78 -4.84183 2.53435 0
M  V30 13876 H 1326.87 -0.748506 0.351664 0
M  V30 13877 H 1329.42 -1.06387 1.32212 0
M  V30 13878 H 1328.19 -2.70306 2.82931 0
M  V30 13879 H 1327.81 -3.70663 1.43858 0
M  V30 13880 N 1328.81 -1.02043 -1.20104 0
M  V30 13881 C 1329.76 -0.564679 -2.20897 0
M  V30 13882 C 1330.75 0.382041 -1.56299 0
M  V30 13883 O 1331.94 0.204384 -1.75816 0
M  V30 13884 C 1329.07 0.0917516 -3.43177 0
M  V30 13885 C 1328.15 -0.876903 -4.14935 0
M  V30 13886 N 1328.54 -2.03596 -4.63014 0
M  V30 13887 C 1326.84 -0.698538 -4.40496 0
M  V30 13888 C 1327.54 -2.64621 -5.18026 0
M  V30 13889 N 1326.52 -1.92651 -5.08317 0
M  V30 13890 H 1330.32 -1.44825 -2.5574 0
M  V30 13891 H 1327.83 -0.88628 -1.36084 0
M  V30 13892 H 1329.83 0.43582 -4.14616 0
M  V30 13893 H 1328.49 0.971116 -3.09838 0
M  V30 13894 H 1329.5 -2.41573 -4.58108 0
M  V30 13895 H 1326.18 0.132449 -4.1729 0
M  V30 13896 H 1327.57 -3.62732 -5.65575 0
M  V30 13897 N 1330.29 1.35952 -0.797165 0
M  V30 13898 C 1331.54 1.98639 -0.372405 0
M  V30 13899 C 1331.86 1.63571 1.06158 0
M  V30 13900 O 1331.13 0.913516 1.73297 0
M  V30 13901 H 1329.71 0.734753 -0.13471 0
M  V30 13902 H 1332.37 1.66022 -1.02092 0
M  V30 13903 H 1331.47 3.08533 -0.47049 0
M  V30 13904 N 1331.77 0.549846 1.47697 0
M  V30 13905 C 1333.18 0.11453 1.86348 0
M  V30 13906 C 1333.53 -1.31368 1.45729 0
M  V30 13907 O 1332.66 -1.98707 0.856989 0
M  V30 13908 C 1333.25 0.201072 3.38203 0
M  V30 13909 C 1331.81 -0.179162 3.75973 0
M  V30 13910 C 1330.96 0.551951 2.71751 0
M  V30 13911 H 1333.91 0.759989 1.39319 0
M  V30 13912 H 1333.93 -0.582216 3.76019 0
M  V30 13913 H 1333.44 1.24065 3.67736 0
M  V30 13914 H 1331.54 -1.22013 3.52056 0
M  V30 13915 H 1331.65 0.174273 4.78783 0
M  V30 13916 H 1330.02 -0.00411819 2.547 0
M  V30 13917 H 1330.8 1.59254 3.04127 0
M  V30 13918 N 1333.25 -1.54984 0.285932 0
M  V30 13919 C 1334.21 -2.2164 -0.583824 0
M  V30 13920 C 1335.21 -1.19764 -1.073 0
M  V30 13921 O 1336.4 -1.44598 -0.971439 0
M  V30 13922 C 1333.53 -2.8909 -1.80665 0
M  V30 13923 H 1334.72 -2.999 -0.00168109 0
M  V30 13924 H 1332.28 -1.56257 0.0366325 0
M  V30 13925 H 1333.01 -2.14869 -2.42903 0
M  V30 13926 H 1332.8 -3.63756 -1.4637 0
M  V30 13927 H 1334.29 -3.39982 -2.42491 0
M  V30 13928 N 1334.72 -0.0133892 -1.57594 0
M  V30 13929 C 1335.97 0.669624 -1.91426 0
M  V30 13930 C 1336.3 1.72675 -0.888656 0
M  V30 13931 O 1335.58 1.94288 0.0908138 0
M  V30 13932 C 1335.86 1.30051 -3.35796 0
M  V30 13933 C 1335.71 0.254021 -4.49082 0
M  V30 13934 C 1337.03 2.22297 -3.79832 0
M  V30 13935 H 1334.15 0.241958 -0.69615 0
M  V30 13936 H 1336.79 -0.0674278 -1.8988 0
M  V30 13937 H 1334.94 1.92871 -3.37243 0
M  V30 13938 H 1336.62 -0.375524 -4.59769 0
M  V30 13939 H 1334.86 -0.422267 -4.3174 0
M  V30 13940 H 1335.53 0.734756 -5.47088 0
M  V30 13941 H 1338.01 1.69481 -3.8002 0
M  V30 13942 H 1336.88 2.634 -4.81572 0
M  V30 13943 H 1337.14 3.10764 -3.14449 0
M  V30 13944 N 1336.2 1.55448 0.259558 0
M  V30 13945 C 1337.43 1.81063 1.01148 0
M  V30 13946 C 1337.85 0.58875 1.78649 0
M  V30 13947 O 1337.21 -0.461971 1.75315 0
M  V30 13948 C 1337.26 3.04279 1.93512 0
M  V30 13949 O 1336.36 2.80307 3.02493 0
M  V30 13950 H 1335.7 0.598056 0.288487 0
M  V30 13951 H 1338.23 2.02614 0.284387 0
M  V30 13952 H 1338.24 3.33373 2.35215 0
M  V30 13953 H 1336.92 3.92856 1.36518 0
M  V30 13954 H 1335.5 2.62345 2.65008 0
M  V30 13955 N 1337.68 -0.524672 1.4861 0
M  V30 13956 C 1338.93 -1.27768 1.56588 0
M  V30 13957 C 1339.25 -1.93469 0.243899 0
M  V30 13958 O 1338.52 -1.8159 -0.734985 0
M  V30 13959 H 1337.1 -0.474566 0.576885 0
M  V30 13960 H 1339.76 -0.610114 1.85104 0
M  V30 13961 H 1338.86 -2.05416 2.34969 0
M  V30 13962 N 1339.16 -1.37287 -0.77395 0
M  V30 13963 C 1340.12 -1.32699 -1.86878 0
M  V30 13964 C 1341.12 -0.231486 -1.59125 0
M  V30 13965 O 1342.31 -0.487203 -1.67248 0
M  V30 13966 C 1339.44 -1.0609 -3.23972 0
M  V30 13967 H 1340.64 -2.30083 -1.92359 0
M  V30 13968 H 1338.19 -1.22284 -0.973459 0
M  V30 13969 H 1338.92 -0.0922868 -3.24169 0
M  V30 13970 H 1338.71 -1.85383 -3.45508 0
M  V30 13971 H 1340.2 -1.05524 -4.04048 0
M  V30 13972 N 1340.64 0.999871 -1.21821 0
M  V30 13973 C 1341.59 2.0729 -0.949465 0
M  V30 13974 C 1342.57 1.60606 0.0972572 0
M  V30 13975 O 1343.76 1.76643 -0.11235 0
M  V30 13976 C 1340.89 3.39315 -0.521565 0
M  V30 13977 C 1339.98 3.92653 -1.60264 0
M  V30 13978 N 1340.37 4.19297 -2.82884 0
M  V30 13979 C 1338.67 4.20984 -1.4727 0
M  V30 13980 C 1339.37 4.62547 -3.52739 0
M  V30 13981 N 1338.34 4.65826 -2.80191 0
M  V30 13982 H 1342.15 2.25822 -1.881 0
M  V30 13983 H 1339.66 1.18102 -1.1147 0
M  V30 13984 H 1341.66 4.15743 -0.310376 0
M  V30 13985 H 1340.32 3.22187 0.403152 0
M  V30 13986 H 1341.33 4.07698 -3.19378 0
M  V30 13987 H 1338 4.12966 -0.613654 0
M  V30 13988 H 1339.39 4.91843 -4.57756 0
M  V30 13989 N 1342.11 1.02678 1.19562 0
M  V30 13990 C 1343.06 0.599259 2.24748 0
M  V30 13991 C 1344.06 -0.367079 1.65375 0
M  V30 13992 O 1345.26 -0.235887 1.78448 0
M  V30 13993 H 1341.64 0.175517 0.73123 0
M  V30 13994 H 1343.61 1.4971 2.58127 0
M  V30 13995 C 1342.36 -0.0362515 3.47681 0
M  V30 13996 H 1341.68 0.698343 3.93654 0
M  V30 13997 H 1343.12 -0.298361 4.22949 0
M  V30 13998 C 1341.58 -1.28218 3.11547 0
M  V30 13999 O 1342.11 -2.37446 3.24009 0
M  V30 14000 N 1340.32 -1.17014 2.66 0
M  V30 14001 H 1339.86 -0.28132 2.56059 0
M  V30 14002 H 1339.82 -2.00473 2.42194 0
M  V30 14003 N 1343.59 -1.35528 0.804364 0
M  V30 14004 C 1344.82 -2.03073 0.396091 0
M  V30 14005 C 1345.24 -1.60623 -0.992252 0
M  V30 14006 O 1344.59 -0.802718 -1.63898 0
M  V30 14007 C 1344.64 -3.58467 0.467301 0
M  V30 14008 O 1344.36 -3.99373 1.80091 0
M  V30 14009 C 1345.87 -4.4327 0.0515549 0
M  V30 14010 H 1343.09 -0.651346 0.161212 0
M  V30 14011 H 1345.63 -1.73195 1.08737 0
M  V30 14012 H 1343.78 -3.87001 -0.175703 0
M  V30 14013 H 1344.2 -4.94013 1.76214 0
M  V30 14014 H 1345.67 -5.51789 0.152499 0
M  V30 14015 H 1346.15 -4.27597 -1.00286 0
M  V30 14016 H 1346.76 -4.20027 0.667628 0
M  V30 14017 N 1345.07 -0.557671 -1.47404 0
M  V30 14018 C 1346.32 -0.0316382 -2.01675 0
M  V30 14019 C 1346.63 1.32656 -1.43742 0
M  V30 14020 O 1347.84 1.94253 -1.89678 0
M  V30 14021 C 1346.3 -0.00606931 -3.59899 0
M  V30 14022 C 1345.9 -1.36106 -4.26825 0
M  V30 14023 C 1347.65 0.467332 -4.2192 0
M  V30 14024 C 1345.55 -1.29457 -5.77057 0
M  V30 14025 H 1344.48 -0.00805738 -0.753957 0
M  V30 14026 H 1347.14 -0.705592 -1.69392 0
M  V30 14027 H 1345.52 0.733541 -3.89147 0
M  V30 14028 H 1346.69 -2.11842 -4.09218 0
M  V30 14029 H 1345.01 -1.77243 -3.76794 0
M  V30 14030 H 1347.6 0.535478 -5.32012 0
M  V30 14031 H 1347.95 1.47942 -3.89126 0
M  V30 14032 H 1348.48 -0.217434 -3.97205 0
M  V30 14033 H 1345.22 -2.28267 -6.14471 0
M  V30 14034 H 1344.74 -0.579022 -5.96999 0
M  V30 14035 H 1346.42 -0.996834 -6.39275 0
M  V30 14036 N 1346.55 1.54831 -0.294147 0
M  V30 14037 C 1347.8 1.99179 0.317874 0
M  V30 14038 C 1348.11 1.18614 1.55532 0
M  V30 14039 O 1349.32 1.53197 2.24149 0
M  V30 14040 C 1347.77 3.54574 0.616893 0
M  V30 14041 C 1347.38 4.43939 -0.601822 0
M  V30 14042 C 1349.13 4.07465 1.19049 0
M  V30 14043 C 1347.03 5.90754 -0.276336 0
M  V30 14044 H 1345.96 0.743974 0.12255 0
M  V30 14045 H 1348.61 1.79047 -0.401781 0
M  V30 14046 H 1347 3.70579 1.39596 0
M  V30 14047 H 1348.17 4.39706 -1.37822 0
M  V30 14048 H 1346.48 4.01783 -1.09357 0
M  V30 14049 H 1349.08 5.14716 1.44814 0
M  V30 14050 H 1349.42 3.5765 2.13055 0
M  V30 14051 H 1349.96 3.94975 0.473282 0
M  V30 14052 H 1346.7 6.44704 -1.18478 0
M  V30 14053 H 1346.22 5.98011 0.462928 0
M  V30 14054 H 1347.9 6.4688 0.124587 0
M  V30 14055 N 1348.03 0.0217466 1.57585 0
M  V30 14056 C 1349.27 -0.662733 1.93358 0
M  V30 14057 C 1349.63 -1.69715 0.897829 0
M  V30 14058 O 1350.83 -2.43358 1.14151 0
M  V30 14059 C 1349.1 -1.26973 3.34085 0
M  V30 14060 S 1350.66 -1.97631 3.91775 0
M  V30 14061 H 1347.48 -0.218386 0.67663 0
M  V30 14062 H 1350.08 0.0836466 1.95321 0
M  V30 14063 H 1348.79 -0.504339 4.07289 0
M  V30 14064 H 1348.32 -2.05357 3.35547 0
M  V30 14065 H 1350.33 -3.25393 3.74612 0
M  V30 14066 N 1349.51 -1.55583 -0.251311 0
M  V30 14067 C 1350.47 -1.89148 -1.29443 0
M  V30 14068 C 1351.47 -0.7676 -1.41296 0
M  V30 14069 O 1352.66 -1.03563 -1.40073 0
M  V30 14070 C 1349.79 -2.11601 -2.67279 0
M  V30 14071 H 1350.98 -2.82416 -1.00901 0
M  V30 14072 H 1348.54 -1.48407 -0.490398 0
M  V30 14073 H 1349.27 -1.20787 -3.00967 0
M  V30 14074 H 1349.06 -2.93449 -2.60058 0
M  V30 14075 H 1350.55 -2.38768 -3.42607 0
M  V30 14076 N 1350.98 0.516783 -1.48886 0
M  V30 14077 C 1352.4 0.84654 -1.35299 0
M  V30 14078 C 1352.6 1.97998 -0.374035 0
M  V30 14079 O 1351.66 2.51707 0.200003 0
M  V30 14080 C 1352.97 1.20162 -2.75648 0
M  V30 14081 C 1354.52 1.31074 -2.84233 0
M  V30 14082 C 1354.99 1.69919 -4.25313 0
M  V30 14083 N 1356.48 1.76998 -4.28049 0
M  V30 14084 C 1357.22 2.08466 -5.34162 0
M  V30 14085 N 1356.71 2.38268 -6.50538 0
M  V30 14086 N 1358.51 2.09584 -5.21566 0
M  V30 14087 H 1350.66 -0.230871 -2.11142 0
M  V30 14088 H 1352.92 -0.0406678 -0.947127 0
M  V30 14089 H 1352.63 0.442278 -3.48908 0
M  V30 14090 H 1352.5 2.14875 -3.10014 0
M  V30 14091 H 1354.89 2.06083 -2.1122 0
M  V30 14092 H 1354.97 0.344506 -2.5347 0
M  V30 14093 H 1354.61 0.954667 -4.98847 0
M  V30 14094 H 1354.54 2.67616 -4.5353 0
M  V30 14095 H 1357.03 1.56191 -3.44112 0
M  V30 14096 H 1357.35 2.61423 -7.2724 0
M  V30 14097 H 1355.69 2.35758 -6.53791 0
M  V30 14098 H 1358.88 1.85768 -4.2966 0
M  V30 14099 H 1359.06 2.33776 -6.04362 0
M  V30 14100 N 1352.46 1.37696 0.766659 0
M  V30 14101 C 1353.42 1.33688 1.86172 0
M  V30 14102 C 1354.42 0.239922 1.59 0
M  V30 14103 O 1355.61 0.496066 1.66988 0
M  V30 14104 C 1352.75 1.07807 3.23405 0
M  V30 14105 H 1353.94 2.311 1.91136 0
M  V30 14106 H 1351.49 1.22799 0.966961 0
M  V30 14107 H 1352.23 0.109477 3.24115 0
M  V30 14108 H 1352.01 1.87213 3.4452 0
M  V30 14109 H 1353.5 1.07665 4.03482 0
M  V30 14110 N 1353.94 -0.993397 1.22349 0
M  V30 14111 C 1355.19 -1.72945 1.04568 0
M  V30 14112 C 1355.51 -1.90419 -0.420178 0
M  V30 14113 O 1354.78 -1.46348 -1.30227 0
M  V30 14114 H 1353.36 -0.640777 0.383945 0
M  V30 14115 H 1356.02 -1.19647 1.53853 0
M  V30 14116 H 1355.12 -2.72411 1.52311 0
M  V30 14117 N 1355.42 -1.03311 -1.19015 0
M  V30 14118 C 1356.36 -0.617567 -2.22384 0
M  V30 14119 C 1357.33 0.370779 -1.61909 0
M  V30 14120 O 1358.52 0.266481 -1.8893 0
M  V30 14121 C 1355.66 0.0211303 -3.45094 0
M  V30 14122 C 1354.77 -1.01377 -4.19937 0
M  V30 14123 C 1353.91 -0.344385 -5.30082 0
M  V30 14124 C 1352.95 -1.3649 -5.96688 0
M  V30 14125 N 1352.08 -0.721026 -6.98388 0
M  V30 14126 H 1356.92 -1.5036 -2.57286 0
M  V30 14127 H 1354.46 -0.75235 -1.26405 0
M  V30 14128 H 1356.42 0.408713 -4.15193 0
M  V30 14129 H 1355.05 0.870721 -3.10835 0
M  V30 14130 H 1354.1 -1.51937 -3.4874 0
M  V30 14131 H 1355.41 -1.78921 -4.65606 0
M  V30 14132 H 1354.57 0.097814 -6.06621 0
M  V30 14133 H 1353.31 0.463216 -4.85495 0
M  V30 14134 H 1352.31 -1.81732 -5.18897 0
M  V30 14135 H 1353.54 -2.17407 -6.43359 0
M  V30 14136 H 1351.48 0.0664057 -6.55966 0
M  V30 14137 H 1351.4 -1.43428 -7.4227 0
M  V30 14138 H 1352.67 -0.30297 -7.78911 0
M  V30 14139 N 1356.9 1.35099 -0.81154 0
M  V30 14140 C 1358.17 1.93009 -0.317289 0
M  V30 14141 C 1358.55 1.74101 1.19382 0
M  V30 14142 O 1357.9 1.11295 1.99564 0
M  V30 14143 C 1358.11 3.41191 -0.734123 0
M  V30 14144 C 1359.46 4.1834 -0.726437 0
M  V30 14145 O 1360.48 3.49727 -0.67598 0
M  V30 14146 O 1359.34 5.4077 -0.789291 0
M  V30 14147 H 1356.44 0.822707 -0.084153 0
M  V30 14148 H 1358.98 1.44145 -0.895569 0
M  V30 14149 H 1357.75 3.48705 -1.7754 0
M  V30 14150 H 1357.38 3.97384 -0.130919 0
M  V30 14151 N 1358.37 0.56548 1.47106 0
M  V30 14152 C 1359.3 -0.16567 2.32912 0
M  V30 14153 C 1360.28 -0.900678 1.44298 0
M  V30 14154 O 1361.47 -0.879523 1.73142 0
M  V30 14155 C 1358.6 -1.19092 3.26243 0
M  V30 14156 C 1357.55 -0.571849 4.24163 0
M  V30 14157 C 1356.88 -1.70233 5.06878 0
M  V30 14158 C 1358.18 0.479785 5.20092 0
M  V30 14159 H 1359.87 0.550705 2.94292 0
M  V30 14160 H 1357.42 0.266284 1.41517 0
M  V30 14161 H 1359.37 -1.71064 3.85117 0
M  V30 14162 H 1358.1 -1.93734 2.62934 0
M  V30 14163 H 1356.76 -0.073353 3.66527 0
M  V30 14164 H 1356.4 -2.438 4.39967 0
M  V30 14165 H 1356.1 -1.29384 5.73178 0
M  V30 14166 H 1357.63 -2.22515 5.68612 0
M  V30 14167 H 1359.04 0.0458042 5.73282 0
M  V30 14168 H 1357.44 0.807615 5.94641 0
M  V30 14169 H 1358.51 1.37259 4.65068 0
M  V30 14170 N 1359.85 -1.54672 0.302354 0
M  V30 14171 C 1361.1 -2.00463 -0.306978 0
M  V30 14172 C 1361.43 -1.19043 -1.53435 0
M  V30 14173 O 1360.71 -0.267255 -1.92655 0
M  V30 14174 C 1360.99 -3.53958 -0.662229 0
M  V30 14175 C 1360.84 -4.46118 0.574378 0
M  V30 14176 C 1362.16 -4.14174 -1.48821 0
M  V30 14177 H 1359.28 -0.728729 -0.110102 0
M  V30 14178 H 1361.92 -1.85419 0.414722 0
M  V30 14179 H 1360.07 -3.66909 -1.2771 0
M  V30 14180 H 1361.74 -4.45071 1.21284 0
M  V30 14181 H 1359.99 -4.1666 1.20736 0
M  V30 14182 H 1360.66 -5.51281 0.281651 0
M  V30 14183 H 1363.13 -4.04668 -0.968674 0
M  V30 14184 H 1362.01 -5.2173 -1.70556 0
M  V30 14185 H 1362.27 -3.66136 -2.47784 0
M  V30 14186 N 1361.33 -0.0301034 -1.57571 0
M  V30 14187 C 1362.56 0.662045 -1.9655 0
M  V30 14188 C 1362.98 1.64811 -0.906581 0
M  V30 14189 O 1362.34 1.80816 0.132415 0
M  V30 14190 C 1362.39 1.34389 -3.34622 0
M  V30 14191 O 1361.49 2.45919 -3.31056 0
M  V30 14192 H 1360.83 0.173842 -0.640839 0
M  V30 14193 H 1363.36 -0.092248 -2.04392 0
M  V30 14194 H 1363.37 1.70045 -3.70875 0
M  V30 14195 H 1362.05 0.621092 -4.11236 0
M  V30 14196 H 1360.62 2.12367 -3.06521 0
M  V30 14197 N 1362.81 1.55714 0.243056 0
M  V30 14198 C 1364.03 1.82126 0.992219 0
M  V30 14199 C 1364.46 0.607665 1.78014 0
M  V30 14200 O 1363.82 -0.443351 1.75796 0
M  V30 14201 C 1363.86 3.06314 1.90274 0
M  V30 14202 O 1362.97 2.83499 2.99503 0
M  V30 14203 H 1362.31 0.601082 0.282128 0
M  V30 14204 H 1364.84 2.02904 0.262881 0
M  V30 14205 H 1364.85 3.35849 2.31666 0
M  V30 14206 H 1363.52 3.94282 1.32344 0
M  V30 14207 H 1362.1 2.65141 2.62211 0
M  V30 14208 N 1364.29 -0.50888 1.49158 0
M  V30 14209 C 1365.22 -1.62008 1.68154 0
M  V30 14210 C 1366.2 -1.61624 0.53025 0
M  V30 14211 O 1367.38 -1.78489 0.765205 0
M  V30 14212 C 1364.51 -3.00525 1.74075 0
M  V30 14213 C 1363.47 -3.15773 2.88915 0
M  V30 14214 C 1362.79 -4.55562 2.79942 0
M  V30 14215 C 1364.09 -2.96542 4.29953 0
M  V30 14216 H 1365.79 -1.46365 2.61185 0
M  V30 14217 H 1363.33 -0.702705 1.2569 0
M  V30 14218 H 1365.29 -3.78154 1.8595 0
M  V30 14219 H 1364.01 -3.17238 0.776373 0
M  V30 14220 H 1362.67 -2.40567 2.76628 0
M  V30 14221 H 1362.32 -4.6914 1.81429 0
M  V30 14222 H 1362.02 -4.66706 3.57015 0
M  V30 14223 H 1363.54 -5.35262 2.93814 0
M  V30 14224 H 1364.95 -3.63947 4.42963 0
M  V30 14225 H 1363.35 -3.19164 5.08187 0
M  V30 14226 H 1364.42 -1.92745 4.44946 0
M  V30 14227 N 1365.76 -1.381 -0.759346 0
M  V30 14228 C 1366.99 -1.37213 -1.54855 0
M  V30 14229 C 1367.41 0.0395175 -1.88759 0
M  V30 14230 O 1366.76 1.00462 -1.5236 0
M  V30 14231 C 1366.82 -2.22232 -2.85123 0
M  V30 14232 O 1366.54 -3.57897 -2.52668 0
M  V30 14233 C 1368.04 -2.29461 -3.79292 0
M  V30 14234 H 1365.26 -0.469542 -0.479345 0
M  V30 14235 H 1367.8 -1.81604 -0.940216 0
M  V30 14236 H 1365.96 -1.81317 -3.42349 0
M  V30 14237 H 1366.37 -4.02599 -3.36176 0
M  V30 14238 H 1367.84 -2.93246 -4.67665 0
M  V30 14239 H 1368.32 -1.3066 -4.19315 0
M  V30 14240 H 1368.93 -2.70741 -3.27993 0
M  V30 14241 N 1367.24 0.986894 -1.22875 0
M  V30 14242 C 1368.47 1.768 -1.08427 0
M  V30 14243 C 1368.89 1.84612 0.360555 0
M  V30 14244 O 1368.25 1.30299 1.26063 0
M  V30 14245 C 1368.3 3.17638 -1.70701 0
M  V30 14246 O 1367.4 4.00957 -0.964752 0
M  V30 14247 H 1366.74 0.544199 -0.380451 0
M  V30 14248 H 1369.27 1.23931 -1.62795 0
M  V30 14249 H 1369.28 3.68243 -1.75672 0
M  V30 14250 H 1367.96 3.11267 -2.75837 0
M  V30 14251 H 1366.54 3.59477 -0.991493 0
M  V30 14252 N 1368.72 1.0394 1.18466 0
M  V30 14253 C 1369.97 0.740576 1.88042 0
M  V30 14254 C 1370.29 -0.733822 1.80666 0
M  V30 14255 O 1369.56 -1.52943 1.22414 0
M  V30 14256 H 1368.14 0.270949 0.696129 0
M  V30 14257 H 1370.8 1.31588 1.43772 0
M  V30 14258 H 1369.9 1.04429 2.94111 0
M  V30 14259 N 1370.2 -1.34667 0.818693 0
M  V30 14260 C 1371.13 -2.32134 0.252239 0
M  V30 14261 C 1372.11 -1.58044 -0.628982 0
M  V30 14262 O 1373.29 -1.86049 -0.55674 0
M  V30 14263 C 1370.42 -3.42249 -0.590183 0
M  V30 14264 C 1369.38 -4.27562 0.193547 0
M  V30 14265 C 1368.7 -5.29107 -0.771349 0
M  V30 14266 C 1370 -5.03205 1.39936 0
M  V30 14267 H 1371.7 -2.79758 1.06657 0
M  V30 14268 H 1369.24 -1.34502 0.514325 0
M  V30 14269 H 1371.2 -4.09445 -0.996616 0
M  V30 14270 H 1369.92 -2.93262 -1.43752 0
M  V30 14271 H 1368.58 -3.61962 0.581297 0
M  V30 14272 H 1368.23 -4.76384 -1.61453 0
M  V30 14273 H 1367.93 -5.87063 -0.251201 0
M  V30 14274 H 1369.45 -5.99174 -1.17573 0
M  V30 14275 H 1370.87 -5.6328 1.06717 0
M  V30 14276 H 1369.26 -5.70715 1.85485 0
M  V30 14277 H 1370.33 -4.33145 2.17976 0
M  V30 14278 N 1371.68 -0.573274 -1.46804 0
M  V30 14279 C 1372.61 0.153316 -2.32996 0
M  V30 14280 C 1373.59 0.893013 -1.44773 0
M  V30 14281 O 1374.77 0.870329 -1.73606 0
M  V30 14282 C 1371.9 1.1736 -3.2687 0
M  V30 14283 C 1370.86 0.549347 -4.2446 0
M  V30 14284 C 1370.18 1.67542 -5.07773 0
M  V30 14285 C 1371.48 -0.50736 -5.1983 0
M  V30 14286 H 1373.18 -0.566305 -2.93995 0
M  V30 14287 H 1370.72 -0.273785 -1.41373 0
M  V30 14288 H 1372.68 1.6902 -3.86019 0
M  V30 14289 H 1371.4 1.92337 -2.63958 0
M  V30 14290 H 1370.06 0.0539142 -3.6656 0
M  V30 14291 H 1369.71 2.41463 -4.41253 0
M  V30 14292 H 1369.41 1.26343 -5.73856 0
M  V30 14293 H 1370.93 2.19496 -5.69784 0
M  V30 14294 H 1372.34 -0.0762061 -5.73249 0
M  V30 14295 H 1370.74 -0.839139 -5.94204 0
M  V30 14296 H 1371.81 -1.39723 -4.64333 0
M  V30 14297 N 1373.15 1.5451 -0.310553 0
M  V30 14298 C 1374.38 2.04739 0.29824 0
M  V30 14299 C 1374.8 1.18737 1.46788 0
M  V30 14300 O 1374.15 0.215114 1.81228 0
M  V30 14301 C 1374.21 3.53734 0.745274 0
M  V30 14302 O 1373.93 4.36468 -0.377826 0
M  V30 14303 C 1375.43 4.20001 1.41823 0
M  V30 14304 H 1372.65 0.667997 0.0634159 0
M  V30 14305 H 1375.19 1.9942 -0.452961 0
M  V30 14306 H 1373.35 3.59383 1.44648 0
M  V30 14307 H 1373.76 5.24492 -0.0280567 0
M  V30 14308 H 1375.23 5.25747 1.68209 0
M  V30 14309 H 1375.71 3.70319 2.36137 0
M  V30 14310 H 1376.32 4.18455 0.759951 0
M  V30 14311 N 1374.63 0.0384594 1.57553 0
M  V30 14312 C 1375.88 -0.637533 1.91359 0
M  V30 14313 C 1376.2 -1.7275 0.91744 0
M  V30 14314 O 1377.4 -2.46078 1.14709 0
M  V30 14315 C 1375.86 -1.18526 3.39823 0
M  V30 14316 C 1375.47 -0.128086 4.47817 0
M  V30 14317 C 1377.21 -1.83723 3.82683 0
M  V30 14318 C 1375.12 -0.687978 5.87385 0
M  V30 14319 H 1374.05 -0.241898 0.714144 0
M  V30 14320 H 1376.7 0.105281 1.83198 0
M  V30 14321 H 1375.08 -1.97999 3.42947 0
M  V30 14322 H 1376.25 0.644865 4.56265 0
M  V30 14323 H 1374.57 0.425672 4.14219 0
M  V30 14324 H 1377.17 -2.26585 4.84317 0
M  V30 14325 H 1377.51 -2.68377 3.18244 0
M  V30 14326 H 1378.04 -1.10926 3.82021 0
M  V30 14327 H 1374.78 0.120642 6.55389 0
M  V30 14328 H 1374.3 -1.4292 5.82524 0
M  V30 14329 H 1375.98 -1.17483 6.36244 0
M  V30 14330 N 1376.11 -1.55841 -0.234795 0
M  V30 14331 C 1377.36 -1.77886 -0.959217 0
M  V30 14332 C 1377.68 -0.604621 -1.8539 0
M  V30 14333 O 1376.95 0.379092 -1.92197 0
M  V30 14334 H 1375.53 -0.656077 -0.357172 0
M  V30 14335 H 1378.19 -1.93292 -0.249831 0
M  V30 14336 H 1377.29 -2.69512 -1.57383 0
M  V30 14337 N 1377.59 0.500963 -1.49426 0
M  V30 14338 C 1378.87 1.26231 -1.49416 0
M  V30 14339 C 1379.25 2.0993 -0.221908 0
M  V30 14340 O 1378.59 2.14198 0.795712 0
M  V30 14341 C 1378.8 2.11899 -2.77308 0
M  V30 14342 C 1380.15 2.71086 -3.26799 0
M  V30 14343 O 1381.18 2.22166 -2.78425 0
M  V30 14344 O 1380.04 3.60141 -4.11049 0
M  V30 14345 H 1377.13 0.571224 -0.598024 0
M  V30 14346 H 1379.68 0.51523 -1.61689 0
M  V30 14347 H 1378.45 1.50027 -3.61397 0
M  V30 14348 H 1378.07 2.93799 -2.67896 0
M  V30 14349 N 1379.07 1.38501 0.752011 0
M  V30 14350 C 1380.48 1.19733 1.05529 0
M  V30 14351 C 1380.68 0.047088 2.01445 0
M  V30 14352 O 1379.74 -0.606645 2.45104 0
M  V30 14353 C 1381.05 2.52439 1.63386 0
M  V30 14354 C 1382.6 2.59136 1.7555 0
M  V30 14355 C 1383.08 3.92022 2.36819 0
M  V30 14356 N 1384.57 3.9357 2.44248 0
M  V30 14357 C 1385.3 4.93154 2.92553 0
M  V30 14358 N 1384.8 6.03135 3.40882 0
M  V30 14359 N 1386.59 4.80543 2.91607 0
M  V30 14360 H 1378.74 2.12085 0.115543 0
M  V30 14361 H 1381 0.941134 0.113888 0
M  V30 14362 H 1380.71 3.37072 1.00376 0
M  V30 14363 H 1380.58 2.70947 2.62427 0
M  V30 14364 H 1382.97 1.74897 2.37687 0
M  V30 14365 H 1383.05 2.44494 0.752092 0
M  V30 14366 H 1382.7 4.76684 1.75314 0
M  V30 14367 H 1382.63 4.03976 3.37803 0
M  V30 14368 H 1385.12 3.14133 2.10068 0
M  V30 14369 H 1385.43 6.7505 3.76201 0
M  V30 14370 H 1383.78 6.06752 3.38935 0
M  V30 14371 H 1386.97 3.93733 2.53163 0
M  V30 14372 H 1387.14 5.58303 3.28941 0
M  V30 14373 N 1380.55 -0.980364 1.23396 0
M  V30 14374 C 1381.79 -1.72166 1.06607 0
M  V30 14375 C 1382.12 -1.90405 -0.397029 0
M  V30 14376 O 1381.38 -1.45363 -1.31027 0
M  V30 14377 C 1381.67 -3.12367 1.73671 0
M  V30 14378 C 1381.34 -3.14007 3.2359 0
M  V30 14379 C 1380 -3.14162 3.64494 0
M  V30 14380 C 1382.35 -3.09319 4.19489 0
M  V30 14381 C 1379.68 -3.07345 4.99756 0
M  V30 14382 C 1382.03 -3.04044 5.54743 0
M  V30 14383 C 1380.7 -3.02521 5.9501 0
M  V30 14384 H 1379.97 -0.63 0.390104 0
M  V30 14385 H 1382.62 -1.14727 1.5333 0
M  V30 14386 H 1380.92 -3.73193 1.19308 0
M  V30 14387 H 1382.62 -3.68493 1.58159 0
M  V30 14388 H 1379.21 -3.14644 2.91028 0
M  V30 14389 H 1383.39 -3.08339 3.88897 0
M  V30 14390 H 1378.65 -3.04519 5.30168 0
M  V30 14391 H 1382.82 -2.99374 6.28767 0
M  V30 14392 H 1380.45 -2.96994 6.99785 0
M  V30 14393 N 1382.02 -1.04567 -1.17913 0
M  V30 14394 C 1383.27 -0.750538 -1.87647 0
M  V30 14395 C 1383.59 0.72423 -1.81052 0
M  V30 14396 O 1382.86 1.52292 -1.23223 0
M  V30 14397 H 1381.44 -0.274636 -0.694683 0
M  V30 14398 H 1384.1 -1.32349 -1.43072 0
M  V30 14399 H 1383.2 -1.05987 -2.93553 0
M  V30 14400 N 1383.5 1.34231 -0.825823 0
M  V30 14401 C 1384.75 1.97805 -0.414456 0
M  V30 14402 C 1385.07 1.65786 1.02664 0
M  V30 14403 O 1384.34 0.950069 1.7132 0
M  V30 14404 H 1382.92 0.73173 -0.150265 0
M  V30 14405 H 1385.58 1.63819 -1.05591 0
M  V30 14406 H 1384.68 3.07466 -0.535829 0
M  V30 14407 N 1384.98 0.581051 1.46498 0
M  V30 14408 C 1385.94 -0.142937 2.28754 0
M  V30 14409 C 1386.94 -0.820383 1.38298 0
M  V30 14410 O 1388.13 -0.672592 1.60692 0
M  V30 14411 C 1385.26 -1.21176 3.18637 0
M  V30 14412 H 1386.46 0.579918 2.9424 0
M  V30 14413 H 1384.01 0.338951 1.52581 0
M  V30 14414 H 1384.75 -1.96624 2.57894 0
M  V30 14415 H 1384.53 -0.730517 3.85235 0
M  V30 14416 H 1386.02 -1.71958 3.80552 0
M  V30 14417 N 1386.46 -1.54343 0.318742 0
M  V30 14418 C 1387.39 -2.27118 -0.542206 0
M  V30 14419 C 1388.37 -1.27731 -1.12334 0
M  V30 14420 O 1389.55 -1.56535 -1.14937 0
M  V30 14421 C 1386.68 -3.02535 -1.70558 0
M  V30 14422 C 1385.64 -4.09218 -1.25398 0
M  V30 14423 C 1384.96 -4.72449 -2.50391 0
M  V30 14424 C 1386.26 -5.20971 -0.372332 0
M  V30 14425 H 1387.96 -2.9933 0.0648226 0
M  V30 14426 H 1385.5 -1.43963 0.0326168 0
M  V30 14427 H 1387.46 -3.52174 -2.31412 0
M  V30 14428 H 1386.18 -2.27931 -2.33912 0
M  V30 14429 H 1384.84 -3.60455 -0.668392 0
M  V30 14430 H 1384.49 -3.94466 -3.12099 0
M  V30 14431 H 1384.19 -5.4451 -2.20868 0
M  V30 14432 H 1385.71 -5.2486 -3.12016 0
M  V30 14433 H 1387.13 -5.66396 -0.887029 0
M  V30 14434 H 1385.52 -5.99859 -0.17009 0
M  V30 14435 H 1386.59 -4.81198 0.598064 0
M  V30 14436 N 1387.94 -0.0468143 -1.5753 0
M  V30 14437 C 1389.21 0.667567 -1.83856 0
M  V30 14438 C 1389.59 1.89297 -0.934346 0
M  V30 14439 O 1388.94 2.28499 0.00570067 0
M  V30 14440 C 1389.15 1.029 -3.33485 0
M  V30 14441 C 1390.5 1.41315 -4.00394 0
M  V30 14442 O 1391.52 1.12147 -3.38085 0
M  V30 14443 O 1390.38 1.95732 -5.10246 0
M  V30 14444 H 1387.48 0.329112 -0.758692 0
M  V30 14445 H 1390.02 -0.0758456 -1.6953 0
M  V30 14446 H 1388.79 0.157617 -3.90982 0
M  V30 14447 H 1388.42 1.83 -3.52982 0
M  V30 14448 N 1389.41 1.55964 0.226527 0
M  V30 14449 C 1390.38 1.91184 1.26418 0
M  V30 14450 C 1391.38 0.789982 1.40057 0
M  V30 14451 O 1392.57 1.05778 1.38407 0
M  V30 14452 C 1389.7 2.15826 2.63878 0
M  V30 14453 H 1390.89 2.83986 0.963956 0
M  V30 14454 H 1388.45 1.49169 0.466726 0
M  V30 14455 H 1389.18 1.2556 2.99007 0
M  V30 14456 H 1388.97 2.97549 2.55356 0
M  V30 14457 H 1390.46 2.44188 3.38765 0
M  V30 14458 N 1390.89 -0.493031 1.4969 0
M  V30 14459 C 1391.86 -1.57598 1.6642 0
M  V30 14460 C 1392.86 -1.51615 0.535668 0
M  V30 14461 O 1394.05 -1.54626 0.802283 0
M  V30 14462 C 1391.18 -2.97249 1.66901 0
M  V30 14463 H 1392.37 -1.4409 2.63017 0
M  V30 14464 H 1389.92 -0.717846 1.3884 0
M  V30 14465 H 1390.66 -3.16225 0.719164 0
M  V30 14466 H 1390.44 -3.02999 2.48865 0
M  V30 14467 H 1391.93 -3.75914 1.81874 0
M  V30 14468 N 1392.37 -1.38898 -0.744656 0
M  V30 14469 C 1393.33 -1.36633 -1.84022 0
M  V30 14470 C 1394.33 -0.265187 -1.58598 0
M  V30 14471 O 1395.52 -0.522569 -1.66177 0
M  V30 14472 C 1392.66 -1.12938 -3.21649 0
M  V30 14473 H 1393.85 -2.34111 -1.87435 0
M  V30 14474 H 1391.4 -1.24322 -0.947302 0
M  V30 14475 H 1392.14 -0.161027 -3.239 0
M  V30 14476 H 1391.92 -1.9267 -3.41498 0
M  V30 14477 H 1393.41 -1.14071 -4.01718 0
M  V30 14478 N 1393.85 0.973806 -1.23914 0
M  V30 14479 C 1394.8 2.06734 -1.02614 0
M  V30 14480 C 1395.77 1.65997 0.0585705 0
M  V30 14481 O 1396.95 1.90564 -0.0948467 0
M  V30 14482 C 1394.09 3.39292 -0.630493 0
M  V30 14483 C 1393.2 3.9326 -1.78803 0
M  V30 14484 C 1392.34 5.14059 -1.33854 0
M  V30 14485 C 1391.38 5.60209 -2.46642 0
M  V30 14486 N 1390.51 6.72232 -2.02603 0
M  V30 14487 H 1395.35 2.24287 -1.96212 0
M  V30 14488 H 1392.89 1.09935 -0.977376 0
M  V30 14489 H 1394.85 4.15446 -0.382163 0
M  V30 14490 H 1393.48 3.21682 0.268483 0
M  V30 14491 H 1392.53 3.13801 -2.15019 0
M  V30 14492 H 1393.84 4.23475 -2.63573 0
M  V30 14493 H 1393 5.97567 -1.04873 0
M  V30 14494 H 1391.74 4.85513 -0.46131 0
M  V30 14495 H 1390.74 4.75278 -2.7639 0
M  V30 14496 H 1391.97 5.90771 -3.34912 0
M  V30 14497 H 1389.91 6.45433 -1.17269 0
M  V30 14498 H 1389.83 7.01865 -2.80929 0
M  V30 14499 H 1391.1 7.59198 -1.76745 0
M  V30 14500 N 1395.33 1.05191 1.17357 0
M  V30 14501 C 1396.26 0.597207 2.20247 0
M  V30 14502 C 1397.24 -0.374194 1.58236 0
M  V30 14503 O 1398.42 -0.285815 1.86321 0
M  V30 14504 C 1395.55 -0.126012 3.38466 0
M  V30 14505 C 1394.59 0.800401 4.18922 0
M  V30 14506 S 1395.43 2.28956 4.84086 0
M  V30 14507 C 1396.58 1.57751 6.05694 0
M  V30 14508 H 1396.82 1.46893 2.58476 0
M  V30 14509 H 1394.35 0.863874 1.27971 0
M  V30 14510 H 1396.31 -0.537086 4.06971 0
M  V30 14511 H 1394.97 -0.97377 2.98624 0
M  V30 14512 H 1394.16 0.240754 5.03425 0
M  V30 14513 H 1393.76 1.15084 3.55853 0
M  V30 14514 H 1396.06 0.876839 6.71802 0
M  V30 14515 H 1397 2.40001 6.66187 0
M  V30 14516 H 1397.41 1.06493 5.54364 0
M  V30 14517 N 1396.8 -1.33791 0.83293 0
M  V30 14518 C 1398.05 -1.97973 0.425781 0
M  V30 14519 C 1398.38 -1.66003 -1.01357 0
M  V30 14520 O 1397.63 -0.929016 -1.72243 0
M  V30 14521 C 1397.93 -3.52555 0.586485 0
M  V30 14522 C 1397.6 -4.04461 1.99304 0
M  V30 14523 C 1396.26 -4.18347 2.37779 0
M  V30 14524 C 1398.61 -4.3226 2.91206 0
M  V30 14525 C 1395.94 -4.57364 3.67471 0
M  V30 14526 C 1398.29 -4.72727 4.20371 0
M  V30 14527 C 1396.96 -4.84819 4.5881 0
M  V30 14528 H 1396.23 -0.724435 0.155804 0
M  V30 14529 H 1398.87 -1.59567 1.05881 0
M  V30 14530 H 1397.18 -3.91585 -0.129885 0
M  V30 14531 H 1398.88 -4.00208 0.251835 0
M  V30 14532 H 1395.47 -3.94122 1.68421 0
M  V30 14533 H 1399.65 -4.2106 2.6272 0
M  V30 14534 H 1394.91 -4.64918 3.97065 0
M  V30 14535 H 1399.08 -4.93194 4.91663 0
M  V30 14536 H 1396.71 -5.14809 5.59353 0
M  V30 14537 N 1398.28 -0.588812 -1.46187 0
M  V30 14538 C 1399.51 -0.0806571 -2.07243 0
M  V30 14539 C 1399.93 1.21766 -1.43369 0
M  V30 14540 O 1399.29 1.73694 -0.51964 0
M  V30 14541 C 1399.34 0.065267 -3.60541 0
M  V30 14542 O 1398.44 1.12026 -3.96893 0
M  V30 14543 H 1397.78 -0.0655622 -0.660755 0
M  V30 14544 H 1400.31 -0.813489 -1.87733 0
M  V30 14545 H 1400.32 0.269494 -4.07109 0
M  V30 14546 H 1399 -0.88284 -4.06422 0
M  V30 14547 H 1397.58 0.894 -3.62025 0
M  V30 14548 N 1399.76 1.54172 -0.326923 0
M  V30 14549 C 1400.71 2.24454 0.537501 0
M  V30 14550 C 1401.68 1.23658 1.10896 0
M  V30 14551 O 1402.86 1.52348 1.14868 0
M  V30 14552 C 1400 3.00839 1.69085 0
M  V30 14553 C 1399.12 4.16459 1.1483 0
M  V30 14554 C 1398.25 4.80368 2.26761 0
M  V30 14555 C 1397.29 5.88085 1.69771 0
M  V30 14556 N 1396.43 6.45842 2.75378 0
M  V30 14557 H 1401.27 2.97921 -0.0684022 0
M  V30 14558 H 1398.8 1.4703 -0.0455287 0
M  V30 14559 H 1400.76 3.43375 2.36959 0
M  V30 14560 H 1399.39 2.297 2.26799 0
M  V30 14561 H 1398.44 3.78683 0.361004 0
M  V30 14562 H 1399.76 4.93986 0.69132 0
M  V30 14563 H 1398.91 5.25889 3.02533 0
M  V30 14564 H 1397.65 4.02228 2.75796 0
M  V30 14565 H 1396.65 5.41963 0.924985 0
M  V30 14566 H 1397.88 6.68123 1.21609 0
M  V30 14567 H 1395.82 5.70574 3.23699 0
M  V30 14568 H 1395.74 7.18792 2.34253 0
M  V30 14569 H 1397.01 6.96018 3.50969 0
M  V30 14570 N 1401.24 0.0551678 1.57503 0
M  V30 14571 C 1402.2 -0.903065 2.10659 0
M  V30 14572 C 1403.2 -1.23728 1.02703 0
M  V30 14573 O 1404.39 -1.17331 1.2876 0
M  V30 14574 C 1401.52 -2.21171 2.59415 0
M  V30 14575 H 1402.72 -0.442197 2.96622 0
M  V30 14576 H 1400.27 -0.193297 1.551 0
M  V30 14577 H 1401 -2.71831 1.76858 0
M  V30 14578 H 1400.79 -1.98216 3.38309 0
M  V30 14579 H 1402.28 -2.89802 3.00674 0
M  V30 14580 N 1402.72 -1.56081 -0.218252 0
M  V30 14581 C 1403.96 -1.79247 -0.942157 0
M  V30 14582 C 1404.29 -0.624492 -1.84202 0
M  V30 14583 O 1403.55 0.390973 -1.91755 0
M  V30 14584 C 1403.85 -3.08199 -1.80965 0
M  V30 14585 C 1403.51 -4.38197 -1.06274 0
M  V30 14586 C 1402.17 -4.73517 -0.856432 0
M  V30 14587 C 1404.53 -5.18441 -0.535532 0
M  V30 14588 C 1401.85 -5.86595 -0.111065 0
M  V30 14589 C 1404.21 -6.32295 0.196507 0
M  V30 14590 C 1402.87 -6.66215 0.414041 0
M  V30 14591 H 1402.14 -0.655913 -0.34476 0
M  V30 14592 H 1404.79 -1.90344 -0.210095 0
M  V30 14593 H 1403.09 -2.92238 -2.60967 0
M  V30 14594 H 1404.79 -3.23325 -2.37196 0
M  V30 14595 H 1401.38 -4.10466 -1.23352 0
M  V30 14596 H 1405.56 -4.91586 -0.682386 0
M  V30 14597 H 1400.82 -6.11363 0.0676711 0
M  V30 14598 H 1404.99 -6.93701 0.612516 0
M  V30 14599 H 1402.62 -7.5368 0.993532 0
M  V30 14600 N 1404.2 0.485086 -1.49949 0
M  V30 14601 C 1405.47 1.24639 -1.50747 0
M  V30 14602 C 1405.85 2.09683 -0.244162 0
M  V30 14603 O 1405.2 2.1503 0.772949 0
M  V30 14604 C 1405.41 2.08946 -2.7954 0
M  V30 14605 C 1406.76 2.67604 -3.29656 0
M  V30 14606 O 1407.78 2.192 -2.80766 0
M  V30 14607 O 1406.64 3.55761 -4.14845 0
M  V30 14608 H 1403.74 0.564849 -0.604049 0
M  V30 14609 H 1406.28 0.498052 -1.62227 0
M  V30 14610 H 1405.05 1.46185 -3.62968 0
M  V30 14611 H 1404.68 2.90941 -2.70997 0
M  V30 14612 N 1405.67 1.39291 0.737279 0
M  V30 14613 C 1406.9 1.39844 1.53162 0
M  V30 14614 C 1407.32 -0.00568546 1.88099 0
M  V30 14615 O 1406.68 -0.992085 1.51748 0
M  V30 14616 C 1406.73 2.27577 2.79716 0
M  V30 14617 O 1405.83 1.70408 3.75546 0
M  V30 14618 H 1405.17 0.476314 0.462624 0
M  V30 14619 H 1407.7 1.83258 0.909819 0
M  V30 14620 H 1407.71 2.42009 3.28475 0
M  V30 14621 H 1406.39 3.29621 2.53619 0
M  V30 14622 H 1404.97 1.65206 3.34307 0
M  V30 14623 N 1407.15 -0.967221 1.24429 0
M  V30 14624 C 1408.4 -1.70688 1.08213 0
M  V30 14625 C 1408.72 -1.91268 -0.379693 0
M  V30 14626 O 1407.99 -1.49077 -1.27094 0
M  V30 14627 H 1406.57 -0.632489 0.39745 0
M  V30 14628 H 1409.23 -1.16356 1.56356 0
M  V30 14629 H 1408.33 -2.69119 1.58055 0
M  V30 14630 N 1408.63 -1.05812 -1.16797 0
M  V30 14631 C 1409.88 -0.767008 -1.86547 0
M  V30 14632 C 1410.19 0.708979 -1.82299 0
M  V30 14633 O 1411.4 1.11428 -2.4758 0
M  V30 14634 C 1409.85 -1.32186 -3.34746 0
M  V30 14635 C 1409.46 -2.82774 -3.4748 0
M  V30 14636 C 1411.21 -1.10808 -4.09783 0
M  V30 14637 C 1409.11 -3.31529 -4.89737 0
M  V30 14638 H 1408.04 -0.283235 -0.698781 0
M  V30 14639 H 1410.69 -1.27621 -1.31853 0
M  V30 14640 H 1409.08 -0.740453 -3.89016 0
M  V30 14641 H 1410.25 -3.46825 -3.03396 0
M  V30 14642 H 1408.56 -3.02765 -2.85871 0
M  V30 14643 H 1411.16 -1.44728 -5.14741 0
M  V30 14644 H 1411.5 -0.046167 -4.16274 0
M  V30 14645 H 1412.04 -1.65502 -3.61737 0
M  V30 14646 H 1408.78 -4.37177 -4.88422 0
M  V30 14647 H 1408.3 -2.72224 -5.34466 0
M  V30 14648 H 1409.98 -3.26572 -5.58534 0
M  V30 14649 N 1410.11 1.33347 -0.840014 0
M  V30 14650 C 1411.36 1.97007 -0.432581 0
M  V30 14651 C 1411.67 1.67278 1.01378 0
M  V30 14652 O 1412.88 2.2456 1.52595 0
M  V30 14653 C 1411.33 3.52572 -0.72258 0
M  V30 14654 C 1410.94 3.91176 -2.1837 0
M  V30 14655 C 1412.68 4.22776 -0.382153 0
M  V30 14656 C 1410.59 5.39724 -2.41768 0
M  V30 14657 H 1409.52 0.737255 -0.158024 0
M  V30 14658 H 1412.17 1.5195 -1.02876 0
M  V30 14659 H 1410.55 3.9596 -0.0560179 0
M  V30 14660 H 1411.73 3.58842 -2.89083 0
M  V30 14661 H 1410.04 3.33956 -2.48721 0
M  V30 14662 H 1412.64 5.32021 -0.534588 0
M  V30 14663 H 1412.98 4.10792 0.674967 0
M  V30 14664 H 1413.52 3.84922 -1.004 0
M  V30 14665 H 1410.25 5.56713 -3.4605 0
M  V30 14666 H 1409.77 5.73514 -1.75617 0
M  V30 14667 H 1411.45 6.06624 -2.2498 0
M  V30 14668 N 1411.59 0.596556 1.45873 0
M  V30 14669 C 1413 0.173758 1.8589 0
M  V30 14670 C 1413.35 -1.26665 1.49835 0
M  V30 14671 O 1412.47 -1.9588 0.919773 0
M  V30 14672 C 1413.07 0.308567 3.37392 0
M  V30 14673 C 1411.63 -0.0594585 3.76353 0
M  V30 14674 C 1410.77 0.638127 2.69858 0
M  V30 14675 H 1413.72 0.803928 1.36831 0
M  V30 14676 H 1413.75 -0.462294 3.77681 0
M  V30 14677 H 1413.26 1.35701 3.63603 0
M  V30 14678 H 1411.36 -1.1075 3.5576 0
M  V30 14679 H 1411.47 0.326506 4.77986 0
M  V30 14680 H 1409.84 0.0769147 2.54584 0
M  V30 14681 H 1410.62 1.68849 2.98906 0
M  V30 14682 N 1413.06 -1.53996 0.335095 0
M  V30 14683 C 1414 -2.21007 -0.568424 0
M  V30 14684 C 1414.97 -1.19112 -1.10685 0
M  V30 14685 O 1416.16 -1.47898 -1.1687 0
M  V30 14686 C 1413.29 -2.88086 -1.78113 0
M  V30 14687 C 1412.33 -4.03798 -1.37292 0
M  V30 14688 S 1413.16 -5.34005 -0.399865 0
M  V30 14689 C 1414.32 -6.04582 -1.6196 0
M  V30 14690 H 1414.55 -2.973 0.000770174 0
M  V30 14691 H 1412.09 -1.53939 0.119169 0
M  V30 14692 H 1414.04 -3.27353 -2.4769 0
M  V30 14693 H 1412.71 -2.11575 -2.32153 0
M  V30 14694 H 1411.9 -4.49637 -2.27689 0
M  V30 14695 H 1411.5 -3.66264 -0.75673 0
M  V30 14696 H 1413.79 -6.27462 -2.55534 0
M  V30 14697 H 1414.74 -6.97804 -1.20315 0
M  V30 14698 H 1415.14 -5.34634 -1.81181 0
M  V30 14699 N 1414.54 -0.0635198 -1.57472 0
M  V30 14700 C 1415.45 0.921531 -2.15743 0
M  V30 14701 C 1416.47 1.33294 -1.11842 0
M  V30 14702 O 1417.64 1.40733 -1.4407 0
M  V30 14703 C 1414.71 2.17378 -2.70088 0
M  V30 14704 C 1413.77 1.81956 -3.88832 0
M  V30 14705 C 1413 3.01211 -4.40577 0
M  V30 14706 O 1413.23 4.14971 -3.9135 0
M  V30 14707 O 1412.16 2.81507 -5.32012 0
M  V30 14708 H 1415.99 0.455899 -3.00259 0
M  V30 14709 H 1413.57 0.159085 -1.48551 0
M  V30 14710 H 1415.45 2.90826 -3.04956 0
M  V30 14711 H 1414.13 2.63055 -1.88637 0
M  V30 14712 H 1413.03 1.05786 -3.58832 0
M  V30 14713 H 1414.37 1.41069 -4.71551 0
M  V30 14714 N 1416.02 1.56195 0.209972 0
M  V30 14715 C 1417.27 1.79745 0.932638 0
M  V30 14716 C 1417.59 0.634252 1.83868 0
M  V30 14717 O 1416.85 -0.380798 1.91959 0
M  V30 14718 C 1417.15 3.09154 1.79328 0
M  V30 14719 C 1416.81 4.38754 1.03949 0
M  V30 14720 C 1415.48 4.73965 0.831308 0
M  V30 14721 C 1417.83 5.18718 0.508031 0
M  V30 14722 C 1415.16 5.86646 0.0799547 0
M  V30 14723 C 1417.51 6.32182 -0.230037 0
M  V30 14724 C 1416.17 6.65986 -0.449366 0
M  V30 14725 H 1415.44 0.657732 0.341276 0
M  V30 14726 H 1418.09 1.90453 0.199998 0
M  V30 14727 H 1416.39 2.93618 2.59414 0
M  V30 14728 H 1418.09 3.24578 2.35478 0
M  V30 14729 H 1414.68 4.11114 1.21174 0
M  V30 14730 H 1418.87 4.91941 0.656306 0
M  V30 14731 H 1414.12 6.11318 -0.100092 0
M  V30 14732 H 1418.3 6.93367 -0.649296 0
M  V30 14733 H 1415.92 7.53142 -1.03349 0
M  V30 14734 N 1417.5 -0.477127 1.50204 0
M  V30 14735 C 1418.74 -1.23147 1.6113 0
M  V30 14736 C 1419.08 -1.91743 0.307909 0
M  V30 14737 O 1418.35 -1.81841 -0.690223 0
M  V30 14738 C 1418.63 -2.27985 2.78738 0
M  V30 14739 C 1418.49 -1.63733 4.18941 0
M  V30 14740 C 1419.81 -3.29349 2.9192 0
M  V30 14741 H 1416.93 -0.446358 0.586459 0
M  V30 14742 H 1419.57 -0.52612 1.8257 0
M  V30 14743 H 1417.72 -2.88143 2.60588 0
M  V30 14744 H 1419.39 -1.07218 4.48667 0
M  V30 14745 H 1417.63 -0.940634 4.23479 0
M  V30 14746 H 1418.3 -2.39888 4.9715 0
M  V30 14747 H 1420.78 -2.79208 3.08516 0
M  V30 14748 H 1419.66 -4.0004 3.75845 0
M  V30 14749 H 1419.92 -3.93111 2.02278 0
M  V30 14750 N 1418.98 -1.3968 -0.729882 0
M  V30 14751 C 1419.92 -1.3896 -1.86528 0
M  V30 14752 C 1420.92 -0.272027 -1.67202 0
M  V30 14753 O 1422.12 -0.442328 -1.74481 0
M  V30 14754 H 1418.5 -0.434045 -0.614092 0
M  V30 14755 H 1420.47 -2.34721 -1.84252 0
M  V30 14756 C 1419.22 -1.255 -3.24261 0
M  V30 14757 H 1418.54 -2.10767 -3.39731 0
M  V30 14758 H 1419.98 -1.29054 -4.03882 0
M  V30 14759 C 1418.44 0.0361127 -3.36881 0
M  V30 14760 O 1418.97 1.0044 -3.8894 0
M  V30 14761 N 1417.18 0.100874 -2.90425 0
M  V30 14762 H 1416.72 -0.687797 -2.48248 0
M  V30 14763 H 1416.68 0.964251 -2.99248 0
M  V30 14764 N 1420.45 0.960609 -1.2494 0
M  V30 14765 C 1421.4 2.05634 -1.04801 0
M  V30 14766 C 1422.37 1.66049 0.0409611 0
M  V30 14767 O 1423.56 1.90453 -0.115053 0
M  V30 14768 C 1420.7 3.38604 -0.666444 0
M  V30 14769 C 1419.81 3.91341 -1.82964 0
M  V30 14770 C 1418.94 5.1261 -1.39299 0
M  V30 14771 C 1417.98 5.57562 -2.52569 0
M  V30 14772 N 1417.12 6.70046 -2.09722 0
M  V30 14773 H 1421.96 2.22194 -1.9858 0
M  V30 14774 H 1419.5 1.08892 -0.988981 0
M  V30 14775 H 1421.46 4.15017 -0.426205 0
M  V30 14776 H 1420.09 3.21948 0.23435 0
M  V30 14777 H 1419.14 3.11502 -2.18335 0
M  V30 14778 H 1420.45 4.20656 -2.68049 0
M  V30 14779 H 1419.6 5.96421 -1.11205 0
M  V30 14780 H 1418.34 4.84997 -0.512779 0
M  V30 14781 H 1417.35 4.72319 -2.81415 0
M  V30 14782 H 1418.57 5.87186 -3.41159 0
M  V30 14783 H 1416.52 6.44153 -1.24109 0
M  V30 14784 H 1416.44 6.98846 -2.88357 0
M  V30 14785 H 1417.7 7.57281 -1.84787 0
M  V30 14786 N 1421.93 1.0643 1.16234 0
M  V30 14787 C 1422.87 0.620534 2.19601 0
M  V30 14788 C 1423.84 -0.35739 1.58624 0
M  V30 14789 O 1425.03 -0.266037 1.86613 0
M  V30 14790 C 1422.15 -0.0901061 3.3858 0
M  V30 14791 C 1421.2 0.844789 4.1805 0
M  V30 14792 S 1422.03 2.34077 4.81631 0
M  V30 14793 C 1423.19 1.64167 6.03987 0
M  V30 14794 H 1423.42 1.49626 2.56903 0
M  V30 14795 H 1420.96 0.877398 1.27048 0
M  V30 14796 H 1422.91 -0.493891 4.07518 0
M  V30 14797 H 1421.57 -0.942042 2.9964 0
M  V30 14798 H 1420.77 0.294135 5.03141 0
M  V30 14799 H 1420.37 1.18852 3.54613 0
M  V30 14800 H 1422.66 0.948043 6.70834 0
M  V30 14801 H 1423.6 2.47054 6.63604 0
M  V30 14802 H 1424.01 1.12366 5.53203 0
M  V30 14803 N 1423.41 -1.329 0.847073 0
M  V30 14804 C 1424.36 -2.29044 0.284199 0
M  V30 14805 C 1425.33 -1.54706 -0.604591 0
M  V30 14806 O 1426.51 -1.82966 -0.541116 0
M  V30 14807 C 1423.65 -3.4104 -0.527822 0
M  V30 14808 C 1422.77 -4.30273 0.385907 0
M  V30 14809 C 1421.9 -5.29391 -0.438009 0
M  V30 14810 C 1420.94 -6.10265 0.473596 0
M  V30 14811 N 1420.08 -7.01403 -0.312684 0
M  V30 14812 H 1424.92 -2.76582 1.10935 0
M  V30 14813 H 1422.45 -1.36085 0.558508 0
M  V30 14814 H 1424.41 -4.04686 -1.01417 0
M  V30 14815 H 1423.04 -2.94673 -1.31787 0
M  V30 14816 H 1422.09 -3.67275 0.99061 0
M  V30 14817 H 1423.41 -4.86837 1.08585 0
M  V30 14818 H 1422.56 -5.98604 -0.987842 0
M  V30 14819 H 1421.3 -4.73424 -1.17135 0
M  V30 14820 H 1420.3 -5.39963 1.03537 0
M  V30 14821 H 1421.53 -6.68316 1.20543 0
M  V30 14822 H 1419.47 -6.47875 -1.02926 0
M  V30 14823 H 1419.39 -7.55286 0.328376 0
M  V30 14824 H 1420.66 -7.74912 -0.844489 0
M  V30 14825 N 1424.89 -0.604284 -1.45555 0
M  V30 14826 C 1425.84 0.116491 -2.30506 0
M  V30 14827 C 1426.81 0.863214 -1.41908 0
M  V30 14828 O 1427.99 0.849606 -1.7084 0
M  V30 14829 C 1425.13 1.11009 -3.26758 0
M  V30 14830 C 1424.24 0.36458 -4.30459 0
M  V30 14831 C 1423.38 1.34761 -5.13822 0
M  V30 14832 C 1422.42 0.589724 -6.09253 0
M  V30 14833 N 1421.55 1.52187 -6.85408 0
M  V30 14834 H 1426.39 -0.61394 -2.91607 0
M  V30 14835 H 1423.93 -0.314561 -1.43697 0
M  V30 14836 H 1425.89 1.69925 -3.81027 0
M  V30 14837 H 1424.52 1.80797 -2.67418 0
M  V30 14838 H 1423.57 -0.340026 -3.78877 0
M  V30 14839 H 1424.88 -0.226906 -4.98284 0
M  V30 14840 H 1424.04 2.00893 -5.72474 0
M  V30 14841 H 1422.78 1.97302 -4.46008 0
M  V30 14842 H 1421.78 -0.0852486 -5.49734 0
M  V30 14843 H 1423.01 -0.0306001 -6.79093 0
M  V30 14844 H 1420.95 2.13499 -6.20286 0
M  V30 14845 H 1420.87 0.983737 -7.49572 0
M  V30 14846 H 1422.14 2.17287 -7.48603 0
M  V30 14847 N 1426.37 1.53816 -0.343257 0
M  V30 14848 C 1427.28 2.28716 0.522121 0
M  V30 14849 C 1428.29 1.33815 1.11218 0
M  V30 14850 O 1429.47 1.66853 1.12793 0
M  V30 14851 C 1426.53 3.04517 1.65741 0
M  V30 14852 C 1425.59 4.15043 1.09716 0
M  V30 14853 C 1424.83 4.8722 2.17835 0
M  V30 14854 O 1425.05 4.59065 3.38549 0
M  V30 14855 O 1423.98 5.73678 1.82145 0
M  V30 14856 H 1427.81 3.03576 -0.086732 0
M  V30 14857 H 1425.4 1.49007 -0.108313 0
M  V30 14858 H 1427.28 3.51921 2.31796 0
M  V30 14859 H 1425.95 2.32514 2.25208 0
M  V30 14860 H 1424.86 3.71943 0.401152 0
M  V30 14861 H 1426.19 4.89147 0.547362 0
M  V30 14862 N 1427.84 0.0718701 1.57436 0
M  V30 14863 C 1429.09 -0.596052 1.9311 0
M  V30 14864 C 1429.41 -1.70146 0.952652 0
M  V30 14865 O 1428.68 -1.959 0.000812941 0
M  V30 14866 H 1427.26 -0.223165 0.712886 0
M  V30 14867 H 1429.93 0.129744 1.94468 0
M  V30 14868 H 1429.02 -1.02132 2.94916 0
M  V30 14869 N 1429.32 -1.56304 -0.201686 0
M  V30 14870 C 1430.27 -1.94021 -1.24999 0
M  V30 14871 C 1431.24 -0.799926 -1.45569 0
M  V30 14872 O 1432.42 -1.05752 -1.58811 0
M  V30 14873 C 1429.56 -2.27935 -2.59113 0
M  V30 14874 C 1428.68 -3.54995 -2.46176 0
M  V30 14875 C 1427.81 -3.78262 -3.72949 0
M  V30 14876 C 1426.85 -4.9877 -3.54817 0
M  V30 14877 N 1425.99 -5.18325 -4.73586 0
M  V30 14878 H 1430.83 -2.834 -0.92134 0
M  V30 14879 H 1428.37 -1.40252 -0.44359 0
M  V30 14880 H 1430.32 -2.45613 -3.37239 0
M  V30 14881 H 1428.95 -1.41705 -2.90034 0
M  V30 14882 H 1428.01 -3.45401 -1.59381 0
M  V30 14883 H 1429.32 -4.43277 -2.28708 0
M  V30 14884 H 1428.47 -3.96144 -4.59516 0
M  V30 14885 H 1427.21 -2.88299 -3.93364 0
M  V30 14886 H 1426.22 -4.80818 -2.66635 0
M  V30 14887 H 1427.44 -5.90237 -3.35854 0
M  V30 14888 H 1425.39 -4.31308 -4.94277 0
M  V30 14889 H 1425.3 -6.00774 -4.58919 0
M  V30 14890 H 1426.57 -5.40659 -5.61523 0
M  V30 14891 N 1430.8 0.469154 -1.50455 0
M  V30 14892 C 1431.73 1.57493 -1.7239 0
M  V30 14893 C 1432.71 1.60161 -0.572915 0
M  V30 14894 O 1433.9 1.76397 -0.812259 0
M  V30 14895 C 1431.03 2.95804 -1.81981 0
M  V30 14896 C 1429.98 3.08001 -2.97185 0
M  V30 14897 C 1429.31 4.4798 -2.91922 0
M  V30 14898 C 1430.61 2.85039 -4.37665 0
M  V30 14899 H 1432.3 1.39389 -2.64974 0
M  V30 14900 H 1429.85 0.669133 -1.27509 0
M  V30 14901 H 1431.8 3.73091 -1.95911 0
M  V30 14902 H 1430.52 3.15068 -0.86021 0
M  V30 14903 H 1429.18 2.33148 -2.82909 0
M  V30 14904 H 1428.83 4.64165 -1.93803 0
M  V30 14905 H 1428.53 4.57076 -3.69263 0
M  V30 14906 H 1430.05 5.27284 -3.07903 0
M  V30 14907 H 1431.47 3.52074 -4.52456 0
M  V30 14908 H 1429.87 3.05578 -5.16471 0
M  V30 14909 H 1430.94 1.8088 -4.499 0
M  V30 14910 N 1432.28 1.40065 0.722464 0
M  V30 14911 C 1433.53 1.37277 1.47776 0
M  V30 14912 C 1433.84 -0.0242852 1.95585 0
M  V30 14913 O 1435.05 -0.174769 2.70937 0
M  V30 14914 C 1433.5 2.41233 2.67085 0
M  V30 14915 C 1433.11 3.86716 2.26174 0
M  V30 14916 C 1434.85 2.47541 3.44853 0
M  V30 14917 C 1432.76 4.82284 3.42281 0
M  V30 14918 H 1431.69 0.510405 0.55498 0
M  V30 14919 H 1434.34 1.6577 0.786928 0
M  V30 14920 H 1432.72 2.0583 3.38305 0
M  V30 14921 H 1433.9 4.31227 1.6242 0
M  V30 14922 H 1432.21 3.83819 1.61468 0
M  V30 14923 H 1434.81 3.16131 4.31237 0
M  V30 14924 H 1435.15 1.50379 3.8819 0
M  V30 14925 H 1435.69 2.81901 2.80672 0
M  V30 14926 H 1432.43 5.80754 3.03982 0
M  V30 14927 H 1431.95 4.42443 4.04975 0
M  V30 14928 H 1433.62 5.0178 4.08443 0
M  V30 14929 N 1433.76 -0.95397 1.25448 0
M  V30 14930 C 1434.69 -2.05019 1.00212 0
M  V30 14931 C 1435.67 -1.62454 -0.0688563 0
M  V30 14932 O 1436.85 -1.88366 0.0709352 0
M  V30 14933 C 1433.98 -3.34762 0.514987 0
M  V30 14934 C 1433.03 -3.9629 1.57659 0
M  V30 14935 S 1433.86 -4.32181 3.16196 0
M  V30 14936 C 1435.01 -5.65041 2.6922 0
M  V30 14937 H 1435.25 -2.26111 1.93032 0
M  V30 14938 H 1432.78 -1.09369 1.08985 0
M  V30 14939 H 1434.74 -4.09794 0.24058 0
M  V30 14940 H 1433.4 -3.11635 -0.392724 0
M  V30 14941 H 1432.59 -4.89836 1.18647 0
M  V30 14942 H 1432.19 -3.27741 1.80171 0
M  V30 14943 H 1434.49 -6.43184 2.12887 0
M  V30 14944 H 1435.43 -6.08925 3.61408 0
M  V30 14945 H 1435.84 -5.24306 2.09196 0
M  V30 14946 N 1435.24 -1.07045 -1.15668 0
M  V30 14947 C 1436.48 -0.790172 -1.86013 0
M  V30 14948 C 1436.8 0.685663 -1.82548 0
M  V30 14949 O 1436.07 1.49644 -1.26426 0
M  V30 14950 H 1434.65 -0.28931 -0.688701 0
M  V30 14951 H 1437.32 -1.35354 -1.40233 0
M  V30 14952 H 1436.41 -1.1219 -2.91239 0
M  V30 14953 N 1436.71 1.32449 -0.85411 0
M  V30 14954 C 1437.96 1.96537 -0.453451 0
M  V30 14955 C 1438.28 1.68344 0.995982 0
M  V30 14956 O 1439.48 2.26166 1.50204 0
M  V30 14957 C 1437.94 3.51785 -0.759934 0
M  V30 14958 C 1437.55 3.88838 -2.22506 0
M  V30 14959 C 1439.29 4.22347 -0.426973 0
M  V30 14960 C 1437.2 5.37129 -2.47479 0
M  V30 14961 H 1436.13 0.735537 -0.165835 0
M  V30 14962 H 1438.78 1.50851 -1.04481 0
M  V30 14963 H 1437.16 3.95879 -0.0980116 0
M  V30 14964 H 1438.33 3.55756 -2.92873 0
M  V30 14965 H 1436.65 3.31299 -2.52249 0
M  V30 14966 H 1439.25 5.31424 -0.590986 0
M  V30 14967 H 1439.59 4.11485 0.631359 0
M  V30 14968 H 1440.12 3.83835 -1.04477 0
M  V30 14969 H 1436.86 5.53012 -3.51935 0
M  V30 14970 H 1436.38 5.71619 -1.8169 0
M  V30 14971 H 1438.06 6.04204 -2.31401 0
M  V30 14972 N 1438.19 0.611994 1.45232 0
M  V30 14973 C 1439.44 0.108696 2.01807 0
M  V30 14974 C 1439.76 -1.26692 1.48237 0
M  V30 14975 O 1439.03 -1.8378 0.678368 0
M  V30 14976 H 1437.61 0.0371921 0.746074 0
M  V30 14977 H 1440.27 0.794386 1.77976 0
M  V30 14978 H 1439.37 0.0618207 3.12039 0
M  V30 14979 N 1439.67 -1.53632 0.351409 0
M  V30 14980 C 1440.62 -2.22041 -0.517867 0
M  V30 14981 C 1441.6 -1.21057 -1.0599 0
M  V30 14982 O 1442.8 -1.46569 -0.992298 0
M  V30 14983 C 1439.92 -3.00259 -1.66432 0
M  V30 14984 C 1439.01 -4.08607 -1.13584 0
M  V30 14985 N 1439.4 -5.04727 -0.329217 0
M  V30 14986 C 1437.7 -4.23059 -1.412 0
M  V30 14987 C 1438.4 -5.81685 -0.0415005 0
M  V30 14988 N 1437.38 -5.39875 -0.635288 0
M  V30 14989 H 1441.18 -2.93711 0.105386 0
M  V30 14990 H 1438.69 -1.61623 0.15868 0
M  V30 14991 H 1440.69 -3.47774 -2.29911 0
M  V30 14992 H 1439.35 -2.30117 -2.29077 0
M  V30 14993 H 1440.36 -5.17891 0.0303777 0
M  V30 14994 H 1437.04 -3.64139 -2.04227 0
M  V30 14995 H 1438.43 -6.69128 0.609686 0
M  V30 14996 N 1441.15 -0.0802183 -1.57396 0
M  V30 14997 C 1442.56 0.276428 -1.57188 0
M  V30 14998 C 1442.76 1.69456 -1.09027 0
M  V30 14999 O 1441.82 2.40792 -0.75997 0
M  V30 15000 C 1443.13 0.0784079 -3.00598 0
M  V30 15001 C 1444.68 0.1473 -3.12653 0
M  V30 15002 C 1445.16 -0.0225423 -4.57994 0
M  V30 15003 N 1446.65 0.0327854 -4.63188 0
M  V30 15004 C 1447.38 -0.0740922 -5.73352 0
M  V30 15005 N 1446.88 -0.234966 -6.92401 0
M  V30 15006 N 1448.67 -0.0164241 -5.62098 0
M  V30 15007 H 1440.82 -1.00695 -1.87014 0
M  V30 15008 H 1443.08 -0.393402 -0.862519 0
M  V30 15009 H 1442.79 -0.900488 -3.39977 0
M  V30 15010 H 1442.66 0.82713 -3.6802 0
M  V30 15011 H 1445.05 1.11669 -2.73156 0
M  V30 15012 H 1445.13 -0.632666 -2.47853 0
M  V30 15013 H 1444.78 -0.988733 -4.98183 0
M  V30 15014 H 1444.71 0.776933 -5.20837 0
M  V30 15015 H 1447.2 0.15519 -3.77581 0
M  V30 15016 H 1447.51 -0.308435 -7.72184 0
M  V30 15017 H 1445.86 -0.270439 -6.94474 0
M  V30 15018 H 1449.05 0.108019 -4.67975 0
M  V30 15019 H 1449.22 -0.10317 -6.47918 0
M  V30 15020 N 1442.63 1.56409 0.193394 0
M  V30 15021 C 1443.87 1.80991 0.914875 0
M  V30 15022 C 1444.2 0.654538 1.82837 0
M  V30 15023 O 1443.48 -0.344816 1.91419 0
M  V30 15024 C 1443.76 3.15841 1.72964 0
M  V30 15025 C 1443.62 4.41873 0.840748 0
M  V30 15026 C 1444.93 3.474 2.70188 0
M  V30 15027 H 1442.05 0.658408 0.331161 0
M  V30 15028 H 1444.7 1.89125 0.182161 0
M  V30 15029 H 1442.85 3.09038 2.35431 0
M  V30 15030 H 1444.52 4.60723 0.230654 0
M  V30 15031 H 1442.76 4.33549 0.147558 0
M  V30 15032 H 1443.43 5.32728 1.44586 0
M  V30 15033 H 1445.91 3.54513 2.17852 0
M  V30 15034 H 1444.78 4.42872 3.24278 0
M  V30 15035 H 1445.04 2.7098 3.49317 0
M  V30 15036 N 1444.1 -0.461169 1.50702 0
M  V30 15037 C 1445.05 -1.5579 1.70288 0
M  V30 15038 C 1446.02 -1.5693 0.544251 0
M  V30 15039 O 1447.21 -1.74308 0.77597 0
M  V30 15040 C 1444.35 -2.93694 1.81212 0
M  V30 15041 C 1443.46 -3.02267 3.0864 0
M  V30 15042 C 1442.59 -4.31147 3.103 0
M  V30 15043 C 1441.63 -4.33498 4.32141 0
M  V30 15044 N 1440.77 -5.53864 4.31484 0
M  V30 15045 H 1445.61 -1.38393 2.63915 0
M  V30 15046 H 1443.15 -0.6727 1.30817 0
M  V30 15047 H 1445.1 -3.73679 1.85526 0
M  V30 15048 H 1443.73 -3.09703 0.91015 0
M  V30 15049 H 1442.79 -2.15093 3.1375 0
M  V30 15050 H 1444.1 -2.99864 3.98601 0
M  V30 15051 H 1443.25 -5.19487 3.13398 0
M  V30 15052 H 1441.99 -4.36172 2.18186 0
M  V30 15053 H 1441 -3.43554 4.29245 0
M  V30 15054 H 1442.22 -4.30156 5.25493 0
M  V30 15055 H 1440.17 -5.59657 3.42229 0
M  V30 15056 H 1440.08 -5.53244 5.15225 0
M  V30 15057 H 1441.35 -6.44302 4.38742 0
M  V30 15058 N 1445.58 -1.40446 -0.715026 0
M  V30 15059 C 1446.81 -1.42263 -1.50917 0
M  V30 15060 C 1447.23 -0.0242402 -1.88084 0
M  V30 15061 O 1446.59 0.967817 -1.53307 0
M  V30 15062 C 1446.64 -2.31998 -2.7606 0
M  V30 15063 O 1445.74 -1.76361 -3.72787 0
M  V30 15064 H 1445.08 -0.483614 -0.454988 0
M  V30 15065 H 1447.61 -1.84682 -0.880549 0
M  V30 15066 H 1447.62 -2.47204 -3.24583 0
M  V30 15067 H 1446.3 -3.33614 -2.48343 0
M  V30 15068 H 1444.87 -1.70504 -3.31636 0
M  V30 15069 N 1447.06 0.947303 -1.25952 0
M  V30 15070 C 1448.31 1.68721 -1.10527 0
M  V30 15071 C 1448.62 1.92403 0.352215 0
M  V30 15072 O 1449.83 2.6416 0.627036 0
M  V30 15073 C 1448.28 3.03785 -1.92983 0
M  V30 15074 C 1447.89 2.87873 -3.43268 0
M  V30 15075 C 1449.64 3.81509 -1.86149 0
M  V30 15076 C 1447.54 4.18373 -4.17993 0
M  V30 15077 H 1446.47 0.632774 -0.410016 0
M  V30 15078 H 1449.12 1.054 -1.5021 0
M  V30 15079 H 1447.51 3.68052 -1.46128 0
M  V30 15080 H 1448.68 2.32493 -3.97848 0
M  V30 15081 H 1446.99 2.23598 -3.51273 0
M  V30 15082 H 1449.59 4.78179 -2.39267 0
M  V30 15083 H 1449.93 4.07923 -0.83091 0
M  V30 15084 H 1450.47 3.24005 -2.30794 0
M  V30 15085 H 1447.21 3.97145 -5.21494 0
M  V30 15086 H 1446.73 4.7349 -3.68194 0
M  V30 15087 H 1448.41 4.86869 -4.26108 0
M  V30 15088 N 1448.54 1.07657 1.15099 0
M  V30 15089 C 1449.49 0.694043 2.22004 0
M  V30 15090 C 1450.48 -0.296607 1.66783 0
M  V30 15091 O 1451.69 -0.159989 1.79288 0
M  V30 15092 H 1448.06 0.206374 0.723128 0
M  V30 15093 H 1450.03 1.60523 2.51545 0
M  V30 15094 C 1448.78 0.111245 3.47522 0
M  V30 15095 H 1448.1 0.864677 3.90338 0
M  V30 15096 H 1449.54 -0.118705 4.23834 0
M  V30 15097 C 1448 -1.14889 3.16705 0
M  V30 15098 O 1448.53 -2.2349 3.33789 0
M  V30 15099 N 1446.74 -1.05627 2.70724 0
M  V30 15100 H 1446.29 -0.172463 2.57022 0
M  V30 15101 H 1446.24 -1.9002 2.50479 0
M  V30 15102 N 1450.02 -1.31994 0.861122 0
M  V30 15103 C 1450.96 -2.30666 0.299352 0
M  V30 15104 C 1451.96 -1.59133 -0.580779 0
M  V30 15105 O 1453.16 -1.73813 -0.467864 0
M  V30 15106 H 1449.54 -0.747932 0.0781091 0
M  V30 15107 H 1451.51 -2.7553 1.14567 0
M  V30 15108 C 1450.26 -3.44203 -0.491883 0
M  V30 15109 H 1449.58 -3.99412 0.17608 0
M  V30 15110 H 1451.02 -4.15384 -0.850434 0
M  V30 15111 C 1449.48 -2.92042 -1.67967 0
M  V30 15112 O 1450.01 -2.90073 -2.77886 0
M  V30 15113 N 1448.22 -2.48358 -1.50887 0
M  V30 15114 H 1447.76 -2.50159 -0.614683 0
M  V30 15115 H 1447.72 -2.13813 -2.30503 0
M  V30 15116 N 1451.49 -0.619688 -1.44906 0
M  V30 15117 C 1452.91 -0.203309 -1.8559 0
M  V30 15118 C 1453.26 1.24265 -1.51831 0
M  V30 15119 O 1452.38 1.94392 -0.950819 0
M  V30 15120 C 1452.98 -0.362204 -3.36858 0
M  V30 15121 C 1451.54 -0.000423575 -3.764 0
M  V30 15122 C 1450.68 -0.680979 -2.68808 0
M  V30 15123 H 1453.63 -0.825595 -1.35535 0
M  V30 15124 H 1453.65 0.402149 -3.78369 0
M  V30 15125 H 1453.17 -1.41468 -3.61398 0
M  V30 15126 H 1451.27 1.05077 -3.57477 0
M  V30 15127 H 1451.38 -0.402508 -4.77406 0
M  V30 15128 H 1449.74 -0.117407 -2.54429 0
M  V30 15129 H 1450.53 -1.73583 -2.96182 0
M  V30 15130 N 1452.97 1.53444 -0.359552 0
M  V30 15131 C 1454.25 1.93467 0.288106 0
M  V30 15132 C 1454.63 1.29256 1.66901 0
M  V30 15133 O 1453.98 0.449402 2.24037 0
M  V30 15134 C 1454.19 3.47297 0.344359 0
M  V30 15135 C 1455.54 4.20515 0.587585 0
M  V30 15136 O 1456.56 3.53646 0.425818 0
M  V30 15137 O 1455.42 5.39003 0.902119 0
M  V30 15138 H 1452.51 0.809033 0.171451 0
M  V30 15139 H 1455.06 1.64625 -0.411896 0
M  V30 15140 H 1453.83 3.86292 -0.624064 0
M  V30 15141 H 1453.45 3.82353 1.0905 0
M  V30 15142 N 1454.45 0.0885642 1.57351 0
M  V30 15143 C 1455.38 -0.909155 2.09307 0
M  V30 15144 C 1456.36 -1.28051 1.00209 0
M  V30 15145 O 1457.55 -1.38689 1.27662 0
M  V30 15146 C 1454.67 -2.21232 2.56465 0
M  V30 15147 C 1453.72 -1.9913 3.7716 0
M  V30 15148 S 1454.55 -1.23528 5.21058 0
M  V30 15149 C 1455.71 -2.55089 5.7156 0
M  V30 15150 H 1455.94 -0.467121 2.93607 0
M  V30 15151 H 1453.47 -0.124581 1.53897 0
M  V30 15152 H 1455.43 -2.96121 2.84293 0
M  V30 15153 H 1454.09 -2.62557 1.72403 0
M  V30 15154 H 1453.29 -2.95614 4.08201 0
M  V30 15155 H 1452.89 -1.32372 3.49791 0
M  V30 15156 H 1455.18 -3.51098 5.79428 0
M  V30 15157 H 1456.12 -2.28634 6.70173 0
M  V30 15158 H 1456.53 -2.63062 4.99458 0
M  V30 15159 N 1455.93 -1.56509 -0.185096 0
M  V30 15160 C 1457.34 -1.50318 -0.536334 0
M  V30 15161 C 1457.54 -0.790387 -1.85351 0
M  V30 15162 O 1456.6 -0.345039 -2.50131 0
M  V30 15163 C 1457.91 -2.95017 -0.581825 0
M  V30 15164 C 1459.46 -3.05746 -0.669974 0
M  V30 15165 C 1459.94 -4.51876 -0.746485 0
M  V30 15166 N 1461.43 -4.56067 -0.809746 0
M  V30 15167 C 1462.16 -5.66462 -0.889286 0
M  V30 15168 N 1461.66 -6.86523 -0.930509 0
M  V30 15169 N 1463.45 -5.54399 -0.927246 0
M  V30 15170 H 1455.6 -2.01262 0.678778 0
M  V30 15171 H 1457.87 -0.916313 0.243054 0
M  V30 15172 H 1457.57 -3.50268 0.317089 0
M  V30 15173 H 1457.45 -3.48916 -1.43309 0
M  V30 15174 H 1459.83 -2.50538 -1.55932 0
M  V30 15175 H 1459.91 -2.54955 0.207689 0
M  V30 15176 H 1459.56 -5.07711 0.138546 0
M  V30 15177 H 1459.49 -5.00408 -1.6401 0
M  V30 15178 H 1461.98 -3.6962 -0.786729 0
M  V30 15179 H 1462.29 -7.66407 -0.991992 0
M  V30 15180 H 1460.64 -6.89161 -0.899017 0
M  V30 15181 H 1463.83 -4.59524 -0.891947 0
M  V30 15182 H 1464 -6.40458 -0.985773 0
M  V30 15183 N 1457.41 0.45317 -1.50944 0
M  V30 15184 C 1458.65 1.20568 -1.63068 0
M  V30 15185 C 1458.99 1.91229 -0.338375 0
M  V30 15186 O 1458.26 1.82916 0.661207 0
M  V30 15187 C 1458.54 2.23522 -2.8233 0
M  V30 15188 C 1458.4 1.57047 -4.21493 0
M  V30 15189 C 1459.72 3.24663 -2.97123 0
M  V30 15190 H 1456.83 0.436971 -0.593486 0
M  V30 15191 H 1459.48 0.497008 -1.83384 0
M  V30 15192 H 1457.63 2.83961 -2.65139 0
M  V30 15193 H 1459.3 1.00067 -4.50316 0
M  V30 15194 H 1457.54 0.873143 -4.24922 0
M  V30 15195 H 1458.21 2.31949 -5.00903 0
M  V30 15196 H 1460.69 2.74264 -3.12919 0
M  V30 15197 H 1459.56 3.9401 -3.82161 0
M  V30 15198 H 1459.83 3.89843 -2.08506 0
M  V30 15199 N 1458.88 1.40823 0.707568 0
M  V30 15200 C 1459.82 1.37646 1.83265 0
M  V30 15201 C 1460.83 0.280547 1.60365 0
M  V30 15202 O 1462.02 0.541453 1.7009 0
M  V30 15203 C 1459.12 1.12121 3.19816 0
M  V30 15204 C 1458.29 2.33522 3.69846 0
M  V30 15205 C 1457.35 2.04035 4.85032 0
M  V30 15206 O 1456.38 2.76971 4.97268 0
M  V30 15207 N 1457.58 1.02322 5.71411 0
M  V30 15208 H 1460.34 2.34612 1.86486 0
M  V30 15209 H 1457.9 1.35281 0.889424 0
M  V30 15210 H 1459.9 0.903663 3.94482 0
M  V30 15211 H 1458.47 0.237941 3.11693 0
M  V30 15212 H 1457.69 2.71055 2.86221 0
M  V30 15213 H 1458.97 3.14436 4.00009 0
M  V30 15214 H 1458.37 0.419311 5.64144 0
M  V30 15215 H 1456.93 0.865571 6.46027 0
M  V30 15216 N 1460.36 -0.94061 1.26453 0
M  V30 15217 C 1461.61 -1.68132 1.1142 0
M  V30 15218 C 1461.92 -1.92587 -0.342006 0
M  V30 15219 O 1463.13 -2.64489 -0.613018 0
M  V30 15220 C 1461.59 -3.02758 1.94591 0
M  V30 15221 C 1461.19 -2.86049 3.4479 0
M  V30 15222 C 1462.94 -3.80516 1.88169 0
M  V30 15223 C 1460.85 -4.1615 4.20206 0
M  V30 15224 H 1459.78 -0.630591 0.413366 0
M  V30 15225 H 1462.43 -1.04602 1.50767 0
M  V30 15226 H 1460.81 -3.67272 1.48078 0
M  V30 15227 H 1461.98 -2.3038 3.99076 0
M  V30 15228 H 1460.3 -2.21732 3.52454 0
M  V30 15229 H 1462.89 -4.76904 2.41799 0
M  V30 15230 H 1463.24 -4.07477 0.852531 0
M  V30 15231 H 1463.77 -3.22776 2.32509 0
M  V30 15232 H 1460.51 -3.94373 5.23593 0
M  V30 15233 H 1460.03 -4.71531 3.707 0
M  V30 15234 H 1461.71 -4.84602 4.28684 0
M  V30 15235 N 1461.84 -1.08266 -1.14527 0
M  V30 15236 C 1462.77 -0.732968 -2.21698 0
M  V30 15237 C 1463.75 0.283917 -1.67714 0
M  V30 15238 O 1464.94 0.154607 -1.93584 0
M  V30 15239 C 1462.07 -0.139935 -3.47018 0
M  V30 15240 C 1461.02 -1.08501 -4.14019 0
M  V30 15241 C 1460.35 -0.354263 -5.33525 0
M  V30 15242 C 1461.65 -2.42254 -4.62721 0
M  V30 15243 H 1463.34 -1.629 -2.51205 0
M  V30 15244 H 1460.89 -0.784696 -1.20742 0
M  V30 15245 H 1462.84 0.1167 -4.21238 0
M  V30 15246 H 1461.56 0.791228 -3.16871 0
M  V30 15247 H 1460.22 -1.32672 -3.41751 0
M  V30 15248 H 1459.87 0.580658 -4.99637 0
M  V30 15249 H 1459.57 -0.984287 -5.79297 0
M  V30 15250 H 1461.09 -0.105648 -6.10509 0
M  V30 15251 H 1462.51 -2.22357 -5.28422 0
M  V30 15252 H 1460.91 -3.00935 -5.1919 0
M  V30 15253 H 1461.98 -3.03884 -3.77866 0
M  V30 15254 N 1463.32 1.31536 -0.86811 0
M  V30 15255 C 1464.27 2.28562 -0.320602 0
M  V30 15256 C 1465.24 1.55648 0.579902 0
M  V30 15257 O 1466.42 1.83804 0.51194 0
M  V30 15258 C 1463.56 3.41836 0.473499 0
M  V30 15259 C 1462.67 4.29604 -0.454311 0
M  V30 15260 C 1461.81 5.30021 0.353733 0
M  V30 15261 C 1460.85 6.09434 -0.570624 0
M  V30 15262 N 1459.99 7.01812 0.201058 0
M  V30 15263 H 1464.83 2.74782 -1.15322 0
M  V30 15264 H 1462.36 1.35179 -0.580088 0
M  V30 15265 H 1464.32 4.06248 0.949662 0
M  V30 15266 H 1462.95 2.96732 1.27083 0
M  V30 15267 H 1462 3.65653 -1.04892 0
M  V30 15268 H 1463.31 4.85048 -1.16316 0
M  V30 15269 H 1462.47 6.001 0.892484 0
M  V30 15270 H 1461.21 4.75228 1.09589 0
M  V30 15271 H 1460.21 5.38247 -1.12115 0
M  V30 15272 H 1461.44 6.66314 -1.3116 0
M  V30 15273 H 1459.38 6.49431 0.926058 0
M  V30 15274 H 1459.3 7.54668 -0.448494 0
M  V30 15275 H 1460.57 7.76157 0.7211 0
M  V30 15276 N 1464.8 0.627364 1.44575 0
M  V30 15277 C 1466.07 0.0614392 1.95503 0
M  V30 15278 C 1466.45 -1.41182 1.56942 0
M  V30 15279 O 1465.8 -2.12435 0.841634 0
M  V30 15280 C 1466.01 0.280349 3.47872 0
M  V30 15281 C 1467.36 0.171559 4.24253 0
M  V30 15282 O 1468.38 0.211515 3.55571 0
M  V30 15283 O 1467.24 0.0733152 5.46451 0
M  V30 15284 H 1464.34 -0.0244626 0.826638 0
M  V30 15285 H 1466.88 0.698805 1.54644 0
M  V30 15286 H 1465.66 1.30278 3.68976 0
M  V30 15287 H 1465.28 -0.391336 3.95669 0
M  V30 15288 N 1466.28 -1.53251 0.367684 0
M  V30 15289 C 1467.51 -2.05407 -0.221725 0
M  V30 15290 C 1467.91 -1.24081 -1.4283 0
M  V30 15291 O 1467.26 -0.275005 -1.8163 0
M  V30 15292 C 1467.32 -3.53063 -0.677281 0
M  V30 15293 C 1466.98 -4.55131 0.412894 0
M  V30 15294 C 1467.98 -5.04315 1.26343 0
M  V30 15295 C 1465.66 -4.99013 0.573739 0
M  V30 15296 C 1467.66 -5.95984 2.26014 0
M  V30 15297 C 1465.35 -5.90487 1.57381 0
M  V30 15298 C 1466.34 -6.38863 2.41544 0
M  V30 15299 O 1466.03 -7.28533 3.39845 0
M  V30 15300 H 1465.76 -0.674679 -0.0422413 0
M  V30 15301 H 1468.32 -1.98577 0.52501 0
M  V30 15302 H 1466.55 -3.57437 -1.47565 0
M  V30 15303 H 1468.24 -3.88066 -1.18993 0
M  V30 15304 H 1469 -4.7116 1.15037 0
M  V30 15305 H 1464.88 -4.60944 -0.0715806 0
M  V30 15306 H 1468.43 -6.33666 2.91742 0
M  V30 15307 H 1464.32 -6.23056 1.68734 0
M  V30 15308 H 1465.09 -7.46536 3.35598 0
M  V30 15309 N 1467.75 -0.0969077 -1.57302 0
M  V30 15310 C 1469 0.567212 -1.94706 0
M  V30 15311 C 1469.33 1.67721 -0.978937 0
M  V30 15312 O 1468.61 1.94496 -0.0123016 0
M  V30 15313 C 1468.89 1.12069 -3.42217 0
M  V30 15314 C 1468.74 0.015615 -4.49797 0
M  V30 15315 C 1470.06 2.0185 -3.91081 0
M  V30 15316 H 1467.18 0.204716 -0.707997 0
M  V30 15317 H 1469.82 -0.167984 -1.89256 0
M  V30 15318 H 1467.97 1.74723 -3.46993 0
M  V30 15319 H 1469.65 -0.61871 -4.57132 0
M  V30 15320 H 1467.89 -0.650529 -4.28895 0
M  V30 15321 H 1468.56 0.443724 -5.50214 0
M  V30 15322 H 1471.04 1.49098 -3.8847 0
M  V30 15323 H 1469.91 2.37502 -4.94858 0
M  V30 15324 H 1470.17 2.93659 -3.3048 0
M  V30 15325 N 1469.23 1.56605 0.176793 0
M  V30 15326 C 1470.65 1.50601 0.528354 0
M  V30 15327 C 1470.85 0.800205 1.8493 0
M  V30 15328 O 1469.9 0.358299 2.49945 0
M  V30 15329 C 1471.22 2.95322 0.566172 0
M  V30 15330 C 1472.76 3.06097 0.653751 0
M  V30 15331 C 1473.24 4.52265 0.722511 0
M  V30 15332 N 1474.73 4.5649 0.785548 0
M  V30 15333 C 1475.47 5.66926 0.859232 0
M  V30 15334 N 1474.96 6.87006 0.894088 0
M  V30 15335 N 1476.75 5.54883 0.897832 0
M  V30 15336 H 1468.91 2.00899 -0.689442 0
M  V30 15337 H 1471.17 0.915011 -0.24791 0
M  V30 15338 H 1470.87 3.50095 -0.33566 0
M  V30 15339 H 1470.75 3.49671 1.41456 0
M  V30 15340 H 1473.14 2.51361 1.54601 0
M  V30 15341 H 1473.22 2.54842 -0.221207 0
M  V30 15342 H 1472.86 5.0763 -0.165469 0
M  V30 15343 H 1472.79 5.01271 1.61353 0
M  V30 15344 H 1475.28 3.70032 0.767117 0
M  V30 15345 H 1475.59 7.66922 0.951333 0
M  V30 15346 H 1473.94 6.89628 0.862457 0
M  V30 15347 H 1477.13 4.5999 0.867564 0
M  V30 15348 H 1477.3 6.40972 0.951795 0
M  V30 15349 N 1470.71 -0.445159 1.51182 0
M  V30 15350 C 1471.64 -1.55788 1.68115 0
M  V30 15351 C 1472.65 -1.52793 0.561964 0
M  V30 15352 O 1473.84 -1.57711 0.836029 0
M  V30 15353 C 1470.94 -2.94702 1.67344 0
M  V30 15354 C 1470.12 -3.22286 2.9572 0
M  V30 15355 C 1469.18 -4.40884 2.87241 0
M  V30 15356 O 1468.2 -4.3992 3.61191 0
M  V30 15357 N 1469.4 -5.44013 2.02558 0
M  V30 15358 H 1472.17 -1.4167 2.64102 0
M  V30 15359 H 1469.73 -0.633984 1.48971 0
M  V30 15360 H 1471.72 -3.7205 1.5925 0
M  V30 15361 H 1470.29 -3.02457 0.789842 0
M  V30 15362 H 1469.51 -2.33309 3.17743 0
M  V30 15363 H 1470.8 -3.3754 3.80715 0
M  V30 15364 H 1470.2 -5.47629 1.4184 0
M  V30 15365 H 1468.75 -6.20245 2.0035 0
M  V30 15366 N 1472.19 -1.41197 -0.700089 0
M  V30 15367 C 1473.14 -1.39158 -1.80607 0
M  V30 15368 C 1474.12 -0.266653 -1.58675 0
M  V30 15369 O 1475.31 -0.506973 -1.69584 0
M  V30 15370 C 1472.44 -1.27176 -3.18875 0
M  V30 15371 C 1471.53 -2.44513 -3.46517 0
M  V30 15372 N 1471.92 -3.69984 -3.44885 0
M  V30 15373 C 1470.22 -2.38228 -3.77046 0
M  V30 15374 C 1470.92 -4.4778 -3.71306 0
M  V30 15375 N 1469.89 -3.77831 -3.90826 0
M  V30 15376 H 1473.7 -2.34093 -1.77701 0
M  V30 15377 H 1471.21 -1.35188 -0.899887 0
M  V30 15378 H 1473.21 -1.23797 -3.98095 0
M  V30 15379 H 1471.87 -0.332215 -3.22996 0
M  V30 15380 H 1472.88 -4.02932 -3.25371 0
M  V30 15381 H 1469.56 -1.52722 -3.88564 0
M  V30 15382 H 1470.95 -5.56695 -3.76218 0
M  V30 15383 N 1473.67 0.933891 -1.2695 0
M  V30 15384 C 1474.91 1.68091 -1.12924 0
M  V30 15385 C 1475.24 1.91747 0.326088 0
M  V30 15386 O 1474.5 1.50126 1.25541 0
M  V30 15387 C 1474.79 3.05706 -1.85145 0
M  V30 15388 C 1474.46 3.01781 -3.35021 0
M  V30 15389 C 1473.12 3.00417 -3.75903 0
M  V30 15390 C 1475.47 2.93537 -4.3068 0
M  V30 15391 C 1472.8 2.88585 -5.10818 0
M  V30 15392 C 1475.15 2.83246 -5.65645 0
M  V30 15393 C 1473.82 2.80229 -6.05828 0
M  V30 15394 H 1473.09 0.615087 -0.413217 0
M  V30 15395 H 1475.74 1.08957 -1.57482 0
M  V30 15396 H 1474.04 3.68508 -1.33077 0
M  V30 15397 H 1475.74 3.62369 -1.71726 0
M  V30 15398 H 1472.33 3.03626 -3.02505 0
M  V30 15399 H 1476.51 2.93693 -4.00073 0
M  V30 15400 H 1471.77 2.84632 -5.41105 0
M  V30 15401 H 1475.94 2.75832 -6.39445 0
M  V30 15402 H 1473.57 2.70818 -7.10325 0
M  V30 15403 N 1475.14 1.08871 1.13951 0
M  V30 15404 C 1476.55 0.841552 1.66658 0
M  V30 15405 C 1476.91 -0.630932 1.85779 0
M  V30 15406 O 1476.03 -1.48673 1.57243 0
M  V30 15407 C 1476.63 1.52109 3.02735 0
M  V30 15408 C 1475.18 1.32105 3.52456 0
M  V30 15409 C 1474.33 1.58084 2.27826 0
M  V30 15410 H 1477.28 1.24865 0.97951 0
M  V30 15411 H 1477.3 0.950978 3.68425 0
M  V30 15412 H 1476.82 2.59276 2.88786 0
M  V30 15413 H 1474.92 0.270294 3.71618 0
M  V30 15414 H 1475.03 2.05197 4.32933 0
M  V30 15415 H 1473.39 1.00264 2.34135 0
M  V30 15416 H 1474.18 2.66467 2.16449 0
M  V30 15417 N 1476.62 -1.31073 0.875073 0
M  V30 15418 C 1477.58 -2.26672 0.339481 0
M  V30 15419 C 1478.58 -1.52416 -0.512439 0
M  V30 15420 O 1479.77 -1.71217 -0.321012 0
M  V30 15421 C 1476.91 -3.36952 -0.517311 0
M  V30 15422 H 1478.1 -2.7556 1.18349 0
M  V30 15423 H 1475.65 -1.42093 0.65109 0
M  V30 15424 H 1476.39 -2.93364 -1.38231 0
M  V30 15425 H 1476.17 -3.9199 0.092773 0
M  V30 15426 H 1477.66 -4.08133 -0.884154 0
M  V30 15427 N 1478.1 -0.635022 -1.4424 0
M  V30 15428 C 1479.33 -0.14826 -2.06368 0
M  V30 15429 C 1479.74 1.17875 -1.47482 0
M  V30 15430 O 1479.1 1.72384 -0.599168 0
M  V30 15431 C 1479.15 -0.031519 -3.61486 0
M  V30 15432 O 1478.87 -1.30605 -4.18179 0
M  V30 15433 C 1480.37 0.483479 -4.40656 0
M  V30 15434 H 1477.59 -0.081472 -0.666036 0
M  V30 15435 H 1480.14 -0.870526 -1.85046 0
M  V30 15436 H 1478.29 0.641208 -3.82057 0
M  V30 15437 H 1478.71 -1.15341 -5.11661 0
M  V30 15438 H 1480.18 0.514164 -5.496 0
M  V30 15439 H 1480.66 1.51129 -4.12379 0
M  V30 15440 H 1481.26 -0.156131 -4.25013 0
M  V30 15441 N 1479.58 1.53054 -0.375806 0
M  V30 15442 C 1480.99 1.86426 0.101188 0
M  V30 15443 C 1481.34 1.29603 1.47301 0
M  V30 15444 O 1480.47 0.622059 2.07266 0
M  V30 15445 C 1481.06 3.38265 0.190389 0
M  V30 15446 C 1479.62 3.71397 0.611653 0
M  V30 15447 C 1478.77 2.76304 -0.234801 0
M  V30 15448 H 1481.72 1.47156 -0.594211 0
M  V30 15449 H 1481.74 3.66793 1.01207 0
M  V30 15450 H 1481.25 3.79592 -0.80818 0
M  V30 15451 H 1479.35 3.35632 1.61808 0
M  V30 15452 H 1479.46 4.77597 0.379168 0
M  V30 15453 H 1477.83 2.52952 0.297888 0
M  V30 15454 H 1478.61 3.20467 -1.2311 0
M  V30 15455 N 1481.06 0.105248 1.57248 0
M  V30 15456 C 1481.99 -0.846915 2.176 0
M  V30 15457 C 1482.97 -1.28706 1.11216 0
M  V30 15458 O 1484.15 -1.35213 1.39396 0
M  V30 15459 C 1481.28 -2.10228 2.76445 0
M  V30 15460 C 1480.24 -1.80041 3.8829 0
M  V30 15461 C 1479.56 -3.12491 4.33882 0
M  V30 15462 C 1480.86 -1.07943 5.11024 0
M  V30 15463 H 1482.56 -0.344052 2.97417 0
M  V30 15464 H 1480.1 -0.164045 1.43063 0
M  V30 15465 H 1482.06 -2.77284 3.17319 0
M  V30 15466 H 1480.78 -2.62815 1.93897 0
M  V30 15467 H 1479.44 -1.15379 3.4797 0
M  V30 15468 H 1479.09 -3.62985 3.48211 0
M  V30 15469 H 1478.79 -2.93072 5.09296 0
M  V30 15470 H 1480.31 -3.80688 4.77398 0
M  V30 15471 H 1481.72 -1.65127 5.49004 0
M  V30 15472 H 1480.12 -0.986674 5.91933 0
M  V30 15473 H 1481.19 -0.0638511 4.84858 0
M  V30 15474 N 1482.53 -1.56697 -0.168486 0
M  V30 15475 C 1483.46 -1.99659 -1.21073 0
M  V30 15476 C 1484.45 -0.872625 -1.46011 0
M  V30 15477 O 1485.63 -1.13891 -1.57297 0
M  V30 15478 C 1482.76 -2.35889 -2.54899 0
M  V30 15479 C 1481.71 -3.51272 -2.44524 0
M  V30 15480 C 1481.04 -3.73253 -3.82866 0
M  V30 15481 C 1482.34 -4.84631 -1.94756 0
M  V30 15482 H 1484.03 -2.86974 -0.853593 0
M  V30 15483 H 1481.58 -1.38065 -0.409165 0
M  V30 15484 H 1483.53 -2.64542 -3.28017 0
M  V30 15485 H 1482.26 -1.45486 -2.92406 0
M  V30 15486 H 1480.92 -3.22751 -1.7386 0
M  V30 15487 H 1480.56 -2.80136 -4.17772 0
M  V30 15488 H 1480.26 -4.5089 -3.76792 0
M  V30 15489 H 1481.79 -4.04309 -4.57566 0
M  V30 15490 H 1483.2 -5.12142 -2.5765 0
M  V30 15491 H 1481.6 -5.65925 -1.99623 0
M  V30 15492 H 1482.67 -4.76436 -0.902021 0
M  V30 15493 N 1484.01 0.437135 -1.51416 0
M  V30 15494 C 1485.29 1.1978 -1.54636 0
M  V30 15495 C 1485.67 2.088 -0.310747 0
M  V30 15496 O 1485.02 2.1738 0.704148 0
M  V30 15497 C 1485.23 1.99947 -2.86046 0
M  V30 15498 C 1486.58 2.56981 -3.38003 0
M  V30 15499 O 1487.6 2.10157 -2.87598 0
M  V30 15500 O 1486.46 3.42383 -4.25953 0
M  V30 15501 H 1483.55 0.545346 -0.621713 0
M  V30 15502 H 1486.1 0.446189 -1.63729 0
M  V30 15503 H 1484.87 1.34564 -3.67435 0
M  V30 15504 H 1484.49 2.82172 -2.80115 0
M  V30 15505 N 1485.49 1.41566 0.692592 0
M  V30 15506 C 1486.72 1.44236 1.47917 0
M  V30 15507 C 1487.13 0.0469112 1.89142 0
M  V30 15508 O 1486.47 -0.944788 1.57542 0
M  V30 15509 C 1486.53 2.29056 2.7708 0
M  V30 15510 C 1486.2 3.77179 2.58041 0
M  V30 15511 C 1487.19 4.69267 2.23795 0
M  V30 15512 C 1484.88 4.21253 2.73589 0
M  V30 15513 C 1486.87 6.03419 2.05338 0
M  V30 15514 C 1484.56 5.55469 2.54749 0
M  V30 15515 C 1485.56 6.46368 2.20675 0
M  V30 15516 O 1485.25 7.78107 2.02002 0
M  V30 15517 H 1484.98 0.493237 0.462269 0
M  V30 15518 H 1487.53 1.8653 0.859984 0
M  V30 15519 H 1485.76 1.8158 3.41417 0
M  V30 15520 H 1487.45 2.23392 3.38897 0
M  V30 15521 H 1488.22 4.36506 2.11395 0
M  V30 15522 H 1484.1 3.50804 2.99094 0
M  V30 15523 H 1487.64 6.74333 1.78665 0
M  V30 15524 H 1483.54 5.87809 2.66741 0
M  V30 15525 H 1484.31 7.89282 2.16741 0
M  V30 15526 N 1486.97 -0.927146 1.27443 0
M  V30 15527 C 1487.93 -2.00938 1.10257 0
M  V30 15528 C 1488.93 -1.60733 0.0463898 0
M  V30 15529 O 1490.12 -1.71752 0.291029 0
M  V30 15530 C 1487.25 -3.34047 0.680115 0
M  V30 15531 H 1488.45 -2.17615 2.06358 0
M  V30 15532 H 1486 -1.10802 1.10239 0
M  V30 15533 H 1486.73 -3.23069 -0.282259 0
M  V30 15534 H 1486.52 -3.64585 1.44291 0
M  V30 15535 H 1488.01 -4.13523 0.582126 0
M  V30 15536 N 1488.45 -1.09474 -1.13372 0
M  V30 15537 C 1489.38 -0.756441 -2.20908 0
M  V30 15538 C 1490.36 0.266113 -1.68006 0
M  V30 15539 O 1491.54 0.134067 -1.93737 0
M  V30 15540 C 1488.67 -0.176733 -3.4685 0
M  V30 15541 C 1487.63 -1.12886 -4.12845 0
M  V30 15542 C 1486.95 -0.410831 -5.33119 0
M  V30 15543 C 1488.25 -2.47148 -4.60125 0
M  V30 15544 H 1489.95 -1.65555 -2.49463 0
M  V30 15545 H 1487.49 -0.797458 -1.19902 0
M  V30 15546 H 1489.45 0.0720151 -4.21338 0
M  V30 15547 H 1488.17 0.757576 -3.17692 0
M  V30 15548 H 1486.83 -1.36289 -3.40325 0
M  V30 15549 H 1486.48 0.527632 -5.00225 0
M  V30 15550 H 1486.18 -1.04567 -5.78221 0
M  V30 15551 H 1487.7 -0.170394 -6.10362 0
M  V30 15552 H 1489.11 -2.27949 -5.26034 0
M  V30 15553 H 1487.51 -3.06425 -5.15969 0
M  V30 15554 H 1488.58 -3.07874 -3.74622 0
M  V30 15555 N 1489.92 1.30607 -0.882012 0
M  V30 15556 C 1490.83 2.31967 -0.350503 0
M  V30 15557 C 1491.85 1.6522 0.54575 0
M  V30 15558 O 1493.03 1.96544 0.439581 0
M  V30 15559 C 1490.09 3.44037 0.428924 0
M  V30 15560 C 1489.15 4.26417 -0.496727 0
M  V30 15561 C 1488.39 5.33135 0.245597 0
M  V30 15562 O 1488.61 5.51077 1.47209 0
M  V30 15563 O 1487.54 6.00551 -0.402767 0
M  V30 15564 H 1491.37 2.79374 -1.19095 0
M  V30 15565 H 1488.95 1.34723 -0.645754 0
M  V30 15566 H 1490.84 4.12314 0.870346 0
M  V30 15567 H 1489.51 2.9877 1.24573 0
M  V30 15568 H 1488.42 3.60848 -0.986899 0
M  V30 15569 H 1489.75 4.7528 -1.27945 0
M  V30 15570 N 1491.4 0.642663 1.43901 0
M  V30 15571 C 1492.65 0.152003 2.0223 0
M  V30 15572 C 1492.98 -1.22711 1.50518 0
M  V30 15573 O 1492.26 -1.817 0.693937 0
M  V30 15574 C 1492.54 0.151278 3.59782 0
M  V30 15575 C 1492.39 1.56356 4.2175 0
M  V30 15576 C 1493.71 -0.518016 4.37041 0
M  V30 15577 H 1490.83 0.0567094 0.734815 0
M  V30 15578 H 1493.47 0.821337 1.7133 0
M  V30 15579 H 1491.62 -0.418679 3.86237 0
M  V30 15580 H 1493.29 2.18329 4.06362 0
M  V30 15581 H 1491.54 2.11401 3.78803 0
M  V30 15582 H 1492.21 1.51499 5.30803 0
M  V30 15583 H 1494.68 -0.0331947 4.16087 0
M  V30 15584 H 1493.56 -0.487754 5.46729 0
M  V30 15585 H 1493.82 -1.59036 4.12504 0
M  V30 15586 N 1492.88 -1.52852 0.383918 0
M  V30 15587 C 1493.79 -2.3002 -0.461298 0
M  V30 15588 C 1494.81 -1.36717 -1.07631 0
M  V30 15589 O 1495.98 -1.69784 -1.08329 0
M  V30 15590 C 1493.05 -3.08804 -1.57609 0
M  V30 15591 C 1492.11 -4.17806 -0.986737 0
M  V30 15592 C 1491.34 -4.92825 -2.04841 0
M  V30 15593 O 1491.57 -4.67879 -3.26259 0
M  V30 15594 O 1490.5 -5.78306 -1.66871 0
M  V30 15595 H 1494.33 -3.03239 0.167189 0
M  V30 15596 H 1491.91 -1.48667 0.147781 0
M  V30 15597 H 1493.79 -3.57943 -2.22384 0
M  V30 15598 H 1492.47 -2.38404 -2.18964 0
M  V30 15599 H 1491.37 -3.72876 -0.302396 0
M  V30 15600 H 1492.71 -4.90426 -0.417481 0
M  V30 15601 N 1494.36 -0.113586 -1.5719 0
M  V30 15602 C 1495.31 0.83862 -2.15025 0
M  V30 15603 C 1496.28 1.26726 -1.07376 0
M  V30 15604 O 1497.46 1.34574 -1.35257 0
M  V30 15605 C 1494.6 2.08538 -2.74965 0
M  V30 15606 C 1493.71 1.70559 -3.96905 0
M  V30 15607 C 1492.85 2.90161 -4.44949 0
M  V30 15608 C 1491.89 2.48396 -5.59433 0
M  V30 15609 N 1491.03 3.60894 -6.02246 0
M  V30 15610 H 1495.87 0.338585 -2.9607 0
M  V30 15611 H 1493.4 0.155437 -1.46276 0
M  V30 15612 H 1495.36 2.81579 -3.07846 0
M  V30 15613 H 1493.99 2.56009 -1.96619 0
M  V30 15614 H 1493.04 0.874133 -3.7022 0
M  V30 15615 H 1494.35 1.35863 -4.7994 0
M  V30 15616 H 1493.51 3.71434 -4.7971 0
M  V30 15617 H 1492.25 3.28081 -3.60852 0
M  V30 15618 H 1491.25 1.65555 -5.24282 0
M  V30 15619 H 1492.48 2.116 -6.45292 0
M  V30 15620 H 1490.42 3.98497 -5.21091 0
M  V30 15621 H 1490.34 3.30103 -6.80124 0
M  V30 15622 H 1491.61 4.42622 -6.41643 0
M  V30 15623 N 1495.84 1.56784 0.160173 0
M  V30 15624 C 1497.09 1.81812 0.873344 0
M  V30 15625 C 1497.4 0.692686 1.82924 0
M  V30 15626 O 1498.61 0.828202 2.5856 0
M  V30 15627 C 1497.06 3.222 1.6036 0
M  V30 15628 C 1496.67 4.42642 0.690776 0
M  V30 15629 C 1498.41 3.56512 2.30433 0
M  V30 15630 C 1496.32 5.74052 1.4219 0
M  V30 15631 H 1495.25 0.678013 0.32987 0
M  V30 15632 H 1497.9 1.83066 0.126164 0
M  V30 15633 H 1496.28 3.15295 2.39593 0
M  V30 15634 H 1497.46 4.60754 -0.0653914 0
M  V30 15635 H 1495.77 4.16282 0.09913 0
M  V30 15636 H 1498.37 4.51942 2.85749 0
M  V30 15637 H 1498.71 2.8193 3.06303 0
M  V30 15638 H 1499.25 3.65019 1.58132 0
M  V30 15639 H 1495.98 6.51694 0.705318 0
M  V30 15640 H 1495.5 5.59899 2.15111 0
M  V30 15641 H 1497.18 6.16395 1.96639 0
M  V30 15642 N 1497.32 -0.429099 1.51646 0
M  V30 15643 C 1498.54 -1.20006 1.68541 0
M  V30 15644 C 1498.96 -1.84806 0.386264 0
M  V30 15645 O 1498.32 -1.7106 -0.635988 0
M  V30 15646 C 1498.37 -2.27801 2.80694 0
M  V30 15647 O 1498.09 -1.65649 4.05576 0
M  V30 15648 C 1499.59 -3.17927 3.08929 0
M  V30 15649 H 1496.81 -0.361388 0.565367 0
M  V30 15650 H 1499.35 -0.507432 1.98104 0
M  V30 15651 H 1497.51 -2.92766 2.53706 0
M  V30 15652 H 1497.92 -2.36955 4.67924 0
M  V30 15653 H 1499.4 -3.8968 3.90965 0
M  V30 15654 H 1499.87 -3.79157 2.21668 0
M  V30 15655 H 1500.48 -2.58654 3.37606 0
M  V30 15656 N 1498.79 -1.41931 -0.685074 0
M  V30 15657 C 1500.02 -1.45229 -1.47364 0
M  V30 15658 C 1500.44 -0.060595 -1.88703 0
M  V30 15659 O 1499.79 0.92244 -1.57472 0
M  V30 15660 C 1499.84 -2.37033 -2.72942 0
M  V30 15661 O 1499.57 -3.70787 -2.33342 0
M  V30 15662 C 1501.07 -2.49244 -3.66596 0
M  V30 15663 H 1498.29 -0.494291 -0.453781 0
M  V30 15664 H 1500.83 -1.86333 -0.84263 0
M  V30 15665 H 1498.99 -1.9921 -3.32256 0
M  V30 15666 H 1499.4 -4.19853 -3.14362 0
M  V30 15667 H 1500.87 -3.17624 -4.51463 0
M  V30 15668 H 1501.35 -1.52703 -4.11799 0
M  V30 15669 H 1501.96 -2.87747 -3.1318 0
M  V30 15670 N 1500.27 0.920374 -1.27933 0
M  V30 15671 C 1501.5 1.70804 -1.17647 0
M  V30 15672 C 1501.92 1.86264 0.262189 0
M  V30 15673 O 1501.28 1.36798 1.18979 0
M  V30 15674 C 1501.33 3.08142 -1.87298 0
M  V30 15675 O 1500.43 3.95279 -1.17593 0
M  V30 15676 H 1499.77 0.523267 -0.408763 0
M  V30 15677 H 1502.3 1.15127 -1.69136 0
M  V30 15678 H 1502.31 3.58414 -1.94945 0
M  V30 15679 H 1500.99 2.96208 -2.91948 0
M  V30 15680 H 1499.56 3.53716 -1.18065 0
M  V30 15681 N 1501.75 1.10074 1.1279 0
M  V30 15682 C 1502.7 0.746173 2.18405 0
M  V30 15683 C 1503.67 -0.275751 1.63795 0
M  V30 15684 O 1504.85 -0.155876 1.90162 0
M  V30 15685 C 1501.99 0.180105 3.4463 0
M  V30 15686 C 1501.1 1.25688 4.13312 0
M  V30 15687 C 1500.24 0.652852 5.27173 0
M  V30 15688 C 1499.28 1.71046 5.87716 0
M  V30 15689 N 1498.42 1.12698 6.92996 0
M  V30 15690 H 1503.26 1.65105 2.48081 0
M  V30 15691 H 1500.79 0.824768 1.21803 0
M  V30 15692 H 1502.75 -0.165948 4.1687 0
M  V30 15693 H 1501.38 -0.688014 3.15383 0
M  V30 15694 H 1500.43 1.72011 3.39288 0
M  V30 15695 H 1501.74 2.05762 4.54382 0
M  V30 15696 H 1500.9 0.25603 6.0616 0
M  V30 15697 H 1499.64 -0.17937 4.8737 0
M  V30 15698 H 1498.64 2.11676 5.07418 0
M  V30 15699 H 1499.87 2.54547 6.29589 0
M  V30 15700 H 1497.81 0.316154 6.55238 0
M  V30 15701 H 1497.73 1.86461 7.32645 0
M  V30 15702 H 1499 0.756582 7.7582 0
M  V30 15703 N 1503.23 -1.30138 0.888926 0
M  V30 15704 C 1504.17 -2.28023 0.356923 0
M  V30 15705 C 1505.14 -1.56551 -0.555066 0
M  V30 15706 O 1506.33 -1.84595 -0.482633 0
M  V30 15707 C 1503.47 -3.42546 -0.419056 0
M  V30 15708 C 1502.58 -4.28827 0.5226 0
M  V30 15709 C 1501.72 -5.30517 -0.269366 0
M  V30 15710 C 1500.76 -6.08449 0.667507 0
M  V30 15711 N 1499.89 -7.02043 -0.08938 0
M  V30 15712 H 1504.73 -2.72912 1.19678 0
M  V30 15713 H 1502.27 -1.34239 0.60152 0
M  V30 15714 H 1504.23 -4.07707 -0.884911 0
M  V30 15715 H 1502.86 -2.98716 -1.22346 0
M  V30 15716 H 1501.91 -3.63938 1.10695 0
M  V30 15717 H 1503.22 -4.83136 1.24018 0
M  V30 15718 H 1502.38 -6.01444 -0.796901 0
M  V30 15719 H 1501.12 -4.76911 -1.02014 0
M  V30 15720 H 1500.12 -5.36396 1.20664 0
M  V30 15721 H 1501.35 -6.64143 1.41744 0
M  V30 15722 H 1499.29 -6.50822 -0.822622 0
M  V30 15723 H 1499.21 -7.53859 0.568499 0
M  V30 15724 H 1500.48 -7.77206 -0.597529 0
M  V30 15725 N 1504.71 -0.650285 -1.43559 0
M  V30 15726 C 1506.12 -0.24263 -1.85117 0
M  V30 15727 C 1506.47 1.21017 -1.54432 0
M  V30 15728 O 1505.59 1.92332 -0.991839 0
M  V30 15729 C 1506.19 -0.433575 -3.36014 0
M  V30 15730 C 1504.75 -0.0802635 -3.76314 0
M  V30 15731 C 1503.89 -0.737844 -2.67303 0
M  V30 15732 H 1506.84 -0.854158 -1.33753 0
M  V30 15733 H 1506.87 0.321801 -3.79137 0
M  V30 15734 H 1506.38 -1.49102 -3.58316 0
M  V30 15735 H 1504.48 0.974703 -3.59625 0
M  V30 15736 H 1504.59 -0.503683 -4.76445 0
M  V30 15737 H 1502.96 -0.171349 -2.54123 0
M  V30 15738 H 1503.74 -1.79826 -2.92434 0
M  V30 15739 N 1506.18 1.52647 -0.392018 0
M  V30 15740 C 1507.13 2.28073 0.456674 0
M  V30 15741 C 1508.13 1.3208 1.06071 0
M  V30 15742 O 1509.33 1.49608 1.00088 0
M  V30 15743 H 1505.71 0.733443 0.166029 0
M  V30 15744 H 1507.68 2.97723 -0.200916 0
M  V30 15745 C 1506.43 3.10216 1.5704 0
M  V30 15746 H 1505.75 3.83939 1.11493 0
M  V30 15747 H 1507.19 3.66126 2.1384 0
M  V30 15748 C 1505.65 2.22698 2.52799 0
M  V30 15749 O 1506.18 1.8556 3.56273 0
M  V30 15750 N 1504.38 1.86804 2.22604 0
M  V30 15751 H 1503.93 2.17204 1.38492 0
M  V30 15752 H 1503.89 1.28538 2.86924 0
M  V30 15753 N 1507.66 0.121921 1.57128 0
M  V30 15754 C 1508.59 -0.823788 2.18486 0
M  V30 15755 C 1509.57 -1.27519 1.12574 0
M  V30 15756 O 1510.76 -1.33727 1.40822 0
M  V30 15757 C 1507.89 -2.07284 2.78659 0
M  V30 15758 C 1506.84 -1.75912 3.90178 0
M  V30 15759 C 1506.17 -3.07871 4.37172 0
M  V30 15760 C 1507.47 -1.02517 5.1214 0
M  V30 15761 H 1509.16 -0.312488 2.97765 0
M  V30 15762 H 1506.71 -0.148862 1.43228 0
M  V30 15763 H 1508.66 -2.73903 3.20242 0
M  V30 15764 H 1507.39 -2.60743 1.96673 0
M  V30 15765 H 1506.04 -1.11681 3.49174 0
M  V30 15766 H 1505.69 -3.59271 3.52041 0
M  V30 15767 H 1505.39 -2.87653 5.12376 0
M  V30 15768 H 1506.92 -3.75604 4.81409 0
M  V30 15769 H 1508.33 -1.59295 5.50725 0
M  V30 15770 H 1506.73 -0.923836 5.92946 0
M  V30 15771 H 1507.8 -0.0124219 4.84898 0
M  V30 15772 N 1509.14 -1.56867 -0.151857 0
M  V30 15773 C 1510.39 -1.82273 -0.863689 0
M  V30 15774 C 1510.7 -0.702377 -1.82554 0
M  V30 15775 O 1511.91 -0.841903 -2.58117 0
M  V30 15776 C 1510.36 -3.23046 -1.58649 0
M  V30 15777 C 1509.97 -4.43003 -0.667292 0
M  V30 15778 C 1511.72 -3.57729 -2.28539 0
M  V30 15779 C 1509.62 -5.74798 -1.39144 0
M  V30 15780 H 1508.55 -0.679753 -0.326269 0
M  V30 15781 H 1511.2 -1.8313 -0.116454 0
M  V30 15782 H 1509.59 -3.16561 -2.37918 0
M  V30 15783 H 1510.76 -4.60712 0.0898254 0
M  V30 15784 H 1509.08 -4.16329 -0.0770521 0
M  V30 15785 H 1511.67 -4.53451 -2.83348 0
M  V30 15786 H 1512.02 -2.8355 -3.04803 0
M  V30 15787 H 1512.55 -3.65853 -1.56194 0
M  V30 15788 H 1509.29 -6.52059 -0.670747 0
M  V30 15789 H 1508.81 -5.61032 -2.12139 0
M  V30 15790 H 1510.49 -6.17429 -1.93367 0
M  V30 15791 N 1510.62 0.421051 -1.51871 0
M  V30 15792 C 1511.55 1.51928 -1.77313 0
M  V30 15793 C 1512.53 1.58258 -0.623579 0
M  V30 15794 O 1513.71 1.73724 -0.867967 0
M  V30 15795 C 1510.84 2.89865 -1.913 0
M  V30 15796 C 1509.8 2.98391 -3.06834 0
M  V30 15797 C 1509.12 4.38466 -3.06026 0
M  V30 15798 C 1510.42 2.7097 -4.46511 0
M  V30 15799 H 1512.12 1.30889 -2.69274 0
M  V30 15800 H 1509.66 0.628229 -1.29573 0
M  V30 15801 H 1511.62 3.66669 -2.07682 0
M  V30 15802 H 1510.34 3.12172 -0.960011 0
M  V30 15803 H 1509 2.24029 -2.90184 0
M  V30 15804 H 1508.65 4.57764 -2.08472 0
M  V30 15805 H 1508.35 4.45097 -3.83618 0
M  V30 15806 H 1509.87 5.17221 -3.24522 0
M  V30 15807 H 1511.29 3.37501 -4.63428 0
M  V30 15808 H 1509.68 2.88992 -5.25931 0
M  V30 15809 H 1510.75 1.66476 -4.55427 0
M  V30 15810 N 1512.1 1.42293 0.677538 0
M  V30 15811 C 1513.04 1.45787 1.81243 0
M  V30 15812 C 1514.04 0.333895 1.66077 0
M  V30 15813 O 1515.24 0.50678 1.72719 0
M  V30 15814 H 1511.62 0.456538 0.597559 0
M  V30 15815 H 1513.59 2.41398 1.75413 0
M  V30 15816 C 1512.34 1.37449 3.19379 0
M  V30 15817 H 1511.66 2.23231 3.31674 0
M  V30 15818 H 1513.1 1.43955 3.98814 0
M  V30 15819 C 1511.56 0.0889433 3.36783 0
M  V30 15820 O 1512.09 -0.859357 3.924 0
M  V30 15821 N 1510.3 0.00698476 2.90599 0
M  V30 15822 H 1509.84 0.779459 2.45524 0
M  V30 15823 H 1509.8 -0.852522 3.02621 0
M  V30 15824 N 1513.57 -0.913576 1.28419 0
M  V30 15825 C 1514.82 -1.66519 1.15755 0
M  V30 15826 C 1515.15 -1.91974 -0.293166 0
M  V30 15827 O 1514.43 -1.52025 -1.21321 0
M  V30 15828 C 1514.71 -3.02299 1.95672 0
M  V30 15829 C 1514.56 -2.83996 3.48807 0
M  V30 15830 C 1515.88 -4.02838 1.77226 0
M  V30 15831 H 1513 -0.604309 0.421877 0
M  V30 15832 H 1515.64 -1.05919 1.57737 0
M  V30 15833 H 1513.79 -3.54025 1.59995 0
M  V30 15834 H 1515.47 -2.39279 3.9439 0
M  V30 15835 H 1513.71 -2.19052 3.74431 0
M  V30 15836 H 1514.38 -3.80419 3.99982 0
M  V30 15837 H 1516.86 -3.60174 2.0836 0
M  V30 15838 H 1515.73 -4.95806 2.35515 0
M  V30 15839 H 1515.99 -4.36135 0.723804 0
M  V30 15840 N 1515.05 -1.1067 -1.12204 0
M  V30 15841 C 1516.33 -0.762632 -1.8012 0
M  V30 15842 C 1516.71 0.750529 -1.97308 0
M  V30 15843 O 1516.06 1.67764 -1.55137 0
M  V30 15844 C 1516.27 -1.51651 -3.14329 0
M  V30 15845 C 1517.62 -1.69061 -3.89491 0
M  V30 15846 O 1518.64 -1.48009 -3.23994 0
M  V30 15847 O 1517.5 -2.03984 -5.07004 0
M  V30 15848 H 1514.59 -0.275417 -0.779791 0
M  V30 15849 H 1517.14 -1.20966 -1.19018 0
M  V30 15850 H 1515.91 -2.54622 -2.97125 0
M  V30 15851 H 1515.53 -1.0625 -3.83141 0
M  V30 15852 N 1516.53 1.29665 -0.895815 0
M  V30 15853 C 1517.78 1.9533 -0.518725 0
M  V30 15854 C 1518.1 1.70995 0.937322 0
M  V30 15855 O 1517.37 1.03955 1.66043 0
M  V30 15856 H 1515.95 0.722736 -0.188841 0
M  V30 15857 H 1518.61 1.57991 -1.14126 0
M  V30 15858 H 1517.71 3.04193 -0.698057 0
M  V30 15859 N 1518.01 0.657889 1.43212 0
M  V30 15860 C 1518.94 -0.0172114 2.33494 0
M  V30 15861 C 1519.92 -0.807087 1.49733 0
M  V30 15862 O 1521.1 -0.767631 1.78385 0
M  V30 15863 C 1518.23 -0.981029 3.33156 0
M  V30 15864 C 1517.19 -0.30094 4.26941 0
M  V30 15865 C 1516.51 -1.37653 5.16678 0
M  V30 15866 C 1517.81 0.809572 5.15988 0
M  V30 15867 H 1519.51 0.736749 2.90194 0
M  V30 15868 H 1517.05 0.355744 1.39537 0
M  V30 15869 H 1519.01 -1.46226 3.95216 0
M  V30 15870 H 1517.73 -1.76621 2.74723 0
M  V30 15871 H 1516.39 0.159893 3.66251 0
M  V30 15872 H 1516.04 -2.15326 4.54581 0
M  V30 15873 H 1515.74 -0.926704 5.80246 0
M  V30 15874 H 1517.26 -1.85903 5.81612 0
M  V30 15875 H 1518.68 0.410297 5.7183 0
M  V30 15876 H 1517.07 1.18415 5.88301 0
M  V30 15877 H 1518.14 1.66558 4.55397 0
M  V30 15878 N 1519.49 -1.52437 0.400108 0
M  V30 15879 C 1520.74 -2.00896 -0.179909 0
M  V30 15880 C 1521.05 -1.29046 -1.46991 0
M  V30 15881 O 1522.25 -1.68274 -2.13063 0
M  V30 15882 C 1520.71 -3.57981 -0.371169 0
M  V30 15883 C 1520.32 -4.38739 0.906213 0
M  V30 15884 C 1522.06 -4.14698 -0.906965 0
M  V30 15885 C 1519.97 -5.87447 0.682637 0
M  V30 15886 H 1518.9 -0.750649 -0.071008 0
M  V30 15887 H 1521.55 -1.75854 0.524169 0
M  V30 15888 H 1519.93 -3.79315 -1.13736 0
M  V30 15889 H 1521.11 -4.29167 1.67785 0
M  V30 15890 H 1519.42 -3.93296 1.36776 0
M  V30 15891 H 1522.02 -5.2347 -1.09012 0
M  V30 15892 H 1522.36 -3.71477 -1.87911 0
M  V30 15893 H 1522.89 -3.97297 -0.200068 0
M  V30 15894 H 1519.63 -6.35011 1.62608 0
M  V30 15895 H 1519.15 -5.99779 -0.0498716 0
M  V30 15896 H 1520.83 -6.46202 0.321331 0
M  V30 15897 N 1520.96 -0.130252 -1.57061 0
M  V30 15898 C 1522.21 0.523969 -1.9519 0
M  V30 15899 C 1522.53 1.66493 -1.01514 0
M  V30 15900 O 1521.8 1.95762 -0.0735194 0
M  V30 15901 H 1520.38 0.196553 -0.720677 0
M  V30 15902 H 1523.05 -0.20183 -1.93852 0
M  V30 15903 H 1522.14 0.911156 -2.98504 0
M  V30 15904 N 1522.44 1.56945 0.143535 0
M  V30 15905 C 1523.69 1.8381 0.856831 0
M  V30 15906 C 1524.02 0.712375 1.80662 0
M  V30 15907 O 1523.3 -0.283743 1.92419 0
M  V30 15908 C 1523.58 3.21184 1.62828 0
M  V30 15909 C 1523.43 4.44324 0.699744 0
M  V30 15910 C 1524.75 3.5582 2.58999 0
M  V30 15911 H 1521.87 0.668611 0.310046 0
M  V30 15912 H 1524.51 1.89609 0.1219 0
M  V30 15913 H 1522.66 3.16372 2.2548 0
M  V30 15914 H 1524.34 4.61224 0.0839619 0
M  V30 15915 H 1522.58 4.33799 0.0095529 0
M  V30 15916 H 1523.25 5.37058 1.27564 0
M  V30 15917 H 1525.73 3.61264 2.06464 0
M  V30 15918 H 1524.6 4.52964 3.10024 0
M  V30 15919 H 1524.86 2.81956 3.40519 0
M  V30 15920 N 1523.92 -0.412991 1.52093 0
M  V30 15921 C 1524.88 -1.48555 1.7454 0
M  V30 15922 C 1525.88 -1.48563 0.615283 0
M  V30 15923 O 1527.07 -1.50155 0.883119 0
M  V30 15924 C 1524.21 -2.87984 1.82423 0
M  V30 15925 H 1525.4 -1.29945 2.70285 0
M  V30 15926 H 1522.95 -0.643241 1.4245 0
M  V30 15927 H 1523.69 -3.11969 0.885777 0
M  V30 15928 H 1523.47 -2.89381 2.64577 0
M  V30 15929 H 1524.96 -3.65745 2.01545 0
M  V30 15930 N 1525.4 -1.4265 -0.669982 0
M  V30 15931 C 1526.65 -1.43376 -1.43002 0
M  V30 15932 C 1526.97 -0.0519386 -1.94431 0
M  V30 15933 O 1526.23 0.940456 -1.71621 0
M  V30 15934 C 1526.53 -2.40913 -2.63999 0
M  V30 15935 C 1526.19 -3.87183 -2.31085 0
M  V30 15936 C 1524.86 -4.27024 -2.21819 0
M  V30 15937 C 1527.21 -4.79428 -2.04447 0
M  V30 15938 C 1524.54 -5.57084 -1.84049 0
M  V30 15939 C 1526.89 -6.09835 -1.68179 0
M  V30 15940 C 1525.55 -6.4867 -1.57428 0
M  V30 15941 H 1524.82 -0.524651 -0.52328 0
M  V30 15942 H 1527.47 -1.75622 -0.763494 0
M  V30 15943 H 1525.77 -2.02012 -3.35706 0
M  V30 15944 H 1527.47 -2.38737 -3.22189 0
M  V30 15945 H 1524.06 -3.55642 -2.392 0
M  V30 15946 H 1528.25 -4.49431 -2.10535 0
M  V30 15947 H 1523.5 -5.86029 -1.74298 0
M  V30 15948 H 1527.68 -6.80796 -1.46594 0
M  V30 15949 H 1525.3 -7.49358 -1.2793 0
M  V30 15950 N 1526.88 0.906753 -1.28902 0
M  V30 15951 C 1528.12 1.65903 -1.16636 0
M  V30 15952 C 1528.46 1.92127 0.282981 0
M  V30 15953 O 1527.73 1.52666 1.20513 0
M  V30 15954 C 1528.01 3.01257 -1.97272 0
M  V30 15955 C 1527.87 2.82143 -3.50308 0
M  V30 15956 C 1529.19 4.01893 -1.7936 0
M  V30 15957 H 1526.31 0.602063 -0.425076 0
M  V30 15958 H 1528.95 1.05081 -1.58297 0
M  V30 15959 H 1527.1 3.53172 -1.61871 0
M  V30 15960 H 1528.77 2.37184 -3.95653 0
M  V30 15961 H 1527.01 2.17063 -3.75588 0
M  V30 15962 H 1527.68 3.78293 -4.01993 0
M  V30 15963 H 1530.16 3.59064 -2.10267 0
M  V30 15964 H 1529.04 4.9455 -2.38141 0
M  V30 15965 H 1529.3 4.35745 -0.746923 0
M  V30 15966 N 1528.36 1.11264 1.11616 0
M  V30 15967 C 1529.63 0.772174 1.79713 0
M  V30 15968 C 1530.01 -0.740055 1.97703 0
M  V30 15969 O 1529.36 -1.66939 1.56024 0
M  V30 15970 C 1529.57 1.53316 3.13521 0
M  V30 15971 C 1530.92 1.71124 3.88589 0
M  V30 15972 O 1531.94 1.49725 3.23204 0
M  V30 15973 O 1530.8 2.0667 5.05915 0
M  V30 15974 H 1527.9 0.279548 0.77832 0
M  V30 15975 H 1530.44 1.21596 1.18375 0
M  V30 15976 H 1529.21 2.56194 2.95771 0
M  V30 15977 H 1528.84 1.08281 3.82572 0
M  V30 15978 N 1529.83 -1.29188 0.902679 0
M  V30 15979 C 1530.77 -2.25842 0.327193 0
M  V30 15980 C 1531.74 -1.52567 -0.562321 0
M  V30 15981 O 1532.93 -1.81513 -0.508462 0
M  V30 15982 C 1530.06 -3.34475 -0.533338 0
M  V30 15983 C 1529.1 -4.25518 0.289268 0
M  V30 15984 S 1529.93 -5.08168 1.68896 0
M  V30 15985 C 1531.09 -6.20299 0.835428 0
M  V30 15986 H 1531.32 -2.74307 1.14644 0
M  V30 15987 H 1528.86 -1.37456 0.703212 0
M  V30 15988 H 1530.81 -3.97522 -1.02404 0
M  V30 15989 H 1529.48 -2.84699 -1.32685 0
M  V30 15990 H 1528.67 -5.02653 -0.368218 0
M  V30 15991 H 1528.27 -3.67136 0.71322 0
M  V30 15992 H 1530.56 -6.77473 0.0601329 0
M  V30 15993 H 1531.51 -6.90271 1.57896 0
M  V30 15994 H 1531.91 -5.63162 0.388497 0
M  V30 15995 N 1531.31 -0.665475 -1.42861 0
M  V30 15996 C 1532.24 0.00482845 -2.335 0
M  V30 15997 C 1533.22 0.799135 -1.50159 0
M  V30 15998 O 1534.41 0.75816 -1.78789 0
M  V30 15999 C 1531.54 0.963347 -3.33672 0
M  V30 16000 C 1530.49 0.278294 -4.27094 0
M  V30 16001 C 1529.82 1.34911 -5.174 0
M  V30 16002 C 1531.12 -0.836925 -5.15551 0
M  V30 16003 H 1532.81 -0.752129 -2.89799 0
M  V30 16004 H 1530.36 -0.363139 -1.39346 0
M  V30 16005 H 1532.31 1.44128 -3.95986 0
M  V30 16006 H 1531.03 1.75161 -2.75656 0
M  V30 16007 H 1529.69 -0.179314 -3.66161 0
M  V30 16008 H 1529.34 2.12912 -4.55716 0
M  V30 16009 H 1529.04 0.895919 -5.8073 0
M  V30 16010 H 1530.57 1.82816 -5.8259 0
M  V30 16011 H 1531.98 -0.440617 -5.71604 0
M  V30 16012 H 1530.38 -1.21533 -5.87665 0
M  V30 16013 H 1531.45 -1.6897 -4.54507 0
M  V30 16014 N 1532.79 1.52222 -0.408187 0
M  V30 16015 C 1534.21 1.59491 -0.0590201 0
M  V30 16016 C 1534.41 1.42109 1.42854 0
M  V30 16017 O 1533.46 1.24757 2.19527 0
M  V30 16018 C 1534.77 2.9557 -0.553093 0
M  V30 16019 C 1536.32 3.08801 -0.510986 0
M  V30 16020 C 1536.8 4.47358 -0.981554 0
M  V30 16021 N 1538.29 4.53596 -0.938335 0
M  V30 16022 C 1539.02 5.59076 -1.27364 0
M  V30 16023 N 1538.52 6.72113 -1.68035 0
M  V30 16024 N 1540.31 5.49279 -1.19367 0
M  V30 16025 H 1532.46 1.61768 -1.37641 0
M  V30 16026 H 1534.73 0.760959 -0.565372 0
M  V30 16027 H 1534.43 3.13566 -1.59276 0
M  V30 16028 H 1534.31 3.77181 0.0377629 0
M  V30 16029 H 1536.69 2.90489 0.519637 0
M  V30 16030 H 1536.77 2.29098 -1.13788 0
M  V30 16031 H 1536.42 4.66413 -2.0105 0
M  V30 16032 H 1536.35 5.25556 -0.331478 0
M  V30 16033 H 1538.84 3.72453 -0.639297 0
M  V30 16034 H 1539.15 7.48586 -1.91934 0
M  V30 16035 H 1537.5 6.73396 -1.71938 0
M  V30 16036 H 1540.69 4.59853 -0.8748 0
M  V30 16037 H 1540.86 6.31378 -1.45829 0
M  V30 16038 N 1534.27 0.138579 1.5699 0
M  V30 16039 C 1535.22 -0.821469 2.17611 0
M  V30 16040 C 1536.21 -1.26137 1.13074 0
M  V30 16041 O 1537.42 -1.23084 1.31341 0
M  V30 16042 H 1533.79 -0.283086 0.696682 0
M  V30 16043 H 1535.76 -0.285891 2.97027 0
M  V30 16044 C 1534.51 -2.05395 2.8055 0
M  V30 16045 H 1533.83 -1.72442 3.60699 0
M  V30 16046 H 1535.27 -2.70531 3.2648 0
M  V30 16047 C 1533.73 -2.85647 1.78626 0
M  V30 16048 O 1534.26 -3.81705 1.25156 0
M  V30 16049 N 1532.47 -2.50018 1.4812 0
M  V30 16050 H 1532.02 -1.71969 1.91793 0
M  V30 16051 H 1531.97 -3.04007 0.8017 0
M  V30 16052 N 1535.75 -1.57019 -0.13521 0
M  V30 16053 C 1536.99 -1.85801 -0.851896 0
M  V30 16054 C 1537.35 -0.724449 -1.77808 0
M  V30 16055 O 1538.55 -0.893619 -2.53511 0
M  V30 16056 C 1536.82 -3.19788 -1.59595 0
M  V30 16057 S 1538.38 -3.70159 -2.35644 0
M  V30 16058 H 1535.2 -0.651534 -0.284649 0
M  V30 16059 H 1537.8 -1.95184 -0.111177 0
M  V30 16060 H 1536.5 -4.00247 -0.907221 0
M  V30 16061 H 1536.04 -3.13441 -2.37735 0
M  V30 16062 H 1538.05 -3.40364 -3.61063 0
M  V30 16063 N 1537.22 0.404919 -1.52309 0
M  V30 16064 C 1538.47 1.14921 -1.66246 0
M  V30 16065 C 1538.79 1.90919 -0.396868 0
M  V30 16066 O 1538.06 1.86856 0.588361 0
M  V30 16067 H 1536.64 0.427223 -0.612772 0
M  V30 16068 H 1539.31 0.461091 -1.89367 0
M  V30 16069 H 1538.4 1.86095 -2.5055 0
M  V30 16070 N 1538.7 1.43003 0.662408 0
M  V30 16071 C 1539.93 1.47766 1.45533 0
M  V30 16072 C 1540.35 0.0940298 1.87865 0
M  V30 16073 O 1539.71 -0.910252 1.56793 0
M  V30 16074 C 1539.76 2.42084 2.6726 0
M  V30 16075 O 1538.86 1.90076 3.65985 0
M  V30 16076 H 1538.2 0.500167 0.436725 0
M  V30 16077 H 1540.73 1.87823 0.811399 0
M  V30 16078 H 1540.74 2.5908 3.15185 0
M  V30 16079 H 1539.42 3.42601 2.3579 0
M  V30 16080 H 1538 1.82695 3.2508 0
M  V30 16081 N 1540.18 -0.899904 1.29381 0
M  V30 16082 C 1541.43 -1.65038 1.17341 0
M  V30 16083 C 1541.76 -1.92544 -0.275135 0
M  V30 16084 O 1541.01 -1.53402 -1.21517 0
M  V30 16085 C 1541.31 -3.0069 1.93185 0
M  V30 16086 C 1540.98 -2.92792 3.42905 0
M  V30 16087 C 1539.64 -2.90345 3.83736 0
M  V30 16088 C 1541.99 -2.82015 4.38312 0
M  V30 16089 C 1539.32 -2.7494 5.1829 0
M  V30 16090 C 1541.67 -2.68149 5.72956 0
M  V30 16091 C 1540.33 -2.64068 6.13045 0
M  V30 16092 H 1539.6 -0.603915 0.42938 0
M  V30 16093 H 1542.25 -1.04743 1.60316 0
M  V30 16094 H 1540.56 -3.6485 1.428 0
M  V30 16095 H 1542.25 -3.57688 1.81274 0
M  V30 16096 H 1538.84 -2.95498 3.10449 0
M  V30 16097 H 1543.03 -2.82982 4.07719 0
M  V30 16098 H 1538.28 -2.70186 5.48461 0
M  V30 16099 H 1542.46 -2.58781 6.46533 0
M  V30 16100 H 1540.08 -2.51889 7.17256 0
M  V30 16101 N 1541.66 -1.11854 -1.11024 0
M  V30 16102 C 1542.89 -0.892714 -1.8665 0
M  V30 16103 C 1543.3 0.557721 -1.80374 0
M  V30 16104 O 1542.66 1.3853 -1.1881 0
M  V30 16105 C 1542.71 -1.35135 -3.35292 0
M  V30 16106 O 1542.43 -2.74493 -3.41446 0
M  V30 16107 C 1543.93 -1.16157 -4.27811 0
M  V30 16108 H 1541.15 -0.319409 -0.590101 0
M  V30 16109 H 1543.7 -1.48697 -1.40391 0
M  V30 16110 H 1541.85 -0.80046 -3.7904 0
M  V30 16111 H 1542.26 -2.94474 -4.34034 0
M  V30 16112 H 1543.74 -1.53144 -5.30331 0
M  V30 16113 H 1544.22 -0.101546 -4.39083 0
M  V30 16114 H 1544.82 -1.69966 -3.89861 0
M  V30 16115 N 1543.14 1.28707 -0.909517 0
M  V30 16116 C 1544.55 1.47605 -0.607045 0
M  V30 16117 C 1544.75 1.8275 0.848815 0
M  V30 16118 O 1543.81 1.92989 1.62823 0
M  V30 16119 C 1545.12 2.58194 -1.54131 0
M  V30 16120 C 1546.67 2.72065 -1.54757 0
M  V30 16121 C 1547.14 3.85793 -2.46835 0
M  V30 16122 N 1548.64 3.93141 -2.44937 0
M  V30 16123 C 1549.37 4.80512 -3.12883 0
M  V30 16124 N 1548.87 5.72504 -3.90142 0
M  V30 16125 N 1550.66 4.74086 -3.01991 0
M  V30 16126 H 1542.81 1.04174 -1.85099 0
M  V30 16127 H 1545.07 0.51843 -0.793684 0
M  V30 16128 H 1544.78 2.39119 -2.57905 0
M  V30 16129 H 1544.65 3.55205 -1.26921 0
M  V30 16130 H 1547.04 2.90532 -0.517219 0
M  V30 16131 H 1547.12 1.75598 -1.86008 0
M  V30 16132 H 1546.77 3.68082 -3.49969 0
M  V30 16133 H 1546.7 4.8165 -2.12888 0
M  V30 16134 H 1549.19 3.2735 -1.88813 0
M  V30 16135 H 1549.5 6.3599 -4.39017 0
M  V30 16136 H 1547.84 5.72358 -3.94248 0
M  V30 16137 H 1551.04 4.01209 -2.4114 0
M  V30 16138 H 1551.21 5.41964 -3.55217 0
M  V30 16139 N 1544.61 0.673042 1.42506 0
M  V30 16140 C 1545.52 -0.00648572 2.34599 0
M  V30 16141 C 1546.54 -0.790758 1.54994 0
M  V30 16142 O 1547.72 -0.733482 1.87569 0
M  V30 16143 C 1544.78 -0.94734 3.33506 0
M  V30 16144 C 1543.84 -0.157795 4.2901 0
M  V30 16145 C 1543.08 -1.05384 5.23192 0
M  V30 16146 O 1543.3 -2.29334 5.22266 0
M  V30 16147 O 1542.23 -0.515584 5.99688 0
M  V30 16148 H 1546.06 0.752059 2.94241 0
M  V30 16149 H 1543.64 0.433272 1.42979 0
M  V30 16150 H 1545.53 -1.4875 3.94273 0
M  V30 16151 H 1544.2 -1.68577 2.7634 0
M  V30 16152 H 1543.11 0.426426 3.71662 0
M  V30 16153 H 1544.44 0.54148 4.89212 0
M  V30 16154 N 1546.09 -1.52004 0.416254 0
M  V30 16155 C 1547 -2.30947 -0.412403 0
M  V30 16156 C 1548.02 -1.38969 -1.04707 0
M  V30 16157 O 1549.19 -1.72044 -1.04703 0
M  V30 16158 C 1546.26 -3.12078 -1.51024 0
M  V30 16159 C 1545.32 -4.19805 -0.897892 0
M  V30 16160 C 1544.55 -4.97059 -1.94341 0
M  V30 16161 O 1544.78 -4.74695 -3.16261 0
M  V30 16162 O 1543.71 -5.81715 -1.54567 0
M  V30 16163 H 1547.54 -3.02817 0.231473 0
M  V30 16164 H 1545.12 -1.4832 0.179283 0
M  V30 16165 H 1547 -3.6258 -2.14741 0
M  V30 16166 H 1545.68 -2.42995 -2.13858 0
M  V30 16167 H 1544.59 -3.73433 -0.223236 0
M  V30 16168 H 1545.92 -4.91201 -0.31336 0
M  V30 16169 N 1547.57 -0.146903 -1.56914 0
M  V30 16170 C 1548.53 0.778709 -2.15566 0
M  V30 16171 C 1549.53 1.1753 -1.09742 0
M  V30 16172 O 1550.72 1.09624 -1.35382 0
M  V30 16173 C 1547.86 2.0567 -2.71869 0
M  V30 16174 H 1549.05 0.268506 -2.98696 0
M  V30 16175 H 1546.6 0.10254 -1.55963 0
M  V30 16176 H 1547.34 2.61057 -1.92405 0
M  V30 16177 H 1547.12 1.78154 -3.4929 0
M  V30 16178 H 1548.61 2.71779 -3.17059 0
M  V30 16179 N 1549.05 1.57088 0.126881 0
M  V30 16180 C 1550.33 1.7539 0.8659 0
M  V30 16181 C 1550.71 0.720288 1.98432 0
M  V30 16182 O 1550.05 -0.2572 2.27048 0
M  V30 16183 C 1550.26 3.20131 1.38985 0
M  V30 16184 C 1551.61 3.82404 1.84532 0
M  V30 16185 O 1552.64 3.23685 1.48682 0
M  V30 16186 O 1551.49 4.85599 2.50711 0
M  V30 16187 H 1548.59 0.717853 0.41063 0
M  V30 16188 H 1551.13 1.69335 0.111236 0
M  V30 16189 H 1549.91 3.86871 0.587056 0
M  V30 16190 H 1549.53 3.30692 2.20745 0
M  V30 16191 N 1550.53 -0.396836 1.52522 0
M  V30 16192 C 1551.44 -1.50871 1.79653 0
M  V30 16193 C 1552.45 -1.60043 0.682804 0
M  V30 16194 O 1553.63 -1.76527 0.96955 0
M  V30 16195 C 1550.69 -2.86485 1.95263 0
M  V30 16196 C 1549.75 -2.87099 3.19175 0
M  V30 16197 C 1548.99 -4.16244 3.34031 0
M  V30 16198 O 1549.21 -5.1079 2.5387 0
M  V30 16199 O 1548.14 -4.23962 4.27247 0
M  V30 16200 H 1551.97 -1.30878 2.74052 0
M  V30 16201 H 1549.56 -0.583908 1.37517 0
M  V30 16202 H 1551.44 -3.66895 2.07282 0
M  V30 16203 H 1550.11 -3.0652 1.04052 0
M  V30 16204 H 1549.02 -2.05497 3.12605 0
M  V30 16205 H 1550.35 -2.72014 4.10206 0
M  V30 16206 N 1552.01 -1.43353 -0.654814 0
M  V30 16207 C 1553.24 -1.48107 -1.44041 0
M  V30 16208 C 1553.64 -0.0970423 -1.88951 0
M  V30 16209 O 1552.99 0.902686 -1.59991 0
M  V30 16210 C 1553.05 -2.36322 -2.7091 0
M  V30 16211 C 1552.71 -3.83887 -2.4795 0
M  V30 16212 C 1553.71 -4.75036 -2.11274 0
M  V30 16213 C 1551.39 -4.28359 -2.62324 0
M  V30 16214 C 1553.39 -6.08651 -1.89267 0
M  V30 16215 C 1551.08 -5.62028 -2.39933 0
M  V30 16216 C 1552.07 -6.51992 -2.0346 0
M  V30 16217 O 1551.76 -7.83189 -1.813 0
M  V30 16218 H 1551.49 -0.50532 -0.449029 0
M  V30 16219 H 1554.05 -1.88745 -0.810226 0
M  V30 16220 H 1552.28 -1.90569 -3.36482 0
M  V30 16221 H 1553.97 -2.32298 -3.32855 0
M  V30 16222 H 1554.73 -4.41957 -1.99747 0
M  V30 16223 H 1550.61 -3.58611 -2.89688 0
M  V30 16224 H 1554.16 -6.78833 -1.60723 0
M  V30 16225 H 1550.05 -5.94675 -2.51062 0
M  V30 16226 H 1550.82 -7.94751 -1.95738 0
M  V30 16227 N 1553.48 0.89303 -1.29857 0
M  V30 16228 C 1554.73 1.63881 -1.17583 0
M  V30 16229 C 1555.05 1.93723 0.270293 0
M  V30 16230 O 1556.25 2.66582 0.514432 0
M  V30 16231 C 1554.71 2.95327 -2.05694 0
M  V30 16232 C 1554.32 2.73055 -3.55169 0
M  V30 16233 C 1556.06 3.7327 -2.02162 0
M  V30 16234 C 1553.97 4.00268 -4.35361 0
M  V30 16235 H 1552.9 0.614815 -0.436485 0
M  V30 16236 H 1555.55 0.989339 -1.54546 0
M  V30 16237 H 1553.93 3.61523 -1.61607 0
M  V30 16238 H 1555.1 2.1541 -4.07351 0
M  V30 16239 H 1553.42 2.08498 -3.6044 0
M  V30 16240 H 1556.02 4.67601 -2.59333 0
M  V30 16241 H 1556.36 4.04032 -1.00318 0
M  V30 16242 H 1556.89 3.13925 -2.44328 0
M  V30 16243 H 1553.63 3.74669 -5.37869 0
M  V30 16244 H 1553.15 4.57448 -3.87945 0
M  V30 16245 H 1554.83 4.68358 -4.46374 0
M  V30 16246 N 1554.96 1.12442 1.10429 0
M  V30 16247 C 1556.24 0.791191 1.78884 0
M  V30 16248 C 1556.62 -0.719044 1.98477 0
M  V30 16249 O 1555.97 -1.65275 1.57786 0
M  V30 16250 C 1556.18 1.56632 3.11877 0
M  V30 16251 C 1557.52 1.75236 3.86752 0
M  V30 16252 O 1558.55 1.53145 3.21598 0
M  V30 16253 O 1557.41 2.12025 5.03694 0
M  V30 16254 H 1554.5 0.287788 0.775311 0
M  V30 16255 H 1557.05 1.22844 1.17078 0
M  V30 16256 H 1555.82 2.59317 2.93037 0
M  V30 16257 H 1555.44 1.12332 3.81402 0
M  V30 16258 N 1556.44 -1.28223 0.91633 0
M  V30 16259 C 1557.69 -1.94149 0.546705 0
M  V30 16260 C 1558 -1.72904 -0.914529 0
M  V30 16261 O 1559.21 -2.33075 -1.39243 0
M  V30 16262 C 1557.66 -3.47759 0.92691 0
M  V30 16263 C 1557.27 -3.77779 2.40805 0
M  V30 16264 C 1559.02 -4.19829 0.627994 0
M  V30 16265 C 1556.92 -5.2471 2.72825 0
M  V30 16266 H 1555.85 -0.726787 0.200739 0
M  V30 16267 H 1558.5 -1.45694 1.1156 0
M  V30 16268 H 1556.89 -3.9496 0.286779 0
M  V30 16269 H 1558.06 -3.41377 3.09513 0
M  V30 16270 H 1556.37 -3.18887 2.67769 0
M  V30 16271 H 1558.97 -5.27999 0.843862 0
M  V30 16272 H 1559.31 -4.14028 -0.434315 0
M  V30 16273 H 1559.85 -3.78413 1.22671 0
M  V30 16274 H 1556.59 -5.35591 3.77919 0
M  V30 16275 H 1556.11 -5.623 2.08756 0
M  V30 16276 H 1557.79 -5.92475 2.59965 0
M  V30 16277 N 1557.92 -0.68059 -1.42147 0
M  V30 16278 C 1559.17 -0.204857 -2.01059 0
M  V30 16279 C 1559.49 1.19475 -1.54113 0
M  V30 16280 O 1558.76 1.80334 -0.765279 0
M  V30 16281 H 1557.34 -0.0727459 -0.743449 0
M  V30 16282 H 1560 -0.878396 -1.73983 0
M  V30 16283 H 1559.09 -0.210628 -3.11388 0
M  V30 16284 N 1559.4 1.51781 -0.424309 0
M  V30 16285 C 1560.36 2.25996 0.381903 0
M  V30 16286 C 1561.36 1.28938 0.960813 0
M  V30 16287 O 1562.55 1.52757 0.837306 0
M  V30 16288 C 1559.68 3.04181 1.53904 0
M  V30 16289 H 1560.87 2.98697 -0.268336 0
M  V30 16290 H 1558.43 1.55293 -0.177167 0
M  V30 16291 H 1559.16 2.35866 2.22571 0
M  V30 16292 H 1558.95 3.75457 1.13025 0
M  V30 16293 H 1560.44 3.60434 2.10896 0
M  V30 16294 N 1560.87 0.155222 1.56834 0
M  V30 16295 C 1561.8 -0.777258 2.20184 0
M  V30 16296 C 1562.78 -1.25102 1.15254 0
M  V30 16297 O 1563.97 -1.3071 1.43627 0
M  V30 16298 C 1561.1 -2.01326 2.82993 0
M  V30 16299 C 1560.05 -1.67596 3.93822 0
M  V30 16300 C 1559.38 -2.98529 4.43604 0
M  V30 16301 C 1560.68 -0.916302 5.142 0
M  V30 16302 H 1562.37 -0.249257 2.98361 0
M  V30 16303 H 1559.92 -0.118448 1.43512 0
M  V30 16304 H 1561.87 -2.67048 3.2598 0
M  V30 16305 H 1560.6 -2.56513 2.0216 0
M  V30 16306 H 1559.26 -1.0425 3.51465 0
M  V30 16307 H 1558.9 -3.51723 3.59583 0
M  V30 16308 H 1558.6 -2.76721 5.18362 0
M  V30 16309 H 1560.13 -3.65308 4.89267 0
M  V30 16310 H 1561.54 -1.47577 5.5398 0
M  V30 16311 H 1559.94 -0.797856 5.94772 0
M  V30 16312 H 1561.01 0.0904351 4.84816 0
M  V30 16313 N 1562.35 -1.57153 -0.118549 0
M  V30 16314 C 1563.3 -2.01357 -1.1644 0
M  V30 16315 C 1564.29 -0.910574 -1.42846 0
M  V30 16316 O 1565.5 -1.09578 -1.42803 0
M  V30 16317 H 1561.87 -0.641376 -0.392607 0
M  V30 16318 H 1563.85 -2.88425 -0.765087 0
M  V30 16319 C 1562.59 -2.43416 -2.48282 0
M  V30 16320 H 1561.92 -3.27857 -2.288 0
M  V30 16321 H 1563.36 -2.78143 -3.20019 0
M  V30 16322 C 1561.82 -1.29799 -3.10892 0
M  V30 16323 O 1562.35 -0.614207 -3.96977 0
M  V30 16324 N 1560.55 -1.05493 -2.70776 0
M  V30 16325 H 1560.1 -1.61276 -2.00868 0
M  V30 16326 H 1560.06 -0.296678 -3.12997 0
M  V30 16327 N 1563.83 0.388742 -1.5273 0
M  V30 16328 C 1565.08 1.13151 -1.67455 0
M  V30 16329 C 1565.4 1.90487 -0.417095 0
M  V30 16330 O 1564.67 1.87469 0.568509 0
M  V30 16331 H 1563.25 0.4207 -0.617269 0
M  V30 16332 H 1565.91 0.44098 -1.89846 0
M  V30 16333 H 1565.01 1.83427 -2.52509 0
M  V30 16334 N 1565.31 1.43698 0.647203 0
M  V30 16335 C 1566.56 1.44918 1.40292 0
M  V30 16336 C 1566.87 0.0794243 1.95439 0
M  V30 16337 O 1568.08 -0.0309052 2.71482 0
M  V30 16338 C 1566.53 2.55052 2.53923 0
M  V30 16339 C 1566.14 3.98161 2.05357 0
M  V30 16340 C 1567.88 2.65473 3.31246 0
M  V30 16341 C 1565.79 4.99749 3.16235 0
M  V30 16342 H 1564.72 0.539106 0.527144 0
M  V30 16343 H 1567.37 1.69708 0.697951 0
M  V30 16344 H 1565.75 2.23473 3.26919 0
M  V30 16345 H 1566.93 4.3923 1.39333 0
M  V30 16346 H 1565.24 3.91839 1.40896 0
M  V30 16347 H 1567.84 3.38546 4.13873 0
M  V30 16348 H 1568.18 1.70745 3.79673 0
M  V30 16349 H 1568.72 2.96383 2.65334 0
M  V30 16350 H 1565.45 5.96051 2.7277 0
M  V30 16351 H 1564.97 4.63288 3.80952 0
M  V30 16352 H 1566.65 5.22725 3.81271 0
M  V30 16353 N 1566.79 -0.886131 1.30328 0
M  V30 16354 C 1568.03 -1.63784 1.19085 0
M  V30 16355 C 1568.36 -1.92825 -0.254697 0
M  V30 16356 O 1567.62 -1.54682 -1.19883 0
M  V30 16357 C 1567.92 -2.98624 1.96364 0
M  V30 16358 C 1567.58 -2.89139 3.45991 0
M  V30 16359 C 1566.24 -2.86259 3.86794 0
M  V30 16360 C 1568.6 -2.7735 4.41278 0
M  V30 16361 C 1565.92 -2.69428 5.21177 0
M  V30 16362 C 1568.28 -2.62057 5.75768 0
M  V30 16363 C 1566.94 -2.57551 6.15811 0
M  V30 16364 H 1566.21 -0.599327 0.435761 0
M  V30 16365 H 1568.86 -1.03037 1.61418 0
M  V30 16366 H 1567.16 -3.63315 1.46662 0
M  V30 16367 H 1568.86 -3.55746 1.85057 0
M  V30 16368 H 1565.45 -2.92189 3.13566 0
M  V30 16369 H 1569.63 -2.78642 4.10697 0
M  V30 16370 H 1564.89 -2.64353 5.51296 0
M  V30 16371 H 1569.06 -2.51909 6.49242 0
M  V30 16372 H 1566.69 -2.44268 7.19887 0
M  V30 16373 N 1568.26 -1.13026 -1.09832 0
M  V30 16374 C 1569.51 -0.890736 -1.82191 0
M  V30 16375 C 1569.84 0.581818 -1.8528 0
M  V30 16376 O 1569.12 1.43037 -1.31798 0
M  V30 16377 C 1569.4 -1.47403 -3.28549 0
M  V30 16378 C 1569.25 -3.0154 -3.33757 0
M  V30 16379 C 1570.57 -1.13876 -4.25112 0
M  V30 16380 H 1567.69 -0.325028 -0.661457 0
M  V30 16381 H 1570.33 -1.39787 -1.28684 0
M  V30 16382 H 1568.48 -1.04272 -3.74245 0
M  V30 16383 H 1570.16 -3.53395 -2.96495 0
M  V30 16384 H 1568.4 -3.36746 -2.73467 0
M  V30 16385 H 1569.07 -3.37449 -4.36843 0
M  V30 16386 H 1571.55 -1.51139 -3.87681 0
M  V30 16387 H 1570.42 -1.57343 -5.25865 0
M  V30 16388 H 1570.68 -0.051854 -4.4207 0
M  V30 16389 N 1569.74 1.27735 -0.923117 0
M  V30 16390 C 1570.67 2.29395 -0.435907 0
M  V30 16391 C 1571.65 1.62542 0.501403 0
M  V30 16392 O 1572.84 1.89884 0.407135 0
M  V30 16393 C 1569.97 3.45856 0.316348 0
M  V30 16394 C 1568.92 4.24672 -0.532697 0
M  V30 16395 C 1568.25 5.33563 0.348454 0
M  V30 16396 C 1569.55 4.90494 -1.79481 0
M  V30 16397 H 1571.24 2.70398 -1.28551 0
M  V30 16398 H 1568.79 1.29989 -0.619581 0
M  V30 16399 H 1570.74 4.1607 0.668098 0
M  V30 16400 H 1569.47 3.03758 1.19994 0
M  V30 16401 H 1568.12 3.56198 -0.867093 0
M  V30 16402 H 1567.77 4.87708 1.23086 0
M  V30 16403 H 1567.47 5.87202 -0.216104 0
M  V30 16404 H 1569 6.06622 0.695878 0
M  V30 16405 H 1570.41 5.53019 -1.5114 0
M  V30 16406 H 1568.81 5.5417 -2.30251 0
M  V30 16407 H 1569.88 4.14454 -2.51707 0
M  V30 16408 N 1571.22 0.688118 1.41784 0
M  V30 16409 C 1572.47 0.215517 2.00948 0
M  V30 16410 C 1572.79 -1.18656 1.54744 0
M  V30 16411 O 1572.06 -1.79925 0.774831 0
M  V30 16412 H 1570.64 0.0766876 0.743053 0
M  V30 16413 H 1573.3 0.88761 1.73515 0
M  V30 16414 H 1572.4 0.227139 3.11272 0
M  V30 16415 N 1572.7 -1.51554 0.432352 0
M  V30 16416 C 1574.11 -1.59377 0.0843863 0
M  V30 16417 C 1574.31 -1.44364 -1.40575 0
M  V30 16418 O 1573.37 -1.28234 -2.17514 0
M  V30 16419 C 1574.68 -2.94652 0.600046 0
M  V30 16420 C 1576.23 -3.07949 0.560049 0
M  V30 16421 C 1576.71 -4.4574 1.0526 0
M  V30 16422 N 1578.2 -4.52046 1.01038 0
M  V30 16423 C 1578.93 -5.56979 1.36242 0
M  V30 16424 N 1578.43 -6.69355 1.78707 0
M  V30 16425 N 1580.22 -5.47311 1.2809 0
M  V30 16426 H 1572.37 -1.59558 1.40197 0
M  V30 16427 H 1574.64 -0.751868 0.577406 0
M  V30 16428 H 1574.34 -3.10993 1.64245 0
M  V30 16429 H 1574.22 -3.77193 0.0222482 0
M  V30 16430 H 1576.6 -2.91279 -0.473357 0
M  V30 16431 H 1576.68 -2.27259 1.17419 0
M  V30 16432 H 1576.33 -4.63156 2.08445 0
M  V30 16433 H 1576.26 -5.24962 0.415047 0
M  V30 16434 H 1578.75 -3.71389 0.69847 0
M  V30 16435 H 1579.06 -7.45438 2.03819 0
M  V30 16436 H 1577.41 -6.70576 1.82629 0
M  V30 16437 H 1580.6 -4.58403 0.947848 0
M  V30 16438 H 1580.77 -6.28978 1.55855 0
M  V30 16439 N 1574.18 -0.163538 -1.56749 0
M  V30 16440 C 1575.4 0.493087 -2.01453 0
M  V30 16441 C 1575.83 1.56535 -1.043 0
M  V30 16442 O 1575.18 1.81287 -0.0213039 0
M  V30 16443 C 1575.23 1.05546 -3.44808 0
M  V30 16444 O 1574.34 2.16977 -3.50706 0
M  V30 16445 H 1573.68 0.118905 -0.653267 0
M  V30 16446 H 1576.21 -0.265139 -2.02875 0
M  V30 16447 H 1576.22 1.38002 -3.83953 0
M  V30 16448 H 1574.89 0.270333 -4.1502 0
M  V30 16449 H 1573.47 1.85625 -3.23416 0
M  V30 16450 N 1575.65 1.57214 0.110213 0
M  V30 16451 C 1576.59 1.96198 1.1654 0
M  V30 16452 C 1577.57 0.832925 1.39646 0
M  V30 16453 O 1578.75 1.09188 1.53656 0
M  V30 16454 C 1575.88 2.26576 2.51756 0
M  V30 16455 C 1574.92 3.49093 2.45023 0
M  V30 16456 S 1575.76 5.01363 1.88136 0
M  V30 16457 C 1576.91 5.34903 3.25007 0
M  V30 16458 H 1577.14 2.85392 0.832996 0
M  V30 16459 H 1574.68 1.51104 0.317314 0
M  V30 16460 H 1576.64 2.44756 3.29552 0
M  V30 16461 H 1575.3 1.37981 2.8217 0
M  V30 16462 H 1574.49 3.67743 3.44647 0
M  V30 16463 H 1574.09 3.30346 1.7535 0
M  V30 16464 H 1576.38 5.30623 4.21243 0
M  V30 16465 H 1577.33 6.36062 3.11176 0
M  V30 16466 H 1577.73 4.62371 3.23841 0
M  V30 16467 N 1577.13 -0.380637 1.52934 0
M  V30 16468 C 1578.38 -1.12261 1.68053 0
M  V30 16469 C 1578.7 -1.90263 0.427191 0
M  V30 16470 O 1577.97 -1.87768 -0.558559 0
M  V30 16471 H 1576.55 -0.41742 0.619491 0
M  V30 16472 H 1579.21 -0.430906 1.90077 0
M  V30 16473 H 1578.31 -1.82085 2.53479 0
M  V30 16474 N 1578.61 -1.44039 -0.639573 0
M  V30 16475 C 1579.86 -1.46377 -1.39928 0
M  V30 16476 C 1580.19 -0.0931685 -1.94277 0
M  V30 16477 O 1579.44 0.903841 -1.73578 0
M  V30 16478 C 1579.74 -2.46459 -2.5883 0
M  V30 16479 C 1579.41 -3.91998 -2.2282 0
M  V30 16480 C 1578.07 -4.31633 -2.12712 0
M  V30 16481 C 1580.42 -4.83656 -1.94232 0
M  V30 16482 C 1577.75 -5.60863 -1.72191 0
M  V30 16483 C 1580.1 -6.13265 -1.55206 0
M  V30 16484 C 1578.76 -6.51863 -1.43633 0
M  V30 16485 H 1578.03 -0.535633 -0.512034 0
M  V30 16486 H 1580.68 -1.77202 -0.72607 0
M  V30 16487 H 1578.99 -2.09087 -3.31345 0
M  V30 16488 H 1580.68 -2.45518 -3.17052 0
M  V30 16489 H 1577.27 -3.60636 -2.31602 0
M  V30 16490 H 1581.46 -4.53796 -2.00955 0
M  V30 16491 H 1576.71 -5.89595 -1.61828 0
M  V30 16492 H 1580.89 -6.83752 -1.32121 0
M  V30 16493 H 1578.51 -7.51903 -1.12006 0
M  V30 16494 N 1580.09 0.879207 -1.30796 0
M  V30 16495 C 1581.34 1.62625 -1.19315 0
M  V30 16496 C 1581.65 1.93999 0.249731 0
M  V30 16497 O 1582.86 2.67112 0.486129 0
M  V30 16498 C 1581.31 2.93129 -2.08815 0
M  V30 16499 C 1580.92 2.69272 -3.58045 0
M  V30 16500 C 1582.66 3.71105 -2.0611 0
M  V30 16501 C 1580.57 3.95628 -4.39582 0
M  V30 16502 H 1579.5 0.61015 -0.442981 0
M  V30 16503 H 1582.15 0.972892 -1.55586 0
M  V30 16504 H 1580.53 3.59789 -1.65432 0
M  V30 16505 H 1581.71 2.11078 -4.09613 0
M  V30 16506 H 1580.02 2.04664 -3.62632 0
M  V30 16507 H 1582.62 4.64824 -2.64277 0
M  V30 16508 H 1582.96 4.02946 -1.04597 0
M  V30 16509 H 1583.5 3.11315 -2.47644 0
M  V30 16510 H 1580.24 3.68943 -5.41813 0
M  V30 16511 H 1579.76 4.53307 -3.92775 0
M  V30 16512 H 1581.43 4.63597 -4.51317 0
M  V30 16513 N 1581.57 1.13606 1.09231 0
M  V30 16514 C 1582.82 0.897278 1.81089 0
M  V30 16515 C 1583.14 -0.578066 1.86235 0
M  V30 16516 O 1582.41 -1.42018 1.34935 0
M  V30 16517 H 1580.99 0.328971 0.670662 0
M  V30 16518 H 1583.65 1.433 1.32103 0
M  V30 16519 H 1582.74 1.28979 2.84202 0
M  V30 16520 N 1583.05 -1.27244 0.929878 0
M  V30 16521 C 1584 -2.24434 0.401656 0
M  V30 16522 C 1584.98 -1.53087 -0.495298 0
M  V30 16523 O 1586.17 -1.73851 -0.332387 0
M  V30 16524 C 1583.3 -3.41588 -0.342424 0
M  V30 16525 C 1582.39 -4.20236 0.571171 0
M  V30 16526 N 1582.78 -4.76661 1.69197 0
M  V30 16527 C 1581.08 -4.44424 0.374595 0
M  V30 16528 C 1581.78 -5.35987 2.26036 0
M  V30 16529 N 1580.75 -5.21043 1.54969 0
M  V30 16530 H 1584.55 -2.65644 1.25739 0
M  V30 16531 H 1582.07 -1.422 0.784408 0
M  V30 16532 H 1584.07 -4.10319 -0.737805 0
M  V30 16533 H 1582.73 -3.01908 -1.19506 0
M  V30 16534 H 1583.74 -4.74545 2.07431 0
M  V30 16535 H 1580.41 -4.15205 -0.437201 0
M  V30 16536 H 1581.8 -5.90583 3.20408 0
M  V30 16537 N 1584.52 -0.695628 -1.41417 0
M  V30 16538 C 1585.75 -0.235312 -2.05256 0
M  V30 16539 C 1586.16 1.12055 -1.52448 0
M  V30 16540 O 1585.5 1.71139 -0.667612 0
M  V30 16541 C 1585.57 -0.115542 -3.59314 0
M  V30 16542 C 1585.23 -1.40345 -4.34916 0
M  V30 16543 C 1586.23 -2.34131 -4.64197 0
M  V30 16544 C 1583.91 -1.65684 -4.74188 0
M  V30 16545 C 1585.91 -3.51518 -5.31709 0
M  V30 16546 C 1583.59 -2.83355 -5.41436 0
M  V30 16547 C 1584.59 -3.76095 -5.70124 0
M  V30 16548 O 1584.28 -4.91706 -6.35988 0
M  V30 16549 H 1584.01 -0.107129 -0.667457 0
M  V30 16550 H 1586.57 -0.948759 -1.82175 0
M  V30 16551 H 1584.8 0.653675 -3.81135 0
M  V30 16552 H 1586.48 0.307599 -4.04733 0
M  V30 16553 H 1587.25 -2.15812 -4.34339 0
M  V30 16554 H 1583.13 -0.943613 -4.51239 0
M  V30 16555 H 1586.67 -4.23923 -5.54017 0
M  V30 16556 H 1582.57 -3.01591 -5.70713 0
M  V30 16557 H 1583.34 -4.91522 -6.54484 0
M  V30 16558 N 1586 1.51322 -0.440383 0
M  V30 16559 C 1586.93 2.30708 0.360013 0
M  V30 16560 C 1587.91 1.36254 1.01828 0
M  V30 16561 O 1589.1 1.65174 1.02134 0
M  V30 16562 C 1586.23 3.15132 1.45977 0
M  V30 16563 C 1585.18 4.17889 0.924825 0
M  V30 16564 C 1584.51 4.90853 2.12056 0
M  V30 16565 C 1585.81 5.22282 -0.0428362 0
M  V30 16566 H 1587.5 2.97868 -0.30248 0
M  V30 16567 H 1585.05 1.43249 -0.146914 0
M  V30 16568 H 1587 3.69449 2.02695 0
M  V30 16569 H 1585.72 2.45798 2.1506 0
M  V30 16570 H 1584.38 3.64627 0.379842 0
M  V30 16571 H 1584.03 4.1802 2.79765 0
M  V30 16572 H 1583.73 5.60339 1.769 0
M  V30 16573 H 1585.26 5.47995 2.69322 0
M  V30 16574 H 1586.67 5.71654 0.434137 0
M  V30 16575 H 1585.07 5.99314 -0.307126 0
M  V30 16576 H 1586.14 4.74923 -0.978557 0
M  V30 16577 N 1587.48 0.171848 1.5666 0
M  V30 16578 C 1588.76 -0.519355 1.88579 0
M  V30 16579 C 1589.14 -1.81273 1.08182 0
M  V30 16580 O 1588.48 -2.27822 0.175895 0
M  V30 16581 C 1588.69 -0.760743 3.40608 0
M  V30 16582 C 1590.04 -1.09051 4.10357 0
M  V30 16583 O 1591.07 -0.849264 3.45928 0
M  V30 16584 O 1589.93 -1.54566 5.24187 0
M  V30 16585 H 1587.02 -0.267782 0.782446 0
M  V30 16586 H 1589.57 0.210323 1.68392 0
M  V30 16587 H 1588.34 0.153577 3.90999 0
M  V30 16588 H 1587.96 -1.54372 3.66408 0
M  V30 16589 N 1588.96 -1.5727 -0.101874 0
M  V30 16590 C 1589.89 -1.98253 -1.15014 0
M  V30 16591 C 1590.9 -0.884147 -1.36699 0
M  V30 16592 O 1592.09 -1.16232 -1.35471 0
M  V30 16593 C 1589.19 -2.28043 -2.50698 0
M  V30 16594 C 1588.36 -3.59343 -2.49383 0
M  V30 16595 C 1587.42 -3.77147 -3.66943 0
M  V30 16596 O 1586.45 -4.49075 -3.49744 0
M  V30 16597 N 1587.65 -3.1721 -4.86167 0
M  V30 16598 H 1590.42 -2.88787 -0.801375 0
M  V30 16599 H 1587.98 -1.59264 -0.290941 0
M  V30 16600 H 1589.97 -2.37153 -3.27934 0
M  V30 16601 H 1588.54 -1.4355 -2.77691 0
M  V30 16602 H 1587.76 -3.61264 -1.57741 0
M  V30 16603 H 1589.05 -4.45612 -2.45576 0
M  V30 16604 H 1588.45 -2.58772 -5.03044 0
M  V30 16605 H 1587 -3.31816 -5.61018 0
M  V30 16606 N 1590.44 0.372521 -1.53134 0
M  V30 16607 C 1591.38 1.45597 -1.79082 0
M  V30 16608 C 1592.35 1.5349 -0.63482 0
M  V30 16609 O 1593.54 1.69488 -0.876276 0
M  V30 16610 C 1590.68 2.8263 -1.98026 0
M  V30 16611 C 1589.79 2.83758 -3.25738 0
M  V30 16612 C 1588.93 4.12322 -3.34909 0
M  V30 16613 C 1587.96 4.07565 -4.5668 0
M  V30 16614 N 1587.1 5.27766 -4.63042 0
M  V30 16615 H 1591.94 1.22771 -2.71535 0
M  V30 16616 H 1589.48 0.595285 -1.34517 0
M  V30 16617 H 1591.44 3.62227 -2.06997 0
M  V30 16618 H 1590.07 3.0387 -1.08917 0
M  V30 16619 H 1589.12 1.96435 -3.25757 0
M  V30 16620 H 1590.43 2.76114 -4.15406 0
M  V30 16621 H 1589.58 5.00331 -3.43153 0
M  V30 16622 H 1588.32 4.22709 -2.43245 0
M  V30 16623 H 1587.33 3.17943 -4.48545 0
M  V30 16624 H 1588.55 3.98786 -5.49678 0
M  V30 16625 H 1586.5 5.38752 -3.74276 0
M  V30 16626 H 1586.42 5.22264 -5.46605 0
M  V30 16627 H 1587.68 6.17626 -4.75561 0
M  V30 16628 N 1591.91 1.44376 0.631925 0
M  V30 16629 C 1593.33 1.28245 0.950014 0
M  V30 16630 C 1593.53 0.217644 2.00321 0
M  V30 16631 O 1592.59 -0.396736 2.49364 0
M  V30 16632 C 1593.9 2.65378 1.41404 0
M  V30 16633 C 1595.45 2.73081 1.52956 0
M  V30 16634 C 1595.92 4.10682 2.02742 0
M  V30 16635 N 1597.41 4.12854 2.10014 0
M  V30 16636 C 1598.15 5.16173 2.49705 0
M  V30 16637 N 1597.64 6.29855 2.88539 0
M  V30 16638 N 1599.44 5.03528 2.49832 0
M  V30 16639 H 1591.59 2.12302 -0.0646167 0
M  V30 16640 H 1593.85 0.9474 0.0337162 0
M  V30 16641 H 1593.56 3.44366 0.714476 0
M  V30 16642 H 1593.43 2.92213 2.3852 0
M  V30 16643 H 1595.82 1.94412 2.22009 0
M  V30 16644 H 1595.9 2.49988 0.542176 0
M  V30 16645 H 1595.54 4.89827 1.34285 0
M  V30 16646 H 1595.47 4.31152 3.02351 0
M  V30 16647 H 1597.96 3.30806 1.8269 0
M  V30 16648 H 1598.28 7.04505 3.17637 0
M  V30 16649 H 1596.62 6.33294 2.86293 0
M  V30 16650 H 1599.81 4.13773 2.18883 0
M  V30 16651 H 1599.99 5.84172 2.80441 0
M  V30 16652 N 1593.39 -0.872258 1.31261 0
M  V30 16653 C 1594.32 -1.99517 1.21306 0
M  V30 16654 C 1595.3 -1.69801 0.100775 0
M  V30 16655 O 1596.49 -1.92098 0.284984 0
M  V30 16656 C 1593.62 -3.34968 0.917249 0
M  V30 16657 C 1592.57 -3.78984 1.98885 0
M  V30 16658 C 1591.9 -5.11869 1.54578 0
M  V30 16659 C 1593.2 -3.96338 3.40167 0
M  V30 16660 H 1594.89 -2.08104 2.15251 0
M  V30 16661 H 1592.44 -0.999865 1.03628 0
M  V30 16662 H 1594.39 -4.1306 0.834217 0
M  V30 16663 H 1593.11 -3.26549 -0.0578721 0
M  V30 16664 H 1591.77 -3.0313 2.06174 0
M  V30 16665 H 1591.42 -4.99889 0.558581 0
M  V30 16666 H 1591.12 -5.4229 2.26265 0
M  V30 16667 H 1592.65 -5.92472 1.47678 0
M  V30 16668 H 1594.06 -4.64831 3.35566 0
M  V30 16669 H 1592.46 -4.38153 4.10051 0
M  V30 16670 H 1593.53 -2.9979 3.81122 0
M  V30 16671 N 1594.87 -1.14184 -1.08627 0
M  V30 16672 C 1595.82 -0.826718 -2.15486 0
M  V30 16673 C 1596.79 0.214769 -1.64706 0
M  V30 16674 O 1597.97 0.0851909 -1.9061 0
M  V30 16675 C 1595.11 -0.307888 -3.43724 0
M  V30 16676 C 1594.22 -1.40941 -4.08362 0
M  V30 16677 C 1593.36 -0.848059 -5.24387 0
M  V30 16678 C 1592.4 -1.92741 -5.80962 0
M  V30 16679 N 1591.54 -1.3834 -6.88336 0
M  V30 16680 H 1596.38 -1.74198 -2.41783 0
M  V30 16681 H 1593.91 -0.869406 -1.18658 0
M  V30 16682 H 1595.87 0.0111149 -4.17199 0
M  V30 16683 H 1594.5 0.570488 -3.17719 0
M  V30 16684 H 1593.55 -1.84485 -3.3267 0
M  V30 16685 H 1594.86 -2.22485 -4.46433 0
M  V30 16686 H 1594.02 -0.480826 -6.04792 0
M  V30 16687 H 1592.76 -0.00163783 -4.877 0
M  V30 16688 H 1591.76 -2.30362 -4.99213 0
M  V30 16689 H 1592.99 -2.77738 -6.19708 0
M  V30 16690 H 1590.93 -0.559124 -6.53613 0
M  V30 16691 H 1590.85 -2.13524 -7.2522 0
M  V30 16692 H 1592.12 -1.044 -7.72477 0
M  V30 16693 N 1596.35 1.26749 -0.936613 0
M  V30 16694 C 1597.28 2.25684 -0.399941 0
M  V30 16695 C 1598.29 1.55739 0.474271 0
M  V30 16696 O 1599.48 1.76203 0.285454 0
M  V30 16697 C 1596.58 3.35969 0.444733 0
M  V30 16698 C 1595.76 4.35453 -0.412258 0
M  V30 16699 C 1594.81 5.24889 0.37123 0
M  V30 16700 O 1593.84 5.68758 -0.224162 0
M  V30 16701 N 1595.04 5.55993 1.66889 0
M  V30 16702 H 1597.81 2.72368 -1.25043 0
M  V30 16703 H 1595.37 1.40468 -0.805 0
M  V30 16704 H 1597.36 3.92751 0.976159 0
M  V30 16705 H 1595.93 2.88816 1.196 0
M  V30 16706 H 1595.15 3.77808 -1.12493 0
M  V30 16707 H 1596.44 4.9892 -0.997822 0
M  V30 16708 H 1595.84 5.22224 2.17481 0
M  V30 16709 H 1594.39 6.15436 2.14666 0
M  V30 16710 N 1597.83 0.703118 1.41046 0
M  V30 16711 C 1599.07 0.236818 2.00708 0
M  V30 16712 C 1599.4 -1.17008 1.55994 0
M  V30 16713 O 1598.67 -1.79094 0.793871 0
M  V30 16714 H 1597.25 0.0845643 0.742198 0
M  V30 16715 H 1599.91 0.905964 1.72564 0
M  V30 16716 H 1599 0.260141 3.11014 0
M  V30 16717 N 1599.3 -1.51086 0.448402 0
M  V30 16718 C 1600.23 -2.30896 -0.347773 0
M  V30 16719 C 1601.22 -1.36792 -1.01104 0
M  V30 16720 O 1602.4 -1.65713 -1.01257 0
M  V30 16721 C 1599.53 -3.15901 -1.44304 0
M  V30 16722 C 1598.48 -4.18373 -0.90265 0
M  V30 16723 C 1597.81 -4.9197 -2.0945 0
M  V30 16724 C 1599.11 -5.22252 0.0705335 0
M  V30 16725 H 1600.8 -2.97704 0.318273 0
M  V30 16726 H 1598.35 -1.43169 0.154509 0
M  V30 16727 H 1600.3 -3.70519 -2.00733 0
M  V30 16728 H 1599.03 -2.46935 -2.13753 0
M  V30 16729 H 1597.69 -3.64823 -0.3605 0
M  V30 16730 H 1597.33 -4.19497 -2.77545 0
M  V30 16731 H 1597.03 -5.6127 -1.73926 0
M  V30 16732 H 1598.56 -5.49415 -2.66412 0
M  V30 16733 H 1599.97 -5.71876 -0.403814 0
M  V30 16734 H 1598.37 -5.99142 0.338905 0
M  V30 16735 H 1599.44 -4.74398 1.00373 0
M  V30 16736 N 1600.78 -0.180154 -1.56567 0
M  V30 16737 C 1602.01 0.467861 -2.01233 0
M  V30 16738 C 1602.42 1.56754 -1.05948 0
M  V30 16739 O 1601.76 1.83621 -0.0539219 0
M  V30 16740 C 1601.83 1.09819 -3.42316 0
M  V30 16741 C 1601.49 0.139084 -4.56788 0
M  V30 16742 C 1602.49 -0.64592 -5.15872 0
M  V30 16743 C 1600.17 0.0323422 -5.0229 0
M  V30 16744 C 1602.17 -1.52478 -6.18894 0
M  V30 16745 C 1599.85 -0.850092 -6.05158 0
M  V30 16746 C 1600.85 -1.62723 -6.63333 0
M  V30 16747 O 1600.54 -2.4949 -7.64205 0
M  V30 16748 H 1600.27 0.12331 -0.664658 0
M  V30 16749 H 1602.82 -0.28166 -2.0346 0
M  V30 16750 H 1601.05 1.89601 -3.37029 0
M  V30 16751 H 1602.74 1.64931 -3.70881 0
M  V30 16752 H 1603.51 -0.573675 -4.81595 0
M  V30 16753 H 1599.39 0.627034 -4.56716 0
M  V30 16754 H 1602.93 -2.13182 -6.64228 0
M  V30 16755 H 1598.83 -0.923507 -6.3886 0
M  V30 16756 H 1599.6 -2.43104 -7.81564 0
M  V30 16757 N 1602.26 1.57322 0.0935319 0
M  V30 16758 C 1603.68 1.5319 0.447781 0
M  V30 16759 C 1603.88 0.897107 1.80428 0
M  V30 16760 O 1602.93 0.490285 2.47694 0
M  V30 16761 C 1604.25 2.97908 0.408832 0
M  V30 16762 C 1605.79 3.09132 0.490576 0
M  V30 16763 C 1606.27 4.55459 0.481759 0
M  V30 16764 N 1607.76 4.60013 0.542468 0
M  V30 16765 C 1608.49 5.70683 0.557509 0
M  V30 16766 N 1607.99 6.9078 0.528664 0
M  V30 16767 N 1609.78 5.58862 0.602438 0
M  V30 16768 H 1601.93 1.96962 -0.794965 0
M  V30 16769 H 1604.2 0.900583 -0.296064 0
M  V30 16770 H 1603.9 3.47823 -0.520766 0
M  V30 16771 H 1603.78 3.56678 1.22722 0
M  V30 16772 H 1606.16 2.59203 1.41059 0
M  V30 16773 H 1606.25 2.53311 -0.355982 0
M  V30 16774 H 1605.89 5.0604 -0.43432 0
M  V30 16775 H 1605.82 5.09119 1.34555 0
M  V30 16776 H 1608.31 3.73578 0.569892 0
M  V30 16777 H 1608.62 7.70887 0.543467 0
M  V30 16778 H 1606.97 6.9323 0.495687 0
M  V30 16779 H 1610.16 4.63942 0.622514 0
M  V30 16780 H 1610.33 6.45116 0.610691 0
M  V30 16781 N 1603.74 -0.364395 1.53329 0
M  V30 16782 C 1604.69 -1.4466 1.76232 0
M  V30 16783 C 1605.67 -1.48605 0.616884 0
M  V30 16784 O 1606.86 -1.53826 0.875589 0
M  V30 16785 C 1603.99 -2.82078 1.95671 0
M  V30 16786 C 1603.08 -2.82606 3.16219 0
M  V30 16787 N 1603.47 -2.52781 4.38105 0
M  V30 16788 C 1601.77 -3.13766 3.16965 0
M  V30 16789 C 1602.47 -2.61017 5.19851 0
M  V30 16790 N 1601.45 -2.95777 4.56088 0
M  V30 16791 H 1605.25 -1.20465 2.68077 0
M  V30 16792 H 1602.76 -0.572589 1.51971 0
M  V30 16793 H 1604.76 -3.60026 2.10206 0
M  V30 16794 H 1603.42 -3.07236 1.05054 0
M  V30 16795 H 1604.43 -2.26353 4.65816 0
M  V30 16796 H 1601.11 -3.44231 2.36245 0
M  V30 16797 H 1602.5 -2.41294 6.27078 0
M  V30 16798 N 1605.22 -1.44709 -0.62426 0
M  V30 16799 C 1606.63 -1.42523 -1.20599 0
M  V30 16800 C 1606.98 -0.144129 -1.9567 0
M  V30 16801 O 1606.1 0.755175 -2.02796 0
M  V30 16802 C 1606.7 -2.58194 -2.19365 0
M  V30 16803 C 1605.26 -2.59181 -2.72951 0
M  V30 16804 C 1604.4 -2.34461 -1.48065 0
M  V30 16805 H 1607.36 -1.5319 -0.414532 0
M  V30 16806 H 1607.38 -2.3134 -3.02096 0
M  V30 16807 H 1606.89 -3.5142 -1.64699 0
M  V30 16808 H 1604.99 -1.69916 -3.31601 0
M  V30 16809 H 1605.1 -3.57884 -3.18521 0
M  V30 16810 H 1603.47 -1.83688 -1.76439 0
M  V30 16811 H 1604.25 -3.2981 -0.952918 0
M  V30 16812 N 1606.69 0.865285 -1.31722 0
M  V30 16813 C 1607.94 1.62098 -1.22865 0
M  V30 16814 C 1608.3 1.91249 0.210099 0
M  V30 16815 O 1607.59 1.53634 1.14487 0
M  V30 16816 C 1607.78 2.95462 -2.0109 0
M  V30 16817 C 1607.61 2.79333 -3.52425 0
M  V30 16818 C 1606.38 2.78273 -4.21773 0
M  V30 16819 C 1608.58 2.53854 -4.47284 0
M  V30 16820 N 1606.56 2.53243 -5.59233 0
M  V30 16821 C 1607.93 2.38131 -5.72445 0
M  V30 16822 C 1609.99 2.39236 -4.36658 0
M  V30 16823 C 1608.69 2.09276 -6.88183 0
M  V30 16824 C 1610.72 2.1177 -5.52184 0
M  V30 16825 C 1610.08 1.96839 -6.76338 0
M  V30 16826 H 1606.18 0.597308 -0.504724 0
M  V30 16827 H 1608.76 1.01803 -1.65965 0
M  V30 16828 H 1606.93 3.53754 -1.60352 0
M  V30 16829 H 1608.66 3.60343 -1.84214 0
M  V30 16830 H 1605.42 2.90826 -3.73788 0
M  V30 16831 H 1605.84 2.43686 -6.31622 0
M  V30 16832 H 1610.49 2.49505 -3.41331 0
M  V30 16833 H 1608.2 1.97745 -7.83532 0
M  V30 16834 H 1611.79 2.01253 -5.45883 0
M  V30 16835 H 1610.67 1.75888 -7.64221 0
M  V30 16836 N 1608.17 1.14759 1.0802 0
M  V30 16837 C 1609.45 0.828957 1.77166 0
M  V30 16838 C 1609.83 -0.676783 1.99957 0
M  V30 16839 O 1609.18 -1.61891 1.61256 0
M  V30 16840 C 1609.39 1.63213 3.08484 0
M  V30 16841 C 1610.74 1.834 3.82948 0
M  V30 16842 O 1611.76 1.59932 3.18277 0
M  V30 16843 O 1610.62 2.22661 4.99083 0
M  V30 16844 H 1607.71 0.304168 0.769032 0
M  V30 16845 H 1610.26 1.253 1.14446 0
M  V30 16846 H 1609.03 2.65474 2.8747 0
M  V30 16847 H 1608.65 1.20397 3.78933 0
M  V30 16848 N 1609.65 -1.26251 0.943322 0
M  V30 16849 C 1610.93 -1.88839 0.509831 0
M  V30 16850 C 1611.31 -1.85227 -1.01263 0
M  V30 16851 O 1610.66 -1.30805 -1.87356 0
M  V30 16852 C 1610.87 -3.32076 1.07361 0
M  V30 16853 C 1612.21 -4.0891 1.14357 0
M  V30 16854 O 1613.24 -3.41153 1.02435 0
M  V30 16855 O 1612.1 -5.30088 1.32926 0
M  V30 16856 H 1609.19 -0.810069 0.166484 0
M  V30 16857 H 1611.74 -1.34405 1.03602 0
M  V30 16858 H 1610.51 -3.29077 2.11716 0
M  V30 16859 H 1610.13 -3.94052 0.529991 0
M  V30 16860 N 1611.13 -0.710588 -1.40671 0
M  V30 16861 C 1612.38 -0.244967 -2.00207 0
M  V30 16862 C 1612.69 1.16693 -1.56978 0
M  V30 16863 O 1613.9 1.73081 -2.09177 0
M  V30 16864 C 1612.35 -0.387049 -3.57813 0
M  V30 16865 C 1611.96 -1.80527 -4.10017 0
M  V30 16866 C 1613.71 0.0180338 -4.24496 0
M  V30 16867 C 1611.61 -1.89821 -5.60109 0
M  V30 16868 H 1610.54 -0.087831 -0.748867 0
M  V30 16869 H 1613.19 -0.880956 -1.6097 0
M  V30 16870 H 1611.58 0.317442 -3.94726 0
M  V30 16871 H 1612.75 -2.53974 -3.84492 0
M  V30 16872 H 1611.06 -2.16137 -3.55913 0
M  V30 16873 H 1613.66 -0.0307544 -5.34691 0
M  V30 16874 H 1614 1.05915 -4.02601 0
M  V30 16875 H 1614.54 -0.63672 -3.92671 0
M  V30 16876 H 1611.28 -2.92036 -5.86852 0
M  V30 16877 H 1610.8 -1.20779 -5.87514 0
M  V30 16878 H 1612.48 -1.66801 -6.25129 0
M  V30 16879 N 1612.61 1.50847 -0.456408 0
M  V30 16880 C 1613.83 2.07139 0.104054 0
M  V30 16881 C 1614.26 1.31966 1.34039 0
M  V30 16882 O 1613.62 0.363038 1.77628 0
M  V30 16883 C 1613.66 3.5853 0.385794 0
M  V30 16884 O 1612.77 3.85351 1.46895 0
M  V30 16885 H 1612.11 0.663968 -0.00651246 0
M  V30 16886 H 1614.64 1.94226 -0.64323 0
M  V30 16887 H 1614.65 4.03097 0.630644 0
M  V30 16888 H 1613.32 4.12665 -0.51773 0
M  V30 16889 H 1611.9 3.52635 1.21256 0
M  V30 16890 N 1614.09 0.188454 1.56469 0
M  V30 16891 C 1615.32 -0.457182 2.01478 0
M  V30 16892 C 1615.72 -1.5619 1.06777 0
M  V30 16893 O 1615.07 -1.8359 0.063659 0
M  V30 16894 C 1615.13 -1.08002 3.42893 0
M  V30 16895 C 1614.79 -0.114858 4.56856 0
M  V30 16896 C 1615.79 0.673269 5.15522 0
M  V30 16897 C 1613.47 -0.00570411 5.023 0
M  V30 16898 C 1615.47 1.55758 6.18076 0
M  V30 16899 C 1613.16 0.882173 6.04699 0
M  V30 16900 C 1614.15 1.66239 6.6246 0
M  V30 16901 O 1613.84 2.5354 7.62871 0
M  V30 16902 H 1613.57 -0.119784 0.665303 0
M  V30 16903 H 1616.13 0.292446 2.03307 0
M  V30 16904 H 1614.36 -1.87811 3.3803 0
M  V30 16905 H 1616.05 -1.62962 3.7175 0
M  V30 16906 H 1616.81 0.599207 4.81284 0
M  V30 16907 H 1612.69 -0.602804 4.57042 0
M  V30 16908 H 1616.24 2.16701 6.63088 0
M  V30 16909 H 1612.13 0.957375 6.38361 0
M  V30 16910 H 1612.9 2.47245 7.80264 0
M  V30 16911 N 1615.56 -1.5737 -0.0851874 0
M  V30 16912 C 1616.81 -1.86864 -0.78802 0
M  V30 16913 C 1617.14 -0.778936 -1.77894 0
M  V30 16914 O 1616.42 0.212132 -1.9334 0
M  V30 16915 C 1616.7 -3.27006 -1.50795 0
M  V30 16916 C 1616.55 -4.46615 -0.534354 0
M  V30 16917 C 1617.87 -3.65187 -2.45614 0
M  V30 16918 H 1614.99 -0.679657 -0.285017 0
M  V30 16919 H 1617.63 -1.8993 -0.0514443 0
M  V30 16920 H 1615.78 -3.24522 -2.13583 0
M  V30 16921 H 1617.46 -4.61217 0.0872761 0
M  V30 16922 H 1615.7 -4.33536 0.151455 0
M  V30 16923 H 1616.37 -5.41423 -1.07544 0
M  V30 16924 H 1618.85 -3.68678 -1.92913 0
M  V30 16925 H 1617.72 -4.64158 -2.92999 0
M  V30 16926 H 1617.98 -2.944 -3.2982 0
M  V30 16927 N 1617.04 0.356258 -1.53521 0
M  V30 16928 C 1617.97 1.44271 -1.83598 0
M  V30 16929 C 1618.95 1.5547 -0.690141 0
M  V30 16930 O 1620.14 1.69886 -0.940868 0
M  V30 16931 C 1617.27 2.8149 -2.03422 0
M  V30 16932 C 1616.22 2.85108 -3.19213 0
M  V30 16933 C 1615.55 4.25091 -3.24348 0
M  V30 16934 C 1616.85 2.51788 -4.57602 0
M  V30 16935 H 1618.54 1.1935 -2.74583 0
M  V30 16936 H 1616.09 0.572707 -1.32121 0
M  V30 16937 H 1618.04 3.57531 -2.23046 0
M  V30 16938 H 1616.76 3.07819 -1.09155 0
M  V30 16939 H 1615.42 2.1152 -2.99424 0
M  V30 16940 H 1615.07 4.4851 -2.277 0
M  V30 16941 H 1614.77 4.28426 -4.0215 0
M  V30 16942 H 1616.3 5.02992 -3.46167 0
M  V30 16943 H 1617.71 3.17542 -4.77326 0
M  V30 16944 H 1616.11 2.66426 -5.37715 0
M  V30 16945 H 1617.18 1.4701 -4.62078 0
M  V30 16946 N 1618.52 1.45038 0.616577 0
M  V30 16947 C 1619.93 1.4316 1.19842 0
M  V30 16948 C 1620.28 0.154504 1.95591 0
M  V30 16949 O 1619.41 -0.744409 2.03193 0
M  V30 16950 C 1620 2.59354 2.17993 0
M  V30 16951 C 1618.56 2.60625 2.71573 0
M  V30 16952 C 1617.71 2.35243 1.4682 0
M  V30 16953 H 1620.66 1.53408 0.406402 0
M  V30 16954 H 1620.68 2.32939 3.00865 0
M  V30 16955 H 1620.19 3.52288 1.62833 0
M  V30 16956 H 1618.29 1.71672 3.30695 0
M  V30 16957 H 1618.41 3.59568 3.16619 0
M  V30 16958 H 1616.77 1.84622 1.75462 0
M  V30 16959 H 1617.55 3.3031 0.935414 0
M  V30 16960 N 1620 -0.858287 1.32179 0
M  V30 16961 C 1620.91 -1.99894 1.228 0
M  V30 16962 C 1621.92 -1.73417 0.142323 0
M  V30 16963 O 1623.1 -1.98114 0.362321 0
M  V30 16964 C 1620.16 -3.33495 0.947745 0
M  V30 16965 C 1619.23 -3.73217 2.12149 0
M  V30 16966 C 1618.46 -5.00443 1.85452 0
M  V30 16967 O 1618.68 -5.64828 0.79531 0
M  V30 16968 O 1617.62 -5.3721 2.71457 0
M  V30 16969 H 1621.44 -2.10742 2.18682 0
M  V30 16970 H 1619.03 -0.988385 1.12033 0
M  V30 16971 H 1620.91 -4.13585 0.807791 0
M  V30 16972 H 1619.58 -3.23694 0.019053 0
M  V30 16973 H 1618.49 -2.93718 2.3169 0
M  V30 16974 H 1619.82 -3.87659 3.03285 0
M  V30 16975 N 1621.48 -1.1533 -1.07409 0
M  V30 16976 C 1622.43 -0.81798 -2.12822 0
M  V30 16977 C 1623.41 0.1975 -1.59683 0
M  V30 16978 O 1624.6 -0.00166798 -1.77 0
M  V30 16979 C 1621.73 -0.308356 -3.41912 0
M  V30 16980 C 1620.82 -1.35396 -4.01906 0
M  V30 16981 N 1621.21 -2.5611 -4.36167 0
M  V30 16982 C 1619.51 -1.20656 -4.29369 0
M  V30 16983 C 1620.21 -3.23124 -4.837 0
M  V30 16984 N 1619.18 -2.50513 -4.82436 0
M  V30 16985 H 1622.98 -1.73611 -2.37143 0
M  V30 16986 H 1620.5 -1.03867 -1.24842 0
M  V30 16987 H 1622.5 -0.0497865 -4.1687 0
M  V30 16988 H 1621.16 0.60384 -3.19036 0
M  V30 16989 H 1622.17 -2.93258 -4.26873 0
M  V30 16990 H 1618.84 -0.354208 -4.15995 0
M  V30 16991 H 1620.23 -4.26103 -5.19505 0
M  V30 16992 N 1622.95 1.25748 -0.950004 0
M  V30 16993 C 1623.89 2.24472 -0.410787 0
M  V30 16994 C 1624.86 1.54549 0.505309 0
M  V30 16995 O 1626.05 1.83275 0.440744 0
M  V30 16996 C 1623.18 3.36224 0.408832 0
M  V30 16997 C 1622.22 4.24151 -0.446997 0
M  V30 16998 S 1623.05 5.01549 -1.87639 0
M  V30 16999 C 1624.21 6.16771 -1.06507 0
M  V30 17000 H 1624.44 2.69863 -1.24745 0
M  V30 17001 H 1621.98 1.34752 -0.753744 0
M  V30 17002 H 1623.93 4.01049 0.875796 0
M  V30 17003 H 1622.6 2.89427 1.22027 0
M  V30 17004 H 1621.79 5.03673 0.181407 0
M  V30 17005 H 1621.39 3.64236 -0.848989 0
M  V30 17006 H 1623.68 6.76783 -0.311531 0
M  V30 17007 H 1624.63 6.83936 -1.83406 0
M  V30 17008 H 1625.03 5.61332 -0.597243 0
M  V30 17009 N 1624.43 0.718038 1.40292 0
M  V30 17010 C 1625.66 0.266918 2.05675 0
M  V30 17011 C 1626.08 -1.08364 1.53749 0
M  V30 17012 O 1625.44 -1.6831 0.673912 0
M  V30 17013 C 1625.49 0.259606 3.59664 0
M  V30 17014 O 1624.59 -0.758372 4.05367 0
M  V30 17015 H 1623.93 0.124786 0.652169 0
M  V30 17016 H 1626.46 0.979207 1.79646 0
M  V30 17017 H 1626.47 0.098135 4.07882 0
M  V30 17018 H 1625.15 1.24517 3.96823 0
M  V30 17019 H 1623.72 -0.564425 3.68604 0
M  V30 17020 N 1625.91 -1.50602 0.464402 0
M  V30 17021 C 1626.84 -2.25029 -0.379075 0
M  V30 17022 C 1627.82 -1.28064 -1.00192 0
M  V30 17023 O 1629.01 -1.5727 -1.03915 0
M  V30 17024 C 1626.13 -3.02144 -1.53057 0
M  V30 17025 C 1625.18 -4.13981 -1.02576 0
M  V30 17026 S 1626.01 -5.35473 0.0541453 0
M  V30 17027 C 1627.17 -6.16133 -1.10138 0
M  V30 17028 H 1627.4 -2.96224 0.252731 0
M  V30 17029 H 1624.93 -1.52376 0.249205 0
M  V30 17030 H 1626.89 -3.47167 -2.19056 0
M  V30 17031 H 1625.55 -2.30489 -2.13387 0
M  V30 17032 H 1624.75 -4.67316 -1.88763 0
M  V30 17033 H 1624.35 -3.7136 -0.443597 0
M  V30 17034 H 1626.64 -6.46861 -2.01437 0
M  V30 17035 H 1627.58 -7.0549 -0.60743 0
M  V30 17036 H 1627.99 -5.48066 -1.35218 0
M  V30 17037 O 1627.43 -0.338096 -1.57921 0
M  V30 17038 H 1628.12 0.218593 -1.92463 0
M  V30 END ATOM
M  V30 BEGIN BOND
M  V30 END BOND
M  V30 END CTAB
M  END
$$$$
